# Generated by pormake.
# Topology tph, (6,8)-cn, num edge types: 1
# Building blocks:
#     Node 0, Type 0, BuildingBlock: IZENUY_clean_sbu_0, # of connection points: 6
#     Node 1, Type 0, BuildingBlock: IZENUY_clean_sbu_0, # of connection points: 6
#     Node 2, Type 0, BuildingBlock: IZENUY_clean_sbu_0, # of connection points: 6
#     Node 3, Type 0, BuildingBlock: IZENUY_clean_sbu_0, # of connection points: 6
#     Node 4, Type 0, BuildingBlock: IZENUY_clean_sbu_0, # of connection points: 6
#     Node 5, Type 0, BuildingBlock: IZENUY_clean_sbu_0, # of connection points: 6
#     Node 6, Type 0, BuildingBlock: IZENUY_clean_sbu_0, # of connection points: 6
#     Node 7, Type 0, BuildingBlock: IZENUY_clean_sbu_0, # of connection points: 6
#     Node 8, Type 0, BuildingBlock: IZENUY_clean_sbu_0, # of connection points: 6
#     Node 9, Type 0, BuildingBlock: IZENUY_clean_sbu_0, # of connection points: 6
#     Node 10, Type 0, BuildingBlock: IZENUY_clean_sbu_0, # of connection points: 6
#     Node 11, Type 0, BuildingBlock: IZENUY_clean_sbu_0, # of connection points: 6
#     Node 12, Type 0, BuildingBlock: IZENUY_clean_sbu_0, # of connection points: 6
#     Node 13, Type 0, BuildingBlock: IZENUY_clean_sbu_0, # of connection points: 6
#     Node 14, Type 0, BuildingBlock: IZENUY_clean_sbu_0, # of connection points: 6
#     Node 15, Type 0, BuildingBlock: IZENUY_clean_sbu_0, # of connection points: 6
#     Node 16, Type 1, BuildingBlock: TAGTUT_clean_sbu_1, # of connection points: 8
#     Node 17, Type 1, BuildingBlock: TAGTUT_clean_sbu_1, # of connection points: 8
#     Node 18, Type 1, BuildingBlock: TAGTUT_clean_sbu_1, # of connection points: 8
#     Node 19, Type 1, BuildingBlock: TAGTUT_clean_sbu_1, # of connection points: 8
#     Node 20, Type 1, BuildingBlock: TAGTUT_clean_sbu_1, # of connection points: 8
#     Node 21, Type 1, BuildingBlock: TAGTUT_clean_sbu_1, # of connection points: 8
#     Node 22, Type 1, BuildingBlock: TAGTUT_clean_sbu_1, # of connection points: 8
#     Node 23, Type 1, BuildingBlock: TAGTUT_clean_sbu_1, # of connection points: 8
#     Node 24, Type 1, BuildingBlock: TAGTUT_clean_sbu_1, # of connection points: 8
#     Node 25, Type 1, BuildingBlock: TAGTUT_clean_sbu_1, # of connection points: 8
#     Node 26, Type 1, BuildingBlock: TAGTUT_clean_sbu_1, # of connection points: 8
#     Node 27, Type 1, BuildingBlock: TAGTUT_clean_sbu_1, # of connection points: 8
#     Edge 28, Type (0, 1), BuildingBlock: XIVTED_clean_linker_0, # of connection points: 2
#     Edge 29, Type (0, 1), BuildingBlock: XIVTED_clean_linker_0, # of connection points: 2
#     Edge 30, Type (0, 1), BuildingBlock: XIVTED_clean_linker_0, # of connection points: 2
#     Edge 31, Type (0, 1), BuildingBlock: XIVTED_clean_linker_0, # of connection points: 2
#     Edge 32, Type (0, 1), BuildingBlock: XIVTED_clean_linker_0, # of connection points: 2
#     Edge 33, Type (0, 1), BuildingBlock: XIVTED_clean_linker_0, # of connection points: 2
#     Edge 34, Type (0, 1), BuildingBlock: XIVTED_clean_linker_0, # of connection points: 2
#     Edge 35, Type (0, 1), BuildingBlock: XIVTED_clean_linker_0, # of connection points: 2
#     Edge 36, Type (0, 1), BuildingBlock: XIVTED_clean_linker_0, # of connection points: 2
#     Edge 37, Type (0, 1), BuildingBlock: XIVTED_clean_linker_0, # of connection points: 2
#     Edge 38, Type (0, 1), BuildingBlock: XIVTED_clean_linker_0, # of connection points: 2
#     Edge 39, Type (0, 1), BuildingBlock: XIVTED_clean_linker_0, # of connection points: 2
#     Edge 40, Type (0, 1), BuildingBlock: XIVTED_clean_linker_0, # of connection points: 2
#     Edge 41, Type (0, 1), BuildingBlock: XIVTED_clean_linker_0, # of connection points: 2
#     Edge 42, Type (0, 1), BuildingBlock: XIVTED_clean_linker_0, # of connection points: 2
#     Edge 43, Type (0, 1), BuildingBlock: XIVTED_clean_linker_0, # of connection points: 2
#     Edge 44, Type (0, 1), BuildingBlock: XIVTED_clean_linker_0, # of connection points: 2
#     Edge 45, Type (0, 1), BuildingBlock: XIVTED_clean_linker_0, # of connection points: 2
#     Edge 46, Type (0, 1), BuildingBlock: XIVTED_clean_linker_0, # of connection points: 2
#     Edge 47, Type (0, 1), BuildingBlock: XIVTED_clean_linker_0, # of connection points: 2
#     Edge 48, Type (0, 1), BuildingBlock: XIVTED_clean_linker_0, # of connection points: 2
#     Edge 49, Type (0, 1), BuildingBlock: XIVTED_clean_linker_0, # of connection points: 2
#     Edge 50, Type (0, 1), BuildingBlock: XIVTED_clean_linker_0, # of connection points: 2
#     Edge 51, Type (0, 1), BuildingBlock: XIVTED_clean_linker_0, # of connection points: 2
#     Edge 52, Type (0, 1), BuildingBlock: XIVTED_clean_linker_0, # of connection points: 2
#     Edge 53, Type (0, 1), BuildingBlock: XIVTED_clean_linker_0, # of connection points: 2
#     Edge 54, Type (0, 1), BuildingBlock: XIVTED_clean_linker_0, # of connection points: 2
#     Edge 55, Type (0, 1), BuildingBlock: XIVTED_clean_linker_0, # of connection points: 2
#     Edge 56, Type (0, 1), BuildingBlock: XIVTED_clean_linker_0, # of connection points: 2
#     Edge 57, Type (0, 1), BuildingBlock: XIVTED_clean_linker_0, # of connection points: 2
#     Edge 58, Type (0, 1), BuildingBlock: XIVTED_clean_linker_0, # of connection points: 2
#     Edge 59, Type (0, 1), BuildingBlock: XIVTED_clean_linker_0, # of connection points: 2
#     Edge 60, Type (0, 1), BuildingBlock: XIVTED_clean_linker_0, # of connection points: 2
#     Edge 61, Type (0, 1), BuildingBlock: XIVTED_clean_linker_0, # of connection points: 2
#     Edge 62, Type (0, 1), BuildingBlock: XIVTED_clean_linker_0, # of connection points: 2
#     Edge 63, Type (0, 1), BuildingBlock: XIVTED_clean_linker_0, # of connection points: 2
#     Edge 64, Type (0, 1), BuildingBlock: XIVTED_clean_linker_0, # of connection points: 2
#     Edge 65, Type (0, 1), BuildingBlock: XIVTED_clean_linker_0, # of connection points: 2
#     Edge 66, Type (0, 1), BuildingBlock: XIVTED_clean_linker_0, # of connection points: 2
#     Edge 67, Type (0, 1), BuildingBlock: XIVTED_clean_linker_0, # of connection points: 2
#     Edge 68, Type (0, 1), BuildingBlock: XIVTED_clean_linker_0, # of connection points: 2
#     Edge 69, Type (0, 1), BuildingBlock: XIVTED_clean_linker_0, # of connection points: 2
#     Edge 70, Type (0, 1), BuildingBlock: XIVTED_clean_linker_0, # of connection points: 2
#     Edge 71, Type (0, 1), BuildingBlock: XIVTED_clean_linker_0, # of connection points: 2
#     Edge 72, Type (0, 1), BuildingBlock: XIVTED_clean_linker_0, # of connection points: 2
#     Edge 73, Type (0, 1), BuildingBlock: XIVTED_clean_linker_0, # of connection points: 2
#     Edge 74, Type (0, 1), BuildingBlock: XIVTED_clean_linker_0, # of connection points: 2
#     Edge 75, Type (0, 1), BuildingBlock: XIVTED_clean_linker_0, # of connection points: 2
#     Edge 76, Type (0, 1), BuildingBlock: XIVTED_clean_linker_0, # of connection points: 2
#     Edge 77, Type (0, 1), BuildingBlock: XIVTED_clean_linker_0, # of connection points: 2
#     Edge 78, Type (0, 1), BuildingBlock: XIVTED_clean_linker_0, # of connection points: 2
#     Edge 79, Type (0, 1), BuildingBlock: XIVTED_clean_linker_0, # of connection points: 2
#     Edge 80, Type (0, 1), BuildingBlock: XIVTED_clean_linker_0, # of connection points: 2
#     Edge 81, Type (0, 1), BuildingBlock: XIVTED_clean_linker_0, # of connection points: 2
#     Edge 82, Type (0, 1), BuildingBlock: XIVTED_clean_linker_0, # of connection points: 2
#     Edge 83, Type (0, 1), BuildingBlock: XIVTED_clean_linker_0, # of connection points: 2
#     Edge 84, Type (0, 1), BuildingBlock: XIVTED_clean_linker_0, # of connection points: 2
#     Edge 85, Type (0, 1), BuildingBlock: XIVTED_clean_linker_0, # of connection points: 2
#     Edge 86, Type (0, 1), BuildingBlock: XIVTED_clean_linker_0, # of connection points: 2
#     Edge 87, Type (0, 1), BuildingBlock: XIVTED_clean_linker_0, # of connection points: 2
#     Edge 88, Type (0, 1), BuildingBlock: XIVTED_clean_linker_0, # of connection points: 2
#     Edge 89, Type (0, 1), BuildingBlock: XIVTED_clean_linker_0, # of connection points: 2
#     Edge 90, Type (0, 1), BuildingBlock: XIVTED_clean_linker_0, # of connection points: 2
#     Edge 91, Type (0, 1), BuildingBlock: XIVTED_clean_linker_0, # of connection points: 2
#     Edge 92, Type (0, 1), BuildingBlock: XIVTED_clean_linker_0, # of connection points: 2
#     Edge 93, Type (0, 1), BuildingBlock: XIVTED_clean_linker_0, # of connection points: 2
#     Edge 94, Type (0, 1), BuildingBlock: XIVTED_clean_linker_0, # of connection points: 2
#     Edge 95, Type (0, 1), BuildingBlock: XIVTED_clean_linker_0, # of connection points: 2
#     Edge 96, Type (0, 1), BuildingBlock: XIVTED_clean_linker_0, # of connection points: 2
#     Edge 97, Type (0, 1), BuildingBlock: XIVTED_clean_linker_0, # of connection points: 2
#     Edge 98, Type (0, 1), BuildingBlock: XIVTED_clean_linker_0, # of connection points: 2
#     Edge 99, Type (0, 1), BuildingBlock: XIVTED_clean_linker_0, # of connection points: 2
#     Edge 100, Type (0, 1), BuildingBlock: XIVTED_clean_linker_0, # of connection points: 2
#     Edge 101, Type (0, 1), BuildingBlock: XIVTED_clean_linker_0, # of connection points: 2
#     Edge 102, Type (0, 1), BuildingBlock: XIVTED_clean_linker_0, # of connection points: 2
#     Edge 103, Type (0, 1), BuildingBlock: XIVTED_clean_linker_0, # of connection points: 2
#     Edge 104, Type (0, 1), BuildingBlock: XIVTED_clean_linker_0, # of connection points: 2
#     Edge 105, Type (0, 1), BuildingBlock: XIVTED_clean_linker_0, # of connection points: 2
#     Edge 106, Type (0, 1), BuildingBlock: XIVTED_clean_linker_0, # of connection points: 2
#     Edge 107, Type (0, 1), BuildingBlock: XIVTED_clean_linker_0, # of connection points: 2
#     Edge 108, Type (0, 1), BuildingBlock: XIVTED_clean_linker_0, # of connection points: 2
#     Edge 109, Type (0, 1), BuildingBlock: XIVTED_clean_linker_0, # of connection points: 2
#     Edge 110, Type (0, 1), BuildingBlock: XIVTED_clean_linker_0, # of connection points: 2
#     Edge 111, Type (0, 1), BuildingBlock: XIVTED_clean_linker_0, # of connection points: 2
#     Edge 112, Type (0, 1), BuildingBlock: XIVTED_clean_linker_0, # of connection points: 2
#     Edge 113, Type (0, 1), BuildingBlock: XIVTED_clean_linker_0, # of connection points: 2
#     Edge 114, Type (0, 1), BuildingBlock: XIVTED_clean_linker_0, # of connection points: 2
#     Edge 115, Type (0, 1), BuildingBlock: XIVTED_clean_linker_0, # of connection points: 2
#     Edge 116, Type (0, 1), BuildingBlock: XIVTED_clean_linker_0, # of connection points: 2
#     Edge 117, Type (0, 1), BuildingBlock: XIVTED_clean_linker_0, # of connection points: 2
#     Edge 118, Type (0, 1), BuildingBlock: XIVTED_clean_linker_0, # of connection points: 2
#     Edge 119, Type (0, 1), BuildingBlock: XIVTED_clean_linker_0, # of connection points: 2
#     Edge 120, Type (0, 1), BuildingBlock: XIVTED_clean_linker_0, # of connection points: 2
#     Edge 121, Type (0, 1), BuildingBlock: XIVTED_clean_linker_0, # of connection points: 2
#     Edge 122, Type (0, 1), BuildingBlock: XIVTED_clean_linker_0, # of connection points: 2
#     Edge 123, Type (0, 1), BuildingBlock: XIVTED_clean_linker_0, # of connection points: 2
# Relax obj value: 0.214
# Max RMSD: 0.314
# Mean RMSD: 0.271
data_MOF--net-tph--node1-IZENUY_clean_sbu_0--node2-TAGTUT_clean_sbu_1--edge1-XIVTED_clean_linker_0
_symmetry_space_group_name_H-M    P1
_symmetry_Int_Tables_number       1
_symmetry_cell_setting            triclinic
loop_
_symmetry_equiv_pos_as_xyz
'x, y, z'
_cell_length_a     47.481578
_cell_length_b     47.163196
_cell_length_c     46.765243
_cell_angle_alpha  90.17743
_cell_angle_beta   92.041712
_cell_angle_gamma 90.157254
loop_
_atom_site_label
_atom_site_type_symbol
_atom_site_fract_x
_atom_site_fract_y
_atom_site_fract_z
_atom_type_partial_charge
Fe0 Fe 0.20424 0.19503 0.13403 0.0
Fe1 Fe 0.1622 0.20382 0.18097 0.0
O2 O 0.19116 0.18531 0.16737 0.0
Fe3 Fe 0.20603 0.1573 0.1875 0.0
O4 O 0.19912 0.13259 0.15947 0.0
O5 O 0.212 0.15791 0.12268 0.0
O6 O 0.17033 0.18941 0.11668 0.0
C7 C 0.14955 0.20477 0.12124 0.0
C8 C 0.25391 0.18367 0.16336 0.0
O9 O 0.14724 0.21592 0.14571 0.0
C10 C 0.19412 0.1902 0.23167 0.0
O11 O 0.19786 0.23395 0.14043 0.0
O12 O 0.18342 0.235 0.18484 0.0
O13 O 0.24254 0.16342 0.17654 0.0
O14 O 0.2394 0.20081 0.14853 0.0
C15 C 0.14682 0.14971 0.19008 0.0
O16 O 0.17073 0.19591 0.21911 0.0
O17 O 0.21375 0.18071 0.21723 0.0
C18 C 0.19352 0.24747 0.16373 0.0
O19 O 0.14068 0.17255 0.17734 0.0
O20 O 0.17148 0.14563 0.20102 0.0
C21 C 0.20405 0.1345 0.13342 0.0
Fe22 Fe 0.45063 0.57995 0.11117 0.0
Fe23 Fe 0.43905 0.61505 0.05712 0.0
O24 O 0.43099 0.58596 0.07891 0.0
Fe25 Fe 0.40224 0.56366 0.06901 0.0
O26 O 0.38412 0.57398 0.10052 0.0
O27 O 0.4198 0.56641 0.13085 0.0
O28 O 0.44097 0.61388 0.12482 0.0
C29 C 0.44302 0.63736 0.11264 0.0
C30 C 0.44286 0.52537 0.09456 0.0
O31 O 0.45055 0.63881 0.08695 0.0
C32 C 0.42392 0.57057 0.01719 0.0
O33 O 0.48471 0.5936 0.09719 0.0
O34 O 0.47405 0.60216 0.05189 0.0
O35 O 0.4176 0.5316 0.08682 0.0
O36 O 0.46066 0.54483 0.09966 0.0
C37 C 0.38252 0.6183 0.05171 0.0
O38 O 0.42825 0.5966 0.02336 0.0
O39 O 0.419 0.55292 0.03666 0.0
C40 C 0.49228 0.59842 0.07169 0.0
O41 O 0.40468 0.62978 0.06143 0.0
O42 O 0.38131 0.59146 0.04925 0.0
C43 C 0.39377 0.57181 0.12586 0.0
Fe44 Fe 0.8261 0.3066 0.15193 0.0
Fe45 Fe 0.86169 0.29551 0.20615 0.0
O46 O 0.83722 0.31692 0.18675 0.0
Fe47 Fe 0.82401 0.34815 0.2019 0.0
O48 O 0.8361 0.36987 0.17321 0.0
O49 O 0.81931 0.34272 0.13858 0.0
O50 O 0.8614 0.31048 0.14016 0.0
C51 C 0.88184 0.29649 0.15042 0.0
C52 C 0.77611 0.32237 0.17289 0.0
O53 O 0.87987 0.28327 0.17389 0.0
C54 C 0.82591 0.31557 0.24929 0.0
O55 O 0.83042 0.26824 0.15853 0.0
O56 O 0.83734 0.26597 0.20507 0.0
O57 O 0.78811 0.34385 0.18479 0.0
O58 O 0.79043 0.30267 0.1625 0.0
C59 C 0.88289 0.34821 0.21757 0.0
O60 O 0.84894 0.30471 0.242 0.0
O61 O 0.81071 0.32876 0.23143 0.0
C62 C 0.82928 0.25455 0.18178 0.0
O63 O 0.88688 0.32371 0.20788 0.0
O64 O 0.85801 0.35743 0.22132 0.0
C65 C 0.82805 0.36661 0.14755 0.0
Fe66 Fe 0.55936 0.93646 0.1094 0.0
Fe67 Fe 0.56804 0.90064 0.05548 0.0
O68 O 0.57919 0.92845 0.07902 0.0
Fe69 Fe 0.61099 0.94717 0.0736 0.0
O70 O 0.6256 0.93605 0.10803 0.0
O71 O 0.58935 0.94837 0.13254 0.0
O72 O 0.56582 0.90123 0.12345 0.0
C73 C 0.56063 0.87836 0.11018 0.0
C74 C 0.57236 0.98983 0.09226 0.0
O75 O 0.55356 0.87843 0.0838 0.0
C76 C 0.5907 0.94269 0.0182 0.0
O77 O 0.52539 0.92554 0.09277 0.0
O78 O 0.53393 0.91704 0.04776 0.0
O79 O 0.59731 0.98111 0.08799 0.0
O80 O 0.55271 0.97234 0.09674 0.0
C81 C 0.62526 0.89047 0.06146 0.0
O82 O 0.58146 0.9179 0.02316 0.0
O83 O 0.59897 0.95885 0.03842 0.0
C84 C 0.51658 0.92131 0.0672 0.0
O85 O 0.60037 0.8815 0.06227 0.0
O86 O 0.63026 0.91672 0.05873 0.0
C87 C 0.61462 0.94026 0.1317 0.0
Fe88 Fe 0.18969 0.85447 0.31107 0.0
Fe89 Fe 0.20375 0.81173 0.35786 0.0
O90 O 0.18162 0.82299 0.32908 0.0
Fe91 Fe 0.15175 0.8028 0.31832 0.0
O92 O 0.12827 0.83205 0.32494 0.0
O93 O 0.15249 0.86343 0.30142 0.0
O94 O 0.1858 0.87482 0.34314 0.0
C95 C 0.20193 0.87186 0.36479 0.0
C96 C 0.1738 0.82259 0.26571 0.0
O97 O 0.21446 0.84835 0.36929 0.0
C98 C 0.18858 0.76009 0.32933 0.0
O99 O 0.22856 0.85118 0.31704 0.0
O100 O 0.23314 0.80834 0.33475 0.0
O101 O 0.15366 0.8122 0.27966 0.0
O102 O 0.19378 0.83553 0.27833 0.0
C103 C 0.15296 0.80037 0.37959 0.0
O104 O 0.19701 0.77318 0.35188 0.0
O105 O 0.17335 0.77246 0.31072 0.0
C106 C 0.2433 0.82908 0.32173 0.0
O107 O 0.17541 0.81455 0.38206 0.0
O108 O 0.14474 0.79024 0.35533 0.0
C109 C 0.12936 0.8551 0.31148 0.0
Fe110 Fe 0.10843 0.56071 0.93342 0.0
Fe111 Fe 0.06149 0.57804 0.89041 0.0
O112 O 0.0788 0.58197 0.92437 0.0
Fe113 Fe 0.06667 0.60748 0.94875 0.0
O114 O 0.10021 0.62557 0.95016 0.0
O115 O 0.1267 0.58774 0.95587 0.0
O116 O 0.12746 0.57448 0.9036 0.0
C117 C 0.11925 0.57278 0.87775 0.0
C118 C 0.084 0.56121 0.98485 0.0
O119 O 0.09355 0.5673 0.87137 0.0
C120 C 0.01599 0.58888 0.92752 0.0
O121 O 0.09522 0.52966 0.91282 0.0
O122 O 0.05223 0.54154 0.89821 0.0
O123 O 0.07656 0.58673 0.98073 0.0
O124 O 0.0916 0.546 0.96427 0.0
C125 C 0.06443 0.63566 0.89574 0.0
O126 O 0.02613 0.58868 0.9027 0.0
O127 O 0.03218 0.59098 0.94933 0.0
C128 C 0.07026 0.52277 0.9048 0.0
O129 O 0.07034 0.61404 0.88124 0.0
O130 O 0.05545 0.63322 0.92085 0.0
C131 C 0.12302 0.6142 0.95849 0.0
Fe132 Fe 0.80384 0.6548 0.30071 0.0
Fe133 Fe 0.84998 0.69974 0.29828 0.0
O134 O 0.82184 0.68412 0.31608 0.0
Fe135 Fe 0.81234 0.69778 0.34952 0.0
O136 O 0.77736 0.70602 0.33603 0.0
O137 O 0.76947 0.66454 0.31547 0.0
O138 O 0.79367 0.67467 0.26908 0.0
C139 C 0.8113 0.68578 0.25303 0.0
C140 C 0.80733 0.63843 0.35645 0.0
O141 O 0.83608 0.69121 0.26227 0.0
C142 C 0.86914 0.69994 0.3556 0.0
O143 O 0.83542 0.63981 0.28399 0.0
O144 O 0.86968 0.6675 0.30066 0.0
O145 O 0.80088 0.66336 0.36399 0.0
O146 O 0.81307 0.63308 0.33099 0.0
C147 C 0.82583 0.74697 0.31725 0.0
O148 O 0.86961 0.71102 0.33105 0.0
O149 O 0.84671 0.68978 0.36476 0.0
C150 C 0.86114 0.64386 0.29137 0.0
O151 O 0.83115 0.73255 0.29547 0.0
O152 O 0.82253 0.73479 0.34115 0.0
C153 C 0.76045 0.68755 0.32607 0.0
Fe154 Fe 0.89936 0.95111 0.9288 0.0
Fe155 Fe 0.94901 0.93692 0.89136 0.0
O156 O 0.92841 0.92913 0.92126 0.0
Fe157 Fe 0.93572 0.89865 0.94226 0.0
O158 O 0.90088 0.88433 0.93437 0.0
O159 O 0.87704 0.92281 0.9432 0.0
O160 O 0.88293 0.94288 0.89422 0.0
C161 C 0.89428 0.94639 0.87057 0.0
C162 C 0.9197 0.94126 0.98309 0.0
O163 O 0.92009 0.95275 0.86974 0.0
C164 C 0.98957 0.91556 0.93233 0.0
O165 O 0.91611 0.98373 0.91533 0.0
O166 O 0.95944 0.97105 0.90625 0.0
O167 O 0.92489 0.91564 0.97614 0.0
O168 O 0.91391 0.95964 0.96411 0.0
C169 C 0.94054 0.87966 0.88538 0.0
O170 O 0.98172 0.92175 0.90693 0.0
O171 O 0.97162 0.91046 0.95098 0.0
C172 C 0.94151 0.99026 0.91038 0.0
O173 O 0.93898 0.90398 0.87459 0.0
O174 O 0.94693 0.87644 0.9118 0.0
C175 C 0.87775 0.89655 0.93782 0.0
Fe176 Fe 0.3978 0.45175 0.42712 0.0
Fe177 Fe 0.44779 0.43709 0.39031 0.0
O178 O 0.42696 0.42971 0.42015 0.0
Fe179 Fe 0.4342 0.39957 0.44166 0.0
O180 O 0.39947 0.38503 0.43367 0.0
O181 O 0.37541 0.42358 0.44168 0.0
O182 O 0.38168 0.44305 0.39251 0.0
C183 C 0.39323 0.44624 0.36892 0.0
C184 C 0.41779 0.44266 0.48171 0.0
O185 O 0.41904 0.45262 0.36824 0.0
C186 C 0.48805 0.41641 0.43193 0.0
O187 O 0.41465 0.48423 0.41343 0.0
O188 O 0.45808 0.47144 0.40479 0.0
O189 O 0.42302 0.41696 0.47517 0.0
O190 O 0.41203 0.46076 0.46245 0.0
C191 C 0.43962 0.37971 0.38517 0.0
O192 O 0.4804 0.42217 0.40638 0.0
O193 O 0.46997 0.41163 0.45052 0.0
C194 C 0.44013 0.49069 0.4087 0.0
O195 O 0.43793 0.40385 0.37397 0.0
O196 O 0.4458 0.37699 0.41169 0.0
C197 C 0.37626 0.39724 0.43671 0.0
Fe198 Fe 0.32218 0.80706 0.65591 0.0
Fe199 Fe 0.32252 0.84741 0.70699 0.0
O200 O 0.33583 0.81719 0.68988 0.0
Fe201 Fe 0.36287 0.79678 0.70637 0.0
O202 O 0.34035 0.76582 0.70654 0.0
O203 O 0.32898 0.76888 0.66085 0.0
O204 O 0.28812 0.80098 0.66994 0.0
C205 C 0.27384 0.82006 0.68142 0.0
C206 C 0.37782 0.80005 0.64884 0.0
O207 O 0.2858 0.84206 0.6923 0.0
C208 C 0.382 0.85009 0.71805 0.0
O209 O 0.31251 0.84307 0.64433 0.0
O210 O 0.33173 0.87025 0.6777 0.0
O211 O 0.37882 0.78651 0.67229 0.0
O212 O 0.35585 0.81303 0.64079 0.0
C213 C 0.32885 0.81197 0.75248 0.0
O214 O 0.35719 0.85764 0.72439 0.0
O215 O 0.38642 0.82638 0.70679 0.0
C216 C 0.32189 0.86698 0.65258 0.0
O217 O 0.31225 0.82665 0.7372 0.0
O218 O 0.35237 0.80412 0.74331 0.0
C219 C 0.33059 0.75465 0.68378 0.0
Fe220 Fe 0.06741 0.39817 0.55511 0.0
Fe221 Fe 0.10768 0.44778 0.57051 0.0
O222 O 0.07744 0.42715 0.57766 0.0
Fe223 Fe 0.05807 0.4342 0.60856 0.0
O224 O 0.06659 0.39939 0.62282 0.0
O225 O 0.05379 0.37607 0.58386 0.0
O226 O 0.10065 0.38099 0.56248 0.0
C227 C 0.12493 0.39136 0.56069 0.0
C228 C 0.0154 0.41727 0.56688 0.0
O229 O 0.12833 0.41772 0.55633 0.0
C230 C 0.06726 0.48834 0.59049 0.0
O231 O 0.08017 0.41458 0.52218 0.0
O232 O 0.09381 0.4575 0.53513 0.0
O233 O 0.02437 0.42172 0.59242 0.0
O234 O 0.0326 0.41301 0.54723 0.0
C235 C 0.11367 0.44207 0.62894 0.0
O236 O 0.09227 0.48135 0.58414 0.0
O237 O 0.04923 0.46955 0.5962 0.0
C238 C 0.08715 0.43972 0.51579 0.0
O239 O 0.12416 0.43892 0.60485 0.0
O240 O 0.08787 0.44777 0.63081 0.0
C241 C 0.06147 0.37628 0.61002 0.0
Fe242 Fe 0.94988 0.08116 0.61207 0.0
Fe243 Fe 0.93858 0.11556 0.55748 0.0
O244 O 0.93045 0.08672 0.57959 0.0
Fe245 Fe 0.90186 0.06419 0.56973 0.0
O246 O 0.88348 0.07475 0.60096 0.0
O247 O 0.91895 0.06785 0.63171 0.0
O248 O 0.94008 0.1153 0.62518 0.0
C249 C 0.94235 0.13862 0.61272 0.0
C250 C 0.94243 0.02632 0.5959 0.0
O251 O 0.94998 0.13968 0.58705 0.0
C252 C 0.92384 0.07064 0.51801 0.0
O253 O 0.98403 0.09466 0.5981 0.0
O254 O 0.9736 0.10257 0.55262 0.0
O255 O 0.91721 0.03238 0.58793 0.0
O256 O 0.9601 0.04587 0.60114 0.0
C257 C 0.88197 0.11856 0.5521 0.0
O258 O 0.92795 0.09675 0.52389 0.0
O259 O 0.91889 0.05319 0.53763 0.0
C260 C 0.99172 0.09911 0.57256 0.0
O261 O 0.90416 0.13034 0.56138 0.0
O262 O 0.88095 0.09173 0.54966 0.0
C263 C 0.89295 0.07311 0.6264 0.0
Fe264 Fe 0.7056 0.69729 0.63278 0.0
Fe265 Fe 0.70427 0.65528 0.68235 0.0
O266 O 0.69111 0.68572 0.66488 0.0
Fe267 Fe 0.66333 0.70485 0.67973 0.0
O268 O 0.68592 0.73499 0.68488 0.0
O269 O 0.69979 0.73588 0.64057 0.0
O270 O 0.74005 0.70145 0.64973 0.0
C271 C 0.75348 0.68209 0.66258 0.0
C272 C 0.6511 0.70839 0.61973 0.0
O273 O 0.741 0.65996 0.67099 0.0
C274 C 0.64485 0.65149 0.68735 0.0
O275 O 0.713 0.66069 0.6194 0.0
O276 O 0.69491 0.63377 0.65234 0.0
O277 O 0.64862 0.71842 0.64479 0.0
O278 O 0.67216 0.69368 0.61411 0.0
C279 C 0.69548 0.68656 0.72895 0.0
O280 O 0.66964 0.64478 0.69604 0.0
O281 O 0.6399 0.67505 0.67558 0.0
C282 C 0.70157 0.63751 0.62698 0.0
O283 O 0.71395 0.6755 0.71393 0.0
O284 O 0.67247 0.69496 0.71722 0.0
C285 C 0.69589 0.74838 0.66438 0.0
Fe286 Fe 0.69002 0.35395 0.81122 0.0
Fe287 Fe 0.70439 0.31133 0.85803 0.0
O288 O 0.68191 0.32268 0.82957 0.0
Fe289 Fe 0.65163 0.30283 0.81943 0.0
O290 O 0.62861 0.3324 0.82635 0.0
O291 O 0.65278 0.36324 0.8021 0.0
O292 O 0.6868 0.37451 0.84322 0.0
C293 C 0.70317 0.3715 0.86468 0.0
C294 C 0.67303 0.32196 0.76634 0.0
O295 O 0.71554 0.34789 0.86913 0.0
C296 C 0.68839 0.25986 0.8298 0.0
O297 O 0.72893 0.35036 0.81665 0.0
O298 O 0.73342 0.30758 0.83447 0.0
O299 O 0.65298 0.31204 0.78071 0.0
O300 O 0.6934 0.33469 0.77854 0.0
C301 C 0.65387 0.30061 0.88067 0.0
O302 O 0.69725 0.27285 0.85225 0.0
O303 O 0.67276 0.27224 0.81155 0.0
C304 C 0.74362 0.32823 0.82134 0.0
O305 O 0.67651 0.3145 0.88272 0.0
O306 O 0.64514 0.29047 0.8566 0.0
C307 C 0.62975 0.35534 0.81268 0.0
Fe308 Fe 0.60674 0.06042 0.43522 0.0
Fe309 Fe 0.56164 0.08031 0.39112 0.0
O310 O 0.57822 0.08298 0.42559 0.0
Fe311 Fe 0.56645 0.10867 0.45003 0.0
O312 O 0.60056 0.12566 0.45215 0.0
O313 O 0.62562 0.08681 0.458 0.0
O314 O 0.62709 0.07338 0.40599 0.0
C315 C 0.6195 0.07287 0.37993 0.0
C316 C 0.58158 0.06179 0.48616 0.0
O317 O 0.59376 0.06892 0.37263 0.0
C318 C 0.51572 0.0914 0.42767 0.0
O319 O 0.59265 0.02989 0.41434 0.0
O320 O 0.55105 0.04404 0.39758 0.0
O321 O 0.57522 0.08756 0.48201 0.0
O322 O 0.58867 0.04633 0.4656 0.0
C323 C 0.56595 0.13771 0.39755 0.0
O324 O 0.52627 0.09162 0.403 0.0
O325 O 0.53155 0.0931 0.44979 0.0
C326 C 0.56784 0.02435 0.40474 0.0
O327 O 0.57184 0.11619 0.38294 0.0
O328 O 0.55631 0.13504 0.42234 0.0
C329 C 0.62289 0.11341 0.46059 0.0
Fe330 Fe 0.30428 0.1565 0.80239 0.0
Fe331 Fe 0.35042 0.20144 0.79988 0.0
O332 O 0.32233 0.18583 0.81774 0.0
Fe333 Fe 0.31289 0.19948 0.8512 0.0
O334 O 0.27789 0.20769 0.83778 0.0
O335 O 0.26991 0.1662 0.81727 0.0
O336 O 0.29402 0.17639 0.77079 0.0
C337 C 0.31161 0.18753 0.7547 0.0
C338 C 0.30821 0.14019 0.85816 0.0
O339 O 0.33643 0.19292 0.76387 0.0
C340 C 0.3697 0.20174 0.85722 0.0
O341 O 0.33585 0.14153 0.78559 0.0
O342 O 0.37014 0.16921 0.80222 0.0
O343 O 0.30153 0.16506 0.86569 0.0
O344 O 0.31366 0.13482 0.83264 0.0
C345 C 0.32625 0.24864 0.8189 0.0
O346 O 0.37013 0.21275 0.83262 0.0
O347 O 0.3473 0.19154 0.8664 0.0
C348 C 0.36159 0.14555 0.79295 0.0
O349 O 0.33157 0.23423 0.79711 0.0
O350 O 0.32302 0.23648 0.84281 0.0
C351 C 0.26093 0.18922 0.82789 0.0
C352 C 0.9715 0.26693 0.96745 0.0
C353 C 0.05342 0.26153 0.94037 0.0
C354 C 0.02333 0.32267 0.84996 0.0
Mg355 Mg 1.00053 0.22896 0.92318 0.0
O356 O 0.98785 0.25712 0.8985 0.0
Mg357 Mg 0.99832 0.29733 0.90938 0.0
Mg358 Mg 1.00258 0.25586 0.85912 0.0
O359 O 0.017 0.25507 0.82013 0.0
Mg360 Mg 0.009 0.28494 0.79531 0.0
Mg361 Mg 0.00685 0.21541 0.80822 0.0
C362 C 0.98537 0.1894 0.86962 0.0
C363 C 0.05759 0.21465 0.85653 0.0
O364 O 0.97639 0.28876 0.95192 0.0
O365 O 0.97808 0.24169 0.96001 0.0
O366 O 0.03987 0.28443 0.93464 0.0
O367 O 0.04369 0.23729 0.93304 0.0
O368 O 0.9904 0.19249 0.8966 0.0
O369 O 0.98501 0.2105 0.85206 0.0
C370 C 0.94714 0.29645 0.85999 0.0
O371 O 0.9606 0.27711 0.84677 0.0
O372 O 0.95682 0.30734 0.88364 0.0
O373 O 0.03149 0.22416 0.76604 0.0
O374 O 0.03664 0.2717 0.76351 0.0
O375 O 0.96695 0.23056 0.78315 0.0
C376 C 0.04133 0.24664 0.75436 0.0
O377 O 0.96762 0.2776 0.77665 0.0
O378 O 0.0204 0.32108 0.82261 0.0
C379 C 0.95614 0.25331 0.77264 0.0
O380 O 0.01967 0.30102 0.86606 0.0
O381 O 0.04553 0.23444 0.87063 0.0
O382 O 0.04655 0.20417 0.83343 0.0
C383 C 0.47233 0.77013 0.46708 0.0
C384 C 0.55427 0.76482 0.43959 0.0
C385 C 0.51812 0.82465 0.3481 0.0
Mg386 Mg 0.50158 0.7314 0.42362 0.0
O387 O 0.48856 0.75903 0.39847 0.0
Mg388 Mg 0.49858 0.79954 0.40833 0.0
Mg389 Mg 0.50243 0.75725 0.35885 0.0
O390 O 0.5156 0.75601 0.31939 0.0
Mg391 Mg 0.50401 0.78491 0.29462 0.0
Mg392 Mg 0.50576 0.71586 0.30863 0.0
C393 C 0.48605 0.69067 0.37103 0.0
C394 C 0.55774 0.71681 0.35571 0.0
O395 O 0.47702 0.79159 0.45102 0.0
O396 O 0.4792 0.74477 0.46031 0.0
O397 O 0.54048 0.78748 0.43349 0.0
O398 O 0.54472 0.74034 0.43285 0.0
O399 O 0.49147 0.69425 0.39788 0.0
O400 O 0.48521 0.7115 0.35314 0.0
C401 C 0.44676 0.79743 0.35985 0.0
O402 O 0.46004 0.77778 0.34694 0.0
O403 O 0.45678 0.80895 0.38304 0.0
O404 O 0.52882 0.72478 0.26561 0.0
O405 O 0.53076 0.77254 0.2616 0.0
O406 O 0.46472 0.72878 0.2842 0.0
C407 C 0.53668 0.74755 0.25293 0.0
O408 O 0.4625 0.77566 0.27774 0.0
O409 O 0.51243 0.82228 0.32114 0.0
C410 C 0.45238 0.7508 0.2739 0.0
O411 O 0.5193 0.80288 0.36461 0.0
O412 O 0.54575 0.73655 0.36991 0.0
O413 O 0.54634 0.70601 0.33294 0.0
C414 C 0.98082 0.74437 0.53103 0.0
C415 C 0.06343 0.75266 0.56134 0.0
C416 C 0.02888 0.68994 0.65152 0.0
Mg417 Mg 0.0101 0.78454 0.57528 0.0
O418 O 0.99936 0.75623 0.60016 0.0
Mg419 Mg 0.00965 0.71594 0.59077 0.0
Mg420 Mg 0.01275 0.75785 0.64084 0.0
O421 O 0.02525 0.75864 0.68144 0.0
Mg422 Mg 0.01353 0.72899 0.70471 0.0
Mg423 Mg 0.0152 0.79861 0.6919 0.0
C424 C 0.99439 0.82458 0.62768 0.0
C425 C 0.06765 0.79904 0.64916 0.0
O426 O 0.98732 0.72347 0.54745 0.0
O427 O 0.98652 0.7702 0.53772 0.0
O428 O 0.05084 0.72955 0.56787 0.0
O429 O 0.05315 0.7769 0.56699 0.0
O430 O 0.99933 0.82122 0.60105 0.0
O431 O 0.99488 0.80361 0.64553 0.0
C432 C 0.95767 0.71662 0.63525 0.0
O433 O 0.97044 0.73663 0.64916 0.0
O434 O 0.96818 0.70524 0.61303 0.0
O435 O 0.03749 0.78866 0.73695 0.0
O436 O 0.04033 0.74085 0.73996 0.0
O437 O 0.97403 0.78545 0.71264 0.0
C438 C 0.04551 0.76575 0.74983 0.0
O439 O 0.97231 0.73868 0.72012 0.0
O440 O 0.02229 0.69171 0.67793 0.0
C441 C 0.962 0.76352 0.72271 0.0
O442 O 0.03049 0.71222 0.63577 0.0
O443 O 0.05583 0.7795 0.6336 0.0
O444 O 0.05609 0.80919 0.67129 0.0
C445 C 0.97532 0.03939 0.23774 0.0
C446 C 0.95319 0.95361 0.25036 0.0
C447 C 0.85951 0.98181 0.18371 0.0
Mg448 Mg 0.93582 0.0088 0.27876 0.0
O449 O 0.90933 0.01563 0.24951 0.0
Mg450 Mg 0.91884 0.00396 0.20974 0.0
Mg451 Mg 0.87091 0.99885 0.25119 0.0
O452 O 0.83214 0.98342 0.25235 0.0
Mg453 Mg 0.80627 0.99386 0.22312 0.0
Mg454 Mg 0.82247 0.99219 0.29293 0.0
C455 C 0.88322 0.02035 0.31758 0.0
C456 C 0.87195 0.9449 0.29379 0.0
O457 O 0.95972 0.03008 0.21672 0.0
O458 O 0.96971 0.03469 0.26392 0.0
O459 O 0.94529 0.96412 0.22601 0.0
O460 O 0.94824 0.96604 0.27385 0.0
O461 O 0.90994 0.01851 0.3147 0.0
O462 O 0.86527 0.01718 0.29647 0.0
C463 C 0.86924 0.05231 0.20823 0.0
O464 O 0.85743 0.03916 0.22858 0.0
O465 O 0.89217 0.04338 0.19745 0.0
O466 O 0.78078 0.96529 0.28267 0.0
O467 O 0.77694 0.96229 0.23434 0.0
O468 O 0.79577 0.03098 0.28173 0.0
C469 C 0.7687 0.95588 0.25929 0.0
O470 O 0.78364 0.03236 0.23522 0.0
O471 O 0.83308 0.98763 0.1856 0.0
C472 C 0.78186 0.04198 0.26074 0.0
O473 O 0.8761 0.98034 0.20608 0.0
O474 O 0.88463 0.95755 0.27366 0.0
O475 O 0.84885 0.95405 0.30354 0.0
C476 C 0.26824 0.97121 0.97642 0.0
C477 C 0.21372 0.94785 0.03936 0.0
C478 C 0.1893 0.8557 0.97604 0.0
Mg479 Mg 0.27266 0.9294 0.0277 0.0
O480 O 0.26039 0.90466 -0.00112 0.0
Mg481 Mg 0.22532 0.91475 0.97615 0.0
Mg482 Mg 0.25206 0.86458 0.00876 0.0
O483 O 0.24396 0.82475 0.01719 0.0
Mg484 Mg 0.22829 0.80155 0.98846 0.0
Mg485 Mg 0.28016 0.81386 0.03715 0.0
C486 C 0.31345 0.8767 0.04144 0.0
C487 C 0.24266 0.85504 0.07623 0.0
O488 O 0.24862 0.95575 0.96482 0.0
O489 O 0.2806 0.96521 0.00046 0.0
O490 O 0.2072 0.94081 0.01349 0.0
O491 O 0.2368 0.93999 0.05164 0.0
O492 O 0.30674 0.90289 0.04473 0.0
O493 O 0.2977 0.85927 0.0266 0.0
C494 C 0.25993 0.86754 0.94037 0.0
O495 O 0.26492 0.85406 0.96362 0.0
O496 O 0.2457 0.89055 0.9396 0.0
O497 O 0.2583 0.76993 0.04592 0.0
O498 O 0.21901 0.76844 0.01714 0.0
O499 O 0.2976 0.79264 0.9974 0.0
C500 C 0.23503 0.75819 0.03713 0.0
O501 O 0.2625 0.78259 0.96565 0.0
O502 O 0.19372 0.8291 0.97178 0.0
C503 C 0.2882 0.78026 0.97456 0.0
O504 O 0.2071 0.87121 0.99034 0.0
O505 O 0.23764 0.87209 0.05524 0.0
O506 O 0.25921 0.83384 0.07422 0.0
C507 C 0.03823 0.53833 0.2621 0.0
C508 C 0.06112 0.45324 0.25947 0.0
C509 C 0.15536 0.48185 0.31923 0.0
Mg510 Mg 0.07832 0.50405 0.22432 0.0
O511 O 0.10471 0.51561 0.2521 0.0
Mg512 Mg 0.0958 0.50796 0.2931 0.0
Mg513 Mg 0.14358 0.49964 0.251 0.0
O514 O 0.18218 0.48445 0.25024 0.0
Mg515 Mg 0.2087 0.49113 0.27976 0.0
Mg516 Mg 0.19188 0.49234 0.20961 0.0
C517 C 0.13032 0.51433 0.18395 0.0
C518 C 0.14458 0.44292 0.21001 0.0
O519 O 0.05429 0.53251 0.28403 0.0
O520 O 0.04393 0.53048 0.23667 0.0
O521 O 0.06917 0.46706 0.28199 0.0
O522 O 0.06653 0.46187 0.23446 0.0
O523 O 0.10385 0.51052 0.18734 0.0
O524 O 0.14851 0.5156 0.20505 0.0
C525 C 0.14489 0.55723 0.29036 0.0
O526 O 0.1568 0.5426 0.27101 0.0
O527 O 0.12216 0.5487 0.30181 0.0
O528 O 0.23324 0.46591 0.21861 0.0
O529 O 0.23644 0.45894 0.26639 0.0
O530 O 0.21824 0.53165 0.22226 0.0
C531 C 0.24471 0.45433 0.24103 0.0
O532 O 0.23145 0.52959 0.26871 0.0
O533 O 0.18231 0.48372 0.31729 0.0
C534 C 0.23282 0.54091 0.24391 0.0
O535 O 0.13858 0.48445 0.29719 0.0
O536 O 0.13153 0.45535 0.23029 0.0
O537 O 0.16663 0.45348 0.19932 0.0
C538 C 0.77121 0.53795 0.0355 0.0
C539 C 0.75503 0.55701 0.94849 0.0
C540 C 0.82022 0.65195 0.9722 0.0
Mg541 Mg 0.72803 0.57675 0.00422 0.0
O542 O 0.75646 0.60345 0.00736 0.0
Mg543 Mg 0.79572 0.59279 0.99738 0.0
Mg544 Mg 0.75405 0.64251 0.99142 0.0
O545 O 0.75279 0.68176 0.97695 0.0
Mg546 Mg 0.78257 0.70616 0.98701 0.0
Mg547 Mg 0.71348 0.69314 0.98598 0.0
C548 C 0.68937 0.63115 0.01544 0.0
C549 C 0.7124 0.64599 0.935 0.0
O550 O 0.79077 0.55198 0.02366 0.0
O551 O 0.74515 0.54483 0.03296 0.0
O552 O 0.77914 0.56635 0.95777 0.0
O553 O 0.73238 0.56125 0.9618 0.0
O554 O 0.69296 0.60416 0.01468 0.0
O555 O 0.70924 0.64884 0.00939 0.0
C556 C 0.79662 0.64164 0.04683 0.0
O557 O 0.77663 0.6546 0.03323 0.0
O558 O 0.80743 0.61862 0.03752 0.0
O559 O 0.72358 0.73642 0.9613 0.0
O560 O 0.77085 0.73746 0.95698 0.0
O561 O 0.72684 0.71735 0.02656 0.0
C562 C 0.74631 0.74778 0.95195 0.0
O563 O 0.77283 0.72789 0.02676 0.0
O564 O 0.81875 0.6788 0.9771 0.0
C565 C 0.74843 0.73021 0.03739 0.0
O566 O 0.79839 0.63574 0.97365 0.0
O567 O 0.7316 0.63135 0.94821 0.0
O568 O 0.70264 0.66895 0.94544 0.0
C569 C 0.26946 0.03935 0.53872 0.0
C570 C 0.2552 0.05691 0.45074 0.0
C571 C 0.31949 0.15208 0.47297 0.0
Mg572 Mg 0.22716 0.07776 0.50494 0.0
O573 O 0.25563 0.10437 0.50952 0.0
Mg574 Mg 0.29508 0.09348 0.50029 0.0
Mg575 Mg 0.25336 0.14319 0.49287 0.0
O576 O 0.25211 0.18217 0.47767 0.0
Mg577 Mg 0.28197 0.20671 0.48676 0.0
Mg578 Mg 0.21292 0.19391 0.48675 0.0
C579 C 0.18852 0.13224 0.51603 0.0
C580 C 0.21148 0.14599 0.43649 0.0
O581 O 0.28962 0.0538 0.52835 0.0
O582 O 0.24346 0.04528 0.53347 0.0
O583 O 0.27914 0.06563 0.46112 0.0
O584 O 0.23205 0.06252 0.46262 0.0
O585 O 0.19198 0.10524 0.51488 0.0
O586 O 0.20863 0.14994 0.51077 0.0
C587 C 0.29576 0.14352 0.54851 0.0
O588 O 0.2758 0.15617 0.53458 0.0
O589 O 0.30662 0.12037 0.53965 0.0
O590 O 0.22294 0.23676 0.46135 0.0
O591 O 0.27007 0.23737 0.4561 0.0
O592 O 0.22668 0.21884 0.52687 0.0
C593 C 0.24554 0.24781 0.45138 0.0
O594 O 0.27265 0.22937 0.52604 0.0
O595 O 0.31792 0.17904 0.4772 0.0
C596 C 0.24843 0.23199 0.53698 0.0
O597 O 0.29778 0.13582 0.47515 0.0
O598 O 0.23076 0.13149 0.44976 0.0
O599 O 0.2018 0.16909 0.4467 0.0
C600 C 0.47432 0.54143 0.73669 0.0
C601 C 0.45404 0.45557 0.75191 0.0
C602 C 0.35989 0.48151 0.68327 0.0
Mg603 Mg 0.43532 0.51174 0.77846 0.0
O604 O 0.40889 0.51614 0.74879 0.0
Mg605 Mg 0.41898 0.50378 0.70943 0.0
Mg606 Mg 0.37059 0.49926 0.75053 0.0
O607 O 0.33182 0.48379 0.75156 0.0
Mg608 Mg 0.30631 0.49416 0.72196 0.0
Mg609 Mg 0.32167 0.49312 0.79187 0.0
C610 C 0.38208 0.52269 0.81656 0.0
C611 C 0.37147 0.44613 0.79404 0.0
O612 O 0.45989 0.53002 0.71593 0.0
O613 O 0.46777 0.5389 0.7629 0.0
O614 O 0.44539 0.46452 0.72715 0.0
O615 O 0.44967 0.46936 0.7748 0.0
O616 O 0.40886 0.52166 0.81389 0.0
O617 O 0.36439 0.5183 0.79546 0.0
C618 C 0.36921 0.55195 0.70667 0.0
O619 O 0.35728 0.53903 0.72709 0.0
O620 O 0.39227 0.54297 0.69618 0.0
O621 O 0.28001 0.46606 0.7813 0.0
O622 O 0.27688 0.46272 0.73297 0.0
O623 O 0.29508 0.53175 0.78002 0.0
C624 C 0.26826 0.45649 0.75781 0.0
O625 O 0.28341 0.53272 0.73341 0.0
O626 O 0.33348 0.48753 0.68483 0.0
C627 C 0.28141 0.54259 0.7588 0.0
O628 O 0.37626 0.48008 0.7058 0.0
O629 O 0.38433 0.45853 0.77387 0.0
O630 O 0.34812 0.45523 0.80327 0.0
C631 C 0.76537 0.4704 0.47608 0.0
C632 C 0.71202 0.44877 0.53993 0.0
C633 C 0.68682 0.3549 0.47771 0.0
Mg634 Mg 0.77059 0.42936 0.528 0.0
O635 O 0.75773 0.40425 0.4997 0.0
Mg636 Mg 0.72229 0.41399 0.47741 0.0
Mg637 Mg 0.74988 0.36413 0.50964 0.0
O638 O 0.74206 0.32426 0.51819 0.0
Mg639 Mg 0.72604 0.30086 0.48985 0.0
Mg640 Mg 0.77831 0.31355 0.53805 0.0
C641 C 0.81142 0.37652 0.54174 0.0
C642 C 0.74093 0.35475 0.57716 0.0
O643 O 0.74541 0.45492 0.46515 0.0
O644 O 0.77828 0.46458 0.49989 0.0
O645 O 0.70506 0.44057 0.51453 0.0
O646 O 0.73518 0.44122 0.55226 0.0
O647 O 0.8048 0.40277 0.54488 0.0
O648 O 0.79556 0.35902 0.52715 0.0
C649 C 0.7567 0.36706 0.44107 0.0
O650 O 0.76292 0.35384 0.46424 0.0
O651 O 0.74151 0.38943 0.44095 0.0
O652 O 0.75666 0.26963 0.54724 0.0
O653 O 0.71715 0.26782 0.51881 0.0
O654 O 0.79538 0.29209 0.49829 0.0
C655 C 0.73338 0.25774 0.53871 0.0
O656 O 0.76009 0.28202 0.46672 0.0
O657 O 0.6913 0.32832 0.47341 0.0
C658 C 0.78582 0.2796 0.47556 0.0
O659 O 0.70462 0.37047 0.49193 0.0
O660 O 0.7357 0.37165 0.55611 0.0
O661 O 0.75759 0.33363 0.5752 0.0
C662 C 0.5373 0.03732 0.76381 0.0
C663 C 0.5611 0.95246 0.76054 0.0
C664 C 0.65516 0.98517 0.82027 0.0
Mg665 Mg 0.57754 0.00366 0.7256 0.0
O666 O 0.60393 0.01528 0.75332 0.0
Mg667 Mg 0.59536 0.00726 0.79433 0.0
Mg668 Mg 0.64304 1.00001 0.75199 0.0
O669 O 0.682 0.98582 0.75118 0.0
Mg670 Mg 0.70806 0.99537 0.78042 0.0
Mg671 Mg 0.69129 0.99373 0.71041 0.0
C672 C 0.62919 0.01466 0.68497 0.0
C673 C 0.64494 0.94337 0.71126 0.0
O674 O 0.5535 0.03148 0.78564 0.0
O675 O 0.54296 0.02968 0.73831 0.0
O676 O 0.56916 0.96618 0.7831 0.0
O677 O 0.56634 0.96132 0.73557 0.0
O678 O 0.60279 0.01055 0.68851 0.0
O679 O 0.64747 0.01615 0.70598 0.0
C680 C 0.64368 0.05721 0.7918 0.0
O681 O 0.65562 0.04305 0.77213 0.0
O682 O 0.6212 0.04817 0.80335 0.0
O683 O 0.73313 0.96824 0.72 0.0
O684 O 0.73704 0.9638 0.76814 0.0
O685 O 0.71696 0.03382 0.72194 0.0
C686 C 0.74508 0.95807 0.7429 0.0
O687 O 0.72956 0.03412 0.7685 0.0
O688 O 0.6818 0.98976 0.81828 0.0
C689 C 0.731 0.0444 0.74329 0.0
O690 O 0.63846 0.98429 0.79803 0.0
O691 O 0.63161 0.95565 0.7314 0.0
O692 O 0.66685 0.95423 0.70061 0.0
C693 C 0.48332 0.24531 0.03188 0.0
C694 C 0.56557 0.25411 0.06333 0.0
C695 C 0.53394 0.19066 0.15319 0.0
Mg696 Mg 0.5116 0.2852 0.07696 0.0
O697 O 0.50073 0.25659 0.10147 0.0
Mg698 Mg 0.5119 0.21666 0.09169 0.0
Mg699 Mg 0.51384 0.25793 0.14237 0.0
O700 O 0.52676 0.25878 0.18287 0.0
Mg701 Mg 0.51828 0.22872 0.20691 0.0
Mg702 Mg 0.51652 0.29849 0.1937 0.0
C703 C 0.49503 0.32451 0.12969 0.0
C704 C 0.56862 0.29982 0.15058 0.0
O705 O 0.49011 0.22433 0.04808 0.0
O706 O 0.48847 0.27114 0.03899 0.0
O707 O 0.55328 0.23081 0.0697 0.0
O708 O 0.55484 0.27818 0.06889 0.0
O709 O 0.50022 0.32138 0.10309 0.0
O710 O 0.49559 0.30345 0.14745 0.0
C711 C 0.45909 0.21626 0.13521 0.0
O712 O 0.47135 0.23575 0.15041 0.0
O713 O 0.47031 0.20597 0.11286 0.0
O714 O 0.5395 0.2893 0.23861 0.0
O715 O 0.54562 0.24186 0.2412 0.0
O716 O 0.47599 0.2838 0.21471 0.0
C717 C 0.54926 0.26692 0.25123 0.0
O718 O 0.4771 0.23708 0.2234 0.0
O719 O 0.52961 0.19216 0.18016 0.0
C720 C 0.46539 0.26139 0.22545 0.0
O721 O 0.53193 0.21271 0.13704 0.0
O722 O 0.55678 0.28017 0.13514 0.0
O723 O 0.55711 0.30991 0.17277 0.0
H724 H 0.03507 0.32554 0.59799 0.0
H725 H 0.09514 0.26082 0.74403 0.0
H726 H 0.09465 0.36548 0.65727 0.0
H727 H 0.01727 0.23345 0.70267 0.0
H728 H 0.10702 0.28622 0.70068 0.0
H729 H 0.0386 0.28176 0.62624 0.0
C730 C 0.04904 0.32501 0.6168 0.0
C731 C 0.06402 0.34934 0.62582 0.0
C732 C 0.08783 0.27374 0.70062 0.0
C733 C 0.0688 0.29932 0.65747 0.0
C734 C 0.08134 0.25876 0.72517 0.0
C735 C 0.05509 0.24539 0.7269 0.0
C736 C 0.06768 0.27555 0.67799 0.0
C737 C 0.03773 0.24362 0.70207 0.0
C738 C 0.05118 0.30002 0.63273 0.0
C739 C 0.08215 0.34743 0.65004 0.0
N740 N 0.04386 0.25944 0.67882 0.0
N741 N 0.08389 0.32293 0.66511 0.0
H742 H 0.62297 0.75941 0.61279 0.0
H743 H 0.59947 0.72972 0.4448 0.0
H744 H 0.6422 0.68141 0.56923 0.0
H745 H 0.55887 0.79944 0.48648 0.0
H746 H 0.62415 0.71823 0.48987 0.0
H747 H 0.60427 0.77877 0.56698 0.0
C748 C 0.62269 0.74619 0.5938 0.0
C749 C 0.63413 0.71875 0.5948 0.0
C750 C 0.61024 0.7364 0.48913 0.0
C751 C 0.61398 0.74101 0.54252 0.0
C752 C 0.59655 0.74324 0.46324 0.0
C753 C 0.57696 0.76541 0.46197 0.0
C754 C 0.60411 0.75163 0.51403 0.0
C755 C 0.57389 0.78221 0.48655 0.0
C756 C 0.61246 0.75737 0.56765 0.0
C757 C 0.63371 0.7027 0.56946 0.0
N758 N 0.58686 0.77461 0.51183 0.0
N759 N 0.62408 0.71411 0.54446 0.0
H760 H 0.96681 0.19208 0.6136 0.0
H761 H 0.91287 0.21529 0.76563 0.0
H762 H 0.89955 0.14288 0.64846 0.0
H763 H 0.95767 0.28082 0.72185 0.0
H764 H 0.89928 0.19422 0.71951 0.0
H765 H 0.95771 0.22971 0.64873 0.0
C766 C 0.94975 0.18955 0.62816 0.0
C767 C 0.93448 0.16414 0.62884 0.0
C768 C 0.91132 0.21376 0.71981 0.0
C769 C 0.92389 0.20664 0.66874 0.0
C770 C 0.91873 0.22598 0.74623 0.0
C771 C 0.9368 0.24948 0.74758 0.0
C772 C 0.92287 0.22464 0.69478 0.0
C773 C 0.94388 0.26249 0.72177 0.0
C774 C 0.94448 0.21096 0.64816 0.0
C775 C 0.9124 0.16187 0.6479 0.0
N776 N 0.93785 0.24927 0.69641 0.0
N777 N 0.9081 0.18257 0.66737 0.0
H778 H 0.40867 0.75272 0.63695 0.0
H779 H 0.45707 0.82077 0.49038 0.0
H780 H 0.39547 0.83992 0.61253 0.0
H781 H 0.46231 0.73117 0.50895 0.0
H782 H 0.44076 0.82913 0.53833 0.0
H783 H 0.43625 0.74572 0.59403 0.0
C784 C 0.41228 0.77052 0.62295 0.0
C785 C 0.39966 0.7968 0.62783 0.0
C786 C 0.4455 0.80762 0.53195 0.0
C787 C 0.4304 0.78899 0.57898 0.0
C788 C 0.45464 0.8028 0.50446 0.0
C789 C 0.46079 0.77518 0.49548 0.0
C790 C 0.44236 0.78468 0.55063 0.0
C791 C 0.45754 0.75279 0.51485 0.0
C792 C 0.4277 0.7665 0.59838 0.0
C793 C 0.40465 0.81923 0.60913 0.0
N794 N 0.44843 0.75803 0.54153 0.0
N795 N 0.41939 0.81474 0.58534 0.0
H796 H 0.03272 0.68375 0.90388 0.0
H797 H 0.09888 0.75308 0.76733 0.0
H798 H 0.10261 0.65144 0.85731 0.0
H799 H 0.01775 0.77622 0.7982 0.0
H800 H 0.10969 0.72898 0.8125 0.0
H801 H 0.03502 0.72806 0.87626 0.0
C802 C 0.0488 0.6862 0.88821 0.0
C803 C 0.06705 0.66375 0.88228 0.0
C804 C 0.08989 0.7402 0.80991 0.0
C805 C 0.07022 0.71422 0.8513 0.0
C806 C 0.08399 0.75443 0.78432 0.0
C807 C 0.05741 0.76651 0.77914 0.0
C808 C 0.06874 0.73747 0.83002 0.0
C809 C 0.03856 0.7672 0.80156 0.0
C810 C 0.05017 0.71144 0.87256 0.0
C811 C 0.08768 0.668 0.86201 0.0
N812 N 0.04419 0.75202 0.82577 0.0
N813 N 0.08855 0.69258 0.84712 0.0
H814 H 0.88749 0.66261 0.39547 0.0
H815 H 0.96815 0.78101 0.48684 0.0
H816 H 0.90322 0.74629 0.3626 0.0
H817 H 0.96445 0.69258 0.51056 0.0
H818 H 0.94714 0.7687 0.43988 0.0
H819 H 0.91981 0.67244 0.43587 0.0
C820 C 0.89827 0.6829 0.39663 0.0
C821 C 0.8927 0.7038 0.3761 0.0
C822 C 0.95118 0.75204 0.45535 0.0
C823 C 0.92893 0.7156 0.42244 0.0
C824 C 0.9629 0.75907 0.48222 0.0
C825 C 0.9677 0.73786 0.50279 0.0
C826 C 0.94415 0.72368 0.44923 0.0
C827 C 0.96088 0.70973 0.49553 0.0
C828 C 0.91664 0.68857 0.41966 0.0
C829 C 0.90714 0.72969 0.37818 0.0
N830 N 0.94931 0.70352 0.46943 0.0
N831 N 0.9243 0.73514 0.40141 0.0
H832 H 0.96221 0.82501 0.88729 0.0
H833 H 0.9202 0.80308 0.72476 0.0
H834 H 0.90506 0.87917 0.83909 0.0
H835 H 0.96254 0.7385 0.77496 0.0
H836 H 0.90606 0.82597 0.76879 0.0
H837 H 0.95633 0.78874 0.84945 0.0
C838 C 0.9481 0.82904 0.86905 0.0
C839 C 0.93475 0.85538 0.86589 0.0
C840 C 0.91774 0.80631 0.77031 0.0
C841 C 0.92773 0.81425 0.82283 0.0
C842 C 0.92542 0.79302 0.74505 0.0
C843 C 0.94273 0.76902 0.74617 0.0
C844 C 0.92816 0.79598 0.79684 0.0
C845 C 0.94915 0.757 0.77311 0.0
C846 C 0.94467 0.80838 0.84749 0.0
C847 C 0.91645 0.85946 0.84199 0.0
N848 N 0.9427 0.77112 0.79743 0.0
N849 N 0.9138 0.83936 0.8213 0.0
H850 H 0.15755 0.82769 0.43059 0.0
H851 H 0.06927 0.71455 0.51772 0.0
H852 H 0.11928 0.75379 0.39063 0.0
H853 H 0.10526 0.79136 0.55371 0.0
H854 H 0.0926 0.72434 0.47287 0.0
H855 H 0.14165 0.81187 0.47661 0.0
C856 C 0.14555 0.80815 0.43145 0.0
C857 C 0.13969 0.7921 0.40659 0.0
C858 C 0.09589 0.73871 0.49079 0.0
C859 C 0.12152 0.77353 0.45982 0.0
C860 C 0.08301 0.73287 0.51663 0.0
C861 C 0.08523 0.75227 0.5395 0.0
C862 C 0.11116 0.76403 0.48794 0.0
C863 C 0.10288 0.7759 0.53661 0.0
C864 C 0.13659 0.79902 0.45789 0.0
C865 C 0.124 0.76699 0.40917 0.0
N866 N 0.11481 0.7813 0.51121 0.0
N867 N 0.11548 0.75842 0.43537 0.0
H868 H 0.67262 0.0941 0.38775 0.0
H869 H 0.72779 0.03977 0.23838 0.0
H870 H 0.61723 0.05717 0.32258 0.0
H871 H 0.7796 0.08134 0.30348 0.0
H872 H 0.68577 0.05281 0.2644 0.0
H873 H 0.71033 0.09522 0.35393 0.0
C874 C 0.66832 0.08624 0.36624 0.0
C875 C 0.64169 0.07513 0.35822 0.0
C876 C 0.70626 0.05982 0.27256 0.0
C877 C 0.68531 0.07632 0.31896 0.0
C878 C 0.7303 0.05283 0.2574 0.0
C879 C 0.75737 0.05949 0.26872 0.0
C880 C 0.70932 0.07359 0.29923 0.0
C881 C 0.75922 0.07578 0.29391 0.0
C882 C 0.68994 0.08703 0.3468 0.0
C883 C 0.63743 0.06574 0.32981 0.0
N884 N 0.73566 0.08181 0.30849 0.0
N885 N 0.6591 0.06619 0.31132 0.0
H886 H 0.31939 0.08496 0.84672 0.0
H887 H 0.28793 0.0215 -0.00102 0.0
H888 H 0.29355 0.14026 0.91482 0.0
H889 H 0.26811 0.97864 0.91906 0.0
H890 H 0.30073 0.06418 0.972 0.0
H891 H 0.31259 0.04439 0.87741 0.0
C892 C 0.31238 0.08867 0.86821 0.0
C893 C 0.30646 0.1161 0.87803 0.0
C894 C 0.29363 0.04532 0.96057 0.0
C895 C 0.2989 0.06947 0.9133 0.0
C896 C 0.2865 0.02105 0.97581 0.0
C897 C 0.27693 0.99669 0.96109 0.0
C898 C 0.29178 0.04468 0.93059 0.0
C899 C 0.27521 0.99709 0.93116 0.0
C900 C 0.30851 0.06542 0.88566 0.0
C901 C 0.29797 0.11944 0.9063 0.0
N902 N 0.28274 0.02067 0.91688 0.0
N903 N 0.29426 0.09626 0.92304 0.0
H904 H 0.40193 0.46818 0.31557 0.0
H905 H 0.25762 0.40121 0.25878 0.0
H906 H 0.34821 0.41133 0.36112 0.0
H907 H 0.29364 0.47664 0.22334 0.0
H908 H 0.3027 0.39099 0.28316 0.0
H909 H 0.37267 0.45986 0.27184 0.0
C910 C 0.38411 0.45383 0.31628 0.0
C911 C 0.37683 0.44112 0.34209 0.0
C912 C 0.30114 0.4092 0.26915 0.0
C913 C 0.34421 0.43075 0.29229 0.0
C914 C 0.27556 0.41472 0.2548 0.0
C915 C 0.27193 0.44005 0.2396 0.0
C916 C 0.32281 0.42951 0.26859 0.0
C917 C 0.29568 0.45698 0.23515 0.0
C918 C 0.36765 0.44892 0.29135 0.0
C919 C 0.35397 0.42228 0.34185 0.0
N920 N 0.31998 0.45202 0.25054 0.0
N921 N 0.33839 0.41782 0.3174 0.0
H922 H 0.75501 0.38408 0.89037 0.0
H923 H 0.71294 0.54739 0.90873 0.0
H924 H 0.67299 0.41954 0.87044 0.0
H925 H 0.79248 0.51416 0.94059 0.0
H926 H 0.70191 0.50147 0.88699 0.0
H927 H 0.77172 0.43157 0.90519 0.0
C928 C 0.7404 0.40168 0.88972 0.0
C929 C 0.71255 0.39788 0.87928 0.0
C930 C 0.72204 0.50425 0.89828 0.0
C931 C 0.73167 0.45211 0.89509 0.0
C932 C 0.72852 0.53065 0.91026 0.0
C933 C 0.75356 0.53451 0.92655 0.0
C934 C 0.74058 0.4814 0.90295 0.0
C935 C 0.77298 0.51208 0.92804 0.0
C936 C 0.75004 0.42881 0.89772 0.0
C937 C 0.69464 0.4215 0.87831 0.0
N938 N 0.76584 0.48622 0.91691 0.0
N939 N 0.70453 0.44751 0.88592 0.0
H940 H 0.60867 0.96564 0.18431 0.0
H941 H 0.75591 0.90316 0.23982 0.0
H942 H 0.65958 0.90543 0.13974 0.0
H943 H 0.71915 0.9783 0.27505 0.0
H944 H 0.71116 0.89245 0.21476 0.0
H945 H 0.64058 0.96092 0.22667 0.0
C946 C 0.62634 0.95122 0.18356 0.0
C947 C 0.63194 0.93643 0.1583 0.0
C948 C 0.71248 0.91077 0.22879 0.0
C949 C 0.6679 0.93041 0.20666 0.0
C950 C 0.73788 0.91652 0.24358 0.0
C951 C 0.74118 0.94168 0.25937 0.0
C952 C 0.69048 0.93061 0.22945 0.0
C953 C 0.71733 0.9586 0.26314 0.0
C954 C 0.64444 0.94845 0.20773 0.0
C955 C 0.6549 0.91778 0.15855 0.0
N956 N 0.69315 0.95328 0.2475 0.0
N957 N 0.67209 0.91546 0.18222 0.0
H958 H 0.18117 0.08552 0.15191 0.0
H959 H 0.19558 0.99452 0.01029 0.0
H960 H 0.21692 0.12221 0.07665 0.0
H961 H 0.20481 0.96013 0.09546 0.0
H962 H 0.18947 0.0419 0.0309 0.0
H963 H 0.17635 0.0407 0.12741 0.0
C964 C 0.18818 0.08431 0.13014 0.0
C965 C 0.20025 0.10785 0.11662 0.0
C966 C 0.19217 0.02384 0.04498 0.0
C967 C 0.19406 0.05577 0.08819 0.0
C968 C 0.1951 0.99671 0.03334 0.0
C969 C 0.20045 0.97329 0.05129 0.0
C970 C 0.19396 0.02735 0.07472 0.0
C971 C 0.20047 0.97753 0.08092 0.0
C972 C 0.18521 0.0585 0.11618 0.0
C973 C 0.20796 0.10463 0.08808 0.0
N974 N 0.19739 0.00407 0.0917 0.0
N975 N 0.20491 0.07887 0.07477 0.0
H976 H 0.34581 0.60261 0.12435 0.0
H977 H 0.28638 0.53637 0.26678 0.0
H978 H 0.39529 0.54823 0.18039 0.0
H979 H 0.23677 0.58241 0.20354 0.0
H980 H 0.32918 0.54993 0.24241 0.0
H981 H 0.30917 0.60406 0.15928 0.0
C982 C 0.34903 0.59099 0.14415 0.0
C983 C 0.37346 0.57475 0.14915 0.0
C984 C 0.30901 0.55777 0.23436 0.0
C985 C 0.33112 0.57626 0.18956 0.0
C986 C 0.28453 0.55047 0.24856 0.0
C987 C 0.25783 0.55823 0.23715 0.0
C988 C 0.30679 0.57314 0.20869 0.0
C989 C 0.25683 0.57593 0.21308 0.0
C990 C 0.32805 0.59193 0.16419 0.0
C991 C 0.37668 0.56077 0.17553 0.0
N992 N 0.28084 0.58239 0.19946 0.0
N993 N 0.35551 0.56146 0.1946 0.0
H994 H 0.82833 0.37173 0.08923 0.0
H995 H 0.74813 0.51767 0.08414 0.0
H996 H 0.8138 0.41892 0.16652 0.0
H997 H 0.81248 0.50042 0.02363 0.0
H998 H 0.7633 0.47557 0.11143 0.0
H999 H 0.81454 0.41384 0.06106 0.0
C1000 C 0.82246 0.39098 0.10019 0.0
C1001 C 0.82244 0.39204 0.13015 0.0
C1002 C 0.77399 0.48111 0.09213 0.0
C1003 C 0.80586 0.43939 0.09838 0.0
C1004 C 0.7653 0.50491 0.07657 0.0
C1005 C 0.77927 0.51248 0.05183 0.0
C1006 C 0.79616 0.46448 0.08232 0.0
C1007 C 0.80143 0.49536 0.04283 0.0
C1008 C 0.81462 0.41484 0.08421 0.0
C1009 C 0.81446 0.41737 0.14345 0.0
N1010 N 0.80908 0.47193 0.05796 0.0
N1011 N 0.80612 0.43996 0.12745 0.0
H1012 H 0.34854 0.60823 0.00308 0.0
H1013 H 0.34522 0.77308 0.97603 0.0
H1014 H 0.37244 0.67289 0.06487 0.0
H1015 H 0.26724 0.72842 0.95766 0.0
H1016 H 0.36712 0.72825 0.99021 0.0
H1017 H 0.32636 0.64542 0.97251 0.0
C1018 C 0.34847 0.62999 0.01056 0.0
C1019 C 0.36241 0.63751 0.03656 0.0
C1020 C 0.34548 0.72817 0.98201 0.0
C1021 C 0.33889 0.6797 0.00125 0.0
C1022 C 0.33309 0.75368 0.97346 0.0
C1023 C 0.30415 0.7547 0.96641 0.0
C1024 C 0.32894 0.70352 0.98313 0.0
C1025 C 0.28955 0.72871 0.96336 0.0
C1026 C 0.33628 0.65113 0.99294 0.0
C1027 C 0.36216 0.66611 0.04495 0.0
N1028 N 0.30183 0.70417 0.97269 0.0
N1029 N 0.35112 0.68611 0.02718 0.0
H1030 H 0.36678 0.35215 0.40177 0.0
H1031 H 0.23402 0.29725 0.47825 0.0
H1032 H 0.32593 0.40408 0.46391 0.0
H1033 H 0.26197 0.26305 0.39873 0.0
H1034 H 0.26122 0.34046 0.4699 0.0
H1035 H 0.32493 0.32231 0.39767 0.0
C1036 C 0.3489 0.35725 0.4146 0.0
C1037 C 0.35001 0.3803 0.43361 0.0
C1038 C 0.26047 0.32405 0.45364 0.0
C1039 C 0.30171 0.34601 0.4291 0.0
C1040 C 0.24442 0.29957 0.45812 0.0
C1041 C 0.24584 0.27651 0.43916 0.0
C1042 C 0.27809 0.32519 0.43013 0.0
C1043 C 0.26029 0.28037 0.41384 0.0
C1044 C 0.32482 0.34036 0.41203 0.0
C1045 C 0.32598 0.38631 0.44921 0.0
N1046 N 0.27649 0.30382 0.41045 0.0
N1047 N 0.30297 0.36891 0.44705 0.0
H1048 H 0.57781 0.34878 0.83555 0.0
H1049 H 0.49714 0.4436 0.71659 0.0
H1050 H 0.61994 0.39242 0.76818 0.0
H1051 H 0.45995 0.41691 0.79487 0.0
H1052 H 0.53993 0.41711 0.73025 0.0
H1053 H 0.53283 0.36771 0.81722 0.0
C1054 C 0.57766 0.36253 0.81703 0.0
C1055 C 0.60282 0.36919 0.80358 0.0
C1056 C 0.52218 0.41658 0.74416 0.0
C1057 C 0.55112 0.39049 0.78205 0.0
C1058 C 0.49755 0.43126 0.7361 0.0
C1059 C 0.47495 0.43243 0.75462 0.0
C1060 C 0.52409 0.40284 0.77081 0.0
C1061 C 0.47691 0.41656 0.77998 0.0
C1062 C 0.55192 0.37321 0.80648 0.0
C1063 C 0.60118 0.38699 0.77951 0.0
N1064 N 0.50112 0.40268 0.78745 0.0
N1065 N 0.5758 0.39692 0.76947 0.0
H1066 H 0.67962 0.10411 0.4708 0.0
H1067 H 0.68899 0.24147 0.56936 0.0
H1068 H 0.61087 0.15779 0.49487 0.0
H1069 H 0.7601 0.20932 0.52492 0.0
H1070 H 0.66357 0.19747 0.55866 0.0
H1071 H 0.71145 0.13157 0.50333 0.0
C1072 C 0.67127 0.12157 0.48296 0.0
C1073 C 0.64281 0.12927 0.47957 0.0
C1074 C 0.68514 0.19953 0.55212 0.0
C1075 C 0.67849 0.15964 0.51741 0.0
C1076 C 0.69982 0.22442 0.55876 0.0
C1077 C 0.72642 0.22898 0.54767 0.0
C1078 C 0.69703 0.17956 0.53377 0.0
C1079 C 0.73949 0.20646 0.53371 0.0
C1080 C 0.6893 0.13697 0.50163 0.0
C1081 C 0.63284 0.15165 0.49617 0.0
N1082 N 0.72427 0.18296 0.52619 0.0
N1083 N 0.65064 0.16604 0.51425 0.0
H1084 H 0.86981 0.60939 0.24495 0.0
H1085 H 0.01888 0.55927 0.31226 0.0
H1086 H 0.90148 0.62975 0.33011 0.0
H1087 H 0.99526 0.54902 0.22272 0.0
H1088 H 0.97296 0.57982 0.32028 0.0
H1089 H 0.91226 0.58057 0.23781 0.0
C1090 C 0.88536 0.60713 0.2623 0.0
C1091 C 0.88248 0.62188 0.28805 0.0
C1092 C 0.97779 0.57311 0.29884 0.0
C1093 C 0.9307 0.58975 0.28009 0.0
C1094 C 1.00412 0.56148 0.29422 0.0
C1095 C 0.01109 0.55258 0.26673 0.0
C1096 C 0.95815 0.57594 0.27585 0.0
C1097 C 0.9909 0.55582 0.24424 0.0
C1098 C 0.90963 0.59103 0.25818 0.0
C1099 C 0.90319 0.61875 0.30987 0.0
N1100 N 0.96532 0.56729 0.24929 0.0
N1101 N 0.92649 0.60319 0.30533 0.0
H1102 H 0.12668 0.34412 0.59312 0.0
H1103 H 0.26874 0.28556 0.53025 0.0
H1104 H 0.17827 0.39364 0.53782 0.0
H1105 H 0.21169 0.23677 0.58032 0.0
H1106 H 0.24294 0.32867 0.54208 0.0
H1107 H 0.1635 0.3086 0.59696 0.0
C1108 C 0.14588 0.34755 0.58174 0.0
C1109 C 0.1491 0.37164 0.56455 0.0
C1110 C 0.23663 0.30869 0.55129 0.0
C1111 C 0.19174 0.33058 0.56885 0.0
C1112 C 0.25172 0.28407 0.545 0.0
C1113 C 0.24233 0.25743 0.5543 0.0
C1114 C 0.21215 0.30664 0.56717 0.0
C1115 C 0.21967 0.25681 0.57272 0.0
C1116 C 0.16703 0.32724 0.58409 0.0
C1117 C 0.17479 0.37524 0.55101 0.0
N1118 N 0.20511 0.28091 0.57811 0.0
N1119 N 0.19499 0.35465 0.55304 0.0
H1120 H 0.59681 0.67111 0.70948 0.0
H1121 H 0.50991 0.53059 0.69371 0.0
H1122 H 0.63839 0.59391 0.68526 0.0
H1123 H 0.49746 0.58707 0.76492 0.0
H1124 H 0.55334 0.55627 0.6833 0.0
H1125 H 0.55592 0.64328 0.72329 0.0
C1126 C 0.59721 0.64826 0.70703 0.0
C1127 C 0.62074 0.63462 0.69615 0.0
C1128 C 0.54108 0.56287 0.70123 0.0
C1129 C 0.57421 0.60301 0.71142 0.0
C1130 C 0.51628 0.54849 0.70702 0.0
C1131 C 0.50013 0.55694 0.73009 0.0
C1132 C 0.54924 0.58622 0.71818 0.0
C1133 C 0.50939 0.57998 0.74695 0.0
C1134 C 0.57406 0.63248 0.71506 0.0
C1135 C 0.62052 0.60503 0.69362 0.0
N1136 N 0.53323 0.59413 0.74041 0.0
N1137 N 0.5973 0.5901 0.70084 0.0
H1138 H 0.42891 0.85319 0.68788 0.0
H1139 H 0.51888 0.94871 0.7988 0.0
H1140 H 0.39344 0.88457 0.76545 0.0
H1141 H 0.5516 0.90793 0.72436 0.0
H1142 H 0.47407 0.92343 0.7903 0.0
H1143 H 0.47407 0.87347 0.70246 0.0
C1144 C 0.43061 0.86471 0.70797 0.0
C1145 C 0.40737 0.86718 0.72549 0.0
C1146 C 0.49128 0.91956 0.77624 0.0
C1147 C 0.45965 0.89032 0.74275 0.0
C1148 C 0.51705 0.9336 0.78134 0.0
C1149 C 0.53899 0.93047 0.76215 0.0
C1150 C 0.48759 0.90235 0.75182 0.0
C1151 C 0.53524 0.91105 0.7396 0.0
C1152 C 0.45656 0.87612 0.71643 0.0
C1153 C 0.4108 0.88245 0.75121 0.0
N1154 N 0.50996 0.89808 0.73487 0.0
N1155 N 0.43659 0.89342 0.75918 0.0
H1156 H 0.59632 0.86642 0.15492 0.0
H1157 H 0.51197 0.73501 0.20147 0.0
H1158 H 0.53166 0.8286 0.09992 0.0
H1159 H 0.59052 0.76127 0.24214 0.0
H1160 H 0.52438 0.76066 0.15836 0.0
H1161 H 0.59945 0.82263 0.18221 0.0
C1162 C 0.58271 0.84881 0.14866 0.0
C1163 C 0.56314 0.85131 0.1257 0.0
C1164 C 0.53954 0.75981 0.17619 0.0
C1165 C 0.56655 0.80095 0.15685 0.0
C1166 C 0.53266 0.74468 0.20064 0.0
C1167 C 0.55019 0.74638 0.22535 0.0
C1168 C 0.56388 0.77688 0.17694 0.0
C1169 C 0.57644 0.75965 0.22346 0.0
C1170 C 0.58475 0.82364 0.16401 0.0
C1171 C 0.54667 0.8276 0.11787 0.0
N1172 N 0.58216 0.77516 0.19998 0.0
N1173 N 0.54828 0.80354 0.13384 0.0
H1174 H 0.12056 0.25515 0.11369 0.0
H1175 H 0.09776 0.2253 0.94563 0.0
H1176 H 0.14307 0.17811 0.0701 0.0
H1177 H 0.0588 0.296 0.98733 0.0
H1178 H 0.12252 0.21353 0.99057 0.0
H1179 H 0.1022 0.27426 0.06774 0.0
C1180 C 0.12113 0.24208 0.09463 0.0
C1181 C 0.13331 0.21497 0.09573 0.0
C1182 C 0.10895 0.23195 0.98986 0.0
C1183 C 0.1134 0.23698 0.04324 0.0
C1184 C 0.0952 0.23894 0.96405 0.0
C1185 C 0.07607 0.26151 0.96281 0.0
C1186 C 0.10334 0.24745 0.01475 0.0
C1187 C 0.07346 0.27846 0.98736 0.0
C1188 C 0.11105 0.25313 0.06839 0.0
C1189 C 0.13395 0.19914 0.07029 0.0
N1190 N 0.08648 0.27073 0.01256 0.0
N1191 N 0.12435 0.21041 0.0452 0.0
H1192 H 0.46689 0.69108 0.11529 0.0
H1193 H 0.41198 0.70974 0.26663 0.0
H1194 H 0.39909 0.64039 0.14699 0.0
H1195 H 0.45144 0.77921 0.22352 0.0
H1196 H 0.39944 0.68859 0.22026 0.0
H1197 H 0.45645 0.72775 0.15103 0.0
C1198 C 0.44942 0.68805 0.12925 0.0
C1199 C 0.43436 0.66248 0.12889 0.0
C1200 C 0.41002 0.70897 0.2208 0.0
C1201 C 0.42229 0.70385 0.16946 0.0
C1202 C 0.41683 0.7212 0.24736 0.0
C1203 C 0.43315 0.74595 0.24893 0.0
C1204 C 0.42046 0.72116 0.19584 0.0
C1205 C 0.43901 0.75992 0.22327 0.0
C1206 C 0.44338 0.70891 0.14958 0.0
C1207 C 0.41176 0.65954 0.14724 0.0
N1208 N 0.43368 0.74677 0.19774 0.0
N1209 N 0.40675 0.67968 0.16709 0.0
H1210 H 0.9046 0.24573 0.13517 0.0
H1211 H 0.96166 0.31729 0.99435 0.0
H1212 H 0.90967 0.33584 0.12114 0.0
H1213 H 0.95796 0.22661 0.00684 0.0
H1214 H 0.9477 0.3242 0.04336 0.0
H1215 H 0.93143 0.23789 0.09191 0.0
C1216 C 0.91235 0.26382 0.12355 0.0
C1217 C 0.90497 0.29141 0.13133 0.0
C1218 C 0.94998 0.30276 0.03543 0.0
C1219 C 0.93454 0.28279 0.08186 0.0
C1220 C 0.95769 0.2988 0.0073 0.0
C1221 C 0.96072 0.27132 0.99631 0.0
C1222 C 0.94506 0.2791 0.05275 0.0
C1223 C 0.95566 0.24819 0.01432 0.0
C1224 C 0.92726 0.25939 0.09871 0.0
C1225 C 0.91494 0.31424 0.11552 0.0
N1226 N 0.94794 0.25261 0.04164 0.0
N1227 N 0.92889 0.30942 0.09126 0.0
H1228 H 0.534 0.18575 0.40508 0.0
H1229 H 0.60249 0.25474 0.26971 0.0
H1230 H 0.60519 0.15374 0.36032 0.0
H1231 H 0.52078 0.27791 0.29907 0.0
H1232 H 0.61267 0.23103 0.3152 0.0
H1233 H 0.53674 0.23004 0.37748 0.0
C1234 C 0.55048 0.18828 0.38985 0.0
C1235 C 0.56898 0.16591 0.38439 0.0
C1236 C 0.59287 0.24217 0.31221 0.0
C1237 C 0.57259 0.21634 0.35339 0.0
C1238 C 0.58732 0.25619 0.28643 0.0
C1239 C 0.56077 0.26812 0.2807 0.0
C1240 C 0.5714 0.2395 0.33197 0.0
C1241 C 0.54158 0.26898 0.30282 0.0
C1242 C 0.55208 0.2135 0.37419 0.0
C1243 C 0.59008 0.17024 0.36465 0.0
N1244 N 0.54687 0.25397 0.32722 0.0
N1245 N 0.59115 0.1948 0.34973 0.0
H1246 H 0.38799 0.16448 0.8972 0.0
H1247 H 0.46957 0.28233 0.98828 0.0
H1248 H 0.40397 0.248 0.86406 0.0
H1249 H 0.46785 0.1935 0.01074 0.0
H1250 H 0.44784 0.27034 0.94153 0.0
H1251 H 0.42069 0.17418 0.93733 0.0
C1252 C 0.39888 0.18471 0.89824 0.0
C1253 C 0.39331 0.20559 0.87769 0.0
C1254 C 0.4525 0.25352 0.95667 0.0
C1255 C 0.43004 0.21722 0.92372 0.0
C1256 C 0.46464 0.26036 0.98342 0.0
C1257 C 0.47017 0.23894 0.0036 0.0
C1258 C 0.44575 0.22515 0.95028 0.0
C1259 C 0.46372 0.2108 0.99603 0.0
C1260 C 0.41749 0.1903 0.92111 0.0
C1261 C 0.4079 0.23142 0.87965 0.0
N1262 N 0.45169 0.20478 0.97007 0.0
N1263 N 0.4253 0.23678 0.90272 0.0
H1264 H 0.4616 0.32532 0.389 0.0
H1265 H 0.42135 0.29847 0.22647 0.0
H1266 H 0.40537 0.37792 0.33792 0.0
H1267 H 0.46723 0.23757 0.27831 0.0
H1268 H 0.40604 0.32164 0.2699 0.0
H1269 H 0.4568 0.28801 0.35212 0.0
C1270 C 0.44793 0.32881 0.37031 0.0
C1271 C 0.43452 0.35499 0.36608 0.0
C1272 C 0.41878 0.30271 0.27192 0.0
C1273 C 0.4287 0.31263 0.32412 0.0
C1274 C 0.42714 0.28922 0.24702 0.0
C1275 C 0.44579 0.26627 0.24875 0.0
C1276 C 0.42982 0.29365 0.2987 0.0
C1277 C 0.45284 0.25526 0.27599 0.0
C1278 C 0.44512 0.30755 0.3493 0.0
C1279 C 0.41678 0.35835 0.34165 0.0
N1280 N 0.44566 0.26962 0.29993 0.0
N1281 N 0.41469 0.33765 0.32152 0.0
H1282 H 0.65903 0.32853 0.93131 0.0
H1283 H 0.57279 0.21539 0.02056 0.0
H1284 H 0.62031 0.25425 0.89259 0.0
H1285 H 0.60623 0.29398 0.05499 0.0
H1286 H 0.59589 0.22502 0.97559 0.0
H1287 H 0.64354 0.31325 0.97772 0.0
C1288 C 0.64701 0.30903 0.93254 0.0
C1289 C 0.64089 0.2927 0.90792 0.0
C1290 C 0.59866 0.23984 0.9932 0.0
C1291 C 0.62325 0.27476 0.96154 0.0
C1292 C 0.58592 0.23411 0.01911 0.0
C1293 C 0.58745 0.25402 0.04157 0.0
C1294 C 0.61314 0.26556 0.98984 0.0
C1295 C 0.60437 0.27813 0.03822 0.0
C1296 C 0.6383 0.30022 0.95917 0.0
C1297 C 0.62522 0.26765 0.91094 0.0
N1298 N 0.61619 0.28339 0.01274 0.0
N1299 N 0.61697 0.25938 0.93732 0.0
H1300 H 0.11534 0.55598 0.82084 0.0
H1301 H 0.27965 0.58399 0.7995 0.0
H1302 H 0.17244 0.59457 0.88345 0.0
H1303 H 0.227 0.53857 0.73789 0.0
H1304 H 0.23773 0.59729 0.82512 0.0
H1305 H 0.15313 0.55683 0.78612 0.0
C1306 C 0.13566 0.56487 0.82722 0.0
C1307 C 0.14075 0.57483 0.85531 0.0
C1308 C 0.23515 0.585 0.8056 0.0
C1309 C 0.18402 0.57616 0.81559 0.0
C1310 C 0.25912 0.57781 0.79068 0.0
C1311 C 0.25691 0.56023 0.76643 0.0
C1312 C 0.20865 0.57418 0.79657 0.0
C1313 C 0.22971 0.55245 0.75628 0.0
C1314 C 0.15723 0.56537 0.80738 0.0
C1315 C 0.16755 0.58623 0.86225 0.0
N1316 N 0.20671 0.55892 0.77173 0.0
N1317 N 0.18805 0.58642 0.84269 0.0
H1318 H 0.81459 0.58266 0.34406 0.0
H1319 H 0.78713 0.52028 0.49766 0.0
H1320 H 0.79453 0.63883 0.41363 0.0
H1321 H 0.76263 0.47795 0.41862 0.0
H1322 H 0.79989 0.56254 0.47007 0.0
H1323 H 0.80674 0.5423 0.37474 0.0
C1324 C 0.80865 0.5866 0.36586 0.0
C1325 C 0.80474 0.61426 0.37615 0.0
C1326 C 0.79174 0.54391 0.45896 0.0
C1327 C 0.79592 0.56783 0.41141 0.0
C1328 C 0.78463 0.51986 0.47455 0.0
C1329 C 0.77382 0.49573 0.46028 0.0
C1330 C 0.78859 0.54331 0.42904 0.0
C1331 C 0.77073 0.4962 0.43041 0.0
C1332 C 0.80413 0.56346 0.38331 0.0
C1333 C 0.79743 0.61785 0.40477 0.0
N1334 N 0.77827 0.51957 0.41576 0.0
N1335 N 0.79313 0.59478 0.42152 0.0
H1336 H 0.9029 0.96873 0.81738 0.0
H1337 H 0.75705 0.9049 0.76093 0.0
H1338 H 0.84867 0.91224 0.86276 0.0
H1339 H 0.79445 0.97972 0.7257 0.0
H1340 H 0.80197 0.89369 0.78517 0.0
H1341 H 0.87319 0.96133 0.77381 0.0
C1342 C 0.88488 0.95466 0.81808 0.0
C1343 C 0.8776 0.94179 0.84382 0.0
C1344 C 0.80074 0.91199 0.77123 0.0
C1345 C 0.84443 0.93247 0.79419 0.0
C1346 C 0.77524 0.91807 0.75698 0.0
C1347 C 0.77212 0.94346 0.7418 0.0
C1348 C 0.82282 0.93184 0.77065 0.0
C1349 C 0.79614 0.96 0.73744 0.0
C1350 C 0.86815 0.95026 0.79324 0.0
C1351 C 0.85445 0.92331 0.84356 0.0
N1352 N 0.82038 0.95449 0.75273 0.0
N1353 N 0.8386 0.91936 0.8192 0.0
H1354 H 0.17077 0.91916 0.37103 0.0
H1355 H 0.29295 0.01386 0.44389 0.0
H1356 H 0.25341 0.88525 0.39099 0.0
H1357 H 0.21332 0.04603 0.41101 0.0
H1358 H 0.28141 0.96755 0.42241 0.0
H1359 H 0.18711 0.96576 0.38643 0.0
C1360 C 0.19233 0.92148 0.37912 0.0
C1361 C 0.21072 0.89825 0.3798 0.0
C1362 C 0.26678 0.98494 0.41935 0.0
C1363 C 0.22994 0.95205 0.39701 0.0
C1364 C 0.27357 0.01154 0.43115 0.0
C1365 C 0.25395 0.03379 0.42936 0.0
C1366 C 0.24022 0.98072 0.40577 0.0
C1367 C 0.22896 0.02942 0.41306 0.0
C1368 C 0.20178 0.94822 0.38762 0.0
C1369 C 0.23845 0.90254 0.39045 0.0
N1370 N 0.22264 0.00332 0.40232 0.0
N1371 N 0.2473 0.92902 0.39857 0.0
H1372 H 0.10715 0.46548 0.68236 0.0
H1373 H 0.25542 0.40411 0.73751 0.0
H1374 H 0.16118 0.41043 0.63511 0.0
H1375 H 0.21857 0.47893 0.77333 0.0
H1376 H 0.2111 0.39433 0.71122 0.0
H1377 H 0.13943 0.46069 0.72446 0.0
C1378 C 0.12565 0.45224 0.68093 0.0
C1379 C 0.13189 0.43886 0.65505 0.0
C1380 C 0.2123 0.41234 0.72564 0.0
C1381 C 0.1682 0.4326 0.70313 0.0
C1382 C 0.23741 0.41756 0.74115 0.0
C1383 C 0.24064 0.44242 0.75745 0.0
C1384 C 0.19044 0.43233 0.72625 0.0
C1385 C 0.21683 0.45946 0.76104 0.0
C1386 C 0.14393 0.44942 0.70494 0.0
C1387 C 0.15593 0.42168 0.65442 0.0
N1388 N 0.19291 0.45462 0.7448 0.0
N1389 N 0.1732 0.41915 0.67802 0.0
H1390 H 0.66235 0.59691 0.63291 0.0
H1391 H 0.6978 0.49416 0.50734 0.0
H1392 H 0.72919 0.62143 0.57767 0.0
H1393 H 0.70194 0.46546 0.59491 0.0
H1394 H 0.69205 0.54298 0.52429 0.0
H1395 H 0.65942 0.55105 0.60922 0.0
C1396 C 0.67623 0.59284 0.61546 0.0
C1397 C 0.69667 0.61285 0.60776 0.0
C1398 C 0.69357 0.52583 0.53963 0.0
C1399 C 0.69257 0.56043 0.58016 0.0
C1400 C 0.69629 0.49794 0.5301 0.0
C1401 C 0.69988 0.47564 0.54984 0.0
C1402 C 0.69358 0.53126 0.569 0.0
C1403 C 0.6988 0.48195 0.57906 0.0
C1404 C 0.67439 0.56664 0.60203 0.0
C1405 C 0.71338 0.60655 0.58444 0.0
N1406 N 0.69561 0.50925 0.58779 0.0
N1407 N 0.71115 0.58058 0.5715 0.0
H1408 H 0.8452 0.10415 0.62369 0.0
H1409 H 0.78421 0.04211 0.76735 0.0
H1410 H 0.8938 0.05074 0.68146 0.0
H1411 H 0.7348 0.08395 0.70095 0.0
H1412 H 0.8272 0.05535 0.74315 0.0
H1413 H 0.80809 0.10644 0.65806 0.0
C1414 C 0.84813 0.09293 0.64375 0.0
C1415 C 0.87244 0.07668 0.6494 0.0
C1416 C 0.80701 0.06236 0.73434 0.0
C1417 C 0.82958 0.07919 0.68916 0.0
C1418 C 0.78241 0.05525 0.74842 0.0
C1419 C 0.75576 0.06189 0.73612 0.0
C1420 C 0.80495 0.07645 0.70793 0.0
C1421 C 0.75483 0.07837 0.71119 0.0
C1422 C 0.82689 0.09435 0.66346 0.0
C1423 C 0.87529 0.06325 0.67611 0.0
N1424 N 0.77898 0.0847 0.69775 0.0
N1425 N 0.85387 0.06442 0.69486 0.0
H1426 H 0.34714 0.91917 0.6567 0.0
H1427 H 0.23655 0.99313 0.54938 0.0
H1428 H 0.28326 0.87234 0.60831 0.0
H1429 H 0.31906 0.02871 0.56814 0.0
H1430 H 0.25021 0.9508 0.57662 0.0
H1431 H 0.33448 0.96173 0.6292 0.0
C1432 C 0.33059 0.91782 0.64019 0.0
C1433 C 0.31626 0.89221 0.63473 0.0
C1434 C 0.26528 0.96792 0.57475 0.0
C1435 C 0.30139 0.94073 0.60373 0.0
C1436 C 0.25744 0.99214 0.55942 0.0
C1437 C 0.27673 0.01442 0.55646 0.0
C1438 C 0.2924 0.9662 0.58757 0.0
C1439 C 0.3036 0.01193 0.56975 0.0
C1440 C 0.32341 0.94205 0.62454 0.0
C1441 C 0.29498 0.8916 0.6131 0.0
N1442 N 0.31062 0.98828 0.58486 0.0
N1443 N 0.288 0.91559 0.59857 0.0
H1444 H 0.86795 0.17106 0.56895 0.0
H1445 H 0.76464 0.22821 0.45751 0.0
H1446 H 0.85072 0.11008 0.50157 0.0
H1447 H 0.84282 0.27174 0.47797 0.0
H1448 H 0.78677 0.18342 0.47215 0.0
H1449 H 0.84627 0.20787 0.53917 0.0
C1450 C 0.85888 0.16526 0.54813 0.0
C1451 C 0.86123 0.1375 0.53767 0.0
C1452 C 0.79935 0.20262 0.47218 0.0
C1453 C 0.83683 0.17975 0.50332 0.0
C1454 C 0.78691 0.22825 0.46344 0.0
C1455 C 0.8017 0.25402 0.46732 0.0
C1456 C 0.82655 0.20309 0.48476 0.0
C1457 C 0.83044 0.25253 0.47521 0.0
C1458 C 0.84693 0.18634 0.53103 0.0
C1459 C 0.84908 0.1312 0.51049 0.0
N1460 N 0.84161 0.22771 0.4848 0.0
N1461 N 0.83741 0.15232 0.494 0.0
H1462 H 0.8679 0.85173 0.90258 0.0
H1463 H 0.73509 0.79707 0.97916 0.0
H1464 H 0.82758 0.90342 0.96529 0.0
H1465 H 0.76255 0.76322 0.8993 0.0
H1466 H 0.76252 0.84018 0.971 0.0
H1467 H 0.82586 0.82215 0.89841 0.0
C1468 C 0.8501 0.85682 0.91553 0.0
C1469 C 0.85141 0.87973 0.93471 0.0
C1470 C 0.7616 0.82388 0.95463 0.0
C1471 C 0.80291 0.84574 0.93012 0.0
C1472 C 0.74542 0.79947 0.95901 0.0
C1473 C 0.74662 0.77652 0.93987 0.0
C1474 C 0.77916 0.82506 0.93108 0.0
C1475 C 0.76101 0.78046 0.91453 0.0
C1476 C 0.82592 0.84008 0.91292 0.0
C1477 C 0.82748 0.88575 0.95046 0.0
N1478 N 0.77736 0.80383 0.91125 0.0
N1479 N 0.80436 0.86849 0.94825 0.0
H1480 H 0.07707 0.84707 0.33302 0.0
H1481 H 0.99725 0.94418 0.21551 0.0
H1482 H 0.11981 0.89297 0.26758 0.0
H1483 H 0.95849 0.91264 0.29112 0.0
H1484 H 0.04026 0.91803 0.22905 0.0
H1485 H 0.03212 0.86541 0.31409 0.0
C1486 C 0.07706 0.8612 0.3148 0.0
C1487 C 0.10238 0.86865 0.30206 0.0
C1488 C 0.02213 0.91635 0.24235 0.0
C1489 C 0.0507 0.88932 0.27984 0.0
C1490 C 0.99738 0.93084 0.23433 0.0
C1491 C 0.97426 0.93057 0.25223 0.0
C1492 C 0.02365 0.90139 0.26833 0.0
C1493 C 0.97585 0.91343 0.27673 0.0
C1494 C 0.05132 0.87153 0.30389 0.0
C1495 C 0.10091 0.88692 0.27835 0.0
N1496 N 1.0002 0.8998 0.28422 0.0
N1497 N 0.07553 0.89655 0.26797 0.0
H1498 H 0.10909 0.6575 0.99328 0.0
H1499 H 0.26187 0.70979 0.02367 0.0
H1500 H 0.18012 0.60732 0.96857 0.0
H1501 H 0.19001 0.74188 0.0669 0.0
H1502 H 0.23547 0.66652 0.01165 0.0
H1503 H 0.1398 0.68433 0.02588 0.0
C1504 C 0.13132 0.6523 0.99455 0.0
C1505 C 0.14226 0.63068 0.97762 0.0
C1506 C 0.22586 0.68241 0.02489 0.0
C1507 C 0.17778 0.66134 0.01532 0.0
C1508 C 0.24114 0.70691 0.03222 0.0
C1509 C 0.22781 0.72944 0.0459 0.0
C1510 C 0.19719 0.68089 0.03126 0.0
C1511 C 0.20085 0.72497 0.05611 0.0
C1512 C 0.14883 0.66736 0.01357 0.0
C1513 C 0.17103 0.62423 0.98091 0.0
N1514 N 0.18607 0.70153 0.04785 0.0
N1515 N 0.18799 0.63992 -0.00099 0.0
H1516 H 0.36923 0.10956 0.7474 0.0
H1517 H 0.51843 0.05875 0.81399 0.0
H1518 H 0.40284 0.13255 0.83118 0.0
H1519 H 0.494 0.04775 0.72474 0.0
H1520 H 0.47284 0.08009 0.8221 0.0
H1521 H 0.41119 0.07996 0.74044 0.0
C1522 C 0.38512 0.10778 0.7645 0.0
C1523 C 0.38291 0.12348 0.78977 0.0
C1524 C 0.47742 0.07303 0.80071 0.0
C1525 C 0.43055 0.09037 0.78204 0.0
C1526 C 0.50355 0.06092 0.79603 0.0
C1527 C 0.51022 0.05165 0.76858 0.0
C1528 C 0.45769 0.07592 0.77781 0.0
C1529 C 0.48989 0.05485 0.74621 0.0
C1530 C 0.4091 0.09121 0.76047 0.0
C1531 C 0.40403 0.12087 0.81127 0.0
N1532 N 0.46452 0.06678 0.75131 0.0
N1533 N 0.42702 0.1048 0.80685 0.0
H1534 H 0.62279 0.83947 0.0877 0.0
H1535 H 0.76908 0.78397 0.03299 0.0
H1536 H 0.6805 0.89345 0.04372 0.0
H1537 H 0.71058 0.73367 0.07981 0.0
H1538 H 0.74259 0.82661 0.04489 0.0
H1539 H 0.65887 0.80323 0.09177 0.0
C1540 C 0.64313 0.8437 0.07876 0.0
C1541 C 0.64837 0.86938 0.06474 0.0
C1542 C 0.73608 0.8064 0.0534 0.0
C1543 C 0.69024 0.82751 0.06944 0.0
C1544 C 0.75156 0.78202 0.04708 0.0
C1545 C 0.74196 0.75511 0.05534 0.0
C1546 C 0.71094 0.80379 0.06816 0.0
C1547 C 0.7187 0.75393 0.07297 0.0
C1548 C 0.66388 0.82298 0.08132 0.0
C1549 C 0.67543 0.87384 0.05437 0.0
N1550 N 0.70371 0.77777 0.07829 0.0
N1551 N 0.69525 0.85291 0.05652 0.0
H1552 H 0.09981 0.14099 0.15693 0.0
H1553 H 0.02003 0.0528 0.27419 0.0
H1554 H 0.14095 0.11439 0.23609 0.0
H1555 H 0.99001 0.06106 0.18631 0.0
H1556 H 0.06362 0.07707 0.262 0.0
H1557 H 0.05873 0.11278 0.16831 0.0
C1558 C 0.10021 0.12897 0.17665 0.0
C1559 C 0.12364 0.13006 0.1957 0.0
C1560 C 0.04748 0.07345 0.24543 0.0
C1561 C 0.07659 0.098 0.20906 0.0
C1562 C 0.02252 0.05982 0.25239 0.0
C1563 C 1.00128 0.055 0.23125 0.0
C1564 C 0.05103 0.08251 0.21723 0.0
C1565 C 0.00577 0.06431 0.20332 0.0
C1566 C 0.07679 0.11285 0.18313 0.0
C1567 C 0.12326 0.11397 0.22083 0.0
N1568 N 0.03008 0.07771 0.19717 0.0
N1569 N 0.09985 0.09878 0.227 0.0
H1570 H 0.89043 0.39066 0.25876 0.0
H1571 H 0.0544 0.40622 0.22616 0.0
H1572 H 0.93437 0.3423 0.19584 0.0
H1573 H 0.01639 0.45206 0.29464 0.0
H1574 H 0.01075 0.37961 0.21833 0.0
H1575 H 0.93579 0.41273 0.27414 0.0
C1576 C 0.90946 0.3849 0.24806 0.0
C1577 C 0.9086 0.36456 0.22606 0.0
C1578 C 0.01195 0.39511 0.23546 0.0
C1579 C 0.96029 0.38914 0.24371 0.0
C1580 C 0.03708 0.41002 0.24015 0.0
C1581 C 0.03907 0.43123 0.26114 0.0
C1582 C 0.98831 0.4018 0.25148 0.0
C1583 C 0.01583 0.43559 0.27845 0.0
C1584 C 0.93535 0.39722 0.25702 0.0
C1585 C 0.93395 0.35767 0.21308 0.0
N1586 N 0.99118 0.42138 0.2729 0.0
N1587 N 0.95855 0.36985 0.22208 0.0
H1588 H 0.23513 0.23499 0.85164 0.0
H1589 H 0.08262 0.16409 0.84622 0.0
H1590 H 0.21801 0.15047 0.81957 0.0
H1591 H 0.09974 0.24749 0.88085 0.0
H1592 H 0.1331 0.15629 0.84258 0.0
H1593 H 0.1865 0.23845 0.86614 0.0
C1594 C 0.22112 0.21717 0.84745 0.0
C1595 C 0.23074 0.19241 0.83418 0.0
C1596 C 0.12593 0.17612 0.85146 0.0
C1597 C 0.1749 0.1962 0.85118 0.0
C1598 C 0.09711 0.18049 0.8538 0.0
C1599 C 0.08702 0.20664 0.86345 0.0
C1600 C 0.14481 0.19819 0.85853 0.0
C1601 C 0.10665 0.22706 0.87319 0.0
C1602 C 0.19336 0.21912 0.85599 0.0
C1603 C 0.21154 0.17005 0.8295 0.0
N1604 N 0.13466 0.22262 0.86992 0.0
N1605 N 0.18455 0.17251 0.83796 0.0
H1606 H 0.40427 0.53598 0.40277 0.0
H1607 H 0.52362 0.64801 0.36669 0.0
H1608 H 0.49176 0.51316 0.39579 0.0
H1609 H 0.43494 0.66649 0.35998 0.0
H1610 H 0.51251 0.5977 0.37294 0.0
H1611 H 0.41516 0.5834 0.3855 0.0
C1612 C 0.42585 0.54096 0.39787 0.0
C1613 C 0.44714 0.52043 0.40096 0.0
C1614 C 0.49542 0.61256 0.36927 0.0
C1615 C 0.45971 0.57491 0.38068 0.0
C1616 C 0.5018 0.64119 0.36516 0.0
C1617 C 0.48015 0.66125 0.36219 0.0
C1618 C 0.46715 0.60405 0.37111 0.0
C1619 C 0.45221 0.65155 0.36152 0.0
C1620 C 0.43199 0.56803 0.38768 0.0
C1621 C 0.47465 0.52824 0.39392 0.0
N1622 N 0.44649 0.62372 0.36645 0.0
N1623 N 0.48013 0.55483 0.38423 0.0
H1624 H 0.78099 0.37145 0.83323 0.0
H1625 H 0.91512 0.27071 0.81747 0.0
H1626 H 0.77621 0.28471 0.8041 0.0
H1627 H 0.91446 0.34157 0.87613 0.0
H1628 H 0.86694 0.28212 0.80177 0.0
H1629 H 0.8326 0.36707 0.83811 0.0
C1630 C 0.79089 0.35181 0.82702 0.0
C1631 C 0.77444 0.3284 0.81819 0.0
C1632 C 0.87744 0.29533 0.81788 0.0
C1633 C 0.83308 0.3232 0.8239 0.0
C1634 C 0.90503 0.2889 0.82683 0.0
C1635 C 0.91888 0.30502 0.84843 0.0
C1636 C 0.86351 0.31821 0.83037 0.0
C1637 C 0.90455 0.32836 0.85967 0.0
C1638 C 0.82024 0.34922 0.83011 0.0
C1639 C 0.7882 0.30323 0.81097 0.0
N1640 N 0.8776 0.33418 0.85062 0.0
N1641 N 0.81669 0.30126 0.81407 0.0
H1642 H 0.5944 0.9756 0.42324 0.0
H1643 H 0.49639 0.87387 0.3269 0.0
H1644 H 0.52153 0.00474 0.37401 0.0
H1645 H 0.54968 0.84147 0.39587 0.0
H1646 H 0.5069 0.92202 0.34305 0.0
H1647 H 0.58028 0.92648 0.41261 0.0
C1648 C 0.57543 0.97172 0.41024 0.0
C1649 C 0.55926 0.99442 0.39934 0.0
C1650 C 0.51616 0.90444 0.35486 0.0
C1651 C 0.54307 0.93827 0.38708 0.0
C1652 C 0.51022 0.87689 0.3456 0.0
C1653 C 0.52232 0.85359 0.35996 0.0
C1654 C 0.53478 0.90895 0.37843 0.0
C1655 C 0.53988 0.85884 0.38422 0.0
C1656 C 0.56733 0.94367 0.40433 0.0
C1657 C 0.53475 0.98803 0.38283 0.0
N1658 N 0.54591 0.88602 0.39249 0.0
N1659 N 0.52759 0.96064 0.37702 0.0
H1660 H 0.24336 0.77442 0.66265 0.0
H1661 H 0.0939 0.84794 0.6665 0.0
H1662 H 0.23389 0.86199 0.68782 0.0
H1663 H 0.10886 0.76859 0.6235 0.0
H1664 H 0.14471 0.85526 0.67226 0.0
H1665 H 0.19382 0.77264 0.64846 0.0
C1666 C 0.23081 0.79333 0.66538 0.0
C1667 C 0.24293 0.81848 0.67644 0.0
C1668 C 0.13691 0.83651 0.6611 0.0
C1669 C 0.18576 0.8165 0.6599 0.0
C1670 C 0.10791 0.83236 0.65765 0.0
C1671 C 0.09718 0.80734 0.64493 0.0
C1672 C 0.15526 0.81534 0.65207 0.0
C1673 C 0.11622 0.78806 0.6336 0.0
C1674 C 0.20248 0.79231 0.65699 0.0
C1675 C 0.22543 0.84213 0.67957 0.0
N1676 N 0.14439 0.7922 0.63794 0.0
N1677 N 0.19764 0.84056 0.67136 0.0
H1678 H 0.02068 0.50953 0.61607 0.0
H1679 H 0.05961 0.67449 0.6047 0.0
H1680 H 0.09721 0.53699 0.5773 0.0
H1681 H 0.00819 0.63934 0.67008 0.0
H1682 H 0.06852 0.626 0.58726 0.0
H1683 H 0.01054 0.55862 0.62835 0.0
C1684 C 0.03531 0.52585 0.60983 0.0
C1685 C 0.06001 0.51881 0.59567 0.0
C1686 C 0.05522 0.62902 0.60535 0.0
C1687 C 0.04823 0.57569 0.60978 0.0
C1688 C 0.05 0.65668 0.61523 0.0
C1689 C 0.03322 0.6611 0.63905 0.0
C1690 C 0.04307 0.60564 0.61897 0.0
C1691 C 0.02142 0.6371 0.65184 0.0
C1692 C 0.0295 0.55399 0.61702 0.0
C1693 C 0.078 0.54125 0.5883 0.0
N1694 N 0.02645 0.6106 0.64161 0.0
N1695 N 0.07176 0.56863 0.59541 0.0
H1696 H 0.78393 0.72982 0.67313 0.0
H1697 H 0.92697 0.66941 0.61851 0.0
H1698 H 0.79333 0.6405 0.6562 0.0
H1699 H 0.92322 0.74413 0.67182 0.0
H1700 H 0.87813 0.6583 0.63004 0.0
H1701 H 0.83491 0.73579 0.67092 0.0
C1702 C 0.79685 0.7114 0.66926 0.0
C1703 C 0.78449 0.68464 0.66484 0.0
C1704 C 0.88821 0.6769 0.63946 0.0
C1705 C 0.84282 0.69141 0.66161 0.0
C1706 C 0.91601 0.68334 0.63281 0.0
C1707 C 0.9292 0.70788 0.64402 0.0
C1708 C 0.87335 0.69541 0.657 0.0
C1709 C 0.91399 0.72503 0.6626 0.0
C1710 C 0.82594 0.7148 0.66805 0.0
C1711 C 0.80214 0.66145 0.6599 0.0
N1712 N 0.88681 0.71868 0.66816 0.0
N1713 N 0.83047 0.66543 0.65792 0.0
H1714 H 0.99501 0.0053 0.60976 0.0
H1715 H 0.94243 0.84601 0.63774 0.0
H1716 H 0.908 0.97924 0.60019 0.0
H1717 H 0.0296 0.86985 0.63221 0.0
H1718 H 0.92906 0.89612 0.63257 0.0
H1719 H 0.00758 0.95721 0.62457 0.0
C1720 C 0.97849 0.98948 0.61067 0.0
C1721 C 0.95035 0.99651 0.60347 0.0
C1722 C 0.95117 0.89052 0.63325 0.0
C1723 C 0.96472 0.94103 0.62094 0.0
C1724 C 0.95883 0.86197 0.63681 0.0
C1725 C 0.98722 0.85386 0.63615 0.0
C1726 C 0.97208 0.91111 0.62883 0.0
C1727 C 0.00753 0.87528 0.63354 0.0
C1728 C 0.98572 0.96196 0.61926 0.0
C1729 C 0.92998 0.9749 0.60526 0.0
N1730 N 0.99959 0.9028 0.62977 0.0
N1731 N 0.93754 0.94823 0.61381 0.0
H1732 H 0.81079 0.22038 0.22402 0.0
H1733 H 0.88466 0.08567 0.16323 0.0
H1734 H 0.8416 0.21825 0.13834 0.0
H1735 H 0.82582 0.08124 0.23147 0.0
H1736 H 0.86782 0.13354 0.15217 0.0
H1737 H 0.81418 0.16874 0.22601 0.0
C1738 C 0.81778 0.20893 0.20544 0.0
C1739 C 0.82612 0.2235 0.18109 0.0
C1740 C 0.85831 0.12185 0.16925 0.0
C1741 C 0.83069 0.16464 0.1834 0.0
C1742 C 0.868 0.09458 0.17565 0.0
C1743 C 0.85699 0.07958 0.19861 0.0
C1744 C 0.83781 0.13426 0.1862 0.0
C1745 C 0.83519 0.09208 0.21377 0.0
C1746 C 0.81969 0.17949 0.20655 0.0
C1747 C 0.83494 0.20775 0.15753 0.0
N1748 N 0.82666 0.11885 0.2076 0.0
N1749 N 0.83755 0.17913 0.15948 0.0
H1750 H 0.47375 0.93111 0.10321 0.0
H1751 H 0.35325 0.85402 0.00724 0.0
H1752 H 0.49005 0.89404 0.02096 0.0
H1753 H 0.3417 0.88829 0.09146 0.0
H1754 H 0.40413 0.86328 0.01312 0.0
H1755 H 0.42573 0.91321 0.09937 0.0
C1756 C 0.46717 0.91946 0.08411 0.0
C1757 C 0.48615 0.91422 0.06235 0.0
C1758 C 0.39056 0.86808 0.03061 0.0
C1759 C 0.43068 0.89304 0.05797 0.0
C1760 C 0.36158 0.86221 0.0275 0.0
C1761 C 0.34324 0.87022 0.049 0.0
C1762 C 0.40113 0.88207 0.05538 0.0
C1763 C 0.35511 0.8816 0.07445 0.0
C1764 C 0.43968 0.90897 0.08204 0.0
C1765 C 0.47617 0.89886 0.03818 0.0
N1766 N 0.38312 0.88755 0.07675 0.0
N1767 N 0.44915 0.88877 0.03665 0.0
H1768 H 0.17183 0.28389 0.12264 0.0
H1769 H 0.14042 0.39719 0.24475 0.0
H1770 H 0.20682 0.28108 0.20892 0.0
H1771 H 0.13907 0.42167 0.15605 0.0
H1772 H 0.15327 0.34898 0.23065 0.0
H1773 H 0.15268 0.33131 0.13271 0.0
C1774 C 0.17642 0.29368 0.14327 0.0
C1775 C 0.19115 0.27867 0.16492 0.0
C1776 C 0.14946 0.36475 0.21419 0.0
C1777 C 0.16792 0.3317 0.17704 0.0
C1778 C 0.14142 0.39206 0.22221 0.0
C1779 C 0.13862 0.41335 0.20153 0.0
C1780 C 0.15445 0.35874 0.18531 0.0
C1781 C 0.14093 0.40571 0.1726 0.0
C1782 C 0.16497 0.3204 0.1492 0.0
C1783 C 0.19572 0.292 0.1916 0.0
N1784 N 0.14911 0.3791 0.16531 0.0
N1785 N 0.18378 0.31745 0.19703 0.0
H1786 H 0.51422 0.6002 0.01876 0.0
H1787 H 0.67181 0.64173 0.06908 0.0
H1788 H 0.53875 0.61096 0.10788 0.0
H1789 H 0.64226 0.63576 0.98125 0.0
H1790 H 0.62321 0.63522 0.08437 0.0
H1791 H 0.56087 0.61522 0.00554 0.0
C1792 C 0.52949 0.60554 0.0357 0.0
C1793 C 0.52226 0.60421 0.0646 0.0
C1794 C 0.62718 0.63618 0.06174 0.0
C1795 C 0.57651 0.62196 0.04927 0.0
C1796 C 0.65486 0.64052 0.05298 0.0
C1797 C 0.661 0.64016 0.02379 0.0
C1798 C 0.60549 0.63096 0.04113 0.0
C1799 C 0.6384 0.63704 0.0039 0.0
C1800 C 0.55625 0.61435 0.02803 0.0
C1801 C 0.54329 0.6114 0.08537 0.0
N1802 N 0.61183 0.63226 0.01291 0.0
N1803 N 0.56943 0.61998 0.0773 0.0
H1804 H 0.83119 0.77915 0.26974 0.0
H1805 H 0.86844 0.92178 0.34663 0.0
H1806 H 0.8388 0.7833 0.362 0.0
H1807 H 0.89246 0.90282 0.26062 0.0
H1808 H 0.86119 0.87125 0.35503 0.0
H1809 H 0.85307 0.82558 0.26708 0.0
C1810 C 0.83714 0.79001 0.2895 0.0
C1811 C 0.83318 0.77729 0.31615 0.0
C1812 C 0.8689 0.87803 0.33463 0.0
C1813 C 0.85875 0.8304 0.31318 0.0
C1814 C 0.87331 0.90679 0.32991 0.0
C1815 C 0.88033 0.91632 0.30267 0.0
C1816 C 0.8711 0.85903 0.31173 0.0
C1817 C 0.88666 0.89626 0.28179 0.0
C1818 C 0.85007 0.81633 0.28793 0.0
C1819 C 0.84124 0.79244 0.34102 0.0
N1820 N 0.88102 0.86848 0.28646 0.0
N1821 N 0.85365 0.81833 0.33894 0.0
H1822 H 0.0189 0.91752 0.98429 0.0
H1823 H 0.1544 0.8393 0.93089 0.0
H1824 H 0.02944 0.90007 0.89469 0.0
H1825 H 0.16076 0.89922 0.0007 0.0
H1826 H 0.10646 0.85626 0.91956 0.0
H1827 H 0.0689 0.90575 0.99366 0.0
C1828 C 0.03171 0.91133 0.96662 0.0
C1829 C 0.01996 0.90989 0.93866 0.0
C1830 C 0.1185 0.86586 0.93717 0.0
C1831 C 0.07682 0.89586 0.94931 0.0
C1832 C 0.14584 0.85621 0.94363 0.0
C1833 C 0.1617 0.86796 0.96666 0.0
C1834 C 0.10657 0.88682 0.95437 0.0
C1835 C 0.14942 0.88976 0.98256 0.0
C1836 C 0.0602 0.90473 0.97195 0.0
C1837 C 0.03759 0.9017 0.91655 0.0
N1838 N 0.12245 0.89818 0.97642 0.0
N1839 N 0.06496 0.89466 0.92239 0.0
H1840 H 0.18283 0.72027 0.37138 0.0
H1841 H 0.18348 0.58904 0.26206 0.0
H1842 H 0.19749 0.72912 0.28141 0.0
H1843 H 0.13383 0.58968 0.33762 0.0
H1844 H 0.19996 0.63703 0.27392 0.0
H1845 H 0.17644 0.66888 0.36418 0.0
C1846 C 0.18554 0.71127 0.35032 0.0
C1847 C 0.19077 0.72888 0.32695 0.0
C1848 C 0.18565 0.62653 0.28801 0.0
C1849 C 0.18337 0.67042 0.31856 0.0
C1850 C 0.17625 0.5991 0.28131 0.0
C1851 C 0.15693 0.58535 0.29868 0.0
C1852 C 0.17607 0.64025 0.31252 0.0
C1853 C 0.14844 0.59954 0.32341 0.0
C1854 C 0.18158 0.68206 0.34616 0.0
C1855 C 0.19349 0.71624 0.29997 0.0
N1856 N 0.15801 0.62621 0.32957 0.0
N1857 N 0.18972 0.68783 0.2965 0.0
H1858 H 0.9844 0.57134 0.9721 0.0
H1859 H 0.85874 0.6766 0.93847 0.0
H1860 H 0.9778 0.61685 0.89236 0.0
H1861 H 0.84504 0.60061 0.98707 0.0
H1862 H 0.90466 0.65818 0.92507 0.0
H1863 H 0.93539 0.58405 0.9814 0.0
C1864 C 0.97251 0.58366 0.95635 0.0
C1865 C 0.98522 0.59289 0.93131 0.0
C1866 C 0.89152 0.64544 0.9385 0.0
C1867 C 0.92939 0.60826 0.94232 0.0
C1868 C 0.86537 0.656 0.94633 0.0
C1869 C 0.84786 0.64011 0.96387 0.0
C1870 C 0.90077 0.61904 0.94889 0.0
C1871 C 0.85759 0.61348 0.97329 0.0
C1872 C 0.94456 0.5909 0.9617 0.0
C1873 C 0.96882 0.609 0.91177 0.0
N1874 N 0.88354 0.60395 0.96601 0.0
N1875 N 0.94198 0.61656 0.9179 0.0
H1876 H 0.16863 0.78393 0.22174 0.0
H1877 H 0.22533 0.89829 0.11221 0.0
H1878 H 0.1735 0.87345 0.24004 0.0
H1879 H 0.21635 0.80882 0.09458 0.0
H1880 H 0.19819 0.89163 0.15579 0.0
H1881 H 0.17688 0.79422 0.17127 0.0
C1882 C 0.17059 0.80575 0.21489 0.0
C1883 C 0.17078 0.82783 0.23483 0.0
C1884 C 0.2019 0.87357 0.1421 0.0
C1885 C 0.18104 0.83987 0.17779 0.0
C1886 C 0.21737 0.87744 0.11736 0.0
C1887 C 0.22376 0.85394 0.10048 0.0
C1888 C 0.19277 0.8461 0.14952 0.0
C1889 C 0.21262 0.82736 0.10765 0.0
C1890 C 0.17556 0.81171 0.18621 0.0
C1891 C 0.17362 0.85583 0.22512 0.0
N1892 N 0.198 0.82412 0.13171 0.0
N1893 N 0.17915 0.86105 0.19738 0.0
H1894 H 0.15099 0.19208 0.26928 0.0
H1895 H 0.24502 0.12321 0.39618 0.0
H1896 H 0.23967 0.17313 0.26448 0.0
H1897 H 0.16216 0.1578 0.40767 0.0
H1898 H 0.23929 0.13182 0.34475 0.0
H1899 H 0.15198 0.17354 0.3181 0.0
C1900 C 0.17075 0.18447 0.2786 0.0
C1901 C 0.19529 0.18424 0.26272 0.0
C1902 C 0.22212 0.13699 0.35847 0.0
C1903 C 0.19633 0.1622 0.3182 0.0
C1904 C 0.22519 0.13158 0.38775 0.0
C1905 C 0.20421 0.14027 0.40617 0.0
C1906 C 0.19789 0.15102 0.34774 0.0
C1907 C 0.179 0.1512 0.39414 0.0
C1908 C 0.17121 0.17354 0.30633 0.0
C1909 C 0.22022 0.17377 0.27586 0.0
N1910 N 0.17672 0.15676 0.36571 0.0
N1911 N 0.22005 0.16305 0.30274 0.0
H1912 H 0.41488 0.51722 0.9952 0.0
H1913 H 0.36876 0.57345 0.83932 0.0
H1914 H 0.41391 0.60556 0.97122 0.0
H1915 H 0.37924 0.48512 0.8598 0.0
H1916 H 0.37615 0.58537 0.89006 0.0
H1917 H 0.39584 0.50489 0.94752 0.0
C1918 C 0.41098 0.53402 0.97982 0.0
C1919 C 0.41629 0.56247 0.98723 0.0
C1920 C 0.37603 0.56329 0.88364 0.0
C1921 C 0.39382 0.54851 0.93272 0.0
C1922 C 0.37116 0.55647 0.85478 0.0
C1923 C 0.37294 0.52827 0.8456 0.0
C1924 C 0.38304 0.54169 0.90327 0.0
C1925 C 0.3772 0.50708 0.86624 0.0
C1926 C 0.39985 0.52697 0.95268 0.0
C1927 C 0.41054 0.58332 0.96643 0.0
N1928 N 0.38256 0.51424 0.89408 0.0
N1929 N 0.39957 0.57592 0.9402 0.0
H1930 H 0.81597 0.36663 0.27137 0.0
H1931 H 0.78809 0.31915 0.43083 0.0
H1932 H 0.82435 0.27879 0.2955 0.0
H1933 H 0.7521 0.39287 0.38914 0.0
H1934 H 0.80809 0.30483 0.38525 0.0
H1935 H 0.80135 0.37807 0.31912 0.0
C1936 C 0.81475 0.34971 0.28691 0.0
C1937 C 0.82077 0.32165 0.27946 0.0
C1938 C 0.79569 0.32402 0.38624 0.0
C1939 C 0.80369 0.33458 0.33429 0.0
C1940 C 0.7842 0.33219 0.41216 0.0
C1941 C 0.76823 0.35718 0.41383 0.0
C1942 C 0.79154 0.34132 0.36215 0.0
C1943 C 0.76416 0.37342 0.389 0.0
C1944 C 0.80633 0.35624 0.31415 0.0
C1945 C 0.81961 0.30064 0.30053 0.0
N1946 N 0.77584 0.36527 0.36433 0.0
N1947 N 0.81083 0.30748 0.32718 0.0
H1948 H 0.08594 0.49175 0.48899 0.0
H1949 H 0.17389 0.44292 0.35813 0.0
H1950 H 0.10297 0.40328 0.47387 0.0
H1951 H 0.11072 0.5075 0.34524 0.0
H1952 H 0.15471 0.43248 0.405 0.0
H1953 H 0.10057 0.50239 0.44009 0.0
C1954 C 0.09248 0.47457 0.47534 0.0
C1955 C 0.09305 0.44655 0.48552 0.0
C1956 C 0.14502 0.44889 0.39186 0.0
C1957 C 0.11061 0.45872 0.43012 0.0
C1958 C 0.15601 0.45495 0.36522 0.0
C1959 C 0.14373 0.47594 0.34767 0.0
C1960 C 0.12208 0.46451 0.40151 0.0
C1961 C 0.12056 0.49089 0.35791 0.0
C1962 C 0.10078 0.48066 0.4475 0.0
C1963 C 0.10189 0.42513 0.46691 0.0
N1964 N 0.11065 0.48513 0.38434 0.0
N1965 N 0.11073 0.43171 0.44036 0.0
H1966 H 0.33261 0.2229 0.71448 0.0
H1967 H 0.31379 0.11132 0.59341 0.0
H1968 H 0.27932 0.14955 0.72457 0.0
H1969 H 0.29305 0.19749 0.57015 0.0
H1970 H 0.31636 0.12562 0.6437 0.0
H1971 H 0.33037 0.2151 0.6623 0.0
C1972 C 0.32005 0.20554 0.70564 0.0
C1973 C 0.30608 0.18683 0.72366 0.0
C1974 C 0.31164 0.14139 0.62743 0.0
C1975 C 0.3045 0.17737 0.66501 0.0
C1976 C 0.31049 0.13339 0.5988 0.0
C1977 C 0.30302 0.15329 0.5777 0.0
C1978 C 0.30594 0.16951 0.63483 0.0
C1979 C 0.29864 0.18156 0.58591 0.0
C1980 C 0.31889 0.20113 0.6761 0.0
C1981 C 0.29021 0.16456 0.71137 0.0
N1982 N 0.30017 0.18896 0.61404 0.0
N1983 N 0.29034 0.16006 0.68276 0.0
H1984 H 0.39246 0.4904 0.50221 0.0
H1985 H 0.40721 0.45174 0.66859 0.0
H1986 H 0.43263 0.41309 0.53103 0.0
H1987 H 0.33949 0.50217 0.63197 0.0
H1988 H 0.42415 0.44326 0.62013 0.0
H1989 H 0.38082 0.50109 0.55149 0.0
C1990 C 0.3992 0.47578 0.51889 0.0
C1991 C 0.4135 0.45065 0.51222 0.0
C1992 C 0.40566 0.45626 0.62281 0.0
C1993 C 0.40014 0.46302 0.56912 0.0
C1994 C 0.39605 0.46123 0.65044 0.0
C1995 C 0.37174 0.47756 0.65441 0.0
C1996 C 0.39126 0.46824 0.59901 0.0
C1997 C 0.35813 0.48925 0.63002 0.0
C1998 C 0.39235 0.48187 0.54708 0.0
C1999 C 0.42149 0.43262 0.53503 0.0
N2000 N 0.36812 0.48448 0.6035 0.0
N2001 N 0.41473 0.43914 0.56243 0.0
H2002 H 0.58442 0.09486 0.53416 0.0
H2003 H 0.62864 0.97503 0.64316 0.0
H2004 H 0.59815 0.00899 0.50549 0.0
H2005 H 0.64358 0.06375 0.65957 0.0
H2006 H 0.61985 0.98556 0.59238 0.0
H2007 H 0.60495 0.0826 0.58078 0.0
C2008 C 0.59133 0.07325 0.53774 0.0
C2009 C 0.58937 0.05288 0.51576 0.0
C2010 C 0.62598 0.00263 0.60686 0.0
C2011 C 0.61351 0.03886 0.56933 0.0
C2012 C 0.63146 0.99656 0.63572 0.0
C2013 C 0.63716 0.01857 0.65532 0.0
C2014 C 0.62548 0.03099 0.5979 0.0
C2015 C 0.63969 0.0462 0.64495 0.0
C2016 C 0.60351 0.06641 0.56432 0.0
C2017 C 0.59907 0.02533 0.5218 0.0
N2018 N 0.63318 0.05176 0.617 0.0
N2019 N 0.61063 0.01908 0.54809 0.0
H2020 H 0.71782 0.6487 0.31726 0.0
H2021 H 0.59979 0.74924 0.38103 0.0
H2022 H 0.73438 0.73305 0.3501 0.0
H2023 H 0.583 0.66672 0.34405 0.0
H2024 H 0.65042 0.74059 0.37729 0.0
H2025 H 0.66912 0.65288 0.33184 0.0
C2026 C 0.7112 0.66818 0.3273 0.0
C2027 C 0.73024 0.6906 0.33226 0.0
C2028 C 0.63564 0.72419 0.37045 0.0
C2029 C 0.67458 0.69537 0.34948 0.0
C2030 C 0.60677 0.72898 0.37296 0.0
C2031 C 0.58725 0.70887 0.36234 0.0
C2032 C 0.64482 0.69913 0.3573 0.0
C2033 C 0.59741 0.68299 0.35202 0.0
C2034 C 0.68343 0.67047 0.33588 0.0
C2035 C 0.72046 0.71523 0.3457 0.0
N2036 N 0.62546 0.67905 0.34933 0.0
N2037 N 0.69333 0.71695 0.35379 0.0
H2038 H 0.90542 0.03538 0.90492 0.0
H2039 H 0.02303 0.14709 0.86339 0.0
H2040 H 0.99269 0.0127 0.89586 0.0
H2041 H 0.93421 0.16519 0.85956 0.0
H2042 H 0.01235 0.0968 0.87038 0.0
H2043 H 0.9156 0.08247 0.88644 0.0
C2044 C 0.92682 0.04033 0.89933 0.0
C2045 C 0.94825 0.01993 0.90218 0.0
C2046 C 0.99511 0.11156 0.86713 0.0
C2047 C 0.95999 0.07403 0.88046 0.0
C2048 C 1.00122 0.14019 0.86257 0.0
C2049 C 0.97943 0.16015 0.86028 0.0
C2050 C 0.96699 0.103 0.8701 0.0
C2051 C 0.95156 0.15033 0.86054 0.0
C2052 C 0.93254 0.06721 0.88844 0.0
C2053 C 0.9755 0.02769 0.89422 0.0
N2054 N 0.94613 0.12254 0.86593 0.0
N2055 N 0.98058 0.0541 0.88383 0.0
H2056 H 0.2807 0.87239 0.33324 0.0
H2057 H 0.41415 0.77057 0.3186 0.0
H2058 H 0.27574 0.78554 0.30448 0.0
H2059 H 0.41455 0.84324 0.375 0.0
H2060 H 0.36605 0.78202 0.30279 0.0
H2061 H 0.33233 0.86799 0.33788 0.0
C2062 C 0.29057 0.85272 0.32707 0.0
C2063 C 0.27408 0.82927 0.31844 0.0
C2064 C 0.37675 0.79561 0.31843 0.0
C2065 C 0.3327 0.82404 0.32389 0.0
C2066 C 0.40431 0.78917 0.32742 0.0
C2067 C 0.41843 0.80581 0.3484 0.0
C2068 C 0.36311 0.81899 0.33031 0.0
C2069 C 0.4044 0.82962 0.35904 0.0
C2070 C 0.31992 0.85012 0.33002 0.0
C2071 C 0.28778 0.80407 0.31123 0.0
N2072 N 0.37744 0.83542 0.34999 0.0
N2073 N 0.31625 0.80209 0.31422 0.0
H2074 H 0.01822 0.49718 0.90434 0.0
H2075 H 0.06807 0.35426 0.83591 0.0
H2076 H 0.10638 0.47927 0.89421 0.0
H2077 H 0.99736 0.35406 0.89115 0.0
H2078 H 0.08019 0.40225 0.85232 0.0
H2079 H 0.00736 0.4469 0.89489 0.0
C2080 C 0.03526 0.4827 0.90015 0.0
C2081 C 0.06324 0.49245 0.89992 0.0
C2082 C 0.0622 0.39162 0.86111 0.0
C2083 C 0.05092 0.43524 0.88886 0.0
C2084 C 0.05529 0.36432 0.85176 0.0
C2085 C 0.03186 0.35026 0.8624 0.0
C2086 C 0.04505 0.40537 0.88061 0.0
C2087 C 0.01578 0.36418 0.88273 0.0
C2088 C 0.02907 0.45405 0.89499 0.0
C2089 C 0.08453 0.47271 0.89462 0.0
N2090 N 0.02242 0.39126 0.8909 0.0
N2091 N 0.0779 0.44517 0.88891 0.0
H2092 H 0.74613 0.281 0.14458 0.0
H2093 H 0.59567 0.34732 0.17082 0.0
H2094 H 0.73547 0.36142 0.18731 0.0
H2095 H 0.60876 0.27207 0.12026 0.0
H2096 H 0.64642 0.35562 0.17318 0.0
H2097 H 0.69602 0.2794 0.13324 0.0
C2098 C 0.73327 0.29842 0.15168 0.0
C2099 C 0.7452 0.3214 0.16712 0.0
C2100 C 0.6382 0.33754 0.1612 0.0
C2101 C 0.6872 0.31957 0.15392 0.0
C2102 C 0.60919 0.3328 0.15973 0.0
C2103 C 0.59797 0.30864 0.14574 0.0
C2104 C 0.6562 0.31786 0.1488 0.0
C2105 C 0.61646 0.29083 0.13146 0.0
C2106 C 0.70453 0.29751 0.14498 0.0
C2107 C 0.72723 0.34324 0.17553 0.0
N2108 N 0.64472 0.29555 0.13378 0.0
N2109 N 0.69906 0.34171 0.16895 0.0
H2110 H 0.52304 0.01978 0.08404 0.0
H2111 H 0.57235 0.15316 0.17471 0.0
H2112 H 0.60988 0.0301 0.11239 0.0
H2113 H 0.51167 0.16358 0.10486 0.0
H2114 H 0.58279 0.10542 0.15707 0.0
H2115 H 0.51459 0.06991 0.09585 0.0
C2116 C 0.54036 0.0326 0.09255 0.0
C2117 C 0.56726 0.02066 0.09712 0.0
C2118 C 0.56735 0.11823 0.14546 0.0
C2119 C 0.55749 0.0778 0.11135 0.0
C2120 C 0.56133 0.14543 0.15554 0.0
C2121 C 0.54128 0.1625 0.1411 0.0
C2122 C 0.55258 0.10746 0.12124 0.0
C2123 C 0.52753 0.15132 0.11642 0.0
C2124 C 0.53552 0.0612 0.0992 0.0
C2125 C 0.58888 0.03837 0.10828 0.0
N2126 N 0.53312 0.12434 0.10749 0.0
N2127 N 0.58344 0.06582 0.11541 0.0
H2128 H 0.29478 0.17516 0.20599 0.0
H2129 H 0.42126 0.18825 0.10008 0.0
H2130 H 0.28334 0.19628 0.11668 0.0
H2131 H 0.43058 0.22347 0.18525 0.0
H2132 H 0.37208 0.1775 0.1089 0.0
H2133 H 0.34632 0.18047 0.20145 0.0
C2134 C 0.30313 0.18068 0.18548 0.0
C2135 C 0.28489 0.18548 0.16171 0.0
C2136 C 0.38501 0.18732 0.12575 0.0
C2137 C 0.34316 0.19083 0.15628 0.0
C2138 C 0.41315 0.19338 0.12082 0.0
C2139 C 0.43013 0.20703 0.14189 0.0
C2140 C 0.37371 0.19445 0.1521 0.0
C2141 C 0.41822 0.21316 0.16833 0.0
C2142 C 0.33236 0.18381 0.18295 0.0
C2143 C 0.29665 0.19266 0.13559 0.0
N2144 N 0.39066 0.20683 0.17273 0.0
N2145 N 0.32499 0.19488 0.13353 0.0
H2146 H 0.49529 0.5044 0.10894 0.0
H2147 H 0.44256 0.34545 0.13794 0.0
H2148 H 0.40827 0.47839 0.09914 0.0
H2149 H 0.52981 0.36994 0.13581 0.0
H2150 H 0.42899 0.3954 0.13185 0.0
H2151 H 0.50765 0.45662 0.12476 0.0
C2152 C 0.47872 0.48864 0.10998 0.0
C2153 C 0.45064 0.49561 0.10244 0.0
C2154 C 0.45114 0.38999 0.1335 0.0
C2155 C 0.46478 0.44045 0.12109 0.0
C2156 C 0.45888 0.36154 0.13761 0.0
C2157 C 0.48738 0.35364 0.13816 0.0
C2158 C 0.47206 0.41069 0.12969 0.0
C2159 C 0.50764 0.37521 0.13624 0.0
C2160 C 0.48583 0.46129 0.11918 0.0
C2161 C 0.43022 0.47409 0.10445 0.0
N2162 N 0.49963 0.40262 0.13186 0.0
N2163 N 0.43767 0.44757 0.11356 0.0
H2164 H 0.31393 0.71978 0.72612 0.0
H2165 H 0.38585 0.58606 0.66265 0.0
H2166 H 0.34184 0.71926 0.63933 0.0
H2167 H 0.32485 0.58019 0.7288 0.0
H2168 H 0.36952 0.63433 0.65236 0.0
H2169 H 0.31692 0.66807 0.72687 0.0
C2170 C 0.32024 0.70866 0.70708 0.0
C2171 C 0.3278 0.72364 0.68272 0.0
C2172 C 0.35942 0.62218 0.66875 0.0
C2173 C 0.3319 0.66476 0.68357 0.0
C2174 C 0.36879 0.59471 0.67471 0.0
C2175 C 0.35706 0.57922 0.69695 0.0
C2176 C 0.33855 0.63426 0.68547 0.0
C2177 C 0.3348 0.5914 0.71169 0.0
C2178 C 0.32189 0.67921 0.70746 0.0
C2179 C 0.33578 0.70837 0.65852 0.0
N2180 N 0.32662 0.61836 0.70602 0.0
N2181 N 0.3382 0.67969 0.65974 0.0
H2182 H 0.97298 0.42786 0.60308 0.0
H2183 H 0.85081 0.35223 0.50813 0.0
H2184 H 0.98832 0.38976 0.52108 0.0
H2185 H 0.83988 0.38897 0.59142 0.0
H2186 H 0.90191 0.36024 0.514 0.0
H2187 H 0.92466 0.41091 0.59954 0.0
C2188 C 0.96614 0.41614 0.58411 0.0
C2189 C 0.98492 0.41036 0.56231 0.0
C2190 C 0.8884 0.36587 0.5313 0.0
C2191 C 0.92906 0.39032 0.55826 0.0
C2192 C 0.8593 0.36075 0.5282 0.0
C2193 C 0.84111 0.36981 0.54943 0.0
C2194 C 0.89925 0.38015 0.55578 0.0
C2195 C 0.85316 0.38152 0.57462 0.0
C2196 C 0.93845 0.40622 0.58221 0.0
C2197 C 0.9746 0.39497 0.53831 0.0
N2198 N 0.88131 0.38669 0.57691 0.0
N2199 N 0.94737 0.38545 0.53693 0.0
H2200 H 0.71006 0.78033 0.71059 0.0
H2201 H 0.63737 0.92233 0.65747 0.0
H2202 H 0.6736 0.78619 0.62507 0.0
H2203 H 0.6443 0.89744 0.74595 0.0
H2204 H 0.65098 0.87435 0.64328 0.0
H2205 H 0.69091 0.82686 0.72159 0.0
C2206 C 0.69879 0.79192 0.6938 0.0
C2207 C 0.69357 0.77947 0.66683 0.0
C2208 C 0.64872 0.87913 0.66575 0.0
C2209 C 0.67061 0.83239 0.67962 0.0
C2210 C 0.64044 0.90632 0.67385 0.0
C2211 C 0.63945 0.91372 0.70293 0.0
C2212 C 0.65671 0.8595 0.68696 0.0
C2213 C 0.64438 0.89248 0.72332 0.0
C2214 C 0.68734 0.81819 0.70029 0.0
C2215 C 0.67849 0.79522 0.64598 0.0
N2216 N 0.65346 0.8665 0.71498 0.0
N2217 N 0.66731 0.82087 0.65288 0.0
H2218 H 0.014 0.09939 0.5198 0.0
H2219 H 0.17093 0.1438 0.56949 0.0
H2220 H 0.03785 0.11303 0.60869 0.0
H2221 H 0.14142 0.13593 0.48179 0.0
H2222 H 0.12238 0.13716 0.58491 0.0
H2223 H 0.06053 0.11456 0.50642 0.0
C2224 C 0.02911 0.10539 0.53667 0.0
C2225 C 0.02172 0.10484 0.56554 0.0
C2226 C 0.12635 0.13773 0.56226 0.0
C2227 C 0.07583 0.12276 0.55002 0.0
C2228 C 0.15399 0.14215 0.55342 0.0
C2229 C 0.16013 0.14126 0.52424 0.0
C2230 C 0.10471 0.13192 0.54175 0.0
C2231 C 0.13756 0.1376 0.50442 0.0
C2232 C 0.0558 0.11428 0.5289 0.0
C2233 C 0.04254 0.11285 0.58621 0.0
N2234 N 0.11104 0.13276 0.51351 0.0
N2235 N 0.06862 0.1215 0.57806 0.0
H2236 H 0.33171 0.28074 0.77137 0.0
H2237 H 0.3671 0.42382 0.84714 0.0
H2238 H 0.339 0.28502 0.86365 0.0
H2239 H 0.3935 0.4039 0.76214 0.0
H2240 H 0.36033 0.37332 0.85616 0.0
H2241 H 0.35365 0.32713 0.76873 0.0
C2242 C 0.33761 0.29162 0.79114 0.0
C2243 C 0.33356 0.27895 0.81779 0.0
C2244 C 0.36848 0.37991 0.83588 0.0
C2245 C 0.35919 0.33199 0.81484 0.0
C2246 C 0.37259 0.40865 0.83081 0.0
C2247 C 0.38008 0.41784 0.80359 0.0
C2248 C 0.37147 0.36063 0.81335 0.0
C2249 C 0.38727 0.39758 0.78325 0.0
C2250 C 0.35058 0.31791 0.78958 0.0
C2251 C 0.34153 0.29412 0.84267 0.0
N2252 N 0.38189 0.36981 0.78821 0.0
N2253 N 0.35396 0.32001 0.8406 0.0
H2254 H 0.51701 0.41876 0.48408 0.0
H2255 H 0.65197 0.33829 0.43261 0.0
H2256 H 0.52807 0.40019 0.39478 0.0
H2257 H 0.6585 0.39885 0.50186 0.0
H2258 H 0.60429 0.3557 0.42076 0.0
H2259 H 0.56679 0.4065 0.49399 0.0
C2260 C 0.52989 0.41224 0.46658 0.0
C2261 C 0.51836 0.41061 0.43856 0.0
C2262 C 0.61631 0.36533 0.43837 0.0
C2263 C 0.57495 0.39601 0.44983 0.0
C2264 C 0.64349 0.35541 0.44514 0.0
C2265 C 0.65931 0.36722 0.46816 0.0
C2266 C 0.60452 0.38662 0.45525 0.0
C2267 C 0.64717 0.38932 0.48376 0.0
C2268 C 0.55826 0.40535 0.47223 0.0
C2269 C 0.53607 0.40198 0.41669 0.0
N2270 N 0.62035 0.39801 0.47731 0.0
N2271 N 0.56331 0.39467 0.42283 0.0
H2272 H 0.69849 0.22978 0.78173 0.0
H2273 H 0.6324 0.08864 0.83962 0.0
H2274 H 0.68174 0.21944 0.87106 0.0
H2275 H 0.68187 0.08994 0.76396 0.0
H2276 H 0.64943 0.13646 0.85159 0.0
H2277 H 0.69253 0.17865 0.77465 0.0
C2278 C 0.69419 0.21656 0.79999 0.0
C2279 C 0.69081 0.22874 0.82704 0.0
C2280 C 0.65679 0.12613 0.83256 0.0
C2281 C 0.68292 0.17036 0.81893 0.0
C2282 C 0.64696 0.09888 0.8256 0.0
C2283 C 0.65548 0.08528 0.80057 0.0
C2284 C 0.67488 0.14015 0.81411 0.0
C2285 C 0.6746 0.09957 0.78339 0.0
C2286 C 0.6907 0.18741 0.79594 0.0
C2287 C 0.68489 0.21078 0.84994 0.0
N2288 N 0.68332 0.12633 0.79025 0.0
N2289 N 0.68059 0.18251 0.84527 0.0
H2290 H 0.48382 0.07216 0.47121 0.0
H2291 H 0.35782 0.17733 0.43949 0.0
H2292 H 0.47759 0.12 0.39286 0.0
H2293 H 0.34431 0.10033 0.48657 0.0
H2294 H 0.4037 0.15937 0.42567 0.0
H2295 H 0.4346 0.08404 0.48039 0.0
C2296 C 0.47196 0.08483 0.45573 0.0
C2297 C 0.48485 0.09499 0.43114 0.0
C2298 C 0.39063 0.1463 0.43886 0.0
C2299 C 0.42874 0.10937 0.44202 0.0
C2300 C 0.36449 0.1566 0.44695 0.0
C2301 C 0.34706 0.14034 0.46427 0.0
C2302 C 0.4 0.11976 0.44872 0.0
C2303 C 0.35685 0.11353 0.47307 0.0
C2304 C 0.44388 0.09159 0.461 0.0
C2305 C 0.46848 0.11147 0.41192 0.0
N2306 N 0.38282 0.10425 0.46555 0.0
N2307 N 0.44149 0.11854 0.418 0.0
H2308 H 0.66773 0.28327 0.72249 0.0
H2309 H 0.7236 0.39791 0.6132 0.0
H2310 H 0.67163 0.37283 0.74075 0.0
H2311 H 0.7145 0.30852 0.59523 0.0
H2312 H 0.69629 0.39116 0.65664 0.0
H2313 H 0.67543 0.29366 0.67196 0.0
C2314 C 0.66933 0.30511 0.71561 0.0
C2315 C 0.66944 0.3272 0.73555 0.0
C2316 C 0.7 0.37314 0.6429 0.0
C2317 C 0.67913 0.33935 0.67845 0.0
C2318 C 0.71558 0.37706 0.61825 0.0
C2319 C 0.72199 0.35359 0.60135 0.0
C2320 C 0.6908 0.34567 0.65019 0.0
C2321 C 0.71077 0.32702 0.60835 0.0
C2322 C 0.67399 0.31113 0.68689 0.0
C2323 C 0.67182 0.35523 0.72582 0.0
N2324 N 0.69605 0.32373 0.63234 0.0
N2325 N 0.67711 0.36051 0.69804 0.0
H2326 H 0.65416 0.69356 0.76789 0.0
H2327 H 0.74534 0.62159 0.895 0.0
H2328 H 0.74006 0.6652 0.76057 0.0
H2329 H 0.6638 0.65953 0.90574 0.0
H2330 H 0.7399 0.62928 0.84339 0.0
H2331 H 0.65494 0.67633 0.81711 0.0
C2332 C 0.67332 0.68412 0.77673 0.0
C2333 C 0.6971 0.68091 0.76004 0.0
C2334 C 0.72296 0.63543 0.85699 0.0
C2335 C 0.69786 0.66045 0.81611 0.0
C2336 C 0.72586 0.63059 0.8864 0.0
C2337 C 0.7052 0.64043 0.90463 0.0
C2338 C 0.69923 0.65008 0.84597 0.0
C2339 C 0.68042 0.65206 0.89238 0.0
C2340 C 0.67363 0.67395 0.80473 0.0
C2341 C 0.72122 0.66818 0.77261 0.0
N2342 N 0.67833 0.65705 0.86384 0.0
N2343 N 0.72094 0.65833 0.79983 0.0
H2344 H 0.91592 0.01695 0.49655 0.0
H2345 H 0.86844 0.07082 0.34014 0.0
H2346 H 0.91347 0.10502 0.47165 0.0
H2347 H 0.88233 0.98307 0.36117 0.0
H2348 H 0.87558 0.08327 0.39081 0.0
H2349 H 0.89737 0.00382 0.44892 0.0
C2350 C 0.9118 0.03352 0.48099 0.0
C2351 C 0.91654 0.06213 0.48811 0.0
C2352 C 0.87628 0.06118 0.38451 0.0
C2353 C 0.89461 0.04725 0.43367 0.0
C2354 C 0.87157 0.05405 0.3557 0.0
C2355 C 0.87438 0.02588 0.34672 0.0
C2356 C 0.88411 0.03995 0.40426 0.0
C2357 C 0.87953 0.00498 0.36747 0.0
C2358 C 0.90095 0.02601 0.45386 0.0
C2359 C 0.91053 0.08267 0.46708 0.0
N2360 N 0.88465 0.01246 0.39525 0.0
N2361 N 0.89983 0.07483 0.44087 0.0
H2362 H 0.28409 0.78855 0.77824 0.0
H2363 H 0.29098 0.89668 0.90266 0.0
H2364 H 0.36035 0.83638 0.79517 0.0
H2365 H 0.25614 0.81401 0.91863 0.0
H2366 H 0.31225 0.87787 0.85939 0.0
H2367 H 0.26951 0.79883 0.82712 0.0
C2368 C 0.2981 0.80044 0.79264 0.0
C2369 C 0.32358 0.8113 0.78311 0.0
C2370 C 0.30012 0.86385 0.87255 0.0
C2371 C 0.30652 0.8243 0.8379 0.0
C2372 C 0.28779 0.8746 0.89692 0.0
C2373 C 0.27192 0.85674 0.914 0.0
C2374 C 0.29576 0.83534 0.8649 0.0
C2375 C 0.26848 0.82825 0.90598 0.0
C2376 C 0.28975 0.8064 0.82032 0.0
C2377 C 0.34079 0.82724 0.8021 0.0
N2378 N 0.27997 0.81843 0.88165 0.0
N2379 N 0.33163 0.83385 0.82849 0.0
H2380 H 0.57159 0.91768 0.96767 0.0
H2381 H 0.67807 0.00273 0.87196 0.0
H2382 H 0.62267 0.98727 0.00023 0.0
H2383 H 0.60571 0.9591 0.83452 0.0
H2384 H 0.65982 0.99449 0.91947 0.0
H2385 H 0.58505 0.9299 0.91897 0.0
C2386 C 0.5854 0.93566 0.96462 0.0
C2387 C 0.59602 0.95139 0.98823 0.0
C2388 C 0.64782 0.98687 0.90087 0.0
C2389 C 0.61189 0.96515 0.93256 0.0
C2390 C 0.65829 0.99147 0.8737 0.0
C2391 C 0.64345 0.98157 0.84914 0.0
C2392 C 0.62254 0.97174 0.90371 0.0
C2393 C 0.61782 0.96722 0.85283 0.0
C2394 C 0.59305 0.94262 0.9368 0.0
C2395 C 0.61386 0.97449 0.98283 0.0
N2396 N 0.60833 0.96246 0.87958 0.0
N2397 N 0.62146 0.98042 0.95572 0.0
H2398 H 0.83234 0.721 0.21274 0.0
H2399 H 0.81262 0.60853 0.09173 0.0
H2400 H 0.77945 0.64738 0.223 0.0
H2401 H 0.79601 0.69557 0.06857 0.0
H2402 H 0.81498 0.62258 0.14213 0.0
H2403 H 0.83061 0.71276 0.16065 0.0
C2404 C 0.81997 0.70349 0.20395 0.0
C2405 C 0.80596 0.68484 0.22199 0.0
C2406 C 0.8112 0.63858 0.12586 0.0
C2407 C 0.80499 0.67485 0.16344 0.0
C2408 C 0.81021 0.63071 0.0972 0.0
C2409 C 0.80395 0.65097 0.0761 0.0
C2410 C 0.80655 0.66692 0.1333 0.0
C2411 C 0.80064 0.67938 0.08435 0.0
C2412 C 0.81912 0.69881 0.17446 0.0
C2413 C 0.79035 0.66235 0.20976 0.0
N2414 N 0.80199 0.68664 0.1125 0.0
N2415 N 0.79076 0.65762 0.18121 0.0
H2416 H 0.93466 0.91109 0.03199 0.0
H2417 H 0.83871 0.00288 0.13278 0.0
H2418 H 0.89399 0.98849 0.00424 0.0
H2419 H 0.90648 0.95183 0.16831 0.0
H2420 H 0.85613 0.99448 0.08492 0.0
H2421 H 0.92259 0.92233 0.08151 0.0
C2422 C 0.92346 0.93054 0.03626 0.0
C2423 C 0.91536 0.94881 0.01371 0.0
C2424 C 0.86732 0.98522 0.10317 0.0
C2425 C 0.90099 0.96148 0.07032 0.0
C2426 C 0.85731 0.98993 0.13055 0.0
C2427 C 0.87109 0.97801 0.1547 0.0
C2428 C 0.891 0.96793 0.0996 0.0
C2429 C 0.89523 0.96152 0.15034 0.0
C2430 C 0.9166 0.93693 0.06455 0.0
C2431 C 0.90081 0.97371 0.02073 0.0
N2432 N 0.90422 0.95667 0.12333 0.0
N2433 N 0.89383 0.97907 0.0482 0.0
H2434 H 0.08746 0.59458 0.03261 0.0
H2435 H 0.12961 0.47463 0.1422 0.0
H2436 H 0.10045 0.50846 0.00434 0.0
H2437 H 0.1454 0.56321 0.15856 0.0
H2438 H 0.12144 0.48513 0.09133 0.0
H2439 H 0.10777 0.58232 0.07934 0.0
C2440 C 0.09416 0.57292 0.0363 0.0
C2441 C 0.09201 0.55245 0.01443 0.0
C2442 C 0.12763 0.50216 0.10583 0.0
C2443 C 0.1159 0.53843 0.06811 0.0
C2444 C 0.13275 0.4961 0.13474 0.0
C2445 C 0.13851 0.51809 0.15435 0.0
C2446 C 0.12754 0.53051 0.0968 0.0
C2447 C 0.14145 0.54567 0.14395 0.0
C2448 C 0.10622 0.56607 0.06294 0.0
C2449 C 0.10152 0.52487 0.02058 0.0
N2450 N 0.13528 0.55123 0.11593 0.0
N2451 N 0.11293 0.5186 0.04693 0.0
loop_
_geom_bond_atom_site_label_1
_geom_bond_atom_site_label_2
_geom_bond_distance
_geom_bond_site_symmetry_2
_ccdc_geom_bond_type
Fe0 O2 1.918 . S
Fe0 O5 1.997 . S
Fe0 O6 2.002 . S
Fe0 O11 1.976 . S
Fe0 O14 1.996 . S
Fe1 O2 1.918 . S
Fe1 O9 1.997 . S
Fe1 O12 1.996 . S
Fe1 O16 1.976 . S
Fe1 O19 2.002 . S
O2 Fe0 1.918 . S
O2 Fe1 1.918 . S
O2 Fe3 1.918 . S
Fe3 O2 1.918 . S
Fe3 O4 2.002 . S
Fe3 O13 1.976 . S
Fe3 O17 1.996 . S
Fe3 O20 1.997 . S
O4 Fe3 2.002 . S
O4 C21 1.295 . S
O5 Fe0 1.997 . S
O5 C21 1.235 . S
O6 Fe0 2.002 . S
O6 C7 1.295 . S
C7 O6 1.295 . S
C7 O9 1.235 . S
C8 O13 1.287 . S
C8 O14 1.255 . S
O9 Fe1 1.997 . S
O9 C7 1.235 . S
C10 O16 1.287 . S
C10 O17 1.255 . S
O11 Fe0 1.976 . S
O11 C18 1.287 . S
O12 Fe1 1.996 . S
O12 C18 1.255 . S
O13 Fe3 1.976 . S
O13 C8 1.287 . S
O14 Fe0 1.996 . S
O14 C8 1.255 . S
C15 O19 1.295 . S
C15 O20 1.235 . S
O16 Fe1 1.976 . S
O16 C10 1.287 . S
O17 Fe3 1.996 . S
O17 C10 1.255 . S
C18 O11 1.287 . S
C18 O12 1.255 . S
O19 Fe1 2.002 . S
O19 C15 1.295 . S
O20 Fe3 1.997 . S
O20 C15 1.235 . S
C21 O4 1.295 . S
C21 O5 1.235 . S
Fe22 O24 1.918 . S
Fe22 O27 1.997 . S
Fe22 O28 2.002 . S
Fe22 O33 1.976 . S
Fe22 O36 1.996 . S
Fe23 O24 1.918 . S
Fe23 O31 1.997 . S
Fe23 O34 1.996 . S
Fe23 O38 1.976 . S
Fe23 O41 2.002 . S
O24 Fe22 1.918 . S
O24 Fe23 1.918 . S
O24 Fe25 1.918 . S
Fe25 O24 1.918 . S
Fe25 O26 2.002 . S
Fe25 O35 1.976 . S
Fe25 O39 1.996 . S
Fe25 O42 1.997 . S
O26 Fe25 2.002 . S
O26 C43 1.295 . S
O27 Fe22 1.997 . S
O27 C43 1.235 . S
O28 Fe22 2.002 . S
O28 C29 1.295 . S
C29 O28 1.295 . S
C29 O31 1.235 . S
C30 O35 1.287 . S
C30 O36 1.255 . S
O31 Fe23 1.997 . S
O31 C29 1.235 . S
C32 O38 1.287 . S
C32 O39 1.255 . S
O33 Fe22 1.976 . S
O33 C40 1.287 . S
O34 Fe23 1.996 . S
O34 C40 1.255 . S
O35 Fe25 1.976 . S
O35 C30 1.287 . S
O36 Fe22 1.996 . S
O36 C30 1.255 . S
C37 O41 1.295 . S
C37 O42 1.235 . S
O38 Fe23 1.976 . S
O38 C32 1.287 . S
O39 Fe25 1.996 . S
O39 C32 1.255 . S
C40 O33 1.287 . S
C40 O34 1.255 . S
O41 Fe23 2.002 . S
O41 C37 1.295 . S
O42 Fe25 1.997 . S
O42 C37 1.235 . S
C43 O26 1.295 . S
C43 O27 1.235 . S
Fe44 O46 1.918 . S
Fe44 O49 1.997 . S
Fe44 O50 2.002 . S
Fe44 O55 1.976 . S
Fe44 O58 1.996 . S
Fe45 O46 1.918 . S
Fe45 O53 1.997 . S
Fe45 O56 1.996 . S
Fe45 O60 1.976 . S
Fe45 O63 2.002 . S
O46 Fe44 1.918 . S
O46 Fe45 1.918 . S
O46 Fe47 1.918 . S
Fe47 O46 1.918 . S
Fe47 O48 2.002 . S
Fe47 O57 1.976 . S
Fe47 O61 1.996 . S
Fe47 O64 1.997 . S
O48 Fe47 2.002 . S
O48 C65 1.295 . S
O49 Fe44 1.997 . S
O49 C65 1.235 . S
O50 Fe44 2.002 . S
O50 C51 1.295 . S
C51 O50 1.295 . S
C51 O53 1.235 . S
C52 O57 1.287 . S
C52 O58 1.255 . S
O53 Fe45 1.997 . S
O53 C51 1.235 . S
C54 O60 1.287 . S
C54 O61 1.255 . S
O55 Fe44 1.976 . S
O55 C62 1.287 . S
O56 Fe45 1.996 . S
O56 C62 1.255 . S
O57 Fe47 1.976 . S
O57 C52 1.287 . S
O58 Fe44 1.996 . S
O58 C52 1.255 . S
C59 O63 1.295 . S
C59 O64 1.235 . S
O60 Fe45 1.976 . S
O60 C54 1.287 . S
O61 Fe47 1.996 . S
O61 C54 1.255 . S
C62 O55 1.287 . S
C62 O56 1.255 . S
O63 Fe45 2.002 . S
O63 C59 1.295 . S
O64 Fe47 1.997 . S
O64 C59 1.235 . S
C65 O48 1.295 . S
C65 O49 1.235 . S
Fe66 O68 1.918 . S
Fe66 O71 1.997 . S
Fe66 O72 2.002 . S
Fe66 O77 1.976 . S
Fe66 O80 1.996 . S
Fe67 O68 1.918 . S
Fe67 O75 1.997 . S
Fe67 O78 1.996 . S
Fe67 O82 1.976 . S
Fe67 O85 2.002 . S
O68 Fe66 1.918 . S
O68 Fe67 1.918 . S
O68 Fe69 1.918 . S
Fe69 O68 1.918 . S
Fe69 O70 2.002 . S
Fe69 O79 1.976 . S
Fe69 O83 1.996 . S
Fe69 O86 1.997 . S
O70 Fe69 2.002 . S
O70 C87 1.295 . S
O71 Fe66 1.997 . S
O71 C87 1.235 . S
O72 Fe66 2.002 . S
O72 C73 1.295 . S
C73 O72 1.295 . S
C73 O75 1.235 . S
C74 O79 1.287 . S
C74 O80 1.255 . S
O75 Fe67 1.997 . S
O75 C73 1.235 . S
C76 O82 1.287 . S
C76 O83 1.255 . S
O77 Fe66 1.976 . S
O77 C84 1.287 . S
O78 Fe67 1.996 . S
O78 C84 1.255 . S
O79 Fe69 1.976 . S
O79 C74 1.287 . S
O80 Fe66 1.996 . S
O80 C74 1.255 . S
C81 O85 1.295 . S
C81 O86 1.235 . S
O82 Fe67 1.976 . S
O82 C76 1.287 . S
O83 Fe69 1.996 . S
O83 C76 1.255 . S
C84 O77 1.287 . S
C84 O78 1.255 . S
O85 Fe67 2.002 . S
O85 C81 1.295 . S
O86 Fe69 1.997 . S
O86 C81 1.235 . S
C87 O70 1.295 . S
C87 O71 1.235 . S
Fe88 O90 1.918 . S
Fe88 O93 1.997 . S
Fe88 O94 2.002 . S
Fe88 O99 1.976 . S
Fe88 O102 1.996 . S
Fe89 O90 1.918 . S
Fe89 O97 1.997 . S
Fe89 O100 1.996 . S
Fe89 O104 1.976 . S
Fe89 O107 2.002 . S
O90 Fe88 1.918 . S
O90 Fe89 1.918 . S
O90 Fe91 1.918 . S
Fe91 O90 1.918 . S
Fe91 O92 2.002 . S
Fe91 O101 1.976 . S
Fe91 O105 1.996 . S
Fe91 O108 1.997 . S
O92 Fe91 2.002 . S
O92 C109 1.295 . S
O93 Fe88 1.997 . S
O93 C109 1.235 . S
O94 Fe88 2.002 . S
O94 C95 1.295 . S
C95 O94 1.295 . S
C95 O97 1.235 . S
C96 O101 1.287 . S
C96 O102 1.255 . S
O97 Fe89 1.997 . S
O97 C95 1.235 . S
C98 O104 1.287 . S
C98 O105 1.255 . S
O99 Fe88 1.976 . S
O99 C106 1.287 . S
O100 Fe89 1.996 . S
O100 C106 1.255 . S
O101 Fe91 1.976 . S
O101 C96 1.287 . S
O102 Fe88 1.996 . S
O102 C96 1.255 . S
C103 O107 1.295 . S
C103 O108 1.235 . S
O104 Fe89 1.976 . S
O104 C98 1.287 . S
O105 Fe91 1.996 . S
O105 C98 1.255 . S
C106 O99 1.287 . S
C106 O100 1.255 . S
O107 Fe89 2.002 . S
O107 C103 1.295 . S
O108 Fe91 1.997 . S
O108 C103 1.235 . S
C109 O92 1.295 . S
C109 O93 1.235 . S
Fe110 O112 1.918 . S
Fe110 O115 1.997 . S
Fe110 O116 2.002 . S
Fe110 O121 1.976 . S
Fe110 O124 1.996 . S
Fe111 O112 1.918 . S
Fe111 O119 1.997 . S
Fe111 O122 1.996 . S
Fe111 O126 1.976 . S
Fe111 O129 2.002 . S
O112 Fe110 1.918 . S
O112 Fe111 1.918 . S
O112 Fe113 1.918 . S
Fe113 O112 1.918 . S
Fe113 O114 2.002 . S
Fe113 O123 1.976 . S
Fe113 O127 1.996 . S
Fe113 O130 1.997 . S
O114 Fe113 2.002 . S
O114 C131 1.295 . S
O115 Fe110 1.997 . S
O115 C131 1.235 . S
O116 Fe110 2.002 . S
O116 C117 1.295 . S
C117 O116 1.295 . S
C117 O119 1.235 . S
C118 O123 1.287 1_554 S
C118 O124 1.255 1_554 S
O119 Fe111 1.997 . S
O119 C117 1.235 . S
C120 O126 1.287 . S
C120 O127 1.255 . S
O121 Fe110 1.976 . S
O121 C128 1.287 . S
O122 Fe111 1.996 . S
O122 C128 1.255 . S
O123 Fe113 1.976 . S
O123 C118 1.287 1_556 S
O124 Fe110 1.996 . S
O124 C118 1.255 1_556 S
C125 O129 1.295 . S
C125 O130 1.235 . S
O126 Fe111 1.976 . S
O126 C120 1.287 . S
O127 Fe113 1.996 . S
O127 C120 1.255 . S
C128 O121 1.287 . S
C128 O122 1.255 . S
O129 Fe111 2.002 . S
O129 C125 1.295 . S
O130 Fe113 1.997 . S
O130 C125 1.235 . S
C131 O114 1.295 . S
C131 O115 1.235 . S
Fe132 O134 1.918 . S
Fe132 O137 1.997 . S
Fe132 O138 2.002 . S
Fe132 O143 1.976 . S
Fe132 O146 1.996 . S
Fe133 O134 1.918 . S
Fe133 O141 1.997 . S
Fe133 O144 1.996 . S
Fe133 O148 1.976 . S
Fe133 O151 2.002 . S
O134 Fe132 1.918 . S
O134 Fe133 1.918 . S
O134 Fe135 1.918 . S
Fe135 O134 1.918 . S
Fe135 O136 2.002 . S
Fe135 O145 1.976 . S
Fe135 O149 1.996 . S
Fe135 O152 1.997 . S
O136 Fe135 2.002 . S
O136 C153 1.295 . S
O137 Fe132 1.997 . S
O137 C153 1.235 . S
O138 Fe132 2.002 . S
O138 C139 1.295 . S
C139 O138 1.295 . S
C139 O141 1.235 . S
C140 O145 1.287 . S
C140 O146 1.255 . S
O141 Fe133 1.997 . S
O141 C139 1.235 . S
C142 O148 1.287 . S
C142 O149 1.255 . S
O143 Fe132 1.976 . S
O143 C150 1.287 . S
O144 Fe133 1.996 . S
O144 C150 1.255 . S
O145 Fe135 1.976 . S
O145 C140 1.287 . S
O146 Fe132 1.996 . S
O146 C140 1.255 . S
C147 O151 1.295 . S
C147 O152 1.235 . S
O148 Fe133 1.976 . S
O148 C142 1.287 . S
O149 Fe135 1.996 . S
O149 C142 1.255 . S
C150 O143 1.287 . S
C150 O144 1.255 . S
O151 Fe133 2.002 . S
O151 C147 1.295 . S
O152 Fe135 1.997 . S
O152 C147 1.235 . S
C153 O136 1.295 . S
C153 O137 1.235 . S
Fe154 O156 1.918 . S
Fe154 O159 1.997 . S
Fe154 O160 2.002 . S
Fe154 O165 1.976 . S
Fe154 O168 1.996 . S
Fe155 O156 1.918 . S
Fe155 O163 1.997 . S
Fe155 O166 1.996 . S
Fe155 O170 1.976 . S
Fe155 O173 2.002 . S
O156 Fe154 1.918 . S
O156 Fe155 1.918 . S
O156 Fe157 1.918 . S
Fe157 O156 1.918 . S
Fe157 O158 2.002 . S
Fe157 O167 1.976 . S
Fe157 O171 1.996 . S
Fe157 O174 1.997 . S
O158 Fe157 2.002 . S
O158 C175 1.295 . S
O159 Fe154 1.997 . S
O159 C175 1.235 . S
O160 Fe154 2.002 . S
O160 C161 1.295 . S
C161 O160 1.295 . S
C161 O163 1.235 . S
C162 O167 1.287 . S
C162 O168 1.255 . S
O163 Fe155 1.997 . S
O163 C161 1.235 . S
C164 O170 1.287 . S
C164 O171 1.255 . S
O165 Fe154 1.976 . S
O165 C172 1.287 . S
O166 Fe155 1.996 . S
O166 C172 1.255 . S
O167 Fe157 1.976 . S
O167 C162 1.287 . S
O168 Fe154 1.996 . S
O168 C162 1.255 . S
C169 O173 1.295 . S
C169 O174 1.235 . S
O170 Fe155 1.976 . S
O170 C164 1.287 . S
O171 Fe157 1.996 . S
O171 C164 1.255 . S
C172 O165 1.287 . S
C172 O166 1.255 . S
O173 Fe155 2.002 . S
O173 C169 1.295 . S
O174 Fe157 1.997 . S
O174 C169 1.235 . S
C175 O158 1.295 . S
C175 O159 1.235 . S
Fe176 O178 1.918 . S
Fe176 O181 1.997 . S
Fe176 O182 2.002 . S
Fe176 O187 1.976 . S
Fe176 O190 1.996 . S
Fe177 O178 1.918 . S
Fe177 O185 1.997 . S
Fe177 O188 1.996 . S
Fe177 O192 1.976 . S
Fe177 O195 2.002 . S
O178 Fe176 1.918 . S
O178 Fe177 1.918 . S
O178 Fe179 1.918 . S
Fe179 O178 1.918 . S
Fe179 O180 2.002 . S
Fe179 O189 1.976 . S
Fe179 O193 1.996 . S
Fe179 O196 1.997 . S
O180 Fe179 2.002 . S
O180 C197 1.295 . S
O181 Fe176 1.997 . S
O181 C197 1.235 . S
O182 Fe176 2.002 . S
O182 C183 1.295 . S
C183 O182 1.295 . S
C183 O185 1.235 . S
C184 O189 1.287 . S
C184 O190 1.255 . S
O185 Fe177 1.997 . S
O185 C183 1.235 . S
C186 O192 1.287 . S
C186 O193 1.255 . S
O187 Fe176 1.976 . S
O187 C194 1.287 . S
O188 Fe177 1.996 . S
O188 C194 1.255 . S
O189 Fe179 1.976 . S
O189 C184 1.287 . S
O190 Fe176 1.996 . S
O190 C184 1.255 . S
C191 O195 1.295 . S
C191 O196 1.235 . S
O192 Fe177 1.976 . S
O192 C186 1.287 . S
O193 Fe179 1.996 . S
O193 C186 1.255 . S
C194 O187 1.287 . S
C194 O188 1.255 . S
O195 Fe177 2.002 . S
O195 C191 1.295 . S
O196 Fe179 1.997 . S
O196 C191 1.235 . S
C197 O180 1.295 . S
C197 O181 1.235 . S
Fe198 O200 1.918 . S
Fe198 O203 1.997 . S
Fe198 O204 2.002 . S
Fe198 O209 1.976 . S
Fe198 O212 1.996 . S
Fe199 O200 1.918 . S
Fe199 O207 1.997 . S
Fe199 O210 1.996 . S
Fe199 O214 1.976 . S
Fe199 O217 2.002 . S
O200 Fe198 1.918 . S
O200 Fe199 1.918 . S
O200 Fe201 1.918 . S
Fe201 O200 1.918 . S
Fe201 O202 2.002 . S
Fe201 O211 1.976 . S
Fe201 O215 1.996 . S
Fe201 O218 1.997 . S
O202 Fe201 2.002 . S
O202 C219 1.295 . S
O203 Fe198 1.997 . S
O203 C219 1.235 . S
O204 Fe198 2.002 . S
O204 C205 1.295 . S
C205 O204 1.295 . S
C205 O207 1.235 . S
C206 O211 1.287 . S
C206 O212 1.255 . S
O207 Fe199 1.997 . S
O207 C205 1.235 . S
C208 O214 1.287 . S
C208 O215 1.255 . S
O209 Fe198 1.976 . S
O209 C216 1.287 . S
O210 Fe199 1.996 . S
O210 C216 1.255 . S
O211 Fe201 1.976 . S
O211 C206 1.287 . S
O212 Fe198 1.996 . S
O212 C206 1.255 . S
C213 O217 1.295 . S
C213 O218 1.235 . S
O214 Fe199 1.976 . S
O214 C208 1.287 . S
O215 Fe201 1.996 . S
O215 C208 1.255 . S
C216 O209 1.287 . S
C216 O210 1.255 . S
O217 Fe199 2.002 . S
O217 C213 1.295 . S
O218 Fe201 1.997 . S
O218 C213 1.235 . S
C219 O202 1.295 . S
C219 O203 1.235 . S
Fe220 O222 1.918 . S
Fe220 O225 1.997 . S
Fe220 O226 2.002 . S
Fe220 O231 1.976 . S
Fe220 O234 1.996 . S
Fe221 O222 1.918 . S
Fe221 O229 1.997 . S
Fe221 O232 1.996 . S
Fe221 O236 1.976 . S
Fe221 O239 2.002 . S
O222 Fe220 1.918 . S
O222 Fe221 1.918 . S
O222 Fe223 1.918 . S
Fe223 O222 1.918 . S
Fe223 O224 2.002 . S
Fe223 O233 1.976 . S
Fe223 O237 1.996 . S
Fe223 O240 1.997 . S
O224 Fe223 2.002 . S
O224 C241 1.295 . S
O225 Fe220 1.997 . S
O225 C241 1.235 . S
O226 Fe220 2.002 . S
O226 C227 1.295 . S
C227 O226 1.295 . S
C227 O229 1.235 . S
C228 O233 1.287 . S
C228 O234 1.255 . S
O229 Fe221 1.997 . S
O229 C227 1.235 . S
C230 O236 1.287 . S
C230 O237 1.255 . S
O231 Fe220 1.976 . S
O231 C238 1.287 . S
O232 Fe221 1.996 . S
O232 C238 1.255 . S
O233 Fe223 1.976 . S
O233 C228 1.287 . S
O234 Fe220 1.996 . S
O234 C228 1.255 . S
C235 O239 1.295 . S
C235 O240 1.235 . S
O236 Fe221 1.976 . S
O236 C230 1.287 . S
O237 Fe223 1.996 . S
O237 C230 1.255 . S
C238 O231 1.287 . S
C238 O232 1.255 . S
O239 Fe221 2.002 . S
O239 C235 1.295 . S
O240 Fe223 1.997 . S
O240 C235 1.235 . S
C241 O224 1.295 . S
C241 O225 1.235 . S
Fe242 O244 1.918 . S
Fe242 O247 1.997 . S
Fe242 O248 2.002 . S
Fe242 O253 1.976 . S
Fe242 O256 1.996 . S
Fe243 O244 1.918 . S
Fe243 O251 1.997 . S
Fe243 O254 1.996 . S
Fe243 O258 1.976 . S
Fe243 O261 2.002 . S
O244 Fe242 1.918 . S
O244 Fe243 1.918 . S
O244 Fe245 1.918 . S
Fe245 O244 1.918 . S
Fe245 O246 2.002 . S
Fe245 O255 1.976 . S
Fe245 O259 1.996 . S
Fe245 O262 1.997 . S
O246 Fe245 2.002 . S
O246 C263 1.295 . S
O247 Fe242 1.997 . S
O247 C263 1.235 . S
O248 Fe242 2.002 . S
O248 C249 1.295 . S
C249 O248 1.295 . S
C249 O251 1.235 . S
C250 O255 1.287 . S
C250 O256 1.255 . S
O251 Fe243 1.997 . S
O251 C249 1.235 . S
C252 O258 1.287 . S
C252 O259 1.255 . S
O253 Fe242 1.976 . S
O253 C260 1.287 . S
O254 Fe243 1.996 . S
O254 C260 1.255 . S
O255 Fe245 1.976 . S
O255 C250 1.287 . S
O256 Fe242 1.996 . S
O256 C250 1.255 . S
C257 O261 1.295 . S
C257 O262 1.235 . S
O258 Fe243 1.976 . S
O258 C252 1.287 . S
O259 Fe245 1.996 . S
O259 C252 1.255 . S
C260 O253 1.287 . S
C260 O254 1.255 . S
O261 Fe243 2.002 . S
O261 C257 1.295 . S
O262 Fe245 1.997 . S
O262 C257 1.235 . S
C263 O246 1.295 . S
C263 O247 1.235 . S
Fe264 O266 1.918 . S
Fe264 O269 1.997 . S
Fe264 O270 2.002 . S
Fe264 O275 1.976 . S
Fe264 O278 1.996 . S
Fe265 O266 1.918 . S
Fe265 O273 1.997 . S
Fe265 O276 1.996 . S
Fe265 O280 1.976 . S
Fe265 O283 2.002 . S
O266 Fe264 1.918 . S
O266 Fe265 1.918 . S
O266 Fe267 1.918 . S
Fe267 O266 1.918 . S
Fe267 O268 2.002 . S
Fe267 O277 1.976 . S
Fe267 O281 1.996 . S
Fe267 O284 1.997 . S
O268 Fe267 2.002 . S
O268 C285 1.295 . S
O269 Fe264 1.997 . S
O269 C285 1.235 . S
O270 Fe264 2.002 . S
O270 C271 1.295 . S
C271 O270 1.295 . S
C271 O273 1.235 . S
C272 O277 1.287 . S
C272 O278 1.255 . S
O273 Fe265 1.997 . S
O273 C271 1.235 . S
C274 O280 1.287 . S
C274 O281 1.255 . S
O275 Fe264 1.976 . S
O275 C282 1.287 . S
O276 Fe265 1.996 . S
O276 C282 1.255 . S
O277 Fe267 1.976 . S
O277 C272 1.287 . S
O278 Fe264 1.996 . S
O278 C272 1.255 . S
C279 O283 1.295 . S
C279 O284 1.235 . S
O280 Fe265 1.976 . S
O280 C274 1.287 . S
O281 Fe267 1.996 . S
O281 C274 1.255 . S
C282 O275 1.287 . S
C282 O276 1.255 . S
O283 Fe265 2.002 . S
O283 C279 1.295 . S
O284 Fe267 1.997 . S
O284 C279 1.235 . S
C285 O268 1.295 . S
C285 O269 1.235 . S
Fe286 O288 1.918 . S
Fe286 O291 1.997 . S
Fe286 O292 2.002 . S
Fe286 O297 1.976 . S
Fe286 O300 1.996 . S
Fe287 O288 1.918 . S
Fe287 O295 1.997 . S
Fe287 O298 1.996 . S
Fe287 O302 1.976 . S
Fe287 O305 2.002 . S
O288 Fe286 1.918 . S
O288 Fe287 1.918 . S
O288 Fe289 1.918 . S
Fe289 O288 1.918 . S
Fe289 O290 2.002 . S
Fe289 O299 1.976 . S
Fe289 O303 1.996 . S
Fe289 O306 1.997 . S
O290 Fe289 2.002 . S
O290 C307 1.295 . S
O291 Fe286 1.997 . S
O291 C307 1.235 . S
O292 Fe286 2.002 . S
O292 C293 1.295 . S
C293 O292 1.295 . S
C293 O295 1.235 . S
C294 O299 1.287 . S
C294 O300 1.255 . S
O295 Fe287 1.997 . S
O295 C293 1.235 . S
C296 O302 1.287 . S
C296 O303 1.255 . S
O297 Fe286 1.976 . S
O297 C304 1.287 . S
O298 Fe287 1.996 . S
O298 C304 1.255 . S
O299 Fe289 1.976 . S
O299 C294 1.287 . S
O300 Fe286 1.996 . S
O300 C294 1.255 . S
C301 O305 1.295 . S
C301 O306 1.235 . S
O302 Fe287 1.976 . S
O302 C296 1.287 . S
O303 Fe289 1.996 . S
O303 C296 1.255 . S
C304 O297 1.287 . S
C304 O298 1.255 . S
O305 Fe287 2.002 . S
O305 C301 1.295 . S
O306 Fe289 1.997 . S
O306 C301 1.235 . S
C307 O290 1.295 . S
C307 O291 1.235 . S
Fe308 O310 1.918 . S
Fe308 O313 1.997 . S
Fe308 O314 2.002 . S
Fe308 O319 1.976 . S
Fe308 O322 1.996 . S
Fe309 O310 1.918 . S
Fe309 O317 1.997 . S
Fe309 O320 1.996 . S
Fe309 O324 1.976 . S
Fe309 O327 2.002 . S
O310 Fe308 1.918 . S
O310 Fe309 1.918 . S
O310 Fe311 1.918 . S
Fe311 O310 1.918 . S
Fe311 O312 2.002 . S
Fe311 O321 1.976 . S
Fe311 O325 1.996 . S
Fe311 O328 1.997 . S
O312 Fe311 2.002 . S
O312 C329 1.295 . S
O313 Fe308 1.997 . S
O313 C329 1.235 . S
O314 Fe308 2.002 . S
O314 C315 1.295 . S
C315 O314 1.295 . S
C315 O317 1.235 . S
C316 O321 1.287 . S
C316 O322 1.255 . S
O317 Fe309 1.997 . S
O317 C315 1.235 . S
C318 O324 1.287 . S
C318 O325 1.255 . S
O319 Fe308 1.976 . S
O319 C326 1.287 . S
O320 Fe309 1.996 . S
O320 C326 1.255 . S
O321 Fe311 1.976 . S
O321 C316 1.287 . S
O322 Fe308 1.996 . S
O322 C316 1.255 . S
C323 O327 1.295 . S
C323 O328 1.235 . S
O324 Fe309 1.976 . S
O324 C318 1.287 . S
O325 Fe311 1.996 . S
O325 C318 1.255 . S
C326 O319 1.287 . S
C326 O320 1.255 . S
O327 Fe309 2.002 . S
O327 C323 1.295 . S
O328 Fe311 1.997 . S
O328 C323 1.235 . S
C329 O312 1.295 . S
C329 O313 1.235 . S
Fe330 O332 1.918 . S
Fe330 O335 1.997 . S
Fe330 O336 2.002 . S
Fe330 O341 1.976 . S
Fe330 O344 1.996 . S
Fe331 O332 1.918 . S
Fe331 O339 1.997 . S
Fe331 O342 1.996 . S
Fe331 O346 1.976 . S
Fe331 O349 2.002 . S
O332 Fe330 1.918 . S
O332 Fe331 1.918 . S
O332 Fe333 1.918 . S
Fe333 O332 1.918 . S
Fe333 O334 2.002 . S
Fe333 O343 1.976 . S
Fe333 O347 1.996 . S
Fe333 O350 1.997 . S
O334 Fe333 2.002 . S
O334 C351 1.295 . S
O335 Fe330 1.997 . S
O335 C351 1.235 . S
O336 Fe330 2.002 . S
O336 C337 1.295 . S
C337 O336 1.295 . S
C337 O339 1.235 . S
C338 O343 1.287 . S
C338 O344 1.255 . S
O339 Fe331 1.997 . S
O339 C337 1.235 . S
C340 O346 1.287 . S
C340 O347 1.255 . S
O341 Fe330 1.976 . S
O341 C348 1.287 . S
O342 Fe331 1.996 . S
O342 C348 1.255 . S
O343 Fe333 1.976 . S
O343 C338 1.287 . S
O344 Fe330 1.996 . S
O344 C338 1.255 . S
C345 O349 1.295 . S
C345 O350 1.235 . S
O346 Fe331 1.976 . S
O346 C340 1.287 . S
O347 Fe333 1.996 . S
O347 C340 1.255 . S
C348 O341 1.287 . S
C348 O342 1.255 . S
O349 Fe331 2.002 . S
O349 C345 1.295 . S
O350 Fe333 1.997 . S
O350 C345 1.235 . S
C351 O334 1.295 . S
C351 O335 1.235 . S
C352 O364 1.241 . S
C352 O365 1.280 . S
C353 O366 1.277 . S
C353 O367 1.245 . S
C354 O378 1.247 . S
C354 O380 1.289 . S
Mg355 O356 1.926 1_455 S
Mg355 O365 1.984 1_455 S
Mg355 O367 1.988 . S
Mg355 O368 2.061 1_455 S
O356 Mg355 1.926 1_655 S
O356 Mg357 1.986 . S
O356 Mg358 1.917 1_655 S
Mg357 O356 1.986 . S
Mg357 O364 2.042 . S
Mg357 O366 2.041 1_655 S
Mg357 O372 2.038 . S
Mg357 O380 2.238 1_655 S
Mg358 O356 1.917 1_455 S
Mg358 O359 1.917 . S
Mg358 O369 2.106 1_455 S
Mg358 O371 2.079 1_455 S
Mg358 O380 2.106 . S
Mg358 O381 2.079 . S
O359 Mg358 1.917 . S
O359 Mg360 1.926 1_455 S
O359 Mg361 1.986 . S
Mg360 O359 1.926 1_655 S
Mg360 O374 1.984 1_655 S
Mg360 O377 1.988 . S
Mg360 O378 2.061 1_655 S
Mg361 O359 1.986 . S
Mg361 O369 2.238 1_455 S
Mg361 O373 2.042 . S
Mg361 O375 2.041 1_455 S
Mg361 O382 2.038 . S
C362 O368 1.247 . S
C362 O369 1.289 . S
C363 O381 1.245 . S
C363 O382 1.274 . S
O364 C352 1.241 . S
O364 Mg357 2.042 . S
O365 C352 1.280 . S
O365 Mg355 1.984 1_655 S
O366 C353 1.277 . S
O366 Mg357 2.041 1_455 S
O367 C353 1.245 . S
O367 Mg355 1.988 . S
O368 Mg355 2.061 1_655 S
O368 C362 1.247 . S
O369 Mg358 2.106 1_655 S
O369 Mg361 2.238 1_655 S
O369 C362 1.289 . S
C370 O371 1.245 . S
C370 O372 1.274 . S
O371 Mg358 2.079 1_655 S
O371 C370 1.245 . S
O372 Mg357 2.038 . S
O372 C370 1.274 . S
O373 Mg361 2.042 . S
O373 C376 1.241 . S
O374 Mg360 1.984 1_455 S
O374 C376 1.280 . S
O375 Mg361 2.041 1_655 S
O375 C379 1.277 . S
C376 O373 1.241 . S
C376 O374 1.280 . S
O377 Mg360 1.988 . S
O377 C379 1.245 . S
O378 C354 1.247 . S
O378 Mg360 2.061 1_455 S
C379 O375 1.277 . S
C379 O377 1.245 . S
O380 C354 1.289 . S
O380 Mg357 2.238 1_455 S
O380 Mg358 2.106 . S
O381 Mg358 2.079 . S
O381 C363 1.245 . S
O382 Mg361 2.038 . S
O382 C363 1.274 . S
C383 O395 1.241 . S
C383 O396 1.280 . S
C384 O397 1.277 . S
C384 O398 1.245 . S
C385 O409 1.247 . S
C385 O411 1.289 . S
Mg386 O387 1.926 . S
Mg386 O396 1.984 . S
Mg386 O398 1.988 . S
Mg386 O399 2.061 . S
O387 Mg386 1.926 . S
O387 Mg388 1.986 . S
O387 Mg389 1.917 . S
Mg388 O387 1.986 . S
Mg388 O395 2.042 . S
Mg388 O397 2.041 . S
Mg388 O403 2.038 . S
Mg388 O411 2.238 . S
Mg389 O387 1.917 . S
Mg389 O390 1.917 . S
Mg389 O400 2.106 . S
Mg389 O402 2.079 . S
Mg389 O411 2.106 . S
Mg389 O412 2.079 . S
O390 Mg389 1.917 . S
O390 Mg391 1.926 . S
O390 Mg392 1.986 . S
Mg391 O390 1.926 . S
Mg391 O405 1.984 . S
Mg391 O408 1.988 . S
Mg391 O409 2.061 . S
Mg392 O390 1.986 . S
Mg392 O400 2.238 . S
Mg392 O404 2.042 . S
Mg392 O406 2.041 . S
Mg392 O413 2.038 . S
C393 O399 1.247 . S
C393 O400 1.289 . S
C394 O412 1.245 . S
C394 O413 1.274 . S
O395 C383 1.241 . S
O395 Mg388 2.042 . S
O396 C383 1.280 . S
O396 Mg386 1.984 . S
O397 C384 1.277 . S
O397 Mg388 2.041 . S
O398 C384 1.245 . S
O398 Mg386 1.988 . S
O399 Mg386 2.061 . S
O399 C393 1.247 . S
O400 Mg389 2.106 . S
O400 Mg392 2.238 . S
O400 C393 1.289 . S
C401 O402 1.245 . S
C401 O403 1.274 . S
O402 Mg389 2.079 . S
O402 C401 1.245 . S
O403 Mg388 2.038 . S
O403 C401 1.274 . S
O404 Mg392 2.042 . S
O404 C407 1.241 . S
O405 Mg391 1.984 . S
O405 C407 1.280 . S
O406 Mg392 2.041 . S
O406 C410 1.277 . S
C407 O404 1.241 . S
C407 O405 1.280 . S
O408 Mg391 1.988 . S
O408 C410 1.245 . S
O409 C385 1.247 . S
O409 Mg391 2.061 . S
C410 O406 1.277 . S
C410 O408 1.245 . S
O411 C385 1.289 . S
O411 Mg388 2.238 . S
O411 Mg389 2.106 . S
O412 Mg389 2.079 . S
O412 C394 1.245 . S
O413 Mg392 2.038 . S
O413 C394 1.274 . S
C414 O426 1.241 . S
C414 O427 1.280 . S
C415 O428 1.277 . S
C415 O429 1.245 . S
C416 O440 1.247 . S
C416 O442 1.289 . S
Mg417 O418 1.926 1_455 S
Mg417 O427 1.984 1_455 S
Mg417 O429 1.988 . S
Mg417 O430 2.061 . S
O418 Mg417 1.926 1_655 S
O418 Mg419 1.986 . S
O418 Mg420 1.917 1_655 S
Mg419 O418 1.986 . S
Mg419 O426 2.042 . S
Mg419 O428 2.041 1_655 S
Mg419 O434 2.038 . S
Mg419 O442 2.238 1_655 S
Mg420 O418 1.917 1_455 S
Mg420 O421 1.917 . S
Mg420 O431 2.104 1_455 S
Mg420 O433 2.079 1_455 S
Mg420 O442 2.106 . S
Mg420 O443 2.079 . S
O421 Mg420 1.917 . S
O421 Mg422 1.926 1_455 S
O421 Mg423 1.986 . S
Mg422 O421 1.926 1_655 S
Mg422 O436 1.984 1_655 S
Mg422 O439 1.988 . S
Mg422 O440 2.061 1_655 S
Mg423 O421 1.986 . S
Mg423 O431 2.226 1_455 S
Mg423 O435 2.042 . S
Mg423 O437 2.041 1_455 S
Mg423 O444 2.038 . S
C424 O430 1.247 1_655 S
C424 O431 1.294 . S
C425 O443 1.245 . S
C425 O444 1.274 . S
O426 C414 1.241 . S
O426 Mg419 2.042 . S
O427 C414 1.280 . S
O427 Mg417 1.984 1_655 S
O428 C415 1.277 . S
O428 Mg419 2.041 1_455 S
O429 C415 1.245 . S
O429 Mg417 1.988 . S
O430 Mg417 2.061 . S
O430 C424 1.247 1_455 S
O431 Mg420 2.104 1_655 S
O431 Mg423 2.226 1_655 S
O431 C424 1.294 . S
C432 O433 1.245 . S
C432 O434 1.274 . S
O433 Mg420 2.079 1_655 S
O433 C432 1.245 . S
O434 Mg419 2.038 . S
O434 C432 1.274 . S
O435 Mg423 2.042 . S
O435 C438 1.241 . S
O436 Mg422 1.984 1_455 S
O436 C438 1.280 . S
O437 Mg423 2.041 1_655 S
O437 C441 1.277 . S
C438 O435 1.241 . S
C438 O436 1.280 . S
O439 Mg422 1.988 . S
O439 C441 1.245 . S
O440 C416 1.247 . S
O440 Mg422 2.061 1_455 S
C441 O437 1.277 . S
C441 O439 1.245 . S
O442 C416 1.289 . S
O442 Mg419 2.238 1_455 S
O442 Mg420 2.106 . S
O443 Mg420 2.079 . S
O443 C425 1.245 . S
O444 Mg423 2.038 . S
O444 C425 1.274 . S
C445 O457 1.241 . S
C445 O458 1.280 . S
C446 O459 1.277 . S
C446 O460 1.245 . S
C447 O471 1.247 . S
C447 O473 1.289 . S
Mg448 O449 1.926 1_565 S
Mg448 O458 1.984 1_565 S
Mg448 O460 1.988 . S
Mg448 O461 2.061 1_565 S
O449 Mg448 1.926 1_545 S
O449 Mg450 1.986 . S
O449 Mg451 1.920 . S
Mg450 O449 1.986 . S
Mg450 O457 2.042 . S
Mg450 O459 2.041 1_545 S
Mg450 O465 2.038 . S
Mg450 O473 2.238 1_545 S
Mg451 O449 1.920 . S
Mg451 O452 1.914 1_545 S
Mg451 O462 2.108 . S
Mg451 O464 2.094 . S
Mg451 O473 2.105 1_545 S
Mg451 O474 2.063 1_545 S
O452 Mg451 1.914 1_565 S
O452 Mg453 1.926 1_565 S
O452 Mg454 1.986 . S
Mg453 O452 1.926 1_545 S
Mg453 O467 1.984 1_545 S
Mg453 O470 1.988 . S
Mg453 O471 2.061 1_545 S
Mg454 O452 1.986 . S
Mg454 O462 2.238 1_565 S
Mg454 O466 2.042 . S
Mg454 O468 2.041 1_565 S
Mg454 O475 2.038 . S
C455 O461 1.247 . S
C455 O462 1.289 . S
C456 O474 1.245 . S
C456 O475 1.274 . S
O457 C445 1.241 . S
O457 Mg450 2.042 . S
O458 C445 1.280 . S
O458 Mg448 1.984 1_545 S
O459 C446 1.277 . S
O459 Mg450 2.041 1_565 S
O460 C446 1.245 . S
O460 Mg448 1.988 . S
O461 Mg448 2.061 1_545 S
O461 C455 1.247 . S
O462 Mg451 2.108 . S
O462 Mg454 2.238 1_545 S
O462 C455 1.289 . S
C463 O464 1.245 . S
C463 O465 1.274 . S
O464 Mg451 2.094 . S
O464 C463 1.245 . S
O465 Mg450 2.038 . S
O465 C463 1.274 . S
O466 Mg454 2.042 . S
O466 C469 1.241 . S
O467 Mg453 1.984 1_565 S
O467 C469 1.280 . S
O468 Mg454 2.041 1_545 S
O468 C472 1.277 . S
C469 O466 1.241 . S
C469 O467 1.280 . S
O470 Mg453 1.988 . S
O470 C472 1.245 . S
O471 C447 1.247 . S
O471 Mg453 2.061 1_565 S
C472 O468 1.277 . S
C472 O470 1.245 . S
O473 C447 1.289 . S
O473 Mg450 2.238 1_565 S
O473 Mg451 2.105 1_565 S
O474 Mg451 2.063 1_565 S
O474 C456 1.245 . S
O475 Mg454 2.038 . S
O475 C456 1.274 . S
C476 O488 1.241 . S
C476 O489 1.280 . S
C477 O490 1.277 . S
C477 O491 1.245 . S
C478 O502 1.247 . S
C478 O504 1.289 . S
Mg479 O480 1.914 1_554 S
Mg479 O489 1.984 1_554 S
Mg479 O491 1.988 . S
Mg479 O492 2.061 . S
O480 Mg479 1.914 1_556 S
O480 Mg481 1.999 . S
O480 Mg482 1.915 1_556 S
Mg481 O480 1.999 . S
Mg481 O488 2.042 . S
Mg481 O490 2.041 1_556 S
Mg481 O496 2.038 . S
Mg481 O504 2.238 . S
Mg482 O480 1.915 1_554 S
Mg482 O483 1.917 . S
Mg482 O493 2.106 . S
Mg482 O495 2.079 1_554 S
Mg482 O504 2.106 1_554 S
Mg482 O505 2.079 . S
O483 Mg482 1.917 . S
O483 Mg484 1.926 1_554 S
O483 Mg485 1.986 . S
Mg484 O483 1.926 1_556 S
Mg484 O498 1.984 1_556 S
Mg484 O501 1.988 . S
Mg484 O502 2.061 . S
Mg485 O483 1.986 . S
Mg485 O493 2.238 . S
Mg485 O497 2.042 . S
Mg485 O499 2.041 . S
Mg485 O506 2.038 . S
C486 O492 1.247 . S
C486 O493 1.289 . S
C487 O505 1.245 . S
C487 O506 1.274 . S
O488 C476 1.241 . S
O488 Mg481 2.042 . S
O489 C476 1.280 . S
O489 Mg479 1.984 1_556 S
O490 C477 1.277 . S
O490 Mg481 2.041 1_554 S
O491 C477 1.245 . S
O491 Mg479 1.988 . S
O492 Mg479 2.061 . S
O492 C486 1.247 . S
O493 Mg482 2.106 . S
O493 Mg485 2.238 . S
O493 C486 1.289 . S
C494 O495 1.245 . S
C494 O496 1.274 . S
O495 Mg482 2.079 1_556 S
O495 C494 1.245 . S
O496 Mg481 2.038 . S
O496 C494 1.274 . S
O497 Mg485 2.042 . S
O497 C500 1.241 . S
O498 Mg484 1.984 1_554 S
O498 C500 1.280 . S
O499 Mg485 2.041 . S
O499 C503 1.277 1_554 S
C500 O497 1.241 . S
C500 O498 1.280 . S
O501 Mg484 1.988 . S
O501 C503 1.245 . S
O502 C478 1.247 . S
O502 Mg484 2.061 . S
C503 O499 1.277 1_556 S
C503 O501 1.245 . S
O504 C478 1.289 . S
O504 Mg481 2.238 . S
O504 Mg482 2.106 1_556 S
O505 Mg482 2.079 . S
O505 C487 1.245 . S
O506 Mg485 2.038 . S
O506 C487 1.274 . S
C507 O519 1.241 . S
C507 O520 1.280 . S
C508 O521 1.277 . S
C508 O522 1.245 . S
C509 O533 1.247 . S
C509 O535 1.289 . S
Mg510 O511 1.926 . S
Mg510 O520 1.984 . S
Mg510 O522 1.988 . S
Mg510 O523 2.061 . S
O511 Mg510 1.926 . S
O511 Mg512 1.986 . S
O511 Mg513 1.917 . S
Mg512 O511 1.986 . S
Mg512 O519 2.042 . S
Mg512 O521 2.041 . S
Mg512 O527 2.038 . S
Mg512 O535 2.238 . S
Mg513 O511 1.917 . S
Mg513 O514 1.917 . S
Mg513 O524 2.106 . S
Mg513 O526 2.079 . S
Mg513 O535 2.106 . S
Mg513 O536 2.079 . S
O514 Mg513 1.917 . S
O514 Mg515 1.926 . S
O514 Mg516 1.986 . S
Mg515 O514 1.926 . S
Mg515 O529 1.984 . S
Mg515 O532 1.988 . S
Mg515 O533 2.061 . S
Mg516 O514 1.986 . S
Mg516 O524 2.238 . S
Mg516 O528 2.042 . S
Mg516 O530 2.041 . S
Mg516 O537 2.038 . S
C517 O523 1.247 . S
C517 O524 1.289 . S
C518 O536 1.245 . S
C518 O537 1.274 . S
O519 C507 1.241 . S
O519 Mg512 2.042 . S
O520 C507 1.280 . S
O520 Mg510 1.984 . S
O521 C508 1.277 . S
O521 Mg512 2.041 . S
O522 C508 1.245 . S
O522 Mg510 1.988 . S
O523 Mg510 2.061 . S
O523 C517 1.247 . S
O524 Mg513 2.106 . S
O524 Mg516 2.238 . S
O524 C517 1.289 . S
C525 O526 1.245 . S
C525 O527 1.274 . S
O526 Mg513 2.079 . S
O526 C525 1.245 . S
O527 Mg512 2.038 . S
O527 C525 1.274 . S
O528 Mg516 2.042 . S
O528 C531 1.241 . S
O529 Mg515 1.984 . S
O529 C531 1.280 . S
O530 Mg516 2.041 . S
O530 C534 1.277 . S
C531 O528 1.241 . S
C531 O529 1.280 . S
O532 Mg515 1.988 . S
O532 C534 1.245 . S
O533 C509 1.247 . S
O533 Mg515 2.061 . S
C534 O530 1.277 . S
C534 O532 1.245 . S
O535 C509 1.289 . S
O535 Mg512 2.238 . S
O535 Mg513 2.106 . S
O536 Mg513 2.079 . S
O536 C518 1.245 . S
O537 Mg516 2.038 . S
O537 C518 1.274 . S
C538 O550 1.241 . S
C538 O551 1.280 . S
C539 O552 1.277 . S
C539 O553 1.245 . S
C540 O564 1.247 1_556 S
C540 O566 1.289 . S
Mg541 O542 1.926 1_556 S
Mg541 O551 1.984 1_556 S
Mg541 O553 1.988 . S
Mg541 O554 2.061 1_556 S
O542 Mg541 1.926 1_554 S
O542 Mg543 1.986 . S
O542 Mg544 1.917 . S
Mg543 O542 1.986 . S
Mg543 O550 2.042 . S
Mg543 O552 2.041 1_554 S
Mg543 O558 2.038 . S
Mg543 O566 2.238 1_554 S
Mg544 O542 1.917 . S
Mg544 O545 1.917 1_554 S
Mg544 O555 2.106 . S
Mg544 O557 2.079 . S
Mg544 O566 2.106 1_554 S
Mg544 O567 2.079 1_554 S
O545 Mg544 1.917 1_556 S
O545 Mg546 1.926 1_556 S
O545 Mg547 1.986 . S
Mg546 O545 1.926 1_554 S
Mg546 O560 1.984 1_554 S
Mg546 O563 1.988 . S
Mg546 O564 2.061 . S
Mg547 O545 1.986 . S
Mg547 O555 2.238 1_556 S
Mg547 O559 2.042 . S
Mg547 O561 2.041 1_556 S
Mg547 O568 2.038 . S
C548 O554 1.247 . S
C548 O555 1.289 . S
C549 O567 1.245 . S
C549 O568 1.274 . S
O550 C538 1.241 . S
O550 Mg543 2.042 . S
O551 C538 1.280 . S
O551 Mg541 1.984 1_554 S
O552 C539 1.277 . S
O552 Mg543 2.041 1_556 S
O553 C539 1.245 . S
O553 Mg541 1.988 . S
O554 Mg541 2.061 1_554 S
O554 C548 1.247 . S
O555 Mg544 2.106 . S
O555 Mg547 2.238 1_554 S
O555 C548 1.289 . S
C556 O557 1.245 . S
C556 O558 1.274 . S
O557 Mg544 2.079 . S
O557 C556 1.245 . S
O558 Mg543 2.038 . S
O558 C556 1.274 . S
O559 Mg547 2.042 . S
O559 C562 1.241 . S
O560 Mg546 1.984 1_556 S
O560 C562 1.280 . S
O561 Mg547 2.041 1_554 S
O561 C565 1.277 . S
C562 O559 1.241 . S
C562 O560 1.280 . S
O563 Mg546 1.988 . S
O563 C565 1.245 . S
O564 C540 1.247 1_554 S
O564 Mg546 2.061 . S
C565 O561 1.277 . S
C565 O563 1.245 . S
O566 C540 1.289 . S
O566 Mg543 2.238 1_556 S
O566 Mg544 2.106 1_556 S
O567 Mg544 2.079 1_556 S
O567 C549 1.245 . S
O568 Mg547 2.038 . S
O568 C549 1.274 . S
C569 O581 1.241 . S
C569 O582 1.280 . S
C570 O583 1.277 . S
C570 O584 1.245 . S
C571 O595 1.247 . S
C571 O597 1.289 . S
Mg572 O573 1.926 . S
Mg572 O582 1.984 . S
Mg572 O584 1.988 . S
Mg572 O585 2.061 . S
O573 Mg572 1.926 . S
O573 Mg574 1.986 . S
O573 Mg575 1.917 . S
Mg574 O573 1.986 . S
Mg574 O581 2.042 . S
Mg574 O583 2.041 . S
Mg574 O589 2.038 . S
Mg574 O597 2.238 . S
Mg575 O573 1.917 . S
Mg575 O576 1.917 . S
Mg575 O586 2.106 . S
Mg575 O588 2.079 . S
Mg575 O597 2.106 . S
Mg575 O598 2.079 . S
O576 Mg575 1.917 . S
O576 Mg577 1.926 . S
O576 Mg578 1.986 . S
Mg577 O576 1.926 . S
Mg577 O591 1.984 . S
Mg577 O594 1.988 . S
Mg577 O595 2.061 . S
Mg578 O576 1.986 . S
Mg578 O586 2.238 . S
Mg578 O590 2.042 . S
Mg578 O592 2.041 . S
Mg578 O599 2.038 . S
C579 O585 1.247 . S
C579 O586 1.289 . S
C580 O598 1.245 . S
C580 O599 1.274 . S
O581 C569 1.241 . S
O581 Mg574 2.042 . S
O582 C569 1.280 . S
O582 Mg572 1.984 . S
O583 C570 1.277 . S
O583 Mg574 2.041 . S
O584 C570 1.245 . S
O584 Mg572 1.988 . S
O585 Mg572 2.061 . S
O585 C579 1.247 . S
O586 Mg575 2.106 . S
O586 Mg578 2.238 . S
O586 C579 1.289 . S
C587 O588 1.245 . S
C587 O589 1.274 . S
O588 Mg575 2.079 . S
O588 C587 1.245 . S
O589 Mg574 2.038 . S
O589 C587 1.274 . S
O590 Mg578 2.042 . S
O590 C593 1.241 . S
O591 Mg577 1.984 . S
O591 C593 1.280 . S
O592 Mg578 2.041 . S
O592 C596 1.277 . S
C593 O590 1.241 . S
C593 O591 1.280 . S
O594 Mg577 1.988 . S
O594 C596 1.245 . S
O595 C571 1.247 . S
O595 Mg577 2.061 . S
C596 O592 1.277 . S
C596 O594 1.245 . S
O597 C571 1.289 . S
O597 Mg574 2.238 . S
O597 Mg575 2.106 . S
O598 Mg575 2.079 . S
O598 C580 1.245 . S
O599 Mg578 2.038 . S
O599 C580 1.274 . S
C600 O612 1.241 . S
C600 O613 1.280 . S
C601 O614 1.277 . S
C601 O615 1.245 . S
C602 O626 1.247 . S
C602 O628 1.289 . S
Mg603 O604 1.926 . S
Mg603 O613 1.984 . S
Mg603 O615 1.988 . S
Mg603 O616 2.061 . S
O604 Mg603 1.926 . S
O604 Mg605 1.986 . S
O604 Mg606 1.917 . S
Mg605 O604 1.986 . S
Mg605 O612 2.042 . S
Mg605 O614 2.041 . S
Mg605 O620 2.038 . S
Mg605 O628 2.238 . S
Mg606 O604 1.917 . S
Mg606 O607 1.917 . S
Mg606 O617 2.106 . S
Mg606 O619 2.079 . S
Mg606 O628 2.106 . S
Mg606 O629 2.079 . S
O607 Mg606 1.917 . S
O607 Mg608 1.926 . S
O607 Mg609 1.986 . S
Mg608 O607 1.926 . S
Mg608 O622 1.984 . S
Mg608 O625 1.988 . S
Mg608 O626 2.061 . S
Mg609 O607 1.986 . S
Mg609 O617 2.238 . S
Mg609 O621 2.042 . S
Mg609 O623 2.041 . S
Mg609 O630 2.038 . S
C610 O616 1.247 . S
C610 O617 1.289 . S
C611 O629 1.245 . S
C611 O630 1.274 . S
O612 C600 1.241 . S
O612 Mg605 2.042 . S
O613 C600 1.280 . S
O613 Mg603 1.984 . S
O614 C601 1.277 . S
O614 Mg605 2.041 . S
O615 C601 1.245 . S
O615 Mg603 1.988 . S
O616 Mg603 2.061 . S
O616 C610 1.247 . S
O617 Mg606 2.106 . S
O617 Mg609 2.238 . S
O617 C610 1.289 . S
C618 O619 1.245 . S
C618 O620 1.274 . S
O619 Mg606 2.079 . S
O619 C618 1.245 . S
O620 Mg605 2.038 . S
O620 C618 1.274 . S
O621 Mg609 2.042 . S
O621 C624 1.241 . S
O622 Mg608 1.984 . S
O622 C624 1.280 . S
O623 Mg609 2.041 . S
O623 C627 1.277 . S
C624 O621 1.241 . S
C624 O622 1.280 . S
O625 Mg608 1.988 . S
O625 C627 1.245 . S
O626 C602 1.247 . S
O626 Mg608 2.061 . S
C627 O623 1.277 . S
C627 O625 1.245 . S
O628 C602 1.289 . S
O628 Mg605 2.238 . S
O628 Mg606 2.106 . S
O629 Mg606 2.079 . S
O629 C611 1.245 . S
O630 Mg609 2.038 . S
O630 C611 1.274 . S
C631 O643 1.241 . S
C631 O644 1.280 . S
C632 O645 1.277 . S
C632 O646 1.245 . S
C633 O657 1.247 . S
C633 O659 1.289 . S
Mg634 O635 1.926 . S
Mg634 O644 1.984 . S
Mg634 O646 1.988 . S
Mg634 O647 2.061 . S
O635 Mg634 1.926 . S
O635 Mg636 1.986 . S
O635 Mg637 1.917 . S
Mg636 O635 1.986 . S
Mg636 O643 2.042 . S
Mg636 O645 2.041 . S
Mg636 O651 2.038 . S
Mg636 O659 2.238 . S
Mg637 O635 1.917 . S
Mg637 O638 1.917 . S
Mg637 O648 2.106 . S
Mg637 O650 2.079 . S
Mg637 O659 2.106 . S
Mg637 O660 2.079 . S
O638 Mg637 1.917 . S
O638 Mg639 1.926 . S
O638 Mg640 1.986 . S
Mg639 O638 1.926 . S
Mg639 O653 1.984 . S
Mg639 O656 1.988 . S
Mg639 O657 2.061 . S
Mg640 O638 1.986 . S
Mg640 O648 2.238 . S
Mg640 O652 2.042 . S
Mg640 O654 2.041 . S
Mg640 O661 2.038 . S
C641 O647 1.247 . S
C641 O648 1.289 . S
C642 O660 1.245 . S
C642 O661 1.274 . S
O643 C631 1.241 . S
O643 Mg636 2.042 . S
O644 C631 1.280 . S
O644 Mg634 1.984 . S
O645 C632 1.277 . S
O645 Mg636 2.041 . S
O646 C632 1.245 . S
O646 Mg634 1.988 . S
O647 Mg634 2.061 . S
O647 C641 1.247 . S
O648 Mg637 2.106 . S
O648 Mg640 2.238 . S
O648 C641 1.289 . S
C649 O650 1.245 . S
C649 O651 1.274 . S
O650 Mg637 2.079 . S
O650 C649 1.245 . S
O651 Mg636 2.038 . S
O651 C649 1.274 . S
O652 Mg640 2.042 . S
O652 C655 1.241 . S
O653 Mg639 1.984 . S
O653 C655 1.280 . S
O654 Mg640 2.041 . S
O654 C658 1.277 . S
C655 O652 1.241 . S
C655 O653 1.280 . S
O656 Mg639 1.988 . S
O656 C658 1.245 . S
O657 C633 1.247 . S
O657 Mg639 2.061 . S
C658 O654 1.277 . S
C658 O656 1.245 . S
O659 C633 1.289 . S
O659 Mg636 2.238 . S
O659 Mg637 2.106 . S
O660 Mg637 2.079 . S
O660 C642 1.245 . S
O661 Mg640 2.038 . S
O661 C642 1.274 . S
C662 O674 1.241 . S
C662 O675 1.280 . S
C663 O676 1.277 . S
C663 O677 1.245 . S
C664 O688 1.247 . S
C664 O690 1.289 . S
Mg665 O666 1.926 1_565 S
Mg665 O675 1.984 1_565 S
Mg665 O677 1.988 . S
Mg665 O678 2.061 1_565 S
O666 Mg665 1.926 1_545 S
O666 Mg667 1.986 . S
O666 Mg668 1.922 . S
Mg667 O666 1.986 . S
Mg667 O674 2.042 . S
Mg667 O676 2.041 1_545 S
Mg667 O682 2.038 . S
Mg667 O690 2.238 1_545 S
Mg668 O666 1.922 . S
Mg668 O669 1.912 1_545 S
Mg668 O679 2.109 . S
Mg668 O681 2.103 . S
Mg668 O690 2.104 1_545 S
Mg668 O691 2.054 1_545 S
O669 Mg668 1.912 1_565 S
O669 Mg670 1.926 1_565 S
O669 Mg671 1.986 . S
Mg670 O669 1.926 1_545 S
Mg670 O684 1.984 1_545 S
Mg670 O687 1.988 . S
Mg670 O688 2.061 1_545 S
Mg671 O669 1.986 . S
Mg671 O679 2.238 1_565 S
Mg671 O683 2.042 . S
Mg671 O685 2.041 1_565 S
Mg671 O692 2.038 . S
C672 O678 1.247 . S
C672 O679 1.289 . S
C673 O691 1.245 . S
C673 O692 1.274 . S
O674 C662 1.241 . S
O674 Mg667 2.042 . S
O675 C662 1.280 . S
O675 Mg665 1.984 1_545 S
O676 C663 1.277 . S
O676 Mg667 2.041 1_565 S
O677 C663 1.245 . S
O677 Mg665 1.988 . S
O678 Mg665 2.061 1_545 S
O678 C672 1.247 . S
O679 Mg668 2.109 . S
O679 Mg671 2.238 1_545 S
O679 C672 1.289 . S
C680 O681 1.245 . S
C680 O682 1.274 . S
O681 Mg668 2.103 . S
O681 C680 1.245 . S
O682 Mg667 2.038 . S
O682 C680 1.274 . S
O683 Mg671 2.042 . S
O683 C686 1.241 . S
O684 Mg670 1.984 1_565 S
O684 C686 1.280 . S
O685 Mg671 2.041 1_545 S
O685 C689 1.277 . S
C686 O683 1.241 . S
C686 O684 1.280 . S
O687 Mg670 1.988 . S
O687 C689 1.245 . S
O688 C664 1.247 . S
O688 Mg670 2.061 1_565 S
C689 O685 1.277 . S
C689 O687 1.245 . S
O690 C664 1.289 . S
O690 Mg667 2.238 1_565 S
O690 Mg668 2.104 1_565 S
O691 Mg668 2.054 1_565 S
O691 C673 1.245 . S
O692 Mg671 2.038 . S
O692 C673 1.274 . S
C693 O705 1.241 . S
C693 O706 1.280 . S
C694 O707 1.277 . S
C694 O708 1.245 . S
C695 O719 1.247 . S
C695 O721 1.289 . S
Mg696 O697 1.926 . S
Mg696 O706 1.984 . S
Mg696 O708 1.988 . S
Mg696 O709 2.061 . S
O697 Mg696 1.926 . S
O697 Mg698 1.986 . S
O697 Mg699 1.917 . S
Mg698 O697 1.986 . S
Mg698 O705 2.042 . S
Mg698 O707 2.041 . S
Mg698 O713 2.038 . S
Mg698 O721 2.238 . S
Mg699 O697 1.917 . S
Mg699 O700 1.917 . S
Mg699 O710 2.106 . S
Mg699 O712 2.079 . S
Mg699 O721 2.106 . S
Mg699 O722 2.079 . S
O700 Mg699 1.917 . S
O700 Mg701 1.926 . S
O700 Mg702 1.986 . S
Mg701 O700 1.926 . S
Mg701 O715 1.984 . S
Mg701 O718 1.988 . S
Mg701 O719 2.061 . S
Mg702 O700 1.986 . S
Mg702 O710 2.238 . S
Mg702 O714 2.042 . S
Mg702 O716 2.041 . S
Mg702 O723 2.038 . S
C703 O709 1.247 . S
C703 O710 1.289 . S
C704 O722 1.245 . S
C704 O723 1.274 . S
O705 C693 1.241 . S
O705 Mg698 2.042 . S
O706 C693 1.280 . S
O706 Mg696 1.984 . S
O707 C694 1.277 . S
O707 Mg698 2.041 . S
O708 C694 1.245 . S
O708 Mg696 1.988 . S
O709 Mg696 2.061 . S
O709 C703 1.247 . S
O710 Mg699 2.106 . S
O710 Mg702 2.238 . S
O710 C703 1.289 . S
C711 O712 1.245 . S
C711 O713 1.274 . S
O712 Mg699 2.079 . S
O712 C711 1.245 . S
O713 Mg698 2.038 . S
O713 C711 1.274 . S
O714 Mg702 2.042 . S
O714 C717 1.241 . S
O715 Mg701 1.984 . S
O715 C717 1.280 . S
O716 Mg702 2.041 . S
O716 C720 1.277 . S
C717 O714 1.241 . S
C717 O715 1.280 . S
O718 Mg701 1.988 . S
O718 C720 1.245 . S
O719 C695 1.247 . S
O719 Mg701 2.061 . S
C720 O716 1.277 . S
C720 O718 1.245 . S
O721 C695 1.289 . S
O721 Mg698 2.238 . S
O721 Mg699 2.106 . S
O722 Mg699 2.079 . S
O722 C704 1.245 . S
O723 Mg702 2.038 . S
O723 C704 1.274 . S
H724 C730 0.930 . S
H725 C734 0.930 . S
H726 C739 0.929 . S
H727 C737 0.929 . S
H728 C732 0.929 . S
H729 C738 0.929 . S
C730 H724 0.930 . S
C730 C731 1.367 . S
C730 C738 1.378 . S
C731 C730 1.367 . S
C731 C739 1.433 . S
C732 H728 0.929 . S
C732 C734 1.378 . S
C732 C736 1.350 . S
C733 C736 1.463 . S
C733 C738 1.350 . S
C733 N741 1.427 . S
C734 H725 0.930 . S
C734 C732 1.378 . S
C734 C735 1.367 . S
C735 C734 1.367 . S
C735 C737 1.433 . S
C736 C732 1.350 . S
C736 C733 1.463 . S
C736 N740 1.427 . S
C737 H727 0.929 . S
C737 C735 1.433 . S
C737 N740 1.384 . S
C738 H729 0.929 . S
C738 C730 1.378 . S
C738 C733 1.350 . S
C739 H726 0.929 . S
C739 C731 1.433 . S
C739 N741 1.384 . S
N740 C736 1.427 . S
N740 C737 1.384 . S
N741 C733 1.427 . S
N741 C739 1.384 . S
H742 C748 0.930 . S
H743 C752 0.930 . S
H744 C757 0.929 . S
H745 C755 0.929 . S
H746 C750 0.929 . S
H747 C756 0.929 . S
C748 H742 0.930 . S
C748 C749 1.367 . S
C748 C756 1.378 . S
C749 C748 1.367 . S
C749 C757 1.433 . S
C750 H746 0.929 . S
C750 C752 1.378 . S
C750 C754 1.350 . S
C751 C754 1.463 . S
C751 C756 1.350 . S
C751 N759 1.427 . S
C752 H743 0.930 . S
C752 C750 1.378 . S
C752 C753 1.367 . S
C753 C752 1.367 . S
C753 C755 1.433 . S
C754 C750 1.350 . S
C754 C751 1.463 . S
C754 N758 1.427 . S
C755 H745 0.929 . S
C755 C753 1.433 . S
C755 N758 1.384 . S
C756 H747 0.929 . S
C756 C748 1.378 . S
C756 C751 1.350 . S
C757 H744 0.929 . S
C757 C749 1.433 . S
C757 N759 1.384 . S
N758 C754 1.427 . S
N758 C755 1.384 . S
N759 C751 1.427 . S
N759 C757 1.384 . S
H760 C766 0.930 . S
H761 C770 0.930 . S
H762 C775 0.929 . S
H763 C773 0.929 . S
H764 C768 0.929 . S
H765 C774 0.929 . S
C766 H760 0.930 . S
C766 C767 1.367 . S
C766 C774 1.378 . S
C767 C766 1.367 . S
C767 C775 1.433 . S
C768 H764 0.929 . S
C768 C770 1.378 . S
C768 C772 1.350 . S
C769 C772 1.463 . S
C769 C774 1.350 . S
C769 N777 1.427 . S
C770 H761 0.930 . S
C770 C768 1.378 . S
C770 C771 1.367 . S
C771 C770 1.367 . S
C771 C773 1.433 . S
C772 C768 1.350 . S
C772 C769 1.463 . S
C772 N776 1.427 . S
C773 H763 0.929 . S
C773 C771 1.433 . S
C773 N776 1.384 . S
C774 H765 0.929 . S
C774 C766 1.378 . S
C774 C769 1.350 . S
C775 H762 0.929 . S
C775 C767 1.433 . S
C775 N777 1.384 . S
N776 C772 1.427 . S
N776 C773 1.384 . S
N777 C769 1.427 . S
N777 C775 1.384 . S
H778 C784 0.930 . S
H779 C788 0.930 . S
H780 C793 0.929 . S
H781 C791 0.929 . S
H782 C786 0.929 . S
H783 C792 0.929 . S
C784 H778 0.930 . S
C784 C785 1.367 . S
C784 C792 1.378 . S
C785 C784 1.367 . S
C785 C793 1.433 . S
C786 H782 0.929 . S
C786 C788 1.378 . S
C786 C790 1.350 . S
C787 C790 1.463 . S
C787 C792 1.350 . S
C787 N795 1.427 . S
C788 H779 0.930 . S
C788 C786 1.378 . S
C788 C789 1.367 . S
C789 C788 1.367 . S
C789 C791 1.433 . S
C790 C786 1.350 . S
C790 C787 1.463 . S
C790 N794 1.427 . S
C791 H781 0.929 . S
C791 C789 1.433 . S
C791 N794 1.384 . S
C792 H783 0.929 . S
C792 C784 1.378 . S
C792 C787 1.350 . S
C793 H780 0.929 . S
C793 C785 1.433 . S
C793 N795 1.384 . S
N794 C790 1.427 . S
N794 C791 1.384 . S
N795 C787 1.427 . S
N795 C793 1.384 . S
H796 C802 0.930 . S
H797 C806 0.930 . S
H798 C811 0.929 . S
H799 C809 0.929 . S
H800 C804 0.929 . S
H801 C810 0.929 . S
C802 H796 0.930 . S
C802 C803 1.367 . S
C802 C810 1.378 . S
C803 C802 1.367 . S
C803 C811 1.433 . S
C804 H800 0.929 . S
C804 C806 1.378 . S
C804 C808 1.350 . S
C805 C808 1.463 . S
C805 C810 1.350 . S
C805 N813 1.427 . S
C806 H797 0.930 . S
C806 C804 1.378 . S
C806 C807 1.367 . S
C807 C806 1.367 . S
C807 C809 1.433 . S
C808 C804 1.350 . S
C808 C805 1.463 . S
C808 N812 1.427 . S
C809 H799 0.929 . S
C809 C807 1.433 . S
C809 N812 1.384 . S
C810 H801 0.929 . S
C810 C802 1.378 . S
C810 C805 1.350 . S
C811 H798 0.929 . S
C811 C803 1.433 . S
C811 N813 1.384 . S
N812 C808 1.427 . S
N812 C809 1.384 . S
N813 C805 1.427 . S
N813 C811 1.384 . S
H814 C820 0.930 . S
H815 C824 0.930 . S
H816 C829 0.929 . S
H817 C827 0.929 . S
H818 C822 0.929 . S
H819 C828 0.929 . S
C820 H814 0.930 . S
C820 C821 1.367 . S
C820 C828 1.378 . S
C821 C820 1.367 . S
C821 C829 1.433 . S
C822 H818 0.929 . S
C822 C824 1.378 . S
C822 C826 1.350 . S
C823 C826 1.463 . S
C823 C828 1.350 . S
C823 N831 1.427 . S
C824 H815 0.930 . S
C824 C822 1.378 . S
C824 C825 1.367 . S
C825 C824 1.367 . S
C825 C827 1.433 . S
C826 C822 1.350 . S
C826 C823 1.463 . S
C826 N830 1.427 . S
C827 H817 0.929 . S
C827 C825 1.433 . S
C827 N830 1.384 . S
C828 H819 0.929 . S
C828 C820 1.378 . S
C828 C823 1.350 . S
C829 H816 0.929 . S
C829 C821 1.433 . S
C829 N831 1.384 . S
N830 C826 1.427 . S
N830 C827 1.384 . S
N831 C823 1.427 . S
N831 C829 1.384 . S
H832 C838 0.930 . S
H833 C842 0.930 . S
H834 C847 0.929 . S
H835 C845 0.929 . S
H836 C840 0.929 . S
H837 C846 0.929 . S
C838 H832 0.930 . S
C838 C839 1.367 . S
C838 C846 1.378 . S
C839 C838 1.367 . S
C839 C847 1.433 . S
C840 H836 0.929 . S
C840 C842 1.378 . S
C840 C844 1.350 . S
C841 C844 1.463 . S
C841 C846 1.350 . S
C841 N849 1.427 . S
C842 H833 0.930 . S
C842 C840 1.378 . S
C842 C843 1.367 . S
C843 C842 1.367 . S
C843 C845 1.433 . S
C844 C840 1.350 . S
C844 C841 1.463 . S
C844 N848 1.427 . S
C845 H835 0.929 . S
C845 C843 1.433 . S
C845 N848 1.384 . S
C846 H837 0.929 . S
C846 C838 1.378 . S
C846 C841 1.350 . S
C847 H834 0.929 . S
C847 C839 1.433 . S
C847 N849 1.384 . S
N848 C844 1.427 . S
N848 C845 1.384 . S
N849 C841 1.427 . S
N849 C847 1.384 . S
H850 C856 0.930 . S
H851 C860 0.930 . S
H852 C865 0.929 . S
H853 C863 0.929 . S
H854 C858 0.929 . S
H855 C864 0.929 . S
C856 H850 0.930 . S
C856 C857 1.367 . S
C856 C864 1.378 . S
C857 C856 1.367 . S
C857 C865 1.433 . S
C858 H854 0.929 . S
C858 C860 1.378 . S
C858 C862 1.350 . S
C859 C862 1.463 . S
C859 C864 1.350 . S
C859 N867 1.427 . S
C860 H851 0.930 . S
C860 C858 1.378 . S
C860 C861 1.367 . S
C861 C860 1.367 . S
C861 C863 1.433 . S
C862 C858 1.350 . S
C862 C859 1.463 . S
C862 N866 1.427 . S
C863 H853 0.929 . S
C863 C861 1.433 . S
C863 N866 1.384 . S
C864 H855 0.929 . S
C864 C856 1.378 . S
C864 C859 1.350 . S
C865 H852 0.929 . S
C865 C857 1.433 . S
C865 N867 1.384 . S
N866 C862 1.427 . S
N866 C863 1.384 . S
N867 C859 1.427 . S
N867 C865 1.384 . S
H868 C874 0.930 . S
H869 C878 0.930 . S
H870 C883 0.929 . S
H871 C881 0.929 . S
H872 C876 0.929 . S
H873 C882 0.929 . S
C874 H868 0.930 . S
C874 C875 1.367 . S
C874 C882 1.378 . S
C875 C874 1.367 . S
C875 C883 1.433 . S
C876 H872 0.929 . S
C876 C878 1.378 . S
C876 C880 1.350 . S
C877 C880 1.463 . S
C877 C882 1.350 . S
C877 N885 1.427 . S
C878 H869 0.930 . S
C878 C876 1.378 . S
C878 C879 1.367 . S
C879 C878 1.367 . S
C879 C881 1.433 . S
C880 C876 1.350 . S
C880 C877 1.463 . S
C880 N884 1.427 . S
C881 H871 0.929 . S
C881 C879 1.433 . S
C881 N884 1.384 . S
C882 H873 0.929 . S
C882 C874 1.378 . S
C882 C877 1.350 . S
C883 H870 0.929 . S
C883 C875 1.433 . S
C883 N885 1.384 . S
N884 C880 1.427 . S
N884 C881 1.384 . S
N885 C877 1.427 . S
N885 C883 1.384 . S
H886 C892 0.930 . S
H887 C896 0.930 . S
H888 C901 0.929 . S
H889 C899 0.929 . S
H890 C894 0.929 . S
H891 C900 0.929 . S
C892 H886 0.930 . S
C892 C893 1.367 . S
C892 C900 1.378 . S
C893 C892 1.367 . S
C893 C901 1.433 . S
C894 H890 0.929 . S
C894 C896 1.378 . S
C894 C898 1.350 . S
C895 C898 1.463 . S
C895 C900 1.350 . S
C895 N903 1.427 . S
C896 H887 0.930 . S
C896 C894 1.378 . S
C896 C897 1.367 1_545 S
C897 C896 1.367 1_565 S
C897 C899 1.433 . S
C898 C894 1.350 . S
C898 C895 1.463 . S
C898 N902 1.427 . S
C899 H889 0.929 . S
C899 C897 1.433 . S
C899 N902 1.384 1_565 S
C900 H891 0.929 . S
C900 C892 1.378 . S
C900 C895 1.350 . S
C901 H888 0.929 . S
C901 C893 1.433 . S
C901 N903 1.384 . S
N902 C898 1.427 . S
N902 C899 1.384 1_545 S
N903 C895 1.427 . S
N903 C901 1.384 . S
H904 C910 0.930 . S
H905 C914 0.930 . S
H906 C919 0.929 . S
H907 C917 0.929 . S
H908 C912 0.929 . S
H909 C918 0.929 . S
C910 H904 0.930 . S
C910 C911 1.367 . S
C910 C918 1.378 . S
C911 C910 1.367 . S
C911 C919 1.433 . S
C912 H908 0.929 . S
C912 C914 1.378 . S
C912 C916 1.350 . S
C913 C916 1.463 . S
C913 C918 1.350 . S
C913 N921 1.427 . S
C914 H905 0.930 . S
C914 C912 1.378 . S
C914 C915 1.367 . S
C915 C914 1.367 . S
C915 C917 1.433 . S
C916 C912 1.350 . S
C916 C913 1.463 . S
C916 N920 1.427 . S
C917 H907 0.929 . S
C917 C915 1.433 . S
C917 N920 1.384 . S
C918 H909 0.929 . S
C918 C910 1.378 . S
C918 C913 1.350 . S
C919 H906 0.929 . S
C919 C911 1.433 . S
C919 N921 1.384 . S
N920 C916 1.427 . S
N920 C917 1.384 . S
N921 C913 1.427 . S
N921 C919 1.384 . S
H922 C928 0.930 . S
H923 C932 0.930 . S
H924 C937 0.929 . S
H925 C935 0.929 . S
H926 C930 0.929 . S
H927 C936 0.929 . S
C928 H922 0.930 . S
C928 C929 1.367 . S
C928 C936 1.378 . S
C929 C928 1.367 . S
C929 C937 1.433 . S
C930 H926 0.929 . S
C930 C932 1.378 . S
C930 C934 1.350 . S
C931 C934 1.463 . S
C931 C936 1.350 . S
C931 N939 1.427 . S
C932 H923 0.930 . S
C932 C930 1.378 . S
C932 C933 1.367 . S
C933 C932 1.367 . S
C933 C935 1.433 . S
C934 C930 1.350 . S
C934 C931 1.463 . S
C934 N938 1.427 . S
C935 H925 0.929 . S
C935 C933 1.433 . S
C935 N938 1.384 . S
C936 H927 0.929 . S
C936 C928 1.378 . S
C936 C931 1.350 . S
C937 H924 0.929 . S
C937 C929 1.433 . S
C937 N939 1.384 . S
N938 C934 1.427 . S
N938 C935 1.384 . S
N939 C931 1.427 . S
N939 C937 1.384 . S
H940 C946 0.930 . S
H941 C950 0.930 . S
H942 C955 0.929 . S
H943 C953 0.929 . S
H944 C948 0.929 . S
H945 C954 0.929 . S
C946 H940 0.930 . S
C946 C947 1.367 . S
C946 C954 1.378 . S
C947 C946 1.367 . S
C947 C955 1.433 . S
C948 H944 0.929 . S
C948 C950 1.378 . S
C948 C952 1.350 . S
C949 C952 1.463 . S
C949 C954 1.350 . S
C949 N957 1.427 . S
C950 H941 0.930 . S
C950 C948 1.378 . S
C950 C951 1.367 . S
C951 C950 1.367 . S
C951 C953 1.433 . S
C952 C948 1.350 . S
C952 C949 1.463 . S
C952 N956 1.427 . S
C953 H943 0.929 . S
C953 C951 1.433 . S
C953 N956 1.384 . S
C954 H945 0.929 . S
C954 C946 1.378 . S
C954 C949 1.350 . S
C955 H942 0.929 . S
C955 C947 1.433 . S
C955 N957 1.384 . S
N956 C952 1.427 . S
N956 C953 1.384 . S
N957 C949 1.427 . S
N957 C955 1.384 . S
H958 C964 0.930 . S
H959 C968 0.930 . S
H960 C973 0.929 . S
H961 C971 0.929 . S
H962 C966 0.929 . S
H963 C972 0.929 . S
C964 H958 0.930 . S
C964 C965 1.367 . S
C964 C972 1.378 . S
C965 C964 1.367 . S
C965 C973 1.433 . S
C966 H962 0.929 . S
C966 C968 1.378 . S
C966 C970 1.350 . S
C967 C970 1.463 . S
C967 C972 1.350 . S
C967 N975 1.427 . S
C968 H959 0.930 . S
C968 C966 1.378 . S
C968 C969 1.367 1_545 S
C969 C968 1.367 1_565 S
C969 C971 1.433 . S
C970 C966 1.350 . S
C970 C967 1.463 . S
C970 N974 1.427 . S
C971 H961 0.929 . S
C971 C969 1.433 . S
C971 N974 1.384 1_565 S
C972 H963 0.929 . S
C972 C964 1.378 . S
C972 C967 1.350 . S
C973 H960 0.929 . S
C973 C965 1.433 . S
C973 N975 1.384 . S
N974 C970 1.427 . S
N974 C971 1.384 1_545 S
N975 C967 1.427 . S
N975 C973 1.384 . S
H976 C982 0.930 . S
H977 C986 0.930 . S
H978 C991 0.929 . S
H979 C989 0.929 . S
H980 C984 0.929 . S
H981 C990 0.929 . S
C982 H976 0.930 . S
C982 C983 1.367 . S
C982 C990 1.378 . S
C983 C982 1.367 . S
C983 C991 1.433 . S
C984 H980 0.929 . S
C984 C986 1.378 . S
C984 C988 1.350 . S
C985 C988 1.463 . S
C985 C990 1.350 . S
C985 N993 1.427 . S
C986 H977 0.930 . S
C986 C984 1.378 . S
C986 C987 1.367 . S
C987 C986 1.367 . S
C987 C989 1.433 . S
C988 C984 1.350 . S
C988 C985 1.463 . S
C988 N992 1.427 . S
C989 H979 0.929 . S
C989 C987 1.433 . S
C989 N992 1.384 . S
C990 H981 0.929 . S
C990 C982 1.378 . S
C990 C985 1.350 . S
C991 H978 0.929 . S
C991 C983 1.433 . S
C991 N993 1.384 . S
N992 C988 1.427 . S
N992 C989 1.384 . S
N993 C985 1.427 . S
N993 C991 1.384 . S
H994 C1000 0.930 . S
H995 C1004 0.930 . S
H996 C1009 0.929 . S
H997 C1007 0.929 . S
H998 C1002 0.929 . S
H999 C1008 0.929 . S
C1000 H994 0.930 . S
C1000 C1001 1.367 . S
C1000 C1008 1.378 . S
C1001 C1000 1.367 . S
C1001 C1009 1.433 . S
C1002 H998 0.929 . S
C1002 C1004 1.378 . S
C1002 C1006 1.350 . S
C1003 C1006 1.463 . S
C1003 C1008 1.350 . S
C1003 N1011 1.427 . S
C1004 H995 0.930 . S
C1004 C1002 1.378 . S
C1004 C1005 1.367 . S
C1005 C1004 1.367 . S
C1005 C1007 1.433 . S
C1006 C1002 1.350 . S
C1006 C1003 1.463 . S
C1006 N1010 1.427 . S
C1007 H997 0.929 . S
C1007 C1005 1.433 . S
C1007 N1010 1.384 . S
C1008 H999 0.929 . S
C1008 C1000 1.378 . S
C1008 C1003 1.350 . S
C1009 H996 0.929 . S
C1009 C1001 1.433 . S
C1009 N1011 1.384 . S
N1010 C1006 1.427 . S
N1010 C1007 1.384 . S
N1011 C1003 1.427 . S
N1011 C1009 1.384 . S
H1012 C1018 0.930 . S
H1013 C1022 0.930 . S
H1014 C1027 0.929 . S
H1015 C1025 0.929 . S
H1016 C1020 0.929 . S
H1017 C1026 0.931 . S
C1018 H1012 0.930 . S
C1018 C1019 1.367 . S
C1018 C1026 1.377 1_554 S
C1019 C1018 1.367 . S
C1019 C1027 1.433 . S
C1020 H1016 0.929 . S
C1020 C1022 1.378 . S
C1020 C1024 1.350 . S
C1021 C1024 1.463 . S
C1021 C1026 1.348 1_554 S
C1021 N1029 1.427 . S
C1022 H1013 0.930 . S
C1022 C1020 1.378 . S
C1022 C1023 1.367 1_554 S
C1023 C1022 1.367 1_556 S
C1023 C1025 1.433 . S
C1024 C1020 1.350 . S
C1024 C1021 1.463 . S
C1024 N1028 1.427 1_554 S
C1025 H1015 0.929 . S
C1025 C1023 1.433 . S
C1025 N1028 1.384 . S
C1026 H1017 0.931 . S
C1026 C1018 1.377 1_556 S
C1026 C1021 1.348 1_556 S
C1027 H1014 0.929 . S
C1027 C1019 1.433 . S
C1027 N1029 1.384 . S
N1028 C1024 1.427 1_556 S
N1028 C1025 1.384 . S
N1029 C1021 1.427 . S
N1029 C1027 1.384 . S
H1030 C1036 0.930 . S
H1031 C1040 0.930 . S
H1032 C1045 0.929 . S
H1033 C1043 0.929 . S
H1034 C1038 0.929 . S
H1035 C1044 0.929 . S
C1036 H1030 0.930 . S
C1036 C1037 1.367 . S
C1036 C1044 1.378 . S
C1037 C1036 1.367 . S
C1037 C1045 1.433 . S
C1038 H1034 0.929 . S
C1038 C1040 1.378 . S
C1038 C1042 1.350 . S
C1039 C1042 1.463 . S
C1039 C1044 1.350 . S
C1039 N1047 1.427 . S
C1040 H1031 0.930 . S
C1040 C1038 1.378 . S
C1040 C1041 1.367 . S
C1041 C1040 1.367 . S
C1041 C1043 1.433 . S
C1042 C1038 1.350 . S
C1042 C1039 1.463 . S
C1042 N1046 1.427 . S
C1043 H1033 0.929 . S
C1043 C1041 1.433 . S
C1043 N1046 1.384 . S
C1044 H1035 0.929 . S
C1044 C1036 1.378 . S
C1044 C1039 1.350 . S
C1045 H1032 0.929 . S
C1045 C1037 1.433 . S
C1045 N1047 1.384 . S
N1046 C1042 1.427 . S
N1046 C1043 1.384 . S
N1047 C1039 1.427 . S
N1047 C1045 1.384 . S
H1048 C1054 0.930 . S
H1049 C1058 0.930 . S
H1050 C1063 0.929 . S
H1051 C1061 0.929 . S
H1052 C1056 0.929 . S
H1053 C1062 0.929 . S
C1054 H1048 0.930 . S
C1054 C1055 1.367 . S
C1054 C1062 1.378 . S
C1055 C1054 1.367 . S
C1055 C1063 1.433 . S
C1056 H1052 0.929 . S
C1056 C1058 1.378 . S
C1056 C1060 1.350 . S
C1057 C1060 1.463 . S
C1057 C1062 1.350 . S
C1057 N1065 1.427 . S
C1058 H1049 0.930 . S
C1058 C1056 1.378 . S
C1058 C1059 1.367 . S
C1059 C1058 1.367 . S
C1059 C1061 1.433 . S
C1060 C1056 1.350 . S
C1060 C1057 1.463 . S
C1060 N1064 1.427 . S
C1061 H1051 0.929 . S
C1061 C1059 1.433 . S
C1061 N1064 1.384 . S
C1062 H1053 0.929 . S
C1062 C1054 1.378 . S
C1062 C1057 1.350 . S
C1063 H1050 0.929 . S
C1063 C1055 1.433 . S
C1063 N1065 1.384 . S
N1064 C1060 1.427 . S
N1064 C1061 1.384 . S
N1065 C1057 1.427 . S
N1065 C1063 1.384 . S
H1066 C1072 0.930 . S
H1067 C1076 0.930 . S
H1068 C1081 0.929 . S
H1069 C1079 0.929 . S
H1070 C1074 0.929 . S
H1071 C1080 0.929 . S
C1072 H1066 0.930 . S
C1072 C1073 1.367 . S
C1072 C1080 1.378 . S
C1073 C1072 1.367 . S
C1073 C1081 1.433 . S
C1074 H1070 0.929 . S
C1074 C1076 1.378 . S
C1074 C1078 1.350 . S
C1075 C1078 1.463 . S
C1075 C1080 1.350 . S
C1075 N1083 1.427 . S
C1076 H1067 0.930 . S
C1076 C1074 1.378 . S
C1076 C1077 1.367 . S
C1077 C1076 1.367 . S
C1077 C1079 1.433 . S
C1078 C1074 1.350 . S
C1078 C1075 1.463 . S
C1078 N1082 1.427 . S
C1079 H1069 0.929 . S
C1079 C1077 1.433 . S
C1079 N1082 1.384 . S
C1080 H1071 0.929 . S
C1080 C1072 1.378 . S
C1080 C1075 1.350 . S
C1081 H1068 0.929 . S
C1081 C1073 1.433 . S
C1081 N1083 1.384 . S
N1082 C1078 1.427 . S
N1082 C1079 1.384 . S
N1083 C1075 1.427 . S
N1083 C1081 1.384 . S
H1084 C1090 0.930 . S
H1085 C1094 0.921 1_455 S
H1086 C1099 0.929 . S
H1087 C1097 0.929 . S
H1088 C1092 0.929 . S
H1089 C1098 0.929 . S
C1090 H1084 0.930 . S
C1090 C1091 1.367 . S
C1090 C1098 1.378 . S
C1091 C1090 1.367 . S
C1091 C1099 1.433 . S
C1092 H1088 0.929 . S
C1092 C1094 1.402 . S
C1092 C1096 1.350 . S
C1093 C1096 1.463 . S
C1093 C1098 1.350 . S
C1093 N1101 1.427 . S
C1094 H1085 0.921 1_655 S
C1094 C1092 1.402 . S
C1094 C1095 1.353 1_655 S
C1095 C1094 1.353 1_455 S
C1095 C1097 1.433 . S
C1096 C1092 1.350 . S
C1096 C1093 1.463 . S
C1096 N1100 1.427 . S
C1097 H1087 0.929 . S
C1097 C1095 1.433 . S
C1097 N1100 1.384 1_455 S
C1098 H1089 0.929 . S
C1098 C1090 1.378 . S
C1098 C1093 1.350 . S
C1099 H1086 0.929 . S
C1099 C1091 1.433 . S
C1099 N1101 1.384 . S
N1100 C1096 1.427 . S
N1100 C1097 1.384 1_655 S
N1101 C1093 1.427 . S
N1101 C1099 1.384 . S
H1102 C1108 0.930 . S
H1103 C1112 0.930 . S
H1104 C1117 0.929 . S
H1105 C1115 0.929 . S
H1106 C1110 0.929 . S
H1107 C1116 0.929 . S
C1108 H1102 0.930 . S
C1108 C1109 1.367 . S
C1108 C1116 1.378 . S
C1109 C1108 1.367 . S
C1109 C1117 1.433 . S
C1110 H1106 0.929 . S
C1110 C1112 1.378 . S
C1110 C1114 1.350 . S
C1111 C1114 1.463 . S
C1111 C1116 1.350 . S
C1111 N1119 1.427 . S
C1112 H1103 0.930 . S
C1112 C1110 1.378 . S
C1112 C1113 1.367 . S
C1113 C1112 1.367 . S
C1113 C1115 1.433 . S
C1114 C1110 1.350 . S
C1114 C1111 1.463 . S
C1114 N1118 1.427 . S
C1115 H1105 0.929 . S
C1115 C1113 1.433 . S
C1115 N1118 1.384 . S
C1116 H1107 0.929 . S
C1116 C1108 1.378 . S
C1116 C1111 1.350 . S
C1117 H1104 0.929 . S
C1117 C1109 1.433 . S
C1117 N1119 1.384 . S
N1118 C1114 1.427 . S
N1118 C1115 1.384 . S
N1119 C1111 1.427 . S
N1119 C1117 1.384 . S
H1120 C1126 0.930 . S
H1121 C1130 0.930 . S
H1122 C1135 0.929 . S
H1123 C1133 0.929 . S
H1124 C1128 0.929 . S
H1125 C1134 0.929 . S
C1126 H1120 0.930 . S
C1126 C1127 1.367 . S
C1126 C1134 1.378 . S
C1127 C1126 1.367 . S
C1127 C1135 1.433 . S
C1128 H1124 0.929 . S
C1128 C1130 1.378 . S
C1128 C1132 1.350 . S
C1129 C1132 1.463 . S
C1129 C1134 1.350 . S
C1129 N1137 1.427 . S
C1130 H1121 0.930 . S
C1130 C1128 1.378 . S
C1130 C1131 1.367 . S
C1131 C1130 1.367 . S
C1131 C1133 1.433 . S
C1132 C1128 1.350 . S
C1132 C1129 1.463 . S
C1132 N1136 1.427 . S
C1133 H1123 0.929 . S
C1133 C1131 1.433 . S
C1133 N1136 1.384 . S
C1134 H1125 0.929 . S
C1134 C1126 1.378 . S
C1134 C1129 1.350 . S
C1135 H1122 0.929 . S
C1135 C1127 1.433 . S
C1135 N1137 1.384 . S
N1136 C1132 1.427 . S
N1136 C1133 1.384 . S
N1137 C1129 1.427 . S
N1137 C1135 1.384 . S
H1138 C1144 0.930 . S
H1139 C1148 0.930 . S
H1140 C1153 0.929 . S
H1141 C1151 0.929 . S
H1142 C1146 0.929 . S
H1143 C1152 0.929 . S
C1144 H1138 0.930 . S
C1144 C1145 1.367 . S
C1144 C1152 1.378 . S
C1145 C1144 1.367 . S
C1145 C1153 1.433 . S
C1146 H1142 0.929 . S
C1146 C1148 1.378 . S
C1146 C1150 1.350 . S
C1147 C1150 1.463 . S
C1147 C1152 1.350 . S
C1147 N1155 1.427 . S
C1148 H1139 0.930 . S
C1148 C1146 1.378 . S
C1148 C1149 1.367 . S
C1149 C1148 1.367 . S
C1149 C1151 1.433 . S
C1150 C1146 1.350 . S
C1150 C1147 1.463 . S
C1150 N1154 1.427 . S
C1151 H1141 0.929 . S
C1151 C1149 1.433 . S
C1151 N1154 1.384 . S
C1152 H1143 0.929 . S
C1152 C1144 1.378 . S
C1152 C1147 1.350 . S
C1153 H1140 0.929 . S
C1153 C1145 1.433 . S
C1153 N1155 1.384 . S
N1154 C1150 1.427 . S
N1154 C1151 1.384 . S
N1155 C1147 1.427 . S
N1155 C1153 1.384 . S
H1156 C1162 0.930 . S
H1157 C1166 0.930 . S
H1158 C1171 0.929 . S
H1159 C1169 0.929 . S
H1160 C1164 0.929 . S
H1161 C1170 0.929 . S
C1162 H1156 0.930 . S
C1162 C1163 1.367 . S
C1162 C1170 1.378 . S
C1163 C1162 1.367 . S
C1163 C1171 1.433 . S
C1164 H1160 0.929 . S
C1164 C1166 1.378 . S
C1164 C1168 1.350 . S
C1165 C1168 1.463 . S
C1165 C1170 1.350 . S
C1165 N1173 1.427 . S
C1166 H1157 0.930 . S
C1166 C1164 1.378 . S
C1166 C1167 1.367 . S
C1167 C1166 1.367 . S
C1167 C1169 1.433 . S
C1168 C1164 1.350 . S
C1168 C1165 1.463 . S
C1168 N1172 1.427 . S
C1169 H1159 0.929 . S
C1169 C1167 1.433 . S
C1169 N1172 1.384 . S
C1170 H1161 0.929 . S
C1170 C1162 1.378 . S
C1170 C1165 1.350 . S
C1171 H1158 0.929 . S
C1171 C1163 1.433 . S
C1171 N1173 1.384 . S
N1172 C1168 1.427 . S
N1172 C1169 1.384 . S
N1173 C1165 1.427 . S
N1173 C1171 1.384 . S
H1174 C1180 0.930 . S
H1175 C1184 0.930 . S
H1176 C1189 0.929 . S
H1177 C1187 0.929 . S
H1178 C1182 0.929 . S
H1179 C1188 0.929 . S
C1180 H1174 0.930 . S
C1180 C1181 1.367 . S
C1180 C1188 1.378 . S
C1181 C1180 1.367 . S
C1181 C1189 1.433 . S
C1182 H1178 0.929 . S
C1182 C1184 1.378 1_554 S
C1182 C1186 1.350 . S
C1183 C1186 1.463 . S
C1183 C1188 1.350 . S
C1183 N1191 1.427 . S
C1184 H1175 0.930 . S
C1184 C1182 1.378 1_556 S
C1184 C1185 1.367 . S
C1185 C1184 1.367 . S
C1185 C1187 1.433 1_556 S
C1186 C1182 1.350 . S
C1186 C1183 1.463 . S
C1186 N1190 1.427 . S
C1187 H1177 0.929 . S
C1187 C1185 1.433 1_554 S
C1187 N1190 1.384 . S
C1188 H1179 0.929 . S
C1188 C1180 1.378 . S
C1188 C1183 1.350 . S
C1189 H1176 0.929 . S
C1189 C1181 1.433 . S
C1189 N1191 1.384 . S
N1190 C1186 1.427 . S
N1190 C1187 1.384 . S
N1191 C1183 1.427 . S
N1191 C1189 1.384 . S
H1192 C1198 0.930 . S
H1193 C1202 0.930 . S
H1194 C1207 0.929 . S
H1195 C1205 0.929 . S
H1196 C1200 0.929 . S
H1197 C1206 0.929 . S
C1198 H1192 0.930 . S
C1198 C1199 1.367 . S
C1198 C1206 1.378 . S
C1199 C1198 1.367 . S
C1199 C1207 1.433 . S
C1200 H1196 0.929 . S
C1200 C1202 1.378 . S
C1200 C1204 1.350 . S
C1201 C1204 1.463 . S
C1201 C1206 1.350 . S
C1201 N1209 1.427 . S
C1202 H1193 0.930 . S
C1202 C1200 1.378 . S
C1202 C1203 1.367 . S
C1203 C1202 1.367 . S
C1203 C1205 1.433 . S
C1204 C1200 1.350 . S
C1204 C1201 1.463 . S
C1204 N1208 1.427 . S
C1205 H1195 0.929 . S
C1205 C1203 1.433 . S
C1205 N1208 1.384 . S
C1206 H1197 0.929 . S
C1206 C1198 1.378 . S
C1206 C1201 1.350 . S
C1207 H1194 0.929 . S
C1207 C1199 1.433 . S
C1207 N1209 1.384 . S
N1208 C1204 1.427 . S
N1208 C1205 1.384 . S
N1209 C1201 1.427 . S
N1209 C1207 1.384 . S
H1210 C1216 0.930 . S
H1211 C1220 0.930 . S
H1212 C1225 0.929 . S
H1213 C1223 0.929 1_556 S
H1214 C1218 0.929 . S
H1215 C1224 0.929 . S
C1216 H1210 0.930 . S
C1216 C1217 1.367 . S
C1216 C1224 1.378 . S
C1217 C1216 1.367 . S
C1217 C1225 1.433 . S
C1218 H1214 0.929 . S
C1218 C1220 1.378 . S
C1218 C1222 1.350 . S
C1219 C1222 1.463 . S
C1219 C1224 1.350 . S
C1219 N1227 1.427 . S
C1220 H1211 0.930 . S
C1220 C1218 1.378 . S
C1220 C1221 1.367 1_554 S
C1221 C1220 1.367 1_556 S
C1221 C1223 1.433 1_556 S
C1222 C1218 1.350 . S
C1222 C1219 1.463 . S
C1222 N1226 1.427 . S
C1223 H1213 0.929 1_554 S
C1223 C1221 1.433 1_554 S
C1223 N1226 1.384 . S
C1224 H1215 0.929 . S
C1224 C1216 1.378 . S
C1224 C1219 1.350 . S
C1225 H1212 0.929 . S
C1225 C1217 1.433 . S
C1225 N1227 1.384 . S
N1226 C1222 1.427 . S
N1226 C1223 1.384 . S
N1227 C1219 1.427 . S
N1227 C1225 1.384 . S
H1228 C1234 0.930 . S
H1229 C1238 0.930 . S
H1230 C1243 0.929 . S
H1231 C1241 0.929 . S
H1232 C1236 0.929 . S
H1233 C1242 0.929 . S
C1234 H1228 0.930 . S
C1234 C1235 1.367 . S
C1234 C1242 1.378 . S
C1235 C1234 1.367 . S
C1235 C1243 1.433 . S
C1236 H1232 0.929 . S
C1236 C1238 1.378 . S
C1236 C1240 1.350 . S
C1237 C1240 1.463 . S
C1237 C1242 1.350 . S
C1237 N1245 1.427 . S
C1238 H1229 0.930 . S
C1238 C1236 1.378 . S
C1238 C1239 1.367 . S
C1239 C1238 1.367 . S
C1239 C1241 1.433 . S
C1240 C1236 1.350 . S
C1240 C1237 1.463 . S
C1240 N1244 1.427 . S
C1241 H1231 0.929 . S
C1241 C1239 1.433 . S
C1241 N1244 1.384 . S
C1242 H1233 0.929 . S
C1242 C1234 1.378 . S
C1242 C1237 1.350 . S
C1243 H1230 0.929 . S
C1243 C1235 1.433 . S
C1243 N1245 1.384 . S
N1244 C1240 1.427 . S
N1244 C1241 1.384 . S
N1245 C1237 1.427 . S
N1245 C1243 1.384 . S
H1246 C1252 0.930 . S
H1247 C1256 0.930 . S
H1248 C1261 0.929 . S
H1249 C1259 0.929 . S
H1250 C1254 0.929 . S
H1251 C1260 0.929 . S
C1252 H1246 0.930 . S
C1252 C1253 1.367 . S
C1252 C1260 1.378 . S
C1253 C1252 1.367 . S
C1253 C1261 1.433 . S
C1254 H1250 0.929 . S
C1254 C1256 1.378 . S
C1254 C1258 1.350 . S
C1255 C1258 1.463 . S
C1255 C1260 1.350 . S
C1255 N1263 1.427 . S
C1256 H1247 0.930 . S
C1256 C1254 1.378 . S
C1256 C1257 1.367 1_556 S
C1257 C1256 1.367 1_554 S
C1257 C1259 1.433 . S
C1258 C1254 1.350 . S
C1258 C1255 1.463 . S
C1258 N1262 1.427 . S
C1259 H1249 0.929 . S
C1259 C1257 1.433 . S
C1259 N1262 1.384 1_554 S
C1260 H1251 0.929 . S
C1260 C1252 1.378 . S
C1260 C1255 1.350 . S
C1261 H1248 0.929 . S
C1261 C1253 1.433 . S
C1261 N1263 1.384 . S
N1262 C1258 1.427 . S
N1262 C1259 1.384 1_556 S
N1263 C1255 1.427 . S
N1263 C1261 1.384 . S
H1264 C1270 0.930 . S
H1265 C1274 0.930 . S
H1266 C1279 0.929 . S
H1267 C1277 0.929 . S
H1268 C1272 0.929 . S
H1269 C1278 0.929 . S
C1270 H1264 0.930 . S
C1270 C1271 1.367 . S
C1270 C1278 1.378 . S
C1271 C1270 1.367 . S
C1271 C1279 1.433 . S
C1272 H1268 0.929 . S
C1272 C1274 1.378 . S
C1272 C1276 1.350 . S
C1273 C1276 1.463 . S
C1273 C1278 1.350 . S
C1273 N1281 1.427 . S
C1274 H1265 0.930 . S
C1274 C1272 1.378 . S
C1274 C1275 1.367 . S
C1275 C1274 1.367 . S
C1275 C1277 1.433 . S
C1276 C1272 1.350 . S
C1276 C1273 1.463 . S
C1276 N1280 1.427 . S
C1277 H1267 0.929 . S
C1277 C1275 1.433 . S
C1277 N1280 1.384 . S
C1278 H1269 0.929 . S
C1278 C1270 1.378 . S
C1278 C1273 1.350 . S
C1279 H1266 0.929 . S
C1279 C1271 1.433 . S
C1279 N1281 1.384 . S
N1280 C1276 1.427 . S
N1280 C1277 1.384 . S
N1281 C1273 1.427 . S
N1281 C1279 1.384 . S
H1282 C1288 0.930 . S
H1283 C1292 0.929 1_554 S
H1284 C1297 0.929 . S
H1285 C1295 0.929 . S
H1286 C1290 0.929 . S
H1287 C1296 0.929 . S
C1288 H1282 0.930 . S
C1288 C1289 1.367 . S
C1288 C1296 1.378 . S
C1289 C1288 1.367 . S
C1289 C1297 1.433 . S
C1290 H1286 0.929 . S
C1290 C1292 1.378 . S
C1290 C1294 1.350 . S
C1291 C1294 1.463 . S
C1291 C1296 1.350 . S
C1291 N1299 1.427 . S
C1292 H1283 0.929 1_556 S
C1292 C1290 1.378 . S
C1292 C1293 1.367 1_556 S
C1293 C1292 1.367 1_554 S
C1293 C1295 1.433 . S
C1294 C1290 1.350 . S
C1294 C1291 1.463 . S
C1294 N1298 1.427 . S
C1295 H1285 0.929 . S
C1295 C1293 1.433 . S
C1295 N1298 1.384 1_554 S
C1296 H1287 0.929 . S
C1296 C1288 1.378 . S
C1296 C1291 1.350 . S
C1297 H1284 0.929 . S
C1297 C1289 1.433 . S
C1297 N1299 1.384 . S
N1298 C1294 1.427 . S
N1298 C1295 1.384 1_556 S
N1299 C1291 1.427 . S
N1299 C1297 1.384 . S
H1300 C1306 0.930 . S
H1301 C1310 0.930 . S
H1302 C1315 0.929 . S
H1303 C1313 0.929 . S
H1304 C1308 0.929 . S
H1305 C1314 0.929 . S
C1306 H1300 0.930 . S
C1306 C1307 1.367 . S
C1306 C1314 1.378 . S
C1307 C1306 1.367 . S
C1307 C1315 1.433 . S
C1308 H1304 0.929 . S
C1308 C1310 1.378 . S
C1308 C1312 1.350 . S
C1309 C1312 1.463 . S
C1309 C1314 1.350 . S
C1309 N1317 1.427 . S
C1310 H1301 0.930 . S
C1310 C1308 1.378 . S
C1310 C1311 1.367 . S
C1311 C1310 1.367 . S
C1311 C1313 1.433 . S
C1312 C1308 1.350 . S
C1312 C1309 1.463 . S
C1312 N1316 1.427 . S
C1313 H1303 0.929 . S
C1313 C1311 1.433 . S
C1313 N1316 1.384 . S
C1314 H1305 0.929 . S
C1314 C1306 1.378 . S
C1314 C1309 1.350 . S
C1315 H1302 0.929 . S
C1315 C1307 1.433 . S
C1315 N1317 1.384 . S
N1316 C1312 1.427 . S
N1316 C1313 1.384 . S
N1317 C1309 1.427 . S
N1317 C1315 1.384 . S
H1318 C1324 0.930 . S
H1319 C1328 0.930 . S
H1320 C1333 0.929 . S
H1321 C1331 0.929 . S
H1322 C1326 0.929 . S
H1323 C1332 0.929 . S
C1324 H1318 0.930 . S
C1324 C1325 1.367 . S
C1324 C1332 1.378 . S
C1325 C1324 1.367 . S
C1325 C1333 1.433 . S
C1326 H1322 0.929 . S
C1326 C1328 1.378 . S
C1326 C1330 1.350 . S
C1327 C1330 1.463 . S
C1327 C1332 1.350 . S
C1327 N1335 1.427 . S
C1328 H1319 0.930 . S
C1328 C1326 1.378 . S
C1328 C1329 1.367 . S
C1329 C1328 1.367 . S
C1329 C1331 1.433 . S
C1330 C1326 1.350 . S
C1330 C1327 1.463 . S
C1330 N1334 1.427 . S
C1331 H1321 0.929 . S
C1331 C1329 1.433 . S
C1331 N1334 1.384 . S
C1332 H1323 0.929 . S
C1332 C1324 1.378 . S
C1332 C1327 1.350 . S
C1333 H1320 0.929 . S
C1333 C1325 1.433 . S
C1333 N1335 1.384 . S
N1334 C1330 1.427 . S
N1334 C1331 1.384 . S
N1335 C1327 1.427 . S
N1335 C1333 1.384 . S
H1336 C1342 0.930 . S
H1337 C1346 0.930 . S
H1338 C1351 0.929 . S
H1339 C1349 0.929 . S
H1340 C1344 0.929 . S
H1341 C1350 0.929 . S
C1342 H1336 0.930 . S
C1342 C1343 1.367 . S
C1342 C1350 1.378 . S
C1343 C1342 1.367 . S
C1343 C1351 1.433 . S
C1344 H1340 0.929 . S
C1344 C1346 1.378 . S
C1344 C1348 1.350 . S
C1345 C1348 1.463 . S
C1345 C1350 1.350 . S
C1345 N1353 1.427 . S
C1346 H1337 0.930 . S
C1346 C1344 1.378 . S
C1346 C1347 1.367 . S
C1347 C1346 1.367 . S
C1347 C1349 1.433 . S
C1348 C1344 1.350 . S
C1348 C1345 1.463 . S
C1348 N1352 1.427 . S
C1349 H1339 0.929 . S
C1349 C1347 1.433 . S
C1349 N1352 1.384 . S
C1350 H1341 0.929 . S
C1350 C1342 1.378 . S
C1350 C1345 1.350 . S
C1351 H1338 0.929 . S
C1351 C1343 1.433 . S
C1351 N1353 1.384 . S
N1352 C1348 1.427 . S
N1352 C1349 1.384 . S
N1353 C1345 1.427 . S
N1353 C1351 1.384 . S
H1354 C1360 0.930 . S
H1355 C1364 0.930 . S
H1356 C1369 0.929 . S
H1357 C1367 0.929 . S
H1358 C1362 0.929 . S
H1359 C1368 0.929 . S
C1360 H1354 0.930 . S
C1360 C1361 1.367 . S
C1360 C1368 1.378 . S
C1361 C1360 1.367 . S
C1361 C1369 1.433 . S
C1362 H1358 0.929 . S
C1362 C1364 1.378 . S
C1362 C1366 1.350 . S
C1363 C1366 1.463 . S
C1363 C1368 1.350 . S
C1363 N1371 1.427 . S
C1364 H1355 0.930 . S
C1364 C1362 1.378 . S
C1364 C1365 1.367 1_565 S
C1365 C1364 1.367 1_545 S
C1365 C1367 1.433 . S
C1366 C1362 1.350 . S
C1366 C1363 1.463 . S
C1366 N1370 1.427 . S
C1367 H1357 0.929 . S
C1367 C1365 1.433 . S
C1367 N1370 1.384 1_545 S
C1368 H1359 0.929 . S
C1368 C1360 1.378 . S
C1368 C1363 1.350 . S
C1369 H1356 0.929 . S
C1369 C1361 1.433 . S
C1369 N1371 1.384 . S
N1370 C1366 1.427 . S
N1370 C1367 1.384 1_565 S
N1371 C1363 1.427 . S
N1371 C1369 1.384 . S
H1372 C1378 0.930 . S
H1373 C1382 0.930 . S
H1374 C1387 0.929 . S
H1375 C1385 0.929 . S
H1376 C1380 0.929 . S
H1377 C1386 0.929 . S
C1378 H1372 0.930 . S
C1378 C1379 1.367 . S
C1378 C1386 1.378 . S
C1379 C1378 1.367 . S
C1379 C1387 1.433 . S
C1380 H1376 0.929 . S
C1380 C1382 1.378 . S
C1380 C1384 1.350 . S
C1381 C1384 1.463 . S
C1381 C1386 1.350 . S
C1381 N1389 1.427 . S
C1382 H1373 0.930 . S
C1382 C1380 1.378 . S
C1382 C1383 1.367 . S
C1383 C1382 1.367 . S
C1383 C1385 1.433 . S
C1384 C1380 1.350 . S
C1384 C1381 1.463 . S
C1384 N1388 1.427 . S
C1385 H1375 0.929 . S
C1385 C1383 1.433 . S
C1385 N1388 1.384 . S
C1386 H1377 0.929 . S
C1386 C1378 1.378 . S
C1386 C1381 1.350 . S
C1387 H1374 0.929 . S
C1387 C1379 1.433 . S
C1387 N1389 1.384 . S
N1388 C1384 1.427 . S
N1388 C1385 1.384 . S
N1389 C1381 1.427 . S
N1389 C1387 1.384 . S
H1390 C1396 0.930 . S
H1391 C1400 0.930 . S
H1392 C1405 0.929 . S
H1393 C1403 0.929 . S
H1394 C1398 0.929 . S
H1395 C1404 0.929 . S
C1396 H1390 0.930 . S
C1396 C1397 1.367 . S
C1396 C1404 1.378 . S
C1397 C1396 1.367 . S
C1397 C1405 1.433 . S
C1398 H1394 0.929 . S
C1398 C1400 1.378 . S
C1398 C1402 1.350 . S
C1399 C1402 1.463 . S
C1399 C1404 1.350 . S
C1399 N1407 1.427 . S
C1400 H1391 0.930 . S
C1400 C1398 1.378 . S
C1400 C1401 1.367 . S
C1401 C1400 1.367 . S
C1401 C1403 1.433 . S
C1402 C1398 1.350 . S
C1402 C1399 1.463 . S
C1402 N1406 1.427 . S
C1403 H1393 0.929 . S
C1403 C1401 1.433 . S
C1403 N1406 1.384 . S
C1404 H1395 0.929 . S
C1404 C1396 1.378 . S
C1404 C1399 1.350 . S
C1405 H1392 0.929 . S
C1405 C1397 1.433 . S
C1405 N1407 1.384 . S
N1406 C1402 1.427 . S
N1406 C1403 1.384 . S
N1407 C1399 1.427 . S
N1407 C1405 1.384 . S
H1408 C1414 0.930 . S
H1409 C1418 0.930 . S
H1410 C1423 0.929 . S
H1411 C1421 0.929 . S
H1412 C1416 0.929 . S
H1413 C1422 0.929 . S
C1414 H1408 0.930 . S
C1414 C1415 1.367 . S
C1414 C1422 1.378 . S
C1415 C1414 1.367 . S
C1415 C1423 1.433 . S
C1416 H1412 0.929 . S
C1416 C1418 1.378 . S
C1416 C1420 1.350 . S
C1417 C1420 1.463 . S
C1417 C1422 1.350 . S
C1417 N1425 1.427 . S
C1418 H1409 0.930 . S
C1418 C1416 1.378 . S
C1418 C1419 1.367 . S
C1419 C1418 1.367 . S
C1419 C1421 1.433 . S
C1420 C1416 1.350 . S
C1420 C1417 1.463 . S
C1420 N1424 1.427 . S
C1421 H1411 0.929 . S
C1421 C1419 1.433 . S
C1421 N1424 1.384 . S
C1422 H1413 0.929 . S
C1422 C1414 1.378 . S
C1422 C1417 1.350 . S
C1423 H1410 0.929 . S
C1423 C1415 1.433 . S
C1423 N1425 1.384 . S
N1424 C1420 1.427 . S
N1424 C1421 1.384 . S
N1425 C1417 1.427 . S
N1425 C1423 1.384 . S
H1426 C1432 0.930 . S
H1427 C1436 0.930 . S
H1428 C1441 0.929 . S
H1429 C1439 0.929 . S
H1430 C1434 0.929 . S
H1431 C1440 0.929 . S
C1432 H1426 0.930 . S
C1432 C1433 1.367 . S
C1432 C1440 1.378 . S
C1433 C1432 1.367 . S
C1433 C1441 1.433 . S
C1434 H1430 0.929 . S
C1434 C1436 1.378 . S
C1434 C1438 1.350 . S
C1435 C1438 1.463 . S
C1435 C1440 1.350 . S
C1435 N1443 1.427 . S
C1436 H1427 0.930 . S
C1436 C1434 1.378 . S
C1436 C1437 1.367 1_565 S
C1437 C1436 1.367 1_545 S
C1437 C1439 1.433 . S
C1438 C1434 1.350 . S
C1438 C1435 1.463 . S
C1438 N1442 1.427 . S
C1439 H1429 0.929 . S
C1439 C1437 1.433 . S
C1439 N1442 1.384 1_545 S
C1440 H1431 0.929 . S
C1440 C1432 1.378 . S
C1440 C1435 1.350 . S
C1441 H1428 0.929 . S
C1441 C1433 1.433 . S
C1441 N1443 1.384 . S
N1442 C1438 1.427 . S
N1442 C1439 1.384 1_565 S
N1443 C1435 1.427 . S
N1443 C1441 1.384 . S
H1444 C1450 0.930 . S
H1445 C1454 0.930 . S
H1446 C1459 0.929 . S
H1447 C1457 0.929 . S
H1448 C1452 0.929 . S
H1449 C1458 0.929 . S
C1450 H1444 0.930 . S
C1450 C1451 1.367 . S
C1450 C1458 1.378 . S
C1451 C1450 1.367 . S
C1451 C1459 1.433 . S
C1452 H1448 0.929 . S
C1452 C1454 1.378 . S
C1452 C1456 1.350 . S
C1453 C1456 1.463 . S
C1453 C1458 1.350 . S
C1453 N1461 1.427 . S
C1454 H1445 0.930 . S
C1454 C1452 1.378 . S
C1454 C1455 1.367 . S
C1455 C1454 1.367 . S
C1455 C1457 1.433 . S
C1456 C1452 1.350 . S
C1456 C1453 1.463 . S
C1456 N1460 1.427 . S
C1457 H1447 0.929 . S
C1457 C1455 1.433 . S
C1457 N1460 1.384 . S
C1458 H1449 0.929 . S
C1458 C1450 1.378 . S
C1458 C1453 1.350 . S
C1459 H1446 0.929 . S
C1459 C1451 1.433 . S
C1459 N1461 1.384 . S
N1460 C1456 1.427 . S
N1460 C1457 1.384 . S
N1461 C1453 1.427 . S
N1461 C1459 1.384 . S
H1462 C1468 0.930 . S
H1463 C1472 0.930 . S
H1464 C1477 0.929 . S
H1465 C1475 0.929 . S
H1466 C1470 0.929 . S
H1467 C1476 0.929 . S
C1468 H1462 0.930 . S
C1468 C1469 1.367 . S
C1468 C1476 1.378 . S
C1469 C1468 1.367 . S
C1469 C1477 1.433 . S
C1470 H1466 0.929 . S
C1470 C1472 1.378 . S
C1470 C1474 1.350 . S
C1471 C1474 1.463 . S
C1471 C1476 1.350 . S
C1471 N1479 1.427 . S
C1472 H1463 0.930 . S
C1472 C1470 1.378 . S
C1472 C1473 1.367 . S
C1473 C1472 1.367 . S
C1473 C1475 1.433 . S
C1474 C1470 1.350 . S
C1474 C1471 1.463 . S
C1474 N1478 1.427 . S
C1475 H1465 0.929 . S
C1475 C1473 1.433 . S
C1475 N1478 1.384 . S
C1476 H1467 0.929 . S
C1476 C1468 1.378 . S
C1476 C1471 1.350 . S
C1477 H1464 0.929 . S
C1477 C1469 1.433 . S
C1477 N1479 1.384 . S
N1478 C1474 1.427 . S
N1478 C1475 1.384 . S
N1479 C1471 1.427 . S
N1479 C1477 1.384 . S
H1480 C1486 0.930 . S
H1481 C1490 0.930 1_655 S
H1482 C1495 0.929 . S
H1483 C1493 0.929 . S
H1484 C1488 0.929 . S
H1485 C1494 0.929 . S
C1486 H1480 0.930 . S
C1486 C1487 1.367 . S
C1486 C1494 1.378 . S
C1487 C1486 1.367 . S
C1487 C1495 1.433 . S
C1488 H1484 0.929 . S
C1488 C1490 1.378 . S
C1488 C1492 1.350 . S
C1489 C1492 1.463 . S
C1489 C1494 1.350 . S
C1489 N1497 1.427 . S
C1490 H1481 0.930 1_455 S
C1490 C1488 1.378 . S
C1490 C1491 1.367 1_455 S
C1491 C1490 1.367 1_655 S
C1491 C1493 1.433 . S
C1492 C1488 1.350 . S
C1492 C1489 1.463 . S
C1492 N1496 1.427 . S
C1493 H1483 0.929 . S
C1493 C1491 1.433 . S
C1493 N1496 1.384 1_655 S
C1494 H1485 0.929 . S
C1494 C1486 1.378 . S
C1494 C1489 1.350 . S
C1495 H1482 0.929 . S
C1495 C1487 1.433 . S
C1495 N1497 1.384 . S
N1496 C1492 1.427 . S
N1496 C1493 1.384 1_455 S
N1497 C1489 1.427 . S
N1497 C1495 1.384 . S
H1498 C1504 0.930 . S
H1499 C1508 0.930 . S
H1500 C1513 0.929 . S
H1501 C1511 0.929 . S
H1502 C1506 0.929 . S
H1503 C1512 0.929 . S
C1504 H1498 0.930 . S
C1504 C1505 1.367 . S
C1504 C1512 1.378 . S
C1505 C1504 1.367 . S
C1505 C1513 1.433 . S
C1506 H1502 0.929 . S
C1506 C1508 1.378 . S
C1506 C1510 1.350 . S
C1507 C1510 1.463 1_556 S
C1507 C1512 1.350 . S
C1507 N1515 1.427 . S
C1508 H1499 0.930 . S
C1508 C1506 1.378 . S
C1508 C1509 1.367 . S
C1509 C1508 1.367 . S
C1509 C1511 1.433 . S
C1510 C1506 1.350 . S
C1510 C1507 1.463 1_554 S
C1510 N1514 1.427 . S
C1511 H1501 0.929 . S
C1511 C1509 1.433 . S
C1511 N1514 1.384 . S
C1512 H1503 0.929 . S
C1512 C1504 1.378 . S
C1512 C1507 1.350 . S
C1513 H1500 0.929 . S
C1513 C1505 1.433 . S
C1513 N1515 1.384 . S
N1514 C1510 1.427 . S
N1514 C1511 1.384 . S
N1515 C1507 1.427 . S
N1515 C1513 1.384 . S
H1516 C1522 0.930 . S
H1517 C1526 0.930 . S
H1518 C1531 0.929 . S
H1519 C1529 0.929 . S
H1520 C1524 0.929 . S
H1521 C1530 0.929 . S
C1522 H1516 0.930 . S
C1522 C1523 1.367 . S
C1522 C1530 1.378 . S
C1523 C1522 1.367 . S
C1523 C1531 1.433 . S
C1524 H1520 0.929 . S
C1524 C1526 1.378 . S
C1524 C1528 1.350 . S
C1525 C1528 1.463 . S
C1525 C1530 1.350 . S
C1525 N1533 1.427 . S
C1526 H1517 0.930 . S
C1526 C1524 1.378 . S
C1526 C1527 1.367 . S
C1527 C1526 1.367 . S
C1527 C1529 1.433 . S
C1528 C1524 1.350 . S
C1528 C1525 1.463 . S
C1528 N1532 1.427 . S
C1529 H1519 0.929 . S
C1529 C1527 1.433 . S
C1529 N1532 1.384 . S
C1530 H1521 0.929 . S
C1530 C1522 1.378 . S
C1530 C1525 1.350 . S
C1531 H1518 0.929 . S
C1531 C1523 1.433 . S
C1531 N1533 1.384 . S
N1532 C1528 1.427 . S
N1532 C1529 1.384 . S
N1533 C1525 1.427 . S
N1533 C1531 1.384 . S
H1534 C1540 0.930 . S
H1535 C1544 0.930 . S
H1536 C1549 0.929 . S
H1537 C1547 0.929 . S
H1538 C1542 0.929 . S
H1539 C1548 0.929 . S
C1540 H1534 0.930 . S
C1540 C1541 1.367 . S
C1540 C1548 1.378 . S
C1541 C1540 1.367 . S
C1541 C1549 1.433 . S
C1542 H1538 0.929 . S
C1542 C1544 1.378 . S
C1542 C1546 1.350 . S
C1543 C1546 1.463 . S
C1543 C1548 1.350 . S
C1543 N1551 1.427 . S
C1544 H1535 0.930 . S
C1544 C1542 1.378 . S
C1544 C1545 1.367 . S
C1545 C1544 1.367 . S
C1545 C1547 1.433 . S
C1546 C1542 1.350 . S
C1546 C1543 1.463 . S
C1546 N1550 1.427 . S
C1547 H1537 0.929 . S
C1547 C1545 1.433 . S
C1547 N1550 1.384 . S
C1548 H1539 0.929 . S
C1548 C1540 1.378 . S
C1548 C1543 1.350 . S
C1549 H1536 0.929 . S
C1549 C1541 1.433 . S
C1549 N1551 1.384 . S
N1550 C1546 1.427 . S
N1550 C1547 1.384 . S
N1551 C1543 1.427 . S
N1551 C1549 1.384 . S
H1552 C1558 0.930 . S
H1553 C1562 0.930 . S
H1554 C1567 0.929 . S
H1555 C1565 0.929 . S
H1556 C1560 0.929 . S
H1557 C1566 0.929 . S
C1558 H1552 0.930 . S
C1558 C1559 1.367 . S
C1558 C1566 1.378 . S
C1559 C1558 1.367 . S
C1559 C1567 1.433 . S
C1560 H1556 0.929 . S
C1560 C1562 1.378 . S
C1560 C1564 1.350 . S
C1561 C1564 1.463 . S
C1561 C1566 1.350 . S
C1561 N1569 1.427 . S
C1562 H1553 0.930 . S
C1562 C1560 1.378 . S
C1562 C1563 1.367 1_455 S
C1563 C1562 1.367 1_655 S
C1563 C1565 1.433 . S
C1564 C1560 1.350 . S
C1564 C1561 1.463 . S
C1564 N1568 1.427 . S
C1565 H1555 0.929 . S
C1565 C1563 1.433 . S
C1565 N1568 1.384 1_655 S
C1566 H1557 0.929 . S
C1566 C1558 1.378 . S
C1566 C1561 1.350 . S
C1567 H1554 0.929 . S
C1567 C1559 1.433 . S
C1567 N1569 1.384 . S
N1568 C1564 1.427 . S
N1568 C1565 1.384 1_455 S
N1569 C1561 1.427 . S
N1569 C1567 1.384 . S
H1570 C1576 0.930 . S
H1571 C1580 0.930 . S
H1572 C1585 0.929 . S
H1573 C1583 0.929 . S
H1574 C1578 0.929 . S
H1575 C1584 0.929 . S
C1576 H1570 0.930 . S
C1576 C1577 1.367 . S
C1576 C1584 1.378 . S
C1577 C1576 1.367 . S
C1577 C1585 1.433 . S
C1578 H1574 0.929 . S
C1578 C1580 1.378 1_655 S
C1578 C1582 1.350 . S
C1579 C1582 1.463 . S
C1579 C1584 1.350 . S
C1579 N1587 1.427 . S
C1580 H1571 0.930 . S
C1580 C1578 1.378 1_455 S
C1580 C1581 1.367 . S
C1581 C1580 1.367 . S
C1581 C1583 1.433 . S
C1582 C1578 1.350 . S
C1582 C1579 1.463 . S
C1582 N1586 1.427 . S
C1583 H1573 0.929 . S
C1583 C1581 1.433 . S
C1583 N1586 1.384 1_455 S
C1584 H1575 0.929 . S
C1584 C1576 1.378 . S
C1584 C1579 1.350 . S
C1585 H1572 0.929 . S
C1585 C1577 1.433 . S
C1585 N1587 1.384 . S
N1586 C1582 1.427 . S
N1586 C1583 1.384 1_655 S
N1587 C1579 1.427 . S
N1587 C1585 1.384 . S
H1588 C1594 0.930 . S
H1589 C1598 0.930 . S
H1590 C1603 0.929 . S
H1591 C1601 0.929 . S
H1592 C1596 0.929 . S
H1593 C1602 0.929 . S
C1594 H1588 0.930 . S
C1594 C1595 1.367 . S
C1594 C1602 1.378 . S
C1595 C1594 1.367 . S
C1595 C1603 1.433 . S
C1596 H1592 0.929 . S
C1596 C1598 1.378 . S
C1596 C1600 1.350 . S
C1597 C1600 1.463 . S
C1597 C1602 1.350 . S
C1597 N1605 1.427 . S
C1598 H1589 0.930 . S
C1598 C1596 1.378 . S
C1598 C1599 1.367 . S
C1599 C1598 1.367 . S
C1599 C1601 1.433 . S
C1600 C1596 1.350 . S
C1600 C1597 1.463 . S
C1600 N1604 1.427 . S
C1601 H1591 0.929 . S
C1601 C1599 1.433 . S
C1601 N1604 1.384 . S
C1602 H1593 0.929 . S
C1602 C1594 1.378 . S
C1602 C1597 1.350 . S
C1603 H1590 0.929 . S
C1603 C1595 1.433 . S
C1603 N1605 1.384 . S
N1604 C1600 1.427 . S
N1604 C1601 1.384 . S
N1605 C1597 1.427 . S
N1605 C1603 1.384 . S
H1606 C1612 0.930 . S
H1607 C1616 0.930 . S
H1608 C1621 0.929 . S
H1609 C1619 0.929 . S
H1610 C1614 0.929 . S
H1611 C1620 0.929 . S
C1612 H1606 0.930 . S
C1612 C1613 1.367 . S
C1612 C1620 1.378 . S
C1613 C1612 1.367 . S
C1613 C1621 1.433 . S
C1614 H1610 0.929 . S
C1614 C1616 1.378 . S
C1614 C1618 1.350 . S
C1615 C1618 1.463 . S
C1615 C1620 1.350 . S
C1615 N1623 1.427 . S
C1616 H1607 0.930 . S
C1616 C1614 1.378 . S
C1616 C1617 1.367 . S
C1617 C1616 1.367 . S
C1617 C1619 1.433 . S
C1618 C1614 1.350 . S
C1618 C1615 1.463 . S
C1618 N1622 1.427 . S
C1619 H1609 0.929 . S
C1619 C1617 1.433 . S
C1619 N1622 1.384 . S
C1620 H1611 0.929 . S
C1620 C1612 1.378 . S
C1620 C1615 1.350 . S
C1621 H1608 0.929 . S
C1621 C1613 1.433 . S
C1621 N1623 1.384 . S
N1622 C1618 1.427 . S
N1622 C1619 1.384 . S
N1623 C1615 1.427 . S
N1623 C1621 1.384 . S
H1624 C1630 0.930 . S
H1625 C1634 0.930 . S
H1626 C1639 0.929 . S
H1627 C1637 0.929 . S
H1628 C1632 0.929 . S
H1629 C1638 0.929 . S
C1630 H1624 0.930 . S
C1630 C1631 1.367 . S
C1630 C1638 1.378 . S
C1631 C1630 1.367 . S
C1631 C1639 1.433 . S
C1632 H1628 0.929 . S
C1632 C1634 1.378 . S
C1632 C1636 1.350 . S
C1633 C1636 1.463 . S
C1633 C1638 1.350 . S
C1633 N1641 1.427 . S
C1634 H1625 0.930 . S
C1634 C1632 1.378 . S
C1634 C1635 1.367 . S
C1635 C1634 1.367 . S
C1635 C1637 1.433 . S
C1636 C1632 1.350 . S
C1636 C1633 1.463 . S
C1636 N1640 1.427 . S
C1637 H1627 0.929 . S
C1637 C1635 1.433 . S
C1637 N1640 1.384 . S
C1638 H1629 0.929 . S
C1638 C1630 1.378 . S
C1638 C1633 1.350 . S
C1639 H1626 0.929 . S
C1639 C1631 1.433 . S
C1639 N1641 1.384 . S
N1640 C1636 1.427 . S
N1640 C1637 1.384 . S
N1641 C1633 1.427 . S
N1641 C1639 1.384 . S
H1642 C1648 0.930 . S
H1643 C1652 0.930 . S
H1644 C1657 0.929 . S
H1645 C1655 0.929 . S
H1646 C1650 0.929 . S
H1647 C1656 0.929 . S
C1648 H1642 0.930 . S
C1648 C1649 1.367 . S
C1648 C1656 1.378 . S
C1649 C1648 1.367 . S
C1649 C1657 1.433 . S
C1650 H1646 0.929 . S
C1650 C1652 1.378 . S
C1650 C1654 1.350 . S
C1651 C1654 1.463 . S
C1651 C1656 1.350 . S
C1651 N1659 1.427 . S
C1652 H1643 0.930 . S
C1652 C1650 1.378 . S
C1652 C1653 1.367 . S
C1653 C1652 1.367 . S
C1653 C1655 1.433 . S
C1654 C1650 1.350 . S
C1654 C1651 1.463 . S
C1654 N1658 1.427 . S
C1655 H1645 0.929 . S
C1655 C1653 1.433 . S
C1655 N1658 1.384 . S
C1656 H1647 0.929 . S
C1656 C1648 1.378 . S
C1656 C1651 1.350 . S
C1657 H1644 0.929 . S
C1657 C1649 1.433 . S
C1657 N1659 1.384 . S
N1658 C1654 1.427 . S
N1658 C1655 1.384 . S
N1659 C1651 1.427 . S
N1659 C1657 1.384 . S
H1660 C1666 0.930 . S
H1661 C1670 0.930 . S
H1662 C1675 0.929 . S
H1663 C1673 0.929 . S
H1664 C1668 0.929 . S
H1665 C1674 0.929 . S
C1666 H1660 0.930 . S
C1666 C1667 1.367 . S
C1666 C1674 1.378 . S
C1667 C1666 1.367 . S
C1667 C1675 1.433 . S
C1668 H1664 0.929 . S
C1668 C1670 1.378 . S
C1668 C1672 1.350 . S
C1669 C1672 1.463 . S
C1669 C1674 1.350 . S
C1669 N1677 1.427 . S
C1670 H1661 0.930 . S
C1670 C1668 1.378 . S
C1670 C1671 1.367 . S
C1671 C1670 1.367 . S
C1671 C1673 1.433 . S
C1672 C1668 1.350 . S
C1672 C1669 1.463 . S
C1672 N1676 1.427 . S
C1673 H1663 0.929 . S
C1673 C1671 1.433 . S
C1673 N1676 1.384 . S
C1674 H1665 0.929 . S
C1674 C1666 1.378 . S
C1674 C1669 1.350 . S
C1675 H1662 0.929 . S
C1675 C1667 1.433 . S
C1675 N1677 1.384 . S
N1676 C1672 1.427 . S
N1676 C1673 1.384 . S
N1677 C1669 1.427 . S
N1677 C1675 1.384 . S
H1678 C1684 0.930 . S
H1679 C1688 0.930 . S
H1680 C1693 0.929 . S
H1681 C1691 0.929 1_655 S
H1682 C1686 0.929 . S
H1683 C1692 0.929 . S
C1684 H1678 0.930 . S
C1684 C1685 1.367 . S
C1684 C1692 1.378 . S
C1685 C1684 1.367 . S
C1685 C1693 1.433 . S
C1686 H1682 0.929 . S
C1686 C1688 1.378 . S
C1686 C1690 1.350 . S
C1687 C1690 1.463 . S
C1687 C1692 1.350 . S
C1687 N1695 1.427 . S
C1688 H1679 0.930 . S
C1688 C1686 1.378 . S
C1688 C1689 1.367 . S
C1689 C1688 1.367 . S
C1689 C1691 1.433 . S
C1690 C1686 1.350 . S
C1690 C1687 1.463 . S
C1690 N1694 1.427 . S
C1691 H1681 0.929 1_455 S
C1691 C1689 1.433 . S
C1691 N1694 1.384 . S
C1692 H1683 0.929 . S
C1692 C1684 1.378 . S
C1692 C1687 1.350 . S
C1693 H1680 0.929 . S
C1693 C1685 1.433 . S
C1693 N1695 1.384 . S
N1694 C1690 1.427 . S
N1694 C1691 1.384 . S
N1695 C1687 1.427 . S
N1695 C1693 1.384 . S
H1696 C1702 0.930 . S
H1697 C1706 0.930 . S
H1698 C1711 0.929 . S
H1699 C1709 0.929 . S
H1700 C1704 0.929 . S
H1701 C1710 0.929 . S
C1702 H1696 0.930 . S
C1702 C1703 1.367 . S
C1702 C1710 1.378 . S
C1703 C1702 1.367 . S
C1703 C1711 1.433 . S
C1704 H1700 0.929 . S
C1704 C1706 1.378 . S
C1704 C1708 1.350 . S
C1705 C1708 1.463 . S
C1705 C1710 1.350 . S
C1705 N1713 1.427 . S
C1706 H1697 0.930 . S
C1706 C1704 1.378 . S
C1706 C1707 1.367 . S
C1707 C1706 1.367 . S
C1707 C1709 1.433 . S
C1708 C1704 1.350 . S
C1708 C1705 1.463 . S
C1708 N1712 1.427 . S
C1709 H1699 0.929 . S
C1709 C1707 1.433 . S
C1709 N1712 1.384 . S
C1710 H1701 0.929 . S
C1710 C1702 1.378 . S
C1710 C1705 1.350 . S
C1711 H1698 0.929 . S
C1711 C1703 1.433 . S
C1711 N1713 1.384 . S
N1712 C1708 1.427 . S
N1712 C1709 1.384 . S
N1713 C1705 1.427 . S
N1713 C1711 1.384 . S
H1714 C1720 0.930 . S
H1715 C1724 0.930 . S
H1716 C1729 0.929 . S
H1717 C1727 0.929 1_455 S
H1718 C1722 0.929 . S
H1719 C1728 0.929 . S
C1720 H1714 0.930 . S
C1720 C1721 1.367 . S
C1720 C1728 1.378 . S
C1721 C1720 1.367 . S
C1721 C1729 1.433 . S
C1722 H1718 0.929 . S
C1722 C1724 1.378 . S
C1722 C1726 1.350 . S
C1723 C1726 1.463 . S
C1723 C1728 1.350 . S
C1723 N1731 1.427 . S
C1724 H1715 0.930 . S
C1724 C1722 1.378 . S
C1724 C1725 1.367 . S
C1725 C1724 1.367 . S
C1725 C1727 1.433 . S
C1726 C1722 1.350 . S
C1726 C1723 1.463 . S
C1726 N1730 1.427 . S
C1727 H1717 0.929 1_655 S
C1727 C1725 1.433 . S
C1727 N1730 1.384 . S
C1728 H1719 0.929 . S
C1728 C1720 1.378 . S
C1728 C1723 1.350 . S
C1729 H1716 0.929 . S
C1729 C1721 1.433 . S
C1729 N1731 1.384 . S
N1730 C1726 1.427 . S
N1730 C1727 1.384 . S
N1731 C1723 1.427 . S
N1731 C1729 1.384 . S
H1732 C1738 0.930 . S
H1733 C1742 0.930 . S
H1734 C1747 0.929 . S
H1735 C1745 0.929 . S
H1736 C1740 0.929 . S
H1737 C1746 0.929 . S
C1738 H1732 0.930 . S
C1738 C1739 1.367 . S
C1738 C1746 1.378 . S
C1739 C1738 1.367 . S
C1739 C1747 1.433 . S
C1740 H1736 0.929 . S
C1740 C1742 1.378 . S
C1740 C1744 1.350 . S
C1741 C1744 1.463 . S
C1741 C1746 1.350 . S
C1741 N1749 1.427 . S
C1742 H1733 0.930 . S
C1742 C1740 1.378 . S
C1742 C1743 1.367 . S
C1743 C1742 1.367 . S
C1743 C1745 1.433 . S
C1744 C1740 1.350 . S
C1744 C1741 1.463 . S
C1744 N1748 1.427 . S
C1745 H1735 0.929 . S
C1745 C1743 1.433 . S
C1745 N1748 1.384 . S
C1746 H1737 0.929 . S
C1746 C1738 1.378 . S
C1746 C1741 1.350 . S
C1747 H1734 0.929 . S
C1747 C1739 1.433 . S
C1747 N1749 1.384 . S
N1748 C1744 1.427 . S
N1748 C1745 1.384 . S
N1749 C1741 1.427 . S
N1749 C1747 1.384 . S
H1750 C1756 0.930 . S
H1751 C1760 0.930 . S
H1752 C1765 0.929 . S
H1753 C1763 0.929 . S
H1754 C1758 0.929 . S
H1755 C1764 0.929 . S
C1756 H1750 0.930 . S
C1756 C1757 1.367 . S
C1756 C1764 1.378 . S
C1757 C1756 1.367 . S
C1757 C1765 1.433 . S
C1758 H1754 0.929 . S
C1758 C1760 1.378 . S
C1758 C1762 1.350 . S
C1759 C1762 1.463 . S
C1759 C1764 1.350 . S
C1759 N1767 1.427 . S
C1760 H1751 0.930 . S
C1760 C1758 1.378 . S
C1760 C1761 1.367 . S
C1761 C1760 1.367 . S
C1761 C1763 1.433 . S
C1762 C1758 1.350 . S
C1762 C1759 1.463 . S
C1762 N1766 1.427 . S
C1763 H1753 0.929 . S
C1763 C1761 1.433 . S
C1763 N1766 1.384 . S
C1764 H1755 0.929 . S
C1764 C1756 1.378 . S
C1764 C1759 1.350 . S
C1765 H1752 0.929 . S
C1765 C1757 1.433 . S
C1765 N1767 1.384 . S
N1766 C1762 1.427 . S
N1766 C1763 1.384 . S
N1767 C1759 1.427 . S
N1767 C1765 1.384 . S
H1768 C1774 0.930 . S
H1769 C1778 0.930 . S
H1770 C1783 0.929 . S
H1771 C1781 0.929 . S
H1772 C1776 0.929 . S
H1773 C1782 0.929 . S
C1774 H1768 0.930 . S
C1774 C1775 1.367 . S
C1774 C1782 1.378 . S
C1775 C1774 1.367 . S
C1775 C1783 1.433 . S
C1776 H1772 0.929 . S
C1776 C1778 1.378 . S
C1776 C1780 1.350 . S
C1777 C1780 1.463 . S
C1777 C1782 1.350 . S
C1777 N1785 1.427 . S
C1778 H1769 0.930 . S
C1778 C1776 1.378 . S
C1778 C1779 1.367 . S
C1779 C1778 1.367 . S
C1779 C1781 1.433 . S
C1780 C1776 1.350 . S
C1780 C1777 1.463 . S
C1780 N1784 1.427 . S
C1781 H1771 0.929 . S
C1781 C1779 1.433 . S
C1781 N1784 1.384 . S
C1782 H1773 0.929 . S
C1782 C1774 1.378 . S
C1782 C1777 1.350 . S
C1783 H1770 0.929 . S
C1783 C1775 1.433 . S
C1783 N1785 1.384 . S
N1784 C1780 1.427 . S
N1784 C1781 1.384 . S
N1785 C1777 1.427 . S
N1785 C1783 1.384 . S
H1786 C1792 0.930 . S
H1787 C1796 0.930 . S
H1788 C1801 0.929 . S
H1789 C1799 0.929 1_556 S
H1790 C1794 0.929 . S
H1791 C1800 0.929 . S
C1792 H1786 0.930 . S
C1792 C1793 1.367 . S
C1792 C1800 1.378 . S
C1793 C1792 1.367 . S
C1793 C1801 1.433 . S
C1794 H1790 0.929 . S
C1794 C1796 1.378 . S
C1794 C1798 1.350 . S
C1795 C1798 1.463 . S
C1795 C1800 1.350 . S
C1795 N1803 1.427 . S
C1796 H1787 0.930 . S
C1796 C1794 1.378 . S
C1796 C1797 1.367 . S
C1797 C1796 1.367 . S
C1797 C1799 1.433 . S
C1798 C1794 1.350 . S
C1798 C1795 1.463 . S
C1798 N1802 1.427 . S
C1799 H1789 0.929 1_554 S
C1799 C1797 1.433 . S
C1799 N1802 1.384 . S
C1800 H1791 0.929 . S
C1800 C1792 1.378 . S
C1800 C1795 1.350 . S
C1801 H1788 0.929 . S
C1801 C1793 1.433 . S
C1801 N1803 1.384 . S
N1802 C1798 1.427 . S
N1802 C1799 1.384 . S
N1803 C1795 1.427 . S
N1803 C1801 1.384 . S
H1804 C1810 0.930 . S
H1805 C1814 0.930 . S
H1806 C1819 0.929 . S
H1807 C1817 0.929 . S
H1808 C1812 0.929 . S
H1809 C1818 0.929 . S
C1810 H1804 0.930 . S
C1810 C1811 1.367 . S
C1810 C1818 1.378 . S
C1811 C1810 1.367 . S
C1811 C1819 1.433 . S
C1812 H1808 0.929 . S
C1812 C1814 1.378 . S
C1812 C1816 1.350 . S
C1813 C1816 1.463 . S
C1813 C1818 1.350 . S
C1813 N1821 1.427 . S
C1814 H1805 0.930 . S
C1814 C1812 1.378 . S
C1814 C1815 1.367 . S
C1815 C1814 1.367 . S
C1815 C1817 1.433 . S
C1816 C1812 1.350 . S
C1816 C1813 1.463 . S
C1816 N1820 1.427 . S
C1817 H1807 0.929 . S
C1817 C1815 1.433 . S
C1817 N1820 1.384 . S
C1818 H1809 0.929 . S
C1818 C1810 1.378 . S
C1818 C1813 1.350 . S
C1819 H1806 0.929 . S
C1819 C1811 1.433 . S
C1819 N1821 1.384 . S
N1820 C1816 1.427 . S
N1820 C1817 1.384 . S
N1821 C1813 1.427 . S
N1821 C1819 1.384 . S
H1822 C1828 0.930 . S
H1823 C1832 0.930 . S
H1824 C1837 0.929 . S
H1825 C1835 0.929 1_554 S
H1826 C1830 0.929 . S
H1827 C1836 0.929 . S
C1828 H1822 0.930 . S
C1828 C1829 1.367 . S
C1828 C1836 1.378 . S
C1829 C1828 1.367 . S
C1829 C1837 1.433 . S
C1830 H1826 0.929 . S
C1830 C1832 1.378 . S
C1830 C1834 1.350 . S
C1831 C1834 1.463 . S
C1831 C1836 1.350 . S
C1831 N1839 1.427 . S
C1832 H1823 0.930 . S
C1832 C1830 1.378 . S
C1832 C1833 1.367 . S
C1833 C1832 1.367 . S
C1833 C1835 1.433 . S
C1834 C1830 1.350 . S
C1834 C1831 1.463 . S
C1834 N1838 1.427 . S
C1835 H1825 0.929 1_556 S
C1835 C1833 1.433 . S
C1835 N1838 1.384 . S
C1836 H1827 0.929 . S
C1836 C1828 1.378 . S
C1836 C1831 1.350 . S
C1837 H1824 0.929 . S
C1837 C1829 1.433 . S
C1837 N1839 1.384 . S
N1838 C1834 1.427 . S
N1838 C1835 1.384 . S
N1839 C1831 1.427 . S
N1839 C1837 1.384 . S
H1840 C1846 0.930 . S
H1841 C1850 0.930 . S
H1842 C1855 0.929 . S
H1843 C1853 0.929 . S
H1844 C1848 0.929 . S
H1845 C1854 0.929 . S
C1846 H1840 0.930 . S
C1846 C1847 1.367 . S
C1846 C1854 1.378 . S
C1847 C1846 1.367 . S
C1847 C1855 1.433 . S
C1848 H1844 0.929 . S
C1848 C1850 1.378 . S
C1848 C1852 1.350 . S
C1849 C1852 1.463 . S
C1849 C1854 1.350 . S
C1849 N1857 1.427 . S
C1850 H1841 0.930 . S
C1850 C1848 1.378 . S
C1850 C1851 1.367 . S
C1851 C1850 1.367 . S
C1851 C1853 1.433 . S
C1852 C1848 1.350 . S
C1852 C1849 1.463 . S
C1852 N1856 1.427 . S
C1853 H1843 0.929 . S
C1853 C1851 1.433 . S
C1853 N1856 1.384 . S
C1854 H1845 0.929 . S
C1854 C1846 1.378 . S
C1854 C1849 1.350 . S
C1855 H1842 0.929 . S
C1855 C1847 1.433 . S
C1855 N1857 1.384 . S
N1856 C1852 1.427 . S
N1856 C1853 1.384 . S
N1857 C1849 1.427 . S
N1857 C1855 1.384 . S
H1858 C1864 0.930 . S
H1859 C1868 0.930 . S
H1860 C1873 0.929 . S
H1861 C1871 0.929 1_554 S
H1862 C1866 0.929 . S
H1863 C1872 0.929 . S
C1864 H1858 0.930 . S
C1864 C1865 1.367 . S
C1864 C1872 1.378 . S
C1865 C1864 1.367 . S
C1865 C1873 1.433 . S
C1866 H1862 0.929 . S
C1866 C1868 1.378 . S
C1866 C1870 1.350 . S
C1867 C1870 1.463 . S
C1867 C1872 1.350 . S
C1867 N1875 1.427 . S
C1868 H1859 0.930 . S
C1868 C1866 1.378 . S
C1868 C1869 1.367 . S
C1869 C1868 1.367 . S
C1869 C1871 1.433 . S
C1870 C1866 1.350 . S
C1870 C1867 1.463 . S
C1870 N1874 1.427 . S
C1871 H1861 0.929 1_556 S
C1871 C1869 1.433 . S
C1871 N1874 1.384 . S
C1872 H1863 0.929 . S
C1872 C1864 1.378 . S
C1872 C1867 1.350 . S
C1873 H1860 0.929 . S
C1873 C1865 1.433 . S
C1873 N1875 1.384 . S
N1874 C1870 1.427 . S
N1874 C1871 1.384 . S
N1875 C1867 1.427 . S
N1875 C1873 1.384 . S
H1876 C1882 0.930 . S
H1877 C1886 0.930 . S
H1878 C1891 0.929 . S
H1879 C1889 0.929 . S
H1880 C1884 0.929 . S
H1881 C1890 0.929 . S
C1882 H1876 0.930 . S
C1882 C1883 1.367 . S
C1882 C1890 1.378 . S
C1883 C1882 1.367 . S
C1883 C1891 1.433 . S
C1884 H1880 0.929 . S
C1884 C1886 1.378 . S
C1884 C1888 1.350 . S
C1885 C1888 1.463 . S
C1885 C1890 1.350 . S
C1885 N1893 1.427 . S
C1886 H1877 0.930 . S
C1886 C1884 1.378 . S
C1886 C1887 1.367 . S
C1887 C1886 1.367 . S
C1887 C1889 1.433 . S
C1888 C1884 1.350 . S
C1888 C1885 1.463 . S
C1888 N1892 1.427 . S
C1889 H1879 0.929 . S
C1889 C1887 1.433 . S
C1889 N1892 1.384 . S
C1890 H1881 0.929 . S
C1890 C1882 1.378 . S
C1890 C1885 1.350 . S
C1891 H1878 0.929 . S
C1891 C1883 1.433 . S
C1891 N1893 1.384 . S
N1892 C1888 1.427 . S
N1892 C1889 1.384 . S
N1893 C1885 1.427 . S
N1893 C1891 1.384 . S
H1894 C1900 0.930 . S
H1895 C1904 0.930 . S
H1896 C1909 0.929 . S
H1897 C1907 0.929 . S
H1898 C1902 0.929 . S
H1899 C1908 0.929 . S
C1900 H1894 0.930 . S
C1900 C1901 1.367 . S
C1900 C1908 1.378 . S
C1901 C1900 1.367 . S
C1901 C1909 1.433 . S
C1902 H1898 0.929 . S
C1902 C1904 1.378 . S
C1902 C1906 1.350 . S
C1903 C1906 1.463 . S
C1903 C1908 1.350 . S
C1903 N1911 1.427 . S
C1904 H1895 0.930 . S
C1904 C1902 1.378 . S
C1904 C1905 1.367 . S
C1905 C1904 1.367 . S
C1905 C1907 1.433 . S
C1906 C1902 1.350 . S
C1906 C1903 1.463 . S
C1906 N1910 1.427 . S
C1907 H1897 0.929 . S
C1907 C1905 1.433 . S
C1907 N1910 1.384 . S
C1908 H1899 0.929 . S
C1908 C1900 1.378 . S
C1908 C1903 1.350 . S
C1909 H1896 0.929 . S
C1909 C1901 1.433 . S
C1909 N1911 1.384 . S
N1910 C1906 1.427 . S
N1910 C1907 1.384 . S
N1911 C1903 1.427 . S
N1911 C1909 1.384 . S
H1912 C1918 0.930 . S
H1913 C1922 0.930 . S
H1914 C1927 0.929 . S
H1915 C1925 0.929 . S
H1916 C1920 0.929 . S
H1917 C1926 0.929 . S
C1918 H1912 0.930 . S
C1918 C1919 1.367 . S
C1918 C1926 1.378 . S
C1919 C1918 1.367 . S
C1919 C1927 1.433 . S
C1920 H1916 0.929 . S
C1920 C1922 1.378 . S
C1920 C1924 1.350 . S
C1921 C1924 1.463 . S
C1921 C1926 1.350 . S
C1921 N1929 1.427 . S
C1922 H1913 0.930 . S
C1922 C1920 1.378 . S
C1922 C1923 1.367 . S
C1923 C1922 1.367 . S
C1923 C1925 1.433 . S
C1924 C1920 1.350 . S
C1924 C1921 1.463 . S
C1924 N1928 1.427 . S
C1925 H1915 0.929 . S
C1925 C1923 1.433 . S
C1925 N1928 1.384 . S
C1926 H1917 0.929 . S
C1926 C1918 1.378 . S
C1926 C1921 1.350 . S
C1927 H1914 0.929 . S
C1927 C1919 1.433 . S
C1927 N1929 1.384 . S
N1928 C1924 1.427 . S
N1928 C1925 1.384 . S
N1929 C1921 1.427 . S
N1929 C1927 1.384 . S
H1930 C1936 0.930 . S
H1931 C1940 0.930 . S
H1932 C1945 0.929 . S
H1933 C1943 0.929 . S
H1934 C1938 0.929 . S
H1935 C1944 0.929 . S
C1936 H1930 0.930 . S
C1936 C1937 1.367 . S
C1936 C1944 1.378 . S
C1937 C1936 1.367 . S
C1937 C1945 1.433 . S
C1938 H1934 0.929 . S
C1938 C1940 1.378 . S
C1938 C1942 1.350 . S
C1939 C1942 1.463 . S
C1939 C1944 1.350 . S
C1939 N1947 1.427 . S
C1940 H1931 0.930 . S
C1940 C1938 1.378 . S
C1940 C1941 1.367 . S
C1941 C1940 1.367 . S
C1941 C1943 1.433 . S
C1942 C1938 1.350 . S
C1942 C1939 1.463 . S
C1942 N1946 1.427 . S
C1943 H1933 0.929 . S
C1943 C1941 1.433 . S
C1943 N1946 1.384 . S
C1944 H1935 0.929 . S
C1944 C1936 1.378 . S
C1944 C1939 1.350 . S
C1945 H1932 0.929 . S
C1945 C1937 1.433 . S
C1945 N1947 1.384 . S
N1946 C1942 1.427 . S
N1946 C1943 1.384 . S
N1947 C1939 1.427 . S
N1947 C1945 1.384 . S
H1948 C1954 0.930 . S
H1949 C1958 0.930 . S
H1950 C1963 0.929 . S
H1951 C1961 0.929 . S
H1952 C1956 0.929 . S
H1953 C1962 0.929 . S
C1954 H1948 0.930 . S
C1954 C1955 1.367 . S
C1954 C1962 1.378 . S
C1955 C1954 1.367 . S
C1955 C1963 1.433 . S
C1956 H1952 0.929 . S
C1956 C1958 1.378 . S
C1956 C1960 1.350 . S
C1957 C1960 1.463 . S
C1957 C1962 1.350 . S
C1957 N1965 1.427 . S
C1958 H1949 0.930 . S
C1958 C1956 1.378 . S
C1958 C1959 1.367 . S
C1959 C1958 1.367 . S
C1959 C1961 1.433 . S
C1960 C1956 1.350 . S
C1960 C1957 1.463 . S
C1960 N1964 1.427 . S
C1961 H1951 0.929 . S
C1961 C1959 1.433 . S
C1961 N1964 1.384 . S
C1962 H1953 0.929 . S
C1962 C1954 1.378 . S
C1962 C1957 1.350 . S
C1963 H1950 0.929 . S
C1963 C1955 1.433 . S
C1963 N1965 1.384 . S
N1964 C1960 1.427 . S
N1964 C1961 1.384 . S
N1965 C1957 1.427 . S
N1965 C1963 1.384 . S
H1966 C1972 0.930 . S
H1967 C1976 0.930 . S
H1968 C1981 0.929 . S
H1969 C1979 0.929 . S
H1970 C1974 0.929 . S
H1971 C1980 0.929 . S
C1972 H1966 0.930 . S
C1972 C1973 1.367 . S
C1972 C1980 1.378 . S
C1973 C1972 1.367 . S
C1973 C1981 1.433 . S
C1974 H1970 0.929 . S
C1974 C1976 1.378 . S
C1974 C1978 1.350 . S
C1975 C1978 1.463 . S
C1975 C1980 1.350 . S
C1975 N1983 1.427 . S
C1976 H1967 0.930 . S
C1976 C1974 1.378 . S
C1976 C1977 1.367 . S
C1977 C1976 1.367 . S
C1977 C1979 1.433 . S
C1978 C1974 1.350 . S
C1978 C1975 1.463 . S
C1978 N1982 1.427 . S
C1979 H1969 0.929 . S
C1979 C1977 1.433 . S
C1979 N1982 1.384 . S
C1980 H1971 0.929 . S
C1980 C1972 1.378 . S
C1980 C1975 1.350 . S
C1981 H1968 0.929 . S
C1981 C1973 1.433 . S
C1981 N1983 1.384 . S
N1982 C1978 1.427 . S
N1982 C1979 1.384 . S
N1983 C1975 1.427 . S
N1983 C1981 1.384 . S
H1984 C1990 0.930 . S
H1985 C1994 0.930 . S
H1986 C1999 0.929 . S
H1987 C1997 0.929 . S
H1988 C1992 0.929 . S
H1989 C1998 0.929 . S
C1990 H1984 0.930 . S
C1990 C1991 1.367 . S
C1990 C1998 1.378 . S
C1991 C1990 1.367 . S
C1991 C1999 1.433 . S
C1992 H1988 0.929 . S
C1992 C1994 1.378 . S
C1992 C1996 1.350 . S
C1993 C1996 1.463 . S
C1993 C1998 1.350 . S
C1993 N2001 1.427 . S
C1994 H1985 0.930 . S
C1994 C1992 1.378 . S
C1994 C1995 1.367 . S
C1995 C1994 1.367 . S
C1995 C1997 1.433 . S
C1996 C1992 1.350 . S
C1996 C1993 1.463 . S
C1996 N2000 1.427 . S
C1997 H1987 0.929 . S
C1997 C1995 1.433 . S
C1997 N2000 1.384 . S
C1998 H1989 0.929 . S
C1998 C1990 1.378 . S
C1998 C1993 1.350 . S
C1999 H1986 0.929 . S
C1999 C1991 1.433 . S
C1999 N2001 1.384 . S
N2000 C1996 1.427 . S
N2000 C1997 1.384 . S
N2001 C1993 1.427 . S
N2001 C1999 1.384 . S
H2002 C2008 0.930 . S
H2003 C2012 0.930 . S
H2004 C2017 0.929 . S
H2005 C2015 0.929 . S
H2006 C2010 0.929 . S
H2007 C2016 0.929 . S
C2008 H2002 0.930 . S
C2008 C2009 1.367 . S
C2008 C2016 1.378 . S
C2009 C2008 1.367 . S
C2009 C2017 1.433 . S
C2010 H2006 0.929 . S
C2010 C2012 1.378 . S
C2010 C2014 1.350 . S
C2011 C2014 1.463 . S
C2011 C2016 1.350 . S
C2011 N2019 1.427 . S
C2012 H2003 0.930 . S
C2012 C2010 1.378 . S
C2012 C2013 1.367 . S
C2013 C2012 1.367 . S
C2013 C2015 1.433 . S
C2014 C2010 1.350 . S
C2014 C2011 1.463 . S
C2014 N2018 1.427 . S
C2015 H2005 0.929 . S
C2015 C2013 1.433 . S
C2015 N2018 1.384 . S
C2016 H2007 0.929 . S
C2016 C2008 1.378 . S
C2016 C2011 1.350 . S
C2017 H2004 0.929 . S
C2017 C2009 1.433 . S
C2017 N2019 1.384 . S
N2018 C2014 1.427 . S
N2018 C2015 1.384 . S
N2019 C2011 1.427 . S
N2019 C2017 1.384 . S
H2020 C2026 0.930 . S
H2021 C2030 0.930 . S
H2022 C2035 0.929 . S
H2023 C2033 0.929 . S
H2024 C2028 0.929 . S
H2025 C2034 0.929 . S
C2026 H2020 0.930 . S
C2026 C2027 1.367 . S
C2026 C2034 1.378 . S
C2027 C2026 1.367 . S
C2027 C2035 1.433 . S
C2028 H2024 0.929 . S
C2028 C2030 1.378 . S
C2028 C2032 1.350 . S
C2029 C2032 1.463 . S
C2029 C2034 1.350 . S
C2029 N2037 1.427 . S
C2030 H2021 0.930 . S
C2030 C2028 1.378 . S
C2030 C2031 1.367 . S
C2031 C2030 1.367 . S
C2031 C2033 1.433 . S
C2032 C2028 1.350 . S
C2032 C2029 1.463 . S
C2032 N2036 1.427 . S
C2033 H2023 0.929 . S
C2033 C2031 1.433 . S
C2033 N2036 1.384 . S
C2034 H2025 0.929 . S
C2034 C2026 1.378 . S
C2034 C2029 1.350 . S
C2035 H2022 0.929 . S
C2035 C2027 1.433 . S
C2035 N2037 1.384 . S
N2036 C2032 1.427 . S
N2036 C2033 1.384 . S
N2037 C2029 1.427 . S
N2037 C2035 1.384 . S
H2038 C2044 0.930 . S
H2039 C2048 0.930 . S
H2040 C2053 0.929 . S
H2041 C2051 0.929 . S
H2042 C2046 0.929 . S
H2043 C2052 0.929 . S
C2044 H2038 0.930 . S
C2044 C2045 1.367 . S
C2044 C2052 1.378 . S
C2045 C2044 1.367 . S
C2045 C2053 1.433 . S
C2046 H2042 0.929 . S
C2046 C2048 1.378 . S
C2046 C2050 1.350 . S
C2047 C2050 1.463 . S
C2047 C2052 1.350 . S
C2047 N2055 1.427 . S
C2048 H2039 0.930 . S
C2048 C2046 1.378 . S
C2048 C2049 1.367 . S
C2049 C2048 1.367 . S
C2049 C2051 1.433 . S
C2050 C2046 1.350 . S
C2050 C2047 1.463 . S
C2050 N2054 1.427 . S
C2051 H2041 0.929 . S
C2051 C2049 1.433 . S
C2051 N2054 1.384 . S
C2052 H2043 0.929 . S
C2052 C2044 1.378 . S
C2052 C2047 1.350 . S
C2053 H2040 0.929 . S
C2053 C2045 1.433 . S
C2053 N2055 1.384 . S
N2054 C2050 1.427 . S
N2054 C2051 1.384 . S
N2055 C2047 1.427 . S
N2055 C2053 1.384 . S
H2056 C2062 0.930 . S
H2057 C2066 0.930 . S
H2058 C2071 0.929 . S
H2059 C2069 0.929 . S
H2060 C2064 0.929 . S
H2061 C2070 0.929 . S
C2062 H2056 0.930 . S
C2062 C2063 1.367 . S
C2062 C2070 1.378 . S
C2063 C2062 1.367 . S
C2063 C2071 1.433 . S
C2064 H2060 0.929 . S
C2064 C2066 1.378 . S
C2064 C2068 1.350 . S
C2065 C2068 1.463 . S
C2065 C2070 1.350 . S
C2065 N2073 1.427 . S
C2066 H2057 0.930 . S
C2066 C2064 1.378 . S
C2066 C2067 1.367 . S
C2067 C2066 1.367 . S
C2067 C2069 1.433 . S
C2068 C2064 1.350 . S
C2068 C2065 1.463 . S
C2068 N2072 1.427 . S
C2069 H2059 0.929 . S
C2069 C2067 1.433 . S
C2069 N2072 1.384 . S
C2070 H2061 0.929 . S
C2070 C2062 1.378 . S
C2070 C2065 1.350 . S
C2071 H2058 0.929 . S
C2071 C2063 1.433 . S
C2071 N2073 1.384 . S
N2072 C2068 1.427 . S
N2072 C2069 1.384 . S
N2073 C2065 1.427 . S
N2073 C2071 1.384 . S
H2074 C2080 0.930 . S
H2075 C2084 0.930 . S
H2076 C2089 0.929 . S
H2077 C2087 0.929 . S
H2078 C2082 0.929 . S
H2079 C2088 0.929 . S
C2080 H2074 0.930 . S
C2080 C2081 1.367 . S
C2080 C2088 1.378 . S
C2081 C2080 1.367 . S
C2081 C2089 1.433 . S
C2082 H2078 0.929 . S
C2082 C2084 1.378 . S
C2082 C2086 1.350 . S
C2083 C2086 1.463 . S
C2083 C2088 1.350 . S
C2083 N2091 1.427 . S
C2084 H2075 0.930 . S
C2084 C2082 1.378 . S
C2084 C2085 1.367 . S
C2085 C2084 1.367 . S
C2085 C2087 1.433 . S
C2086 C2082 1.350 . S
C2086 C2083 1.463 . S
C2086 N2090 1.427 . S
C2087 H2077 0.929 . S
C2087 C2085 1.433 . S
C2087 N2090 1.384 . S
C2088 H2079 0.929 . S
C2088 C2080 1.378 . S
C2088 C2083 1.350 . S
C2089 H2076 0.929 . S
C2089 C2081 1.433 . S
C2089 N2091 1.384 . S
N2090 C2086 1.427 . S
N2090 C2087 1.384 . S
N2091 C2083 1.427 . S
N2091 C2089 1.384 . S
H2092 C2098 0.930 . S
H2093 C2102 0.930 . S
H2094 C2107 0.929 . S
H2095 C2105 0.929 . S
H2096 C2100 0.929 . S
H2097 C2106 0.929 . S
C2098 H2092 0.930 . S
C2098 C2099 1.367 . S
C2098 C2106 1.378 . S
C2099 C2098 1.367 . S
C2099 C2107 1.433 . S
C2100 H2096 0.929 . S
C2100 C2102 1.378 . S
C2100 C2104 1.350 . S
C2101 C2104 1.463 . S
C2101 C2106 1.350 . S
C2101 N2109 1.427 . S
C2102 H2093 0.930 . S
C2102 C2100 1.378 . S
C2102 C2103 1.367 . S
C2103 C2102 1.367 . S
C2103 C2105 1.433 . S
C2104 C2100 1.350 . S
C2104 C2101 1.463 . S
C2104 N2108 1.427 . S
C2105 H2095 0.929 . S
C2105 C2103 1.433 . S
C2105 N2108 1.384 . S
C2106 H2097 0.929 . S
C2106 C2098 1.378 . S
C2106 C2101 1.350 . S
C2107 H2094 0.929 . S
C2107 C2099 1.433 . S
C2107 N2109 1.384 . S
N2108 C2104 1.427 . S
N2108 C2105 1.384 . S
N2109 C2101 1.427 . S
N2109 C2107 1.384 . S
H2110 C2116 0.930 . S
H2111 C2120 0.930 . S
H2112 C2125 0.929 . S
H2113 C2123 0.929 . S
H2114 C2118 0.929 . S
H2115 C2124 0.929 . S
C2116 H2110 0.930 . S
C2116 C2117 1.367 . S
C2116 C2124 1.378 . S
C2117 C2116 1.367 . S
C2117 C2125 1.433 . S
C2118 H2114 0.929 . S
C2118 C2120 1.378 . S
C2118 C2122 1.350 . S
C2119 C2122 1.463 . S
C2119 C2124 1.350 . S
C2119 N2127 1.427 . S
C2120 H2111 0.930 . S
C2120 C2118 1.378 . S
C2120 C2121 1.367 . S
C2121 C2120 1.367 . S
C2121 C2123 1.433 . S
C2122 C2118 1.350 . S
C2122 C2119 1.463 . S
C2122 N2126 1.427 . S
C2123 H2113 0.929 . S
C2123 C2121 1.433 . S
C2123 N2126 1.384 . S
C2124 H2115 0.929 . S
C2124 C2116 1.378 . S
C2124 C2119 1.350 . S
C2125 H2112 0.929 . S
C2125 C2117 1.433 . S
C2125 N2127 1.384 . S
N2126 C2122 1.427 . S
N2126 C2123 1.384 . S
N2127 C2119 1.427 . S
N2127 C2125 1.384 . S
H2128 C2134 0.930 . S
H2129 C2138 0.930 . S
H2130 C2143 0.929 . S
H2131 C2141 0.929 . S
H2132 C2136 0.929 . S
H2133 C2142 0.929 . S
C2134 H2128 0.930 . S
C2134 C2135 1.367 . S
C2134 C2142 1.378 . S
C2135 C2134 1.367 . S
C2135 C2143 1.433 . S
C2136 H2132 0.929 . S
C2136 C2138 1.378 . S
C2136 C2140 1.350 . S
C2137 C2140 1.463 . S
C2137 C2142 1.350 . S
C2137 N2145 1.427 . S
C2138 H2129 0.930 . S
C2138 C2136 1.378 . S
C2138 C2139 1.367 . S
C2139 C2138 1.367 . S
C2139 C2141 1.433 . S
C2140 C2136 1.350 . S
C2140 C2137 1.463 . S
C2140 N2144 1.427 . S
C2141 H2131 0.929 . S
C2141 C2139 1.433 . S
C2141 N2144 1.384 . S
C2142 H2133 0.929 . S
C2142 C2134 1.378 . S
C2142 C2137 1.350 . S
C2143 H2130 0.929 . S
C2143 C2135 1.433 . S
C2143 N2145 1.384 . S
N2144 C2140 1.427 . S
N2144 C2141 1.384 . S
N2145 C2137 1.427 . S
N2145 C2143 1.384 . S
H2146 C2152 0.930 . S
H2147 C2156 0.930 . S
H2148 C2161 0.929 . S
H2149 C2159 0.929 . S
H2150 C2154 0.929 . S
H2151 C2160 0.929 . S
C2152 H2146 0.930 . S
C2152 C2153 1.367 . S
C2152 C2160 1.378 . S
C2153 C2152 1.367 . S
C2153 C2161 1.433 . S
C2154 H2150 0.929 . S
C2154 C2156 1.378 . S
C2154 C2158 1.350 . S
C2155 C2158 1.463 . S
C2155 C2160 1.350 . S
C2155 N2163 1.427 . S
C2156 H2147 0.930 . S
C2156 C2154 1.378 . S
C2156 C2157 1.367 . S
C2157 C2156 1.367 . S
C2157 C2159 1.433 . S
C2158 C2154 1.350 . S
C2158 C2155 1.463 . S
C2158 N2162 1.427 . S
C2159 H2149 0.929 . S
C2159 C2157 1.433 . S
C2159 N2162 1.384 . S
C2160 H2151 0.929 . S
C2160 C2152 1.378 . S
C2160 C2155 1.350 . S
C2161 H2148 0.929 . S
C2161 C2153 1.433 . S
C2161 N2163 1.384 . S
N2162 C2158 1.427 . S
N2162 C2159 1.384 . S
N2163 C2155 1.427 . S
N2163 C2161 1.384 . S
H2164 C2170 0.930 . S
H2165 C2174 0.930 . S
H2166 C2179 0.929 . S
H2167 C2177 0.929 . S
H2168 C2172 0.929 . S
H2169 C2178 0.929 . S
C2170 H2164 0.930 . S
C2170 C2171 1.367 . S
C2170 C2178 1.378 . S
C2171 C2170 1.367 . S
C2171 C2179 1.433 . S
C2172 H2168 0.929 . S
C2172 C2174 1.378 . S
C2172 C2176 1.350 . S
C2173 C2176 1.463 . S
C2173 C2178 1.350 . S
C2173 N2181 1.427 . S
C2174 H2165 0.930 . S
C2174 C2172 1.378 . S
C2174 C2175 1.367 . S
C2175 C2174 1.367 . S
C2175 C2177 1.433 . S
C2176 C2172 1.350 . S
C2176 C2173 1.463 . S
C2176 N2180 1.427 . S
C2177 H2167 0.929 . S
C2177 C2175 1.433 . S
C2177 N2180 1.384 . S
C2178 H2169 0.929 . S
C2178 C2170 1.378 . S
C2178 C2173 1.350 . S
C2179 H2166 0.929 . S
C2179 C2171 1.433 . S
C2179 N2181 1.384 . S
N2180 C2176 1.427 . S
N2180 C2177 1.384 . S
N2181 C2173 1.427 . S
N2181 C2179 1.384 . S
H2182 C2188 0.930 . S
H2183 C2192 0.930 . S
H2184 C2197 0.929 . S
H2185 C2195 0.929 . S
H2186 C2190 0.929 . S
H2187 C2196 0.929 . S
C2188 H2182 0.930 . S
C2188 C2189 1.367 . S
C2188 C2196 1.378 . S
C2189 C2188 1.367 . S
C2189 C2197 1.433 . S
C2190 H2186 0.929 . S
C2190 C2192 1.378 . S
C2190 C2194 1.350 . S
C2191 C2194 1.463 . S
C2191 C2196 1.350 . S
C2191 N2199 1.427 . S
C2192 H2183 0.930 . S
C2192 C2190 1.378 . S
C2192 C2193 1.367 . S
C2193 C2192 1.367 . S
C2193 C2195 1.433 . S
C2194 C2190 1.350 . S
C2194 C2191 1.463 . S
C2194 N2198 1.427 . S
C2195 H2185 0.929 . S
C2195 C2193 1.433 . S
C2195 N2198 1.384 . S
C2196 H2187 0.929 . S
C2196 C2188 1.378 . S
C2196 C2191 1.350 . S
C2197 H2184 0.929 . S
C2197 C2189 1.433 . S
C2197 N2199 1.384 . S
N2198 C2194 1.427 . S
N2198 C2195 1.384 . S
N2199 C2191 1.427 . S
N2199 C2197 1.384 . S
H2200 C2206 0.930 . S
H2201 C2210 0.930 . S
H2202 C2215 0.929 . S
H2203 C2213 0.929 . S
H2204 C2208 0.929 . S
H2205 C2214 0.929 . S
C2206 H2200 0.930 . S
C2206 C2207 1.367 . S
C2206 C2214 1.378 . S
C2207 C2206 1.367 . S
C2207 C2215 1.433 . S
C2208 H2204 0.929 . S
C2208 C2210 1.378 . S
C2208 C2212 1.350 . S
C2209 C2212 1.463 . S
C2209 C2214 1.350 . S
C2209 N2217 1.427 . S
C2210 H2201 0.930 . S
C2210 C2208 1.378 . S
C2210 C2211 1.367 . S
C2211 C2210 1.367 . S
C2211 C2213 1.433 . S
C2212 C2208 1.350 . S
C2212 C2209 1.463 . S
C2212 N2216 1.427 . S
C2213 H2203 0.929 . S
C2213 C2211 1.433 . S
C2213 N2216 1.384 . S
C2214 H2205 0.929 . S
C2214 C2206 1.378 . S
C2214 C2209 1.350 . S
C2215 H2202 0.929 . S
C2215 C2207 1.433 . S
C2215 N2217 1.384 . S
N2216 C2212 1.427 . S
N2216 C2213 1.384 . S
N2217 C2209 1.427 . S
N2217 C2215 1.384 . S
H2218 C2224 0.930 . S
H2219 C2228 0.930 . S
H2220 C2233 0.929 . S
H2221 C2231 0.929 . S
H2222 C2226 0.929 . S
H2223 C2232 0.929 . S
C2224 H2218 0.930 . S
C2224 C2225 1.367 . S
C2224 C2232 1.378 . S
C2225 C2224 1.367 . S
C2225 C2233 1.433 . S
C2226 H2222 0.929 . S
C2226 C2228 1.378 . S
C2226 C2230 1.350 . S
C2227 C2230 1.463 . S
C2227 C2232 1.350 . S
C2227 N2235 1.427 . S
C2228 H2219 0.930 . S
C2228 C2226 1.378 . S
C2228 C2229 1.367 . S
C2229 C2228 1.367 . S
C2229 C2231 1.433 . S
C2230 C2226 1.350 . S
C2230 C2227 1.463 . S
C2230 N2234 1.427 . S
C2231 H2221 0.929 . S
C2231 C2229 1.433 . S
C2231 N2234 1.384 . S
C2232 H2223 0.929 . S
C2232 C2224 1.378 . S
C2232 C2227 1.350 . S
C2233 H2220 0.929 . S
C2233 C2225 1.433 . S
C2233 N2235 1.384 . S
N2234 C2230 1.427 . S
N2234 C2231 1.384 . S
N2235 C2227 1.427 . S
N2235 C2233 1.384 . S
H2236 C2242 0.930 . S
H2237 C2246 0.930 . S
H2238 C2251 0.929 . S
H2239 C2249 0.929 . S
H2240 C2244 0.929 . S
H2241 C2250 0.929 . S
C2242 H2236 0.930 . S
C2242 C2243 1.367 . S
C2242 C2250 1.378 . S
C2243 C2242 1.367 . S
C2243 C2251 1.433 . S
C2244 H2240 0.929 . S
C2244 C2246 1.378 . S
C2244 C2248 1.350 . S
C2245 C2248 1.463 . S
C2245 C2250 1.350 . S
C2245 N2253 1.427 . S
C2246 H2237 0.930 . S
C2246 C2244 1.378 . S
C2246 C2247 1.367 . S
C2247 C2246 1.367 . S
C2247 C2249 1.433 . S
C2248 C2244 1.350 . S
C2248 C2245 1.463 . S
C2248 N2252 1.427 . S
C2249 H2239 0.929 . S
C2249 C2247 1.433 . S
C2249 N2252 1.384 . S
C2250 H2241 0.929 . S
C2250 C2242 1.378 . S
C2250 C2245 1.350 . S
C2251 H2238 0.929 . S
C2251 C2243 1.433 . S
C2251 N2253 1.384 . S
N2252 C2248 1.427 . S
N2252 C2249 1.384 . S
N2253 C2245 1.427 . S
N2253 C2251 1.384 . S
H2254 C2260 0.930 . S
H2255 C2264 0.930 . S
H2256 C2269 0.929 . S
H2257 C2267 0.929 . S
H2258 C2262 0.929 . S
H2259 C2268 0.929 . S
C2260 H2254 0.930 . S
C2260 C2261 1.367 . S
C2260 C2268 1.378 . S
C2261 C2260 1.367 . S
C2261 C2269 1.433 . S
C2262 H2258 0.929 . S
C2262 C2264 1.378 . S
C2262 C2266 1.350 . S
C2263 C2266 1.463 . S
C2263 C2268 1.350 . S
C2263 N2271 1.427 . S
C2264 H2255 0.930 . S
C2264 C2262 1.378 . S
C2264 C2265 1.367 . S
C2265 C2264 1.367 . S
C2265 C2267 1.433 . S
C2266 C2262 1.350 . S
C2266 C2263 1.463 . S
C2266 N2270 1.427 . S
C2267 H2257 0.929 . S
C2267 C2265 1.433 . S
C2267 N2270 1.384 . S
C2268 H2259 0.929 . S
C2268 C2260 1.378 . S
C2268 C2263 1.350 . S
C2269 H2256 0.929 . S
C2269 C2261 1.433 . S
C2269 N2271 1.384 . S
N2270 C2266 1.427 . S
N2270 C2267 1.384 . S
N2271 C2263 1.427 . S
N2271 C2269 1.384 . S
H2272 C2278 0.930 . S
H2273 C2282 0.930 . S
H2274 C2287 0.929 . S
H2275 C2285 0.929 . S
H2276 C2280 0.929 . S
H2277 C2286 0.929 . S
C2278 H2272 0.930 . S
C2278 C2279 1.367 . S
C2278 C2286 1.378 . S
C2279 C2278 1.367 . S
C2279 C2287 1.433 . S
C2280 H2276 0.929 . S
C2280 C2282 1.378 . S
C2280 C2284 1.350 . S
C2281 C2284 1.463 . S
C2281 C2286 1.350 . S
C2281 N2289 1.427 . S
C2282 H2273 0.930 . S
C2282 C2280 1.378 . S
C2282 C2283 1.367 . S
C2283 C2282 1.367 . S
C2283 C2285 1.433 . S
C2284 C2280 1.350 . S
C2284 C2281 1.463 . S
C2284 N2288 1.427 . S
C2285 H2275 0.929 . S
C2285 C2283 1.433 . S
C2285 N2288 1.384 . S
C2286 H2277 0.929 . S
C2286 C2278 1.378 . S
C2286 C2281 1.350 . S
C2287 H2274 0.929 . S
C2287 C2279 1.433 . S
C2287 N2289 1.384 . S
N2288 C2284 1.427 . S
N2288 C2285 1.384 . S
N2289 C2281 1.427 . S
N2289 C2287 1.384 . S
H2290 C2296 0.930 . S
H2291 C2300 0.930 . S
H2292 C2305 0.929 . S
H2293 C2303 0.929 . S
H2294 C2298 0.929 . S
H2295 C2304 0.929 . S
C2296 H2290 0.930 . S
C2296 C2297 1.367 . S
C2296 C2304 1.378 . S
C2297 C2296 1.367 . S
C2297 C2305 1.433 . S
C2298 H2294 0.929 . S
C2298 C2300 1.378 . S
C2298 C2302 1.350 . S
C2299 C2302 1.463 . S
C2299 C2304 1.350 . S
C2299 N2307 1.427 . S
C2300 H2291 0.930 . S
C2300 C2298 1.378 . S
C2300 C2301 1.367 . S
C2301 C2300 1.367 . S
C2301 C2303 1.433 . S
C2302 C2298 1.350 . S
C2302 C2299 1.463 . S
C2302 N2306 1.427 . S
C2303 H2293 0.929 . S
C2303 C2301 1.433 . S
C2303 N2306 1.384 . S
C2304 H2295 0.929 . S
C2304 C2296 1.378 . S
C2304 C2299 1.350 . S
C2305 H2292 0.929 . S
C2305 C2297 1.433 . S
C2305 N2307 1.384 . S
N2306 C2302 1.427 . S
N2306 C2303 1.384 . S
N2307 C2299 1.427 . S
N2307 C2305 1.384 . S
H2308 C2314 0.930 . S
H2309 C2318 0.930 . S
H2310 C2323 0.929 . S
H2311 C2321 0.929 . S
H2312 C2316 0.929 . S
H2313 C2322 0.929 . S
C2314 H2308 0.930 . S
C2314 C2315 1.367 . S
C2314 C2322 1.378 . S
C2315 C2314 1.367 . S
C2315 C2323 1.433 . S
C2316 H2312 0.929 . S
C2316 C2318 1.378 . S
C2316 C2320 1.350 . S
C2317 C2320 1.463 . S
C2317 C2322 1.350 . S
C2317 N2325 1.427 . S
C2318 H2309 0.930 . S
C2318 C2316 1.378 . S
C2318 C2319 1.367 . S
C2319 C2318 1.367 . S
C2319 C2321 1.433 . S
C2320 C2316 1.350 . S
C2320 C2317 1.463 . S
C2320 N2324 1.427 . S
C2321 H2311 0.929 . S
C2321 C2319 1.433 . S
C2321 N2324 1.384 . S
C2322 H2313 0.929 . S
C2322 C2314 1.378 . S
C2322 C2317 1.350 . S
C2323 H2310 0.929 . S
C2323 C2315 1.433 . S
C2323 N2325 1.384 . S
N2324 C2320 1.427 . S
N2324 C2321 1.384 . S
N2325 C2317 1.427 . S
N2325 C2323 1.384 . S
H2326 C2332 0.930 . S
H2327 C2336 0.930 . S
H2328 C2341 0.929 . S
H2329 C2339 0.929 . S
H2330 C2334 0.929 . S
H2331 C2340 0.929 . S
C2332 H2326 0.930 . S
C2332 C2333 1.367 . S
C2332 C2340 1.378 . S
C2333 C2332 1.367 . S
C2333 C2341 1.433 . S
C2334 H2330 0.929 . S
C2334 C2336 1.378 . S
C2334 C2338 1.350 . S
C2335 C2338 1.463 . S
C2335 C2340 1.350 . S
C2335 N2343 1.427 . S
C2336 H2327 0.930 . S
C2336 C2334 1.378 . S
C2336 C2337 1.367 . S
C2337 C2336 1.367 . S
C2337 C2339 1.433 . S
C2338 C2334 1.350 . S
C2338 C2335 1.463 . S
C2338 N2342 1.427 . S
C2339 H2329 0.929 . S
C2339 C2337 1.433 . S
C2339 N2342 1.384 . S
C2340 H2331 0.929 . S
C2340 C2332 1.378 . S
C2340 C2335 1.350 . S
C2341 H2328 0.929 . S
C2341 C2333 1.433 . S
C2341 N2343 1.384 . S
N2342 C2338 1.427 . S
N2342 C2339 1.384 . S
N2343 C2335 1.427 . S
N2343 C2341 1.384 . S
H2344 C2350 0.930 . S
H2345 C2354 0.930 . S
H2346 C2359 0.929 . S
H2347 C2357 0.929 1_565 S
H2348 C2352 0.929 . S
H2349 C2358 0.929 . S
C2350 H2344 0.930 . S
C2350 C2351 1.367 . S
C2350 C2358 1.378 . S
C2351 C2350 1.367 . S
C2351 C2359 1.433 . S
C2352 H2348 0.929 . S
C2352 C2354 1.378 . S
C2352 C2356 1.350 . S
C2353 C2356 1.463 . S
C2353 C2358 1.350 . S
C2353 N2361 1.427 . S
C2354 H2345 0.930 . S
C2354 C2352 1.378 . S
C2354 C2355 1.367 . S
C2355 C2354 1.367 . S
C2355 C2357 1.433 . S
C2356 C2352 1.350 . S
C2356 C2353 1.463 . S
C2356 N2360 1.427 . S
C2357 H2347 0.929 1_545 S
C2357 C2355 1.433 . S
C2357 N2360 1.384 . S
C2358 H2349 0.929 . S
C2358 C2350 1.378 . S
C2358 C2353 1.350 . S
C2359 H2346 0.929 . S
C2359 C2351 1.433 . S
C2359 N2361 1.384 . S
N2360 C2356 1.427 . S
N2360 C2357 1.384 . S
N2361 C2353 1.427 . S
N2361 C2359 1.384 . S
H2362 C2368 0.930 . S
H2363 C2372 0.930 . S
H2364 C2377 0.929 . S
H2365 C2375 0.929 . S
H2366 C2370 0.929 . S
H2367 C2376 0.929 . S
C2368 H2362 0.930 . S
C2368 C2369 1.367 . S
C2368 C2376 1.378 . S
C2369 C2368 1.367 . S
C2369 C2377 1.433 . S
C2370 H2366 0.929 . S
C2370 C2372 1.378 . S
C2370 C2374 1.350 . S
C2371 C2374 1.463 . S
C2371 C2376 1.350 . S
C2371 N2379 1.427 . S
C2372 H2363 0.930 . S
C2372 C2370 1.378 . S
C2372 C2373 1.367 . S
C2373 C2372 1.367 . S
C2373 C2375 1.433 . S
C2374 C2370 1.350 . S
C2374 C2371 1.463 . S
C2374 N2378 1.427 . S
C2375 H2365 0.929 . S
C2375 C2373 1.433 . S
C2375 N2378 1.384 . S
C2376 H2367 0.929 . S
C2376 C2368 1.378 . S
C2376 C2371 1.350 . S
C2377 H2364 0.929 . S
C2377 C2369 1.433 . S
C2377 N2379 1.384 . S
N2378 C2374 1.427 . S
N2378 C2375 1.384 . S
N2379 C2371 1.427 . S
N2379 C2377 1.384 . S
H2380 C2386 0.930 . S
H2381 C2390 0.930 . S
H2382 C2395 0.929 . S
H2383 C2393 0.929 . S
H2384 C2388 0.929 . S
H2385 C2394 0.929 . S
C2386 H2380 0.930 . S
C2386 C2387 1.367 . S
C2386 C2394 1.378 . S
C2387 C2386 1.367 . S
C2387 C2395 1.433 . S
C2388 H2384 0.929 . S
C2388 C2390 1.378 . S
C2388 C2392 1.350 . S
C2389 C2392 1.463 . S
C2389 C2394 1.350 . S
C2389 N2397 1.427 . S
C2390 H2381 0.930 . S
C2390 C2388 1.378 . S
C2390 C2391 1.367 . S
C2391 C2390 1.367 . S
C2391 C2393 1.433 . S
C2392 C2388 1.350 . S
C2392 C2389 1.463 . S
C2392 N2396 1.427 . S
C2393 H2383 0.929 . S
C2393 C2391 1.433 . S
C2393 N2396 1.384 . S
C2394 H2385 0.929 . S
C2394 C2386 1.378 . S
C2394 C2389 1.350 . S
C2395 H2382 0.929 . S
C2395 C2387 1.433 . S
C2395 N2397 1.384 . S
N2396 C2392 1.427 . S
N2396 C2393 1.384 . S
N2397 C2389 1.427 . S
N2397 C2395 1.384 . S
H2398 C2404 0.930 . S
H2399 C2408 0.930 . S
H2400 C2413 0.929 . S
H2401 C2411 0.929 . S
H2402 C2406 0.929 . S
H2403 C2412 0.929 . S
C2404 H2398 0.930 . S
C2404 C2405 1.367 . S
C2404 C2412 1.378 . S
C2405 C2404 1.367 . S
C2405 C2413 1.433 . S
C2406 H2402 0.929 . S
C2406 C2408 1.378 . S
C2406 C2410 1.350 . S
C2407 C2410 1.463 . S
C2407 C2412 1.350 . S
C2407 N2415 1.427 . S
C2408 H2399 0.930 . S
C2408 C2406 1.378 . S
C2408 C2409 1.367 . S
C2409 C2408 1.367 . S
C2409 C2411 1.433 . S
C2410 C2406 1.350 . S
C2410 C2407 1.463 . S
C2410 N2414 1.427 . S
C2411 H2401 0.929 . S
C2411 C2409 1.433 . S
C2411 N2414 1.384 . S
C2412 H2403 0.929 . S
C2412 C2404 1.378 . S
C2412 C2407 1.350 . S
C2413 H2400 0.929 . S
C2413 C2405 1.433 . S
C2413 N2415 1.384 . S
N2414 C2410 1.427 . S
N2414 C2411 1.384 . S
N2415 C2407 1.427 . S
N2415 C2413 1.384 . S
H2416 C2422 0.930 . S
H2417 C2426 0.930 1_545 S
H2418 C2431 0.929 . S
H2419 C2429 0.929 . S
H2420 C2424 0.929 . S
H2421 C2430 0.929 . S
C2422 H2416 0.930 . S
C2422 C2423 1.367 . S
C2422 C2430 1.378 . S
C2423 C2422 1.367 . S
C2423 C2431 1.433 . S
C2424 H2420 0.929 . S
C2424 C2426 1.378 . S
C2424 C2428 1.350 . S
C2425 C2428 1.463 . S
C2425 C2430 1.350 . S
C2425 N2433 1.427 . S
C2426 H2417 0.930 1_565 S
C2426 C2424 1.378 . S
C2426 C2427 1.367 . S
C2427 C2426 1.367 . S
C2427 C2429 1.433 . S
C2428 C2424 1.350 . S
C2428 C2425 1.463 . S
C2428 N2432 1.427 . S
C2429 H2419 0.929 . S
C2429 C2427 1.433 . S
C2429 N2432 1.384 . S
C2430 H2421 0.929 . S
C2430 C2422 1.378 . S
C2430 C2425 1.350 . S
C2431 H2418 0.929 . S
C2431 C2423 1.433 . S
C2431 N2433 1.384 . S
N2432 C2428 1.427 . S
N2432 C2429 1.384 . S
N2433 C2425 1.427 . S
N2433 C2431 1.384 . S
H2434 C2440 0.930 . S
H2435 C2444 0.930 . S
H2436 C2449 0.929 . S
H2437 C2447 0.929 . S
H2438 C2442 0.929 . S
H2439 C2448 0.929 . S
C2440 H2434 0.930 . S
C2440 C2441 1.367 . S
C2440 C2448 1.378 . S
C2441 C2440 1.367 . S
C2441 C2449 1.433 . S
C2442 H2438 0.929 . S
C2442 C2444 1.378 . S
C2442 C2446 1.350 . S
C2443 C2446 1.463 . S
C2443 C2448 1.350 . S
C2443 N2451 1.427 . S
C2444 H2435 0.930 . S
C2444 C2442 1.378 . S
C2444 C2445 1.367 . S
C2445 C2444 1.367 . S
C2445 C2447 1.433 . S
C2446 C2442 1.350 . S
C2446 C2443 1.463 . S
C2446 N2450 1.427 . S
C2447 H2437 0.929 . S
C2447 C2445 1.433 . S
C2447 N2450 1.384 . S
C2448 H2439 0.929 . S
C2448 C2440 1.378 . S
C2448 C2443 1.350 . S
C2449 H2436 0.929 . S
C2449 C2441 1.433 . S
C2449 N2451 1.384 . S
N2450 C2446 1.427 . S
N2450 C2447 1.384 . S
N2451 C2443 1.427 . S
N2451 C2449 1.384 . S
C735 C376 1.064 . S
C731 C241 1.192 . S
C753 C384 1.107 . S
C749 C272 1.214 . S
C771 C379 1.261 . S
C767 C249 1.388 . S
C785 C206 1.648 . S
C789 C383 1.518 . S
C807 C438 1.329 . S
C803 C125 1.492 . S
C821 C142 1.201 . S
C825 C414 1.128 . S
C843 C441 1.119 . S
C839 C169 1.205 . S
C857 C103 1.741 . S
C861 C415 1.602 . S
C875 C315 1.778 . S
C879 C472 1.628 . S
C893 C338 1.429 . S
C897 C476 1.353 . S
C915 C531 0.983 . S
C911 C183 1.065 . S
C933 C539 1.632 . S
C929 C293 1.774 . S
C951 C469 1.041 . S
C947 C87 1.139 . S
C969 C477 1.570 . S
C965 C21 1.670 . S
C983 C43 1.723 . S
C987 C534 1.590 . S
C1001 C65 1.615 . S
C1005 C538 1.509 . S
C1019 C37 1.404 . S
C1023 C503 1.238 . S
C1041 C593 1.121 . S
C1037 C197 1.252 . S
C1055 C307 1.646 . S
C1059 C601 1.522 . S
C1077 C655 1.115 . S
C1073 C329 1.333 . S
C1091 C150 1.441 . S
C1095 C507 1.333 . S
C1113 C596 1.119 . S
C1109 C227 1.219 . S
C1131 C600 1.394 . S
C1127 C274 1.518 . S
C1149 C663 1.353 . S
C1145 C208 1.460 . S
C1163 C73 1.176 . S
C1167 C407 1.066 . S
C1181 C7 1.246 . S
C1185 C353 1.148 . S
C1203 C410 1.254 . S
C1199 C29 1.380 . S
C1217 C51 1.671 . S
C1221 C352 1.552 . S
C1235 C323 1.505 . S
C1239 C717 1.319 . S
C1253 C340 1.189 . S
C1257 C693 1.116 . S
C1275 C720 1.125 . S
C1271 C191 1.214 . S
C1289 C301 1.738 . S
C1293 C694 1.608 . S
C1307 C117 1.766 . S
C1311 C627 1.634 . S
C1329 C631 1.354 . S
C1325 C140 1.435 . S
C1347 C686 0.964 . S
C1343 C161 1.058 . S
C1365 C570 1.640 . S
C1361 C95 1.774 . S
C1383 C624 1.036 . S
C1379 C235 1.132 . S
C1397 C282 1.619 . S
C1401 C632 1.524 . S
C1415 C263 1.721 . S
C1419 C689 1.581 . S
C1437 C569 1.441 . S
C1433 C216 1.563 . S
C1451 C257 1.408 . S
C1455 C658 1.253 . S
C1473 C562 1.097 . S
C1469 C175 1.251 . S
C1487 C109 1.629 . S
C1491 C446 1.506 . S
C1505 C131 1.326 . S
C1509 C500 1.120 . S
C1523 C348 1.464 . S
C1527 C662 1.361 . S
C1541 C81 1.220 . S
C1545 C565 1.126 . S
C1559 C15 1.552 . S
C1563 C445 1.446 . S
C1581 C508 1.408 . S
C1577 C59 1.502 . S
C1599 C363 1.670 . S
C1595 C351 1.717 . S
C1617 C393 1.806 . S
C1613 C194 1.859 . S
C1635 C370 1.617 . S
C1631 C304 1.590 . S
C1653 C385 1.956 . S
C1649 C326 1.921 1_565 S
C1671 C425 1.578 . S
C1667 C205 1.620 . S
C1685 C230 2.049 . S
C1689 C416 2.082 . S
C1703 C271 1.764 . S
C1707 C432 1.806 . S
C1721 C250 1.994 1_565 S
C1725 C424 1.950 . S
C1743 C463 1.318 . S
C1739 C62 1.303 . S
C1761 C486 1.727 . S
C1757 C84 1.787 . S
C1775 C18 1.223 . S
C1779 C518 1.182 . S
C1797 C548 1.794 . S
C1793 C40 1.835 . S
C1811 C147 1.290 . S
C1815 C456 1.251 . S
C1833 C478 1.827 . S
C1829 C164 1.834 1_455 S
C1851 C525 1.256 . S
C1847 C98 1.234 . S
C1865 C120 1.871 1_655 S
C1869 C540 1.872 . S
C1887 C487 1.369 . S
C1883 C96 1.405 . S
C1901 C10 1.465 . S
C1905 C580 1.402 . S
C1919 C32 1.387 1_556 S
C1923 C610 1.368 . S
C1937 C54 1.249 . S
C1941 C649 1.304 . S
C1959 C509 1.765 . S
C1955 C238 1.729 . S
C1977 C587 1.379 . S
C1973 C337 1.340 . S
C1991 C184 1.835 . S
C1995 C602 1.874 . S
C2013 C672 1.201 . S
C2009 C316 1.215 . S
C2031 C394 1.679 . S
C2027 C153 1.722 . S
C2045 C172 1.855 1_545 S
C2049 C362 1.803 . S
C2063 C106 1.590 . S
C2067 C401 1.618 . S
C2081 C128 1.914 . S
C2085 C354 1.953 . S
C2103 C704 1.534 . S
C2099 C52 1.588 . S
C2121 C695 2.084 . S
C2117 C74 2.054 1_545 S
C2135 C8 1.729 . S
C2139 C711 1.751 . S
C2153 C30 2.001 . S
C2157 C703 1.957 . S
C2171 C219 1.341 . S
C2175 C618 1.371 . S
C2193 C641 1.716 . S
C2189 C228 1.774 1_655 S
C2211 C673 1.222 . S
C2207 C285 1.259 . S
C2225 C260 1.822 1_455 S
C2229 C579 1.779 . S
C2247 C611 1.265 . S
C2243 C345 1.298 . S
C2261 C186 1.857 . S
C2265 C633 1.848 . S
C2283 C680 1.252 . S
C2279 C296 1.242 . S
C2297 C318 1.890 . S
C2301 C571 1.891 . S
C2315 C294 1.402 . S
C2319 C642 1.364 . S
C2333 C279 1.496 . S
C2337 C549 1.456 . S
C2355 C455 1.389 . S
C2351 C252 1.403 . S
C2369 C213 1.298 . S
C2373 C494 1.355 . S
C2387 C76 1.712 1_556 S
C2391 C664 1.746 . S
C2405 C139 1.345 . S
C2409 C556 1.378 . S
C2427 C447 1.854 . S
C2423 C162 1.826 1_554 S
C2441 C118 1.191 . S
C2445 C517 1.166 . S
