# Generated by pormake.
# Topology ocu, (6,8)-cn, num edge types: 1
# Building blocks:
#     Node 0, Type 0, BuildingBlock: NUHQIS_clean_sbu_0, # of connection points: 6
#     Node 1, Type 0, BuildingBlock: NUHQIS_clean_sbu_0, # of connection points: 6
#     Node 2, Type 0, BuildingBlock: NUHQIS_clean_sbu_0, # of connection points: 6
#     Node 3, Type 0, BuildingBlock: NUHQIS_clean_sbu_0, # of connection points: 6
#     Node 4, Type 0, BuildingBlock: NUHQIS_clean_sbu_0, # of connection points: 6
#     Node 5, Type 0, BuildingBlock: NUHQIS_clean_sbu_0, # of connection points: 6
#     Node 6, Type 0, BuildingBlock: NUHQIS_clean_sbu_0, # of connection points: 6
#     Node 7, Type 0, BuildingBlock: NUHQIS_clean_sbu_0, # of connection points: 6
#     Node 8, Type 1, BuildingBlock: VETTIZ_charged_sbu_0, # of connection points: 8
#     Node 9, Type 1, BuildingBlock: VETTIZ_charged_sbu_0, # of connection points: 8
#     Node 10, Type 1, BuildingBlock: VETTIZ_charged_sbu_0, # of connection points: 8
#     Node 11, Type 1, BuildingBlock: VETTIZ_charged_sbu_0, # of connection points: 8
#     Node 12, Type 1, BuildingBlock: VETTIZ_charged_sbu_0, # of connection points: 8
#     Node 13, Type 1, BuildingBlock: VETTIZ_charged_sbu_0, # of connection points: 8
#     Edge 14, Type (0, 1), BuildingBlock: XIVTED_clean_linker_0, # of connection points: 2
#     Edge 15, Type (0, 1), BuildingBlock: XIVTED_clean_linker_0, # of connection points: 2
#     Edge 16, Type (0, 1), BuildingBlock: XIVTED_clean_linker_0, # of connection points: 2
#     Edge 17, Type (0, 1), BuildingBlock: XIVTED_clean_linker_0, # of connection points: 2
#     Edge 18, Type (0, 1), BuildingBlock: XIVTED_clean_linker_0, # of connection points: 2
#     Edge 19, Type (0, 1), BuildingBlock: XIVTED_clean_linker_0, # of connection points: 2
#     Edge 20, Type (0, 1), BuildingBlock: XIVTED_clean_linker_0, # of connection points: 2
#     Edge 21, Type (0, 1), BuildingBlock: XIVTED_clean_linker_0, # of connection points: 2
#     Edge 22, Type (0, 1), BuildingBlock: XIVTED_clean_linker_0, # of connection points: 2
#     Edge 23, Type (0, 1), BuildingBlock: XIVTED_clean_linker_0, # of connection points: 2
#     Edge 24, Type (0, 1), BuildingBlock: XIVTED_clean_linker_0, # of connection points: 2
#     Edge 25, Type (0, 1), BuildingBlock: XIVTED_clean_linker_0, # of connection points: 2
#     Edge 26, Type (0, 1), BuildingBlock: XIVTED_clean_linker_0, # of connection points: 2
#     Edge 27, Type (0, 1), BuildingBlock: XIVTED_clean_linker_0, # of connection points: 2
#     Edge 28, Type (0, 1), BuildingBlock: XIVTED_clean_linker_0, # of connection points: 2
#     Edge 29, Type (0, 1), BuildingBlock: XIVTED_clean_linker_0, # of connection points: 2
#     Edge 30, Type (0, 1), BuildingBlock: XIVTED_clean_linker_0, # of connection points: 2
#     Edge 31, Type (0, 1), BuildingBlock: XIVTED_clean_linker_0, # of connection points: 2
#     Edge 32, Type (0, 1), BuildingBlock: XIVTED_clean_linker_0, # of connection points: 2
#     Edge 33, Type (0, 1), BuildingBlock: XIVTED_clean_linker_0, # of connection points: 2
#     Edge 34, Type (0, 1), BuildingBlock: XIVTED_clean_linker_0, # of connection points: 2
#     Edge 35, Type (0, 1), BuildingBlock: XIVTED_clean_linker_0, # of connection points: 2
#     Edge 36, Type (0, 1), BuildingBlock: XIVTED_clean_linker_0, # of connection points: 2
#     Edge 37, Type (0, 1), BuildingBlock: XIVTED_clean_linker_0, # of connection points: 2
#     Edge 38, Type (0, 1), BuildingBlock: XIVTED_clean_linker_0, # of connection points: 2
#     Edge 39, Type (0, 1), BuildingBlock: XIVTED_clean_linker_0, # of connection points: 2
#     Edge 40, Type (0, 1), BuildingBlock: XIVTED_clean_linker_0, # of connection points: 2
#     Edge 41, Type (0, 1), BuildingBlock: XIVTED_clean_linker_0, # of connection points: 2
#     Edge 42, Type (0, 1), BuildingBlock: XIVTED_clean_linker_0, # of connection points: 2
#     Edge 43, Type (0, 1), BuildingBlock: XIVTED_clean_linker_0, # of connection points: 2
#     Edge 44, Type (0, 1), BuildingBlock: XIVTED_clean_linker_0, # of connection points: 2
#     Edge 45, Type (0, 1), BuildingBlock: XIVTED_clean_linker_0, # of connection points: 2
#     Edge 46, Type (0, 1), BuildingBlock: XIVTED_clean_linker_0, # of connection points: 2
#     Edge 47, Type (0, 1), BuildingBlock: XIVTED_clean_linker_0, # of connection points: 2
#     Edge 48, Type (0, 1), BuildingBlock: XIVTED_clean_linker_0, # of connection points: 2
#     Edge 49, Type (0, 1), BuildingBlock: XIVTED_clean_linker_0, # of connection points: 2
#     Edge 50, Type (0, 1), BuildingBlock: XIVTED_clean_linker_0, # of connection points: 2
#     Edge 51, Type (0, 1), BuildingBlock: XIVTED_clean_linker_0, # of connection points: 2
#     Edge 52, Type (0, 1), BuildingBlock: XIVTED_clean_linker_0, # of connection points: 2
#     Edge 53, Type (0, 1), BuildingBlock: XIVTED_clean_linker_0, # of connection points: 2
#     Edge 54, Type (0, 1), BuildingBlock: XIVTED_clean_linker_0, # of connection points: 2
#     Edge 55, Type (0, 1), BuildingBlock: XIVTED_clean_linker_0, # of connection points: 2
#     Edge 56, Type (0, 1), BuildingBlock: XIVTED_clean_linker_0, # of connection points: 2
#     Edge 57, Type (0, 1), BuildingBlock: XIVTED_clean_linker_0, # of connection points: 2
#     Edge 58, Type (0, 1), BuildingBlock: XIVTED_clean_linker_0, # of connection points: 2
#     Edge 59, Type (0, 1), BuildingBlock: XIVTED_clean_linker_0, # of connection points: 2
#     Edge 60, Type (0, 1), BuildingBlock: XIVTED_clean_linker_0, # of connection points: 2
#     Edge 61, Type (0, 1), BuildingBlock: XIVTED_clean_linker_0, # of connection points: 2
# Relax obj value: 0.133
# Max RMSD: 0.211
# Mean RMSD: 0.130
data_MOF--net-ocu--node1-NUHQIS_clean_sbu_0--node2-VETTIZ_charged_sbu_0--edge1-XIVTED_clean_linker_0
_symmetry_space_group_name_H-M    P1
_symmetry_Int_Tables_number       1
_symmetry_cell_setting            triclinic
loop_
_symmetry_equiv_pos_as_xyz
'x, y, z'
_cell_length_a     38.223272
_cell_length_b     40.450715
_cell_length_c     40.945735
_cell_angle_alpha  96.599361
_cell_angle_beta   85.202675
_cell_angle_gamma 101.60899
loop_
_atom_site_label
_atom_site_type_symbol
_atom_site_fract_x
_atom_site_fract_y
_atom_site_fract_z
_atom_type_partial_charge
Tb0 Tb 0.27467 0.27732 0.26271 0.0
Eu1 Eu 0.33278 0.31225 0.31291 0.0
C2 C 0.35087 0.25039 0.25265 0.0
C3 C 0.27856 0.24433 0.32813 0.0
C4 C 0.19043 0.25454 0.21856 0.0
C5 C 0.14103 0.24067 0.18294 0.0
C6 C 0.17012 0.23173 0.19578 0.0
C7 C 0.17985 0.28501 0.2306 0.0
C8 C 0.15089 0.29399 0.21784 0.0
C9 C 0.13229 0.27265 0.19265 0.0
C10 C 0.22359 0.24722 0.22833 0.0
O11 O 0.24656 0.31707 0.29329 0.0
O12 O 0.28832 0.34326 0.32959 0.0
O13 O 0.33253 0.35109 0.27873 0.0
O14 O 0.30883 0.31637 0.23495 0.0
C15 C 0.2561 0.34059 0.31856 0.0
O16 O 0.35065 0.33017 0.36194 0.0
O17 O 0.38778 0.33869 0.31952 0.0
O18 O 0.36129 0.27254 0.27858 0.0
O19 O 0.31801 0.24839 0.24298 0.0
O20 O 0.27534 0.23953 0.29632 0.0
O21 O 0.29736 0.2725 0.34144 0.0
C22 C 0.32756 0.34533 0.24734 0.0
O23 O 0.25301 0.2653 0.21637 0.0
O24 O 0.22465 0.24498 0.25964 0.0
C25 C 0.40966 0.32622 0.36812 0.0
C26 C 0.44318 0.28449 0.39982 0.0
C27 C 0.42277 0.30616 0.41831 0.0
C28 C 0.40634 0.32708 0.40254 0.0
C29 C 0.43321 0.30744 0.35001 0.0
C30 C 0.4501 0.28691 0.36584 0.0
C31 C 0.38392 0.33984 0.35157 0.0
H32 H 0.12699 0.22365 0.16382 0.0
H33 H 0.17783 0.20782 0.18673 0.0
H34 H 0.19517 0.30269 0.24847 0.0
H35 H 0.14531 0.319 0.22564 0.0
H36 H 0.41694 0.30494 0.44453 0.0
H37 H 0.38854 0.34169 0.41695 0.0
H38 H 0.43669 0.30667 0.32342 0.0
H39 H 0.46664 0.27124 0.35116 0.0
Tb40 Tb 0.81544 0.28852 0.30368 0.0
Eu41 Eu 0.75761 0.33898 0.30559 0.0
C42 C 0.75585 0.27372 0.25611 0.0
C43 C 0.83241 0.34912 0.26066 0.0
C44 C 0.85643 0.22247 0.32888 0.0
C45 C 0.83871 0.16611 0.34732 0.0
C46 C 0.84067 0.18799 0.32295 0.0
C47 C 0.87083 0.2345 0.35944 0.0
C48 C 0.86904 0.21262 0.38369 0.0
C49 C 0.85273 0.17825 0.37802 0.0
C50 C 0.85494 0.24602 0.30428 0.0
O51 O 0.81697 0.31689 0.35185 0.0
O52 O 0.79953 0.36494 0.33953 0.0
O53 O 0.74232 0.30939 0.3498 0.0
O54 O 0.76728 0.26355 0.3299 0.0
C55 C 0.81405 0.34872 0.35906 0.0
O56 O 0.73975 0.3814 0.28792 0.0
O57 O 0.70705 0.35285 0.32466 0.0
O58 O 0.73596 0.28979 0.27713 0.0
O59 O 0.79062 0.28039 0.25727 0.0
O60 O 0.84533 0.33195 0.28049 0.0
O61 O 0.7981 0.35048 0.26242 0.0
C62 C 0.74595 0.27801 0.35124 0.0
O63 O 0.82553 0.23985 0.28875 0.0
O64 O 0.86512 0.27837 0.31326 0.0
C65 C 0.67768 0.37009 0.28374 0.0
C66 C 0.62329 0.36215 0.23977 0.0
C67 C 0.64006 0.33497 0.24311 0.0
C68 C 0.6671 0.33894 0.2649 0.0
C69 C 0.65987 0.39671 0.28179 0.0
C70 C 0.63278 0.39278 0.25998 0.0
C71 C 0.70856 0.37519 0.30388 0.0
H72 H 0.82596 0.13978 0.34221 0.0
H73 H 0.82925 0.17807 0.29963 0.0
H74 H 0.88321 0.2609 0.36485 0.0
H75 H 0.88101 0.22259 0.40674 0.0
H76 H 0.6332 0.31106 0.22801 0.0
H77 H 0.68053 0.31804 0.26626 0.0
H78 H 0.66779 0.42089 0.29619 0.0
H79 H 0.62079 0.4144 0.25757 0.0
Tb80 Tb 0.77787 0.77922 0.3076 0.0
Eu81 Eu 0.84207 0.78838 0.25372 0.0
C82 C 0.77277 0.72879 0.24192 0.0
C83 C 0.8476 0.74149 0.31506 0.0
C84 C 0.72604 0.78662 0.38776 0.0
C85 C 0.68799 0.80188 0.43496 0.0
C86 C 0.69237 0.78321 0.4046 0.0
C87 C 0.75594 0.80669 0.40268 0.0
C88 C 0.75161 0.82539 0.43313 0.0
C89 C 0.71728 0.82441 0.44885 0.0
C90 C 0.72864 0.7733 0.35307 0.0
O91 O 0.81188 0.82657 0.32547 0.0
O92 O 0.86352 0.81368 0.30148 0.0
O93 O 0.80586 0.82417 0.23853 0.0
O94 O 0.75505 0.80588 0.26989 0.0
C95 C 0.84672 0.83089 0.32425 0.0
O96 O 0.88588 0.82543 0.23366 0.0
O97 O 0.87666 0.77291 0.21237 0.0
O98 O 0.80217 0.74643 0.22887 0.0
O99 O 0.76092 0.73594 0.27233 0.0
O100 O 0.81862 0.75334 0.32857 0.0
O101 O 0.85897 0.74904 0.28458 0.0
C102 C 0.7713 0.82453 0.24586 0.0
O103 O 0.73363 0.79619 0.33245 0.0
O104 O 0.74946 0.7515 0.3452 0.0
C105 C 0.93615 0.80098 0.21791 0.0
C106 C 1.00686 0.79094 0.21824 0.0
C107 C 0.99915 0.81698 0.20148 0.0
C108 C 0.9639 0.82162 0.20096 0.0
C109 C 0.94426 0.77807 0.23792 0.0
C110 C 0.97911 0.77291 0.23796 0.0
C111 C 0.89867 0.80226 0.21416 0.0
H112 H 0.66109 0.80075 0.44603 0.0
H113 H 0.66905 0.76788 0.39328 0.0
H114 H 0.7822 0.80948 0.38991 0.0
H115 H 0.77476 0.84217 0.44335 0.0
H116 H 1.01986 0.83235 0.18704 0.0
H117 H 0.95815 0.84026 0.18623 0.0
H118 H 0.92329 0.76254 0.25199 0.0
H119 H 0.98322 0.75259 0.25131 0.0
Tb120 Tb 0.36773 0.72644 0.31087 0.0
Eu121 Eu 0.32068 0.77595 0.28379 0.0
C122 C 0.37772 0.80325 0.33694 0.0
C123 C 0.29351 0.73387 0.34561 0.0
C124 C 0.44666 0.69646 0.33138 0.0
C125 C 0.49803 0.66997 0.33152 0.0
C126 C 0.46266 0.67179 0.34215 0.0
C127 C 0.46771 0.72226 0.31434 0.0
C128 C 0.50258 0.71994 0.30298 0.0
C129 C 0.51678 0.69157 0.30845 0.0
C130 C 0.40763 0.69211 0.33242 0.0
O131 O 0.33999 0.69722 0.26864 0.0
O132 O 0.29125 0.72265 0.27271 0.0
O133 O 0.36219 0.76436 0.24447 0.0
O134 O 0.40374 0.7597 0.2795 0.0
C135 C 0.30694 0.69725 0.26168 0.0
O136 O 0.28314 0.78441 0.24957 0.0
O137 O 0.30818 0.82599 0.2831 0.0
O138 O 0.36684 0.80969 0.30927 0.0
O139 O 0.37191 0.77214 0.34511 0.0
O140 O 0.31494 0.71299 0.33425 0.0
O141 O 0.29465 0.76278 0.33331 0.0
C142 C 0.39557 0.7665 0.25089 0.0
O143 O 0.39381 0.71543 0.35043 0.0
O144 O 0.39414 0.68526 0.30368 0.0
C145 C 0.25009 0.8265 0.26996 0.0
C146 C 0.19065 0.8552 0.29403 0.0
C147 C 0.21163 0.86663 0.26615 0.0
C148 C 0.24123 0.85242 0.25427 0.0
C149 C 0.22801 0.81349 0.2964 0.0
C150 C 0.1985 0.82769 0.30833 0.0
C151 C 0.2844 0.81595 0.26124 0.0
H152 H 0.50884 0.64901 0.33803 0.0
H153 H 0.44699 0.65225 0.35626 0.0
H154 H 0.45603 0.74218 0.30673 0.0
H155 H 0.51601 0.73795 0.28624 0.0
H156 H 0.20604 0.88748 0.25436 0.0
H157 H 0.25811 0.86268 0.23378 0.0
H158 H 0.23468 0.79356 0.30887 0.0
H159 H 0.18332 0.81854 0.33013 0.0
Tb160 Tb 0.33225 0.76851 0.78425 0.0
Eu161 Eu 0.27417 0.81486 0.80991 0.0
C162 C 0.25804 0.75408 0.74818 0.0
C163 C 0.32941 0.8314 0.75023 0.0
C164 C 0.41285 0.73376 0.78703 0.0
C165 C 0.44725 0.69711 0.80757 0.0
C166 C 0.42258 0.70206 0.78611 0.0
C167 C 0.42942 0.76089 0.8086 0.0
C168 C 0.45401 0.75598 0.83002 0.0
C169 C 0.46245 0.72381 0.83039 0.0
C170 C 0.38308 0.73761 0.76807 0.0
O171 O 0.36009 0.81004 0.81976 0.0
O172 O 0.31251 0.82517 0.85135 0.0
O173 O 0.2564 0.77017 0.83869 0.0
O174 O 0.30745 0.74748 0.82918 0.0
C175 C 0.34723 0.82574 0.84707 0.0
O176 O 0.26422 0.8651 0.82879 0.0
O177 O 0.22003 0.82559 0.81365 0.0
O178 O 0.25264 0.78384 0.76245 0.0
O179 O 0.28527 0.74153 0.75637 0.0
O180 O 0.32956 0.79904 0.74455 0.0
O181 O 0.31841 0.84368 0.77916 0.0
C182 C 0.27592 0.7485 0.84443 0.0
O183 O 0.35134 0.72273 0.77871 0.0
O184 O 0.38322 0.76826 0.76104 0.0
C185 C 0.22693 0.87759 0.792 0.0
C186 C 0.22266 0.91412 0.73844 0.0
C187 C 0.20572 0.92236 0.76944 0.0
C188 C 0.20803 0.90423 0.79623 0.0
C189 C 0.24389 0.86975 0.76123 0.0
C190 C 0.2423 0.88803 0.735 0.0
C191 C 0.23179 0.85823 0.81888 0.0
H192 H 0.45285 0.67191 0.80754 0.0
H193 H 0.40998 0.68079 0.76978 0.0
H194 H 0.42246 0.78565 0.80978 0.0
H195 H 0.46553 0.77712 0.84704 0.0
H196 H 0.19017 0.94224 0.77278 0.0
H197 H 0.19504 0.91082 0.81994 0.0
H198 H 0.25868 0.84938 0.75743 0.0
H199 H 0.25647 0.88149 0.71189 0.0
Tb200 Tb 0.29426 0.30687 0.77256 0.0
Eu201 Eu 0.28824 0.24602 0.82097 0.0
C202 C 0.33825 0.31831 0.83383 0.0
C203 C 0.34591 0.25553 0.76048 0.0
C204 C 0.27998 0.37891 0.7292 0.0
C205 C 0.26822 0.4164 0.69123 0.0
C206 C 0.28791 0.39339 0.69942 0.0
C207 C 0.25205 0.38759 0.75085 0.0
C208 C 0.23238 0.4108 0.74276 0.0
C209 C 0.24033 0.42552 0.71285 0.0
C210 C 0.30167 0.35541 0.73745 0.0
O211 O 0.24448 0.27299 0.76066 0.0
O212 O 0.25726 0.22425 0.7762 0.0
O213 O 0.23818 0.26719 0.83491 0.0
O214 O 0.25702 0.31874 0.81354 0.0
C215 C 0.23916 0.23979 0.75898 0.0
O216 O 0.28662 0.19236 0.82513 0.0
O217 O 0.28629 0.22743 0.86922 0.0
O218 O 0.31484 0.29511 0.84793 0.0
O219 O 0.34065 0.31855 0.80183 0.0
O220 O 0.32399 0.27016 0.7468 0.0
O221 O 0.34137 0.2506 0.79181 0.0
C222 C 0.23476 0.29853 0.83235 0.0
O223 O 0.31027 0.35877 0.76795 0.0
O224 O 0.29178 0.32369 0.72622 0.0
C225 C 0.3157 0.18091 0.87008 0.0
C226 C 0.36523 0.14892 0.89593 0.0
C227 C 0.33601 0.12965 0.87912 0.0
C228 C 0.31151 0.14548 0.86648 0.0
C229 C 0.34532 0.2004 0.88605 0.0
C230 C 0.36979 0.18455 0.89891 0.0
C231 C 0.28887 0.19672 0.85697 0.0
H232 H 0.27449 0.42657 0.66764 0.0
H233 H 0.30932 0.38681 0.68241 0.0
H234 H 0.24561 0.37659 0.77402 0.0
H235 H 0.21119 0.41738 0.75999 0.0
H236 H 0.33197 0.10224 0.87575 0.0
H237 H 0.28908 0.12996 0.85398 0.0
H238 H 0.34938 0.22783 0.88893 0.0
H239 H 0.39172 0.20022 0.91194 0.0
Tb240 Tb 0.84238 0.27947 0.80328 0.0
Eu241 Eu 0.77855 0.31923 0.80355 0.0
C242 C 0.84711 0.35027 0.84458 0.0
C243 C 0.77156 0.25843 0.8521 0.0
C244 C 0.93104 0.25033 0.79963 0.0
C245 C 0.98343 0.22985 0.81202 0.0
C246 C 0.94904 0.23587 0.82104 0.0
C247 C 0.94933 0.26249 0.77099 0.0
C248 C 0.98358 0.25628 0.76183 0.0
C249 C 0.99997 0.23775 0.78116 0.0
C250 C 0.89214 0.24744 0.80513 0.0
O251 O 0.79937 0.24366 0.77971 0.0
O252 O 0.77866 0.28367 0.75726 0.0
O253 O 0.82353 0.35167 0.77384 0.0
O254 O 0.85867 0.31163 0.76054 0.0
C255 C 0.78165 0.25217 0.75719 0.0
O256 O 0.73773 0.33086 0.775 0.0
O257 O 0.74105 0.35054 0.82622 0.0
O258 O 0.81229 0.34732 0.84463 0.0
O259 O 0.864 0.3299 0.82506 0.0
O260 O 0.80685 0.26214 0.84699 0.0
O261 O 0.75427 0.27463 0.83443 0.0
C262 C 0.85037 0.34128 0.75576 0.0
O263 O 0.88057 0.26572 0.83047 0.0
O264 O 0.87382 0.24618 0.77929 0.0
C265 C 0.68398 0.3333 0.80606 0.0
C266 C 0.61231 0.31381 0.82908 0.0
C267 C 0.63563 0.29069 0.82666 0.0
C268 C 0.67132 0.30044 0.81531 0.0
C269 C 0.6601 0.35504 0.80505 0.0
C270 C 0.62447 0.34535 0.81629 0.0
C271 C 0.72236 0.34597 0.8003 0.0
H272 H 0.99562 0.21623 0.8278 0.0
H273 H 0.93546 0.22678 0.84355 0.0
H274 H 0.93612 0.27423 0.75433 0.0
H275 H 0.99531 0.2628 0.73786 0.0
H276 H 0.62706 0.26616 0.83599 0.0
H277 H 0.68948 0.28312 0.81566 0.0
H278 H 0.66948 0.38035 0.79761 0.0
H279 H 0.60758 0.36408 0.818 0.0
Tb280 Tb 0.77499 0.77477 0.77459 0.0
Eu281 Eu 0.83926 0.79031 0.82527 0.0
C282 C 0.84168 0.73768 0.76133 0.0
C283 C 0.77426 0.72617 0.82882 0.0
C284 C 0.70508 0.78481 0.7222 0.0
C285 C 0.67396 0.79783 0.67766 0.0
C286 C 0.69076 0.77559 0.69137 0.0
C287 C 0.70188 0.81605 0.73965 0.0
C288 C 0.68496 0.83818 0.72609 0.0
C289 C 0.6714 0.82955 0.69472 0.0
C290 C 0.72623 0.76331 0.73462 0.0
O291 O 0.75274 0.80006 0.81974 0.0
O292 O 0.80454 0.8287 0.84239 0.0
O293 O 0.85746 0.8209 0.78236 0.0
O294 O 0.80317 0.82606 0.76637 0.0
C295 C 0.76951 0.8232 0.84143 0.0
O296 O 0.85902 0.79375 0.87432 0.0
O297 O 0.89601 0.80747 0.83302 0.0
O298 O 0.84889 0.74393 0.79243 0.0
O299 O 0.81861 0.75236 0.74917 0.0
O300 O 0.7689 0.72832 0.798 0.0
O301 O 0.79634 0.74981 0.84566 0.0
C302 C 0.83813 0.83578 0.76589 0.0
O303 O 0.76021 0.77031 0.72592 0.0
O304 O 0.72058 0.75894 0.76578 0.0
C305 C 0.91474 0.7776 0.87158 0.0
C306 C 0.95456 0.73136 0.88824 0.0
C307 C 0.95977 0.76473 0.90379 0.0
C308 C 0.93991 0.78774 0.89549 0.0
C309 C 0.91024 0.74469 0.8554 0.0
C310 C 0.93006 0.72182 0.86354 0.0
C311 C 0.89251 0.80074 0.8636 0.0
H312 H 0.66406 0.79068 0.65332 0.0
H313 H 0.6935 0.75166 0.67752 0.0
H314 H 0.71316 0.82362 0.76341 0.0
H315 H 0.68281 0.86219 0.74003 0.0
H316 H 0.97817 0.77265 0.9232 0.0
H317 H 0.94368 0.81311 0.90814 0.0
H318 H 0.89094 0.73649 0.83683 0.0
H319 H 0.92577 0.69645 0.85085 0.0
Fe320 Fe 0.05015 0.10884 0.52557 0.0
O321 O 0.0445 0.05897 0.52063 0.0
Fe322 Fe 0.09033 0.03974 0.52687 0.0
Fe323 Fe 1.01005 0.02985 0.5504 0.0
O324 O 0.04828 0.05958 0.51943 0.0
O325 O 0.05469 1.00861 0.55352 0.0
O326 O 0.05153 1.0081 0.55452 0.0
Fe327 Fe 0.0493 0.95914 0.5495 0.0
C328 C 1.02649 0.09457 0.59441 0.0
O329 O 1.00056 0.09619 0.50637 0.0
O330 O 0.97082 0.05648 0.54088 0.0
O331 O 0.07625 0.95689 0.50393 0.0
O332 O 0.08127 1.00732 0.48467 0.0
O333 O 0.12243 0.07557 0.49744 0.0
O334 O 0.08318 0.10712 0.48283 0.0
O335 O 0.99345 0.99671 0.51041 0.0
O336 O 1.00207 0.94786 0.52578 0.0
C337 C 0.11364 0.09699 0.47948 0.0
O338 O 0.09883 0.9717 0.5688 0.0
O339 O 0.12997 1.01522 0.53929 0.0
O340 O 1.0217 0.11003 0.57037 0.0
O341 O 1.0258 0.06285 0.59095 0.0
C342 C 0.97183 0.07783 0.51911 0.0
C343 C 0.98805 0.96448 0.50754 0.0
C344 C 0.98905 0.97431 0.59969 0.0
O345 O 0.97942 0.99626 0.58292 0.0
O346 O 1.01805 0.96198 0.59314 0.0
C347 C 0.08043 0.97551 0.48028 0.0
O348 O 0.10094 0.07195 0.56887 0.0
O349 O 0.09714 0.12031 0.55003 0.0
C350 C 0.12783 0.99197 0.55927 0.0
C351 C 0.10745 0.10414 0.57114 0.0
Fe352 Fe 0.5755 0.97676 0.06728 0.0
O353 O 0.60689 1.01874 0.05196 0.0
Fe354 Fe 0.49561 1.00659 0.09289 0.0
Fe355 Fe 0.65914 0.02755 0.05216 0.0
O356 O 0.54914 1.01223 0.09264 0.0
O357 O 0.54828 1.01793 0.09207 0.0
O358 O 0.606 1.02332 0.05152 0.0
Fe359 Fe 0.57675 0.05886 0.07156 0.0
C360 C 0.64254 0.97232 0.10594 0.0
O361 O 0.60795 0.9472 0.03578 0.0
O362 O 0.65385 0.98772 1.01555 0.0
O363 O 0.54558 0.0497 0.03149 0.0
O364 O 0.49219 0.0389 0.05856 0.0
O365 O 0.49001 0.96684 0.05521 0.0
O366 O 0.54237 0.97188 0.02663 0.0
O367 O 0.65863 0.06694 1.02219 0.0
O368 O 0.61406 0.09604 0.04342 0.0
C369 C 0.50811 0.96179 0.02812 0.0
O370 O 0.53881 0.09023 0.09949 0.0
O371 O 0.49837 0.0509 0.12689 0.0
O372 O 0.60844 0.97245 0.10741 0.0
O373 O 0.66264 0.98998 0.08476 0.0
C374 C 0.63591 0.95683 1.01574 0.0
C375 C 0.64265 0.09283 1.02339 0.0
C376 C 0.64105 0.0749 0.11347 0.0
O377 O 0.66258 0.06407 0.09129 0.0
O378 O 0.60739 0.06994 0.11123 0.0
C379 C 0.5118 0.04745 0.03309 0.0
O380 O 0.50049 0.96955 0.12264 0.0
O381 O 0.53779 0.93947 0.08878 0.0
C382 C 0.51107 0.08251 0.12135 0.0
C383 C 0.51485 0.94288 0.11382 0.0
Fe384 Fe 0.10507 0.55901 0.04893 0.0
O385 O 0.06242 0.52936 0.06872 0.0
Fe386 Fe 0.16175 0.50374 1.02053 0.0
Fe387 Fe 1.0148 0.54062 0.07387 0.0
O388 O 0.11457 0.51655 1.02323 0.0
O389 O 0.11271 0.51355 1.02242 0.0
O390 O 0.06117 0.5266 0.06867 0.0
Fe391 Fe 0.07048 0.48378 0.04352 0.0
C392 C 0.06797 0.60127 0.10339 0.0
O393 O 0.07655 0.56753 1.0115 0.0
O394 O 1.02661 0.57634 0.04076 0.0
O395 O 0.08679 0.44245 1.01278 0.0
O396 O 0.13936 0.46729 0.98504 0.0
O397 O 0.17555 0.54461 0.99253 0.0
O398 O 0.15069 0.58535 1.02501 0.0
O399 O 0.99278 0.50569 0.03634 0.0
O400 O 1.03895 0.48862 1.00681 0.0
C401 C 0.1714 0.57571 1.00048 0.0
O402 O 0.1009 0.47873 0.08032 0.0
O403 O 0.14791 0.46504 0.05099 0.0
O404 O 0.09095 0.60002 0.07834 0.0
O405 O 1.03943 0.57823 0.1083 0.0
C406 C 0.04722 0.57818 1.01467 0.0
C407 C 1.00636 0.49192 1.00997 0.0
C408 C 1.00436 0.4694 0.09475 0.0
O409 O 1.00261 0.5011 0.10274 0.0
O410 O 1.02509 0.45801 0.07072 0.0
C411 C 0.11187 0.44284 0.98878 0.0
O412 O 0.18172 0.53767 0.05997 0.0
O413 O 0.1335 0.55236 0.08696 0.0
C414 C 0.1249 0.4611 0.07525 0.0
C415 C 0.16624 0.55032 0.08582 0.0
Fe416 Fe 0.54603 0.53507 0.9937 0.0
O417 O 0.58238 0.5398 0.02711 0.0
Fe418 Fe 0.47102 0.55405 0.04112 0.0
Fe419 Fe 0.62144 0.51406 1.02253 0.0
O420 O 0.51045 0.52938 0.03218 0.0
O421 O 0.51023 0.52841 0.03509 0.0
O422 O 0.58225 0.53925 0.03006 0.0
Fe423 Fe 0.54661 0.53366 0.06838 0.0
C424 C 0.56549 0.46606 0.98195 0.0
O425 O 0.58869 0.54237 0.95745 0.0
O426 O 0.6391 0.54542 0.98584 0.0
O427 O 0.54981 0.58489 0.07341 0.0
O428 O 0.49228 0.58619 0.08086 0.0
O429 O 0.49256 0.59022 1.00972 0.0
O430 O 0.54985 0.58663 0.99814 0.0
O431 O 0.64025 0.54717 0.06205 0.0
O432 O 0.59046 0.54237 0.09869 0.0
C433 C 0.52408 0.60224 0.99847 0.0
O434 O 0.50323 0.52486 0.10434 0.0
O435 O 0.45309 0.51968 0.07493 0.0
O436 O 0.54137 0.48368 0.98764 0.0
O437 O 0.59834 0.47816 0.98664 0.0
C438 C 0.6231 0.55104 0.96084 0.0
C439 C 0.62462 0.55246 0.09113 0.0
C440 C 0.56894 0.46722 0.06525 0.0
O441 O 0.60098 0.48044 0.05666 0.0
O442 O 0.54317 0.4823 0.06393 0.0
C443 C 0.52464 0.59817 0.08756 0.0
O444 O 0.45298 0.52322 0.99972 0.0
O445 O 0.50296 0.52795 0.96352 0.0
C446 C 0.46921 0.51364 0.09968 0.0
C447 C 0.46898 0.51756 0.97091 0.0
Fe448 Fe 0.05587 0.4859 0.52197 0.0
O449 O 0.05587 0.53441 0.52379 0.0
Fe450 Fe 1.03811 0.55475 0.48169 0.0
Fe451 Fe 1.03442 0.5599 0.56319 0.0
O452 O 0.0573 0.53506 0.51873 0.0
O453 O 1.01616 0.58034 0.52146 0.0
O454 O 1.01447 0.57987 0.52699 0.0
Fe455 Fe 1.0195 0.63026 0.52809 0.0
C456 C 0.99199 0.48992 0.57622 0.0
O457 O 0.0918 0.50268 0.55808 0.0
O458 O 0.06128 0.53701 0.59417 0.0
O459 O 0.06102 0.63912 0.49302 0.0
O460 O 0.08314 0.59172 0.48033 0.0
O461 O 0.06828 0.52026 0.44623 0.0
O462 O 0.09235 0.49089 0.48105 0.0
O463 O 0.08087 0.59758 0.56381 0.0
O464 O 0.05667 0.64274 0.56574 0.0
C465 C 0.08996 0.49922 0.45178 0.0
O466 O 0.98555 0.62122 0.48838 0.0
O467 O 1.00991 0.58421 0.45001 0.0
O468 O 1.01765 0.47718 0.56138 0.0
O469 O 0.98896 0.52009 0.57083 0.0
C470 C 0.08645 0.5195 0.58651 0.0
C471 C 0.08111 0.62854 0.57422 0.0
C472 C 0.98438 0.60941 0.594 0.0
O473 O 1.00752 0.59068 0.59852 0.0
O474 O 0.98131 0.62117 0.56633 0.0
C475 C 0.08584 0.62366 0.48119 0.0
O476 O 0.99357 0.51765 0.4835 0.0
O477 O 1.01568 0.4715 0.48985 0.0
C478 C 0.98906 0.60768 0.45804 0.0
C479 C 0.98986 0.48593 0.48549 0.0
Fe480 Fe 0.52007 0.02411 0.55695 0.0
O481 O 0.52792 0.06284 0.59202 0.0
Fe482 Fe 0.57189 0.05659 0.48918 0.0
Fe483 Fe 0.52202 0.06274 0.63895 0.0
O484 O 0.55787 0.05719 0.53489 0.0
O485 O 0.56325 0.06102 0.53687 0.0
O486 O 0.5237 0.06626 0.59137 0.0
Fe487 Fe 0.55429 0.10187 0.56581 0.0
C488 C 0.46408 1.00368 0.6135 0.0
O489 O 0.55417 1.00222 0.58086 0.0
O490 O 0.54308 1.01942 0.63511 0.0
O491 O 0.58874 0.1345 0.53613 0.0
O492 O 0.61336 0.09703 0.49976 0.0
O493 O 0.59892 1.02026 0.50062 0.0
O494 O 0.56807 1.00245 0.54943 0.0
O495 O 0.57276 0.0907 0.64435 0.0
O496 O 0.59696 0.10255 0.59394 0.0
C497 C 0.59389 1.00228 0.52574 0.0
O498 O 0.51405 0.10288 0.53581 0.0
O499 O 0.53977 0.0911 0.48465 0.0
O500 O 0.48221 0.99521 0.58681 0.0
O501 O 0.47233 0.03191 0.6321 0.0
C502 C 0.55632 1.00071 0.61201 0.0
C503 C 0.59933 0.10149 0.62475 0.0
C504 C 0.51553 0.13574 0.62655 0.0
O505 O 0.50484 0.10822 0.64098 0.0
O506 O 0.53682 0.13892 0.60004 0.0
C507 C 0.61242 0.12728 0.51338 0.0
O508 O 0.52942 1.01738 0.47668 0.0
O509 O 0.50959 0.98701 0.51909 0.0
C510 C 0.51642 0.10345 0.50435 0.0
C511 C 0.51128 0.99091 0.48861 0.0
H512 H 0.22378 0.1923 0.31075 0.0
H513 H 0.18632 0.116 0.48454 0.0
H514 H 0.28633 0.23689 0.39338 0.0
H515 H 0.10297 0.11644 0.41995 0.0
H516 H 0.22962 0.14941 0.44705 0.0
H517 H 0.18602 0.15317 0.34626 0.0
C518 C 0.23 0.19359 0.33625 0.0
C519 C 0.25835 0.21814 0.34905 0.0
C520 C 0.2019 0.14185 0.44103 0.0
C521 C 0.21498 0.17298 0.38989 0.0
C522 C 0.17726 0.12257 0.4622 0.0
C523 C 0.14096 0.11341 0.45533 0.0
C524 C 0.19028 0.15128 0.4124 0.0
C525 C 0.13063 0.12303 0.42626 0.0
C526 C 0.20821 0.17131 0.35654 0.0
C527 C 0.26474 0.21853 0.38245 0.0
N528 N 0.15513 0.14126 0.40584 0.0
N529 N 0.24325 0.19627 0.40173 0.0
H530 H 0.84076 0.1899 0.44501 0.0
H531 H 0.93501 0.0386 0.4707 0.0
H532 H 0.86516 0.11339 0.36878 0.0
H533 H 0.9345 0.12741 0.53945 0.0
H534 H 0.8888 0.05435 0.44104 0.0
H535 H 0.85467 0.15624 0.48635 0.0
C536 C 0.8485 0.16578 0.43699 0.0
C537 C 0.85295 0.15494 0.40334 0.0
C538 C 0.89792 0.06985 0.46321 0.0
C539 C 0.86844 0.11629 0.45043 0.0
C540 C 0.92397 0.06066 0.48024 0.0
C541 C 0.93808 0.08175 0.5074 0.0
C542 C 0.88672 0.10068 0.4732 0.0
C543 C 0.92395 0.11061 0.51851 0.0
C544 C 0.85618 0.14651 0.46061 0.0
C545 C 0.86176 0.12295 0.3944 0.0
N546 N 0.89934 0.11961 0.501 0.0
N547 N 0.86991 0.10505 0.41779 0.0
H548 H 0.91613 0.83331 0.33647 0.0
H549 H 0.93058 0.98165 0.48255 0.0
H550 H 0.82436 0.87726 0.37218 0.0
H551 H 0.99397 0.90379 0.47347 0.0
H552 H 0.8951 0.9502 0.43743 0.0
H553 H 0.94943 0.86617 0.38143 0.0
C554 C 0.90301 0.85011 0.3536 0.0
C555 C 0.86734 0.85255 0.35049 0.0
C556 C 0.91676 0.94008 0.44543 0.0
C557 C 0.90558 0.89032 0.40214 0.0
C558 C 0.93711 0.95808 0.4709 0.0
C559 C 0.9654 0.94542 0.48147 0.0
C560 C 0.92532 0.90962 0.4301 0.0
C561 C 0.9724 0.91443 0.46608 0.0
C562 C 0.92203 0.86868 0.3794 0.0
C563 C 0.8518 0.87463 0.37365 0.0
N564 N 0.95274 0.89776 0.44096 0.0
N565 N 0.8711 0.89284 0.39851 0.0
H566 H 0.19611 0.92416 0.30333 0.0
H567 H 0.06032 0.90893 0.4579 0.0
H568 H 0.12518 0.83063 0.32447 0.0
H569 H 0.11451 1.00527 0.42619 0.0
H570 H 0.07704 0.88098 0.40473 0.0
H571 H 0.15979 0.95541 0.34211 0.0
C572 C 0.17232 0.91019 0.31539 0.0
C573 C 0.16416 0.87457 0.31113 0.0
C574 C 0.08489 0.90829 0.40911 0.0
C575 C 0.12302 0.91028 0.35637 0.0
C576 C 0.07548 0.92426 0.43957 0.0
C577 C 0.08667 0.95938 0.44669 0.0
C578 C 0.10633 0.92745 0.38576 0.0
C579 C 0.10571 0.97806 0.42183 0.0
C580 C 0.1517 0.92811 0.33779 0.0
C581 C 0.13309 0.85799 0.32771 0.0
N582 N 0.11557 0.96176 0.39264 0.0
N583 N 0.11406 0.87592 0.35009 0.0
H584 H 0.22215 0.98165 0.73377 0.0
H585 H 0.16344 0.94014 0.55001 0.0
H586 H 0.21387 0.88454 0.67569 0.0
H587 H 0.16192 0.03661 0.60618 0.0
H588 H 0.19931 0.92574 0.59086 0.0
H589 H 0.21342 1.00715 0.68416 0.0
C590 C 0.2187 0.96576 0.71066 0.0
C591 C 0.21865 0.93089 0.70897 0.0
C592 C 0.19202 0.95048 0.59398 0.0
C593 C 0.2095 0.95989 0.65226 0.0
C594 C 0.172 0.9588 0.57039 0.0
C595 C 0.15988 0.98945 0.57504 0.0
C596 C 0.1987 0.97254 0.62289 0.0
C597 C 0.17101 1.01272 0.60196 0.0
C598 C 0.21417 0.98038 0.68232 0.0
C599 C 0.21466 0.9116 0.67826 0.0
N600 N 0.18909 1.00344 0.6255 0.0
N601 N 0.21007 0.92632 0.6513 0.0
H602 H 0.20048 0.263 0.71613 0.0
H603 H 0.12538 0.07935 0.62577 0.0
H604 H 0.22175 0.17045 0.74632 0.0
H605 H 0.12928 0.17302 0.58333 0.0
H606 H 0.15332 0.11184 0.67412 0.0
H607 H 0.16561 0.22967 0.67217 0.0
C608 C 0.19759 0.23565 0.71377 0.0
C609 C 0.21447 0.21957 0.73482 0.0
C610 C 0.14817 0.12523 0.65414 0.0
C611 C 0.17473 0.18129 0.68422 0.0
C612 C 0.13248 0.10669 0.62639 0.0
C613 C 0.12552 0.1234 0.6001 0.0
C614 C 0.15674 0.16076 0.65579 0.0
C615 C 0.13446 0.15898 0.60278 0.0
C616 C 0.17779 0.21666 0.68851 0.0
C617 C 0.20949 0.184 0.73056 0.0
N618 N 0.14957 0.17644 0.6301 0.0
N619 N 0.19025 0.16607 0.70562 0.0
H620 H 0.05743 0.26041 0.73846 0.0
H621 H 1.03121 0.07195 0.65449 0.0
H622 H 1.00569 0.17222 0.78657 0.0
H623 H 0.04676 0.16314 0.60525 0.0
H624 H 0.04639 0.10712 0.70625 0.0
H625 H 0.0817 0.22314 0.69494 0.0
C626 C 0.05219 0.23338 0.74054 0.0
C627 C 1.02785 0.21933 0.76522 0.0
C628 C 0.047 0.11924 0.6839 0.0
C629 C 0.05509 0.17683 0.71563 0.0
C630 C 1.0379 0.09928 0.65453 0.0
C631 C 1.03637 0.11472 0.62583 0.0
C632 C 0.05493 0.15474 0.68434 0.0
C633 C 0.04628 0.15016 0.62703 0.0
C634 C 0.06597 0.21213 0.71566 0.0
C635 C 1.02334 0.18427 0.76749 0.0
N636 N 0.05481 0.16894 0.65584 0.0
N637 N 1.03577 0.16405 0.74232 0.0
H638 H 0.81207 0.8643 0.71677 0.0
H639 H 1.00888 0.9533 0.65481 0.0
H640 H 0.90811 0.86757 0.76648 0.0
H641 H 0.91511 0.96399 0.60838 0.0
H642 H 0.97067 0.9246 0.69757 0.0
H643 H 0.84712 0.90318 0.67867 0.0
C644 C 0.84033 0.87348 0.71999 0.0
C645 C 0.85715 0.8623 0.74477 0.0
C646 C 0.9582 0.93339 0.67828 0.0
C647 C 0.89738 0.90659 0.70117 0.0
C648 C 0.98012 0.94984 0.65375 0.0
C649 C 0.96525 0.96093 0.62778 0.0
C650 C 0.92082 0.92731 0.67687 0.0
C651 C 0.92773 0.95594 0.62799 0.0
C652 C 0.86033 0.89561 0.69817 0.0
C653 C 0.89389 0.87505 0.74763 0.0
N654 N 0.90675 0.93907 0.65192 0.0
N655 N 0.91264 0.89617 0.72607 0.0
H656 H 0.42716 0.25607 0.24957 0.0
H657 H 0.43881 0.07385 0.14302 0.0
H658 H 0.33489 0.18901 0.21044 0.0
H659 H 0.53103 0.1547 0.14442 0.0
H660 H 0.40281 0.113 0.17274 0.0
H661 H 0.46576 0.21916 0.21838 0.0
C662 C 0.41451 0.23366 0.23471 0.0
C663 C 0.37647 0.2268 0.23356 0.0
C664 C 0.43088 0.12259 0.16677 0.0
C665 C 0.42254 0.18217 0.19663 0.0
C666 C 0.45207 0.09979 0.14944 0.0
C667 C 0.48921 0.10967 0.14006 0.0
C668 C 0.44587 0.15687 0.17675 0.0
C669 C 0.50303 0.14465 0.15011 0.0
C670 C 0.43708 0.21227 0.21646 0.0
C671 C 0.36342 0.19654 0.21295 0.0
N672 N 0.48194 0.16617 0.16773 0.0
N673 N 0.38573 0.17595 0.19622 0.0
H674 H 0.81804 0.38926 0.21561 0.0
H675 H 1.01439 0.41337 0.12324 0.0
H676 H 0.90271 0.34471 0.24482 0.0
H677 H 0.93492 0.47174 0.10976 0.0
H678 H 0.97158 0.38125 0.16222 0.0
H679 H 0.85863 0.41393 0.1716 0.0
C680 C 0.84515 0.3847 0.21287 0.0
C681 C 0.85693 0.36508 0.23423 0.0
C682 C 0.96348 0.40088 0.1504 0.0
C683 C 0.90366 0.39304 0.1835 0.0
C684 C 0.98779 0.41893 0.12801 0.0
C685 C 0.97822 0.44537 0.11356 0.0
C686 C 0.9294 0.40918 0.15789 0.0
C687 C 0.94347 0.45177 0.12067 0.0
C688 C 0.86835 0.39873 0.18764 0.0
C689 C 0.89243 0.35989 0.22918 0.0
N690 N 0.92048 0.43398 0.14234 0.0
N691 N 0.9145 0.37378 0.2044 0.0
H692 H 0.69753 0.83209 0.24956 0.0
H693 H 0.71481 0.96571 0.10755 0.0
H694 H 0.79619 0.8686 0.19531 0.0
H695 H 0.61343 0.92739 0.15668 0.0
H696 H 0.74359 0.93191 0.13972 0.0
H697 H 0.66696 0.86586 0.21829 0.0
C698 C 0.71328 0.84702 0.23126 0.0
C699 C 0.75063 0.84631 0.22619 0.0
C700 C 0.71503 0.93066 0.14386 0.0
C701 C 0.71389 0.88717 0.18841 0.0
C702 C 0.69806 0.9505 0.12512 0.0
C703 C 0.66059 0.95086 0.12835 0.0
C704 C 0.69545 0.90962 0.16737 0.0
C705 C 0.64204 0.92925 0.15234 0.0
C706 C 0.69533 0.86673 0.21299 0.0
C707 C 0.76784 0.86724 0.2012 0.0
N708 N 0.65921 0.91026 0.17027 0.0
N709 N 0.74989 0.88607 0.18403 0.0
H710 H 0.33379 0.65183 0.2156 0.0
H711 H 0.141 0.57722 0.1453 0.0
H712 H 0.23496 0.68028 0.25621 0.0
H713 H 0.23916 0.55969 0.09223 0.0
H714 H 0.17536 0.60799 0.19036 0.0
H715 H 0.29993 0.6113 0.17457 0.0
C716 C 0.30498 0.6492 0.21621 0.0
C717 C 0.28722 0.66966 0.23923 0.0
C718 C 0.18949 0.59727 0.169 0.0
C719 C 0.24847 0.62353 0.1925 0.0
C720 C 0.16982 0.57955 0.14315 0.0
C721 C 0.18715 0.56597 0.11463 0.0
C722 C 0.22698 0.60172 0.16658 0.0
C723 C 0.22463 0.56981 0.11363 0.0
C724 C 0.28573 0.62623 0.19269 0.0
C725 C 0.24988 0.66533 0.23877 0.0
N726 N 0.24333 0.58755 0.13912 0.0
N727 N 0.23188 0.64292 0.21579 0.0
H728 H 0.32994 0.85979 0.90713 0.0
H729 H 0.53185 0.93196 0.96603 0.0
H730 H 0.4225 0.83835 0.84741 0.0
H731 H 0.43517 0.94686 1.02284 0.0
H732 H 0.49464 0.89922 0.92191 0.0
H733 H 0.36935 0.8923 0.94853 0.0
C734 C 0.35855 0.86172 0.9025 0.0
C735 C 0.37227 0.8457 0.87312 0.0
C736 C 0.48161 0.90972 0.94405 0.0
C737 C 0.41885 0.88405 0.92173 0.0
C738 C 0.50301 0.92867 0.96939 0.0
C739 C 0.48719 0.94259 0.99891 0.0
C740 C 0.44375 0.90448 0.94775 0.0
C741 C 0.44927 0.93684 1.00112 0.0
C742 C 0.38131 0.88054 0.92645 0.0
C743 C 0.4101 0.84979 0.86938 0.0
N744 N 0.42937 0.9186 0.97637 0.0
N745 N 0.43176 0.86834 0.89308 0.0
H746 H 0.20369 0.35 0.81905 0.0
H747 H 0.1157 0.37834 1.00032 0.0
H748 H 0.20067 0.27977 0.89136 0.0
H749 H 0.1122 0.44071 0.92268 0.0
H750 H 0.1374 0.33631 0.95945 0.0
H751 H 0.16215 0.37823 0.85477 0.0
C752 C 0.19405 0.34035 0.84241 0.0
C753 C 0.20608 0.31276 0.85239 0.0
C754 C 0.13086 0.35871 0.95121 0.0
C755 C 0.15849 0.34535 0.89394 0.0
C756 C 0.11803 0.38243 0.97448 0.0
C757 C 0.11202 0.41284 0.9647 0.0
C758 C 0.13789 0.36575 0.91814 0.0
C759 C 0.11639 0.41746 0.93111 0.0
C760 C 0.17015 0.35643 0.86284 0.0
C761 C 0.19218 0.30105 0.88276 0.0
N762 N 0.12948 0.39447 0.90916 0.0
N763 N 0.16958 0.31776 0.90273 0.0
H764 H 0.6989 0.24791 0.87535 0.0
H765 H 0.71163 0.10385 0.99489 0.0
H766 H 0.79634 0.21507 0.8897 0.0
H767 H 0.61577 0.14472 0.99625 0.0
H768 H 0.74082 0.14316 0.95549 0.0
H769 H 0.66725 0.21062 0.91676 0.0
C770 C 0.71393 0.23303 0.88703 0.0
C771 C 0.75103 0.23541 0.87826 0.0
C772 C 0.71344 0.14387 0.96425 0.0
C773 C 0.7138 0.19128 0.92682 0.0
C774 C 0.69633 0.12105 0.98715 0.0
C775 C 0.66047 0.12007 0.9999 0.0
C776 C 0.69521 0.16675 0.95259 0.0
C777 C 0.64325 0.14395 0.98797 0.0
C778 C 0.69556 0.21152 0.91098 0.0
C779 C 0.76808 0.21482 0.89501 0.0
N780 N 0.66048 0.16577 0.9652 0.0
N781 N 0.74963 0.19402 0.91783 0.0
H782 H 1.02437 0.73809 0.90417 0.0
H783 H 0.98114 0.56996 0.99295 0.0
H784 H 0.92435 0.66623 0.8987 0.0
H785 H 0.08933 0.62433 0.97684 0.0
H786 H 0.96114 0.60361 0.95519 0.0
H787 H 0.0503 0.69629 0.92813 0.0
C788 C 1.00801 0.71345 0.90774 0.0
C789 C 0.97211 0.70568 0.89963 0.0
C790 C 0.98937 0.608 0.95944 0.0
C791 C 1.00145 0.65797 0.92683 0.0
C792 C 1.00071 0.58884 0.98104 0.0
C793 C 1.03675 0.59481 0.98811 0.0
C794 C 1.01414 0.63389 0.94541 0.0
C795 C 0.06125 0.61918 0.97191 0.0
C796 C 1.02287 0.68956 0.92114 0.0
C797 C 0.9522 0.67326 0.90433 0.0
N798 N 0.04937 0.63842 0.95167 0.0
N799 N 0.96702 0.65079 0.91793 0.0
H800 H 0.13367 0.26596 0.12561 0.0
H801 H 0.08346 0.44708 0.1314 0.0
H802 H 0.08393 0.31438 0.21162 0.0
H803 H 0.15222 0.40401 0.05626 0.0
H804 H 0.0693 0.39304 0.15541 0.0
H805 H 0.12129 0.30822 0.09311 0.0
C806 C 0.1188 0.28463 0.13751 0.0
C807 C 0.11109 0.2875 0.17172 0.0
C808 C 0.08738 0.39546 0.13362 0.0
C809 C 0.09833 0.33672 0.13483 0.0
C810 C 0.09582 0.42635 0.12013 0.0
C811 C 0.11957 0.43018 0.09214 0.0
C812 C 0.1027 0.36825 0.11892 0.0
C813 C 0.13437 0.4024 0.07824 0.0
C814 C 0.11228 0.30916 0.11894 0.0
C815 C 0.09155 0.31213 0.18551 0.0
N816 N 0.12574 0.37261 0.09185 0.0
N817 N 0.08682 0.33659 0.16719 0.0
H818 H 0.21836 0.74903 0.88893 0.0
H819 H 0.22551 0.57136 0.95234 0.0
H820 H 0.30198 0.69294 0.85632 0.0
H821 H 0.15946 0.64009 1.00007 0.0
H822 H 0.2528 0.61439 0.91559 0.0
H823 H 0.19499 0.70795 0.92841 0.0
C824 C 0.23187 0.72813 0.89009 0.0
C825 C 0.26215 0.72442 0.8692 0.0
C826 C 0.23251 0.62006 0.93429 0.0
C827 C 0.23541 0.67718 0.91433 0.0
C828 C 0.21687 0.5955 0.95525 0.0
C829 C 0.1901 0.60203 0.97937 0.0
C830 C 0.22099 0.65119 0.93722 0.0
C831 C 0.18007 0.63385 0.98199 0.0
C832 C 0.21856 0.70472 0.91273 0.0
C833 C 0.2786 0.69685 0.87196 0.0
N834 N 0.19532 0.6571 0.96104 0.0
N835 N 0.26488 0.67416 0.89396 0.0
H836 H 0.43849 0.16766 0.9005 0.0
H837 H 0.44487 1.02118 1.01429 0.0
H838 H 0.34783 0.0911 0.92744 0.0
H839 H 0.53775 0.09688 0.99125 0.0
H840 H 0.41124 0.04325 0.97677 0.0
H841 H 0.47699 0.14005 0.92896 0.0
C842 C 0.42664 0.14507 0.9123 0.0
C843 C 0.38971 0.13179 0.91154 0.0
C844 C 0.43904 0.05499 0.97957 0.0
C845 C 0.43378 0.09987 0.94381 0.0
C846 C 0.45829 0.04232 1.00098 0.0
C847 C 0.49401 0.05747 1.00613 0.0
C848 C 0.45537 0.08344 0.96334 0.0
C849 C 0.51022 0.0845 0.98794 0.0
C850 C 0.44872 0.1292 0.92834 0.0
C851 C 0.3761 0.10211 0.92686 0.0
N852 N 0.49059 0.09699 0.96765 0.0
N853 N 0.39803 0.08736 0.9424 0.0
H854 H 0.82453 0.38911 0.89926 0.0
H855 H 1.02561 0.46464 0.94837 0.0
H856 H 0.91933 0.37158 0.84029 0.0
H857 H 0.93315 0.48418 1.00999 0.0
H858 H 0.98618 0.43499 0.90622 0.0
H859 H 0.86285 0.42845 0.93788 0.0
C860 C 0.85328 0.39379 0.89424 0.0
C861 C 0.86873 0.37671 0.86671 0.0
C862 C 0.97443 0.44593 0.92886 0.0
C863 C 0.91258 0.42145 0.91063 0.0
C864 C 0.99701 0.46292 0.953 0.0
C865 C 0.98274 0.4767 0.98299 0.0
C866 C 0.93715 0.44237 0.93466 0.0
C867 C 0.94538 0.47383 0.98734 0.0
C868 C 0.87513 0.41615 0.9163 0.0
C869 C 0.90615 0.38375 0.86139 0.0
N870 N 0.92385 0.4567 0.96357 0.0
N871 N 0.92669 0.40535 0.88318 0.0
H872 H 0.79488 0.87228 0.89026 0.0
H873 H 0.60325 0.90261 0.9727 0.0
H874 H 0.6958 0.81718 0.85155 0.0
H875 H 0.70593 0.95446 1.0059 0.0
H876 H 0.63442 0.86854 0.92988 0.0
H877 H 0.76099 0.90102 0.93348 0.0
C878 C 0.76594 0.86625 0.89066 0.0
C879 C 0.7484 0.84217 0.86691 0.0
C880 C 0.65 0.8872 0.9468 0.0
C881 C 0.70877 0.87529 0.91723 0.0
C882 C 0.63218 0.90639 0.97142 0.0
C883 C 0.65198 0.93153 0.99292 0.0
C884 C 0.68778 0.89318 0.94388 0.0
C885 C 0.68948 0.93561 0.98978 0.0
C886 C 0.74644 0.88269 0.91559 0.0
C887 C 0.71063 0.8356 0.86917 0.0
N888 N 0.70594 0.91692 0.96587 0.0
N889 N 0.69211 0.85201 0.89381 0.0
H890 H 0.0486 0.79295 0.15986 0.0
H891 H 1.03946 0.61072 0.16681 0.0
H892 H 0.04226 0.75634 0.25575 0.0
H893 H 0.11198 0.66191 0.09367 0.0
H894 H 0.04573 0.66421 0.20237 0.0
H895 H 0.08193 0.74997 0.13792 0.0
C896 C 0.05509 0.77683 0.17686 0.0
C897 C 1.04011 0.77701 0.20943 0.0
C898 C 0.06099 0.66344 0.17888 0.0
C899 C 0.0772 0.72649 0.18358 0.0
C900 C 0.05697 0.63307 0.15839 0.0
C901 C 0.07435 0.63208 0.12687 0.0
C902 C 0.0818 0.69307 0.16736 0.0
C903 C 0.09745 0.66162 0.11753 0.0
C904 C 0.07412 0.75188 0.16402 0.0
C905 C 0.05078 0.75557 0.22986 0.0
N906 N 0.09979 0.69113 0.13734 0.0
N907 N 0.06712 0.72995 0.21626 0.0
H908 H 0.45573 0.81123 0.26853 0.0
H909 H 0.50403 0.87595 0.09104 0.0
H910 H 0.39718 0.76438 0.18415 0.0
H911 H 0.50119 0.94376 0.18022 0.0
H912 H 0.48333 0.82752 0.12353 0.0
H913 H 0.49259 0.85212 0.23377 0.0
C914 C 0.45148 0.80885 0.24246 0.0
C915 C 0.42329 0.78477 0.22906 0.0
C916 C 0.48772 0.85304 0.13587 0.0
C917 C 0.46507 0.83096 0.18964 0.0
C918 C 0.4994 0.88055 0.11749 0.0
C919 C 0.50374 0.91372 0.13309 0.0
C920 C 0.48138 0.8589 0.17003 0.0
C921 C 0.49752 0.9185 0.16734 0.0
C922 C 0.47224 0.83229 0.22283 0.0
C923 C 0.41854 0.78287 0.1953 0.0
N924 N 0.48665 0.89129 0.18478 0.0
N925 N 0.43912 0.80594 0.17665 0.0
H926 H 0.78901 0.22907 0.21637 0.0
H927 H 0.60623 0.11223 0.16065 0.0
H928 H 0.68456 0.25032 0.24906 0.0
H929 H 0.71098 0.09113 0.1288 0.0
H930 H 0.63411 0.1593 0.19827 0.0
H931 H 0.76048 0.17626 0.18685 0.0
C932 C 0.76005 0.22279 0.21705 0.0
C933 C 0.73906 0.24408 0.23507 0.0
C934 C 0.65092 0.14411 0.18329 0.0
C935 C 0.70633 0.18353 0.20182 0.0
C936 C 0.63503 0.1171 0.16194 0.0
C937 C 0.65644 0.09828 0.14097 0.0
C938 C 0.68835 0.15226 0.18351 0.0
C939 C 0.69352 0.10546 0.14401 0.0
C940 C 0.74379 0.19247 0.20046 0.0
C941 C 0.70171 0.23461 0.23535 0.0
N942 N 0.70838 0.13226 0.16456 0.0
N943 N 0.68647 0.20491 0.21892 0.0
H944 H 0.78946 0.70275 0.88503 0.0
H945 H 0.60291 0.57594 0.90653 0.0
H946 H 0.71255 0.68311 0.81034 0.0
H947 H 0.69568 0.57295 0.95886 0.0
H948 H 0.6409 0.6159 0.87144 0.0
H949 H 0.75361 0.65645 0.91366 0.0
C950 C 0.76511 0.68859 0.87457 0.0
C951 C 0.75399 0.69683 0.84528 0.0
C952 C 0.65287 0.60608 0.8904 0.0
C953 C 0.71254 0.64394 0.87811 0.0
C954 C 0.63122 0.58324 0.91043 0.0
C955 C 0.64588 0.57124 0.93606 0.0
C956 C 0.6893 0.61716 0.89625 0.0
C957 C 0.68286 0.58165 0.93977 0.0
C958 C 0.74469 0.66206 0.89086 0.0
C959 C 0.72221 0.6775 0.8328 0.0
N960 N 0.70309 0.60421 0.92042 0.0
N961 N 0.70237 0.65216 0.84947 0.0
H962 H 0.45737 0.74641 0.89573 0.0
H963 H 0.57143 0.61784 0.94602 0.0
H964 H 0.51478 0.68539 0.82568 0.0
H965 H 0.48647 0.65346 1.00736 0.0
H966 H 0.56696 0.65761 0.90644 0.0
H967 H 0.48426 0.72754 0.94044 0.0
C968 C 0.47633 0.72969 0.88966 0.0
C969 C 0.48346 0.71706 0.8569 0.0
C970 C 0.54994 0.65725 0.92896 0.0
C971 C 0.51391 0.69503 0.9081 0.0
C972 C 0.55263 0.63476 0.95167 0.0
C973 C 0.52876 0.63195 0.97965 0.0
C974 C 0.5235 0.6772 0.93461 0.0
C975 C 0.50492 0.65445 0.98577 0.0
C976 C 0.49149 0.71878 0.91525 0.0
C977 C 0.50799 0.69517 0.85063 0.0
N978 N 0.50257 0.67584 0.96319 0.0
N979 N 0.52202 0.68449 0.87605 0.0
H980 H 0.32769 0.33721 0.89955 0.0
H981 H 0.4913 0.49371 0.90844 0.0
H982 H 0.39636 0.36457 0.81372 0.0
H983 H 0.39938 0.48437 0.97826 0.0
H984 H 0.46014 0.44485 0.8742 0.0
H985 H 0.35857 0.38821 0.93091 0.0
C986 C 0.34956 0.35371 0.88741 0.0
C987 C 0.35944 0.34669 0.85398 0.0
C988 C 0.44674 0.45389 0.89683 0.0
C989 C 0.3946 0.40523 0.8896 0.0
C990 C 0.46438 0.48192 0.91632 0.0
C991 C 0.44815 0.49313 0.94653 0.0
C992 C 0.41285 0.43682 0.9078 0.0
C993 C 0.41321 0.47664 0.95537 0.0
C994 C 0.36691 0.383 0.90522 0.0
C995 C 0.38782 0.36912 0.83944 0.0
N996 N 0.39697 0.44908 0.93634 0.0
N997 N 0.40447 0.39742 0.85737 0.0
H998 H 0.54693 0.33152 0.8239 0.0
H999 H 0.59483 0.41246 0.99184 0.0
H1000 H 0.60446 0.2881 0.88883 0.0
H1001 H 0.51189 0.43921 0.94084 0.0
H1002 H 0.5834 0.356 0.96222 0.0
H1003 H 0.51521 0.35602 0.87176 0.0
C1004 C 0.55179 0.32586 0.84815 0.0
C1005 C 0.58029 0.30998 0.85249 0.0
C1006 C 0.56709 0.37386 0.95783 0.0
C1007 C 0.54484 0.33831 0.90714 0.0
C1008 C 0.574 0.40624 0.97449 0.0
C1009 C 0.55526 0.43074 0.96768 0.0
C1010 C 0.54226 0.36643 0.93322 0.0
C1011 C 0.52761 0.42117 0.94601 0.0
C1012 C 0.53375 0.34001 0.87559 0.0
C1013 C 0.58404 0.30175 0.88425 0.0
N1014 N 0.52265 0.39002 0.92873 0.0
N1015 N 0.56767 0.31727 0.91056 0.0
H1016 H 0.56081 0.38598 0.23998 0.0
H1017 H 0.60712 0.41656 0.05731 0.0
H1018 H 0.63394 0.33561 0.17626 0.0
H1019 H 0.51715 0.44875 0.11353 0.0
H1020 H 0.60677 0.375 0.096 0.0
H1021 H 0.53383 0.39733 0.19144 0.0
C1022 C 0.5706 0.37661 0.21579 0.0
C1023 C 0.60028 0.3607 0.2121 0.0
C1024 C 0.5865 0.39053 0.09955 0.0
C1025 C 0.56996 0.37387 0.15654 0.0
C1026 C 0.5868 0.41431 0.07746 0.0
C1027 C 0.56284 0.43668 0.08287 0.0
C1028 C 0.56278 0.38993 0.12773 0.0
C1029 C 0.53652 0.43232 0.10887 0.0
C1030 C 0.55511 0.38294 0.18807 0.0
C1031 C 0.61135 0.34831 0.18029 0.0
N1032 N 0.53784 0.41007 0.13096 0.0
N1033 N 0.59677 0.35591 0.1537 0.0
H1034 H 0.70522 0.69351 0.25664 0.0
H1035 H 0.69733 0.5738 0.08684 0.0
H1036 H 0.79139 0.69878 0.18101 0.0
H1037 H 0.60427 0.5799 0.15315 0.0
H1038 H 0.73372 0.61428 0.12481 0.0
H1039 H 0.66962 0.64763 0.22237 0.0
C1040 C 0.71681 0.68492 0.23292 0.0
C1041 C 0.75146 0.70016 0.2217 0.0
C1042 C 0.70538 0.6067 0.13119 0.0
C1043 C 0.71069 0.6474 0.1824 0.0
C1044 C 0.68445 0.58339 0.10952 0.0
C1045 C 0.64739 0.57354 0.1165 0.0
C1046 C 0.68939 0.62045 0.16028 0.0
C1047 C 0.63263 0.58678 0.14658 0.0
C1048 C 0.69637 0.65872 0.21335 0.0
C1049 C 0.76484 0.68796 0.19067 0.0
N1050 N 0.65362 0.60976 0.16726 0.0
N1051 N 0.74446 0.66232 0.17216 0.0
H1052 H 0.57131 0.72769 0.26913 0.0
H1053 H 0.4768 0.61218 0.13776 0.0
H1054 H 0.52037 0.6252 0.28676 0.0
H1055 H 0.58981 0.63244 0.10865 0.0
H1056 H 0.49089 0.63555 0.19371 0.0
H1057 H 0.58264 0.70761 0.21112 0.0
C1058 C 0.56356 0.70088 0.26136 0.0
C1059 C 0.54208 0.67875 0.28253 0.0
C1060 C 0.51246 0.63525 0.1748 0.0
C1061 C 0.55599 0.65596 0.21705 0.0
C1062 C 0.50448 0.62234 0.14283 0.0
C1063 C 0.53218 0.61998 0.11858 0.0
C1064 C 0.54824 0.64635 0.18248 0.0
C1065 C 0.56768 0.63355 0.1268 0.0
C1066 C 0.57025 0.68956 0.22827 0.0
C1067 C 0.53524 0.64394 0.27145 0.0
N1068 N 0.57487 0.64607 0.15835 0.0
N1069 N 0.54069 0.63387 0.23908 0.0
H1070 H 0.37865 0.40071 0.26462 0.0
H1071 H 0.40357 0.47351 0.09003 0.0
H1072 H 0.32053 0.34967 0.18125 0.0
H1073 H 0.48451 0.49999 0.16118 0.0
H1074 H 0.36846 0.43326 0.12561 0.0
H1075 H 0.41266 0.44205 0.22953 0.0
C1076 C 0.37271 0.39826 0.23895 0.0
C1077 C 0.34643 0.37152 0.22593 0.0
C1078 C 0.39384 0.44791 0.13349 0.0
C1079 C 0.38574 0.41924 0.18552 0.0
C1080 C 0.41395 0.4712 0.1133 0.0
C1081 C 0.44719 0.49054 0.12262 0.0
C1082 C 0.40663 0.44398 0.16358 0.0
C1083 C 0.45909 0.48583 0.15297 0.0
C1084 C 0.39245 0.42188 0.2189 0.0
C1085 C 0.34041 0.36979 0.19238 0.0
N1086 N 0.43874 0.46313 0.17243 0.0
N1087 N 0.35984 0.39342 0.17335 0.0
H1088 H 0.82686 0.71209 0.69824 0.0
H1089 H 0.99693 0.6222 0.66051 0.0
H1090 H 0.89962 0.70995 0.77276 0.0
H1091 H 0.91807 0.62303 0.59133 0.0
H1092 H 0.96052 0.65006 0.70367 0.0
H1093 H 0.85896 0.67616 0.66036 0.0
C1094 C 0.8496 0.70403 0.70674 0.0
C1095 C 0.86057 0.71437 0.7388 0.0
C1096 C 0.95107 0.64372 0.67911 0.0
C1097 C 0.89797 0.67284 0.69504 0.0
C1098 C 0.97169 0.62757 0.65455 0.0
C1099 C 0.96071 0.62049 0.62214 0.0
C1100 C 0.91926 0.65266 0.67112 0.0
C1101 C 0.92791 0.62834 0.6158 0.0
C1102 C 0.86797 0.68333 0.68501 0.0
C1103 C 0.89018 0.70271 0.74827 0.0
N1104 N 0.90865 0.64411 0.63985 0.0
N1105 N 0.90801 0.68279 0.72643 0.0
H1106 H 0.36163 0.8176 0.68896 0.0
H1107 H 0.41023 1.01327 0.6598 0.0
H1108 H 0.32536 0.89804 0.7531 0.0
H1109 H 0.45104 0.93508 0.59604 0.0
H1110 H 0.36955 0.96955 0.68787 0.0
H1111 H 0.3861 0.85843 0.6491 0.0
C1112 C 0.35856 0.84373 0.69453 0.0
C1113 C 0.34204 0.85458 0.72462 0.0
C1114 C 0.38705 0.96189 0.66745 0.0
C1115 C 0.36961 0.90118 0.67925 0.0
C1116 C 0.41027 0.98689 0.65138 0.0
C1117 C 0.43457 0.97784 0.62597 0.0
C1118 C 0.38847 0.9276 0.65839 0.0
C1119 C 0.43299 0.94323 0.61573 0.0
C1120 C 0.37242 0.86698 0.67176 0.0
C1121 C 0.33842 0.88863 0.73046 0.0
N1122 N 0.41079 0.91933 0.6324 0.0
N1123 N 0.35234 0.91072 0.70812 0.0
H1124 H 0.2638 0.4828 0.68124 0.0
H1125 H 0.06735 0.50665 0.65023 0.0
H1126 H 0.16772 0.42208 0.72247 0.0
H1127 H 0.1584 0.52546 0.58062 0.0
H1128 H 0.10617 0.49222 0.6893 0.0
H1129 H 0.22695 0.51526 0.65705 0.0
C1130 C 0.23499 0.47648 0.68548 0.0
C1131 C 0.21878 0.44907 0.70317 0.0
C1132 C 0.11766 0.50021 0.66571 0.0
C1133 C 0.17669 0.48658 0.67617 0.0
C1134 C 0.09567 0.50855 0.6436 0.0
C1135 C 0.10987 0.51677 0.61223 0.0
C1136 C 0.15397 0.50085 0.65639 0.0
C1137 C 0.14655 0.51876 0.60451 0.0
C1138 C 0.21406 0.49517 0.67187 0.0
C1139 C 0.18138 0.44285 0.70888 0.0
N1140 N 0.16737 0.51066 0.62641 0.0
N1141 N 0.16151 0.46119 0.695 0.0
H1142 H 0.75999 0.2617 0.69787 0.0
H1143 H 0.62311 0.08862 0.68229 0.0
H1144 H 0.75977 0.18397 0.7618 0.0
H1145 H 0.65336 0.14963 0.60089 0.0
H1146 H 0.67455 0.12144 0.71088 0.0
H1147 H 0.72245 0.22015 0.66108 0.0
C1148 C 0.7523 0.23576 0.70397 0.0
C1149 C 0.76266 0.22629 0.73305 0.0
C1150 C 0.67031 0.12724 0.68651 0.0
C1151 C 0.71937 0.17872 0.69128 0.0
C1152 C 0.6409 0.10859 0.67022 0.0
C1153 C 0.63368 0.11673 0.63937 0.0
C1154 C 0.69221 0.15465 0.67214 0.0
C1155 C 0.65783 0.14259 0.62471 0.0
C1156 C 0.73103 0.21202 0.68288 0.0
C1157 C 0.75226 0.1923 0.73964 0.0
N1158 N 0.68564 0.16108 0.64152 0.0
N1159 N 0.73063 0.16982 0.71918 0.0
H1160 H 0.84265 0.32258 0.40688 0.0
H1161 H 0.92788 0.50693 0.47715 0.0
H1162 H 0.81358 0.41448 0.38304 0.0
H1163 H 0.97045 0.41698 0.48447 0.0
H1164 H 0.87137 0.47113 0.46184 0.0
H1165 H 0.87326 0.35459 0.45374 0.0
C1166 C 0.84235 0.34943 0.41171 0.0
C1167 C 0.8271 0.36635 0.39022 0.0
C1168 C 0.89293 0.45928 0.46733 0.0
C1169 C 0.86187 0.4028 0.44358 0.0
C1170 C 0.92532 0.47965 0.47572 0.0
C1171 C 0.95445 0.4648 0.48038 0.0
C1172 C 0.88995 0.42397 0.46321 0.0
C1173 C 0.94912 0.42944 0.47969 0.0
C1174 C 0.85957 0.36758 0.43861 0.0
C1175 C 0.82625 0.40076 0.39831 0.0
N1176 N 0.91765 0.41013 0.47044 0.0
N1177 N 0.84421 0.4181 0.42403 0.0
H1178 H 0.66972 0.81834 0.5033 0.0
H1179 H 0.6657 1.01401 0.50973 0.0
H1180 H 0.74869 0.89162 0.45448 0.0
H1181 H 0.57854 0.93831 0.5441 0.0
H1182 H 0.7049 0.9725 0.50485 0.0
H1183 H 0.64589 0.86494 0.53475 0.0
C1184 C 0.68263 0.84419 0.49977 0.0
C1185 C 0.71052 0.85101 0.47543 0.0
C1186 C 0.67742 0.96517 0.51425 0.0
C1187 C 0.68334 0.9043 0.51114 0.0
C1188 C 0.65506 0.98878 0.51688 0.0
C1189 C 0.61895 0.97941 0.5274 0.0
C1190 C 0.6633 0.93182 0.52162 0.0
C1191 C 0.60643 0.94661 0.53658 0.0
C1192 C 0.66901 0.87077 0.51773 0.0
C1193 C 0.72692 0.885 0.47266 0.0
N1194 N 0.62844 0.92378 0.53302 0.0
N1195 N 0.71255 0.91036 0.48971 0.0
H1196 H 0.29275 0.68414 0.38491 0.0
H1197 H 0.09649 0.689 0.46528 0.0
H1198 H 0.23221 0.75839 0.36547 0.0
H1199 H 0.14962 0.60399 0.46332 0.0
H1200 H 0.14984 0.72042 0.43752 0.0
H1201 H 0.24454 0.66095 0.42317 0.0
C1202 C 0.26932 0.6957 0.38881 0.0
C1203 C 0.26611 0.72281 0.37152 0.0
C1204 C 0.1498 0.69498 0.44339 0.0
C1205 C 0.21076 0.69623 0.41529 0.0
C1206 C 0.11945 0.67702 0.45926 0.0
C1207 C 0.1185 0.64365 0.46628 0.0
C1208 C 0.17941 0.67952 0.43478 0.0
C1209 C 0.14901 0.62947 0.45802 0.0
C1210 C 0.24182 0.68243 0.4107 0.0
C1211 C 0.23554 0.73726 0.37812 0.0
N1212 N 0.17819 0.64747 0.44258 0.0
N1213 N 0.20871 0.72348 0.3993 0.0
H1214 H 0.43934 0.21917 0.37278 0.0
H1215 H 0.4853 0.15386 0.537 0.0
H1216 H 0.46619 0.28494 0.46168 0.0
H1217 H 0.50042 0.1014 0.44035 0.0
H1218 H 0.46299 0.19672 0.51182 0.0
H1219 H 0.44964 0.17144 0.3993 0.0
C1220 C 0.44799 0.22373 0.39769 0.0
C1221 C 0.45245 0.25624 0.41491 0.0
C1222 C 0.47076 0.17554 0.49625 0.0
C1223 C 0.46277 0.20144 0.44566 0.0
C1224 C 0.48311 0.15088 0.51057 0.0
C1225 C 0.49527 0.12439 0.49059 0.0
C1226 C 0.4703 0.17337 0.46189 0.0
C1227 C 0.49185 0.12178 0.45653 0.0
C1228 C 0.45333 0.19636 0.41291 0.0
C1229 C 0.46236 0.26032 0.44756 0.0
N1230 N 0.47997 0.14625 0.44315 0.0
N1231 N 0.46718 0.23314 0.46194 0.0
H1232 H 0.61164 0.81706 0.6592 0.0
H1233 H 0.61314 1.01307 0.6498 0.0
H1234 H 0.69568 0.89782 0.69544 0.0
H1235 H 0.54151 0.93273 0.59678 0.0
H1236 H 0.64346 0.97089 0.66748 0.0
H1237 H 0.58533 0.85872 0.63594 0.0
C1238 C 0.62468 0.84351 0.66205 0.0
C1239 C 0.65564 0.85409 0.67958 0.0
C1240 C 0.62133 0.96245 0.65173 0.0
C1241 C 0.62556 0.90176 0.65346 0.0
C1242 C 0.60408 0.98644 0.64182 0.0
C1243 C 0.57534 0.97598 0.62167 0.0
C1244 C 0.60917 0.92788 0.64181 0.0
C1245 C 0.5641 0.94146 0.61196 0.0
C1246 C 0.60961 0.86726 0.64888 0.0
C1247 C 0.67131 0.88868 0.68278 0.0
N1248 N 0.58101 0.91846 0.62224 0.0
N1249 N 0.65597 0.91132 0.67 0.0
H1250 H 0.69336 0.29452 0.3968 0.0
H1251 H 0.679 0.12535 0.4851 0.0
H1252 H 0.75785 0.21836 0.36883 0.0
H1253 H 0.60283 0.19162 0.50663 0.0
H1254 H 0.71436 0.16536 0.4493 0.0
H1255 H 0.66477 0.26223 0.44238 0.0
C1256 C 0.70149 0.27106 0.4002 0.0
C1257 C 0.72773 0.25894 0.37867 0.0
C1258 C 0.69016 0.17147 0.46212 0.0
C1259 C 0.6956 0.22227 0.43098 0.0
C1260 C 0.67008 0.1487 0.48276 0.0
C1261 C 0.63776 0.15502 0.49861 0.0
C1262 C 0.67773 0.20071 0.4569 0.0
C1263 C 0.62764 0.18582 0.49489 0.0
C1264 C 0.68526 0.25273 0.42627 0.0
C1265 C 0.73742 0.22853 0.38443 0.0
N1266 N 0.64728 0.20734 0.47396 0.0
N1267 N 0.72135 0.21131 0.40993 0.0
H1268 H 0.90875 0.71099 0.29578 0.0
H1269 H 0.92796 0.63635 0.47152 0.0
H1270 H 0.83681 0.7213 0.38106 0.0
H1271 H 0.99829 0.61748 0.38691 0.0
H1272 H 0.8961 0.66626 0.43862 0.0
H1273 H 0.94121 0.67835 0.32636 0.0
C1274 C 0.89925 0.70664 0.32087 0.0
C1275 C 0.86868 0.72 0.33473 0.0
C1276 C 0.91826 0.65558 0.42671 0.0
C1277 C 0.908 0.6807 0.37186 0.0
C1278 C 0.93702 0.63782 0.44587 0.0
C1279 C 0.96687 0.62268 0.43323 0.0
C1280 C 0.92832 0.65994 0.39314 0.0
C1281 C 0.9757 0.62727 0.39903 0.0
C1282 C 0.91834 0.68753 0.33869 0.0
C1283 C 0.85948 0.71233 0.36806 0.0
N1284 N 0.95711 0.64505 0.38095 0.0
N1285 N 0.87848 0.69393 0.38472 0.0
H1286 H 0.39554 0.80012 0.39963 0.0
H1287 H 0.50025 0.9926 0.42343 0.0
H1288 H 0.40299 0.8699 0.32594 0.0
H1289 H 0.47621 0.92723 0.50196 0.0
H1290 H 0.46715 0.94749 0.38655 0.0
H1291 H 0.42738 0.84585 0.43651 0.0
C1292 C 0.40384 0.82508 0.39116 0.0
C1293 C 0.39653 0.83115 0.35958 0.0
C1294 C 0.46907 0.94306 0.41187 0.0
C1295 C 0.43325 0.88375 0.40183 0.0
C1296 C 0.48807 0.96878 0.43297 0.0
C1297 C 0.49113 0.96378 0.46594 0.0
C1298 C 0.45317 0.91193 0.42366 0.0
C1299 C 0.47459 0.93234 0.47681 0.0
C1300 C 0.42199 0.85123 0.41232 0.0
C1301 C 0.40794 0.86407 0.35009 0.0
N1302 N 0.45646 0.90763 0.45571 0.0
N1303 N 0.42585 0.88911 0.37109 0.0
H1304 H 0.26699 0.39023 0.37283 0.0
H1305 H 0.07681 0.45991 0.38841 0.0
H1306 H 0.18528 0.34911 0.30521 0.0
H1307 H 0.16042 0.49247 0.45557 0.0
H1308 H 0.11451 0.42265 0.35589 0.0
H1309 H 0.22872 0.42844 0.40051 0.0
C1310 C 0.24107 0.38887 0.36338 0.0
C1311 C 0.23061 0.36516 0.33577 0.0
C1312 C 0.12505 0.43831 0.37745 0.0
C1313 C 0.18434 0.41135 0.36905 0.0
C1314 C 0.10335 0.46045 0.39609 0.0
C1315 C 0.11484 0.48141 0.4252 0.0
C1316 C 0.15937 0.43595 0.38729 0.0
C1317 C 0.14961 0.47824 0.43342 0.0
C1318 C 0.21876 0.41124 0.37962 0.0
C1319 C 0.19572 0.36617 0.326 0.0
N1320 N 0.16978 0.45678 0.41516 0.0
N1321 N 0.17454 0.38829 0.34221 0.0
H1322 H 0.40226 0.23307 0.78146 0.0
H1323 H 0.47679 0.17551 0.60056 0.0
H1324 H 0.35915 0.25365 0.6934 0.0
H1325 H 0.5209 0.1608 0.69004 0.0
H1326 H 0.4396 0.21214 0.63296 0.0
H1327 H 0.45088 0.21318 0.74766 0.0
C1328 C 0.40304 0.23347 0.755 0.0
C1329 C 0.37631 0.24466 0.74025 0.0
C1330 C 0.45807 0.20156 0.64539 0.0
C1331 C 0.43209 0.22182 0.7012 0.0
C1332 C 0.47954 0.18104 0.62684 0.0
C1333 C 0.50172 0.16524 0.64281 0.0
C1334 C 0.45892 0.20596 0.67997 0.0
C1335 C 0.50396 0.17255 0.67694 0.0
C1336 C 0.43097 0.22225 0.73566 0.0
C1337 C 0.37904 0.24499 0.70582 0.0
N1338 N 0.4825 0.19201 0.69442 0.0
N1339 N 0.40621 0.23338 0.68742 0.0
H1340 H 0.84273 0.40548 0.74184 0.0
H1341 H 0.99167 0.42385 0.58778 0.0
H1342 H 0.90559 0.32974 0.70779 0.0
H1343 H 0.93719 0.50522 0.62481 0.0
H1344 H 0.95873 0.38954 0.62979 0.0
H1345 H 0.8744 0.4411 0.69953 0.0
C1346 C 0.86316 0.39603 0.72562 0.0
C1347 C 0.87091 0.3638 0.72925 0.0
C1348 C 0.95362 0.41478 0.62891 0.0
C1349 C 0.9082 0.40578 0.67913 0.0
C1350 C 0.9726 0.43481 0.60447 0.0
C1351 C 0.96783 0.46829 0.60167 0.0
C1352 C 0.92872 0.42738 0.65186 0.0
C1353 C 0.94222 0.47987 0.62504 0.0
C1354 C 0.88143 0.41675 0.70116 0.0
C1355 C 0.89811 0.35398 0.70671 0.0
N1356 N 0.92399 0.45973 0.64873 0.0
N1357 N 0.9153 0.37451 0.68307 0.0
H1358 H 0.25599 0.68965 0.71357 0.0
H1359 H 0.08833 0.69454 0.60512 0.0
H1360 H 0.20158 0.77396 0.72157 0.0
H1361 H 0.1372 0.60689 0.60057 0.0
H1362 H 0.13053 0.72404 0.646 0.0
H1363 H 0.21477 0.65977 0.6717 0.0
C1364 C 0.23554 0.70209 0.70668 0.0
C1365 C 0.23287 0.73483 0.7218 0.0
C1366 C 0.13227 0.6984 0.63607 0.0
C1367 C 0.18462 0.70001 0.67274 0.0
C1368 C 0.108 0.68136 0.61238 0.0
C1369 C 0.10868 0.64779 0.59857 0.0
C1370 C 0.15818 0.68225 0.64672 0.0
C1371 C 0.13521 0.63264 0.60988 0.0
C1372 C 0.21177 0.68481 0.68255 0.0
C1373 C 0.20524 0.74896 0.71116 0.0
N1374 N 0.15851 0.64976 0.63292 0.0
N1375 N 0.18266 0.73175 0.68767 0.0
loop_
_geom_bond_atom_site_label_1
_geom_bond_atom_site_label_2
_geom_bond_distance
_geom_bond_site_symmetry_2
_ccdc_geom_bond_type
Tb0 C10 2.825 . S
Tb0 O11 2.347 . S
Tb0 O14 2.366 . S
Tb0 O19 2.418 . S
Tb0 O20 2.384 . S
Tb0 O23 2.479 . S
Tb0 O24 2.471 . S
Eu1 O12 2.418 . S
Eu1 O13 2.384 . S
Eu1 O16 2.479 . S
Eu1 O17 2.471 . S
Eu1 O18 2.347 . S
Eu1 O21 2.366 . S
Eu1 C31 2.825 . S
C2 O18 1.259 . S
C2 O19 1.265 . S
C3 O20 1.255 . S
C3 O21 1.265 . S
C4 C6 1.380 . S
C4 C7 1.374 . S
C4 C10 1.507 . S
C5 C6 1.384 . S
C5 C9 1.387 . S
C5 H32 0.930 . S
C6 C4 1.380 . S
C6 C5 1.384 . S
C6 H33 0.931 . S
C7 C4 1.374 . S
C7 C8 1.390 . S
C7 H34 0.930 . S
C8 C7 1.390 . S
C8 C9 1.391 . S
C8 H35 0.930 . S
C9 C5 1.387 . S
C9 C8 1.391 . S
C10 Tb0 2.825 . S
C10 C4 1.507 . S
C10 O23 1.238 . S
C10 O24 1.247 . S
O11 Tb0 2.347 . S
O11 C15 1.259 . S
O12 Eu1 2.418 . S
O12 C15 1.265 . S
O13 Eu1 2.384 . S
O13 C22 1.255 . S
O14 Tb0 2.366 . S
O14 C22 1.265 . S
C15 O11 1.259 . S
C15 O12 1.265 . S
O16 Eu1 2.479 . S
O16 C31 1.238 . S
O17 Eu1 2.471 . S
O17 C31 1.247 . S
O18 Eu1 2.347 . S
O18 C2 1.259 . S
O19 Tb0 2.418 . S
O19 C2 1.265 . S
O20 Tb0 2.384 . S
O20 C3 1.255 . S
O21 Eu1 2.366 . S
O21 C3 1.265 . S
C22 O13 1.255 . S
C22 O14 1.265 . S
O23 Tb0 2.479 . S
O23 C10 1.238 . S
O24 Tb0 2.471 . S
O24 C10 1.247 . S
C25 C28 1.380 . S
C25 C29 1.374 . S
C25 C31 1.507 . S
C26 C27 1.387 . S
C26 C30 1.391 . S
C27 C26 1.387 . S
C27 C28 1.384 . S
C27 H36 0.930 . S
C28 C25 1.380 . S
C28 C27 1.384 . S
C28 H37 0.931 . S
C29 C25 1.374 . S
C29 C30 1.390 . S
C29 H38 0.930 . S
C30 C26 1.391 . S
C30 C29 1.390 . S
C30 H39 0.930 . S
C31 Eu1 2.825 . S
C31 O16 1.238 . S
C31 O17 1.247 . S
C31 C25 1.507 . S
H32 C5 0.930 . S
H33 C6 0.931 . S
H34 C7 0.930 . S
H35 C8 0.930 . S
H36 C27 0.930 . S
H37 C28 0.931 . S
H38 C29 0.930 . S
H39 C30 0.930 . S
Tb40 C50 2.825 . S
Tb40 O51 2.347 . S
Tb40 O54 2.366 . S
Tb40 O59 2.418 . S
Tb40 O60 2.384 . S
Tb40 O63 2.479 . S
Tb40 O64 2.471 . S
Eu41 O52 2.418 . S
Eu41 O53 2.384 . S
Eu41 O56 2.479 . S
Eu41 O57 2.471 . S
Eu41 O58 2.347 . S
Eu41 O61 2.366 . S
Eu41 C71 2.825 . S
C42 O58 1.259 . S
C42 O59 1.265 . S
C43 O60 1.255 . S
C43 O61 1.265 . S
C44 C46 1.380 . S
C44 C47 1.374 . S
C44 C50 1.507 . S
C45 C46 1.384 . S
C45 C49 1.387 . S
C45 H72 0.930 . S
C46 C44 1.380 . S
C46 C45 1.384 . S
C46 H73 0.931 . S
C47 C44 1.374 . S
C47 C48 1.390 . S
C47 H74 0.930 . S
C48 C47 1.390 . S
C48 C49 1.391 . S
C48 H75 0.930 . S
C49 C45 1.387 . S
C49 C48 1.391 . S
C50 Tb40 2.825 . S
C50 C44 1.507 . S
C50 O63 1.238 . S
C50 O64 1.247 . S
O51 Tb40 2.347 . S
O51 C55 1.259 . S
O52 Eu41 2.418 . S
O52 C55 1.265 . S
O53 Eu41 2.384 . S
O53 C62 1.255 . S
O54 Tb40 2.366 . S
O54 C62 1.265 . S
C55 O51 1.259 . S
C55 O52 1.265 . S
O56 Eu41 2.479 . S
O56 C71 1.238 . S
O57 Eu41 2.471 . S
O57 C71 1.247 . S
O58 Eu41 2.347 . S
O58 C42 1.259 . S
O59 Tb40 2.418 . S
O59 C42 1.265 . S
O60 Tb40 2.384 . S
O60 C43 1.255 . S
O61 Eu41 2.366 . S
O61 C43 1.265 . S
C62 O53 1.255 . S
C62 O54 1.265 . S
O63 Tb40 2.479 . S
O63 C50 1.238 . S
O64 Tb40 2.471 . S
O64 C50 1.247 . S
C65 C68 1.380 . S
C65 C69 1.374 . S
C65 C71 1.507 . S
C66 C67 1.387 . S
C66 C70 1.391 . S
C67 C66 1.387 . S
C67 C68 1.384 . S
C67 H76 0.930 . S
C68 C65 1.380 . S
C68 C67 1.384 . S
C68 H77 0.931 . S
C69 C65 1.374 . S
C69 C70 1.390 . S
C69 H78 0.930 . S
C70 C66 1.391 . S
C70 C69 1.390 . S
C70 H79 0.930 . S
C71 Eu41 2.825 . S
C71 O56 1.238 . S
C71 O57 1.247 . S
C71 C65 1.507 . S
H72 C45 0.930 . S
H73 C46 0.931 . S
H74 C47 0.930 . S
H75 C48 0.930 . S
H76 C67 0.930 . S
H77 C68 0.931 . S
H78 C69 0.930 . S
H79 C70 0.930 . S
Tb80 C90 2.825 . S
Tb80 O91 2.347 . S
Tb80 O94 2.366 . S
Tb80 O99 2.418 . S
Tb80 O100 2.384 . S
Tb80 O103 2.479 . S
Tb80 O104 2.471 . S
Eu81 O92 2.418 . S
Eu81 O93 2.384 . S
Eu81 O96 2.479 . S
Eu81 O97 2.471 . S
Eu81 O98 2.347 . S
Eu81 O101 2.366 . S
Eu81 C111 2.825 . S
C82 O98 1.259 . S
C82 O99 1.265 . S
C83 O100 1.255 . S
C83 O101 1.265 . S
C84 C86 1.380 . S
C84 C87 1.374 . S
C84 C90 1.507 . S
C85 C86 1.384 . S
C85 C89 1.387 . S
C85 H112 0.930 . S
C86 C84 1.380 . S
C86 C85 1.384 . S
C86 H113 0.931 . S
C87 C84 1.374 . S
C87 C88 1.390 . S
C87 H114 0.930 . S
C88 C87 1.390 . S
C88 C89 1.391 . S
C88 H115 0.930 . S
C89 C85 1.387 . S
C89 C88 1.391 . S
C90 Tb80 2.825 . S
C90 C84 1.507 . S
C90 O103 1.238 . S
C90 O104 1.247 . S
O91 Tb80 2.347 . S
O91 C95 1.259 . S
O92 Eu81 2.418 . S
O92 C95 1.265 . S
O93 Eu81 2.384 . S
O93 C102 1.255 . S
O94 Tb80 2.366 . S
O94 C102 1.265 . S
C95 O91 1.259 . S
C95 O92 1.265 . S
O96 Eu81 2.479 . S
O96 C111 1.238 . S
O97 Eu81 2.471 . S
O97 C111 1.247 . S
O98 Eu81 2.347 . S
O98 C82 1.259 . S
O99 Tb80 2.418 . S
O99 C82 1.265 . S
O100 Tb80 2.384 . S
O100 C83 1.255 . S
O101 Eu81 2.366 . S
O101 C83 1.265 . S
C102 O93 1.255 . S
C102 O94 1.265 . S
O103 Tb80 2.479 . S
O103 C90 1.238 . S
O104 Tb80 2.471 . S
O104 C90 1.247 . S
C105 C108 1.380 . S
C105 C109 1.374 . S
C105 C111 1.507 . S
C106 C107 1.387 . S
C106 C110 1.391 . S
C107 C106 1.387 . S
C107 C108 1.384 . S
C107 H116 0.930 . S
C108 C105 1.380 . S
C108 C107 1.384 . S
C108 H117 0.931 . S
C109 C105 1.374 . S
C109 C110 1.390 . S
C109 H118 0.930 . S
C110 C106 1.391 . S
C110 C109 1.390 . S
C110 H119 0.930 . S
C111 Eu81 2.825 . S
C111 O96 1.238 . S
C111 O97 1.247 . S
C111 C105 1.507 . S
H112 C85 0.930 . S
H113 C86 0.931 . S
H114 C87 0.930 . S
H115 C88 0.930 . S
H116 C107 0.930 . S
H117 C108 0.931 . S
H118 C109 0.930 . S
H119 C110 0.930 . S
Tb120 C130 2.825 . S
Tb120 O131 2.347 . S
Tb120 O134 2.366 . S
Tb120 O139 2.418 . S
Tb120 O140 2.384 . S
Tb120 O143 2.479 . S
Tb120 O144 2.471 . S
Eu121 O132 2.418 . S
Eu121 O133 2.384 . S
Eu121 O136 2.479 . S
Eu121 O137 2.471 . S
Eu121 O138 2.347 . S
Eu121 O141 2.366 . S
Eu121 C151 2.825 . S
C122 O138 1.259 . S
C122 O139 1.265 . S
C123 O140 1.255 . S
C123 O141 1.265 . S
C124 C126 1.380 . S
C124 C127 1.374 . S
C124 C130 1.507 . S
C125 C126 1.384 . S
C125 C129 1.387 . S
C125 H152 0.930 . S
C126 C124 1.380 . S
C126 C125 1.384 . S
C126 H153 0.931 . S
C127 C124 1.374 . S
C127 C128 1.390 . S
C127 H154 0.930 . S
C128 C127 1.390 . S
C128 C129 1.391 . S
C128 H155 0.930 . S
C129 C125 1.387 . S
C129 C128 1.391 . S
C130 Tb120 2.825 . S
C130 C124 1.507 . S
C130 O143 1.238 . S
C130 O144 1.247 . S
O131 Tb120 2.347 . S
O131 C135 1.259 . S
O132 Eu121 2.418 . S
O132 C135 1.265 . S
O133 Eu121 2.384 . S
O133 C142 1.255 . S
O134 Tb120 2.366 . S
O134 C142 1.265 . S
C135 O131 1.259 . S
C135 O132 1.265 . S
O136 Eu121 2.479 . S
O136 C151 1.238 . S
O137 Eu121 2.471 . S
O137 C151 1.247 . S
O138 Eu121 2.347 . S
O138 C122 1.259 . S
O139 Tb120 2.418 . S
O139 C122 1.265 . S
O140 Tb120 2.384 . S
O140 C123 1.255 . S
O141 Eu121 2.366 . S
O141 C123 1.265 . S
C142 O133 1.255 . S
C142 O134 1.265 . S
O143 Tb120 2.479 . S
O143 C130 1.238 . S
O144 Tb120 2.471 . S
O144 C130 1.247 . S
C145 C148 1.380 . S
C145 C149 1.374 . S
C145 C151 1.507 . S
C146 C147 1.387 . S
C146 C150 1.391 . S
C147 C146 1.387 . S
C147 C148 1.384 . S
C147 H156 0.930 . S
C148 C145 1.380 . S
C148 C147 1.384 . S
C148 H157 0.931 . S
C149 C145 1.374 . S
C149 C150 1.390 . S
C149 H158 0.930 . S
C150 C146 1.391 . S
C150 C149 1.390 . S
C150 H159 0.930 . S
C151 Eu121 2.825 . S
C151 O136 1.238 . S
C151 O137 1.247 . S
C151 C145 1.507 . S
H152 C125 0.930 . S
H153 C126 0.931 . S
H154 C127 0.930 . S
H155 C128 0.930 . S
H156 C147 0.930 . S
H157 C148 0.931 . S
H158 C149 0.930 . S
H159 C150 0.930 . S
Tb160 C170 2.825 . S
Tb160 O171 2.347 . S
Tb160 O174 2.366 . S
Tb160 O179 2.418 . S
Tb160 O180 2.384 . S
Tb160 O183 2.479 . S
Tb160 O184 2.471 . S
Eu161 O172 2.418 . S
Eu161 O173 2.384 . S
Eu161 O176 2.479 . S
Eu161 O177 2.471 . S
Eu161 O178 2.347 . S
Eu161 O181 2.366 . S
Eu161 C191 2.825 . S
C162 O178 1.259 . S
C162 O179 1.265 . S
C163 O180 1.255 . S
C163 O181 1.265 . S
C164 C166 1.380 . S
C164 C167 1.374 . S
C164 C170 1.507 . S
C165 C166 1.384 . S
C165 C169 1.387 . S
C165 H192 0.930 . S
C166 C164 1.380 . S
C166 C165 1.384 . S
C166 H193 0.931 . S
C167 C164 1.374 . S
C167 C168 1.390 . S
C167 H194 0.930 . S
C168 C167 1.390 . S
C168 C169 1.391 . S
C168 H195 0.930 . S
C169 C165 1.387 . S
C169 C168 1.391 . S
C170 Tb160 2.825 . S
C170 C164 1.507 . S
C170 O183 1.238 . S
C170 O184 1.247 . S
O171 Tb160 2.347 . S
O171 C175 1.259 . S
O172 Eu161 2.418 . S
O172 C175 1.265 . S
O173 Eu161 2.384 . S
O173 C182 1.255 . S
O174 Tb160 2.366 . S
O174 C182 1.265 . S
C175 O171 1.259 . S
C175 O172 1.265 . S
O176 Eu161 2.479 . S
O176 C191 1.238 . S
O177 Eu161 2.471 . S
O177 C191 1.247 . S
O178 Eu161 2.347 . S
O178 C162 1.259 . S
O179 Tb160 2.418 . S
O179 C162 1.265 . S
O180 Tb160 2.384 . S
O180 C163 1.255 . S
O181 Eu161 2.366 . S
O181 C163 1.265 . S
C182 O173 1.255 . S
C182 O174 1.265 . S
O183 Tb160 2.479 . S
O183 C170 1.238 . S
O184 Tb160 2.471 . S
O184 C170 1.247 . S
C185 C188 1.380 . S
C185 C189 1.374 . S
C185 C191 1.507 . S
C186 C187 1.387 . S
C186 C190 1.391 . S
C187 C186 1.387 . S
C187 C188 1.384 . S
C187 H196 0.930 . S
C188 C185 1.380 . S
C188 C187 1.384 . S
C188 H197 0.931 . S
C189 C185 1.374 . S
C189 C190 1.390 . S
C189 H198 0.930 . S
C190 C186 1.391 . S
C190 C189 1.390 . S
C190 H199 0.930 . S
C191 Eu161 2.825 . S
C191 O176 1.238 . S
C191 O177 1.247 . S
C191 C185 1.507 . S
H192 C165 0.930 . S
H193 C166 0.931 . S
H194 C167 0.930 . S
H195 C168 0.930 . S
H196 C187 0.930 . S
H197 C188 0.931 . S
H198 C189 0.930 . S
H199 C190 0.930 . S
Tb200 C210 2.825 . S
Tb200 O211 2.347 . S
Tb200 O214 2.366 . S
Tb200 O219 2.418 . S
Tb200 O220 2.384 . S
Tb200 O223 2.479 . S
Tb200 O224 2.471 . S
Eu201 O212 2.418 . S
Eu201 O213 2.384 . S
Eu201 O216 2.479 . S
Eu201 O217 2.471 . S
Eu201 O218 2.347 . S
Eu201 O221 2.366 . S
Eu201 C231 2.825 . S
C202 O218 1.259 . S
C202 O219 1.265 . S
C203 O220 1.255 . S
C203 O221 1.265 . S
C204 C206 1.380 . S
C204 C207 1.374 . S
C204 C210 1.507 . S
C205 C206 1.384 . S
C205 C209 1.387 . S
C205 H232 0.930 . S
C206 C204 1.380 . S
C206 C205 1.384 . S
C206 H233 0.931 . S
C207 C204 1.374 . S
C207 C208 1.390 . S
C207 H234 0.930 . S
C208 C207 1.390 . S
C208 C209 1.391 . S
C208 H235 0.930 . S
C209 C205 1.387 . S
C209 C208 1.391 . S
C210 Tb200 2.825 . S
C210 C204 1.507 . S
C210 O223 1.238 . S
C210 O224 1.247 . S
O211 Tb200 2.347 . S
O211 C215 1.259 . S
O212 Eu201 2.418 . S
O212 C215 1.265 . S
O213 Eu201 2.384 . S
O213 C222 1.255 . S
O214 Tb200 2.366 . S
O214 C222 1.265 . S
C215 O211 1.259 . S
C215 O212 1.265 . S
O216 Eu201 2.479 . S
O216 C231 1.238 . S
O217 Eu201 2.471 . S
O217 C231 1.247 . S
O218 Eu201 2.347 . S
O218 C202 1.259 . S
O219 Tb200 2.418 . S
O219 C202 1.265 . S
O220 Tb200 2.384 . S
O220 C203 1.255 . S
O221 Eu201 2.366 . S
O221 C203 1.265 . S
C222 O213 1.255 . S
C222 O214 1.265 . S
O223 Tb200 2.479 . S
O223 C210 1.238 . S
O224 Tb200 2.471 . S
O224 C210 1.247 . S
C225 C228 1.380 . S
C225 C229 1.374 . S
C225 C231 1.507 . S
C226 C227 1.387 . S
C226 C230 1.391 . S
C227 C226 1.387 . S
C227 C228 1.384 . S
C227 H236 0.930 . S
C228 C225 1.380 . S
C228 C227 1.384 . S
C228 H237 0.931 . S
C229 C225 1.374 . S
C229 C230 1.390 . S
C229 H238 0.930 . S
C230 C226 1.391 . S
C230 C229 1.390 . S
C230 H239 0.930 . S
C231 Eu201 2.825 . S
C231 O216 1.238 . S
C231 O217 1.247 . S
C231 C225 1.507 . S
H232 C205 0.930 . S
H233 C206 0.931 . S
H234 C207 0.930 . S
H235 C208 0.930 . S
H236 C227 0.930 . S
H237 C228 0.931 . S
H238 C229 0.930 . S
H239 C230 0.930 . S
Tb240 C250 2.825 . S
Tb240 O251 2.347 . S
Tb240 O254 2.366 . S
Tb240 O259 2.418 . S
Tb240 O260 2.384 . S
Tb240 O263 2.479 . S
Tb240 O264 2.471 . S
Eu241 O252 2.418 . S
Eu241 O253 2.384 . S
Eu241 O256 2.479 . S
Eu241 O257 2.471 . S
Eu241 O258 2.347 . S
Eu241 O261 2.366 . S
Eu241 C271 2.825 . S
C242 O258 1.259 . S
C242 O259 1.265 . S
C243 O260 1.255 . S
C243 O261 1.265 . S
C244 C246 1.380 . S
C244 C247 1.374 . S
C244 C250 1.507 . S
C245 C246 1.384 . S
C245 C249 1.387 . S
C245 H272 0.930 . S
C246 C244 1.380 . S
C246 C245 1.384 . S
C246 H273 0.931 . S
C247 C244 1.374 . S
C247 C248 1.390 . S
C247 H274 0.930 . S
C248 C247 1.390 . S
C248 C249 1.391 . S
C248 H275 0.930 . S
C249 C245 1.387 . S
C249 C248 1.391 . S
C250 Tb240 2.825 . S
C250 C244 1.507 . S
C250 O263 1.238 . S
C250 O264 1.247 . S
O251 Tb240 2.347 . S
O251 C255 1.259 . S
O252 Eu241 2.418 . S
O252 C255 1.265 . S
O253 Eu241 2.384 . S
O253 C262 1.255 . S
O254 Tb240 2.366 . S
O254 C262 1.265 . S
C255 O251 1.259 . S
C255 O252 1.265 . S
O256 Eu241 2.479 . S
O256 C271 1.238 . S
O257 Eu241 2.471 . S
O257 C271 1.247 . S
O258 Eu241 2.347 . S
O258 C242 1.259 . S
O259 Tb240 2.418 . S
O259 C242 1.265 . S
O260 Tb240 2.384 . S
O260 C243 1.255 . S
O261 Eu241 2.366 . S
O261 C243 1.265 . S
C262 O253 1.255 . S
C262 O254 1.265 . S
O263 Tb240 2.479 . S
O263 C250 1.238 . S
O264 Tb240 2.471 . S
O264 C250 1.247 . S
C265 C268 1.380 . S
C265 C269 1.374 . S
C265 C271 1.507 . S
C266 C267 1.387 . S
C266 C270 1.391 . S
C267 C266 1.387 . S
C267 C268 1.384 . S
C267 H276 0.930 . S
C268 C265 1.380 . S
C268 C267 1.384 . S
C268 H277 0.931 . S
C269 C265 1.374 . S
C269 C270 1.390 . S
C269 H278 0.930 . S
C270 C266 1.391 . S
C270 C269 1.390 . S
C270 H279 0.930 . S
C271 Eu241 2.825 . S
C271 O256 1.238 . S
C271 O257 1.247 . S
C271 C265 1.507 . S
H272 C245 0.930 . S
H273 C246 0.931 . S
H274 C247 0.930 . S
H275 C248 0.930 . S
H276 C267 0.930 . S
H277 C268 0.931 . S
H278 C269 0.930 . S
H279 C270 0.930 . S
Tb280 C290 2.825 . S
Tb280 O291 2.347 . S
Tb280 O294 2.366 . S
Tb280 O299 2.418 . S
Tb280 O300 2.384 . S
Tb280 O303 2.479 . S
Tb280 O304 2.471 . S
Eu281 O292 2.418 . S
Eu281 O293 2.384 . S
Eu281 O296 2.479 . S
Eu281 O297 2.471 . S
Eu281 O298 2.347 . S
Eu281 O301 2.366 . S
Eu281 C311 2.825 . S
C282 O298 1.259 . S
C282 O299 1.265 . S
C283 O300 1.255 . S
C283 O301 1.265 . S
C284 C286 1.380 . S
C284 C287 1.374 . S
C284 C290 1.507 . S
C285 C286 1.384 . S
C285 C289 1.387 . S
C285 H312 0.930 . S
C286 C284 1.380 . S
C286 C285 1.384 . S
C286 H313 0.931 . S
C287 C284 1.374 . S
C287 C288 1.390 . S
C287 H314 0.930 . S
C288 C287 1.390 . S
C288 C289 1.391 . S
C288 H315 0.930 . S
C289 C285 1.387 . S
C289 C288 1.391 . S
C290 Tb280 2.825 . S
C290 C284 1.507 . S
C290 O303 1.238 . S
C290 O304 1.247 . S
O291 Tb280 2.347 . S
O291 C295 1.259 . S
O292 Eu281 2.418 . S
O292 C295 1.265 . S
O293 Eu281 2.384 . S
O293 C302 1.255 . S
O294 Tb280 2.366 . S
O294 C302 1.265 . S
C295 O291 1.259 . S
C295 O292 1.265 . S
O296 Eu281 2.479 . S
O296 C311 1.238 . S
O297 Eu281 2.471 . S
O297 C311 1.247 . S
O298 Eu281 2.347 . S
O298 C282 1.259 . S
O299 Tb280 2.418 . S
O299 C282 1.265 . S
O300 Tb280 2.384 . S
O300 C283 1.255 . S
O301 Eu281 2.366 . S
O301 C283 1.265 . S
C302 O293 1.255 . S
C302 O294 1.265 . S
O303 Tb280 2.479 . S
O303 C290 1.238 . S
O304 Tb280 2.471 . S
O304 C290 1.247 . S
C305 C308 1.380 . S
C305 C309 1.374 . S
C305 C311 1.507 . S
C306 C307 1.387 . S
C306 C310 1.391 . S
C307 C306 1.387 . S
C307 C308 1.384 . S
C307 H316 0.930 . S
C308 C305 1.380 . S
C308 C307 1.384 . S
C308 H317 0.931 . S
C309 C305 1.374 . S
C309 C310 1.390 . S
C309 H318 0.930 . S
C310 C306 1.391 . S
C310 C309 1.390 . S
C310 H319 0.930 . S
C311 Eu281 2.825 . S
C311 O296 1.238 . S
C311 O297 1.247 . S
C311 C305 1.507 . S
H312 C285 0.930 . S
H313 C286 0.931 . S
H314 C287 0.930 . S
H315 C288 0.930 . S
H316 C307 0.930 . S
H317 C308 0.931 . S
H318 C309 0.930 . S
H319 C310 0.930 . S
Fe320 O321 1.886 1_455 S
Fe320 O324 1.715 . S
Fe320 O329 2.077 1_455 S
Fe320 O334 1.935 . S
Fe320 O340 2.077 1_455 S
Fe320 O349 1.935 . S
O321 Fe320 1.886 1_655 S
O321 Fe323 1.715 . S
Fe322 O324 1.886 . S
Fe322 O325 1.715 1_545 S
Fe322 O332 1.935 1_545 S
Fe322 O333 2.077 . S
Fe322 O339 1.935 . S
Fe322 O348 2.077 . S
Fe323 O321 1.715 . S
Fe323 O326 1.886 1_545 S
Fe323 O330 1.935 . S
Fe323 O335 2.077 1_545 S
Fe323 O341 1.935 . S
Fe323 O345 2.077 1_545 S
O324 Fe320 1.715 . S
O324 Fe322 1.886 . S
O325 Fe322 1.715 1_565 S
O325 Fe327 1.886 . S
O326 Fe323 1.886 1_565 S
O326 Fe327 1.715 1_655 S
Fe327 O325 1.886 . S
Fe327 O326 1.715 1_455 S
Fe327 O331 2.077 . S
Fe327 O336 1.935 1_455 S
Fe327 O338 2.077 . S
Fe327 O346 1.935 1_455 S
C328 O340 1.381 . S
C328 O341 1.421 . S
O329 Fe320 2.077 1_655 S
O329 C342 1.381 . S
O330 Fe323 1.935 . S
O330 C342 1.421 . S
O331 Fe327 2.077 . S
O331 C347 1.381 . S
O332 Fe322 1.935 1_565 S
O332 C347 1.421 . S
O333 Fe322 2.077 . S
O333 C337 1.381 . S
O334 Fe320 1.935 . S
O334 C337 1.421 . S
O335 Fe323 2.077 1_565 S
O335 C343 1.381 . S
O336 Fe327 1.935 1_655 S
O336 C343 1.421 . S
C337 O333 1.381 . S
C337 O334 1.421 . S
O338 Fe327 2.077 . S
O338 C350 1.381 . S
O339 Fe322 1.935 . S
O339 C350 1.421 1_545 S
O340 Fe320 2.077 1_655 S
O340 C328 1.381 . S
O341 Fe323 1.935 . S
O341 C328 1.421 . S
C342 O329 1.381 . S
C342 O330 1.421 . S
C343 O335 1.381 . S
C343 O336 1.421 . S
C344 O345 1.381 . S
C344 O346 1.421 . S
O345 Fe323 2.077 1_565 S
O345 C344 1.381 . S
O346 Fe327 1.935 1_655 S
O346 C344 1.421 . S
C347 O331 1.381 . S
C347 O332 1.421 . S
O348 Fe322 2.077 . S
O348 C351 1.381 . S
O349 Fe320 1.935 . S
O349 C351 1.421 . S
C350 O338 1.381 . S
C350 O339 1.421 1_565 S
C351 O348 1.381 . S
C351 O349 1.421 . S
Fe352 O353 1.886 . S
Fe352 O356 1.715 . S
Fe352 O361 2.061 1_554 S
Fe352 O366 1.935 1_554 S
Fe352 O372 2.077 . S
Fe352 O381 1.935 . S
O353 Fe352 1.886 . S
O353 Fe355 1.715 1_565 S
Fe354 O356 1.886 . S
Fe354 O357 1.715 1_565 S
Fe354 O364 1.935 1_565 S
Fe354 O365 2.077 . S
Fe354 O371 1.935 1_565 S
Fe354 O380 2.077 . S
Fe355 O353 1.715 1_545 S
Fe355 O358 1.886 . S
Fe355 O362 1.913 1_544 S
Fe355 O367 2.077 . S
Fe355 O373 1.935 1_545 S
Fe355 O377 2.077 . S
O356 Fe352 1.715 . S
O356 Fe354 1.886 . S
O357 Fe354 1.715 1_545 S
O357 Fe359 1.886 . S
O358 Fe355 1.886 . S
O358 Fe359 1.715 . S
Fe359 O357 1.886 . S
Fe359 O358 1.715 . S
Fe359 O363 2.077 . S
Fe359 O368 1.935 . S
Fe359 O370 2.077 . S
Fe359 O378 1.935 . S
C360 O372 1.381 . S
C360 O373 1.421 . S
O361 Fe352 2.061 1_556 S
O361 C374 1.390 . S
O362 Fe355 1.913 1_566 S
O362 C374 1.426 . S
O363 Fe359 2.077 . S
O363 C379 1.381 1_554 S
O364 Fe354 1.935 1_545 S
O364 C379 1.421 1_554 S
O365 Fe354 2.077 . S
O365 C369 1.381 1_554 S
O366 Fe352 1.935 1_556 S
O366 C369 1.421 . S
O367 Fe355 2.077 . S
O367 C375 1.381 1_554 S
O368 Fe359 1.935 . S
O368 C375 1.421 1_554 S
C369 O365 1.381 1_556 S
C369 O366 1.421 . S
O370 Fe359 2.077 . S
O370 C382 1.381 . S
O371 Fe354 1.935 1_545 S
O371 C382 1.421 . S
O372 Fe352 2.077 . S
O372 C360 1.381 . S
O373 Fe355 1.935 1_565 S
O373 C360 1.421 . S
C374 O361 1.390 . S
C374 O362 1.426 . S
C375 O367 1.381 1_556 S
C375 O368 1.421 1_556 S
C376 O377 1.381 . S
C376 O378 1.421 . S
O377 Fe355 2.077 . S
O377 C376 1.381 . S
O378 Fe359 1.935 . S
O378 C376 1.421 . S
C379 O363 1.381 1_556 S
C379 O364 1.421 1_556 S
O380 Fe354 2.077 . S
O380 C383 1.381 . S
O381 Fe352 1.935 . S
O381 C383 1.421 . S
C382 O370 1.381 . S
C382 O371 1.421 . S
C383 O380 1.381 . S
C383 O381 1.421 . S
Fe384 O385 1.886 . S
Fe384 O388 1.715 . S
Fe384 O393 2.077 1_554 S
Fe384 O398 1.935 1_554 S
Fe384 O404 2.077 . S
Fe384 O413 1.935 . S
O385 Fe384 1.886 . S
O385 Fe387 1.714 1_455 S
Fe386 O388 1.885 . S
Fe386 O389 1.716 1_554 S
Fe386 O396 1.924 1_554 S
Fe386 O397 2.066 1_554 S
Fe386 O403 1.948 . S
Fe386 O412 2.087 . S
Fe387 O385 1.714 1_655 S
Fe387 O390 1.888 1_554 S
Fe387 O394 1.907 1_554 S
Fe387 O399 2.055 1_554 S
Fe387 O405 1.962 . S
Fe387 O409 2.102 . S
O388 Fe384 1.715 . S
O388 Fe386 1.885 . S
O389 Fe386 1.716 1_556 S
O389 Fe391 1.886 . S
O390 Fe387 1.888 1_556 S
O390 Fe391 1.715 1_655 S
Fe391 O389 1.886 . S
Fe391 O390 1.715 1_455 S
Fe391 O395 2.077 . S
Fe391 O400 1.935 1_455 S
Fe391 O402 2.077 1_556 S
Fe391 O410 1.935 1_456 S
C392 O404 1.381 1_655 S
C392 O405 1.421 . S
O393 Fe384 2.077 1_556 S
O393 C406 1.381 1_455 S
O394 Fe387 1.907 1_556 S
O394 C406 1.421 . S
O395 Fe391 2.077 . S
O395 C411 1.381 . S
O396 Fe386 1.924 1_556 S
O396 C411 1.421 . S
O397 Fe386 2.066 1_556 S
O397 C401 1.381 . S
O398 Fe384 1.935 1_556 S
O398 C401 1.421 . S
O399 Fe387 2.055 1_556 S
O399 C407 1.381 . S
O400 Fe391 1.935 1_655 S
O400 C407 1.421 . S
C401 O397 1.381 . S
C401 O398 1.421 . S
O402 Fe391 2.077 1_554 S
O402 C414 1.381 . S
O403 Fe386 1.948 . S
O403 C414 1.421 . S
O404 Fe384 2.077 . S
O404 C392 1.381 1_455 S
O405 Fe387 1.962 . S
O405 C392 1.421 . S
C406 O393 1.381 1_655 S
C406 O394 1.421 . S
C407 O399 1.381 . S
C407 O400 1.421 . S
C408 O409 1.381 . S
C408 O410 1.421 . S
O409 Fe387 2.102 . S
O409 C408 1.381 . S
O410 Fe391 1.935 1_654 S
O410 C408 1.421 . S
C411 O395 1.381 . S
C411 O396 1.421 . S
O412 Fe386 2.087 . S
O412 C415 1.381 . S
O413 Fe384 1.935 . S
O413 C415 1.421 . S
C414 O402 1.381 . S
C414 O403 1.421 . S
C415 O412 1.381 . S
C415 O413 1.421 . S
Fe416 O417 1.886 . S
Fe416 O420 1.715 . S
Fe416 O425 2.077 . S
Fe416 O430 1.935 . S
Fe416 O436 2.077 . S
Fe416 O445 1.935 . S
O417 Fe416 1.886 . S
O417 Fe419 1.715 1_556 S
Fe418 O420 1.886 1_554 S
Fe418 O421 1.715 . S
Fe418 O428 1.935 . S
Fe418 O429 2.077 1_554 S
Fe418 O435 1.935 . S
Fe418 O444 2.077 1_554 S
Fe419 O417 1.715 1_554 S
Fe419 O422 1.886 . S
Fe419 O426 1.935 1_554 S
Fe419 O431 2.077 . S
Fe419 O437 1.935 1_554 S
Fe419 O441 2.077 . S
O420 Fe416 1.715 . S
O420 Fe418 1.886 1_556 S
O421 Fe418 1.715 . S
O421 Fe423 1.886 . S
O422 Fe419 1.886 . S
O422 Fe423 1.715 . S
Fe423 O421 1.886 . S
Fe423 O422 1.715 . S
Fe423 O427 2.077 . S
Fe423 O432 1.935 . S
Fe423 O434 2.077 . S
Fe423 O442 1.935 . S
C424 O436 1.381 . S
C424 O437 1.421 . S
O425 Fe416 2.077 . S
O425 C438 1.381 . S
O426 Fe419 1.935 1_556 S
O426 C438 1.421 . S
O427 Fe423 2.077 . S
O427 C443 1.381 . S
O428 Fe418 1.935 . S
O428 C443 1.421 . S
O429 Fe418 2.077 1_556 S
O429 C433 1.381 . S
O430 Fe416 1.935 . S
O430 C433 1.421 . S
O431 Fe419 2.077 . S
O431 C439 1.381 . S
O432 Fe423 1.935 . S
O432 C439 1.421 . S
C433 O429 1.381 . S
C433 O430 1.421 . S
O434 Fe423 2.077 . S
O434 C446 1.381 . S
O435 Fe418 1.935 . S
O435 C446 1.421 . S
O436 Fe416 2.077 . S
O436 C424 1.381 . S
O437 Fe419 1.935 1_556 S
O437 C424 1.421 . S
C438 O425 1.381 . S
C438 O426 1.421 . S
C439 O431 1.381 . S
C439 O432 1.421 . S
C440 O441 1.381 . S
C440 O442 1.421 . S
O441 Fe419 2.077 . S
O441 C440 1.381 . S
O442 Fe423 1.935 . S
O442 C440 1.421 . S
C443 O427 1.381 . S
C443 O428 1.421 . S
O444 Fe418 2.077 1_556 S
O444 C447 1.381 . S
O445 Fe416 1.935 . S
O445 C447 1.421 . S
C446 O434 1.381 . S
C446 O435 1.421 . S
C447 O444 1.381 . S
C447 O445 1.421 . S
Fe448 O449 1.886 . S
Fe448 O452 1.715 . S
Fe448 O457 2.077 1_655 S
Fe448 O462 1.935 1_655 S
Fe448 O468 2.077 . S
Fe448 O477 1.935 . S
O449 Fe448 1.886 . S
O449 Fe451 1.715 1_655 S
Fe450 O452 1.886 1_455 S
Fe450 O453 1.715 . S
Fe450 O460 1.935 . S
Fe450 O461 2.077 . S
Fe450 O467 1.935 1_455 S
Fe450 O476 2.077 1_455 S
Fe451 O449 1.715 1_455 S
Fe451 O454 1.886 . S
Fe451 O458 1.935 . S
Fe451 O463 2.077 . S
Fe451 O469 1.935 1_455 S
Fe451 O473 2.077 1_455 S
O452 Fe448 1.715 . S
O452 Fe450 1.886 1_655 S
O453 Fe450 1.715 . S
O453 Fe455 1.886 . S
O454 Fe451 1.886 . S
O454 Fe455 1.715 . S
Fe455 O453 1.886 . S
Fe455 O454 1.715 . S
Fe455 O459 2.077 . S
Fe455 O464 1.935 . S
Fe455 O466 2.077 1_455 S
Fe455 O474 1.935 1_455 S
C456 O468 1.381 . S
C456 O469 1.421 . S
O457 Fe448 2.077 1_455 S
O457 C470 1.381 . S
O458 Fe451 1.935 . S
O458 C470 1.421 . S
O459 Fe455 2.077 . S
O459 C475 1.381 . S
O460 Fe450 1.935 . S
O460 C475 1.421 . S
O461 Fe450 2.077 . S
O461 C465 1.381 . S
O462 Fe448 1.935 1_455 S
O462 C465 1.421 . S
O463 Fe451 2.077 . S
O463 C471 1.381 . S
O464 Fe455 1.935 . S
O464 C471 1.421 . S
C465 O461 1.381 . S
C465 O462 1.421 . S
O466 Fe455 2.077 1_655 S
O466 C478 1.381 . S
O467 Fe450 1.935 1_655 S
O467 C478 1.421 . S
O468 Fe448 2.077 . S
O468 C456 1.381 . S
O469 Fe451 1.935 1_655 S
O469 C456 1.421 . S
C470 O457 1.381 . S
C470 O458 1.421 . S
C471 O463 1.381 . S
C471 O464 1.421 . S
C472 O473 1.381 . S
C472 O474 1.421 . S
O473 Fe451 2.077 1_655 S
O473 C472 1.381 . S
O474 Fe455 1.935 1_655 S
O474 C472 1.421 . S
C475 O459 1.381 . S
C475 O460 1.421 . S
O476 Fe450 2.077 1_655 S
O476 C479 1.381 . S
O477 Fe448 1.935 . S
O477 C479 1.421 . S
C478 O466 1.381 . S
C478 O467 1.421 . S
C479 O476 1.381 . S
C479 O477 1.421 . S
Fe480 O481 1.886 1_565 S
Fe480 O484 1.715 . S
Fe480 O489 2.077 . S
Fe480 O494 1.935 . S
Fe480 O500 2.077 . S
Fe480 O509 1.935 . S
O481 Fe480 1.886 1_545 S
O481 Fe483 1.715 . S
Fe482 O484 1.886 1_545 S
Fe482 O485 1.715 . S
Fe482 O492 1.935 . S
Fe482 O493 2.077 1_545 S
Fe482 O499 1.935 . S
Fe482 O508 2.077 1_545 S
Fe483 O481 1.715 . S
Fe483 O486 1.886 . S
Fe483 O490 1.935 . S
Fe483 O495 2.077 . S
Fe483 O501 1.935 . S
Fe483 O505 2.077 . S
O484 Fe480 1.715 . S
O484 Fe482 1.886 1_565 S
O485 Fe482 1.715 . S
O485 Fe487 1.886 . S
O486 Fe483 1.886 . S
O486 Fe487 1.715 . S
Fe487 O485 1.886 . S
Fe487 O486 1.715 . S
Fe487 O491 2.077 . S
Fe487 O496 1.935 . S
Fe487 O498 2.077 . S
Fe487 O506 1.935 . S
C488 O500 1.381 . S
C488 O501 1.421 1_565 S
O489 Fe480 2.077 . S
O489 C502 1.381 . S
O490 Fe483 1.935 . S
O490 C502 1.421 1_545 S
O491 Fe487 2.077 . S
O491 C507 1.381 . S
O492 Fe482 1.935 . S
O492 C507 1.421 . S
O493 Fe482 2.077 1_565 S
O493 C497 1.381 . S
O494 Fe480 1.935 . S
O494 C497 1.421 . S
O495 Fe483 2.077 . S
O495 C503 1.381 . S
O496 Fe487 1.935 . S
O496 C503 1.421 . S
C497 O493 1.381 . S
C497 O494 1.421 . S
O498 Fe487 2.077 . S
O498 C510 1.381 . S
O499 Fe482 1.935 . S
O499 C510 1.421 . S
O500 Fe480 2.077 . S
O500 C488 1.381 . S
O501 Fe483 1.935 . S
O501 C488 1.421 1_545 S
C502 O489 1.381 . S
C502 O490 1.421 1_565 S
C503 O495 1.381 . S
C503 O496 1.421 . S
C504 O505 1.381 . S
C504 O506 1.421 . S
O505 Fe483 2.077 . S
O505 C504 1.381 . S
O506 Fe487 1.935 . S
O506 C504 1.421 . S
C507 O491 1.381 . S
C507 O492 1.421 . S
O508 Fe482 2.077 1_565 S
O508 C511 1.381 . S
O509 Fe480 1.935 . S
O509 C511 1.421 . S
C510 O498 1.381 . S
C510 O499 1.421 . S
C511 O508 1.381 . S
C511 O509 1.421 . S
H512 C518 0.930 . S
H513 C522 0.930 . S
H514 C527 0.929 . S
H515 C525 0.929 . S
H516 C520 0.929 . S
H517 C526 0.929 . S
C518 H512 0.930 . S
C518 C519 1.367 . S
C518 C526 1.378 . S
C519 C518 1.367 . S
C519 C527 1.433 . S
C520 H516 0.929 . S
C520 C522 1.378 . S
C520 C524 1.350 . S
C521 C524 1.463 . S
C521 C526 1.350 . S
C521 N529 1.427 . S
C522 H513 0.930 . S
C522 C520 1.378 . S
C522 C523 1.367 . S
C523 C522 1.367 . S
C523 C525 1.433 . S
C524 C520 1.350 . S
C524 C521 1.463 . S
C524 N528 1.427 . S
C525 H515 0.929 . S
C525 C523 1.433 . S
C525 N528 1.384 . S
C526 H517 0.929 . S
C526 C518 1.378 . S
C526 C521 1.350 . S
C527 H514 0.929 . S
C527 C519 1.433 . S
C527 N529 1.384 . S
N528 C524 1.427 . S
N528 C525 1.384 . S
N529 C521 1.427 . S
N529 C527 1.384 . S
H530 C536 0.930 . S
H531 C540 0.930 . S
H532 C545 0.929 . S
H533 C543 0.929 . S
H534 C538 0.929 . S
H535 C544 0.929 . S
C536 H530 0.930 . S
C536 C537 1.367 . S
C536 C544 1.378 . S
C537 C536 1.367 . S
C537 C545 1.433 . S
C538 H534 0.929 . S
C538 C540 1.378 . S
C538 C542 1.350 . S
C539 C542 1.463 . S
C539 C544 1.350 . S
C539 N547 1.427 . S
C540 H531 0.930 . S
C540 C538 1.378 . S
C540 C541 1.367 . S
C541 C540 1.367 . S
C541 C543 1.433 . S
C542 C538 1.350 . S
C542 C539 1.463 . S
C542 N546 1.427 . S
C543 H533 0.929 . S
C543 C541 1.433 . S
C543 N546 1.384 . S
C544 H535 0.929 . S
C544 C536 1.378 . S
C544 C539 1.350 . S
C545 H532 0.929 . S
C545 C537 1.433 . S
C545 N547 1.384 . S
N546 C542 1.427 . S
N546 C543 1.384 . S
N547 C539 1.427 . S
N547 C545 1.384 . S
H548 C554 0.930 . S
H549 C558 0.930 . S
H550 C563 0.929 . S
H551 C561 0.929 . S
H552 C556 0.929 . S
H553 C562 0.929 . S
C554 H548 0.930 . S
C554 C555 1.367 . S
C554 C562 1.378 . S
C555 C554 1.367 . S
C555 C563 1.433 . S
C556 H552 0.929 . S
C556 C558 1.378 . S
C556 C560 1.350 . S
C557 C560 1.463 . S
C557 C562 1.350 . S
C557 N565 1.427 . S
C558 H549 0.930 . S
C558 C556 1.378 . S
C558 C559 1.367 . S
C559 C558 1.367 . S
C559 C561 1.433 . S
C560 C556 1.350 . S
C560 C557 1.463 . S
C560 N564 1.427 . S
C561 H551 0.929 . S
C561 C559 1.433 . S
C561 N564 1.384 . S
C562 H553 0.929 . S
C562 C554 1.378 . S
C562 C557 1.350 . S
C563 H550 0.929 . S
C563 C555 1.433 . S
C563 N565 1.384 . S
N564 C560 1.427 . S
N564 C561 1.384 . S
N565 C557 1.427 . S
N565 C563 1.384 . S
H566 C572 0.930 . S
H567 C576 0.930 . S
H568 C581 0.929 . S
H569 C579 0.929 . S
H570 C574 0.929 . S
H571 C580 0.929 . S
C572 H566 0.930 . S
C572 C573 1.367 . S
C572 C580 1.378 . S
C573 C572 1.367 . S
C573 C581 1.433 . S
C574 H570 0.929 . S
C574 C576 1.378 . S
C574 C578 1.350 . S
C575 C578 1.463 . S
C575 C580 1.350 . S
C575 N583 1.427 . S
C576 H567 0.930 . S
C576 C574 1.378 . S
C576 C577 1.367 . S
C577 C576 1.367 . S
C577 C579 1.433 . S
C578 C574 1.350 . S
C578 C575 1.463 . S
C578 N582 1.427 . S
C579 H569 0.929 . S
C579 C577 1.433 . S
C579 N582 1.384 . S
C580 H571 0.929 . S
C580 C572 1.378 . S
C580 C575 1.350 . S
C581 H568 0.929 . S
C581 C573 1.433 . S
C581 N583 1.384 . S
N582 C578 1.427 . S
N582 C579 1.384 . S
N583 C575 1.427 . S
N583 C581 1.384 . S
H584 C590 0.930 . S
H585 C594 0.930 . S
H586 C599 0.929 . S
H587 C597 0.929 1_545 S
H588 C592 0.929 . S
H589 C598 0.929 . S
C590 H584 0.930 . S
C590 C591 1.367 . S
C590 C598 1.378 . S
C591 C590 1.367 . S
C591 C599 1.433 . S
C592 H588 0.929 . S
C592 C594 1.378 . S
C592 C596 1.350 . S
C593 C596 1.463 . S
C593 C598 1.350 . S
C593 N601 1.427 . S
C594 H585 0.930 . S
C594 C592 1.378 . S
C594 C595 1.367 . S
C595 C594 1.367 . S
C595 C597 1.433 . S
C596 C592 1.350 . S
C596 C593 1.463 . S
C596 N600 1.427 . S
C597 H587 0.929 1_565 S
C597 C595 1.433 . S
C597 N600 1.384 . S
C598 H589 0.929 . S
C598 C590 1.378 . S
C598 C593 1.350 . S
C599 H586 0.929 . S
C599 C591 1.433 . S
C599 N601 1.384 . S
N600 C596 1.427 . S
N600 C597 1.384 . S
N601 C593 1.427 . S
N601 C599 1.384 . S
H602 C608 0.930 . S
H603 C612 0.930 . S
H604 C617 0.929 . S
H605 C615 0.929 . S
H606 C610 0.929 . S
H607 C616 0.929 . S
C608 H602 0.930 . S
C608 C609 1.367 . S
C608 C616 1.378 . S
C609 C608 1.367 . S
C609 C617 1.433 . S
C610 H606 0.929 . S
C610 C612 1.378 . S
C610 C614 1.350 . S
C611 C614 1.463 . S
C611 C616 1.350 . S
C611 N619 1.427 . S
C612 H603 0.930 . S
C612 C610 1.378 . S
C612 C613 1.367 . S
C613 C612 1.367 . S
C613 C615 1.433 . S
C614 C610 1.350 . S
C614 C611 1.463 . S
C614 N618 1.427 . S
C615 H605 0.929 . S
C615 C613 1.433 . S
C615 N618 1.384 . S
C616 H607 0.929 . S
C616 C608 1.378 . S
C616 C611 1.350 . S
C617 H604 0.929 . S
C617 C609 1.433 . S
C617 N619 1.384 . S
N618 C614 1.427 . S
N618 C615 1.384 . S
N619 C611 1.427 . S
N619 C617 1.384 . S
H620 C626 0.930 . S
H621 C630 0.930 . S
H622 C635 0.929 . S
H623 C633 0.929 1_455 S
H624 C628 0.929 . S
H625 C634 0.929 . S
C626 H620 0.930 . S
C626 C627 1.367 . S
C626 C634 1.378 . S
C627 C626 1.367 . S
C627 C635 1.433 . S
C628 H624 0.929 . S
C628 C630 1.378 . S
C628 C632 1.350 . S
C629 C632 1.463 . S
C629 C634 1.350 . S
C629 N637 1.427 . S
C630 H621 0.930 . S
C630 C628 1.378 . S
C630 C631 1.367 . S
C631 C630 1.367 . S
C631 C633 1.433 . S
C632 C628 1.350 . S
C632 C629 1.463 . S
C632 N636 1.427 . S
C633 H623 0.929 1_655 S
C633 C631 1.433 . S
C633 N636 1.384 . S
C634 H625 0.929 . S
C634 C626 1.378 . S
C634 C629 1.350 . S
C635 H622 0.929 . S
C635 C627 1.433 . S
C635 N637 1.384 . S
N636 C632 1.427 . S
N636 C633 1.384 . S
N637 C629 1.427 . S
N637 C635 1.384 . S
H638 C644 0.930 . S
H639 C648 0.930 . S
H640 C653 0.929 . S
H641 C651 0.929 . S
H642 C646 0.929 . S
H643 C652 0.929 . S
C644 H638 0.930 . S
C644 C645 1.367 . S
C644 C652 1.378 . S
C645 C644 1.367 . S
C645 C653 1.433 . S
C646 H642 0.929 . S
C646 C648 1.378 . S
C646 C650 1.350 . S
C647 C650 1.463 . S
C647 C652 1.350 . S
C647 N655 1.427 . S
C648 H639 0.930 . S
C648 C646 1.378 . S
C648 C649 1.367 . S
C649 C648 1.367 . S
C649 C651 1.433 . S
C650 C646 1.350 . S
C650 C647 1.463 . S
C650 N654 1.427 . S
C651 H641 0.929 . S
C651 C649 1.433 . S
C651 N654 1.384 . S
C652 H643 0.929 . S
C652 C644 1.378 . S
C652 C647 1.350 . S
C653 H640 0.929 . S
C653 C645 1.433 . S
C653 N655 1.384 . S
N654 C650 1.427 . S
N654 C651 1.384 . S
N655 C647 1.427 . S
N655 C653 1.384 . S
H656 C662 0.930 . S
H657 C666 0.930 . S
H658 C671 0.929 . S
H659 C669 0.929 . S
H660 C664 0.929 . S
H661 C670 0.929 . S
C662 H656 0.930 . S
C662 C663 1.367 . S
C662 C670 1.378 . S
C663 C662 1.367 . S
C663 C671 1.433 . S
C664 H660 0.929 . S
C664 C666 1.378 . S
C664 C668 1.350 . S
C665 C668 1.463 . S
C665 C670 1.350 . S
C665 N673 1.427 . S
C666 H657 0.930 . S
C666 C664 1.378 . S
C666 C667 1.367 . S
C667 C666 1.367 . S
C667 C669 1.433 . S
C668 C664 1.350 . S
C668 C665 1.463 . S
C668 N672 1.427 . S
C669 H659 0.929 . S
C669 C667 1.433 . S
C669 N672 1.384 . S
C670 H661 0.929 . S
C670 C662 1.378 . S
C670 C665 1.350 . S
C671 H658 0.929 . S
C671 C663 1.433 . S
C671 N673 1.384 . S
N672 C668 1.427 . S
N672 C669 1.384 . S
N673 C665 1.427 . S
N673 C671 1.384 . S
H674 C680 0.930 . S
H675 C684 0.930 . S
H676 C689 0.929 . S
H677 C687 0.929 . S
H678 C682 0.929 . S
H679 C688 0.929 . S
C680 H674 0.930 . S
C680 C681 1.367 . S
C680 C688 1.378 . S
C681 C680 1.367 . S
C681 C689 1.433 . S
C682 H678 0.929 . S
C682 C684 1.378 . S
C682 C686 1.350 . S
C683 C686 1.463 . S
C683 C688 1.350 . S
C683 N691 1.427 . S
C684 H675 0.930 . S
C684 C682 1.378 . S
C684 C685 1.367 . S
C685 C684 1.367 . S
C685 C687 1.433 . S
C686 C682 1.350 . S
C686 C683 1.463 . S
C686 N690 1.427 . S
C687 H677 0.929 . S
C687 C685 1.433 . S
C687 N690 1.384 . S
C688 H679 0.929 . S
C688 C680 1.378 . S
C688 C683 1.350 . S
C689 H676 0.929 . S
C689 C681 1.433 . S
C689 N691 1.384 . S
N690 C686 1.427 . S
N690 C687 1.384 . S
N691 C683 1.427 . S
N691 C689 1.384 . S
H692 C698 0.930 . S
H693 C702 0.930 . S
H694 C707 0.929 . S
H695 C705 0.929 . S
H696 C700 0.929 . S
H697 C706 0.929 . S
C698 H692 0.930 . S
C698 C699 1.367 . S
C698 C706 1.378 . S
C699 C698 1.367 . S
C699 C707 1.433 . S
C700 H696 0.929 . S
C700 C702 1.378 . S
C700 C704 1.350 . S
C701 C704 1.463 . S
C701 C706 1.350 . S
C701 N709 1.427 . S
C702 H693 0.930 . S
C702 C700 1.378 . S
C702 C703 1.367 . S
C703 C702 1.367 . S
C703 C705 1.433 . S
C704 C700 1.350 . S
C704 C701 1.463 . S
C704 N708 1.427 . S
C705 H695 0.929 . S
C705 C703 1.433 . S
C705 N708 1.384 . S
C706 H697 0.929 . S
C706 C698 1.378 . S
C706 C701 1.350 . S
C707 H694 0.929 . S
C707 C699 1.433 . S
C707 N709 1.384 . S
N708 C704 1.427 . S
N708 C705 1.384 . S
N709 C701 1.427 . S
N709 C707 1.384 . S
H710 C716 0.930 . S
H711 C720 0.930 . S
H712 C725 0.929 . S
H713 C723 0.929 . S
H714 C718 0.929 . S
H715 C724 0.929 . S
C716 H710 0.930 . S
C716 C717 1.367 . S
C716 C724 1.378 . S
C717 C716 1.367 . S
C717 C725 1.433 . S
C718 H714 0.929 . S
C718 C720 1.378 . S
C718 C722 1.350 . S
C719 C722 1.463 . S
C719 C724 1.350 . S
C719 N727 1.427 . S
C720 H711 0.930 . S
C720 C718 1.378 . S
C720 C721 1.367 . S
C721 C720 1.367 . S
C721 C723 1.433 . S
C722 C718 1.350 . S
C722 C719 1.463 . S
C722 N726 1.427 . S
C723 H713 0.929 . S
C723 C721 1.433 . S
C723 N726 1.384 . S
C724 H715 0.929 . S
C724 C716 1.378 . S
C724 C719 1.350 . S
C725 H712 0.929 . S
C725 C717 1.433 . S
C725 N727 1.384 . S
N726 C722 1.427 . S
N726 C723 1.384 . S
N727 C719 1.427 . S
N727 C725 1.384 . S
H728 C734 0.930 . S
H729 C738 0.930 . S
H730 C743 0.929 . S
H731 C741 0.929 . S
H732 C736 0.929 . S
H733 C742 0.929 . S
C734 H728 0.930 . S
C734 C735 1.367 . S
C734 C742 1.378 . S
C735 C734 1.367 . S
C735 C743 1.433 . S
C736 H732 0.929 . S
C736 C738 1.378 . S
C736 C740 1.350 . S
C737 C740 1.463 . S
C737 C742 1.350 . S
C737 N745 1.427 . S
C738 H729 0.930 . S
C738 C736 1.378 . S
C738 C739 1.367 . S
C739 C738 1.367 . S
C739 C741 1.433 . S
C740 C736 1.350 . S
C740 C737 1.463 . S
C740 N744 1.427 . S
C741 H731 0.929 . S
C741 C739 1.433 . S
C741 N744 1.384 . S
C742 H733 0.929 . S
C742 C734 1.378 . S
C742 C737 1.350 . S
C743 H730 0.929 . S
C743 C735 1.433 . S
C743 N745 1.384 . S
N744 C740 1.427 . S
N744 C741 1.384 . S
N745 C737 1.427 . S
N745 C743 1.384 . S
H746 C752 0.930 . S
H747 C756 0.930 . S
H748 C761 0.929 . S
H749 C759 0.929 . S
H750 C754 0.929 . S
H751 C760 0.929 . S
C752 H746 0.930 . S
C752 C753 1.367 . S
C752 C760 1.378 . S
C753 C752 1.367 . S
C753 C761 1.433 . S
C754 H750 0.929 . S
C754 C756 1.378 . S
C754 C758 1.350 . S
C755 C758 1.463 . S
C755 C760 1.350 . S
C755 N763 1.427 . S
C756 H747 0.930 . S
C756 C754 1.378 . S
C756 C757 1.367 . S
C757 C756 1.367 . S
C757 C759 1.433 . S
C758 C754 1.350 . S
C758 C755 1.463 . S
C758 N762 1.427 . S
C759 H749 0.929 . S
C759 C757 1.433 . S
C759 N762 1.384 . S
C760 H751 0.929 . S
C760 C752 1.378 . S
C760 C755 1.350 . S
C761 H748 0.929 . S
C761 C753 1.433 . S
C761 N763 1.384 . S
N762 C758 1.427 . S
N762 C759 1.384 . S
N763 C755 1.427 . S
N763 C761 1.384 . S
H764 C770 0.930 . S
H765 C774 0.930 . S
H766 C779 0.929 . S
H767 C777 0.929 . S
H768 C772 0.929 . S
H769 C778 0.929 . S
C770 H764 0.930 . S
C770 C771 1.367 . S
C770 C778 1.378 . S
C771 C770 1.367 . S
C771 C779 1.433 . S
C772 H768 0.929 . S
C772 C774 1.378 . S
C772 C776 1.350 . S
C773 C776 1.463 . S
C773 C778 1.350 . S
C773 N781 1.427 . S
C774 H765 0.930 . S
C774 C772 1.378 . S
C774 C775 1.367 . S
C775 C774 1.367 . S
C775 C777 1.433 . S
C776 C772 1.350 . S
C776 C773 1.463 . S
C776 N780 1.427 . S
C777 H767 0.929 . S
C777 C775 1.433 . S
C777 N780 1.384 . S
C778 H769 0.929 . S
C778 C770 1.378 . S
C778 C773 1.350 . S
C779 H766 0.929 . S
C779 C771 1.433 . S
C779 N781 1.384 . S
N780 C776 1.427 . S
N780 C777 1.384 . S
N781 C773 1.427 . S
N781 C779 1.384 . S
H782 C788 0.930 . S
H783 C792 0.930 . S
H784 C797 0.929 . S
H785 C795 0.929 1_455 S
H786 C790 0.929 . S
H787 C796 0.929 . S
C788 H782 0.930 . S
C788 C789 1.367 . S
C788 C796 1.378 . S
C789 C788 1.367 . S
C789 C797 1.433 . S
C790 H786 0.929 . S
C790 C792 1.378 . S
C790 C794 1.350 . S
C791 C794 1.463 . S
C791 C796 1.350 . S
C791 N799 1.427 . S
C792 H783 0.930 . S
C792 C790 1.378 . S
C792 C793 1.367 . S
C793 C792 1.367 . S
C793 C795 1.433 . S
C794 C790 1.350 . S
C794 C791 1.463 . S
C794 N798 1.427 . S
C795 H785 0.929 1_655 S
C795 C793 1.433 . S
C795 N798 1.384 . S
C796 H787 0.929 . S
C796 C788 1.378 . S
C796 C791 1.350 . S
C797 H784 0.929 . S
C797 C789 1.433 . S
C797 N799 1.384 . S
N798 C794 1.427 . S
N798 C795 1.384 . S
N799 C791 1.427 . S
N799 C797 1.384 . S
H800 C806 0.930 . S
H801 C810 0.930 . S
H802 C815 0.929 . S
H803 C813 0.929 . S
H804 C808 0.929 . S
H805 C814 0.929 . S
C806 H800 0.930 . S
C806 C807 1.367 . S
C806 C814 1.378 . S
C807 C806 1.367 . S
C807 C815 1.433 . S
C808 H804 0.929 . S
C808 C810 1.378 . S
C808 C812 1.350 . S
C809 C812 1.463 . S
C809 C814 1.350 . S
C809 N817 1.427 . S
C810 H801 0.930 . S
C810 C808 1.378 . S
C810 C811 1.367 . S
C811 C810 1.367 . S
C811 C813 1.433 . S
C812 C808 1.350 . S
C812 C809 1.463 . S
C812 N816 1.427 . S
C813 H803 0.929 . S
C813 C811 1.433 . S
C813 N816 1.384 . S
C814 H805 0.929 . S
C814 C806 1.378 . S
C814 C809 1.350 . S
C815 H802 0.929 . S
C815 C807 1.433 . S
C815 N817 1.384 . S
N816 C812 1.427 . S
N816 C813 1.384 . S
N817 C809 1.427 . S
N817 C815 1.384 . S
H818 C824 0.930 . S
H819 C828 0.930 . S
H820 C833 0.929 . S
H821 C831 0.929 . S
H822 C826 0.929 . S
H823 C832 0.929 . S
C824 H818 0.930 . S
C824 C825 1.367 . S
C824 C832 1.378 . S
C825 C824 1.367 . S
C825 C833 1.433 . S
C826 H822 0.929 . S
C826 C828 1.378 . S
C826 C830 1.350 . S
C827 C830 1.463 . S
C827 C832 1.350 . S
C827 N835 1.427 . S
C828 H819 0.930 . S
C828 C826 1.378 . S
C828 C829 1.367 . S
C829 C828 1.367 . S
C829 C831 1.433 . S
C830 C826 1.350 . S
C830 C827 1.463 . S
C830 N834 1.427 . S
C831 H821 0.929 . S
C831 C829 1.433 . S
C831 N834 1.384 . S
C832 H823 0.929 . S
C832 C824 1.378 . S
C832 C827 1.350 . S
C833 H820 0.929 . S
C833 C825 1.433 . S
C833 N835 1.384 . S
N834 C830 1.427 . S
N834 C831 1.384 . S
N835 C827 1.427 . S
N835 C833 1.384 . S
H836 C842 0.930 . S
H837 C846 0.930 1_554 S
H838 C851 0.929 . S
H839 C849 0.929 . S
H840 C844 0.929 . S
H841 C850 0.929 . S
C842 H836 0.930 . S
C842 C843 1.367 . S
C842 C850 1.378 . S
C843 C842 1.367 . S
C843 C851 1.433 . S
C844 H840 0.929 . S
C844 C846 1.378 . S
C844 C848 1.350 . S
C845 C848 1.463 . S
C845 C850 1.350 . S
C845 N853 1.427 . S
C846 H837 0.930 1_556 S
C846 C844 1.378 . S
C846 C847 1.367 . S
C847 C846 1.367 . S
C847 C849 1.433 . S
C848 C844 1.350 . S
C848 C845 1.463 . S
C848 N852 1.427 . S
C849 H839 0.929 . S
C849 C847 1.433 . S
C849 N852 1.384 . S
C850 H841 0.929 . S
C850 C842 1.378 . S
C850 C845 1.350 . S
C851 H838 0.929 . S
C851 C843 1.433 . S
C851 N853 1.384 . S
N852 C848 1.427 . S
N852 C849 1.384 . S
N853 C845 1.427 . S
N853 C851 1.384 . S
H854 C860 0.930 . S
H855 C864 0.930 . S
H856 C869 0.929 . S
H857 C867 0.929 . S
H858 C862 0.929 . S
H859 C868 0.929 . S
C860 H854 0.930 . S
C860 C861 1.367 . S
C860 C868 1.378 . S
C861 C860 1.367 . S
C861 C869 1.433 . S
C862 H858 0.929 . S
C862 C864 1.378 . S
C862 C866 1.350 . S
C863 C866 1.463 . S
C863 C868 1.350 . S
C863 N871 1.427 . S
C864 H855 0.930 . S
C864 C862 1.378 . S
C864 C865 1.367 . S
C865 C864 1.367 . S
C865 C867 1.433 . S
C866 C862 1.350 . S
C866 C863 1.463 . S
C866 N870 1.427 . S
C867 H857 0.929 . S
C867 C865 1.433 . S
C867 N870 1.384 . S
C868 H859 0.929 . S
C868 C860 1.378 . S
C868 C863 1.350 . S
C869 H856 0.929 . S
C869 C861 1.433 . S
C869 N871 1.384 . S
N870 C866 1.427 . S
N870 C867 1.384 . S
N871 C863 1.427 . S
N871 C869 1.384 . S
H872 C878 0.930 . S
H873 C882 0.930 . S
H874 C887 0.929 . S
H875 C885 0.929 . S
H876 C880 0.929 . S
H877 C886 0.929 . S
C878 H872 0.930 . S
C878 C879 1.367 . S
C878 C886 1.378 . S
C879 C878 1.367 . S
C879 C887 1.433 . S
C880 H876 0.929 . S
C880 C882 1.378 . S
C880 C884 1.350 . S
C881 C884 1.463 . S
C881 C886 1.350 . S
C881 N889 1.427 . S
C882 H873 0.930 . S
C882 C880 1.378 . S
C882 C883 1.367 . S
C883 C882 1.367 . S
C883 C885 1.433 . S
C884 C880 1.350 . S
C884 C881 1.463 . S
C884 N888 1.427 . S
C885 H875 0.929 . S
C885 C883 1.433 . S
C885 N888 1.384 . S
C886 H877 0.929 . S
C886 C878 1.378 . S
C886 C881 1.350 . S
C887 H874 0.929 . S
C887 C879 1.433 . S
C887 N889 1.384 . S
N888 C884 1.427 . S
N888 C885 1.384 . S
N889 C881 1.427 . S
N889 C887 1.384 . S
H890 C896 0.930 . S
H891 C900 0.930 . S
H892 C905 0.929 . S
H893 C903 0.929 . S
H894 C898 0.929 . S
H895 C904 0.929 . S
C896 H890 0.930 . S
C896 C897 1.367 . S
C896 C904 1.378 . S
C897 C896 1.367 . S
C897 C905 1.433 . S
C898 H894 0.929 . S
C898 C900 1.378 . S
C898 C902 1.350 . S
C899 C902 1.463 . S
C899 C904 1.350 . S
C899 N907 1.427 . S
C900 H891 0.930 . S
C900 C898 1.378 . S
C900 C901 1.367 . S
C901 C900 1.367 . S
C901 C903 1.433 . S
C902 C898 1.350 . S
C902 C899 1.463 . S
C902 N906 1.427 . S
C903 H893 0.929 . S
C903 C901 1.433 . S
C903 N906 1.384 . S
C904 H895 0.929 . S
C904 C896 1.378 . S
C904 C899 1.350 . S
C905 H892 0.929 . S
C905 C897 1.433 . S
C905 N907 1.384 . S
N906 C902 1.427 . S
N906 C903 1.384 . S
N907 C899 1.427 . S
N907 C905 1.384 . S
H908 C914 0.930 . S
H909 C918 0.930 . S
H910 C923 0.929 . S
H911 C921 0.929 . S
H912 C916 0.929 . S
H913 C922 0.929 . S
C914 H908 0.930 . S
C914 C915 1.367 . S
C914 C922 1.378 . S
C915 C914 1.367 . S
C915 C923 1.433 . S
C916 H912 0.929 . S
C916 C918 1.378 . S
C916 C920 1.350 . S
C917 C920 1.463 . S
C917 C922 1.350 . S
C917 N925 1.427 . S
C918 H909 0.930 . S
C918 C916 1.378 . S
C918 C919 1.367 . S
C919 C918 1.367 . S
C919 C921 1.433 . S
C920 C916 1.350 . S
C920 C917 1.463 . S
C920 N924 1.427 . S
C921 H911 0.929 . S
C921 C919 1.433 . S
C921 N924 1.384 . S
C922 H913 0.929 . S
C922 C914 1.378 . S
C922 C917 1.350 . S
C923 H910 0.929 . S
C923 C915 1.433 . S
C923 N925 1.384 . S
N924 C920 1.427 . S
N924 C921 1.384 . S
N925 C917 1.427 . S
N925 C923 1.384 . S
H926 C932 0.930 . S
H927 C936 0.930 . S
H928 C941 0.929 . S
H929 C939 0.929 . S
H930 C934 0.929 . S
H931 C940 0.929 . S
C932 H926 0.930 . S
C932 C933 1.367 . S
C932 C940 1.378 . S
C933 C932 1.367 . S
C933 C941 1.433 . S
C934 H930 0.929 . S
C934 C936 1.378 . S
C934 C938 1.350 . S
C935 C938 1.463 . S
C935 C940 1.350 . S
C935 N943 1.427 . S
C936 H927 0.930 . S
C936 C934 1.378 . S
C936 C937 1.367 . S
C937 C936 1.367 . S
C937 C939 1.433 . S
C938 C934 1.350 . S
C938 C935 1.463 . S
C938 N942 1.427 . S
C939 H929 0.929 . S
C939 C937 1.433 . S
C939 N942 1.384 . S
C940 H931 0.929 . S
C940 C932 1.378 . S
C940 C935 1.350 . S
C941 H928 0.929 . S
C941 C933 1.433 . S
C941 N943 1.384 . S
N942 C938 1.427 . S
N942 C939 1.384 . S
N943 C935 1.427 . S
N943 C941 1.384 . S
H944 C950 0.930 . S
H945 C954 0.930 . S
H946 C959 0.929 . S
H947 C957 0.929 . S
H948 C952 0.929 . S
H949 C958 0.929 . S
C950 H944 0.930 . S
C950 C951 1.367 . S
C950 C958 1.378 . S
C951 C950 1.367 . S
C951 C959 1.433 . S
C952 H948 0.929 . S
C952 C954 1.378 . S
C952 C956 1.350 . S
C953 C956 1.463 . S
C953 C958 1.350 . S
C953 N961 1.427 . S
C954 H945 0.930 . S
C954 C952 1.378 . S
C954 C955 1.367 . S
C955 C954 1.367 . S
C955 C957 1.433 . S
C956 C952 1.350 . S
C956 C953 1.463 . S
C956 N960 1.427 . S
C957 H947 0.929 . S
C957 C955 1.433 . S
C957 N960 1.384 . S
C958 H949 0.929 . S
C958 C950 1.378 . S
C958 C953 1.350 . S
C959 H946 0.929 . S
C959 C951 1.433 . S
C959 N961 1.384 . S
N960 C956 1.427 . S
N960 C957 1.384 . S
N961 C953 1.427 . S
N961 C959 1.384 . S
H962 C968 0.930 . S
H963 C972 0.930 . S
H964 C977 0.929 . S
H965 C975 0.929 . S
H966 C970 0.929 . S
H967 C976 0.929 . S
C968 H962 0.930 . S
C968 C969 1.367 . S
C968 C976 1.378 . S
C969 C968 1.367 . S
C969 C977 1.433 . S
C970 H966 0.929 . S
C970 C972 1.378 . S
C970 C974 1.350 . S
C971 C974 1.463 . S
C971 C976 1.350 . S
C971 N979 1.427 . S
C972 H963 0.930 . S
C972 C970 1.378 . S
C972 C973 1.367 . S
C973 C972 1.367 . S
C973 C975 1.433 . S
C974 C970 1.350 . S
C974 C971 1.463 . S
C974 N978 1.427 . S
C975 H965 0.929 . S
C975 C973 1.433 . S
C975 N978 1.384 . S
C976 H967 0.929 . S
C976 C968 1.378 . S
C976 C971 1.350 . S
C977 H964 0.929 . S
C977 C969 1.433 . S
C977 N979 1.384 . S
N978 C974 1.427 . S
N978 C975 1.384 . S
N979 C971 1.427 . S
N979 C977 1.384 . S
H980 C986 0.930 . S
H981 C990 0.930 . S
H982 C995 0.929 . S
H983 C993 0.929 . S
H984 C988 0.929 . S
H985 C994 0.929 . S
C986 H980 0.930 . S
C986 C987 1.367 . S
C986 C994 1.378 . S
C987 C986 1.367 . S
C987 C995 1.433 . S
C988 H984 0.929 . S
C988 C990 1.378 . S
C988 C992 1.350 . S
C989 C992 1.463 . S
C989 C994 1.350 . S
C989 N997 1.427 . S
C990 H981 0.930 . S
C990 C988 1.378 . S
C990 C991 1.367 . S
C991 C990 1.367 . S
C991 C993 1.433 . S
C992 C988 1.350 . S
C992 C989 1.463 . S
C992 N996 1.427 . S
C993 H983 0.929 . S
C993 C991 1.433 . S
C993 N996 1.384 . S
C994 H985 0.929 . S
C994 C986 1.378 . S
C994 C989 1.350 . S
C995 H982 0.929 . S
C995 C987 1.433 . S
C995 N997 1.384 . S
N996 C992 1.427 . S
N996 C993 1.384 . S
N997 C989 1.427 . S
N997 C995 1.384 . S
H998 C1004 0.930 . S
H999 C1008 0.930 1_554 S
H1000 C1013 0.929 . S
H1001 C1011 0.929 . S
H1002 C1006 0.929 . S
H1003 C1012 0.929 . S
C1004 H998 0.930 . S
C1004 C1005 1.367 . S
C1004 C1012 1.378 . S
C1005 C1004 1.367 . S
C1005 C1013 1.433 . S
C1006 H1002 0.929 . S
C1006 C1008 1.378 . S
C1006 C1010 1.350 . S
C1007 C1010 1.463 . S
C1007 C1012 1.350 . S
C1007 N1015 1.427 . S
C1008 H999 0.930 1_556 S
C1008 C1006 1.378 . S
C1008 C1009 1.367 . S
C1009 C1008 1.367 . S
C1009 C1011 1.433 . S
C1010 C1006 1.350 . S
C1010 C1007 1.463 . S
C1010 N1014 1.427 . S
C1011 H1001 0.929 . S
C1011 C1009 1.433 . S
C1011 N1014 1.384 . S
C1012 H1003 0.929 . S
C1012 C1004 1.378 . S
C1012 C1007 1.350 . S
C1013 H1000 0.929 . S
C1013 C1005 1.433 . S
C1013 N1015 1.384 . S
N1014 C1010 1.427 . S
N1014 C1011 1.384 . S
N1015 C1007 1.427 . S
N1015 C1013 1.384 . S
H1016 C1022 0.930 . S
H1017 C1026 0.930 . S
H1018 C1031 0.929 . S
H1019 C1029 0.929 . S
H1020 C1024 0.929 . S
H1021 C1030 0.929 . S
C1022 H1016 0.930 . S
C1022 C1023 1.367 . S
C1022 C1030 1.378 . S
C1023 C1022 1.367 . S
C1023 C1031 1.433 . S
C1024 H1020 0.929 . S
C1024 C1026 1.378 . S
C1024 C1028 1.350 . S
C1025 C1028 1.463 . S
C1025 C1030 1.350 . S
C1025 N1033 1.427 . S
C1026 H1017 0.930 . S
C1026 C1024 1.378 . S
C1026 C1027 1.367 . S
C1027 C1026 1.367 . S
C1027 C1029 1.433 . S
C1028 C1024 1.350 . S
C1028 C1025 1.463 . S
C1028 N1032 1.427 . S
C1029 H1019 0.929 . S
C1029 C1027 1.433 . S
C1029 N1032 1.384 . S
C1030 H1021 0.929 . S
C1030 C1022 1.378 . S
C1030 C1025 1.350 . S
C1031 H1018 0.929 . S
C1031 C1023 1.433 . S
C1031 N1033 1.384 . S
N1032 C1028 1.427 . S
N1032 C1029 1.384 . S
N1033 C1025 1.427 . S
N1033 C1031 1.384 . S
H1034 C1040 0.930 . S
H1035 C1044 0.930 . S
H1036 C1049 0.929 . S
H1037 C1047 0.929 . S
H1038 C1042 0.929 . S
H1039 C1048 0.929 . S
C1040 H1034 0.930 . S
C1040 C1041 1.367 . S
C1040 C1048 1.378 . S
C1041 C1040 1.367 . S
C1041 C1049 1.433 . S
C1042 H1038 0.929 . S
C1042 C1044 1.378 . S
C1042 C1046 1.350 . S
C1043 C1046 1.463 . S
C1043 C1048 1.350 . S
C1043 N1051 1.427 . S
C1044 H1035 0.930 . S
C1044 C1042 1.378 . S
C1044 C1045 1.367 . S
C1045 C1044 1.367 . S
C1045 C1047 1.433 . S
C1046 C1042 1.350 . S
C1046 C1043 1.463 . S
C1046 N1050 1.427 . S
C1047 H1037 0.929 . S
C1047 C1045 1.433 . S
C1047 N1050 1.384 . S
C1048 H1039 0.929 . S
C1048 C1040 1.378 . S
C1048 C1043 1.350 . S
C1049 H1036 0.929 . S
C1049 C1041 1.433 . S
C1049 N1051 1.384 . S
N1050 C1046 1.427 . S
N1050 C1047 1.384 . S
N1051 C1043 1.427 . S
N1051 C1049 1.384 . S
H1052 C1058 0.930 . S
H1053 C1062 0.930 . S
H1054 C1067 0.929 . S
H1055 C1065 0.929 . S
H1056 C1060 0.929 . S
H1057 C1066 0.929 . S
C1058 H1052 0.930 . S
C1058 C1059 1.367 . S
C1058 C1066 1.378 . S
C1059 C1058 1.367 . S
C1059 C1067 1.433 . S
C1060 H1056 0.929 . S
C1060 C1062 1.378 . S
C1060 C1064 1.350 . S
C1061 C1064 1.463 . S
C1061 C1066 1.350 . S
C1061 N1069 1.427 . S
C1062 H1053 0.930 . S
C1062 C1060 1.378 . S
C1062 C1063 1.367 . S
C1063 C1062 1.367 . S
C1063 C1065 1.433 . S
C1064 C1060 1.350 . S
C1064 C1061 1.463 . S
C1064 N1068 1.427 . S
C1065 H1055 0.929 . S
C1065 C1063 1.433 . S
C1065 N1068 1.384 . S
C1066 H1057 0.929 . S
C1066 C1058 1.378 . S
C1066 C1061 1.350 . S
C1067 H1054 0.929 . S
C1067 C1059 1.433 . S
C1067 N1069 1.384 . S
N1068 C1064 1.427 . S
N1068 C1065 1.384 . S
N1069 C1061 1.427 . S
N1069 C1067 1.384 . S
H1070 C1076 0.930 . S
H1071 C1080 0.930 . S
H1072 C1085 0.929 . S
H1073 C1083 0.929 . S
H1074 C1078 0.929 . S
H1075 C1084 0.929 . S
C1076 H1070 0.930 . S
C1076 C1077 1.367 . S
C1076 C1084 1.378 . S
C1077 C1076 1.367 . S
C1077 C1085 1.433 . S
C1078 H1074 0.929 . S
C1078 C1080 1.378 . S
C1078 C1082 1.350 . S
C1079 C1082 1.463 . S
C1079 C1084 1.350 . S
C1079 N1087 1.427 . S
C1080 H1071 0.930 . S
C1080 C1078 1.378 . S
C1080 C1081 1.367 . S
C1081 C1080 1.367 . S
C1081 C1083 1.433 . S
C1082 C1078 1.350 . S
C1082 C1079 1.463 . S
C1082 N1086 1.427 . S
C1083 H1073 0.929 . S
C1083 C1081 1.433 . S
C1083 N1086 1.384 . S
C1084 H1075 0.929 . S
C1084 C1076 1.378 . S
C1084 C1079 1.350 . S
C1085 H1072 0.929 . S
C1085 C1077 1.433 . S
C1085 N1087 1.384 . S
N1086 C1082 1.427 . S
N1086 C1083 1.384 . S
N1087 C1079 1.427 . S
N1087 C1085 1.384 . S
H1088 C1094 0.930 . S
H1089 C1098 0.930 . S
H1090 C1103 0.929 . S
H1091 C1101 0.929 . S
H1092 C1096 0.929 . S
H1093 C1102 0.929 . S
C1094 H1088 0.930 . S
C1094 C1095 1.367 . S
C1094 C1102 1.378 . S
C1095 C1094 1.367 . S
C1095 C1103 1.433 . S
C1096 H1092 0.929 . S
C1096 C1098 1.378 . S
C1096 C1100 1.350 . S
C1097 C1100 1.463 . S
C1097 C1102 1.350 . S
C1097 N1105 1.427 . S
C1098 H1089 0.930 . S
C1098 C1096 1.378 . S
C1098 C1099 1.367 . S
C1099 C1098 1.367 . S
C1099 C1101 1.433 . S
C1100 C1096 1.350 . S
C1100 C1097 1.463 . S
C1100 N1104 1.427 . S
C1101 H1091 0.929 . S
C1101 C1099 1.433 . S
C1101 N1104 1.384 . S
C1102 H1093 0.929 . S
C1102 C1094 1.378 . S
C1102 C1097 1.350 . S
C1103 H1090 0.929 . S
C1103 C1095 1.433 . S
C1103 N1105 1.384 . S
N1104 C1100 1.427 . S
N1104 C1101 1.384 . S
N1105 C1097 1.427 . S
N1105 C1103 1.384 . S
H1106 C1112 0.930 . S
H1107 C1116 0.930 . S
H1108 C1121 0.929 . S
H1109 C1119 0.929 . S
H1110 C1114 0.929 . S
H1111 C1120 0.929 . S
C1112 H1106 0.930 . S
C1112 C1113 1.367 . S
C1112 C1120 1.378 . S
C1113 C1112 1.367 . S
C1113 C1121 1.433 . S
C1114 H1110 0.929 . S
C1114 C1116 1.378 . S
C1114 C1118 1.350 . S
C1115 C1118 1.463 . S
C1115 C1120 1.350 . S
C1115 N1123 1.427 . S
C1116 H1107 0.930 . S
C1116 C1114 1.378 . S
C1116 C1117 1.367 . S
C1117 C1116 1.367 . S
C1117 C1119 1.433 . S
C1118 C1114 1.350 . S
C1118 C1115 1.463 . S
C1118 N1122 1.427 . S
C1119 H1109 0.929 . S
C1119 C1117 1.433 . S
C1119 N1122 1.384 . S
C1120 H1111 0.929 . S
C1120 C1112 1.378 . S
C1120 C1115 1.350 . S
C1121 H1108 0.929 . S
C1121 C1113 1.433 . S
C1121 N1123 1.384 . S
N1122 C1118 1.427 . S
N1122 C1119 1.384 . S
N1123 C1115 1.427 . S
N1123 C1121 1.384 . S
H1124 C1130 0.930 . S
H1125 C1134 0.930 . S
H1126 C1139 0.929 . S
H1127 C1137 0.929 . S
H1128 C1132 0.929 . S
H1129 C1138 0.929 . S
C1130 H1124 0.930 . S
C1130 C1131 1.367 . S
C1130 C1138 1.378 . S
C1131 C1130 1.367 . S
C1131 C1139 1.433 . S
C1132 H1128 0.929 . S
C1132 C1134 1.378 . S
C1132 C1136 1.350 . S
C1133 C1136 1.463 . S
C1133 C1138 1.350 . S
C1133 N1141 1.427 . S
C1134 H1125 0.930 . S
C1134 C1132 1.378 . S
C1134 C1135 1.367 . S
C1135 C1134 1.367 . S
C1135 C1137 1.433 . S
C1136 C1132 1.350 . S
C1136 C1133 1.463 . S
C1136 N1140 1.427 . S
C1137 H1127 0.929 . S
C1137 C1135 1.433 . S
C1137 N1140 1.384 . S
C1138 H1129 0.929 . S
C1138 C1130 1.378 . S
C1138 C1133 1.350 . S
C1139 H1126 0.929 . S
C1139 C1131 1.433 . S
C1139 N1141 1.384 . S
N1140 C1136 1.427 . S
N1140 C1137 1.384 . S
N1141 C1133 1.427 . S
N1141 C1139 1.384 . S
H1142 C1148 0.930 . S
H1143 C1152 0.930 . S
H1144 C1157 0.929 . S
H1145 C1155 0.929 . S
H1146 C1150 0.929 . S
H1147 C1156 0.929 . S
C1148 H1142 0.930 . S
C1148 C1149 1.367 . S
C1148 C1156 1.378 . S
C1149 C1148 1.367 . S
C1149 C1157 1.433 . S
C1150 H1146 0.929 . S
C1150 C1152 1.378 . S
C1150 C1154 1.350 . S
C1151 C1154 1.463 . S
C1151 C1156 1.350 . S
C1151 N1159 1.427 . S
C1152 H1143 0.930 . S
C1152 C1150 1.378 . S
C1152 C1153 1.367 . S
C1153 C1152 1.367 . S
C1153 C1155 1.433 . S
C1154 C1150 1.350 . S
C1154 C1151 1.463 . S
C1154 N1158 1.427 . S
C1155 H1145 0.929 . S
C1155 C1153 1.433 . S
C1155 N1158 1.384 . S
C1156 H1147 0.929 . S
C1156 C1148 1.378 . S
C1156 C1151 1.350 . S
C1157 H1144 0.929 . S
C1157 C1149 1.433 . S
C1157 N1159 1.384 . S
N1158 C1154 1.427 . S
N1158 C1155 1.384 . S
N1159 C1151 1.427 . S
N1159 C1157 1.384 . S
H1160 C1166 0.930 . S
H1161 C1170 0.930 . S
H1162 C1175 0.929 . S
H1163 C1173 0.929 . S
H1164 C1168 0.929 . S
H1165 C1174 0.929 . S
C1166 H1160 0.930 . S
C1166 C1167 1.367 . S
C1166 C1174 1.378 . S
C1167 C1166 1.367 . S
C1167 C1175 1.433 . S
C1168 H1164 0.929 . S
C1168 C1170 1.378 . S
C1168 C1172 1.350 . S
C1169 C1172 1.463 . S
C1169 C1174 1.350 . S
C1169 N1177 1.427 . S
C1170 H1161 0.930 . S
C1170 C1168 1.378 . S
C1170 C1171 1.367 . S
C1171 C1170 1.367 . S
C1171 C1173 1.433 . S
C1172 C1168 1.350 . S
C1172 C1169 1.463 . S
C1172 N1176 1.427 . S
C1173 H1163 0.929 . S
C1173 C1171 1.433 . S
C1173 N1176 1.384 . S
C1174 H1165 0.929 . S
C1174 C1166 1.378 . S
C1174 C1169 1.350 . S
C1175 H1162 0.929 . S
C1175 C1167 1.433 . S
C1175 N1177 1.384 . S
N1176 C1172 1.427 . S
N1176 C1173 1.384 . S
N1177 C1169 1.427 . S
N1177 C1175 1.384 . S
H1178 C1184 0.930 . S
H1179 C1188 0.930 1_545 S
H1180 C1193 0.929 . S
H1181 C1191 0.929 . S
H1182 C1186 0.929 . S
H1183 C1192 0.929 . S
C1184 H1178 0.930 . S
C1184 C1185 1.367 . S
C1184 C1192 1.378 . S
C1185 C1184 1.367 . S
C1185 C1193 1.433 . S
C1186 H1182 0.929 . S
C1186 C1188 1.378 . S
C1186 C1190 1.350 . S
C1187 C1190 1.463 . S
C1187 C1192 1.350 . S
C1187 N1195 1.427 . S
C1188 H1179 0.930 1_565 S
C1188 C1186 1.378 . S
C1188 C1189 1.367 . S
C1189 C1188 1.367 . S
C1189 C1191 1.433 . S
C1190 C1186 1.350 . S
C1190 C1187 1.463 . S
C1190 N1194 1.427 . S
C1191 H1181 0.929 . S
C1191 C1189 1.433 . S
C1191 N1194 1.384 . S
C1192 H1183 0.929 . S
C1192 C1184 1.378 . S
C1192 C1187 1.350 . S
C1193 H1180 0.929 . S
C1193 C1185 1.433 . S
C1193 N1195 1.384 . S
N1194 C1190 1.427 . S
N1194 C1191 1.384 . S
N1195 C1187 1.427 . S
N1195 C1193 1.384 . S
H1196 C1202 0.930 . S
H1197 C1206 0.930 . S
H1198 C1211 0.929 . S
H1199 C1209 0.929 . S
H1200 C1204 0.929 . S
H1201 C1210 0.929 . S
C1202 H1196 0.930 . S
C1202 C1203 1.367 . S
C1202 C1210 1.378 . S
C1203 C1202 1.367 . S
C1203 C1211 1.433 . S
C1204 H1200 0.929 . S
C1204 C1206 1.378 . S
C1204 C1208 1.350 . S
C1205 C1208 1.463 . S
C1205 C1210 1.350 . S
C1205 N1213 1.427 . S
C1206 H1197 0.930 . S
C1206 C1204 1.378 . S
C1206 C1207 1.367 . S
C1207 C1206 1.367 . S
C1207 C1209 1.433 . S
C1208 C1204 1.350 . S
C1208 C1205 1.463 . S
C1208 N1212 1.427 . S
C1209 H1199 0.929 . S
C1209 C1207 1.433 . S
C1209 N1212 1.384 . S
C1210 H1201 0.929 . S
C1210 C1202 1.378 . S
C1210 C1205 1.350 . S
C1211 H1198 0.929 . S
C1211 C1203 1.433 . S
C1211 N1213 1.384 . S
N1212 C1208 1.427 . S
N1212 C1209 1.384 . S
N1213 C1205 1.427 . S
N1213 C1211 1.384 . S
H1214 C1220 0.930 . S
H1215 C1224 0.930 . S
H1216 C1229 0.929 . S
H1217 C1227 0.929 . S
H1218 C1222 0.929 . S
H1219 C1228 0.929 . S
C1220 H1214 0.930 . S
C1220 C1221 1.367 . S
C1220 C1228 1.378 . S
C1221 C1220 1.367 . S
C1221 C1229 1.433 . S
C1222 H1218 0.929 . S
C1222 C1224 1.378 . S
C1222 C1226 1.350 . S
C1223 C1226 1.463 . S
C1223 C1228 1.350 . S
C1223 N1231 1.427 . S
C1224 H1215 0.930 . S
C1224 C1222 1.378 . S
C1224 C1225 1.367 . S
C1225 C1224 1.367 . S
C1225 C1227 1.433 . S
C1226 C1222 1.350 . S
C1226 C1223 1.463 . S
C1226 N1230 1.427 . S
C1227 H1217 0.929 . S
C1227 C1225 1.433 . S
C1227 N1230 1.384 . S
C1228 H1219 0.929 . S
C1228 C1220 1.378 . S
C1228 C1223 1.350 . S
C1229 H1216 0.929 . S
C1229 C1221 1.433 . S
C1229 N1231 1.384 . S
N1230 C1226 1.427 . S
N1230 C1227 1.384 . S
N1231 C1223 1.427 . S
N1231 C1229 1.384 . S
H1232 C1238 0.930 . S
H1233 C1242 0.924 1_545 S
H1234 C1247 0.929 . S
H1235 C1245 0.929 . S
H1236 C1240 0.929 . S
H1237 C1246 0.929 . S
C1238 H1232 0.930 . S
C1238 C1239 1.367 . S
C1238 C1246 1.378 . S
C1239 C1238 1.367 . S
C1239 C1247 1.433 . S
C1240 H1236 0.929 . S
C1240 C1242 1.378 . S
C1240 C1244 1.350 . S
C1241 C1244 1.463 . S
C1241 C1246 1.350 . S
C1241 N1249 1.427 . S
C1242 H1233 0.924 1_565 S
C1242 C1240 1.378 . S
C1242 C1243 1.367 . S
C1243 C1242 1.367 . S
C1243 C1245 1.433 . S
C1244 C1240 1.350 . S
C1244 C1241 1.463 . S
C1244 N1248 1.427 . S
C1245 H1235 0.929 . S
C1245 C1243 1.433 . S
C1245 N1248 1.384 . S
C1246 H1237 0.929 . S
C1246 C1238 1.378 . S
C1246 C1241 1.350 . S
C1247 H1234 0.929 . S
C1247 C1239 1.433 . S
C1247 N1249 1.384 . S
N1248 C1244 1.427 . S
N1248 C1245 1.384 . S
N1249 C1241 1.427 . S
N1249 C1247 1.384 . S
H1250 C1256 0.930 . S
H1251 C1260 0.930 . S
H1252 C1265 0.929 . S
H1253 C1263 0.929 . S
H1254 C1258 0.929 . S
H1255 C1264 0.929 . S
C1256 H1250 0.930 . S
C1256 C1257 1.367 . S
C1256 C1264 1.378 . S
C1257 C1256 1.367 . S
C1257 C1265 1.433 . S
C1258 H1254 0.929 . S
C1258 C1260 1.378 . S
C1258 C1262 1.350 . S
C1259 C1262 1.463 . S
C1259 C1264 1.350 . S
C1259 N1267 1.427 . S
C1260 H1251 0.930 . S
C1260 C1258 1.378 . S
C1260 C1261 1.367 . S
C1261 C1260 1.367 . S
C1261 C1263 1.433 . S
C1262 C1258 1.350 . S
C1262 C1259 1.463 . S
C1262 N1266 1.427 . S
C1263 H1253 0.929 . S
C1263 C1261 1.433 . S
C1263 N1266 1.384 . S
C1264 H1255 0.929 . S
C1264 C1256 1.378 . S
C1264 C1259 1.350 . S
C1265 H1252 0.929 . S
C1265 C1257 1.433 . S
C1265 N1267 1.384 . S
N1266 C1262 1.427 . S
N1266 C1263 1.384 . S
N1267 C1259 1.427 . S
N1267 C1265 1.384 . S
H1268 C1274 0.930 . S
H1269 C1278 0.930 . S
H1270 C1283 0.929 . S
H1271 C1281 0.929 . S
H1272 C1276 0.929 . S
H1273 C1282 0.929 . S
C1274 H1268 0.930 . S
C1274 C1275 1.367 . S
C1274 C1282 1.378 . S
C1275 C1274 1.367 . S
C1275 C1283 1.433 . S
C1276 H1272 0.929 . S
C1276 C1278 1.378 . S
C1276 C1280 1.350 . S
C1277 C1280 1.463 . S
C1277 C1282 1.350 . S
C1277 N1285 1.427 . S
C1278 H1269 0.930 . S
C1278 C1276 1.378 . S
C1278 C1279 1.367 . S
C1279 C1278 1.367 . S
C1279 C1281 1.433 . S
C1280 C1276 1.350 . S
C1280 C1277 1.463 . S
C1280 N1284 1.427 . S
C1281 H1271 0.929 . S
C1281 C1279 1.433 . S
C1281 N1284 1.384 . S
C1282 H1273 0.929 . S
C1282 C1274 1.378 . S
C1282 C1277 1.350 . S
C1283 H1270 0.929 . S
C1283 C1275 1.433 . S
C1283 N1285 1.384 . S
N1284 C1280 1.427 . S
N1284 C1281 1.384 . S
N1285 C1277 1.427 . S
N1285 C1283 1.384 . S
H1286 C1292 0.930 . S
H1287 C1296 0.930 . S
H1288 C1301 0.929 . S
H1289 C1299 0.929 . S
H1290 C1294 0.929 . S
H1291 C1300 0.929 . S
C1292 H1286 0.930 . S
C1292 C1293 1.367 . S
C1292 C1300 1.378 . S
C1293 C1292 1.367 . S
C1293 C1301 1.433 . S
C1294 H1290 0.929 . S
C1294 C1296 1.378 . S
C1294 C1298 1.350 . S
C1295 C1298 1.463 . S
C1295 C1300 1.350 . S
C1295 N1303 1.427 . S
C1296 H1287 0.930 . S
C1296 C1294 1.378 . S
C1296 C1297 1.367 . S
C1297 C1296 1.367 . S
C1297 C1299 1.433 . S
C1298 C1294 1.350 . S
C1298 C1295 1.463 . S
C1298 N1302 1.427 . S
C1299 H1289 0.929 . S
C1299 C1297 1.433 . S
C1299 N1302 1.384 . S
C1300 H1291 0.929 . S
C1300 C1292 1.378 . S
C1300 C1295 1.350 . S
C1301 H1288 0.929 . S
C1301 C1293 1.433 . S
C1301 N1303 1.384 . S
N1302 C1298 1.427 . S
N1302 C1299 1.384 . S
N1303 C1295 1.427 . S
N1303 C1301 1.384 . S
H1304 C1310 0.930 . S
H1305 C1314 0.930 . S
H1306 C1319 0.929 . S
H1307 C1317 0.929 . S
H1308 C1312 0.929 . S
H1309 C1318 0.929 . S
C1310 H1304 0.930 . S
C1310 C1311 1.367 . S
C1310 C1318 1.378 . S
C1311 C1310 1.367 . S
C1311 C1319 1.433 . S
C1312 H1308 0.929 . S
C1312 C1314 1.378 . S
C1312 C1316 1.350 . S
C1313 C1316 1.463 . S
C1313 C1318 1.350 . S
C1313 N1321 1.427 . S
C1314 H1305 0.930 . S
C1314 C1312 1.378 . S
C1314 C1315 1.367 . S
C1315 C1314 1.367 . S
C1315 C1317 1.433 . S
C1316 C1312 1.350 . S
C1316 C1313 1.463 . S
C1316 N1320 1.427 . S
C1317 H1307 0.929 . S
C1317 C1315 1.433 . S
C1317 N1320 1.384 . S
C1318 H1309 0.929 . S
C1318 C1310 1.378 . S
C1318 C1313 1.350 . S
C1319 H1306 0.929 . S
C1319 C1311 1.433 . S
C1319 N1321 1.384 . S
N1320 C1316 1.427 . S
N1320 C1317 1.384 . S
N1321 C1313 1.427 . S
N1321 C1319 1.384 . S
H1322 C1328 0.930 . S
H1323 C1332 0.930 . S
H1324 C1337 0.929 . S
H1325 C1335 0.929 . S
H1326 C1330 0.929 . S
H1327 C1336 0.929 . S
C1328 H1322 0.930 . S
C1328 C1329 1.367 . S
C1328 C1336 1.378 . S
C1329 C1328 1.367 . S
C1329 C1337 1.433 . S
C1330 H1326 0.929 . S
C1330 C1332 1.378 . S
C1330 C1334 1.350 . S
C1331 C1334 1.463 . S
C1331 C1336 1.350 . S
C1331 N1339 1.427 . S
C1332 H1323 0.930 . S
C1332 C1330 1.378 . S
C1332 C1333 1.367 . S
C1333 C1332 1.367 . S
C1333 C1335 1.433 . S
C1334 C1330 1.350 . S
C1334 C1331 1.463 . S
C1334 N1338 1.427 . S
C1335 H1325 0.929 . S
C1335 C1333 1.433 . S
C1335 N1338 1.384 . S
C1336 H1327 0.929 . S
C1336 C1328 1.378 . S
C1336 C1331 1.350 . S
C1337 H1324 0.929 . S
C1337 C1329 1.433 . S
C1337 N1339 1.384 . S
N1338 C1334 1.427 . S
N1338 C1335 1.384 . S
N1339 C1331 1.427 . S
N1339 C1337 1.384 . S
H1340 C1346 0.930 . S
H1341 C1350 0.930 . S
H1342 C1355 0.929 . S
H1343 C1353 0.929 . S
H1344 C1348 0.929 . S
H1345 C1354 0.929 . S
C1346 H1340 0.930 . S
C1346 C1347 1.367 . S
C1346 C1354 1.378 . S
C1347 C1346 1.367 . S
C1347 C1355 1.433 . S
C1348 H1344 0.929 . S
C1348 C1350 1.378 . S
C1348 C1352 1.350 . S
C1349 C1352 1.463 . S
C1349 C1354 1.350 . S
C1349 N1357 1.427 . S
C1350 H1341 0.930 . S
C1350 C1348 1.378 . S
C1350 C1351 1.367 . S
C1351 C1350 1.367 . S
C1351 C1353 1.433 . S
C1352 C1348 1.350 . S
C1352 C1349 1.463 . S
C1352 N1356 1.427 . S
C1353 H1343 0.929 . S
C1353 C1351 1.433 . S
C1353 N1356 1.384 . S
C1354 H1345 0.929 . S
C1354 C1346 1.378 . S
C1354 C1349 1.350 . S
C1355 H1342 0.929 . S
C1355 C1347 1.433 . S
C1355 N1357 1.384 . S
N1356 C1352 1.427 . S
N1356 C1353 1.384 . S
N1357 C1349 1.427 . S
N1357 C1355 1.384 . S
H1358 C1364 0.930 . S
H1359 C1368 0.930 . S
H1360 C1373 0.929 . S
H1361 C1371 0.929 . S
H1362 C1366 0.929 . S
H1363 C1372 0.929 . S
C1364 H1358 0.930 . S
C1364 C1365 1.367 . S
C1364 C1372 1.378 . S
C1365 C1364 1.367 . S
C1365 C1373 1.433 . S
C1366 H1362 0.929 . S
C1366 C1368 1.378 . S
C1366 C1370 1.350 . S
C1367 C1370 1.463 . S
C1367 C1372 1.350 . S
C1367 N1375 1.427 . S
C1368 H1359 0.930 . S
C1368 C1366 1.378 . S
C1368 C1369 1.367 . S
C1369 C1368 1.367 . S
C1369 C1371 1.433 . S
C1370 C1366 1.350 . S
C1370 C1367 1.463 . S
C1370 N1374 1.427 . S
C1371 H1361 0.929 . S
C1371 C1369 1.433 . S
C1371 N1374 1.384 . S
C1372 H1363 0.929 . S
C1372 C1364 1.378 . S
C1372 C1367 1.350 . S
C1373 H1360 0.929 . S
C1373 C1365 1.433 . S
C1373 N1375 1.384 . S
N1374 C1370 1.427 . S
N1374 C1371 1.384 . S
N1375 C1367 1.427 . S
N1375 C1373 1.384 . S
C523 C337 1.910 . S
C519 C3 1.922 . S
C541 C342 0.832 . S
C537 C49 0.831 . S
C559 C343 1.413 . S
C555 C95 1.411 . S
C573 C146 0.438 . S
C577 C347 0.421 . S
C591 C186 0.968 . S
C595 C350 0.953 . S
C613 C351 1.404 . S
C609 C215 1.408 . S
C627 C249 0.487 . S
C631 C328 0.534 . S
C645 C302 1.911 . S
C649 C344 1.917 . S
C667 C382 3.100 . S
C663 C2 3.231 . S
C681 C43 2.135 . S
C685 C408 2.118 . S
C703 C360 3.104 . S
C699 C102 3.156 . S
C721 C415 1.691 . S
C717 C135 1.711 . S
C735 C175 1.694 . S
C739 C369 1.681 . S
C757 C411 2.107 . S
C753 C222 2.175 . S
C771 C243 2.162 . S
C775 C375 2.137 . S
C789 C306 1.274 . S
C793 C406 1.192 . S
C807 C9 0.770 . S
C811 C414 0.759 . S
C825 C182 1.673 . S
C829 C401 1.626 . S
C847 C379 1.441 . S
C843 C226 1.469 . S
C865 C407 1.060 . S
C861 C242 1.074 . S
C879 C295 2.771 . S
C883 C374 2.707 . S
C897 C106 0.726 . S
C901 C392 0.740 . S
C919 C383 1.638 . S
C915 C142 1.675 . S
C933 C42 1.101 . S
C937 C376 1.098 . S
C951 C283 1.888 . S
C955 C438 1.836 . S
C969 C169 0.928 . S
C973 C433 0.899 . S
C991 C447 1.312 . S
C987 C202 1.386 . S
C1009 C424 0.161 . S
C1005 C266 0.455 . S
C1023 C66 0.800 . S
C1027 C440 0.783 . S
C1045 C439 1.329 . S
C1041 C82 1.381 . S
C1059 C129 0.454 . S
C1063 C443 0.216 . S
C1077 C22 1.890 . S
C1081 C446 1.833 . S
C1095 C282 2.785 . S
C1099 C472 2.742 . S
C1117 C488 1.596 . S
C1113 C163 1.682 . S
C1131 C209 1.477 . S
C1135 C470 1.456 . S
C1149 C255 1.078 . S
C1153 C503 1.082 . S
C1171 C479 1.061 . S
C1167 C55 1.087 . S
C1185 C89 0.749 . S
C1189 C497 0.762 . S
C1207 C475 1.599 . S
C1203 C123 1.651 . S
C1225 C510 0.794 . S
C1221 C26 0.796 . S
C1243 C502 1.314 . S
C1239 C289 1.300 . S
C1257 C62 2.138 . S
C1261 C507 2.065 . S
C1275 C83 3.171 . S
C1279 C478 3.124 . S
C1297 C511 1.639 . S
C1293 C122 1.718 . S
C1311 C15 3.243 . S
C1315 C465 3.202 . S
C1329 C203 2.207 . S
C1333 C504 2.150 . S
C1351 C456 2.014 . S
C1347 C262 2.135 . S
C1369 C471 1.645 . S
C1365 C162 1.680 . S
