# Generated by pormake.
# Topology ocu, (6,8)-cn, num edge types: 1
# Building blocks:
#     Node 0, Type 0, BuildingBlock: KUMJIN_clean_sbu_0, # of connection points: 6
#     Node 1, Type 0, BuildingBlock: KUMJIN_clean_sbu_0, # of connection points: 6
#     Node 2, Type 0, BuildingBlock: KUMJIN_clean_sbu_0, # of connection points: 6
#     Node 3, Type 0, BuildingBlock: KUMJIN_clean_sbu_0, # of connection points: 6
#     Node 4, Type 0, BuildingBlock: KUMJIN_clean_sbu_0, # of connection points: 6
#     Node 5, Type 0, BuildingBlock: KUMJIN_clean_sbu_0, # of connection points: 6
#     Node 6, Type 0, BuildingBlock: KUMJIN_clean_sbu_0, # of connection points: 6
#     Node 7, Type 0, BuildingBlock: KUMJIN_clean_sbu_0, # of connection points: 6
#     Node 8, Type 1, BuildingBlock: TAGTUT_clean_sbu_1, # of connection points: 8
#     Node 9, Type 1, BuildingBlock: TAGTUT_clean_sbu_1, # of connection points: 8
#     Node 10, Type 1, BuildingBlock: TAGTUT_clean_sbu_1, # of connection points: 8
#     Node 11, Type 1, BuildingBlock: TAGTUT_clean_sbu_1, # of connection points: 8
#     Node 12, Type 1, BuildingBlock: TAGTUT_clean_sbu_1, # of connection points: 8
#     Node 13, Type 1, BuildingBlock: TAGTUT_clean_sbu_1, # of connection points: 8
#     Edge 14, Type (0, 1), BuildingBlock: MIFKUJ_clean_linker_0, # of connection points: 2
#     Edge 15, Type (0, 1), BuildingBlock: MIFKUJ_clean_linker_0, # of connection points: 2
#     Edge 16, Type (0, 1), BuildingBlock: MIFKUJ_clean_linker_0, # of connection points: 2
#     Edge 17, Type (0, 1), BuildingBlock: MIFKUJ_clean_linker_0, # of connection points: 2
#     Edge 18, Type (0, 1), BuildingBlock: MIFKUJ_clean_linker_0, # of connection points: 2
#     Edge 19, Type (0, 1), BuildingBlock: MIFKUJ_clean_linker_0, # of connection points: 2
#     Edge 20, Type (0, 1), BuildingBlock: MIFKUJ_clean_linker_0, # of connection points: 2
#     Edge 21, Type (0, 1), BuildingBlock: MIFKUJ_clean_linker_0, # of connection points: 2
#     Edge 22, Type (0, 1), BuildingBlock: MIFKUJ_clean_linker_0, # of connection points: 2
#     Edge 23, Type (0, 1), BuildingBlock: MIFKUJ_clean_linker_0, # of connection points: 2
#     Edge 24, Type (0, 1), BuildingBlock: MIFKUJ_clean_linker_0, # of connection points: 2
#     Edge 25, Type (0, 1), BuildingBlock: MIFKUJ_clean_linker_0, # of connection points: 2
#     Edge 26, Type (0, 1), BuildingBlock: MIFKUJ_clean_linker_0, # of connection points: 2
#     Edge 27, Type (0, 1), BuildingBlock: MIFKUJ_clean_linker_0, # of connection points: 2
#     Edge 28, Type (0, 1), BuildingBlock: MIFKUJ_clean_linker_0, # of connection points: 2
#     Edge 29, Type (0, 1), BuildingBlock: MIFKUJ_clean_linker_0, # of connection points: 2
#     Edge 30, Type (0, 1), BuildingBlock: MIFKUJ_clean_linker_0, # of connection points: 2
#     Edge 31, Type (0, 1), BuildingBlock: MIFKUJ_clean_linker_0, # of connection points: 2
#     Edge 32, Type (0, 1), BuildingBlock: MIFKUJ_clean_linker_0, # of connection points: 2
#     Edge 33, Type (0, 1), BuildingBlock: MIFKUJ_clean_linker_0, # of connection points: 2
#     Edge 34, Type (0, 1), BuildingBlock: MIFKUJ_clean_linker_0, # of connection points: 2
#     Edge 35, Type (0, 1), BuildingBlock: MIFKUJ_clean_linker_0, # of connection points: 2
#     Edge 36, Type (0, 1), BuildingBlock: MIFKUJ_clean_linker_0, # of connection points: 2
#     Edge 37, Type (0, 1), BuildingBlock: MIFKUJ_clean_linker_0, # of connection points: 2
#     Edge 38, Type (0, 1), BuildingBlock: MIFKUJ_clean_linker_0, # of connection points: 2
#     Edge 39, Type (0, 1), BuildingBlock: MIFKUJ_clean_linker_0, # of connection points: 2
#     Edge 40, Type (0, 1), BuildingBlock: MIFKUJ_clean_linker_0, # of connection points: 2
#     Edge 41, Type (0, 1), BuildingBlock: MIFKUJ_clean_linker_0, # of connection points: 2
#     Edge 42, Type (0, 1), BuildingBlock: MIFKUJ_clean_linker_0, # of connection points: 2
#     Edge 43, Type (0, 1), BuildingBlock: MIFKUJ_clean_linker_0, # of connection points: 2
#     Edge 44, Type (0, 1), BuildingBlock: MIFKUJ_clean_linker_0, # of connection points: 2
#     Edge 45, Type (0, 1), BuildingBlock: MIFKUJ_clean_linker_0, # of connection points: 2
#     Edge 46, Type (0, 1), BuildingBlock: MIFKUJ_clean_linker_0, # of connection points: 2
#     Edge 47, Type (0, 1), BuildingBlock: MIFKUJ_clean_linker_0, # of connection points: 2
#     Edge 48, Type (0, 1), BuildingBlock: MIFKUJ_clean_linker_0, # of connection points: 2
#     Edge 49, Type (0, 1), BuildingBlock: MIFKUJ_clean_linker_0, # of connection points: 2
#     Edge 50, Type (0, 1), BuildingBlock: MIFKUJ_clean_linker_0, # of connection points: 2
#     Edge 51, Type (0, 1), BuildingBlock: MIFKUJ_clean_linker_0, # of connection points: 2
#     Edge 52, Type (0, 1), BuildingBlock: MIFKUJ_clean_linker_0, # of connection points: 2
#     Edge 53, Type (0, 1), BuildingBlock: MIFKUJ_clean_linker_0, # of connection points: 2
#     Edge 54, Type (0, 1), BuildingBlock: MIFKUJ_clean_linker_0, # of connection points: 2
#     Edge 55, Type (0, 1), BuildingBlock: MIFKUJ_clean_linker_0, # of connection points: 2
#     Edge 56, Type (0, 1), BuildingBlock: MIFKUJ_clean_linker_0, # of connection points: 2
#     Edge 57, Type (0, 1), BuildingBlock: MIFKUJ_clean_linker_0, # of connection points: 2
#     Edge 58, Type (0, 1), BuildingBlock: MIFKUJ_clean_linker_0, # of connection points: 2
#     Edge 59, Type (0, 1), BuildingBlock: MIFKUJ_clean_linker_0, # of connection points: 2
#     Edge 60, Type (0, 1), BuildingBlock: MIFKUJ_clean_linker_0, # of connection points: 2
#     Edge 61, Type (0, 1), BuildingBlock: MIFKUJ_clean_linker_0, # of connection points: 2
# Relax obj value: 0.093
# Max RMSD: 0.267
# Mean RMSD: 0.152
data_MOF--net-ocu--node1-KUMJIN_clean_sbu_0--node2-TAGTUT_clean_sbu_1--edge1-MIFKUJ_clean_linker_0
_symmetry_space_group_name_H-M    P1
_symmetry_Int_Tables_number       1
_symmetry_cell_setting            triclinic
loop_
_symmetry_equiv_pos_as_xyz
'x, y, z'
_cell_length_a     50.402808
_cell_length_b     47.613371
_cell_length_c     53.898847
_cell_angle_alpha  81.592221
_cell_angle_beta   100.50823
_cell_angle_gamma 112.46549
loop_
_atom_site_label
_atom_site_type_symbol
_atom_site_fract_x
_atom_site_fract_y
_atom_site_fract_z
_atom_type_partial_charge
Eu0 Eu 0.25311 0.22792 0.23262 0.0
C1 C 0.33736 0.28187 0.31612 0.0
C2 C 0.32299 0.24541 0.35225 0.0
C3 C 0.37403 0.27267 0.34911 0.0
C4 C 0.31559 0.26042 0.32892 0.0
C5 C 0.36682 0.28838 0.32641 0.0
C6 C 0.35219 0.25142 0.36208 0.0
C7 C 0.38036 0.32817 0.29283 0.0
N8 N 0.32997 0.29716 0.29427 0.0
C9 C 0.35105 0.32151 0.28368 0.0
C10 C 0.38832 0.31117 0.31403 0.0
Eu11 Eu 0.2791 0.28346 0.28053 0.0
N12 N 0.28732 0.25419 0.31883 0.0
C13 C 0.26566 0.23425 0.33186 0.0
C14 C 0.30085 0.22482 0.36522 0.0
C15 C 0.27211 0.21911 0.35498 0.0
H16 H 0.34572 0.33683 0.26859 0.0
H17 H 0.25484 0.20338 0.36509 0.0
H18 H 0.35811 0.23984 0.37981 0.0
H19 H 0.39677 0.34698 0.28388 0.0
H20 H 0.2432 0.22995 0.32516 0.0
H21 H 0.25963 0.31191 0.15092 0.0
H22 H 0.30578 0.21372 0.38342 0.0
H23 H 0.20031 0.15964 0.24153 0.0
H24 H 0.27804 0.28734 0.18988 0.0
H25 H 0.14919 0.13214 0.22426 0.0
H26 H 0.39648 0.27729 0.3571 0.0
H27 H 0.20779 0.29055 0.13319 0.0
H28 H 0.15882 0.24928 0.13545 0.0
H29 H 0.41108 0.3167 0.32132 0.0
H30 H 0.12859 0.20059 0.1557 0.0
N31 N 0.23706 0.25296 0.19501 0.0
C32 C 0.25542 0.27789 0.18263 0.0
C33 C 0.2158 0.27966 0.15039 0.0
C34 C 0.1974 0.25316 0.16239 0.0
C35 C 0.24505 0.29179 0.16034 0.0
C36 C 0.2089 0.23997 0.18484 0.0
H37 H 0.1249 0.15655 0.18858 0.0
N38 N 0.20421 0.19977 0.21685 0.0
C39 C 0.16083 0.15492 0.21636 0.0
C40 C 0.19185 0.21275 0.19631 0.0
C41 C 0.1897 0.17052 0.22609 0.0
C42 C 0.14719 0.1688 0.19626 0.0
C43 C 0.16288 0.19777 0.18559 0.0
O44 O 0.25492 0.18436 0.22619 0.0
O45 O 0.28384 0.24111 0.26935 0.0
O46 O 0.30359 0.30483 0.24734 0.0
O47 O 0.29891 0.26122 0.22979 0.0
O48 O 0.25717 0.1954 0.26683 0.0
O49 O 0.27685 0.22507 0.20346 0.0
O50 O 0.29934 0.32784 0.29574 0.0
O51 O 0.25156 0.27107 0.24309 0.0
O52 O 0.21705 0.21511 0.2563 0.0
O53 O 0.23338 0.25199 0.28562 0.0
O54 O 0.25797 0.31307 0.25348 0.0
O55 O 0.25802 0.29678 0.30656 0.0
C56 C 0.27804 0.21427 0.28086 0.0
C57 C 0.26068 0.1784 0.18483 0.0
C58 C 0.27183 0.15251 0.15428 0.0
C59 C 0.28044 0.1693 0.17578 0.0
C60 C 0.2432 0.14529 0.14192 0.0
C61 C 0.23234 0.17097 0.1721 0.0
C62 C 0.22369 0.1545 0.15078 0.0
C63 C 0.31193 0.29054 0.23296 0.0
C64 C 0.26999 0.19568 0.20745 0.0
C65 C 0.1509 0.21157 0.16401 0.0
C66 C 0.16813 0.23923 0.15243 0.0
C67 C 0.24406 0.29429 0.23645 0.0
C68 C 0.26763 0.34994 0.30479 0.0
C69 C 0.254 0.35398 0.3239 0.0
C70 C 0.24603 0.37963 0.32215 0.0
C71 C 0.25138 0.40078 0.3008 0.0
C72 C 0.27275 0.37148 0.28369 0.0
C73 C 0.26461 0.39666 0.28176 0.0
C74 C 0.21386 0.22754 0.27534 0.0
C75 C 0.27778 0.32418 0.30768 0.0
H76 H 0.30234 0.17495 0.18568 0.0
H77 H 0.23596 0.13287 0.12512 0.0
H78 H 0.21689 0.17785 0.17859 0.0
H79 H 0.20178 0.14892 0.14102 0.0
H80 H 0.25039 0.33766 0.34039 0.0
H81 H 0.2452 0.42052 0.29875 0.0
H82 H 0.28341 0.36916 0.26881 0.0
H83 H 0.26883 0.4132 0.26551 0.0
Eu84 Eu 0.76357 0.23027 0.24515 0.0
C85 C 0.67315 0.27411 0.28194 0.0
C86 C 0.62833 0.24557 0.25709 0.0
C87 C 0.627 0.26744 0.29457 0.0
C88 C 0.65898 0.25839 0.26095 0.0
C89 C 0.65737 0.27815 0.29937 0.0
C90 C 0.61248 0.25116 0.27343 0.0
C91 C 0.70261 0.30083 0.32611 0.0
N92 N 0.7024 0.28333 0.28642 0.0
C93 C 0.71725 0.29634 0.30829 0.0
C94 C 0.67253 0.292 0.32151 0.0
Eu95 Eu 0.72709 0.28061 0.25384 0.0
N96 N 0.67512 0.25269 0.24605 0.0
C97 C 0.66135 0.2304 0.22956 0.0
C98 C 0.61449 0.22595 0.23794 0.0
C99 C 0.63114 0.2176 0.22466 0.0
H100 H 0.74058 0.30387 0.31191 0.0
H101 H 0.62074 0.20065 0.21107 0.0
H102 H 0.58899 0.24186 0.2705 0.0
H103 H 0.71458 0.31131 0.34329 0.0
H104 H 0.6732 0.2212 0.22063 0.0
H105 H 0.87665 0.30131 0.23718 0.0
H106 H 0.59106 0.21559 0.23443 0.0
H107 H 0.71935 0.17288 0.21022 0.0
H108 H 0.83231 0.27884 0.25745 0.0
H109 H 0.71658 0.15281 0.16968 0.0
H110 H 0.61453 0.27066 0.30755 0.0
H111 H 0.87664 0.28784 0.19458 0.0
H112 H 0.84979 0.25686 0.15764 0.0
H113 H 0.66119 0.29543 0.33537 0.0
H114 H 0.80603 0.21659 0.13912 0.0
N115 N 0.80704 0.25291 0.22663 0.0
C116 C 0.83189 0.27258 0.23891 0.0
C117 C 0.85707 0.27779 0.20342 0.0
C118 C 0.83189 0.25676 0.19133 0.0
C119 C 0.85718 0.28538 0.22749 0.0
C120 C 0.80702 0.24428 0.20374 0.0
H121 H 0.7566 0.17714 0.1438 0.0
N122 N 0.75978 0.20917 0.20666 0.0
C123 C 0.73519 0.17234 0.17604 0.0
C124 C 0.78253 0.22175 0.19336 0.0
C125 C 0.73685 0.18375 0.19899 0.0
C126 C 0.75774 0.18622 0.16142 0.0
C127 C 0.78203 0.21092 0.17021 0.0
O128 O 0.75589 0.18356 0.26145 0.0
O129 O 0.73032 0.23546 0.26474 0.0
O130 O 0.74818 0.26308 0.29042 0.0
O131 O 0.78788 0.26263 0.27603 0.0
O132 O 0.71877 0.19427 0.25027 0.0
O133 O 0.7981 0.21842 0.26941 0.0
O134 O 0.76067 0.32065 0.27046 0.0
O135 O 0.7671 0.27853 0.24312 0.0
O136 O 0.73673 0.23768 0.20803 0.0
O137 O 0.7108 0.26848 0.21284 0.0
O138 O 0.74864 0.30726 0.21963 0.0
O139 O 0.71963 0.32299 0.25162 0.0
C140 C 0.71039 0.20967 0.26279 0.0
C141 C 0.78184 0.18031 0.30241 0.0
C142 C 0.81076 0.17751 0.34363 0.0
C143 C 0.80846 0.18927 0.31819 0.0
C144 C 0.7854 0.15769 0.35345 0.0
C145 C 0.75674 0.16061 0.31257 0.0
C146 C 0.75859 0.14957 0.33802 0.0
C147 C 0.77579 0.26671 0.29426 0.0
C148 C 0.78112 0.19067 0.27525 0.0
C149 C 0.80614 0.22435 0.15708 0.0
C150 C 0.83105 0.24724 0.16763 0.0
C151 C 0.77016 0.29787 0.2239 0.0
C152 C 0.76129 0.3684 0.24981 0.0
C153 C 0.74519 0.3838 0.23391 0.0
C154 C 0.75889 0.4121 0.22126 0.0
C155 C 0.78912 0.42581 0.22503 0.0
C156 C 0.79171 0.38233 0.25378 0.0
C157 C 0.8055 0.41098 0.24147 0.0
C158 C 0.7179 0.25137 0.19962 0.0
C159 C 0.74588 0.33817 0.26217 0.0
H160 H 0.82758 0.20504 0.31035 0.0
H161 H 0.78625 0.1476 0.37278 0.0
H162 H 0.7358 0.15343 0.30088 0.0
H163 H 0.73925 0.13414 0.3457 0.0
H164 H 0.72172 0.37335 0.23065 0.0
H165 H 0.79982 0.44772 0.21526 0.0
H166 H 0.80478 0.37112 0.26625 0.0
H167 H 0.8289 0.42154 0.24449 0.0
Eu168 Eu 0.74131 0.74577 0.2757 0.0
C169 C 0.82394 0.84874 0.21264 0.0
C170 C 0.79387 0.85684 0.17392 0.0
C171 C 0.83581 0.89927 0.19029 0.0
C172 C 0.79994 0.83754 0.1948 0.0
C173 C 0.84247 0.87962 0.21039 0.0
C174 C 0.81155 0.8879 0.17208 0.0
C175 C 0.8739 0.86881 0.24691 0.0
N176 N 0.82992 0.82905 0.23161 0.0
C177 C 0.85498 0.83835 0.24823 0.0
C178 C 0.86748 0.88962 0.22806 0.0
Eu179 Eu 0.79577 0.77832 0.23377 0.0
N180 N 0.78345 0.80741 0.19708 0.0
C181 C 0.76205 0.7946 0.17804 0.0
C182 C 0.77075 0.84415 0.15515 0.0
C183 C 0.75507 0.81279 0.15703 0.0
H184 H 0.85996 0.82244 0.26299 0.0
H185 H 0.73752 0.80261 0.14237 0.0
H186 H 0.80706 0.90313 0.15632 0.0
H187 H 0.8934 0.87621 0.26045 0.0
H188 H 0.74965 0.77044 0.17923 0.0
H189 H 0.79757 0.71855 0.36746 0.0
H190 H 0.76532 0.85819 0.13885 0.0
H191 H 0.67391 0.70413 0.247 0.0
H192 H 0.78806 0.7518 0.33069 0.0
H193 H 0.63879 0.65181 0.25043 0.0
H194 H 0.84964 0.92313 0.18834 0.0
H195 H 0.7666 0.66408 0.37094 0.0
H196 H 0.72354 0.6208 0.35339 0.0
H197 H 0.88224 0.91319 0.22701 0.0
H198 H 0.68087 0.60254 0.32146 0.0
N199 N 0.75297 0.71628 0.31218 0.0
C200 C 0.77453 0.72805 0.33145 0.0
C201 C 0.76265 0.67837 0.35433 0.0
C202 C 0.7395 0.66671 0.33533 0.0
C203 C 0.78003 0.70921 0.35253 0.0
C204 C 0.73481 0.68655 0.31429 0.0
H205 H 0.64894 0.61394 0.28334 0.0
N206 N 0.70466 0.69645 0.27749 0.0
C207 C 0.65885 0.65831 0.26334 0.0
C208 C 0.71012 0.67636 0.29649 0.0
C209 C 0.67893 0.68815 0.26156 0.0
C210 C 0.66469 0.63702 0.28194 0.0
C211 C 0.69023 0.64602 0.2991 0.0
O212 O 0.73106 0.78443 0.28282 0.0
O213 O 0.75403 0.77965 0.24205 0.0
O214 O 0.79876 0.81435 0.2585 0.0
O215 O 0.78205 0.78196 0.29331 0.0
O216 O 0.71088 0.75213 0.24039 0.0
O217 O 0.71403 0.74148 0.30443 0.0
O218 O 0.83584 0.77431 0.22763 0.0
O219 O 0.78231 0.74318 0.26684 0.0
O220 O 0.73476 0.70891 0.25061 0.0
O221 O 0.75783 0.73856 0.21703 0.0
O222 O 0.82581 0.76804 0.26807 0.0
O223 O 0.79607 0.75343 0.20288 0.0
C224 C 0.72933 0.77437 0.22849 0.0
C225 C 0.68596 0.77256 0.29662 0.0
C226 C 0.65325 0.79108 0.31179 0.0
C227 C 0.68058 0.78864 0.31385 0.0
C228 C 0.63164 0.77777 0.29196 0.0
C229 C 0.66412 0.7596 0.27691 0.0
C230 C 0.63716 0.76233 0.27457 0.0
C231 C 0.79635 0.80931 0.28287 0.0
C232 C 0.71419 0.76908 0.29957 0.0
C233 C 0.69585 0.62591 0.31925 0.0
C234 C 0.72028 0.63629 0.33739 0.0
C235 C 0.80695 0.74631 0.27988 0.0
C236 C 0.83969 0.76828 0.18569 0.0
C237 C 0.84384 0.74593 0.17409 0.0
C238 C 0.85906 0.75398 0.15302 0.0
C239 C 0.86995 0.78493 0.14382 0.0
C240 C 0.85051 0.79886 0.17606 0.0
C241 C 0.86558 0.80709 0.15522 0.0
C242 C 0.74086 0.71242 0.22732 0.0
C243 C 0.82382 0.75913 0.20767 0.0
H244 H 0.69738 0.79857 0.32916 0.0
H245 H 0.61051 0.77951 0.28984 0.0
H246 H 0.66782 0.74721 0.26344 0.0
H247 H 0.6204 0.75227 0.25931 0.0
H248 H 0.83492 0.72226 0.18139 0.0
H249 H 0.88227 0.7922 0.12804 0.0
H250 H 0.8474 0.81633 0.18468 0.0
H251 H 0.87408 0.83077 0.14795 0.0
Eu252 Eu 0.29014 0.72044 0.26 0.0
C253 C 0.24696 0.81312 0.18702 0.0
C254 C 0.28995 0.85863 0.18387 0.0
C255 C 0.25152 0.8466 0.1481 0.0
C256 C 0.27393 0.83175 0.19761 0.0
C257 C 0.23512 0.82063 0.16234 0.0
C258 C 0.27892 0.86556 0.15884 0.0
C259 C 0.191 0.77758 0.16846 0.0
N260 N 0.23172 0.7883 0.20131 0.0
C261 C 0.20375 0.77098 0.19276 0.0
C262 C 0.20689 0.80222 0.153 0.0
Eu263 Eu 0.2552 0.77738 0.24164 0.0
N264 N 0.28382 0.82442 0.22186 0.0
C265 C 0.30845 0.8443 0.23421 0.0
C266 C 0.31616 0.87814 0.19594 0.0
C267 C 0.32517 0.8712 0.22137 0.0
H268 H 0.1915 0.75168 0.20452 0.0
H269 H 0.3451 0.88645 0.23106 0.0
H270 H 0.29107 0.88591 0.14788 0.0
H271 H 0.16891 0.76372 0.16176 0.0
H272 H 0.31583 0.83918 0.25378 0.0
H273 H 0.20633 0.60707 0.26589 0.0
H274 H 0.32918 0.89895 0.18603 0.0
H275 H 0.35191 0.75052 0.29886 0.0
H276 H 0.22918 0.65962 0.24781 0.0
H277 H 0.37682 0.73679 0.33996 0.0
H278 H 0.24294 0.8526 0.12901 0.0
H279 H 0.22907 0.58888 0.30616 0.0
H280 H 0.2678 0.6003 0.3439 0.0
H281 H 0.19694 0.80724 0.13417 0.0
H282 H 0.3132 0.63603 0.36474 0.0
N283 N 0.26346 0.67194 0.27852 0.0
C284 C 0.23876 0.65245 0.26593 0.0
C285 C 0.23828 0.61246 0.2991 0.0
C286 C 0.26331 0.63258 0.31214 0.0
C287 C 0.2257 0.62254 0.2761 0.0
C288 C 0.27576 0.66252 0.30108 0.0
H289 H 0.35397 0.68699 0.36347 0.0
N290 N 0.31461 0.70974 0.29989 0.0
C291 C 0.35574 0.72124 0.33243 0.0
C292 C 0.3019 0.68221 0.31231 0.0
C293 C 0.34157 0.72895 0.30918 0.0
C294 C 0.34272 0.69316 0.34568 0.0
C295 C 0.31575 0.67299 0.33543 0.0
O296 O 0.32875 0.71641 0.25035 0.0
O297 O 0.29143 0.76361 0.23707 0.0
O298 O 0.25153 0.75404 0.20691 0.0
O299 O 0.25401 0.70806 0.22651 0.0
O300 O 0.33085 0.76223 0.2542 0.0
O301 O 0.2861 0.68856 0.23306 0.0
O302 O 0.2172 0.78397 0.25015 0.0
O303 O 0.25361 0.73382 0.26455 0.0
O304 O 0.29288 0.74333 0.29484 0.0
O305 O 0.29143 0.78954 0.2749 0.0
O306 O 0.21437 0.73569 0.24779 0.0
O307 O 0.26002 0.80968 0.2684 0.0
C308 C 0.31833 0.77857 0.23928 0.0
C309 C 0.32297 0.6686 0.23768 0.0
C310 C 0.33747 0.63501 0.21752 0.0
C311 C 0.32946 0.66052 0.21614 0.0
C312 C 0.33871 0.6176 0.24087 0.0
C313 C 0.3245 0.65111 0.26081 0.0
C314 C 0.33229 0.62568 0.26234 0.0
C315 C 0.24806 0.7252 0.20624 0.0
C316 C 0.31393 0.69484 0.23534 0.0
C317 C 0.30283 0.6436 0.34705 0.0
C318 C 0.27688 0.62329 0.33524 0.0
C319 C 0.22667 0.71891 0.26242 0.0
C320 C 0.22532 0.83263 0.26261 0.0
C321 C 0.21332 0.83842 0.28196 0.0
C322 C 0.2084 0.86579 0.2807 0.0
C323 C 0.21545 0.88718 0.25972 0.0
C324 C 0.23192 0.85404 0.24166 0.0
C325 C 0.22694 0.88118 0.24025 0.0
C326 C 0.29708 0.77244 0.2953 0.0
C327 C 0.23249 0.80511 0.26541 0.0
H328 H 0.32791 0.67393 0.19823 0.0
H329 H 0.34513 0.59805 0.24265 0.0
H330 H 0.3197 0.65706 0.2776 0.0
H331 H 0.33346 0.61225 0.28025 0.0
H332 H 0.20851 0.822 0.29829 0.0
H333 H 0.21178 0.90838 0.25829 0.0
H334 H 0.24122 0.84995 0.22662 0.0
H335 H 0.23219 0.89772 0.22411 0.0
Eu336 Eu 0.29177 0.72094 0.76711 0.0
C337 C 0.24286 0.79959 0.81649 0.0
C338 C 0.19101 0.77341 0.81551 0.0
C339 C 0.21859 0.80657 0.84891 0.0
C340 C 0.21677 0.77991 0.80526 0.0
C341 C 0.24408 0.81332 0.83837 0.0
C342 C 0.1921 0.78669 0.83747 0.0
C343 C 0.29538 0.84021 0.83733 0.0
N344 N 0.26709 0.80539 0.80594 0.0
C345 C 0.29304 0.82627 0.81551 0.0
C346 C 0.27083 0.83356 0.84893 0.0
Eu347 Eu 0.2614 0.77969 0.76946 0.0
N348 N 0.21655 0.76689 0.78442 0.0
C349 C 0.19111 0.748 0.77231 0.0
C350 C 0.16493 0.75375 0.80337 0.0
C351 C 0.165 0.7412 0.78156 0.0
H352 H 0.31226 0.8315 0.80689 0.0
H353 H 0.14499 0.7263 0.77182 0.0
H354 H 0.17257 0.78183 0.8457 0.0
H355 H 0.31613 0.85604 0.84521 0.0
H356 H 0.19076 0.73799 0.75551 0.0
H357 H 0.34228 0.6912 0.86066 0.0
H358 H 0.14466 0.74823 0.81059 0.0
H359 H 0.31942 0.73718 0.71265 0.0
H360 H 0.30181 0.69049 0.82701 0.0
H361 H 0.36686 0.75329 0.69764 0.0
H362 H 0.21911 0.81678 0.86577 0.0
H363 H 0.39292 0.71466 0.8512 0.0
H364 H 0.42693 0.7384 0.81863 0.0
H365 H 0.27271 0.84443 0.86582 0.0
H366 H 0.43362 0.75489 0.77398 0.0
N367 N 0.32918 0.71514 0.79917 0.0
C368 C 0.32374 0.70059 0.8226 0.0
C369 C 0.37517 0.71445 0.8364 0.0
C370 C 0.38037 0.72672 0.81177 0.0
C371 C 0.34666 0.701 0.84175 0.0
C372 C 0.3566 0.72682 0.7934 0.0
H373 H 0.41101 0.75906 0.72844 0.0
N374 N 0.33672 0.7356 0.75163 0.0
C375 C 0.36545 0.7492 0.71773 0.0
C376 C 0.36047 0.73721 0.76867 0.0
C377 C 0.33861 0.74018 0.72634 0.0
C378 C 0.39038 0.75272 0.7352 0.0
C379 C 0.3881 0.74647 0.76107 0.0
O380 O 0.27476 0.67102 0.7711 0.0
O381 O 0.25382 0.73029 0.77428 0.0
O382 O 0.27829 0.76587 0.80875 0.0
O383 O 0.31418 0.75023 0.80049 0.0
O384 O 0.26008 0.69273 0.79466 0.0
O385 O 0.28063 0.6947 0.73421 0.0
O386 O 0.27618 0.82578 0.75068 0.0
O387 O 0.29386 0.76809 0.7535 0.0
O388 O 0.27384 0.73837 0.72881 0.0
O389 O 0.23547 0.74561 0.74028 0.0
O390 O 0.30906 0.80952 0.76815 0.0
O391 O 0.23198 0.79525 0.74124 0.0
C392 C 0.24436 0.70913 0.79125 0.0
C393 C 0.28887 0.6491 0.74165 0.0
C394 C 0.33026 0.63285 0.74973 0.0
C395 C 0.31491 0.64928 0.75623 0.0
C396 C 0.31883 0.61579 0.72846 0.0
C397 C 0.27776 0.63207 0.7205 0.0
C398 C 0.29267 0.61538 0.71401 0.0
C399 C 0.30177 0.75917 0.8159 0.0
C400 C 0.27448 0.6685 0.74732 0.0
C401 C 0.41216 0.74762 0.77937 0.0
C402 C 0.40834 0.73811 0.80478 0.0
C403 C 0.31598 0.79216 0.75642 0.0
C404 C 0.25528 0.82676 0.70763 0.0
C405 C 0.23008 0.81985 0.6901 0.0
C406 C 0.23159 0.82533 0.66412 0.0
C407 C 0.25859 0.83769 0.65537 0.0
C408 C 0.28242 0.83908 0.69882 0.0
C409 C 0.28398 0.84426 0.67278 0.0
C410 C 0.24716 0.73809 0.72354 0.0
C411 C 0.25242 0.82059 0.7348 0.0
H412 H 0.32309 0.66224 0.77273 0.0
H413 H 0.33023 0.60311 0.72277 0.0
H414 H 0.25779 0.63201 0.70886 0.0
H415 H 0.2841 0.60235 0.69758 0.0
H416 H 0.20905 0.81096 0.69668 0.0
H417 H 0.25998 0.84265 0.63529 0.0
H418 H 0.30236 0.84485 0.71193 0.0
H419 H 0.3049 0.85384 0.66611 0.0
Eu420 Eu 0.23515 0.23405 0.77722 0.0
C421 C 0.31139 0.33897 0.70748 0.0
C422 C 0.27953 0.34358 0.66895 0.0
C423 C 0.32132 0.38783 0.68249 0.0
C424 C 0.2869 0.32603 0.69058 0.0
C425 C 0.32921 0.36989 0.7034 0.0
C426 C 0.29651 0.37468 0.66528 0.0
C427 C 0.36257 0.36233 0.73965 0.0
N428 N 0.31859 0.32089 0.72726 0.0
C429 C 0.34421 0.33184 0.74292 0.0
C430 C 0.35487 0.38158 0.72002 0.0
Eu431 Eu 0.28622 0.26956 0.73175 0.0
N432 N 0.27106 0.29589 0.69463 0.0
C433 C 0.24873 0.28141 0.67688 0.0
C434 C 0.25581 0.32912 0.65128 0.0
C435 C 0.24064 0.2978 0.65512 0.0
H436 H 0.3503 0.3172 0.75824 0.0
H437 H 0.22274 0.28618 0.64136 0.0
H438 H 0.29104 0.38859 0.64889 0.0
H439 H 0.38273 0.37088 0.75215 0.0
H440 H 0.2367 0.25726 0.67955 0.0
H441 H 0.29977 0.21497 0.86648 0.0
H442 H 0.24946 0.34175 0.63438 0.0
H443 H 0.17112 0.18677 0.75006 0.0
H444 H 0.28479 0.24515 0.82942 0.0
H445 H 0.13938 0.1326 0.75468 0.0
H446 H 0.33461 0.41168 0.67913 0.0
H447 H 0.27313 0.15928 0.87222 0.0
H448 H 0.23137 0.1129 0.85714 0.0
H449 H 0.36922 0.40519 0.71751 0.0
H450 H 0.18769 0.09051 0.8268 0.0
N451 N 0.25035 0.20694 0.81386 0.0
C452 C 0.27285 0.22092 0.83168 0.0
C453 C 0.2664 0.17245 0.8559 0.0
C454 C 0.2424 0.15852 0.83827 0.0
C455 C 0.28145 0.20387 0.85276 0.0
C456 C 0.23466 0.17668 0.81729 0.0
H457 H 0.15306 0.09772 0.78869 0.0
N458 N 0.20266 0.18267 0.78106 0.0
C459 C 0.15925 0.14113 0.76759 0.0
C460 C 0.21004 0.16414 0.80036 0.0
C461 C 0.17724 0.17187 0.76511 0.0
C462 C 0.16707 0.12152 0.7868 0.0
C463 C 0.19254 0.133 0.8037 0.0
O464 O 0.19578 0.23899 0.78413 0.0
O465 O 0.24505 0.26835 0.74319 0.0
O466 O 0.28796 0.30652 0.75464 0.0
O467 O 0.2738 0.27538 0.79082 0.0
O468 O 0.20241 0.24091 0.74383 0.0
O469 O 0.23571 0.25771 0.80928 0.0
O470 O 0.32582 0.26466 0.7256 0.0
O471 O 0.27638 0.23541 0.76579 0.0
O472 O 0.23397 0.19708 0.75448 0.0
O473 O 0.24762 0.22813 0.71822 0.0
O474 O 0.31898 0.263 0.76526 0.0
O475 O 0.28618 0.24563 0.7001 0.0
C476 C 0.21969 0.26323 0.73107 0.0
C477 C 0.19205 0.24331 0.82647 0.0
C478 C 0.1685 0.25527 0.85726 0.0
C479 C 0.18459 0.26444 0.83671 0.0
C480 C 0.16045 0.22474 0.86757 0.0
C481 C 0.18385 0.21307 0.8371 0.0
C482 C 0.16817 0.2039 0.8576 0.0
C483 C 0.28576 0.30262 0.77904 0.0
C484 C 0.20816 0.25311 0.80459 0.0
C485 C 0.20073 0.11453 0.82401 0.0
C486 C 0.22561 0.12727 0.84127 0.0
C487 C 0.30173 0.24062 0.77798 0.0
C488 C 0.33011 0.26079 0.68338 0.0
C489 C 0.33482 0.23916 0.67138 0.0
C490 C 0.35079 0.24823 0.65078 0.0
C491 C 0.36175 0.27944 0.64236 0.0
C492 C 0.34107 0.29168 0.67459 0.0
C493 C 0.35679 0.3009 0.65415 0.0
C494 C 0.23647 0.20082 0.73013 0.0
C495 C 0.3138 0.25063 0.70506 0.0
H496 H 0.19079 0.28778 0.82837 0.0
H497 H 0.14836 0.21704 0.88352 0.0
H498 H 0.18944 0.19656 0.82952 0.0
H499 H 0.16191 0.18051 0.86575 0.0
H500 H 0.32585 0.21526 0.67806 0.0
H501 H 0.37462 0.28742 0.62694 0.0
H502 H 0.33764 0.30864 0.6836 0.0
H503 H 0.36539 0.32481 0.64753 0.0
Eu504 Eu 0.79076 0.22824 0.76071 0.0
C505 C 0.73877 0.31712 0.68908 0.0
C506 C 0.7801 0.36442 0.68664 0.0
C507 C 0.74091 0.3526 0.65148 0.0
C508 C 0.7654 0.33637 0.69972 0.0
C509 C 0.72585 0.32531 0.66509 0.0
C510 C 0.76803 0.37211 0.66222 0.0
C511 C 0.68319 0.28027 0.67079 0.0
N512 N 0.72478 0.29107 0.70281 0.0
C513 C 0.69693 0.27319 0.6945 0.0
C514 C 0.69787 0.30624 0.65585 0.0
Eu515 Eu 0.74966 0.27969 0.74225 0.0
N516 N 0.77622 0.32836 0.72343 0.0
C517 C 0.80052 0.3485 0.73597 0.0
C518 C 0.80606 0.38428 0.69879 0.0
C519 C 0.81606 0.37648 0.72372 0.0
H520 H 0.68553 0.25303 0.70594 0.0
H521 H 0.83577 0.39195 0.73351 0.0
H522 H 0.77913 0.39343 0.65178 0.0
H523 H 0.66134 0.26569 0.66404 0.0
H524 H 0.80857 0.34278 0.75522 0.0
H525 H 0.70839 0.11349 0.7603 0.0
H526 H 0.81808 0.406 0.68937 0.0
H527 H 0.84892 0.25823 0.80312 0.0
H528 H 0.73199 0.16678 0.74399 0.0
H529 H 0.87222 0.24273 0.84447 0.0
H530 H 0.73149 0.35916 0.6329 0.0
H531 H 0.72872 0.09385 0.80125 0.0
H532 H 0.76841 0.10302 0.83824 0.0
H533 H 0.68716 0.31173 0.63751 0.0
H534 H 0.81135 0.13853 0.8622 0.0
N535 N 0.76405 0.17819 0.77641 0.0
C536 C 0.74058 0.15891 0.76231 0.0
C537 C 0.73867 0.11761 0.7946 0.0
C538 C 0.76323 0.13724 0.80863 0.0
C539 C 0.7272 0.12856 0.77141 0.0
C540 C 0.77538 0.16794 0.79908 0.0
H541 H 0.84994 0.19079 0.86489 0.0
N542 N 0.81277 0.21636 0.80131 0.0
C543 C 0.85196 0.22707 0.83562 0.0
C544 C 0.80028 0.18771 0.81206 0.0
C545 C 0.83869 0.23581 0.8123 0.0
C546 C 0.83925 0.19777 0.84712 0.0
C547 C 0.81344 0.17748 0.83511 0.0
O548 O 0.83277 0.23118 0.75285 0.0
O549 O 0.78887 0.27057 0.73813 0.0
O550 O 0.74638 0.25781 0.70675 0.0
O551 O 0.75962 0.2161 0.7242 0.0
O552 O 0.82885 0.27312 0.75736 0.0
O553 O 0.79339 0.19695 0.73621 0.0
O554 O 0.71019 0.27639 0.75572 0.0
O555 O 0.75134 0.23682 0.76419 0.0
O556 O 0.7894 0.24795 0.7958 0.0
O557 O 0.78421 0.29305 0.77667 0.0
O558 O 0.71138 0.23476 0.7458 0.0
O559 O 0.75024 0.31368 0.7659 0.0
C560 C 0.81524 0.28774 0.74149 0.0
C561 C 0.83592 0.1855 0.74384 0.0
C562 C 0.85881 0.15635 0.72769 0.0
C563 C 0.8445 0.17723 0.72351 0.0
C564 C 0.86389 0.14347 0.75246 0.0
C565 C 0.84137 0.17256 0.76839 0.0
C566 C 0.85515 0.15152 0.77263 0.0
C567 C 0.74932 0.23169 0.70508 0.0
C568 C 0.82167 0.20792 0.73909 0.0
C569 C 0.80128 0.14699 0.84477 0.0
C570 C 0.77659 0.12682 0.83129 0.0
C571 C 0.72506 0.21946 0.76075 0.0
C572 C 0.70655 0.32209 0.76379 0.0
C573 C 0.70085 0.33149 0.78516 0.0
C574 C 0.68375 0.34961 0.78246 0.0
C575 C 0.6729 0.35839 0.75778 0.0
C576 C 0.69596 0.33163 0.7395 0.0
C577 C 0.67924 0.34972 0.73657 0.0
C578 C 0.79052 0.27593 0.7967 0.0
C579 C 0.72255 0.30136 0.76727 0.0
H580 H 0.84063 0.18757 0.70457 0.0
H581 H 0.87451 0.12704 0.75623 0.0
H582 H 0.83523 0.17883 0.78429 0.0
H583 H 0.85921 0.14155 0.79163 0.0
H584 H 0.70979 0.32454 0.8038 0.0
H585 H 0.65902 0.37154 0.7547 0.0
H586 H 0.70026 0.32477 0.72285 0.0
H587 H 0.67078 0.35669 0.71776 0.0
Eu588 Eu 0.75172 0.7262 0.72777 0.0
C589 C 0.84843 0.81338 0.79942 0.0
C590 C 0.85506 0.78196 0.83786 0.0
C591 C 0.89569 0.8264 0.82526 0.0
C592 C 0.83737 0.78803 0.81591 0.0
C593 C 0.87758 0.83317 0.80413 0.0
C594 C 0.88443 0.80086 0.84213 0.0
C595 C 0.8681 0.86627 0.76799 0.0
N596 N 0.8302 0.81959 0.7795 0.0
C597 C 0.83927 0.84613 0.76429 0.0
C598 C 0.88743 0.85962 0.78784 0.0
Eu599 Eu 0.78218 0.78349 0.77362 0.0
N600 N 0.80886 0.77037 0.81131 0.0
C601 C 0.79616 0.74768 0.82885 0.0
C602 C 0.84246 0.7577 0.85526 0.0
C603 C 0.81277 0.74082 0.8509 0.0
H604 H 0.82443 0.85128 0.74884 0.0
H605 H 0.80259 0.72254 0.86447 0.0
H606 H 0.89843 0.79637 0.85874 0.0
H607 H 0.87537 0.88691 0.75555 0.0
H608 H 0.77327 0.73436 0.82581 0.0
H609 H 0.72641 0.78581 0.63756 0.0
H610 H 0.85526 0.75231 0.87238 0.0
H611 H 0.71279 0.65668 0.75275 0.0
H612 H 0.75665 0.77688 0.6768 0.0
H613 H 0.66366 0.61782 0.7459 0.0
H614 H 0.91822 0.84119 0.8291 0.0
H615 H 0.67599 0.7502 0.62808 0.0
H616 H 0.63573 0.70195 0.64051 0.0
H617 H 0.9097 0.87537 0.79078 0.0
H618 H 0.61806 0.65733 0.67063 0.0
N619 N 0.72315 0.73771 0.6906 0.0
C620 C 0.73445 0.76152 0.67335 0.0
C621 C 0.68882 0.74662 0.64579 0.0
C622 C 0.67758 0.72164 0.66308 0.0
C623 C 0.71738 0.76665 0.65097 0.0
C624 C 0.69552 0.71775 0.68564 0.0
H625 H 0.62825 0.62578 0.71002 0.0
N626 N 0.70471 0.68776 0.72247 0.0
C627 C 0.66954 0.6387 0.73357 0.0
C628 C 0.68589 0.69212 0.70222 0.0
C629 C 0.69734 0.66093 0.73751 0.0
C630 C 0.6496 0.64332 0.71334 0.0
C631 C 0.65787 0.66991 0.69701 0.0
O632 O 0.76355 0.68766 0.72368 0.0
O633 O 0.78483 0.74074 0.76276 0.0
O634 O 0.81767 0.78749 0.75122 0.0
O635 O 0.78785 0.76864 0.71467 0.0
O636 O 0.76093 0.69494 0.76163 0.0
O637 O 0.77089 0.72507 0.69467 0.0
O638 O 0.77663 0.82502 0.78046 0.0
O639 O 0.74915 0.76878 0.73903 0.0
O640 O 0.71586 0.72066 0.74957 0.0
O641 O 0.74452 0.74197 0.78614 0.0
O642 O 0.77213 0.81471 0.73977 0.0
O643 O 0.7587 0.78351 0.80402 0.0
C644 C 0.78141 0.71474 0.77498 0.0
C645 C 0.76078 0.67604 0.68197 0.0
C646 C 0.76995 0.64842 0.65151 0.0
C647 C 0.78025 0.67027 0.66958 0.0
C648 C 0.73983 0.63256 0.64623 0.0
C649 C 0.73094 0.66005 0.67611 0.0
C650 C 0.72057 0.6385 0.65834 0.0
C651 C 0.81346 0.78412 0.72677 0.0
C652 C 0.77177 0.69801 0.7015 0.0
C653 C 0.63957 0.67422 0.67506 0.0
C654 C 0.64955 0.69982 0.65798 0.0
C655 C 0.7516 0.79447 0.72678 0.0
C656 C 0.77264 0.8299 0.82265 0.0
C657 C 0.75326 0.83926 0.83211 0.0
C658 C 0.7626 0.85645 0.85347 0.0
C659 C 0.79138 0.86339 0.8654 0.0
C660 C 0.80119 0.83734 0.83488 0.0
C661 C 0.81042 0.85386 0.85618 0.0
C662 C 0.71959 0.72536 0.77365 0.0
C663 C 0.76308 0.8125 0.80003 0.0
H664 H 0.80328 0.68285 0.67402 0.0
H665 H 0.73104 0.61507 0.63302 0.0
H666 H 0.71565 0.66387 0.68548 0.0
H667 H 0.69749 0.62607 0.65414 0.0
H668 H 0.73121 0.83369 0.82261 0.0
H669 H 0.79915 0.87603 0.88208 0.0
H670 H 0.81637 0.83046 0.82794 0.0
H671 H 0.83249 0.85938 0.86555 0.0
C672 C 0.97805 0.05796 0.55003 0.0
C673 C 1.01036 0.07943 0.47752 0.0
C674 C 0.96894 0.96076 0.46901 0.0
Mg675 Mg 0.03394 0.06162 0.53106 0.0
O676 O 1.01158 0.02066 0.52621 0.0
Mg677 Mg 0.97216 0.01097 0.50582 0.0
Mg678 Mg 0.0264 0.9977 0.50775 0.0
O679 O 0.04123 0.97494 0.48906 0.0
Mg680 Mg 0.01918 0.93404 0.4835 0.0
Mg681 Mg 0.08082 0.98494 0.50909 0.0
C682 C 0.08362 0.03437 0.54684 0.0
C683 C 0.07542 0.04517 0.4748 0.0
O684 O 0.96294 0.03811 0.53412 0.0
O685 O 1.00584 0.06926 0.55272 0.0
O686 O 0.98801 0.05494 0.47936 0.0
O687 O 0.03197 0.08634 0.49497 0.0
O688 O 0.07463 0.05614 0.5473 0.0
O689 O 0.06801 0.01023 0.53554 0.0
C690 C 0.97721 0.95071 0.54064 0.0
O691 O 1.00214 0.95712 0.53383 0.0
O692 O 0.96173 0.96715 0.53252 0.0
O693 O 0.09006 0.95915 0.4798 0.0
O694 O 0.04751 0.92705 0.46155 0.0
O695 O 0.06516 0.9405 0.53522 0.0
C696 C 0.07526 0.9393 0.4638 0.0
O697 O 0.02114 0.90935 0.51956 0.0
O698 O 0.9781 0.93925 0.46797 0.0
C699 C 0.04274 0.91605 0.53702 0.0
O700 O 0.98477 0.9849 0.48019 0.0
O701 O 0.05047 0.03829 0.48168 0.0
O702 O 0.09123 0.02908 0.48283 0.0
C703 C 0.45049 0.06361 0.02468 0.0
C704 C 0.46188 0.06942 0.94845 0.0
C705 C 0.47181 0.95045 0.98437 0.0
Mg706 Mg 0.50534 0.07743 0.99956 0.0
O707 O 0.49609 0.03555 0.0065 0.0
Mg708 Mg 0.45564 0.00858 0.99417 0.0
Mg709 Mg 0.52116 0.01206 1.00267 0.0
O710 O 0.54607 0.98858 0.99872 0.0
Mg711 Mg 0.53615 0.94659 0.00572 0.0
Mg712 Mg 0.58641 0.01505 0.0119 0.0
C713 C 0.57011 0.0738 0.0212 0.0
C714 C 0.56437 0.05233 0.96104 0.0
O715 O 0.43897 0.03826 0.01413 0.0
O716 O 0.47686 0.08142 0.02324 0.0
O717 O 0.45049 0.04092 0.95611 0.0
O718 O 0.48483 0.08703 0.96116 0.0
O719 O 0.55228 0.08768 0.01235 0.0
O720 O 0.56221 0.04444 0.02474 0.0
C721 C 0.47884 0.9733 0.04548 0.0
O722 O 0.50444 0.98188 0.03936 0.0
O723 O 0.45876 0.98053 0.03141 0.0
O724 O 0.60297 0.98483 0.99177 0.0
O725 O 0.56481 0.9418 0.98279 0.0
O726 O 0.59048 0.98172 0.04983 0.0
C727 C 0.59131 0.95923 0.98148 0.0
O728 O 0.55537 0.93624 0.0442 0.0
O729 O 0.48937 0.93624 0.99302 0.0
C730 C 0.57834 0.95324 0.05725 0.0
O731 O 0.48003 0.97976 0.98098 0.0
O732 O 0.53814 0.04231 0.96603 0.0
O733 O 0.58424 0.04503 0.97551 0.0
C734 C 0.95494 0.56921 0.02814 0.0
C735 C 0.95934 0.56581 0.952 0.0
C736 C 0.95412 0.44312 0.98946 0.0
Mg737 Mg 1.00532 0.57121 1.00101 0.0
O738 O 0.99087 0.52957 0.01184 0.0
Mg739 Mg 0.94864 0.50686 1.00026 0.0
Mg740 Mg 1.01007 0.50087 0.00652 0.0
O741 O 0.02908 0.47207 1.00101 0.0
Mg742 Mg 1.01481 0.43013 0.01046 0.0
Mg743 Mg 0.07144 0.49479 0.01097 0.0
C744 C 0.06647 0.55895 0.02189 0.0
C745 C 0.05042 0.53398 0.96117 0.0
O746 O 0.93947 0.54274 0.02012 0.0
O747 O 0.98144 0.58328 0.02434 0.0
O748 O 0.94543 0.53899 0.96191 0.0
O749 O 0.98472 0.58153 0.96256 0.0
O750 O 0.05157 0.57605 0.01289 0.0
O751 O 0.05482 0.52965 0.02587 0.0
C752 C 0.96747 0.46608 0.05023 0.0
O753 O 0.99268 0.47224 0.04389 0.0
O754 O 0.94919 0.47678 0.03694 0.0
O755 O 0.08 0.45886 0.99076 0.0
O756 O 0.03791 0.41866 0.98591 0.0
O757 O 0.07563 0.46312 0.04935 0.0
C758 C 0.06441 0.43276 0.98217 0.0
O759 O 0.0368 0.41994 0.04841 0.0
O760 O 0.96855 0.42552 0.99832 0.0
C761 C 0.06212 0.43596 0.05895 0.0
O762 O 0.96612 0.47242 0.98637 0.0
O763 O 0.0265 0.5292 0.9693 0.0
O764 O 0.0691 0.52317 0.97341 0.0
C765 C 0.46118 0.56612 0.02715 0.0
C766 C 0.49951 0.57681 0.95681 0.0
C767 C 0.46189 0.45765 0.96424 0.0
Mg768 Mg 0.52017 0.57017 0.01384 0.0
O769 O 0.49972 0.52787 0.01298 0.0
Mg770 Mg 0.46119 0.51351 0.99086 0.0
Mg771 Mg 0.51672 0.50145 1.00106 0.0
O772 O 0.53294 0.47452 0.9891 0.0
Mg773 Mg 0.51135 0.43211 0.98962 0.0
Mg774 Mg 0.57201 0.48852 0.00992 0.0
C775 C 0.57059 0.54468 0.03874 0.0
C776 C 0.56829 0.54311 0.96807 0.0
O777 O 0.44842 0.54386 0.01301 0.0
O778 O 0.48886 0.57952 0.03073 0.0
O779 O 0.47783 0.55214 0.96011 0.0
O780 O 0.51916 0.58834 0.97495 0.0
O781 O 0.56076 0.56652 0.0348 0.0
O782 O 0.55644 0.51867 0.02981 0.0
C783 C 0.46508 0.45952 0.03373 0.0
O784 O 0.49087 0.46517 0.02927 0.0
O785 O 0.44948 0.47439 0.02165 0.0
O786 O 0.58295 0.45716 0.98647 0.0
O787 O 0.54059 0.42207 0.971 0.0
O788 O 0.55685 0.44992 0.04014 0.0
C789 C 0.56829 0.43466 0.97281 0.0
O790 O 0.51419 0.41342 0.02868 0.0
O791 O 0.47044 0.43492 0.96902 0.0
C792 C 0.53592 0.4253 0.04516 0.0
O793 O 0.47727 0.4838 0.97236 0.0
O794 O 0.54288 0.53839 0.973 0.0
O795 O 0.58314 0.52717 0.97936 0.0
C796 C 0.94612 0.55642 0.52166 0.0
C797 C 0.96452 0.57064 0.4468 0.0
C798 C 0.97076 0.44845 0.47719 0.0
Mg799 Mg 1.0036 0.57282 0.5003 0.0
O800 O 0.99307 0.53069 0.50393 0.0
Mg801 Mg 0.95352 0.50535 0.48808 0.0
Mg802 Mg 0.01858 0.5075 0.50147 0.0
O803 O 0.04392 0.484 0.49903 0.0
Mg804 Mg 0.03256 0.44173 0.50498 0.0
Mg805 Mg 0.08317 0.5091 0.51564 0.0
C806 C 0.06575 0.56625 0.52721 0.0
C807 C 0.06723 0.55016 0.46472 0.0
O808 O 0.93482 0.53313 0.50841 0.0
O809 O 0.97304 0.57346 0.52306 0.0
O810 O 0.95275 0.54155 0.45197 0.0
O811 O 0.98609 0.58683 0.4618 0.0
O812 O 0.0492 0.58144 0.51771 0.0
O813 O 0.05713 0.53696 0.52758 0.0
C814 C 0.97047 0.46437 0.53857 0.0
O815 O 0.99738 0.47476 0.53556 0.0
O816 O 0.95186 0.4726 0.5231 0.0
O817 O 0.10157 0.48043 0.49596 0.0
O818 O 0.06371 0.43814 0.48439 0.0
O819 O 0.08352 0.47347 0.55212 0.0
C820 C 0.09047 0.45551 0.48471 0.0
O821 O 0.04824 0.42872 0.54424 0.0
O822 O 0.98709 0.43323 0.48734 0.0
C823 C 0.07061 0.44487 0.55849 0.0
O824 O 0.97969 0.47783 0.47571 0.0
O825 O 0.04019 0.54036 0.46733 0.0
O826 O 0.08525 0.54139 0.48052 0.0
C827 C 0.45438 0.06983 0.52704 0.0
C828 C 0.4578 0.06249 0.45155 0.0
C829 C 0.45498 0.94195 0.49223 0.0
Mg830 Mg 0.50476 0.07165 0.50013 0.0
O831 O 0.49105 0.03031 0.51182 0.0
Mg832 Mg 0.44895 0.00635 0.50175 0.0
Mg833 Mg 0.51035 1.00175 0.5069 0.0
O834 O 0.5298 0.97335 0.50175 0.0
Mg835 Mg 0.51695 0.93187 0.51307 0.0
Mg836 Mg 0.57213 0.99768 0.50993 0.0
C837 C 0.56642 0.06134 0.522 0.0
C838 C 0.54804 0.03378 0.45961 0.0
O839 O 0.43941 0.04288 0.51989 0.0
O840 O 0.48069 0.08428 0.52287 0.0
O841 O 0.44437 0.03599 0.46232 0.0
O842 O 0.48315 0.07914 0.4615 0.0
O843 O 0.55132 0.07821 0.51294 0.0
O844 O 0.55503 0.03197 0.52485 0.0
C845 C 0.47141 0.97077 0.55358 0.0
O846 O 0.49548 0.9753 0.5457 0.0
O847 O 0.45234 0.98033 0.54022 0.0
O848 O 0.58045 0.96194 0.48976 0.0
O849 O 0.53953 0.92008 0.48824 0.0
O850 O 0.57871 0.96768 0.54864 0.0
C851 C 0.56516 0.93511 0.48252 0.0
O852 O 0.54021 0.92448 0.55109 0.0
O853 O 0.47028 0.92531 0.50143 0.0
C854 C 0.56599 0.94134 0.55997 0.0
O855 O 0.46618 0.97129 0.48862 0.0
O856 O 0.52439 0.02849 0.46838 0.0
O857 O 0.56767 0.02437 0.47184 0.0
H858 H 0.1807 0.25097 0.29412 0.0
H859 H 0.14574 0.22408 0.32382 0.0
H860 H 0.15852 0.14062 0.31821 0.0
H861 H 0.19133 0.16686 0.28714 0.0
H862 H 0.10757 0.12587 0.3266 0.0
H863 H 0.20093 0.1983 0.36514 0.0
H864 H 0.23714 0.25054 0.36936 0.0
H865 H 0.17238 0.27982 0.38652 0.0
H866 H 0.1358 0.22782 0.3824 0.0
H867 H 0.13079 0.0788 0.46585 0.0
H868 H 0.14596 0.1155 0.42957 0.0
H869 H 0.05684 0.1044 0.40246 0.0
H870 H 0.04151 0.06782 0.4388 0.0
H871 H 0.13818 0.17077 0.40941 0.0
H872 H 0.05071 0.09661 0.33611 0.0
H873 H 0.01993 0.04277 0.33029 0.0
H874 H 0.08076 0.01366 0.38357 0.0
H875 H 0.11213 0.06727 0.38929 0.0
C876 C 0.17513 0.22664 0.29867 0.0
C877 C 0.18859 0.21087 0.28851 0.0
C878 C 0.15546 0.21137 0.31582 0.0
C879 C 0.15022 0.18052 0.32399 0.0
C880 C 0.16218 0.16441 0.31236 0.0
C881 C 0.18095 0.17939 0.29455 0.0
C882 C 0.13497 0.16548 0.34626 0.0
C883 C 0.11397 0.13593 0.3446 0.0
C884 C 0.14335 0.17844 0.36988 0.0
C885 C 0.16563 0.2093 0.37328 0.0
C886 C 0.19447 0.21589 0.36986 0.0
C887 C 0.21502 0.24543 0.37219 0.0
C888 C 0.20703 0.26846 0.37809 0.0
C889 C 0.17852 0.26196 0.38191 0.0
C890 C 0.15789 0.23247 0.37964 0.0
C891 C 0.1145 0.08463 0.45242 0.0
C892 C 0.085 0.07047 0.45513 0.0
C893 C 0.12319 0.10568 0.4318 0.0
C894 C 0.10249 0.11246 0.41333 0.0
C895 C 0.07311 0.09938 0.41653 0.0
C896 C 0.06443 0.07865 0.43737 0.0
C897 C 0.11162 0.13099 0.38973 0.0
C898 C 0.13128 0.16113 0.39122 0.0
C899 C 0.10265 0.1183 0.36608 0.0
C900 C 0.08348 0.08596 0.36346 0.0
C901 C 0.05745 0.07871 0.34662 0.0
C902 C 0.04 0.04824 0.34323 0.0
C903 C 0.0484 0.02482 0.35655 0.0
C904 C 0.07424 0.03182 0.37332 0.0
C905 C 0.09184 0.06225 0.37667 0.0
H906 H 0.0348 1.00126 0.35394 0.0
H907 H 0.22294 0.29134 0.37975 0.0
H908 H 0.82604 0.18261 0.39511 0.0
H909 H 0.87203 0.18391 0.42031 0.0
H910 H 0.90765 0.18962 0.35206 0.0
H911 H 0.86181 0.18599 0.32697 0.0
H912 H 0.8878 0.13514 0.41554 0.0
H913 H 0.98032 0.22758 0.3636 0.0
H914 H 0.99786 0.28285 0.3509 0.0
H915 H 0.95171 0.29626 0.4049 0.0
H916 H 0.93355 0.24107 0.41763 0.0
H917 H 0.98495 0.07058 0.4288 0.0
H918 H 0.96383 0.10494 0.40212 0.0
H919 H 1.00779 0.17399 0.45467 0.0
H920 H 0.03023 0.14044 0.48061 0.0
H921 H 0.99064 0.19863 0.40735 0.0
H922 H 0.94848 0.11981 0.47186 0.0
H923 H 0.9363 0.06744 0.49236 0.0
H924 H 0.88381 0.03169 0.42364 0.0
H925 H 0.8958 0.08393 0.40272 0.0
C926 C 0.84368 0.1843 0.38542 0.0
C927 C 0.83983 0.18369 0.35893 0.0
C928 C 0.87011 0.1857 0.39984 0.0
C929 C 0.89323 0.18721 0.38796 0.0
C930 C 0.89026 0.18917 0.36153 0.0
C931 C 0.86378 0.18701 0.34717 0.0
C932 C 0.91734 0.17901 0.40243 0.0
C933 C 0.91029 0.14928 0.41408 0.0
C934 C 0.94664 0.19746 0.40066 0.0
C935 C 0.95547 0.23017 0.39146 0.0
C936 C 0.97375 0.24231 0.37262 0.0
C937 C 0.9838 0.27362 0.36542 0.0
C938 C 0.97599 0.29306 0.37715 0.0
C939 C 0.95779 0.28118 0.39587 0.0
C940 C 0.94734 0.24984 0.40286 0.0
C941 C 0.9914 0.09373 0.43382 0.0
C942 C 1.00833 0.10267 0.45704 0.0
C943 C 0.97939 0.11334 0.4186 0.0
C944 C 0.98336 0.14135 0.42715 0.0
C945 C 1.0042 0.15226 0.44802 0.0
C946 C 0.01693 0.13298 0.46287 0.0
C947 C 0.96071 0.15449 0.41912 0.0
C948 C 0.9681 0.18483 0.40888 0.0
C949 C 0.93166 0.13698 0.42285 0.0
C950 C 0.9231 0.1057 0.43574 0.0
C951 C 0.93427 0.10076 0.46117 0.0
C952 C 0.92743 0.07112 0.47284 0.0
C953 C 0.90936 0.04623 0.45928 0.0
C954 C 0.89783 0.05098 0.4341 0.0
C955 C 0.90454 0.0806 0.42236 0.0
H956 H 0.90428 0.02328 0.46829 0.0
H957 H 0.98397 0.31732 0.37169 0.0
H958 H 0.80798 0.80496 0.33419 0.0
H959 H 0.82885 0.8458 0.36205 0.0
H960 H 0.83732 0.9125 0.29761 0.0
H961 H 0.81684 0.87111 0.2691 0.0
H962 H 0.88523 0.92903 0.33396 0.0
H963 H 0.78474 0.9034 0.33363 0.0
H964 H 0.73423 0.86763 0.33243 0.0
H965 H 0.75585 0.82419 0.40466 0.0
H966 H 0.80662 0.85992 0.40634 0.0
H967 H 0.9509 0.00541 0.44228 0.0
H968 H 0.9091 0.99647 0.40878 0.0
H969 H 0.88068 0.89995 0.43135 0.0
H970 H 0.92193 0.90875 0.4646 0.0
H971 H 0.83447 0.91819 0.40765 0.0
H972 H 0.93489 0.92877 0.3919 0.0
H973 H 0.98633 0.96313 0.3973 0.0
H974 H 0.96315 0.03665 0.35618 0.0
H975 H 0.91155 1.00267 0.35068 0.0
C976 C 0.81415 0.82821 0.32577 0.0
C977 C 0.81039 0.8347 0.2994 0.0
C978 C 0.82597 0.85164 0.3418 0.0
C979 C 0.83379 0.88223 0.33197 0.0
C980 C 0.83102 0.88903 0.30559 0.0
C981 C 0.81937 0.86539 0.28938 0.0
C982 C 0.84529 0.90643 0.34986 0.0
C983 C 0.87369 0.92757 0.34952 0.0
C984 C 0.83025 0.90482 0.37015 0.0
C985 C 0.79943 0.88449 0.37018 0.0
C986 C 0.77866 0.88638 0.34937 0.0
C987 C 0.74995 0.8661 0.34862 0.0
C988 C 0.74169 0.84376 0.36858 0.0
C989 C 0.76221 0.84166 0.38931 0.0
C990 C 0.79092 0.8621 0.39027 0.0
C991 C 0.93495 0.98251 0.44077 0.0
C992 C 0.93993 0.95761 0.45546 0.0
C993 C 0.91111 0.97742 0.42162 0.0
C994 C 0.89221 0.94744 0.41719 0.0
C995 C 0.89503 0.92324 0.43431 0.0
C996 C 0.91879 0.92825 0.45319 0.0
C997 C 0.87467 0.9397 0.39216 0.0
C998 C 0.84524 0.92124 0.39123 0.0
C999 C 0.88854 0.94417 0.37051 0.0
C1000 C 0.91957 0.96327 0.37079 0.0
C1001 C 0.94091 0.95213 0.38364 0.0
C1002 C 0.97 0.97156 0.38687 0.0
C1003 C 0.97793 1.00206 0.37719 0.0
C1004 C 0.95692 0.01302 0.36369 0.0
C1005 C 0.92778 0.99368 0.36045 0.0
H1006 H 1.00031 0.01729 0.38037 0.0
H1007 H 0.71944 0.82806 0.368 0.0
H1008 H 0.22984 0.91661 0.30679 0.0
H1009 H 0.20936 0.92742 0.34064 0.0
H1010 H 0.13898 0.84041 0.33478 0.0
H1011 H 0.15968 0.82924 0.30124 0.0
H1012 H 0.12287 0.89387 0.33157 0.0
H1013 H 0.18009 0.84258 0.39081 0.0
H1014 H 0.22437 0.83281 0.41035 0.0
H1015 H 0.26963 0.92828 0.41953 0.0
H1016 H 0.22529 0.93842 0.40077 0.0
H1017 H 0.05348 0.89134 0.43421 0.0
H1018 H 0.07783 0.87857 0.40485 0.0
H1019 H 0.15572 0.95553 0.42477 0.0
H1020 H 0.13169 0.96805 0.4548 0.0
H1021 H 0.16921 0.90818 0.42065 0.0
H1022 H 0.10999 0.95809 0.36891 0.0
H1023 H 0.06508 0.96792 0.35267 0.0
H1024 H 0.02435 0.87787 0.32727 0.0
H1025 H 0.06897 0.86737 0.34361 0.0
C1026 C 0.21003 0.89981 0.31278 0.0
C1027 C 0.19622 0.87218 0.30134 0.0
C1028 C 0.19853 0.90587 0.33224 0.0
C1029 C 0.17276 0.88463 0.34026 0.0
C1030 C 0.15897 0.857 0.32892 0.0
C1031 C 0.17075 0.85067 0.30979 0.0
C1032 C 0.15911 0.89229 0.35913 0.0
C1033 C 0.13275 0.89659 0.35114 0.0
C1034 C 0.17254 0.8969 0.38436 0.0
C1035 C 0.19957 0.89126 0.39423 0.0
C1036 C 0.19956 0.86148 0.39688 0.0
C1037 C 0.22455 0.85584 0.40804 0.0
C1038 C 0.24981 0.87991 0.41613 0.0
C1039 C 0.25006 0.90966 0.41325 0.0
C1040 C 0.22496 0.91534 0.40254 0.0
C1041 C 0.07582 0.90556 0.43244 0.0
C1042 C 0.09056 0.93086 0.44678 0.0
C1043 C 0.08969 0.89829 0.41552 0.0
C1044 C 0.11845 0.91642 0.4122 0.0
C1045 C 0.13349 0.94126 0.42693 0.0
C1046 C 0.1197 0.9484 0.44407 0.0
C1047 C 0.13266 0.9095 0.39323 0.0
C1048 C 0.15923 0.90552 0.40109 0.0
C1049 C 0.11954 0.90556 0.36775 0.0
C1050 C 0.09274 0.91185 0.35768 0.0
C1051 C 0.0914 0.94031 0.36 0.0
C1052 C 0.066 0.94602 0.35076 0.0
C1053 C 0.04184 0.92351 0.33902 0.0
C1054 C 0.04308 0.89528 0.3364 0.0
C1055 C 0.06843 0.88945 0.34561 0.0
H1056 H 0.02219 0.92797 0.3319 0.0
H1057 H 0.2692 0.87552 0.42458 0.0
H1058 H 0.18936 0.77242 0.64945 0.0
H1059 H 0.13853 0.76606 0.63268 0.0
H1060 H 0.16193 0.8635 0.62806 0.0
H1061 H 0.21251 0.86995 0.64332 0.0
H1062 H 0.11587 0.82529 0.66027 0.0
H1063 H 0.14671 0.83269 0.57461 0.0
H1064 H 0.16444 0.81067 0.54535 0.0
H1065 H 0.09522 0.72445 0.55601 0.0
H1066 H 0.07722 0.74602 0.58543 0.0
H1067 H 0.07853 0.92593 0.58164 0.0
H1068 H 0.0888 0.88748 0.61193 0.0
H1069 H 0.01817 0.8167 0.57271 0.0
H1070 H 1.00812 0.85557 0.54168 0.0
H1071 H 0.06572 0.80868 0.57259 0.0
H1072 H 0.02347 0.81721 0.63854 0.0
H1073 H 1.00557 0.84053 0.6665 0.0
H1074 H 0.09305 0.89352 0.69579 0.0
H1075 H 0.11158 0.87125 0.66762 0.0
C1076 C 0.18359 0.79235 0.64375 0.0
C1077 C 0.2045 0.82166 0.64717 0.0
C1078 C 0.15471 0.78867 0.63483 0.0
C1079 C 0.14661 0.81419 0.63021 0.0
C1080 C 0.16788 0.84353 0.63205 0.0
C1081 C 0.19672 0.84726 0.6403 0.0
C1082 C 0.11602 0.81113 0.62421 0.0
C1083 C 0.1044 0.82133 0.64127 0.0
C1084 C 0.10026 0.80351 0.60021 0.0
C1085 C 0.11078 0.79085 0.58225 0.0
C1086 C 0.13536 0.80902 0.57072 0.0
C1087 C 0.14543 0.79664 0.55413 0.0
C1088 C 0.13099 0.76616 0.54886 0.0
C1089 C 0.10639 0.74804 0.56012 0.0
C1090 C 0.09622 0.76033 0.57672 0.0
C1091 C 0.06459 0.90227 0.57985 0.0
C1092 C 0.04324 0.89366 0.55885 0.0
C1093 C 0.07014 0.88016 0.5975 0.0
C1094 C 0.05428 0.84902 0.59461 0.0
C1095 C 0.03069 0.84055 0.57527 0.0
C1096 C 0.02508 0.86281 0.55752 0.0
C1097 C 0.06729 0.82679 0.60761 0.0
C1098 C 0.07569 0.81113 0.59216 0.0
C1099 C 0.07975 0.829 0.63332 0.0
C1100 C 0.06896 0.84216 0.65102 0.0
C1101 C 0.03895 0.83384 0.65091 0.0
C1102 C 0.02867 0.84696 0.66678 0.0
C1103 C 0.04817 0.86837 0.68299 0.0
C1104 C 0.07797 0.87678 0.68333 0.0
C1105 C 0.08839 0.86381 0.66744 0.0
H1106 H 0.0402 0.87851 0.69528 0.0
H1107 H 0.13884 0.7566 0.53603 0.0
H1108 H 0.23426 0.20089 0.67931 0.0
H1109 H 0.21835 0.15748 0.6544 0.0
H1110 H 0.20068 0.09614 0.72183 0.0
H1111 H 0.21654 0.13996 0.74723 0.0
H1112 H 0.23603 0.11065 0.65407 0.0
H1113 H 0.14053 0.03305 0.70314 0.0
H1114 H 0.1089 0.03493 0.7324 0.0
H1115 H 0.11844 0.12632 0.70209 0.0
H1116 H 0.14982 0.12481 0.6725 0.0
H1117 H 0.09358 0.99145 0.58241 0.0
H1118 H 0.13135 1.00266 0.61936 0.0
H1119 H 0.17187 0.09363 0.58502 0.0
H1120 H 0.13417 0.0826 0.5486 0.0
H1121 H 0.13173 0.04533 0.64688 0.0
H1122 H 0.24036 0.12654 0.60903 0.0
H1123 H 0.27051 0.12597 0.57805 0.0
H1124 H 0.23303 0.02818 0.58218 0.0
H1125 H 0.20306 0.02801 0.61361 0.0
C1126 C 0.22714 0.17826 0.68902 0.0
C1127 C 0.22645 0.17395 0.7153 0.0
C1128 C 0.21827 0.15338 0.6747 0.0
C1129 C 0.20842 0.12355 0.68621 0.0
C1130 C 0.20815 0.11899 0.71254 0.0
C1131 C 0.21704 0.14404 0.72699 0.0
C1132 C 0.19633 0.09785 0.66981 0.0
C1133 C 0.21328 0.0961 0.65251 0.0
C1134 C 0.16702 0.0779 0.6686 0.0
C1135 C 0.14778 0.07893 0.68591 0.0
C1136 C 0.1358 0.05349 0.70272 0.0
C1137 C 0.11792 0.0545 0.71934 0.0
C1138 C 0.11175 0.08076 0.71916 0.0
C1139 C 0.1233 0.10602 0.70226 0.0
C1140 C 0.14113 0.10511 0.68558 0.0
C1141 C 0.11147 0.01323 0.58225 0.0
C1142 C 0.11105 0.03629 0.56286 0.0
C1143 C 0.13292 0.01968 0.60342 0.0
C1144 C 0.1544 0.04901 0.60505 0.0
C1145 C 0.15582 0.07071 0.58415 0.0
C1146 C 0.13422 0.06445 0.5633 0.0
C1147 C 0.1709 0.05967 0.62982 0.0
C1148 C 0.15481 0.05866 0.64888 0.0
C1149 C 0.20094 0.07728 0.63242 0.0
C1150 C 0.21933 0.07727 0.61373 0.0
C1151 C 0.2387 0.10486 0.60357 0.0
C1152 C 0.25574 0.10468 0.58586 0.0
C1153 C 0.25363 0.07707 0.57811 0.0
C1154 C 0.23458 0.04956 0.58815 0.0
C1155 C 0.21754 0.0496 0.6059 0.0
H1156 H 0.26671 0.07697 0.56431 0.0
H1157 H 0.09798 0.08152 0.73208 0.0
H1158 H 0.82954 0.14236 0.68023 0.0
H1159 H 0.84645 0.12779 0.64592 0.0
H1160 H 0.92789 0.13774 0.69314 0.0
H1161 H 0.91133 0.15261 0.72724 0.0
H1162 H 0.93479 0.16395 0.64439 0.0
H1163 H 0.87619 0.06831 0.68623 0.0
H1164 H 0.83101 0.032 0.70123 0.0
H1165 H 0.78651 0.02969 0.62517 0.0
H1166 H 0.83139 0.06632 0.60976 0.0
H1167 H 1.0007 0.0844 0.59448 0.0
H1168 H 0.97699 0.10271 0.6205 0.0
H1169 H 0.8982 0.07452 0.56757 0.0
H1170 H 0.92166 0.05501 0.54173 0.0
H1171 H 0.88528 0.06078 0.61358 0.0
H1172 H 0.94396 0.15126 0.5704 0.0
H1173 H 0.9882 0.18819 0.55432 0.0
H1174 H 0.03109 0.20225 0.63048 0.0
H1175 H 0.98723 0.16507 0.64704 0.0
C1176 C 0.85113 0.14166 0.68317 0.0
C1177 C 0.86904 0.14839 0.70649 0.0
C1178 C 0.86068 0.13318 0.66364 0.0
C1179 C 0.88833 0.13146 0.66708 0.0
C1180 C 0.90645 0.13886 0.69011 0.0
C1181 C 0.89687 0.14711 0.70965 0.0
C1182 C 0.89856 0.1215 0.64701 0.0
C1183 C 0.9241 0.14134 0.63772 0.0
C1184 C 0.88395 0.09244 0.63763 0.0
C1185 C 0.85704 0.07031 0.64689 0.0
C1186 C 0.85671 0.06025 0.67273 0.0
C1187 C 0.83117 0.03958 0.68131 0.0
C1188 C 0.80588 0.02862 0.66418 0.0
C1189 C 0.8061 0.03824 0.63842 0.0
C1190 C 0.83159 0.05894 0.62976 0.0
C1191 C 0.97833 0.0821 0.58829 0.0
C1192 C 0.96312 0.06842 0.56593 0.0
C1193 C 0.96482 0.09278 0.60315 0.0
C1194 C 0.93599 0.09072 0.59572 0.0
C1195 C 0.92052 0.07656 0.57362 0.0
C1196 C 0.93394 0.06541 0.55888 0.0
C1197 C 0.92212 0.10292 0.61144 0.0
C1198 C 0.89584 0.08358 0.61988 0.0
C1199 C 0.93589 0.13264 0.61983 0.0
C1200 C 0.96232 0.1552 0.60996 0.0
C1201 C 0.96287 0.16207 0.58373 0.0
C1202 C 0.98789 0.18308 0.57453 0.0
C1203 C 1.01246 0.19752 0.59137 0.0
C1204 C 1.01204 0.19104 0.61746 0.0
C1205 C 0.98709 0.17003 0.62677 0.0
H1206 H 0.03181 0.21377 0.58421 0.0
H1207 H 0.78613 0.01261 0.67086 0.0
H1208 H 0.80893 0.79994 0.67639 0.0
H1209 H 0.84708 0.81991 0.64988 0.0
H1210 H 0.91097 0.82115 0.71546 0.0
H1211 H 0.87225 0.80164 0.74266 0.0
H1212 H 0.93055 0.87097 0.68433 0.0
H1213 H 0.89306 0.76621 0.67289 0.0
H1214 H 0.85678 0.71463 0.6664 0.0
H1215 H 0.82249 0.74748 0.59416 0.0
H1216 H 0.85832 0.79929 0.60025 0.0
H1217 H 1.00978 0.92628 0.57692 0.0
H1218 H 0.99274 0.889 0.61263 0.0
H1219 H 0.90469 0.8809 0.58378 0.0
H1220 H 0.92147 0.91804 0.54833 0.0
H1221 H 0.91225 0.8241 0.60344 0.0
H1222 H 0.94261 0.93133 0.6252 0.0
H1223 H 0.98082 0.98195 0.6317 0.0
H1224 H 0.03191 0.94055 0.68568 0.0
H1225 H 0.99399 0.88968 0.67931 0.0
C1226 C 0.83103 0.80435 0.68531 0.0
C1227 C 0.83753 0.79875 0.71158 0.0
C1228 C 0.85288 0.81557 0.67005 0.0
C1229 C 0.88181 0.82091 0.68051 0.0
C1230 C 0.88871 0.81661 0.70693 0.0
C1231 C 0.86665 0.80562 0.72242 0.0
C1232 C 0.9043 0.83209 0.66333 0.0
C1233 C 0.9271 0.8602 0.66701 0.0
C1234 C 0.90024 0.81788 0.64085 0.0
C1235 C 0.87848 0.7867 0.63705 0.0
C1236 C 0.87771 0.76248 0.65566 0.0
C1237 C 0.85722 0.73318 0.65205 0.0
C1238 C 0.83737 0.72781 0.62988 0.0
C1239 C 0.83794 0.75168 0.61129 0.0
C1240 C 0.8584 0.781 0.61478 0.0
C1241 C 0.98673 0.91596 0.5779 0.0
C1242 C 0.96691 0.92513 0.55993 0.0
C1243 C 0.97709 0.89481 0.59834 0.0
C1244 C 0.9475 0.8824 0.60083 0.0
C1245 C 0.92761 0.89021 0.58211 0.0
C1246 C 0.93723 0.91154 0.56195 0.0
C1247 C 0.93686 0.8636 0.62388 0.0
C1248 C 0.91638 0.83406 0.62128 0.0
C1249 C 0.94341 0.87617 0.64745 0.0
C1250 C 0.96572 0.90678 0.65158 0.0
C1251 C 0.96206 0.93306 0.63835 0.0
C1252 C 0.98363 0.96177 0.64203 0.0
C1253 C 1.00882 0.96446 0.65904 0.0
C1254 C 1.01243 0.93844 0.67248 0.0
C1255 C 0.99091 0.90969 0.66886 0.0
H1256 H 0.02551 0.9867 0.66184 0.0
H1257 H 0.82154 0.70518 0.62705 0.0
H1258 H 0.32883 0.18556 0.14857 0.0
H1259 H 0.36127 0.17039 0.12933 0.0
H1260 H 0.2937 0.0825 0.11778 0.0
H1261 H 0.26144 0.09723 0.13746 0.0
H1262 H 0.34642 0.07738 0.13379 0.0
H1263 H 0.30666 0.13837 0.06961 0.0
H1264 H 0.29606 0.1845 0.05251 0.0
H1265 H 0.38715 0.23836 0.06077 0.0
H1266 H 0.39826 0.19258 0.07821 0.0
H1267 H 0.39628 0.02957 0.03779 0.0
H1268 H 0.368 0.0446 0.06207 0.0
H1269 H 0.43661 0.13269 0.0691 0.0
H1270 H 0.4649 0.11802 0.04475 0.0
H1271 H 0.38537 0.13886 0.05694 0.0
H1272 H 0.42611 0.07825 0.11748 0.0
H1273 H 0.43796 0.03331 0.13605 0.0
H1274 H 0.34757 0.98007 0.13737 0.0
H1275 H 0.33504 0.02439 0.11793 0.0
C1276 C 0.32103 0.16284 0.14229 0.0
C1277 C 0.29243 0.14272 0.14436 0.0
C1278 C 0.33953 0.15427 0.13111 0.0
C1279 C 0.32981 0.12542 0.12177 0.0
C1280 C 0.30167 0.1049 0.12472 0.0
C1281 C 0.28317 0.11347 0.1358 0.0
C1282 C 0.34842 0.11695 0.10801 0.0
C1283 C 0.35468 0.09058 0.11681 0.0
C1284 C 0.35989 0.13466 0.08626 0.0
C1285 C 0.35327 0.16211 0.07543 0.0
C1286 C 0.32441 0.16009 0.06791 0.0
C1287 C 0.31832 0.18616 0.05814 0.0
C1288 C 0.34091 0.21436 0.05562 0.0
C1289 C 0.36966 0.21652 0.06277 0.0
C1290 C 0.37587 0.19051 0.07257 0.0
C1291 C 0.40537 0.05217 0.04444 0.0
C1292 C 0.43295 0.07254 0.03927 0.0
C1293 C 0.38921 0.06068 0.05847 0.0
C1294 C 0.40024 0.08972 0.06763 0.0
C1295 C 0.42761 0.11017 0.06227 0.0
C1296 C 0.44382 0.10166 0.04837 0.0
C1297 C 0.38319 0.09902 0.08252 0.0
C1298 C 0.37721 0.12558 0.07393 0.0
C1299 C 0.37219 0.08156 0.10458 0.0
C1300 C 0.3796 0.05463 0.11589 0.0
C1301 C 0.40869 0.05686 0.12135 0.0
C1302 C 0.41554 0.03148 0.13205 0.0
C1303 C 0.39353 1.00382 0.13778 0.0
C1304 C 0.3646 1.00149 0.13283 0.0
C1305 C 0.3576 0.02671 0.12187 0.0
H1306 H 0.3989 0.98424 0.14616 0.0
H1307 H 0.33611 0.23449 0.04806 0.0
H1308 H 0.82375 0.33851 0.23942 0.0
H1309 H 0.86367 0.36504 0.21424 0.0
H1310 H 0.81149 0.31635 0.15003 0.0
H1311 H 0.77213 0.28947 0.17549 0.0
H1312 H 0.86351 0.31799 0.15199 0.0
H1313 H 0.82499 0.39581 0.15621 0.0
H1314 H 0.81153 0.43194 0.17489 0.0
H1315 H 0.89809 0.4693 0.21392 0.0
H1316 H 0.91209 0.43347 0.19534 0.0
H1317 H 0.9208 0.4143 0.04683 0.0
H1318 H 0.89487 0.38223 0.08088 0.0
H1319 H 0.96176 0.43542 0.13594 0.0
H1320 H 0.98796 0.46784 0.10138 0.0
H1321 H 0.90933 0.43077 0.14383 0.0
H1322 H 0.94946 0.35941 0.13194 0.0
H1323 H 0.96325 0.32737 0.10865 0.0
H1324 H 0.87358 0.27828 0.08259 0.0
H1325 H 0.85922 0.31035 0.10534 0.0
C1326 C 0.8211 0.33326 0.22002 0.0
C1327 C 0.79519 0.31134 0.20957 0.0
C1328 C 0.84376 0.34873 0.20549 0.0
C1329 C 0.84074 0.34307 0.17998 0.0
C1330 C 0.81463 0.32122 0.16959 0.0
C1331 C 0.79204 0.30581 0.18413 0.0
C1332 C 0.86458 0.35962 0.16404 0.0
C1333 C 0.87337 0.34267 0.15013 0.0
C1334 C 0.87842 0.39183 0.16207 0.0
C1335 C 0.86947 0.41177 0.17464 0.0
C1336 C 0.84102 0.41146 0.16905 0.0
C1337 C 0.83336 0.432 0.1795 0.0
C1338 C 0.85396 0.4529 0.19559 0.0
C1339 C 0.88218 0.45312 0.20144 0.0
C1340 C 0.89001 0.43275 0.19093 0.0
C1341 C 0.9305 0.41852 0.06624 0.0
C1342 C 0.95661 0.44328 0.07146 0.0
C1343 C 0.91563 0.40012 0.08577 0.0
C1344 C 0.92632 0.40607 0.11116 0.0
C1345 C 0.95308 0.43017 0.11654 0.0
C1346 C 0.96822 0.44853 0.09685 0.0
C1347 C 0.90779 0.3892 0.1314 0.0
C1348 C 0.89994 0.40605 0.14609 0.0
C1349 C 0.89476 0.35692 0.13397 0.0
C1350 C 0.90327 0.33751 0.12022 0.0
C1351 C 0.93267 0.34197 0.12106 0.0
C1352 C 0.94059 0.32376 0.10798 0.0
C1353 C 0.91931 0.30085 0.09411 0.0
C1354 C 0.89004 0.29605 0.09333 0.0
C1355 C 0.882 0.31423 0.10634 0.0
H1356 H 0.92548 0.28677 0.084 0.0
H1357 H 0.84813 0.46903 0.20348 0.0
H1358 H 0.75094 0.83832 0.22255 0.0
H1359 H 0.72851 0.87153 0.19462 0.0
H1360 H 0.66006 0.7922 0.16466 0.0
H1361 H 0.68244 0.75937 0.19222 0.0
H1362 H 0.67277 0.83416 0.12692 0.0
H1363 H 0.65169 0.83299 0.21001 0.0
H1364 H 0.66357 0.83945 0.25577 0.0
H1365 H 0.71226 0.93473 0.24015 0.0
H1366 H 0.70107 0.92872 0.19425 0.0
H1367 H 0.56236 0.89211 0.07381 0.0
H1368 H 0.59025 0.86587 0.10288 0.0
H1369 H 0.65832 0.95205 0.11856 0.0
H1370 H 0.63052 0.97872 0.08898 0.0
H1371 H 0.64898 0.91013 0.16325 0.0
H1372 H 0.66649 0.90974 0.07872 0.0
H1373 H 0.65255 0.90096 0.0334 0.0
H1374 H 0.60774 0.8056 0.05268 0.0
H1375 H 0.62102 0.8139 0.09814 0.0
C1376 C 0.7314 0.82801 0.20968 0.0
C1377 C 0.71882 0.79598 0.20953 0.0
C1378 C 0.71827 0.84707 0.19379 0.0
C1379 C 0.69205 0.83474 0.17734 0.0
C1380 C 0.68011 0.80278 0.17685 0.0
C1381 C 0.69304 0.78385 0.19275 0.0
C1382 C 0.67645 0.8545 0.16113 0.0
C1383 C 0.66748 0.85056 0.13509 0.0
C1384 C 0.66945 0.87649 0.17116 0.0
C1385 C 0.6758 0.88034 0.19869 0.0
C1386 C 0.66509 0.85529 0.21633 0.0
C1387 C 0.67168 0.85886 0.2423 0.0
C1388 C 0.68872 0.88747 0.25087 0.0
C1389 C 0.69911 0.91257 0.23348 0.0
C1390 C 0.69264 0.9091 0.20748 0.0
C1391 C 0.58303 0.90582 0.08364 0.0
C1392 C 0.59379 0.93793 0.07871 0.0
C1393 C 0.59922 0.89054 0.10033 0.0
C1394 C 0.62688 0.90659 0.11305 0.0
C1395 C 0.63718 0.93876 0.10918 0.0
C1396 C 0.62108 0.95413 0.09218 0.0
C1397 C 0.64521 0.88957 0.12914 0.0
C1398 C 0.65454 0.89393 0.15511 0.0
C1399 C 0.65227 0.86764 0.11915 0.0
C1400 C 0.64454 0.8625 0.09184 0.0
C1401 C 0.65349 0.88693 0.0733 0.0
C1402 C 0.64573 0.88204 0.04758 0.0
C1403 C 0.62922 0.85275 0.04017 0.0
C1404 C 0.6205 0.82828 0.05846 0.0
C1405 C 0.62816 0.83306 0.0842 0.0
H1406 H 0.62322 0.84901 0.02025 0.0
H1407 H 0.69382 0.89019 0.27098 0.0
H1408 H 0.2426 0.75419 0.1589 0.0
H1409 H 0.22466 0.73096 0.11863 0.0
H1410 H 0.21133 0.642 0.15809 0.0
H1411 H 0.22975 0.665 0.19826 0.0
H1412 H 0.23237 0.64671 0.1147 0.0
H1413 H 0.15533 0.66977 0.14075 0.0
H1414 H 0.13298 0.70331 0.15197 0.0
H1415 H 0.14801 0.75727 0.08116 0.0
H1416 H 0.17059 0.7241 0.0696 0.0
H1417 H 0.10221 0.54024 0.05923 0.0
H1418 H 0.14855 0.5735 0.08009 0.0
H1419 H 0.14795 0.6463 0.02225 0.0
H1420 H 0.10152 0.61325 1.00149 0.0
H1421 H 0.14343 0.65949 0.06665 0.0
H1422 H 0.20692 0.62625 0.03621 0.0
H1423 H 0.22757 0.5917 0.02425 0.0
H1424 H 0.23806 0.55621 0.10184 0.0
H1425 H 0.21689 0.59007 0.11423 0.0
C1426 C 0.23583 0.72968 0.15901 0.0
C1427 C 0.2372 0.71138 0.18183 0.0
C1428 C 0.22573 0.71646 0.13596 0.0
C1429 C 0.21645 0.68472 0.13538 0.0
C1430 C 0.21852 0.66656 0.15807 0.0
C1431 C 0.22882 0.67974 0.18107 0.0
C1432 C 0.20251 0.6699 0.11159 0.0
C1433 C 0.21285 0.64932 0.10413 0.0
C1434 C 0.17783 0.67439 0.09722 0.0
C1435 C 0.16492 0.69471 0.10445 0.0
C1436 C 0.15407 0.68894 0.12768 0.0
C1437 C 0.14126 0.70779 0.13404 0.0
C1438 C 0.13905 0.73237 0.11726 0.0
C1439 C 0.14972 0.73821 0.09412 0.0
C1440 C 0.1625 0.71939 0.08764 0.0
C1441 C 0.11257 0.56289 0.05038 0.0
C1442 C 0.09789 0.57455 0.02928 0.0
C1443 C 0.13919 0.58189 0.06225 0.0
C1444 C 0.1515 0.61257 0.05294 0.0
C1445 C 0.1387 0.62281 0.02989 0.0
C1446 C 0.11207 0.60395 0.01815 0.0
C1447 C 0.17244 0.63508 0.07018 0.0
C1448 C 0.16339 0.65725 0.07656 0.0
C1449 C 0.19813 0.63182 0.0835 0.0
C1450 C 0.21007 0.61062 0.07612 0.0
C1451 C 0.21325 0.61081 0.0507 0.0
C1452 C 0.22514 0.59139 0.04384 0.0
C1453 C 0.23409 0.57174 0.06227 0.0
C1454 C 0.23109 0.57142 0.08758 0.0
C1455 C 0.21915 0.59074 0.09453 0.0
H1456 H 0.24337 0.5568 0.05694 0.0
H1457 H 0.12909 0.74693 0.12221 0.0
H1458 H 0.35945 0.78576 0.83224 0.0
H1459 H 0.38022 0.8093 0.87232 0.0
H1460 H 0.29595 0.77066 0.89738 0.0
H1461 H 0.27526 0.74775 0.8574 0.0
H1462 H 0.31708 0.83015 0.89846 0.0
H1463 H 0.35098 0.74953 0.92842 0.0
H1464 H 0.37436 0.71339 0.92541 0.0
H1465 H 0.4555 0.78775 0.91962 0.0
H1466 H 0.4325 0.82442 0.92205 0.0
H1467 H 0.44066 0.89972 0.01112 0.0
H1468 H 0.39858 0.85814 0.99311 0.0
H1469 H 0.39355 0.91552 0.92392 0.0
H1470 H 0.43537 0.9573 0.94212 0.0
H1471 H 0.40822 0.83624 0.95481 0.0
H1472 H 0.32824 0.88617 0.88828 0.0
H1473 H 0.30351 0.92141 0.89007 0.0
H1474 H 0.31186 0.90569 0.97112 0.0
H1475 H 0.33615 0.86988 0.96983 0.0
C1476 C 0.3457 0.78146 0.84673 0.0
C1477 C 0.31579 0.76545 0.84177 0.0
C1478 C 0.35749 0.79488 0.86956 0.0
C1479 C 0.33948 0.79184 0.88768 0.0
C1480 C 0.3101 0.77345 0.88355 0.0
C1481 C 0.29834 0.76036 0.86074 0.0
C1482 C 0.35043 0.81102 0.90918 0.0
C1483 C 0.33681 0.8313 0.91106 0.0
C1484 C 0.37568 0.81181 0.9259 0.0
C1485 C 0.38994 0.78977 0.92536 0.0
C1486 C 0.37379 0.75821 0.92642 0.0
C1487 C 0.38697 0.73762 0.92479 0.0
C1488 C 0.41639 0.74827 0.92231 0.0
C1489 C 0.43271 0.77953 0.92156 0.0
C1490 C 0.41961 0.80023 0.9231 0.0
C1491 C 0.42967 0.90381 0.99249 0.0
C1492 C 0.44137 0.93128 0.97769 0.0
C1493 C 0.40572 0.88007 0.98224 0.0
C1494 C 0.39332 0.88359 0.95708 0.0
C1495 C 0.40272 0.91238 0.94346 0.0
C1496 C 0.42659 0.93628 0.95383 0.0
C1497 C 0.37555 0.85633 0.94341 0.0
C1498 C 0.38798 0.83457 0.94282 0.0
C1499 C 0.34906 0.85403 0.92803 0.0
C1500 C 0.33423 0.87542 0.92895 0.0
C1501 C 0.32466 0.89005 0.90649 0.0
C1502 C 0.31073 0.91017 0.90742 0.0
C1503 C 0.30618 0.91585 0.9307 0.0
C1504 C 0.31548 0.90135 0.9531 0.0
C1505 C 0.32938 0.88116 0.95229 0.0
H1506 H 0.29541 0.93146 0.93138 0.0
H1507 H 0.42654 0.73229 0.92099 0.0
H1508 H 0.20167 0.31383 0.8693 0.0
H1509 H 0.1871 0.34851 0.88852 0.0
H1510 H 0.10091 0.28054 0.88837 0.0
H1511 H 0.11525 0.24601 0.86916 0.0
H1512 H 0.1001 0.33758 0.87195 0.0
H1513 H 0.14895 0.29085 0.94068 0.0
H1514 H 0.18968 0.27748 0.96459 0.0
H1515 H 0.2414 0.37239 0.97028 0.0
H1516 H 0.20136 0.38642 0.9456 0.0
H1517 H 0.03765 0.37867 0.96032 0.0
H1518 H 0.05842 0.35368 0.93722 0.0
H1519 H 0.141 0.42781 0.94752 0.0
H1520 H 0.12041 0.45301 0.97114 0.0
H1521 H 0.14773 0.3735 0.95651 0.0
H1522 H 0.09881 0.42068 0.88996 0.0
H1523 H 0.0581 0.43463 0.86676 0.0
H1524 H 1.00693 0.3402 0.85753 0.0
H1525 H 0.0472 0.32563 0.88101 0.0
C1526 C 0.17955 0.30643 0.87318 0.0
C1527 C 0.15965 0.27709 0.86784 0.0
C1528 C 0.17131 0.32618 0.8843 0.0
C1529 C 0.14295 0.31706 0.89008 0.0
C1530 C 0.12291 0.2881 0.88414 0.0
C1531 C 0.13119 0.26829 0.87331 0.0
C1532 C 0.13397 0.33727 0.90264 0.0
C1533 C 0.11041 0.34528 0.8905 0.0
C1534 C 0.14795 0.34812 0.92654 0.0
C1535 C 0.17228 0.3397 0.9409 0.0
C1536 C 0.16918 0.30891 0.94663 0.0
C1537 C 0.19215 0.30121 0.96034 0.0
C1538 C 0.21821 0.32409 0.96876 0.0
C1539 C 0.22132 0.35472 0.96352 0.0
C1540 C 0.19852 0.36255 0.94962 0.0
C1541 C 0.06023 0.38985 0.95768 0.0
C1542 C 0.07728 0.41802 0.9676 0.0
C1543 C 0.07206 0.37552 0.9443 0.0
C1544 C 0.10121 0.389 0.94026 0.0
C1545 C 0.11843 0.41699 0.95029 0.0
C1546 C 0.10658 0.43142 0.96373 0.0
C1547 C 0.11355 0.37337 0.926 0.0
C1548 C 0.13768 0.3662 0.93779 0.0
C1549 C 0.10022 0.36339 0.90171 0.0
C1550 C 0.07597 0.37205 0.88742 0.0
C1551 C 0.07881 0.40286 0.88314 0.0
C1552 C 0.05582 0.41089 0.86991 0.0
C1553 C 0.02993 0.38831 0.86072 0.0
C1554 C 0.027 0.35766 0.86468 0.0
C1555 C 0.04991 0.34951 0.87792 0.0
H1556 H 1.01215 0.39457 0.85048 0.0
H1557 H 0.23594 0.3181 0.97946 0.0
H1558 H 0.74283 0.211 0.8118 0.0
H1559 H 0.71279 0.18001 0.84371 0.0
H1560 H 0.64163 0.14356 0.7849 0.0
H1561 H 0.67161 0.17553 0.75292 0.0
H1562 H 0.62179 0.16064 0.81733 0.0
H1563 H 0.67389 0.08928 0.83204 0.0
H1564 H 0.71331 0.06906 0.84361 0.0
H1565 H 0.74935 0.12586 0.90555 0.0
H1566 H 0.7095 0.14549 0.89491 0.0
H1567 H 0.53854 0.04883 0.91114 0.0
H1568 H 0.56217 0.07746 0.87409 0.0
H1569 H 0.63509 0.13182 0.924 0.0
H1570 H 0.61207 0.1032 0.96053 0.0
H1571 H 0.65087 0.10229 0.89409 0.0
H1572 H 0.59307 0.16446 0.88411 0.0
H1573 H 0.54773 0.17454 0.8782 0.0
H1574 H 0.52041 0.13224 0.80809 0.0
H1575 H 0.5655 0.12165 0.81371 0.0
C1576 C 0.72114 0.19571 0.80557 0.0
C1577 C 0.70969 0.19565 0.77975 0.0
C1578 C 0.70383 0.17778 0.82394 0.0
C1579 C 0.67472 0.15909 0.81694 0.0
C1580 C 0.66386 0.1578 0.79099 0.0
C1581 C 0.68108 0.17595 0.77266 0.0
C1582 C 0.6549 0.14363 0.83654 0.0
C1583 C 0.62802 0.1474 0.83387 0.0
C1584 C 0.66288 0.12695 0.85862 0.0
C1585 C 0.68907 0.11914 0.86245 0.0
C1586 C 0.69053 0.09783 0.84783 0.0
C1587 C 0.71267 0.08614 0.85447 0.0
C1588 C 0.73376 0.09612 0.87534 0.0
C1589 C 0.73296 0.11809 0.88945 0.0
C1590 C 0.71054 0.12936 0.88322 0.0
C1591 C 0.55911 0.06762 0.91403 0.0
C1592 C 0.57354 0.07376 0.93867 0.0
C1593 C 0.57265 0.08392 0.8929 0.0
C1594 C 0.60059 0.10665 0.89626 0.0
C1595 C 0.6137 0.1143 0.92087 0.0
C1596 C 0.60043 0.09799 0.94177 0.0
C1597 C 0.6182 0.11964 0.87501 0.0
C1598 C 0.64461 0.11539 0.87742 0.0
C1599 C 0.60967 0.13574 0.85283 0.0
C1600 C 0.5825 0.14193 0.84949 0.0
C1601 C 0.57727 0.15703 0.86756 0.0
C1602 C 0.55165 0.16292 0.86423 0.0
C1603 C 0.53115 0.15393 0.84283 0.0
C1604 C 0.53628 0.13914 0.82468 0.0
C1605 C 0.56188 0.13323 0.82791 0.0
H1606 H 0.51133 0.1585 0.84029 0.0
H1607 H 0.75077 0.0869 0.88055 0.0
H1608 H 0.76744 0.66213 0.8052 0.0
H1609 H 0.79824 0.63911 0.83345 0.0
H1610 H 0.87331 0.71933 0.81985 0.0
H1611 H 0.8421 0.74144 0.78938 0.0
H1612 H 0.89105 0.67672 0.82367 0.0
H1613 H 0.83809 0.69136 0.88394 0.0
H1614 H 0.79551 0.68787 0.90261 0.0
H1615 H 0.76116 0.59059 0.90052 0.0
H1616 H 0.80367 0.59344 0.88223 0.0
H1617 H 0.97951 0.62424 0.9276 0.0
H1618 H 0.95208 0.65108 0.89826 0.0
H1619 H 0.87509 0.56991 0.89905 0.0
H1620 H 0.90235 0.5431 0.92857 0.0
H1621 H 0.86033 0.6155 0.90311 0.0
H1622 H 0.91568 0.60138 0.84554 0.0
H1623 H 0.96015 0.60523 0.83002 0.0
H1624 H 0.99138 0.70286 0.82856 0.0
H1625 H 0.94724 0.69957 0.84439 0.0
C1626 C 0.79049 0.67528 0.80841 0.0
C1627 C 0.80181 0.70429 0.79528 0.0
C1628 C 0.80837 0.66204 0.82511 0.0
C1629 C 0.83866 0.67737 0.83018 0.0
C1630 C 0.85019 0.70656 0.81697 0.0
C1631 C 0.83217 0.71964 0.79967 0.0
C1632 C 0.8579 0.66217 0.84801 0.0
C1633 C 0.88435 0.66389 0.84125 0.0
C1634 C 0.84972 0.64435 0.87104 0.0
C1635 C 0.82385 0.64268 0.88144 0.0
C1636 C 0.82132 0.66928 0.88728 0.0
C1637 C 0.79727 0.6674 0.89787 0.0
C1638 C 0.77555 0.63908 0.90251 0.0
C1639 C 0.77795 0.61252 0.89682 0.0
C1640 C 0.80207 0.61424 0.88648 0.0
C1641 C 0.95687 0.61174 0.92121 0.0
C1642 C 0.94359 0.58103 0.93065 0.0
C1643 C 0.941 0.62731 0.90422 0.0
C1644 C 0.91108 0.61291 0.89583 0.0
C1645 C 0.89795 0.58207 0.90489 0.0
C1646 C 0.91381 0.56647 0.9218 0.0
C1647 C 0.89322 0.62998 0.87867 0.0
C1648 C 0.86704 0.62852 0.88558 0.0
C1649 C 0.9018 0.64819 0.85598 0.0
C1650 C 0.92829 0.65021 0.8464 0.0
C1651 C 0.93213 0.62366 0.84209 0.0
C1652 C 0.95726 0.62574 0.83321 0.0
C1653 C 0.97861 0.65426 0.82838 0.0
C1654 C 0.97484 0.68077 0.83235 0.0
C1655 C 0.94976 0.67882 0.84125 0.0
H1656 H 0.99806 0.65583 0.82151 0.0
H1657 H 0.75693 0.63771 0.91064 0.0
H1658 H 0.25754 0.3458 0.20483 0.0
H1659 H 0.22523 0.36712 0.17593 0.0
H1660 H 0.15213 0.28566 0.19114 0.0
H1661 H 0.18478 0.26447 0.22078 0.0
H1662 H 0.1471 0.30799 0.13915 0.0
H1663 H 0.16512 0.34927 0.21896 0.0
H1664 H 0.19275 0.37628 0.25665 0.0
H1665 H 0.23222 0.457 0.2091 0.0
H1666 H 0.20523 0.43034 0.1711 0.0
H1667 H 0.04328 0.37685 0.08222 0.0
H1668 H 0.07139 0.35073 0.11148 0.0
H1669 H 0.14695 0.43347 0.11181 0.0
H1670 H 0.11877 0.45983 0.08299 0.0
H1671 H 0.14883 0.40801 0.15686 0.0
H1672 H 0.13349 0.36736 0.07718 0.0
H1673 H 0.1053 0.34206 0.03888 0.0
H1674 H 0.06188 0.26153 0.08494 0.0
H1675 H 0.08955 0.28652 0.12355 0.0
C1676 C 0.23467 0.33194 0.20155 0.0
C1677 C 0.22423 0.30265 0.21445 0.0
C1678 C 0.216 0.34442 0.18511 0.0
C1679 C 0.1858 0.32841 0.18106 0.0
C1680 C 0.1752 0.29877 0.19353 0.0
C1681 C 0.19401 0.28635 0.21034 0.0
C1682 C 0.16573 0.34335 0.16476 0.0
C1683 C 0.14722 0.32963 0.14335 0.0
C1684 C 0.16595 0.37215 0.16936 0.0
C1685 C 0.18329 0.38771 0.19215 0.0
C1686 C 0.17998 0.37264 0.21651 0.0
C1687 C 0.19546 0.38793 0.23794 0.0
C1688 C 0.21412 0.41836 0.23525 0.0
C1689 C 0.21768 0.43345 0.21114 0.0
C1690 C 0.20232 0.41826 0.18966 0.0
C1691 C 0.06577 0.38978 0.08873 0.0
C1692 C 0.07833 0.42086 0.07995 0.0
C1693 C 0.08215 0.37452 0.1054 0.0
C1694 C 0.11195 0.3895 0.11389 0.0
C1695 C 0.12423 0.42082 0.10583 0.0
C1696 C 0.10787 0.43611 0.08921 0.0
C1697 C 0.13029 0.37291 0.131 0.0
C1698 C 0.14858 0.38634 0.1526 0.0
C1699 C 0.13002 0.34401 0.12642 0.0
C1700 C 0.11333 0.32895 0.10327 0.0
C1701 C 0.11776 0.34435 0.07915 0.0
C1702 C 0.1019 0.33005 0.05738 0.0
C1703 C 0.08174 0.30024 0.05948 0.0
C1704 C 0.07746 0.28464 0.08335 0.0
C1705 C 0.09322 0.29886 0.10518 0.0
H1706 H 0.0695 0.28921 0.0426 0.0
H1707 H 0.22576 0.43033 0.25183 0.0
H1708 H 0.19604 0.66053 0.77995 0.0
H1709 H 0.15639 0.63524 0.80495 0.0
H1710 H 0.19185 0.70924 0.8536 0.0
H1711 H 0.23309 0.7324 0.83007 0.0
H1712 H 0.17901 0.66416 0.88212 0.0
H1713 H 0.1173 0.68717 0.80891 0.0
H1714 H 0.09617 0.6898 0.76386 0.0
H1715 H 0.07103 0.59296 0.76366 0.0
H1716 H 0.09158 0.58968 0.80872 0.0
H1717 H 0.05939 0.59452 0.95232 0.0
H1718 H 0.08549 0.62993 0.91909 0.0
H1719 H 0.08737 0.55405 0.88547 0.0
H1720 H 0.06224 0.51888 0.91906 0.0
H1721 H 0.07713 0.60436 0.84932 0.0
H1722 H 0.1418 0.58412 0.92282 0.0
H1723 H 0.15946 0.58233 0.9686 0.0
H1724 H 0.17707 0.67804 0.96801 0.0
H1725 H 0.15905 0.68028 0.92224 0.0
C1726 C 0.19481 0.67182 0.79553 0.0
C1727 C 0.21709 0.69924 0.80234 0.0
C1728 C 0.17187 0.65742 0.80983 0.0
C1729 C 0.17018 0.67043 0.83108 0.0
C1730 C 0.19218 0.69845 0.83737 0.0
C1731 C 0.21567 0.71217 0.82359 0.0
C1732 C 0.14771 0.65327 0.84832 0.0
C1733 C 0.15661 0.65191 0.8747 0.0
C1734 C 0.11832 0.63632 0.83921 0.0
C1735 C 0.10625 0.63827 0.81207 0.0
C1736 C 0.10745 0.6665 0.79917 0.0
C1737 C 0.09552 0.66809 0.77369 0.0
C1738 C 0.08254 0.64163 0.76087 0.0
C1739 C 0.08117 0.61346 0.77359 0.0
C1740 C 0.0928 0.61169 0.79912 0.0
C1741 C 0.06446 0.58541 0.93728 0.0
C1742 C 0.05845 0.55399 0.93795 0.0
C1743 C 0.07954 0.60563 0.91843 0.0
C1744 C 0.08841 0.59462 0.8998 0.0
C1745 C 0.08057 0.56303 0.89951 0.0
C1746 C 0.06614 0.54295 0.91863 0.0
C1747 C 0.1087 0.61586 0.88251 0.0
C1748 C 0.09944 0.61754 0.85637 0.0
C1749 C 0.13758 0.63354 0.89178 0.0
C1750 C 0.14879 0.63229 0.91919 0.0
C1751 C 0.14921 0.60473 0.93249 0.0
C1752 C 0.15932 0.60364 0.95842 0.0
C1753 C 0.16935 0.63005 0.9712 0.0
C1754 C 0.16928 0.6576 0.95807 0.0
C1755 C 0.15913 0.6588 0.93214 0.0
H1756 H 0.17727 0.62918 0.99125 0.0
H1757 H 0.07343 0.64295 0.74113 0.0
H1758 H 0.35194 0.2573 0.81031 0.0
H1759 H 0.37616 0.22576 0.83722 0.0
H1760 H 0.30408 0.14474 0.81519 0.0
H1761 H 0.27973 0.17665 0.78764 0.0
H1762 H 0.32593 0.13865 0.86711 0.0
H1763 H 0.36632 0.16684 0.7895 0.0
H1764 H 0.38891 0.20197 0.7544 0.0
H1765 H 0.46245 0.24923 0.80678 0.0
H1766 H 0.44007 0.21468 0.84227 0.0
H1767 H 0.40695 0.04303 0.92138 0.0
H1768 H 0.37801 0.06822 0.89196 0.0
H1769 H 0.44919 0.15443 0.89868 0.0
H1770 H 0.47832 0.12931 0.92757 0.0
H1771 H 0.42529 0.15488 0.85253 0.0
H1772 H 0.38458 0.12959 0.93025 0.0
H1773 H 0.36225 0.09589 0.96611 0.0
H1774 H 0.28994 0.04454 0.91464 0.0
H1775 H 0.31205 0.0777 0.87843 0.0
C1776 C 0.34093 0.23275 0.81132 0.0
C1777 C 0.31352 0.21981 0.79688 0.0
C1778 C 0.35502 0.21457 0.82675 0.0
C1779 C 0.34249 0.18248 0.82835 0.0
C1780 C 0.31458 0.16931 0.81453 0.0
C1781 C 0.30046 0.18766 0.7988 0.0
C1782 C 0.35922 0.16331 0.84369 0.0
C1783 C 0.34745 0.14189 0.86356 0.0
C1784 C 0.38778 0.16759 0.83989 0.0
C1785 C 0.40138 0.18832 0.81858 0.0
C1786 C 0.3872 0.18487 0.79357 0.0
C1787 C 0.39999 0.20466 0.77359 0.0
C1788 C 0.42707 0.22786 0.77836 0.0
C1789 C 0.44145 0.23127 0.80312 0.0
C1790 C 0.42874 0.21158 0.82317 0.0
C1791 C 0.41676 0.06727 0.91632 0.0
C1792 C 0.4454 0.08378 0.92714 0.0
C1793 C 0.39986 0.08192 0.89958 0.0
C1794 C 0.41073 0.11377 0.89309 0.0
C1795 C 0.43972 0.13001 0.9031 0.0
C1796 C 0.4566 0.11541 0.91978 0.0
C1797 C 0.39222 0.1303 0.87626 0.0
C1798 C 0.40371 0.15139 0.85608 0.0
C1799 C 0.36349 0.12582 0.87991 0.0
C1800 C 0.35014 0.10589 0.90162 0.0
C1801 C 0.36403 0.11096 0.92657 0.0
C1802 C 0.35139 0.09198 0.94696 0.0
C1803 C 0.32474 0.06803 0.94265 0.0
C1804 C 0.31062 0.06306 0.91794 0.0
C1805 C 0.32319 0.08194 0.89748 0.0
H1806 H 0.31499 0.05336 0.95846 0.0
H1807 H 0.43693 0.24315 0.76287 0.0
H1808 H 0.76083 0.26651 0.83605 0.0
H1809 H 0.77823 0.29256 0.87545 0.0
H1810 H 0.86139 0.34202 0.84981 0.0
H1811 H 0.84381 0.31647 0.8104 0.0
H1812 H 0.86499 0.31612 0.8995 0.0
H1813 H 0.81803 0.37679 0.84425 0.0
H1814 H 0.77796 0.38806 0.8167 0.0
H1815 H 0.72859 0.36252 0.87886 0.0
H1816 H 0.76819 0.35043 0.90671 0.0
H1817 H 0.92287 0.46403 0.94976 0.0
H1818 H 0.88036 0.43155 0.92384 0.0
H1819 H 0.8729 0.35639 0.98099 0.0
H1820 H 0.91621 0.38841 0.00651 0.0
H1821 H 0.82489 0.3892 0.91973 0.0
H1822 H 0.87727 0.30055 0.95415 0.0
H1823 H 0.92325 0.29749 0.97737 0.0
H1824 H 0.96944 0.38938 0.94907 0.0
H1825 H 0.9238 0.39276 0.92545 0.0
C1826 C 0.78285 0.28283 0.83912 0.0
C1827 C 0.80125 0.28965 0.82068 0.0
C1828 C 0.79266 0.2977 0.8614 0.0
C1829 C 0.82101 0.31916 0.86537 0.0
C1830 C 0.83947 0.32544 0.84701 0.0
C1831 C 0.82953 0.31096 0.82465 0.0
C1832 C 0.83182 0.33536 0.88858 0.0
C1833 C 0.85587 0.33165 0.90419 0.0
C1834 C 0.82012 0.35596 0.89434 0.0
C1835 C 0.79591 0.36226 0.87748 0.0
C1836 C 0.79845 0.37308 0.85196 0.0
C1837 C 0.77588 0.37972 0.83631 0.0
C1838 C 0.75077 0.376 0.84603 0.0
C1839 C 0.74806 0.36535 0.87136 0.0
C1840 C 0.77055 0.35857 0.88709 0.0
C1841 C 0.91142 0.44099 0.95733 0.0
C1842 C 0.92331 0.42832 0.97964 0.0
C1843 C 0.88698 0.42246 0.94253 0.0
C1844 C 0.87417 0.39134 0.95017 0.0
C1845 C 0.88294 0.38023 0.97458 0.0
C1846 C 0.90772 0.39851 0.98911 0.0
C1847 C 0.85801 0.36987 0.93063 0.0
C1848 C 0.83317 0.37269 0.91561 0.0
C1849 C 0.86951 0.3491 0.92476 0.0
C1850 C 0.89713 0.34699 0.93833 0.0
C1851 C 0.89728 0.32001 0.95283 0.0
C1852 C 0.92326 0.31824 0.96605 0.0
C1853 C 0.94923 0.34326 0.96476 0.0
C1854 C 0.94931 0.37004 0.9501 0.0
C1855 C 0.9234 0.37189 0.9368 0.0
H1856 H 0.9693 0.34188 0.97506 0.0
H1857 H 0.73357 0.38163 0.83397 0.0
H1858 H 0.77492 0.91299 0.86846 0.0
H1859 H 0.74487 0.93015 0.88864 0.0
H1860 H 0.67574 0.84233 0.88196 0.0
H1861 H 0.70575 0.82517 0.86121 0.0
H1862 H 0.65412 0.8867 0.87243 0.0
H1863 H 0.72096 0.86172 0.93856 0.0
H1864 H 0.76897 0.86341 0.96031 0.0
H1865 H 0.79587 0.95981 0.96514 0.0
H1866 H 0.74814 0.95877 0.94309 0.0
H1867 H 0.57597 0.904 0.9625 0.0
H1868 H 0.60401 0.88704 0.93983 0.0
H1869 H 0.67423 0.97416 0.9459 0.0
H1870 H 0.64642 0.99121 0.96919 0.0
H1871 H 0.69477 0.92939 0.95574 0.0
H1872 H 0.62724 0.9539 0.88943 0.0
H1873 H 0.57894 0.95149 0.8679 0.0
H1874 H 0.55285 0.85503 0.86393 0.0
H1875 H 0.60089 0.8568 0.88574 0.0
C1876 C 0.75331 0.89728 0.87126 0.0
C1877 C 0.74294 0.86749 0.86358 0.0
C1878 C 0.73613 0.90713 0.88287 0.0
C1879 C 0.70821 0.88736 0.88747 0.0
C1880 C 0.69726 0.858 0.87883 0.0
C1881 C 0.71442 0.84819 0.86695 0.0
C1882 C 0.6909 0.89728 0.90171 0.0
C1883 C 0.66288 0.89564 0.8908 0.0
C1884 C 0.70241 0.90955 0.92552 0.0
C1885 C 0.73106 0.9102 0.93897 0.0
C1886 C 0.73718 0.88331 0.94411 0.0
C1887 C 0.76434 0.88415 0.95651 0.0
C1888 C 0.78548 0.91171 0.96405 0.0
C1889 C 0.77948 0.93848 0.95927 0.0
C1890 C 0.75237 0.93778 0.94684 0.0
C1891 C 0.59735 0.91971 0.95901 0.0
C1892 C 0.60878 0.94914 0.96763 0.0
C1893 C 0.61335 0.90995 0.94587 0.0
C1894 C 0.64112 0.92944 0.94067 0.0
C1895 C 0.65282 0.95869 0.94953 0.0
C1896 C 0.63684 0.96846 0.96284 0.0
C1897 C 0.65806 0.91905 0.92639 0.0
C1898 C 0.68601 0.92052 0.93734 0.0
C1899 C 0.64642 0.90652 0.90268 0.0
C1900 C 0.61758 0.90545 0.88943 0.0
C1901 C 0.61114 0.93214 0.88412 0.0
C1902 C 0.58382 0.9309 0.87184 0.0
C1903 C 0.56282 0.90311 0.8646 0.0
C1904 C 0.56913 0.87653 0.86957 0.0
C1905 C 0.59641 0.87765 0.88187 0.0
H1906 H 0.54168 0.90219 0.8551 0.0
H1907 H 0.8065 0.91232 0.97365 0.0
H1908 H 0.87065 0.70346 0.17591 0.0
H1909 H 0.88138 0.66678 0.15607 0.0
H1910 H 0.87108 0.71514 0.08299 0.0
H1911 H 0.85872 0.75086 0.10244 0.0
H1912 H 0.84974 0.65651 0.07774 0.0
H1913 H 0.93903 0.72614 0.11905 0.0
H1914 H 0.97209 0.7526 0.15518 0.0
H1915 H 0.96845 0.66653 0.19504 0.0
H1916 H 0.93507 0.63954 0.15924 0.0
H1917 H 0.97945 0.62703 0.04319 0.0
H1918 H 0.95879 0.65328 0.06498 0.0
H1919 H 0.88062 0.57327 0.06678 0.0
H1920 H 0.90106 0.54678 0.04425 0.0
H1921 H 0.94358 0.64386 0.10959 0.0
H1922 H 0.82281 0.59738 0.06678 0.0
H1923 H 0.79215 0.57623 0.02767 0.0
H1924 H 0.86326 0.6242 0.98544 0.0
H1925 H 0.8942 0.64599 0.02421 0.0
C1926 C 0.87007 0.70601 0.15555 0.0
C1927 C 0.86409 0.73047 0.14087 0.0
C1928 C 0.87653 0.68513 0.14424 0.0
C1929 C 0.87758 0.68843 0.11804 0.0
C1930 C 0.87057 0.71211 0.10324 0.0
C1931 C 0.86386 0.73282 0.11448 0.0
C1932 C 0.8874 0.66833 0.10615 0.0
C1933 C 0.87017 0.65357 0.08482 0.0
C1934 C 0.9142 0.66465 0.11513 0.0
C1935 C 0.93433 0.68083 0.1366 0.0
C1936 C 0.94513 0.71286 0.13559 0.0
C1937 C 0.96394 0.72795 0.156 0.0
C1938 C 0.97229 0.71125 0.17742 0.0
C1939 C 0.96192 0.67943 0.17845 0.0
C1940 C 0.94307 0.66423 0.15811 0.0
C1941 C 0.95784 0.61483 0.04815 0.0
C1942 C 0.94197 0.58467 0.04188 0.0
C1943 C 0.94605 0.62995 0.06074 0.0
C1944 C 0.91807 0.61542 0.06751 0.0
C1945 C 0.90212 0.58518 0.0615 0.0
C1946 C 0.91389 0.57 0.0487 0.0
C1947 C 0.90612 0.63228 0.08093 0.0
C1948 C 0.92293 0.64638 0.10267 0.0
C1949 C 0.87928 0.6359 0.07193 0.0
C1950 C 0.86093 0.62293 0.04848 0.0
C1951 C 0.8319 0.60341 0.04914 0.0
C1952 C 0.81446 0.59133 0.02703 0.0
C1953 C 0.8258 0.59874 0.00411 0.0
C1954 C 0.85456 0.61835 0.00323 0.0
C1955 C 0.87206 0.63054 0.02528 0.0
H1956 H 0.81227 0.58937 0.98701 0.0
H1957 H 0.98686 0.72298 0.1932 0.0
H1958 H 0.30068 0.78511 0.18823 0.0
H1959 H 0.32969 0.81828 0.15609 0.0
H1960 H 0.40045 0.85634 0.21477 0.0
H1961 H 0.37174 0.82237 0.24679 0.0
H1962 H 0.35366 0.87505 0.14322 0.0
H1963 H 0.46487 0.87333 0.19597 0.0
H1964 H 0.48361 0.83878 0.22614 0.0
H1965 H 0.40897 0.76178 0.20133 0.0
H1966 H 0.39 0.79581 0.17077 0.0
H1967 H 0.45982 0.98996 0.08231 0.0
H1968 H 0.43487 0.95688 0.11663 0.0
H1969 H 0.4524 0.8821 0.09595 0.0
H1970 H 0.4783 0.91578 0.06184 0.0
H1971 H 0.45351 0.87757 0.14575 0.0
H1972 H 0.38911 0.89146 0.07432 0.0
H1973 H 0.36772 0.91936 0.03956 0.0
H1974 H 0.34248 0.95916 0.09335 0.0
H1975 H 0.36442 0.9321 0.12859 0.0
C1976 C 0.32224 0.8009 0.19427 0.0
C1977 C 0.33389 0.80142 0.22003 0.0
C1978 C 0.33889 0.81983 0.17586 0.0
C1979 C 0.36759 0.83951 0.18284 0.0
C1980 C 0.37871 0.84088 0.20873 0.0
C1981 C 0.36222 0.82166 0.22707 0.0
C1982 C 0.38619 0.85785 0.16312 0.0
C1983 C 0.37551 0.87565 0.14386 0.0
C1984 C 0.41439 0.85787 0.16323 0.0
C1985 C 0.4259 0.83718 0.18126 0.0
C1986 C 0.45253 0.84902 0.19687 0.0
C1987 C 0.46318 0.82952 0.21405 0.0
C1988 C 0.44745 0.79812 0.2157 0.0
C1989 C 0.42109 0.78612 0.20009 0.0
C1990 C 0.41037 0.8055 0.18285 0.0
C1991 C 0.45922 0.96673 0.08568 0.0
C1992 C 0.47124 0.95546 0.06967 0.0
C1993 C 0.44465 0.94772 0.1051 0.0
C1994 C 0.44105 0.91674 0.10855 0.0
C1995 C 0.45475 0.90588 0.09364 0.0
C1996 C 0.46974 0.92514 0.07428 0.0
C1997 C 0.42134 0.89555 0.12643 0.0
C1998 C 0.43173 0.8771 0.14522 0.0
C1999 C 0.39241 0.89393 0.12523 0.0
C2000 C 0.37888 0.91011 0.10415 0.0
C2001 C 0.37932 0.90644 0.0788 0.0
C2002 C 0.36709 0.92211 0.059 0.0
C2003 C 0.35396 0.94121 0.06428 0.0
C2004 C 0.35289 0.94455 0.08936 0.0
C2005 C 0.36525 0.92907 0.10925 0.0
H2006 H 0.34447 0.95331 0.04893 0.0
H2007 H 0.45571 0.78308 0.22904 0.0
H2008 H 0.72432 0.28827 0.15529 0.0
H2009 H 0.7113 0.26936 0.11271 0.0
H2010 H 0.66668 0.17865 0.14537 0.0
H2011 H 0.67956 0.19718 0.18726 0.0
H2012 H 0.71637 0.18944 0.1157 0.0
H2013 H 0.62588 0.20871 0.1156 0.0
H2014 H 0.60083 0.24428 0.11545 0.0
H2015 H 0.63717 0.29474 0.04906 0.0
H2016 H 0.66273 0.25961 0.04905 0.0
H2017 H 0.60627 0.06704 0.06369 0.0
H2018 H 0.64709 0.10877 0.08273 0.0
H2019 H 0.64277 0.16723 0.01405 0.0
H2020 H 0.60105 0.12579 0.99548 0.0
H2021 H 0.63421 0.19049 0.04976 0.0
H2022 H 0.70811 0.15688 0.04189 0.0
H2023 H 0.73353 0.12175 0.04197 0.0
H2024 H 0.73189 0.09976 0.12196 0.0
H2025 H 0.70598 0.13425 0.12233 0.0
C2026 C 0.71079 0.2646 0.15304 0.0
C2027 C 0.70261 0.24411 0.17428 0.0
C2028 C 0.7037 0.25381 0.12891 0.0
C2029 C 0.68853 0.22259 0.1262 0.0
C2030 C 0.67862 0.20277 0.14723 0.0
C2031 C 0.68557 0.21346 0.17105 0.0
C2032 C 0.68402 0.2092 0.10214 0.0
C2033 C 0.69868 0.18972 0.10098 0.0
C2034 C 0.66197 0.21098 0.08253 0.0
C2035 C 0.6465 0.23186 0.08253 0.0
C2036 C 0.62873 0.22757 0.10112 0.0
C2037 C 0.6144 0.24759 0.10103 0.0
C2038 C 0.6175 0.27183 0.08231 0.0
C2039 C 0.63486 0.27601 0.06359 0.0
C2040 C 0.64926 0.25606 0.06362 0.0
C2041 C 0.61497 0.08832 0.05227 0.0
C2042 C 0.60039 0.09348 0.02838 0.0
C2043 C 0.63843 0.11226 0.06311 0.0
C2044 C 0.6479 0.14138 0.0499 0.0
C2045 C 0.63571 0.14513 0.02468 0.0
C2046 C 0.61196 0.1214 0.01406 0.0
C2047 C 0.66508 0.16849 0.06418 0.0
C2048 C 0.65288 0.19078 0.06356 0.0
C2049 C 0.68956 0.1693 0.08213 0.0
C2050 C 0.70508 0.14828 0.08211 0.0
C2051 C 0.71299 0.14443 0.05949 0.0
C2052 C 0.72751 0.12461 0.05945 0.0
C2053 C 0.73433 0.10855 0.08196 0.0
C2054 C 0.72665 0.11226 0.10454 0.0
C2055 C 0.71209 0.13201 0.10468 0.0
H2056 H 0.74558 0.09322 0.08189 0.0
H2057 H 0.60639 0.28731 0.08227 0.0
H2058 H 0.68201 0.74522 0.78881 0.0
H2059 H 0.6472 0.71737 0.81871 0.0
H2060 H 0.67219 0.63945 0.82244 0.0
H2061 H 0.70676 0.66723 0.79284 0.0
H2062 H 0.61399 0.62281 0.82178 0.0
H2063 H 0.70392 0.69085 0.86445 0.0
H2064 H 0.74191 0.74155 0.8708 0.0
H2065 H 0.67907 0.77401 0.88765 0.0
H2066 H 0.64056 0.72363 0.88079 0.0
H2067 H 0.60302 0.5399 0.93679 0.0
H2068 H 0.62114 0.57566 0.90108 0.0
H2069 H 0.57872 0.63319 0.9169 0.0
H2070 H 0.56138 0.59775 0.95343 0.0
H2071 H 0.63654 0.66508 0.90529 0.0
H2072 H 0.54787 0.5942 0.87102 0.0
H2073 H 0.50931 0.5443 0.86323 0.0
H2074 H 0.5666 0.51849 0.82954 0.0
H2075 H 0.60577 0.56803 0.83753 0.0
C2076 C 0.67936 0.72187 0.79567 0.0
C2077 C 0.69629 0.70785 0.78841 0.0
C2078 C 0.6597 0.70611 0.81268 0.0
C2079 C 0.6573 0.67647 0.82274 0.0
C2080 C 0.67356 0.66219 0.81464 0.0
C2081 C 0.69313 0.67791 0.7977 0.0
C2082 C 0.64 0.66101 0.84338 0.0
C2083 C 0.6186 0.63209 0.83998 0.0
C2084 C 0.64598 0.67361 0.86691 0.0
C2085 C 0.66929 0.7036 0.8718 0.0
C2086 C 0.69817 0.70885 0.86934 0.0
C2087 C 0.7198 0.73754 0.87301 0.0
C2088 C 0.71289 0.76104 0.87953 0.0
C2089 C 0.68437 0.75583 0.88251 0.0
C2090 C 0.66263 0.72722 0.87871 0.0
C2091 C 0.59774 0.56028 0.93283 0.0
C2092 C 0.58018 0.56578 0.94748 0.0
C2093 C 0.60795 0.58056 0.91238 0.0
C2094 C 0.60078 0.60667 0.90622 0.0
C2095 C 0.58416 0.61292 0.92131 0.0
C2096 C 0.57388 0.59249 0.94185 0.0
C2097 C 0.61056 0.62678 0.88363 0.0
C2098 C 0.6309 0.65634 0.88678 0.0
C2099 C 0.6033 0.61499 0.8597 0.0
C2100 C 0.5799 0.58487 0.85504 0.0
C2101 C 0.55242 0.57778 0.86223 0.0
C2102 C 0.53039 0.54958 0.8577 0.0
C2103 C 0.53551 0.52824 0.84592 0.0
C2104 C 0.56267 0.53506 0.83864 0.0
C2105 C 0.58479 0.56324 0.84313 0.0
H2106 H 0.51841 0.50642 0.84241 0.0
H2107 H 0.72966 0.78325 0.88232 0.0
H2108 H 0.3504 0.58583 0.76276 0.0
H2109 H 0.39303 0.58574 0.7929 0.0
H2110 H 0.41395 0.68004 0.80388 0.0
H2111 H 0.37267 0.68106 0.77251 0.0
H2112 H 0.45571 0.62758 0.7962 0.0
H2113 H 0.42326 0.67332 0.87658 0.0
H2114 H 0.37993 0.67151 0.89277 0.0
H2115 H 0.32752 0.59367 0.85158 0.0
H2116 H 0.37072 0.59382 0.83642 0.0
H2117 H 0.51732 0.63785 0.94252 0.0
H2118 H 0.50754 0.66085 0.89974 0.0
H2119 H 0.47717 0.57262 0.87059 0.0
H2120 H 0.4864 0.5496 0.91316 0.0
H2121 H 0.44693 0.63224 0.88547 0.0
H2122 H 0.47819 0.58542 0.80576 0.0
H2123 H 0.52092 0.58611 0.78917 0.0
H2124 H 0.57504 0.66355 0.83026 0.0
H2125 H 0.53268 0.66319 0.84726 0.0
C2126 C 0.3645 0.60682 0.77098 0.0
C2127 C 0.35777 0.63335 0.7656 0.0
C2128 C 0.38875 0.60667 0.78826 0.0
C2129 C 0.40614 0.63278 0.80077 0.0
C2130 C 0.40039 0.65963 0.79459 0.0
C2131 C 0.37664 0.66002 0.77691 0.0
C2132 C 0.42913 0.63143 0.82153 0.0
C2133 C 0.45386 0.6284 0.8158 0.0
C2134 C 0.4268 0.63352 0.84688 0.0
C2135 C 0.40024 0.6342 0.85466 0.0
C2136 C 0.40249 0.65585 0.87089 0.0
C2137 C 0.37798 0.65487 0.88017 0.0
C2138 C 0.35094 0.63264 0.87304 0.0
C2139 C 0.34842 0.6111 0.85687 0.0
C2140 C 0.37297 0.61159 0.84795 0.0
C2141 C 0.50962 0.62367 0.92678 0.0
C2142 C 0.5015 0.59191 0.93105 0.0
C2143 C 0.50439 0.63685 0.90236 0.0
C2144 C 0.49155 0.61838 0.88207 0.0
C2145 C 0.48733 0.58731 0.88592 0.0
C2146 C 0.49205 0.57409 0.91031 0.0
C2147 C 0.4737 0.62815 0.86036 0.0
C2148 C 0.4494 0.63237 0.86585 0.0
C2149 C 0.47624 0.62658 0.83499 0.0
C2150 C 0.50226 0.62426 0.82777 0.0
C2151 C 0.49927 0.6024 0.81146 0.0
C2152 C 0.52339 0.60279 0.80191 0.0
C2153 C 0.55057 0.62508 0.8084 0.0
C2154 C 0.55392 0.64639 0.82514 0.0
C2155 C 0.52989 0.64593 0.83493 0.0
H2156 H 0.56901 0.62576 0.80043 0.0
H2157 H 0.33195 0.63205 0.88012 0.0
H2158 H 0.30751 0.36364 0.76269 0.0
H2159 H 0.32853 0.40686 0.78913 0.0
H2160 H 0.31314 0.34422 0.85613 0.0
H2161 H 0.29186 0.30157 0.83022 0.0
H2162 H 0.30078 0.39166 0.86141 0.0
H2163 H 0.38156 0.37546 0.83252 0.0
H2164 H 0.40999 0.37492 0.79995 0.0
H2165 H 0.41825 0.4669 0.77285 0.0
H2166 H 0.38989 0.46794 0.80534 0.0
H2167 H 0.41411 0.40597 0.95757 0.0
H2168 H 0.37422 0.39791 0.92275 0.0
H2169 H 0.40948 0.49305 0.89611 0.0
H2170 H 0.44917 0.50141 0.9314 0.0
H2171 H 0.40567 0.452 0.86181 0.0
H2172 H 0.34296 0.4694 0.90702 0.0
H2173 H 0.31879 0.46726 0.94347 0.0
H2174 H 0.27826 0.36992 0.94288 0.0
H2175 H 0.3024 0.37138 0.90666 0.0
C2176 C 0.30856 0.3592 0.78307 0.0
C2177 C 0.29823 0.32914 0.79435 0.0
C2178 C 0.32048 0.3839 0.79812 0.0
C2179 C 0.32241 0.37879 0.82463 0.0
C2180 C 0.31159 0.34882 0.83573 0.0
C2181 C 0.2996 0.32433 0.82082 0.0
C2182 C 0.33754 0.40376 0.84152 0.0
C2183 C 0.32366 0.40518 0.86142 0.0
C2184 C 0.36701 0.42251 0.84089 0.0
C2185 C 0.38334 0.42163 0.82104 0.0
C2186 C 0.3893 0.39547 0.81948 0.0
C2187 C 0.40548 0.39512 0.80113 0.0
C2188 C 0.41586 0.42084 0.78431 0.0
C2189 C 0.41014 0.44699 0.78585 0.0
C2190 C 0.39406 0.44748 0.80424 0.0
C2191 C 0.41282 0.42535 0.94478 0.0
C2192 C 0.4348 0.45421 0.94699 0.0
C2193 C 0.38993 0.42081 0.92501 0.0
C2194 C 0.38889 0.44495 0.90693 0.0
C2195 C 0.40979 0.47425 0.91003 0.0
C2196 C 0.43241 0.47894 0.93017 0.0
C2197 C 0.3695 0.43768 0.88277 0.0
C2198 C 0.38248 0.43978 0.86133 0.0
C2199 C 0.33938 0.4217 0.88228 0.0
C2200 C 0.32452 0.42054 0.90403 0.0
C2201 C 0.32898 0.44751 0.91471 0.0
C2202 C 0.31525 0.44642 0.93534 0.0
C2203 C 0.29696 0.41849 0.94547 0.0
C2204 C 0.29233 0.39157 0.93497 0.0
C2205 C 0.30598 0.39253 0.91432 0.0
H2206 H 0.28642 0.41772 0.96148 0.0
H2207 H 0.42835 0.42051 0.77008 0.0
H2208 H 0.67622 0.31808 0.82963 0.0
H2209 H 0.66341 0.33278 0.86581 0.0
H2210 H 0.65937 0.41511 0.82249 0.0
H2211 H 0.6754 0.40236 0.78729 0.0
H2212 H 0.67794 0.42875 0.86655 0.0
H2213 H 0.59679 0.34461 0.83191 0.0
H2214 H 0.5712 0.29268 0.81804 0.0
H2215 H 0.59023 0.25447 0.8933 0.0
H2216 H 0.61622 0.30622 0.90755 0.0
H2217 H 0.54385 0.40042 0.93254 0.0
H2218 H 0.56785 0.38619 0.90406 0.0
H2219 H 0.65068 0.42981 0.94837 0.0
H2220 H 0.62666 0.44546 0.97657 0.0
H2221 H 0.5959 0.35212 0.90694 0.0
H2222 H 0.70429 0.45582 0.91042 0.0
H2223 H 0.72344 0.51035 0.9181 0.0
H2224 H 0.63857 0.51395 0.89482 0.0
H2225 H 0.61903 0.4596 0.88668 0.0
C2226 C 0.67329 0.33967 0.82785 0.0
C2227 C 0.67654 0.35874 0.8051 0.0
C2228 C 0.66545 0.34785 0.84857 0.0
C2229 C 0.6595 0.37468 0.84682 0.0
C2230 C 0.66356 0.39415 0.82445 0.0
C2231 C 0.67226 0.38648 0.80402 0.0
C2232 C 0.64801 0.38207 0.86771 0.0
C2233 C 0.66005 0.41191 0.87541 0.0
C2234 C 0.62437 0.36038 0.87921 0.0
C2235 C 0.60872 0.32926 0.87072 0.0
C2236 C 0.59566 0.32512 0.84546 0.0
C2237 C 0.58107 0.29573 0.83754 0.0
C2238 C 0.57917 0.27029 0.85476 0.0
C2239 C 0.59178 0.2742 0.87997 0.0
C2240 C 0.60642 0.30355 0.88798 0.0
C2241 C 0.56718 0.40692 0.93643 0.0
C2242 C 0.58331 0.4242 0.95687 0.0
C2243 C 0.58093 0.39866 0.92006 0.0
C2244 C 0.61118 0.40708 0.92378 0.0
C2245 C 0.62737 0.42351 0.94471 0.0
C2246 C 0.6136 0.4323 0.96093 0.0
C2247 C 0.62533 0.39897 0.90531 0.0
C2248 C 0.61394 0.36891 0.89822 0.0
C2249 C 0.6486 0.42083 0.89351 0.0
C2250 C 0.66015 0.45354 0.8983 0.0
C2251 C 0.68974 0.46827 0.90692 0.0
C2252 C 0.70066 0.49914 0.91134 0.0
C2253 C 0.68221 0.51556 0.90705 0.0
C2254 C 0.65282 0.50117 0.89824 0.0
C2255 C 0.64181 0.47033 0.89375 0.0
H2256 H 0.69071 0.53945 0.91049 0.0
H2257 H 0.56787 0.24755 0.8486 0.0
H2258 H 0.71896 0.43303 0.23006 0.0
H2259 H 0.67552 0.43128 0.20037 0.0
H2260 H 0.71235 0.4137 0.14076 0.0
H2261 H 0.75592 0.41563 0.17048 0.0
H2262 H 0.67827 0.44751 0.12319 0.0
H2263 H 0.67125 0.35396 0.17211 0.0
H2264 H 0.67556 0.32063 0.21099 0.0
H2265 H 0.61365 0.34358 0.24069 0.0
H2266 H 0.60895 0.37707 0.20193 0.0
H2267 H 0.53833 0.36885 0.05585 0.0
H2268 H 0.5722 0.35829 0.09128 0.0
H2269 H 0.57907 0.43788 0.12504 0.0
H2270 H 0.54576 0.44859 0.08985 0.0
H2271 H 0.59111 0.36547 0.15287 0.0
H2272 H 0.64669 0.4849 0.10577 0.0
H2273 H 0.64614 0.51474 0.0642 0.0
H2274 H 0.61421 0.43228 0.02658 0.0
H2275 H 0.61564 0.40224 0.06777 0.0
C2276 C 0.71833 0.43045 0.21029 0.0
C2277 C 0.74058 0.42459 0.20236 0.0
C2278 C 0.69342 0.42893 0.1935 0.0
C2279 C 0.69055 0.42141 0.16871 0.0
C2280 C 0.71419 0.41923 0.15995 0.0
C2281 C 0.73918 0.42078 0.17678 0.0
C2282 C 0.66202 0.41284 0.15289 0.0
C2283 C 0.65929 0.4295 0.12961 0.0
C2284 C 0.63748 0.38858 0.16098 0.0
C2285 C 0.63995 0.36824 0.18422 0.0
C2286 C 0.65867 0.35203 0.18699 0.0
C2287 C 0.66114 0.33306 0.20898 0.0
C2288 C 0.64503 0.33017 0.22836 0.0
C2289 C 0.62617 0.34594 0.22567 0.0
C2290 C 0.62351 0.36483 0.20366 0.0
C2291 C 0.54534 0.38267 0.07181 0.0
C2292 C 0.53978 0.40964 0.07016 0.0
C2293 C 0.56485 0.37674 0.09194 0.0
C2294 C 0.57846 0.39778 0.11027 0.0
C2295 C 0.56875 0.42151 0.11093 0.0
C2296 C 0.54948 0.42747 0.09089 0.0
C2297 C 0.60742 0.40078 0.12363 0.0
C2298 C 0.61021 0.38322 0.14642 0.0
C2299 C 0.6323 0.42345 0.11468 0.0
C2300 C 0.63074 0.44133 0.08985 0.0
C2301 C 0.63954 0.47322 0.08859 0.0
C2302 C 0.63914 0.49016 0.06511 0.0
C2303 C 0.62984 0.4754 0.04279 0.0
C2304 C 0.62116 0.4437 0.04387 0.0
C2305 C 0.62176 0.4267 0.06729 0.0
H2306 H 0.62954 0.48856 0.02465 0.0
H2307 H 0.64713 0.31571 0.24545 0.0
H2308 H 0.73989 0.71359 0.17649 0.0
H2309 H 0.71767 0.67129 0.14995 0.0
H2310 H 0.69049 0.60943 0.21538 0.0
H2311 H 0.71232 0.6521 0.24224 0.0
H2312 H 0.72535 0.61974 0.1474 0.0
H2313 H 0.62537 0.55343 0.19579 0.0
H2314 H 0.5959 0.56056 0.22453 0.0
H2315 H 0.61857 0.65466 0.19613 0.0
H2316 H 0.64789 0.64797 0.16707 0.0
H2317 H 0.57865 0.50503 0.07829 0.0
H2318 H 0.61561 0.51804 0.11566 0.0
H2319 H 0.65786 0.60669 0.07826 0.0
H2320 H 0.62054 0.59412 0.04142 0.0
H2321 H 0.61881 0.56589 0.14087 0.0
H2322 H 0.7289 0.63365 0.10099 0.0
H2323 H 0.75661 0.62688 0.07057 0.0
H2324 H 0.71166 0.52987 0.07898 0.0
H2325 H 0.68418 0.53601 0.10989 0.0
C2326 C 0.72927 0.69104 0.18537 0.0
C2327 C 0.72756 0.68633 0.21148 0.0
C2328 C 0.71675 0.66677 0.17014 0.0
C2329 C 0.70232 0.63717 0.18061 0.0
C2330 C 0.70125 0.63214 0.20683 0.0
C2331 C 0.71362 0.65656 0.22213 0.0
C2332 C 0.68686 0.6125 0.16343 0.0
C2333 C 0.70206 0.60783 0.14597 0.0
C2334 C 0.65669 0.59592 0.16229 0.0
C2335 C 0.63908 0.60027 0.17955 0.0
C2336 C 0.62401 0.57561 0.1957 0.0
C2337 C 0.60733 0.57957 0.21201 0.0
C2338 C 0.6054 0.60805 0.21217 0.0
C2339 C 0.62012 0.63263 0.196 0.0
C2340 C 0.63679 0.62877 0.17964 0.0
C2341 C 0.59648 0.52683 0.07777 0.0
C2342 C 0.59687 0.5487 0.05714 0.0
C2343 C 0.61748 0.53425 0.09911 0.0
C2344 C 0.63951 0.56328 0.09969 0.0
C2345 C 0.64132 0.584 0.07808 0.0
C2346 C 0.61998 0.57688 0.05707 0.0
C2347 C 0.65703 0.57456 0.12389 0.0
C2348 C 0.64225 0.57678 0.14276 0.0
C2349 C 0.68751 0.58903 0.12615 0.0
C2350 C 0.70428 0.58531 0.10768 0.0
C2351 C 0.72504 0.61085 0.0965 0.0
C2352 C 0.74072 0.60713 0.07915 0.0
C2353 C 0.73587 0.57798 0.0728 0.0
C2354 C 0.71536 0.55246 0.08384 0.0
C2355 C 0.6997 0.55606 0.10125 0.0
H2356 H 0.74804 0.57517 0.05936 0.0
H2357 H 0.59249 0.61107 0.22483 0.0
H2358 H 0.3703 0.67352 0.18247 0.0
H2359 H 0.38457 0.66015 0.14626 0.0
H2360 H 0.33624 0.56493 0.16493 0.0
H2361 H 0.32194 0.57821 0.20132 0.0
H2362 H 0.38691 0.57095 0.15594 0.0
H2363 H 0.31286 0.60331 0.11168 0.0
H2364 H 0.28363 0.63566 0.09868 0.0
H2365 H 0.35666 0.70771 0.0708 0.0
H2366 H 0.38648 0.67591 0.0839 0.0
H2367 H 0.40744 0.531 0.03956 0.0
H2368 H 0.38099 0.54195 0.06838 0.0
H2369 H 0.44806 0.63068 0.07687 0.0
H2370 H 0.47515 0.61969 0.04849 0.0
H2371 H 0.38261 0.62385 0.06967 0.0
H2372 H 0.45589 0.58541 0.11961 0.0
H2373 H 0.47874 0.5469 0.13047 0.0
H2374 H 0.39689 0.47808 0.14479 0.0
H2375 H 0.37351 0.51613 0.13367 0.0
C2376 C 0.36232 0.64977 0.17865 0.0
C2377 C 0.34501 0.62692 0.19481 0.0
C2378 C 0.37046 0.64214 0.15789 0.0
C2379 C 0.36125 0.61154 0.15267 0.0
C2380 C 0.34365 0.5887 0.16858 0.0
C2381 C 0.33558 0.5963 0.18942 0.0
C2382 C 0.3716 0.6034 0.13159 0.0
C2383 C 0.38549 0.58222 0.13701 0.0
C2384 C 0.36971 0.61789 0.10677 0.0
C2385 C 0.35201 0.63731 0.099 0.0
C2386 C 0.32278 0.62615 0.10299 0.0
C2387 C 0.30607 0.64436 0.09554 0.0
C2388 C 0.3183 0.67374 0.08398 0.0
C2389 C 0.34724 0.68494 0.07979 0.0
C2390 C 0.36404 0.66682 0.08718 0.0
C2391 C 0.41638 0.55308 0.04717 0.0
C2392 C 0.44348 0.57447 0.04179 0.0
C2393 C 0.40123 0.55923 0.06366 0.0
C2394 C 0.41264 0.58706 0.07471 0.0
C2395 C 0.43891 0.6091 0.06841 0.0
C2396 C 0.45439 0.60274 0.0523 0.0
C2397 C 0.39838 0.59216 0.0944 0.0
C2398 C 0.38375 0.61262 0.08864 0.0
C2399 C 0.3987 0.57626 0.11868 0.0
C2400 C 0.4129 0.55352 0.12551 0.0
C2401 C 0.44272 0.562 0.12483 0.0
C2402 C 0.45579 0.54027 0.1311 0.0
C2403 C 0.43928 0.51003 0.13825 0.0
C2404 C 0.40967 0.50149 0.13923 0.0
C2405 C 0.39651 0.52313 0.13296 0.0
H2406 H 0.44942 0.49324 0.1431 0.0
H2407 H 0.30533 0.6878 0.07823 0.0
H2408 H 0.34801 0.26938 0.21648 0.0
H2409 H 0.38299 0.29602 0.18705 0.0
H2410 H 0.36329 0.37699 0.18539 0.0
H2411 H 0.32896 0.35066 0.21555 0.0
H2412 H 0.37094 0.31477 0.14087 0.0
H2413 H 0.41884 0.44025 0.16823 0.0
H2414 H 0.43321 0.46789 0.20669 0.0
H2415 H 0.44643 0.39052 0.25104 0.0
H2416 H 0.43269 0.36266 0.21274 0.0
H2417 H 0.40853 0.42868 0.04045 0.0
H2418 H 0.39018 0.39576 0.07763 0.0
H2419 H 0.47764 0.40742 0.11192 0.0
H2420 H 0.49609 0.44039 0.07468 0.0
H2421 H 0.44502 0.4195 0.1432 0.0
H2422 H 0.43812 0.3411 0.09459 0.0
H2423 H 0.42562 0.31283 0.05666 0.0
H2424 H 0.33526 0.29355 0.05716 0.0
H2425 H 0.34722 0.32216 0.09487 0.0
C2426 C 0.35159 0.29307 0.21021 0.0
C2427 C 0.33578 0.308 0.21817 0.0
C2428 C 0.37153 0.30823 0.19338 0.0
C2429 C 0.37583 0.3385 0.18404 0.0
C2430 C 0.36077 0.35381 0.1927 0.0
C2431 C 0.34111 0.33876 0.20987 0.0
C2432 C 0.39383 0.353 0.16346 0.0
C2433 C 0.38734 0.33756 0.14153 0.0
C2434 C 0.4156 0.38251 0.16446 0.0
C2435 C 0.42451 0.39929 0.18759 0.0
C2436 C 0.42501 0.42922 0.18615 0.0
C2437 C 0.43302 0.44491 0.20794 0.0
C2438 C 0.44066 0.43094 0.23131 0.0
C2439 C 0.44043 0.40129 0.23293 0.0
C2440 C 0.43251 0.38553 0.21117 0.0
C2441 C 0.42381 0.42388 0.05575 0.0
C2442 C 0.45376 0.43696 0.0547 0.0
C2443 C 0.41332 0.40503 0.07691 0.0
C2444 C 0.4326 0.39918 0.09741 0.0
C2445 C 0.46247 0.41166 0.09622 0.0
C2446 C 0.47294 0.43022 0.0749 0.0
C2447 C 0.42139 0.38156 0.12061 0.0
C2448 C 0.42902 0.39647 0.14289 0.0
C2449 C 0.40101 0.35139 0.12012 0.0
C2450 C 0.39361 0.33403 0.09746 0.0
C2451 C 0.41559 0.33107 0.08649 0.0
C2452 C 0.4086 0.31495 0.06505 0.0
C2453 C 0.37968 0.30153 0.05444 0.0
C2454 C 0.35766 0.30404 0.06536 0.0
C2455 C 0.36454 0.32018 0.0868 0.0
H2456 H 0.37433 0.28912 0.03781 0.0
H2457 H 0.44681 0.44311 0.24817 0.0
H2458 H 0.76209 0.63488 0.60228 0.0
H2459 H 0.79291 0.61917 0.58183 0.0
H2460 H 0.85536 0.63214 0.64946 0.0
H2461 H 0.824 0.64663 0.67067 0.0
H2462 H 0.87916 0.65641 0.60178 0.0
H2463 H 0.81513 0.56372 0.64085 0.0
H2464 H 0.76751 0.52659 0.65022 0.0
H2465 H 0.74041 0.51335 0.57113 0.0
H2466 H 0.78775 0.55079 0.56125 0.0
H2467 H 0.96282 0.58349 0.56591 0.0
H2468 H 0.93382 0.59871 0.589 0.0
H2469 H 0.85938 0.56348 0.53265 0.0
H2470 H 0.88814 0.54672 0.51016 0.0
H2471 H 0.84198 0.5508 0.57595 0.0
H2472 H 0.90377 0.64318 0.53561 0.0
H2473 H 0.94997 0.68178 0.52441 0.0
H2474 H 0.97983 0.69772 0.6028 0.0
H2475 H 0.93394 0.6589 0.61451 0.0
C2476 C 0.78219 0.63409 0.61303 0.0
C2477 C 0.79019 0.64152 0.63838 0.0
C2478 C 0.7999 0.62532 0.60118 0.0
C2479 C 0.82623 0.62413 0.61422 0.0
C2480 C 0.83505 0.63283 0.63909 0.0
C2481 C 0.81711 0.64124 0.65114 0.0
C2482 C 0.844 0.61294 0.60198 0.0
C2483 C 0.8713 0.63321 0.59644 0.0
C2484 C 0.83329 0.58294 0.59437 0.0
C2485 C 0.80488 0.56028 0.60029 0.0
C2486 C 0.79893 0.5531 0.62544 0.0
C2487 C 0.77201 0.53195 0.63084 0.0
C2488 C 0.75092 0.51768 0.61128 0.0
C2489 C 0.75675 0.52446 0.58627 0.0
C2490 C 0.78363 0.54562 0.58075 0.0
C2491 C 0.94023 0.57891 0.55847 0.0
C2492 C 0.92781 0.56417 0.53607 0.0
C2493 C 0.92368 0.58782 0.57161 0.0
C2494 C 0.89453 0.58311 0.56227 0.0
C2495 C 0.88186 0.56761 0.54023 0.0
C2496 C 0.89829 0.55803 0.52735 0.0
C2497 C 0.87734 0.59431 0.57547 0.0
C2498 C 0.85005 0.57403 0.58124 0.0
C2499 C 0.88792 0.6245 0.58295 0.0
C2500 C 0.91552 0.64791 0.57595 0.0
C2501 C 0.92026 0.65476 0.55048 0.0
C2502 C 0.94639 0.6767 0.54404 0.0
C2503 C 0.96785 0.69213 0.56289 0.0
C2504 C 0.9632 0.68571 0.58822 0.0
C2505 C 0.93713 0.66376 0.59477 0.0
H2506 H 0.98806 0.70911 0.55787 0.0
H2507 H 0.73009 0.50131 0.6155 0.0
H2508 H 0.30847 0.78303 0.70616 0.0
H2509 H 0.34123 0.80878 0.67529 0.0
H2510 H 0.4009 0.86595 0.73214 0.0
H2511 H 0.36966 0.83659 0.76397 0.0
H2512 H 0.35422 0.85751 0.65427 0.0
H2513 H 0.46457 0.90934 0.71452 0.0
H2514 H 0.49398 0.89756 0.75353 0.0
H2515 H 0.45126 0.8019 0.74453 0.0
H2516 H 0.42128 0.81306 0.70545 0.0
H2517 H 0.43984 0.98103 0.58427 0.0
H2518 H 0.41956 0.94918 0.6209 0.0
H2519 H 0.46456 0.88969 0.61597 0.0
H2520 H 0.48558 0.92222 0.57902 0.0
H2521 H 0.46164 0.89627 0.6665 0.0
H2522 H 0.39616 0.8704 0.59031 0.0
H2523 H 0.36823 0.88015 0.54965 0.0
H2524 H 0.32214 0.91608 0.58807 0.0
H2525 H 0.35019 0.90708 0.62894 0.0
C2526 C 0.32937 0.79968 0.71253 0.0
C2527 C 0.33721 0.8062 0.73802 0.0
C2528 C 0.348 0.81522 0.69455 0.0
C2529 C 0.37434 0.83934 0.70101 0.0
C2530 C 0.3817 0.84667 0.72643 0.0
C2531 C 0.36358 0.83003 0.74472 0.0
C2532 C 0.39226 0.85811 0.68059 0.0
C2533 C 0.37769 0.86548 0.65717 0.0
C2534 C 0.42311 0.86918 0.68372 0.0
C2535 C 0.44054 0.86201 0.70724 0.0
C2536 C 0.4614 0.88576 0.72089 0.0
C2537 C 0.47808 0.87919 0.74302 0.0
C2538 C 0.47427 0.84894 0.75157 0.0
C2539 C 0.45383 0.82523 0.73798 0.0
C2540 C 0.43694 0.83165 0.71589 0.0
C2541 C 0.4459 0.96146 0.59116 0.0
C2542 C 0.4641 0.954 0.5785 0.0
C2543 C 0.43418 0.94319 0.61215 0.0
C2544 C 0.43992 0.91658 0.62094 0.0
C2545 C 0.45965 0.91002 0.60947 0.0
C2546 C 0.47172 0.92863 0.58839 0.0
C2547 C 0.42333 0.89488 0.64069 0.0
C2548 C 0.43812 0.88747 0.66383 0.0
C2549 C 0.39263 0.88308 0.63721 0.0
C2550 C 0.3755 0.88832 0.61268 0.0
C2551 C 0.38023 0.8806 0.59008 0.0
C2552 C 0.36436 0.88598 0.56699 0.0
C2553 C 0.34347 0.89879 0.56627 0.0
C2554 C 0.33836 0.9062 0.58866 0.0
C2555 C 0.35424 0.90096 0.61179 0.0
H2556 H 0.33119 0.90292 0.54838 0.0
H2557 H 0.48726 0.84388 0.76867 0.0
H2558 H 0.16778 0.24692 0.70107 0.0
H2559 H 0.14412 0.27832 0.67386 0.0
H2560 H 0.22034 0.35851 0.68946 0.0
H2561 H 0.24322 0.32678 0.71883 0.0
H2562 H 0.17922 0.37594 0.68694 0.0
H2563 H 0.19104 0.31988 0.62373 0.0
H2564 H 0.18686 0.27457 0.60368 0.0
H2565 H 0.09507 0.23735 0.6058 0.0
H2566 H 0.09866 0.28255 0.62548 0.0
H2567 H 0.12524 0.46755 0.58659 0.0
H2568 H 0.15162 0.43943 0.61555 0.0
H2569 H 0.07625 0.35676 0.60805 0.0
H2570 H 0.05011 0.38464 0.57852 0.0
H2571 H 0.11894 0.34234 0.60549 0.0
H2572 H 0.1063 0.39992 0.66538 0.0
H2573 H 0.1096 0.44628 0.68304 0.0
H2574 H 0.20226 0.48103 0.68681 0.0
H2575 H 0.19949 0.43502 0.66887 0.0
C2576 C 0.17984 0.27122 0.69852 0.0
C2577 C 0.208 0.28386 0.71178 0.0
C2578 C 0.16623 0.28942 0.68245 0.0
C2579 C 0.18031 0.32129 0.67825 0.0
C2580 C 0.20858 0.33414 0.69169 0.0
C2581 C 0.22204 0.31583 0.70835 0.0
C2582 C 0.16493 0.34089 0.66108 0.0
C2583 C 0.16653 0.36864 0.66893 0.0
C2584 C 0.14726 0.33181 0.63759 0.0
C2585 C 0.14522 0.30435 0.62636 0.0
C2586 C 0.17005 0.30188 0.62011 0.0
C2587 C 0.16776 0.2763 0.60873 0.0
C2588 C 0.14079 0.25301 0.6037 0.0
C2589 C 0.11598 0.25535 0.6098 0.0
C2590 C 0.1181 0.28099 0.62094 0.0
C2591 C 0.11391 0.44351 0.59146 0.0
C2592 C 0.0851 0.42878 0.58004 0.0
C2593 C 0.12921 0.42723 0.60825 0.0
C2594 C 0.11629 0.39553 0.61463 0.0
C2595 C 0.08724 0.38101 0.60375 0.0
C2596 C 0.07202 0.39721 0.58686 0.0
C2597 C 0.13312 0.37719 0.6314 0.0
C2598 C 0.13175 0.34969 0.62346 0.0
C2599 C 0.15093 0.38654 0.65472 0.0
C2600 C 0.15265 0.41417 0.66554 0.0
C2601 C 0.12736 0.41755 0.66981 0.0
C2602 C 0.12914 0.44374 0.6799 0.0
C2603 C 0.15612 0.46662 0.68597 0.0
C2604 C 0.18138 0.46331 0.68205 0.0
C2605 C 0.17972 0.43717 0.67195 0.0
H2606 H 0.15745 0.48689 0.69378 0.0
H2607 H 0.1391 0.23321 0.59495 0.0
H2608 H 0.70025 0.2263 0.67196 0.0
H2609 H 0.68267 0.19718 0.63461 0.0
H2610 H 0.76106 0.17771 0.6459 0.0
H2611 H 0.77866 0.20667 0.6835 0.0
H2612 H 0.73098 0.19168 0.5896 0.0
H2613 H 0.72121 0.12496 0.66708 0.0
H2614 H 0.71067 0.11251 0.71114 0.0
H2615 H 0.62403 0.11042 0.6864 0.0
H2616 H 0.6343 0.12348 0.64222 0.0
H2617 H 0.60376 0.03584 0.55063 0.0
H2618 H 0.64996 0.06306 0.57557 0.0
H2619 H 0.64434 0.14893 0.54181 0.0
H2620 H 0.59889 0.12209 0.51646 0.0
H2621 H 0.65076 0.0953 0.61049 0.0
H2622 H 0.70671 0.20688 0.54758 0.0
H2623 H 0.7186 0.22125 0.50401 0.0
H2624 H 0.71586 0.13102 0.4989 0.0
H2625 H 0.7044 0.11618 0.54259 0.0
C2626 C 0.71407 0.21663 0.66604 0.0
C2627 C 0.74059 0.21844 0.6806 0.0
C2628 C 0.70405 0.20002 0.64476 0.0
C2629 C 0.72065 0.1854 0.63766 0.0
C2630 C 0.7481 0.18901 0.6511 0.0
C2631 C 0.75791 0.20522 0.67264 0.0
C2632 C 0.7071 0.16272 0.61882 0.0
C2633 C 0.71364 0.17039 0.59398 0.0
C2634 C 0.68533 0.13461 0.62507 0.0
C2635 C 0.67858 0.12536 0.6514 0.0
C2636 C 0.69996 0.12198 0.67107 0.0
C2637 C 0.69404 0.11483 0.69606 0.0
C2638 C 0.66671 0.11073 0.70159 0.0
C2639 C 0.64519 0.11361 0.6821 0.0
C2640 C 0.65104 0.12086 0.65707 0.0
C2641 C 0.61288 0.06049 0.54784 0.0
C2642 C 0.5973 0.07682 0.53197 0.0
C2643 C 0.6393 0.07602 0.56215 0.0
C2644 C 0.6506 0.10805 0.56069 0.0
C2645 C 0.63638 0.12424 0.54309 0.0
C2646 C 0.6101 0.10879 0.52875 0.0
C2647 C 0.67361 0.12451 0.58051 0.0
C2648 C 0.66873 0.11589 0.60583 0.0
C2649 C 0.69721 0.15142 0.57462 0.0
C2650 C 0.70458 0.16038 0.54842 0.0
C2651 C 0.70887 0.19014 0.53727 0.0
C2652 C 0.71547 0.19836 0.51251 0.0
C2653 C 0.71794 0.17705 0.49868 0.0
C2654 C 0.71387 0.14749 0.50961 0.0
C2655 C 0.70727 0.13915 0.53437 0.0
H2656 H 0.72302 0.18345 0.4795 0.0
H2657 H 0.66219 0.10529 0.72096 0.0
H2658 H 0.82979 0.30978 0.29682 0.0
H2659 H 0.85641 0.34026 0.33239 0.0
H2660 H 0.78791 0.28833 0.37725 0.0
H2661 H 0.76056 0.25868 0.34116 0.0
H2662 H 0.80685 0.34945 0.38241 0.0
H2663 H 0.85136 0.27346 0.3872 0.0
H2664 H 0.87155 0.2461 0.36503 0.0
H2665 H 0.93764 0.33049 0.34365 0.0
H2666 H 0.91791 0.35849 0.36573 0.0
H2667 H 0.93891 0.38962 0.49067 0.0
H2668 H 0.89689 0.35611 0.46506 0.0
H2669 H 0.89346 0.43308 0.41313 0.0
H2670 H 0.93589 0.46699 0.43869 0.0
H2671 H 0.90728 0.35527 0.41516 0.0
H2672 H 0.81964 0.40855 0.38318 0.0
H2673 H 0.79749 0.43816 0.40057 0.0
H2674 H 0.8172 0.40004 0.47569 0.0
H2675 H 0.83907 0.36986 0.45873 0.0
C2676 C 0.82074 0.30456 0.31444 0.0
C2677 C 0.79351 0.28172 0.31659 0.0
C2678 C 0.83579 0.32206 0.33464 0.0
C2679 C 0.82423 0.31625 0.3575 0.0
C2680 C 0.79712 0.29315 0.35974 0.0
C2681 C 0.78176 0.27605 0.33933 0.0
C2682 C 0.84092 0.33386 0.37925 0.0
C2683 C 0.82873 0.35063 0.38977 0.0
C2684 C 0.86935 0.33514 0.38879 0.0
C2685 C 0.88314 0.31804 0.37807 0.0
C2686 C 0.87037 0.28613 0.37798 0.0
C2687 C 0.88164 0.27053 0.36533 0.0
C2688 C 0.90565 0.2865 0.35275 0.0
C2689 C 0.91891 0.31814 0.35328 0.0
C2690 C 0.90785 0.33389 0.36602 0.0
C2691 C 0.92875 0.39959 0.47418 0.0
C2692 C 0.94107 0.43072 0.46619 0.0
C2693 C 0.90469 0.38042 0.45968 0.0
C2694 C 0.89249 0.39216 0.43714 0.0
C2695 C 0.90269 0.42373 0.43057 0.0
C2696 C 0.92689 0.44303 0.44514 0.0
C2697 C 0.87329 0.37103 0.41842 0.0
C2698 C 0.88519 0.35374 0.40824 0.0
C2699 C 0.8447 0.36941 0.40929 0.0
C2700 C 0.83125 0.38715 0.41967 0.0
C2701 C 0.81914 0.40638 0.4034 0.0
C2702 C 0.80665 0.42328 0.41318 0.0
C2703 C 0.80602 0.42106 0.43922 0.0
C2704 C 0.81781 0.40184 0.45553 0.0
C2705 C 0.83031 0.38487 0.44584 0.0
H2706 H 0.79635 0.43417 0.44676 0.0
H2707 H 0.91417 0.27432 0.34282 0.0
H2708 H 0.68362 0.84873 0.32625 0.0
H2709 H 0.67181 0.87519 0.356 0.0
H2710 H 0.59588 0.7953 0.36849 0.0
H2711 H 0.60774 0.76908 0.33877 0.0
H2712 H 0.582 0.84357 0.36097 0.0
H2713 H 0.6593 0.81772 0.41374 0.0
H2714 H 0.70847 0.81685 0.42731 0.0
H2715 H 0.74414 0.91474 0.42216 0.0
H2716 H 0.6952 0.91621 0.40843 0.0
H2717 H 0.54242 0.87676 0.46834 0.0
H2718 H 0.56001 0.85467 0.43983 0.0
H2719 H 0.63157 0.93987 0.43048 0.0
H2720 H 0.61442 0.9621 0.45955 0.0
H2721 H 0.64926 0.89291 0.43486 0.0
H2722 H 0.57201 0.91886 0.38473 0.0
H2723 H 0.52261 0.91984 0.37511 0.0
H2724 H 0.48689 0.82219 0.37578 0.0
H2725 H 0.53608 0.82059 0.38577 0.0
C2726 C 0.6648 0.83674 0.3358 0.0
C2727 C 0.64682 0.80681 0.33047 0.0
C2728 C 0.65797 0.85185 0.35273 0.0
C2729 C 0.63305 0.83718 0.36476 0.0
C2730 C 0.61518 0.80718 0.35947 0.0
C2731 C 0.62195 0.79219 0.34249 0.0
C2732 C 0.62476 0.85327 0.38204 0.0
C2733 C 0.59666 0.85403 0.37728 0.0
C2734 C 0.6441 0.86794 0.40288 0.0
C2735 C 0.67363 0.86706 0.40986 0.0
C2736 C 0.67767 0.83906 0.41523 0.0
C2737 C 0.70547 0.83846 0.42308 0.0
C2738 C 0.72938 0.86573 0.42571 0.0
C2739 C 0.72559 0.89365 0.42021 0.0
C2740 C 0.69783 0.89437 0.41242 0.0
C2741 C 0.56197 0.89087 0.46034 0.0
C2742 C 0.57688 0.92133 0.46617 0.0
C2743 C 0.57194 0.8782 0.4439 0.0
C2744 C 0.59681 0.89576 0.43258 0.0
C2745 C 0.61224 0.92591 0.43888 0.0
C2746 C 0.60238 0.93859 0.4555 0.0
C2747 C 0.60643 0.8826 0.41404 0.0
C2748 C 0.63473 0.88256 0.41845 0.0
C2749 C 0.58733 0.86867 0.39282 0.0
C2750 C 0.55774 0.8696 0.38619 0.0
C2751 C 0.55362 0.89758 0.38294 0.0
C2752 C 0.52565 0.89825 0.37742 0.0
C2753 C 0.50162 0.87109 0.3749 0.0
C2754 C 0.50552 0.84321 0.37776 0.0
C2755 C 0.53345 0.84241 0.38332 0.0
H2756 H 0.47999 0.87165 0.37068 0.0
H2757 H 0.75086 0.86525 0.43203 0.0
H2758 H 0.24625 0.70244 0.31168 0.0
H2759 H 0.21671 0.66919 0.34355 0.0
H2760 H 0.14046 0.65 0.28766 0.0
H2761 H 0.17007 0.68231 0.25559 0.0
H2762 H 0.13355 0.67188 0.32901 0.0
H2763 H 0.15153 0.58085 0.31796 0.0
H2764 H 0.17592 0.545 0.31675 0.0
H2765 H 0.23448 0.57964 0.3833 0.0
H2766 H 0.20984 0.61507 0.38523 0.0
H2767 H 0.04025 0.55782 0.41576 0.0
H2768 H 0.06476 0.58614 0.37901 0.0
H2769 H 0.14609 0.61788 0.42816 0.0
H2770 H 0.1221 0.59048 0.46444 0.0
H2771 H 0.14711 0.58679 0.38801 0.0
H2772 H 0.11775 0.66755 0.40278 0.0
H2773 H 0.08146 0.68851 0.40796 0.0
H2774 H 0.03852 0.66679 0.33286 0.0
H2775 H 0.07422 0.64539 0.32743 0.0
C2776 C 0.22343 0.6902 0.30592 0.0
C2777 C 0.21063 0.69472 0.28093 0.0
C2778 C 0.20646 0.67123 0.32423 0.0
C2779 C 0.17623 0.65696 0.31809 0.0
C2780 C 0.16367 0.66062 0.29293 0.0
C2781 C 0.18066 0.67911 0.27459 0.0
C2782 C 0.15743 0.64168 0.33835 0.0
C2783 C 0.13632 0.65298 0.34167 0.0
C2784 C 0.16097 0.61731 0.35525 0.0
C2785 C 0.17932 0.60096 0.3514 0.0
C2786 C 0.17003 0.58124 0.33197 0.0
C2787 C 0.18349 0.56058 0.33147 0.0
C2788 C 0.20666 0.55995 0.35 0.0
C2789 C 0.21652 0.58013 0.36898 0.0
C2790 C 0.2028 0.60045 0.36981 0.0
C2791 C 0.06317 0.57153 0.41872 0.0
C2792 C 0.07926 0.57153 0.44298 0.0
C2793 C 0.07719 0.58758 0.39774 0.0
C2794 C 0.10739 0.60381 0.40082 0.0
C2795 C 0.12291 0.60528 0.42524 0.0
C2796 C 0.10906 0.58954 0.446 0.0
C2797 C 0.1237 0.61721 0.37881 0.0
C2798 C 0.14439 0.60569 0.37529 0.0
C2799 C 0.11952 0.6411 0.3617 0.0
C2800 C 0.09844 0.65459 0.36479 0.0
C2801 C 0.10041 0.66708 0.38745 0.0
C2802 C 0.07996 0.67908 0.39044 0.0
C2803 C 0.05758 0.67891 0.37083 0.0
C2804 C 0.05573 0.66691 0.34812 0.0
C2805 C 0.0761 0.65487 0.34505 0.0
H2806 H 0.04175 0.68813 0.37327 0.0
H2807 H 0.21711 0.544 0.34953 0.0
H2808 H 0.26247 0.16259 0.31261 0.0
H2809 H 0.29218 0.13686 0.33896 0.0
H2810 H 0.36933 0.21117 0.31963 0.0
H2811 H 0.33891 0.235 0.29047 0.0
H2812 H 0.3842 0.16893 0.32359 0.0
H2813 H 0.33947 0.18209 0.39543 0.0
H2814 H 0.29952 0.17651 0.41881 0.0
H2815 H 0.25665 0.08341 0.401 0.0
H2816 H 0.29683 0.08812 0.37846 0.0
H2817 H 0.47694 0.11958 0.42493 0.0
H2818 H 0.4483 0.14514 0.39567 0.0
H2819 H 0.37187 0.06389 0.40037 0.0
H2820 H 0.40033 0.03835 0.4298 0.0
H2821 H 0.35764 0.10939 0.40463 0.0
H2822 H 0.40692 0.09266 0.34375 0.0
H2823 H 0.44903 0.09447 0.3255 0.0
H2824 H 0.48375 0.19221 0.32371 0.0
H2825 H 0.44175 0.19097 0.34194 0.0
C2826 C 0.28582 0.17381 0.31422 0.0
C2827 C 0.29798 0.20184 0.30001 0.0
C2828 C 0.30318 0.15912 0.32998 0.0
C2829 C 0.33381 0.17205 0.33299 0.0
C2830 C 0.34603 0.20013 0.31847 0.0
C2831 C 0.32851 0.21436 0.30196 0.0
C2832 C 0.35278 0.15558 0.34964 0.0
C2833 C 0.37839 0.15659 0.34155 0.0
C2834 C 0.34569 0.13782 0.37297 0.0
C2835 C 0.32066 0.13574 0.38473 0.0
C2836 C 0.32128 0.16062 0.39622 0.0
C2837 C 0.29877 0.15751 0.4095 0.0
C2838 C 0.27537 0.12981 0.41101 0.0
C2839 C 0.27464 0.10495 0.39962 0.0
C2840 C 0.29737 0.10774 0.38679 0.0
C2841 C 0.45416 0.10677 0.41939 0.0
C2842 C 0.44136 0.07648 0.42995 0.0
C2843 C 0.43761 0.12159 0.40245 0.0
C2844 C 0.40749 0.10679 0.39529 0.0
C2845 C 0.39486 0.07628 0.4053 0.0
C2846 C 0.41141 0.06143 0.42214 0.0
C2847 C 0.38891 0.12333 0.37871 0.0
C2848 C 0.36345 0.12215 0.38677 0.0
C2849 C 0.39616 0.14081 0.35547 0.0
C2850 C 0.42136 0.1417 0.34445 0.0
C2851 C 0.42364 0.11453 0.33962 0.0
C2852 C 0.44746 0.11545 0.32925 0.0
C2853 C 0.46917 0.14342 0.32362 0.0
C2854 C 0.46696 0.17055 0.32816 0.0
C2855 C 0.4431 0.16976 0.33843 0.0
H2856 H 0.48764 0.14406 0.31565 0.0
H2857 H 0.25793 0.12754 0.42119 0.0
H2858 H 0.69077 0.76962 0.72078 0.0
H2859 H 0.65712 0.79212 0.69514 0.0
H2860 H 0.72886 0.86323 0.66376 0.0
H2861 H 0.76227 0.84187 0.69056 0.0
H2862 H 0.69977 0.89043 0.67232 0.0
H2863 H 0.65174 0.79831 0.61604 0.0
H2864 H 0.62469 0.74376 0.60972 0.0
H2865 H 0.57615 0.73556 0.66985 0.0
H2866 H 0.60192 0.79044 0.67557 0.0
H2867 H 0.62544 0.95936 0.57163 0.0
H2868 H 0.65402 0.93337 0.59984 0.0
H2869 H 0.57584 0.86593 0.62448 0.0
H2870 H 0.54699 0.89097 0.59477 0.0
H2871 H 0.6053 0.83622 0.62263 0.0
H2872 H 0.63566 0.92863 0.66234 0.0
H2873 H 0.65471 0.98414 0.66587 0.0
H2874 H 0.73429 0.99249 0.64192 0.0
H2875 H 0.71562 0.93708 0.63798 0.0
C2876 C 0.69926 0.78966 0.70798 0.0
C2877 C 0.72947 0.8036 0.70772 0.0
C2878 C 0.67978 0.80264 0.69293 0.0
C2879 C 0.68969 0.82973 0.67667 0.0
C2880 C 0.71989 0.84271 0.67594 0.0
C2881 C 0.73924 0.8302 0.69126 0.0
C2882 C 0.66983 0.84617 0.66182 0.0
C2883 C 0.67933 0.87832 0.66119 0.0
C2884 C 0.64209 0.83133 0.64799 0.0
C2885 C 0.6293 0.79804 0.64673 0.0
C2886 C 0.63561 0.7847 0.62814 0.0
C2887 C 0.62022 0.75388 0.62443 0.0
C2888 C 0.59896 0.73612 0.63958 0.0
C2889 C 0.59277 0.74926 0.65826 0.0
C2890 C 0.60756 0.78025 0.66159 0.0
C2891 C 0.61418 0.93933 0.58337 0.0
C2892 C 0.58357 0.92782 0.58084 0.0
C2893 C 0.6308 0.92431 0.59985 0.0
C2894 C 0.61774 0.89751 0.61529 0.0
C2895 C 0.5871 0.88635 0.61314 0.0
C2896 C 0.57039 0.901 0.59616 0.0
C2897 C 0.63566 0.8805 0.63252 0.0
C2898 C 0.6258 0.84838 0.63367 0.0
C2899 C 0.6628 0.89539 0.64729 0.0
C2900 C 0.67411 0.92872 0.64965 0.0
C2901 C 0.65715 0.94233 0.65768 0.0
C2902 C 0.6679 0.97378 0.65978 0.0
C2903 C 0.69567 0.99184 0.65408 0.0
C2904 C 0.71279 0.97848 0.64633 0.0
C2905 C 0.70214 0.94705 0.64418 0.0
H2906 H 0.70394 0.01618 0.65571 0.0
H2907 H 0.58719 0.71223 0.63675 0.0
H2908 H 0.70106 0.23209 0.30338 0.0
H2909 H 0.66485 0.20765 0.3313 0.0
H2910 H 0.63644 0.12514 0.29339 0.0
H2911 H 0.66928 0.15218 0.26216 0.0
H2912 H 0.59309 0.12403 0.30905 0.0
H2913 H 0.69156 0.1472 0.35343 0.0
H2914 H 0.74119 0.18216 0.36772 0.0
H2915 H 0.70689 0.2308 0.40607 0.0
H2916 H 0.65709 0.1965 0.39183 0.0
H2917 H 0.56403 0.01798 0.42008 0.0
H2918 H 0.5841 0.05125 0.3835 0.0
H2919 H 0.56954 0.12525 0.4089 0.0
H2920 H 0.54829 0.09146 0.44518 0.0
H2921 H 0.63082 0.13427 0.40026 0.0
H2922 H 0.53271 0.10592 0.36009 0.0
H2923 H 0.48363 0.06969 0.34674 0.0
H2924 H 0.51832 0.02866 0.30132 0.0
H2925 H 0.56779 0.06409 0.31501 0.0
C2926 C 0.68598 0.20962 0.2998 0.0
C2927 C 0.68747 0.19492 0.27965 0.0
C2928 C 0.66581 0.19491 0.31664 0.0
C2929 C 0.64838 0.16386 0.31545 0.0
C2930 C 0.64955 0.14902 0.2951 0.0
C2931 C 0.66856 0.16449 0.27726 0.0
C2932 C 0.6301 0.14653 0.33586 0.0
C2933 C 0.60163 0.12616 0.32895 0.0
C2934 C 0.64056 0.14958 0.3621 0.0
C2935 C 0.67059 0.16942 0.3714 0.0
C2936 C 0.69461 0.16535 0.36491 0.0
C2937 C 0.72275 0.18507 0.37295 0.0
C2938 C 0.72716 0.20868 0.3877 0.0
C2939 C 0.70344 0.21253 0.39461 0.0
C2940 C 0.67527 0.19295 0.38659 0.0
C2941 C 0.56424 0.04107 0.41739 0.0
C2942 C 0.55424 0.05205 0.43521 0.0
C2943 C 0.57583 0.06009 0.39657 0.0
C2944 C 0.57838 0.09075 0.39348 0.0
C2945 C 0.56767 0.10162 0.41088 0.0
C2946 C 0.55531 0.08228 0.43143 0.0
C2947 C 0.59443 0.11165 0.37326 0.0
C2948 C 0.62245 0.13248 0.38029 0.0
C2949 C 0.58376 0.10869 0.34726 0.0
C2950 C 0.55402 0.08749 0.33879 0.0
C2951 C 0.52994 0.08897 0.34747 0.0
C2952 C 0.50202 0.06862 0.33978 0.0
C2953 C 0.49784 0.04691 0.32316 0.0
C2954 C 0.52159 0.0455 0.3142 0.0
C2955 C 0.54959 0.0657 0.32194 0.0
H2956 H 0.4762 0.03119 0.31721 0.0
H2957 H 0.74896 0.22396 0.39379 0.0
H2958 H 0.78449 0.68211 0.28645 0.0
H2959 H 0.80764 0.64904 0.31352 0.0
H2960 H 0.87516 0.72831 0.34445 0.0
H2961 H 0.85273 0.761 0.31701 0.0
H2962 H 0.89953 0.69551 0.33081 0.0
H2963 H 0.83048 0.65351 0.40205 0.0
H2964 H 0.78199 0.62799 0.41557 0.0
H2965 H 0.7534 0.57462 0.35142 0.0
H2966 H 0.80211 0.59903 0.33818 0.0
H2967 H 0.9798 0.63257 0.43228 0.0
H2968 H 0.95167 0.65896 0.40365 0.0
H2969 H 0.88585 0.57248 0.38467 0.0
H2970 H 0.91369 0.54595 0.41384 0.0
H2971 H 0.85857 0.60539 0.39 0.0
H2972 H 0.93562 0.62847 0.34081 0.0
H2973 H 0.98438 0.64855 0.32785 0.0
H2974 H 0.99771 0.73763 0.34752 0.0
H2975 H 0.94907 0.71804 0.3607 0.0
C2976 C 0.80381 0.69239 0.29955 0.0
C2977 C 0.81643 0.72447 0.29956 0.0
C2978 C 0.81715 0.6733 0.31533 0.0
C2979 C 0.84342 0.68562 0.33178 0.0
C2980 C 0.85513 0.71762 0.33227 0.0
C2981 C 0.84208 0.73651 0.31648 0.0
C2982 C 0.86078 0.66654 0.34635 0.0
C2983 C 0.89043 0.67599 0.34396 0.0
C2984 C 0.84954 0.6402 0.36313 0.0
C2985 C 0.81947 0.62881 0.36867 0.0
C2986 C 0.81364 0.63671 0.39063 0.0
C2987 C 0.78633 0.62206 0.39849 0.0
C2988 C 0.76461 0.59975 0.38433 0.0
C2989 C 0.7702 0.59201 0.3623 0.0
C2990 C 0.79766 0.60618 0.35465 0.0
C2991 C 0.95964 0.61895 0.42168 0.0
C2992 C 0.94953 0.58675 0.42559 0.0
C2993 C 0.94336 0.63429 0.40503 0.0
C2994 C 0.91624 0.61819 0.39131 0.0
C2995 C 0.90646 0.58598 0.39474 0.0
C2996 C 0.92272 0.57062 0.41143 0.0
C2997 C 0.89751 0.63466 0.37472 0.0
C2998 C 0.86774 0.62486 0.37683 0.0
C2999 C 0.90864 0.66064 0.35752 0.0
C3000 C 0.93881 0.67172 0.35191 0.0
C3001 C 0.94914 0.65222 0.34275 0.0
C3002 C 0.9767 0.66357 0.33523 0.0
C3003 C 0.99408 0.6944 0.33676 0.0
C3004 C 0.98418 0.7138 0.34626 0.0
C3005 C 0.95663 0.70259 0.35375 0.0
H3006 H 1.01519 0.70336 0.33051 0.0
H3007 H 0.74346 0.58848 0.39041 0.0
H3008 H 0.30659 0.74521 0.34291 0.0
H3009 H 0.32339 0.7697 0.38281 0.0
H3010 H 0.32943 0.8564 0.34197 0.0
H3011 H 0.31283 0.83248 0.30234 0.0
H3012 H 0.37478 0.81689 0.39688 0.0
H3013 H 0.30914 0.89622 0.3746 0.0
H3014 H 0.2623 0.89514 0.35028 0.0
H3015 H 0.22712 0.79752 0.36293 0.0
H3016 H 0.27355 0.79801 0.38758 0.0
H3017 H 0.42269 0.96181 0.45242 0.0
H3018 H 0.38258 0.92825 0.42494 0.0
H3019 H 0.37897 0.85173 0.4798 0.0
H3020 H 0.41923 0.88501 0.50725 0.0
H3021 H 0.32635 0.8795 0.42233 0.0
H3022 H 0.3933 0.8028 0.44957 0.0
H3023 H 0.44253 0.80603 0.46925 0.0
H3024 H 0.47686 0.90056 0.44211 0.0
H3025 H 0.42794 0.89773 0.42197 0.0
C3026 C 0.31161 0.76951 0.34244 0.0
C3027 C 0.3083 0.78686 0.31943 0.0
C3028 C 0.32108 0.78339 0.36523 0.0
C3029 C 0.32706 0.81469 0.36532 0.0
C3030 C 0.32426 0.83207 0.34236 0.0
C3031 C 0.31491 0.81832 0.31967 0.0
C3032 C 0.3374 0.82987 0.38915 0.0
C3033 C 0.36377 0.82983 0.40289 0.0
C3034 C 0.32336 0.84744 0.39646 0.0
C3035 C 0.29489 0.84717 0.38285 0.0
C3036 C 0.29135 0.87455 0.37234 0.0
C3037 C 0.26493 0.87402 0.35835 0.0
C3038 C 0.24186 0.84625 0.35492 0.0
C3039 C 0.24508 0.81897 0.36549 0.0
C3040 C 0.27142 0.81938 0.37948 0.0
C3041 C 0.41243 0.93815 0.45921 0.0
C3042 C 0.42464 0.92575 0.48154 0.0
C3043 C 0.38944 0.91898 0.44347 0.0
C3044 C 0.3785 0.88744 0.45008 0.0
C3045 C 0.38752 0.87598 0.47425 0.0
C3046 C 0.41058 0.89502 0.48987 0.0
C3047 C 0.36369 0.86641 0.43 0.0
C3048 C 0.33678 0.86569 0.41681 0.0
C3049 C 0.37737 0.84833 0.42289 0.0
C3050 C 0.40693 0.85013 0.43462 0.0
C3051 C 0.41139 0.82423 0.44778 0.0
C3052 C 0.43923 0.826 0.459 0.0
C3053 C 0.46279 0.85352 0.45702 0.0
C3054 C 0.45858 0.8793 0.44371 0.0
C3055 C 0.43081 0.87763 0.43242 0.0
H3056 H 0.4843 0.85484 0.46574 0.0
H3057 H 0.22133 0.84581 0.34443 0.0
H3058 H 0.20201 0.3385 0.34704 0.0
H3059 H 0.17736 0.349 0.37789 0.0
H3060 H 0.23482 0.44331 0.37385 0.0
H3061 H 0.25964 0.43293 0.34335 0.0
H3062 H 0.22493 0.42048 0.42289 0.0
H3063 H 0.1693 0.42335 0.3401 0.0
H3064 H 0.14219 0.40233 0.29986 0.0
H3065 H 0.08198 0.32832 0.34059 0.0
H3066 H 0.10902 0.34866 0.38112 0.0
H3067 H 0.14406 0.49038 0.47056 0.0
H3068 H 0.17209 0.47557 0.44579 0.0
H3069 H 0.10635 0.38521 0.44361 0.0
H3070 H 0.078 0.40001 0.46766 0.0
H3071 H 0.1206 0.40397 0.39878 0.0
H3072 H 0.17413 0.40097 0.48145 0.0
H3073 H 0.20112 0.42057 0.52218 0.0
H3074 H 0.26477 0.49254 0.48303 0.0
H3075 H 0.23794 0.4736 0.44202 0.0
C3076 C 0.20962 0.36135 0.35301 0.0
C3077 C 0.23254 0.38497 0.34252 0.0
C3078 C 0.19543 0.36737 0.37052 0.0
C3079 C 0.20404 0.39705 0.37795 0.0
C3080 C 0.22774 0.42029 0.36835 0.0
C3081 C 0.24175 0.41436 0.35076 0.0
C3082 C 0.18759 0.40443 0.3947 0.0
C3083 C 0.20217 0.41709 0.41757 0.0
C3084 C 0.15775 0.39945 0.388 0.0
C3085 C 0.14137 0.38734 0.36364 0.0
C3086 C 0.15041 0.40246 0.34048 0.0
C3087 C 0.13504 0.39069 0.31762 0.0
C3088 C 0.11043 0.36396 0.31767 0.0
C3089 C 0.10108 0.34899 0.34058 0.0
C3090 C 0.11642 0.36063 0.3635 0.0
C3091 C 0.1357 0.46729 0.46498 0.0
C3092 C 0.10871 0.44645 0.47109 0.0
C3093 C 0.15181 0.45879 0.45087 0.0
C3094 C 0.1415 0.42913 0.44294 0.0
C3095 C 0.11478 0.40823 0.44938 0.0
C3096 C 0.09859 0.41676 0.46321 0.0
C3097 C 0.15787 0.42004 0.42716 0.0
C3098 C 0.1433 0.40716 0.40433 0.0
C3099 C 0.18765 0.4246 0.43404 0.0
C3100 C 0.20387 0.43603 0.45865 0.0
C3101 C 0.19376 0.42112 0.48151 0.0
C3102 C 0.20905 0.43208 0.50465 0.0
C3103 C 0.2346 0.45783 0.50519 0.0
C3104 C 0.24495 0.47262 0.48259 0.0
C3105 C 0.22973 0.46176 0.45939 0.0
H3106 H 0.24641 0.46628 0.52312 0.0
H3107 H 0.09855 0.35489 0.29995 0.0
H3108 H 0.3625 0.1977 0.67321 0.0
H3109 H 0.37467 0.16226 0.65316 0.0
H3110 H 0.36609 0.21247 0.58068 0.0
H3111 H 0.35222 0.24692 0.60029 0.0
H3112 H 0.3458 0.15404 0.57442 0.0
H3113 H 0.43314 0.22397 0.61825 0.0
H3114 H 0.46445 0.24974 0.65537 0.0
H3115 H 0.46133 0.16326 0.69404 0.0
H3116 H 0.4297 0.13695 0.65724 0.0
H3117 H 0.47799 0.12789 0.54169 0.0
H3118 H 0.45636 0.1536 0.56311 0.0
H3119 H 0.37904 0.0726 0.56473 0.0
H3120 H 0.40043 0.04665 0.54272 0.0
H3121 H 0.44009 0.14306 0.60794 0.0
H3122 H 0.32065 0.09481 0.56247 0.0
H3123 H 0.29148 0.07422 0.52263 0.0
H3124 H 0.36357 0.12559 0.4823 0.0
H3125 H 0.39297 0.14677 0.52183 0.0
C3126 C 0.36258 0.20089 0.65291 0.0
C3127 C 0.35665 0.22548 0.63845 0.0
C3128 C 0.36986 0.18073 0.6415 0.0
C3129 C 0.37185 0.18499 0.61546 0.0
C3130 C 0.36486 0.20876 0.60082 0.0
C3131 C 0.35729 0.22873 0.61215 0.0
C3132 C 0.38271 0.16584 0.60361 0.0
C3133 C 0.36634 0.15148 0.58185 0.0
C3134 C 0.40965 0.1627 0.61307 0.0
C3135 C 0.42883 0.17849 0.63512 0.0
C3136 C 0.43899 0.21045 0.63474 0.0
C3137 C 0.45681 0.22515 0.65571 0.0
C3138 C 0.46481 0.20814 0.67708 0.0
C3139 C 0.45508 0.1764 0.67749 0.0
C3140 C 0.43722 0.16159 0.65658 0.0
C3141 C 0.45636 0.1154 0.54654 0.0
C3142 C 0.44097 0.08512 0.54039 0.0
C3143 C 0.44403 0.13019 0.55889 0.0
C3144 C 0.41601 0.11516 0.56546 0.0
C3145 C 0.40057 0.08483 0.55957 0.0
C3146 C 0.41288 0.06998 0.54706 0.0
C3147 C 0.40336 0.13151 0.57856 0.0
C3148 C 0.41937 0.14527 0.60066 0.0
C3149 C 0.37645 0.13468 0.56904 0.0
C3150 C 0.35906 0.12206 0.54516 0.0
C3151 C 0.33021 0.10172 0.54508 0.0
C3152 C 0.31366 0.08996 0.52256 0.0
C3153 C 0.3257 0.09851 0.49996 0.0
C3154 C 0.35431 0.11889 0.49983 0.0
C3155 C 0.37093 0.13074 0.5223 0.0
H3156 H 0.31285 0.08939 0.48255 0.0
H3157 H 0.47859 0.21956 0.6933 0.0
H3158 H 0.796 0.2955 0.69084 0.0
H3159 H 0.82465 0.32719 0.65801 0.0
H3160 H 0.89879 0.36093 0.71484 0.0
H3161 H 0.86985 0.32982 0.74787 0.0
H3162 H 0.89582 0.40584 0.677 0.0
H3163 H 0.89173 0.3023 0.68326 0.0
H3164 H 0.86534 0.24662 0.68498 0.0
H3165 H 0.82051 0.25564 0.61023 0.0
H3166 H 0.84634 0.31147 0.60821 0.0
H3167 H 0.9973 0.46102 0.58787 0.0
H3168 H 0.97405 0.43059 0.62449 0.0
H3169 H 0.89511 0.38899 0.57464 0.0
H3170 H 0.91805 0.41892 0.53842 0.0
H3171 H 0.90372 0.34763 0.61122 0.0
H3172 H 0.90418 0.44984 0.60548 0.0
H3173 H 0.92683 0.50595 0.60384 0.0
H3174 H 0.97602 0.49969 0.67701 0.0
H3175 H 0.95391 0.44349 0.67891 0.0
C3176 C 0.81813 0.31028 0.69643 0.0
C3177 C 0.83064 0.31033 0.72196 0.0
C3178 C 0.8346 0.32822 0.67761 0.0
C3179 C 0.86407 0.34606 0.68389 0.0
C3180 C 0.87616 0.34732 0.70951 0.0
C3181 C 0.85964 0.32948 0.72834 0.0
C3182 C 0.8828 0.36139 0.6637 0.0
C3183 C 0.89792 0.39306 0.66285 0.0
C3184 C 0.8853 0.34479 0.64502 0.0
C3185 C 0.87087 0.31109 0.64564 0.0
C3186 C 0.87623 0.29241 0.66719 0.0
C3187 C 0.86134 0.26083 0.66824 0.0
C3188 C 0.84122 0.2476 0.64774 0.0
C3189 C 0.8361 0.26592 0.62609 0.0
C3190 C 0.8509 0.29753 0.62497 0.0
C3191 C 0.97525 0.44483 0.58476 0.0
C3192 C 0.95944 0.44254 0.56032 0.0
C3193 C 0.96187 0.42764 0.60568 0.0
C3194 C 0.93261 0.40778 0.6024 0.0
C3195 C 0.91759 0.40414 0.57777 0.0
C3196 C 0.93076 0.42138 0.55705 0.0
C3197 C 0.91668 0.39222 0.62436 0.0
C3198 C 0.90199 0.36041 0.62555 0.0
C3199 C 0.91446 0.40873 0.64325 0.0
C3200 C 0.92767 0.44248 0.6422 0.0
C3201 C 0.92 0.46043 0.62112 0.0
C3202 C 0.9327 0.49224 0.62016 0.0
C3203 C 0.95292 0.50637 0.64027 0.0
C3204 C 0.9604 0.48871 0.66142 0.0
C3205 C 0.94779 0.45688 0.66246 0.0
H3206 H 0.96273 0.531 0.6395 0.0
H3207 H 0.82961 0.22316 0.64864 0.0
H3208 H 0.25824 0.75193 0.67521 0.0
H3209 H 0.23091 0.72289 0.63878 0.0
H3210 H 0.17096 0.65911 0.68709 0.0
H3211 H 0.19711 0.68946 0.72295 0.0
H3212 H 0.22189 0.66717 0.63035 0.0
H3213 H 0.10478 0.62445 0.65142 0.0
H3214 H 0.07551 0.63721 0.67676 0.0
H3215 H 0.13038 0.73161 0.66938 0.0
H3216 H 0.15917 0.71967 0.64273 0.0
H3217 H 0.09986 0.54466 0.56432 0.0
H3218 H 0.13881 0.57572 0.59455 0.0
H3219 H 0.1345 0.65759 0.55077 0.0
H3220 H 0.09616 0.62704 0.52036 0.0
H3221 H 0.11615 0.6401 0.60431 0.0
H3222 H 0.19186 0.65607 0.55356 0.0
H3223 H 0.22047 0.63849 0.53123 0.0
H3224 H 0.24693 0.59333 0.60071 0.0
H3225 H 0.21809 0.61027 0.62339 0.0
C3226 C 0.23876 0.73211 0.6777 0.0
C3227 C 0.22916 0.72306 0.70142 0.0
C3228 C 0.2234 0.7154 0.65708 0.0
C3229 C 0.19872 0.68901 0.66015 0.0
C3230 C 0.18945 0.67982 0.6841 0.0
C3231 C 0.20427 0.69712 0.70451 0.0
C3232 C 0.183 0.67104 0.63829 0.0
C3233 C 0.19878 0.66139 0.62461 0.0
C3234 C 0.15272 0.66302 0.63108 0.0
C3235 C 0.13437 0.67111 0.64532 0.0
C3236 C 0.11036 0.64803 0.65482 0.0
C3237 C 0.0938 0.65512 0.66934 0.0
C3238 C 0.10106 0.68525 0.67457 0.0
C3239 C 0.12469 0.70837 0.66504 0.0
C3240 C 0.14106 0.70148 0.65015 0.0
C3241 C 0.10807 0.56925 0.56057 0.0
C3242 C 0.09451 0.58349 0.54041 0.0
C3243 C 0.13026 0.58691 0.57784 0.0
C3244 C 0.13905 0.61878 0.57488 0.0
C3245 C 0.12779 0.63297 0.55328 0.0
C3246 C 0.10583 0.61545 0.53602 0.0
C3247 C 0.15517 0.6369 0.59633 0.0
C3248 C 0.13931 0.64619 0.61005 0.0
C3249 C 0.18515 0.64423 0.60372 0.0
C3250 C 0.20254 0.63414 0.59011 0.0
C3251 C 0.20352 0.64211 0.56403 0.0
C3252 C 0.21984 0.63233 0.55132 0.0
C3253 C 0.23543 0.61472 0.56453 0.0
C3254 C 0.2348 0.60693 0.59049 0.0
C3255 C 0.21849 0.61664 0.60328 0.0
H3256 H 0.24806 0.60718 0.55465 0.0
H3257 H 0.08842 0.69066 0.68606 0.0
loop_
_geom_bond_atom_site_label_1
_geom_bond_atom_site_label_2
_geom_bond_distance
_geom_bond_site_symmetry_2
_ccdc_geom_bond_type
Eu0 N31 2.657 . S
Eu0 N38 2.609 . S
Eu0 O44 2.558 . S
Eu0 O45 2.612 . S
Eu0 O47 2.339 . S
Eu0 O48 2.563 . S
Eu0 O49 2.419 . S
Eu0 O51 2.380 . S
Eu0 O52 2.432 . S
Eu0 C64 2.848 . S
C1 C4 1.429 . S
C1 C5 1.411 . S
C1 N8 1.377 . S
C2 C4 1.420 . S
C2 C6 1.423 . S
C2 C14 1.392 . S
C3 C5 1.420 . S
C3 C6 1.351 . S
C3 H26 0.931 . S
C4 C1 1.429 . S
C4 C2 1.420 . S
C4 N12 1.362 . S
C5 C1 1.411 . S
C5 C3 1.420 . S
C5 C10 1.395 . S
C6 C2 1.423 . S
C6 C3 1.351 . S
C6 H18 0.930 . S
C7 C9 1.400 . S
C7 C10 1.386 . S
C7 H19 0.930 . S
N8 C1 1.377 . S
N8 C9 1.321 . S
N8 Eu11 2.609 . S
C9 C7 1.400 . S
C9 N8 1.321 . S
C9 H16 0.930 . S
C10 C5 1.395 . S
C10 C7 1.386 . S
C10 H29 0.930 . S
Eu11 N8 2.609 . S
Eu11 N12 2.657 . S
Eu11 O45 2.380 . S
Eu11 O46 2.432 . S
Eu11 O50 2.558 . S
Eu11 O51 2.612 . S
Eu11 O53 2.339 . S
Eu11 O54 2.563 . S
Eu11 O55 2.419 . S
Eu11 C75 2.848 . S
N12 C4 1.362 . S
N12 Eu11 2.657 . S
N12 C13 1.334 . S
C13 N12 1.334 . S
C13 C15 1.413 . S
C13 H20 0.929 . S
C14 C2 1.392 . S
C14 C15 1.367 . S
C14 H22 0.930 . S
C15 C13 1.413 . S
C15 C14 1.367 . S
C15 H17 0.930 . S
H16 C9 0.930 . S
H17 C15 0.930 . S
H18 C6 0.930 . S
H19 C7 0.930 . S
H20 C13 0.929 . S
H21 C35 0.930 . S
H22 C14 0.930 . S
H23 C41 0.930 . S
H24 C32 0.929 . S
H25 C39 0.930 . S
H26 C3 0.931 . S
H27 C33 0.930 . S
H28 C66 0.930 . S
H29 C10 0.930 . S
H30 C65 0.931 . S
N31 Eu0 2.657 . S
N31 C32 1.334 . S
N31 C36 1.362 . S
C32 H24 0.929 . S
C32 N31 1.334 . S
C32 C35 1.413 . S
C33 H27 0.930 . S
C33 C34 1.392 . S
C33 C35 1.367 . S
C34 C33 1.392 . S
C34 C36 1.420 . S
C34 C66 1.423 . S
C35 H21 0.930 . S
C35 C32 1.413 . S
C35 C33 1.367 . S
C36 N31 1.362 . S
C36 C34 1.420 . S
C36 C40 1.429 . S
H37 C42 0.930 . S
N38 Eu0 2.609 . S
N38 C40 1.377 . S
N38 C41 1.321 . S
C39 H25 0.930 . S
C39 C41 1.400 . S
C39 C42 1.386 . S
C40 C36 1.429 . S
C40 N38 1.377 . S
C40 C43 1.411 . S
C41 H23 0.930 . S
C41 N38 1.321 . S
C41 C39 1.400 . S
C42 H37 0.930 . S
C42 C39 1.386 . S
C42 C43 1.395 . S
C43 C40 1.411 . S
C43 C42 1.395 . S
C43 C65 1.420 . S
O44 Eu0 2.558 . S
O44 C64 1.257 . S
O45 Eu0 2.612 . S
O45 Eu11 2.380 . S
O45 C56 1.276 . S
O46 Eu11 2.432 . S
O46 C63 1.264 . S
O47 Eu0 2.339 . S
O47 C63 1.254 . S
O48 Eu0 2.563 . S
O48 C56 1.235 . S
O49 Eu0 2.419 . S
O49 C64 1.249 . S
O50 Eu11 2.558 . S
O50 C75 1.257 . S
O51 Eu0 2.380 . S
O51 Eu11 2.612 . S
O51 C67 1.276 . S
O52 Eu0 2.432 . S
O52 C74 1.264 . S
O53 Eu11 2.339 . S
O53 C74 1.254 . S
O54 Eu11 2.563 . S
O54 C67 1.235 . S
O55 Eu11 2.419 . S
O55 C75 1.249 . S
C56 O45 1.276 . S
C56 O48 1.235 . S
C57 C59 1.393 . S
C57 C61 1.395 . S
C57 C64 1.492 . S
C58 C59 1.392 . S
C58 C60 1.386 . S
C59 C57 1.393 . S
C59 C58 1.392 . S
C59 H76 0.930 . S
C60 C58 1.386 . S
C60 C62 1.395 . S
C60 H77 0.930 . S
C61 C57 1.395 . S
C61 C62 1.379 . S
C61 H78 0.930 . S
C62 C60 1.395 . S
C62 C61 1.379 . S
C62 H79 0.930 . S
C63 O46 1.264 . S
C63 O47 1.254 . S
C64 Eu0 2.848 . S
C64 O44 1.257 . S
C64 O49 1.249 . S
C64 C57 1.492 . S
C65 H30 0.931 . S
C65 C43 1.420 . S
C65 C66 1.351 . S
C66 H28 0.930 . S
C66 C34 1.423 . S
C66 C65 1.351 . S
C67 O51 1.276 . S
C67 O54 1.235 . S
C68 C69 1.393 . S
C68 C72 1.395 . S
C68 C75 1.492 . S
C69 C68 1.393 . S
C69 C70 1.392 . S
C69 H80 0.930 . S
C70 C69 1.392 . S
C70 C71 1.386 . S
C71 C70 1.386 . S
C71 C73 1.395 . S
C71 H81 0.930 . S
C72 C68 1.395 . S
C72 C73 1.379 . S
C72 H82 0.930 . S
C73 C71 1.395 . S
C73 C72 1.379 . S
C73 H83 0.930 . S
C74 O52 1.264 . S
C74 O53 1.254 . S
C75 Eu11 2.848 . S
C75 O50 1.257 . S
C75 O55 1.249 . S
C75 C68 1.492 . S
H76 C59 0.930 . S
H77 C60 0.930 . S
H78 C61 0.930 . S
H79 C62 0.930 . S
H80 C69 0.930 . S
H81 C71 0.930 . S
H82 C72 0.930 . S
H83 C73 0.930 . S
Eu84 N115 2.657 . S
Eu84 N122 2.609 . S
Eu84 O128 2.558 . S
Eu84 O129 2.612 . S
Eu84 O131 2.339 . S
Eu84 O132 2.563 . S
Eu84 O133 2.419 . S
Eu84 O135 2.380 . S
Eu84 O136 2.432 . S
Eu84 C148 2.848 . S
C85 C88 1.429 . S
C85 C89 1.411 . S
C85 N92 1.377 . S
C86 C88 1.420 . S
C86 C90 1.423 . S
C86 C98 1.392 . S
C87 C89 1.420 . S
C87 C90 1.351 . S
C87 H110 0.931 . S
C88 C85 1.429 . S
C88 C86 1.420 . S
C88 N96 1.362 . S
C89 C85 1.411 . S
C89 C87 1.420 . S
C89 C94 1.395 . S
C90 C86 1.423 . S
C90 C87 1.351 . S
C90 H102 0.930 . S
C91 C93 1.400 . S
C91 C94 1.386 . S
C91 H103 0.930 . S
N92 C85 1.377 . S
N92 C93 1.321 . S
N92 Eu95 2.609 . S
C93 C91 1.400 . S
C93 N92 1.321 . S
C93 H100 0.930 . S
C94 C89 1.395 . S
C94 C91 1.386 . S
C94 H113 0.930 . S
Eu95 N92 2.609 . S
Eu95 N96 2.657 . S
Eu95 O129 2.380 . S
Eu95 O130 2.432 . S
Eu95 O134 2.558 . S
Eu95 O135 2.612 . S
Eu95 O137 2.339 . S
Eu95 O138 2.563 . S
Eu95 O139 2.419 . S
Eu95 C159 2.848 . S
N96 C88 1.362 . S
N96 Eu95 2.657 . S
N96 C97 1.334 . S
C97 N96 1.334 . S
C97 C99 1.413 . S
C97 H104 0.929 . S
C98 C86 1.392 . S
C98 C99 1.367 . S
C98 H106 0.930 . S
C99 C97 1.413 . S
C99 C98 1.367 . S
C99 H101 0.930 . S
H100 C93 0.930 . S
H101 C99 0.930 . S
H102 C90 0.930 . S
H103 C91 0.930 . S
H104 C97 0.929 . S
H105 C119 0.930 . S
H106 C98 0.930 . S
H107 C125 0.930 . S
H108 C116 0.929 . S
H109 C123 0.930 . S
H110 C87 0.931 . S
H111 C117 0.930 . S
H112 C150 0.930 . S
H113 C94 0.930 . S
H114 C149 0.931 . S
N115 Eu84 2.657 . S
N115 C116 1.334 . S
N115 C120 1.362 . S
C116 H108 0.929 . S
C116 N115 1.334 . S
C116 C119 1.413 . S
C117 H111 0.930 . S
C117 C118 1.392 . S
C117 C119 1.367 . S
C118 C117 1.392 . S
C118 C120 1.420 . S
C118 C150 1.423 . S
C119 H105 0.930 . S
C119 C116 1.413 . S
C119 C117 1.367 . S
C120 N115 1.362 . S
C120 C118 1.420 . S
C120 C124 1.429 . S
H121 C126 0.930 . S
N122 Eu84 2.609 . S
N122 C124 1.377 . S
N122 C125 1.321 . S
C123 H109 0.930 . S
C123 C125 1.400 . S
C123 C126 1.386 . S
C124 C120 1.429 . S
C124 N122 1.377 . S
C124 C127 1.411 . S
C125 H107 0.930 . S
C125 N122 1.321 . S
C125 C123 1.400 . S
C126 H121 0.930 . S
C126 C123 1.386 . S
C126 C127 1.395 . S
C127 C124 1.411 . S
C127 C126 1.395 . S
C127 C149 1.420 . S
O128 Eu84 2.558 . S
O128 C148 1.257 . S
O129 Eu84 2.612 . S
O129 Eu95 2.380 . S
O129 C140 1.276 . S
O130 Eu95 2.432 . S
O130 C147 1.264 . S
O131 Eu84 2.339 . S
O131 C147 1.254 . S
O132 Eu84 2.563 . S
O132 C140 1.235 . S
O133 Eu84 2.419 . S
O133 C148 1.249 . S
O134 Eu95 2.558 . S
O134 C159 1.257 . S
O135 Eu84 2.380 . S
O135 Eu95 2.612 . S
O135 C151 1.276 . S
O136 Eu84 2.432 . S
O136 C158 1.264 . S
O137 Eu95 2.339 . S
O137 C158 1.254 . S
O138 Eu95 2.563 . S
O138 C151 1.235 . S
O139 Eu95 2.419 . S
O139 C159 1.249 . S
C140 O129 1.276 . S
C140 O132 1.235 . S
C141 C143 1.393 . S
C141 C145 1.395 . S
C141 C148 1.492 . S
C142 C143 1.392 . S
C142 C144 1.386 . S
C143 C141 1.393 . S
C143 C142 1.392 . S
C143 H160 0.930 . S
C144 C142 1.386 . S
C144 C146 1.395 . S
C144 H161 0.930 . S
C145 C141 1.395 . S
C145 C146 1.379 . S
C145 H162 0.930 . S
C146 C144 1.395 . S
C146 C145 1.379 . S
C146 H163 0.930 . S
C147 O130 1.264 . S
C147 O131 1.254 . S
C148 Eu84 2.848 . S
C148 O128 1.257 . S
C148 O133 1.249 . S
C148 C141 1.492 . S
C149 H114 0.931 . S
C149 C127 1.420 . S
C149 C150 1.351 . S
C150 H112 0.930 . S
C150 C118 1.423 . S
C150 C149 1.351 . S
C151 O135 1.276 . S
C151 O138 1.235 . S
C152 C153 1.393 . S
C152 C156 1.395 . S
C152 C159 1.492 . S
C153 C152 1.393 . S
C153 C154 1.392 . S
C153 H164 0.930 . S
C154 C153 1.392 . S
C154 C155 1.386 . S
C155 C154 1.386 . S
C155 C157 1.395 . S
C155 H165 0.930 . S
C156 C152 1.395 . S
C156 C157 1.379 . S
C156 H166 0.930 . S
C157 C155 1.395 . S
C157 C156 1.379 . S
C157 H167 0.930 . S
C158 O136 1.264 . S
C158 O137 1.254 . S
C159 Eu95 2.848 . S
C159 O134 1.257 . S
C159 O139 1.249 . S
C159 C152 1.492 . S
H160 C143 0.930 . S
H161 C144 0.930 . S
H162 C145 0.930 . S
H163 C146 0.930 . S
H164 C153 0.930 . S
H165 C155 0.930 . S
H166 C156 0.930 . S
H167 C157 0.930 . S
Eu168 N199 2.657 . S
Eu168 N206 2.609 . S
Eu168 O212 2.558 . S
Eu168 O213 2.612 . S
Eu168 O215 2.339 . S
Eu168 O216 2.563 . S
Eu168 O217 2.419 . S
Eu168 O219 2.380 . S
Eu168 O220 2.432 . S
Eu168 C232 2.848 . S
C169 C172 1.429 . S
C169 C173 1.411 . S
C169 N176 1.377 . S
C170 C172 1.420 . S
C170 C174 1.423 . S
C170 C182 1.392 . S
C171 C173 1.420 . S
C171 C174 1.351 . S
C171 H194 0.931 . S
C172 C169 1.429 . S
C172 C170 1.420 . S
C172 N180 1.362 . S
C173 C169 1.411 . S
C173 C171 1.420 . S
C173 C178 1.395 . S
C174 C170 1.423 . S
C174 C171 1.351 . S
C174 H186 0.930 . S
C175 C177 1.400 . S
C175 C178 1.386 . S
C175 H187 0.930 . S
N176 C169 1.377 . S
N176 C177 1.321 . S
N176 Eu179 2.609 . S
C177 C175 1.400 . S
C177 N176 1.321 . S
C177 H184 0.930 . S
C178 C173 1.395 . S
C178 C175 1.386 . S
C178 H197 0.930 . S
Eu179 N176 2.609 . S
Eu179 N180 2.657 . S
Eu179 O213 2.380 . S
Eu179 O214 2.432 . S
Eu179 O218 2.558 . S
Eu179 O219 2.612 . S
Eu179 O221 2.339 . S
Eu179 O222 2.563 . S
Eu179 O223 2.419 . S
Eu179 C243 2.848 . S
N180 C172 1.362 . S
N180 Eu179 2.657 . S
N180 C181 1.334 . S
C181 N180 1.334 . S
C181 C183 1.413 . S
C181 H188 0.929 . S
C182 C170 1.392 . S
C182 C183 1.367 . S
C182 H190 0.930 . S
C183 C181 1.413 . S
C183 C182 1.367 . S
C183 H185 0.930 . S
H184 C177 0.930 . S
H185 C183 0.930 . S
H186 C174 0.930 . S
H187 C175 0.930 . S
H188 C181 0.929 . S
H189 C203 0.930 . S
H190 C182 0.930 . S
H191 C209 0.930 . S
H192 C200 0.929 . S
H193 C207 0.930 . S
H194 C171 0.931 . S
H195 C201 0.930 . S
H196 C234 0.930 . S
H197 C178 0.930 . S
H198 C233 0.931 . S
N199 Eu168 2.657 . S
N199 C200 1.334 . S
N199 C204 1.362 . S
C200 H192 0.929 . S
C200 N199 1.334 . S
C200 C203 1.413 . S
C201 H195 0.930 . S
C201 C202 1.392 . S
C201 C203 1.367 . S
C202 C201 1.392 . S
C202 C204 1.420 . S
C202 C234 1.423 . S
C203 H189 0.930 . S
C203 C200 1.413 . S
C203 C201 1.367 . S
C204 N199 1.362 . S
C204 C202 1.420 . S
C204 C208 1.429 . S
H205 C210 0.930 . S
N206 Eu168 2.609 . S
N206 C208 1.377 . S
N206 C209 1.321 . S
C207 H193 0.930 . S
C207 C209 1.400 . S
C207 C210 1.386 . S
C208 C204 1.429 . S
C208 N206 1.377 . S
C208 C211 1.411 . S
C209 H191 0.930 . S
C209 N206 1.321 . S
C209 C207 1.400 . S
C210 H205 0.930 . S
C210 C207 1.386 . S
C210 C211 1.395 . S
C211 C208 1.411 . S
C211 C210 1.395 . S
C211 C233 1.420 . S
O212 Eu168 2.558 . S
O212 C232 1.257 . S
O213 Eu168 2.612 . S
O213 Eu179 2.380 . S
O213 C224 1.276 . S
O214 Eu179 2.432 . S
O214 C231 1.264 . S
O215 Eu168 2.339 . S
O215 C231 1.254 . S
O216 Eu168 2.563 . S
O216 C224 1.235 . S
O217 Eu168 2.419 . S
O217 C232 1.249 . S
O218 Eu179 2.558 . S
O218 C243 1.257 . S
O219 Eu168 2.380 . S
O219 Eu179 2.612 . S
O219 C235 1.276 . S
O220 Eu168 2.432 . S
O220 C242 1.264 . S
O221 Eu179 2.339 . S
O221 C242 1.254 . S
O222 Eu179 2.563 . S
O222 C235 1.235 . S
O223 Eu179 2.419 . S
O223 C243 1.249 . S
C224 O213 1.276 . S
C224 O216 1.235 . S
C225 C227 1.393 . S
C225 C229 1.395 . S
C225 C232 1.492 . S
C226 C227 1.392 . S
C226 C228 1.386 . S
C227 C225 1.393 . S
C227 C226 1.392 . S
C227 H244 0.930 . S
C228 C226 1.386 . S
C228 C230 1.395 . S
C228 H245 0.930 . S
C229 C225 1.395 . S
C229 C230 1.379 . S
C229 H246 0.930 . S
C230 C228 1.395 . S
C230 C229 1.379 . S
C230 H247 0.930 . S
C231 O214 1.264 . S
C231 O215 1.254 . S
C232 Eu168 2.848 . S
C232 O212 1.257 . S
C232 O217 1.249 . S
C232 C225 1.492 . S
C233 H198 0.931 . S
C233 C211 1.420 . S
C233 C234 1.351 . S
C234 H196 0.930 . S
C234 C202 1.423 . S
C234 C233 1.351 . S
C235 O219 1.276 . S
C235 O222 1.235 . S
C236 C237 1.393 . S
C236 C240 1.395 . S
C236 C243 1.492 . S
C237 C236 1.393 . S
C237 C238 1.392 . S
C237 H248 0.930 . S
C238 C237 1.392 . S
C238 C239 1.386 . S
C239 C238 1.386 . S
C239 C241 1.395 . S
C239 H249 0.930 . S
C240 C236 1.395 . S
C240 C241 1.379 . S
C240 H250 0.930 . S
C241 C239 1.395 . S
C241 C240 1.379 . S
C241 H251 0.930 . S
C242 O220 1.264 . S
C242 O221 1.254 . S
C243 Eu179 2.848 . S
C243 O218 1.257 . S
C243 O223 1.249 . S
C243 C236 1.492 . S
H244 C227 0.930 . S
H245 C228 0.930 . S
H246 C229 0.930 . S
H247 C230 0.930 . S
H248 C237 0.930 . S
H249 C239 0.930 . S
H250 C240 0.930 . S
H251 C241 0.930 . S
Eu252 N283 2.657 . S
Eu252 N290 2.609 . S
Eu252 O296 2.558 . S
Eu252 O297 2.612 . S
Eu252 O299 2.339 . S
Eu252 O300 2.563 . S
Eu252 O301 2.419 . S
Eu252 O303 2.380 . S
Eu252 O304 2.432 . S
Eu252 C316 2.848 . S
C253 C256 1.429 . S
C253 C257 1.411 . S
C253 N260 1.377 . S
C254 C256 1.420 . S
C254 C258 1.423 . S
C254 C266 1.392 . S
C255 C257 1.420 . S
C255 C258 1.351 . S
C255 H278 0.931 . S
C256 C253 1.429 . S
C256 C254 1.420 . S
C256 N264 1.362 . S
C257 C253 1.411 . S
C257 C255 1.420 . S
C257 C262 1.395 . S
C258 C254 1.423 . S
C258 C255 1.351 . S
C258 H270 0.930 . S
C259 C261 1.400 . S
C259 C262 1.386 . S
C259 H271 0.930 . S
N260 C253 1.377 . S
N260 C261 1.321 . S
N260 Eu263 2.609 . S
C261 C259 1.400 . S
C261 N260 1.321 . S
C261 H268 0.930 . S
C262 C257 1.395 . S
C262 C259 1.386 . S
C262 H281 0.930 . S
Eu263 N260 2.609 . S
Eu263 N264 2.657 . S
Eu263 O297 2.380 . S
Eu263 O298 2.432 . S
Eu263 O302 2.558 . S
Eu263 O303 2.612 . S
Eu263 O305 2.339 . S
Eu263 O306 2.563 . S
Eu263 O307 2.419 . S
Eu263 C327 2.848 . S
N264 C256 1.362 . S
N264 Eu263 2.657 . S
N264 C265 1.334 . S
C265 N264 1.334 . S
C265 C267 1.413 . S
C265 H272 0.929 . S
C266 C254 1.392 . S
C266 C267 1.367 . S
C266 H274 0.930 . S
C267 C265 1.413 . S
C267 C266 1.367 . S
C267 H269 0.930 . S
H268 C261 0.930 . S
H269 C267 0.930 . S
H270 C258 0.930 . S
H271 C259 0.930 . S
H272 C265 0.929 . S
H273 C287 0.930 . S
H274 C266 0.930 . S
H275 C293 0.930 . S
H276 C284 0.929 . S
H277 C291 0.930 . S
H278 C255 0.931 . S
H279 C285 0.930 . S
H280 C318 0.930 . S
H281 C262 0.930 . S
H282 C317 0.931 . S
N283 Eu252 2.657 . S
N283 C284 1.334 . S
N283 C288 1.362 . S
C284 H276 0.929 . S
C284 N283 1.334 . S
C284 C287 1.413 . S
C285 H279 0.930 . S
C285 C286 1.392 . S
C285 C287 1.367 . S
C286 C285 1.392 . S
C286 C288 1.420 . S
C286 C318 1.423 . S
C287 H273 0.930 . S
C287 C284 1.413 . S
C287 C285 1.367 . S
C288 N283 1.362 . S
C288 C286 1.420 . S
C288 C292 1.429 . S
H289 C294 0.930 . S
N290 Eu252 2.609 . S
N290 C292 1.377 . S
N290 C293 1.321 . S
C291 H277 0.930 . S
C291 C293 1.400 . S
C291 C294 1.386 . S
C292 C288 1.429 . S
C292 N290 1.377 . S
C292 C295 1.411 . S
C293 H275 0.930 . S
C293 N290 1.321 . S
C293 C291 1.400 . S
C294 H289 0.930 . S
C294 C291 1.386 . S
C294 C295 1.395 . S
C295 C292 1.411 . S
C295 C294 1.395 . S
C295 C317 1.420 . S
O296 Eu252 2.558 . S
O296 C316 1.257 . S
O297 Eu252 2.612 . S
O297 Eu263 2.380 . S
O297 C308 1.276 . S
O298 Eu263 2.432 . S
O298 C315 1.264 . S
O299 Eu252 2.339 . S
O299 C315 1.254 . S
O300 Eu252 2.563 . S
O300 C308 1.235 . S
O301 Eu252 2.419 . S
O301 C316 1.249 . S
O302 Eu263 2.558 . S
O302 C327 1.257 . S
O303 Eu252 2.380 . S
O303 Eu263 2.612 . S
O303 C319 1.276 . S
O304 Eu252 2.432 . S
O304 C326 1.264 . S
O305 Eu263 2.339 . S
O305 C326 1.254 . S
O306 Eu263 2.563 . S
O306 C319 1.235 . S
O307 Eu263 2.419 . S
O307 C327 1.249 . S
C308 O297 1.276 . S
C308 O300 1.235 . S
C309 C311 1.393 . S
C309 C313 1.395 . S
C309 C316 1.492 . S
C310 C311 1.392 . S
C310 C312 1.386 . S
C311 C309 1.393 . S
C311 C310 1.392 . S
C311 H328 0.930 . S
C312 C310 1.386 . S
C312 C314 1.395 . S
C312 H329 0.930 . S
C313 C309 1.395 . S
C313 C314 1.379 . S
C313 H330 0.930 . S
C314 C312 1.395 . S
C314 C313 1.379 . S
C314 H331 0.930 . S
C315 O298 1.264 . S
C315 O299 1.254 . S
C316 Eu252 2.848 . S
C316 O296 1.257 . S
C316 O301 1.249 . S
C316 C309 1.492 . S
C317 H282 0.931 . S
C317 C295 1.420 . S
C317 C318 1.351 . S
C318 H280 0.930 . S
C318 C286 1.423 . S
C318 C317 1.351 . S
C319 O303 1.276 . S
C319 O306 1.235 . S
C320 C321 1.393 . S
C320 C324 1.395 . S
C320 C327 1.492 . S
C321 C320 1.393 . S
C321 C322 1.392 . S
C321 H332 0.930 . S
C322 C321 1.392 . S
C322 C323 1.386 . S
C323 C322 1.386 . S
C323 C325 1.395 . S
C323 H333 0.930 . S
C324 C320 1.395 . S
C324 C325 1.379 . S
C324 H334 0.930 . S
C325 C323 1.395 . S
C325 C324 1.379 . S
C325 H335 0.930 . S
C326 O304 1.264 . S
C326 O305 1.254 . S
C327 Eu263 2.848 . S
C327 O302 1.257 . S
C327 O307 1.249 . S
C327 C320 1.492 . S
H328 C311 0.930 . S
H329 C312 0.930 . S
H330 C313 0.930 . S
H331 C314 0.930 . S
H332 C321 0.930 . S
H333 C323 0.930 . S
H334 C324 0.930 . S
H335 C325 0.930 . S
Eu336 N367 2.657 . S
Eu336 N374 2.609 . S
Eu336 O380 2.558 . S
Eu336 O381 2.612 . S
Eu336 O383 2.339 . S
Eu336 O384 2.563 . S
Eu336 O385 2.419 . S
Eu336 O387 2.380 . S
Eu336 O388 2.432 . S
Eu336 C400 2.848 . S
C337 C340 1.429 . S
C337 C341 1.411 . S
C337 N344 1.377 . S
C338 C340 1.420 . S
C338 C342 1.423 . S
C338 C350 1.392 . S
C339 C341 1.420 . S
C339 C342 1.351 . S
C339 H362 0.931 . S
C340 C337 1.429 . S
C340 C338 1.420 . S
C340 N348 1.362 . S
C341 C337 1.411 . S
C341 C339 1.420 . S
C341 C346 1.395 . S
C342 C338 1.423 . S
C342 C339 1.351 . S
C342 H354 0.930 . S
C343 C345 1.400 . S
C343 C346 1.386 . S
C343 H355 0.930 . S
N344 C337 1.377 . S
N344 C345 1.321 . S
N344 Eu347 2.609 . S
C345 C343 1.400 . S
C345 N344 1.321 . S
C345 H352 0.930 . S
C346 C341 1.395 . S
C346 C343 1.386 . S
C346 H365 0.930 . S
Eu347 N344 2.609 . S
Eu347 N348 2.657 . S
Eu347 O381 2.380 . S
Eu347 O382 2.432 . S
Eu347 O386 2.558 . S
Eu347 O387 2.612 . S
Eu347 O389 2.339 . S
Eu347 O390 2.563 . S
Eu347 O391 2.419 . S
Eu347 C411 2.848 . S
N348 C340 1.362 . S
N348 Eu347 2.657 . S
N348 C349 1.334 . S
C349 N348 1.334 . S
C349 C351 1.413 . S
C349 H356 0.929 . S
C350 C338 1.392 . S
C350 C351 1.367 . S
C350 H358 0.930 . S
C351 C349 1.413 . S
C351 C350 1.367 . S
C351 H353 0.930 . S
H352 C345 0.930 . S
H353 C351 0.930 . S
H354 C342 0.930 . S
H355 C343 0.930 . S
H356 C349 0.929 . S
H357 C371 0.930 . S
H358 C350 0.930 . S
H359 C377 0.930 . S
H360 C368 0.929 . S
H361 C375 0.930 . S
H362 C339 0.931 . S
H363 C369 0.930 . S
H364 C402 0.930 . S
H365 C346 0.930 . S
H366 C401 0.931 . S
N367 Eu336 2.657 . S
N367 C368 1.334 . S
N367 C372 1.362 . S
C368 H360 0.929 . S
C368 N367 1.334 . S
C368 C371 1.413 . S
C369 H363 0.930 . S
C369 C370 1.392 . S
C369 C371 1.367 . S
C370 C369 1.392 . S
C370 C372 1.420 . S
C370 C402 1.423 . S
C371 H357 0.930 . S
C371 C368 1.413 . S
C371 C369 1.367 . S
C372 N367 1.362 . S
C372 C370 1.420 . S
C372 C376 1.429 . S
H373 C378 0.930 . S
N374 Eu336 2.609 . S
N374 C376 1.377 . S
N374 C377 1.321 . S
C375 H361 0.930 . S
C375 C377 1.400 . S
C375 C378 1.386 . S
C376 C372 1.429 . S
C376 N374 1.377 . S
C376 C379 1.411 . S
C377 H359 0.930 . S
C377 N374 1.321 . S
C377 C375 1.400 . S
C378 H373 0.930 . S
C378 C375 1.386 . S
C378 C379 1.395 . S
C379 C376 1.411 . S
C379 C378 1.395 . S
C379 C401 1.420 . S
O380 Eu336 2.558 . S
O380 C400 1.257 . S
O381 Eu336 2.612 . S
O381 Eu347 2.380 . S
O381 C392 1.276 . S
O382 Eu347 2.432 . S
O382 C399 1.264 . S
O383 Eu336 2.339 . S
O383 C399 1.254 . S
O384 Eu336 2.563 . S
O384 C392 1.235 . S
O385 Eu336 2.419 . S
O385 C400 1.249 . S
O386 Eu347 2.558 . S
O386 C411 1.257 . S
O387 Eu336 2.380 . S
O387 Eu347 2.612 . S
O387 C403 1.276 . S
O388 Eu336 2.432 . S
O388 C410 1.264 . S
O389 Eu347 2.339 . S
O389 C410 1.254 . S
O390 Eu347 2.563 . S
O390 C403 1.235 . S
O391 Eu347 2.419 . S
O391 C411 1.249 . S
C392 O381 1.276 . S
C392 O384 1.235 . S
C393 C395 1.393 . S
C393 C397 1.395 . S
C393 C400 1.492 . S
C394 C395 1.392 . S
C394 C396 1.386 . S
C395 C393 1.393 . S
C395 C394 1.392 . S
C395 H412 0.930 . S
C396 C394 1.386 . S
C396 C398 1.395 . S
C396 H413 0.930 . S
C397 C393 1.395 . S
C397 C398 1.379 . S
C397 H414 0.930 . S
C398 C396 1.395 . S
C398 C397 1.379 . S
C398 H415 0.930 . S
C399 O382 1.264 . S
C399 O383 1.254 . S
C400 Eu336 2.848 . S
C400 O380 1.257 . S
C400 O385 1.249 . S
C400 C393 1.492 . S
C401 H366 0.931 . S
C401 C379 1.420 . S
C401 C402 1.351 . S
C402 H364 0.930 . S
C402 C370 1.423 . S
C402 C401 1.351 . S
C403 O387 1.276 . S
C403 O390 1.235 . S
C404 C405 1.393 . S
C404 C408 1.395 . S
C404 C411 1.492 . S
C405 C404 1.393 . S
C405 C406 1.392 . S
C405 H416 0.930 . S
C406 C405 1.392 . S
C406 C407 1.386 . S
C407 C406 1.386 . S
C407 C409 1.395 . S
C407 H417 0.930 . S
C408 C404 1.395 . S
C408 C409 1.379 . S
C408 H418 0.930 . S
C409 C407 1.395 . S
C409 C408 1.379 . S
C409 H419 0.930 . S
C410 O388 1.264 . S
C410 O389 1.254 . S
C411 Eu347 2.848 . S
C411 O386 1.257 . S
C411 O391 1.249 . S
C411 C404 1.492 . S
H412 C395 0.930 . S
H413 C396 0.930 . S
H414 C397 0.930 . S
H415 C398 0.930 . S
H416 C405 0.930 . S
H417 C407 0.930 . S
H418 C408 0.930 . S
H419 C409 0.930 . S
Eu420 N451 2.657 . S
Eu420 N458 2.609 . S
Eu420 O464 2.558 . S
Eu420 O465 2.612 . S
Eu420 O467 2.339 . S
Eu420 O468 2.563 . S
Eu420 O469 2.419 . S
Eu420 O471 2.380 . S
Eu420 O472 2.432 . S
Eu420 C484 2.848 . S
C421 C424 1.429 . S
C421 C425 1.411 . S
C421 N428 1.377 . S
C422 C424 1.420 . S
C422 C426 1.423 . S
C422 C434 1.392 . S
C423 C425 1.420 . S
C423 C426 1.351 . S
C423 H446 0.931 . S
C424 C421 1.429 . S
C424 C422 1.420 . S
C424 N432 1.362 . S
C425 C421 1.411 . S
C425 C423 1.420 . S
C425 C430 1.395 . S
C426 C422 1.423 . S
C426 C423 1.351 . S
C426 H438 0.930 . S
C427 C429 1.400 . S
C427 C430 1.386 . S
C427 H439 0.930 . S
N428 C421 1.377 . S
N428 C429 1.321 . S
N428 Eu431 2.609 . S
C429 C427 1.400 . S
C429 N428 1.321 . S
C429 H436 0.930 . S
C430 C425 1.395 . S
C430 C427 1.386 . S
C430 H449 0.930 . S
Eu431 N428 2.609 . S
Eu431 N432 2.657 . S
Eu431 O465 2.380 . S
Eu431 O466 2.432 . S
Eu431 O470 2.558 . S
Eu431 O471 2.612 . S
Eu431 O473 2.339 . S
Eu431 O474 2.563 . S
Eu431 O475 2.419 . S
Eu431 C495 2.848 . S
N432 C424 1.362 . S
N432 Eu431 2.657 . S
N432 C433 1.334 . S
C433 N432 1.334 . S
C433 C435 1.413 . S
C433 H440 0.929 . S
C434 C422 1.392 . S
C434 C435 1.367 . S
C434 H442 0.930 . S
C435 C433 1.413 . S
C435 C434 1.367 . S
C435 H437 0.930 . S
H436 C429 0.930 . S
H437 C435 0.930 . S
H438 C426 0.930 . S
H439 C427 0.930 . S
H440 C433 0.929 . S
H441 C455 0.930 . S
H442 C434 0.930 . S
H443 C461 0.930 . S
H444 C452 0.929 . S
H445 C459 0.930 . S
H446 C423 0.931 . S
H447 C453 0.930 . S
H448 C486 0.930 . S
H449 C430 0.930 . S
H450 C485 0.931 . S
N451 Eu420 2.657 . S
N451 C452 1.334 . S
N451 C456 1.362 . S
C452 H444 0.929 . S
C452 N451 1.334 . S
C452 C455 1.413 . S
C453 H447 0.930 . S
C453 C454 1.392 . S
C453 C455 1.367 . S
C454 C453 1.392 . S
C454 C456 1.420 . S
C454 C486 1.423 . S
C455 H441 0.930 . S
C455 C452 1.413 . S
C455 C453 1.367 . S
C456 N451 1.362 . S
C456 C454 1.420 . S
C456 C460 1.429 . S
H457 C462 0.930 . S
N458 Eu420 2.609 . S
N458 C460 1.377 . S
N458 C461 1.321 . S
C459 H445 0.930 . S
C459 C461 1.400 . S
C459 C462 1.386 . S
C460 C456 1.429 . S
C460 N458 1.377 . S
C460 C463 1.411 . S
C461 H443 0.930 . S
C461 N458 1.321 . S
C461 C459 1.400 . S
C462 H457 0.930 . S
C462 C459 1.386 . S
C462 C463 1.395 . S
C463 C460 1.411 . S
C463 C462 1.395 . S
C463 C485 1.420 . S
O464 Eu420 2.558 . S
O464 C484 1.257 . S
O465 Eu420 2.612 . S
O465 Eu431 2.380 . S
O465 C476 1.276 . S
O466 Eu431 2.432 . S
O466 C483 1.264 . S
O467 Eu420 2.339 . S
O467 C483 1.254 . S
O468 Eu420 2.563 . S
O468 C476 1.235 . S
O469 Eu420 2.419 . S
O469 C484 1.249 . S
O470 Eu431 2.558 . S
O470 C495 1.257 . S
O471 Eu420 2.380 . S
O471 Eu431 2.612 . S
O471 C487 1.276 . S
O472 Eu420 2.432 . S
O472 C494 1.264 . S
O473 Eu431 2.339 . S
O473 C494 1.254 . S
O474 Eu431 2.563 . S
O474 C487 1.235 . S
O475 Eu431 2.419 . S
O475 C495 1.249 . S
C476 O465 1.276 . S
C476 O468 1.235 . S
C477 C479 1.393 . S
C477 C481 1.395 . S
C477 C484 1.492 . S
C478 C479 1.392 . S
C478 C480 1.386 . S
C479 C477 1.393 . S
C479 C478 1.392 . S
C479 H496 0.930 . S
C480 C478 1.386 . S
C480 C482 1.395 . S
C480 H497 0.930 . S
C481 C477 1.395 . S
C481 C482 1.379 . S
C481 H498 0.930 . S
C482 C480 1.395 . S
C482 C481 1.379 . S
C482 H499 0.930 . S
C483 O466 1.264 . S
C483 O467 1.254 . S
C484 Eu420 2.848 . S
C484 O464 1.257 . S
C484 O469 1.249 . S
C484 C477 1.492 . S
C485 H450 0.931 . S
C485 C463 1.420 . S
C485 C486 1.351 . S
C486 H448 0.930 . S
C486 C454 1.423 . S
C486 C485 1.351 . S
C487 O471 1.276 . S
C487 O474 1.235 . S
C488 C489 1.393 . S
C488 C492 1.395 . S
C488 C495 1.492 . S
C489 C488 1.393 . S
C489 C490 1.392 . S
C489 H500 0.930 . S
C490 C489 1.392 . S
C490 C491 1.386 . S
C491 C490 1.386 . S
C491 C493 1.395 . S
C491 H501 0.930 . S
C492 C488 1.395 . S
C492 C493 1.379 . S
C492 H502 0.930 . S
C493 C491 1.395 . S
C493 C492 1.379 . S
C493 H503 0.930 . S
C494 O472 1.264 . S
C494 O473 1.254 . S
C495 Eu431 2.848 . S
C495 O470 1.257 . S
C495 O475 1.249 . S
C495 C488 1.492 . S
H496 C479 0.930 . S
H497 C480 0.930 . S
H498 C481 0.930 . S
H499 C482 0.930 . S
H500 C489 0.930 . S
H501 C491 0.930 . S
H502 C492 0.930 . S
H503 C493 0.930 . S
Eu504 N535 2.657 . S
Eu504 N542 2.609 . S
Eu504 O548 2.558 . S
Eu504 O549 2.612 . S
Eu504 O551 2.339 . S
Eu504 O552 2.563 . S
Eu504 O553 2.419 . S
Eu504 O555 2.380 . S
Eu504 O556 2.432 . S
Eu504 C568 2.848 . S
C505 C508 1.429 . S
C505 C509 1.411 . S
C505 N512 1.377 . S
C506 C508 1.420 . S
C506 C510 1.423 . S
C506 C518 1.392 . S
C507 C509 1.420 . S
C507 C510 1.351 . S
C507 H530 0.931 . S
C508 C505 1.429 . S
C508 C506 1.420 . S
C508 N516 1.362 . S
C509 C505 1.411 . S
C509 C507 1.420 . S
C509 C514 1.395 . S
C510 C506 1.423 . S
C510 C507 1.351 . S
C510 H522 0.930 . S
C511 C513 1.400 . S
C511 C514 1.386 . S
C511 H523 0.930 . S
N512 C505 1.377 . S
N512 C513 1.321 . S
N512 Eu515 2.609 . S
C513 C511 1.400 . S
C513 N512 1.321 . S
C513 H520 0.930 . S
C514 C509 1.395 . S
C514 C511 1.386 . S
C514 H533 0.930 . S
Eu515 N512 2.609 . S
Eu515 N516 2.657 . S
Eu515 O549 2.380 . S
Eu515 O550 2.432 . S
Eu515 O554 2.558 . S
Eu515 O555 2.612 . S
Eu515 O557 2.339 . S
Eu515 O558 2.563 . S
Eu515 O559 2.419 . S
Eu515 C579 2.848 . S
N516 C508 1.362 . S
N516 Eu515 2.657 . S
N516 C517 1.334 . S
C517 N516 1.334 . S
C517 C519 1.413 . S
C517 H524 0.929 . S
C518 C506 1.392 . S
C518 C519 1.367 . S
C518 H526 0.930 . S
C519 C517 1.413 . S
C519 C518 1.367 . S
C519 H521 0.930 . S
H520 C513 0.930 . S
H521 C519 0.930 . S
H522 C510 0.930 . S
H523 C511 0.930 . S
H524 C517 0.929 . S
H525 C539 0.930 . S
H526 C518 0.930 . S
H527 C545 0.930 . S
H528 C536 0.929 . S
H529 C543 0.930 . S
H530 C507 0.931 . S
H531 C537 0.930 . S
H532 C570 0.930 . S
H533 C514 0.930 . S
H534 C569 0.931 . S
N535 Eu504 2.657 . S
N535 C536 1.334 . S
N535 C540 1.362 . S
C536 H528 0.929 . S
C536 N535 1.334 . S
C536 C539 1.413 . S
C537 H531 0.930 . S
C537 C538 1.392 . S
C537 C539 1.367 . S
C538 C537 1.392 . S
C538 C540 1.420 . S
C538 C570 1.423 . S
C539 H525 0.930 . S
C539 C536 1.413 . S
C539 C537 1.367 . S
C540 N535 1.362 . S
C540 C538 1.420 . S
C540 C544 1.429 . S
H541 C546 0.930 . S
N542 Eu504 2.609 . S
N542 C544 1.377 . S
N542 C545 1.321 . S
C543 H529 0.930 . S
C543 C545 1.400 . S
C543 C546 1.386 . S
C544 C540 1.429 . S
C544 N542 1.377 . S
C544 C547 1.411 . S
C545 H527 0.930 . S
C545 N542 1.321 . S
C545 C543 1.400 . S
C546 H541 0.930 . S
C546 C543 1.386 . S
C546 C547 1.395 . S
C547 C544 1.411 . S
C547 C546 1.395 . S
C547 C569 1.420 . S
O548 Eu504 2.558 . S
O548 C568 1.257 . S
O549 Eu504 2.612 . S
O549 Eu515 2.380 . S
O549 C560 1.276 . S
O550 Eu515 2.432 . S
O550 C567 1.264 . S
O551 Eu504 2.339 . S
O551 C567 1.254 . S
O552 Eu504 2.563 . S
O552 C560 1.235 . S
O553 Eu504 2.419 . S
O553 C568 1.249 . S
O554 Eu515 2.558 . S
O554 C579 1.257 . S
O555 Eu504 2.380 . S
O555 Eu515 2.612 . S
O555 C571 1.276 . S
O556 Eu504 2.432 . S
O556 C578 1.264 . S
O557 Eu515 2.339 . S
O557 C578 1.254 . S
O558 Eu515 2.563 . S
O558 C571 1.235 . S
O559 Eu515 2.419 . S
O559 C579 1.249 . S
C560 O549 1.276 . S
C560 O552 1.235 . S
C561 C563 1.393 . S
C561 C565 1.395 . S
C561 C568 1.492 . S
C562 C563 1.392 . S
C562 C564 1.386 . S
C563 C561 1.393 . S
C563 C562 1.392 . S
C563 H580 0.930 . S
C564 C562 1.386 . S
C564 C566 1.395 . S
C564 H581 0.930 . S
C565 C561 1.395 . S
C565 C566 1.379 . S
C565 H582 0.930 . S
C566 C564 1.395 . S
C566 C565 1.379 . S
C566 H583 0.930 . S
C567 O550 1.264 . S
C567 O551 1.254 . S
C568 Eu504 2.848 . S
C568 O548 1.257 . S
C568 O553 1.249 . S
C568 C561 1.492 . S
C569 H534 0.931 . S
C569 C547 1.420 . S
C569 C570 1.351 . S
C570 H532 0.930 . S
C570 C538 1.423 . S
C570 C569 1.351 . S
C571 O555 1.276 . S
C571 O558 1.235 . S
C572 C573 1.393 . S
C572 C576 1.395 . S
C572 C579 1.492 . S
C573 C572 1.393 . S
C573 C574 1.392 . S
C573 H584 0.930 . S
C574 C573 1.392 . S
C574 C575 1.386 . S
C575 C574 1.386 . S
C575 C577 1.395 . S
C575 H585 0.930 . S
C576 C572 1.395 . S
C576 C577 1.379 . S
C576 H586 0.930 . S
C577 C575 1.395 . S
C577 C576 1.379 . S
C577 H587 0.930 . S
C578 O556 1.264 . S
C578 O557 1.254 . S
C579 Eu515 2.848 . S
C579 O554 1.257 . S
C579 O559 1.249 . S
C579 C572 1.492 . S
H580 C563 0.930 . S
H581 C564 0.930 . S
H582 C565 0.930 . S
H583 C566 0.930 . S
H584 C573 0.930 . S
H585 C575 0.930 . S
H586 C576 0.930 . S
H587 C577 0.930 . S
Eu588 N619 2.657 . S
Eu588 N626 2.609 . S
Eu588 O632 2.558 . S
Eu588 O633 2.612 . S
Eu588 O635 2.339 . S
Eu588 O636 2.563 . S
Eu588 O637 2.419 . S
Eu588 O639 2.380 . S
Eu588 O640 2.432 . S
Eu588 C652 2.848 . S
C589 C592 1.429 . S
C589 C593 1.411 . S
C589 N596 1.377 . S
C590 C592 1.420 . S
C590 C594 1.423 . S
C590 C602 1.392 . S
C591 C593 1.420 . S
C591 C594 1.351 . S
C591 H614 0.931 . S
C592 C589 1.429 . S
C592 C590 1.420 . S
C592 N600 1.362 . S
C593 C589 1.411 . S
C593 C591 1.420 . S
C593 C598 1.395 . S
C594 C590 1.423 . S
C594 C591 1.351 . S
C594 H606 0.930 . S
C595 C597 1.400 . S
C595 C598 1.386 . S
C595 H607 0.930 . S
N596 C589 1.377 . S
N596 C597 1.321 . S
N596 Eu599 2.609 . S
C597 C595 1.400 . S
C597 N596 1.321 . S
C597 H604 0.930 . S
C598 C593 1.395 . S
C598 C595 1.386 . S
C598 H617 0.930 . S
Eu599 N596 2.609 . S
Eu599 N600 2.657 . S
Eu599 O633 2.380 . S
Eu599 O634 2.432 . S
Eu599 O638 2.558 . S
Eu599 O639 2.612 . S
Eu599 O641 2.339 . S
Eu599 O642 2.563 . S
Eu599 O643 2.419 . S
Eu599 C663 2.848 . S
N600 C592 1.362 . S
N600 Eu599 2.657 . S
N600 C601 1.334 . S
C601 N600 1.334 . S
C601 C603 1.413 . S
C601 H608 0.929 . S
C602 C590 1.392 . S
C602 C603 1.367 . S
C602 H610 0.930 . S
C603 C601 1.413 . S
C603 C602 1.367 . S
C603 H605 0.930 . S
H604 C597 0.930 . S
H605 C603 0.930 . S
H606 C594 0.930 . S
H607 C595 0.930 . S
H608 C601 0.929 . S
H609 C623 0.930 . S
H610 C602 0.930 . S
H611 C629 0.930 . S
H612 C620 0.929 . S
H613 C627 0.930 . S
H614 C591 0.931 . S
H615 C621 0.930 . S
H616 C654 0.930 . S
H617 C598 0.930 . S
H618 C653 0.931 . S
N619 Eu588 2.657 . S
N619 C620 1.334 . S
N619 C624 1.362 . S
C620 H612 0.929 . S
C620 N619 1.334 . S
C620 C623 1.413 . S
C621 H615 0.930 . S
C621 C622 1.392 . S
C621 C623 1.367 . S
C622 C621 1.392 . S
C622 C624 1.420 . S
C622 C654 1.423 . S
C623 H609 0.930 . S
C623 C620 1.413 . S
C623 C621 1.367 . S
C624 N619 1.362 . S
C624 C622 1.420 . S
C624 C628 1.429 . S
H625 C630 0.930 . S
N626 Eu588 2.609 . S
N626 C628 1.377 . S
N626 C629 1.321 . S
C627 H613 0.930 . S
C627 C629 1.400 . S
C627 C630 1.386 . S
C628 C624 1.429 . S
C628 N626 1.377 . S
C628 C631 1.411 . S
C629 H611 0.930 . S
C629 N626 1.321 . S
C629 C627 1.400 . S
C630 H625 0.930 . S
C630 C627 1.386 . S
C630 C631 1.395 . S
C631 C628 1.411 . S
C631 C630 1.395 . S
C631 C653 1.420 . S
O632 Eu588 2.558 . S
O632 C652 1.257 . S
O633 Eu588 2.612 . S
O633 Eu599 2.380 . S
O633 C644 1.276 . S
O634 Eu599 2.432 . S
O634 C651 1.264 . S
O635 Eu588 2.339 . S
O635 C651 1.254 . S
O636 Eu588 2.563 . S
O636 C644 1.235 . S
O637 Eu588 2.419 . S
O637 C652 1.249 . S
O638 Eu599 2.558 . S
O638 C663 1.257 . S
O639 Eu588 2.380 . S
O639 Eu599 2.612 . S
O639 C655 1.276 . S
O640 Eu588 2.432 . S
O640 C662 1.264 . S
O641 Eu599 2.339 . S
O641 C662 1.254 . S
O642 Eu599 2.563 . S
O642 C655 1.235 . S
O643 Eu599 2.419 . S
O643 C663 1.249 . S
C644 O633 1.276 . S
C644 O636 1.235 . S
C645 C647 1.393 . S
C645 C649 1.395 . S
C645 C652 1.492 . S
C646 C647 1.392 . S
C646 C648 1.386 . S
C647 C645 1.393 . S
C647 C646 1.392 . S
C647 H664 0.930 . S
C648 C646 1.386 . S
C648 C650 1.395 . S
C648 H665 0.930 . S
C649 C645 1.395 . S
C649 C650 1.379 . S
C649 H666 0.930 . S
C650 C648 1.395 . S
C650 C649 1.379 . S
C650 H667 0.930 . S
C651 O634 1.264 . S
C651 O635 1.254 . S
C652 Eu588 2.848 . S
C652 O632 1.257 . S
C652 O637 1.249 . S
C652 C645 1.492 . S
C653 H618 0.931 . S
C653 C631 1.420 . S
C653 C654 1.351 . S
C654 H616 0.930 . S
C654 C622 1.423 . S
C654 C653 1.351 . S
C655 O639 1.276 . S
C655 O642 1.235 . S
C656 C657 1.393 . S
C656 C660 1.395 . S
C656 C663 1.492 . S
C657 C656 1.393 . S
C657 C658 1.392 . S
C657 H668 0.930 . S
C658 C657 1.392 . S
C658 C659 1.386 . S
C659 C658 1.386 . S
C659 C661 1.395 . S
C659 H669 0.930 . S
C660 C656 1.395 . S
C660 C661 1.379 . S
C660 H670 0.930 . S
C661 C659 1.395 . S
C661 C660 1.379 . S
C661 H671 0.930 . S
C662 O640 1.264 . S
C662 O641 1.254 . S
C663 Eu599 2.848 . S
C663 O638 1.257 . S
C663 O643 1.249 . S
C663 C656 1.492 . S
H664 C647 0.930 . S
H665 C648 0.930 . S
H666 C649 0.930 . S
H667 C650 0.930 . S
H668 C657 0.930 . S
H669 C659 0.930 . S
H670 C660 0.930 . S
H671 C661 0.930 . S
C672 O684 1.241 . S
C672 O685 1.280 . S
C673 O686 1.277 . S
C673 O687 1.245 . S
C674 O698 1.247 . S
C674 O700 1.289 . S
Mg675 O676 1.926 . S
Mg675 O685 1.984 . S
Mg675 O687 1.988 . S
Mg675 O688 2.061 1_655 S
O676 Mg675 1.926 . S
O676 Mg677 1.986 1_545 S
O676 Mg678 1.909 1_655 S
Mg677 O676 1.986 1_565 S
Mg677 O684 2.042 1_565 S
Mg677 O686 2.041 1_565 S
Mg677 O692 2.038 . S
Mg677 O700 2.238 . S
Mg678 O676 1.909 1_455 S
Mg678 O679 1.925 1_545 S
Mg678 O689 2.113 . S
Mg678 O691 2.076 1_445 S
Mg678 O700 2.099 1_445 S
Mg678 O701 2.081 . S
O679 Mg678 1.925 1_565 S
O679 Mg680 1.926 . S
O679 Mg681 1.986 1_565 S
Mg680 O679 1.926 . S
Mg680 O694 1.984 . S
Mg680 O697 1.988 . S
Mg680 O698 2.061 1_455 S
Mg681 O679 1.986 1_545 S
Mg681 O689 2.238 . S
Mg681 O693 2.042 1_545 S
Mg681 O695 2.041 1_545 S
Mg681 O702 2.038 . S
C682 O688 1.247 . S
C682 O689 1.289 . S
C683 O701 1.245 . S
C683 O702 1.274 . S
O684 C672 1.241 . S
O684 Mg677 2.042 1_545 S
O685 C672 1.280 . S
O685 Mg675 1.984 . S
O686 C673 1.277 . S
O686 Mg677 2.041 1_545 S
O687 C673 1.245 . S
O687 Mg675 1.988 . S
O688 Mg675 2.061 1_455 S
O688 C682 1.247 . S
O689 Mg678 2.113 . S
O689 Mg681 2.238 . S
O689 C682 1.289 . S
C690 O691 1.245 . S
C690 O692 1.274 . S
O691 Mg678 2.076 1_665 S
O691 C690 1.245 . S
O692 Mg677 2.038 . S
O692 C690 1.274 . S
O693 Mg681 2.042 1_565 S
O693 C696 1.241 . S
O694 Mg680 1.984 . S
O694 C696 1.280 . S
O695 Mg681 2.041 1_565 S
O695 C699 1.277 . S
C696 O693 1.241 . S
C696 O694 1.280 . S
O697 Mg680 1.988 . S
O697 C699 1.245 . S
O698 C674 1.247 . S
O698 Mg680 2.061 1_655 S
C699 O695 1.277 . S
C699 O697 1.245 . S
O700 C674 1.289 . S
O700 Mg677 2.238 . S
O700 Mg678 2.099 1_665 S
O701 Mg678 2.081 . S
O701 C683 1.245 . S
O702 Mg681 2.038 . S
O702 C683 1.274 . S
C703 O715 1.241 . S
C703 O716 1.280 . S
C704 O717 1.277 . S
C704 O718 1.245 . S
C705 O729 1.247 . S
C705 O731 1.289 . S
Mg706 O707 1.926 . S
Mg706 O716 1.984 . S
Mg706 O718 1.988 1_554 S
Mg706 O719 2.061 . S
O707 Mg706 1.926 . S
O707 Mg708 1.986 1_544 S
O707 Mg709 1.917 . S
Mg708 O707 1.986 1_566 S
Mg708 O715 2.042 1_566 S
Mg708 O717 2.041 1_565 S
Mg708 O723 2.038 1_556 S
Mg708 O731 2.238 . S
Mg709 O707 1.917 . S
Mg709 O710 1.917 1_544 S
Mg709 O720 2.106 . S
Mg709 O722 2.079 1_545 S
Mg709 O731 2.106 1_544 S
Mg709 O732 2.079 1_554 S
O710 Mg709 1.917 1_566 S
O710 Mg711 1.926 . S
O710 Mg712 1.986 1_566 S
Mg711 O710 1.926 . S
Mg711 O725 1.984 . S
Mg711 O728 1.988 1_556 S
Mg711 O729 2.061 . S
Mg712 O710 1.986 1_544 S
Mg712 O720 2.238 . S
Mg712 O724 2.042 1_544 S
Mg712 O726 2.041 1_545 S
Mg712 O733 2.038 1_554 S
C713 O719 1.247 . S
C713 O720 1.289 . S
C714 O732 1.245 . S
C714 O733 1.274 . S
O715 C703 1.241 . S
O715 Mg708 2.042 1_544 S
O716 C703 1.280 . S
O716 Mg706 1.984 . S
O717 C704 1.277 . S
O717 Mg708 2.041 1_545 S
O718 C704 1.245 . S
O718 Mg706 1.988 1_556 S
O719 Mg706 2.061 . S
O719 C713 1.247 . S
O720 Mg709 2.106 . S
O720 Mg712 2.238 . S
O720 C713 1.289 . S
C721 O722 1.245 . S
C721 O723 1.274 . S
O722 Mg709 2.079 1_565 S
O722 C721 1.245 . S
O723 Mg708 2.038 1_554 S
O723 C721 1.274 . S
O724 Mg712 2.042 1_566 S
O724 C727 1.241 . S
O725 Mg711 1.984 . S
O725 C727 1.280 . S
O726 Mg712 2.041 1_565 S
O726 C730 1.277 . S
C727 O724 1.241 . S
C727 O725 1.280 . S
O728 Mg711 1.988 1_554 S
O728 C730 1.245 . S
O729 C705 1.247 . S
O729 Mg711 2.061 . S
C730 O726 1.277 . S
C730 O728 1.245 . S
O731 C705 1.289 . S
O731 Mg708 2.238 . S
O731 Mg709 2.106 1_566 S
O732 Mg709 2.079 1_556 S
O732 C714 1.245 . S
O733 Mg712 2.038 1_556 S
O733 C714 1.274 . S
C734 O746 1.241 . S
C734 O747 1.280 . S
C735 O748 1.277 . S
C735 O749 1.245 . S
C736 O760 1.247 . S
C736 O762 1.289 . S
Mg737 O738 1.926 . S
Mg737 O747 1.984 . S
Mg737 O749 1.988 1_554 S
Mg737 O750 2.061 1_655 S
O738 Mg737 1.926 . S
O738 Mg739 1.986 1_554 S
O738 Mg740 1.909 1_655 S
Mg739 O738 1.986 1_556 S
Mg739 O746 2.042 1_556 S
Mg739 O748 2.041 . S
Mg739 O754 2.038 1_556 S
Mg739 O762 2.238 . S
Mg740 O738 1.909 1_455 S
Mg740 O741 1.925 1_554 S
Mg740 O751 2.113 . S
Mg740 O753 2.076 1_455 S
Mg740 O762 2.100 1_454 S
Mg740 O763 2.081 1_554 S
O741 Mg740 1.925 1_556 S
O741 Mg742 1.926 . S
O741 Mg743 1.986 1_556 S
Mg742 O741 1.926 . S
Mg742 O756 1.984 . S
Mg742 O759 1.988 1_556 S
Mg742 O760 2.061 1_455 S
Mg743 O741 1.986 1_554 S
Mg743 O751 2.238 . S
Mg743 O755 2.042 1_554 S
Mg743 O757 2.041 . S
Mg743 O764 2.038 1_554 S
C744 O750 1.247 . S
C744 O751 1.289 . S
C745 O763 1.245 . S
C745 O764 1.274 . S
O746 C734 1.241 . S
O746 Mg739 2.042 1_554 S
O747 C734 1.280 . S
O747 Mg737 1.984 . S
O748 C735 1.277 . S
O748 Mg739 2.041 . S
O749 C735 1.245 . S
O749 Mg737 1.988 1_556 S
O750 Mg737 2.061 1_455 S
O750 C744 1.247 . S
O751 Mg740 2.113 . S
O751 Mg743 2.238 . S
O751 C744 1.289 . S
C752 O753 1.245 . S
C752 O754 1.274 . S
O753 Mg740 2.076 1_655 S
O753 C752 1.245 . S
O754 Mg739 2.038 1_554 S
O754 C752 1.274 . S
O755 Mg743 2.042 1_556 S
O755 C758 1.241 . S
O756 Mg742 1.984 . S
O756 C758 1.280 . S
O757 Mg743 2.041 . S
O757 C761 1.277 . S
C758 O755 1.241 . S
C758 O756 1.280 . S
O759 Mg742 1.988 1_554 S
O759 C761 1.245 . S
O760 C736 1.247 . S
O760 Mg742 2.061 1_655 S
C761 O757 1.277 . S
C761 O759 1.245 . S
O762 C736 1.289 . S
O762 Mg739 2.238 . S
O762 Mg740 2.100 1_656 S
O763 Mg740 2.081 1_556 S
O763 C745 1.245 . S
O764 Mg743 2.038 1_556 S
O764 C745 1.274 . S
C765 O777 1.241 . S
C765 O778 1.280 . S
C766 O779 1.277 . S
C766 O780 1.245 . S
C767 O791 1.247 . S
C767 O793 1.289 . S
Mg768 O769 1.926 . S
Mg768 O778 1.984 . S
Mg768 O780 1.988 1_554 S
Mg768 O781 2.061 . S
O769 Mg768 1.926 . S
O769 Mg770 1.986 1_554 S
O769 Mg771 1.917 . S
Mg770 O769 1.986 1_556 S
Mg770 O777 2.042 1_556 S
Mg770 O779 2.041 . S
Mg770 O785 2.038 1_556 S
Mg770 O793 2.238 . S
Mg771 O769 1.917 . S
Mg771 O772 1.917 1_554 S
Mg771 O782 2.106 . S
Mg771 O784 2.079 . S
Mg771 O793 2.106 1_554 S
Mg771 O794 2.079 1_554 S
O772 Mg771 1.917 1_556 S
O772 Mg773 1.926 . S
O772 Mg774 1.986 1_556 S
Mg773 O772 1.926 . S
Mg773 O787 1.984 . S
Mg773 O790 1.988 1_556 S
Mg773 O791 2.061 . S
Mg774 O772 1.986 1_554 S
Mg774 O782 2.238 . S
Mg774 O786 2.042 1_554 S
Mg774 O788 2.041 . S
Mg774 O795 2.038 1_554 S
C775 O781 1.247 . S
C775 O782 1.289 . S
C776 O794 1.245 . S
C776 O795 1.274 . S
O777 C765 1.241 . S
O777 Mg770 2.042 1_554 S
O778 C765 1.280 . S
O778 Mg768 1.984 . S
O779 C766 1.277 . S
O779 Mg770 2.041 . S
O780 C766 1.245 . S
O780 Mg768 1.988 1_556 S
O781 Mg768 2.061 . S
O781 C775 1.247 . S
O782 Mg771 2.106 . S
O782 Mg774 2.238 . S
O782 C775 1.289 . S
C783 O784 1.245 . S
C783 O785 1.274 . S
O784 Mg771 2.079 . S
O784 C783 1.245 . S
O785 Mg770 2.038 1_554 S
O785 C783 1.274 . S
O786 Mg774 2.042 1_556 S
O786 C789 1.241 . S
O787 Mg773 1.984 . S
O787 C789 1.280 . S
O788 Mg774 2.041 . S
O788 C792 1.277 . S
C789 O786 1.241 . S
C789 O787 1.280 . S
O790 Mg773 1.988 1_554 S
O790 C792 1.245 . S
O791 C767 1.247 . S
O791 Mg773 2.061 . S
C792 O788 1.277 . S
C792 O790 1.245 . S
O793 C767 1.289 . S
O793 Mg770 2.238 . S
O793 Mg771 2.106 1_556 S
O794 Mg771 2.079 1_556 S
O794 C776 1.245 . S
O795 Mg774 2.038 1_556 S
O795 C776 1.274 . S
C796 O808 1.241 . S
C796 O809 1.280 . S
C797 O810 1.277 . S
C797 O811 1.245 . S
C798 O822 1.247 . S
C798 O824 1.289 . S
Mg799 O800 1.926 . S
Mg799 O809 1.984 . S
Mg799 O811 1.988 . S
Mg799 O812 2.061 1_655 S
O800 Mg799 1.926 . S
O800 Mg801 1.986 . S
O800 Mg802 1.908 1_655 S
Mg801 O800 1.986 . S
Mg801 O808 2.042 . S
Mg801 O810 2.041 . S
Mg801 O816 2.038 . S
Mg801 O824 2.238 . S
Mg802 O800 1.908 1_455 S
Mg802 O803 1.926 . S
Mg802 O813 2.113 . S
Mg802 O815 2.076 1_455 S
Mg802 O824 2.100 1_455 S
Mg802 O825 2.081 . S
O803 Mg802 1.926 . S
O803 Mg804 1.926 . S
O803 Mg805 1.986 . S
Mg804 O803 1.926 . S
Mg804 O818 1.984 . S
Mg804 O821 1.988 . S
Mg804 O822 2.061 1_455 S
Mg805 O803 1.986 . S
Mg805 O813 2.238 . S
Mg805 O817 2.042 . S
Mg805 O819 2.041 . S
Mg805 O826 2.038 . S
C806 O812 1.247 . S
C806 O813 1.289 . S
C807 O825 1.245 . S
C807 O826 1.274 . S
O808 C796 1.241 . S
O808 Mg801 2.042 . S
O809 C796 1.280 . S
O809 Mg799 1.984 . S
O810 C797 1.277 . S
O810 Mg801 2.041 . S
O811 C797 1.245 . S
O811 Mg799 1.988 . S
O812 Mg799 2.061 1_455 S
O812 C806 1.247 . S
O813 Mg802 2.113 . S
O813 Mg805 2.238 . S
O813 C806 1.289 . S
C814 O815 1.245 . S
C814 O816 1.274 . S
O815 Mg802 2.076 1_655 S
O815 C814 1.245 . S
O816 Mg801 2.038 . S
O816 C814 1.274 . S
O817 Mg805 2.042 . S
O817 C820 1.241 . S
O818 Mg804 1.984 . S
O818 C820 1.280 . S
O819 Mg805 2.041 . S
O819 C823 1.277 . S
C820 O817 1.241 . S
C820 O818 1.280 . S
O821 Mg804 1.988 . S
O821 C823 1.245 . S
O822 C798 1.247 . S
O822 Mg804 2.061 1_655 S
C823 O819 1.277 . S
C823 O821 1.245 . S
O824 C798 1.289 . S
O824 Mg801 2.238 . S
O824 Mg802 2.100 1_655 S
O825 Mg802 2.081 . S
O825 C807 1.245 . S
O826 Mg805 2.038 . S
O826 C807 1.274 . S
C827 O839 1.241 . S
C827 O840 1.280 . S
C828 O841 1.277 . S
C828 O842 1.245 . S
C829 O853 1.247 . S
C829 O855 1.289 . S
Mg830 O831 1.926 . S
Mg830 O840 1.984 . S
Mg830 O842 1.988 . S
Mg830 O843 2.061 . S
O831 Mg830 1.926 . S
O831 Mg832 1.986 1_545 S
O831 Mg833 1.917 . S
Mg832 O831 1.986 1_565 S
Mg832 O839 2.042 1_565 S
Mg832 O841 2.041 1_565 S
Mg832 O847 2.038 . S
Mg832 O855 2.238 . S
Mg833 O831 1.917 . S
Mg833 O834 1.917 1_545 S
Mg833 O844 2.106 . S
Mg833 O846 2.079 1_545 S
Mg833 O855 2.106 1_545 S
Mg833 O856 2.079 . S
O834 Mg833 1.917 1_565 S
O834 Mg835 1.926 . S
O834 Mg836 1.986 1_565 S
Mg835 O834 1.926 . S
Mg835 O849 1.984 . S
Mg835 O852 1.988 . S
Mg835 O853 2.061 . S
Mg836 O834 1.986 1_545 S
Mg836 O844 2.238 . S
Mg836 O848 2.042 1_545 S
Mg836 O850 2.041 1_545 S
Mg836 O857 2.038 . S
C837 O843 1.247 . S
C837 O844 1.289 . S
C838 O856 1.245 . S
C838 O857 1.274 . S
O839 C827 1.241 . S
O839 Mg832 2.042 1_545 S
O840 C827 1.280 . S
O840 Mg830 1.984 . S
O841 C828 1.277 . S
O841 Mg832 2.041 1_545 S
O842 C828 1.245 . S
O842 Mg830 1.988 . S
O843 Mg830 2.061 . S
O843 C837 1.247 . S
O844 Mg833 2.106 . S
O844 Mg836 2.238 . S
O844 C837 1.289 . S
C845 O846 1.245 . S
C845 O847 1.274 . S
O846 Mg833 2.079 1_565 S
O846 C845 1.245 . S
O847 Mg832 2.038 . S
O847 C845 1.274 . S
O848 Mg836 2.042 1_565 S
O848 C851 1.241 . S
O849 Mg835 1.984 . S
O849 C851 1.280 . S
O850 Mg836 2.041 1_565 S
O850 C854 1.277 . S
C851 O848 1.241 . S
C851 O849 1.280 . S
O852 Mg835 1.988 . S
O852 C854 1.245 . S
O853 C829 1.247 . S
O853 Mg835 2.061 . S
C854 O850 1.277 . S
C854 O852 1.245 . S
O855 C829 1.289 . S
O855 Mg832 2.238 . S
O855 Mg833 2.106 1_565 S
O856 Mg833 2.079 . S
O856 C838 1.245 . S
O857 Mg836 2.038 . S
O857 C838 1.274 . S
H858 C876 0.951 . S
H859 C878 0.951 . S
H860 C880 0.950 . S
H861 C881 0.950 . S
H862 C883 0.950 . S
H863 C886 0.950 . S
H864 C887 0.950 . S
H865 C889 0.950 . S
H866 C890 0.950 . S
H867 C891 0.951 . S
H868 C893 0.951 . S
H869 C895 0.950 . S
H870 C896 0.950 . S
H871 C898 0.950 . S
H872 C901 0.950 . S
H873 C902 0.950 . S
H874 C904 0.950 . S
H875 C905 0.950 . S
C876 H858 0.951 . S
C876 C877 1.366 . S
C876 C878 1.388 . S
C877 C876 1.366 . S
C877 C881 1.385 . S
C878 H859 0.951 . S
C878 C876 1.388 . S
C878 C879 1.366 . S
C879 C878 1.366 . S
C879 C880 1.414 . S
C879 C882 1.499 . S
C880 H860 0.950 . S
C880 C879 1.414 . S
C880 C881 1.374 . S
C881 H861 0.950 . S
C881 C877 1.385 . S
C881 C880 1.374 . S
C882 C879 1.499 . S
C882 C883 1.373 . S
C882 C884 1.389 . S
C883 H862 0.950 . S
C883 C882 1.373 . S
C883 C899 1.377 . S
C884 C882 1.389 . S
C884 C885 1.524 . S
C884 C898 1.377 . S
C885 C884 1.524 . S
C885 C886 1.397 . S
C885 C890 1.363 . S
C886 H863 0.950 . S
C886 C885 1.397 . S
C886 C887 1.334 . S
C887 H864 0.950 . S
C887 C886 1.334 . S
C887 C888 1.287 . S
C888 C887 1.287 . S
C888 C889 1.524 . S
C888 H907 0.913 . S
C889 H865 0.950 . S
C889 C888 1.524 . S
C889 C890 1.415 . S
C890 H866 0.950 . S
C890 C885 1.363 . S
C890 C889 1.415 . S
C891 H867 0.951 . S
C891 C892 1.366 . S
C891 C893 1.388 . S
C892 C891 1.366 . S
C892 C896 1.385 . S
C893 H868 0.951 . S
C893 C891 1.388 . S
C893 C894 1.366 . S
C894 C893 1.366 . S
C894 C895 1.414 . S
C894 C897 1.499 . S
C895 H869 0.950 . S
C895 C894 1.414 . S
C895 C896 1.374 . S
C896 H870 0.950 . S
C896 C892 1.385 . S
C896 C895 1.374 . S
C897 C894 1.499 . S
C897 C898 1.373 . S
C897 C899 1.389 . S
C898 H871 0.950 . S
C898 C884 1.377 . S
C898 C897 1.373 . S
C899 C883 1.377 . S
C899 C897 1.389 . S
C899 C900 1.524 . S
C900 C899 1.524 . S
C900 C901 1.397 . S
C900 C905 1.363 . S
C901 H872 0.950 . S
C901 C900 1.397 . S
C901 C902 1.334 . S
C902 H873 0.950 . S
C902 C901 1.334 . S
C902 C903 1.287 . S
C903 C902 1.287 . S
C903 C904 1.524 . S
C903 H906 1.000 . S
C904 H874 0.950 . S
C904 C903 1.524 . S
C904 C905 1.415 . S
C905 H875 0.950 . S
C905 C900 1.363 . S
C905 C904 1.415 . S
H906 C903 1.000 . S
H907 C888 0.913 . S
H908 C926 0.951 . S
H909 C928 0.951 . S
H910 C930 0.950 . S
H911 C931 0.950 . S
H912 C933 0.950 . S
H913 C936 0.950 . S
H914 C937 0.950 . S
H915 C939 0.950 . S
H916 C940 0.950 . S
H917 C941 0.951 . S
H918 C943 0.951 . S
H919 C945 0.950 . S
H920 C946 0.950 . S
H921 C948 0.950 . S
H922 C951 0.950 . S
H923 C952 0.977 . S
H924 C954 0.950 . S
H925 C955 0.950 . S
C926 H908 0.951 . S
C926 C927 1.366 . S
C926 C928 1.388 . S
C927 C926 1.366 . S
C927 C931 1.385 . S
C928 H909 0.951 . S
C928 C926 1.388 . S
C928 C929 1.366 . S
C929 C928 1.366 . S
C929 C930 1.414 . S
C929 C932 1.499 . S
C930 H910 0.950 . S
C930 C929 1.414 . S
C930 C931 1.374 . S
C931 H911 0.950 . S
C931 C927 1.385 . S
C931 C930 1.374 . S
C932 C929 1.499 . S
C932 C933 1.373 . S
C932 C934 1.389 . S
C933 H912 0.950 . S
C933 C932 1.373 . S
C933 C949 1.377 . S
C934 C932 1.389 . S
C934 C935 1.524 . S
C934 C948 1.377 . S
C935 C934 1.524 . S
C935 C936 1.397 . S
C935 C940 1.363 . S
C936 H913 0.950 . S
C936 C935 1.397 . S
C936 C937 1.334 . S
C937 H914 0.950 . S
C937 C936 1.334 . S
C937 C938 1.287 . S
C938 C937 1.287 . S
C938 C939 1.524 . S
C938 H957 0.913 . S
C939 H915 0.950 . S
C939 C938 1.524 . S
C939 C940 1.415 . S
C940 H916 0.950 . S
C940 C935 1.363 . S
C940 C939 1.415 . S
C941 H917 0.951 . S
C941 C942 1.366 . S
C941 C943 1.388 . S
C942 C941 1.366 . S
C942 C946 1.385 . S
C943 H918 0.951 . S
C943 C941 1.388 . S
C943 C944 1.366 . S
C944 C943 1.366 . S
C944 C945 1.414 . S
C944 C947 1.499 . S
C945 H919 0.950 . S
C945 C944 1.414 . S
C945 C946 1.374 . S
C946 H920 0.950 . S
C946 C942 1.385 . S
C946 C945 1.374 . S
C947 C944 1.499 . S
C947 C948 1.373 . S
C947 C949 1.389 . S
C948 H921 0.950 . S
C948 C934 1.377 . S
C948 C947 1.373 . S
C949 C933 1.377 . S
C949 C947 1.389 . S
C949 C950 1.524 . S
C950 C949 1.524 . S
C950 C951 1.397 . S
C950 C955 1.363 . S
C951 H922 0.950 . S
C951 C950 1.397 . S
C951 C952 1.298 1_545 S
C952 H923 0.977 . S
C952 C951 1.298 1_565 S
C952 C953 1.296 . S
C953 C952 1.296 . S
C953 C954 1.524 1_565 S
C953 H956 0.999 . S
C954 H924 0.950 . S
C954 C953 1.524 1_545 S
C954 C955 1.415 . S
C955 H925 0.950 . S
C955 C950 1.363 . S
C955 C954 1.415 . S
H956 C953 0.999 . S
H957 C938 0.913 . S
H958 C976 0.951 . S
H959 C978 0.951 . S
H960 C980 0.950 . S
H961 C981 0.950 . S
H962 C983 0.950 . S
H963 C986 0.950 . S
H964 C987 0.950 . S
H965 C989 0.950 . S
H966 C990 0.950 . S
H967 C991 0.951 . S
H968 C993 0.951 . S
H969 C995 0.950 . S
H970 C996 0.950 . S
H971 C998 0.950 . S
H972 C1001 0.950 . S
H973 C1002 0.950 . S
H974 C1004 0.950 1_545 S
H975 C1005 0.950 . S
C976 H958 0.951 . S
C976 C977 1.366 . S
C976 C978 1.388 . S
C977 C976 1.366 . S
C977 C981 1.385 . S
C978 H959 0.951 . S
C978 C976 1.388 . S
C978 C979 1.366 . S
C979 C978 1.366 . S
C979 C980 1.414 . S
C979 C982 1.499 . S
C980 H960 0.950 . S
C980 C979 1.414 . S
C980 C981 1.374 . S
C981 H961 0.950 . S
C981 C977 1.385 . S
C981 C980 1.374 . S
C982 C979 1.499 . S
C982 C983 1.373 . S
C982 C984 1.389 . S
C983 H962 0.950 . S
C983 C982 1.373 . S
C983 C999 1.377 . S
C984 C982 1.389 . S
C984 C985 1.524 . S
C984 C998 1.377 . S
C985 C984 1.524 . S
C985 C986 1.397 . S
C985 C990 1.363 . S
C986 H963 0.950 . S
C986 C985 1.397 . S
C986 C987 1.334 . S
C987 H964 0.950 . S
C987 C986 1.334 . S
C987 C988 1.287 . S
C988 C987 1.287 . S
C988 C989 1.524 . S
C988 H1007 0.913 . S
C989 H965 0.950 . S
C989 C988 1.524 . S
C989 C990 1.415 . S
C990 H966 0.950 . S
C990 C985 1.363 . S
C990 C989 1.415 . S
C991 H967 0.951 . S
C991 C992 1.366 . S
C991 C993 1.388 . S
C992 C991 1.366 . S
C992 C996 1.385 . S
C993 H968 0.951 . S
C993 C991 1.388 . S
C993 C994 1.366 . S
C994 C993 1.366 . S
C994 C995 1.414 . S
C994 C997 1.499 . S
C995 H969 0.950 . S
C995 C994 1.414 . S
C995 C996 1.374 . S
C996 H970 0.950 . S
C996 C992 1.385 . S
C996 C995 1.374 . S
C997 C994 1.499 . S
C997 C998 1.373 . S
C997 C999 1.389 . S
C998 H971 0.950 . S
C998 C984 1.377 . S
C998 C997 1.373 . S
C999 C983 1.377 . S
C999 C997 1.389 . S
C999 C1000 1.524 . S
C1000 C999 1.524 . S
C1000 C1001 1.397 . S
C1000 C1005 1.363 . S
C1001 H972 0.950 . S
C1001 C1000 1.397 . S
C1001 C1002 1.334 . S
C1002 H973 0.950 . S
C1002 C1001 1.334 . S
C1002 C1003 1.287 . S
C1003 C1002 1.287 . S
C1003 C1004 1.524 . S
C1003 H1006 0.999 1_565 S
C1004 H974 0.950 1_565 S
C1004 C1003 1.524 . S
C1004 C1005 1.415 . S
C1005 H975 0.950 . S
C1005 C1000 1.363 . S
C1005 C1004 1.415 . S
H1006 C1003 0.999 1_545 S
H1007 C988 0.913 . S
H1008 C1026 0.951 . S
H1009 C1028 0.951 . S
H1010 C1030 0.950 . S
H1011 C1031 0.950 . S
H1012 C1033 0.950 . S
H1013 C1036 0.950 . S
H1014 C1037 0.950 . S
H1015 C1039 0.950 . S
H1016 C1040 0.950 . S
H1017 C1041 0.951 . S
H1018 C1043 0.951 . S
H1019 C1045 0.950 . S
H1020 C1046 0.950 . S
H1021 C1048 0.950 . S
H1022 C1051 0.950 . S
H1023 C1052 0.950 1_655 S
H1024 C1054 0.950 . S
H1025 C1055 0.950 . S
C1026 H1008 0.951 . S
C1026 C1027 1.366 . S
C1026 C1028 1.388 . S
C1027 C1026 1.366 . S
C1027 C1031 1.385 . S
C1028 H1009 0.951 . S
C1028 C1026 1.388 . S
C1028 C1029 1.366 . S
C1029 C1028 1.366 . S
C1029 C1030 1.414 . S
C1029 C1032 1.499 . S
C1030 H1010 0.950 . S
C1030 C1029 1.414 . S
C1030 C1031 1.374 . S
C1031 H1011 0.950 . S
C1031 C1027 1.385 . S
C1031 C1030 1.374 . S
C1032 C1029 1.499 . S
C1032 C1033 1.373 . S
C1032 C1034 1.389 . S
C1033 H1012 0.950 . S
C1033 C1032 1.373 . S
C1033 C1049 1.377 . S
C1034 C1032 1.389 . S
C1034 C1035 1.524 . S
C1034 C1048 1.377 . S
C1035 C1034 1.524 . S
C1035 C1036 1.397 . S
C1035 C1040 1.363 . S
C1036 H1013 0.950 . S
C1036 C1035 1.397 . S
C1036 C1037 1.334 . S
C1037 H1014 0.950 . S
C1037 C1036 1.334 . S
C1037 C1038 1.287 . S
C1038 C1037 1.287 . S
C1038 C1039 1.524 . S
C1038 H1057 0.913 . S
C1039 H1015 0.950 . S
C1039 C1038 1.524 . S
C1039 C1040 1.415 . S
C1040 H1016 0.950 . S
C1040 C1035 1.363 . S
C1040 C1039 1.415 . S
C1041 H1017 0.951 . S
C1041 C1042 1.366 . S
C1041 C1043 1.388 . S
C1042 C1041 1.366 . S
C1042 C1046 1.385 . S
C1043 H1018 0.951 . S
C1043 C1041 1.388 . S
C1043 C1044 1.366 . S
C1044 C1043 1.366 . S
C1044 C1045 1.414 . S
C1044 C1047 1.499 . S
C1045 H1019 0.950 . S
C1045 C1044 1.414 . S
C1045 C1046 1.374 . S
C1046 H1020 0.950 . S
C1046 C1042 1.385 . S
C1046 C1045 1.374 . S
C1047 C1044 1.499 . S
C1047 C1048 1.373 . S
C1047 C1049 1.389 . S
C1048 H1021 0.950 . S
C1048 C1034 1.377 . S
C1048 C1047 1.373 . S
C1049 C1033 1.377 . S
C1049 C1047 1.389 . S
C1049 C1050 1.524 . S
C1050 C1049 1.524 . S
C1050 C1051 1.397 . S
C1050 C1055 1.363 . S
C1051 H1022 0.950 . S
C1051 C1050 1.397 . S
C1051 C1052 1.334 . S
C1052 H1023 0.950 1_455 S
C1052 C1051 1.334 . S
C1052 C1053 1.287 . S
C1053 C1052 1.287 . S
C1053 C1054 1.524 . S
C1053 H1056 0.999 1_455 S
C1054 H1024 0.950 . S
C1054 C1053 1.524 . S
C1054 C1055 1.415 . S
C1055 H1025 0.950 . S
C1055 C1050 1.363 . S
C1055 C1054 1.415 . S
H1056 C1053 0.999 1_655 S
H1057 C1038 0.913 . S
H1058 C1076 0.951 . S
H1059 C1078 0.951 . S
H1060 C1080 0.950 . S
H1061 C1081 0.950 . S
H1062 C1083 0.950 . S
H1063 C1086 0.950 . S
H1064 C1087 0.950 . S
H1065 C1089 0.950 . S
H1066 C1090 0.950 . S
H1067 C1091 0.951 . S
H1068 C1093 0.951 . S
H1069 C1095 0.950 . S
H1070 C1096 0.950 . S
H1071 C1098 0.950 . S
H1072 C1101 0.950 . S
H1073 C1102 0.950 . S
H1074 C1104 0.950 . S
H1075 C1105 0.950 . S
C1076 H1058 0.951 . S
C1076 C1077 1.366 . S
C1076 C1078 1.388 . S
C1077 C1076 1.366 . S
C1077 C1081 1.385 . S
C1078 H1059 0.951 . S
C1078 C1076 1.388 . S
C1078 C1079 1.366 . S
C1079 C1078 1.366 . S
C1079 C1080 1.414 . S
C1079 C1082 1.499 . S
C1080 H1060 0.950 . S
C1080 C1079 1.414 . S
C1080 C1081 1.374 . S
C1081 H1061 0.950 . S
C1081 C1077 1.385 . S
C1081 C1080 1.374 . S
C1082 C1079 1.499 . S
C1082 C1083 1.373 . S
C1082 C1084 1.389 . S
C1083 H1062 0.950 . S
C1083 C1082 1.373 . S
C1083 C1099 1.377 . S
C1084 C1082 1.389 . S
C1084 C1085 1.524 . S
C1084 C1098 1.377 . S
C1085 C1084 1.524 . S
C1085 C1086 1.397 . S
C1085 C1090 1.363 . S
C1086 H1063 0.950 . S
C1086 C1085 1.397 . S
C1086 C1087 1.334 . S
C1087 H1064 0.950 . S
C1087 C1086 1.334 . S
C1087 C1088 1.287 . S
C1088 C1087 1.287 . S
C1088 C1089 1.524 . S
C1088 H1107 0.913 . S
C1089 H1065 0.950 . S
C1089 C1088 1.524 . S
C1089 C1090 1.415 . S
C1090 H1066 0.950 . S
C1090 C1085 1.363 . S
C1090 C1089 1.415 . S
C1091 H1067 0.951 . S
C1091 C1092 1.366 . S
C1091 C1093 1.388 . S
C1092 C1091 1.366 . S
C1092 C1096 1.385 . S
C1093 H1068 0.951 . S
C1093 C1091 1.388 . S
C1093 C1094 1.366 . S
C1094 C1093 1.366 . S
C1094 C1095 1.414 . S
C1094 C1097 1.499 . S
C1095 H1069 0.950 . S
C1095 C1094 1.414 . S
C1095 C1096 1.374 . S
C1096 H1070 0.950 . S
C1096 C1092 1.385 . S
C1096 C1095 1.374 . S
C1097 C1094 1.499 . S
C1097 C1098 1.373 . S
C1097 C1099 1.389 . S
C1098 H1071 0.950 . S
C1098 C1084 1.377 . S
C1098 C1097 1.373 . S
C1099 C1083 1.377 . S
C1099 C1097 1.389 . S
C1099 C1100 1.524 . S
C1100 C1099 1.524 . S
C1100 C1101 1.397 . S
C1100 C1105 1.363 . S
C1101 H1072 0.950 . S
C1101 C1100 1.397 . S
C1101 C1102 1.334 . S
C1102 H1073 0.950 . S
C1102 C1101 1.334 . S
C1102 C1103 1.287 . S
C1103 C1102 1.287 . S
C1103 C1104 1.524 . S
C1103 H1106 0.999 . S
C1104 H1074 0.950 . S
C1104 C1103 1.524 . S
C1104 C1105 1.415 . S
C1105 H1075 0.950 . S
C1105 C1100 1.363 . S
C1105 C1104 1.415 . S
H1106 C1103 0.999 . S
H1107 C1088 0.913 . S
H1108 C1126 0.951 . S
H1109 C1128 0.951 . S
H1110 C1130 0.950 . S
H1111 C1131 0.950 . S
H1112 C1133 0.950 . S
H1113 C1136 0.950 . S
H1114 C1137 0.950 . S
H1115 C1139 0.950 . S
H1116 C1140 0.950 . S
H1117 C1141 0.951 . S
H1118 C1143 0.951 . S
H1119 C1145 0.950 . S
H1120 C1146 0.950 . S
H1121 C1148 0.950 . S
H1122 C1151 0.950 . S
H1123 C1152 0.950 . S
H1124 C1154 0.950 . S
H1125 C1155 0.950 . S
C1126 H1108 0.951 . S
C1126 C1127 1.366 . S
C1126 C1128 1.388 . S
C1127 C1126 1.366 . S
C1127 C1131 1.385 . S
C1128 H1109 0.951 . S
C1128 C1126 1.388 . S
C1128 C1129 1.366 . S
C1129 C1128 1.366 . S
C1129 C1130 1.414 . S
C1129 C1132 1.499 . S
C1130 H1110 0.950 . S
C1130 C1129 1.414 . S
C1130 C1131 1.374 . S
C1131 H1111 0.950 . S
C1131 C1127 1.385 . S
C1131 C1130 1.374 . S
C1132 C1129 1.499 . S
C1132 C1133 1.373 . S
C1132 C1134 1.389 . S
C1133 H1112 0.950 . S
C1133 C1132 1.373 . S
C1133 C1149 1.377 . S
C1134 C1132 1.389 . S
C1134 C1135 1.524 . S
C1134 C1148 1.377 . S
C1135 C1134 1.524 . S
C1135 C1136 1.397 . S
C1135 C1140 1.363 . S
C1136 H1113 0.950 . S
C1136 C1135 1.397 . S
C1136 C1137 1.334 . S
C1137 H1114 0.950 . S
C1137 C1136 1.334 . S
C1137 C1138 1.287 . S
C1138 C1137 1.287 . S
C1138 C1139 1.524 . S
C1138 H1157 0.913 . S
C1139 H1115 0.950 . S
C1139 C1138 1.524 . S
C1139 C1140 1.415 . S
C1140 H1116 0.950 . S
C1140 C1135 1.363 . S
C1140 C1139 1.415 . S
C1141 H1117 0.951 . S
C1141 C1142 1.366 . S
C1141 C1143 1.388 . S
C1142 C1141 1.366 . S
C1142 C1146 1.385 . S
C1143 H1118 0.951 . S
C1143 C1141 1.388 . S
C1143 C1144 1.366 . S
C1144 C1143 1.366 . S
C1144 C1145 1.414 . S
C1144 C1147 1.499 . S
C1145 H1119 0.950 . S
C1145 C1144 1.414 . S
C1145 C1146 1.374 . S
C1146 H1120 0.950 . S
C1146 C1142 1.385 . S
C1146 C1145 1.374 . S
C1147 C1144 1.499 . S
C1147 C1148 1.373 . S
C1147 C1149 1.389 . S
C1148 H1121 0.950 . S
C1148 C1134 1.377 . S
C1148 C1147 1.373 . S
C1149 C1133 1.377 . S
C1149 C1147 1.389 . S
C1149 C1150 1.524 . S
C1150 C1149 1.524 . S
C1150 C1151 1.397 . S
C1150 C1155 1.363 . S
C1151 H1122 0.950 . S
C1151 C1150 1.397 . S
C1151 C1152 1.334 . S
C1152 H1123 0.950 . S
C1152 C1151 1.334 . S
C1152 C1153 1.287 . S
C1153 C1152 1.287 . S
C1153 C1154 1.524 . S
C1153 H1156 0.999 . S
C1154 H1124 0.950 . S
C1154 C1153 1.524 . S
C1154 C1155 1.415 . S
C1155 H1125 0.950 . S
C1155 C1150 1.363 . S
C1155 C1154 1.415 . S
H1156 C1153 0.999 . S
H1157 C1138 0.913 . S
H1158 C1176 0.951 . S
H1159 C1178 0.951 . S
H1160 C1180 0.950 . S
H1161 C1181 0.950 . S
H1162 C1183 0.950 . S
H1163 C1186 0.950 . S
H1164 C1187 0.950 . S
H1165 C1189 0.950 . S
H1166 C1190 0.950 . S
H1167 C1191 0.951 . S
H1168 C1193 0.951 . S
H1169 C1195 0.950 . S
H1170 C1196 0.950 . S
H1171 C1198 0.950 . S
H1172 C1201 0.950 . S
H1173 C1202 0.950 . S
H1174 C1204 0.950 1_455 S
H1175 C1205 0.950 . S
C1176 H1158 0.951 . S
C1176 C1177 1.366 . S
C1176 C1178 1.388 . S
C1177 C1176 1.366 . S
C1177 C1181 1.385 . S
C1178 H1159 0.951 . S
C1178 C1176 1.388 . S
C1178 C1179 1.366 . S
C1179 C1178 1.366 . S
C1179 C1180 1.414 . S
C1179 C1182 1.499 . S
C1180 H1160 0.950 . S
C1180 C1179 1.414 . S
C1180 C1181 1.374 . S
C1181 H1161 0.950 . S
C1181 C1177 1.385 . S
C1181 C1180 1.374 . S
C1182 C1179 1.499 . S
C1182 C1183 1.373 . S
C1182 C1184 1.389 . S
C1183 H1162 0.950 . S
C1183 C1182 1.373 . S
C1183 C1199 1.377 . S
C1184 C1182 1.389 . S
C1184 C1185 1.524 . S
C1184 C1198 1.377 . S
C1185 C1184 1.524 . S
C1185 C1186 1.397 . S
C1185 C1190 1.363 . S
C1186 H1163 0.950 . S
C1186 C1185 1.397 . S
C1186 C1187 1.334 . S
C1187 H1164 0.950 . S
C1187 C1186 1.334 . S
C1187 C1188 1.287 . S
C1188 C1187 1.287 . S
C1188 C1189 1.524 . S
C1188 H1207 0.913 . S
C1189 H1165 0.950 . S
C1189 C1188 1.524 . S
C1189 C1190 1.415 . S
C1190 H1166 0.950 . S
C1190 C1185 1.363 . S
C1190 C1189 1.415 . S
C1191 H1167 0.951 . S
C1191 C1192 1.366 . S
C1191 C1193 1.388 . S
C1192 C1191 1.366 . S
C1192 C1196 1.385 . S
C1193 H1168 0.951 . S
C1193 C1191 1.388 . S
C1193 C1194 1.366 . S
C1194 C1193 1.366 . S
C1194 C1195 1.414 . S
C1194 C1197 1.499 . S
C1195 H1169 0.950 . S
C1195 C1194 1.414 . S
C1195 C1196 1.374 . S
C1196 H1170 0.950 . S
C1196 C1192 1.385 . S
C1196 C1195 1.374 . S
C1197 C1194 1.499 . S
C1197 C1198 1.373 . S
C1197 C1199 1.389 . S
C1198 H1171 0.950 . S
C1198 C1184 1.377 . S
C1198 C1197 1.373 . S
C1199 C1183 1.377 . S
C1199 C1197 1.389 . S
C1199 C1200 1.524 . S
C1200 C1199 1.524 . S
C1200 C1201 1.397 . S
C1200 C1205 1.363 . S
C1201 H1172 0.950 . S
C1201 C1200 1.397 . S
C1201 C1202 1.334 . S
C1202 H1173 0.950 . S
C1202 C1201 1.334 . S
C1202 C1203 1.287 . S
C1203 C1202 1.287 . S
C1203 C1204 1.524 . S
C1203 H1206 0.999 1_655 S
C1204 H1174 0.950 1_655 S
C1204 C1203 1.524 . S
C1204 C1205 1.415 . S
C1205 H1175 0.950 . S
C1205 C1200 1.363 . S
C1205 C1204 1.415 . S
H1206 C1203 0.999 1_455 S
H1207 C1188 0.913 . S
H1208 C1226 0.951 . S
H1209 C1228 0.951 . S
H1210 C1230 0.950 . S
H1211 C1231 0.950 . S
H1212 C1233 0.950 . S
H1213 C1236 0.950 . S
H1214 C1237 0.950 . S
H1215 C1239 0.950 . S
H1216 C1240 0.950 . S
H1217 C1241 0.951 . S
H1218 C1243 0.951 . S
H1219 C1245 0.950 . S
H1220 C1246 0.950 . S
H1221 C1248 0.950 . S
H1222 C1251 0.950 . S
H1223 C1252 0.950 1_545 S
H1224 C1254 0.950 . S
H1225 C1255 0.950 . S
C1226 H1208 0.951 . S
C1226 C1227 1.366 . S
C1226 C1228 1.388 . S
C1227 C1226 1.366 . S
C1227 C1231 1.385 . S
C1228 H1209 0.951 . S
C1228 C1226 1.388 . S
C1228 C1229 1.366 . S
C1229 C1228 1.366 . S
C1229 C1230 1.414 . S
C1229 C1232 1.499 . S
C1230 H1210 0.950 . S
C1230 C1229 1.414 . S
C1230 C1231 1.374 . S
C1231 H1211 0.950 . S
C1231 C1227 1.385 . S
C1231 C1230 1.374 . S
C1232 C1229 1.499 . S
C1232 C1233 1.373 . S
C1232 C1234 1.389 . S
C1233 H1212 0.950 . S
C1233 C1232 1.373 . S
C1233 C1249 1.377 . S
C1234 C1232 1.389 . S
C1234 C1235 1.524 . S
C1234 C1248 1.377 . S
C1235 C1234 1.524 . S
C1235 C1236 1.397 . S
C1235 C1240 1.363 . S
C1236 H1213 0.950 . S
C1236 C1235 1.397 . S
C1236 C1237 1.334 . S
C1237 H1214 0.950 . S
C1237 C1236 1.334 . S
C1237 C1238 1.287 . S
C1238 C1237 1.287 . S
C1238 C1239 1.524 . S
C1238 H1257 0.913 . S
C1239 H1215 0.950 . S
C1239 C1238 1.524 . S
C1239 C1240 1.415 . S
C1240 H1216 0.950 . S
C1240 C1235 1.363 . S
C1240 C1239 1.415 . S
C1241 H1217 0.951 . S
C1241 C1242 1.366 . S
C1241 C1243 1.388 . S
C1242 C1241 1.366 . S
C1242 C1246 1.385 . S
C1243 H1218 0.951 . S
C1243 C1241 1.388 . S
C1243 C1244 1.366 . S
C1244 C1243 1.366 . S
C1244 C1245 1.414 . S
C1244 C1247 1.499 . S
C1245 H1219 0.950 . S
C1245 C1244 1.414 . S
C1245 C1246 1.374 . S
C1246 H1220 0.950 . S
C1246 C1242 1.385 . S
C1246 C1245 1.374 . S
C1247 C1244 1.499 . S
C1247 C1248 1.373 . S
C1247 C1249 1.389 . S
C1248 H1221 0.950 . S
C1248 C1234 1.377 . S
C1248 C1247 1.373 . S
C1249 C1233 1.377 . S
C1249 C1247 1.389 . S
C1249 C1250 1.524 . S
C1250 C1249 1.524 . S
C1250 C1251 1.397 . S
C1250 C1255 1.363 . S
C1251 H1222 0.950 . S
C1251 C1250 1.397 . S
C1251 C1252 1.334 . S
C1252 H1223 0.950 1_565 S
C1252 C1251 1.334 . S
C1252 C1253 1.287 . S
C1253 C1252 1.287 . S
C1253 C1254 1.524 . S
C1253 H1256 0.999 1_565 S
C1254 H1224 0.950 . S
C1254 C1253 1.524 . S
C1254 C1255 1.415 . S
C1255 H1225 0.950 . S
C1255 C1250 1.363 . S
C1255 C1254 1.415 . S
H1256 C1253 0.999 1_545 S
H1257 C1238 0.913 . S
H1258 C1276 0.951 . S
H1259 C1278 0.951 . S
H1260 C1280 0.950 . S
H1261 C1281 0.950 . S
H1262 C1283 0.950 . S
H1263 C1286 0.950 . S
H1264 C1287 0.950 . S
H1265 C1289 0.950 . S
H1266 C1290 0.950 . S
H1267 C1291 0.951 . S
H1268 C1293 0.951 . S
H1269 C1295 0.950 . S
H1270 C1296 0.950 . S
H1271 C1298 0.950 . S
H1272 C1301 0.950 . S
H1273 C1302 0.950 . S
H1274 C1304 0.950 . S
H1275 C1305 0.950 . S
C1276 H1258 0.951 . S
C1276 C1277 1.366 . S
C1276 C1278 1.388 . S
C1277 C1276 1.366 . S
C1277 C1281 1.385 . S
C1278 H1259 0.951 . S
C1278 C1276 1.388 . S
C1278 C1279 1.366 . S
C1279 C1278 1.366 . S
C1279 C1280 1.414 . S
C1279 C1282 1.499 . S
C1280 H1260 0.950 . S
C1280 C1279 1.414 . S
C1280 C1281 1.374 . S
C1281 H1261 0.950 . S
C1281 C1277 1.385 . S
C1281 C1280 1.374 . S
C1282 C1279 1.499 . S
C1282 C1283 1.373 . S
C1282 C1284 1.389 . S
C1283 H1262 0.950 . S
C1283 C1282 1.373 . S
C1283 C1299 1.377 . S
C1284 C1282 1.389 . S
C1284 C1285 1.524 . S
C1284 C1298 1.377 . S
C1285 C1284 1.524 . S
C1285 C1286 1.397 . S
C1285 C1290 1.363 . S
C1286 H1263 0.950 . S
C1286 C1285 1.397 . S
C1286 C1287 1.334 . S
C1287 H1264 0.950 . S
C1287 C1286 1.334 . S
C1287 C1288 1.287 . S
C1288 C1287 1.287 . S
C1288 C1289 1.524 . S
C1288 H1307 0.913 . S
C1289 H1265 0.950 . S
C1289 C1288 1.524 . S
C1289 C1290 1.415 . S
C1290 H1266 0.950 . S
C1290 C1285 1.363 . S
C1290 C1289 1.415 . S
C1291 H1267 0.951 . S
C1291 C1292 1.366 . S
C1291 C1293 1.388 . S
C1292 C1291 1.366 . S
C1292 C1296 1.385 . S
C1293 H1268 0.951 . S
C1293 C1291 1.388 . S
C1293 C1294 1.366 . S
C1294 C1293 1.366 . S
C1294 C1295 1.414 . S
C1294 C1297 1.499 . S
C1295 H1269 0.950 . S
C1295 C1294 1.414 . S
C1295 C1296 1.374 . S
C1296 H1270 0.950 . S
C1296 C1292 1.385 . S
C1296 C1295 1.374 . S
C1297 C1294 1.499 . S
C1297 C1298 1.373 . S
C1297 C1299 1.389 . S
C1298 H1271 0.950 . S
C1298 C1284 1.377 . S
C1298 C1297 1.373 . S
C1299 C1283 1.377 . S
C1299 C1297 1.389 . S
C1299 C1300 1.524 . S
C1300 C1299 1.524 . S
C1300 C1301 1.397 . S
C1300 C1305 1.363 . S
C1301 H1272 0.950 . S
C1301 C1300 1.397 . S
C1301 C1302 1.334 . S
C1302 H1273 0.950 . S
C1302 C1301 1.334 . S
C1302 C1303 1.287 . S
C1303 C1302 1.287 . S
C1303 C1304 1.524 . S
C1303 H1306 0.999 . S
C1304 H1274 0.950 . S
C1304 C1303 1.524 . S
C1304 C1305 1.415 . S
C1305 H1275 0.950 . S
C1305 C1300 1.363 . S
C1305 C1304 1.415 . S
H1306 C1303 0.999 . S
H1307 C1288 0.913 . S
H1308 C1326 0.951 . S
H1309 C1328 0.951 . S
H1310 C1330 0.950 . S
H1311 C1331 0.950 . S
H1312 C1333 0.950 . S
H1313 C1336 0.950 . S
H1314 C1337 0.950 . S
H1315 C1339 0.950 . S
H1316 C1340 0.950 . S
H1317 C1341 0.951 . S
H1318 C1343 0.951 . S
H1319 C1345 0.950 . S
H1320 C1346 0.950 . S
H1321 C1348 0.950 . S
H1322 C1351 0.950 . S
H1323 C1352 0.950 . S
H1324 C1354 0.950 . S
H1325 C1355 0.950 . S
C1326 H1308 0.951 . S
C1326 C1327 1.366 . S
C1326 C1328 1.388 . S
C1327 C1326 1.366 . S
C1327 C1331 1.385 . S
C1328 H1309 0.951 . S
C1328 C1326 1.388 . S
C1328 C1329 1.366 . S
C1329 C1328 1.366 . S
C1329 C1330 1.414 . S
C1329 C1332 1.499 . S
C1330 H1310 0.950 . S
C1330 C1329 1.414 . S
C1330 C1331 1.374 . S
C1331 H1311 0.950 . S
C1331 C1327 1.385 . S
C1331 C1330 1.374 . S
C1332 C1329 1.499 . S
C1332 C1333 1.373 . S
C1332 C1334 1.389 . S
C1333 H1312 0.950 . S
C1333 C1332 1.373 . S
C1333 C1349 1.377 . S
C1334 C1332 1.389 . S
C1334 C1335 1.524 . S
C1334 C1348 1.377 . S
C1335 C1334 1.524 . S
C1335 C1336 1.397 . S
C1335 C1340 1.363 . S
C1336 H1313 0.950 . S
C1336 C1335 1.397 . S
C1336 C1337 1.334 . S
C1337 H1314 0.950 . S
C1337 C1336 1.334 . S
C1337 C1338 1.287 . S
C1338 C1337 1.287 . S
C1338 C1339 1.524 . S
C1338 H1357 0.913 . S
C1339 H1315 0.950 . S
C1339 C1338 1.524 . S
C1339 C1340 1.415 . S
C1340 H1316 0.950 . S
C1340 C1335 1.363 . S
C1340 C1339 1.415 . S
C1341 H1317 0.951 . S
C1341 C1342 1.366 . S
C1341 C1343 1.388 . S
C1342 C1341 1.366 . S
C1342 C1346 1.385 . S
C1343 H1318 0.951 . S
C1343 C1341 1.388 . S
C1343 C1344 1.366 . S
C1344 C1343 1.366 . S
C1344 C1345 1.414 . S
C1344 C1347 1.499 . S
C1345 H1319 0.950 . S
C1345 C1344 1.414 . S
C1345 C1346 1.374 . S
C1346 H1320 0.950 . S
C1346 C1342 1.385 . S
C1346 C1345 1.374 . S
C1347 C1344 1.499 . S
C1347 C1348 1.373 . S
C1347 C1349 1.389 . S
C1348 H1321 0.950 . S
C1348 C1334 1.377 . S
C1348 C1347 1.373 . S
C1349 C1333 1.377 . S
C1349 C1347 1.389 . S
C1349 C1350 1.524 . S
C1350 C1349 1.524 . S
C1350 C1351 1.397 . S
C1350 C1355 1.363 . S
C1351 H1322 0.950 . S
C1351 C1350 1.397 . S
C1351 C1352 1.334 . S
C1352 H1323 0.950 . S
C1352 C1351 1.334 . S
C1352 C1353 1.287 . S
C1353 C1352 1.287 . S
C1353 C1354 1.524 . S
C1353 H1356 0.999 . S
C1354 H1324 0.950 . S
C1354 C1353 1.524 . S
C1354 C1355 1.415 . S
C1355 H1325 0.950 . S
C1355 C1350 1.363 . S
C1355 C1354 1.415 . S
H1356 C1353 0.999 . S
H1357 C1338 0.913 . S
H1358 C1376 0.951 . S
H1359 C1378 0.951 . S
H1360 C1380 0.950 . S
H1361 C1381 0.950 . S
H1362 C1383 0.950 . S
H1363 C1386 0.950 . S
H1364 C1387 0.950 . S
H1365 C1389 0.950 . S
H1366 C1390 0.950 . S
H1367 C1391 0.951 . S
H1368 C1393 0.951 . S
H1369 C1395 0.950 . S
H1370 C1396 0.950 . S
H1371 C1398 0.950 . S
H1372 C1401 0.950 . S
H1373 C1402 0.950 . S
H1374 C1404 0.950 . S
H1375 C1405 0.950 . S
C1376 H1358 0.951 . S
C1376 C1377 1.366 . S
C1376 C1378 1.388 . S
C1377 C1376 1.366 . S
C1377 C1381 1.385 . S
C1378 H1359 0.951 . S
C1378 C1376 1.388 . S
C1378 C1379 1.366 . S
C1379 C1378 1.366 . S
C1379 C1380 1.414 . S
C1379 C1382 1.499 . S
C1380 H1360 0.950 . S
C1380 C1379 1.414 . S
C1380 C1381 1.374 . S
C1381 H1361 0.950 . S
C1381 C1377 1.385 . S
C1381 C1380 1.374 . S
C1382 C1379 1.499 . S
C1382 C1383 1.373 . S
C1382 C1384 1.389 . S
C1383 H1362 0.950 . S
C1383 C1382 1.373 . S
C1383 C1399 1.377 . S
C1384 C1382 1.389 . S
C1384 C1385 1.524 . S
C1384 C1398 1.377 . S
C1385 C1384 1.524 . S
C1385 C1386 1.397 . S
C1385 C1390 1.363 . S
C1386 H1363 0.950 . S
C1386 C1385 1.397 . S
C1386 C1387 1.334 . S
C1387 H1364 0.950 . S
C1387 C1386 1.334 . S
C1387 C1388 1.287 . S
C1388 C1387 1.287 . S
C1388 C1389 1.524 . S
C1388 H1407 0.913 . S
C1389 H1365 0.950 . S
C1389 C1388 1.524 . S
C1389 C1390 1.415 . S
C1390 H1366 0.950 . S
C1390 C1385 1.363 . S
C1390 C1389 1.415 . S
C1391 H1367 0.951 . S
C1391 C1392 1.366 . S
C1391 C1393 1.388 . S
C1392 C1391 1.366 . S
C1392 C1396 1.385 . S
C1393 H1368 0.951 . S
C1393 C1391 1.388 . S
C1393 C1394 1.366 . S
C1394 C1393 1.366 . S
C1394 C1395 1.414 . S
C1394 C1397 1.499 . S
C1395 H1369 0.950 . S
C1395 C1394 1.414 . S
C1395 C1396 1.374 . S
C1396 H1370 0.950 . S
C1396 C1392 1.385 . S
C1396 C1395 1.374 . S
C1397 C1394 1.499 . S
C1397 C1398 1.373 . S
C1397 C1399 1.389 . S
C1398 H1371 0.950 . S
C1398 C1384 1.377 . S
C1398 C1397 1.373 . S
C1399 C1383 1.377 . S
C1399 C1397 1.389 . S
C1399 C1400 1.524 . S
C1400 C1399 1.524 . S
C1400 C1401 1.397 . S
C1400 C1405 1.363 . S
C1401 H1372 0.950 . S
C1401 C1400 1.397 . S
C1401 C1402 1.334 . S
C1402 H1373 0.950 . S
C1402 C1401 1.334 . S
C1402 C1403 1.287 . S
C1403 C1402 1.287 . S
C1403 C1404 1.524 . S
C1403 H1406 0.999 . S
C1404 H1374 0.950 . S
C1404 C1403 1.524 . S
C1404 C1405 1.415 . S
C1405 H1375 0.950 . S
C1405 C1400 1.363 . S
C1405 C1404 1.415 . S
H1406 C1403 0.999 . S
H1407 C1388 0.913 . S
H1408 C1426 0.951 . S
H1409 C1428 0.951 . S
H1410 C1430 0.950 . S
H1411 C1431 0.950 . S
H1412 C1433 0.950 . S
H1413 C1436 0.950 . S
H1414 C1437 0.950 . S
H1415 C1439 0.950 . S
H1416 C1440 0.950 . S
H1417 C1441 0.951 . S
H1418 C1443 0.951 . S
H1419 C1445 0.950 . S
H1420 C1446 0.950 . S
H1421 C1448 0.950 . S
H1422 C1451 0.950 . S
H1423 C1452 0.950 . S
H1424 C1454 0.950 . S
H1425 C1455 0.950 . S
C1426 H1408 0.951 . S
C1426 C1427 1.366 . S
C1426 C1428 1.388 . S
C1427 C1426 1.366 . S
C1427 C1431 1.385 . S
C1428 H1409 0.951 . S
C1428 C1426 1.388 . S
C1428 C1429 1.366 . S
C1429 C1428 1.366 . S
C1429 C1430 1.414 . S
C1429 C1432 1.499 . S
C1430 H1410 0.950 . S
C1430 C1429 1.414 . S
C1430 C1431 1.374 . S
C1431 H1411 0.950 . S
C1431 C1427 1.385 . S
C1431 C1430 1.374 . S
C1432 C1429 1.499 . S
C1432 C1433 1.373 . S
C1432 C1434 1.389 . S
C1433 H1412 0.950 . S
C1433 C1432 1.373 . S
C1433 C1449 1.377 . S
C1434 C1432 1.389 . S
C1434 C1435 1.524 . S
C1434 C1448 1.377 . S
C1435 C1434 1.524 . S
C1435 C1436 1.397 . S
C1435 C1440 1.363 . S
C1436 H1413 0.950 . S
C1436 C1435 1.397 . S
C1436 C1437 1.334 . S
C1437 H1414 0.950 . S
C1437 C1436 1.334 . S
C1437 C1438 1.287 . S
C1438 C1437 1.287 . S
C1438 C1439 1.524 . S
C1438 H1457 0.913 . S
C1439 H1415 0.950 . S
C1439 C1438 1.524 . S
C1439 C1440 1.415 . S
C1440 H1416 0.950 . S
C1440 C1435 1.363 . S
C1440 C1439 1.415 . S
C1441 H1417 0.951 . S
C1441 C1442 1.366 . S
C1441 C1443 1.388 . S
C1442 C1441 1.366 . S
C1442 C1446 1.385 . S
C1443 H1418 0.951 . S
C1443 C1441 1.388 . S
C1443 C1444 1.366 . S
C1444 C1443 1.366 . S
C1444 C1445 1.414 . S
C1444 C1447 1.499 . S
C1445 H1419 0.950 . S
C1445 C1444 1.414 . S
C1445 C1446 1.374 . S
C1446 H1420 0.950 . S
C1446 C1442 1.385 . S
C1446 C1445 1.374 . S
C1447 C1444 1.499 . S
C1447 C1448 1.373 . S
C1447 C1449 1.389 . S
C1448 H1421 0.950 . S
C1448 C1434 1.377 . S
C1448 C1447 1.373 . S
C1449 C1433 1.377 . S
C1449 C1447 1.389 . S
C1449 C1450 1.524 . S
C1450 C1449 1.524 . S
C1450 C1451 1.397 . S
C1450 C1455 1.363 . S
C1451 H1422 0.950 . S
C1451 C1450 1.397 . S
C1451 C1452 1.334 . S
C1452 H1423 0.950 . S
C1452 C1451 1.334 . S
C1452 C1453 1.287 . S
C1453 C1452 1.287 . S
C1453 C1454 1.524 . S
C1453 H1456 0.999 . S
C1454 H1424 0.950 . S
C1454 C1453 1.524 . S
C1454 C1455 1.415 . S
C1455 H1425 0.950 . S
C1455 C1450 1.363 . S
C1455 C1454 1.415 . S
H1456 C1453 0.999 . S
H1457 C1438 0.913 . S
H1458 C1476 0.951 . S
H1459 C1478 0.951 . S
H1460 C1480 0.950 . S
H1461 C1481 0.950 . S
H1462 C1483 0.950 . S
H1463 C1486 0.950 . S
H1464 C1487 0.950 . S
H1465 C1489 0.950 . S
H1466 C1490 0.950 . S
H1467 C1491 0.951 . S
H1468 C1493 0.951 . S
H1469 C1495 0.950 . S
H1470 C1496 0.950 . S
H1471 C1498 0.950 . S
H1472 C1501 0.950 . S
H1473 C1502 0.950 . S
H1474 C1504 0.950 . S
H1475 C1505 0.950 . S
C1476 H1458 0.951 . S
C1476 C1477 1.366 . S
C1476 C1478 1.388 . S
C1477 C1476 1.366 . S
C1477 C1481 1.385 . S
C1478 H1459 0.951 . S
C1478 C1476 1.388 . S
C1478 C1479 1.366 . S
C1479 C1478 1.366 . S
C1479 C1480 1.414 . S
C1479 C1482 1.499 . S
C1480 H1460 0.950 . S
C1480 C1479 1.414 . S
C1480 C1481 1.374 . S
C1481 H1461 0.950 . S
C1481 C1477 1.385 . S
C1481 C1480 1.374 . S
C1482 C1479 1.499 . S
C1482 C1483 1.373 . S
C1482 C1484 1.389 . S
C1483 H1462 0.950 . S
C1483 C1482 1.373 . S
C1483 C1499 1.377 . S
C1484 C1482 1.389 . S
C1484 C1485 1.524 . S
C1484 C1498 1.377 . S
C1485 C1484 1.524 . S
C1485 C1486 1.397 . S
C1485 C1490 1.363 . S
C1486 H1463 0.950 . S
C1486 C1485 1.397 . S
C1486 C1487 1.334 . S
C1487 H1464 0.950 . S
C1487 C1486 1.334 . S
C1487 C1488 1.287 . S
C1488 C1487 1.287 . S
C1488 C1489 1.524 . S
C1488 H1507 0.913 . S
C1489 H1465 0.950 . S
C1489 C1488 1.524 . S
C1489 C1490 1.415 . S
C1490 H1466 0.950 . S
C1490 C1485 1.363 . S
C1490 C1489 1.415 . S
C1491 H1467 0.951 . S
C1491 C1492 1.366 . S
C1491 C1493 1.388 . S
C1492 C1491 1.366 . S
C1492 C1496 1.385 . S
C1493 H1468 0.951 . S
C1493 C1491 1.388 . S
C1493 C1494 1.366 . S
C1494 C1493 1.366 . S
C1494 C1495 1.414 . S
C1494 C1497 1.499 . S
C1495 H1469 0.950 . S
C1495 C1494 1.414 . S
C1495 C1496 1.374 . S
C1496 H1470 0.950 . S
C1496 C1492 1.385 . S
C1496 C1495 1.374 . S
C1497 C1494 1.499 . S
C1497 C1498 1.373 . S
C1497 C1499 1.389 . S
C1498 H1471 0.950 . S
C1498 C1484 1.377 . S
C1498 C1497 1.373 . S
C1499 C1483 1.377 . S
C1499 C1497 1.389 . S
C1499 C1500 1.524 . S
C1500 C1499 1.524 . S
C1500 C1501 1.397 . S
C1500 C1505 1.363 . S
C1501 H1472 0.950 . S
C1501 C1500 1.397 . S
C1501 C1502 1.334 . S
C1502 H1473 0.950 . S
C1502 C1501 1.334 . S
C1502 C1503 1.287 . S
C1503 C1502 1.287 . S
C1503 C1504 1.524 . S
C1503 H1506 0.999 . S
C1504 H1474 0.950 . S
C1504 C1503 1.524 . S
C1504 C1505 1.415 . S
C1505 H1475 0.950 . S
C1505 C1500 1.363 . S
C1505 C1504 1.415 . S
H1506 C1503 0.999 . S
H1507 C1488 0.913 . S
H1508 C1526 0.951 . S
H1509 C1528 0.951 . S
H1510 C1530 0.950 . S
H1511 C1531 0.950 . S
H1512 C1533 0.950 . S
H1513 C1536 0.950 . S
H1514 C1537 0.950 . S
H1515 C1539 0.950 . S
H1516 C1540 0.950 . S
H1517 C1541 0.951 . S
H1518 C1543 0.951 . S
H1519 C1545 0.950 . S
H1520 C1546 0.950 . S
H1521 C1548 0.950 . S
H1522 C1551 0.950 . S
H1523 C1552 0.950 . S
H1524 C1554 0.950 . S
H1525 C1555 0.950 . S
C1526 H1508 0.951 . S
C1526 C1527 1.366 . S
C1526 C1528 1.388 . S
C1527 C1526 1.366 . S
C1527 C1531 1.385 . S
C1528 H1509 0.951 . S
C1528 C1526 1.388 . S
C1528 C1529 1.366 . S
C1529 C1528 1.366 . S
C1529 C1530 1.414 . S
C1529 C1532 1.499 . S
C1530 H1510 0.950 . S
C1530 C1529 1.414 . S
C1530 C1531 1.374 . S
C1531 H1511 0.950 . S
C1531 C1527 1.385 . S
C1531 C1530 1.374 . S
C1532 C1529 1.499 . S
C1532 C1533 1.373 . S
C1532 C1534 1.389 . S
C1533 H1512 0.950 . S
C1533 C1532 1.373 . S
C1533 C1549 1.377 . S
C1534 C1532 1.389 . S
C1534 C1535 1.524 . S
C1534 C1548 1.377 . S
C1535 C1534 1.524 . S
C1535 C1536 1.397 . S
C1535 C1540 1.363 . S
C1536 H1513 0.950 . S
C1536 C1535 1.397 . S
C1536 C1537 1.334 . S
C1537 H1514 0.950 . S
C1537 C1536 1.334 . S
C1537 C1538 1.287 . S
C1538 C1537 1.287 . S
C1538 C1539 1.524 . S
C1538 H1557 0.913 . S
C1539 H1515 0.950 . S
C1539 C1538 1.524 . S
C1539 C1540 1.415 . S
C1540 H1516 0.950 . S
C1540 C1535 1.363 . S
C1540 C1539 1.415 . S
C1541 H1517 0.951 . S
C1541 C1542 1.366 . S
C1541 C1543 1.388 . S
C1542 C1541 1.366 . S
C1542 C1546 1.385 . S
C1543 H1518 0.951 . S
C1543 C1541 1.388 . S
C1543 C1544 1.366 . S
C1544 C1543 1.366 . S
C1544 C1545 1.414 . S
C1544 C1547 1.499 . S
C1545 H1519 0.950 . S
C1545 C1544 1.414 . S
C1545 C1546 1.374 . S
C1546 H1520 0.950 . S
C1546 C1542 1.385 . S
C1546 C1545 1.374 . S
C1547 C1544 1.499 . S
C1547 C1548 1.373 . S
C1547 C1549 1.389 . S
C1548 H1521 0.950 . S
C1548 C1534 1.377 . S
C1548 C1547 1.373 . S
C1549 C1533 1.377 . S
C1549 C1547 1.389 . S
C1549 C1550 1.524 . S
C1550 C1549 1.524 . S
C1550 C1551 1.397 . S
C1550 C1555 1.363 . S
C1551 H1522 0.950 . S
C1551 C1550 1.397 . S
C1551 C1552 1.334 . S
C1552 H1523 0.950 . S
C1552 C1551 1.334 . S
C1552 C1553 1.287 . S
C1553 C1552 1.287 . S
C1553 C1554 1.524 . S
C1553 H1556 0.999 . S
C1554 H1524 0.950 . S
C1554 C1553 1.524 . S
C1554 C1555 1.415 . S
C1555 H1525 0.950 . S
C1555 C1550 1.363 . S
C1555 C1554 1.415 . S
H1556 C1553 0.999 . S
H1557 C1538 0.913 . S
H1558 C1576 0.951 . S
H1559 C1578 0.951 . S
H1560 C1580 0.950 . S
H1561 C1581 0.950 . S
H1562 C1583 0.950 . S
H1563 C1586 0.950 . S
H1564 C1587 0.950 . S
H1565 C1589 0.950 . S
H1566 C1590 0.950 . S
H1567 C1591 0.951 . S
H1568 C1593 0.951 . S
H1569 C1595 0.950 . S
H1570 C1596 0.950 . S
H1571 C1598 0.950 . S
H1572 C1601 0.950 . S
H1573 C1602 0.950 . S
H1574 C1604 0.950 . S
H1575 C1605 0.950 . S
C1576 H1558 0.951 . S
C1576 C1577 1.366 . S
C1576 C1578 1.388 . S
C1577 C1576 1.366 . S
C1577 C1581 1.385 . S
C1578 H1559 0.951 . S
C1578 C1576 1.388 . S
C1578 C1579 1.366 . S
C1579 C1578 1.366 . S
C1579 C1580 1.414 . S
C1579 C1582 1.499 . S
C1580 H1560 0.950 . S
C1580 C1579 1.414 . S
C1580 C1581 1.374 . S
C1581 H1561 0.950 . S
C1581 C1577 1.385 . S
C1581 C1580 1.374 . S
C1582 C1579 1.499 . S
C1582 C1583 1.373 . S
C1582 C1584 1.389 . S
C1583 H1562 0.950 . S
C1583 C1582 1.373 . S
C1583 C1599 1.377 . S
C1584 C1582 1.389 . S
C1584 C1585 1.524 . S
C1584 C1598 1.377 . S
C1585 C1584 1.524 . S
C1585 C1586 1.397 . S
C1585 C1590 1.363 . S
C1586 H1563 0.950 . S
C1586 C1585 1.397 . S
C1586 C1587 1.334 . S
C1587 H1564 0.950 . S
C1587 C1586 1.334 . S
C1587 C1588 1.287 . S
C1588 C1587 1.287 . S
C1588 C1589 1.524 . S
C1588 H1607 0.913 . S
C1589 H1565 0.950 . S
C1589 C1588 1.524 . S
C1589 C1590 1.415 . S
C1590 H1566 0.950 . S
C1590 C1585 1.363 . S
C1590 C1589 1.415 . S
C1591 H1567 0.951 . S
C1591 C1592 1.366 . S
C1591 C1593 1.388 . S
C1592 C1591 1.366 . S
C1592 C1596 1.385 . S
C1593 H1568 0.951 . S
C1593 C1591 1.388 . S
C1593 C1594 1.366 . S
C1594 C1593 1.366 . S
C1594 C1595 1.414 . S
C1594 C1597 1.499 . S
C1595 H1569 0.950 . S
C1595 C1594 1.414 . S
C1595 C1596 1.374 . S
C1596 H1570 0.950 . S
C1596 C1592 1.385 . S
C1596 C1595 1.374 . S
C1597 C1594 1.499 . S
C1597 C1598 1.373 . S
C1597 C1599 1.389 . S
C1598 H1571 0.950 . S
C1598 C1584 1.377 . S
C1598 C1597 1.373 . S
C1599 C1583 1.377 . S
C1599 C1597 1.389 . S
C1599 C1600 1.524 . S
C1600 C1599 1.524 . S
C1600 C1601 1.397 . S
C1600 C1605 1.363 . S
C1601 H1572 0.950 . S
C1601 C1600 1.397 . S
C1601 C1602 1.334 . S
C1602 H1573 0.950 . S
C1602 C1601 1.334 . S
C1602 C1603 1.287 . S
C1603 C1602 1.287 . S
C1603 C1604 1.524 . S
C1603 H1606 0.999 . S
C1604 H1574 0.950 . S
C1604 C1603 1.524 . S
C1604 C1605 1.415 . S
C1605 H1575 0.950 . S
C1605 C1600 1.363 . S
C1605 C1604 1.415 . S
H1606 C1603 0.999 . S
H1607 C1588 0.913 . S
H1608 C1626 0.951 . S
H1609 C1628 0.951 . S
H1610 C1630 0.950 . S
H1611 C1631 0.950 . S
H1612 C1633 0.950 . S
H1613 C1636 0.950 . S
H1614 C1637 0.950 . S
H1615 C1639 0.950 . S
H1616 C1640 0.950 . S
H1617 C1641 0.951 . S
H1618 C1643 0.951 . S
H1619 C1645 0.950 . S
H1620 C1646 0.950 . S
H1621 C1648 0.950 . S
H1622 C1651 0.950 . S
H1623 C1652 0.950 . S
H1624 C1654 0.950 . S
H1625 C1655 0.950 . S
C1626 H1608 0.951 . S
C1626 C1627 1.366 . S
C1626 C1628 1.388 . S
C1627 C1626 1.366 . S
C1627 C1631 1.385 . S
C1628 H1609 0.951 . S
C1628 C1626 1.388 . S
C1628 C1629 1.366 . S
C1629 C1628 1.366 . S
C1629 C1630 1.414 . S
C1629 C1632 1.499 . S
C1630 H1610 0.950 . S
C1630 C1629 1.414 . S
C1630 C1631 1.374 . S
C1631 H1611 0.950 . S
C1631 C1627 1.385 . S
C1631 C1630 1.374 . S
C1632 C1629 1.499 . S
C1632 C1633 1.373 . S
C1632 C1634 1.389 . S
C1633 H1612 0.950 . S
C1633 C1632 1.373 . S
C1633 C1649 1.377 . S
C1634 C1632 1.389 . S
C1634 C1635 1.524 . S
C1634 C1648 1.377 . S
C1635 C1634 1.524 . S
C1635 C1636 1.397 . S
C1635 C1640 1.363 . S
C1636 H1613 0.950 . S
C1636 C1635 1.397 . S
C1636 C1637 1.334 . S
C1637 H1614 0.950 . S
C1637 C1636 1.334 . S
C1637 C1638 1.287 . S
C1638 C1637 1.287 . S
C1638 C1639 1.524 . S
C1638 H1657 0.913 . S
C1639 H1615 0.950 . S
C1639 C1638 1.524 . S
C1639 C1640 1.415 . S
C1640 H1616 0.950 . S
C1640 C1635 1.363 . S
C1640 C1639 1.415 . S
C1641 H1617 0.951 . S
C1641 C1642 1.366 . S
C1641 C1643 1.388 . S
C1642 C1641 1.366 . S
C1642 C1646 1.385 . S
C1643 H1618 0.951 . S
C1643 C1641 1.388 . S
C1643 C1644 1.366 . S
C1644 C1643 1.366 . S
C1644 C1645 1.414 . S
C1644 C1647 1.499 . S
C1645 H1619 0.950 . S
C1645 C1644 1.414 . S
C1645 C1646 1.374 . S
C1646 H1620 0.950 . S
C1646 C1642 1.385 . S
C1646 C1645 1.374 . S
C1647 C1644 1.499 . S
C1647 C1648 1.373 . S
C1647 C1649 1.389 . S
C1648 H1621 0.950 . S
C1648 C1634 1.377 . S
C1648 C1647 1.373 . S
C1649 C1633 1.377 . S
C1649 C1647 1.389 . S
C1649 C1650 1.524 . S
C1650 C1649 1.524 . S
C1650 C1651 1.397 . S
C1650 C1655 1.363 . S
C1651 H1622 0.950 . S
C1651 C1650 1.397 . S
C1651 C1652 1.334 . S
C1652 H1623 0.950 . S
C1652 C1651 1.334 . S
C1652 C1653 1.287 . S
C1653 C1652 1.287 . S
C1653 C1654 1.524 . S
C1653 H1656 0.999 1_655 S
C1654 H1624 0.950 . S
C1654 C1653 1.524 . S
C1654 C1655 1.415 . S
C1655 H1625 0.950 . S
C1655 C1650 1.363 . S
C1655 C1654 1.415 . S
H1656 C1653 0.999 1_455 S
H1657 C1638 0.913 . S
H1658 C1676 0.951 . S
H1659 C1678 0.951 . S
H1660 C1680 0.950 . S
H1661 C1681 0.950 . S
H1662 C1683 0.950 . S
H1663 C1686 0.950 . S
H1664 C1687 0.950 . S
H1665 C1689 0.950 . S
H1666 C1690 0.950 . S
H1667 C1691 0.951 . S
H1668 C1693 0.951 . S
H1669 C1695 0.950 . S
H1670 C1696 0.950 . S
H1671 C1698 0.950 . S
H1672 C1701 0.950 . S
H1673 C1702 0.950 . S
H1674 C1704 0.950 . S
H1675 C1705 0.950 . S
C1676 H1658 0.951 . S
C1676 C1677 1.366 . S
C1676 C1678 1.388 . S
C1677 C1676 1.366 . S
C1677 C1681 1.385 . S
C1678 H1659 0.951 . S
C1678 C1676 1.388 . S
C1678 C1679 1.366 . S
C1679 C1678 1.366 . S
C1679 C1680 1.414 . S
C1679 C1682 1.499 . S
C1680 H1660 0.950 . S
C1680 C1679 1.414 . S
C1680 C1681 1.374 . S
C1681 H1661 0.950 . S
C1681 C1677 1.385 . S
C1681 C1680 1.374 . S
C1682 C1679 1.499 . S
C1682 C1683 1.373 . S
C1682 C1684 1.389 . S
C1683 H1662 0.950 . S
C1683 C1682 1.373 . S
C1683 C1699 1.377 . S
C1684 C1682 1.389 . S
C1684 C1685 1.524 . S
C1684 C1698 1.377 . S
C1685 C1684 1.524 . S
C1685 C1686 1.397 . S
C1685 C1690 1.363 . S
C1686 H1663 0.950 . S
C1686 C1685 1.397 . S
C1686 C1687 1.334 . S
C1687 H1664 0.950 . S
C1687 C1686 1.334 . S
C1687 C1688 1.287 . S
C1688 C1687 1.287 . S
C1688 C1689 1.524 . S
C1688 H1707 0.913 . S
C1689 H1665 0.950 . S
C1689 C1688 1.524 . S
C1689 C1690 1.415 . S
C1690 H1666 0.950 . S
C1690 C1685 1.363 . S
C1690 C1689 1.415 . S
C1691 H1667 0.951 . S
C1691 C1692 1.366 . S
C1691 C1693 1.388 . S
C1692 C1691 1.366 . S
C1692 C1696 1.385 . S
C1693 H1668 0.951 . S
C1693 C1691 1.388 . S
C1693 C1694 1.366 . S
C1694 C1693 1.366 . S
C1694 C1695 1.414 . S
C1694 C1697 1.499 . S
C1695 H1669 0.950 . S
C1695 C1694 1.414 . S
C1695 C1696 1.374 . S
C1696 H1670 0.950 . S
C1696 C1692 1.385 . S
C1696 C1695 1.374 . S
C1697 C1694 1.499 . S
C1697 C1698 1.373 . S
C1697 C1699 1.389 . S
C1698 H1671 0.950 . S
C1698 C1684 1.377 . S
C1698 C1697 1.373 . S
C1699 C1683 1.377 . S
C1699 C1697 1.389 . S
C1699 C1700 1.524 . S
C1700 C1699 1.524 . S
C1700 C1701 1.397 . S
C1700 C1705 1.363 . S
C1701 H1672 0.950 . S
C1701 C1700 1.397 . S
C1701 C1702 1.334 . S
C1702 H1673 0.950 . S
C1702 C1701 1.334 . S
C1702 C1703 1.287 . S
C1703 C1702 1.287 . S
C1703 C1704 1.524 . S
C1703 H1706 0.999 1_455 S
C1704 H1674 0.950 . S
C1704 C1703 1.524 . S
C1704 C1705 1.415 . S
C1705 H1675 0.950 . S
C1705 C1700 1.363 . S
C1705 C1704 1.415 . S
H1706 C1703 0.999 1_655 S
H1707 C1688 0.913 . S
H1708 C1726 0.951 . S
H1709 C1728 0.951 . S
H1710 C1730 0.950 . S
H1711 C1731 0.950 . S
H1712 C1733 0.950 . S
H1713 C1736 0.950 . S
H1714 C1737 0.950 . S
H1715 C1739 0.950 . S
H1716 C1740 0.950 . S
H1717 C1741 0.951 . S
H1718 C1743 0.951 . S
H1719 C1745 0.950 . S
H1720 C1746 0.950 . S
H1721 C1748 0.950 . S
H1722 C1751 0.950 . S
H1723 C1752 0.950 . S
H1724 C1754 0.950 . S
H1725 C1755 0.950 . S
C1726 H1708 0.951 . S
C1726 C1727 1.366 . S
C1726 C1728 1.388 . S
C1727 C1726 1.366 . S
C1727 C1731 1.385 . S
C1728 H1709 0.951 . S
C1728 C1726 1.388 . S
C1728 C1729 1.366 . S
C1729 C1728 1.366 . S
C1729 C1730 1.414 . S
C1729 C1732 1.499 . S
C1730 H1710 0.950 . S
C1730 C1729 1.414 . S
C1730 C1731 1.374 . S
C1731 H1711 0.950 . S
C1731 C1727 1.385 . S
C1731 C1730 1.374 . S
C1732 C1729 1.499 . S
C1732 C1733 1.373 . S
C1732 C1734 1.389 . S
C1733 H1712 0.950 . S
C1733 C1732 1.373 . S
C1733 C1749 1.377 . S
C1734 C1732 1.389 . S
C1734 C1735 1.524 . S
C1734 C1748 1.377 . S
C1735 C1734 1.524 . S
C1735 C1736 1.397 . S
C1735 C1740 1.363 . S
C1736 H1713 0.950 . S
C1736 C1735 1.397 . S
C1736 C1737 1.334 . S
C1737 H1714 0.950 . S
C1737 C1736 1.334 . S
C1737 C1738 1.287 . S
C1738 C1737 1.287 . S
C1738 C1739 1.524 . S
C1738 H1757 0.913 . S
C1739 H1715 0.950 . S
C1739 C1738 1.524 . S
C1739 C1740 1.415 . S
C1740 H1716 0.950 . S
C1740 C1735 1.363 . S
C1740 C1739 1.415 . S
C1741 H1717 0.951 . S
C1741 C1742 1.366 . S
C1741 C1743 1.388 . S
C1742 C1741 1.366 . S
C1742 C1746 1.385 . S
C1743 H1718 0.951 . S
C1743 C1741 1.388 . S
C1743 C1744 1.366 . S
C1744 C1743 1.366 . S
C1744 C1745 1.414 . S
C1744 C1747 1.499 . S
C1745 H1719 0.950 . S
C1745 C1744 1.414 . S
C1745 C1746 1.374 . S
C1746 H1720 0.950 . S
C1746 C1742 1.385 . S
C1746 C1745 1.374 . S
C1747 C1744 1.499 . S
C1747 C1748 1.373 . S
C1747 C1749 1.389 . S
C1748 H1721 0.950 . S
C1748 C1734 1.377 . S
C1748 C1747 1.373 . S
C1749 C1733 1.377 . S
C1749 C1747 1.389 . S
C1749 C1750 1.524 . S
C1750 C1749 1.524 . S
C1750 C1751 1.397 . S
C1750 C1755 1.363 . S
C1751 H1722 0.950 . S
C1751 C1750 1.397 . S
C1751 C1752 1.334 . S
C1752 H1723 0.950 . S
C1752 C1751 1.334 . S
C1752 C1753 1.287 . S
C1753 C1752 1.287 . S
C1753 C1754 1.524 . S
C1753 H1756 0.999 . S
C1754 H1724 0.950 . S
C1754 C1753 1.524 . S
C1754 C1755 1.415 . S
C1755 H1725 0.950 . S
C1755 C1750 1.363 . S
C1755 C1754 1.415 . S
H1756 C1753 0.999 . S
H1757 C1738 0.913 . S
H1758 C1776 0.951 . S
H1759 C1778 0.951 . S
H1760 C1780 0.950 . S
H1761 C1781 0.950 . S
H1762 C1783 0.950 . S
H1763 C1786 0.950 . S
H1764 C1787 0.950 . S
H1765 C1789 0.950 . S
H1766 C1790 0.950 . S
H1767 C1791 0.951 . S
H1768 C1793 0.951 . S
H1769 C1795 0.950 . S
H1770 C1796 0.950 . S
H1771 C1798 0.950 . S
H1772 C1801 0.950 . S
H1773 C1802 0.950 . S
H1774 C1804 0.950 . S
H1775 C1805 0.950 . S
C1776 H1758 0.951 . S
C1776 C1777 1.366 . S
C1776 C1778 1.388 . S
C1777 C1776 1.366 . S
C1777 C1781 1.385 . S
C1778 H1759 0.951 . S
C1778 C1776 1.388 . S
C1778 C1779 1.366 . S
C1779 C1778 1.366 . S
C1779 C1780 1.414 . S
C1779 C1782 1.499 . S
C1780 H1760 0.950 . S
C1780 C1779 1.414 . S
C1780 C1781 1.374 . S
C1781 H1761 0.950 . S
C1781 C1777 1.385 . S
C1781 C1780 1.374 . S
C1782 C1779 1.499 . S
C1782 C1783 1.373 . S
C1782 C1784 1.389 . S
C1783 H1762 0.950 . S
C1783 C1782 1.373 . S
C1783 C1799 1.377 . S
C1784 C1782 1.389 . S
C1784 C1785 1.524 . S
C1784 C1798 1.377 . S
C1785 C1784 1.524 . S
C1785 C1786 1.397 . S
C1785 C1790 1.363 . S
C1786 H1763 0.950 . S
C1786 C1785 1.397 . S
C1786 C1787 1.334 . S
C1787 H1764 0.950 . S
C1787 C1786 1.334 . S
C1787 C1788 1.287 . S
C1788 C1787 1.287 . S
C1788 C1789 1.524 . S
C1788 H1807 0.913 . S
C1789 H1765 0.950 . S
C1789 C1788 1.524 . S
C1789 C1790 1.415 . S
C1790 H1766 0.950 . S
C1790 C1785 1.363 . S
C1790 C1789 1.415 . S
C1791 H1767 0.951 . S
C1791 C1792 1.366 . S
C1791 C1793 1.388 . S
C1792 C1791 1.366 . S
C1792 C1796 1.385 . S
C1793 H1768 0.951 . S
C1793 C1791 1.388 . S
C1793 C1794 1.366 . S
C1794 C1793 1.366 . S
C1794 C1795 1.414 . S
C1794 C1797 1.499 . S
C1795 H1769 0.950 . S
C1795 C1794 1.414 . S
C1795 C1796 1.374 . S
C1796 H1770 0.950 . S
C1796 C1792 1.385 . S
C1796 C1795 1.374 . S
C1797 C1794 1.499 . S
C1797 C1798 1.373 . S
C1797 C1799 1.389 . S
C1798 H1771 0.950 . S
C1798 C1784 1.377 . S
C1798 C1797 1.373 . S
C1799 C1783 1.377 . S
C1799 C1797 1.389 . S
C1799 C1800 1.524 . S
C1800 C1799 1.524 . S
C1800 C1801 1.397 . S
C1800 C1805 1.363 . S
C1801 H1772 0.950 . S
C1801 C1800 1.397 . S
C1801 C1802 1.334 . S
C1802 H1773 0.950 . S
C1802 C1801 1.334 . S
C1802 C1803 1.287 . S
C1803 C1802 1.287 . S
C1803 C1804 1.524 . S
C1803 H1806 0.999 . S
C1804 H1774 0.950 . S
C1804 C1803 1.524 . S
C1804 C1805 1.415 . S
C1805 H1775 0.950 . S
C1805 C1800 1.363 . S
C1805 C1804 1.415 . S
H1806 C1803 0.999 . S
H1807 C1788 0.913 . S
H1808 C1826 0.951 . S
H1809 C1828 0.951 . S
H1810 C1830 0.950 . S
H1811 C1831 0.950 . S
H1812 C1833 0.950 . S
H1813 C1836 0.950 . S
H1814 C1837 0.950 . S
H1815 C1839 0.950 . S
H1816 C1840 0.950 . S
H1817 C1841 0.951 . S
H1818 C1843 0.951 . S
H1819 C1845 0.950 . S
H1820 C1846 0.950 . S
H1821 C1848 0.950 . S
H1822 C1851 0.950 . S
H1823 C1852 0.950 . S
H1824 C1854 0.950 . S
H1825 C1855 0.950 . S
C1826 H1808 0.951 . S
C1826 C1827 1.366 . S
C1826 C1828 1.388 . S
C1827 C1826 1.366 . S
C1827 C1831 1.385 . S
C1828 H1809 0.951 . S
C1828 C1826 1.388 . S
C1828 C1829 1.366 . S
C1829 C1828 1.366 . S
C1829 C1830 1.414 . S
C1829 C1832 1.499 . S
C1830 H1810 0.950 . S
C1830 C1829 1.414 . S
C1830 C1831 1.374 . S
C1831 H1811 0.950 . S
C1831 C1827 1.385 . S
C1831 C1830 1.374 . S
C1832 C1829 1.499 . S
C1832 C1833 1.373 . S
C1832 C1834 1.389 . S
C1833 H1812 0.950 . S
C1833 C1832 1.373 . S
C1833 C1849 1.377 . S
C1834 C1832 1.389 . S
C1834 C1835 1.524 . S
C1834 C1848 1.377 . S
C1835 C1834 1.524 . S
C1835 C1836 1.397 . S
C1835 C1840 1.363 . S
C1836 H1813 0.950 . S
C1836 C1835 1.397 . S
C1836 C1837 1.334 . S
C1837 H1814 0.950 . S
C1837 C1836 1.334 . S
C1837 C1838 1.287 . S
C1838 C1837 1.287 . S
C1838 C1839 1.524 . S
C1838 H1857 0.913 . S
C1839 H1815 0.950 . S
C1839 C1838 1.524 . S
C1839 C1840 1.415 . S
C1840 H1816 0.950 . S
C1840 C1835 1.363 . S
C1840 C1839 1.415 . S
C1841 H1817 0.951 . S
C1841 C1842 1.366 . S
C1841 C1843 1.388 . S
C1842 C1841 1.366 . S
C1842 C1846 1.385 . S
C1843 H1818 0.951 . S
C1843 C1841 1.388 . S
C1843 C1844 1.366 . S
C1844 C1843 1.366 . S
C1844 C1845 1.414 . S
C1844 C1847 1.499 . S
C1845 H1819 0.950 . S
C1845 C1844 1.414 . S
C1845 C1846 1.374 . S
C1846 H1820 0.950 . S
C1846 C1842 1.385 . S
C1846 C1845 1.374 . S
C1847 C1844 1.499 . S
C1847 C1848 1.373 . S
C1847 C1849 1.389 . S
C1848 H1821 0.950 . S
C1848 C1834 1.377 . S
C1848 C1847 1.373 . S
C1849 C1833 1.377 . S
C1849 C1847 1.389 . S
C1849 C1850 1.524 . S
C1850 C1849 1.524 . S
C1850 C1851 1.397 . S
C1850 C1855 1.363 . S
C1851 H1822 0.950 . S
C1851 C1850 1.397 . S
C1851 C1852 1.334 . S
C1852 H1823 0.950 . S
C1852 C1851 1.334 . S
C1852 C1853 1.287 . S
C1853 C1852 1.287 . S
C1853 C1854 1.524 . S
C1853 H1856 0.999 . S
C1854 H1824 0.950 . S
C1854 C1853 1.524 . S
C1854 C1855 1.415 . S
C1855 H1825 0.950 . S
C1855 C1850 1.363 . S
C1855 C1854 1.415 . S
H1856 C1853 0.999 . S
H1857 C1838 0.913 . S
H1858 C1876 0.951 . S
H1859 C1878 0.951 . S
H1860 C1880 0.950 . S
H1861 C1881 0.950 . S
H1862 C1883 0.950 . S
H1863 C1886 0.950 . S
H1864 C1887 0.950 . S
H1865 C1889 0.950 1_545 S
H1866 C1890 0.950 . S
H1867 C1891 0.951 . S
H1868 C1893 0.951 . S
H1869 C1895 0.950 . S
H1870 C1896 0.950 . S
H1871 C1898 0.950 . S
H1872 C1901 0.950 . S
H1873 C1902 0.950 . S
H1874 C1904 0.950 . S
H1875 C1905 0.950 . S
C1876 H1858 0.951 . S
C1876 C1877 1.366 . S
C1876 C1878 1.388 . S
C1877 C1876 1.366 . S
C1877 C1881 1.385 . S
C1878 H1859 0.951 . S
C1878 C1876 1.388 . S
C1878 C1879 1.366 . S
C1879 C1878 1.366 . S
C1879 C1880 1.414 . S
C1879 C1882 1.499 . S
C1880 H1860 0.950 . S
C1880 C1879 1.414 . S
C1880 C1881 1.374 . S
C1881 H1861 0.950 . S
C1881 C1877 1.385 . S
C1881 C1880 1.374 . S
C1882 C1879 1.499 . S
C1882 C1883 1.373 . S
C1882 C1884 1.389 . S
C1883 H1862 0.950 . S
C1883 C1882 1.373 . S
C1883 C1899 1.377 . S
C1884 C1882 1.389 . S
C1884 C1885 1.524 . S
C1884 C1898 1.377 . S
C1885 C1884 1.524 . S
C1885 C1886 1.397 . S
C1885 C1890 1.363 . S
C1886 H1863 0.950 . S
C1886 C1885 1.397 . S
C1886 C1887 1.334 . S
C1887 H1864 0.950 . S
C1887 C1886 1.334 . S
C1887 C1888 1.287 . S
C1888 C1887 1.287 . S
C1888 C1889 1.524 . S
C1888 H1907 0.913 . S
C1889 H1865 0.950 1_565 S
C1889 C1888 1.524 . S
C1889 C1890 1.415 . S
C1890 H1866 0.950 . S
C1890 C1885 1.363 . S
C1890 C1889 1.415 . S
C1891 H1867 0.951 . S
C1891 C1892 1.366 . S
C1891 C1893 1.388 . S
C1892 C1891 1.366 . S
C1892 C1896 1.385 . S
C1893 H1868 0.951 . S
C1893 C1891 1.388 . S
C1893 C1894 1.366 . S
C1894 C1893 1.366 . S
C1894 C1895 1.414 . S
C1894 C1897 1.499 . S
C1895 H1869 0.950 . S
C1895 C1894 1.414 . S
C1895 C1896 1.374 . S
C1896 H1870 0.950 . S
C1896 C1892 1.385 . S
C1896 C1895 1.374 . S
C1897 C1894 1.499 . S
C1897 C1898 1.373 . S
C1897 C1899 1.389 . S
C1898 H1871 0.950 . S
C1898 C1884 1.377 . S
C1898 C1897 1.373 . S
C1899 C1883 1.377 . S
C1899 C1897 1.389 . S
C1899 C1900 1.524 . S
C1900 C1899 1.524 . S
C1900 C1901 1.397 . S
C1900 C1905 1.363 . S
C1901 H1872 0.950 . S
C1901 C1900 1.397 . S
C1901 C1902 1.334 . S
C1902 H1873 0.950 . S
C1902 C1901 1.334 . S
C1902 C1903 1.287 . S
C1903 C1902 1.287 . S
C1903 C1904 1.524 . S
C1903 H1906 0.999 . S
C1904 H1874 0.950 . S
C1904 C1903 1.524 . S
C1904 C1905 1.415 . S
C1905 H1875 0.950 . S
C1905 C1900 1.363 . S
C1905 C1904 1.415 . S
H1906 C1903 0.999 . S
H1907 C1888 0.913 . S
H1908 C1926 0.951 . S
H1909 C1928 0.951 . S
H1910 C1930 0.950 . S
H1911 C1931 0.950 . S
H1912 C1933 0.950 . S
H1913 C1936 0.950 . S
H1914 C1937 0.950 . S
H1915 C1939 0.950 . S
H1916 C1940 0.950 . S
H1917 C1941 0.951 . S
H1918 C1943 0.951 . S
H1919 C1945 0.950 . S
H1920 C1946 0.950 . S
H1921 C1948 0.950 . S
H1922 C1951 0.950 . S
H1923 C1952 0.950 . S
H1924 C1954 0.950 . S
H1925 C1955 0.950 . S
C1926 H1908 0.951 . S
C1926 C1927 1.366 . S
C1926 C1928 1.388 . S
C1927 C1926 1.366 . S
C1927 C1931 1.385 . S
C1928 H1909 0.951 . S
C1928 C1926 1.388 . S
C1928 C1929 1.366 . S
C1929 C1928 1.366 . S
C1929 C1930 1.414 . S
C1929 C1932 1.499 . S
C1930 H1910 0.950 . S
C1930 C1929 1.414 . S
C1930 C1931 1.374 . S
C1931 H1911 0.950 . S
C1931 C1927 1.385 . S
C1931 C1930 1.374 . S
C1932 C1929 1.499 . S
C1932 C1933 1.373 . S
C1932 C1934 1.389 . S
C1933 H1912 0.950 . S
C1933 C1932 1.373 . S
C1933 C1949 1.377 . S
C1934 C1932 1.389 . S
C1934 C1935 1.524 . S
C1934 C1948 1.377 . S
C1935 C1934 1.524 . S
C1935 C1936 1.397 . S
C1935 C1940 1.363 . S
C1936 H1913 0.950 . S
C1936 C1935 1.397 . S
C1936 C1937 1.334 . S
C1937 H1914 0.950 . S
C1937 C1936 1.334 . S
C1937 C1938 1.287 . S
C1938 C1937 1.287 . S
C1938 C1939 1.524 . S
C1938 H1957 0.913 . S
C1939 H1915 0.950 . S
C1939 C1938 1.524 . S
C1939 C1940 1.415 . S
C1940 H1916 0.950 . S
C1940 C1935 1.363 . S
C1940 C1939 1.415 . S
C1941 H1917 0.951 . S
C1941 C1942 1.366 . S
C1941 C1943 1.388 . S
C1942 C1941 1.366 . S
C1942 C1946 1.385 . S
C1943 H1918 0.951 . S
C1943 C1941 1.388 . S
C1943 C1944 1.366 . S
C1944 C1943 1.366 . S
C1944 C1945 1.414 . S
C1944 C1947 1.499 . S
C1945 H1919 0.950 . S
C1945 C1944 1.414 . S
C1945 C1946 1.374 . S
C1946 H1920 0.950 . S
C1946 C1942 1.385 . S
C1946 C1945 1.374 . S
C1947 C1944 1.499 . S
C1947 C1948 1.373 . S
C1947 C1949 1.389 . S
C1948 H1921 0.950 . S
C1948 C1934 1.377 . S
C1948 C1947 1.373 . S
C1949 C1933 1.377 . S
C1949 C1947 1.389 . S
C1949 C1950 1.524 . S
C1950 C1949 1.524 . S
C1950 C1951 1.397 . S
C1950 C1955 1.363 . S
C1951 H1922 0.950 . S
C1951 C1950 1.397 . S
C1951 C1952 1.334 . S
C1952 H1923 0.950 . S
C1952 C1951 1.334 . S
C1952 C1953 1.287 . S
C1953 C1952 1.287 . S
C1953 C1954 1.524 . S
C1953 H1956 0.999 1_554 S
C1954 H1924 0.950 . S
C1954 C1953 1.524 . S
C1954 C1955 1.415 . S
C1955 H1925 0.950 . S
C1955 C1950 1.363 . S
C1955 C1954 1.415 . S
H1956 C1953 0.999 1_556 S
H1957 C1938 0.913 . S
H1958 C1976 0.951 . S
H1959 C1978 0.951 . S
H1960 C1980 0.950 . S
H1961 C1981 0.950 . S
H1962 C1983 0.950 . S
H1963 C1986 0.950 . S
H1964 C1987 0.950 . S
H1965 C1989 0.950 . S
H1966 C1990 0.950 . S
H1967 C1991 0.951 . S
H1968 C1993 0.951 . S
H1969 C1995 0.950 . S
H1970 C1996 0.950 . S
H1971 C1998 0.950 . S
H1972 C2001 0.950 . S
H1973 C2002 0.950 . S
H1974 C2004 0.950 . S
H1975 C2005 0.950 . S
C1976 H1958 0.951 . S
C1976 C1977 1.366 . S
C1976 C1978 1.388 . S
C1977 C1976 1.366 . S
C1977 C1981 1.385 . S
C1978 H1959 0.951 . S
C1978 C1976 1.388 . S
C1978 C1979 1.366 . S
C1979 C1978 1.366 . S
C1979 C1980 1.414 . S
C1979 C1982 1.499 . S
C1980 H1960 0.950 . S
C1980 C1979 1.414 . S
C1980 C1981 1.374 . S
C1981 H1961 0.950 . S
C1981 C1977 1.385 . S
C1981 C1980 1.374 . S
C1982 C1979 1.499 . S
C1982 C1983 1.373 . S
C1982 C1984 1.389 . S
C1983 H1962 0.950 . S
C1983 C1982 1.373 . S
C1983 C1999 1.377 . S
C1984 C1982 1.389 . S
C1984 C1985 1.524 . S
C1984 C1998 1.377 . S
C1985 C1984 1.524 . S
C1985 C1986 1.397 . S
C1985 C1990 1.363 . S
C1986 H1963 0.950 . S
C1986 C1985 1.397 . S
C1986 C1987 1.334 . S
C1987 H1964 0.950 . S
C1987 C1986 1.334 . S
C1987 C1988 1.287 . S
C1988 C1987 1.287 . S
C1988 C1989 1.524 . S
C1988 H2007 0.913 . S
C1989 H1965 0.950 . S
C1989 C1988 1.524 . S
C1989 C1990 1.415 . S
C1990 H1966 0.950 . S
C1990 C1985 1.363 . S
C1990 C1989 1.415 . S
C1991 H1967 0.951 . S
C1991 C1992 1.366 . S
C1991 C1993 1.388 . S
C1992 C1991 1.366 . S
C1992 C1996 1.385 . S
C1993 H1968 0.951 . S
C1993 C1991 1.388 . S
C1993 C1994 1.366 . S
C1994 C1993 1.366 . S
C1994 C1995 1.414 . S
C1994 C1997 1.499 . S
C1995 H1969 0.950 . S
C1995 C1994 1.414 . S
C1995 C1996 1.374 . S
C1996 H1970 0.950 . S
C1996 C1992 1.385 . S
C1996 C1995 1.374 . S
C1997 C1994 1.499 . S
C1997 C1998 1.373 . S
C1997 C1999 1.389 . S
C1998 H1971 0.950 . S
C1998 C1984 1.377 . S
C1998 C1997 1.373 . S
C1999 C1983 1.377 . S
C1999 C1997 1.389 . S
C1999 C2000 1.524 . S
C2000 C1999 1.524 . S
C2000 C2001 1.397 . S
C2000 C2005 1.363 . S
C2001 H1972 0.950 . S
C2001 C2000 1.397 . S
C2001 C2002 1.334 . S
C2002 H1973 0.950 . S
C2002 C2001 1.334 . S
C2002 C2003 1.287 . S
C2003 C2002 1.287 . S
C2003 C2004 1.524 . S
C2003 H2006 0.999 . S
C2004 H1974 0.950 . S
C2004 C2003 1.524 . S
C2004 C2005 1.415 . S
C2005 H1975 0.950 . S
C2005 C2000 1.363 . S
C2005 C2004 1.415 . S
H2006 C2003 0.999 . S
H2007 C1988 0.913 . S
H2008 C2026 0.951 . S
H2009 C2028 0.951 . S
H2010 C2030 0.950 . S
H2011 C2031 0.950 . S
H2012 C2033 0.950 . S
H2013 C2036 0.950 . S
H2014 C2037 0.950 . S
H2015 C2039 0.950 . S
H2016 C2040 0.950 . S
H2017 C2041 0.951 . S
H2018 C2043 0.951 . S
H2019 C2045 0.950 . S
H2020 C2046 0.950 . S
H2021 C2048 0.950 . S
H2022 C2051 0.950 . S
H2023 C2052 0.950 . S
H2024 C2054 0.950 . S
H2025 C2055 0.950 . S
C2026 H2008 0.951 . S
C2026 C2027 1.366 . S
C2026 C2028 1.388 . S
C2027 C2026 1.366 . S
C2027 C2031 1.385 . S
C2028 H2009 0.951 . S
C2028 C2026 1.388 . S
C2028 C2029 1.366 . S
C2029 C2028 1.366 . S
C2029 C2030 1.414 . S
C2029 C2032 1.499 . S
C2030 H2010 0.950 . S
C2030 C2029 1.414 . S
C2030 C2031 1.374 . S
C2031 H2011 0.950 . S
C2031 C2027 1.385 . S
C2031 C2030 1.374 . S
C2032 C2029 1.499 . S
C2032 C2033 1.373 . S
C2032 C2034 1.389 . S
C2033 H2012 0.950 . S
C2033 C2032 1.373 . S
C2033 C2049 1.377 . S
C2034 C2032 1.389 . S
C2034 C2035 1.524 . S
C2034 C2048 1.377 . S
C2035 C2034 1.524 . S
C2035 C2036 1.397 . S
C2035 C2040 1.363 . S
C2036 H2013 0.950 . S
C2036 C2035 1.397 . S
C2036 C2037 1.334 . S
C2037 H2014 0.950 . S
C2037 C2036 1.334 . S
C2037 C2038 1.287 . S
C2038 C2037 1.287 . S
C2038 C2039 1.524 . S
C2038 H2057 0.913 . S
C2039 H2015 0.950 . S
C2039 C2038 1.524 . S
C2039 C2040 1.415 . S
C2040 H2016 0.950 . S
C2040 C2035 1.363 . S
C2040 C2039 1.415 . S
C2041 H2017 0.951 . S
C2041 C2042 1.366 . S
C2041 C2043 1.388 . S
C2042 C2041 1.366 . S
C2042 C2046 1.385 . S
C2043 H2018 0.951 . S
C2043 C2041 1.388 . S
C2043 C2044 1.366 . S
C2044 C2043 1.366 . S
C2044 C2045 1.414 . S
C2044 C2047 1.499 . S
C2045 H2019 0.950 . S
C2045 C2044 1.414 . S
C2045 C2046 1.374 . S
C2046 H2020 0.950 . S
C2046 C2042 1.385 . S
C2046 C2045 1.374 . S
C2047 C2044 1.499 . S
C2047 C2048 1.373 . S
C2047 C2049 1.389 . S
C2048 H2021 0.950 . S
C2048 C2034 1.377 . S
C2048 C2047 1.373 . S
C2049 C2033 1.377 . S
C2049 C2047 1.389 . S
C2049 C2050 1.524 . S
C2050 C2049 1.524 . S
C2050 C2051 1.397 . S
C2050 C2055 1.363 . S
C2051 H2022 0.950 . S
C2051 C2050 1.397 . S
C2051 C2052 1.334 . S
C2052 H2023 0.950 . S
C2052 C2051 1.334 . S
C2052 C2053 1.287 . S
C2053 C2052 1.287 . S
C2053 C2054 1.524 . S
C2053 H2056 0.999 . S
C2054 H2024 0.950 . S
C2054 C2053 1.524 . S
C2054 C2055 1.415 . S
C2055 H2025 0.950 . S
C2055 C2050 1.363 . S
C2055 C2054 1.415 . S
H2056 C2053 0.999 . S
H2057 C2038 0.913 . S
H2058 C2076 0.951 . S
H2059 C2078 0.951 . S
H2060 C2080 0.950 . S
H2061 C2081 0.950 . S
H2062 C2083 0.950 . S
H2063 C2086 0.950 . S
H2064 C2087 0.950 . S
H2065 C2089 0.950 . S
H2066 C2090 0.950 . S
H2067 C2091 0.951 . S
H2068 C2093 0.951 . S
H2069 C2095 0.950 . S
H2070 C2096 0.950 . S
H2071 C2098 0.950 . S
H2072 C2101 0.950 . S
H2073 C2102 0.950 . S
H2074 C2104 0.950 . S
H2075 C2105 0.950 . S
C2076 H2058 0.951 . S
C2076 C2077 1.366 . S
C2076 C2078 1.388 . S
C2077 C2076 1.366 . S
C2077 C2081 1.385 . S
C2078 H2059 0.951 . S
C2078 C2076 1.388 . S
C2078 C2079 1.366 . S
C2079 C2078 1.366 . S
C2079 C2080 1.414 . S
C2079 C2082 1.499 . S
C2080 H2060 0.950 . S
C2080 C2079 1.414 . S
C2080 C2081 1.374 . S
C2081 H2061 0.950 . S
C2081 C2077 1.385 . S
C2081 C2080 1.374 . S
C2082 C2079 1.499 . S
C2082 C2083 1.373 . S
C2082 C2084 1.389 . S
C2083 H2062 0.950 . S
C2083 C2082 1.373 . S
C2083 C2099 1.377 . S
C2084 C2082 1.389 . S
C2084 C2085 1.524 . S
C2084 C2098 1.377 . S
C2085 C2084 1.524 . S
C2085 C2086 1.397 . S
C2085 C2090 1.363 . S
C2086 H2063 0.950 . S
C2086 C2085 1.397 . S
C2086 C2087 1.334 . S
C2087 H2064 0.950 . S
C2087 C2086 1.334 . S
C2087 C2088 1.287 . S
C2088 C2087 1.287 . S
C2088 C2089 1.524 . S
C2088 H2107 0.913 . S
C2089 H2065 0.950 . S
C2089 C2088 1.524 . S
C2089 C2090 1.415 . S
C2090 H2066 0.950 . S
C2090 C2085 1.363 . S
C2090 C2089 1.415 . S
C2091 H2067 0.951 . S
C2091 C2092 1.366 . S
C2091 C2093 1.388 . S
C2092 C2091 1.366 . S
C2092 C2096 1.385 . S
C2093 H2068 0.951 . S
C2093 C2091 1.388 . S
C2093 C2094 1.366 . S
C2094 C2093 1.366 . S
C2094 C2095 1.414 . S
C2094 C2097 1.499 . S
C2095 H2069 0.950 . S
C2095 C2094 1.414 . S
C2095 C2096 1.374 . S
C2096 H2070 0.950 . S
C2096 C2092 1.385 . S
C2096 C2095 1.374 . S
C2097 C2094 1.499 . S
C2097 C2098 1.373 . S
C2097 C2099 1.389 . S
C2098 H2071 0.950 . S
C2098 C2084 1.377 . S
C2098 C2097 1.373 . S
C2099 C2083 1.377 . S
C2099 C2097 1.389 . S
C2099 C2100 1.524 . S
C2100 C2099 1.524 . S
C2100 C2101 1.397 . S
C2100 C2105 1.363 . S
C2101 H2072 0.950 . S
C2101 C2100 1.397 . S
C2101 C2102 1.334 . S
C2102 H2073 0.950 . S
C2102 C2101 1.334 . S
C2102 C2103 1.287 . S
C2103 C2102 1.287 . S
C2103 C2104 1.524 . S
C2103 H2106 0.999 . S
C2104 H2074 0.950 . S
C2104 C2103 1.524 . S
C2104 C2105 1.415 . S
C2105 H2075 0.950 . S
C2105 C2100 1.363 . S
C2105 C2104 1.415 . S
H2106 C2103 0.999 . S
H2107 C2088 0.913 . S
H2108 C2126 0.951 . S
H2109 C2128 0.951 . S
H2110 C2130 0.950 . S
H2111 C2131 0.950 . S
H2112 C2133 0.950 . S
H2113 C2136 0.950 . S
H2114 C2137 0.950 . S
H2115 C2139 0.950 . S
H2116 C2140 0.950 . S
H2117 C2141 0.951 . S
H2118 C2143 0.951 . S
H2119 C2145 0.950 . S
H2120 C2146 0.950 . S
H2121 C2148 0.950 . S
H2122 C2151 0.950 . S
H2123 C2152 0.950 . S
H2124 C2154 0.950 . S
H2125 C2155 0.950 . S
C2126 H2108 0.951 . S
C2126 C2127 1.366 . S
C2126 C2128 1.388 . S
C2127 C2126 1.366 . S
C2127 C2131 1.385 . S
C2128 H2109 0.951 . S
C2128 C2126 1.388 . S
C2128 C2129 1.366 . S
C2129 C2128 1.366 . S
C2129 C2130 1.414 . S
C2129 C2132 1.499 . S
C2130 H2110 0.950 . S
C2130 C2129 1.414 . S
C2130 C2131 1.374 . S
C2131 H2111 0.950 . S
C2131 C2127 1.385 . S
C2131 C2130 1.374 . S
C2132 C2129 1.499 . S
C2132 C2133 1.373 . S
C2132 C2134 1.389 . S
C2133 H2112 0.950 . S
C2133 C2132 1.373 . S
C2133 C2149 1.377 . S
C2134 C2132 1.389 . S
C2134 C2135 1.524 . S
C2134 C2148 1.377 . S
C2135 C2134 1.524 . S
C2135 C2136 1.397 . S
C2135 C2140 1.363 . S
C2136 H2113 0.950 . S
C2136 C2135 1.397 . S
C2136 C2137 1.334 . S
C2137 H2114 0.950 . S
C2137 C2136 1.334 . S
C2137 C2138 1.287 . S
C2138 C2137 1.287 . S
C2138 C2139 1.524 . S
C2138 H2157 0.913 . S
C2139 H2115 0.950 . S
C2139 C2138 1.524 . S
C2139 C2140 1.415 . S
C2140 H2116 0.950 . S
C2140 C2135 1.363 . S
C2140 C2139 1.415 . S
C2141 H2117 0.951 . S
C2141 C2142 1.366 . S
C2141 C2143 1.388 . S
C2142 C2141 1.366 . S
C2142 C2146 1.385 . S
C2143 H2118 0.951 . S
C2143 C2141 1.388 . S
C2143 C2144 1.366 . S
C2144 C2143 1.366 . S
C2144 C2145 1.414 . S
C2144 C2147 1.499 . S
C2145 H2119 0.950 . S
C2145 C2144 1.414 . S
C2145 C2146 1.374 . S
C2146 H2120 0.950 . S
C2146 C2142 1.385 . S
C2146 C2145 1.374 . S
C2147 C2144 1.499 . S
C2147 C2148 1.373 . S
C2147 C2149 1.389 . S
C2148 H2121 0.950 . S
C2148 C2134 1.377 . S
C2148 C2147 1.373 . S
C2149 C2133 1.377 . S
C2149 C2147 1.389 . S
C2149 C2150 1.524 . S
C2150 C2149 1.524 . S
C2150 C2151 1.397 . S
C2150 C2155 1.363 . S
C2151 H2122 0.950 . S
C2151 C2150 1.397 . S
C2151 C2152 1.334 . S
C2152 H2123 0.950 . S
C2152 C2151 1.334 . S
C2152 C2153 1.287 . S
C2153 C2152 1.287 . S
C2153 C2154 1.524 . S
C2153 H2156 0.999 . S
C2154 H2124 0.950 . S
C2154 C2153 1.524 . S
C2154 C2155 1.415 . S
C2155 H2125 0.950 . S
C2155 C2150 1.363 . S
C2155 C2154 1.415 . S
H2156 C2153 0.999 . S
H2157 C2138 0.913 . S
H2158 C2176 0.951 . S
H2159 C2178 0.951 . S
H2160 C2180 0.950 . S
H2161 C2181 0.950 . S
H2162 C2183 0.950 . S
H2163 C2186 0.950 . S
H2164 C2187 0.950 . S
H2165 C2189 0.950 . S
H2166 C2190 0.950 . S
H2167 C2191 0.951 . S
H2168 C2193 0.951 . S
H2169 C2195 0.950 . S
H2170 C2196 0.950 . S
H2171 C2198 0.950 . S
H2172 C2201 0.950 . S
H2173 C2202 0.950 . S
H2174 C2204 0.950 . S
H2175 C2205 0.950 . S
C2176 H2158 0.951 . S
C2176 C2177 1.366 . S
C2176 C2178 1.388 . S
C2177 C2176 1.366 . S
C2177 C2181 1.385 . S
C2178 H2159 0.951 . S
C2178 C2176 1.388 . S
C2178 C2179 1.366 . S
C2179 C2178 1.366 . S
C2179 C2180 1.414 . S
C2179 C2182 1.499 . S
C2180 H2160 0.950 . S
C2180 C2179 1.414 . S
C2180 C2181 1.374 . S
C2181 H2161 0.950 . S
C2181 C2177 1.385 . S
C2181 C2180 1.374 . S
C2182 C2179 1.499 . S
C2182 C2183 1.373 . S
C2182 C2184 1.389 . S
C2183 H2162 0.950 . S
C2183 C2182 1.373 . S
C2183 C2199 1.377 . S
C2184 C2182 1.389 . S
C2184 C2185 1.524 . S
C2184 C2198 1.377 . S
C2185 C2184 1.524 . S
C2185 C2186 1.397 . S
C2185 C2190 1.363 . S
C2186 H2163 0.950 . S
C2186 C2185 1.397 . S
C2186 C2187 1.334 . S
C2187 H2164 0.950 . S
C2187 C2186 1.334 . S
C2187 C2188 1.287 . S
C2188 C2187 1.287 . S
C2188 C2189 1.524 . S
C2188 H2207 0.913 . S
C2189 H2165 0.950 . S
C2189 C2188 1.524 . S
C2189 C2190 1.415 . S
C2190 H2166 0.950 . S
C2190 C2185 1.363 . S
C2190 C2189 1.415 . S
C2191 H2167 0.951 . S
C2191 C2192 1.366 . S
C2191 C2193 1.388 . S
C2192 C2191 1.366 . S
C2192 C2196 1.385 . S
C2193 H2168 0.951 . S
C2193 C2191 1.388 . S
C2193 C2194 1.366 . S
C2194 C2193 1.366 . S
C2194 C2195 1.414 . S
C2194 C2197 1.499 . S
C2195 H2169 0.950 . S
C2195 C2194 1.414 . S
C2195 C2196 1.374 . S
C2196 H2170 0.950 . S
C2196 C2192 1.385 . S
C2196 C2195 1.374 . S
C2197 C2194 1.499 . S
C2197 C2198 1.373 . S
C2197 C2199 1.389 . S
C2198 H2171 0.950 . S
C2198 C2184 1.377 . S
C2198 C2197 1.373 . S
C2199 C2183 1.377 . S
C2199 C2197 1.389 . S
C2199 C2200 1.524 . S
C2200 C2199 1.524 . S
C2200 C2201 1.397 . S
C2200 C2205 1.363 . S
C2201 H2172 0.950 . S
C2201 C2200 1.397 . S
C2201 C2202 1.334 . S
C2202 H2173 0.950 . S
C2202 C2201 1.334 . S
C2202 C2203 1.287 . S
C2203 C2202 1.287 . S
C2203 C2204 1.524 . S
C2203 H2206 0.999 . S
C2204 H2174 0.950 . S
C2204 C2203 1.524 . S
C2204 C2205 1.415 . S
C2205 H2175 0.950 . S
C2205 C2200 1.363 . S
C2205 C2204 1.415 . S
H2206 C2203 0.999 . S
H2207 C2188 0.913 . S
H2208 C2226 0.951 . S
H2209 C2228 0.951 . S
H2210 C2230 0.950 . S
H2211 C2231 0.950 . S
H2212 C2233 0.950 . S
H2213 C2236 0.950 . S
H2214 C2237 0.950 . S
H2215 C2239 0.950 . S
H2216 C2240 0.950 . S
H2217 C2241 0.951 . S
H2218 C2243 0.951 . S
H2219 C2245 0.950 . S
H2220 C2246 0.950 . S
H2221 C2248 0.950 . S
H2222 C2251 0.950 . S
H2223 C2252 0.950 . S
H2224 C2254 0.950 . S
H2225 C2255 0.950 . S
C2226 H2208 0.951 . S
C2226 C2227 1.366 . S
C2226 C2228 1.388 . S
C2227 C2226 1.366 . S
C2227 C2231 1.385 . S
C2228 H2209 0.951 . S
C2228 C2226 1.388 . S
C2228 C2229 1.366 . S
C2229 C2228 1.366 . S
C2229 C2230 1.414 . S
C2229 C2232 1.499 . S
C2230 H2210 0.950 . S
C2230 C2229 1.414 . S
C2230 C2231 1.374 . S
C2231 H2211 0.950 . S
C2231 C2227 1.385 . S
C2231 C2230 1.374 . S
C2232 C2229 1.499 . S
C2232 C2233 1.373 . S
C2232 C2234 1.389 . S
C2233 H2212 0.950 . S
C2233 C2232 1.373 . S
C2233 C2249 1.377 . S
C2234 C2232 1.389 . S
C2234 C2235 1.524 . S
C2234 C2248 1.377 . S
C2235 C2234 1.524 . S
C2235 C2236 1.397 . S
C2235 C2240 1.363 . S
C2236 H2213 0.950 . S
C2236 C2235 1.397 . S
C2236 C2237 1.334 . S
C2237 H2214 0.950 . S
C2237 C2236 1.334 . S
C2237 C2238 1.287 . S
C2238 C2237 1.287 . S
C2238 C2239 1.524 . S
C2238 H2257 0.913 . S
C2239 H2215 0.950 . S
C2239 C2238 1.524 . S
C2239 C2240 1.415 . S
C2240 H2216 0.950 . S
C2240 C2235 1.363 . S
C2240 C2239 1.415 . S
C2241 H2217 0.951 . S
C2241 C2242 1.366 . S
C2241 C2243 1.388 . S
C2242 C2241 1.366 . S
C2242 C2246 1.385 . S
C2243 H2218 0.951 . S
C2243 C2241 1.388 . S
C2243 C2244 1.366 . S
C2244 C2243 1.366 . S
C2244 C2245 1.414 . S
C2244 C2247 1.499 . S
C2245 H2219 0.950 . S
C2245 C2244 1.414 . S
C2245 C2246 1.374 . S
C2246 H2220 0.950 . S
C2246 C2242 1.385 . S
C2246 C2245 1.374 . S
C2247 C2244 1.499 . S
C2247 C2248 1.373 . S
C2247 C2249 1.389 . S
C2248 H2221 0.950 . S
C2248 C2234 1.377 . S
C2248 C2247 1.373 . S
C2249 C2233 1.377 . S
C2249 C2247 1.389 . S
C2249 C2250 1.524 . S
C2250 C2249 1.524 . S
C2250 C2251 1.397 . S
C2250 C2255 1.363 . S
C2251 H2222 0.950 . S
C2251 C2250 1.397 . S
C2251 C2252 1.334 . S
C2252 H2223 0.950 . S
C2252 C2251 1.334 . S
C2252 C2253 1.287 . S
C2253 C2252 1.287 . S
C2253 C2254 1.524 . S
C2253 H2256 0.999 . S
C2254 H2224 0.950 . S
C2254 C2253 1.524 . S
C2254 C2255 1.415 . S
C2255 H2225 0.950 . S
C2255 C2250 1.363 . S
C2255 C2254 1.415 . S
H2256 C2253 0.999 . S
H2257 C2238 0.913 . S
H2258 C2276 0.951 . S
H2259 C2278 0.951 . S
H2260 C2280 0.950 . S
H2261 C2281 0.950 . S
H2262 C2283 0.950 . S
H2263 C2286 0.950 . S
H2264 C2287 0.950 . S
H2265 C2289 0.950 . S
H2266 C2290 0.950 . S
H2267 C2291 0.951 . S
H2268 C2293 0.951 . S
H2269 C2295 0.950 . S
H2270 C2296 0.950 . S
H2271 C2298 0.950 . S
H2272 C2301 0.950 . S
H2273 C2302 0.950 . S
H2274 C2304 0.950 . S
H2275 C2305 0.950 . S
C2276 H2258 0.951 . S
C2276 C2277 1.366 . S
C2276 C2278 1.388 . S
C2277 C2276 1.366 . S
C2277 C2281 1.385 . S
C2278 H2259 0.951 . S
C2278 C2276 1.388 . S
C2278 C2279 1.366 . S
C2279 C2278 1.366 . S
C2279 C2280 1.414 . S
C2279 C2282 1.499 . S
C2280 H2260 0.950 . S
C2280 C2279 1.414 . S
C2280 C2281 1.374 . S
C2281 H2261 0.950 . S
C2281 C2277 1.385 . S
C2281 C2280 1.374 . S
C2282 C2279 1.499 . S
C2282 C2283 1.373 . S
C2282 C2284 1.389 . S
C2283 H2262 0.950 . S
C2283 C2282 1.373 . S
C2283 C2299 1.377 . S
C2284 C2282 1.389 . S
C2284 C2285 1.524 . S
C2284 C2298 1.377 . S
C2285 C2284 1.524 . S
C2285 C2286 1.397 . S
C2285 C2290 1.363 . S
C2286 H2263 0.950 . S
C2286 C2285 1.397 . S
C2286 C2287 1.334 . S
C2287 H2264 0.950 . S
C2287 C2286 1.334 . S
C2287 C2288 1.287 . S
C2288 C2287 1.287 . S
C2288 C2289 1.524 . S
C2288 H2307 0.913 . S
C2289 H2265 0.950 . S
C2289 C2288 1.524 . S
C2289 C2290 1.415 . S
C2290 H2266 0.950 . S
C2290 C2285 1.363 . S
C2290 C2289 1.415 . S
C2291 H2267 0.951 . S
C2291 C2292 1.366 . S
C2291 C2293 1.388 . S
C2292 C2291 1.366 . S
C2292 C2296 1.385 . S
C2293 H2268 0.951 . S
C2293 C2291 1.388 . S
C2293 C2294 1.366 . S
C2294 C2293 1.366 . S
C2294 C2295 1.414 . S
C2294 C2297 1.499 . S
C2295 H2269 0.950 . S
C2295 C2294 1.414 . S
C2295 C2296 1.374 . S
C2296 H2270 0.950 . S
C2296 C2292 1.385 . S
C2296 C2295 1.374 . S
C2297 C2294 1.499 . S
C2297 C2298 1.373 . S
C2297 C2299 1.389 . S
C2298 H2271 0.950 . S
C2298 C2284 1.377 . S
C2298 C2297 1.373 . S
C2299 C2283 1.377 . S
C2299 C2297 1.389 . S
C2299 C2300 1.524 . S
C2300 C2299 1.524 . S
C2300 C2301 1.397 . S
C2300 C2305 1.363 . S
C2301 H2272 0.950 . S
C2301 C2300 1.397 . S
C2301 C2302 1.334 . S
C2302 H2273 0.950 . S
C2302 C2301 1.334 . S
C2302 C2303 1.287 . S
C2303 C2302 1.287 . S
C2303 C2304 1.524 . S
C2303 H2306 0.999 . S
C2304 H2274 0.950 . S
C2304 C2303 1.524 . S
C2304 C2305 1.415 . S
C2305 H2275 0.950 . S
C2305 C2300 1.363 . S
C2305 C2304 1.415 . S
H2306 C2303 0.999 . S
H2307 C2288 0.913 . S
H2308 C2326 0.951 . S
H2309 C2328 0.951 . S
H2310 C2330 0.950 . S
H2311 C2331 0.950 . S
H2312 C2333 0.950 . S
H2313 C2336 0.950 . S
H2314 C2337 0.950 . S
H2315 C2339 0.950 . S
H2316 C2340 0.950 . S
H2317 C2341 0.951 . S
H2318 C2343 0.951 . S
H2319 C2345 0.950 . S
H2320 C2346 0.950 . S
H2321 C2348 0.950 . S
H2322 C2351 0.950 . S
H2323 C2352 0.950 . S
H2324 C2354 0.950 . S
H2325 C2355 0.950 . S
C2326 H2308 0.951 . S
C2326 C2327 1.366 . S
C2326 C2328 1.388 . S
C2327 C2326 1.366 . S
C2327 C2331 1.385 . S
C2328 H2309 0.951 . S
C2328 C2326 1.388 . S
C2328 C2329 1.366 . S
C2329 C2328 1.366 . S
C2329 C2330 1.414 . S
C2329 C2332 1.499 . S
C2330 H2310 0.950 . S
C2330 C2329 1.414 . S
C2330 C2331 1.374 . S
C2331 H2311 0.950 . S
C2331 C2327 1.385 . S
C2331 C2330 1.374 . S
C2332 C2329 1.499 . S
C2332 C2333 1.373 . S
C2332 C2334 1.389 . S
C2333 H2312 0.950 . S
C2333 C2332 1.373 . S
C2333 C2349 1.377 . S
C2334 C2332 1.389 . S
C2334 C2335 1.524 . S
C2334 C2348 1.377 . S
C2335 C2334 1.524 . S
C2335 C2336 1.397 . S
C2335 C2340 1.363 . S
C2336 H2313 0.950 . S
C2336 C2335 1.397 . S
C2336 C2337 1.334 . S
C2337 H2314 0.950 . S
C2337 C2336 1.334 . S
C2337 C2338 1.287 . S
C2338 C2337 1.287 . S
C2338 C2339 1.524 . S
C2338 H2357 0.913 . S
C2339 H2315 0.950 . S
C2339 C2338 1.524 . S
C2339 C2340 1.415 . S
C2340 H2316 0.950 . S
C2340 C2335 1.363 . S
C2340 C2339 1.415 . S
C2341 H2317 0.951 . S
C2341 C2342 1.366 . S
C2341 C2343 1.388 . S
C2342 C2341 1.366 . S
C2342 C2346 1.385 . S
C2343 H2318 0.951 . S
C2343 C2341 1.388 . S
C2343 C2344 1.366 . S
C2344 C2343 1.366 . S
C2344 C2345 1.414 . S
C2344 C2347 1.499 . S
C2345 H2319 0.950 . S
C2345 C2344 1.414 . S
C2345 C2346 1.374 . S
C2346 H2320 0.950 . S
C2346 C2342 1.385 . S
C2346 C2345 1.374 . S
C2347 C2344 1.499 . S
C2347 C2348 1.373 . S
C2347 C2349 1.389 . S
C2348 H2321 0.950 . S
C2348 C2334 1.377 . S
C2348 C2347 1.373 . S
C2349 C2333 1.377 . S
C2349 C2347 1.389 . S
C2349 C2350 1.524 . S
C2350 C2349 1.524 . S
C2350 C2351 1.397 . S
C2350 C2355 1.363 . S
C2351 H2322 0.950 . S
C2351 C2350 1.397 . S
C2351 C2352 1.334 . S
C2352 H2323 0.950 . S
C2352 C2351 1.334 . S
C2352 C2353 1.287 . S
C2353 C2352 1.287 . S
C2353 C2354 1.524 . S
C2353 H2356 0.999 . S
C2354 H2324 0.950 . S
C2354 C2353 1.524 . S
C2354 C2355 1.415 . S
C2355 H2325 0.950 . S
C2355 C2350 1.363 . S
C2355 C2354 1.415 . S
H2356 C2353 0.999 . S
H2357 C2338 0.913 . S
H2358 C2376 0.951 . S
H2359 C2378 0.951 . S
H2360 C2380 0.950 . S
H2361 C2381 0.950 . S
H2362 C2383 0.950 . S
H2363 C2386 0.950 . S
H2364 C2387 0.950 . S
H2365 C2389 0.950 . S
H2366 C2390 0.950 . S
H2367 C2391 0.951 . S
H2368 C2393 0.951 . S
H2369 C2395 0.950 . S
H2370 C2396 0.950 . S
H2371 C2398 0.950 . S
H2372 C2401 0.950 . S
H2373 C2402 0.950 . S
H2374 C2404 0.950 . S
H2375 C2405 0.950 . S
C2376 H2358 0.951 . S
C2376 C2377 1.366 . S
C2376 C2378 1.388 . S
C2377 C2376 1.366 . S
C2377 C2381 1.385 . S
C2378 H2359 0.951 . S
C2378 C2376 1.388 . S
C2378 C2379 1.366 . S
C2379 C2378 1.366 . S
C2379 C2380 1.414 . S
C2379 C2382 1.499 . S
C2380 H2360 0.950 . S
C2380 C2379 1.414 . S
C2380 C2381 1.374 . S
C2381 H2361 0.950 . S
C2381 C2377 1.385 . S
C2381 C2380 1.374 . S
C2382 C2379 1.499 . S
C2382 C2383 1.373 . S
C2382 C2384 1.389 . S
C2383 H2362 0.950 . S
C2383 C2382 1.373 . S
C2383 C2399 1.377 . S
C2384 C2382 1.389 . S
C2384 C2385 1.524 . S
C2384 C2398 1.377 . S
C2385 C2384 1.524 . S
C2385 C2386 1.397 . S
C2385 C2390 1.363 . S
C2386 H2363 0.950 . S
C2386 C2385 1.397 . S
C2386 C2387 1.334 . S
C2387 H2364 0.950 . S
C2387 C2386 1.334 . S
C2387 C2388 1.287 . S
C2388 C2387 1.287 . S
C2388 C2389 1.524 . S
C2388 H2407 0.913 . S
C2389 H2365 0.950 . S
C2389 C2388 1.524 . S
C2389 C2390 1.415 . S
C2390 H2366 0.950 . S
C2390 C2385 1.363 . S
C2390 C2389 1.415 . S
C2391 H2367 0.951 . S
C2391 C2392 1.366 . S
C2391 C2393 1.388 . S
C2392 C2391 1.366 . S
C2392 C2396 1.385 . S
C2393 H2368 0.951 . S
C2393 C2391 1.388 . S
C2393 C2394 1.366 . S
C2394 C2393 1.366 . S
C2394 C2395 1.414 . S
C2394 C2397 1.499 . S
C2395 H2369 0.950 . S
C2395 C2394 1.414 . S
C2395 C2396 1.374 . S
C2396 H2370 0.950 . S
C2396 C2392 1.385 . S
C2396 C2395 1.374 . S
C2397 C2394 1.499 . S
C2397 C2398 1.373 . S
C2397 C2399 1.389 . S
C2398 H2371 0.950 . S
C2398 C2384 1.377 . S
C2398 C2397 1.373 . S
C2399 C2383 1.377 . S
C2399 C2397 1.389 . S
C2399 C2400 1.524 . S
C2400 C2399 1.524 . S
C2400 C2401 1.397 . S
C2400 C2405 1.363 . S
C2401 H2372 0.950 . S
C2401 C2400 1.397 . S
C2401 C2402 1.334 . S
C2402 H2373 0.950 . S
C2402 C2401 1.334 . S
C2402 C2403 1.287 . S
C2403 C2402 1.287 . S
C2403 C2404 1.524 . S
C2403 H2406 0.999 . S
C2404 H2374 0.950 . S
C2404 C2403 1.524 . S
C2404 C2405 1.415 . S
C2405 H2375 0.950 . S
C2405 C2400 1.363 . S
C2405 C2404 1.415 . S
H2406 C2403 0.999 . S
H2407 C2388 0.913 . S
H2408 C2426 0.951 . S
H2409 C2428 0.951 . S
H2410 C2430 0.950 . S
H2411 C2431 0.950 . S
H2412 C2433 0.950 . S
H2413 C2436 0.950 . S
H2414 C2437 0.950 . S
H2415 C2439 0.950 . S
H2416 C2440 0.950 . S
H2417 C2441 0.951 . S
H2418 C2443 0.951 . S
H2419 C2445 0.950 . S
H2420 C2446 0.950 . S
H2421 C2448 0.950 . S
H2422 C2451 0.950 . S
H2423 C2452 0.950 . S
H2424 C2454 0.950 . S
H2425 C2455 0.950 . S
C2426 H2408 0.951 . S
C2426 C2427 1.366 . S
C2426 C2428 1.388 . S
C2427 C2426 1.366 . S
C2427 C2431 1.385 . S
C2428 H2409 0.951 . S
C2428 C2426 1.388 . S
C2428 C2429 1.366 . S
C2429 C2428 1.366 . S
C2429 C2430 1.414 . S
C2429 C2432 1.499 . S
C2430 H2410 0.950 . S
C2430 C2429 1.414 . S
C2430 C2431 1.374 . S
C2431 H2411 0.950 . S
C2431 C2427 1.385 . S
C2431 C2430 1.374 . S
C2432 C2429 1.499 . S
C2432 C2433 1.373 . S
C2432 C2434 1.389 . S
C2433 H2412 0.950 . S
C2433 C2432 1.373 . S
C2433 C2449 1.377 . S
C2434 C2432 1.389 . S
C2434 C2435 1.524 . S
C2434 C2448 1.377 . S
C2435 C2434 1.524 . S
C2435 C2436 1.397 . S
C2435 C2440 1.363 . S
C2436 H2413 0.950 . S
C2436 C2435 1.397 . S
C2436 C2437 1.334 . S
C2437 H2414 0.950 . S
C2437 C2436 1.334 . S
C2437 C2438 1.287 . S
C2438 C2437 1.287 . S
C2438 C2439 1.524 . S
C2438 H2457 0.913 . S
C2439 H2415 0.950 . S
C2439 C2438 1.524 . S
C2439 C2440 1.415 . S
C2440 H2416 0.950 . S
C2440 C2435 1.363 . S
C2440 C2439 1.415 . S
C2441 H2417 0.951 . S
C2441 C2442 1.366 . S
C2441 C2443 1.388 . S
C2442 C2441 1.366 . S
C2442 C2446 1.385 . S
C2443 H2418 0.951 . S
C2443 C2441 1.388 . S
C2443 C2444 1.366 . S
C2444 C2443 1.366 . S
C2444 C2445 1.414 . S
C2444 C2447 1.499 . S
C2445 H2419 0.950 . S
C2445 C2444 1.414 . S
C2445 C2446 1.374 . S
C2446 H2420 0.950 . S
C2446 C2442 1.385 . S
C2446 C2445 1.374 . S
C2447 C2444 1.499 . S
C2447 C2448 1.373 . S
C2447 C2449 1.389 . S
C2448 H2421 0.950 . S
C2448 C2434 1.377 . S
C2448 C2447 1.373 . S
C2449 C2433 1.377 . S
C2449 C2447 1.389 . S
C2449 C2450 1.524 . S
C2450 C2449 1.524 . S
C2450 C2451 1.397 . S
C2450 C2455 1.363 . S
C2451 H2422 0.950 . S
C2451 C2450 1.397 . S
C2451 C2452 1.334 . S
C2452 H2423 0.950 . S
C2452 C2451 1.334 . S
C2452 C2453 1.287 . S
C2453 C2452 1.287 . S
C2453 C2454 1.524 . S
C2453 H2456 0.999 . S
C2454 H2424 0.950 . S
C2454 C2453 1.524 . S
C2454 C2455 1.415 . S
C2455 H2425 0.950 . S
C2455 C2450 1.363 . S
C2455 C2454 1.415 . S
H2456 C2453 0.999 . S
H2457 C2438 0.913 . S
H2458 C2476 0.951 . S
H2459 C2478 0.951 . S
H2460 C2480 0.950 . S
H2461 C2481 0.950 . S
H2462 C2483 0.950 . S
H2463 C2486 0.950 . S
H2464 C2487 0.950 . S
H2465 C2489 0.950 . S
H2466 C2490 0.950 . S
H2467 C2491 0.951 . S
H2468 C2493 0.951 . S
H2469 C2495 0.950 . S
H2470 C2496 0.950 . S
H2471 C2498 0.950 . S
H2472 C2501 0.950 . S
H2473 C2502 0.950 . S
H2474 C2504 0.950 . S
H2475 C2505 0.950 . S
C2476 H2458 0.951 . S
C2476 C2477 1.366 . S
C2476 C2478 1.388 . S
C2477 C2476 1.366 . S
C2477 C2481 1.385 . S
C2478 H2459 0.951 . S
C2478 C2476 1.388 . S
C2478 C2479 1.366 . S
C2479 C2478 1.366 . S
C2479 C2480 1.414 . S
C2479 C2482 1.499 . S
C2480 H2460 0.950 . S
C2480 C2479 1.414 . S
C2480 C2481 1.374 . S
C2481 H2461 0.950 . S
C2481 C2477 1.385 . S
C2481 C2480 1.374 . S
C2482 C2479 1.499 . S
C2482 C2483 1.373 . S
C2482 C2484 1.389 . S
C2483 H2462 0.950 . S
C2483 C2482 1.373 . S
C2483 C2499 1.377 . S
C2484 C2482 1.389 . S
C2484 C2485 1.524 . S
C2484 C2498 1.377 . S
C2485 C2484 1.524 . S
C2485 C2486 1.397 . S
C2485 C2490 1.363 . S
C2486 H2463 0.950 . S
C2486 C2485 1.397 . S
C2486 C2487 1.334 . S
C2487 H2464 0.950 . S
C2487 C2486 1.334 . S
C2487 C2488 1.287 . S
C2488 C2487 1.287 . S
C2488 C2489 1.524 . S
C2488 H2507 0.913 . S
C2489 H2465 0.950 . S
C2489 C2488 1.524 . S
C2489 C2490 1.415 . S
C2490 H2466 0.950 . S
C2490 C2485 1.363 . S
C2490 C2489 1.415 . S
C2491 H2467 0.951 . S
C2491 C2492 1.366 . S
C2491 C2493 1.388 . S
C2492 C2491 1.366 . S
C2492 C2496 1.385 . S
C2493 H2468 0.951 . S
C2493 C2491 1.388 . S
C2493 C2494 1.366 . S
C2494 C2493 1.366 . S
C2494 C2495 1.414 . S
C2494 C2497 1.499 . S
C2495 H2469 0.950 . S
C2495 C2494 1.414 . S
C2495 C2496 1.374 . S
C2496 H2470 0.950 . S
C2496 C2492 1.385 . S
C2496 C2495 1.374 . S
C2497 C2494 1.499 . S
C2497 C2498 1.373 . S
C2497 C2499 1.389 . S
C2498 H2471 0.950 . S
C2498 C2484 1.377 . S
C2498 C2497 1.373 . S
C2499 C2483 1.377 . S
C2499 C2497 1.389 . S
C2499 C2500 1.524 . S
C2500 C2499 1.524 . S
C2500 C2501 1.397 . S
C2500 C2505 1.363 . S
C2501 H2472 0.950 . S
C2501 C2500 1.397 . S
C2501 C2502 1.334 . S
C2502 H2473 0.950 . S
C2502 C2501 1.334 . S
C2502 C2503 1.287 . S
C2503 C2502 1.287 . S
C2503 C2504 1.524 . S
C2503 H2506 0.999 1_655 S
C2504 H2474 0.950 . S
C2504 C2503 1.524 . S
C2504 C2505 1.415 . S
C2505 H2475 0.950 . S
C2505 C2500 1.363 . S
C2505 C2504 1.415 . S
H2506 C2503 0.999 1_455 S
H2507 C2488 0.913 . S
H2508 C2526 0.951 . S
H2509 C2528 0.951 . S
H2510 C2530 0.950 . S
H2511 C2531 0.950 . S
H2512 C2533 0.950 . S
H2513 C2536 0.950 . S
H2514 C2537 0.950 . S
H2515 C2539 0.950 . S
H2516 C2540 0.950 . S
H2517 C2541 0.951 . S
H2518 C2543 0.951 . S
H2519 C2545 0.950 . S
H2520 C2546 0.950 . S
H2521 C2548 0.950 . S
H2522 C2551 0.950 . S
H2523 C2552 0.950 . S
H2524 C2554 0.950 . S
H2525 C2555 0.950 . S
C2526 H2508 0.951 . S
C2526 C2527 1.366 . S
C2526 C2528 1.388 . S
C2527 C2526 1.366 . S
C2527 C2531 1.385 . S
C2528 H2509 0.951 . S
C2528 C2526 1.388 . S
C2528 C2529 1.366 . S
C2529 C2528 1.366 . S
C2529 C2530 1.414 . S
C2529 C2532 1.499 . S
C2530 H2510 0.950 . S
C2530 C2529 1.414 . S
C2530 C2531 1.374 . S
C2531 H2511 0.950 . S
C2531 C2527 1.385 . S
C2531 C2530 1.374 . S
C2532 C2529 1.499 . S
C2532 C2533 1.373 . S
C2532 C2534 1.389 . S
C2533 H2512 0.950 . S
C2533 C2532 1.373 . S
C2533 C2549 1.377 . S
C2534 C2532 1.389 . S
C2534 C2535 1.524 . S
C2534 C2548 1.377 . S
C2535 C2534 1.524 . S
C2535 C2536 1.397 . S
C2535 C2540 1.363 . S
C2536 H2513 0.950 . S
C2536 C2535 1.397 . S
C2536 C2537 1.334 . S
C2537 H2514 0.950 . S
C2537 C2536 1.334 . S
C2537 C2538 1.287 . S
C2538 C2537 1.287 . S
C2538 C2539 1.524 . S
C2538 H2557 0.913 . S
C2539 H2515 0.950 . S
C2539 C2538 1.524 . S
C2539 C2540 1.415 . S
C2540 H2516 0.950 . S
C2540 C2535 1.363 . S
C2540 C2539 1.415 . S
C2541 H2517 0.951 . S
C2541 C2542 1.366 . S
C2541 C2543 1.388 . S
C2542 C2541 1.366 . S
C2542 C2546 1.385 . S
C2543 H2518 0.951 . S
C2543 C2541 1.388 . S
C2543 C2544 1.366 . S
C2544 C2543 1.366 . S
C2544 C2545 1.414 . S
C2544 C2547 1.499 . S
C2545 H2519 0.950 . S
C2545 C2544 1.414 . S
C2545 C2546 1.374 . S
C2546 H2520 0.950 . S
C2546 C2542 1.385 . S
C2546 C2545 1.374 . S
C2547 C2544 1.499 . S
C2547 C2548 1.373 . S
C2547 C2549 1.389 . S
C2548 H2521 0.950 . S
C2548 C2534 1.377 . S
C2548 C2547 1.373 . S
C2549 C2533 1.377 . S
C2549 C2547 1.389 . S
C2549 C2550 1.524 . S
C2550 C2549 1.524 . S
C2550 C2551 1.397 . S
C2550 C2555 1.363 . S
C2551 H2522 0.950 . S
C2551 C2550 1.397 . S
C2551 C2552 1.334 . S
C2552 H2523 0.950 . S
C2552 C2551 1.334 . S
C2552 C2553 1.287 . S
C2553 C2552 1.287 . S
C2553 C2554 1.524 . S
C2553 H2556 0.999 . S
C2554 H2524 0.950 . S
C2554 C2553 1.524 . S
C2554 C2555 1.415 . S
C2555 H2525 0.950 . S
C2555 C2550 1.363 . S
C2555 C2554 1.415 . S
H2556 C2553 0.999 . S
H2557 C2538 0.913 . S
H2558 C2576 0.951 . S
H2559 C2578 0.951 . S
H2560 C2580 0.950 . S
H2561 C2581 0.950 . S
H2562 C2583 0.950 . S
H2563 C2586 0.950 . S
H2564 C2587 0.950 . S
H2565 C2589 0.950 . S
H2566 C2590 0.950 . S
H2567 C2591 0.951 . S
H2568 C2593 0.951 . S
H2569 C2595 0.950 . S
H2570 C2596 0.950 . S
H2571 C2598 0.950 . S
H2572 C2601 0.950 . S
H2573 C2602 0.950 . S
H2574 C2604 0.950 . S
H2575 C2605 0.950 . S
C2576 H2558 0.951 . S
C2576 C2577 1.366 . S
C2576 C2578 1.388 . S
C2577 C2576 1.366 . S
C2577 C2581 1.385 . S
C2578 H2559 0.951 . S
C2578 C2576 1.388 . S
C2578 C2579 1.366 . S
C2579 C2578 1.366 . S
C2579 C2580 1.414 . S
C2579 C2582 1.499 . S
C2580 H2560 0.950 . S
C2580 C2579 1.414 . S
C2580 C2581 1.374 . S
C2581 H2561 0.950 . S
C2581 C2577 1.385 . S
C2581 C2580 1.374 . S
C2582 C2579 1.499 . S
C2582 C2583 1.373 . S
C2582 C2584 1.389 . S
C2583 H2562 0.950 . S
C2583 C2582 1.373 . S
C2583 C2599 1.377 . S
C2584 C2582 1.389 . S
C2584 C2585 1.524 . S
C2584 C2598 1.377 . S
C2585 C2584 1.524 . S
C2585 C2586 1.397 . S
C2585 C2590 1.363 . S
C2586 H2563 0.950 . S
C2586 C2585 1.397 . S
C2586 C2587 1.334 . S
C2587 H2564 0.950 . S
C2587 C2586 1.334 . S
C2587 C2588 1.287 . S
C2588 C2587 1.287 . S
C2588 C2589 1.524 . S
C2588 H2607 0.913 . S
C2589 H2565 0.950 . S
C2589 C2588 1.524 . S
C2589 C2590 1.415 . S
C2590 H2566 0.950 . S
C2590 C2585 1.363 . S
C2590 C2589 1.415 . S
C2591 H2567 0.951 . S
C2591 C2592 1.366 . S
C2591 C2593 1.388 . S
C2592 C2591 1.366 . S
C2592 C2596 1.385 . S
C2593 H2568 0.951 . S
C2593 C2591 1.388 . S
C2593 C2594 1.366 . S
C2594 C2593 1.366 . S
C2594 C2595 1.414 . S
C2594 C2597 1.499 . S
C2595 H2569 0.950 . S
C2595 C2594 1.414 . S
C2595 C2596 1.374 . S
C2596 H2570 0.950 . S
C2596 C2592 1.385 . S
C2596 C2595 1.374 . S
C2597 C2594 1.499 . S
C2597 C2598 1.373 . S
C2597 C2599 1.389 . S
C2598 H2571 0.950 . S
C2598 C2584 1.377 . S
C2598 C2597 1.373 . S
C2599 C2583 1.377 . S
C2599 C2597 1.389 . S
C2599 C2600 1.524 . S
C2600 C2599 1.524 . S
C2600 C2601 1.397 . S
C2600 C2605 1.363 . S
C2601 H2572 0.950 . S
C2601 C2600 1.397 . S
C2601 C2602 1.334 . S
C2602 H2573 0.950 . S
C2602 C2601 1.334 . S
C2602 C2603 1.287 . S
C2603 C2602 1.287 . S
C2603 C2604 1.524 . S
C2603 H2606 0.999 . S
C2604 H2574 0.950 . S
C2604 C2603 1.524 . S
C2604 C2605 1.415 . S
C2605 H2575 0.950 . S
C2605 C2600 1.363 . S
C2605 C2604 1.415 . S
H2606 C2603 0.999 . S
H2607 C2588 0.913 . S
H2608 C2626 0.951 . S
H2609 C2628 0.951 . S
H2610 C2630 0.950 . S
H2611 C2631 0.950 . S
H2612 C2633 0.950 . S
H2613 C2636 0.950 . S
H2614 C2637 0.950 . S
H2615 C2639 0.950 . S
H2616 C2640 0.950 . S
H2617 C2641 0.951 . S
H2618 C2643 0.951 . S
H2619 C2645 0.950 . S
H2620 C2646 0.950 . S
H2621 C2648 0.950 . S
H2622 C2651 0.950 . S
H2623 C2652 0.950 . S
H2624 C2654 0.950 . S
H2625 C2655 0.950 . S
C2626 H2608 0.951 . S
C2626 C2627 1.366 . S
C2626 C2628 1.388 . S
C2627 C2626 1.366 . S
C2627 C2631 1.385 . S
C2628 H2609 0.951 . S
C2628 C2626 1.388 . S
C2628 C2629 1.366 . S
C2629 C2628 1.366 . S
C2629 C2630 1.414 . S
C2629 C2632 1.499 . S
C2630 H2610 0.950 . S
C2630 C2629 1.414 . S
C2630 C2631 1.374 . S
C2631 H2611 0.950 . S
C2631 C2627 1.385 . S
C2631 C2630 1.374 . S
C2632 C2629 1.499 . S
C2632 C2633 1.373 . S
C2632 C2634 1.389 . S
C2633 H2612 0.950 . S
C2633 C2632 1.373 . S
C2633 C2649 1.377 . S
C2634 C2632 1.389 . S
C2634 C2635 1.524 . S
C2634 C2648 1.377 . S
C2635 C2634 1.524 . S
C2635 C2636 1.397 . S
C2635 C2640 1.363 . S
C2636 H2613 0.950 . S
C2636 C2635 1.397 . S
C2636 C2637 1.334 . S
C2637 H2614 0.950 . S
C2637 C2636 1.334 . S
C2637 C2638 1.287 . S
C2638 C2637 1.287 . S
C2638 C2639 1.524 . S
C2638 H2657 0.913 . S
C2639 H2615 0.950 . S
C2639 C2638 1.524 . S
C2639 C2640 1.415 . S
C2640 H2616 0.950 . S
C2640 C2635 1.363 . S
C2640 C2639 1.415 . S
C2641 H2617 0.951 . S
C2641 C2642 1.366 . S
C2641 C2643 1.388 . S
C2642 C2641 1.366 . S
C2642 C2646 1.385 . S
C2643 H2618 0.951 . S
C2643 C2641 1.388 . S
C2643 C2644 1.366 . S
C2644 C2643 1.366 . S
C2644 C2645 1.414 . S
C2644 C2647 1.499 . S
C2645 H2619 0.950 . S
C2645 C2644 1.414 . S
C2645 C2646 1.374 . S
C2646 H2620 0.950 . S
C2646 C2642 1.385 . S
C2646 C2645 1.374 . S
C2647 C2644 1.499 . S
C2647 C2648 1.373 . S
C2647 C2649 1.389 . S
C2648 H2621 0.950 . S
C2648 C2634 1.377 . S
C2648 C2647 1.373 . S
C2649 C2633 1.377 . S
C2649 C2647 1.389 . S
C2649 C2650 1.524 . S
C2650 C2649 1.524 . S
C2650 C2651 1.397 . S
C2650 C2655 1.363 . S
C2651 H2622 0.950 . S
C2651 C2650 1.397 . S
C2651 C2652 1.334 . S
C2652 H2623 0.950 . S
C2652 C2651 1.334 . S
C2652 C2653 1.287 . S
C2653 C2652 1.287 . S
C2653 C2654 1.524 . S
C2653 H2656 0.999 . S
C2654 H2624 0.950 . S
C2654 C2653 1.524 . S
C2654 C2655 1.415 . S
C2655 H2625 0.950 . S
C2655 C2650 1.363 . S
C2655 C2654 1.415 . S
H2656 C2653 0.999 . S
H2657 C2638 0.913 . S
H2658 C2676 0.951 . S
H2659 C2678 0.951 . S
H2660 C2680 0.950 . S
H2661 C2681 0.950 . S
H2662 C2683 0.950 . S
H2663 C2686 0.950 . S
H2664 C2687 0.950 . S
H2665 C2689 0.950 . S
H2666 C2690 0.950 . S
H2667 C2691 0.951 . S
H2668 C2693 0.951 . S
H2669 C2695 0.950 . S
H2670 C2696 0.950 . S
H2671 C2698 0.950 . S
H2672 C2701 0.950 . S
H2673 C2702 0.950 . S
H2674 C2704 0.950 . S
H2675 C2705 0.950 . S
C2676 H2658 0.951 . S
C2676 C2677 1.366 . S
C2676 C2678 1.388 . S
C2677 C2676 1.366 . S
C2677 C2681 1.385 . S
C2678 H2659 0.951 . S
C2678 C2676 1.388 . S
C2678 C2679 1.366 . S
C2679 C2678 1.366 . S
C2679 C2680 1.414 . S
C2679 C2682 1.499 . S
C2680 H2660 0.950 . S
C2680 C2679 1.414 . S
C2680 C2681 1.374 . S
C2681 H2661 0.950 . S
C2681 C2677 1.385 . S
C2681 C2680 1.374 . S
C2682 C2679 1.499 . S
C2682 C2683 1.373 . S
C2682 C2684 1.389 . S
C2683 H2662 0.950 . S
C2683 C2682 1.373 . S
C2683 C2699 1.377 . S
C2684 C2682 1.389 . S
C2684 C2685 1.524 . S
C2684 C2698 1.377 . S
C2685 C2684 1.524 . S
C2685 C2686 1.397 . S
C2685 C2690 1.363 . S
C2686 H2663 0.950 . S
C2686 C2685 1.397 . S
C2686 C2687 1.334 . S
C2687 H2664 0.950 . S
C2687 C2686 1.334 . S
C2687 C2688 1.287 . S
C2688 C2687 1.287 . S
C2688 C2689 1.524 . S
C2688 H2707 0.913 . S
C2689 H2665 0.950 . S
C2689 C2688 1.524 . S
C2689 C2690 1.415 . S
C2690 H2666 0.950 . S
C2690 C2685 1.363 . S
C2690 C2689 1.415 . S
C2691 H2667 0.951 . S
C2691 C2692 1.366 . S
C2691 C2693 1.388 . S
C2692 C2691 1.366 . S
C2692 C2696 1.385 . S
C2693 H2668 0.951 . S
C2693 C2691 1.388 . S
C2693 C2694 1.366 . S
C2694 C2693 1.366 . S
C2694 C2695 1.414 . S
C2694 C2697 1.499 . S
C2695 H2669 0.950 . S
C2695 C2694 1.414 . S
C2695 C2696 1.374 . S
C2696 H2670 0.950 . S
C2696 C2692 1.385 . S
C2696 C2695 1.374 . S
C2697 C2694 1.499 . S
C2697 C2698 1.373 . S
C2697 C2699 1.389 . S
C2698 H2671 0.950 . S
C2698 C2684 1.377 . S
C2698 C2697 1.373 . S
C2699 C2683 1.377 . S
C2699 C2697 1.389 . S
C2699 C2700 1.524 . S
C2700 C2699 1.524 . S
C2700 C2701 1.397 . S
C2700 C2705 1.363 . S
C2701 H2672 0.950 . S
C2701 C2700 1.397 . S
C2701 C2702 1.334 . S
C2702 H2673 0.950 . S
C2702 C2701 1.334 . S
C2702 C2703 1.287 . S
C2703 C2702 1.287 . S
C2703 C2704 1.524 . S
C2703 H2706 0.999 . S
C2704 H2674 0.950 . S
C2704 C2703 1.524 . S
C2704 C2705 1.415 . S
C2705 H2675 0.950 . S
C2705 C2700 1.363 . S
C2705 C2704 1.415 . S
H2706 C2703 0.999 . S
H2707 C2688 0.913 . S
H2708 C2726 0.951 . S
H2709 C2728 0.951 . S
H2710 C2730 0.950 . S
H2711 C2731 0.950 . S
H2712 C2733 0.950 . S
H2713 C2736 0.950 . S
H2714 C2737 0.950 . S
H2715 C2739 0.950 . S
H2716 C2740 0.950 . S
H2717 C2741 0.951 . S
H2718 C2743 0.951 . S
H2719 C2745 0.950 . S
H2720 C2746 0.950 . S
H2721 C2748 0.950 . S
H2722 C2751 0.950 . S
H2723 C2752 0.950 . S
H2724 C2754 0.950 . S
H2725 C2755 0.950 . S
C2726 H2708 0.951 . S
C2726 C2727 1.366 . S
C2726 C2728 1.388 . S
C2727 C2726 1.366 . S
C2727 C2731 1.385 . S
C2728 H2709 0.951 . S
C2728 C2726 1.388 . S
C2728 C2729 1.366 . S
C2729 C2728 1.366 . S
C2729 C2730 1.414 . S
C2729 C2732 1.499 . S
C2730 H2710 0.950 . S
C2730 C2729 1.414 . S
C2730 C2731 1.374 . S
C2731 H2711 0.950 . S
C2731 C2727 1.385 . S
C2731 C2730 1.374 . S
C2732 C2729 1.499 . S
C2732 C2733 1.373 . S
C2732 C2734 1.389 . S
C2733 H2712 0.950 . S
C2733 C2732 1.373 . S
C2733 C2749 1.377 . S
C2734 C2732 1.389 . S
C2734 C2735 1.524 . S
C2734 C2748 1.377 . S
C2735 C2734 1.524 . S
C2735 C2736 1.397 . S
C2735 C2740 1.363 . S
C2736 H2713 0.950 . S
C2736 C2735 1.397 . S
C2736 C2737 1.334 . S
C2737 H2714 0.950 . S
C2737 C2736 1.334 . S
C2737 C2738 1.287 . S
C2738 C2737 1.287 . S
C2738 C2739 1.524 . S
C2738 H2757 0.913 . S
C2739 H2715 0.950 . S
C2739 C2738 1.524 . S
C2739 C2740 1.415 . S
C2740 H2716 0.950 . S
C2740 C2735 1.363 . S
C2740 C2739 1.415 . S
C2741 H2717 0.951 . S
C2741 C2742 1.366 . S
C2741 C2743 1.388 . S
C2742 C2741 1.366 . S
C2742 C2746 1.385 . S
C2743 H2718 0.951 . S
C2743 C2741 1.388 . S
C2743 C2744 1.366 . S
C2744 C2743 1.366 . S
C2744 C2745 1.414 . S
C2744 C2747 1.499 . S
C2745 H2719 0.950 . S
C2745 C2744 1.414 . S
C2745 C2746 1.374 . S
C2746 H2720 0.950 . S
C2746 C2742 1.385 . S
C2746 C2745 1.374 . S
C2747 C2744 1.499 . S
C2747 C2748 1.373 . S
C2747 C2749 1.389 . S
C2748 H2721 0.950 . S
C2748 C2734 1.377 . S
C2748 C2747 1.373 . S
C2749 C2733 1.377 . S
C2749 C2747 1.389 . S
C2749 C2750 1.524 . S
C2750 C2749 1.524 . S
C2750 C2751 1.397 . S
C2750 C2755 1.363 . S
C2751 H2722 0.950 . S
C2751 C2750 1.397 . S
C2751 C2752 1.334 . S
C2752 H2723 0.950 . S
C2752 C2751 1.334 . S
C2752 C2753 1.287 . S
C2753 C2752 1.287 . S
C2753 C2754 1.524 . S
C2753 H2756 0.999 . S
C2754 H2724 0.950 . S
C2754 C2753 1.524 . S
C2754 C2755 1.415 . S
C2755 H2725 0.950 . S
C2755 C2750 1.363 . S
C2755 C2754 1.415 . S
H2756 C2753 0.999 . S
H2757 C2738 0.913 . S
H2758 C2776 0.951 . S
H2759 C2778 0.951 . S
H2760 C2780 0.950 . S
H2761 C2781 0.950 . S
H2762 C2783 0.950 . S
H2763 C2786 0.950 . S
H2764 C2787 0.950 . S
H2765 C2789 0.950 . S
H2766 C2790 0.950 . S
H2767 C2791 0.951 . S
H2768 C2793 0.951 . S
H2769 C2795 0.950 . S
H2770 C2796 0.950 . S
H2771 C2798 0.950 . S
H2772 C2801 0.950 . S
H2773 C2802 0.950 . S
H2774 C2804 0.950 . S
H2775 C2805 0.950 . S
C2776 H2758 0.951 . S
C2776 C2777 1.366 . S
C2776 C2778 1.388 . S
C2777 C2776 1.366 . S
C2777 C2781 1.385 . S
C2778 H2759 0.951 . S
C2778 C2776 1.388 . S
C2778 C2779 1.366 . S
C2779 C2778 1.366 . S
C2779 C2780 1.414 . S
C2779 C2782 1.499 . S
C2780 H2760 0.950 . S
C2780 C2779 1.414 . S
C2780 C2781 1.374 . S
C2781 H2761 0.950 . S
C2781 C2777 1.385 . S
C2781 C2780 1.374 . S
C2782 C2779 1.499 . S
C2782 C2783 1.373 . S
C2782 C2784 1.389 . S
C2783 H2762 0.950 . S
C2783 C2782 1.373 . S
C2783 C2799 1.377 . S
C2784 C2782 1.389 . S
C2784 C2785 1.524 . S
C2784 C2798 1.377 . S
C2785 C2784 1.524 . S
C2785 C2786 1.397 . S
C2785 C2790 1.363 . S
C2786 H2763 0.950 . S
C2786 C2785 1.397 . S
C2786 C2787 1.334 . S
C2787 H2764 0.950 . S
C2787 C2786 1.334 . S
C2787 C2788 1.287 . S
C2788 C2787 1.287 . S
C2788 C2789 1.524 . S
C2788 H2807 0.913 . S
C2789 H2765 0.950 . S
C2789 C2788 1.524 . S
C2789 C2790 1.415 . S
C2790 H2766 0.950 . S
C2790 C2785 1.363 . S
C2790 C2789 1.415 . S
C2791 H2767 0.951 . S
C2791 C2792 1.366 . S
C2791 C2793 1.388 . S
C2792 C2791 1.366 . S
C2792 C2796 1.385 . S
C2793 H2768 0.951 . S
C2793 C2791 1.388 . S
C2793 C2794 1.366 . S
C2794 C2793 1.366 . S
C2794 C2795 1.414 . S
C2794 C2797 1.499 . S
C2795 H2769 0.950 . S
C2795 C2794 1.414 . S
C2795 C2796 1.374 . S
C2796 H2770 0.950 . S
C2796 C2792 1.385 . S
C2796 C2795 1.374 . S
C2797 C2794 1.499 . S
C2797 C2798 1.373 . S
C2797 C2799 1.389 . S
C2798 H2771 0.950 . S
C2798 C2784 1.377 . S
C2798 C2797 1.373 . S
C2799 C2783 1.377 . S
C2799 C2797 1.389 . S
C2799 C2800 1.524 . S
C2800 C2799 1.524 . S
C2800 C2801 1.397 . S
C2800 C2805 1.363 . S
C2801 H2772 0.950 . S
C2801 C2800 1.397 . S
C2801 C2802 1.334 . S
C2802 H2773 0.950 . S
C2802 C2801 1.334 . S
C2802 C2803 1.287 . S
C2803 C2802 1.287 . S
C2803 C2804 1.524 . S
C2803 H2806 0.999 . S
C2804 H2774 0.950 . S
C2804 C2803 1.524 . S
C2804 C2805 1.415 . S
C2805 H2775 0.950 . S
C2805 C2800 1.363 . S
C2805 C2804 1.415 . S
H2806 C2803 0.999 . S
H2807 C2788 0.913 . S
H2808 C2826 0.951 . S
H2809 C2828 0.951 . S
H2810 C2830 0.950 . S
H2811 C2831 0.950 . S
H2812 C2833 0.950 . S
H2813 C2836 0.950 . S
H2814 C2837 0.950 . S
H2815 C2839 0.950 . S
H2816 C2840 0.950 . S
H2817 C2841 0.951 . S
H2818 C2843 0.951 . S
H2819 C2845 0.950 . S
H2820 C2846 0.950 . S
H2821 C2848 0.950 . S
H2822 C2851 0.950 . S
H2823 C2852 0.950 . S
H2824 C2854 0.950 . S
H2825 C2855 0.950 . S
C2826 H2808 0.951 . S
C2826 C2827 1.366 . S
C2826 C2828 1.388 . S
C2827 C2826 1.366 . S
C2827 C2831 1.385 . S
C2828 H2809 0.951 . S
C2828 C2826 1.388 . S
C2828 C2829 1.366 . S
C2829 C2828 1.366 . S
C2829 C2830 1.414 . S
C2829 C2832 1.499 . S
C2830 H2810 0.950 . S
C2830 C2829 1.414 . S
C2830 C2831 1.374 . S
C2831 H2811 0.950 . S
C2831 C2827 1.385 . S
C2831 C2830 1.374 . S
C2832 C2829 1.499 . S
C2832 C2833 1.373 . S
C2832 C2834 1.389 . S
C2833 H2812 0.950 . S
C2833 C2832 1.373 . S
C2833 C2849 1.377 . S
C2834 C2832 1.389 . S
C2834 C2835 1.524 . S
C2834 C2848 1.377 . S
C2835 C2834 1.524 . S
C2835 C2836 1.397 . S
C2835 C2840 1.363 . S
C2836 H2813 0.950 . S
C2836 C2835 1.397 . S
C2836 C2837 1.334 . S
C2837 H2814 0.950 . S
C2837 C2836 1.334 . S
C2837 C2838 1.287 . S
C2838 C2837 1.287 . S
C2838 C2839 1.524 . S
C2838 H2857 0.913 . S
C2839 H2815 0.950 . S
C2839 C2838 1.524 . S
C2839 C2840 1.415 . S
C2840 H2816 0.950 . S
C2840 C2835 1.363 . S
C2840 C2839 1.415 . S
C2841 H2817 0.951 . S
C2841 C2842 1.366 . S
C2841 C2843 1.388 . S
C2842 C2841 1.366 . S
C2842 C2846 1.385 . S
C2843 H2818 0.951 . S
C2843 C2841 1.388 . S
C2843 C2844 1.366 . S
C2844 C2843 1.366 . S
C2844 C2845 1.414 . S
C2844 C2847 1.499 . S
C2845 H2819 0.950 . S
C2845 C2844 1.414 . S
C2845 C2846 1.374 . S
C2846 H2820 0.950 . S
C2846 C2842 1.385 . S
C2846 C2845 1.374 . S
C2847 C2844 1.499 . S
C2847 C2848 1.373 . S
C2847 C2849 1.389 . S
C2848 H2821 0.950 . S
C2848 C2834 1.377 . S
C2848 C2847 1.373 . S
C2849 C2833 1.377 . S
C2849 C2847 1.389 . S
C2849 C2850 1.524 . S
C2850 C2849 1.524 . S
C2850 C2851 1.397 . S
C2850 C2855 1.363 . S
C2851 H2822 0.950 . S
C2851 C2850 1.397 . S
C2851 C2852 1.334 . S
C2852 H2823 0.950 . S
C2852 C2851 1.334 . S
C2852 C2853 1.287 . S
C2853 C2852 1.287 . S
C2853 C2854 1.524 . S
C2853 H2856 0.999 . S
C2854 H2824 0.950 . S
C2854 C2853 1.524 . S
C2854 C2855 1.415 . S
C2855 H2825 0.950 . S
C2855 C2850 1.363 . S
C2855 C2854 1.415 . S
H2856 C2853 0.999 . S
H2857 C2838 0.913 . S
H2858 C2876 0.951 . S
H2859 C2878 0.951 . S
H2860 C2880 0.950 . S
H2861 C2881 0.950 . S
H2862 C2883 0.950 . S
H2863 C2886 0.950 . S
H2864 C2887 0.950 . S
H2865 C2889 0.950 . S
H2866 C2890 0.950 . S
H2867 C2891 0.951 . S
H2868 C2893 0.951 . S
H2869 C2895 0.950 . S
H2870 C2896 0.950 . S
H2871 C2898 0.950 . S
H2872 C2901 0.950 . S
H2873 C2902 0.950 . S
H2874 C2904 0.950 . S
H2875 C2905 0.950 . S
C2876 H2858 0.951 . S
C2876 C2877 1.366 . S
C2876 C2878 1.388 . S
C2877 C2876 1.366 . S
C2877 C2881 1.385 . S
C2878 H2859 0.951 . S
C2878 C2876 1.388 . S
C2878 C2879 1.366 . S
C2879 C2878 1.366 . S
C2879 C2880 1.414 . S
C2879 C2882 1.499 . S
C2880 H2860 0.950 . S
C2880 C2879 1.414 . S
C2880 C2881 1.374 . S
C2881 H2861 0.950 . S
C2881 C2877 1.385 . S
C2881 C2880 1.374 . S
C2882 C2879 1.499 . S
C2882 C2883 1.373 . S
C2882 C2884 1.389 . S
C2883 H2862 0.950 . S
C2883 C2882 1.373 . S
C2883 C2899 1.377 . S
C2884 C2882 1.389 . S
C2884 C2885 1.524 . S
C2884 C2898 1.377 . S
C2885 C2884 1.524 . S
C2885 C2886 1.397 . S
C2885 C2890 1.363 . S
C2886 H2863 0.950 . S
C2886 C2885 1.397 . S
C2886 C2887 1.334 . S
C2887 H2864 0.950 . S
C2887 C2886 1.334 . S
C2887 C2888 1.287 . S
C2888 C2887 1.287 . S
C2888 C2889 1.524 . S
C2888 H2907 0.913 . S
C2889 H2865 0.950 . S
C2889 C2888 1.524 . S
C2889 C2890 1.415 . S
C2890 H2866 0.950 . S
C2890 C2885 1.363 . S
C2890 C2889 1.415 . S
C2891 H2867 0.951 . S
C2891 C2892 1.366 . S
C2891 C2893 1.388 . S
C2892 C2891 1.366 . S
C2892 C2896 1.385 . S
C2893 H2868 0.951 . S
C2893 C2891 1.388 . S
C2893 C2894 1.366 . S
C2894 C2893 1.366 . S
C2894 C2895 1.414 . S
C2894 C2897 1.499 . S
C2895 H2869 0.950 . S
C2895 C2894 1.414 . S
C2895 C2896 1.374 . S
C2896 H2870 0.950 . S
C2896 C2892 1.385 . S
C2896 C2895 1.374 . S
C2897 C2894 1.499 . S
C2897 C2898 1.373 . S
C2897 C2899 1.389 . S
C2898 H2871 0.950 . S
C2898 C2884 1.377 . S
C2898 C2897 1.373 . S
C2899 C2883 1.377 . S
C2899 C2897 1.389 . S
C2899 C2900 1.524 . S
C2900 C2899 1.524 . S
C2900 C2901 1.397 . S
C2900 C2905 1.363 . S
C2901 H2872 0.950 . S
C2901 C2900 1.397 . S
C2901 C2902 1.334 . S
C2902 H2873 0.950 . S
C2902 C2901 1.334 . S
C2902 C2903 1.287 . S
C2903 C2902 1.287 . S
C2903 C2904 1.524 . S
C2903 H2906 0.999 . S
C2904 H2874 0.950 . S
C2904 C2903 1.524 . S
C2904 C2905 1.415 . S
C2905 H2875 0.950 . S
C2905 C2900 1.363 . S
C2905 C2904 1.415 . S
H2906 C2903 0.999 . S
H2907 C2888 0.913 . S
H2908 C2926 0.951 . S
H2909 C2928 0.951 . S
H2910 C2930 0.950 . S
H2911 C2931 0.950 . S
H2912 C2933 0.950 . S
H2913 C2936 0.950 . S
H2914 C2937 0.950 . S
H2915 C2939 0.950 . S
H2916 C2940 0.950 . S
H2917 C2941 0.951 . S
H2918 C2943 0.951 . S
H2919 C2945 0.950 . S
H2920 C2946 0.950 . S
H2921 C2948 0.950 . S
H2922 C2951 0.950 . S
H2923 C2952 0.950 . S
H2924 C2954 0.950 . S
H2925 C2955 0.950 . S
C2926 H2908 0.951 . S
C2926 C2927 1.366 . S
C2926 C2928 1.388 . S
C2927 C2926 1.366 . S
C2927 C2931 1.385 . S
C2928 H2909 0.951 . S
C2928 C2926 1.388 . S
C2928 C2929 1.366 . S
C2929 C2928 1.366 . S
C2929 C2930 1.414 . S
C2929 C2932 1.499 . S
C2930 H2910 0.950 . S
C2930 C2929 1.414 . S
C2930 C2931 1.374 . S
C2931 H2911 0.950 . S
C2931 C2927 1.385 . S
C2931 C2930 1.374 . S
C2932 C2929 1.499 . S
C2932 C2933 1.373 . S
C2932 C2934 1.389 . S
C2933 H2912 0.950 . S
C2933 C2932 1.373 . S
C2933 C2949 1.377 . S
C2934 C2932 1.389 . S
C2934 C2935 1.524 . S
C2934 C2948 1.377 . S
C2935 C2934 1.524 . S
C2935 C2936 1.397 . S
C2935 C2940 1.363 . S
C2936 H2913 0.950 . S
C2936 C2935 1.397 . S
C2936 C2937 1.334 . S
C2937 H2914 0.950 . S
C2937 C2936 1.334 . S
C2937 C2938 1.287 . S
C2938 C2937 1.287 . S
C2938 C2939 1.524 . S
C2938 H2957 0.913 . S
C2939 H2915 0.950 . S
C2939 C2938 1.524 . S
C2939 C2940 1.415 . S
C2940 H2916 0.950 . S
C2940 C2935 1.363 . S
C2940 C2939 1.415 . S
C2941 H2917 0.951 . S
C2941 C2942 1.366 . S
C2941 C2943 1.388 . S
C2942 C2941 1.366 . S
C2942 C2946 1.385 . S
C2943 H2918 0.951 . S
C2943 C2941 1.388 . S
C2943 C2944 1.366 . S
C2944 C2943 1.366 . S
C2944 C2945 1.414 . S
C2944 C2947 1.499 . S
C2945 H2919 0.950 . S
C2945 C2944 1.414 . S
C2945 C2946 1.374 . S
C2946 H2920 0.950 . S
C2946 C2942 1.385 . S
C2946 C2945 1.374 . S
C2947 C2944 1.499 . S
C2947 C2948 1.373 . S
C2947 C2949 1.389 . S
C2948 H2921 0.950 . S
C2948 C2934 1.377 . S
C2948 C2947 1.373 . S
C2949 C2933 1.377 . S
C2949 C2947 1.389 . S
C2949 C2950 1.524 . S
C2950 C2949 1.524 . S
C2950 C2951 1.397 . S
C2950 C2955 1.363 . S
C2951 H2922 0.950 . S
C2951 C2950 1.397 . S
C2951 C2952 1.334 . S
C2952 H2923 0.950 . S
C2952 C2951 1.334 . S
C2952 C2953 1.287 . S
C2953 C2952 1.287 . S
C2953 C2954 1.524 . S
C2953 H2956 0.999 1_545 S
C2954 H2924 0.950 . S
C2954 C2953 1.524 . S
C2954 C2955 1.415 . S
C2955 H2925 0.950 . S
C2955 C2950 1.363 . S
C2955 C2954 1.415 . S
H2956 C2953 0.999 1_565 S
H2957 C2938 0.913 . S
H2958 C2976 0.951 . S
H2959 C2978 0.951 . S
H2960 C2980 0.950 . S
H2961 C2981 0.950 . S
H2962 C2983 0.950 . S
H2963 C2986 0.950 . S
H2964 C2987 0.950 . S
H2965 C2989 0.950 . S
H2966 C2990 0.950 . S
H2967 C2991 0.951 . S
H2968 C2993 0.951 . S
H2969 C2995 0.950 . S
H2970 C2996 0.950 . S
H2971 C2998 0.950 . S
H2972 C3001 0.950 . S
H2973 C3002 0.950 . S
H2974 C3004 0.950 . S
H2975 C3005 0.950 . S
C2976 H2958 0.951 . S
C2976 C2977 1.366 . S
C2976 C2978 1.388 . S
C2977 C2976 1.366 . S
C2977 C2981 1.385 . S
C2978 H2959 0.951 . S
C2978 C2976 1.388 . S
C2978 C2979 1.366 . S
C2979 C2978 1.366 . S
C2979 C2980 1.414 . S
C2979 C2982 1.499 . S
C2980 H2960 0.950 . S
C2980 C2979 1.414 . S
C2980 C2981 1.374 . S
C2981 H2961 0.950 . S
C2981 C2977 1.385 . S
C2981 C2980 1.374 . S
C2982 C2979 1.499 . S
C2982 C2983 1.373 . S
C2982 C2984 1.389 . S
C2983 H2962 0.950 . S
C2983 C2982 1.373 . S
C2983 C2999 1.377 . S
C2984 C2982 1.389 . S
C2984 C2985 1.524 . S
C2984 C2998 1.377 . S
C2985 C2984 1.524 . S
C2985 C2986 1.397 . S
C2985 C2990 1.363 . S
C2986 H2963 0.950 . S
C2986 C2985 1.397 . S
C2986 C2987 1.334 . S
C2987 H2964 0.950 . S
C2987 C2986 1.334 . S
C2987 C2988 1.287 . S
C2988 C2987 1.287 . S
C2988 C2989 1.524 . S
C2988 H3007 0.913 . S
C2989 H2965 0.950 . S
C2989 C2988 1.524 . S
C2989 C2990 1.415 . S
C2990 H2966 0.950 . S
C2990 C2985 1.363 . S
C2990 C2989 1.415 . S
C2991 H2967 0.951 . S
C2991 C2992 1.366 . S
C2991 C2993 1.388 . S
C2992 C2991 1.366 . S
C2992 C2996 1.385 . S
C2993 H2968 0.951 . S
C2993 C2991 1.388 . S
C2993 C2994 1.366 . S
C2994 C2993 1.366 . S
C2994 C2995 1.414 . S
C2994 C2997 1.499 . S
C2995 H2969 0.950 . S
C2995 C2994 1.414 . S
C2995 C2996 1.374 . S
C2996 H2970 0.950 . S
C2996 C2992 1.385 . S
C2996 C2995 1.374 . S
C2997 C2994 1.499 . S
C2997 C2998 1.373 . S
C2997 C2999 1.389 . S
C2998 H2971 0.950 . S
C2998 C2984 1.377 . S
C2998 C2997 1.373 . S
C2999 C2983 1.377 . S
C2999 C2997 1.389 . S
C2999 C3000 1.524 . S
C3000 C2999 1.524 . S
C3000 C3001 1.397 . S
C3000 C3005 1.363 . S
C3001 H2972 0.950 . S
C3001 C3000 1.397 . S
C3001 C3002 1.334 . S
C3002 H2973 0.950 . S
C3002 C3001 1.334 . S
C3002 C3003 1.287 . S
C3003 C3002 1.287 . S
C3003 C3004 1.524 . S
C3003 H3006 0.999 . S
C3004 H2974 0.950 . S
C3004 C3003 1.524 . S
C3004 C3005 1.415 . S
C3005 H2975 0.950 . S
C3005 C3000 1.363 . S
C3005 C3004 1.415 . S
H3006 C3003 0.999 . S
H3007 C2988 0.913 . S
H3008 C3026 0.951 . S
H3009 C3028 0.951 . S
H3010 C3030 0.950 . S
H3011 C3031 0.950 . S
H3012 C3033 0.950 . S
H3013 C3036 0.950 . S
H3014 C3037 0.950 . S
H3015 C3039 0.950 . S
H3016 C3040 0.950 . S
H3017 C3041 0.951 . S
H3018 C3043 0.951 . S
H3019 C3045 0.950 . S
H3020 C3046 0.950 . S
H3021 C3048 0.950 . S
H3022 C3051 0.950 . S
H3023 C3052 0.950 . S
H3024 C3054 0.950 . S
H3025 C3055 0.950 . S
C3026 H3008 0.951 . S
C3026 C3027 1.366 . S
C3026 C3028 1.388 . S
C3027 C3026 1.366 . S
C3027 C3031 1.385 . S
C3028 H3009 0.951 . S
C3028 C3026 1.388 . S
C3028 C3029 1.366 . S
C3029 C3028 1.366 . S
C3029 C3030 1.414 . S
C3029 C3032 1.499 . S
C3030 H3010 0.950 . S
C3030 C3029 1.414 . S
C3030 C3031 1.374 . S
C3031 H3011 0.950 . S
C3031 C3027 1.385 . S
C3031 C3030 1.374 . S
C3032 C3029 1.499 . S
C3032 C3033 1.373 . S
C3032 C3034 1.389 . S
C3033 H3012 0.950 . S
C3033 C3032 1.373 . S
C3033 C3049 1.377 . S
C3034 C3032 1.389 . S
C3034 C3035 1.524 . S
C3034 C3048 1.377 . S
C3035 C3034 1.524 . S
C3035 C3036 1.397 . S
C3035 C3040 1.363 . S
C3036 H3013 0.950 . S
C3036 C3035 1.397 . S
C3036 C3037 1.334 . S
C3037 H3014 0.950 . S
C3037 C3036 1.334 . S
C3037 C3038 1.287 . S
C3038 C3037 1.287 . S
C3038 C3039 1.524 . S
C3038 H3057 0.913 . S
C3039 H3015 0.950 . S
C3039 C3038 1.524 . S
C3039 C3040 1.415 . S
C3040 H3016 0.950 . S
C3040 C3035 1.363 . S
C3040 C3039 1.415 . S
C3041 H3017 0.951 . S
C3041 C3042 1.366 . S
C3041 C3043 1.388 . S
C3042 C3041 1.366 . S
C3042 C3046 1.385 . S
C3043 H3018 0.951 . S
C3043 C3041 1.388 . S
C3043 C3044 1.366 . S
C3044 C3043 1.366 . S
C3044 C3045 1.414 . S
C3044 C3047 1.499 . S
C3045 H3019 0.950 . S
C3045 C3044 1.414 . S
C3045 C3046 1.374 . S
C3046 H3020 0.950 . S
C3046 C3042 1.385 . S
C3046 C3045 1.374 . S
C3047 C3044 1.499 . S
C3047 C3048 1.373 . S
C3047 C3049 1.389 . S
C3048 H3021 0.950 . S
C3048 C3034 1.377 . S
C3048 C3047 1.373 . S
C3049 C3033 1.377 . S
C3049 C3047 1.389 . S
C3049 C3050 1.524 . S
C3050 C3049 1.524 . S
C3050 C3051 1.397 . S
C3050 C3055 1.363 . S
C3051 H3022 0.950 . S
C3051 C3050 1.397 . S
C3051 C3052 1.334 . S
C3052 H3023 0.950 . S
C3052 C3051 1.334 . S
C3052 C3053 1.287 . S
C3053 C3052 1.287 . S
C3053 C3054 1.524 . S
C3053 H3056 0.999 . S
C3054 H3024 0.950 . S
C3054 C3053 1.524 . S
C3054 C3055 1.415 . S
C3055 H3025 0.950 . S
C3055 C3050 1.363 . S
C3055 C3054 1.415 . S
H3056 C3053 0.999 . S
H3057 C3038 0.913 . S
H3058 C3076 0.951 . S
H3059 C3078 0.951 . S
H3060 C3080 0.950 . S
H3061 C3081 0.950 . S
H3062 C3083 0.950 . S
H3063 C3086 0.950 . S
H3064 C3087 0.950 . S
H3065 C3089 0.950 . S
H3066 C3090 0.950 . S
H3067 C3091 0.951 . S
H3068 C3093 0.951 . S
H3069 C3095 0.950 . S
H3070 C3096 0.950 . S
H3071 C3098 0.950 . S
H3072 C3101 0.950 . S
H3073 C3102 0.950 . S
H3074 C3104 0.950 . S
H3075 C3105 0.950 . S
C3076 H3058 0.951 . S
C3076 C3077 1.366 . S
C3076 C3078 1.388 . S
C3077 C3076 1.366 . S
C3077 C3081 1.385 . S
C3078 H3059 0.951 . S
C3078 C3076 1.388 . S
C3078 C3079 1.366 . S
C3079 C3078 1.366 . S
C3079 C3080 1.414 . S
C3079 C3082 1.499 . S
C3080 H3060 0.950 . S
C3080 C3079 1.414 . S
C3080 C3081 1.374 . S
C3081 H3061 0.950 . S
C3081 C3077 1.385 . S
C3081 C3080 1.374 . S
C3082 C3079 1.499 . S
C3082 C3083 1.373 . S
C3082 C3084 1.389 . S
C3083 H3062 0.950 . S
C3083 C3082 1.373 . S
C3083 C3099 1.377 . S
C3084 C3082 1.389 . S
C3084 C3085 1.524 . S
C3084 C3098 1.377 . S
C3085 C3084 1.524 . S
C3085 C3086 1.397 . S
C3085 C3090 1.363 . S
C3086 H3063 0.950 . S
C3086 C3085 1.397 . S
C3086 C3087 1.334 . S
C3087 H3064 0.950 . S
C3087 C3086 1.334 . S
C3087 C3088 1.287 . S
C3088 C3087 1.287 . S
C3088 C3089 1.524 . S
C3088 H3107 0.913 . S
C3089 H3065 0.950 . S
C3089 C3088 1.524 . S
C3089 C3090 1.415 . S
C3090 H3066 0.950 . S
C3090 C3085 1.363 . S
C3090 C3089 1.415 . S
C3091 H3067 0.951 . S
C3091 C3092 1.366 . S
C3091 C3093 1.388 . S
C3092 C3091 1.366 . S
C3092 C3096 1.385 . S
C3093 H3068 0.951 . S
C3093 C3091 1.388 . S
C3093 C3094 1.366 . S
C3094 C3093 1.366 . S
C3094 C3095 1.414 . S
C3094 C3097 1.499 . S
C3095 H3069 0.950 . S
C3095 C3094 1.414 . S
C3095 C3096 1.374 . S
C3096 H3070 0.950 . S
C3096 C3092 1.385 . S
C3096 C3095 1.374 . S
C3097 C3094 1.499 . S
C3097 C3098 1.373 . S
C3097 C3099 1.389 . S
C3098 H3071 0.950 . S
C3098 C3084 1.377 . S
C3098 C3097 1.373 . S
C3099 C3083 1.377 . S
C3099 C3097 1.389 . S
C3099 C3100 1.524 . S
C3100 C3099 1.524 . S
C3100 C3101 1.397 . S
C3100 C3105 1.363 . S
C3101 H3072 0.950 . S
C3101 C3100 1.397 . S
C3101 C3102 1.334 . S
C3102 H3073 0.950 . S
C3102 C3101 1.334 . S
C3102 C3103 1.287 . S
C3103 C3102 1.287 . S
C3103 C3104 1.524 . S
C3103 H3106 0.999 . S
C3104 H3074 0.950 . S
C3104 C3103 1.524 . S
C3104 C3105 1.415 . S
C3105 H3075 0.950 . S
C3105 C3100 1.363 . S
C3105 C3104 1.415 . S
H3106 C3103 0.999 . S
H3107 C3088 0.913 . S
H3108 C3126 0.951 . S
H3109 C3128 0.951 . S
H3110 C3130 0.950 . S
H3111 C3131 0.950 . S
H3112 C3133 0.950 . S
H3113 C3136 0.950 . S
H3114 C3137 0.950 . S
H3115 C3139 0.950 . S
H3116 C3140 0.950 . S
H3117 C3141 0.951 . S
H3118 C3143 0.951 . S
H3119 C3145 0.950 . S
H3120 C3146 0.950 . S
H3121 C3148 0.950 . S
H3122 C3151 0.950 . S
H3123 C3152 0.950 . S
H3124 C3154 0.950 . S
H3125 C3155 0.950 . S
C3126 H3108 0.951 . S
C3126 C3127 1.366 . S
C3126 C3128 1.388 . S
C3127 C3126 1.366 . S
C3127 C3131 1.385 . S
C3128 H3109 0.951 . S
C3128 C3126 1.388 . S
C3128 C3129 1.366 . S
C3129 C3128 1.366 . S
C3129 C3130 1.414 . S
C3129 C3132 1.499 . S
C3130 H3110 0.950 . S
C3130 C3129 1.414 . S
C3130 C3131 1.374 . S
C3131 H3111 0.950 . S
C3131 C3127 1.385 . S
C3131 C3130 1.374 . S
C3132 C3129 1.499 . S
C3132 C3133 1.373 . S
C3132 C3134 1.389 . S
C3133 H3112 0.950 . S
C3133 C3132 1.373 . S
C3133 C3149 1.377 . S
C3134 C3132 1.389 . S
C3134 C3135 1.524 . S
C3134 C3148 1.377 . S
C3135 C3134 1.524 . S
C3135 C3136 1.397 . S
C3135 C3140 1.363 . S
C3136 H3113 0.950 . S
C3136 C3135 1.397 . S
C3136 C3137 1.334 . S
C3137 H3114 0.950 . S
C3137 C3136 1.334 . S
C3137 C3138 1.287 . S
C3138 C3137 1.287 . S
C3138 C3139 1.524 . S
C3138 H3157 0.913 . S
C3139 H3115 0.950 . S
C3139 C3138 1.524 . S
C3139 C3140 1.415 . S
C3140 H3116 0.950 . S
C3140 C3135 1.363 . S
C3140 C3139 1.415 . S
C3141 H3117 0.951 . S
C3141 C3142 1.366 . S
C3141 C3143 1.388 . S
C3142 C3141 1.366 . S
C3142 C3146 1.385 . S
C3143 H3118 0.951 . S
C3143 C3141 1.388 . S
C3143 C3144 1.366 . S
C3144 C3143 1.366 . S
C3144 C3145 1.414 . S
C3144 C3147 1.499 . S
C3145 H3119 0.950 . S
C3145 C3144 1.414 . S
C3145 C3146 1.374 . S
C3146 H3120 0.950 . S
C3146 C3142 1.385 . S
C3146 C3145 1.374 . S
C3147 C3144 1.499 . S
C3147 C3148 1.373 . S
C3147 C3149 1.389 . S
C3148 H3121 0.950 . S
C3148 C3134 1.377 . S
C3148 C3147 1.373 . S
C3149 C3133 1.377 . S
C3149 C3147 1.389 . S
C3149 C3150 1.524 . S
C3150 C3149 1.524 . S
C3150 C3151 1.397 . S
C3150 C3155 1.363 . S
C3151 H3122 0.950 . S
C3151 C3150 1.397 . S
C3151 C3152 1.334 . S
C3152 H3123 0.950 . S
C3152 C3151 1.334 . S
C3152 C3153 1.287 . S
C3153 C3152 1.287 . S
C3153 C3154 1.524 . S
C3153 H3156 0.999 . S
C3154 H3124 0.950 . S
C3154 C3153 1.524 . S
C3154 C3155 1.415 . S
C3155 H3125 0.950 . S
C3155 C3150 1.363 . S
C3155 C3154 1.415 . S
H3156 C3153 0.999 . S
H3157 C3138 0.913 . S
H3158 C3176 0.951 . S
H3159 C3178 0.951 . S
H3160 C3180 0.950 . S
H3161 C3181 0.950 . S
H3162 C3183 0.950 . S
H3163 C3186 0.950 . S
H3164 C3187 0.950 . S
H3165 C3189 0.950 . S
H3166 C3190 0.950 . S
H3167 C3191 0.951 . S
H3168 C3193 0.951 . S
H3169 C3195 0.950 . S
H3170 C3196 0.950 . S
H3171 C3198 0.950 . S
H3172 C3201 0.950 . S
H3173 C3202 0.950 . S
H3174 C3204 0.950 . S
H3175 C3205 0.950 . S
C3176 H3158 0.951 . S
C3176 C3177 1.366 . S
C3176 C3178 1.388 . S
C3177 C3176 1.366 . S
C3177 C3181 1.385 . S
C3178 H3159 0.951 . S
C3178 C3176 1.388 . S
C3178 C3179 1.366 . S
C3179 C3178 1.366 . S
C3179 C3180 1.414 . S
C3179 C3182 1.499 . S
C3180 H3160 0.950 . S
C3180 C3179 1.414 . S
C3180 C3181 1.374 . S
C3181 H3161 0.950 . S
C3181 C3177 1.385 . S
C3181 C3180 1.374 . S
C3182 C3179 1.499 . S
C3182 C3183 1.373 . S
C3182 C3184 1.389 . S
C3183 H3162 0.950 . S
C3183 C3182 1.373 . S
C3183 C3199 1.377 . S
C3184 C3182 1.389 . S
C3184 C3185 1.524 . S
C3184 C3198 1.377 . S
C3185 C3184 1.524 . S
C3185 C3186 1.397 . S
C3185 C3190 1.363 . S
C3186 H3163 0.950 . S
C3186 C3185 1.397 . S
C3186 C3187 1.334 . S
C3187 H3164 0.950 . S
C3187 C3186 1.334 . S
C3187 C3188 1.287 . S
C3188 C3187 1.287 . S
C3188 C3189 1.524 . S
C3188 H3207 0.913 . S
C3189 H3165 0.950 . S
C3189 C3188 1.524 . S
C3189 C3190 1.415 . S
C3190 H3166 0.950 . S
C3190 C3185 1.363 . S
C3190 C3189 1.415 . S
C3191 H3167 0.951 . S
C3191 C3192 1.366 . S
C3191 C3193 1.388 . S
C3192 C3191 1.366 . S
C3192 C3196 1.385 . S
C3193 H3168 0.951 . S
C3193 C3191 1.388 . S
C3193 C3194 1.366 . S
C3194 C3193 1.366 . S
C3194 C3195 1.414 . S
C3194 C3197 1.499 . S
C3195 H3169 0.950 . S
C3195 C3194 1.414 . S
C3195 C3196 1.374 . S
C3196 H3170 0.950 . S
C3196 C3192 1.385 . S
C3196 C3195 1.374 . S
C3197 C3194 1.499 . S
C3197 C3198 1.373 . S
C3197 C3199 1.389 . S
C3198 H3171 0.950 . S
C3198 C3184 1.377 . S
C3198 C3197 1.373 . S
C3199 C3183 1.377 . S
C3199 C3197 1.389 . S
C3199 C3200 1.524 . S
C3200 C3199 1.524 . S
C3200 C3201 1.397 . S
C3200 C3205 1.363 . S
C3201 H3172 0.950 . S
C3201 C3200 1.397 . S
C3201 C3202 1.334 . S
C3202 H3173 0.950 . S
C3202 C3201 1.334 . S
C3202 C3203 1.287 . S
C3203 C3202 1.287 . S
C3203 C3204 1.524 . S
C3203 H3206 0.999 1_655 S
C3204 H3174 0.950 . S
C3204 C3203 1.524 . S
C3204 C3205 1.415 . S
C3205 H3175 0.950 . S
C3205 C3200 1.363 . S
C3205 C3204 1.415 . S
H3206 C3203 0.999 1_455 S
H3207 C3188 0.913 . S
H3208 C3226 0.951 . S
H3209 C3228 0.951 . S
H3210 C3230 0.950 . S
H3211 C3231 0.950 . S
H3212 C3233 0.950 . S
H3213 C3236 0.950 . S
H3214 C3237 0.950 . S
H3215 C3239 0.950 . S
H3216 C3240 0.950 . S
H3217 C3241 0.951 . S
H3218 C3243 0.951 . S
H3219 C3245 0.950 . S
H3220 C3246 0.950 . S
H3221 C3248 0.950 . S
H3222 C3251 0.950 . S
H3223 C3252 0.950 . S
H3224 C3254 0.950 . S
H3225 C3255 0.950 . S
C3226 H3208 0.951 . S
C3226 C3227 1.366 . S
C3226 C3228 1.388 . S
C3227 C3226 1.366 . S
C3227 C3231 1.385 . S
C3228 H3209 0.951 . S
C3228 C3226 1.388 . S
C3228 C3229 1.366 . S
C3229 C3228 1.366 . S
C3229 C3230 1.414 . S
C3229 C3232 1.499 . S
C3230 H3210 0.950 . S
C3230 C3229 1.414 . S
C3230 C3231 1.374 . S
C3231 H3211 0.950 . S
C3231 C3227 1.385 . S
C3231 C3230 1.374 . S
C3232 C3229 1.499 . S
C3232 C3233 1.373 . S
C3232 C3234 1.389 . S
C3233 H3212 0.950 . S
C3233 C3232 1.373 . S
C3233 C3249 1.377 . S
C3234 C3232 1.389 . S
C3234 C3235 1.524 . S
C3234 C3248 1.377 . S
C3235 C3234 1.524 . S
C3235 C3236 1.397 . S
C3235 C3240 1.363 . S
C3236 H3213 0.950 . S
C3236 C3235 1.397 . S
C3236 C3237 1.334 . S
C3237 H3214 0.950 . S
C3237 C3236 1.334 . S
C3237 C3238 1.287 . S
C3238 C3237 1.287 . S
C3238 C3239 1.524 . S
C3238 H3257 0.913 . S
C3239 H3215 0.950 . S
C3239 C3238 1.524 . S
C3239 C3240 1.415 . S
C3240 H3216 0.950 . S
C3240 C3235 1.363 . S
C3240 C3239 1.415 . S
C3241 H3217 0.951 . S
C3241 C3242 1.366 . S
C3241 C3243 1.388 . S
C3242 C3241 1.366 . S
C3242 C3246 1.385 . S
C3243 H3218 0.951 . S
C3243 C3241 1.388 . S
C3243 C3244 1.366 . S
C3244 C3243 1.366 . S
C3244 C3245 1.414 . S
C3244 C3247 1.499 . S
C3245 H3219 0.950 . S
C3245 C3244 1.414 . S
C3245 C3246 1.374 . S
C3246 H3220 0.950 . S
C3246 C3242 1.385 . S
C3246 C3245 1.374 . S
C3247 C3244 1.499 . S
C3247 C3248 1.373 . S
C3247 C3249 1.389 . S
C3248 H3221 0.950 . S
C3248 C3234 1.377 . S
C3248 C3247 1.373 . S
C3249 C3233 1.377 . S
C3249 C3247 1.389 . S
C3249 C3250 1.524 . S
C3250 C3249 1.524 . S
C3250 C3251 1.397 . S
C3250 C3255 1.363 . S
C3251 H3222 0.950 . S
C3251 C3250 1.397 . S
C3251 C3252 1.334 . S
C3252 H3223 0.950 . S
C3252 C3251 1.334 . S
C3252 C3253 1.287 . S
C3253 C3252 1.287 . S
C3253 C3254 1.524 . S
C3253 H3256 0.999 . S
C3254 H3224 0.950 . S
C3254 C3253 1.524 . S
C3254 C3255 1.415 . S
C3255 H3225 0.950 . S
C3255 C3250 1.363 . S
C3255 C3254 1.415 . S
H3256 C3253 0.999 . S
H3257 C3238 0.913 . S
C892 C683 1.395 . S
C877 C74 1.347 . S
C942 C673 0.472 . S
C927 C142 0.788 . S
C992 C674 0.937 . S
C977 C231 0.907 . S
C1027 C322 1.437 . S
C1042 C696 1.543 . S
C1077 C406 0.788 . S
C1092 C699 0.471 . S
C1142 C682 0.937 . S
C1127 C494 0.907 . S
C1177 C562 1.438 . S
C1192 C672 1.544 . S
C1227 C651 1.346 . S
C1242 C690 1.396 . S
C1292 C703 1.572 . S
C1277 C58 1.490 . S
C1327 C151 1.436 . S
C1342 C752 1.425 . S
C1392 C730 2.656 . S
C1377 C224 2.556 . S
C1442 C744 0.855 . S
C1427 C315 0.855 . S
C1477 C399 0.853 . S
C1492 C705 0.853 . S
C1542 C758 1.565 . S
C1527 C478 1.502 . S
C1577 C571 1.392 . S
C1592 C714 1.417 . S
C1627 C644 2.548 . S
C1642 C735 2.630 . S
C1677 C67 2.549 . S
C1692 C761 2.630 . S
C1727 C392 1.436 . S
C1742 C745 1.427 . S
C1792 C704 2.656 . S
C1777 C487 2.556 . S
C1842 C736 0.856 . S
C1827 C578 0.856 . S
C1877 C658 1.490 . S
C1892 C727 1.573 . S
C1927 C238 1.502 . S
C1942 C734 1.565 . S
C1992 C721 1.418 . S
C1977 C308 1.393 . S
C2027 C158 0.853 . S
C2042 C713 0.853 . S
C2077 C662 1.347 . S
C2092 C776 1.396 . S
C2127 C394 0.788 . S
C2142 C766 0.471 . S
C2192 C767 0.936 . S
C2177 C483 0.908 . S
C2242 C789 1.543 . S
C2227 C574 1.438 . S
C2277 C154 0.789 . S
C2292 C792 0.473 . S
C2342 C775 0.937 . S
C2327 C242 0.907 . S
C2377 C310 1.437 . S
C2392 C765 1.543 . S
C2427 C63 1.346 . S
C2442 C783 1.396 . S
C2477 C646 1.490 . S
C2492 C796 1.573 . S
C2542 C845 1.427 . S
C2527 C403 1.435 . S
C2577 C476 2.556 . S
C2592 C823 2.655 . S
C2627 C567 0.856 . S
C2642 C837 0.856 . S
C2692 C798 0.853 . S
C2677 C147 0.853 . S
C2727 C226 1.501 . S
C2742 C851 1.565 . S
C2792 C807 1.417 . S
C2777 C319 1.392 . S
C2842 C828 2.630 . S
C2827 C56 2.548 . S
C2892 C854 2.630 . S
C2877 C655 2.548 . S
C2927 C140 1.435 . S
C2942 C838 1.426 . S
C2977 C235 2.556 . S
C2992 C797 2.655 . S
C3042 C829 0.857 . S
C3027 C326 0.856 . S
C3077 C70 1.489 . S
C3092 C820 1.573 . S
C3127 C490 1.502 . S
C3142 C827 1.565 . S
C3192 C814 1.417 . S
C3177 C560 1.392 . S
C3242 C806 0.854 . S
C3227 C410 0.854 . S
