# Generated by pormake.
# Topology cor, (4,6)-cn, num edge types: 1
# Building blocks:
#     Node 0, Type 0, BuildingBlock: NAHDIM_clean_sbu_0, # of connection points: 4
#     Node 1, Type 0, BuildingBlock: NAHDIM_clean_sbu_0, # of connection points: 4
#     Node 2, Type 0, BuildingBlock: NAHDIM_clean_sbu_0, # of connection points: 4
#     Node 3, Type 0, BuildingBlock: NAHDIM_clean_sbu_0, # of connection points: 4
#     Node 4, Type 0, BuildingBlock: NAHDIM_clean_sbu_0, # of connection points: 4
#     Node 5, Type 0, BuildingBlock: NAHDIM_clean_sbu_0, # of connection points: 4
#     Node 6, Type 0, BuildingBlock: NAHDIM_clean_sbu_0, # of connection points: 4
#     Node 7, Type 0, BuildingBlock: NAHDIM_clean_sbu_0, # of connection points: 4
#     Node 8, Type 0, BuildingBlock: NAHDIM_clean_sbu_0, # of connection points: 4
#     Node 9, Type 0, BuildingBlock: NAHDIM_clean_sbu_0, # of connection points: 4
#     Node 10, Type 0, BuildingBlock: NAHDIM_clean_sbu_0, # of connection points: 4
#     Node 11, Type 0, BuildingBlock: NAHDIM_clean_sbu_0, # of connection points: 4
#     Node 12, Type 0, BuildingBlock: NAHDIM_clean_sbu_0, # of connection points: 4
#     Node 13, Type 0, BuildingBlock: NAHDIM_clean_sbu_0, # of connection points: 4
#     Node 14, Type 0, BuildingBlock: NAHDIM_clean_sbu_0, # of connection points: 4
#     Node 15, Type 0, BuildingBlock: NAHDIM_clean_sbu_0, # of connection points: 4
#     Node 16, Type 0, BuildingBlock: NAHDIM_clean_sbu_0, # of connection points: 4
#     Node 17, Type 0, BuildingBlock: NAHDIM_clean_sbu_0, # of connection points: 4
#     Node 18, Type 1, BuildingBlock: MIDCAF_clean_sbu_0, # of connection points: 6
#     Node 19, Type 1, BuildingBlock: MIDCAF_clean_sbu_0, # of connection points: 6
#     Node 20, Type 1, BuildingBlock: MIDCAF_clean_sbu_0, # of connection points: 6
#     Node 21, Type 1, BuildingBlock: MIDCAF_clean_sbu_0, # of connection points: 6
#     Node 22, Type 1, BuildingBlock: MIDCAF_clean_sbu_0, # of connection points: 6
#     Node 23, Type 1, BuildingBlock: MIDCAF_clean_sbu_0, # of connection points: 6
#     Node 24, Type 1, BuildingBlock: MIDCAF_clean_sbu_0, # of connection points: 6
#     Node 25, Type 1, BuildingBlock: MIDCAF_clean_sbu_0, # of connection points: 6
#     Node 26, Type 1, BuildingBlock: MIDCAF_clean_sbu_0, # of connection points: 6
#     Node 27, Type 1, BuildingBlock: MIDCAF_clean_sbu_0, # of connection points: 6
#     Node 28, Type 1, BuildingBlock: MIDCAF_clean_sbu_0, # of connection points: 6
#     Node 29, Type 1, BuildingBlock: MIDCAF_clean_sbu_0, # of connection points: 6
#     Edge 30, Type (0, 1), None
#     Edge 31, Type (0, 1), None
#     Edge 32, Type (0, 1), None
#     Edge 33, Type (0, 1), None
#     Edge 34, Type (0, 1), None
#     Edge 35, Type (0, 1), None
#     Edge 36, Type (0, 1), None
#     Edge 37, Type (0, 1), None
#     Edge 38, Type (0, 1), None
#     Edge 39, Type (0, 1), None
#     Edge 40, Type (0, 1), None
#     Edge 41, Type (0, 1), None
#     Edge 42, Type (0, 1), None
#     Edge 43, Type (0, 1), None
#     Edge 44, Type (0, 1), None
#     Edge 45, Type (0, 1), None
#     Edge 46, Type (0, 1), None
#     Edge 47, Type (0, 1), None
#     Edge 48, Type (0, 1), None
#     Edge 49, Type (0, 1), None
#     Edge 50, Type (0, 1), None
#     Edge 51, Type (0, 1), None
#     Edge 52, Type (0, 1), None
#     Edge 53, Type (0, 1), None
#     Edge 54, Type (0, 1), None
#     Edge 55, Type (0, 1), None
#     Edge 56, Type (0, 1), None
#     Edge 57, Type (0, 1), None
#     Edge 58, Type (0, 1), None
#     Edge 59, Type (0, 1), None
#     Edge 60, Type (0, 1), None
#     Edge 61, Type (0, 1), None
#     Edge 62, Type (0, 1), None
#     Edge 63, Type (0, 1), None
#     Edge 64, Type (0, 1), None
#     Edge 65, Type (0, 1), None
#     Edge 66, Type (0, 1), None
#     Edge 67, Type (0, 1), None
#     Edge 68, Type (0, 1), None
#     Edge 69, Type (0, 1), None
#     Edge 70, Type (0, 1), None
#     Edge 71, Type (0, 1), None
#     Edge 72, Type (0, 1), None
#     Edge 73, Type (0, 1), None
#     Edge 74, Type (0, 1), None
#     Edge 75, Type (0, 1), None
#     Edge 76, Type (0, 1), None
#     Edge 77, Type (0, 1), None
#     Edge 78, Type (0, 1), None
#     Edge 79, Type (0, 1), None
#     Edge 80, Type (0, 1), None
#     Edge 81, Type (0, 1), None
#     Edge 82, Type (0, 1), None
#     Edge 83, Type (0, 1), None
#     Edge 84, Type (0, 1), None
#     Edge 85, Type (0, 1), None
#     Edge 86, Type (0, 1), None
#     Edge 87, Type (0, 1), None
#     Edge 88, Type (0, 1), None
#     Edge 89, Type (0, 1), None
#     Edge 90, Type (0, 1), None
#     Edge 91, Type (0, 1), None
#     Edge 92, Type (0, 1), None
#     Edge 93, Type (0, 1), None
#     Edge 94, Type (0, 1), None
#     Edge 95, Type (0, 1), None
#     Edge 96, Type (0, 1), None
#     Edge 97, Type (0, 1), None
#     Edge 98, Type (0, 1), None
#     Edge 99, Type (0, 1), None
#     Edge 100, Type (0, 1), None
#     Edge 101, Type (0, 1), None
# Relax obj value: 0.158
# Max RMSD: 0.195
# Mean RMSD: 0.175
data_MOF--net-cor--node1-NAHDIM_clean_sbu_0--node2-MIDCAF_clean_sbu_0--edge1-none
_symmetry_space_group_name_H-M    P1
_symmetry_Int_Tables_number       1
_symmetry_cell_setting            triclinic
loop_
_symmetry_equiv_pos_as_xyz
'x, y, z'
_cell_length_a     18.336277
_cell_length_b     18.151622
_cell_length_c     43.750046
_cell_angle_alpha  91.903587
_cell_angle_beta   88.958283
_cell_angle_gamma 121.92067
loop_
_atom_site_label
_atom_site_type_symbol
_atom_site_fract_x
_atom_site_fract_y
_atom_site_fract_z
_atom_type_partial_charge
C0 C 0.64145 0.1102 0.24447 0.0
O1 O 0.58606 0.03723 0.23038 0.0
O2 O 0.56471 0.91272 0.28763 0.0
Zn3 Zn 0.67856 -0.00533 0.26721 0.0
O4 O 0.67338 0.94888 0.22351 0.0
C5 C 0.81852 0.04056 0.31335 0.0
O6 O 0.81164 0.10309 0.32613 0.0
O7 O 0.69192 0.1105 0.26406 0.0
C8 C 0.72249 0.94202 0.20423 0.0
O9 O 0.69017 0.90367 0.17764 0.0
C10 C 0.52453 0.83547 0.27676 0.0
O11 O 0.55932 0.81393 0.25454 0.0
O12 O 0.77194 -0.00383 0.29063 0.0
C13 C 0.08263 0.65805 0.3117 0.0
O14 O 0.0301 0.62822 0.33515 0.0
O15 O 0.87324 0.59801 0.26464 0.0
Zn16 Zn 0.96222 0.6995 0.2891 0.0
O17 O 0.90954 0.67848 0.33269 0.0
C18 C 0.02526 0.8487 0.24477 0.0
O19 O 0.06616 0.81977 0.22839 0.0
O20 O 0.0676 0.69273 0.28986 0.0
C21 C 0.90496 0.72722 0.35332 0.0
O22 O 0.86452 0.69333 0.379 0.0
C23 C 0.87513 0.55706 0.24081 0.0
O24 O 0.94777 0.58138 0.22659 0.0
O25 O -0.01691 0.80879 0.2685 0.0
C26 C 0.4402 0.3428 0.22039 0.0
O27 O 0.42335 0.38334 0.20005 0.0
O28 O 0.3411 0.42015 0.29336 0.0
Zn29 Zn 0.29764 0.31958 0.26293 0.0
O30 O 0.23398 0.34213 0.23084 0.0
C31 C 0.22448 0.17601 0.30734 0.0
O32 O 0.29068 0.22175 0.32556 0.0
O33 O 0.39649 0.3163 0.2449 0.0
C34 C 0.16481 0.30135 0.21529 0.0
O35 O 0.15008 0.34534 0.19588 0.0
C36 C 0.29134 0.41911 0.31413 0.0
O37 O 0.21963 0.34531 0.31934 0.0
O38 O 0.2192 0.20667 0.28235 0.0
C39 C 0.34756 0.9018 0.79637 0.0
O40 O 0.40296 0.97477 0.81047 0.0
O41 O 0.42431 0.09928 0.75321 0.0
Zn42 Zn 0.31045 0.01733 0.77364 0.0
O43 O 0.31563 0.06312 0.81734 0.0
C44 C 0.17049 0.97144 0.72749 0.0
O45 O 0.17737 0.90891 0.71472 0.0
O46 O 0.29709 0.9015 0.77678 0.0
C47 C 0.26653 0.06998 0.83661 0.0
O48 O 0.29884 0.10833 0.8632 0.0
C49 C 0.46448 0.17653 0.76408 0.0
O50 O 0.42969 0.19807 0.7863 0.0
O51 O 0.21708 0.01583 0.75022 0.0
C52 C 0.90638 0.35395 0.72914 0.0
O53 O 0.95891 0.38378 0.7057 0.0
O54 O 0.11577 0.41399 0.77621 0.0
Zn55 Zn 0.02679 0.3125 0.75175 0.0
O56 O 0.07947 0.33352 0.70815 0.0
C57 C 0.96375 0.1633 0.79608 0.0
O58 O 0.92285 0.19223 0.81246 0.0
O59 O 0.92141 0.31927 0.75098 0.0
C60 C 0.08405 0.28478 0.68752 0.0
O61 O 0.12449 0.31867 0.66184 0.0
C62 C 0.11389 0.45494 0.80004 0.0
O63 O 0.04124 0.43062 0.81425 0.0
O64 O 0.00592 0.20321 0.77234 0.0
C65 C 0.54881 0.6692 0.82045 0.0
O66 O 0.56566 0.62866 0.84079 0.0
O67 O 0.64791 0.59185 0.74749 0.0
Zn68 Zn 0.69138 0.69242 0.77791 0.0
O69 O 0.75503 0.66987 0.81 0.0
C70 C 0.76453 0.83599 0.73351 0.0
O71 O 0.69833 0.79025 0.71529 0.0
O72 O 0.59252 0.6957 0.79595 0.0
C73 C 0.8242 0.71065 0.82556 0.0
O74 O 0.83893 0.66666 0.84496 0.0
C75 C 0.69767 0.59288 0.72672 0.0
O76 O 0.76938 0.66669 0.7215 0.0
O77 O 0.76981 0.80533 0.7585 0.0
C78 C 0.30812 0.44353 0.57781 0.0
O79 O 0.25272 0.37056 0.56371 0.0
O80 O 0.23137 0.24606 0.62096 0.0
Zn81 Zn 0.34523 0.32801 0.60054 0.0
O82 O 0.34005 0.28221 0.55684 0.0
C83 C 0.48519 0.3739 0.64669 0.0
O84 O 0.4783 0.43643 0.65946 0.0
O85 O 0.35858 0.44383 0.59739 0.0
C86 C 0.38915 0.27535 0.53757 0.0
O87 O 0.35684 0.237 0.51098 0.0
C88 C 0.19119 0.16881 0.61009 0.0
O89 O 0.22598 0.14726 0.58788 0.0
O90 O 0.4386 0.3295 0.62396 0.0
C91 C 0.74929 -0.00862 0.64504 0.0
O92 O 0.69677 0.96156 0.66848 0.0
O93 O 0.53991 0.93135 0.59797 0.0
Zn94 Zn 0.62888 0.03283 0.62243 0.0
O95 O 0.5762 0.01181 0.66603 0.0
C96 C 0.69193 0.18204 0.5781 0.0
O97 O 0.73283 0.15311 0.56172 0.0
O98 O 0.73426 0.02606 0.6232 0.0
C99 C 0.57162 0.06055 0.68665 0.0
O100 O 0.53118 0.02667 0.71234 0.0
C101 C 0.54179 0.89039 0.57414 0.0
O102 O 0.61444 0.91472 0.55993 0.0
O103 O 0.64976 0.14213 0.60183 0.0
C104 C 0.10687 0.67614 0.55373 0.0
O105 O 0.09001 0.71668 0.53338 0.0
O106 O 0.00777 0.75349 0.62669 0.0
Zn107 Zn 0.9643 0.65292 0.59626 0.0
O108 O 0.90064 0.67547 0.56418 0.0
C109 C 0.89115 0.50935 0.64067 0.0
O110 O 0.95734 0.55509 0.65889 0.0
O111 O 0.06315 0.64964 0.57823 0.0
C112 C 0.83148 0.63469 0.54862 0.0
O113 O 0.81674 0.67867 0.52922 0.0
C114 C 0.95801 0.75245 0.64746 0.0
O115 O 0.8863 0.67865 0.65268 0.0
O116 O 0.88587 0.54001 0.61568 0.0
C117 C 0.01423 0.23513 0.1297 0.0
O118 O 0.06962 0.3081 0.1438 0.0
O119 O 0.09097 0.43261 0.08655 0.0
Zn120 Zn 0.97712 0.35066 0.10697 0.0
O121 O -0.0177 0.39645 0.15067 0.0
C122 C 0.83716 0.30477 0.06082 0.0
O123 O 0.84404 0.24224 0.04805 0.0
O124 O 0.96376 0.23483 0.11012 0.0
C125 C 0.93319 0.40331 0.16994 0.0
O126 O 0.96551 0.44166 0.19653 0.0
C127 C 0.13115 0.50986 0.09742 0.0
O128 O 0.09636 0.5314 0.11964 0.0
O129 O 0.88374 0.34917 0.08355 0.0
C130 C 0.57305 0.68729 0.06247 0.0
O131 O 0.62558 0.71711 0.03903 0.0
O132 O 0.78244 0.74732 0.10954 0.0
Zn133 Zn 0.69346 0.64584 0.08508 0.0
O134 O 0.74614 0.66685 0.04148 0.0
C135 C 0.63042 0.49663 0.12941 0.0
O136 O 0.58952 0.52556 0.14579 0.0
O137 O 0.58808 0.6526 0.08431 0.0
C138 C 0.75072 0.61812 0.02086 0.0
O139 O 0.79116 0.652 0.99517 0.0
C140 C 0.78055 0.78827 0.13337 0.0
O141 O 0.70791 0.76395 0.14759 0.0
O142 O 0.67258 0.53654 0.10568 0.0
C143 C 0.21547 0.00253 0.15378 0.0
O144 O 0.23233 0.96199 0.17413 0.0
O145 O 0.31458 0.92518 0.08082 0.0
Zn146 Zn 0.35804 0.02575 0.11125 0.0
O147 O 0.4217 0.0032 0.14333 0.0
C148 C 0.43119 0.16932 0.06684 0.0
O149 O 0.365 0.12358 0.04862 0.0
O150 O 0.25919 0.02903 0.12928 0.0
C151 C 0.49086 0.04398 0.15889 0.0
O152 O 0.5056 -0.0 0.17829 0.0
C153 C 0.36434 0.92622 0.06005 0.0
O154 O 0.43605 2e-05 0.05484 0.0
O155 O 0.43648 0.13866 0.09183 0.0
C156 C 0.97479 0.77687 0.91114 0.0
O157 O 0.91939 0.7039 0.89704 0.0
O158 O 0.89804 0.57939 0.9543 0.0
Zn159 Zn 0.01189 0.66134 0.93387 0.0
O160 O 0.00672 0.61555 0.89017 0.0
C161 C 0.15185 0.70723 0.98002 0.0
O162 O 0.14497 0.76976 0.99279 0.0
O163 O 0.02525 0.77716 0.93073 0.0
C164 C 0.05582 0.60868 0.8709 0.0
O165 O 0.02351 0.57034 0.84431 0.0
C166 C 0.85786 0.50214 0.94343 0.0
O167 O 0.89265 0.4806 0.92121 0.0
O168 O 0.10527 0.66283 0.95729 0.0
C169 C 0.41596 0.32471 0.97837 0.0
O170 O 0.36343 0.29489 1.00181 0.0
O171 O 0.20657 0.26468 0.9313 0.0
Zn172 Zn 0.29555 0.36616 0.95576 0.0
O173 O 0.24287 0.34515 0.99936 0.0
C174 C 0.35859 0.51537 0.91143 0.0
O175 O 0.39949 0.48644 0.89506 0.0
O176 O 0.40093 0.3594 0.95653 0.0
C177 C 0.23829 0.39388 1.01999 0.0
O178 O 0.19785 0.36 0.04567 0.0
C179 C 0.20846 0.22373 0.90747 0.0
O180 O 0.2811 0.24805 0.89326 0.0
O181 O 0.31643 0.47546 0.93517 0.0
C182 C 0.77354 0.00947 0.88706 0.0
O183 O 0.75668 0.05001 0.86672 0.0
O184 O 0.67443 0.08682 0.96003 0.0
Zn185 Zn 0.63097 -0.01375 0.9296 0.0
O186 O 0.56731 0.0088 0.89751 0.0
C187 C 0.55782 0.84268 0.974 0.0
O188 O 0.62401 0.88842 0.99223 0.0
O189 O 0.72982 0.98297 0.91157 0.0
C190 C 0.49815 0.96802 0.88195 0.0
O191 O 0.48341 0.012 0.86255 0.0
C192 C 0.62467 0.08578 0.98079 0.0
O193 O 0.55296 0.01198 0.98601 0.0
O194 O 0.55253 0.87334 0.94901 0.0
C195 C 0.6809 0.56847 0.46304 0.0
O196 O 0.7363 0.64144 0.47713 0.0
O197 O 0.75764 0.76595 0.41988 0.0
Zn198 Zn 0.64379 0.684 0.44031 0.0
O199 O 0.64896 0.72978 0.48401 0.0
C200 C 0.50383 0.6381 0.39416 0.0
O201 O 0.51071 0.57557 0.38139 0.0
O202 O 0.63043 0.56817 0.44345 0.0
C203 C 0.59986 0.73664 0.50328 0.0
O204 O 0.63217 0.77499 0.52987 0.0
C205 C 0.79784 0.84319 0.43076 0.0
O206 O 0.76307 0.86473 0.45299 0.0
O207 O 0.55041 0.6825 0.41688 0.0
C208 C 0.23973 0.02062 0.3958 0.0
O209 O 0.29225 0.05044 0.37236 0.0
O210 O 0.44912 0.08066 0.44287 0.0
Zn211 Zn 0.36014 0.97917 0.41841 0.0
O212 O 0.41282 0.00019 0.37482 0.0
C213 C 0.29709 0.82996 0.46274 0.0
O214 O 0.25619 0.85889 0.47912 0.0
O215 O 0.25476 0.98594 0.41764 0.0
C216 C 0.4174 0.95145 0.35419 0.0
O217 O 0.45784 0.98533 0.32851 0.0
C218 C 0.44723 0.12161 0.4667 0.0
O219 O 0.37458 0.09729 0.48092 0.0
O220 O 0.33926 0.86987 0.43901 0.0
C221 C 0.88214 0.33587 0.48712 0.0
O222 O 0.899 0.29533 0.50746 0.0
O223 O -0.01875 0.25851 0.41415 0.0
Zn224 Zn 0.02471 0.35908 0.44458 0.0
O225 O 0.08836 0.33653 0.47667 0.0
C226 C 0.09786 0.50265 0.40017 0.0
O227 O 0.03167 0.45691 0.38195 0.0
O228 O 0.92586 0.36236 0.46261 0.0
C229 C 0.15753 0.37731 0.49222 0.0
O230 O 0.17226 0.33333 0.51163 0.0
C231 C 0.031 0.25955 0.39338 0.0
O232 O 0.10271 0.33335 0.38817 0.0
O233 O 0.10314 0.47199 0.42516 0.0
Zn234 Zn 0.00767 0.01148 0.13303 0.0
Zn235 Zn 0.972 0.05005 0.24111 0.0
Zn236 Zn -0.00719 0.02051 0.18452 0.0
C237 C 0.01858 0.92136 0.23441 0.0
C238 C 0.10252 0.20727 0.21739 0.0
O239 O 0.03624 0.14654 0.16309 0.0
O240 O 0.97369 0.09125 0.11848 0.0
C241 C 0.86123 0.86678 0.14258 0.0
O242 O 0.0466 0.95516 0.2081 0.0
O243 O -0.02226 0.94554 0.25121 0.0
O244 O 0.0811 0.17187 0.24309 0.0
O245 O 0.0644 0.16227 0.19297 0.0
O246 O 0.92647 0.88698 0.12646 0.0
O247 O 0.86696 0.91803 0.16477 0.0
O248 O 0.08641 0.98015 0.17862 0.0
O249 O 0.12988 0.05032 0.13547 0.0
C250 C 0.14183 0.01283 0.15683 0.0
O251 O 0.85535 0.95587 0.19131 0.0
O252 O 0.85214 0.0277 0.23269 0.0
C253 C 0.00859 0.1546 0.13724 0.0
C254 C 0.81364 0.97584 0.21031 0.0
Zn255 Zn -0.01307 0.95831 0.31703 0.0
Zn256 Zn 0.04173 0.05319 0.41772 0.0
Zn257 Zn 0.00417 0.01083 0.36663 0.0
C258 C 0.03356 0.18093 0.38989 0.0
C259 C 0.88115 0.9101 0.41875 0.0
O260 O 0.92883 0.86746 0.36699 0.0
O261 O -0.01324 0.85183 0.32481 0.0
C262 C 0.147 0.09753 0.31748 0.0
O263 O -0.02227 0.11377 0.37429 0.0
O264 O 0.08574 0.17587 0.40681 0.0
O265 O 0.92194 0.98199 0.43317 0.0
O266 O 0.91195 0.89907 0.39357 0.0
O267 O 0.08665 0.05786 0.29856 0.0
O268 O 0.13398 0.07592 0.34572 0.0
O269 O 0.93527 0.06396 0.34539 0.0
O270 O 0.87796 0.95444 0.31188 0.0
C271 C 0.87956 0.01896 0.32446 0.0
O272 O 0.13793 0.04699 0.37322 0.0
O273 O 0.12104 0.00996 0.42148 0.0
C274 C 0.94226 0.8194 0.34834 0.0
C275 C 0.1632 0.02622 0.39691 0.0
Zn276 Zn -0.01866 0.00052 0.90781 0.0
Zn277 Zn 0.01701 0.96195 0.79973 0.0
Zn278 Zn -0.0038 -0.00851 0.85632 0.0
C279 C 0.97044 0.09064 0.80643 0.0
C280 C 0.88649 0.80473 0.82346 0.0
O281 O 0.95277 0.86546 0.87776 0.0
O282 O 0.01532 0.92075 0.92237 0.0
C283 C 0.12778 0.14522 0.89827 0.0
O284 O 0.94241 0.05684 0.83274 0.0
O285 O 0.01127 0.06646 0.78963 0.0
O286 O 0.90791 0.84013 0.79775 0.0
O287 O 0.92462 0.84973 0.84788 0.0
O288 O 0.06254 0.12502 0.91438 0.0
O289 O 0.12205 0.09397 0.87607 0.0
O290 O 0.90261 0.03185 0.86222 0.0
O291 O 0.85914 0.96168 0.90538 0.0
C292 C 0.84718 -0.00083 0.88401 0.0
O293 O 0.13366 0.05613 0.84953 0.0
O294 O 0.13687 0.9843 0.80815 0.0
C295 C -0.01958 0.8574 0.90361 0.0
C296 C 0.17538 0.03616 0.83053 0.0
Zn297 Zn 0.00208 0.05369 0.72382 0.0
Zn298 Zn 0.9473 0.95882 0.62312 0.0
Zn299 Zn -0.01515 0.00117 0.67422 0.0
C300 C 0.95546 0.83107 0.65095 0.0
C301 C 0.10788 0.1019 0.6221 0.0
O302 O 0.06019 0.14454 0.67385 0.0
O303 O 0.00225 0.16017 0.71604 0.0
C304 C 0.84201 0.91446 0.72336 0.0
O305 O 0.01129 0.89823 0.66656 0.0
O306 O 0.90328 0.83613 0.63403 0.0
O307 O 0.0671 0.03001 0.60768 0.0
O308 O 0.07708 0.11293 0.64728 0.0
O309 O 0.90236 0.95414 0.74228 0.0
O310 O 0.85503 0.93607 0.69512 0.0
O311 O 0.05374 0.94804 0.69546 0.0
O312 O 0.11105 0.05756 0.72896 0.0
C313 C 0.10946 -0.00696 0.71638 0.0
O314 O 0.85109 0.965 0.66762 0.0
O315 O 0.86799 0.00205 0.61937 0.0
C316 C 0.04675 0.1926 0.69251 0.0
C317 C 0.82583 0.98578 0.64393 0.0
Zn318 Zn 0.63867 0.38339 0.57445 0.0
Zn319 Zn 0.67435 0.34482 0.46637 0.0
Zn320 Zn 0.65948 0.35385 0.51785 0.0
C321 C 0.8085 0.34617 0.49017 0.0
C322 C 0.5279 0.20012 0.47591 0.0
O323 O 0.52202 0.28921 0.52465 0.0
O324 O 0.51881 0.36103 0.56602 0.0
C325 C 0.76918 0.5406 0.55072 0.0
O326 O 0.75307 0.31349 0.51195 0.0
O327 O 0.79655 0.38366 0.4688 0.0
O328 O 0.59315 0.22032 0.45979 0.0
O329 O 0.53363 0.25137 0.49811 0.0
O330 O 0.74777 0.5052 0.57643 0.0
O331 O 0.73106 0.4956 0.5263 0.0
O332 O 0.71327 0.2885 0.54144 0.0
O333 O 0.64441 0.27888 0.58455 0.0
C334 C 0.68524 0.25469 0.56774 0.0
O335 O 0.70291 0.47987 0.49642 0.0
O336 O 0.64036 0.42459 0.45181 0.0
C337 C 0.4803 0.30917 0.54364 0.0
C338 C 0.67526 0.48794 0.47057 0.0
Zn339 Zn 0.70838 0.38652 0.75105 0.0
Zn340 Zn 0.65359 0.29165 0.65036 0.0
Zn341 Zn 0.67083 0.34417 0.69996 0.0
C342 C 0.54622 0.3523 0.6578 0.0
C343 C 0.81367 0.43087 0.65082 0.0
O344 O 0.80459 0.38033 0.70655 0.0
O345 O 0.78769 0.34328 0.75481 0.0
C346 C 0.5478 0.24343 0.75208 0.0
O347 O 0.60194 0.39729 0.67872 0.0
O348 O 0.54463 0.28778 0.64522 0.0
O349 O 0.75332 0.3912 0.6319 0.0
O350 O 0.80065 0.40926 0.67906 0.0
O351 O 0.58858 0.31532 0.76649 0.0
O352 O 0.5786 0.2324 0.7269 0.0
O353 O 0.64439 0.44711 0.70762 0.0
O354 O 0.7524 0.5092 0.74015 0.0
C355 C 0.70022 0.51426 0.72323 0.0
O356 O 0.59549 0.2008 0.70032 0.0
O357 O 0.65342 0.18517 0.65814 0.0
C358 C 0.82985 0.35956 0.73025 0.0
C359 C 0.60893 0.15273 0.68167 0.0
Zn360 Zn 0.648 0.33385 0.24114 0.0
Zn361 Zn 0.68367 0.29528 0.13307 0.0
Zn362 Zn 0.66287 0.32482 0.18966 0.0
C363 C 0.6371 0.42397 0.13977 0.0
C364 C 0.55316 0.13807 0.15679 0.0
O365 O 0.61944 0.19879 0.21109 0.0
O366 O 0.68198 0.25408 0.2557 0.0
C367 C 0.79445 0.47855 0.2316 0.0
O368 O 0.60908 0.39017 0.16608 0.0
O369 O 0.67794 0.39979 0.12296 0.0
O370 O 0.57458 0.17347 0.13108 0.0
O371 O 0.59128 0.18306 0.18121 0.0
O372 O 0.72921 0.45835 0.24772 0.0
O373 O 0.78872 0.4273 0.2094 0.0
O374 O 0.56927 0.36518 0.19556 0.0
O375 O 0.5258 0.29501 0.23871 0.0
C376 C 0.51385 0.3325 0.21735 0.0
O377 O 0.80032 0.38946 0.18287 0.0
O378 O 0.80354 0.31763 0.14149 0.0
C379 C 0.64709 0.19073 0.23694 0.0
C380 C 0.84204 0.36949 0.16387 0.0
Zn381 Zn 0.66875 0.38702 0.05715 0.0
Zn382 Zn 0.61397 0.29215 0.95646 0.0
Zn383 Zn 0.65152 0.3345 1.00755 0.0
C384 C 0.62213 0.1644 0.98429 0.0
C385 C 0.77454 0.43523 0.95543 0.0
O386 O 0.72685 0.47787 1.00719 0.0
O387 O 0.66892 0.4935 0.04937 0.0
C388 C 0.50868 0.2478 0.05669 0.0
O389 O 0.67795 0.23156 0.99989 0.0
O390 O 0.56994 0.16946 0.96736 0.0
O391 O 0.73376 0.36335 0.94102 0.0
O392 O 0.74374 0.44626 0.98061 0.0
O393 O 0.56903 0.28747 0.07561 0.0
O394 O 0.5217 0.26941 0.02845 0.0
O395 O 0.72041 0.28137 0.02879 0.0
O396 O 0.77772 0.39089 0.06229 0.0
C397 C 0.77612 0.32637 0.04971 0.0
O398 O 0.51775 0.29834 1.00096 0.0
O399 O 0.53466 0.33538 0.9527 0.0
C400 C 0.71342 0.52593 0.02584 0.0
C401 C 0.49249 0.31911 0.97726 0.0
Zn402 Zn 0.30534 0.71672 0.90778 0.0
Zn403 Zn 0.34101 0.67815 0.7997 0.0
Zn404 Zn 0.32614 0.68718 0.85119 0.0
C405 C 0.47516 0.6795 0.8235 0.0
C406 C 0.19456 0.53345 0.80925 0.0
O407 O 0.18869 0.62254 0.85798 0.0
O408 O 0.18547 0.69437 0.89936 0.0
C409 C 0.43585 0.87393 0.88406 0.0
O410 O 0.41974 0.64682 0.84529 0.0
O411 O 0.46321 0.71699 0.80213 0.0
O412 O 0.2598 0.55365 0.79313 0.0
O413 O 0.20029 0.5847 0.83144 0.0
O414 O 0.41443 0.83853 0.90976 0.0
O415 O 0.39773 0.82894 0.85963 0.0
O416 O 0.37993 0.62183 0.87477 0.0
O417 O 0.31108 0.61221 0.91788 0.0
C418 C 0.35191 0.58802 0.90108 0.0
O419 O 0.36957 0.8132 0.82976 0.0
O420 O 0.30703 0.75792 0.78514 0.0
C421 C 0.14697 0.64251 0.87698 0.0
C422 C 0.34192 0.82127 0.80391 0.0
Zn423 Zn 0.37504 0.71985 0.08439 0.0
Zn424 Zn 0.32026 0.62498 0.98369 0.0
Zn425 Zn 0.33749 0.6775 0.0333 0.0
C426 C 0.21289 0.68563 0.99113 0.0
C427 C 0.48033 0.7642 0.98415 0.0
O428 O 0.47126 0.71366 0.03989 0.0
O429 O 0.45435 0.67661 0.08814 0.0
C430 C 0.21447 0.57677 0.08541 0.0
O431 O 0.2686 0.73063 1.01205 0.0
O432 O 0.21129 0.62111 0.97855 0.0
O433 O 0.41998 0.72453 0.96523 0.0
O434 O 0.46731 0.74259 1.01239 0.0
O435 O 0.25525 0.64865 0.09983 0.0
O436 O 0.24527 0.56574 0.06024 0.0
O437 O 0.31106 0.78044 0.04095 0.0
O438 O 0.41907 0.84254 0.07348 0.0
C439 C 0.36689 0.8476 0.05656 0.0
O440 O 0.26216 0.53413 0.03366 0.0
O441 O 0.32009 0.5185 0.99148 0.0
C442 C 0.49652 0.69289 0.06358 0.0
C443 C 0.27559 0.48607 1.015 0.0
Zn444 Zn 0.31467 0.66718 0.57448 0.0
Zn445 Zn 0.35034 0.62861 0.4664 0.0
Zn446 Zn 0.32953 0.65815 0.52299 0.0
C447 C 0.30377 0.75731 0.4731 0.0
C448 C 0.21982 0.4714 0.49012 0.0
O449 O 0.2861 0.53213 0.54442 0.0
O450 O 0.34865 0.58742 0.58903 0.0
C451 C 0.46112 0.81188 0.56493 0.0
O452 O 0.27574 0.72351 0.49941 0.0
O453 O 0.3446 0.73312 0.4563 0.0
O454 O 0.24124 0.5068 0.46442 0.0
O455 O 0.25795 0.5164 0.51454 0.0
O456 O 0.39587 0.79168 0.58105 0.0
O457 O 0.45538 0.76063 0.54274 0.0
O458 O 0.23594 0.69852 0.52889 0.0
O459 O 0.19247 0.62834 0.57204 0.0
C460 C 0.18052 0.66583 0.55068 0.0
O461 O 0.46699 0.72279 0.5162 0.0
O462 O 0.4702 0.65096 0.47482 0.0
C463 C 0.31376 0.52406 0.57027 0.0
C464 C 0.50871 0.70282 0.4972 0.0
Zn465 Zn 0.28064 0.62548 0.28979 0.0
Zn466 Zn 0.33542 0.72035 0.39048 0.0
Zn467 Zn 0.31819 0.66783 0.34088 0.0
C468 C 0.44279 0.6597 0.38305 0.0
C469 C 0.17535 0.58113 0.39003 0.0
O470 O 0.18442 0.63167 0.33429 0.0
O471 O 0.20132 0.66871 0.28603 0.0
C472 C 0.44121 0.76856 0.28876 0.0
O473 O 0.38707 0.6147 0.36213 0.0
O474 O 0.44438 0.72422 0.39563 0.0
O475 O 0.23569 0.6208 0.40895 0.0
O476 O 0.18837 0.60274 0.36179 0.0
O477 O 0.40043 0.69668 0.27435 0.0
O478 O 0.41041 0.77959 0.31394 0.0
O479 O 0.34462 0.56489 0.33322 0.0
O480 O 0.23661 0.50279 0.3007 0.0
C481 C 0.28879 0.49773 0.31762 0.0
O482 O 0.39352 0.8112 0.34052 0.0
O483 O 0.33559 0.82683 0.3827 0.0
C484 C 0.15916 0.65244 0.31059 0.0
C485 C 0.38009 0.85927 0.35917 0.0
loop_
_geom_bond_atom_site_label_1
_geom_bond_atom_site_label_2
_geom_bond_distance
_geom_bond_site_symmetry_2
_ccdc_geom_bond_type
C0 O1 1.160 . S
C0 O7 1.185 . S
O1 C0 1.160 . S
O2 Zn3 1.899 1_565 S
O2 C10 1.284 . S
Zn3 O2 1.899 1_545 S
Zn3 O4 2.032 . S
Zn3 O7 2.086 . S
Zn3 O12 1.977 . S
O4 Zn3 2.032 . S
O4 C8 1.278 1_545 S
C5 O6 1.203 1_545 S
C5 O12 1.267 . S
O6 C5 1.203 1_565 S
O7 C0 1.185 . S
O7 Zn3 2.086 . S
C8 O4 1.278 1_565 S
C8 O9 1.211 . S
O9 C8 1.211 . S
C10 O2 1.284 . S
C10 O11 1.273 . S
O11 C10 1.273 . S
O12 Zn3 1.977 . S
O12 C5 1.267 . S
C13 O14 1.160 . S
C13 O20 1.185 . S
O14 C13 1.160 . S
O15 Zn16 1.899 1_655 S
O15 C23 1.284 . S
Zn16 O15 1.899 1_455 S
Zn16 O17 2.032 . S
Zn16 O20 2.086 . S
Zn16 O25 1.977 . S
O17 Zn16 2.032 . S
O17 C21 1.278 1_455 S
C18 O19 1.203 1_455 S
C18 O25 1.267 . S
O19 C18 1.203 1_655 S
O20 C13 1.185 . S
O20 Zn16 2.086 . S
C21 O17 1.278 1_655 S
C21 O22 1.211 . S
O22 C21 1.211 . S
C23 O15 1.284 . S
C23 O24 1.273 . S
O24 C23 1.273 . S
O25 Zn16 1.977 . S
O25 C18 1.267 . S
C26 O27 1.160 . S
C26 O33 1.185 . S
O27 C26 1.160 . S
O28 Zn29 1.899 . S
O28 C36 1.284 . S
Zn29 O28 1.899 . S
Zn29 O30 2.032 . S
Zn29 O33 2.086 . S
Zn29 O38 1.977 . S
O30 Zn29 2.032 . S
O30 C34 1.278 . S
C31 O32 1.203 . S
C31 O38 1.267 . S
O32 C31 1.203 . S
O33 C26 1.185 . S
O33 Zn29 2.086 . S
C34 O30 1.278 . S
C34 O35 1.211 . S
O35 C34 1.211 . S
C36 O28 1.284 . S
C36 O37 1.273 . S
O37 C36 1.273 . S
O38 Zn29 1.977 . S
O38 C31 1.267 . S
C39 O40 1.160 . S
C39 O46 1.185 . S
O40 C39 1.160 . S
O41 Zn42 1.899 . S
O41 C49 1.284 . S
Zn42 O41 1.899 . S
Zn42 O43 2.032 . S
Zn42 O46 2.086 1_545 S
Zn42 O51 1.977 1_545 S
O43 Zn42 2.032 . S
O43 C47 1.278 . S
C44 O45 1.203 . S
C44 O51 1.267 1_545 S
O45 C44 1.203 . S
O46 C39 1.185 . S
O46 Zn42 2.086 1_565 S
C47 O43 1.278 . S
C47 O48 1.211 . S
O48 C47 1.211 . S
C49 O41 1.284 . S
C49 O50 1.273 . S
O50 C49 1.273 . S
O51 Zn42 1.977 1_565 S
O51 C44 1.267 1_565 S
C52 O53 1.160 . S
C52 O59 1.185 . S
O53 C52 1.160 . S
O54 Zn55 1.899 . S
O54 C62 1.284 . S
Zn55 O54 1.899 . S
Zn55 O56 2.032 . S
Zn55 O59 2.086 1_455 S
Zn55 O64 1.977 1_455 S
O56 Zn55 2.032 . S
O56 C60 1.278 . S
C57 O58 1.203 . S
C57 O64 1.267 1_455 S
O58 C57 1.203 . S
O59 C52 1.185 . S
O59 Zn55 2.086 1_655 S
C60 O56 1.278 . S
C60 O61 1.211 . S
O61 C60 1.211 . S
C62 O54 1.284 . S
C62 O63 1.273 . S
O63 C62 1.273 . S
O64 Zn55 1.977 1_655 S
O64 C57 1.267 1_655 S
C65 O66 1.160 . S
C65 O72 1.185 . S
O66 C65 1.160 . S
O67 Zn68 1.899 . S
O67 C75 1.284 . S
Zn68 O67 1.899 . S
Zn68 O69 2.032 . S
Zn68 O72 2.086 . S
Zn68 O77 1.977 . S
O69 Zn68 2.032 . S
O69 C73 1.278 . S
C70 O71 1.203 . S
C70 O77 1.267 . S
O71 C70 1.203 . S
O72 C65 1.185 . S
O72 Zn68 2.086 . S
C73 O69 1.278 . S
C73 O74 1.211 . S
O74 C73 1.211 . S
C75 O67 1.284 . S
C75 O76 1.273 . S
O76 C75 1.273 . S
O77 Zn68 1.977 . S
O77 C70 1.267 . S
C78 O79 1.160 . S
C78 O85 1.185 . S
O79 C78 1.160 . S
O80 Zn81 1.899 . S
O80 C88 1.284 . S
Zn81 O80 1.899 . S
Zn81 O82 2.032 . S
Zn81 O85 2.086 . S
Zn81 O90 1.977 . S
O82 Zn81 2.032 . S
O82 C86 1.278 . S
C83 O84 1.203 . S
C83 O90 1.267 . S
O84 C83 1.203 . S
O85 C78 1.185 . S
O85 Zn81 2.086 . S
C86 O82 1.278 . S
C86 O87 1.211 . S
O87 C86 1.211 . S
C88 O80 1.284 . S
C88 O89 1.273 . S
O89 C88 1.273 . S
O90 Zn81 1.977 . S
O90 C83 1.267 . S
C91 O92 1.160 1_545 S
C91 O98 1.185 . S
O92 C91 1.160 1_565 S
O93 Zn94 1.899 1_565 S
O93 C101 1.284 . S
Zn94 O93 1.899 1_545 S
Zn94 O95 2.032 . S
Zn94 O98 2.086 . S
Zn94 O103 1.977 . S
O95 Zn94 2.032 . S
O95 C99 1.278 . S
C96 O97 1.203 . S
C96 O103 1.267 . S
O97 C96 1.203 . S
O98 C91 1.185 . S
O98 Zn94 2.086 . S
C99 O95 1.278 . S
C99 O100 1.211 . S
O100 C99 1.211 . S
C101 O93 1.284 . S
C101 O102 1.273 . S
O102 C101 1.273 . S
O103 Zn94 1.977 . S
O103 C96 1.267 . S
C104 O105 1.160 . S
C104 O111 1.185 . S
O105 C104 1.160 . S
O106 Zn107 1.899 1_455 S
O106 C114 1.284 1_455 S
Zn107 O106 1.899 1_655 S
Zn107 O108 2.032 . S
Zn107 O111 2.086 1_655 S
Zn107 O116 1.977 . S
O108 Zn107 2.032 . S
O108 C112 1.278 . S
C109 O110 1.203 . S
C109 O116 1.267 . S
O110 C109 1.203 . S
O111 C104 1.185 . S
O111 Zn107 2.086 1_455 S
C112 O108 1.278 . S
C112 O113 1.211 . S
O113 C112 1.211 . S
C114 O106 1.284 1_655 S
C114 O115 1.273 . S
O115 C114 1.273 . S
O116 Zn107 1.977 . S
O116 C109 1.267 . S
C117 O118 1.160 . S
C117 O124 1.185 1_455 S
O118 C117 1.160 . S
O119 Zn120 1.899 1_455 S
O119 C127 1.284 . S
Zn120 O119 1.899 1_655 S
Zn120 O121 2.032 . S
Zn120 O124 2.086 . S
Zn120 O129 1.977 . S
O121 Zn120 2.032 . S
O121 C125 1.278 . S
C122 O123 1.203 . S
C122 O129 1.267 . S
O123 C122 1.203 . S
O124 C117 1.185 1_655 S
O124 Zn120 2.086 . S
C125 O121 1.278 . S
C125 O126 1.211 . S
O126 C125 1.211 . S
C127 O119 1.284 . S
C127 O128 1.273 . S
O128 C127 1.273 . S
O129 Zn120 1.977 . S
O129 C122 1.267 . S
C130 O131 1.160 . S
C130 O137 1.185 . S
O131 C130 1.160 . S
O132 Zn133 1.899 . S
O132 C140 1.284 . S
Zn133 O132 1.899 . S
Zn133 O134 2.032 . S
Zn133 O137 2.086 . S
Zn133 O142 1.977 . S
O134 Zn133 2.032 . S
O134 C138 1.278 . S
C135 O136 1.203 . S
C135 O142 1.267 . S
O136 C135 1.203 . S
O137 C130 1.185 . S
O137 Zn133 2.086 . S
C138 O134 1.278 . S
C138 O139 1.211 . S
O139 C138 1.211 . S
C140 O132 1.284 . S
C140 O141 1.273 . S
O141 C140 1.273 . S
O142 Zn133 1.977 . S
O142 C135 1.267 . S
C143 O144 1.160 1_545 S
C143 O150 1.185 . S
O144 C143 1.160 1_565 S
O145 Zn146 1.899 1_565 S
O145 C153 1.284 . S
Zn146 O145 1.899 1_545 S
Zn146 O147 2.032 . S
Zn146 O150 2.086 . S
Zn146 O155 1.977 . S
O147 Zn146 2.032 . S
O147 C151 1.278 . S
C148 O149 1.203 . S
C148 O155 1.267 . S
O149 C148 1.203 . S
O150 C143 1.185 . S
O150 Zn146 2.086 . S
C151 O147 1.278 . S
C151 O152 1.211 . S
O152 C151 1.211 . S
C153 O145 1.284 . S
C153 O154 1.273 . S
O154 C153 1.273 . S
O155 Zn146 1.977 . S
O155 C148 1.267 . S
C156 O157 1.160 1_455 S
C156 O163 1.185 . S
O157 C156 1.160 1_655 S
O158 Zn159 1.899 1_655 S
O158 C166 1.284 . S
Zn159 O158 1.899 1_455 S
Zn159 O160 2.032 . S
Zn159 O163 2.086 . S
Zn159 O168 1.977 . S
O160 Zn159 2.032 . S
O160 C164 1.278 . S
C161 O162 1.203 . S
C161 O168 1.267 . S
O162 C161 1.203 . S
O163 C156 1.185 . S
O163 Zn159 2.086 . S
C164 O160 1.278 . S
C164 O165 1.211 . S
O165 C164 1.211 . S
C166 O158 1.284 . S
C166 O167 1.273 . S
O167 C166 1.273 . S
O168 Zn159 1.977 . S
O168 C161 1.267 . S
C169 O170 1.160 . S
C169 O176 1.185 . S
O170 C169 1.160 . S
O171 Zn172 1.899 . S
O171 C179 1.284 . S
Zn172 O171 1.899 . S
Zn172 O173 2.032 . S
Zn172 O176 2.086 . S
Zn172 O181 1.977 . S
O173 Zn172 2.032 . S
O173 C177 1.278 . S
C174 O175 1.203 . S
C174 O181 1.267 . S
O175 C174 1.203 . S
O176 C169 1.185 . S
O176 Zn172 2.086 . S
C177 O173 1.278 . S
C177 O178 1.211 . S
O178 C177 1.211 . S
C179 O171 1.284 . S
C179 O180 1.273 . S
O180 C179 1.273 . S
O181 Zn172 1.977 . S
O181 C174 1.267 . S
C182 O183 1.160 . S
C182 O189 1.185 1_545 S
O183 C182 1.160 . S
O184 Zn185 1.899 1_545 S
O184 C192 1.284 . S
Zn185 O184 1.899 1_565 S
Zn185 O186 2.032 . S
Zn185 O189 2.086 . S
Zn185 O194 1.977 . S
O186 Zn185 2.032 . S
O186 C190 1.278 . S
C187 O188 1.203 . S
C187 O194 1.267 . S
O188 C187 1.203 . S
O189 C182 1.185 1_565 S
O189 Zn185 2.086 . S
C190 O186 1.278 . S
C190 O191 1.211 . S
O191 C190 1.211 . S
C192 O184 1.284 . S
C192 O193 1.273 . S
O193 C192 1.273 . S
O194 Zn185 1.977 . S
O194 C187 1.267 . S
C195 O196 1.160 . S
C195 O202 1.185 . S
O196 C195 1.160 . S
O197 Zn198 1.899 . S
O197 C205 1.284 . S
Zn198 O197 1.899 . S
Zn198 O199 2.032 . S
Zn198 O202 2.086 . S
Zn198 O207 1.977 . S
O199 Zn198 2.032 . S
O199 C203 1.278 . S
C200 O201 1.203 . S
C200 O207 1.267 . S
O201 C200 1.203 . S
O202 C195 1.185 . S
O202 Zn198 2.086 . S
C203 O199 1.278 . S
C203 O204 1.211 . S
O204 C203 1.211 . S
C205 O197 1.284 . S
C205 O206 1.273 . S
O206 C205 1.273 . S
O207 Zn198 1.977 . S
O207 C200 1.267 . S
C208 O209 1.160 . S
C208 O215 1.185 1_545 S
O209 C208 1.160 . S
O210 Zn211 1.899 1_545 S
O210 C218 1.284 . S
Zn211 O210 1.899 1_565 S
Zn211 O212 2.032 . S
Zn211 O215 2.086 . S
Zn211 O220 1.977 . S
O212 Zn211 2.032 . S
O212 C216 1.278 . S
C213 O214 1.203 . S
C213 O220 1.267 . S
O214 C213 1.203 . S
O215 C208 1.185 1_565 S
O215 Zn211 2.086 . S
C216 O212 1.278 . S
C216 O217 1.211 . S
O217 C216 1.211 . S
C218 O210 1.284 . S
C218 O219 1.273 . S
O219 C218 1.273 . S
O220 Zn211 1.977 . S
O220 C213 1.267 . S
C221 O222 1.160 . S
C221 O228 1.185 . S
O222 C221 1.160 . S
O223 Zn224 1.899 . S
O223 C231 1.284 . S
Zn224 O223 1.899 . S
Zn224 O225 2.032 . S
Zn224 O228 2.086 1_455 S
Zn224 O233 1.977 . S
O225 Zn224 2.032 . S
O225 C229 1.278 . S
C226 O227 1.203 . S
C226 O233 1.267 . S
O227 C226 1.203 . S
O228 C221 1.185 . S
O228 Zn224 2.086 1_655 S
C229 O225 1.278 . S
C229 O230 1.211 . S
O230 C229 1.211 . S
C231 O223 1.284 . S
C231 O232 1.273 . S
O232 C231 1.273 . S
O233 Zn224 1.977 . S
O233 C226 1.267 . S
Zn234 O240 1.920 1_455 S
Zn234 O246 1.898 1_445 S
Zn234 O249 1.905 . S
Zn235 O243 1.905 1_445 S
Zn235 O244 1.898 . S
Zn235 O252 1.920 1_455 S
Zn236 O239 2.080 . S
Zn236 O242 2.114 1_545 S
Zn236 O245 2.120 . S
Zn236 O247 2.120 1_445 S
Zn236 O248 2.114 . S
Zn236 O251 2.080 1_455 S
C237 O242 1.166 1_655 S
C237 O243 1.182 . S
C238 O244 1.167 . S
C238 O245 1.299 . S
O239 Zn236 2.080 . S
O239 C253 1.305 1_455 S
O240 Zn234 1.920 1_655 S
O240 C253 1.234 . S
C241 O246 1.167 . S
C241 O247 1.299 . S
O242 Zn236 2.114 1_565 S
O242 C237 1.166 1_455 S
O243 Zn235 1.905 1_665 S
O243 C237 1.182 . S
O244 Zn235 1.898 . S
O244 C238 1.167 . S
O245 Zn236 2.120 . S
O245 C238 1.299 . S
O246 Zn234 1.898 1_665 S
O246 C241 1.167 . S
O247 Zn236 2.120 1_665 S
O247 C241 1.299 . S
O248 Zn236 2.114 . S
O248 C250 1.166 . S
O249 Zn234 1.905 . S
O249 C250 1.182 . S
C250 O248 1.166 . S
C250 O249 1.182 . S
O251 Zn236 2.080 1_655 S
O251 C254 1.305 . S
O252 Zn235 1.920 1_655 S
O252 C254 1.234 . S
C253 O239 1.305 1_655 S
C253 O240 1.234 . S
C254 O251 1.305 . S
C254 O252 1.234 . S
Zn255 O261 1.920 1_545 S
Zn255 O267 1.898 . S
Zn255 O270 1.905 1_445 S
Zn256 O264 1.905 . S
Zn256 O265 1.898 1_445 S
Zn256 O273 1.920 1_545 S
Zn257 O260 2.080 1_445 S
Zn257 O263 2.114 . S
Zn257 O266 2.120 1_445 S
Zn257 O268 2.120 . S
Zn257 O269 2.114 1_455 S
Zn257 O272 2.080 . S
C258 O263 1.166 . S
C258 O264 1.182 . S
C259 O265 1.167 . S
C259 O266 1.299 . S
O260 Zn257 2.080 1_665 S
O260 C274 1.305 1_655 S
O261 Zn255 1.920 1_565 S
O261 C274 1.234 . S
C262 O267 1.167 . S
C262 O268 1.299 . S
O263 Zn257 2.114 . S
O263 C258 1.166 . S
O264 Zn256 1.905 . S
O264 C258 1.182 . S
O265 Zn256 1.898 1_665 S
O265 C259 1.167 . S
O266 Zn257 2.120 1_665 S
O266 C259 1.299 . S
O267 Zn255 1.898 . S
O267 C262 1.167 . S
O268 Zn257 2.120 . S
O268 C262 1.299 . S
O269 Zn257 2.114 1_655 S
O269 C271 1.166 1_545 S
O270 Zn255 1.905 1_665 S
O270 C271 1.182 . S
C271 O269 1.166 1_565 S
C271 O270 1.182 . S
O272 Zn257 2.080 . S
O272 C275 1.305 1_545 S
O273 Zn256 1.920 1_565 S
O273 C275 1.234 . S
C274 O260 1.305 1_455 S
C274 O261 1.234 . S
C275 O272 1.305 1_565 S
C275 O273 1.234 . S
Zn276 O282 1.920 1_545 S
Zn276 O288 1.898 . S
Zn276 O291 1.905 1_445 S
Zn277 O285 1.905 . S
Zn277 O286 1.898 1_445 S
Zn277 O294 1.920 1_545 S
Zn278 O281 2.080 1_545 S
Zn278 O284 2.114 . S
Zn278 O287 2.120 1_445 S
Zn278 O289 2.120 . S
Zn278 O290 2.114 1_455 S
Zn278 O293 2.080 . S
C279 O284 1.166 . S
C279 O285 1.182 . S
C280 O286 1.167 . S
C280 O287 1.299 . S
O281 Zn278 2.080 1_565 S
O281 C295 1.305 . S
O282 Zn276 1.920 1_565 S
O282 C295 1.234 . S
C283 O288 1.167 . S
C283 O289 1.299 . S
O284 Zn278 2.114 . S
O284 C279 1.166 . S
O285 Zn277 1.905 . S
O285 C279 1.182 . S
O286 Zn277 1.898 1_665 S
O286 C280 1.167 . S
O287 Zn278 2.120 1_665 S
O287 C280 1.299 . S
O288 Zn276 1.898 . S
O288 C283 1.167 . S
O289 Zn278 2.120 . S
O289 C283 1.299 . S
O290 Zn278 2.114 1_655 S
O290 C292 1.166 1_545 S
O291 Zn276 1.905 1_665 S
O291 C292 1.182 . S
C292 O290 1.166 1_565 S
C292 O291 1.182 . S
O293 Zn278 2.080 . S
O293 C296 1.305 1_545 S
O294 Zn277 1.920 1_565 S
O294 C296 1.234 . S
C295 O281 1.305 . S
C295 O282 1.234 . S
C296 O293 1.305 1_565 S
C296 O294 1.234 . S
Zn297 O303 1.920 1_455 S
Zn297 O309 1.898 1_445 S
Zn297 O312 1.905 . S
Zn298 O306 1.905 1_445 S
Zn298 O307 1.898 . S
Zn298 O315 1.920 1_455 S
Zn299 O302 2.080 . S
Zn299 O305 2.114 1_545 S
Zn299 O308 2.120 . S
Zn299 O310 2.120 1_445 S
Zn299 O311 2.114 . S
Zn299 O314 2.080 1_455 S
C300 O305 1.166 1_655 S
C300 O306 1.182 . S
C301 O307 1.167 . S
C301 O308 1.299 . S
O302 Zn299 2.080 . S
O302 C316 1.311 . S
O303 Zn297 1.920 1_655 S
O303 C316 1.235 1_655 S
C304 O309 1.167 . S
C304 O310 1.299 . S
O305 Zn299 2.114 1_565 S
O305 C300 1.166 1_455 S
O306 Zn298 1.905 1_665 S
O306 C300 1.182 . S
O307 Zn298 1.898 . S
O307 C301 1.167 . S
O308 Zn299 2.120 . S
O308 C301 1.299 . S
O309 Zn297 1.898 1_665 S
O309 C304 1.167 . S
O310 Zn299 2.120 1_665 S
O310 C304 1.299 . S
O311 Zn299 2.114 . S
O311 C313 1.166 . S
O312 Zn297 1.905 . S
O312 C313 1.182 . S
C313 O311 1.166 . S
C313 O312 1.182 . S
O314 Zn299 2.080 1_655 S
O314 C317 1.305 . S
O315 Zn298 1.920 1_655 S
O315 C317 1.234 . S
C316 O302 1.311 . S
C316 O303 1.235 1_455 S
C317 O314 1.305 . S
C317 O315 1.234 . S
Zn318 O324 1.920 . S
Zn318 O330 1.898 . S
Zn318 O333 1.905 . S
Zn319 O327 1.905 . S
Zn319 O328 1.898 . S
Zn319 O336 1.920 . S
Zn320 O323 2.080 . S
Zn320 O326 2.114 . S
Zn320 O329 2.120 . S
Zn320 O331 2.120 . S
Zn320 O332 2.114 . S
Zn320 O335 2.080 . S
C321 O326 1.166 . S
C321 O327 1.182 . S
C322 O328 1.167 . S
C322 O329 1.299 . S
O323 Zn320 2.080 . S
O323 C337 1.305 . S
O324 Zn318 1.920 . S
O324 C337 1.234 . S
C325 O330 1.167 . S
C325 O331 1.299 . S
O326 Zn320 2.114 . S
O326 C321 1.166 . S
O327 Zn319 1.905 . S
O327 C321 1.182 . S
O328 Zn319 1.898 . S
O328 C322 1.167 . S
O329 Zn320 2.120 . S
O329 C322 1.299 . S
O330 Zn318 1.898 . S
O330 C325 1.167 . S
O331 Zn320 2.120 . S
O331 C325 1.299 . S
O332 Zn320 2.114 . S
O332 C334 1.166 . S
O333 Zn318 1.905 . S
O333 C334 1.182 . S
C334 O332 1.166 . S
C334 O333 1.182 . S
O335 Zn320 2.080 . S
O335 C338 1.305 . S
O336 Zn319 1.920 . S
O336 C338 1.234 . S
C337 O323 1.305 . S
C337 O324 1.234 . S
C338 O335 1.305 . S
C338 O336 1.234 . S
Zn339 O345 1.920 . S
Zn339 O351 1.898 . S
Zn339 O354 1.905 . S
Zn340 O348 1.905 . S
Zn340 O349 1.898 . S
Zn340 O357 1.920 . S
Zn341 O344 2.080 . S
Zn341 O347 2.114 . S
Zn341 O350 2.120 . S
Zn341 O352 2.120 . S
Zn341 O353 2.114 . S
Zn341 O356 2.080 . S
C342 O347 1.166 . S
C342 O348 1.182 . S
C343 O349 1.167 . S
C343 O350 1.299 . S
O344 Zn341 2.080 . S
O344 C358 1.305 . S
O345 Zn339 1.920 . S
O345 C358 1.234 . S
C346 O351 1.167 . S
C346 O352 1.299 . S
O347 Zn341 2.114 . S
O347 C342 1.166 . S
O348 Zn340 1.905 . S
O348 C342 1.182 . S
O349 Zn340 1.898 . S
O349 C343 1.167 . S
O350 Zn341 2.120 . S
O350 C343 1.299 . S
O351 Zn339 1.898 . S
O351 C346 1.167 . S
O352 Zn341 2.120 . S
O352 C346 1.299 . S
O353 Zn341 2.114 . S
O353 C355 1.166 . S
O354 Zn339 1.905 . S
O354 C355 1.182 . S
C355 O353 1.166 . S
C355 O354 1.182 . S
O356 Zn341 2.080 . S
O356 C359 1.305 . S
O357 Zn340 1.920 . S
O357 C359 1.234 . S
C358 O344 1.305 . S
C358 O345 1.234 . S
C359 O356 1.305 . S
C359 O357 1.234 . S
Zn360 O366 1.920 . S
Zn360 O372 1.898 . S
Zn360 O375 1.905 . S
Zn361 O369 1.905 . S
Zn361 O370 1.898 . S
Zn361 O378 1.920 . S
Zn362 O365 2.080 . S
Zn362 O368 2.114 . S
Zn362 O371 2.120 . S
Zn362 O373 2.120 . S
Zn362 O374 2.114 . S
Zn362 O377 2.080 . S
C363 O368 1.166 . S
C363 O369 1.182 . S
C364 O370 1.167 . S
C364 O371 1.299 . S
O365 Zn362 2.080 . S
O365 C379 1.305 . S
O366 Zn360 1.920 . S
O366 C379 1.234 . S
C367 O372 1.167 . S
C367 O373 1.299 . S
O368 Zn362 2.114 . S
O368 C363 1.166 . S
O369 Zn361 1.905 . S
O369 C363 1.182 . S
O370 Zn361 1.898 . S
O370 C364 1.167 . S
O371 Zn362 2.120 . S
O371 C364 1.299 . S
O372 Zn360 1.898 . S
O372 C367 1.167 . S
O373 Zn362 2.120 . S
O373 C367 1.299 . S
O374 Zn362 2.114 . S
O374 C376 1.166 . S
O375 Zn360 1.905 . S
O375 C376 1.182 . S
C376 O374 1.166 . S
C376 O375 1.182 . S
O377 Zn362 2.080 . S
O377 C380 1.305 . S
O378 Zn361 1.920 . S
O378 C380 1.234 . S
C379 O365 1.305 . S
C379 O366 1.234 . S
C380 O377 1.305 . S
C380 O378 1.234 . S
Zn381 O387 1.920 . S
Zn381 O393 1.898 . S
Zn381 O396 1.905 . S
Zn382 O390 1.905 . S
Zn382 O391 1.898 . S
Zn382 O399 1.920 . S
Zn383 O386 2.080 1_556 S
Zn383 O389 2.114 . S
Zn383 O392 2.120 . S
Zn383 O394 2.120 1_556 S
Zn383 O395 2.114 1_556 S
Zn383 O398 2.080 . S
C384 O389 1.166 . S
C384 O390 1.182 . S
C385 O391 1.167 . S
C385 O392 1.299 . S
O386 Zn383 2.080 1_554 S
O386 C400 1.305 . S
O387 Zn381 1.920 . S
O387 C400 1.234 . S
C388 O393 1.167 . S
C388 O394 1.299 . S
O389 Zn383 2.114 . S
O389 C384 1.166 . S
O390 Zn382 1.905 . S
O390 C384 1.182 . S
O391 Zn382 1.898 . S
O391 C385 1.167 . S
O392 Zn383 2.120 . S
O392 C385 1.299 . S
O393 Zn381 1.898 . S
O393 C388 1.167 . S
O394 Zn383 2.120 1_554 S
O394 C388 1.299 . S
O395 Zn383 2.114 1_554 S
O395 C397 1.166 . S
O396 Zn381 1.905 . S
O396 C397 1.182 . S
C397 O395 1.166 . S
C397 O396 1.182 . S
O398 Zn383 2.080 . S
O398 C401 1.305 . S
O399 Zn382 1.920 . S
O399 C401 1.234 . S
C400 O386 1.305 . S
C400 O387 1.234 . S
C401 O398 1.305 . S
C401 O399 1.234 . S
Zn402 O408 1.920 . S
Zn402 O414 1.898 . S
Zn402 O417 1.905 . S
Zn403 O411 1.905 . S
Zn403 O412 1.898 . S
Zn403 O420 1.920 . S
Zn404 O407 2.080 . S
Zn404 O410 2.114 . S
Zn404 O413 2.120 . S
Zn404 O415 2.120 . S
Zn404 O416 2.114 . S
Zn404 O419 2.080 . S
C405 O410 1.166 . S
C405 O411 1.182 . S
C406 O412 1.167 . S
C406 O413 1.299 . S
O407 Zn404 2.080 . S
O407 C421 1.305 . S
O408 Zn402 1.920 . S
O408 C421 1.234 . S
C409 O414 1.167 . S
C409 O415 1.299 . S
O410 Zn404 2.114 . S
O410 C405 1.166 . S
O411 Zn403 1.905 . S
O411 C405 1.182 . S
O412 Zn403 1.898 . S
O412 C406 1.167 . S
O413 Zn404 2.120 . S
O413 C406 1.299 . S
O414 Zn402 1.898 . S
O414 C409 1.167 . S
O415 Zn404 2.120 . S
O415 C409 1.299 . S
O416 Zn404 2.114 . S
O416 C418 1.166 . S
O417 Zn402 1.905 . S
O417 C418 1.182 . S
C418 O416 1.166 . S
C418 O417 1.182 . S
O419 Zn404 2.080 . S
O419 C422 1.305 . S
O420 Zn403 1.920 . S
O420 C422 1.234 . S
C421 O407 1.305 . S
C421 O408 1.234 . S
C422 O419 1.305 . S
C422 O420 1.234 . S
Zn423 O429 1.920 . S
Zn423 O435 1.898 . S
Zn423 O438 1.905 . S
Zn424 O432 1.905 . S
Zn424 O433 1.898 . S
Zn424 O441 1.920 . S
Zn425 O428 2.080 . S
Zn425 O431 2.114 1_554 S
Zn425 O434 2.120 1_554 S
Zn425 O436 2.120 . S
Zn425 O437 2.114 . S
Zn425 O440 2.080 1_554 S
C426 O431 1.166 . S
C426 O432 1.182 . S
C427 O433 1.167 . S
C427 O434 1.299 . S
O428 Zn425 2.080 . S
O428 C442 1.305 . S
O429 Zn423 1.920 . S
O429 C442 1.234 . S
C430 O435 1.167 . S
C430 O436 1.299 . S
O431 Zn425 2.114 1_556 S
O431 C426 1.166 . S
O432 Zn424 1.905 . S
O432 C426 1.182 . S
O433 Zn424 1.898 . S
O433 C427 1.167 . S
O434 Zn425 2.120 1_556 S
O434 C427 1.299 . S
O435 Zn423 1.898 . S
O435 C430 1.167 . S
O436 Zn425 2.120 . S
O436 C430 1.299 . S
O437 Zn425 2.114 . S
O437 C439 1.166 . S
O438 Zn423 1.905 . S
O438 C439 1.182 . S
C439 O437 1.166 . S
C439 O438 1.182 . S
O440 Zn425 2.080 1_556 S
O440 C443 1.305 . S
O441 Zn424 1.920 . S
O441 C443 1.234 . S
C442 O428 1.305 . S
C442 O429 1.234 . S
C443 O440 1.305 . S
C443 O441 1.234 . S
Zn444 O450 1.920 . S
Zn444 O456 1.898 . S
Zn444 O459 1.905 . S
Zn445 O453 1.905 . S
Zn445 O454 1.898 . S
Zn445 O462 1.920 . S
Zn446 O449 2.080 . S
Zn446 O452 2.114 . S
Zn446 O455 2.120 . S
Zn446 O457 2.120 . S
Zn446 O458 2.114 . S
Zn446 O461 2.080 . S
C447 O452 1.166 . S
C447 O453 1.182 . S
C448 O454 1.167 . S
C448 O455 1.299 . S
O449 Zn446 2.080 . S
O449 C463 1.305 . S
O450 Zn444 1.920 . S
O450 C463 1.234 . S
C451 O456 1.167 . S
C451 O457 1.299 . S
O452 Zn446 2.114 . S
O452 C447 1.166 . S
O453 Zn445 1.905 . S
O453 C447 1.182 . S
O454 Zn445 1.898 . S
O454 C448 1.167 . S
O455 Zn446 2.120 . S
O455 C448 1.299 . S
O456 Zn444 1.898 . S
O456 C451 1.167 . S
O457 Zn446 2.120 . S
O457 C451 1.299 . S
O458 Zn446 2.114 . S
O458 C460 1.166 . S
O459 Zn444 1.905 . S
O459 C460 1.182 . S
C460 O458 1.166 . S
C460 O459 1.182 . S
O461 Zn446 2.080 . S
O461 C464 1.305 . S
O462 Zn445 1.920 . S
O462 C464 1.234 . S
C463 O449 1.305 . S
C463 O450 1.234 . S
C464 O461 1.305 . S
C464 O462 1.234 . S
Zn465 O471 1.920 . S
Zn465 O477 1.898 . S
Zn465 O480 1.905 . S
Zn466 O474 1.905 . S
Zn466 O475 1.898 . S
Zn466 O483 1.920 . S
Zn467 O470 2.080 . S
Zn467 O473 2.114 . S
Zn467 O476 2.120 . S
Zn467 O478 2.120 . S
Zn467 O479 2.114 . S
Zn467 O482 2.080 . S
C468 O473 1.166 . S
C468 O474 1.182 . S
C469 O475 1.167 . S
C469 O476 1.299 . S
O470 Zn467 2.080 . S
O470 C484 1.305 . S
O471 Zn465 1.920 . S
O471 C484 1.234 . S
C472 O477 1.167 . S
C472 O478 1.299 . S
O473 Zn467 2.114 . S
O473 C468 1.166 . S
O474 Zn466 1.905 . S
O474 C468 1.182 . S
O475 Zn466 1.898 . S
O475 C469 1.167 . S
O476 Zn467 2.120 . S
O476 C469 1.299 . S
O477 Zn465 1.898 . S
O477 C472 1.167 . S
O478 Zn467 2.120 . S
O478 C472 1.299 . S
O479 Zn467 2.114 . S
O479 C481 1.166 . S
O480 Zn465 1.905 . S
O480 C481 1.182 . S
C481 O479 1.166 . S
C481 O480 1.182 . S
O482 Zn467 2.080 . S
O482 C485 1.305 . S
O483 Zn466 1.920 . S
O483 C485 1.234 . S
C484 O470 1.305 . S
C484 O471 1.234 . S
C485 O482 1.305 . S
C485 O483 1.234 . S
C34 C238 1.303 . S
C8 C254 1.379 1_565 S
C237 C18 1.197 1_655 S
C262 C31 1.146 . S
C5 C271 1.234 1_545 S
C274 C21 1.282 1_455 S
C73 C280 1.303 . S
C296 C47 1.380 1_565 S
C279 C57 1.198 . S
C70 C304 1.146 . S
C313 C44 1.234 . S
C316 C60 1.285 . S
C325 C112 1.303 . S
C337 C86 1.379 . S
C334 C96 1.198 . S
C109 C343 1.146 . S
C342 C83 1.234 . S
C99 C359 1.283 . S
C364 C151 1.303 . S
C380 C125 1.379 . S
C135 C363 1.198 . S
C388 C148 1.146 . S
C397 C122 1.234 . S
C138 C400 1.282 . S
C190 C409 1.303 . S
C421 C164 1.380 . S
C418 C174 1.198 . S
C187 C427 1.146 . S
C426 C161 1.234 . S
C177 C443 1.282 . S
C448 C229 1.303 . S
C464 C203 1.379 . S
C213 C447 1.198 . S
C469 C226 1.146 . S
C468 C200 1.234 . S
C485 C216 1.282 . S
C250 C143 1.508 . S
C117 C253 1.489 1_455 S
C241 C140 1.339 . S
C231 C258 1.463 . S
C205 C259 1.449 . S
C275 C208 1.569 1_565 S
C292 C182 1.508 1_565 S
C295 C156 1.489 . S
C179 C283 1.339 . S
C300 C114 1.463 . S
C88 C301 1.448 . S
C91 C317 1.569 . S
C221 C321 1.508 . S
C195 C338 1.489 . S
C322 C218 1.339 . S
C355 C75 1.463 . S
C346 C49 1.448 . S
C52 C358 1.568 . S
C376 C26 1.508 . S
C379 C0 1.489 . S
C23 C367 1.339 . S
C384 C192 1.463 . S
C385 C166 1.448 . S
C401 C169 1.568 . S
C405 C65 1.508 . S
C422 C39 1.489 . S
C62 C406 1.339 . S
C153 C439 1.463 . S
C127 C430 1.448 . S
C442 C130 1.569 . S
C104 C460 1.508 . S
C78 C463 1.489 . S
C451 C101 1.339 . S
C481 C36 1.463 . S
C472 C10 1.448 . S
C13 C484 1.569 . S
