# Generated by pormake.
# Topology zzz, (3,6)-cn, num edge types: 1
# Building blocks:
#     Node 0, Type 0, BuildingBlock: WUSLED_clean_sbu_0, # of connection points: 3
#     Node 1, Type 0, BuildingBlock: WUSLED_clean_sbu_0, # of connection points: 3
#     Node 2, Type 0, BuildingBlock: WUSLED_clean_sbu_0, # of connection points: 3
#     Node 3, Type 0, BuildingBlock: WUSLED_clean_sbu_0, # of connection points: 3
#     Node 4, Type 0, BuildingBlock: WUSLED_clean_sbu_0, # of connection points: 3
#     Node 5, Type 0, BuildingBlock: WUSLED_clean_sbu_0, # of connection points: 3
#     Node 6, Type 0, BuildingBlock: WUSLED_clean_sbu_0, # of connection points: 3
#     Node 7, Type 0, BuildingBlock: WUSLED_clean_sbu_0, # of connection points: 3
#     Node 8, Type 1, BuildingBlock: LEVNOQ01_clean_sbu_1, # of connection points: 6
#     Node 9, Type 1, BuildingBlock: LEVNOQ01_clean_sbu_1, # of connection points: 6
#     Node 10, Type 1, BuildingBlock: LEVNOQ01_clean_sbu_1, # of connection points: 6
#     Node 11, Type 1, BuildingBlock: LEVNOQ01_clean_sbu_1, # of connection points: 6
#     Edge 12, Type (0, 1), None
#     Edge 13, Type (0, 1), None
#     Edge 14, Type (0, 1), None
#     Edge 15, Type (0, 1), None
#     Edge 16, Type (0, 1), None
#     Edge 17, Type (0, 1), None
#     Edge 18, Type (0, 1), None
#     Edge 19, Type (0, 1), None
#     Edge 20, Type (0, 1), None
#     Edge 21, Type (0, 1), None
#     Edge 22, Type (0, 1), None
#     Edge 23, Type (0, 1), None
#     Edge 24, Type (0, 1), None
#     Edge 25, Type (0, 1), None
#     Edge 26, Type (0, 1), None
#     Edge 27, Type (0, 1), None
#     Edge 28, Type (0, 1), None
#     Edge 29, Type (0, 1), None
#     Edge 30, Type (0, 1), None
#     Edge 31, Type (0, 1), None
#     Edge 32, Type (0, 1), None
#     Edge 33, Type (0, 1), None
#     Edge 34, Type (0, 1), None
#     Edge 35, Type (0, 1), None
# Relax obj value: 0.287
# Max RMSD: 0.213
# Mean RMSD: 0.199
data_MOF--net-zzz--node1-WUSLED_clean_sbu_0--node2-LEVNOQ01_clean_sbu_1--edge1-none
_symmetry_space_group_name_H-M    P1
_symmetry_Int_Tables_number       1
_symmetry_cell_setting            triclinic
loop_
_symmetry_equiv_pos_as_xyz
'x, y, z'
_cell_length_a     33.997065
_cell_length_b     35.580759
_cell_length_c     12.940703
_cell_angle_alpha  89.903867
_cell_angle_beta   90.018277
_cell_angle_gamma 88.274443
loop_
_atom_site_label
_atom_site_type_symbol
_atom_site_fract_x
_atom_site_fract_y
_atom_site_fract_z
_atom_type_partial_charge
C0 C 0.82413 0.57605 0.43032 0.0
C1 C 0.85962 0.56646 0.37893 0.0
C2 C 0.89018 0.54682 0.54285 0.0
C3 C 0.89256 0.55207 0.435 0.0
C4 C 0.85535 0.55849 0.5935 0.0
C5 C 0.82296 0.57301 0.5382 0.0
U6 U 0.75457 0.58867 0.1899 0.0
O7 O 0.69546 0.5656 0.18581 0.0
O8 O 0.70244 0.62535 0.15371 0.0
C9 C 0.67859 0.59684 0.15169 0.0
C10 C 0.78634 0.58472 0.37581 0.0
C11 C 0.65484 0.59147 0.05684 0.0
C12 C 0.5932 0.57081 0.98128 0.0
C13 C 0.6141 0.58609 0.06437 0.0
C14 C 0.65286 0.56877 0.87958 0.0
C15 C 0.6128 0.56035 0.88967 0.0
C16 C 0.67364 0.58419 0.9621 0.0
C17 C 0.8433 0.56303 0.02478 0.0
C18 C 0.90183 0.56142 0.91926 0.0
C19 C 0.89496 0.51585 0.0572 0.0
C20 C 0.85925 0.53332 0.08494 0.0
C21 C 0.91549 0.5286 0.97093 0.0
C22 C 0.86566 0.57819 0.94523 0.0
C23 C 0.80183 0.57483 0.03497 0.0
O24 O 0.78257 0.61636 0.3233 0.0
O25 O 0.77029 0.55624 0.32922 0.0
O26 O 0.79463 0.60911 0.06931 0.0
O27 O 0.77908 0.54954 0.07555 0.0
H28 H 0.8613 0.56851 0.29559 0.0
H29 H 0.91878 0.54287 0.39352 0.0
H30 H 0.85245 0.55463 0.67623 0.0
H31 H 0.79606 0.58003 0.57972 0.0
H32 H 0.56276 0.56378 0.99245 0.0
H33 H 0.59904 0.591 0.13709 0.0
H34 H 0.6689 0.56081 0.81026 0.0
H35 H 0.70506 0.58769 0.95446 0.0
H36 H 0.91693 0.5719 0.8518 0.0
H37 H 0.90501 0.49081 0.09828 0.0
H38 H 0.84276 0.52171 0.14843 0.0
H39 H 0.85395 0.60124 0.89847 0.0
C40 C 0.99519 0.83823 0.38088 0.0
C41 C 0.02725 0.85919 0.34781 0.0
C42 C 0.01386 0.90634 0.48187 0.0
C43 C 0.03665 0.89262 0.39831 0.0
C44 C 0.98036 0.88657 0.51066 0.0
C45 C 0.97132 0.8527 0.46111 0.0
U46 U 1.00353 0.7649 0.16305 0.0
O47 O 0.96313 0.72149 0.10997 0.0
O48 O 0.02125 0.70482 0.16985 0.0
C49 C 0.98966 0.69409 0.12069 0.0
C50 C 0.98821 0.80018 0.33815 0.0
C51 C 0.99739 0.67079 0.02739 0.0
C52 C 1.00103 0.60951 0.94236 0.0
C53 C 0.9902 0.63208 0.02754 0.0
C54 C 0.02525 0.66426 0.85465 0.0
C55 C 0.01952 0.62523 0.85579 0.0
C56 C 0.01419 0.68677 0.93917 0.0
C57 C 0.04818 0.84385 0.00398 0.0
C58 C 0.09256 0.88627 0.92032 0.0
C59 C 0.03147 0.91061 0.99405 0.0
C60 C 0.02293 0.87454 0.0288 0.0
C61 C 0.0654 0.91644 0.93498 0.0
C62 C 0.08376 0.85022 0.95364 0.0
C63 C 0.03635 0.80487 0.01898 0.0
O64 O 0.96255 0.79815 0.26243 0.0
O65 O 0.01988 0.77878 0.32263 0.0
O66 O 0.99828 0.79965 0.02373 0.0
O67 O 0.05692 0.78477 0.0863 0.0
H68 H 0.04598 0.84895 0.28556 0.0
H69 H 0.06264 0.90718 0.37409 0.0
H70 H 0.96253 0.89602 0.57547 0.0
H71 H 0.94647 0.83707 0.48814 0.0
H72 H 0.9971 0.57949 0.94703 0.0
H73 H 0.97744 0.61907 0.09491 0.0
H74 H 0.03966 0.67724 0.78965 0.0
H75 H 0.02002 0.71654 0.9371 0.0
H76 H 0.11893 0.88964 0.87471 0.0
H77 H 0.01032 0.93341 0.00733 0.0
H78 H 0.99553 0.87036 0.06936 0.0
H79 H 0.10366 0.82692 0.93428 0.0
C80 C 0.68569 0.94661 0.43323 0.0
C81 C 0.64993 0.95614 0.3829 0.0
C82 C 0.61993 0.97506 0.54781 0.0
C83 C 0.61714 0.97014 0.43998 0.0
C84 C 0.65498 0.9633 0.59746 0.0
C85 C 0.68724 0.94917 0.54113 0.0
U86 U 0.75436 0.9342 0.19103 0.0
O87 O 0.81267 0.95883 0.1845 0.0
O88 O 0.8074 0.8987 0.15539 0.0
C89 C 0.83041 0.92783 0.15194 0.0
C90 C 0.72336 0.93867 0.37765 0.0
C91 C 0.85406 0.93333 0.05701 0.0
C92 C 0.91579 0.95381 0.98159 0.0
C93 C 0.89486 0.93834 0.06443 0.0
C94 C 0.85601 0.95681 0.8803 0.0
C95 C 0.89618 0.96481 0.89035 0.0
C96 C 0.8352 0.94118 0.96256 0.0
C97 C 0.66427 0.95684 0.02828 0.0
C98 C 0.60524 0.95791 0.9245 0.0
C99 C 0.61224 1.00342 0.06208 0.0
C100 C 0.64824 0.9863 0.08884 0.0
C101 C 0.59159 0.9907 0.97602 0.0
C102 C 0.64168 0.94142 0.94965 0.0
C103 C 0.70602 0.9458 0.03689 0.0
O104 O 0.72787 0.90672 0.32716 0.0
O105 O 0.73819 0.96728 0.32853 0.0
O106 O 0.71419 0.91194 0.07332 0.0
O107 O 0.72851 0.97185 0.07456 0.0
H108 H 0.64793 0.95434 0.29961 0.0
H109 H 0.59071 0.97934 0.39926 0.0
H110 H 0.65816 0.96679 0.68022 0.0
H111 H 0.71433 0.94213 0.58188 0.0
H112 H 0.94631 0.96055 0.99276 0.0
H113 H 0.90996 0.93301 0.13696 0.0
H114 H 0.83997 0.96522 0.81126 0.0
H115 H 0.80373 0.93798 0.95506 0.0
H116 H 0.58999 0.94736 0.85744 0.0
H117 H 0.6022 0.0284 0.10321 0.0
H118 H 0.66493 0.99813 0.15156 0.0
H119 H 0.65343 0.9185 0.90273 0.0
C120 C 0.5086 0.68512 0.38034 0.0
C121 C 0.47638 0.66396 0.3496 0.0
C122 C 0.49181 0.61662 0.48213 0.0
C123 C 0.46791 0.63031 0.40053 0.0
C124 C 0.52541 0.63663 0.50851 0.0
C125 C 0.53352 0.67069 0.45857 0.0
U126 U 0.49948 0.758 0.16102 0.0
O127 O 0.53958 0.80181 0.10894 0.0
O128 O 0.48086 0.81787 0.16574 0.0
C129 C 0.51269 0.82893 0.11823 0.0
C130 C 0.51487 0.72324 0.33706 0.0
C131 C 0.50554 0.85225 0.0246 0.0
C132 C 0.50352 0.91345 0.93875 0.0
C133 C 0.51329 0.89082 0.02477 0.0
C134 C 0.47918 0.85901 0.85024 0.0
C135 C 0.48564 0.89792 0.85118 0.0
C136 C 0.48914 0.83643 0.93572 0.0
C137 C 0.45725 0.67783 1.00291 0.0
C138 C 0.41402 0.63408 0.92065 0.0
C139 C 0.47587 0.61146 0.99421 0.0
C140 C 0.48338 0.64782 0.02816 0.0
C141 C 0.44205 0.60464 0.93565 0.0
C142 C 0.42181 0.67044 0.95308 0.0
C143 C 0.46805 0.71716 0.01692 0.0
O144 O 0.54073 0.72561 0.26195 0.0
O145 O 0.48285 0.74405 0.32043 0.0
O146 O 0.50594 0.72323 0.02238 0.0
O147 O 0.44681 0.73702 0.08316 0.0
H148 H 0.45687 0.67414 0.28881 0.0
H149 H 0.44184 0.61555 0.37814 0.0
H150 H 0.5441 0.62715 0.57176 0.0
H151 H 0.55853 0.68647 0.48371 0.0
H152 H 0.50784 0.94339 0.94341 0.0
H153 H 0.52574 0.90369 0.09267 0.0
H154 H 0.46513 0.8462 0.78451 0.0
H155 H 0.4829 0.80675 0.9337 0.0
H156 H 0.38771 0.62992 0.87536 0.0
H157 H 0.49769 0.58924 0.00767 0.0
H158 H 0.51069 0.65277 0.06838 0.0
H159 H 0.40123 0.69319 0.93341 0.0
C160 C 0.18853 0.43181 0.00492 0.0
C161 C 0.15224 0.43999 0.05415 0.0
C162 C 0.12443 0.46445 0.8917 0.0
C163 C 0.12022 0.456 0.99758 0.0
C164 C 0.16006 0.45415 0.84278 0.0
C165 C 0.19147 0.43799 0.89838 0.0
U166 U 0.25589 0.41535 0.24807 0.0
O167 O 0.31498 0.43823 0.25292 0.0
O168 O 0.30781 0.37862 0.28645 0.0
C169 C 0.33155 0.40723 0.2893 0.0
C170 C 0.2255 0.42173 0.06123 0.0
C171 C 0.35378 0.41364 0.38596 0.0
C172 C 0.41158 0.44171 0.463 0.0
C173 C 0.39379 0.42254 0.38111 0.0
C174 C 0.35073 0.43987 0.55935 0.0
C175 C 0.38936 0.45266 0.55007 0.0
C176 C 0.33313 0.42051 0.47827 0.0
C177 C 0.16713 0.44193 0.41209 0.0
C178 C 0.1103 0.44853 0.52251 0.0
C179 C 0.11763 0.49096 0.3773 0.0
C180 C 0.15195 0.47114 0.34887 0.0
C181 C 0.09768 0.48095 0.46725 0.0
C182 C 0.14509 0.42941 0.49567 0.0
C183 C 0.20818 0.42891 0.40223 0.0
O184 O 0.24165 0.44943 0.11097 0.0
O185 O 0.22821 0.38948 0.1113 0.0
O186 O 0.23178 0.45394 0.36409 0.0
O187 O 0.21448 0.39483 0.36549 0.0
H188 H 0.1492 0.43549 0.13648 0.0
H189 H 0.09325 0.46383 0.03767 0.0
H190 H 0.16427 0.46013 0.76143 0.0
H191 H 0.21902 0.43208 0.85861 0.0
H192 H 0.4411 0.45171 0.45284 0.0
H193 H 0.41021 0.41794 0.31029 0.0
H194 H 0.3328 0.44812 0.62521 0.0
H195 H 0.30217 0.41434 0.48373 0.0
H196 H 0.09561 0.44011 0.59281 0.0
H197 H 0.10831 0.5156 0.3334 0.0
H198 H 0.16833 0.48071 0.28256 0.0
H199 H 0.15625 0.40683 0.54491 0.0
C200 C 0.0251 0.18663 0.03581 0.0
C201 C 0.04836 0.15324 0.04531 0.0
C202 C 0.00672 0.12115 0.92056 0.0
C203 C 0.03931 0.12083 0.98797 0.0
C204 C 0.98374 0.1546 0.91195 0.0
C205 C 0.9929 0.1867 0.96779 0.0
U206 U 0.02563 0.25492 0.27089 0.0
O207 O 0.00687 0.31463 0.26716 0.0
O208 O 0.06605 0.29886 0.32129 0.0
C209 C 0.03869 0.32573 0.3143 0.0
C210 C 0.03474 0.22252 0.08896 0.0
C211 C 0.03074 0.348 0.40918 0.0
C212 C 0.01844 0.40877 0.49217 0.0
C213 C 0.03233 0.38741 0.40765 0.0
C214 C 1.00287 0.35156 0.58248 0.0
C215 C 1.00279 0.39109 0.57971 0.0
C216 C 0.01678 0.33026 0.49839 0.0
C217 C 0.98354 0.17655 0.43989 0.0
C218 C 0.95179 0.13384 0.55629 0.0
C219 C 0.98663 0.10933 0.40608 0.0
C220 C 0.99552 0.1461 0.37706 0.0
C221 C 0.96487 0.10311 0.49629 0.0
C222 C 0.96127 0.17024 0.52861 0.0
C223 C 0.99615 0.21481 0.42013 0.0
O224 O 1.00436 0.24435 0.11398 0.0
O225 O 0.06256 0.22203 0.1599 0.0
O226 O 0.97424 0.23505 0.35611 0.0
O227 O 0.03413 0.21851 0.40631 0.0
H228 H 0.07369 0.15222 0.09611 0.0
H229 H 0.05768 0.09562 0.9966 0.0
H230 H 0.95871 0.15637 0.86013 0.0
H231 H 0.97478 0.21194 0.95647 0.0
H232 H 0.01732 0.43907 0.48567 0.0
H233 H 0.04243 0.40176 0.33915 0.0
H234 H 0.99048 0.3371 0.64804 0.0
H235 H 0.01485 0.29994 0.50104 0.0
H236 H 0.93634 0.1295 0.62842 0.0
H237 H 0.99785 0.08585 0.36058 0.0
H238 H 0.013 0.15065 0.3084 0.0
H239 H 0.95245 0.19338 0.57874 0.0
C240 C 0.32089 0.09102 1.00218 0.0
C241 C 0.35735 0.08277 0.05058 0.0
C242 C 0.38474 0.05903 0.8872 0.0
C243 C 0.38923 0.06706 0.99317 0.0
C244 C 0.34899 0.06956 0.83904 0.0
C245 C 0.31769 0.0854 0.89553 0.0
U246 U 0.25431 0.10732 0.24683 0.0
O247 O 0.19596 0.08299 0.25395 0.0
O248 O 0.20155 0.14296 0.28472 0.0
C249 C 0.17859 0.11379 0.28889 0.0
C250 C 0.28401 0.10043 0.05947 0.0
C251 C 0.15648 0.10729 0.38568 0.0
C252 C 0.09854 0.07944 0.46274 0.0
C253 C 0.11636 0.09877 0.38106 0.0
C254 C 0.15961 0.08031 0.55844 0.0
C255 C 0.12084 0.06793 0.5493 0.0
C256 C 0.17724 0.09988 0.47762 0.0
C257 C 0.34441 0.08356 0.40837 0.0
C258 C 0.40197 0.07762 0.51673 0.0
C259 C 0.39415 0.0349 0.3728 0.0
C260 C 0.35954 0.05441 0.3452 0.0
C261 C 0.41438 0.04505 0.46215 0.0
C262 C 0.36688 0.09648 0.49063 0.0
C263 C 0.30307 0.09588 0.40012 0.0
O264 O 0.26903 0.07261 0.11159 0.0
O265 O 0.28056 0.13297 0.10756 0.0
O266 O 0.2797 0.07014 0.36485 0.0
O267 O 0.29583 0.12957 0.36141 0.0
H268 H 0.36062 0.08698 0.1329 0.0
H269 H 0.41633 0.05912 0.03266 0.0
H270 H 0.34458 0.06401 0.75758 0.0
H271 H 0.29002 0.09143 0.85635 0.0
H272 H 0.06887 0.06977 0.45268 0.0
H273 H 0.09985 0.10379 0.31049 0.0
H274 H 0.1776 0.0716 0.62388 0.0
H275 H 0.20827 0.10576 0.48285 0.0
H276 H 0.41692 0.08623 0.58639 0.0
H277 H 0.4033 0.01018 0.32929 0.0
H278 H 0.34282 0.04449 0.27996 0.0
H279 H 0.35579 0.11907 0.53974 0.0
C280 C 0.49042 0.33609 0.03656 0.0
C281 C 0.46604 0.36878 0.04477 0.0
C282 C 0.50688 0.4019 0.92027 0.0
C283 C 0.47414 0.40135 0.98696 0.0
C284 C 0.5311 0.3692 0.91317 0.0
C285 C 0.52287 0.33691 0.96957 0.0
U286 U 0.49103 0.26806 0.27248 0.0
O287 O 0.51038 0.20849 0.2708 0.0
O288 O 0.45081 0.22391 0.3226 0.0
C289 C 0.47835 0.19721 0.31666 0.0
C290 C 0.48157 0.30001 0.0899 0.0
C291 C 0.48573 0.17484 0.4117 0.0
C292 C 0.49656 0.11391 0.49527 0.0
C293 C 0.48375 0.13548 0.40992 0.0
C294 C 0.51192 0.17084 0.58678 0.0
C295 C 0.5114 0.13133 0.58404 0.0
C296 C 0.49913 0.19236 0.50172 0.0
C297 C 0.53141 0.34776 0.43817 0.0
C298 C 0.56447 0.39148 0.54871 0.0
C299 C 0.52378 0.415 0.40732 0.0
C300 C 0.51605 0.37795 0.37894 0.0
C301 C 0.54774 0.42188 0.49311 0.0
C302 C 0.55615 0.35472 0.52181 0.0
C303 C 0.51965 0.30906 0.42072 0.0
O304 O 0.51236 0.27878 0.11559 0.0
O305 O 0.45366 0.30005 0.16051 0.0
O306 O 0.54199 0.28883 0.35788 0.0
O307 O 0.48178 0.30454 0.40704 0.0
H308 H 0.4405 0.3691 0.09481 0.0
H309 H 0.45487 0.42598 0.99447 0.0
H310 H 0.55634 0.36815 0.86206 0.0
H311 H 0.54188 0.3122 0.95938 0.0
H312 H 0.49746 0.08363 0.48868 0.0
H313 H 0.47411 0.12131 0.34077 0.0
H314 H 0.5238 0.18508 0.65327 0.0
H315 H 0.50135 0.22265 0.5045 0.0
H316 H 0.58174 0.39623 0.61767 0.0
H317 H 0.50987 0.43814 0.36523 0.0
H318 H 0.49674 0.37293 0.31409 0.0
H319 H 0.56768 0.33177 0.56918 0.0
O320 O 0.0996 0.95497 0.81979 0.0
Mg321 Mg 0.09126 0.97526 0.66923 0.0
O322 O 0.0362 0.96645 0.83806 0.0
Mg323 Mg 0.01292 0.01042 0.71715 0.0
O324 O 0.07361 0.02997 0.64425 0.0
O325 O 0.13502 0.00716 0.61601 0.0
O326 O 0.99295 0.05476 0.59411 0.0
O327 O 0.01984 0.0603 0.83887 0.0
Mg328 Mg 0.93963 0.04327 0.72862 0.0
O329 O 0.95114 0.99109 0.79317 0.0
O330 O 0.92975 0.05451 0.57086 0.0
O331 O 0.96153 0.08821 0.81757 0.0
O332 O 0.89161 0.02063 0.79078 0.0
C333 C 0.02876 0.93733 0.54735 0.0
C334 C 0.06797 0.94997 0.86826 0.0
C335 C 0.10938 0.03457 0.60992 0.0
C336 C 0.96287 0.06576 0.54311 0.0
C337 C 0.99566 0.08785 0.85745 0.0
C338 C 0.91375 0.99235 0.81853 0.0
O339 O 0.06565 0.93843 0.56134 0.0
O340 O 0.00531 0.96032 0.59529 0.0
O341 O 0.39901 0.00942 0.77159 0.0
Mg342 Mg 0.42771 0.9678 0.67552 0.0
O343 O 0.45061 0.04111 0.82739 0.0
Mg344 Mg 0.50201 0.01573 0.71926 0.0
O345 O 0.47951 0.95608 0.75044 0.0
O346 O 0.43505 0.91256 0.72765 0.0
O347 O 0.55393 0.99097 0.61107 0.0
O348 O 0.54157 1.00111 0.8551 0.0
Mg349 Mg 0.57687 0.06686 0.75855 0.0
O350 O 0.52389 0.07499 0.68889 0.0
O351 O 0.60489 0.02486 0.6618 0.0
O352 O 0.57103 0.05034 0.91592 0.0
O353 O 0.56517 0.12143 0.70142 0.0
C354 C 0.44146 0.01802 0.5136 0.0
C355 C 0.41345 0.03509 0.82749 0.0
C356 C 0.46758 0.92244 0.76958 0.0
C357 C 0.59083 0.99834 0.60819 0.0
C358 C 0.56301 0.01587 0.92309 0.0
C359 C 0.53286 0.10897 0.66444 0.0
O360 O 0.43215 0.98386 0.5174 0.0
O361 O 0.46304 0.031 0.58382 0.0
O362 O 0.5505 0.43591 0.81493 0.0
Mg363 Mg 0.57039 0.48196 0.72652 0.0
O364 O 0.49171 0.46239 0.83873 0.0
Mg365 Mg 0.49677 0.51236 0.71683 0.0
O366 O 0.55801 0.5336 0.79276 0.0
O367 O 0.61806 0.50509 0.78853 0.0
O368 O 0.50251 0.56266 0.59477 0.0
O369 O 0.47255 0.55564 0.83813 0.0
Mg370 Mg 0.41789 0.5451 0.6719 0.0
O371 O 0.43654 0.49084 0.6443 0.0
O372 O 0.44146 0.58315 0.56377 0.0
O373 O 0.40875 0.56476 0.82249 0.0
O374 O 0.37452 0.51275 0.61959 0.0
C375 C 0.54824 0.45898 0.54167 0.0
C376 C 0.51668 0.43539 0.85627 0.0
C377 C 0.59549 0.53287 0.81742 0.0
C378 C 0.47816 0.58518 0.5481 0.0
C379 C 0.44037 0.57095 0.86962 0.0
C380 C 0.40062 0.48583 0.6115 0.0
O381 O 0.58086 0.47155 0.56884 0.0
O382 O 0.51785 0.46867 0.59321 0.0
O383 O 0.93628 0.4695 0.90798 0.0
Mg384 Mg 0.93384 0.4539 0.74926 0.0
O385 O 0.96673 0.51923 0.85356 0.0
Mg386 Mg 0.00755 0.50692 0.71933 0.0
O387 O 0.98792 0.4471 0.68408 0.0
O388 O 0.94734 0.39988 0.69195 0.0
O389 O 0.04774 0.49394 0.58538 0.0
O390 O 0.05872 0.48166 0.82909 0.0
Mg391 Mg 0.08066 0.55663 0.684 0.0
O392 O 0.02779 0.56716 0.75557 0.0
O393 O 0.07934 0.54169 0.52463 0.0
O394 O 0.10989 0.51533 0.78015 0.0
O395 O 0.07189 0.6114 0.73706 0.0
C396 C 0.91933 0.52316 0.60216 0.0
C397 C 0.94442 0.50382 0.91841 0.0
C398 C 0.97985 0.41302 0.65814 0.0
C399 C 0.07008 0.50759 0.51786 0.0
C400 C 0.09563 0.48867 0.8329 0.0
C401 C 0.03904 0.60094 0.77607 0.0
O402 O 0.90547 0.49557 0.65205 0.0
O403 O 0.95586 0.53158 0.60948 0.0
loop_
_geom_bond_atom_site_label_1
_geom_bond_atom_site_label_2
_geom_bond_distance
_geom_bond_site_symmetry_2
_ccdc_geom_bond_type
C0 C1 1.264 . S
C0 C5 1.479 . S
C0 C10 1.465 . S
C1 C0 1.264 . S
C1 C3 1.339 . S
C1 H28 0.931 . S
C2 C3 1.395 . S
C2 C4 1.320 . S
C3 C1 1.339 . S
C3 C2 1.395 . S
C3 H29 0.929 . S
C4 C2 1.320 . S
C4 C5 1.405 . S
C4 H30 0.930 . S
C5 C0 1.479 . S
C5 C4 1.405 . S
C5 H31 0.931 . S
U6 O7 2.454 . S
U6 O8 2.458 1_554 S
U6 C9 2.984 . S
U6 C10 2.847 . S
U6 C23 2.882 1_554 S
U6 O24 2.441 . S
U6 O25 2.420 . S
U6 O26 2.455 1_554 S
U6 O27 2.449 . S
O7 U6 2.454 . S
O7 C9 1.353 . S
O8 U6 2.458 1_556 S
O8 C9 1.286 1_556 S
C9 U6 2.984 . S
C9 O7 1.353 . S
C9 O8 1.286 1_554 S
C9 C11 1.363 . S
C10 C0 1.465 . S
C10 U6 2.847 . S
C10 O24 1.249 . S
C10 O25 1.202 . S
C11 C9 1.363 . S
C11 C13 1.408 . S
C11 C16 1.342 1_554 S
C12 C13 1.310 . S
C12 C15 1.461 1_554 S
C12 H32 0.932 . S
C13 C11 1.408 . S
C13 C12 1.310 . S
C13 H33 0.930 . S
C14 C15 1.474 . S
C14 C16 1.285 . S
C14 H34 0.929 . S
C15 C12 1.461 1_556 S
C15 C14 1.474 . S
C16 C11 1.342 1_556 S
C16 C14 1.285 . S
C16 H35 0.930 . S
C17 C20 1.424 . S
C17 C22 1.245 . S
C17 C23 1.428 . S
C18 C21 1.260 . S
C18 C22 1.477 . S
C18 H36 0.932 . S
C19 C20 1.384 . S
C19 C21 1.479 . S
C19 H37 0.929 . S
C20 C17 1.424 . S
C20 C19 1.384 . S
C20 H38 0.928 . S
C21 C18 1.260 . S
C21 C19 1.479 . S
C22 C17 1.245 . S
C22 C18 1.477 . S
C22 H39 0.932 . S
C23 U6 2.882 1_556 S
C23 C17 1.428 . S
C23 O26 1.301 . S
C23 O27 1.282 1_556 S
O24 U6 2.441 . S
O24 C10 1.249 . S
O25 U6 2.420 . S
O25 C10 1.202 . S
O26 U6 2.455 1_556 S
O26 C23 1.301 . S
O27 U6 2.449 . S
O27 C23 1.282 1_554 S
H28 C1 0.931 . S
H29 C3 0.929 . S
H30 C4 0.930 . S
H31 C5 0.931 . S
H32 C12 0.932 . S
H33 C13 0.930 . S
H34 C14 0.929 . S
H35 C16 0.930 . S
H36 C18 0.932 . S
H37 C19 0.929 . S
H38 C20 0.928 . S
H39 C22 0.932 . S
C40 C41 1.264 . S
C40 C45 1.479 . S
C40 C50 1.465 . S
C41 C40 1.264 . S
C41 C43 1.339 . S
C41 H68 0.931 . S
C42 C43 1.395 . S
C42 C44 1.320 . S
C43 C41 1.339 . S
C43 C42 1.395 . S
C43 H69 0.929 . S
C44 C42 1.320 . S
C44 C45 1.405 . S
C44 H70 0.930 1_455 S
C45 C40 1.479 . S
C45 C44 1.405 . S
C45 H71 0.931 . S
U46 O47 2.454 . S
U46 O48 2.458 1_554 S
U46 C49 2.984 . S
U46 C50 2.847 . S
U46 C63 2.882 1_554 S
U46 O64 2.441 . S
U46 O65 2.420 . S
U46 O66 2.455 1_554 S
U46 O67 2.449 . S
O47 U46 2.454 . S
O47 C49 1.353 . S
O48 U46 2.458 1_556 S
O48 C49 1.286 1_556 S
C49 U46 2.984 . S
C49 O47 1.353 . S
C49 O48 1.286 1_554 S
C49 C51 1.363 . S
C50 C40 1.465 . S
C50 U46 2.847 . S
C50 O64 1.249 . S
C50 O65 1.202 . S
C51 C49 1.363 . S
C51 C53 1.408 . S
C51 C56 1.342 1_554 S
C52 C53 1.310 . S
C52 C55 1.461 1_554 S
C52 H72 0.932 . S
C53 C51 1.408 . S
C53 C52 1.310 . S
C53 H73 0.930 . S
C54 C55 1.474 1_655 S
C54 C56 1.284 1_655 S
C54 H74 0.931 . S
C55 C52 1.461 1_556 S
C55 C54 1.474 1_455 S
C56 C51 1.342 1_556 S
C56 C54 1.284 1_455 S
C56 H75 0.930 . S
C57 C60 1.424 . S
C57 C62 1.245 . S
C57 C63 1.428 . S
C58 C61 1.260 . S
C58 C62 1.477 . S
C58 H76 0.932 . S
C59 C60 1.384 . S
C59 C61 1.479 . S
C59 H77 0.929 . S
C60 C57 1.424 . S
C60 C59 1.384 . S
C60 H78 0.928 . S
C61 C58 1.260 . S
C61 C59 1.479 . S
C62 C57 1.245 . S
C62 C58 1.477 . S
C62 H79 0.932 . S
C63 U46 2.882 1_556 S
C63 C57 1.428 . S
C63 O66 1.301 . S
C63 O67 1.282 1_556 S
O64 U46 2.441 . S
O64 C50 1.249 . S
O65 U46 2.420 . S
O65 C50 1.202 . S
O66 U46 2.455 1_556 S
O66 C63 1.301 . S
O67 U46 2.449 . S
O67 C63 1.282 1_554 S
H68 C41 0.931 . S
H69 C43 0.929 . S
H70 C44 0.930 1_655 S
H71 C45 0.931 . S
H72 C52 0.932 . S
H73 C53 0.930 . S
H74 C54 0.931 . S
H75 C56 0.930 . S
H76 C58 0.932 . S
H77 C59 0.929 . S
H78 C60 0.928 . S
H79 C62 0.932 . S
C80 C81 1.264 . S
C80 C85 1.479 . S
C80 C90 1.465 . S
C81 C80 1.264 . S
C81 C83 1.339 . S
C81 H108 0.931 . S
C82 C83 1.395 . S
C82 C84 1.320 . S
C83 C81 1.339 . S
C83 C82 1.395 . S
C83 H109 0.929 . S
C84 C82 1.320 . S
C84 C85 1.405 . S
C84 H110 0.930 . S
C85 C80 1.479 . S
C85 C84 1.405 . S
C85 H111 0.931 . S
U86 O87 2.454 . S
U86 O88 2.458 1_554 S
U86 C89 2.984 . S
U86 C90 2.847 . S
U86 C103 2.882 1_554 S
U86 O104 2.441 . S
U86 O105 2.420 . S
U86 O106 2.455 1_554 S
U86 O107 2.449 . S
O87 U86 2.454 . S
O87 C89 1.353 . S
O88 U86 2.458 1_556 S
O88 C89 1.286 1_556 S
C89 U86 2.984 . S
C89 O87 1.353 . S
C89 O88 1.286 1_554 S
C89 C91 1.363 . S
C90 C80 1.465 . S
C90 U86 2.847 . S
C90 O104 1.249 . S
C90 O105 1.202 . S
C91 C89 1.363 . S
C91 C93 1.408 . S
C91 C96 1.342 1_554 S
C92 C93 1.310 . S
C92 C95 1.461 1_554 S
C92 H112 0.932 . S
C93 C91 1.408 . S
C93 C92 1.310 . S
C93 H113 0.930 . S
C94 C95 1.474 . S
C94 C96 1.285 . S
C94 H114 0.929 . S
C95 C92 1.461 1_556 S
C95 C94 1.474 . S
C96 C91 1.342 1_556 S
C96 C94 1.285 . S
C96 H115 0.930 . S
C97 C100 1.424 . S
C97 C102 1.245 . S
C97 C103 1.428 . S
C98 C101 1.260 . S
C98 C102 1.477 . S
C98 H116 0.932 . S
C99 C100 1.384 . S
C99 C101 1.479 . S
C99 H117 0.929 . S
C100 C97 1.424 . S
C100 C99 1.384 . S
C100 H118 0.928 . S
C101 C98 1.260 . S
C101 C99 1.479 . S
C102 C97 1.245 . S
C102 C98 1.477 . S
C102 H119 0.932 . S
C103 U86 2.882 1_556 S
C103 C97 1.428 . S
C103 O106 1.301 . S
C103 O107 1.282 1_556 S
O104 U86 2.441 . S
O104 C90 1.249 . S
O105 U86 2.420 . S
O105 C90 1.202 . S
O106 U86 2.455 1_556 S
O106 C103 1.301 . S
O107 U86 2.449 . S
O107 C103 1.282 1_554 S
H108 C81 0.931 . S
H109 C83 0.929 . S
H110 C84 0.930 . S
H111 C85 0.931 . S
H112 C92 0.932 . S
H113 C93 0.930 . S
H114 C94 0.929 . S
H115 C96 0.930 . S
H116 C98 0.932 . S
H117 C99 0.929 . S
H118 C100 0.928 . S
H119 C102 0.932 . S
C120 C121 1.264 . S
C120 C125 1.479 . S
C120 C130 1.465 . S
C121 C120 1.264 . S
C121 C123 1.339 . S
C121 H148 0.931 . S
C122 C123 1.395 . S
C122 C124 1.320 . S
C123 C121 1.339 . S
C123 C122 1.395 . S
C123 H149 0.929 . S
C124 C122 1.320 . S
C124 C125 1.405 . S
C124 H150 0.930 . S
C125 C120 1.479 . S
C125 C124 1.405 . S
C125 H151 0.931 . S
U126 O127 2.454 . S
U126 O128 2.458 1_554 S
U126 C129 2.984 . S
U126 C130 2.847 . S
U126 C143 2.882 1_554 S
U126 O144 2.441 . S
U126 O145 2.420 . S
U126 O146 2.455 1_554 S
U126 O147 2.449 . S
O127 U126 2.454 . S
O127 C129 1.353 . S
O128 U126 2.458 1_556 S
O128 C129 1.286 1_556 S
C129 U126 2.984 . S
C129 O127 1.353 . S
C129 O128 1.286 1_554 S
C129 C131 1.363 . S
C130 C120 1.465 . S
C130 U126 2.847 . S
C130 O144 1.249 . S
C130 O145 1.202 . S
C131 C129 1.363 . S
C131 C133 1.408 . S
C131 C136 1.342 1_554 S
C132 C133 1.310 . S
C132 C135 1.461 1_554 S
C132 H152 0.932 . S
C133 C131 1.408 . S
C133 C132 1.310 . S
C133 H153 0.930 . S
C134 C135 1.474 . S
C134 C136 1.285 . S
C134 H154 0.929 . S
C135 C132 1.461 1_556 S
C135 C134 1.474 . S
C136 C131 1.342 1_556 S
C136 C134 1.285 . S
C136 H155 0.930 . S
C137 C140 1.424 . S
C137 C142 1.245 . S
C137 C143 1.428 . S
C138 C141 1.260 . S
C138 C142 1.477 . S
C138 H156 0.932 . S
C139 C140 1.384 . S
C139 C141 1.479 . S
C139 H157 0.929 . S
C140 C137 1.424 . S
C140 C139 1.384 . S
C140 H158 0.928 . S
C141 C138 1.260 . S
C141 C139 1.479 . S
C142 C137 1.245 . S
C142 C138 1.477 . S
C142 H159 0.932 . S
C143 U126 2.882 1_556 S
C143 C137 1.428 . S
C143 O146 1.301 . S
C143 O147 1.282 1_556 S
O144 U126 2.441 . S
O144 C130 1.249 . S
O145 U126 2.420 . S
O145 C130 1.202 . S
O146 U126 2.455 1_556 S
O146 C143 1.301 . S
O147 U126 2.449 . S
O147 C143 1.282 1_554 S
H148 C121 0.931 . S
H149 C123 0.929 . S
H150 C124 0.930 . S
H151 C125 0.931 . S
H152 C132 0.932 . S
H153 C133 0.930 . S
H154 C134 0.929 . S
H155 C136 0.930 . S
H156 C138 0.932 . S
H157 C139 0.929 . S
H158 C140 0.928 . S
H159 C142 0.932 . S
C160 C161 1.264 1_554 S
C160 C165 1.479 1_554 S
C160 C170 1.465 . S
C161 C160 1.264 1_556 S
C161 C163 1.339 . S
C161 H188 0.931 1_556 S
C162 C163 1.395 . S
C162 C164 1.320 . S
C163 C161 1.339 . S
C163 C162 1.395 . S
C163 H189 0.929 . S
C164 C162 1.320 . S
C164 C165 1.405 . S
C164 H190 0.930 . S
C165 C160 1.479 1_556 S
C165 C164 1.405 . S
C165 H191 0.931 . S
U166 O167 2.454 . S
U166 O168 2.458 . S
U166 C169 2.984 . S
U166 C170 2.847 . S
U166 C183 2.882 . S
U166 O184 2.441 . S
U166 O185 2.420 . S
U166 O186 2.455 . S
U166 O187 2.449 . S
O167 U166 2.454 . S
O167 C169 1.353 . S
O168 U166 2.458 . S
O168 C169 1.286 . S
C169 U166 2.984 . S
C169 O167 1.353 . S
C169 O168 1.286 . S
C169 C171 1.363 . S
C170 C160 1.465 . S
C170 U166 2.847 . S
C170 O184 1.249 . S
C170 O185 1.202 . S
C171 C169 1.363 . S
C171 C173 1.408 . S
C171 C176 1.342 . S
C172 C173 1.310 . S
C172 C175 1.461 . S
C172 H192 0.932 . S
C173 C171 1.408 . S
C173 C172 1.310 . S
C173 H193 0.930 . S
C174 C175 1.474 . S
C174 C176 1.285 . S
C174 H194 0.929 . S
C175 C172 1.461 . S
C175 C174 1.474 . S
C176 C171 1.342 . S
C176 C174 1.285 . S
C176 H195 0.930 . S
C177 C180 1.424 . S
C177 C182 1.245 . S
C177 C183 1.428 . S
C178 C181 1.260 . S
C178 C182 1.477 . S
C178 H196 0.932 . S
C179 C180 1.384 . S
C179 C181 1.479 . S
C179 H197 0.929 . S
C180 C177 1.424 . S
C180 C179 1.384 . S
C180 H198 0.928 . S
C181 C178 1.260 . S
C181 C179 1.479 . S
C182 C177 1.245 . S
C182 C178 1.477 . S
C182 H199 0.932 . S
C183 U166 2.882 . S
C183 C177 1.428 . S
C183 O186 1.301 . S
C183 O187 1.282 . S
O184 U166 2.441 . S
O184 C170 1.249 . S
O185 U166 2.420 . S
O185 C170 1.202 . S
O186 U166 2.455 . S
O186 C183 1.301 . S
O187 U166 2.449 . S
O187 C183 1.282 . S
H188 C161 0.931 1_554 S
H189 C163 0.929 . S
H190 C164 0.930 . S
H191 C165 0.931 . S
H192 C172 0.932 . S
H193 C173 0.930 . S
H194 C174 0.929 . S
H195 C176 0.930 . S
H196 C178 0.932 . S
H197 C179 0.929 . S
H198 C180 0.928 . S
H199 C182 0.932 . S
C200 C201 1.264 . S
C200 C205 1.479 . S
C200 C210 1.465 1_556 S
C201 C200 1.264 . S
C201 C203 1.339 . S
C201 H228 0.931 1_556 S
C202 C203 1.395 . S
C202 C204 1.320 . S
C203 C201 1.339 . S
C203 C202 1.395 . S
C203 H229 0.929 . S
C204 C202 1.320 . S
C204 C205 1.405 . S
C204 H230 0.930 1_455 S
C205 C200 1.479 . S
C205 C204 1.405 . S
C205 H231 0.931 . S
U206 O207 2.454 . S
U206 O208 2.458 . S
U206 C209 2.984 . S
U206 C210 2.847 . S
U206 C223 2.882 . S
U206 O224 2.441 . S
U206 O225 2.420 . S
U206 O226 2.455 . S
U206 O227 2.449 . S
O207 U206 2.454 . S
O207 C209 1.353 . S
O208 U206 2.458 . S
O208 C209 1.286 . S
C209 U206 2.984 . S
C209 O207 1.353 . S
C209 O208 1.286 . S
C209 C211 1.363 . S
C210 C200 1.465 1_554 S
C210 U206 2.847 . S
C210 O224 1.249 . S
C210 O225 1.202 . S
C211 C209 1.363 . S
C211 C213 1.408 . S
C211 C216 1.342 . S
C212 C213 1.310 . S
C212 C215 1.461 . S
C212 H232 0.932 . S
C213 C211 1.408 . S
C213 C212 1.310 . S
C213 H233 0.930 . S
C214 C215 1.473 1_655 S
C214 C216 1.285 1_655 S
C214 H234 0.930 . S
C215 C212 1.461 . S
C215 C214 1.473 1_455 S
C216 C211 1.342 . S
C216 C214 1.285 1_455 S
C216 H235 0.930 . S
C217 C220 1.424 . S
C217 C222 1.245 . S
C217 C223 1.428 . S
C218 C221 1.260 . S
C218 C222 1.477 . S
C218 H236 0.932 . S
C219 C220 1.384 . S
C219 C221 1.479 . S
C219 H237 0.929 . S
C220 C217 1.424 . S
C220 C219 1.384 . S
C220 H238 0.928 . S
C221 C218 1.260 . S
C221 C219 1.479 . S
C222 C217 1.245 . S
C222 C218 1.477 . S
C222 H239 0.932 . S
C223 U206 2.882 . S
C223 C217 1.428 . S
C223 O226 1.301 . S
C223 O227 1.282 . S
O224 U206 2.441 . S
O224 C210 1.249 . S
O225 U206 2.420 . S
O225 C210 1.202 . S
O226 U206 2.455 . S
O226 C223 1.301 . S
O227 U206 2.449 . S
O227 C223 1.282 . S
H228 C201 0.931 1_554 S
H229 C203 0.929 . S
H230 C204 0.930 1_655 S
H231 C205 0.931 . S
H232 C212 0.932 . S
H233 C213 0.930 . S
H234 C214 0.930 . S
H235 C216 0.930 . S
H236 C218 0.932 . S
H237 C219 0.929 . S
H238 C220 0.928 . S
H239 C222 0.932 . S
C240 C241 1.264 1_554 S
C240 C245 1.479 1_554 S
C240 C250 1.465 . S
C241 C240 1.264 1_556 S
C241 C243 1.339 . S
C241 H268 0.931 1_556 S
C242 C243 1.395 . S
C242 C244 1.320 . S
C243 C241 1.339 . S
C243 C242 1.395 . S
C243 H269 0.929 . S
C244 C242 1.320 . S
C244 C245 1.405 . S
C244 H270 0.930 . S
C245 C240 1.479 1_556 S
C245 C244 1.405 . S
C245 H271 0.931 . S
U246 O247 2.454 . S
U246 O248 2.458 . S
U246 C249 2.984 . S
U246 C250 2.847 . S
U246 C263 2.882 . S
U246 O264 2.441 . S
U246 O265 2.420 . S
U246 O266 2.455 . S
U246 O267 2.449 . S
O247 U246 2.454 . S
O247 C249 1.353 . S
O248 U246 2.458 . S
O248 C249 1.286 . S
C249 U246 2.984 . S
C249 O247 1.353 . S
C249 O248 1.286 . S
C249 C251 1.363 . S
C250 C240 1.465 . S
C250 U246 2.847 . S
C250 O264 1.249 . S
C250 O265 1.202 . S
C251 C249 1.363 . S
C251 C253 1.408 . S
C251 C256 1.342 . S
C252 C253 1.310 . S
C252 C255 1.461 . S
C252 H272 0.932 . S
C253 C251 1.408 . S
C253 C252 1.310 . S
C253 H273 0.930 . S
C254 C255 1.474 . S
C254 C256 1.285 . S
C254 H274 0.929 . S
C255 C252 1.461 . S
C255 C254 1.474 . S
C256 C251 1.342 . S
C256 C254 1.285 . S
C256 H275 0.930 . S
C257 C260 1.424 . S
C257 C262 1.245 . S
C257 C263 1.428 . S
C258 C261 1.260 . S
C258 C262 1.477 . S
C258 H276 0.932 . S
C259 C260 1.384 . S
C259 C261 1.479 . S
C259 H277 0.929 . S
C260 C257 1.424 . S
C260 C259 1.384 . S
C260 H278 0.928 . S
C261 C258 1.260 . S
C261 C259 1.479 . S
C262 C257 1.245 . S
C262 C258 1.477 . S
C262 H279 0.932 . S
C263 U246 2.882 . S
C263 C257 1.428 . S
C263 O266 1.301 . S
C263 O267 1.282 . S
O264 U246 2.441 . S
O264 C250 1.249 . S
O265 U246 2.420 . S
O265 C250 1.202 . S
O266 U246 2.455 . S
O266 C263 1.301 . S
O267 U246 2.449 . S
O267 C263 1.282 . S
H268 C241 0.931 1_554 S
H269 C243 0.929 . S
H270 C244 0.930 . S
H271 C245 0.931 . S
H272 C252 0.932 . S
H273 C253 0.930 . S
H274 C254 0.929 . S
H275 C256 0.930 . S
H276 C258 0.932 . S
H277 C259 0.929 . S
H278 C260 0.928 . S
H279 C262 0.932 . S
C280 C281 1.264 . S
C280 C285 1.479 . S
C280 C290 1.465 1_556 S
C281 C280 1.264 . S
C281 C283 1.339 . S
C281 H308 0.931 1_556 S
C282 C283 1.395 . S
C282 C284 1.320 . S
C283 C281 1.339 . S
C283 C282 1.395 . S
C283 H309 0.929 . S
C284 C282 1.320 . S
C284 C285 1.405 . S
C284 H310 0.930 . S
C285 C280 1.479 . S
C285 C284 1.405 . S
C285 H311 0.931 . S
U286 O287 2.454 . S
U286 O288 2.458 . S
U286 C289 2.984 . S
U286 C290 2.847 . S
U286 C303 2.882 . S
U286 O304 2.441 . S
U286 O305 2.420 . S
U286 O306 2.455 . S
U286 O307 2.449 . S
O287 U286 2.454 . S
O287 C289 1.353 . S
O288 U286 2.458 . S
O288 C289 1.286 . S
C289 U286 2.984 . S
C289 O287 1.353 . S
C289 O288 1.286 . S
C289 C291 1.363 . S
C290 C280 1.465 1_554 S
C290 U286 2.847 . S
C290 O304 1.249 . S
C290 O305 1.202 . S
C291 C289 1.363 . S
C291 C293 1.408 . S
C291 C296 1.342 . S
C292 C293 1.310 . S
C292 C295 1.461 . S
C292 H312 0.932 . S
C293 C291 1.408 . S
C293 C292 1.310 . S
C293 H313 0.930 . S
C294 C295 1.474 . S
C294 C296 1.285 . S
C294 H314 0.929 . S
C295 C292 1.461 . S
C295 C294 1.474 . S
C296 C291 1.342 . S
C296 C294 1.285 . S
C296 H315 0.930 . S
C297 C300 1.424 . S
C297 C302 1.245 . S
C297 C303 1.428 . S
C298 C301 1.260 . S
C298 C302 1.477 . S
C298 H316 0.932 . S
C299 C300 1.384 . S
C299 C301 1.479 . S
C299 H317 0.929 . S
C300 C297 1.424 . S
C300 C299 1.384 . S
C300 H318 0.928 . S
C301 C298 1.260 . S
C301 C299 1.479 . S
C302 C297 1.245 . S
C302 C298 1.477 . S
C302 H319 0.932 . S
C303 U286 2.882 . S
C303 C297 1.428 . S
C303 O306 1.301 . S
C303 O307 1.282 . S
O304 U286 2.441 . S
O304 C290 1.249 . S
O305 U286 2.420 . S
O305 C290 1.202 . S
O306 U286 2.455 . S
O306 C303 1.301 . S
O307 U286 2.449 . S
O307 C303 1.282 . S
H308 C281 0.931 1_554 S
H309 C283 0.929 . S
H310 C284 0.930 . S
H311 C285 0.931 . S
H312 C292 0.932 . S
H313 C293 0.930 . S
H314 C294 0.929 . S
H315 C296 0.930 . S
H316 C298 0.932 . S
H317 C299 0.929 . S
H318 C300 0.928 . S
H319 C302 0.932 . S
O320 Mg321 1.990 . S
O320 C334 1.253 . S
Mg321 O320 1.990 . S
Mg321 O324 2.180 1_565 S
Mg321 O325 2.117 . S
Mg321 O339 2.030 . S
O322 Mg323 2.072 1_465 S
O322 C334 1.260 . S
Mg323 O322 2.072 1_645 S
Mg323 O324 2.099 1_655 S
Mg323 O326 2.079 . S
Mg323 O327 2.072 1_655 S
Mg323 O329 2.099 . S
Mg323 O340 2.079 1_545 S
O324 Mg321 2.180 1_545 S
O324 Mg323 2.099 1_455 S
O324 C335 1.279 . S
O325 Mg321 2.117 . S
O325 C335 1.250 1_565 S
O326 Mg323 2.079 . S
O326 C336 1.264 . S
O327 Mg323 2.072 1_455 S
O327 C337 1.260 . S
Mg328 O329 2.180 . S
Mg328 O330 2.030 . S
Mg328 O331 1.990 . S
Mg328 O332 2.117 . S
O329 Mg323 2.099 . S
O329 Mg328 2.180 . S
O329 C338 1.279 . S
O330 Mg328 2.030 . S
O330 C336 1.248 . S
O331 Mg328 1.990 . S
O331 C337 1.253 1_655 S
O332 Mg328 2.117 . S
O332 C338 1.250 . S
C333 O339 1.248 1_655 S
C333 O340 1.264 . S
C334 O320 1.253 . S
C334 O322 1.260 . S
C335 O324 1.279 . S
C335 O325 1.250 1_545 S
C336 O326 1.264 . S
C336 O330 1.248 . S
C337 O327 1.260 . S
C337 O331 1.253 1_455 S
C338 O329 1.279 . S
C338 O332 1.250 . S
O339 Mg321 2.030 . S
O339 C333 1.248 1_455 S
O340 Mg323 2.079 1_565 S
O340 C333 1.264 . S
O341 Mg342 1.990 1_545 S
O341 C355 1.253 . S
Mg342 O341 1.990 1_565 S
Mg342 O345 2.180 . S
Mg342 O346 2.117 . S
Mg342 O360 2.030 1_565 S
O343 Mg344 2.072 . S
O343 C355 1.260 . S
Mg344 O343 2.072 . S
Mg344 O345 2.099 1_545 S
Mg344 O347 2.079 1_545 S
Mg344 O348 2.072 1_545 S
Mg344 O350 2.099 . S
Mg344 O361 2.079 . S
O345 Mg342 2.180 . S
O345 Mg344 2.099 1_565 S
O345 C356 1.279 . S
O346 Mg342 2.117 . S
O346 C356 1.250 . S
O347 Mg344 2.079 1_565 S
O347 C357 1.264 . S
O348 Mg344 2.072 1_565 S
O348 C358 1.260 1_565 S
Mg349 O350 2.180 . S
Mg349 O351 2.030 1_545 S
Mg349 O352 1.990 . S
Mg349 O353 2.117 . S
O350 Mg344 2.099 . S
O350 Mg349 2.180 . S
O350 C359 1.279 . S
O351 Mg349 2.030 1_565 S
O351 C357 1.248 . S
O352 Mg349 1.990 . S
O352 C358 1.253 . S
O353 Mg349 2.117 . S
O353 C359 1.250 . S
C354 O360 1.248 . S
C354 O361 1.264 . S
C355 O341 1.253 . S
C355 O343 1.260 . S
C356 O345 1.279 . S
C356 O346 1.250 . S
C357 O347 1.264 . S
C357 O351 1.248 . S
C358 O348 1.260 1_545 S
C358 O352 1.253 . S
C359 O350 1.279 . S
C359 O353 1.250 . S
O360 Mg342 2.030 1_545 S
O360 C354 1.248 . S
O361 Mg344 2.079 . S
O361 C354 1.264 . S
O362 Mg363 1.990 . S
O362 C376 1.253 . S
Mg363 O362 1.990 . S
Mg363 O366 2.180 . S
Mg363 O367 2.117 . S
Mg363 O381 2.030 . S
O364 Mg365 2.072 . S
O364 C376 1.260 . S
Mg365 O364 2.072 . S
Mg365 O366 2.099 . S
Mg365 O368 2.079 . S
Mg365 O369 2.072 . S
Mg365 O371 2.099 . S
Mg365 O382 2.079 . S
O366 Mg363 2.180 . S
O366 Mg365 2.099 . S
O366 C377 1.279 . S
O367 Mg363 2.117 . S
O367 C377 1.250 . S
O368 Mg365 2.079 . S
O368 C378 1.264 . S
O369 Mg365 2.072 . S
O369 C379 1.260 . S
Mg370 O371 2.180 . S
Mg370 O372 2.030 . S
Mg370 O373 1.990 . S
Mg370 O374 2.117 . S
O371 Mg365 2.099 . S
O371 Mg370 2.180 . S
O371 C380 1.279 . S
O372 Mg370 2.030 . S
O372 C378 1.248 . S
O373 Mg370 1.990 . S
O373 C379 1.253 . S
O374 Mg370 2.117 . S
O374 C380 1.250 . S
C375 O381 1.248 . S
C375 O382 1.264 . S
C376 O362 1.253 . S
C376 O364 1.260 . S
C377 O366 1.279 . S
C377 O367 1.250 . S
C378 O368 1.264 . S
C378 O372 1.248 . S
C379 O369 1.260 . S
C379 O373 1.253 . S
C380 O371 1.279 . S
C380 O374 1.250 . S
O381 Mg363 2.030 . S
O381 C375 1.248 . S
O382 Mg365 2.079 . S
O382 C375 1.264 . S
O383 Mg384 1.990 . S
O383 C397 1.253 . S
Mg384 O383 1.990 . S
Mg384 O387 2.180 . S
Mg384 O388 2.117 . S
Mg384 O402 2.030 . S
O385 Mg386 2.072 1_655 S
O385 C397 1.260 . S
Mg386 O385 2.072 1_455 S
Mg386 O387 2.099 1_455 S
Mg386 O389 2.079 . S
Mg386 O390 2.072 . S
Mg386 O392 2.099 . S
Mg386 O403 2.079 1_455 S
O387 Mg384 2.180 . S
O387 Mg386 2.099 1_655 S
O387 C398 1.279 . S
O388 Mg384 2.117 . S
O388 C398 1.250 . S
O389 Mg386 2.079 . S
O389 C399 1.264 . S
O390 Mg386 2.072 . S
O390 C400 1.260 . S
Mg391 O392 2.180 . S
Mg391 O393 2.030 . S
Mg391 O394 1.990 . S
Mg391 O395 2.117 . S
O392 Mg386 2.099 . S
O392 Mg391 2.180 . S
O392 C401 1.279 . S
O393 Mg391 2.030 . S
O393 C399 1.248 . S
O394 Mg391 1.990 . S
O394 C400 1.253 . S
O395 Mg391 2.117 . S
O395 C401 1.250 . S
C396 O402 1.248 . S
C396 O403 1.264 . S
C397 O383 1.253 . S
C397 O385 1.260 . S
C398 O387 1.279 . S
C398 O388 1.250 . S
C399 O389 1.264 . S
C399 O393 1.248 . S
C400 O390 1.260 . S
C400 O394 1.253 . S
C401 O392 1.279 . S
C401 O395 1.250 . S
O402 Mg384 2.030 . S
O402 C396 1.248 . S
O403 Mg386 2.079 1_655 S
O403 C396 1.264 . S
C255 C335 4.276 . S
C359 C295 2.908 . S
C380 C175 4.196 . S
C398 C215 2.985 1_655 S
C338 C95 3.846 1_545 S
C135 C356 2.286 . S
C15 C377 3.767 . S
C55 C401 2.383 . S
C336 C221 1.854 1_655 S
C354 C261 3.642 . S
C375 C301 1.690 . S
C181 C399 3.705 . S
C61 C334 1.658 . S
C358 C101 3.304 1_545 S
C379 C141 1.553 . S
C21 C397 3.361 . S
C202 C337 3.874 . S
C242 C355 4.367 . S
C376 C282 3.855 . S
C400 C162 4.365 . S
C42 C333 3.702 1_455 S
C357 C82 3.999 . S
C378 C122 3.711 . S
C2 C396 4.000 . S
