# Generated by pormake.
# Topology csq, (4,8)-cn, num edge types: 1
# Building blocks:
#     Node 0, Type 0, BuildingBlock: NAWXER_clean_sbu_0, # of connection points: 4
#     Node 1, Type 0, BuildingBlock: NAWXER_clean_sbu_0, # of connection points: 4
#     Node 2, Type 0, BuildingBlock: NAWXER_clean_sbu_0, # of connection points: 4
#     Node 3, Type 0, BuildingBlock: NAWXER_clean_sbu_0, # of connection points: 4
#     Node 4, Type 0, BuildingBlock: NAWXER_clean_sbu_0, # of connection points: 4
#     Node 5, Type 0, BuildingBlock: NAWXER_clean_sbu_0, # of connection points: 4
#     Node 6, Type 1, BuildingBlock: TAGTUT_clean_sbu_1, # of connection points: 8
#     Node 7, Type 1, BuildingBlock: TAGTUT_clean_sbu_1, # of connection points: 8
#     Node 8, Type 1, BuildingBlock: TAGTUT_clean_sbu_1, # of connection points: 8
#     Edge 9, Type (0, 1), BuildingBlock: XUDNAN_clean_linker_2, # of connection points: 2
#     Edge 10, Type (0, 1), BuildingBlock: XUDNAN_clean_linker_2, # of connection points: 2
#     Edge 11, Type (0, 1), BuildingBlock: XUDNAN_clean_linker_2, # of connection points: 2
#     Edge 12, Type (0, 1), BuildingBlock: XUDNAN_clean_linker_2, # of connection points: 2
#     Edge 13, Type (0, 1), BuildingBlock: XUDNAN_clean_linker_2, # of connection points: 2
#     Edge 14, Type (0, 1), BuildingBlock: XUDNAN_clean_linker_2, # of connection points: 2
#     Edge 15, Type (0, 1), BuildingBlock: XUDNAN_clean_linker_2, # of connection points: 2
#     Edge 16, Type (0, 1), BuildingBlock: XUDNAN_clean_linker_2, # of connection points: 2
#     Edge 17, Type (0, 1), BuildingBlock: XUDNAN_clean_linker_2, # of connection points: 2
#     Edge 18, Type (0, 1), BuildingBlock: XUDNAN_clean_linker_2, # of connection points: 2
#     Edge 19, Type (0, 1), BuildingBlock: XUDNAN_clean_linker_2, # of connection points: 2
#     Edge 20, Type (0, 1), BuildingBlock: XUDNAN_clean_linker_2, # of connection points: 2
#     Edge 21, Type (0, 1), BuildingBlock: XUDNAN_clean_linker_2, # of connection points: 2
#     Edge 22, Type (0, 1), BuildingBlock: XUDNAN_clean_linker_2, # of connection points: 2
#     Edge 23, Type (0, 1), BuildingBlock: XUDNAN_clean_linker_2, # of connection points: 2
#     Edge 24, Type (0, 1), BuildingBlock: XUDNAN_clean_linker_2, # of connection points: 2
#     Edge 25, Type (0, 1), BuildingBlock: XUDNAN_clean_linker_2, # of connection points: 2
#     Edge 26, Type (0, 1), BuildingBlock: XUDNAN_clean_linker_2, # of connection points: 2
#     Edge 27, Type (0, 1), BuildingBlock: XUDNAN_clean_linker_2, # of connection points: 2
#     Edge 28, Type (0, 1), BuildingBlock: XUDNAN_clean_linker_2, # of connection points: 2
#     Edge 29, Type (0, 1), BuildingBlock: XUDNAN_clean_linker_2, # of connection points: 2
#     Edge 30, Type (0, 1), BuildingBlock: XUDNAN_clean_linker_2, # of connection points: 2
#     Edge 31, Type (0, 1), BuildingBlock: XUDNAN_clean_linker_2, # of connection points: 2
#     Edge 32, Type (0, 1), BuildingBlock: XUDNAN_clean_linker_2, # of connection points: 2
# Relax obj value: 0.042
# Max RMSD: 0.128
# Mean RMSD: 0.072
data_MOF--net-csq--node1-NAWXER_clean_sbu_0--node2-TAGTUT_clean_sbu_1--edge1-XUDNAN_clean_linker_2
_symmetry_space_group_name_H-M    P1
_symmetry_Int_Tables_number       1
_symmetry_cell_setting            triclinic
loop_
_symmetry_equiv_pos_as_xyz
'x, y, z'
_cell_length_a     49.711561
_cell_length_b     49.240052
_cell_length_c     19.474601
_cell_angle_alpha  91.890425
_cell_angle_beta   92.417219
_cell_angle_gamma 119.61628
loop_
_atom_site_label
_atom_site_type_symbol
_atom_site_fract_x
_atom_site_fract_y
_atom_site_fract_z
_atom_type_partial_charge
C0 C 0.31004 0.52932 0.1022 0.0
C1 C 0.23484 0.52864 0.26064 0.0
O2 O 0.31084 0.55332 0.13086 0.0
Zn3 Zn 0.27427 0.53082 0.18517 0.0
O4 O 0.28966 0.50202 0.11811 0.0
Zn5 Zn 0.25222 0.48083 0.18372 0.0
O6 O 0.2195 0.45462 0.11457 0.0
O7 O 0.23771 0.50536 0.1055 0.0
O8 O 0.23031 0.50129 0.24305 0.0
O9 O 0.25782 0.55273 0.23911 0.0
O10 O 0.29042 0.51369 0.26635 0.0
O11 O 0.26656 0.46222 0.25308 0.0
C12 C 0.21921 0.47686 0.08355 0.0
C13 C 0.28577 0.48744 0.28722 0.0
C14 C 0.73365 0.22282 0.02859 0.0
C15 C 0.80789 0.30227 0.19673 0.0
O16 O 0.75103 0.21397 0.05943 0.0
Zn17 Zn 0.78576 0.2313 0.1435 0.0
O18 O 0.7352 0.24849 0.04762 0.0
Zn19 Zn 0.76846 0.26178 0.11758 0.0
O20 O 0.8067 0.26599 0.06107 0.0
O21 O 0.82097 0.23306 0.10086 0.0
O22 O 0.78699 0.3038 0.15992 0.0
O23 O 0.80893 0.27677 0.19561 0.0
O24 O 0.76731 0.20314 0.21675 0.0
O25 O 0.74679 0.23331 0.2009 0.0
C26 C 0.82479 0.25435 0.06056 0.0
C27 C 0.74834 0.21197 0.23389 0.0
C28 C 0.55213 0.80459 0.15005 0.0
C29 C 0.58404 0.7565 0.97462 0.0
O30 O 0.57939 0.80934 0.14289 0.0
Zn31 Zn 0.56858 0.78018 0.06412 0.0
O32 O 0.52932 0.78339 0.1117 0.0
Zn33 Zn 0.5215 0.75117 0.02725 0.0
O34 O 0.49704 0.71006 0.0627 0.0
O35 O 0.54523 0.73528 0.10741 0.0
O36 O 0.55465 0.74562 0.9715 0.0
O37 O 0.60143 0.77758 0.02059 0.0
O38 O 0.55118 0.80067 0.98956 0.0
O39 O 0.50235 0.76545 0.96049 0.0
C40 C 0.51836 0.71065 0.10219 0.0
C41 C 0.52533 0.79274 0.95582 0.0
C42 C 0.79084 0.48249 0.00503 0.0
C43 C 0.71284 0.48302 0.15281 0.0
O44 O 0.79736 0.50989 0.02814 0.0
Zn45 Zn 0.77724 0.53124 0.08989 0.0
O46 O 0.766 0.45867 0.0209 0.0
Zn47 Zn 0.75061 0.48091 0.07721 0.0
O48 O 0.74059 0.50455 1.00014 0.0
O49 O 0.76868 0.55558 0.02331 0.0
O50 O 0.71155 0.4591 0.12216 0.0
O51 O 0.73563 0.51023 0.14372 0.0
O52 O 0.80829 0.55105 0.16738 0.0
O53 O 0.78293 0.49939 0.16505 0.0
C54 C 0.74871 0.53245 0.98433 0.0
C55 C 0.80304 0.52585 0.19461 0.0
C56 C 0.19825 0.75333 0.20107 0.0
C57 C 0.27636 0.80027 0.03265 0.0
O58 O 0.20272 0.77643 0.16603 0.0
Zn59 Zn 0.23844 0.77957 0.12196 0.0
O60 O 0.21687 0.74238 0.19883 0.0
Zn61 Zn 0.25699 0.74969 0.1467 0.0
O62 O 0.28961 0.76367 0.21938 0.0
O63 O 0.27228 0.79689 0.20644 0.0
O64 O 0.27835 0.77908 0.06519 0.0
O65 O 0.25686 0.80843 0.04969 0.0
O66 O 0.21686 0.73445 0.06775 0.0
O67 O 0.2402 0.70839 0.10177 0.0
C68 C 0.28998 0.78876 0.23837 0.0
C69 C 0.2189 0.70947 0.0654 0.0
C70 C 0.4471 0.26583 0.28301 0.0
C71 C 0.44831 0.2026 0.08915 0.0
O72 O 0.47437 0.27031 0.27395 0.0
Zn73 Zn 0.49632 0.25354 0.20562 0.0
O74 O 0.424 0.2453 0.24528 0.0
Zn75 Zn 0.44728 0.23425 0.1855 0.0
O76 O 0.46048 0.20714 0.246 0.0
O77 O 0.51134 0.23129 0.26456 0.0
O78 O 0.42555 0.20522 0.10852 0.0
O79 O 0.47537 0.21971 0.11945 0.0
O80 O 0.5247 0.29275 0.16457 0.0
O81 O 0.47531 0.27706 0.13949 0.0
C82 C 0.48484 0.20754 0.27144 0.0
C83 C 0.50396 0.29737 0.13567 0.0
C84 C 0.98115 0.41 0.79332 0.0
C85 C 0.07227 0.46827 0.72909 0.0
C86 C 0.04753 0.56276 0.7519 0.0
Mg87 Mg 0.00732 0.43511 0.65265 0.0
O88 O 1.00114 0.4677 0.68577 0.0
Mg89 Mg 0.01975 0.48847 0.77924 0.0
Mg90 Mg 0.01272 0.50551 0.63292 0.0
O91 O 0.02431 0.54353 0.58085 0.0
Mg92 Mg 0.01642 0.5748 0.6165 0.0
Mg93 Mg 0.00494 0.52253 0.48803 0.0
C94 C 0.97832 0.44807 0.51452 0.0
C95 C 0.06372 0.51225 0.52276 0.0
O96 O 0.99449 0.43823 0.82016 0.0
O97 O 0.98144 0.40336 0.72923 0.0
O98 O 0.06204 0.48261 0.76613 0.0
O99 O 0.05588 0.44951 0.67786 0.0
O100 O 0.98574 0.43026 0.54793 0.0
O101 O 0.98441 0.47506 0.53974 0.0
C102 C 0.96154 0.49927 0.74207 0.0
O103 O 0.96961 0.50433 0.67983 0.0
O104 O 0.97705 0.4935 0.78758 0.0
O105 O 0.02957 0.57301 0.44873 0.0
O106 O 0.03898 0.60731 0.53862 0.0
O107 O 0.96182 0.52702 0.50413 0.0
C108 C 0.04073 0.60117 0.47497 0.0
O109 O 0.9673 0.55805 0.59646 0.0
O110 O 0.03973 0.58061 0.71981 0.0
C111 C 0.95112 0.53971 0.54469 0.0
O112 O 0.04095 0.53571 0.72623 0.0
O113 O 0.0558 0.50681 0.58511 0.0
O114 O 0.04802 0.51816 0.47797 0.0
C115 C 0.45059 0.03345 0.82193 0.0
C116 C 0.42183 0.94299 0.72958 0.0
C117 C 0.53769 0.97139 0.72061 0.0
Mg118 Mg 0.44533 0.00722 0.67249 0.0
O119 O 0.48691 0.01994 0.69931 0.0
Mg120 Mg 0.49442 0.00084 0.78174 0.0
Mg121 Mg 0.5094 0.00912 0.63172 0.0
O122 O 0.53113 0.99766 0.56351 0.0
Mg123 Mg 0.57073 0.00236 0.58239 0.0
Mg124 Mg 0.52315 0.01672 0.48175 0.0
C125 C 0.47735 0.04022 0.53691 0.0
C126 C 0.45783 0.95801 0.51837 0.0
O127 O 0.47046 0.02495 0.8402 0.0
O128 O 0.43863 0.02923 0.7603 0.0
O129 O 0.44738 0.95557 0.76638 0.0
O130 O 0.41594 0.95792 0.68469 0.0
O131 O 0.45351 0.02881 0.57321 0.0
O132 O 0.50174 0.03849 0.55336 0.0
C133 C 0.55978 0.06055 0.74557 0.0
O134 O 0.55389 0.05115 0.68169 0.0
O135 O 0.54097 0.04582 0.79141 0.0
O136 O 0.54224 0.99021 0.41944 0.0
O137 O 0.56952 0.97611 0.49047 0.0
O138 O 0.57175 0.0599 0.49774 0.0
C139 C 0.55707 0.97545 0.431 0.0
O140 O 0.60325 0.05133 0.56826 0.0
O141 O 0.56 0.97851 0.68061 0.0
C142 C 0.59809 0.0691 0.52986 0.0
O143 O 0.51742 0.98011 0.70962 0.0
O144 O 0.46461 0.96686 0.58242 0.0
O145 O 0.47592 0.97312 0.47192 0.0
C146 C 0.52954 0.55678 0.39225 0.0
C147 C 0.57971 0.51128 0.472 0.0
C148 C 0.47282 0.43766 0.59179 0.0
Mg149 Mg 0.56547 0.56145 0.53129 0.0
O150 O 0.52519 0.53065 0.54916 0.0
Mg151 Mg 0.50449 0.49214 0.48477 0.0
Mg152 Mg 0.51687 0.51144 0.63997 0.0
O153 O 0.50834 0.49196 0.72998 0.0
Mg154 Mg 0.46764 0.46117 0.74351 0.0
Mg155 Mg 0.52737 0.53015 0.79529 0.0
C156 C 0.56068 0.58492 0.68552 0.0
C157 C 0.58311 0.52785 0.71855 0.0
O158 O 0.51186 0.52713 0.39786 0.0
O159 O 0.55115 0.57422 0.4381 0.0
O160 O 0.55033 0.49367 0.46331 0.0
O161 O 0.59179 0.53871 0.50169 0.0
O162 O 0.57426 0.58964 0.62862 0.0
O163 O 0.53616 0.55913 0.69688 0.0
C164 C 0.45013 0.49535 0.56416 0.0
O165 O 0.467 0.50467 0.62114 0.0
O166 O 0.45995 0.48996 0.50871 0.0
O167 O 0.51928 0.49445 0.88115 0.0
O168 O 0.47985 0.44793 0.83825 0.0
O169 O 0.48006 0.52788 0.81508 0.0
C170 C 0.50117 0.46476 0.88515 0.0
O171 O 0.44105 0.48377 0.7648 0.0
O172 O 0.45845 0.4327 0.64747 0.0
C173 C 0.45107 0.50991 0.79895 0.0
O174 O 0.49739 0.4637 0.5826 0.0
O175 O 0.56694 0.51863 0.66049 0.0
O176 O 0.57238 0.53272 0.77322 0.0
H177 H 0.17166 0.49851 0.24847 0.0
H178 H 0.25109 0.56442 0.38155 0.0
H179 H 0.21585 0.5641 0.46862 0.0
H180 H 0.12469 0.53426 0.28628 0.0
H181 H 0.08897 0.49735 0.28012 0.0
H182 H 0.12074 0.50227 0.23081 0.0
H183 H 0.11886 0.45402 0.28498 0.0
H184 H 0.08748 0.44935 0.33549 0.0
H185 H 0.12242 0.45342 0.37736 0.0
H186 H 0.17103 0.55352 0.54428 0.0
H187 H 0.12114 0.54215 0.59163 0.0
H188 H 0.07167 0.48754 0.4034 0.0
C189 C 0.18154 0.51304 0.29579 0.0
C190 C 0.21399 0.53148 0.30865 0.0
C191 C 0.22623 0.55037 0.37075 0.0
C192 C 0.2064 0.55006 0.42064 0.0
C193 C 0.17441 0.53121 0.4069 0.0
C194 C 0.1621 0.51371 0.3451 0.0
C195 C 0.12698 0.49707 0.34077 0.0
C196 C 0.11463 0.50843 0.28097 0.0
C197 C 0.11313 0.46135 0.33427 0.0
C198 C 0.12136 0.50767 0.40995 0.0
C199 C 0.14893 0.5268 0.44815 0.0
C200 C 0.14935 0.5388 0.51448 0.0
C201 C 0.12094 0.53199 0.54129 0.0
C202 C 0.09268 0.51396 0.50117 0.0
C203 C 0.093 0.50134 0.43518 0.0
H204 H 0.74098 0.16246 0.30919 0.0
H205 H 0.70888 0.22947 0.28725 0.0
H206 H 0.67254 0.20488 0.37734 0.0
H207 H 0.66866 0.09781 0.3266 0.0
H208 H 0.68163 0.07981 0.38901 0.0
H209 H 0.70806 0.10529 0.32969 0.0
H210 H 0.74623 0.13944 0.43222 0.0
H211 H 0.71964 0.11413 0.49196 0.0
H212 H 0.73306 0.15553 0.49874 0.0
H213 H 0.63482 0.16913 0.45657 0.0
H214 H 0.59764 0.12366 0.51735 0.0
H215 H 0.65492 0.08078 0.4937 0.0
C216 C 0.72674 0.17234 0.32432 0.0
C217 C 0.7279 0.19798 0.2911 0.0
C218 C 0.70851 0.20989 0.31179 0.0
C219 C 0.68788 0.1962 0.36336 0.0
C220 C 0.68703 0.17076 0.39448 0.0
C221 C 0.70599 0.15896 0.37599 0.0
C222 C 0.69847 0.12969 0.41317 0.0
C223 C 0.6886 0.1015 0.36154 0.0
C224 C 0.72599 0.13503 0.46192 0.0
C225 C 0.67152 0.1262 0.45323 0.0
C226 C 0.6656 0.15043 0.44237 0.0
C227 C 0.63972 0.15052 0.46715 0.0
C228 C 0.61879 0.12468 0.50182 0.0
C229 C 0.62397 0.09928 0.51185 0.0
C230 C 0.65119 0.10057 0.48929 0.0
H231 H 0.55938 0.70596 0.19208 0.0
H232 H 0.46631 0.65202 0.09495 0.0
H233 H 0.45992 0.60503 0.15194 0.0
H234 H 0.57974 0.64546 0.1801 0.0
H235 H 0.60121 0.65683 0.26276 0.0
H236 H 0.59841 0.68569 0.21323 0.0
H237 H 0.57599 0.70101 0.31588 0.0
H238 H 0.57909 0.67249 0.36594 0.0
H239 H 0.54228 0.67112 0.35357 0.0
H240 H 0.46425 0.56371 0.22116 0.0
H241 H 0.4771 0.53385 0.30358 0.0
H242 H 0.56725 0.61601 0.35319 0.0
C243 C 0.53758 0.68432 0.18258 0.0
C244 C 0.51335 0.68269 0.13881 0.0
C245 C 0.4852 0.65384 0.12822 0.0
C246 C 0.48144 0.627 0.16003 0.0
C247 C 0.50603 0.62941 0.20218 0.0
C248 C 0.53344 0.65749 0.21379 0.0
C249 C 0.55606 0.65447 0.26293 0.0
C250 C 0.5856 0.661 0.22762 0.0
C251 C 0.56379 0.67604 0.32845 0.0
C252 C 0.53707 0.62036 0.27791 0.0
C253 C 0.50837 0.60608 0.24203 0.0
C254 C 0.4867 0.5747 0.24934 0.0
C255 C 0.49428 0.55785 0.29596 0.0
C256 C 0.5232 0.5725 0.33499 0.0
C257 C 0.54495 0.60399 0.32429 0.0
H258 H 0.85808 0.57298 0.25862 0.0
H259 H 0.78306 0.47862 0.28134 0.0
H260 H 0.80926 0.47606 0.38871 0.0
H261 H 0.91731 0.55863 0.3091 0.0
H262 H 0.94178 0.59608 0.35459 0.0
H263 H 0.91483 0.59249 0.28562 0.0
H264 H 0.89055 0.61556 0.36806 0.0
H265 H 0.91732 0.61884 0.43762 0.0
H266 H 0.87615 0.59733 0.44732 0.0
H267 H 0.84639 0.47997 0.48251 0.0
H268 H 0.89332 0.4901 0.55343 0.0
H269 H 0.94394 0.58214 0.47501 0.0
C270 C 0.84689 0.55213 0.28717 0.0
C271 C 0.81851 0.52605 0.26153 0.0
C272 C 0.80487 0.49889 0.29966 0.0
C273 C 0.81943 0.49726 0.36119 0.0
C274 C 0.84763 0.52305 0.38456 0.0
C275 C 0.86128 0.55002 0.34888 0.0
C276 C 0.89327 0.57298 0.38138 0.0
C277 C 0.91826 0.58046 0.32961 0.0
C278 C 0.89437 0.60295 0.41032 0.0
C279 C 0.89587 0.55417 0.4389 0.0
C280 C 0.86903 0.52561 0.44056 0.0
C281 C 0.86718 0.50263 0.48343 0.0
C282 C 0.89378 0.50857 0.52389 0.0
C283 C 0.92156 0.53733 0.52158 0.0
C284 C 0.92236 0.56065 0.4801 0.0
H285 H 0.35204 0.81097 0.26262 0.0
H286 H 0.27316 0.81279 0.34405 0.0
H287 H 0.30752 0.85154 0.43678 0.0
H288 H 0.399 0.82614 0.43016 0.0
H289 H 0.43471 0.8515 0.39186 0.0
H290 H 0.40337 0.81932 0.34086 0.0
H291 H 0.40451 0.85783 0.25187 0.0
H292 H 0.43567 0.88998 0.30273 0.0
H293 H 0.40053 0.89081 0.28038 0.0
H294 H 0.35056 0.89395 0.51206 0.0
H295 H 0.3997 0.93971 0.55906 0.0
H296 H 0.45093 0.9127 0.42488 0.0
C297 C 0.34205 0.81882 0.30155 0.0
C298 C 0.31008 0.80867 0.2976 0.0
C299 C 0.29767 0.82021 0.34724 0.0
C300 C 0.31695 0.84204 0.40011 0.0
C301 C 0.34859 0.85231 0.4019 0.0
C302 C 0.36114 0.84123 0.35373 0.0
C303 C 0.39623 0.85921 0.36142 0.0
C304 C 0.40908 0.83776 0.38234 0.0
C305 C 0.41002 0.87542 0.29519 0.0
C306 C 0.40137 0.88274 0.41968 0.0
C307 C 0.37363 0.87785 0.44357 0.0
C308 C 0.37247 0.89767 0.49477 0.0
C309 C 0.40043 0.92344 0.52161 0.0
C310 C 0.42889 0.92924 0.49637 0.0
C311 C 0.42934 0.90848 0.44535 0.0
H312 H 0.49212 0.32406 0.32893 0.0
H313 H 0.39429 0.25754 0.3411 0.0
H314 H 0.38901 0.29654 0.41453 0.0
H315 H 0.50778 0.35714 0.49896 0.0
H316 H 0.53384 0.39639 0.47611 0.0
H317 H 0.52953 0.36359 0.42356 0.0
H318 H 0.51535 0.38476 0.31684 0.0
H319 H 0.51864 0.4176 0.36783 0.0
H320 H 0.48316 0.39198 0.31739 0.0
H321 H 0.39559 0.34186 0.4916 0.0
H322 H 0.41341 0.38949 0.56799 0.0
H323 H 0.50623 0.42691 0.49819 0.0
C324 C 0.4696 0.3175 0.34754 0.0
C325 C 0.44366 0.28767 0.33034 0.0
C326 C 0.41447 0.28024 0.35432 0.0
C327 C 0.41125 0.30226 0.39558 0.0
C328 C 0.43733 0.33162 0.41094 0.0
C329 C 0.46589 0.33926 0.38739 0.0
C330 C 0.49039 0.37224 0.41118 0.0
C331 C 0.51693 0.37233 0.45506 0.0
C332 C 0.50261 0.39285 0.34966 0.0
C333 C 0.47141 0.38174 0.45398 0.0
C334 C 0.44081 0.35809 0.45283 0.0
C335 C 0.41937 0.36067 0.49225 0.0
C336 C 0.4297 0.38775 0.53545 0.0
C337 C 0.46113 0.41184 0.5385 0.0
C338 C 0.48196 0.40911 0.4958 0.0
H339 H 0.57031 0.84676 0.90399 0.0
H340 H 0.47136 0.79336 0.9284 0.0
H341 H 0.46504 0.83608 0.88192 0.0
H342 H 0.58113 0.92326 0.94672 0.0
H343 H 0.60819 0.94223 0.882 0.0
H344 H 0.60544 0.90795 0.91896 0.0
H345 H 0.5945 0.88007 0.79748 0.0
H346 H 0.59787 0.91449 0.76014 0.0
H347 H 0.56326 0.87716 0.74143 0.0
H348 H 0.46963 0.88525 0.83677 0.0
H349 H 0.48301 0.93291 0.77623 0.0
H350 H 0.5785 0.95363 0.77461 0.0
C351 C 0.54729 0.844 0.89908 0.0
C352 C 0.52131 0.81671 0.91989 0.0
C353 C 0.49155 0.8139 0.9123 0.0
C354 C 0.48778 0.8382 0.88665 0.0
C355 C 0.51393 0.86504 0.86797 0.0
C356 C 0.54301 0.8678 0.87231 0.0
C357 C 0.56695 0.89834 0.84477 0.0
C358 C 0.5919 0.91917 0.90151 0.0
C359 C 0.58149 0.89214 0.78224 0.0
C360 C 0.54675 0.91225 0.82407 0.0
C361 C 0.51638 0.89292 0.83931 0.0
C362 C 0.49335 0.90055 0.8246 0.0
C363 C 0.50126 0.92798 0.79082 0.0
C364 C 0.53182 0.94731 0.77096 0.0
C365 C 0.55497 0.93958 0.78951 0.0
H366 H 0.72824 0.5743 0.9656 0.0
H367 H 0.73339 0.49769 0.86361 0.0
H368 H 0.69895 0.49614 0.76675 0.0
H369 H 0.65157 0.54316 0.93558 0.0
H370 H 0.65104 0.57896 0.92226 0.0
H371 H 0.68246 0.58001 0.9733 0.0
H372 H 0.72182 0.62005 0.89429 0.0
H373 H 0.69029 0.61905 0.84279 0.0
H374 H 0.71773 0.6108 0.80276 0.0
H375 H 0.65611 0.49561 0.69305 0.0
H376 H 0.60754 0.49487 0.65429 0.0
H377 H 0.62973 0.5712 0.8042 0.0
C378 C 0.72325 0.5583 0.92123 0.0
C379 C 0.73378 0.53648 0.92134 0.0
C380 C 0.72573 0.51483 0.86398 0.0
C381 C 0.70631 0.51388 0.80854 0.0
C382 C 0.69506 0.53475 0.81107 0.0
C383 C 0.70342 0.55674 0.86585 0.0
C384 C 0.68429 0.57291 0.86195 0.0
C385 C 0.66628 0.56846 0.92708 0.0
C386 C 0.70476 0.60777 0.8497 0.0
C387 C 0.66274 0.55531 0.79916 0.0
C388 C 0.66979 0.534 0.76912 0.0
C389 C 0.6508 0.51275 0.71507 0.0
C390 C 0.62331 0.51249 0.69311 0.0
C391 C 0.615 0.53296 0.72625 0.0
C392 C 0.6357 0.55542 0.77763 0.0
H393 H 0.16666 0.7038 1.00158 0.0
H394 H 0.2149 0.65196 0.04043 0.0
H395 H 0.17171 0.60535 0.97618 0.0
H396 H 0.08844 0.63885 0.01671 0.0
H397 H 0.07214 0.65174 0.94941 0.0
H398 H 0.1057 0.67994 1.00246 0.0
H399 H 0.13614 0.70138 0.89367 0.0
H400 H 0.10263 0.67368 0.84036 0.0
H401 H 0.13916 0.67473 0.83293 0.0
H402 H 0.12516 0.56639 0.90015 0.0
H403 H 0.08108 0.53891 0.8142 0.0
H404 H 0.0637 0.61696 0.82819 0.0
C405 C 0.16831 0.6827 0.99691 0.0
C406 C 0.19427 0.68155 0.0256 0.0
C407 C 0.19527 0.65336 0.01853 0.0
C408 C 0.17077 0.62677 0.98267 0.0
C409 C 0.14545 0.62883 0.95535 0.0
C410 C 0.14416 0.65614 0.96216 0.0
C411 C 0.11538 0.65311 0.9252 0.0
C412 C 0.09416 0.65608 0.97652 0.0
C413 C 0.12385 0.67713 0.86975 0.0
C414 C 0.10114 0.62012 0.89373 0.0
C415 C 0.11846 0.60627 0.91278 0.0
C416 C 0.11101 0.57665 0.88619 0.0
C417 C 0.08582 0.5612 0.83735 0.0
C418 C 0.06875 0.57568 0.81457 0.0
C419 C 0.07601 0.60509 0.84501 0.0
H420 H 0.48988 0.18378 0.05777 0.0
H421 H 0.39428 0.16107 0.01513 0.0
H422 H 0.38349 0.1123 0.95073 0.0
H423 H 0.49957 0.15395 0.89441 0.0
H424 H 0.52324 0.13935 0.93256 0.0
H425 H 0.52316 0.17271 0.97291 0.0
H426 H 0.5081 0.14397 0.08617 0.0
H427 H 0.50732 0.11017 0.04542 0.0
H428 H 0.47362 0.10614 0.08559 0.0
H429 H 0.38301 0.06624 0.89243 0.0
H430 H 0.39422 0.02839 0.83238 0.0
H431 H 0.48962 0.08013 0.91669 0.0
C432 C 0.46677 0.16888 0.03394 0.0
C433 C 0.44292 0.17631 0.0412 0.0
C434 C 0.41294 0.15594 0.00989 0.0
C435 C 0.40653 0.12808 0.97378 0.0
C436 C 0.43032 0.12096 0.9699 0.0
C437 C 0.45993 0.14093 0.99833 0.0
C438 C 0.48139 0.12789 0.98643 0.0
C439 C 0.50842 0.14976 0.94403 0.0
C440 C 0.4933 0.12167 0.05499 0.0
C441 C 0.4593 0.0976 0.94575 0.0
C442 C 0.42989 0.09396 0.93746 0.0
C443 C 0.40585 0.06869 0.89889 0.0
C444 C 0.41239 0.04728 0.86534 0.0
C445 C 0.44264 0.05128 0.87083 0.0
C446 C 0.46613 0.07616 0.9133 0.0
H447 H 0.37397 0.55755 0.09754 0.0
H448 H 0.28715 0.50388 0.97469 0.0
H449 H 0.31528 0.49962 0.87732 0.0
H450 H 0.42355 0.59808 0.94888 0.0
H451 H 0.45566 0.59555 0.98833 0.0
H452 H 0.42836 0.59891 0.04117 0.0
H453 H 0.41979 0.54835 0.09905 0.0
H454 H 0.44593 0.54484 0.04313 0.0
H455 H 0.40677 0.51293 0.04566 0.0
H456 H 0.35106 0.49535 0.79887 0.0
H457 H 0.39237 0.49009 0.74492 0.0
H458 H 0.45714 0.54585 0.91664 0.0
C459 C 0.36118 0.54587 0.04923 0.0
C460 C 0.32847 0.53153 0.04286 0.0
C461 C 0.31225 0.51536 0.97999 0.0
C462 C 0.32803 0.51287 0.9244 0.0
C463 C 0.36017 0.52657 0.93238 0.0
C464 C 0.37669 0.54284 0.99301 0.0
C465 C 0.41079 0.5526 0.98978 0.0
C466 C 0.43081 0.58842 0.99215 0.0
C467 C 0.42143 0.53885 0.04783 0.0
C468 C 0.41046 0.53803 0.91936 0.0
C469 C 0.38107 0.5237 0.88675 0.0
C470 C 0.37428 0.50688 0.82338 0.0
C471 C 0.39791 0.50396 0.79314 0.0
C472 C 0.42806 0.51772 0.82615 0.0
C473 C 0.43452 0.53563 0.88938 0.0
H474 H 0.82748 0.27542 0.93259 0.0
H475 H 0.88393 0.26899 0.09988 0.0
H476 H 0.93142 0.30579 0.04455 0.0
H477 H 0.8809 0.28285 0.79328 0.0
H478 H 0.87209 0.30942 0.7492 0.0
H479 H 0.84311 0.27925 0.79729 0.0
H480 H 0.83721 0.32146 0.86721 0.0
H481 H 0.86655 0.3518 0.8206 0.0
H482 H 0.87083 0.35338 0.91325 0.0
H483 H 0.97181 0.35116 0.98294 0.0
H484 H 1.00243 0.39482 0.90897 0.0
H485 H 0.91982 0.36791 0.77685 0.0
C486 C 0.84987 0.28088 0.95607 0.0
C487 C 0.85222 0.26927 0.01994 0.0
C488 C 0.88177 0.27723 0.05017 0.0
C489 C 0.90881 0.29828 0.01938 0.0
C490 C 0.90573 0.3104 0.95765 0.0
C491 C 0.87697 0.30122 0.92524 0.0
C492 C 0.87981 0.31872 0.86105 0.0
C493 C 0.8683 0.29622 0.79637 0.0
C494 C 0.86259 0.33744 0.86589 0.0
C495 C 0.91454 0.34017 0.86392 0.0
C496 C 0.92915 0.3352 0.9202 0.0
C497 C 0.96078 0.3546 0.93758 0.0
C498 C 0.97792 0.3794 0.89581 0.0
C499 C 0.96339 0.3841 0.83708 0.0
C500 C 0.93145 0.36415 0.82074 0.0
H501 H 0.85401 0.51364 0.01516 0.0
H502 H 0.77443 0.44561 0.88529 0.0
H503 H 0.80949 0.44609 0.79762 0.0
H504 H 0.90161 0.5583 0.88334 0.0
H505 H 0.93716 0.56367 0.9248 0.0
H506 H 0.90583 0.55875 0.97584 0.0
H507 H 0.90564 0.51172 0.03237 0.0
H508 H 0.93736 0.51694 0.98257 0.0
H509 H 0.90219 0.47955 0.97837 0.0
H510 H 0.85416 0.45684 0.72109 0.0
H511 H 0.90408 0.46837 0.67362 0.0
H512 H 0.95373 0.52536 0.85921 0.0
C513 C 0.84402 0.49868 0.96841 0.0
C514 C 0.81158 0.47961 0.95669 0.0
C515 C 0.79928 0.46017 0.89531 0.0
C516 C 0.819 0.46057 0.84503 0.0
C517 C 0.85096 0.48013 0.85762 0.0
C518 C 0.86336 0.49819 0.91872 0.0
C519 C 0.89847 0.51556 0.92207 0.0
C520 C 0.91152 0.55118 0.92679 0.0
C521 C 0.91168 0.50532 0.9824 0.0
C522 C 0.90399 0.50459 0.85328 0.0
C523 C 0.87637 0.48475 0.81595 0.0
C524 C 0.87588 0.47216 0.75021 0.0
C525 C 0.90429 0.47906 0.7233 0.0
C526 C 0.9326 0.49777 0.76277 0.0
C527 C 0.93235 0.51106 0.82793 0.0
H528 H 0.28117 0.84789 0.95367 0.0
H529 H 0.31801 0.78508 0.98281 0.0
H530 H 0.35372 0.80965 0.89179 0.0
H531 H 0.28835 0.85207 0.76367 0.0
H532 H 0.29979 0.89302 0.76671 0.0
H533 H 0.27412 0.86798 0.82817 0.0
H534 H 0.3117 0.90485 0.9287 0.0
H535 H 0.33717 0.93007 0.86763 0.0
H536 H 0.35175 0.91439 0.93232 0.0
H537 H 0.39027 0.84522 0.81084 0.0
H538 H 0.42573 0.89053 0.74706 0.0
H539 H 0.36436 0.92895 0.76406 0.0
C540 C 0.29636 0.83895 0.94003 0.0
C541 C 0.29669 0.8145 0.97548 0.0
C542 C 0.31723 0.80376 0.95657 0.0
C543 C 0.33752 0.81742 0.90448 0.0
C544 C 0.33685 0.84163 0.87101 0.0
C545 C 0.31677 0.85229 0.88776 0.0
C546 C 0.32268 0.88043 0.84788 0.0
C547 C 0.29456 0.87291 0.79868 0.0
C548 C 0.33135 0.90912 0.89707 0.0
C549 C 0.35001 0.88466 0.80838 0.0
C550 C 0.35754 0.86174 0.82185 0.0
C551 C 0.38411 0.86278 0.79817 0.0
C552 C 0.40408 0.88849 0.76187 0.0
C553 C 0.39716 0.91253 0.74907 0.0
C554 C 0.36933 0.91007 0.77059 0.0
H555 H 0.46425 0.30901 0.05936 0.0
H556 H 0.56027 0.3528 0.13911 0.0
H557 H 0.56972 0.40298 0.09266 0.0
H558 H 0.47744 0.34767 0.90324 0.0
H559 H 0.44254 0.35025 0.90493 0.0
H560 H 0.44449 0.31882 0.94498 0.0
H561 H 0.42967 0.33465 0.05968 0.0
H562 H 0.42832 0.36658 0.02031 0.0
H563 H 0.45299 0.37401 0.09727 0.0
H564 H 0.56764 0.44878 0.03467 0.0
H565 H 0.55567 0.48282 0.96342 0.0
H566 H 0.46061 0.40745 0.92768 0.0
C567 C 0.48741 0.32902 0.06707 0.0
C568 C 0.51155 0.32689 0.10282 0.0
C569 C 0.54145 0.35378 0.11137 0.0
C570 C 0.54693 0.38243 0.08569 0.0
C571 C 0.52224 0.38372 0.0519 0.0
C572 C 0.49315 0.3575 0.04231 0.0
C573 C 0.47041 0.36424 1.00333 0.0
C574 C 0.45802 0.34407 0.93509 0.0
C575 C 0.44378 0.3596 0.04783 0.0
C576 C 0.49121 0.39835 0.99123 0.0
C577 C 0.52098 0.40949 0.01997 0.0
C578 C 0.54432 0.44024 0.01244 0.0
C579 C 0.53725 0.45953 0.97242 0.0
C580 C 0.50715 0.44787 0.94013 0.0
C581 C 0.4838 0.41719 0.95183 0.0
H582 H 0.19863 0.51468 0.03321 0.0
H583 H 0.19359 0.42513 0.9922 0.0
H584 H 0.16152 0.41682 0.88411 0.0
H585 H 0.12076 0.48751 0.98005 0.0
H586 H 0.12741 0.52349 0.94507 0.0
H587 H 0.15295 0.52431 0.0142 0.0
H588 H 0.20041 0.55389 0.94212 0.0
H589 H 0.17545 0.5539 0.87231 0.0
H590 H 0.20061 0.53793 0.8576 0.0
H591 H 0.12794 0.41779 0.78232 0.0
H592 H 0.09001 0.424 0.70778 0.0
H593 H 0.11745 0.51277 0.81798 0.0
C594 C 0.19112 0.49346 1.00109 0.0
C595 C 0.19879 0.47066 0.02066 0.0
C596 C 0.1879 0.44288 0.97812 0.0
C597 C 0.16999 0.43814 0.91633 0.0
C598 C 0.1631 0.46134 0.89817 0.0
C599 C 0.17303 0.48825 0.94003 0.0
C600 C 0.15981 0.50803 0.91359 0.0
C601 C 0.13902 0.511 0.96632 0.0
C602 C 0.18562 0.54035 0.89531 0.0
C603 C 0.14101 0.48826 0.84984 0.0
C604 C 0.14339 0.46157 0.84112 0.0
C605 C 0.12619 0.43878 0.78828 0.0
C606 C 0.10492 0.44266 0.74562 0.0
C607 C 0.10084 0.46894 0.75674 0.0
C608 C 0.12022 0.49258 0.80757 0.0
H609 H 0.67138 0.20012 0.01372 0.0
H610 H 0.74805 0.20023 0.91583 0.0
H611 H 0.71175 0.16371 0.82188 0.0
H612 H 0.62216 0.11996 0.98711 0.0
H613 H 0.58698 0.12175 0.97352 0.0
H614 H 0.6193 0.15223 0.02531 0.0
H615 H 0.61902 0.19371 0.94709 0.0
H616 H 0.58661 0.16319 0.89505 0.0
H617 H 0.62154 0.18975 0.85557 0.0
H618 H 0.66686 0.12461 0.74326 0.0
H619 H 0.61657 0.08106 0.69417 0.0
H620 H 0.56918 0.10308 0.84957 0.0
C621 C 0.68044 0.19305 0.97131 0.0
C622 C 0.71233 0.20321 0.9706 0.0
C623 C 0.72358 0.19276 0.91624 0.0
C624 C 0.70321 0.17224 0.86268 0.0
C625 C 0.67169 0.16213 0.86515 0.0
C626 C 0.6603 0.1719 0.91851 0.0
C627 C 0.62521 0.1543 0.91421 0.0
C628 C 0.61269 0.13597 0.97885 0.0
C629 C 0.61234 0.17657 0.90224 0.0
C630 C 0.61869 0.13258 0.85128 0.0
C631 C 0.64573 0.13806 0.82248 0.0
C632 C 0.64551 0.12022 0.76506 0.0
C633 C 0.61691 0.09564 0.73737 0.0
C634 C 0.5892 0.08881 0.76831 0.0
C635 C 0.59013 0.10786 0.82513 0.0
H636 H 0.56937 0.73869 0.83953 0.0
H637 H 0.62234 0.73488 0.01742 0.0
H638 H 0.62687 0.69238 0.95737 0.0
H639 H 0.52474 0.66256 0.80485 0.0
H640 H 0.52374 0.66199 0.71217 0.0
H641 H 0.53078 0.69667 0.76117 0.0
H642 H 0.58244 0.72971 0.70403 0.0
H643 H 0.57514 0.6953 0.65274 0.0
H644 H 0.61099 0.71726 0.70493 0.0
H645 H 0.61458 0.64259 0.88885 0.0
H646 H 0.59437 0.59548 0.80819 0.0
H647 H 0.55196 0.63405 0.6737 0.0
C648 C 0.58331 0.72998 0.86416 0.0
C649 C 0.5959 0.74013 0.93228 0.0
C650 C 0.61324 0.7278 0.96438 0.0
C651 C 0.61566 0.70349 0.93091 0.0
C652 C 0.60128 0.69257 0.86497 0.0
C653 C 0.58636 0.7062 0.83101 0.0
C654 C 0.5705 0.68863 0.76309 0.0
C655 C 0.53538 0.67677 0.76025 0.0
C656 C 0.58569 0.70893 0.70262 0.0
C657 C 0.57717 0.66193 0.76596 0.0
C658 C 0.59505 0.66454 0.82484 0.0
C659 C 0.60138 0.64079 0.84161 0.0
C660 C 0.5896 0.61406 0.79622 0.0
C661 C 0.5719 0.61164 0.73535 0.0
C662 C 0.56579 0.63581 0.71994 0.0
H663 H 0.52711 0.19844 0.35278 0.0
H664 H 0.43379 0.15019 0.2542 0.0
H665 H 0.42539 0.10088 0.29817 0.0
H666 H 0.54278 0.13222 0.32837 0.0
H667 H 0.5631 0.13981 0.41182 0.0
H668 H 0.56393 0.17161 0.36682 0.0
H669 H 0.54279 0.18699 0.47171 0.0
H670 H 0.5423 0.1555 0.51702 0.0
H671 H 0.50738 0.15792 0.50555 0.0
H672 H 0.42402 0.05798 0.35974 0.0
H673 H 0.42943 0.024 0.44292 0.0
H674 H 0.52345 0.0973 0.50217 0.0
C675 C 0.50509 0.17741 0.34003 0.0
C676 C 0.48112 0.17842 0.30021 0.0
C677 C 0.4525 0.15035 0.28511 0.0
C678 C 0.44751 0.12198 0.30924 0.0
C679 C 0.47131 0.12171 0.34854 0.0
C680 C 0.49953 0.14855 0.36432 0.0
C681 C 0.52004 0.14171 0.41251 0.0
C682 C 0.54919 0.14663 0.37779 0.0
C683 C 0.52861 0.16171 0.48074 0.0
C684 C 0.49842 0.10723 0.42278 0.0
C685 C 0.47064 0.09619 0.3843 0.0
C686 C 0.44585 0.06606 0.3892 0.0
C687 C 0.4491 0.04691 0.43643 0.0
C688 C 0.47696 0.05788 0.47772 0.0
C689 C 0.50226 0.08808 0.46944 0.0
H690 H 0.30427 0.44516 0.32029 0.0
H691 H 0.3075 0.53055 0.39586 0.0
H692 H 0.34201 0.53484 0.49544 0.0
H693 H 0.31288 0.41644 0.49455 0.0
H694 H 0.33775 0.40287 0.46133 0.0
H695 H 0.30738 0.40208 0.4058 0.0
H696 H 0.34773 0.43501 0.31944 0.0
H697 H 0.37792 0.43553 0.37421 0.0
H698 H 0.38096 0.47187 0.3496 0.0
H699 H 0.38298 0.53506 0.57523 0.0
H700 H 0.42989 0.53375 0.61882 0.0
H701 H 0.40072 0.44894 0.49119 0.0
C702 C 0.31135 0.46406 0.35925 0.0
C703 C 0.30303 0.48733 0.35083 0.0
C704 C 0.31358 0.51239 0.40151 0.0
C705 C 0.33296 0.51488 0.45864 0.0
C706 C 0.34163 0.4921 0.46459 0.0
C707 C 0.33114 0.46713 0.41613 0.0
C708 C 0.34771 0.44872 0.42796 0.0
C709 C 0.32507 0.41556 0.44866 0.0
C710 C 0.36459 0.44777 0.36406 0.0
C711 C 0.37032 0.46825 0.48784 0.0
C712 C 0.36586 0.4926 0.50992 0.0
C713 C 0.38628 0.51569 0.55951 0.0
C714 C 0.41278 0.51473 0.58439 0.0
C715 C 0.41867 0.4912 0.55841 0.0
C716 C 0.39639 0.46694 0.51241 0.0
H717 H 0.85665 0.30537 0.27208 0.0
H718 H 0.81594 0.36191 0.21074 0.0
H719 H 0.85978 0.4082 0.27431 0.0
H720 H 0.88182 0.33832 0.44016 0.0
H721 H 0.91682 0.33586 0.44107 0.0
H722 H 0.88339 0.30851 0.38704 0.0
H723 H 0.91661 0.32446 0.28082 0.0
H724 H 0.95009 0.35228 0.33459 0.0
H725 H 0.93721 0.36498 0.26071 0.0
H726 H 0.90693 0.44731 0.35035 0.0
H727 H 0.94992 0.47433 0.43938 0.0
H728 H 0.95922 0.39133 0.44702 0.0
C729 C 0.85682 0.32744 0.2716 0.0
C730 C 0.83281 0.33003 0.23656 0.0
C731 C 0.83407 0.3594 0.23746 0.0
C732 C 0.85897 0.38582 0.27289 0.0
C733 C 0.88242 0.38238 0.30632 0.0
C734 C 0.88138 0.35383 0.30602 0.0
C735 C 0.90832 0.35557 0.3487 0.0
C736 C 0.8969 0.33326 0.40773 0.0
C737 C 0.9293 0.34893 0.30348 0.0
C738 C 0.92432 0.38942 0.37522 0.0
C739 C 0.90941 0.40471 0.3494 0.0
C740 C 0.91895 0.43564 0.37025 0.0
C741 C 0.94353 0.45086 0.42079 0.0
C742 C 0.958 0.43498 0.45046 0.0
C743 C 0.94889 0.40427 0.4252 0.0
H744 H 0.59098 0.84762 0.25376 0.0
H745 H 0.50183 0.81234 0.1396 0.0
H746 H 0.49567 0.85425 0.19464 0.0
H747 H 0.56659 0.86885 0.41302 0.0
H748 H 0.60389 0.90316 0.43355 0.0
H749 H 0.60129 0.8699 0.38574 0.0
H750 H 0.63097 0.90584 0.28918 0.0
H751 H 0.63307 0.93907 0.33602 0.0
H752 H 0.61602 0.92857 0.24895 0.0
H753 H 0.50062 0.90166 0.25238 0.0
H754 H 0.51144 0.947 0.32896 0.0
H755 H 0.5954 0.95046 0.41411 0.0
C756 C 0.56999 0.84849 0.2413 0.0
C757 C 0.54696 0.82675 0.1923 0.0
C758 C 0.51975 0.82857 0.17729 0.0
C759 C 0.5161 0.85248 0.20776 0.0
C760 C 0.53959 0.87408 0.25403 0.0
C761 C 0.5656 0.87194 0.27243 0.0
C762 C 0.58667 0.89779 0.32575 0.0
C763 C 0.58978 0.8841 0.39354 0.0
C764 C 0.61857 0.91907 0.2983 0.0
C765 C 0.56849 0.91484 0.33353 0.0
C766 C 0.54172 0.90098 0.29056 0.0
C767 C 0.52137 0.91266 0.28677 0.0
C768 C 0.52793 0.93865 0.33003 0.0
C769 C 0.55433 0.9523 0.37735 0.0
C770 C 0.57511 0.9405 0.37832 0.0
H771 H 0.71109 0.53041 0.22652 0.0
H772 H 0.66209 0.42927 0.19142 0.0
H773 H 0.62514 0.42529 0.27738 0.0
H774 H 0.70313 0.53292 0.40951 0.0
H775 H 0.6977 0.56649 0.40889 0.0
H776 H 0.72052 0.56129 0.34579 0.0
H777 H 0.68558 0.56439 0.24731 0.0
H778 H 0.66295 0.57003 0.31007 0.0
H779 H 0.64422 0.5385 0.2445 0.0
H780 H 0.59282 0.43277 0.36582 0.0
H781 H 0.56601 0.4511 0.44273 0.0
H782 H 0.63672 0.54729 0.42052 0.0
C783 C 0.69263 0.50734 0.23673 0.0
C784 C 0.68957 0.4801 0.20203 0.0
C785 C 0.66496 0.45046 0.21714 0.0
C786 C 0.64395 0.44798 0.26618 0.0
C787 C 0.64795 0.47534 0.29993 0.0
C788 C 0.67161 0.50445 0.28547 0.0
C789 C 0.67037 0.53036 0.32705 0.0
C790 C 0.69967 0.54885 0.37569 0.0
C791 C 0.66548 0.55209 0.27939 0.0
C792 C 0.6421 0.51136 0.36696 0.0
C793 C 0.62959 0.47964 0.3509 0.0
C794 C 0.60259 0.45754 0.37895 0.0
C795 C 0.58753 0.46816 0.4227 0.0
C796 C 0.59934 0.50058 0.43807 0.0
C797 C 0.62746 0.52235 0.41108 0.0
H798 H 0.16403 0.69084 0.2046 0.0
H799 H 0.16941 0.77708 0.2816 0.0
H800 H 0.12504 0.74656 0.35324 0.0
H801 H 0.07836 0.6423 0.19943 0.0
H802 H 0.08036 0.60835 0.22414 0.0
H803 H 0.11009 0.63701 0.17473 0.0
H804 H 0.15203 0.64333 0.26766 0.0
H805 H 0.12253 0.61491 0.31742 0.0
H806 H 0.14918 0.6534 0.35588 0.0
H807 H 0.08527 0.70667 0.42796 0.0
H808 H 0.05134 0.66119 0.49335 0.0
H809 H 0.07066 0.60128 0.36058 0.0
C810 C 0.15556 0.70327 0.23589 0.0
C811 C 0.17009 0.73621 0.23845 0.0
C812 C 0.15838 0.75179 0.27916 0.0
C813 C 0.13328 0.73464 0.31981 0.0
C814 C 0.11992 0.70206 0.31735 0.0
C815 C 0.13038 0.68657 0.27534 0.0
C816 C 0.11319 0.65169 0.28357 0.0
C817 C 0.09438 0.63379 0.21648 0.0
C818 C 0.13557 0.64019 0.30759 0.0
C819 C 0.09222 0.64993 0.33923 0.0
C820 C 0.09626 0.67915 0.3579 0.0
C821 C 0.08143 0.68363 0.41269 0.0
C822 C 0.06233 0.6577 0.4497 0.0
C823 C 0.05811 0.62766 0.4315 0.0
C824 C 0.07283 0.62378 0.37468 0.0
loop_
_geom_bond_atom_site_label_1
_geom_bond_atom_site_label_2
_geom_bond_distance
_geom_bond_site_symmetry_2
_ccdc_geom_bond_type
C0 O2 1.247 . S
C0 O4 1.258 . S
C1 O8 1.247 . S
C1 O9 1.258 . S
O2 C0 1.247 . S
O2 Zn3 2.028 . S
Zn3 O2 2.028 . S
Zn3 O7 2.035 . S
Zn3 O9 2.035 . S
Zn3 O10 2.028 . S
O4 C0 1.258 . S
O4 Zn5 2.035 . S
Zn5 O4 2.035 . S
Zn5 O6 2.028 . S
Zn5 O8 2.028 . S
Zn5 O11 2.035 . S
O6 Zn5 2.028 . S
O6 C12 1.247 . S
O7 Zn3 2.035 . S
O7 C12 1.258 . S
O8 C1 1.247 . S
O8 Zn5 2.028 . S
O9 C1 1.258 . S
O9 Zn3 2.035 . S
O10 Zn3 2.028 . S
O10 C13 1.247 . S
O11 Zn5 2.035 . S
O11 C13 1.258 . S
C12 O6 1.247 . S
C12 O7 1.258 . S
C13 O10 1.247 . S
C13 O11 1.258 . S
C14 O16 1.247 . S
C14 O18 1.258 . S
C15 O22 1.247 . S
C15 O23 1.258 . S
O16 C14 1.247 . S
O16 Zn17 2.028 . S
Zn17 O16 2.028 . S
Zn17 O21 2.035 . S
Zn17 O23 2.035 . S
Zn17 O24 2.028 . S
O18 C14 1.258 . S
O18 Zn19 2.035 . S
Zn19 O18 2.035 . S
Zn19 O20 2.028 . S
Zn19 O22 2.028 . S
Zn19 O25 2.035 . S
O20 Zn19 2.028 . S
O20 C26 1.247 . S
O21 Zn17 2.035 . S
O21 C26 1.258 . S
O22 C15 1.247 . S
O22 Zn19 2.028 . S
O23 C15 1.258 . S
O23 Zn17 2.035 . S
O24 Zn17 2.028 . S
O24 C27 1.247 . S
O25 Zn19 2.035 . S
O25 C27 1.258 . S
C26 O20 1.247 . S
C26 O21 1.258 . S
C27 O24 1.247 . S
C27 O25 1.258 . S
C28 O30 1.247 . S
C28 O32 1.258 . S
C29 O36 1.247 . S
C29 O37 1.258 . S
O30 C28 1.247 . S
O30 Zn31 2.028 . S
Zn31 O30 2.028 . S
Zn31 O35 2.035 . S
Zn31 O37 2.035 1_554 S
Zn31 O38 2.028 1_554 S
O32 C28 1.258 . S
O32 Zn33 2.035 . S
Zn33 O32 2.035 . S
Zn33 O34 2.028 . S
Zn33 O36 2.028 1_554 S
Zn33 O39 2.035 1_554 S
O34 Zn33 2.028 . S
O34 C40 1.247 . S
O35 Zn31 2.035 . S
O35 C40 1.258 . S
O36 C29 1.247 . S
O36 Zn33 2.028 1_556 S
O37 C29 1.258 . S
O37 Zn31 2.035 1_556 S
O38 Zn31 2.028 1_556 S
O38 C41 1.247 . S
O39 Zn33 2.035 1_556 S
O39 C41 1.258 . S
C40 O34 1.247 . S
C40 O35 1.258 . S
C41 O38 1.247 . S
C41 O39 1.258 . S
C42 O44 1.247 1_556 S
C42 O46 1.258 . S
C43 O50 1.247 . S
C43 O51 1.258 . S
O44 C42 1.247 1_554 S
O44 Zn45 2.028 . S
Zn45 O44 2.028 . S
Zn45 O49 2.035 . S
Zn45 O51 2.035 . S
Zn45 O52 2.028 . S
O46 C42 1.258 . S
O46 Zn47 2.035 1_556 S
Zn47 O46 2.035 1_554 S
Zn47 O48 2.028 1_554 S
Zn47 O50 2.028 . S
Zn47 O53 2.035 . S
O48 Zn47 2.028 1_556 S
O48 C54 1.247 . S
O49 Zn45 2.035 . S
O49 C54 1.258 1_554 S
O50 C43 1.247 . S
O50 Zn47 2.028 . S
O51 C43 1.258 . S
O51 Zn45 2.035 . S
O52 Zn45 2.028 . S
O52 C55 1.247 . S
O53 Zn47 2.035 . S
O53 C55 1.258 . S
C54 O48 1.247 . S
C54 O49 1.258 1_556 S
C55 O52 1.247 . S
C55 O53 1.258 . S
C56 O58 1.247 . S
C56 O60 1.258 . S
C57 O64 1.247 . S
C57 O65 1.258 . S
O58 C56 1.247 . S
O58 Zn59 2.028 . S
Zn59 O58 2.028 . S
Zn59 O63 2.035 . S
Zn59 O65 2.035 . S
Zn59 O66 2.028 . S
O60 C56 1.258 . S
O60 Zn61 2.035 . S
Zn61 O60 2.035 . S
Zn61 O62 2.028 . S
Zn61 O64 2.028 . S
Zn61 O67 2.035 . S
O62 Zn61 2.028 . S
O62 C68 1.247 . S
O63 Zn59 2.035 . S
O63 C68 1.258 . S
O64 C57 1.247 . S
O64 Zn61 2.028 . S
O65 C57 1.258 . S
O65 Zn59 2.035 . S
O66 Zn59 2.028 . S
O66 C69 1.247 . S
O67 Zn61 2.035 . S
O67 C69 1.258 . S
C68 O62 1.247 . S
C68 O63 1.258 . S
C69 O66 1.247 . S
C69 O67 1.258 . S
C70 O72 1.247 . S
C70 O74 1.258 . S
C71 O78 1.247 . S
C71 O79 1.258 . S
O72 C70 1.247 . S
O72 Zn73 2.028 . S
Zn73 O72 2.028 . S
Zn73 O77 2.035 . S
Zn73 O79 2.035 . S
Zn73 O80 2.028 . S
O74 C70 1.258 . S
O74 Zn75 2.035 . S
Zn75 O74 2.035 . S
Zn75 O76 2.028 . S
Zn75 O78 2.028 . S
Zn75 O81 2.035 . S
O76 Zn75 2.028 . S
O76 C82 1.247 . S
O77 Zn73 2.035 . S
O77 C82 1.258 . S
O78 C71 1.247 . S
O78 Zn75 2.028 . S
O79 C71 1.258 . S
O79 Zn73 2.035 . S
O80 Zn73 2.028 . S
O80 C83 1.247 . S
O81 Zn75 2.035 . S
O81 C83 1.258 . S
C82 O76 1.247 . S
C82 O77 1.258 . S
C83 O80 1.247 . S
C83 O81 1.258 . S
C84 O96 1.241 . S
C84 O97 1.280 . S
C85 O98 1.277 . S
C85 O99 1.245 . S
C86 O110 1.247 . S
C86 O112 1.289 . S
Mg87 O88 1.926 . S
Mg87 O97 1.984 . S
Mg87 O99 1.988 1_655 S
Mg87 O100 2.061 . S
O88 Mg87 1.926 . S
O88 Mg89 1.986 1_655 S
O88 Mg90 1.917 1_655 S
Mg89 O88 1.986 1_455 S
Mg89 O96 2.042 1_455 S
Mg89 O98 2.041 . S
Mg89 O104 2.038 1_455 S
Mg89 O112 2.238 . S
Mg90 O88 1.917 1_455 S
Mg90 O91 1.917 . S
Mg90 O101 2.106 1_455 S
Mg90 O103 2.079 1_455 S
Mg90 O112 2.106 . S
Mg90 O113 2.079 . S
O91 Mg90 1.917 . S
O91 Mg92 1.926 . S
O91 Mg93 1.986 . S
Mg92 O91 1.926 . S
Mg92 O106 1.984 . S
Mg92 O109 1.988 1_455 S
Mg92 O110 2.061 . S
Mg93 O91 1.986 . S
Mg93 O101 2.238 1_455 S
Mg93 O105 2.042 . S
Mg93 O107 2.041 1_455 S
Mg93 O114 2.038 . S
C94 O100 1.247 . S
C94 O101 1.289 . S
C95 O113 1.245 . S
C95 O114 1.274 . S
O96 C84 1.241 . S
O96 Mg89 2.042 1_655 S
O97 C84 1.280 . S
O97 Mg87 1.984 . S
O98 C85 1.277 . S
O98 Mg89 2.041 . S
O99 C85 1.245 . S
O99 Mg87 1.988 1_455 S
O100 Mg87 2.061 . S
O100 C94 1.247 . S
O101 Mg90 2.106 1_655 S
O101 Mg93 2.238 1_655 S
O101 C94 1.289 . S
C102 O103 1.245 . S
C102 O104 1.274 . S
O103 Mg90 2.079 1_655 S
O103 C102 1.245 . S
O104 Mg89 2.038 1_655 S
O104 C102 1.274 . S
O105 Mg93 2.042 . S
O105 C108 1.241 . S
O106 Mg92 1.984 . S
O106 C108 1.280 . S
O107 Mg93 2.041 1_655 S
O107 C111 1.277 . S
C108 O105 1.241 . S
C108 O106 1.280 . S
O109 Mg92 1.988 1_655 S
O109 C111 1.245 . S
O110 C86 1.247 . S
O110 Mg92 2.061 . S
C111 O107 1.277 . S
C111 O109 1.245 . S
O112 C86 1.289 . S
O112 Mg89 2.238 . S
O112 Mg90 2.106 . S
O113 Mg90 2.079 . S
O113 C95 1.245 . S
O114 Mg93 2.038 . S
O114 C95 1.274 . S
C115 O127 1.241 . S
C115 O128 1.280 . S
C116 O129 1.277 . S
C116 O130 1.245 . S
C117 O141 1.247 . S
C117 O143 1.289 . S
Mg118 O119 1.926 . S
Mg118 O128 1.984 . S
Mg118 O130 1.988 1_545 S
Mg118 O131 2.061 . S
O119 Mg118 1.926 . S
O119 Mg120 1.986 . S
O119 Mg121 1.917 . S
Mg120 O119 1.986 . S
Mg120 O127 2.042 . S
Mg120 O129 2.041 1_545 S
Mg120 O135 2.038 . S
Mg120 O143 2.238 1_545 S
Mg121 O119 1.917 . S
Mg121 O122 1.917 1_545 S
Mg121 O132 2.106 . S
Mg121 O134 2.079 . S
Mg121 O143 2.106 1_545 S
Mg121 O144 2.079 1_545 S
O122 Mg121 1.917 1_565 S
O122 Mg123 1.926 . S
O122 Mg124 1.986 1_565 S
Mg123 O122 1.926 . S
Mg123 O137 1.984 . S
Mg123 O140 1.988 1_565 S
Mg123 O141 2.061 . S
Mg124 O122 1.986 1_545 S
Mg124 O132 2.238 . S
Mg124 O136 2.042 1_545 S
Mg124 O138 2.041 . S
Mg124 O145 2.038 1_545 S
C125 O131 1.247 . S
C125 O132 1.289 . S
C126 O144 1.245 . S
C126 O145 1.274 . S
O127 C115 1.241 . S
O127 Mg120 2.042 . S
O128 C115 1.280 . S
O128 Mg118 1.984 . S
O129 C116 1.277 . S
O129 Mg120 2.041 1_565 S
O130 C116 1.245 . S
O130 Mg118 1.988 1_565 S
O131 Mg118 2.061 . S
O131 C125 1.247 . S
O132 Mg121 2.106 . S
O132 Mg124 2.238 . S
O132 C125 1.289 . S
C133 O134 1.245 . S
C133 O135 1.274 . S
O134 Mg121 2.079 . S
O134 C133 1.245 . S
O135 Mg120 2.038 . S
O135 C133 1.274 . S
O136 Mg124 2.042 1_565 S
O136 C139 1.241 . S
O137 Mg123 1.984 . S
O137 C139 1.280 . S
O138 Mg124 2.041 . S
O138 C142 1.277 . S
C139 O136 1.241 . S
C139 O137 1.280 . S
O140 Mg123 1.988 1_545 S
O140 C142 1.245 . S
O141 C117 1.247 . S
O141 Mg123 2.061 . S
C142 O138 1.277 . S
C142 O140 1.245 . S
O143 C117 1.289 . S
O143 Mg120 2.238 1_565 S
O143 Mg121 2.106 1_565 S
O144 Mg121 2.079 1_565 S
O144 C126 1.245 . S
O145 Mg124 2.038 1_565 S
O145 C126 1.274 . S
C146 O158 1.241 . S
C146 O159 1.280 . S
C147 O160 1.277 . S
C147 O161 1.245 . S
C148 O172 1.247 . S
C148 O174 1.289 . S
Mg149 O150 1.926 . S
Mg149 O159 1.984 . S
Mg149 O161 1.988 . S
Mg149 O162 2.061 . S
O150 Mg149 1.926 . S
O150 Mg151 1.986 . S
O150 Mg152 1.917 . S
Mg151 O150 1.986 . S
Mg151 O158 2.042 . S
Mg151 O160 2.041 . S
Mg151 O166 2.038 . S
Mg151 O174 2.238 . S
Mg152 O150 1.917 . S
Mg152 O153 1.917 . S
Mg152 O163 2.106 . S
Mg152 O165 2.079 . S
Mg152 O174 2.106 . S
Mg152 O175 2.079 . S
O153 Mg152 1.917 . S
O153 Mg154 1.926 . S
O153 Mg155 1.986 . S
Mg154 O153 1.926 . S
Mg154 O168 1.984 . S
Mg154 O171 1.988 . S
Mg154 O172 2.061 . S
Mg155 O153 1.986 . S
Mg155 O163 2.238 . S
Mg155 O167 2.042 . S
Mg155 O169 2.041 . S
Mg155 O176 2.038 . S
C156 O162 1.247 . S
C156 O163 1.289 . S
C157 O175 1.245 . S
C157 O176 1.274 . S
O158 C146 1.241 . S
O158 Mg151 2.042 . S
O159 C146 1.280 . S
O159 Mg149 1.984 . S
O160 C147 1.277 . S
O160 Mg151 2.041 . S
O161 C147 1.245 . S
O161 Mg149 1.988 . S
O162 Mg149 2.061 . S
O162 C156 1.247 . S
O163 Mg152 2.106 . S
O163 Mg155 2.238 . S
O163 C156 1.289 . S
C164 O165 1.245 . S
C164 O166 1.274 . S
O165 Mg152 2.079 . S
O165 C164 1.245 . S
O166 Mg151 2.038 . S
O166 C164 1.274 . S
O167 Mg155 2.042 . S
O167 C170 1.241 . S
O168 Mg154 1.984 . S
O168 C170 1.280 . S
O169 Mg155 2.041 . S
O169 C173 1.277 . S
C170 O167 1.241 . S
C170 O168 1.280 . S
O171 Mg154 1.988 . S
O171 C173 1.245 . S
O172 C148 1.247 . S
O172 Mg154 2.061 . S
C173 O169 1.277 . S
C173 O171 1.245 . S
O174 C148 1.289 . S
O174 Mg151 2.238 . S
O174 Mg152 2.106 . S
O175 Mg152 2.079 . S
O175 C157 1.245 . S
O176 Mg155 2.038 . S
O176 C157 1.274 . S
H177 C189 0.930 . S
H178 C191 0.930 . S
H179 C192 0.930 . S
H180 C196 0.959 . S
H181 C196 0.959 . S
H182 C196 0.961 . S
H183 C197 0.960 . S
H184 C197 0.961 . S
H185 C197 0.959 . S
H186 C200 0.929 . S
H187 C201 0.931 . S
H188 C203 0.930 . S
C189 H177 0.930 . S
C189 C190 1.399 . S
C189 C194 1.399 . S
C190 C189 1.399 . S
C190 C191 1.376 . S
C191 H178 0.930 . S
C191 C190 1.376 . S
C191 C192 1.388 . S
C192 H179 0.930 . S
C192 C191 1.388 . S
C192 C193 1.390 . S
C193 C192 1.390 . S
C193 C194 1.394 . S
C193 C199 1.465 . S
C194 C189 1.399 . S
C194 C193 1.394 . S
C194 C195 1.516 . S
C195 C194 1.516 . S
C195 C196 1.502 . S
C195 C197 1.561 . S
C195 C198 1.526 . S
C196 H180 0.959 . S
C196 H181 0.959 . S
C196 H182 0.961 . S
C196 C195 1.502 . S
C197 H183 0.960 . S
C197 H184 0.961 . S
C197 H185 0.959 . S
C197 C195 1.561 . S
C198 C195 1.526 . S
C198 C199 1.396 . S
C198 C203 1.390 . S
C199 C193 1.465 . S
C199 C198 1.396 . S
C199 C200 1.399 . S
C200 H186 0.929 . S
C200 C199 1.399 . S
C200 C201 1.385 . S
C201 H187 0.931 . S
C201 C200 1.385 . S
C201 C202 1.389 . S
C202 C201 1.389 . S
C202 C203 1.387 . S
C203 H188 0.930 . S
C203 C198 1.390 . S
C203 C202 1.387 . S
H204 C216 0.930 . S
H205 C218 0.930 . S
H206 C219 0.930 . S
H207 C223 0.959 . S
H208 C223 0.959 . S
H209 C223 0.961 . S
H210 C224 0.960 . S
H211 C224 0.961 . S
H212 C224 0.959 . S
H213 C227 0.929 . S
H214 C228 0.931 . S
H215 C230 0.930 . S
C216 H204 0.930 . S
C216 C217 1.399 . S
C216 C221 1.399 . S
C217 C216 1.399 . S
C217 C218 1.376 . S
C218 H205 0.930 . S
C218 C217 1.376 . S
C218 C219 1.388 . S
C219 H206 0.930 . S
C219 C218 1.388 . S
C219 C220 1.390 . S
C220 C219 1.390 . S
C220 C221 1.394 . S
C220 C226 1.465 . S
C221 C216 1.399 . S
C221 C220 1.394 . S
C221 C222 1.516 . S
C222 C221 1.516 . S
C222 C223 1.502 . S
C222 C224 1.561 . S
C222 C225 1.526 . S
C223 H207 0.959 . S
C223 H208 0.959 . S
C223 H209 0.961 . S
C223 C222 1.502 . S
C224 H210 0.960 . S
C224 H211 0.961 . S
C224 H212 0.959 . S
C224 C222 1.561 . S
C225 C222 1.526 . S
C225 C226 1.396 . S
C225 C230 1.390 . S
C226 C220 1.465 . S
C226 C225 1.396 . S
C226 C227 1.399 . S
C227 H213 0.929 . S
C227 C226 1.399 . S
C227 C228 1.385 . S
C228 H214 0.931 . S
C228 C227 1.385 . S
C228 C229 1.389 . S
C229 C228 1.389 . S
C229 C230 1.387 . S
C230 H215 0.930 . S
C230 C225 1.390 . S
C230 C229 1.387 . S
H231 C243 0.930 . S
H232 C245 0.930 . S
H233 C246 0.930 . S
H234 C250 0.959 . S
H235 C250 0.959 . S
H236 C250 0.961 . S
H237 C251 0.960 . S
H238 C251 0.961 . S
H239 C251 0.959 . S
H240 C254 0.929 . S
H241 C255 0.931 . S
H242 C257 0.930 . S
C243 H231 0.930 . S
C243 C244 1.399 . S
C243 C248 1.399 . S
C244 C243 1.399 . S
C244 C245 1.376 . S
C245 H232 0.930 . S
C245 C244 1.376 . S
C245 C246 1.388 . S
C246 H233 0.930 . S
C246 C245 1.388 . S
C246 C247 1.390 . S
C247 C246 1.390 . S
C247 C248 1.394 . S
C247 C253 1.465 . S
C248 C243 1.399 . S
C248 C247 1.394 . S
C248 C249 1.516 . S
C249 C248 1.516 . S
C249 C250 1.502 . S
C249 C251 1.561 . S
C249 C252 1.526 . S
C250 H234 0.959 . S
C250 H235 0.959 . S
C250 H236 0.961 . S
C250 C249 1.502 . S
C251 H237 0.960 . S
C251 H238 0.961 . S
C251 H239 0.959 . S
C251 C249 1.561 . S
C252 C249 1.526 . S
C252 C253 1.396 . S
C252 C257 1.390 . S
C253 C247 1.465 . S
C253 C252 1.396 . S
C253 C254 1.399 . S
C254 H240 0.929 . S
C254 C253 1.399 . S
C254 C255 1.385 . S
C255 H241 0.931 . S
C255 C254 1.385 . S
C255 C256 1.389 . S
C256 C255 1.389 . S
C256 C257 1.387 . S
C257 H242 0.930 . S
C257 C252 1.390 . S
C257 C256 1.387 . S
H258 C270 0.930 . S
H259 C272 0.930 . S
H260 C273 0.930 . S
H261 C277 0.959 . S
H262 C277 0.959 . S
H263 C277 0.961 . S
H264 C278 0.960 . S
H265 C278 0.961 . S
H266 C278 0.959 . S
H267 C281 0.929 . S
H268 C282 0.931 . S
H269 C284 0.930 . S
C270 H258 0.930 . S
C270 C271 1.399 . S
C270 C275 1.399 . S
C271 C270 1.399 . S
C271 C272 1.376 . S
C272 H259 0.930 . S
C272 C271 1.376 . S
C272 C273 1.388 . S
C273 H260 0.930 . S
C273 C272 1.388 . S
C273 C274 1.390 . S
C274 C273 1.390 . S
C274 C275 1.394 . S
C274 C280 1.465 . S
C275 C270 1.399 . S
C275 C274 1.394 . S
C275 C276 1.516 . S
C276 C275 1.516 . S
C276 C277 1.502 . S
C276 C278 1.561 . S
C276 C279 1.526 . S
C277 H261 0.959 . S
C277 H262 0.959 . S
C277 H263 0.961 . S
C277 C276 1.502 . S
C278 H264 0.960 . S
C278 H265 0.961 . S
C278 H266 0.959 . S
C278 C276 1.561 . S
C279 C276 1.526 . S
C279 C280 1.396 . S
C279 C284 1.390 . S
C280 C274 1.465 . S
C280 C279 1.396 . S
C280 C281 1.399 . S
C281 H267 0.929 . S
C281 C280 1.399 . S
C281 C282 1.385 . S
C282 H268 0.931 . S
C282 C281 1.385 . S
C282 C283 1.389 . S
C283 C282 1.389 . S
C283 C284 1.387 . S
C284 H269 0.930 . S
C284 C279 1.390 . S
C284 C283 1.387 . S
H285 C297 0.930 . S
H286 C299 0.930 . S
H287 C300 0.930 . S
H288 C304 0.959 . S
H289 C304 0.959 . S
H290 C304 0.961 . S
H291 C305 0.960 . S
H292 C305 0.961 . S
H293 C305 0.959 . S
H294 C308 0.929 . S
H295 C309 0.931 . S
H296 C311 0.930 . S
C297 H285 0.930 . S
C297 C298 1.399 . S
C297 C302 1.399 . S
C298 C297 1.399 . S
C298 C299 1.376 . S
C299 H286 0.930 . S
C299 C298 1.376 . S
C299 C300 1.388 . S
C300 H287 0.930 . S
C300 C299 1.388 . S
C300 C301 1.390 . S
C301 C300 1.390 . S
C301 C302 1.394 . S
C301 C307 1.465 . S
C302 C297 1.399 . S
C302 C301 1.394 . S
C302 C303 1.516 . S
C303 C302 1.516 . S
C303 C304 1.502 . S
C303 C305 1.561 . S
C303 C306 1.526 . S
C304 H288 0.959 . S
C304 H289 0.959 . S
C304 H290 0.961 . S
C304 C303 1.502 . S
C305 H291 0.960 . S
C305 H292 0.961 . S
C305 H293 0.959 . S
C305 C303 1.561 . S
C306 C303 1.526 . S
C306 C307 1.396 . S
C306 C311 1.390 . S
C307 C301 1.465 . S
C307 C306 1.396 . S
C307 C308 1.399 . S
C308 H294 0.929 . S
C308 C307 1.399 . S
C308 C309 1.385 . S
C309 H295 0.931 . S
C309 C308 1.385 . S
C309 C310 1.389 . S
C310 C309 1.389 . S
C310 C311 1.387 . S
C311 H296 0.930 . S
C311 C306 1.390 . S
C311 C310 1.387 . S
H312 C324 0.930 . S
H313 C326 0.930 . S
H314 C327 0.930 . S
H315 C331 0.959 . S
H316 C331 0.959 . S
H317 C331 0.961 . S
H318 C332 0.960 . S
H319 C332 0.961 . S
H320 C332 0.959 . S
H321 C335 0.929 . S
H322 C336 0.931 . S
H323 C338 0.930 . S
C324 H312 0.930 . S
C324 C325 1.399 . S
C324 C329 1.399 . S
C325 C324 1.399 . S
C325 C326 1.376 . S
C326 H313 0.930 . S
C326 C325 1.376 . S
C326 C327 1.388 . S
C327 H314 0.930 . S
C327 C326 1.388 . S
C327 C328 1.390 . S
C328 C327 1.390 . S
C328 C329 1.394 . S
C328 C334 1.465 . S
C329 C324 1.399 . S
C329 C328 1.394 . S
C329 C330 1.516 . S
C330 C329 1.516 . S
C330 C331 1.502 . S
C330 C332 1.561 . S
C330 C333 1.526 . S
C331 H315 0.959 . S
C331 H316 0.959 . S
C331 H317 0.961 . S
C331 C330 1.502 . S
C332 H318 0.960 . S
C332 H319 0.961 . S
C332 H320 0.959 . S
C332 C330 1.561 . S
C333 C330 1.526 . S
C333 C334 1.396 . S
C333 C338 1.390 . S
C334 C328 1.465 . S
C334 C333 1.396 . S
C334 C335 1.399 . S
C335 H321 0.929 . S
C335 C334 1.399 . S
C335 C336 1.385 . S
C336 H322 0.931 . S
C336 C335 1.385 . S
C336 C337 1.389 . S
C337 C336 1.389 . S
C337 C338 1.387 . S
C338 H323 0.930 . S
C338 C333 1.390 . S
C338 C337 1.387 . S
H339 C351 0.930 . S
H340 C353 0.930 . S
H341 C354 0.930 . S
H342 C358 0.959 . S
H343 C358 0.959 . S
H344 C358 0.961 . S
H345 C359 0.960 . S
H346 C359 0.961 . S
H347 C359 0.959 . S
H348 C362 0.929 . S
H349 C363 0.931 . S
H350 C365 0.930 . S
C351 H339 0.930 . S
C351 C352 1.399 . S
C351 C356 1.399 . S
C352 C351 1.399 . S
C352 C353 1.376 . S
C353 H340 0.930 . S
C353 C352 1.376 . S
C353 C354 1.388 . S
C354 H341 0.930 . S
C354 C353 1.388 . S
C354 C355 1.390 . S
C355 C354 1.390 . S
C355 C356 1.394 . S
C355 C361 1.465 . S
C356 C351 1.399 . S
C356 C355 1.394 . S
C356 C357 1.516 . S
C357 C356 1.516 . S
C357 C358 1.502 . S
C357 C359 1.561 . S
C357 C360 1.526 . S
C358 H342 0.959 . S
C358 H343 0.959 . S
C358 H344 0.961 . S
C358 C357 1.502 . S
C359 H345 0.960 . S
C359 H346 0.961 . S
C359 H347 0.959 . S
C359 C357 1.561 . S
C360 C357 1.526 . S
C360 C361 1.396 . S
C360 C365 1.390 . S
C361 C355 1.465 . S
C361 C360 1.396 . S
C361 C362 1.399 . S
C362 H348 0.929 . S
C362 C361 1.399 . S
C362 C363 1.385 . S
C363 H349 0.931 . S
C363 C362 1.385 . S
C363 C364 1.389 . S
C364 C363 1.389 . S
C364 C365 1.387 . S
C365 H350 0.930 . S
C365 C360 1.390 . S
C365 C364 1.387 . S
H366 C378 0.930 . S
H367 C380 0.930 . S
H368 C381 0.930 . S
H369 C385 0.959 . S
H370 C385 0.959 . S
H371 C385 0.961 . S
H372 C386 0.960 . S
H373 C386 0.961 . S
H374 C386 0.959 . S
H375 C389 0.929 . S
H376 C390 0.931 . S
H377 C392 0.930 . S
C378 H366 0.930 . S
C378 C379 1.399 . S
C378 C383 1.399 . S
C379 C378 1.399 . S
C379 C380 1.376 . S
C380 H367 0.930 . S
C380 C379 1.376 . S
C380 C381 1.388 . S
C381 H368 0.930 . S
C381 C380 1.388 . S
C381 C382 1.390 . S
C382 C381 1.390 . S
C382 C383 1.394 . S
C382 C388 1.465 . S
C383 C378 1.399 . S
C383 C382 1.394 . S
C383 C384 1.516 . S
C384 C383 1.516 . S
C384 C385 1.502 . S
C384 C386 1.561 . S
C384 C387 1.526 . S
C385 H369 0.959 . S
C385 H370 0.959 . S
C385 H371 0.961 . S
C385 C384 1.502 . S
C386 H372 0.960 . S
C386 H373 0.961 . S
C386 H374 0.959 . S
C386 C384 1.561 . S
C387 C384 1.526 . S
C387 C388 1.396 . S
C387 C392 1.390 . S
C388 C382 1.465 . S
C388 C387 1.396 . S
C388 C389 1.399 . S
C389 H375 0.929 . S
C389 C388 1.399 . S
C389 C390 1.385 . S
C390 H376 0.931 . S
C390 C389 1.385 . S
C390 C391 1.389 . S
C391 C390 1.389 . S
C391 C392 1.387 . S
C392 H377 0.930 . S
C392 C387 1.390 . S
C392 C391 1.387 . S
H393 C405 0.930 1_554 S
H394 C407 0.930 . S
H395 C408 0.930 . S
H396 C412 0.959 . S
H397 C412 0.959 . S
H398 C412 0.961 1_554 S
H399 C413 0.960 1_554 S
H400 C413 0.961 . S
H401 C413 0.959 . S
H402 C416 0.929 . S
H403 C417 0.931 . S
H404 C419 0.930 . S
C405 H393 0.930 1_556 S
C405 C406 1.399 . S
C405 C410 1.399 . S
C406 C405 1.399 . S
C406 C407 1.376 . S
C407 H394 0.930 . S
C407 C406 1.376 . S
C407 C408 1.388 . S
C408 H395 0.930 . S
C408 C407 1.388 . S
C408 C409 1.390 . S
C409 C408 1.390 . S
C409 C410 1.394 . S
C409 C415 1.465 . S
C410 C405 1.399 . S
C410 C409 1.394 . S
C410 C411 1.516 . S
C411 C410 1.516 . S
C411 C412 1.502 . S
C411 C413 1.561 . S
C411 C414 1.526 . S
C412 H396 0.959 . S
C412 H397 0.959 . S
C412 H398 0.961 1_556 S
C412 C411 1.502 . S
C413 H399 0.960 1_556 S
C413 H400 0.961 . S
C413 H401 0.959 . S
C413 C411 1.561 . S
C414 C411 1.526 . S
C414 C415 1.396 . S
C414 C419 1.390 . S
C415 C409 1.465 . S
C415 C414 1.396 . S
C415 C416 1.399 . S
C416 H402 0.929 . S
C416 C415 1.399 . S
C416 C417 1.385 . S
C417 H403 0.931 . S
C417 C416 1.385 . S
C417 C418 1.389 . S
C418 C417 1.389 . S
C418 C419 1.387 . S
C419 H404 0.930 . S
C419 C414 1.390 . S
C419 C418 1.387 . S
H420 C432 0.930 . S
H421 C434 0.930 . S
H422 C435 0.930 . S
H423 C439 0.959 . S
H424 C439 0.959 . S
H425 C439 0.961 . S
H426 C440 0.960 . S
H427 C440 0.961 . S
H428 C440 0.959 . S
H429 C443 0.929 1_554 S
H430 C444 0.931 . S
H431 C446 0.930 . S
C432 H420 0.930 . S
C432 C433 1.399 . S
C432 C437 1.399 1_554 S
C433 C432 1.399 . S
C433 C434 1.376 . S
C434 H421 0.930 . S
C434 C433 1.376 . S
C434 C435 1.388 . S
C435 H422 0.930 . S
C435 C434 1.388 . S
C435 C436 1.390 . S
C436 C435 1.390 . S
C436 C437 1.394 1_554 S
C436 C442 1.465 1_554 S
C437 C432 1.399 1_556 S
C437 C436 1.394 1_556 S
C437 C438 1.516 . S
C438 C437 1.516 . S
C438 C439 1.502 . S
C438 C440 1.561 . S
C438 C441 1.526 . S
C439 H423 0.959 . S
C439 H424 0.959 . S
C439 H425 0.961 . S
C439 C438 1.502 . S
C440 H426 0.960 . S
C440 H427 0.961 . S
C440 H428 0.959 . S
C440 C438 1.561 . S
C441 C438 1.526 . S
C441 C442 1.396 . S
C441 C446 1.390 . S
C442 C436 1.465 1_556 S
C442 C441 1.396 . S
C442 C443 1.399 . S
C443 H429 0.929 1_556 S
C443 C442 1.399 . S
C443 C444 1.385 . S
C444 H430 0.931 . S
C444 C443 1.385 . S
C444 C445 1.389 . S
C445 C444 1.389 . S
C445 C446 1.387 . S
C446 H431 0.930 . S
C446 C441 1.390 . S
C446 C445 1.387 . S
H447 C459 0.930 . S
H448 C461 0.930 . S
H449 C462 0.930 . S
H450 C466 0.959 . S
H451 C466 0.959 . S
H452 C466 0.961 1_554 S
H453 C467 0.960 . S
H454 C467 0.961 . S
H455 C467 0.959 . S
H456 C470 0.929 . S
H457 C471 0.931 . S
H458 C473 0.930 . S
C459 H447 0.930 . S
C459 C460 1.399 . S
C459 C464 1.399 1_554 S
C460 C459 1.399 . S
C460 C461 1.376 1_554 S
C461 H448 0.930 . S
C461 C460 1.376 1_556 S
C461 C462 1.388 . S
C462 H449 0.930 . S
C462 C461 1.388 . S
C462 C463 1.390 . S
C463 C462 1.390 . S
C463 C464 1.394 . S
C463 C469 1.465 . S
C464 C459 1.399 1_556 S
C464 C463 1.394 . S
C464 C465 1.516 . S
C465 C464 1.516 . S
C465 C466 1.502 . S
C465 C467 1.561 1_556 S
C465 C468 1.526 . S
C466 H450 0.959 . S
C466 H451 0.959 . S
C466 H452 0.961 1_556 S
C466 C465 1.502 . S
C467 H453 0.960 . S
C467 H454 0.961 . S
C467 H455 0.959 . S
C467 C465 1.561 1_554 S
C468 C465 1.526 . S
C468 C469 1.396 . S
C468 C473 1.390 . S
C469 C463 1.465 . S
C469 C468 1.396 . S
C469 C470 1.399 . S
C470 H456 0.929 . S
C470 C469 1.399 . S
C470 C471 1.385 . S
C471 H457 0.931 . S
C471 C470 1.385 . S
C471 C472 1.389 . S
C472 C471 1.389 . S
C472 C473 1.387 . S
C473 H458 0.930 . S
C473 C468 1.390 . S
C473 C472 1.387 . S
H474 C486 0.930 . S
H475 C488 0.930 . S
H476 C489 0.930 . S
H477 C493 0.959 . S
H478 C493 0.959 . S
H479 C493 0.961 . S
H480 C494 0.960 . S
H481 C494 0.961 . S
H482 C494 0.959 . S
H483 C497 0.929 . S
H484 C498 0.931 . S
H485 C500 0.930 . S
C486 H474 0.930 . S
C486 C487 1.399 1_556 S
C486 C491 1.399 . S
C487 C486 1.399 1_554 S
C487 C488 1.376 . S
C488 H475 0.930 . S
C488 C487 1.376 . S
C488 C489 1.388 . S
C489 H476 0.930 . S
C489 C488 1.388 . S
C489 C490 1.390 1_554 S
C490 C489 1.390 1_556 S
C490 C491 1.394 . S
C490 C496 1.465 . S
C491 C486 1.399 . S
C491 C490 1.394 . S
C491 C492 1.516 . S
C492 C491 1.516 . S
C492 C493 1.502 . S
C492 C494 1.561 . S
C492 C495 1.526 . S
C493 H477 0.959 . S
C493 H478 0.959 . S
C493 H479 0.961 . S
C493 C492 1.502 . S
C494 H480 0.960 . S
C494 H481 0.961 . S
C494 H482 0.959 . S
C494 C492 1.561 . S
C495 C492 1.526 . S
C495 C496 1.396 . S
C495 C500 1.390 . S
C496 C490 1.465 . S
C496 C495 1.396 . S
C496 C497 1.399 . S
C497 H483 0.929 . S
C497 C496 1.399 . S
C497 C498 1.385 . S
C498 H484 0.931 . S
C498 C497 1.385 . S
C498 C499 1.389 . S
C499 C498 1.389 . S
C499 C500 1.387 . S
C500 H485 0.930 . S
C500 C495 1.390 . S
C500 C499 1.387 . S
H501 C513 0.930 . S
H502 C515 0.930 1_554 S
H503 C516 0.930 . S
H504 C520 0.959 . S
H505 C520 0.959 . S
H506 C520 0.961 . S
H507 C521 0.960 . S
H508 C521 0.961 . S
H509 C521 0.959 . S
H510 C524 0.929 . S
H511 C525 0.931 . S
H512 C527 0.930 . S
C513 H501 0.930 . S
C513 C514 1.399 . S
C513 C518 1.399 . S
C514 C513 1.399 . S
C514 C515 1.376 . S
C515 H502 0.930 1_556 S
C515 C514 1.376 . S
C515 C516 1.388 . S
C516 H503 0.930 . S
C516 C515 1.388 . S
C516 C517 1.390 . S
C517 C516 1.390 . S
C517 C518 1.394 . S
C517 C523 1.465 . S
C518 C513 1.399 . S
C518 C517 1.394 . S
C518 C519 1.516 . S
C519 C518 1.516 . S
C519 C520 1.502 . S
C519 C521 1.561 . S
C519 C522 1.526 . S
C520 H504 0.959 . S
C520 H505 0.959 . S
C520 H506 0.961 . S
C520 C519 1.502 . S
C521 H507 0.960 . S
C521 H508 0.961 . S
C521 H509 0.959 . S
C521 C519 1.561 . S
C522 C519 1.526 . S
C522 C523 1.396 . S
C522 C527 1.390 . S
C523 C517 1.465 . S
C523 C522 1.396 . S
C523 C524 1.399 . S
C524 H510 0.929 . S
C524 C523 1.399 . S
C524 C525 1.385 . S
C525 H511 0.931 . S
C525 C524 1.385 . S
C525 C526 1.389 . S
C526 C525 1.389 . S
C526 C527 1.387 . S
C527 H512 0.930 . S
C527 C522 1.390 . S
C527 C526 1.387 . S
H528 C540 0.930 1_554 S
H529 C542 0.930 . S
H530 C543 0.930 . S
H531 C547 0.959 . S
H532 C547 0.959 . S
H533 C547 0.961 . S
H534 C548 0.960 1_554 S
H535 C548 0.961 . S
H536 C548 0.959 . S
H537 C551 0.929 . S
H538 C552 0.931 . S
H539 C554 0.930 . S
C540 H528 0.930 1_556 S
C540 C541 1.399 . S
C540 C545 1.399 . S
C541 C540 1.399 . S
C541 C542 1.376 . S
C542 H529 0.930 . S
C542 C541 1.376 . S
C542 C543 1.388 . S
C543 H530 0.930 . S
C543 C542 1.388 . S
C543 C544 1.390 . S
C544 C543 1.390 . S
C544 C545 1.394 . S
C544 C550 1.465 . S
C545 C540 1.399 . S
C545 C544 1.394 . S
C545 C546 1.516 . S
C546 C545 1.516 . S
C546 C547 1.502 . S
C546 C548 1.561 . S
C546 C549 1.526 . S
C547 H531 0.959 . S
C547 H532 0.959 . S
C547 H533 0.961 . S
C547 C546 1.502 . S
C548 H534 0.960 1_556 S
C548 H535 0.961 . S
C548 H536 0.959 . S
C548 C546 1.561 . S
C549 C546 1.526 . S
C549 C550 1.396 . S
C549 C554 1.390 . S
C550 C544 1.465 . S
C550 C549 1.396 . S
C550 C551 1.399 . S
C551 H537 0.929 . S
C551 C550 1.399 . S
C551 C552 1.385 . S
C552 H538 0.931 . S
C552 C551 1.385 . S
C552 C553 1.389 . S
C553 C552 1.389 . S
C553 C554 1.387 . S
C554 H539 0.930 . S
C554 C549 1.390 . S
C554 C553 1.387 . S
H555 C567 0.930 . S
H556 C569 0.930 . S
H557 C570 0.930 . S
H558 C574 0.959 . S
H559 C574 0.959 . S
H560 C574 0.961 . S
H561 C575 0.960 . S
H562 C575 0.961 . S
H563 C575 0.959 . S
H564 C578 0.929 . S
H565 C579 0.931 . S
H566 C581 0.930 . S
C567 H555 0.930 . S
C567 C568 1.399 . S
C567 C572 1.399 . S
C568 C567 1.399 . S
C568 C569 1.376 . S
C569 H556 0.930 . S
C569 C568 1.376 . S
C569 C570 1.388 1_554 S
C570 H557 0.930 . S
C570 C569 1.388 1_556 S
C570 C571 1.390 . S
C571 C570 1.390 . S
C571 C572 1.394 1_556 S
C571 C577 1.465 . S
C572 C567 1.399 . S
C572 C571 1.394 1_554 S
C572 C573 1.516 . S
C573 C572 1.516 . S
C573 C574 1.502 . S
C573 C575 1.561 . S
C573 C576 1.526 1_554 S
C574 H558 0.959 . S
C574 H559 0.959 . S
C574 H560 0.961 . S
C574 C573 1.502 . S
C575 H561 0.960 . S
C575 H562 0.961 . S
C575 H563 0.959 . S
C575 C573 1.561 . S
C576 C573 1.526 1_556 S
C576 C577 1.396 . S
C576 C581 1.390 . S
C577 C571 1.465 . S
C577 C576 1.396 . S
C577 C578 1.399 . S
C578 H564 0.929 . S
C578 C577 1.399 . S
C578 C579 1.385 . S
C579 H565 0.931 . S
C579 C578 1.385 . S
C579 C580 1.389 . S
C580 C579 1.389 . S
C580 C581 1.387 . S
C581 H566 0.930 . S
C581 C576 1.390 . S
C581 C580 1.387 . S
H582 C594 0.930 . S
H583 C596 0.930 . S
H584 C597 0.930 . S
H585 C601 0.959 . S
H586 C601 0.959 . S
H587 C601 0.961 . S
H588 C602 0.960 . S
H589 C602 0.961 . S
H590 C602 0.959 . S
H591 C605 0.929 . S
H592 C606 0.931 . S
H593 C608 0.930 . S
C594 H582 0.930 . S
C594 C595 1.399 . S
C594 C599 1.399 1_554 S
C595 C594 1.399 . S
C595 C596 1.376 . S
C596 H583 0.930 . S
C596 C595 1.376 . S
C596 C597 1.388 1_554 S
C597 H584 0.930 . S
C597 C596 1.388 1_556 S
C597 C598 1.390 . S
C598 C597 1.390 . S
C598 C599 1.394 . S
C598 C604 1.465 . S
C599 C594 1.399 1_556 S
C599 C598 1.394 . S
C599 C600 1.516 . S
C600 C599 1.516 . S
C600 C601 1.502 . S
C600 C602 1.561 . S
C600 C603 1.526 . S
C601 H585 0.959 . S
C601 H586 0.959 . S
C601 H587 0.961 . S
C601 C600 1.502 . S
C602 H588 0.960 . S
C602 H589 0.961 . S
C602 H590 0.959 . S
C602 C600 1.561 . S
C603 C600 1.526 . S
C603 C604 1.396 . S
C603 C608 1.390 . S
C604 C598 1.465 . S
C604 C603 1.396 . S
C604 C605 1.399 . S
C605 H591 0.929 . S
C605 C604 1.399 . S
C605 C606 1.385 . S
C606 H592 0.931 . S
C606 C605 1.385 . S
C606 C607 1.389 . S
C607 C606 1.389 . S
C607 C608 1.387 . S
C608 H593 0.930 . S
C608 C603 1.390 . S
C608 C607 1.387 . S
H609 C621 0.930 . S
H610 C623 0.930 . S
H611 C624 0.930 . S
H612 C628 0.959 . S
H613 C628 0.959 . S
H614 C628 0.961 . S
H615 C629 0.960 . S
H616 C629 0.961 . S
H617 C629 0.959 . S
H618 C632 0.929 . S
H619 C633 0.931 . S
H620 C635 0.930 . S
C621 H609 0.930 . S
C621 C622 1.399 . S
C621 C626 1.399 . S
C622 C621 1.399 . S
C622 C623 1.376 . S
C623 H610 0.930 . S
C623 C622 1.376 . S
C623 C624 1.388 . S
C624 H611 0.930 . S
C624 C623 1.388 . S
C624 C625 1.390 . S
C625 C624 1.390 . S
C625 C626 1.394 . S
C625 C631 1.465 . S
C626 C621 1.399 . S
C626 C625 1.394 . S
C626 C627 1.516 . S
C627 C626 1.516 . S
C627 C628 1.502 . S
C627 C629 1.561 . S
C627 C630 1.526 . S
C628 H612 0.959 . S
C628 H613 0.959 . S
C628 H614 0.961 . S
C628 C627 1.502 . S
C629 H615 0.960 . S
C629 H616 0.961 . S
C629 H617 0.959 . S
C629 C627 1.561 . S
C630 C627 1.526 . S
C630 C631 1.396 . S
C630 C635 1.390 . S
C631 C625 1.465 . S
C631 C630 1.396 . S
C631 C632 1.399 . S
C632 H618 0.929 . S
C632 C631 1.399 . S
C632 C633 1.385 . S
C633 H619 0.931 . S
C633 C632 1.385 . S
C633 C634 1.389 . S
C634 C633 1.389 . S
C634 C635 1.387 . S
C635 H620 0.930 . S
C635 C630 1.390 . S
C635 C634 1.387 . S
H636 C648 0.930 . S
H637 C650 0.932 1_554 S
H638 C651 0.930 . S
H639 C655 0.959 . S
H640 C655 0.959 . S
H641 C655 0.961 . S
H642 C656 0.960 . S
H643 C656 0.961 . S
H644 C656 0.959 . S
H645 C659 0.929 . S
H646 C660 0.931 . S
H647 C662 0.930 . S
C648 H636 0.930 . S
C648 C649 1.399 . S
C648 C653 1.399 . S
C649 C648 1.399 . S
C649 C650 1.376 . S
C650 H637 0.932 1_556 S
C650 C649 1.376 . S
C650 C651 1.388 . S
C651 H638 0.930 . S
C651 C650 1.388 . S
C651 C652 1.390 . S
C652 C651 1.390 . S
C652 C653 1.394 . S
C652 C658 1.465 . S
C653 C648 1.399 . S
C653 C652 1.394 . S
C653 C654 1.516 . S
C654 C653 1.516 . S
C654 C655 1.502 . S
C654 C656 1.561 . S
C654 C657 1.526 . S
C655 H639 0.959 . S
C655 H640 0.959 . S
C655 H641 0.961 . S
C655 C654 1.502 . S
C656 H642 0.960 . S
C656 H643 0.961 . S
C656 H644 0.959 . S
C656 C654 1.561 . S
C657 C654 1.526 . S
C657 C658 1.396 . S
C657 C662 1.390 . S
C658 C652 1.465 . S
C658 C657 1.396 . S
C658 C659 1.399 . S
C659 H645 0.929 . S
C659 C658 1.399 . S
C659 C660 1.385 . S
C660 H646 0.931 . S
C660 C659 1.385 . S
C660 C661 1.389 . S
C661 C660 1.389 . S
C661 C662 1.387 . S
C662 H647 0.930 . S
C662 C657 1.390 . S
C662 C661 1.387 . S
H663 C675 0.930 . S
H664 C677 0.930 . S
H665 C678 0.930 . S
H666 C682 0.959 . S
H667 C682 0.959 . S
H668 C682 0.961 . S
H669 C683 0.960 . S
H670 C683 0.961 . S
H671 C683 0.959 . S
H672 C686 0.929 . S
H673 C687 0.931 . S
H674 C689 0.930 . S
C675 H663 0.930 . S
C675 C676 1.399 . S
C675 C680 1.399 . S
C676 C675 1.399 . S
C676 C677 1.376 . S
C677 H664 0.930 . S
C677 C676 1.376 . S
C677 C678 1.388 . S
C678 H665 0.930 . S
C678 C677 1.388 . S
C678 C679 1.390 . S
C679 C678 1.390 . S
C679 C680 1.394 . S
C679 C685 1.465 . S
C680 C675 1.399 . S
C680 C679 1.394 . S
C680 C681 1.516 . S
C681 C680 1.516 . S
C681 C682 1.502 . S
C681 C683 1.561 . S
C681 C684 1.526 . S
C682 H666 0.959 . S
C682 H667 0.959 . S
C682 H668 0.961 . S
C682 C681 1.502 . S
C683 H669 0.960 . S
C683 H670 0.961 . S
C683 H671 0.959 . S
C683 C681 1.561 . S
C684 C681 1.526 . S
C684 C685 1.396 . S
C684 C689 1.390 . S
C685 C679 1.465 . S
C685 C684 1.396 . S
C685 C686 1.399 . S
C686 H672 0.929 . S
C686 C685 1.399 . S
C686 C687 1.385 . S
C687 H673 0.931 . S
C687 C686 1.385 . S
C687 C688 1.389 . S
C688 C687 1.389 . S
C688 C689 1.387 . S
C689 H674 0.930 . S
C689 C684 1.390 . S
C689 C688 1.387 . S
H690 C702 0.930 . S
H691 C704 0.930 . S
H692 C705 0.930 . S
H693 C709 0.959 . S
H694 C709 0.959 . S
H695 C709 0.961 . S
H696 C710 0.960 . S
H697 C710 0.961 . S
H698 C710 0.959 . S
H699 C713 0.929 . S
H700 C714 0.931 . S
H701 C716 0.930 . S
C702 H690 0.930 . S
C702 C703 1.399 . S
C702 C707 1.399 . S
C703 C702 1.399 . S
C703 C704 1.376 . S
C704 H691 0.930 . S
C704 C703 1.376 . S
C704 C705 1.388 . S
C705 H692 0.930 . S
C705 C704 1.388 . S
C705 C706 1.390 . S
C706 C705 1.390 . S
C706 C707 1.394 . S
C706 C712 1.465 . S
C707 C702 1.399 . S
C707 C706 1.394 . S
C707 C708 1.516 . S
C708 C707 1.516 . S
C708 C709 1.502 . S
C708 C710 1.561 . S
C708 C711 1.526 . S
C709 H693 0.959 . S
C709 H694 0.959 . S
C709 H695 0.961 . S
C709 C708 1.502 . S
C710 H696 0.960 . S
C710 H697 0.961 . S
C710 H698 0.959 . S
C710 C708 1.561 . S
C711 C708 1.526 . S
C711 C712 1.396 . S
C711 C716 1.390 . S
C712 C706 1.465 . S
C712 C711 1.396 . S
C712 C713 1.399 . S
C713 H699 0.929 . S
C713 C712 1.399 . S
C713 C714 1.385 . S
C714 H700 0.931 . S
C714 C713 1.385 . S
C714 C715 1.389 . S
C715 C714 1.389 . S
C715 C716 1.387 . S
C716 H701 0.930 . S
C716 C711 1.390 . S
C716 C715 1.387 . S
H717 C729 0.930 . S
H718 C731 0.930 . S
H719 C732 0.930 . S
H720 C736 0.959 . S
H721 C736 0.959 . S
H722 C736 0.961 . S
H723 C737 0.960 . S
H724 C737 0.961 . S
H725 C737 0.959 . S
H726 C740 0.929 . S
H727 C741 0.931 . S
H728 C743 0.930 . S
C729 H717 0.930 . S
C729 C730 1.399 . S
C729 C734 1.399 . S
C730 C729 1.399 . S
C730 C731 1.376 . S
C731 H718 0.930 . S
C731 C730 1.376 . S
C731 C732 1.388 . S
C732 H719 0.930 . S
C732 C731 1.388 . S
C732 C733 1.390 . S
C733 C732 1.390 . S
C733 C734 1.394 . S
C733 C739 1.465 . S
C734 C729 1.399 . S
C734 C733 1.394 . S
C734 C735 1.516 . S
C735 C734 1.516 . S
C735 C736 1.502 . S
C735 C737 1.561 . S
C735 C738 1.526 . S
C736 H720 0.959 . S
C736 H721 0.959 . S
C736 H722 0.961 . S
C736 C735 1.502 . S
C737 H723 0.960 . S
C737 H724 0.961 . S
C737 H725 0.959 . S
C737 C735 1.561 . S
C738 C735 1.526 . S
C738 C739 1.396 . S
C738 C743 1.390 . S
C739 C733 1.465 . S
C739 C738 1.396 . S
C739 C740 1.399 . S
C740 H726 0.929 . S
C740 C739 1.399 . S
C740 C741 1.385 . S
C741 H727 0.931 . S
C741 C740 1.385 . S
C741 C742 1.389 . S
C742 C741 1.389 . S
C742 C743 1.387 . S
C743 H728 0.930 . S
C743 C738 1.390 . S
C743 C742 1.387 . S
H744 C756 0.930 . S
H745 C758 0.930 . S
H746 C759 0.930 . S
H747 C763 0.959 . S
H748 C763 0.959 . S
H749 C763 0.961 . S
H750 C764 0.960 . S
H751 C764 0.961 . S
H752 C764 0.959 . S
H753 C767 0.929 . S
H754 C768 0.931 . S
H755 C770 0.930 . S
C756 H744 0.930 . S
C756 C757 1.399 . S
C756 C761 1.399 . S
C757 C756 1.399 . S
C757 C758 1.376 . S
C758 H745 0.930 . S
C758 C757 1.376 . S
C758 C759 1.388 . S
C759 H746 0.930 . S
C759 C758 1.388 . S
C759 C760 1.390 . S
C760 C759 1.390 . S
C760 C761 1.394 . S
C760 C766 1.465 . S
C761 C756 1.399 . S
C761 C760 1.394 . S
C761 C762 1.516 . S
C762 C761 1.516 . S
C762 C763 1.502 . S
C762 C764 1.561 . S
C762 C765 1.526 . S
C763 H747 0.959 . S
C763 H748 0.959 . S
C763 H749 0.961 . S
C763 C762 1.502 . S
C764 H750 0.960 . S
C764 H751 0.961 . S
C764 H752 0.959 . S
C764 C762 1.561 . S
C765 C762 1.526 . S
C765 C766 1.396 . S
C765 C770 1.390 . S
C766 C760 1.465 . S
C766 C765 1.396 . S
C766 C767 1.399 . S
C767 H753 0.929 . S
C767 C766 1.399 . S
C767 C768 1.385 . S
C768 H754 0.931 . S
C768 C767 1.385 . S
C768 C769 1.389 . S
C769 C768 1.389 . S
C769 C770 1.387 . S
C770 H755 0.930 . S
C770 C765 1.390 . S
C770 C769 1.387 . S
H771 C783 0.930 . S
H772 C785 0.930 . S
H773 C786 0.930 . S
H774 C790 0.959 . S
H775 C790 0.959 . S
H776 C790 0.961 . S
H777 C791 0.960 . S
H778 C791 0.961 . S
H779 C791 0.959 . S
H780 C794 0.929 . S
H781 C795 0.931 . S
H782 C797 0.930 . S
C783 H771 0.930 . S
C783 C784 1.399 . S
C783 C788 1.399 . S
C784 C783 1.399 . S
C784 C785 1.376 . S
C785 H772 0.930 . S
C785 C784 1.376 . S
C785 C786 1.388 . S
C786 H773 0.930 . S
C786 C785 1.388 . S
C786 C787 1.390 . S
C787 C786 1.390 . S
C787 C788 1.394 . S
C787 C793 1.465 . S
C788 C783 1.399 . S
C788 C787 1.394 . S
C788 C789 1.516 . S
C789 C788 1.516 . S
C789 C790 1.502 . S
C789 C791 1.561 . S
C789 C792 1.526 . S
C790 H774 0.959 . S
C790 H775 0.959 . S
C790 H776 0.961 . S
C790 C789 1.502 . S
C791 H777 0.960 . S
C791 H778 0.961 . S
C791 H779 0.959 . S
C791 C789 1.561 . S
C792 C789 1.526 . S
C792 C793 1.396 . S
C792 C797 1.390 . S
C793 C787 1.465 . S
C793 C792 1.396 . S
C793 C794 1.399 . S
C794 H780 0.929 . S
C794 C793 1.399 . S
C794 C795 1.385 . S
C795 H781 0.931 . S
C795 C794 1.385 . S
C795 C796 1.389 . S
C796 C795 1.389 . S
C796 C797 1.387 . S
C797 H782 0.930 . S
C797 C792 1.390 . S
C797 C796 1.387 . S
H798 C810 0.930 . S
H799 C812 0.930 . S
H800 C813 0.930 . S
H801 C817 0.959 . S
H802 C817 0.959 . S
H803 C817 0.961 . S
H804 C818 0.960 . S
H805 C818 0.961 . S
H806 C818 0.959 . S
H807 C821 0.929 . S
H808 C822 0.931 . S
H809 C824 0.930 . S
C810 H798 0.930 . S
C810 C811 1.399 . S
C810 C815 1.399 . S
C811 C810 1.399 . S
C811 C812 1.376 . S
C812 H799 0.930 . S
C812 C811 1.376 . S
C812 C813 1.388 . S
C813 H800 0.930 . S
C813 C812 1.388 . S
C813 C814 1.390 . S
C814 C813 1.390 . S
C814 C815 1.394 . S
C814 C820 1.465 . S
C815 C810 1.399 . S
C815 C814 1.394 . S
C815 C816 1.516 . S
C816 C815 1.516 . S
C816 C817 1.502 . S
C816 C818 1.561 . S
C816 C819 1.526 . S
C817 H801 0.959 . S
C817 H802 0.959 . S
C817 H803 0.961 . S
C817 C816 1.502 . S
C818 H804 0.960 . S
C818 H805 0.961 . S
C818 H806 0.959 . S
C818 C816 1.561 . S
C819 C816 1.526 . S
C819 C820 1.396 . S
C819 C824 1.390 . S
C820 C814 1.465 . S
C820 C819 1.396 . S
C820 C821 1.399 . S
C821 H807 0.929 . S
C821 C820 1.399 . S
C821 C822 1.385 . S
C822 H808 0.931 . S
C822 C821 1.385 . S
C822 C823 1.389 . S
C823 C822 1.389 . S
C823 C824 1.387 . S
C824 H809 0.930 . S
C824 C819 1.390 . S
C824 C823 1.387 . S
C190 C1 1.779 . S
C202 C95 1.744 . S
C217 C27 1.539 . S
C229 C142 1.514 . S
C256 C146 1.703 . S
C244 C40 1.738 . S
C283 C111 1.477 . S
C271 C55 1.469 . S
C298 C68 1.733 . S
C310 C126 1.605 . S
C337 C148 1.041 . S
C325 C70 0.993 . S
C364 C117 1.361 . S
C352 C41 1.444 . S
C379 C54 1.351 . S
C391 C157 1.343 . S
C418 C86 1.279 . S
C406 C69 1.369 1_556 S
C433 C71 1.398 . S
C445 C115 1.352 . S
C460 C0 1.844 . S
C472 C173 1.792 . S
C499 C84 1.394 . S
C487 C26 1.466 . S
C526 C102 1.689 . S
C514 C42 1.783 . S
C553 C116 1.543 . S
C541 C57 1.538 1_556 S
C580 C170 1.688 . S
C568 C83 1.738 . S
C607 C85 1.423 . S
C595 C12 1.490 . S
C634 C133 1.625 . S
C622 C14 1.739 1_556 S
C649 C29 1.022 . S
C661 C156 0.990 . S
C688 C125 1.353 . S
C676 C82 1.438 . S
C715 C164 1.301 . S
C703 C13 1.363 . S
C742 C94 1.307 . S
C730 C15 1.344 . S
C769 C139 1.393 . S
C757 C28 1.389 . S
C784 C43 1.838 . S
C796 C147 1.788 . S
C811 C56 1.460 . S
C823 C108 1.428 . S
