# Generated by pormake.
# Topology tsx, (6,3)-cn, num edge types: 1
# Building blocks:
#     Node 0, Type 0, BuildingBlock: LEVNOQ01_clean_sbu_1, # of connection points: 6
#     Node 1, Type 0, BuildingBlock: LEVNOQ01_clean_sbu_1, # of connection points: 6
#     Node 2, Type 1, BuildingBlock: WUSLED_clean_sbu_0, # of connection points: 3
#     Node 3, Type 1, BuildingBlock: WUSLED_clean_sbu_0, # of connection points: 3
#     Node 4, Type 1, BuildingBlock: WUSLED_clean_sbu_0, # of connection points: 3
#     Node 5, Type 1, BuildingBlock: WUSLED_clean_sbu_0, # of connection points: 3
#     Edge 6, Type (0, 1), BuildingBlock: OJICUG_clean_linker_0, # of connection points: 2
#     Edge 7, Type (0, 1), BuildingBlock: OJICUG_clean_linker_0, # of connection points: 2
#     Edge 8, Type (0, 1), BuildingBlock: OJICUG_clean_linker_0, # of connection points: 2
#     Edge 9, Type (0, 1), BuildingBlock: OJICUG_clean_linker_0, # of connection points: 2
#     Edge 10, Type (0, 1), BuildingBlock: OJICUG_clean_linker_0, # of connection points: 2
#     Edge 11, Type (0, 1), BuildingBlock: OJICUG_clean_linker_0, # of connection points: 2
#     Edge 12, Type (0, 1), BuildingBlock: OJICUG_clean_linker_0, # of connection points: 2
#     Edge 13, Type (0, 1), BuildingBlock: OJICUG_clean_linker_0, # of connection points: 2
#     Edge 14, Type (0, 1), BuildingBlock: OJICUG_clean_linker_0, # of connection points: 2
#     Edge 15, Type (0, 1), BuildingBlock: OJICUG_clean_linker_0, # of connection points: 2
#     Edge 16, Type (0, 1), BuildingBlock: OJICUG_clean_linker_0, # of connection points: 2
#     Edge 17, Type (0, 1), BuildingBlock: OJICUG_clean_linker_0, # of connection points: 2
# Relax obj value: 0.123
# Max RMSD: 0.154
# Mean RMSD: 0.115
data_MOF--net-tsx--node1-LEVNOQ01_clean_sbu_1--node2-WUSLED_clean_sbu_0--edge1-OJICUG_clean_linker_0
_symmetry_space_group_name_H-M    P1
_symmetry_Int_Tables_number       1
_symmetry_cell_setting            triclinic
loop_
_symmetry_equiv_pos_as_xyz
'x, y, z'
_cell_length_a     19.177611
_cell_length_b     23.308738
_cell_length_c     37.429537
_cell_angle_alpha  97.796384
_cell_angle_beta   90.378867
_cell_angle_gamma 91.359902
loop_
_atom_site_label
_atom_site_type_symbol
_atom_site_fract_x
_atom_site_fract_y
_atom_site_fract_z
_atom_type_partial_charge
O0 O 0.12688 0.07547 0.0994 0.0
Mg1 Mg 0.17305 0.05751 0.04989 0.0
O2 O 0.03676 0.02489 0.07423 0.0
Mg3 Mg 0.04733 0.02936 0.00959 0.0
O4 O 0.13564 0.10295 0.01188 0.0
O5 O 0.24038 0.11992 0.03963 0.0
O6 O 0.0645 0.03308 0.94674 0.0
O7 O 0.97681 0.11236 0.01633 0.0
Mg8 Mg 0.92551 0.01302 0.97143 0.0
O9 O 0.95563 0.9545 0.00488 0.0
O10 O 0.9633 0.01302 0.91975 0.0
O11 O 0.87345 0.0863 0.99326 0.0
O12 O 0.86102 0.94506 0.96803 0.0
C13 C 0.17942 0.9371 0.01581 0.0
C14 C 0.07083 0.04738 0.10261 0.0
C15 C 0.19289 0.13421 0.01817 0.0
C16 C 0.02719 0.02533 0.91807 0.0
C17 C 0.91379 0.12436 0.00986 0.0
C18 C 0.89915 0.92584 0.992 0.0
O19 O 0.21259 0.97524 0.03681 0.0
O20 O 0.12084 0.94862 1.00234 0.0
O21 O 0.62975 0.57318 0.59944 0.0
Mg22 Mg 0.67488 0.55714 0.54958 0.0
O23 O 0.53753 0.52502 0.57461 0.0
Mg24 Mg 0.54722 0.52973 0.51001 0.0
O25 O 0.63539 0.60322 0.51244 0.0
O26 O 0.7409 0.62044 0.53934 0.0
O27 O 0.5638 0.53425 0.44697 0.0
O28 O 0.47681 0.61259 0.51735 0.0
Mg29 Mg 0.42704 0.51205 0.47102 0.0
O30 O 0.45537 0.45495 0.50567 0.0
O31 O 0.46509 0.50675 0.41926 0.0
O32 O 0.37643 0.58741 0.49047 0.0
O33 O 0.36022 0.44604 0.46918 0.0
C34 C 0.6799 0.43711 0.5149 0.0
C35 C 0.57289 0.54629 0.60284 0.0
C36 C 0.69242 0.63484 0.51846 0.0
C37 C 0.5279 0.52265 0.41794 0.0
C38 C 0.41492 0.62489 0.5089 0.0
C39 C 0.3984 0.42673 0.4931 0.0
O40 O 0.71425 0.47519 0.53536 0.0
O41 O 0.62059 0.44873 0.50227 0.0
C42 C 0.92349 0.13678 0.45756 0.0
C43 C 0.90357 0.17296 0.43257 0.0
C44 C 0.82977 0.22643 0.47749 0.0
C45 C 0.85682 0.21729 0.44238 0.0
C46 C 0.85014 0.18984 0.50248 0.0
C47 C 0.89657 0.1453 0.49251 0.0
U48 U 0.05871 0.00762 0.42799 0.0
O49 O 0.06288 0.94229 0.46513 0.0
O50 O 0.14789 0.00703 0.46532 0.0
C51 C 0.12384 0.96126 0.47868 0.0
C52 C 0.97217 0.09022 0.44702 0.0
C53 C 0.17476 0.91701 0.48406 0.0
C54 C 0.24656 0.87224 0.52577 0.0
C55 C 0.19987 0.91471 0.51907 0.0
C56 C 0.24464 0.83421 0.4622 0.0
C57 C 0.26933 0.83141 0.49747 0.0
C58 C 0.19748 0.87666 0.45554 0.0
C59 C 0.06393 0.97821 0.32211 0.0
C60 C 0.08533 0.94778 0.25864 0.0
C61 C 0.01175 0.02958 0.27633 0.0
C62 C 0.02119 0.02229 0.31284 0.0
C63 C 0.04537 0.99315 0.24892 0.0
C64 C 0.09459 0.94061 0.2947 0.0
C65 C 0.08132 0.97068 0.35962 0.0
O66 O 0.95186 0.03549 0.44196 0.0
O67 O 0.03831 0.1009 0.44093 0.0
O68 O 0.03267 0.94823 0.37847 0.0
O69 O 0.11878 0.01222 0.37851 0.0
H70 H 0.92423 0.16692 0.40549 0.0
H71 H 0.84328 0.24536 0.42273 0.0
H72 H 0.83023 0.19565 0.52972 0.0
H73 H 0.91201 0.11798 0.51215 0.0
H74 H 0.26484 0.8713 0.55313 0.0
H75 H 0.18276 0.94559 0.54138 0.0
H76 H 0.26042 0.80268 0.43995 0.0
H77 H 0.17827 0.87761 0.42835 0.0
H78 H 0.11151 0.91871 0.23826 0.0
H79 H 0.9811 0.06519 0.26969 0.0
H80 H 0.99691 0.05179 0.3337 0.0
H81 H 0.12759 0.90631 0.30126 0.0
C82 C 0.90744 0.94737 0.52866 0.0
C83 C 0.8798 0.92022 0.55683 0.0
C84 C 0.81163 0.85338 0.51371 0.0
C85 C 0.83226 0.87373 0.54943 0.0
C86 C 0.83965 0.88057 0.48554 0.0
C87 C 0.88704 0.92736 0.49302 0.0
U88 U 0.01287 0.04972 0.59665 0.0
O89 O 0.12032 0.08387 0.59601 0.0
O90 O 0.03295 0.14401 0.60102 0.0
C91 C 0.10078 0.13794 0.59827 0.0
C92 C 0.95704 -0.00338 0.53652 0.0
C93 C 0.13918 0.17614 0.57651 0.0
C94 C 0.22487 0.19108 0.53077 0.0
C95 C 0.17791 0.15451 0.54607 0.0
C96 C 0.1918 0.27147 0.57485 0.0
C97 C 0.23411 0.24947 0.54595 0.0
C98 C 0.14487 0.23518 0.58993 0.0
C99 C 0.99593 0.02623 0.69621 0.0
C100 C 0.07283 0.06641 0.7459 0.0
C101 C 0.97173 0.00711 0.75694 0.0
C102 C 0.95372 0.00115 0.72049 0.0
C103 C 0.03217 0.03856 0.76982 0.0
C104 C 0.05497 0.05998 0.70908 0.0
C105 C 0.97907 0.01299 0.65759 0.0
O106 O 0.93109 0.04322 0.55484 0.0
O107 O 0.01846 0.98392 0.5487 0.0
O108 O 0.02962 0.99105 0.63691 0.0
O109 O 0.94335 0.05185 0.64341 0.0
H110 H 0.89539 0.93478 0.58452 0.0
H111 H 0.81302 0.85267 0.57164 0.0
H112 H 0.82504 0.86553 0.45778 0.0
H113 H 0.90807 0.94755 0.47094 0.0
H114 H 0.25601 0.17312 0.50812 0.0
H115 H 0.17409 0.10908 0.53507 0.0
H116 H 0.19593 0.31667 0.58632 0.0
H117 H 0.11521 0.25281 0.61325 0.0
H118 H 0.11941 0.09116 0.75543 0.0
H119 H 0.93911 0.98605 0.77507 0.0
H120 H 0.90778 0.97538 0.71107 0.0
H121 H 0.08799 0.0799 0.69061 0.0
C122 C 0.4238 0.63703 0.95818 0.0
C123 C 0.4024 0.67239 0.93302 0.0
C124 C 0.33035 0.72679 0.97837 0.0
C125 C 0.35585 0.7168 0.94297 0.0
C126 C 0.35212 0.69098 1.00353 0.0
C127 C 0.39848 0.64642 0.99344 0.0
U128 U 0.55879 0.50781 0.92835 0.0
O129 O 0.56318 0.44246 0.96546 0.0
O130 O 0.6482 0.50716 0.96552 0.0
C131 C 0.62422 0.46139 0.97891 0.0
C132 C 0.47241 0.59049 0.94746 0.0
C133 C 0.67514 0.41712 0.98422 0.0
C134 C 0.74672 0.37216 0.02592 0.0
C135 C 0.70017 0.41472 0.01923 0.0
C136 C 0.74495 0.33427 0.96233 0.0
C137 C 0.76945 0.33132 0.99761 0.0
C138 C 0.6979 0.37681 0.95568 0.0
C139 C 0.56347 0.47816 0.82245 0.0
C140 C 0.58441 0.44718 0.759 0.0
C141 C 0.51223 0.52992 0.77661 0.0
C142 C 0.52148 0.52268 0.81313 0.0
C143 C 0.54529 0.493 0.74924 0.0
C144 C 0.59348 0.44005 0.79508 0.0
C145 C 0.58096 0.47075 0.85997 0.0
O146 O 0.45206 0.53577 0.94247 0.0
O147 O 0.53853 0.60114 0.94131 0.0
O148 O 0.53238 0.44839 0.87889 0.0
O149 O 0.61853 0.51231 0.87877 0.0
H150 H 0.42184 0.66569 0.9057 0.0
H151 H 0.34127 0.74428 0.92316 0.0
H152 H 0.33343 0.69743 0.031 0.0
H153 H 0.41516 0.6198 0.01323 0.0
H154 H 0.76485 0.3711 0.05329 0.0
H155 H 0.68304 0.44556 0.04156 0.0
H156 H 0.76073 0.30273 0.94007 0.0
H157 H 0.67875 0.37785 0.92848 0.0
H158 H 0.61016 0.41776 0.73865 0.0
H159 H 0.48225 0.56586 0.76992 0.0
H160 H 0.49774 0.55258 0.83396 0.0
H161 H 0.6259 0.40542 0.80168 0.0
C162 C 0.40694 0.44751 0.02835 0.0
C163 C 0.37605 0.42204 0.0564 0.0
C164 C 0.31208 0.35294 0.01272 0.0
C165 C 0.32894 0.37529 0.04866 0.0
C166 C 0.34321 0.37857 0.98469 0.0
C167 C 0.39011 0.42563 0.9925 0.0
U168 U 0.51231 0.55002 0.0966 0.0
O169 O 0.61983 0.58409 0.09588 0.0
O170 O 0.53255 0.6443 0.10076 0.0
C171 C 0.60038 0.63817 0.09801 0.0
C172 C 0.45656 0.49673 0.03648 0.0
C173 C 0.63886 0.67624 0.07615 0.0
C174 C 0.72492 0.69093 0.03051 0.0
C175 C 0.67801 0.65441 0.0459 0.0
C176 C 0.69105 0.77166 0.07411 0.0
C177 C 0.73373 0.74951 0.04539 0.0
C178 C 0.64417 0.73541 0.08928 0.0
C179 C 0.49498 0.52703 0.19631 0.0
C180 C 0.57274 0.56549 0.24603 0.0
C181 C 0.46927 0.50899 0.2571 0.0
C182 C 0.45149 0.50329 0.22063 0.0
C183 C 0.53079 0.53883 0.26998 0.0
C184 C 0.55507 0.55934 0.20919 0.0
C185 C 0.47834 0.5137 0.15764 0.0
O186 O 0.43057 0.54333 0.05478 0.0
O187 O 0.51785 0.48396 0.04876 0.0
O188 O 0.52893 0.49163 0.13704 0.0
O189 O 0.4427 0.55248 0.14336 0.0
H190 H 0.38888 0.43802 0.08427 0.0
H191 H 0.30723 0.3555 0.07082 0.0
H192 H 0.33153 0.36201 0.95678 0.0
H193 H 0.41368 0.44449 0.97051 0.0
H194 H 0.75637 0.67279 0.00803 0.0
H195 H 0.67455 0.60887 0.03512 0.0
H196 H 0.69486 0.81697 0.08537 0.0
H197 H 0.61423 0.75322 0.11246 0.0
H198 H 0.62023 0.58891 0.25553 0.0
H199 H 0.43575 0.48878 0.27524 0.0
H200 H 0.40476 0.47862 0.2112 0.0
H201 H 0.58911 0.57823 0.1907 0.0
C202 C 0.17438 0.23901 0.025 0.0
C203 C 0.20293 0.19011 0.00494 0.0
H204 H 0.18707 0.32988 0.04323 0.0
C205 C 0.25889 0.19733 0.9819 0.0
H206 H 0.13217 0.23415 0.04356 0.0
C207 C 0.29036 0.25201 0.98163 0.0
C208 C 0.26715 0.29989 0.00507 0.0
H209 H 0.28252 0.1599 0.9668 0.0
H210 H 0.33698 0.25556 0.96582 0.0
C211 C 0.20651 0.29354 0.02523 0.0
C212 C 0.26124 0.86291 0.03125 0.0
C213 C 0.21078 0.87961 0.0075 0.0
H214 H 0.33838 0.80208 0.04069 0.0
C215 C 0.19513 0.84291 0.97542 0.0
H216 H 0.27387 0.88994 0.05646 0.0
C217 C 0.23231 0.79201 0.96638 0.0
C218 C 0.28514 0.77682 0.98946 0.0
H219 H 0.15633 0.85462 0.95671 0.0
H220 H 0.22066 0.7651 0.94103 0.0
C221 C 0.29787 0.81216 0.02239 0.0
C222 C 0.83654 0.83068 0.98141 0.0
C223 C 0.87313 0.87276 0.00545 0.0
H224 H 0.76368 0.75892 0.9751 0.0
C225 C 0.87085 0.86926 0.04248 0.0
H226 H 0.83741 0.83253 0.95264 0.0
C227 C 0.82784 0.82732 0.05539 0.0
C228 C 0.78702 0.78798 0.03144 0.0
H229 H 0.89793 0.90146 0.06155 0.0
H230 H 0.82437 0.8271 0.08424 0.0
C231 C 0.79418 0.78857 0.99424 0.0
C232 C 0.83629 0.20162 0.03721 0.0
C233 C 0.89077 0.18433 0.01376 0.0
H234 H 0.75559 0.2625 0.05073 0.0
C235 C 0.9101 0.21881 0.98732 0.0
H236 H 0.81961 0.17473 0.05718 0.0
C237 C 0.87238 0.268 0.98285 0.0
C238 C 0.81539 0.28388 0.00514 0.0
H239 H 0.95091 0.20524 0.96834 0.0
H240 H 0.88613 0.29238 0.96115 0.0
C241 C 0.79946 0.25149 0.03327 0.0
C242 C 0.6749 0.73966 0.52754 0.0
C243 C 0.70104 0.6913 0.50584 0.0
H244 H 0.68996 0.82986 0.54707 0.0
C245 C 0.75446 0.69917 0.48144 0.0
H246 H 0.63474 0.73425 0.54714 0.0
C247 C 0.78615 0.75382 0.48134 0.0
C248 C 0.76572 0.80091 0.50626 0.0
H249 H 0.77629 0.66211 0.46505 0.0
H250 H 0.83106 0.75778 0.46436 0.0
C251 C 0.70726 0.79409 0.5279 0.0
C252 C 0.69553 0.34321 0.4742 0.0
C253 C 0.71053 0.37937 0.50657 0.0
H254 H 0.72159 0.26578 0.43957 0.0
C255 C 0.75995 0.36198 0.53062 0.0
H256 H 0.65753 0.35551 0.45527 0.0
C257 C 0.79634 0.31112 0.52177 0.0
C258 C 0.78447 0.2764 0.48854 0.0
H259 H 0.77198 0.38861 0.55604 0.0
H260 H 0.83611 0.30051 0.54032 0.0
C261 C 0.73255 0.29222 0.46516 0.0
C262 C 0.33571 0.33174 0.48222 0.0
C263 C 0.37254 0.3735 0.50636 0.0
H264 H 0.26294 0.25995 0.47573 0.0
C265 C 0.37114 0.36925 0.54331 0.0
H266 H 0.33607 0.3341 0.4535 0.0
C267 C 0.32855 0.32692 0.55608 0.0
C268 C 0.28733 0.28801 0.53207 0.0
H269 H 0.39856 0.40113 0.56244 0.0
H270 H 0.32565 0.32611 0.5849 0.0
C271 C 0.29375 0.28928 0.4949 0.0
C272 C 0.33788 0.70206 0.53692 0.0
C273 C 0.39181 0.68483 0.5131 0.0
H274 H 0.25714 0.76279 0.55088 0.0
C275 C 0.41035 0.71933 0.48655 0.0
H276 H 0.3218 0.67515 0.55698 0.0
C277 C 0.37239 0.76847 0.48233 0.0
C278 C 0.31578 0.78423 0.50491 0.0
H279 H 0.45076 0.70582 0.46732 0.0
H280 H 0.38558 0.79286 0.46055 0.0
C281 C 0.30069 0.75186 0.53318 0.0
C282 C 0.99273 0.02828 0.15514 0.0
C283 C 0.05853 0.03005 0.13888 0.0
H284 H 0.93648 0.0163 0.20357 0.0
C285 C 0.11776 0.01817 0.15874 0.0
H286 H 0.94624 0.03731 0.14052 0.0
C287 C 0.11238 0.00639 0.19398 0.0
C288 C 0.04746 0.00577 0.21091 0.0
H289 H 0.1693 0.01849 0.14703 0.0
H290 H 0.15984 -0.00127 0.2083 0.0
C291 C 0.98732 0.01682 0.1912 0.0
C292 C 0.06503 0.98266 0.85768 0.0
C293 C 0.0551 0.03241 0.88247 0.0
H294 H 0.06659 0.94627 0.80199 0.0
C295 C 0.04991 0.08631 0.86988 0.0
H296 H 0.06727 0.94052 0.86675 0.0
C297 C 0.04902 0.08963 0.83274 0.0
C298 C 0.05269 0.03891 0.80797 0.0
H299 H 0.04005 0.12494 0.88856 0.0
H300 H 0.0394 0.1308 0.82345 0.0
C301 C 0.06396 0.98591 0.82071 0.0
C302 C 0.49406 0.52819 0.6553 0.0
C303 C 0.56006 0.52945 0.63918 0.0
H304 H 0.43716 0.51677 0.70362 0.0
C305 C 0.61894 0.51732 0.65923 0.0
H306 H 0.44783 0.53741 0.64053 0.0
C307 C 0.61303 0.50573 0.69449 0.0
C308 C 0.54792 0.50556 0.71124 0.0
H309 H 0.67061 0.51722 0.64765 0.0
H310 H 0.66023 0.49779 0.70894 0.0
C311 C 0.48814 0.51693 0.69137 0.0
C312 C 0.56281 0.48036 0.35705 0.0
C313 C 0.55556 0.52997 0.38231 0.0
H314 H 0.56168 0.44492 0.3012 0.0
C315 C 0.55224 0.58439 0.37022 0.0
H316 H 0.56357 0.43788 0.36575 0.0
C317 C 0.55046 0.58845 0.33315 0.0
C318 C 0.55154 0.53799 0.30799 0.0
H319 H 0.54432 0.62299 0.38926 0.0
H320 H 0.54228 0.63014 0.32427 0.0
C321 C 0.56099 0.48435 0.32021 0.0
loop_
_geom_bond_atom_site_label_1
_geom_bond_atom_site_label_2
_geom_bond_distance
_geom_bond_site_symmetry_2
_ccdc_geom_bond_type
O0 Mg1 1.990 . S
O0 C14 1.253 . S
Mg1 O0 1.990 . S
Mg1 O4 2.180 . S
Mg1 O5 2.117 . S
Mg1 O19 2.030 1_545 S
O2 Mg3 2.066 1_554 S
O2 C14 1.260 . S
Mg3 O2 2.066 1_556 S
Mg3 O4 2.098 1_556 S
Mg3 O6 2.085 . S
Mg3 O7 2.072 1_456 S
Mg3 O9 2.100 1_445 S
Mg3 O20 2.079 1_545 S
O4 Mg1 2.180 . S
O4 Mg3 2.098 1_554 S
O4 C15 1.279 . S
O5 Mg1 2.117 . S
O5 C15 1.250 . S
O6 Mg3 2.085 . S
O6 C16 1.264 . S
O7 Mg3 2.072 1_654 S
O7 C17 1.260 1_554 S
Mg8 O9 2.180 1_545 S
Mg8 O10 2.030 . S
Mg8 O11 1.990 . S
Mg8 O12 2.117 1_545 S
O9 Mg3 2.100 1_665 S
O9 Mg8 2.180 1_565 S
O9 C18 1.264 1_556 S
O10 Mg8 2.030 . S
O10 C16 1.248 1_655 S
O11 Mg8 1.990 . S
O11 C17 1.253 . S
O12 Mg8 2.117 1_565 S
O12 C18 1.242 1_556 S
C13 O19 1.248 . S
C13 O20 1.264 1_554 S
C14 O0 1.253 . S
C14 O2 1.260 . S
C15 O4 1.279 . S
C15 O5 1.250 . S
C16 O6 1.264 . S
C16 O10 1.248 1_455 S
C17 O7 1.260 1_556 S
C17 O11 1.253 . S
C18 O9 1.264 1_554 S
C18 O12 1.242 1_554 S
O19 Mg1 2.030 1_565 S
O19 C13 1.248 . S
O20 Mg3 2.079 1_565 S
O20 C13 1.264 1_556 S
O21 Mg22 1.990 . S
O21 C35 1.253 . S
Mg22 O21 1.990 . S
Mg22 O25 2.180 . S
Mg22 O26 2.117 . S
Mg22 O40 2.030 . S
O23 Mg24 2.072 . S
O23 C35 1.260 . S
Mg24 O23 2.072 . S
Mg24 O25 2.099 . S
Mg24 O27 2.079 . S
Mg24 O28 2.072 . S
Mg24 O30 2.099 . S
Mg24 O41 2.079 . S
O25 Mg22 2.180 . S
O25 Mg24 2.099 . S
O25 C36 1.279 . S
O26 Mg22 2.117 . S
O26 C36 1.250 . S
O27 Mg24 2.079 . S
O27 C37 1.264 . S
O28 Mg24 2.072 . S
O28 C38 1.260 . S
Mg29 O30 2.180 . S
Mg29 O31 2.030 . S
Mg29 O32 1.990 . S
Mg29 O33 2.117 . S
O30 Mg24 2.099 . S
O30 Mg29 2.180 . S
O30 C39 1.279 . S
O31 Mg29 2.030 . S
O31 C37 1.248 . S
O32 Mg29 1.990 . S
O32 C38 1.253 . S
O33 Mg29 2.117 . S
O33 C39 1.250 . S
C34 O40 1.248 . S
C34 O41 1.264 . S
C35 O21 1.253 . S
C35 O23 1.260 . S
C36 O25 1.279 . S
C36 O26 1.250 . S
C37 O27 1.264 . S
C37 O31 1.248 . S
C38 O28 1.260 . S
C38 O32 1.253 . S
C39 O30 1.279 . S
C39 O33 1.250 . S
O40 Mg22 2.030 . S
O40 C34 1.248 . S
O41 Mg24 2.079 . S
O41 C34 1.264 . S
C42 C43 1.264 . S
C42 C47 1.479 . S
C42 C52 1.465 . S
C43 C42 1.264 . S
C43 C45 1.339 . S
C43 H70 0.931 . S
C44 C45 1.395 . S
C44 C46 1.320 . S
C45 C43 1.339 . S
C45 C44 1.395 . S
C45 H71 0.929 . S
C46 C44 1.320 . S
C46 C47 1.405 . S
C46 H72 0.930 . S
C47 C42 1.479 . S
C47 C46 1.405 . S
C47 H73 0.931 . S
U48 O49 2.454 1_545 S
U48 O50 2.458 1_545 S
U48 C51 2.984 1_545 S
U48 C52 2.847 1_455 S
U48 C65 2.882 . S
U48 O66 2.441 . S
U48 O67 2.420 . S
U48 O68 2.455 1_545 S
U48 O69 2.449 . S
O49 U48 2.454 1_565 S
O49 C51 1.353 . S
O50 U48 2.458 1_565 S
O50 C51 1.286 . S
C51 U48 2.984 1_565 S
C51 O49 1.353 . S
C51 O50 1.286 . S
C51 C53 1.363 . S
C52 C42 1.465 . S
C52 U48 2.847 1_655 S
C52 O66 1.249 1_655 S
C52 O67 1.202 1_655 S
C53 C51 1.363 . S
C53 C55 1.408 . S
C53 C58 1.342 . S
C54 C55 1.310 . S
C54 C57 1.461 . S
C54 H74 0.932 . S
C55 C53 1.408 . S
C55 C54 1.310 . S
C55 H75 0.930 . S
C56 C57 1.474 . S
C56 C58 1.285 . S
C56 H76 0.929 . S
C57 C54 1.461 . S
C57 C56 1.474 . S
C58 C53 1.342 . S
C58 C56 1.285 . S
C58 H77 0.930 . S
C59 C62 1.424 . S
C59 C64 1.245 1_545 S
C59 C65 1.428 . S
C60 C63 1.260 . S
C60 C64 1.477 . S
C60 H78 0.932 . S
C61 C62 1.384 . S
C61 C63 1.479 1_545 S
C61 H79 0.929 . S
C62 C59 1.424 . S
C62 C61 1.384 . S
C62 H80 0.928 . S
C63 C60 1.260 . S
C63 C61 1.479 1_565 S
C64 C59 1.245 1_565 S
C64 C60 1.477 . S
C64 H81 0.932 . S
C65 U48 2.882 . S
C65 C59 1.428 . S
C65 O68 1.301 1_545 S
C65 O69 1.282 . S
O66 U48 2.441 . S
O66 C52 1.249 1_455 S
O67 U48 2.420 . S
O67 C52 1.202 1_455 S
O68 U48 2.455 1_565 S
O68 C65 1.301 1_565 S
O69 U48 2.449 . S
O69 C65 1.282 . S
H70 C43 0.931 . S
H71 C45 0.929 . S
H72 C46 0.930 . S
H73 C47 0.931 . S
H74 C54 0.932 . S
H75 C55 0.930 . S
H76 C56 0.929 . S
H77 C58 0.930 . S
H78 C60 0.932 . S
H79 C61 0.929 . S
H80 C62 0.928 . S
H81 C64 0.932 . S
C82 C83 1.264 . S
C82 C87 1.479 . S
C82 C92 1.465 . S
C83 C82 1.264 . S
C83 C85 1.339 . S
C83 H110 0.931 . S
C84 C85 1.395 . S
C84 C86 1.320 . S
C85 C83 1.339 . S
C85 C84 1.395 . S
C85 H111 0.929 . S
C86 C84 1.320 . S
C86 C87 1.405 . S
C86 H112 0.930 . S
C87 C82 1.479 . S
C87 C86 1.405 . S
C87 H113 0.931 . S
U88 O89 2.454 . S
U88 O90 2.458 . S
U88 C91 2.984 . S
U88 C92 2.847 1_445 S
U88 C105 2.882 . S
U88 O106 2.441 1_455 S
U88 O107 2.420 1_445 S
U88 O108 2.455 . S
U88 O109 2.449 . S
O89 U88 2.454 . S
O89 C91 1.353 . S
O90 U88 2.458 . S
O90 C91 1.286 . S
C91 U88 2.984 . S
C91 O89 1.353 . S
C91 O90 1.286 . S
C91 C93 1.363 . S
C92 C82 1.465 . S
C92 U88 2.847 1_665 S
C92 O106 1.249 1_565 S
C92 O107 1.202 . S
C93 C91 1.363 . S
C93 C95 1.408 . S
C93 C98 1.342 . S
C94 C95 1.310 . S
C94 C97 1.461 . S
C94 H114 0.932 . S
C95 C93 1.408 . S
C95 C94 1.310 . S
C95 H115 0.930 . S
C96 C97 1.474 . S
C96 C98 1.285 . S
C96 H116 0.929 . S
C97 C94 1.461 . S
C97 C96 1.474 . S
C98 C93 1.342 . S
C98 C96 1.285 . S
C98 H117 0.930 . S
C99 C102 1.424 1_455 S
C99 C104 1.245 . S
C99 C105 1.428 . S
C100 C103 1.260 . S
C100 C104 1.477 . S
C100 H118 0.932 . S
C101 C102 1.384 . S
C101 C103 1.479 1_655 S
C101 H119 0.929 . S
C102 C99 1.424 1_655 S
C102 C101 1.384 . S
C102 H120 0.928 . S
C103 C100 1.260 . S
C103 C101 1.479 1_455 S
C104 C99 1.245 . S
C104 C100 1.477 . S
C104 H121 0.932 . S
C105 U88 2.882 . S
C105 C99 1.428 . S
C105 O108 1.301 . S
C105 O109 1.282 . S
O106 U88 2.441 1_655 S
O106 C92 1.249 1_545 S
O107 U88 2.420 1_665 S
O107 C92 1.202 . S
O108 U88 2.455 . S
O108 C105 1.301 . S
O109 U88 2.449 . S
O109 C105 1.282 . S
H110 C83 0.931 . S
H111 C85 0.929 . S
H112 C86 0.930 . S
H113 C87 0.931 . S
H114 C94 0.932 . S
H115 C95 0.930 . S
H116 C96 0.929 . S
H117 C98 0.930 . S
H118 C100 0.932 . S
H119 C101 0.929 . S
H120 C102 0.928 . S
H121 C104 0.932 . S
C122 C123 1.264 . S
C122 C127 1.479 1_556 S
C122 C132 1.465 . S
C123 C122 1.264 . S
C123 C125 1.339 . S
C123 H150 0.931 . S
C124 C125 1.395 1_554 S
C124 C126 1.320 . S
C125 C123 1.339 . S
C125 C124 1.395 1_556 S
C125 H151 0.929 . S
C126 C124 1.320 . S
C126 C127 1.405 . S
C126 H152 0.930 . S
C127 C122 1.479 1_554 S
C127 C126 1.405 . S
C127 H153 0.931 . S
U128 O129 2.454 . S
U128 O130 2.458 . S
U128 C131 2.984 . S
U128 C132 2.847 . S
U128 C145 2.882 . S
U128 O146 2.441 . S
U128 O147 2.420 . S
U128 O148 2.455 . S
U128 O149 2.449 . S
O129 U128 2.454 . S
O129 C131 1.353 . S
O130 U128 2.458 . S
O130 C131 1.286 . S
C131 U128 2.984 . S
C131 O129 1.353 . S
C131 O130 1.286 . S
C131 C133 1.363 . S
C132 C122 1.465 . S
C132 U128 2.847 . S
C132 O146 1.249 . S
C132 O147 1.202 . S
C133 C131 1.363 . S
C133 C135 1.408 1_556 S
C133 C138 1.342 . S
C134 C135 1.310 . S
C134 C137 1.473 . S
C134 H154 0.932 . S
C135 C133 1.408 1_554 S
C135 C134 1.310 . S
C135 H155 0.930 . S
C136 C137 1.449 1_556 S
C136 C138 1.285 . S
C136 H156 0.929 . S
C137 C134 1.473 . S
C137 C136 1.449 1_554 S
C138 C133 1.342 . S
C138 C136 1.285 . S
C138 H157 0.930 . S
C139 C142 1.424 . S
C139 C144 1.245 . S
C139 C145 1.428 . S
C140 C143 1.260 . S
C140 C144 1.477 . S
C140 H158 0.932 . S
C141 C142 1.384 . S
C141 C143 1.479 . S
C141 H159 0.929 . S
C142 C139 1.424 . S
C142 C141 1.384 . S
C142 H160 0.928 . S
C143 C140 1.260 . S
C143 C141 1.479 . S
C144 C139 1.245 . S
C144 C140 1.477 . S
C144 H161 0.932 . S
C145 U128 2.882 . S
C145 C139 1.428 . S
C145 O148 1.301 . S
C145 O149 1.282 . S
O146 U128 2.441 . S
O146 C132 1.249 . S
O147 U128 2.420 . S
O147 C132 1.202 . S
O148 U128 2.455 . S
O148 C145 1.301 . S
O149 U128 2.449 . S
O149 C145 1.282 . S
H150 C123 0.931 . S
H151 C125 0.929 . S
H152 C126 0.930 . S
H153 C127 0.931 . S
H154 C134 0.932 . S
H155 C135 0.930 . S
H156 C136 0.929 . S
H157 C138 0.930 . S
H158 C140 0.932 . S
H159 C141 0.929 . S
H160 C142 0.928 . S
H161 C144 0.932 . S
C162 C163 1.264 . S
C162 C167 1.479 1_554 S
C162 C172 1.465 . S
C163 C162 1.264 . S
C163 C165 1.339 . S
C163 H190 0.931 . S
C164 C165 1.395 1_556 S
C164 C166 1.320 . S
C165 C163 1.339 . S
C165 C164 1.395 1_554 S
C165 H191 0.929 . S
C166 C164 1.320 . S
C166 C167 1.405 . S
C166 H192 0.930 . S
C167 C162 1.479 1_556 S
C167 C166 1.405 . S
C167 H193 0.931 . S
U168 O169 2.454 . S
U168 O170 2.458 . S
U168 C171 2.984 . S
U168 C172 2.847 . S
U168 C185 2.882 . S
U168 O186 2.441 . S
U168 O187 2.420 . S
U168 O188 2.455 . S
U168 O189 2.449 . S
O169 U168 2.454 . S
O169 C171 1.353 . S
O170 U168 2.458 . S
O170 C171 1.286 . S
C171 U168 2.984 . S
C171 O169 1.353 . S
C171 O170 1.286 . S
C171 C173 1.363 . S
C172 C162 1.465 . S
C172 U168 2.847 . S
C172 O186 1.249 . S
C172 O187 1.202 . S
C173 C171 1.363 . S
C173 C175 1.408 . S
C173 C178 1.342 . S
C174 C175 1.310 1_556 S
C174 C177 1.461 1_556 S
C174 H194 0.932 . S
C175 C173 1.408 . S
C175 C174 1.310 1_554 S
C175 H195 0.930 1_554 S
C176 C177 1.474 . S
C176 C178 1.285 . S
C176 H196 0.929 . S
C177 C174 1.461 1_554 S
C177 C176 1.474 . S
C178 C173 1.342 . S
C178 C176 1.285 . S
C178 H197 0.930 . S
C179 C182 1.424 . S
C179 C184 1.245 . S
C179 C185 1.428 . S
C180 C183 1.260 . S
C180 C184 1.477 . S
C180 H198 0.932 . S
C181 C182 1.384 . S
C181 C183 1.479 . S
C181 H199 0.929 . S
C182 C179 1.424 . S
C182 C181 1.384 . S
C182 H200 0.928 . S
C183 C180 1.260 . S
C183 C181 1.479 . S
C184 C179 1.245 . S
C184 C180 1.477 . S
C184 H201 0.932 . S
C185 U168 2.882 . S
C185 C179 1.428 . S
C185 O188 1.301 . S
C185 O189 1.282 . S
O186 U168 2.441 . S
O186 C172 1.249 . S
O187 U168 2.420 . S
O187 C172 1.202 . S
O188 U168 2.455 . S
O188 C185 1.301 . S
O189 U168 2.449 . S
O189 C185 1.282 . S
H190 C163 0.931 . S
H191 C165 0.929 . S
H192 C166 0.930 . S
H193 C167 0.931 . S
H194 C174 0.932 . S
H195 C175 0.930 1_556 S
H196 C176 0.929 . S
H197 C178 0.930 . S
H198 C180 0.932 . S
H199 C181 0.929 . S
H200 C182 0.928 . S
H201 C184 0.932 . S
C202 C203 1.387 . S
C202 H206 0.950 . S
C202 C211 1.390 . S
C203 C202 1.387 . S
C203 C205 1.387 1_554 S
H204 C211 0.950 . S
C205 C203 1.387 1_556 S
C205 C207 1.390 . S
C205 H209 0.950 . S
H206 C202 0.950 . S
C207 C205 1.390 . S
C207 C208 1.387 . S
C207 H210 0.950 . S
C208 C207 1.387 . S
C208 C211 1.387 1_556 S
H209 C205 0.950 . S
H210 C207 0.950 . S
C211 C202 1.390 . S
C211 H204 0.950 . S
C211 C208 1.387 1_554 S
C212 C213 1.387 . S
C212 H216 0.950 . S
C212 C221 1.390 . S
C213 C212 1.387 . S
C213 C215 1.387 1_554 S
H214 C221 0.950 . S
C215 C213 1.387 1_556 S
C215 C217 1.390 . S
C215 H219 0.950 . S
H216 C212 0.950 . S
C217 C215 1.390 . S
C217 C218 1.387 1_556 S
C217 H220 0.950 . S
C218 C217 1.387 1_554 S
C218 C221 1.387 . S
H219 C215 0.950 . S
H220 C217 0.950 . S
C221 C212 1.390 . S
C221 H214 0.950 . S
C221 C218 1.387 . S
C222 C223 1.387 1_556 S
C222 H226 0.950 . S
C222 C231 1.390 . S
C223 C222 1.387 1_554 S
C223 C225 1.387 . S
H224 C231 0.950 . S
C225 C223 1.387 . S
C225 C227 1.390 . S
C225 H229 0.950 . S
H226 C222 0.950 . S
C227 C225 1.390 . S
C227 C228 1.387 . S
C227 H230 0.950 . S
C228 C227 1.387 . S
C228 C231 1.387 1_554 S
H229 C225 0.950 . S
H230 C227 0.950 . S
C231 C222 1.390 . S
C231 H224 0.950 . S
C231 C228 1.387 1_556 S
C232 C233 1.387 . S
C232 H236 0.950 . S
C232 C241 1.390 . S
C233 C232 1.387 . S
C233 C235 1.387 1_554 S
H234 C241 0.950 . S
C235 C233 1.387 1_556 S
C235 C237 1.390 . S
C235 H239 0.950 . S
H236 C232 0.950 . S
C237 C235 1.390 . S
C237 C238 1.387 1_556 S
C237 H240 0.950 . S
C238 C237 1.387 1_554 S
C238 C241 1.387 . S
H239 C235 0.950 . S
H240 C237 0.950 . S
C241 C232 1.390 . S
C241 H234 0.950 . S
C241 C238 1.387 . S
C242 C243 1.387 . S
C242 H246 0.950 . S
C242 C251 1.390 . S
C243 C242 1.387 . S
C243 C245 1.387 . S
H244 C251 0.950 . S
C245 C243 1.387 . S
C245 C247 1.390 . S
C245 H249 0.950 . S
H246 C242 0.950 . S
C247 C245 1.390 . S
C247 C248 1.387 . S
C247 H250 0.950 . S
C248 C247 1.387 . S
C248 C251 1.387 . S
H249 C245 0.950 . S
H250 C247 0.950 . S
C251 C242 1.390 . S
C251 H244 0.950 . S
C251 C248 1.387 . S
C252 C253 1.387 . S
C252 H256 0.950 . S
C252 C261 1.390 . S
C253 C252 1.387 . S
C253 C255 1.387 . S
H254 C261 0.950 . S
C255 C253 1.387 . S
C255 C257 1.390 . S
C255 H259 0.950 . S
H256 C252 0.950 . S
C257 C255 1.390 . S
C257 C258 1.387 . S
C257 H260 0.950 . S
C258 C257 1.387 . S
C258 C261 1.387 . S
H259 C255 0.950 . S
H260 C257 0.950 . S
C261 C252 1.390 . S
C261 H254 0.950 . S
C261 C258 1.387 . S
C262 C263 1.387 . S
C262 H266 0.950 . S
C262 C271 1.390 . S
C263 C262 1.387 . S
C263 C265 1.387 . S
H264 C271 0.950 . S
C265 C263 1.387 . S
C265 C267 1.390 . S
C265 H269 0.950 . S
H266 C262 0.950 . S
C267 C265 1.390 . S
C267 C268 1.387 . S
C267 H270 0.950 . S
C268 C267 1.387 . S
C268 C271 1.387 . S
H269 C265 0.950 . S
H270 C267 0.950 . S
C271 C262 1.390 . S
C271 H264 0.950 . S
C271 C268 1.387 . S
C272 C273 1.387 . S
C272 H276 0.950 . S
C272 C281 1.390 . S
C273 C272 1.387 . S
C273 C275 1.387 . S
H274 C281 0.950 . S
C275 C273 1.387 . S
C275 C277 1.390 . S
C275 H279 0.950 . S
H276 C272 0.950 . S
C277 C275 1.390 . S
C277 C278 1.387 . S
C277 H280 0.950 . S
C278 C277 1.387 . S
C278 C281 1.387 . S
H279 C275 0.950 . S
H280 C277 0.950 . S
C281 C272 1.390 . S
C281 H274 0.950 . S
C281 C278 1.387 . S
C282 C283 1.387 1_665 S
C282 H286 0.950 . S
C282 C291 1.390 . S
C283 C282 1.387 1_445 S
C283 C285 1.387 . S
H284 C291 0.950 . S
C285 C283 1.387 . S
C285 C287 1.390 . S
C285 H289 0.950 . S
H286 C282 0.950 . S
C287 C285 1.390 . S
C287 C288 1.387 1_545 S
C287 H290 0.950 . S
C288 C287 1.387 1_565 S
C288 C291 1.387 1_455 S
H289 C285 0.950 . S
H290 C287 0.950 . S
C291 C282 1.390 . S
C291 H284 0.950 . S
C291 C288 1.387 1_655 S
C292 C293 1.387 . S
C292 H296 0.950 1_545 S
C292 C301 1.390 . S
C293 C292 1.387 . S
C293 C295 1.387 . S
H294 C301 0.950 1_565 S
C295 C293 1.387 . S
C295 C297 1.390 . S
C295 H299 0.950 . S
H296 C292 0.950 1_565 S
C297 C295 1.390 . S
C297 C298 1.387 . S
C297 H300 0.950 . S
C298 C297 1.387 . S
C298 C301 1.387 . S
H299 C295 0.950 . S
H300 C297 0.950 . S
C301 C292 1.390 . S
C301 H294 0.950 1_545 S
C301 C298 1.387 . S
C302 C303 1.387 . S
C302 H306 0.950 . S
C302 C311 1.390 . S
C303 C302 1.387 . S
C303 C305 1.387 . S
H304 C311 0.950 . S
C305 C303 1.387 . S
C305 C307 1.390 . S
C305 H309 0.950 . S
H306 C302 0.950 . S
C307 C305 1.390 . S
C307 C308 1.387 . S
C307 H310 0.950 . S
C308 C307 1.387 . S
C308 C311 1.387 . S
H309 C305 0.950 . S
H310 C307 0.950 . S
C311 C302 1.390 . S
C311 H304 0.950 . S
C311 C308 1.387 . S
C312 C313 1.387 . S
C312 H316 0.950 . S
C312 C321 1.390 . S
C313 C312 1.387 . S
C313 C315 1.387 . S
H314 C321 0.950 . S
C315 C313 1.387 . S
C315 C317 1.390 . S
C315 H319 0.950 . S
H316 C312 0.950 . S
C317 C315 1.390 . S
C317 C318 1.387 . S
C317 H320 0.950 . S
C318 C317 1.387 . S
C318 C321 1.387 . S
H319 C315 0.950 . S
H320 C317 0.950 . S
C321 C312 1.390 . S
C321 H314 0.950 . S
C321 C318 1.387 . S
C208 C164 1.621 . S
C203 C15 1.636 . S
C213 C13 1.685 . S
C218 C124 1.651 . S
C223 C18 1.349 . S
C228 C177 1.589 . S
C233 C17 1.472 1_554 S
C238 C137 1.495 . S
C243 C36 1.635 . S
C248 C84 1.622 . S
C253 C34 1.686 . S
C258 C44 1.649 . S
C268 C97 1.589 . S
C263 C39 1.335 . S
C278 C57 1.488 . S
C273 C38 1.472 . S
C283 C14 1.522 . S
C288 C63 1.546 . S
C293 C16 1.412 . S
C298 C103 1.426 . S
C308 C143 1.546 . S
C303 C35 1.522 . S
C313 C37 1.412 . S
C318 C183 1.426 . S
