# Generated by pormake.
# Topology gar, (4,6)-cn, num edge types: 1
# Building blocks:
#     Node 0, Type 0, BuildingBlock: UXUYUI_clean_sbu_0, # of connection points: 4
#     Node 1, Type 0, BuildingBlock: UXUYUI_clean_sbu_0, # of connection points: 4
#     Node 2, Type 0, BuildingBlock: UXUYUI_clean_sbu_0, # of connection points: 4
#     Node 3, Type 0, BuildingBlock: UXUYUI_clean_sbu_0, # of connection points: 4
#     Node 4, Type 0, BuildingBlock: UXUYUI_clean_sbu_0, # of connection points: 4
#     Node 5, Type 0, BuildingBlock: UXUYUI_clean_sbu_0, # of connection points: 4
#     Node 6, Type 0, BuildingBlock: UXUYUI_clean_sbu_0, # of connection points: 4
#     Node 7, Type 0, BuildingBlock: UXUYUI_clean_sbu_0, # of connection points: 4
#     Node 8, Type 0, BuildingBlock: UXUYUI_clean_sbu_0, # of connection points: 4
#     Node 9, Type 0, BuildingBlock: UXUYUI_clean_sbu_0, # of connection points: 4
#     Node 10, Type 0, BuildingBlock: UXUYUI_clean_sbu_0, # of connection points: 4
#     Node 11, Type 0, BuildingBlock: UXUYUI_clean_sbu_0, # of connection points: 4
#     Node 12, Type 0, BuildingBlock: UXUYUI_clean_sbu_0, # of connection points: 4
#     Node 13, Type 0, BuildingBlock: UXUYUI_clean_sbu_0, # of connection points: 4
#     Node 14, Type 0, BuildingBlock: UXUYUI_clean_sbu_0, # of connection points: 4
#     Node 15, Type 0, BuildingBlock: UXUYUI_clean_sbu_0, # of connection points: 4
#     Node 16, Type 0, BuildingBlock: UXUYUI_clean_sbu_0, # of connection points: 4
#     Node 17, Type 0, BuildingBlock: UXUYUI_clean_sbu_0, # of connection points: 4
#     Node 18, Type 0, BuildingBlock: UXUYUI_clean_sbu_0, # of connection points: 4
#     Node 19, Type 0, BuildingBlock: UXUYUI_clean_sbu_0, # of connection points: 4
#     Node 20, Type 0, BuildingBlock: UXUYUI_clean_sbu_0, # of connection points: 4
#     Node 21, Type 0, BuildingBlock: UXUYUI_clean_sbu_0, # of connection points: 4
#     Node 22, Type 0, BuildingBlock: UXUYUI_clean_sbu_0, # of connection points: 4
#     Node 23, Type 0, BuildingBlock: UXUYUI_clean_sbu_0, # of connection points: 4
#     Node 24, Type 1, BuildingBlock: KUMBUR_clean_sbu_0, # of connection points: 6
#     Node 25, Type 1, BuildingBlock: KUMBUR_clean_sbu_0, # of connection points: 6
#     Node 26, Type 1, BuildingBlock: KUMBUR_clean_sbu_0, # of connection points: 6
#     Node 27, Type 1, BuildingBlock: KUMBUR_clean_sbu_0, # of connection points: 6
#     Node 28, Type 1, BuildingBlock: KUMBUR_clean_sbu_0, # of connection points: 6
#     Node 29, Type 1, BuildingBlock: KUMBUR_clean_sbu_0, # of connection points: 6
#     Node 30, Type 1, BuildingBlock: KUMBUR_clean_sbu_0, # of connection points: 6
#     Node 31, Type 1, BuildingBlock: KUMBUR_clean_sbu_0, # of connection points: 6
#     Node 32, Type 1, BuildingBlock: KUMBUR_clean_sbu_0, # of connection points: 6
#     Node 33, Type 1, BuildingBlock: KUMBUR_clean_sbu_0, # of connection points: 6
#     Node 34, Type 1, BuildingBlock: KUMBUR_clean_sbu_0, # of connection points: 6
#     Node 35, Type 1, BuildingBlock: KUMBUR_clean_sbu_0, # of connection points: 6
#     Node 36, Type 1, BuildingBlock: KUMBUR_clean_sbu_0, # of connection points: 6
#     Node 37, Type 1, BuildingBlock: KUMBUR_clean_sbu_0, # of connection points: 6
#     Node 38, Type 1, BuildingBlock: KUMBUR_clean_sbu_0, # of connection points: 6
#     Node 39, Type 1, BuildingBlock: KUMBUR_clean_sbu_0, # of connection points: 6
#     Edge 40, Type (0, 1), BuildingBlock: CIFDUS_clean_linker_0, # of connection points: 2
#     Edge 41, Type (0, 1), BuildingBlock: CIFDUS_clean_linker_0, # of connection points: 2
#     Edge 42, Type (0, 1), BuildingBlock: CIFDUS_clean_linker_0, # of connection points: 2
#     Edge 43, Type (0, 1), BuildingBlock: CIFDUS_clean_linker_0, # of connection points: 2
#     Edge 44, Type (0, 1), BuildingBlock: CIFDUS_clean_linker_0, # of connection points: 2
#     Edge 45, Type (0, 1), BuildingBlock: CIFDUS_clean_linker_0, # of connection points: 2
#     Edge 46, Type (0, 1), BuildingBlock: CIFDUS_clean_linker_0, # of connection points: 2
#     Edge 47, Type (0, 1), BuildingBlock: CIFDUS_clean_linker_0, # of connection points: 2
#     Edge 48, Type (0, 1), BuildingBlock: CIFDUS_clean_linker_0, # of connection points: 2
#     Edge 49, Type (0, 1), BuildingBlock: CIFDUS_clean_linker_0, # of connection points: 2
#     Edge 50, Type (0, 1), BuildingBlock: CIFDUS_clean_linker_0, # of connection points: 2
#     Edge 51, Type (0, 1), BuildingBlock: CIFDUS_clean_linker_0, # of connection points: 2
#     Edge 52, Type (0, 1), BuildingBlock: CIFDUS_clean_linker_0, # of connection points: 2
#     Edge 53, Type (0, 1), BuildingBlock: CIFDUS_clean_linker_0, # of connection points: 2
#     Edge 54, Type (0, 1), BuildingBlock: CIFDUS_clean_linker_0, # of connection points: 2
#     Edge 55, Type (0, 1), BuildingBlock: CIFDUS_clean_linker_0, # of connection points: 2
#     Edge 56, Type (0, 1), BuildingBlock: CIFDUS_clean_linker_0, # of connection points: 2
#     Edge 57, Type (0, 1), BuildingBlock: CIFDUS_clean_linker_0, # of connection points: 2
#     Edge 58, Type (0, 1), BuildingBlock: CIFDUS_clean_linker_0, # of connection points: 2
#     Edge 59, Type (0, 1), BuildingBlock: CIFDUS_clean_linker_0, # of connection points: 2
#     Edge 60, Type (0, 1), BuildingBlock: CIFDUS_clean_linker_0, # of connection points: 2
#     Edge 61, Type (0, 1), BuildingBlock: CIFDUS_clean_linker_0, # of connection points: 2
#     Edge 62, Type (0, 1), BuildingBlock: CIFDUS_clean_linker_0, # of connection points: 2
#     Edge 63, Type (0, 1), BuildingBlock: CIFDUS_clean_linker_0, # of connection points: 2
#     Edge 64, Type (0, 1), BuildingBlock: CIFDUS_clean_linker_0, # of connection points: 2
#     Edge 65, Type (0, 1), BuildingBlock: CIFDUS_clean_linker_0, # of connection points: 2
#     Edge 66, Type (0, 1), BuildingBlock: CIFDUS_clean_linker_0, # of connection points: 2
#     Edge 67, Type (0, 1), BuildingBlock: CIFDUS_clean_linker_0, # of connection points: 2
#     Edge 68, Type (0, 1), BuildingBlock: CIFDUS_clean_linker_0, # of connection points: 2
#     Edge 69, Type (0, 1), BuildingBlock: CIFDUS_clean_linker_0, # of connection points: 2
#     Edge 70, Type (0, 1), BuildingBlock: CIFDUS_clean_linker_0, # of connection points: 2
#     Edge 71, Type (0, 1), BuildingBlock: CIFDUS_clean_linker_0, # of connection points: 2
#     Edge 72, Type (0, 1), BuildingBlock: CIFDUS_clean_linker_0, # of connection points: 2
#     Edge 73, Type (0, 1), BuildingBlock: CIFDUS_clean_linker_0, # of connection points: 2
#     Edge 74, Type (0, 1), BuildingBlock: CIFDUS_clean_linker_0, # of connection points: 2
#     Edge 75, Type (0, 1), BuildingBlock: CIFDUS_clean_linker_0, # of connection points: 2
#     Edge 76, Type (0, 1), BuildingBlock: CIFDUS_clean_linker_0, # of connection points: 2
#     Edge 77, Type (0, 1), BuildingBlock: CIFDUS_clean_linker_0, # of connection points: 2
#     Edge 78, Type (0, 1), BuildingBlock: CIFDUS_clean_linker_0, # of connection points: 2
#     Edge 79, Type (0, 1), BuildingBlock: CIFDUS_clean_linker_0, # of connection points: 2
#     Edge 80, Type (0, 1), BuildingBlock: CIFDUS_clean_linker_0, # of connection points: 2
#     Edge 81, Type (0, 1), BuildingBlock: CIFDUS_clean_linker_0, # of connection points: 2
#     Edge 82, Type (0, 1), BuildingBlock: CIFDUS_clean_linker_0, # of connection points: 2
#     Edge 83, Type (0, 1), BuildingBlock: CIFDUS_clean_linker_0, # of connection points: 2
#     Edge 84, Type (0, 1), BuildingBlock: CIFDUS_clean_linker_0, # of connection points: 2
#     Edge 85, Type (0, 1), BuildingBlock: CIFDUS_clean_linker_0, # of connection points: 2
#     Edge 86, Type (0, 1), BuildingBlock: CIFDUS_clean_linker_0, # of connection points: 2
#     Edge 87, Type (0, 1), BuildingBlock: CIFDUS_clean_linker_0, # of connection points: 2
#     Edge 88, Type (0, 1), BuildingBlock: CIFDUS_clean_linker_0, # of connection points: 2
#     Edge 89, Type (0, 1), BuildingBlock: CIFDUS_clean_linker_0, # of connection points: 2
#     Edge 90, Type (0, 1), BuildingBlock: CIFDUS_clean_linker_0, # of connection points: 2
#     Edge 91, Type (0, 1), BuildingBlock: CIFDUS_clean_linker_0, # of connection points: 2
#     Edge 92, Type (0, 1), BuildingBlock: CIFDUS_clean_linker_0, # of connection points: 2
#     Edge 93, Type (0, 1), BuildingBlock: CIFDUS_clean_linker_0, # of connection points: 2
#     Edge 94, Type (0, 1), BuildingBlock: CIFDUS_clean_linker_0, # of connection points: 2
#     Edge 95, Type (0, 1), BuildingBlock: CIFDUS_clean_linker_0, # of connection points: 2
#     Edge 96, Type (0, 1), BuildingBlock: CIFDUS_clean_linker_0, # of connection points: 2
#     Edge 97, Type (0, 1), BuildingBlock: CIFDUS_clean_linker_0, # of connection points: 2
#     Edge 98, Type (0, 1), BuildingBlock: CIFDUS_clean_linker_0, # of connection points: 2
#     Edge 99, Type (0, 1), BuildingBlock: CIFDUS_clean_linker_0, # of connection points: 2
#     Edge 100, Type (0, 1), BuildingBlock: CIFDUS_clean_linker_0, # of connection points: 2
#     Edge 101, Type (0, 1), BuildingBlock: CIFDUS_clean_linker_0, # of connection points: 2
#     Edge 102, Type (0, 1), BuildingBlock: CIFDUS_clean_linker_0, # of connection points: 2
#     Edge 103, Type (0, 1), BuildingBlock: CIFDUS_clean_linker_0, # of connection points: 2
#     Edge 104, Type (0, 1), BuildingBlock: CIFDUS_clean_linker_0, # of connection points: 2
#     Edge 105, Type (0, 1), BuildingBlock: CIFDUS_clean_linker_0, # of connection points: 2
#     Edge 106, Type (0, 1), BuildingBlock: CIFDUS_clean_linker_0, # of connection points: 2
#     Edge 107, Type (0, 1), BuildingBlock: CIFDUS_clean_linker_0, # of connection points: 2
#     Edge 108, Type (0, 1), BuildingBlock: CIFDUS_clean_linker_0, # of connection points: 2
#     Edge 109, Type (0, 1), BuildingBlock: CIFDUS_clean_linker_0, # of connection points: 2
#     Edge 110, Type (0, 1), BuildingBlock: CIFDUS_clean_linker_0, # of connection points: 2
#     Edge 111, Type (0, 1), BuildingBlock: CIFDUS_clean_linker_0, # of connection points: 2
#     Edge 112, Type (0, 1), BuildingBlock: CIFDUS_clean_linker_0, # of connection points: 2
#     Edge 113, Type (0, 1), BuildingBlock: CIFDUS_clean_linker_0, # of connection points: 2
#     Edge 114, Type (0, 1), BuildingBlock: CIFDUS_clean_linker_0, # of connection points: 2
#     Edge 115, Type (0, 1), BuildingBlock: CIFDUS_clean_linker_0, # of connection points: 2
#     Edge 116, Type (0, 1), BuildingBlock: CIFDUS_clean_linker_0, # of connection points: 2
#     Edge 117, Type (0, 1), BuildingBlock: CIFDUS_clean_linker_0, # of connection points: 2
#     Edge 118, Type (0, 1), BuildingBlock: CIFDUS_clean_linker_0, # of connection points: 2
#     Edge 119, Type (0, 1), BuildingBlock: CIFDUS_clean_linker_0, # of connection points: 2
#     Edge 120, Type (0, 1), BuildingBlock: CIFDUS_clean_linker_0, # of connection points: 2
#     Edge 121, Type (0, 1), BuildingBlock: CIFDUS_clean_linker_0, # of connection points: 2
#     Edge 122, Type (0, 1), BuildingBlock: CIFDUS_clean_linker_0, # of connection points: 2
#     Edge 123, Type (0, 1), BuildingBlock: CIFDUS_clean_linker_0, # of connection points: 2
#     Edge 124, Type (0, 1), BuildingBlock: CIFDUS_clean_linker_0, # of connection points: 2
#     Edge 125, Type (0, 1), BuildingBlock: CIFDUS_clean_linker_0, # of connection points: 2
#     Edge 126, Type (0, 1), BuildingBlock: CIFDUS_clean_linker_0, # of connection points: 2
#     Edge 127, Type (0, 1), BuildingBlock: CIFDUS_clean_linker_0, # of connection points: 2
#     Edge 128, Type (0, 1), BuildingBlock: CIFDUS_clean_linker_0, # of connection points: 2
#     Edge 129, Type (0, 1), BuildingBlock: CIFDUS_clean_linker_0, # of connection points: 2
#     Edge 130, Type (0, 1), BuildingBlock: CIFDUS_clean_linker_0, # of connection points: 2
#     Edge 131, Type (0, 1), BuildingBlock: CIFDUS_clean_linker_0, # of connection points: 2
#     Edge 132, Type (0, 1), BuildingBlock: CIFDUS_clean_linker_0, # of connection points: 2
#     Edge 133, Type (0, 1), BuildingBlock: CIFDUS_clean_linker_0, # of connection points: 2
#     Edge 134, Type (0, 1), BuildingBlock: CIFDUS_clean_linker_0, # of connection points: 2
#     Edge 135, Type (0, 1), BuildingBlock: CIFDUS_clean_linker_0, # of connection points: 2
# Relax obj value: 0.145
# Max RMSD: 0.316
# Mean RMSD: 0.196
data_MOF--net-gar--node1-UXUYUI_clean_sbu_0--node2-KUMBUR_clean_sbu_0--edge1-CIFDUS_clean_linker_0
_symmetry_space_group_name_H-M    P1
_symmetry_Int_Tables_number       1
_symmetry_cell_setting            triclinic
loop_
_symmetry_equiv_pos_as_xyz
'x, y, z'
_cell_length_a     66.836904
_cell_length_b     62.549288
_cell_length_c     62.455463
_cell_angle_alpha  100.40456
_cell_angle_beta   93.327512
_cell_angle_gamma 102.32378
loop_
_atom_site_label
_atom_site_type_symbol
_atom_site_fract_x
_atom_site_fract_y
_atom_site_fract_z
_atom_type_partial_charge
Li0 Li 0.08358 0.30581 0.36294 0.0
Li1 Li 0.10259 0.33285 0.39327 0.0
Li2 Li 0.12124 0.31322 0.36772 0.0
Li3 Li 0.10024 0.29402 0.39405 0.0
C4 C 0.09479 0.34649 0.35103 0.0
N5 N 0.07557 0.37185 0.32841 0.0
C6 C 0.07754 0.35355 0.3586 0.0
C7 C 0.10231 0.35238 0.33198 0.0
C8 C 0.06802 0.36634 0.34693 0.0
C9 C 0.09237 0.36522 0.32077 0.0
C10 C 0.06572 0.31515 0.40984 0.0
C11 C 0.05684 0.31623 0.44688 0.0
N12 N 0.04132 0.32623 0.44246 0.0
C13 C 0.0495 0.32519 0.40562 0.0
C14 C 0.06928 0.31041 0.43059 0.0
C15 C 0.03742 0.33077 0.42235 0.0
C16 C 0.04123 0.2916 0.3512 0.0
N17 N 0.05931 0.29914 0.34316 0.0
C18 C 0.04149 0.30571 0.31163 0.0
C19 C 0.05974 0.3051 0.32328 0.0
C20 C 0.0227 0.29962 0.32035 0.0
C21 C 0.02259 0.29161 0.33994 0.0
H22 H 0.04134 0.28686 0.36701 0.0
H23 H 0.07427 0.31075 0.31708 0.0
C24 C 0.10914 0.3797 0.40095 0.0
N25 N 0.10361 0.36171 0.41052 0.0
C26 C 0.10672 0.40057 0.41117 0.0
C27 C 0.09568 0.3847 0.44224 0.0
C28 C 0.09787 0.36405 0.43119 0.0
C29 C 0.09941 0.40298 0.43179 0.0
H30 H 0.11484 0.37778 0.38507 0.0
H31 H 0.09465 0.34988 0.43902 0.0
C32 C 0.09984 0.27204 0.34056 0.0
N33 N 0.0974 0.24918 0.29796 0.0
C34 C 0.09409 0.24874 0.33577 0.0
C35 C 0.10431 0.28373 0.32371 0.0
C36 C 0.09296 0.23747 0.31412 0.0
C37 C 0.10299 0.27187 0.30228 0.0
C38 C 0.13643 0.33501 0.41665 0.0
C39 C 0.15063 0.35278 0.41152 0.0
C40 C 0.13301 0.33476 0.43848 0.0
C41 C 0.16114 0.3701 0.42836 0.0
C42 C 0.14384 0.35239 0.45485 0.0
N43 N 0.15755 0.36956 0.44949 0.0
C44 C 0.15379 0.33607 0.34836 0.0
C45 C 0.155 0.29864 0.34935 0.0
C46 C 0.1721 0.33927 0.33846 0.0
N47 N 0.14571 0.31604 0.35359 0.0
C48 C 0.17334 0.30109 0.33947 0.0
C49 C 0.18219 0.32168 0.33402 0.0
H50 H 0.14614 0.34968 0.35218 0.0
H51 H 0.14817 0.28291 0.3537 0.0
C52 C 0.07793 0.25704 0.40735 0.0
N53 N 0.09659 0.27159 0.41094 0.0
C54 C 0.07289 0.24134 0.42055 0.0
C55 C 0.10654 0.25568 0.44073 0.0
C56 C 0.11097 0.27109 0.42703 0.0
C57 C 0.08721 0.24066 0.43766 0.0
H58 H 0.06675 0.25812 0.39458 0.0
H59 H 0.12569 0.28292 0.42949 0.0
O60 O 0.1041 0.33357 0.36198 0.0
O61 O 0.07757 0.30931 0.39357 0.0
O62 O 0.10091 0.28326 0.36166 0.0
O63 O 0.12565 0.31818 0.40034 0.0
H64 H 0.07163 0.34921 0.37334 0.0
H65 H 0.11554 0.3469 0.32578 0.0
H66 H 0.05463 0.37186 0.35259 0.0
H67 H 0.09798 0.36984 0.30597 0.0
H68 H 0.05959 0.31288 0.46306 0.0
H69 H 0.04614 0.32854 0.38958 0.0
H70 H 0.08179 0.30283 0.43432 0.0
H71 H 0.02489 0.33862 0.41931 0.0
H72 H 0.04211 0.31177 0.29644 0.0
H73 H 0.00838 0.28686 0.34719 0.0
H74 H 0.1102 0.41457 0.40295 0.0
H75 H 0.09031 0.38618 0.45836 0.0
H76 H 0.09053 0.23947 0.34866 0.0
H77 H 0.10868 0.30177 0.32711 0.0
H78 H 0.08854 0.21943 0.31016 0.0
H79 H 0.10639 0.2807 0.28907 0.0
H80 H 0.15335 0.3533 0.39471 0.0
H81 H 0.12186 0.32129 0.44271 0.0
H82 H 0.17211 0.38402 0.42462 0.0
H83 H 0.14125 0.35249 0.4718 0.0
H84 H 0.1785 0.35545 0.33475 0.0
H85 H 0.18047 0.287 0.33603 0.0
H86 H 0.05772 0.2303 0.41781 0.0
H87 H 0.11808 0.25555 0.4536 0.0
Li88 Li 0.01112 0.79019 0.65121 0.0
Li89 Li 0.02939 0.77471 0.6789 0.0
Li90 Li 1.00688 0.75039 0.64777 0.0
Li91 Li 0.99158 0.76968 0.67714 0.0
C92 C 0.03945 0.76579 0.62781 0.0
N93 N 0.05231 0.74948 0.5881 0.0
C94 C 0.05658 0.75629 0.62716 0.0
C95 C 0.0289 0.76707 0.60825 0.0
C96 C 0.06282 0.7481 0.60692 0.0
C97 C 0.03565 0.75874 0.58835 0.0
C98 C 0.01539 0.80803 0.70613 0.0
C99 C 0.01523 0.80403 0.7438 0.0
N100 N 0.02003 0.82664 0.75023 0.0
C101 C 0.02031 0.83121 0.71309 0.0
C102 C 0.01283 0.7943 0.72157 0.0
C103 C 0.02259 0.8403 0.73547 0.0
C104 C 0.99802 0.8167 0.62322 0.0
N105 N 0.01441 0.81307 0.63477 0.0
C106 C 0.03785 0.83729 0.61743 0.0
C107 C 0.03402 0.8233 0.63249 0.0
C108 C 0.0213 0.84071 0.60456 0.0
C109 C 1.00114 0.83056 0.60793 0.0
H110 H 0.9826 0.80816 0.62528 0.0
H111 H 0.04674 0.81972 0.64163 0.0
C112 C 0.06194 0.75792 0.6886 0.0
N113 N 0.05435 0.77615 0.69552 0.0
C114 C 0.08065 0.75603 0.69808 0.0
C115 C 0.08322 0.7915 0.72239 0.0
C116 C 0.06451 0.7929 0.71204 0.0
C117 C 0.09158 0.77285 0.71538 0.0
H118 H 0.05343 0.74487 0.67547 0.0
H119 H 0.05819 0.80732 0.71717 0.0
C120 C 0.96834 0.75346 0.63216 0.0
N121 N 0.93451 0.72585 0.6061 0.0
C122 C 0.9554 0.7368 0.64032 0.0
C123 C 0.96396 0.75624 0.61081 0.0
C124 C 0.9384 0.72298 0.62688 0.0
C125 C 0.94682 0.74205 0.59786 0.0
C126 C 1.00396 0.72976 0.6882 0.0
C127 C 0.98846 0.71111 0.67855 0.0
C128 C 0.01488 0.72991 0.70801 0.0
C129 C 0.98401 0.69298 0.68904 0.0
C130 C 0.00996 0.71146 0.71799 0.0
N131 N 0.99475 0.69354 0.70838 0.0
C132 C 0.01707 0.71021 0.63666 0.0
C133 C 0.99787 0.71792 0.60702 0.0
C134 C 0.02013 0.69096 0.62369 0.0
N135 N 1.00608 0.72322 0.62826 0.0
C136 C 1.00092 0.69891 0.59322 0.0
C137 C 0.01253 0.68541 0.6015 0.0
H138 H 0.02413 0.71522 0.65331 0.0
H139 H 0.98995 0.72898 0.60043 0.0
C140 C 0.95423 0.77937 0.68915 0.0
N141 N 0.96793 0.76707 0.69327 0.0
C142 C 0.93546 0.77644 0.69822 0.0
C143 C 0.94523 0.74828 0.71573 0.0
C144 C 0.964 0.75215 0.70674 0.0
C145 C 0.93045 0.76025 0.71128 0.0
H146 H 0.95774 0.79117 0.67842 0.0
H147 H 0.97513 0.74281 0.71024 0.0
O148 O 0.0326 0.77316 0.64743 0.0
O149 O 0.0133 0.79894 0.68429 0.0
O150 O 0.98502 0.76724 0.64506 0.0
O151 O 0.00853 0.74778 0.67831 0.0
H152 H 0.06497 0.75517 0.64208 0.0
H153 H 0.01537 0.77394 0.60838 0.0
H154 H 0.076 0.74062 0.60618 0.0
H155 H 0.02754 0.75948 0.5731 0.0
H156 H 0.01331 0.79361 0.75593 0.0
H157 H 0.02239 0.84204 0.7013 0.0
H158 H 0.00911 0.77636 0.71649 0.0
H159 H 0.02642 0.85822 0.7411 0.0
H160 H 0.05363 0.8445 0.61518 0.0
H161 H 0.98794 0.83297 0.59855 0.0
H162 H 0.08655 0.74162 0.69159 0.0
H163 H 0.09094 0.80478 0.73577 0.0
H164 H 0.95839 0.73458 0.65686 0.0
H165 H 0.97385 0.769 0.60419 0.0
H166 H 0.92829 0.70999 0.63299 0.0
H167 H 0.94334 0.7439 0.58126 0.0
H168 H 0.98004 0.71056 0.66308 0.0
H169 H 0.02696 0.74419 0.71569 0.0
H170 H 0.97204 0.67845 0.68178 0.0
H171 H 0.01824 0.71139 0.73338 0.0
H172 H 0.02888 0.68086 0.63089 0.0
H173 H 0.99508 0.69541 0.57612 0.0
H174 H 0.92499 0.78672 0.69487 0.0
H175 H 0.94223 0.73559 0.72557 0.0
Li176 Li 0.59179 0.8189 0.86365 0.0
Li177 Li 0.61417 0.84302 0.89285 0.0
Li178 Li 0.62892 0.82157 0.86647 0.0
Li179 Li 0.60782 0.80381 0.8932 0.0
C180 C 0.61412 0.84674 0.84015 0.0
N181 N 0.61413 0.85044 0.7967 0.0
C182 C 0.61633 0.86766 0.8344 0.0
C183 C 0.61192 0.82772 0.82375 0.0
C184 C 0.61629 0.86918 0.81236 0.0
C185 C 0.61197 0.82993 0.8019 0.0
C186 C 0.5724 0.83278 0.90111 0.0
C187 C 0.5431 0.83476 0.92154 0.0
N188 N 0.54088 0.85308 0.91359 0.0
C189 C 0.56985 0.85165 0.89318 0.0
C190 C 0.55897 0.82429 0.91545 0.0
C191 C 0.55382 0.86167 0.89968 0.0
C192 C 0.55116 0.79706 0.8451 0.0
N193 N 0.56641 0.81569 0.84658 0.0
C194 C 0.54342 0.83395 0.83025 0.0
C195 C 0.56293 0.83384 0.83916 0.0
C196 C 0.52715 0.81531 0.82915 0.0
C197 C 0.53125 0.7965 0.83635 0.0
H198 H 0.55424 0.78308 0.85165 0.0
H199 H 0.5749 0.84886 0.84143 0.0
C200 C 0.6212 0.88935 0.90204 0.0
N201 N 0.61695 0.87096 0.91117 0.0
C202 C 0.61844 0.90967 0.91331 0.0
C203 C 0.60868 0.89199 0.94379 0.0
C204 C 0.61123 0.87192 0.93177 0.0
C205 C 0.61162 0.91088 0.93418 0.0
H206 H 0.62554 0.88791 0.88556 0.0
H207 H 0.60743 0.85682 0.93828 0.0
C208 C 0.61107 0.77427 0.85175 0.0
N209 N 0.62146 0.73482 0.83406 0.0
C210 C 0.62316 0.76464 0.86447 0.0
C211 C 0.60405 0.76371 0.83013 0.0
C212 C 0.6283 0.74472 0.85521 0.0
C213 C 0.60955 0.74382 0.82145 0.0
C214 C 0.64733 0.84099 0.91471 0.0
C215 C 0.66224 0.85802 0.90936 0.0
C216 C 0.64497 0.84028 0.93668 0.0
C217 C 0.67454 0.87412 0.92612 0.0
C218 C 0.65758 0.85669 0.95296 0.0
N219 N 0.67197 0.87313 0.94739 0.0
C220 C 0.66224 0.84314 0.847 0.0
C221 C 0.66275 0.80562 0.84818 0.0
C222 C 0.68114 0.84631 0.83824 0.0
N223 N 0.65338 0.82303 0.85172 0.0
C224 C 0.68178 0.80812 0.83971 0.0
C225 C 0.69126 0.82876 0.83488 0.0
H226 H 0.6551 0.85711 0.85085 0.0
H227 H 0.65588 0.79002 0.85257 0.0
C228 C 0.58249 0.77125 0.91057 0.0
N229 N 0.60241 0.78221 0.91104 0.0
C230 C 0.57684 0.75717 0.92522 0.0
C231 C 0.61247 0.76544 0.94014 0.0
C232 C 0.61743 0.77935 0.92515 0.0
C233 C 0.59186 0.75444 0.94056 0.0
H234 H 0.5709 0.77395 0.89917 0.0
H235 H 0.63316 0.78834 0.92515 0.0
O236 O 0.61413 0.84515 0.86176 0.0
O237 O 0.58813 0.82282 0.89521 0.0
O238 O 0.60549 0.79353 0.86057 0.0
O239 O 0.63497 0.82526 0.8985 0.0
H240 H 0.61798 0.88259 0.84682 0.0
H241 H 0.61029 0.81144 0.82775 0.0
H242 H 0.61796 0.88526 0.80771 0.0
H243 H 0.6103 0.81533 0.78907 0.0
H244 H 0.53258 0.82836 0.93262 0.0
H245 H 0.58026 0.85861 0.8823 0.0
H246 H 0.56081 0.80978 0.92186 0.0
H247 H 0.55171 0.8763 0.8937 0.0
H248 H 0.54088 0.84905 0.82549 0.0
H249 H 0.5191 0.78179 0.8358 0.0
H250 H 0.62084 0.92404 0.90555 0.0
H251 H 0.60317 0.8924 0.9598 0.0
H252 H 0.62888 0.7727 0.88115 0.0
H253 H 0.5944 0.77077 0.82016 0.0
H254 H 0.63779 0.73718 0.8648 0.0
H255 H 0.60429 0.7355 0.80471 0.0
H256 H 0.66418 0.85891 0.89247 0.0
H257 H 0.63331 0.82743 0.94114 0.0
H258 H 0.68609 0.88743 0.9222 0.0
H259 H 0.65585 0.85642 0.97003 0.0
H260 H 0.68815 0.86254 0.83501 0.0
H261 H 0.68917 0.79417 0.83725 0.0
H262 H 0.56083 0.74872 0.9247 0.0
H263 H 0.62452 0.76397 0.95177 0.0
Li264 Li 0.51371 0.29004 0.15339 0.0
Li265 Li 0.53162 0.27214 0.18087 0.0
Li266 Li 0.5084 0.25004 0.1491 0.0
Li267 Li 0.49451 0.26943 0.17853 0.0
C268 C 0.54172 0.26339 0.13007 0.0
N269 N 0.55449 0.24445 0.09127 0.0
C270 C 0.55704 0.25129 0.13033 0.0
C271 C 0.53302 0.266 0.11007 0.0
C272 C 0.56322 0.24178 0.11053 0.0
C273 C 0.53968 0.2563 0.09064 0.0
C274 C 0.50895 0.30811 0.2034 0.0
C275 C 0.50119 0.31284 0.24092 0.0
N276 N 0.4901 0.32792 0.2372 0.0
C277 C 0.49757 0.3237 0.19993 0.0
C278 C 0.51089 0.30266 0.22403 0.0
C279 C 0.48812 0.33353 0.21726 0.0
C280 C 0.50029 0.31832 0.12819 0.0
N281 N 0.5171 0.31323 0.13749 0.0
C282 C 0.53941 0.33624 0.11806 0.0
C283 C 0.53643 0.32215 0.1331 0.0
C284 C 0.52229 0.34112 0.10745 0.0
C285 C 0.50255 0.33235 0.11303 0.0
H286 H 0.4851 0.31076 0.13188 0.0
H287 H 0.54945 0.31742 0.14048 0.0
C288 C 0.56198 0.2524 0.19202 0.0
N289 N 0.55574 0.27176 0.19763 0.0
C290 C 0.57989 0.24954 0.20241 0.0
C291 C 0.58436 0.28639 0.22486 0.0
C292 C 0.56633 0.28864 0.21379 0.0
C293 C 0.59139 0.2667 0.21894 0.0
H294 H 0.55296 0.23917 0.17937 0.0
H295 H 0.56088 0.30381 0.21794 0.0
C296 C 0.47122 0.25579 0.13247 0.0
N297 N 0.4383 0.23164 0.10291 0.0
C298 C 0.45578 0.24009 0.13892 0.0
C299 C 0.46973 0.25953 0.11109 0.0
C300 C 0.43931 0.22796 0.12371 0.0
C301 C 0.45303 0.24706 0.09635 0.0
C302 C 0.50244 0.22764 0.18774 0.0
C303 C 0.48518 0.21156 0.1772 0.0
C304 C 0.51237 0.22464 0.20693 0.0
C305 C 0.47799 0.19281 0.1862 0.0
C306 C 0.50469 0.20567 0.21541 0.0
N307 N 0.48779 0.19029 0.20497 0.0
C308 C 0.51671 0.20926 0.13815 0.0
C309 C 0.49961 0.21796 0.10766 0.0
C310 C 0.51961 0.18983 0.1255 0.0
N311 N 0.50684 0.22287 0.12922 0.0
C312 C 0.50268 0.19879 0.09412 0.0
C313 C 0.51323 0.18475 0.10303 0.0
H314 H 0.52325 0.21398 0.15496 0.0
H315 H 0.49262 0.22946 0.10065 0.0
C316 C 0.45678 0.27862 0.19041 0.0
N317 N 0.47136 0.26762 0.19525 0.0
C318 C 0.43868 0.27621 0.20071 0.0
C319 C 0.45065 0.25068 0.22028 0.0
C320 C 0.46894 0.25458 0.21052 0.0
C321 C 0.43495 0.26139 0.21538 0.0
H322 H 0.45918 0.28914 0.17839 0.0
H323 H 0.48098 0.24678 0.21499 0.0
O324 O 0.53484 0.27211 0.14921 0.0
O325 O 0.51774 0.29778 0.18651 0.0
O326 O 0.48735 0.26804 0.14716 0.0
O327 O 0.50978 0.24619 0.1793 0.0
H328 H 0.56399 0.24913 0.1456 0.0
H329 H 0.52094 0.27502 0.10951 0.0
H330 H 0.57495 0.23223 0.11049 0.0
H331 H 0.53295 0.25805 0.07505 0.0
H332 H 0.50242 0.30869 0.25695 0.0
H333 H 0.49587 0.32796 0.18398 0.0
H334 H 0.51955 0.29047 0.22685 0.0
H335 H 0.47915 0.34554 0.21482 0.0
H336 H 0.55486 0.34239 0.11404 0.0
H337 H 0.48897 0.33592 0.10545 0.0
H338 H 0.58464 0.23399 0.19764 0.0
H339 H 0.5929 0.29998 0.23754 0.0
H340 H 0.45638 0.2374 0.15554 0.0
H341 H 0.48148 0.27173 0.10585 0.0
H342 H 0.42729 0.21568 0.12847 0.0
H343 H 0.45178 0.24962 0.0797 0.0
H344 H 0.47757 0.21339 0.16213 0.0
H345 H 0.52573 0.23696 0.2153 0.0
H346 H 0.46464 0.18023 0.17822 0.0
H347 H 0.51214 0.20319 0.23031 0.0
H348 H 0.52746 0.17929 0.13319 0.0
H349 H 0.49778 0.1956 0.07678 0.0
H350 H 0.42785 0.28592 0.19695 0.0
H351 H 0.44896 0.23898 0.2312 0.0
Li352 Li 0.09618 0.83967 0.10823 0.0
Li353 Li 0.11741 0.82193 0.13683 0.0
Li354 Li 0.09327 0.79725 0.10691 0.0
Li355 Li 0.07707 0.81743 0.13663 0.0
C356 C 0.12696 0.81044 0.08748 0.0
N357 N 0.14293 0.78674 0.05354 0.0
C358 C 0.1461 0.80533 0.09092 0.0
C359 C 0.11611 0.80384 0.0667 0.0
C360 C 0.15388 0.79325 0.07358 0.0
C361 C 0.12439 0.79177 0.04977 0.0
C362 C 0.10881 0.8626 0.15883 0.0
C363 C 0.11098 0.88128 0.19648 0.0
N364 N 0.12722 0.89711 0.19302 0.0
C365 C 0.12561 0.87897 0.15566 0.0
C366 C 0.10146 0.86369 0.17939 0.0
C367 C 0.13466 0.89633 0.17314 0.0
C368 C 0.09428 0.8866 0.11125 0.0
N369 N 0.09381 0.86802 0.09579 0.0
C370 C 0.08724 0.88913 0.06783 0.0
C371 C 0.09055 0.86924 0.0742 0.0
C372 C 0.08751 0.9086 0.08362 0.0
C373 C 0.09177 0.90679 0.10564 0.0
H374 H 0.09625 0.88586 0.1283 0.0
H375 H 0.09008 0.85468 0.06169 0.0
C376 C 0.15238 0.80526 0.15096 0.0
N377 N 0.14348 0.82304 0.15577 0.0
C378 C 0.16953 0.80333 0.16413 0.0
C379 C 0.16898 0.83846 0.1869 0.0
C380 C 0.1516 0.8395 0.17351 0.0
C381 C 0.17826 0.82001 0.18267 0.0
H382 H 0.14582 0.79207 0.13707 0.0
H383 H 0.14452 0.85342 0.1777 0.0
C384 C 0.05558 0.80335 0.08787 0.0
N385 N 0.02489 0.78151 0.05472 0.0
C386 C 0.03804 0.78878 0.09235 0.0
C387 C 0.05728 0.80711 0.0666 0.0
C388 C 0.02276 0.77783 0.07536 0.0
C389 C 0.04168 0.79582 0.05005 0.0
C390 C 0.08842 0.77463 0.14119 0.0
C391 C 0.06782 0.76353 0.13547 0.0
C392 C 0.10236 0.76334 0.14894 0.0
C393 C 0.0616 0.74113 0.137 0.0
C394 C 0.09555 0.74092 0.15025 0.0
N395 N 0.07549 0.73036 0.14425 0.0
C396 C 0.10699 0.75648 0.09578 0.0
C397 C 0.07432 0.75225 0.07697 0.0
C398 C 0.10591 0.73345 0.08956 0.0
N399 N 0.09109 0.76555 0.09013 0.0
C400 C 0.07279 0.72904 0.07001 0.0
C401 C 0.08847 0.71914 0.07686 0.0
H402 H 0.12013 0.76692 0.10638 0.0
H403 H 0.06161 0.75925 0.07261 0.0
C404 C 0.03626 0.82141 0.14521 0.0
N405 N 0.05354 0.81663 0.15396 0.0
C406 C 0.01844 0.81969 0.15621 0.0
C407 C 0.03663 0.80912 0.18563 0.0
C408 C 0.05401 0.81063 0.17386 0.0
C409 C 0.01839 0.81342 0.17673 0.0
H410 H 0.03619 0.82629 0.12945 0.0
H411 H 0.06784 0.8068 0.18052 0.0
O412 O 0.11888 0.82181 0.10438 0.0
O413 O 0.09969 0.84553 0.14191 0.0
O414 O 0.07072 0.81435 0.10429 0.0
O415 O 0.09489 0.79632 0.13889 0.0
H416 H 0.15491 0.81072 0.10678 0.0
H417 H 0.10137 0.80776 0.06373 0.0
H418 H 0.16863 0.78909 0.07604 0.0
H419 H 0.11605 0.78638 0.03364 0.0
H420 H 0.10545 0.88236 0.21248 0.0
H421 H 0.1316 0.87822 0.13986 0.0
H422 H 0.08854 0.8511 0.18212 0.0
H423 H 0.14764 0.90913 0.17093 0.0
H424 H 0.08409 0.88893 0.0506 0.0
H425 H 0.0932 0.92085 0.11896 0.0
H426 H 0.17544 0.78847 0.15997 0.0
H427 H 0.17498 0.85217 0.2005 0.0
H428 H 0.03612 0.786 0.10873 0.0
H429 H 0.07044 0.81869 0.0629 0.0
H430 H 0.00918 0.76643 0.0786 0.0
H431 H 0.04288 0.79851 0.0335 0.0
H432 H 0.05682 0.77209 0.12974 0.0
H433 H 0.11828 0.77168 0.15377 0.0
H434 H 0.04572 0.7323 0.13239 0.0
H435 H 0.10623 0.73193 0.156 0.0
H436 H 0.1184 0.72675 0.09536 0.0
H437 H 0.05892 0.71876 0.06045 0.0
H438 H 1.00485 0.82338 0.14878 0.0
H439 H 0.0373 0.80407 0.20131 0.0
Li440 Li 0.53025 0.7964 0.4443 0.0
Li441 Li 0.50395 0.76958 0.41448 0.0
Li442 Li 0.52649 0.75266 0.44176 0.0
Li443 Li 0.54266 0.77123 0.41234 0.0
C444 C 0.49714 0.77951 0.46643 0.0
N445 N 0.48137 0.79471 0.50464 0.0
C446 C 0.47931 0.78773 0.4656 0.0
C447 C 0.50695 0.77893 0.48661 0.0
C448 C 0.47157 0.79535 0.48513 0.0
C449 C 0.49874 0.78674 0.50577 0.0
C450 C 0.52424 0.80358 0.39402 0.0
C451 C 0.51885 0.79893 0.35481 0.0
N452 N 0.518 0.82075 0.3571 0.0
C453 C 0.52329 0.82594 0.39602 0.0
C454 C 0.52195 0.78992 0.3733 0.0
C455 C 0.52013 0.83432 0.37714 0.0
C456 C 0.55174 0.84232 0.45196 0.0
N457 N 0.53591 0.82894 0.45944 0.0
C458 C 0.52697 0.86197 0.47966 0.0
C459 C 0.5238 0.83844 0.47343 0.0
C460 C 0.54256 0.87615 0.4712 0.0
C461 C 0.55529 0.86576 0.45757 0.0
H462 H 0.56112 0.83479 0.44066 0.0
H463 H 0.51106 0.82794 0.47915 0.0
C464 C 0.46417 0.75192 0.38485 0.0
N465 N 0.4773 0.76999 0.39779 0.0
C466 C 0.44641 0.7543 0.37285 0.0
C467 C 0.45564 0.7937 0.38776 0.0
C468 C 0.47307 0.79057 0.39946 0.0
C469 C 0.44177 0.77549 0.37409 0.0
H470 H 0.46735 0.73555 0.38376 0.0
H471 H 0.48343 0.80482 0.40983 0.0
C472 C 0.56758 0.77478 0.45722 0.0
N473 N 0.59919 0.76774 0.48353 0.0
C474 C 0.57904 0.75948 0.44895 0.0
C475 C 0.57221 0.78661 0.47878 0.0
C476 C 0.59496 0.75612 0.46254 0.0
C477 C 0.58826 0.78279 0.49185 0.0
C478 C 0.52155 0.72707 0.39325 0.0
C479 C 0.53622 0.71504 0.39747 0.0
C480 C 0.5097 0.72143 0.37301 0.0
C481 C 0.53869 0.69741 0.38137 0.0
C482 C 0.51266 0.7037 0.35732 0.0
N483 N 0.52695 0.69215 0.3618 0.0
C484 C 0.5173 0.70486 0.44474 0.0
C485 C 0.54108 0.72596 0.47414 0.0
C486 C 0.51961 0.68477 0.45093 0.0
N487 N 0.5283 0.72521 0.45588 0.0
C488 C 0.54372 0.70613 0.48104 0.0
C489 C 0.5333 0.68486 0.46911 0.0
H490 H 0.50707 0.70402 0.4304 0.0
H491 H 0.54982 0.74193 0.48319 0.0
C492 C 0.58347 0.78675 0.40009 0.0
N493 N 0.56518 0.77183 0.39312 0.0
C494 C 0.59989 0.78817 0.38686 0.0
C495 C 0.57868 0.75846 0.35973 0.0
C496 C 0.56264 0.7579 0.37324 0.0
C497 C 0.59766 0.77399 0.36616 0.0
H498 H 0.58528 0.79783 0.41587 0.0
H499 H 0.5481 0.74639 0.36755 0.0
O500 O 0.50501 0.7721 0.44754 0.0
O501 O 0.52694 0.79496 0.41228 0.0
O502 O 0.55182 0.77814 0.44431 0.0
O503 O 0.51884 0.74434 0.4088 0.0
H504 H 0.4716 0.78827 0.45004 0.0
H505 H 0.5208 0.77261 0.48744 0.0
H506 H 0.45781 0.80181 0.48478 0.0
H507 H 0.50617 0.78646 0.52154 0.0
H508 H 0.51704 0.78855 0.33865 0.0
H509 H 0.52479 0.83666 0.41198 0.0
H510 H 0.5224 0.7725 0.37153 0.0
H511 H 0.51931 0.85158 0.37843 0.0
H512 H 0.51661 0.86895 0.49007 0.0
H513 H 0.56768 0.8757 0.45072 0.0
H514 H 0.43627 0.73956 0.36294 0.0
H515 H 0.45331 0.81048 0.38925 0.0
H516 H 0.57563 0.75026 0.43225 0.0
H517 H 0.56341 0.79851 0.48536 0.0
H518 H 0.60393 0.74426 0.45642 0.0
H519 H 0.592 0.79176 0.5086 0.0
H520 H 0.54565 0.71934 0.41298 0.0
H521 H 0.49856 0.73082 0.36933 0.0
H522 H 0.54996 0.68793 0.38441 0.0
H523 H 0.50363 0.69919 0.34156 0.0
H524 H 0.51081 0.66912 0.44118 0.0
H525 H 0.55451 0.7075 0.4951 0.0
H526 H 0.61397 0.80065 0.39265 0.0
H527 H 0.57605 0.74672 0.34428 0.0
Li528 Li 0.59497 0.3362 0.60575 0.0
Li529 Li 0.61675 0.32004 0.63323 0.0
Li530 Li 0.59369 0.29381 0.60361 0.0
Li531 Li 0.57783 0.31349 0.63422 0.0
C532 C 0.62164 0.30878 0.58051 0.0
N533 N 0.62739 0.28584 0.54006 0.0
C534 C 0.63701 0.29672 0.57858 0.0
C535 C 0.6092 0.30922 0.56189 0.0
C536 C 0.63967 0.28521 0.55798 0.0
C537 C 0.61236 0.29752 0.54158 0.0
C538 C 0.60911 0.3626 0.65149 0.0
C539 C 0.61526 0.39021 0.68492 0.0
N540 N 0.63085 0.40278 0.67642 0.0
C541 C 0.62514 0.37576 0.64304 0.0
C542 C 0.60405 0.36984 0.67255 0.0
C543 C 0.63597 0.39604 0.65592 0.0
C544 C 0.57678 0.37406 0.59854 0.0
N545 N 0.59165 0.36306 0.59187 0.0
C546 C 0.60112 0.38902 0.56755 0.0
C547 C 0.60378 0.37043 0.5766 0.0
C548 C 0.58581 0.40073 0.57401 0.0
C549 C 0.57364 0.39272 0.58994 0.0
H550 H 0.56716 0.36834 0.61066 0.0
H551 H 0.61571 0.36197 0.57138 0.0
C552 C 0.65462 0.30753 0.64563 0.0
N553 N 0.64303 0.32258 0.65216 0.0
C554 C 0.6721 0.30648 0.65884 0.0
C555 C 0.66549 0.33604 0.68586 0.0
C556 C 0.64826 0.33671 0.672 0.0
C557 C 0.67791 0.32074 0.67952 0.0
H558 H 0.65005 0.29584 0.63026 0.0
H559 H 0.63871 0.34811 0.67754 0.0
C560 C 0.55367 0.29636 0.58954 0.0
N561 N 0.51967 0.26839 0.56417 0.0
C562 C 0.54266 0.27793 0.59693 0.0
C563 C 0.54741 0.30063 0.56931 0.0
C564 C 0.5255 0.26398 0.58384 0.0
C565 C 0.53017 0.28627 0.5567 0.0
C566 C 0.59988 0.2873 0.65488 0.0
C567 C 0.60265 0.2661 0.65646 0.0
C568 C 0.60103 0.30338 0.6739 0.0
C569 C 0.60661 0.26137 0.67711 0.0
C570 C 0.60505 0.29801 0.69423 0.0
N571 N 0.60774 0.27729 0.6954 0.0
C572 C 0.60394 0.25097 0.5942 0.0
C573 C 0.57734 0.25243 0.5684 0.0
C574 C 0.60221 0.22815 0.58553 0.0
N575 N 0.59133 0.26271 0.58599 0.0
C576 C 0.57516 0.22958 0.55913 0.0
C577 C 0.58743 0.21679 0.56789 0.0
H578 H 0.61523 0.25927 0.60791 0.0
H579 H 0.56744 0.26171 0.56173 0.0
C580 C 0.54172 0.32488 0.65337 0.0
N581 N 0.55409 0.31005 0.65156 0.0
C582 C 0.52389 0.3213 0.66445 0.0
C583 C 0.53216 0.28766 0.67219 0.0
C584 C 0.54948 0.29163 0.66066 0.0
C585 C 0.51868 0.30228 0.67396 0.0
H586 H 0.54541 0.33929 0.64577 0.0
H587 H 0.559 0.27963 0.65869 0.0
O588 O 0.61813 0.3194 0.60058 0.0
O589 O 0.59848 0.34262 0.63925 0.0
O590 O 0.57059 0.3101 0.60199 0.0
O591 O 0.5964 0.29244 0.63482 0.0
H592 H 0.64671 0.29613 0.59282 0.0
H593 H 0.59707 0.31827 0.56317 0.0
H594 H 0.65146 0.27574 0.55625 0.0
H595 H 0.6028 0.29763 0.52704 0.0
H596 H 0.61157 0.39603 0.70128 0.0
H597 H 0.62921 0.37031 0.62674 0.0
H598 H 0.59164 0.3598 0.67928 0.0
H599 H 0.64845 0.40641 0.64963 0.0
H600 H 0.61135 0.39431 0.55575 0.0
H601 H 0.56144 0.40055 0.59559 0.0
H602 H 0.68094 0.29449 0.6527 0.0
H603 H 0.66859 0.34712 0.7017 0.0
H604 H 0.54746 0.27432 0.61248 0.0
H605 H 0.55583 0.31485 0.5634 0.0
H606 H 0.51686 0.24959 0.58929 0.0
H607 H 0.52515 0.28932 0.54098 0.0
H608 H 0.60167 0.25339 0.64195 0.0
H609 H 0.59892 0.31986 0.67297 0.0
H610 H 0.6088 0.24503 0.67858 0.0
H611 H 0.60605 0.31033 0.70907 0.0
H612 H 0.61244 0.2195 0.59272 0.0
H613 H 0.56344 0.22187 0.54564 0.0
H614 H 0.51406 0.33303 0.665 0.0
H615 H 0.52943 0.27304 0.67955 0.0
Li616 Li 0.02818 0.29877 0.9449 0.0
Li617 Li 1.00329 0.27191 0.91544 0.0
Li618 Li 0.02543 0.25556 0.94306 0.0
Li619 Li 0.04214 0.27444 0.91322 0.0
C620 C 0.99574 0.28436 0.96645 0.0
N621 N 0.98029 0.30482 1.00275 0.0
C622 C 0.98347 0.29953 0.96436 0.0
C623 C 1.00033 0.27977 0.98701 0.0
C624 C 0.97577 0.30966 0.98291 0.0
C625 C 0.99231 0.29022 1.00517 0.0
C626 C 0.01817 0.30892 0.89873 0.0
C627 C 0.01599 0.3192 0.86345 0.0
N628 N 1.00196 0.33121 0.87017 0.0
C629 C 1.00384 0.32145 0.90536 0.0
C630 C 0.02439 0.30783 0.87767 0.0
C631 C 0.99578 0.33256 0.89065 0.0
C632 C 0.04103 0.34665 0.94892 0.0
N633 N 0.03334 0.33115 0.96096 0.0
C634 C 0.03155 0.36122 0.99075 0.0
C635 C 0.02894 0.33821 0.98179 0.0
C636 C 0.03891 0.37759 0.9784 0.0
C637 C 0.04383 0.36971 0.9572 0.0
H638 H 0.04494 0.34116 0.93261 0.0
H639 H 0.02316 0.32608 0.99154 0.0
C640 C 0.95881 0.27075 0.90814 0.0
N641 N 0.97605 0.26993 0.89762 0.0
C642 C 0.94044 0.27268 0.89705 0.0
C643 C 0.95706 0.27176 0.86395 0.0
C644 C 0.9752 0.27007 0.87572 0.0
C645 C 0.93928 0.27356 0.87459 0.0
H646 H 0.95932 0.27038 0.92539 0.0
H647 H 0.98881 0.26967 0.86731 0.0
C648 C 0.06314 0.27943 0.96277 0.0
N649 N 0.0879 0.2744 0.99758 0.0
C650 C 0.07936 0.26883 0.95899 0.0
C651 C 0.05954 0.28759 0.98419 0.0
C652 C 0.09169 0.2664 0.97683 0.0
C653 C 0.07224 0.28487 1.00158 0.0
C654 C 0.01591 0.23188 0.89103 0.0
C655 C 0.01258 0.20914 0.89138 0.0
C656 C 0.01622 0.23893 0.87104 0.0
C657 C 0.00944 0.19373 0.8716 0.0
C658 C 0.01301 0.22302 0.85162 0.0
N659 N 0.00971 0.20093 0.8523 0.0
C660 C 0.01705 0.2213 0.97287 0.0
C661 C 0.04396 0.21805 0.95077 0.0
C662 C 0.02019 0.20294 0.98208 0.0
N663 N 0.02897 0.22886 0.95752 0.0
C664 C 0.04758 0.19962 0.95951 0.0
C665 C 0.03573 0.19155 0.97563 0.0
H666 H 1.00482 0.2293 0.97799 0.0
H667 H 0.05329 0.22369 0.9384 0.0
C668 C 0.07777 0.29454 0.89388 0.0
N669 N 0.06504 0.27464 0.89487 0.0
C670 C 0.09455 0.29536 0.88121 0.0
C671 C 0.08498 0.25523 0.87079 0.0
C672 C 0.06861 0.25515 0.88389 0.0
C673 C 0.09824 0.27553 0.86919 0.0
H674 H 0.07486 0.30985 0.90291 0.0
H675 H 0.05877 0.23943 0.88528 0.0
O676 O 1.00333 0.27417 0.94848 0.0
O677 O 0.02593 0.29759 0.91274 0.0
O678 O 0.05058 0.28145 0.94559 0.0
O679 O 0.01924 0.2472 0.9102 0.0
H680 H 0.98008 0.30361 0.94865 0.0
H681 H 0.01014 0.26843 0.98898 0.0
H682 H 0.96627 0.32144 0.98154 0.0
H683 H 0.99573 0.28681 0.02119 0.0
H684 H 0.02059 0.31845 0.84706 0.0
H685 H 0.9989 0.32245 0.92163 0.0
H686 H 0.0355 0.2982 0.87234 0.0
H687 H 0.9846 0.34223 0.8955 0.0
H688 H 0.02743 0.36605 0.00714 0.0
H689 H 0.05006 0.38127 0.94699 0.0
H690 H 0.92723 0.27358 0.90613 0.0
H691 H 0.95728 0.27252 0.84678 0.0
H692 H 0.08227 0.2624 0.94246 0.0
H693 H 0.04703 0.29584 0.98732 0.0
H694 H 0.10425 0.25813 0.97418 0.0
H695 H 0.06962 0.29103 0.01827 0.0
H696 H 0.01243 0.20346 0.90676 0.0
H697 H 0.01926 0.25652 0.87058 0.0
H698 H 1.00682 0.17605 0.87159 0.0
H699 H 0.01325 0.22823 0.83602 0.0
H700 H 0.01012 0.19753 0.99396 0.0
H701 H 0.05988 0.19201 0.95378 0.0
H702 H 0.10424 0.3114 0.88042 0.0
H703 H 0.08731 0.23948 0.86207 0.0
Li704 Li 0.42725 0.05594 0.33114 0.0
Li705 Li 0.40125 0.028 0.30517 0.0
Li706 Li 0.43034 0.05371 0.29181 0.0
Li707 Li 0.403 0.06688 0.30825 0.0
C708 C 0.44287 0.01505 0.30807 0.0
N709 N 0.46625 0.98324 0.30527 0.0
C710 C 0.43509 0.99435 0.31358 0.0
C711 C 0.46271 0.01958 0.30139 0.0
C712 C 0.44709 0.9785 0.31199 0.0
C713 C 0.47423 1.00329 0.3 0.0
C714 C 0.39035 0.03844 0.3479 0.0
C715 C 0.36763 0.03146 0.37573 0.0
N716 N 0.37806 0.01644 0.38116 0.0
C717 C 0.40083 0.02297 0.35376 0.0
C718 C 0.37362 0.04277 0.35896 0.0
C719 C 0.3944 0.01201 0.37061 0.0
C720 C 0.44625 0.08089 0.37273 0.0
N721 N 0.44359 0.06121 0.35825 0.0
C722 C 0.46783 0.04925 0.38009 0.0
C723 C 0.45388 0.04543 0.36174 0.0
C724 C 0.47121 0.06949 0.39513 0.0
C725 C 0.46003 0.08536 0.39157 0.0
H726 H 0.43802 0.09325 0.36938 0.0
H727 H 0.4515 0.02992 0.3502 0.0
C728 C 0.39328 0.9862 0.28085 0.0
N729 N 0.38626 0.99815 0.29798 0.0
C730 C 0.3869 0.96308 0.27593 0.0
C731 C 0.36451 0.96511 0.30497 0.0
C732 C 0.37156 0.98831 0.30955 0.0
C733 C 0.37287 0.95231 0.28852 0.0
H734 H 0.40486 0.9946 0.27192 0.0
H735 H 0.36598 0.99826 0.32287 0.0
C736 C 0.45256 0.09325 0.31949 0.0
N737 N 0.49268 0.11793 0.32884 0.0
C738 C 0.457 0.11629 0.32037 0.0
C739 C 0.46852 0.08283 0.32351 0.0
C740 C 0.47739 0.12846 0.32507 0.0
C741 C 0.4887 0.09556 0.32819 0.0
C742 C 0.38544 0.04755 0.26816 0.0
C743 C 0.38958 0.06252 0.25401 0.0
C744 C 0.36514 0.03662 0.26949 0.0
C745 C 0.37322 0.06665 0.24167 0.0
C746 C 0.34921 0.04117 0.25683 0.0
N747 N 0.35355 0.056 0.24334 0.0
C748 C 0.4462 0.03324 0.25644 0.0
C749 C 0.46319 0.07138 0.26795 0.0
C750 C 0.46049 0.02993 0.24159 0.0
N751 N 0.4482 0.05349 0.26969 0.0
C752 C 0.47789 0.06882 0.25335 0.0
C753 C 0.4769 0.04773 0.24034 0.0
H754 H 0.43397 0.01941 0.25815 0.0
H755 H 0.46418 0.08744 0.27829 0.0
C756 C 0.36611 0.08151 0.30723 0.0
N757 N 0.38654 0.08702 0.30494 0.0
C758 C 0.35296 0.09344 0.2992 0.0
C759 C 0.38247 0.1173 0.28816 0.0
C760 C 0.39499 0.10485 0.29626 0.0
C761 C 0.3611 0.11113 0.28891 0.0
H762 H 0.35988 0.06692 0.31384 0.0
H763 H 0.41123 0.10832 0.29413 0.0
O764 O 0.43121 0.03079 0.30938 0.0
O765 O 0.39632 0.04946 0.33149 0.0
O766 O 0.43262 0.0812 0.3149 0.0
O767 O 0.40116 0.04385 0.28092 0.0
H768 H 0.41997 0.99047 0.31913 0.0
H769 H 0.46925 0.03545 0.29721 0.0
H770 H 0.44118 0.96242 0.31612 0.0
H771 H 0.48953 1.00659 0.29474 0.0
H772 H 0.3547 0.03463 0.38442 0.0
H773 H 0.41368 0.01938 0.34532 0.0
H774 H 0.36534 0.05473 0.35461 0.0
H775 H 0.40238 0.99996 0.37528 0.0
H776 H 0.47583 0.03639 0.38254 0.0
H777 H 0.46227 0.10115 0.40293 0.0
H778 H 0.39345 0.95363 0.26297 0.0
H779 H 0.35357 0.9572 0.31491 0.0
H780 H 0.44483 0.12468 0.31743 0.0
H781 H 0.46538 0.06513 0.32314 0.0
H782 H 0.48104 0.14629 0.32574 0.0
H783 H 0.50118 0.08767 0.33132 0.0
H784 H 0.40525 0.0711 0.25285 0.0
H785 H 0.36171 0.02503 0.28043 0.0
H786 H 0.37615 0.07839 0.23082 0.0
H787 H 0.3334 0.03301 0.25783 0.0
H788 H 0.45892 0.01354 0.23148 0.0
H789 H 0.4903 0.08298 0.25285 0.0
H790 H 0.33656 0.08829 0.30014 0.0
H791 H 0.38928 0.1306 0.28004 0.0
Li792 Li 0.30222 0.2128 0.53526 0.0
Li793 Li 0.31705 0.18324 0.51131 0.0
Li794 Li 0.30223 0.20896 0.49446 0.0
Li795 Li 0.27849 0.17964 0.50756 0.0
C796 C 0.34339 0.22699 0.5093 0.0
N797 N 0.37703 0.24845 0.49157 0.0
C798 C 0.35032 0.21602 0.49065 0.0
C799 C 0.35354 0.24885 0.51896 0.0
C800 C 0.36738 0.22716 0.48194 0.0
C801 C 0.37053 0.25942 0.50974 0.0
C802 C 0.30105 0.16976 0.55058 0.0
C803 C 0.29365 0.13889 0.56932 0.0
N804 N 0.30853 0.15022 0.58563 0.0
C805 C 0.3162 0.18112 0.56758 0.0
C806 C 0.2896 0.14851 0.55149 0.0
C807 C 0.31978 0.17095 0.58513 0.0
C808 C 0.28598 0.21907 0.57567 0.0
N809 N 0.30227 0.22839 0.56568 0.0
C810 C 0.31745 0.25224 0.60009 0.0
C811 C 0.31774 0.24502 0.57736 0.0
C812 C 0.30128 0.24199 0.61095 0.0
C813 C 0.28523 0.22553 0.59822 0.0
H814 H 0.27396 0.20574 0.56622 0.0
H815 H 0.33075 0.25204 0.5693 0.0
C816 C 0.34186 0.15337 0.49257 0.0
N817 N 0.33891 0.16656 0.51146 0.0
C818 C 0.3561 0.1399 0.4925 0.0
C819 C 0.36555 0.155 0.53094 0.0
C820 C 0.35094 0.16808 0.5303 0.0
C821 C 0.36793 0.14021 0.51195 0.0
H822 H 0.33311 0.1531 0.47744 0.0
H823 H 0.34916 0.17932 0.54496 0.0
C824 C 0.27183 0.22715 0.5032 0.0
N825 N 0.25911 0.2573 0.48141 0.0
C826 C 0.2568 0.2196 0.48537 0.0
C827 C 0.28037 0.24998 0.51004 0.0
C828 C 0.25058 0.23513 0.47454 0.0
C829 C 0.27373 0.26497 0.49878 0.0
C830 C 0.2935 0.15411 0.47405 0.0
C831 C 0.29274 0.14808 0.4513 0.0
C832 C 0.29041 0.13751 0.48657 0.0
C833 C 0.28887 0.12549 0.44146 0.0
C834 C 0.28658 0.11512 0.47613 0.0
N835 N 0.28589 0.10962 0.45397 0.0
C836 C 0.31601 0.24535 0.47008 0.0
C837 C 0.29375 0.21246 0.44993 0.0
C838 C 0.31757 0.25473 0.45119 0.0
N839 N 0.30437 0.22441 0.46917 0.0
C840 C 0.2948 0.2212 0.43072 0.0
C841 C 0.30697 0.24264 0.43096 0.0
H842 H 0.32425 0.25483 0.48543 0.0
H843 H 0.28429 0.19601 0.44947 0.0
C844 C 0.24293 0.15711 0.5235 0.0
N845 N 0.25154 0.15971 0.50467 0.0
C846 C 0.22338 0.14326 0.52292 0.0
C847 C 0.22165 0.13502 0.4835 0.0
C848 C 0.24131 0.14903 0.48485 0.0
C849 C 0.2123 0.13201 0.50272 0.0
H850 H 0.25128 0.16586 0.53906 0.0
H851 H 0.24833 0.15152 0.47005 0.0
O852 O 0.32645 0.21659 0.51779 0.0
O853 O 0.29696 0.17971 0.53354 0.0
O854 O 0.27871 0.21219 0.51344 0.0
O855 O 0.29711 0.17616 0.4839 0.0
H856 H 0.34245 0.19919 0.48284 0.0
H857 H 0.34823 0.2576 0.53333 0.0
H858 H 0.37288 0.21892 0.46746 0.0
H859 H 0.37851 0.27637 0.51699 0.0
H860 H 0.28492 0.12244 0.57021 0.0
H861 H 0.32522 0.19757 0.56716 0.0
H862 H 0.27764 0.13953 0.53864 0.0
H863 H 0.33151 0.17955 0.59836 0.0
H864 H 0.33028 0.26479 0.60926 0.0
H865 H 0.27246 0.21713 0.60581 0.0
H866 H 0.35778 0.12924 0.47731 0.0
H867 H 0.37441 0.15595 0.5463 0.0
H868 H 0.25022 0.20192 0.47981 0.0
H869 H 0.29218 0.25599 0.52372 0.0
H870 H 0.23904 0.22955 0.46062 0.0
H871 H 0.28026 0.2827 0.50379 0.0
H872 H 0.2952 0.16069 0.44134 0.0
H873 H 0.29107 0.14186 0.50415 0.0
H874 H 0.28826 0.12059 0.42387 0.0
H875 H 0.28418 0.10212 0.48564 0.0
H876 H 0.32732 0.27121 0.45244 0.0
H877 H 0.2859 0.21126 0.41586 0.0
H878 H 0.2171 0.1413 0.53822 0.0
H879 H 0.2137 0.127 0.46754 0.0
Li880 Li 0.19667 0.0438 0.77582 0.0
Li881 Li 0.16716 0.01993 0.79488 0.0
Li882 Li 0.19413 0.99723 0.77139 0.0
Li883 Li 0.16594 0.01697 0.74877 0.0
C884 C 0.21384 0.03328 0.81536 0.0
N885 N 0.24476 0.05326 0.8487 0.0
C886 C 0.21154 0.0513 0.8311 0.0
C887 C 0.23186 0.02543 0.81651 0.0
C888 C 0.22734 0.06117 0.84785 0.0
C889 C 0.24732 0.03576 0.83351 0.0
C890 C 0.15873 0.06095 0.77831 0.0
C891 C 0.13577 0.08316 0.76809 0.0
N892 N 0.14367 0.09914 0.78617 0.0
C893 C 0.16661 0.07754 0.7968 0.0
C894 C 0.14321 0.06373 0.76381 0.0
C895 C 0.15882 0.09676 0.80046 0.0
C896 C 0.20846 0.08643 0.76031 0.0
N897 N 0.21369 0.0767 0.77709 0.0
C898 C 0.23763 0.11213 0.79338 0.0
C899 C 0.22826 0.08935 0.79344 0.0
C900 C 0.23229 0.12276 0.77635 0.0
C901 C 0.21752 0.10894 0.75954 0.0
H902 H 0.19693 0.07671 0.74732 0.0
H903 H 0.23258 0.08204 0.8069 0.0
C904 C 0.16108 0.02472 0.84497 0.0
N905 N 0.15072 0.02137 0.8245 0.0
C906 C 0.15094 0.02639 0.86467 0.0
C907 C 0.11908 0.02067 0.84293 0.0
C908 C 0.12982 0.01943 0.82365 0.0
C909 C 0.12935 0.02425 0.86434 0.0
H910 H 0.1775 0.02605 0.84634 0.0
H911 H 0.12113 0.01691 0.80789 0.0
C912 C 0.20471 0.0159 0.72922 0.0
N913 N 0.21859 0.00887 0.68832 0.0
C914 C 0.19948 0.99465 0.71588 0.0
C915 C 0.21708 0.03356 0.72187 0.0
C916 C 0.20664 0.99144 0.69523 0.0
C917 C 0.22391 0.02967 0.7011 0.0
C918 C 0.14339 0.97689 0.76749 0.0
C919 C 0.143 0.95481 0.76909 0.0
C920 C 0.12495 0.98373 0.76516 0.0
C921 C 0.12404 0.93989 0.76836 0.0
C922 C 0.10631 0.9683 0.76452 0.0
N923 N 0.10625 0.94689 0.76612 0.0
C924 C 0.20404 0.95388 0.78462 0.0
C925 C 0.22623 0.96517 0.75925 0.0
C926 C 0.2135 0.93551 0.78609 0.0
N927 N 0.21022 0.96888 0.7714 0.0
C928 C 0.23623 0.9469 0.76035 0.0
C929 C 0.23034 0.93129 0.77417 0.0
H930 H 0.19151 0.95598 0.79441 0.0
H931 H 0.23167 0.9765 0.74855 0.0
C932 C 0.16127 0.03281 0.70537 0.0
N933 N 0.15006 0.01925 0.71749 0.0
C934 C 0.15306 0.03632 0.68496 0.0
C935 C 0.12102 0.0127 0.68882 0.0
C936 C 0.12994 0.00942 0.70928 0.0
C937 C 0.13253 0.02621 0.6757 0.0
H938 H 0.17692 0.04134 0.71153 0.0
H939 H 0.12046 0.99887 0.71851 0.0
O940 O 0.19856 0.02335 0.79887 0.0
O941 O 0.16605 0.04198 0.77446 0.0
O942 O 0.19765 0.01936 0.74935 0.0
O943 O 0.16173 0.9918 0.76822 0.0
H944 H 0.1977 0.0576 0.83038 0.0
H945 H 0.23385 0.01149 0.8044 0.0
H946 H 0.22577 0.07514 0.86014 0.0
H947 H 0.26134 0.02985 0.83465 0.0
H948 H 0.1237 0.08552 0.75706 0.0
H949 H 0.17866 0.07563 0.80812 0.0
H950 H 0.13689 0.05096 0.74948 0.0
H951 H 0.16481 0.10979 0.81467 0.0
H952 H 0.24867 0.12141 0.80699 0.0
H953 H 0.21282 0.11528 0.74553 0.0
H954 H 0.16012 0.02889 0.88015 0.0
H955 H 0.10261 0.0191 0.84088 0.0
H956 H 0.18994 0.98082 0.72141 0.0
H957 H 0.22134 0.05008 0.73206 0.0
H958 H 0.20269 0.97509 0.68468 0.0
H959 H 0.23344 0.04319 0.69515 0.0
H960 H 0.15718 0.94928 0.77082 0.0
H961 H 0.12505 1.0008 0.7639 0.0
H962 H 0.12348 0.92274 0.76957 0.0
H963 H 0.0919 0.97336 0.76275 0.0
H964 H 0.20715 0.92449 0.7967 0.0
H965 H 0.24886 0.94536 0.75054 0.0
H966 H 0.16303 0.04736 0.67657 0.0
H967 H 0.10522 1.00423 0.68316 0.0
Li968 Li 0.3106 0.96585 0.02793 0.0
Li969 Li 0.31855 0.93014 0.03416 0.0
Li970 Li 0.344 0.95726 0.02229 0.0
Li971 Li 0.31541 0.93608 0.99735 0.0
C972 C 0.34637 0.97248 0.06486 0.0
N973 N 0.37979 0.99589 0.09402 0.0
C974 C 0.35988 0.96116 0.07338 0.0
C975 C 0.34969 0.99564 0.07131 0.0
C976 C 0.37675 0.97332 0.08806 0.0
C977 C 0.36671 1.00718 0.08606 0.0
C978 C 0.27776 0.92097 0.02489 0.0
C979 C 0.25966 0.88436 0.02884 0.0
N980 N 0.2458 0.89367 0.04008 0.0
C981 C 0.26327 0.93015 0.0364 0.0
C982 C 0.27589 0.89787 0.02098 0.0
C983 C 0.24725 0.91608 0.04397 0.0
C984 C 0.28626 0.99548 0.02063 0.0
N985 N 0.29452 0.98666 0.03641 0.0
C986 C 0.27553 1.00365 0.06307 0.0
C987 C 0.28976 0.99071 0.0574 0.0
C988 C 0.26637 0.01258 0.04698 0.0
C989 C 0.27219 1.00875 0.02563 0.0
H990 H 0.29016 0.99163 1.00402 0.0
H991 H 0.29641 0.98315 0.06948 0.0
C992 C 0.32949 0.89597 0.05059 0.0
N993 N 0.31606 0.90954 0.05278 0.0
C994 C 0.32972 0.8808 0.06424 0.0
C995 C 0.30288 0.89455 0.08295 0.0
C996 C 0.30302 0.90936 0.06869 0.0
C997 C 0.31638 0.88008 0.0807 0.0
H998 H 0.34055 0.89746 0.03873 0.0
H999 H 0.29302 0.92093 0.0705 0.0
C1000 C 0.33988 0.98803 0.99921 0.0
N1001 N 0.36673 0.02626 0.99334 0.0
C1002 C 0.35284 0.987 0.98247 0.0
C1003 C 0.34046 1.00854 0.01286 0.0
C1004 C 0.36637 1.00649 0.97982 0.0
C1005 C 0.35414 0.02768 0.00963 0.0
C1006 C 0.34272 0.91138 0.99447 0.0
C1007 C 0.35435 0.92089 0.97924 0.0
C1008 C 0.33691 0.88812 0.99176 0.0
C1009 C 0.3599 0.90704 0.96154 0.0
C1010 C 0.34282 0.87483 0.97386 0.0
N1011 N 0.35407 0.88448 0.95923 0.0
C1012 C 0.38392 0.95144 0.02368 0.0
C1013 C 0.38385 0.98978 0.032 0.0
C1014 C 0.40525 0.95625 0.02532 0.0
N1015 N 0.37354 0.96802 0.02616 0.0
C1016 C 0.40541 0.9954 0.03484 0.0
C1017 C 0.41653 0.97848 0.03118 0.0
H1018 H 0.37573 0.93424 0.02052 0.0
H1019 H 0.37544 1.00277 0.03498 0.0
C1020 C 0.3 0.89875 0.96464 0.0
N1021 N 0.3071 0.9212 0.96808 0.0
C1022 C 0.30039 0.88565 0.94424 0.0
C1023 C 0.31194 0.91938 0.93037 0.0
C1024 C 0.31217 0.93179 0.95136 0.0
C1025 C 0.30726 0.89584 0.92684 0.0
H1026 H 0.29616 0.89079 0.97825 0.0
H1027 H 0.31761 0.94974 0.95458 0.0
O1028 O 0.33007 0.96095 0.0501 0.0
O1029 O 0.29352 0.93453 0.01731 0.0
O1030 O 0.32658 0.96911 1.00213 0.0
O1031 O 0.33691 0.92481 0.01177 0.0
H1032 H 0.3575 0.94323 0.06848 0.0
H1033 H 0.33932 1.00459 0.06487 0.0
H1034 H 0.38744 0.96483 0.09466 0.0
H1035 H 0.36956 0.02513 0.09111 0.0
H1036 H 0.25817 0.86649 0.02613 0.0
H1037 H 0.26429 0.94794 0.03936 0.0
H1038 H 0.28716 0.89047 0.01255 0.0
H1039 H 0.23595 0.92299 0.05293 0.0
H1040 H 0.27145 1.00632 0.07972 0.0
H1041 H 0.26526 0.01512 0.01273 0.0
H1042 H 0.34078 0.87037 0.06252 0.0
H1043 H 0.29255 0.89454 0.09568 0.0
H1044 H 0.35247 0.97135 0.97158 0.0
H1045 H 0.33068 0.00968 0.026 0.0
H1046 H 0.37655 1.00592 0.96699 0.0
H1047 H 0.35483 0.04363 0.02015 0.0
H1048 H 0.35899 0.9388 0.98107 0.0
H1049 H 0.3275 0.88033 1.00299 0.0
H1050 H 0.36881 0.91422 0.94961 0.0
H1051 H 0.33829 0.85683 0.97148 0.0
H1052 H 0.41261 0.94238 0.02182 0.0
H1053 H 0.41312 0.0128 0.04011 0.0
H1054 H 0.29682 0.86775 0.94291 0.0
H1055 H 0.31638 0.92824 0.91742 0.0
Li1056 Li 0.30647 0.40895 0.03837 0.0
Li1057 Li 0.32075 0.38253 0.05741 0.0
Li1058 Li 0.34503 0.41235 0.04204 0.0
Li1059 Li 0.32198 0.3796 0.01668 0.0
C1060 C 0.33157 0.43603 0.07927 0.0
N1061 N 0.34299 0.47701 0.10742 0.0
C1062 C 0.33694 0.43724 0.10149 0.0
C1063 C 0.33206 0.45561 0.07135 0.0
C1064 C 0.34263 0.45813 0.11547 0.0
C1065 C 0.33788 0.47618 0.08584 0.0
C1066 C 0.28225 0.36174 0.0415 0.0
C1067 C 0.26566 0.32484 0.04597 0.0
N1068 N 0.2528 0.33378 0.05916 0.0
C1069 C 0.26884 0.37058 0.05502 0.0
C1070 C 0.28064 0.3387 0.03686 0.0
C1071 C 0.25407 0.35616 0.06382 0.0
C1072 C 0.27172 0.42074 0.01851 0.0
N1073 N 0.28407 0.4247 0.03758 0.0
C1074 C 0.26402 0.44943 0.05471 0.0
C1075 C 0.28024 0.43846 0.05566 0.0
C1076 C 0.25155 0.44626 0.03496 0.0
C1077 C 0.25559 0.43159 0.01673 0.0
H1078 H 0.27414 0.40885 1.00466 0.0
H1079 H 0.28958 0.44079 0.07097 0.0
C1080 C 0.32706 0.35329 0.0887 0.0
N1081 N 0.31727 0.36916 0.08395 0.0
C1082 C 0.32535 0.3461 0.1088 0.0
C1083 C 0.30367 0.37169 0.11898 0.0
C1084 C 0.30562 0.37821 0.09869 0.0
C1085 C 0.31376 0.35555 0.12453 0.0
H1086 H 0.33672 0.34659 0.07723 0.0
H1087 H 0.29818 0.39103 0.09491 0.0
C1088 C 0.31976 0.42231 1.00039 0.0
N1089 N 0.30538 0.44311 0.96917 0.0
C1090 C 0.30683 0.40969 0.98199 0.0
C1091 C 0.32535 0.44552 1.00285 0.0
C1092 C 0.29974 0.4205 0.9664 0.0
C1093 C 0.31792 0.45573 0.98692 0.0
C1094 C 0.35101 0.36178 0.02882 0.0
C1095 C 0.36747 0.36511 0.01605 0.0
C1096 C 0.34046 0.34008 0.02935 0.0
C1097 C 0.37322 0.3466 1.00417 0.0
C1098 C 0.3467 0.32201 0.01727 0.0
N1099 N 0.36282 0.32562 1.00503 0.0
C1100 C 0.38865 0.4217 0.04885 0.0
C1101 C 0.37652 0.45333 0.04333 0.0
C1102 C 0.40903 0.43305 0.04825 0.0
N1103 N 0.37277 0.43163 0.0457 0.0
C1104 C 0.39675 0.46547 0.04301 0.0
C1105 C 0.41331 0.4551 0.04485 0.0
H1106 H 0.38549 0.40464 0.05117 0.0
H1107 H 0.36385 0.46113 0.04105 0.0
C1108 C 0.30692 0.34328 0.97773 0.0
N1109 N 0.32174 0.36179 0.98699 0.0
C1110 C 0.30661 0.33317 0.95558 0.0
C1111 C 0.33694 0.36098 0.95293 0.0
C1112 C 0.33666 0.37052 0.975 0.0
C1113 C 0.3216 0.34219 0.94264 0.0
H1114 H 0.29493 0.33674 0.98728 0.0
H1115 H 0.34815 0.3854 0.98247 0.0
O1116 O 0.32568 0.41572 0.06541 0.0
O1117 O 0.29707 0.37561 0.03309 0.0
O1118 O 0.32697 0.41203 0.01582 0.0
O1119 O 0.3447 0.37964 0.04006 0.0
H1120 H 0.33664 0.42221 0.10786 0.0
H1121 H 0.32777 0.45489 0.05423 0.0
H1122 H 0.34676 0.45934 0.13273 0.0
H1123 H 0.33827 0.49148 0.07993 0.0
H1124 H 0.26426 0.30697 0.04256 0.0
H1125 H 0.26995 0.38839 0.05884 0.0
H1126 H 0.29087 0.3316 0.02637 0.0
H1127 H 0.24364 0.36276 0.07439 0.0
H1128 H 0.26139 0.46042 0.06925 0.0
H1129 H 0.24605 0.4281 1.00133 0.0
H1130 H 0.33365 0.33384 0.1123 0.0
H1131 H 0.29438 0.37937 0.13031 0.0
H1132 H 0.30186 0.39179 0.97995 0.0
H1133 H 0.33525 0.45563 0.01693 0.0
H1134 H 0.28963 0.41091 0.95217 0.0
H1135 H 0.32211 0.47369 0.98869 0.0
H1136 H 0.37548 0.38177 0.01495 0.0
H1137 H 0.32744 0.33721 0.03879 0.0
H1138 H 0.38588 0.34893 0.99415 0.0
H1139 H 0.33866 0.30512 0.01753 0.0
H1140 H 0.42132 0.42449 0.05006 0.0
H1141 H 0.39933 0.48244 0.04034 0.0
H1142 H 0.29427 0.31893 0.9485 0.0
H1143 H 0.34904 0.36848 0.94398 0.0
Li1144 Li 0.81117 0.17934 0.04334 0.0
Li1145 Li 0.81971 0.14357 0.02672 0.0
Li1146 Li 0.80154 0.16377 0.00602 0.0
Li1147 Li 0.78351 0.1464 0.03216 0.0
C1148 C 0.84662 0.19012 0.02975 0.0
N1149 N 0.87971 0.22344 0.05048 0.0
C1150 C 0.86229 0.18493 0.04225 0.0
C1151 C 0.8478 0.21225 0.02775 0.0
C1152 C 0.87889 0.20202 0.0526 0.0
C1153 C 0.86464 0.22885 0.03837 0.0
C1154 C 0.79765 0.14292 0.07079 0.0
C1155 C 0.78312 0.11187 0.0873 0.0
N1156 N 0.7757 0.12588 0.10245 0.0
C1157 C 0.78977 0.157 0.08643 0.0
C1158 C 0.79422 0.12016 0.07113 0.0
C1159 C 0.77876 0.14807 0.10234 0.0
C1160 C 0.8085 0.22094 0.06792 0.0
N1161 N 0.81891 0.20438 0.06658 0.0
C1162 C 0.83299 0.21726 0.10379 0.0
C1163 C 0.83151 0.20268 0.08375 0.0
C1164 C 0.82144 0.23369 0.10599 0.0
C1165 C 0.80975 0.23608 0.08757 0.0
H1166 H 0.79799 0.22141 0.05433 0.0
H1167 H 0.8391 0.18892 0.08237 0.0
C1168 C 0.85017 0.12758 0.00675 0.0
N1169 N 0.8393 0.12596 0.02431 0.0
C1170 C 0.865 0.11522 1.00256 0.0
C1171 C 0.85745 0.09995 0.0349 0.0
C1172 C 0.84268 0.11266 0.03845 0.0
C1173 C 0.86882 0.10119 0.01674 0.0
H1174 H 0.84731 0.13859 0.99601 0.0
H1175 H 0.83408 0.11204 0.05252 0.0
C1176 C 0.77407 0.18696 0.01433 0.0
N1177 N 0.75324 0.20713 0.98722 0.0
C1178 C 0.75392 0.1767 1.00527 0.0
C1179 C 0.78362 0.20747 0.00952 0.0
C1180 C 0.74365 0.18719 0.99166 0.0
C1181 C 0.77284 0.21738 0.99577 0.0
C1182 C 0.78632 0.11974 0.98621 0.0
C1183 C 0.76516 0.11079 0.98145 0.0
C1184 C 0.79943 0.11693 0.96981 0.0
C1185 C 0.75744 0.09938 0.96024 0.0
C1186 C 0.79111 0.10544 0.94879 0.0
N1187 N 0.77046 0.09698 0.94449 0.0
C1188 C 0.81436 0.18473 0.97117 0.0
C1189 C 0.78042 0.16218 0.96492 0.0
C1190 C 0.81193 0.19166 0.95136 0.0
N1191 N 0.79858 0.17051 0.97766 0.0
C1192 C 0.7774 0.16844 0.94495 0.0
C1193 C 0.79317 0.18361 0.93813 0.0
H1194 H 0.82864 0.1911 0.98162 0.0
H1195 H 0.76795 0.15132 0.97058 0.0
C1196 C 0.7468 0.14871 0.04816 0.0
N1197 N 0.75767 0.13345 0.04055 0.0
C1198 C 0.72652 0.14191 0.05235 0.0
C1199 C 0.72978 0.10364 0.04389 0.0
C1200 C 0.74987 0.11125 0.03887 0.0
C1201 C 0.71737 0.11901 0.04987 0.0
H1202 H 0.75362 0.16631 0.05 0.0
H1203 H 0.7591 0.09948 0.03326 0.0
O1204 O 0.82998 0.17373 0.01994 0.0
O1205 O 0.80805 0.15125 0.05476 0.0
O1206 O 0.78451 0.17683 0.02754 0.0
O1207 O 0.79412 0.13092 0.0069 0.0
H1208 H 0.86155 0.16795 0.04418 0.0
H1209 H 0.83577 0.21659 0.01824 0.0
H1210 H 0.89109 0.19826 0.0624 0.0
H1211 H 0.86571 0.24606 0.03703 0.0
H1212 H 0.78028 0.09427 0.08771 0.0
H1213 H 0.79187 0.17456 0.08615 0.0
H1214 H 0.79964 0.10891 0.05876 0.0
H1215 H 0.77256 0.15876 0.11454 0.0
H1216 H 0.84212 0.21494 0.11774 0.0
H1217 H 0.8004 0.24834 0.0888 0.0
H1218 H 0.87326 0.11651 0.98826 0.0
H1219 H 0.86018 0.08959 0.0464 0.0
H1220 H 0.74642 0.16054 0.00822 0.0
H1221 H 0.7993 0.21548 0.01602 0.0
H1222 H 0.72811 0.17936 0.98445 0.0
H1223 H 0.78011 0.23318 0.99183 0.0
H1224 H 0.75477 0.11287 0.9939 0.0
H1225 H 0.81581 0.12378 0.97316 0.0
H1226 H 0.74109 0.09249 0.95629 0.0
H1227 H 0.80106 0.10329 0.9359 0.0
H1228 H 0.82444 0.2034 0.94657 0.0
H1229 H 0.76255 0.16223 0.93541 0.0
H1230 H 0.71808 0.15476 0.05645 0.0
H1231 H 0.7241 0.08589 0.04254 0.0
Li1232 Li 0.21761 0.55177 0.24642 0.0
Li1233 Li 0.18771 0.52786 0.25766 0.0
Li1234 Li 0.21607 0.51218 0.24459 0.0
Li1235 Li 0.19288 0.52456 0.22026 0.0
C1236 C 0.22607 0.54801 0.28996 0.0
N1237 N 0.24515 0.57385 0.32949 0.0
C1238 C 0.21563 0.56158 0.30317 0.0
C1239 C 0.24613 0.54737 0.29705 0.0
C1240 C 0.22557 0.5746 0.32303 0.0
C1241 C 0.25553 0.56061 0.31703 0.0
C1242 C 0.17765 0.56056 0.22681 0.0
C1243 C 0.14635 0.56136 0.20597 0.0
N1244 N 0.15666 0.57922 0.19836 0.0
C1245 C 0.18792 0.57894 0.21877 0.0
C1246 C 0.15667 0.55173 0.22038 0.0
C1247 C 0.17703 0.58814 0.20443 0.0
C1248 C 0.24946 0.58985 0.2421 0.0
N1249 N 0.23316 0.58155 0.25261 0.0
C1250 C 0.23106 0.61818 0.26964 0.0
C1251 C 0.22418 0.59517 0.26641 0.0
C1252 C 0.24718 0.62728 0.25827 0.0
C1253 C 0.25692 0.61293 0.24489 0.0
H1254 H 0.25591 0.57882 0.23058 0.0
H1255 H 0.21068 0.58819 0.27373 0.0
C1256 C 0.17246 0.51717 0.2961 0.0
N1257 N 0.16906 0.52726 0.27914 0.0
C1258 C 0.16017 0.5182 0.31337 0.0
C1259 C 0.14087 0.53948 0.29503 0.0
C1260 C 0.15366 0.53823 0.27824 0.0
C1261 C 0.14427 0.52963 0.31299 0.0
H1262 H 0.18506 0.50884 0.29643 0.0
H1263 H 0.15167 0.54655 0.26484 0.0
C1264 C 0.24341 0.53273 0.21715 0.0
N1265 N 0.28393 0.53748 0.20819 0.0
C1266 C 0.24838 0.53176 0.19563 0.0
C1267 C 0.25899 0.53604 0.23409 0.0
C1268 C 0.26898 0.53424 0.19143 0.0
C1269 C 0.2794 0.53842 0.22925 0.0
C1270 C 0.1706 0.48616 0.24378 0.0
C1271 C 0.175 0.4708 0.25601 0.0
C1272 C 0.15028 0.48808 0.24015 0.0
C1273 C 0.159 0.4578 0.26466 0.0
C1274 C 0.13472 0.47481 0.24911 0.0
N1275 N 0.13936 0.46008 0.26109 0.0
C1276 C 0.23322 0.48937 0.2705 0.0
C1277 C 0.24016 0.47981 0.23355 0.0
C1278 C 0.24485 0.47529 0.27681 0.0
N1279 N 0.23136 0.49157 0.24932 0.0
C1280 C 0.25188 0.46524 0.23914 0.0
C1281 C 0.25451 0.46323 0.26109 0.0
H1282 H 0.22563 0.49863 0.28251 0.0
H1283 H 0.23824 0.48191 0.2168 0.0
C1284 C 0.1888 0.53531 0.17986 0.0
N1285 N 0.1804 0.52015 0.19174 0.0
C1286 C 0.17855 0.53626 0.16019 0.0
C1287 C 0.15219 0.50454 0.16437 0.0
C1288 C 0.1628 0.50449 0.18424 0.0
C1289 C 0.15973 0.52106 0.15241 0.0
H1290 H 0.20285 0.54754 0.18639 0.0
H1291 H 0.15663 0.49251 0.19402 0.0
O1292 O 0.21649 0.53484 0.27058 0.0
O1293 O 0.18811 0.5511 0.24064 0.0
O1294 O 0.22329 0.53004 0.2214 0.0
O1295 O 0.18612 0.4994 0.2356 0.0
H1296 H 0.20007 0.56223 0.2981 0.0
H1297 H 0.25436 0.53661 0.28741 0.0
H1298 H 0.21769 0.58527 0.33332 0.0
H1299 H 0.27105 0.56027 0.32267 0.0
H1300 H 0.13017 0.55457 0.20075 0.0
H1301 H 0.20417 0.58587 0.2232 0.0
H1302 H 0.1485 0.53736 0.22615 0.0
H1303 H 0.18483 0.60229 0.19803 0.0
H1304 H 0.22324 0.62877 0.28015 0.0
H1305 H 0.26925 0.61946 0.23569 0.0
H1306 H 0.16317 0.51036 0.32696 0.0
H1307 H 0.12896 0.54875 0.29437 0.0
H1308 H 0.23645 0.52911 0.18231 0.0
H1309 H 0.25535 0.53684 0.25076 0.0
H1310 H 0.27306 0.53356 0.17486 0.0
H1311 H 0.29163 0.54101 0.24222 0.0
H1312 H 0.1906 0.46899 0.25888 0.0
H1313 H 0.1466 0.49995 0.23083 0.0
H1314 H 0.1622 0.44592 0.27425 0.0
H1315 H 0.11896 0.47628 0.24659 0.0
H1316 H 0.24624 0.47377 0.29381 0.0
H1317 H 0.25913 0.45606 0.22666 0.0
H1318 H 0.18484 0.54954 0.15182 0.0
H1319 H 0.13798 0.49217 0.15877 0.0
Li1320 Li 0.80451 0.90551 0.5386 0.0
Li1321 Li 0.81878 0.87984 0.55736 0.0
Li1322 Li 0.84284 0.91108 0.54187 0.0
Li1323 Li 0.81983 0.8774 0.51607 0.0
C1324 C 0.81733 0.92813 0.5806 0.0
N1325 N 0.80349 0.95801 0.61108 0.0
C1326 C 0.79869 0.92146 0.58922 0.0
C1327 C 0.82905 0.94992 0.58765 0.0
C1328 C 0.79192 0.93683 0.60457 0.0
C1329 C 0.82175 0.96481 0.60303 0.0
C1330 C 0.7806 0.85671 0.53948 0.0
C1331 C 0.76562 0.81829 0.54044 0.0
N1332 N 0.75104 0.82495 0.55266 0.0
C1333 C 0.76542 0.86318 0.55194 0.0
C1334 C 0.78068 0.8341 0.53358 0.0
C1335 C 0.75062 0.84687 0.55848 0.0
C1336 C 0.76482 0.91011 0.5238 0.0
N1337 N 0.78237 0.92143 0.53668 0.0
C1338 C 0.76924 0.95469 0.54271 0.0
C1339 C 0.78481 0.9434 0.54602 0.0
C1340 C 0.75124 0.94352 0.52905 0.0
C1341 C 0.74912 0.92091 0.51959 0.0
H1342 H 0.76332 0.89282 0.51613 0.0
H1343 H 0.79911 0.95249 0.55542 0.0
C1344 C 0.82132 0.88024 0.60389 0.0
N1345 N 0.81705 0.86585 0.5841 0.0
C1346 C 0.8207 0.87241 0.62365 0.0
C1347 C 0.81225 0.83482 0.60285 0.0
C1348 C 0.81243 0.84337 0.58342 0.0
C1349 C 0.81634 0.84941 0.62339 0.0
H1350 H 0.82563 0.89797 0.60455 0.0
H1351 H 0.8091 0.83191 0.56785 0.0
C1352 C 0.81427 0.92032 0.50269 0.0
N1353 N 0.79268 0.94159 0.47753 0.0
C1354 C 0.79884 0.90783 0.48641 0.0
C1355 C 0.81871 0.94361 0.50616 0.0
C1356 C 0.78812 0.9189 0.47385 0.0
C1357 C 0.80762 0.95406 0.49328 0.0
C1358 C 0.85037 0.86134 0.52773 0.0
C1359 C 0.86502 0.86598 0.51312 0.0
C1360 C 0.84264 0.83928 0.52968 0.0
C1361 C 0.87175 0.84842 0.50075 0.0
C1362 C 0.84977 0.82217 0.51704 0.0
N1363 N 0.86405 0.82706 0.50295 0.0
C1364 C 0.88675 0.923 0.54671 0.0
C1365 C 0.87152 0.95381 0.54648 0.0
C1366 C 0.90644 0.93671 0.54766 0.0
N1367 N 0.86972 0.93158 0.54571 0.0
C1368 C 0.89097 0.96821 0.54775 0.0
C1369 C 0.90878 0.95965 0.54799 0.0
H1370 H 0.88508 0.9054 0.54653 0.0
H1371 H 0.85786 0.96039 0.5459 0.0
C1372 C 0.80648 0.84065 0.47654 0.0
N1373 N 0.81958 0.86054 0.48565 0.0
C1374 C 0.80627 0.83115 0.4542 0.0
C1375 C 0.83306 0.86252 0.4509 0.0
C1376 C 0.83276 0.87138 0.47318 0.0
C1377 C 0.81953 0.8422 0.44082 0.0
H1378 H 0.79578 0.83234 0.48639 0.0
H1379 H 0.84294 0.88726 0.48048 0.0
O1380 O 0.82427 0.9133 0.56563 0.0
O1381 O 0.79525 0.87241 0.53296 0.0
O1382 O 0.82438 0.90979 0.51572 0.0
O1383 O 0.84301 0.87819 0.53942 0.0
H1384 H 0.78962 0.90456 0.58419 0.0
H1385 H 0.84361 0.95528 0.58134 0.0
H1386 H 0.7775 0.9319 0.61134 0.0
H1387 H 0.83061 0.98175 0.60857 0.0
H1388 H 0.76557 0.80074 0.53611 0.0
H1389 H 0.76497 0.88059 0.55641 0.0
H1390 H 0.7924 0.82883 0.52405 0.0
H1391 H 0.73879 0.85164 0.56815 0.0
H1392 H 0.77164 0.97225 0.54994 0.0
H1393 H 0.73555 0.91177 0.50879 0.0
H1394 H 0.8243 0.88431 0.63903 0.0
H1395 H 0.80891 0.81693 0.60183 0.0
H1396 H 0.79488 0.8898 0.48378 0.0
H1397 H 0.83039 0.95353 0.51886 0.0
H1398 H 0.77607 0.90945 0.46128 0.0
H1399 H 0.81082 0.97208 0.49589 0.0
H1400 H 0.87083 0.88291 0.51101 0.0
H1401 H 0.83114 0.83539 0.54068 0.0
H1402 H 0.88299 0.85176 0.48928 0.0
H1403 H 0.84388 0.80501 0.51838 0.0
H1404 H 0.91973 0.92942 0.54818 0.0
H1405 H 0.892 0.98575 0.5479 0.0
H1406 H 0.79531 0.81563 0.44736 0.0
H1407 H 0.84384 0.87168 0.44166 0.0
Li1408 Li 0.95521 0.07467 0.29841 0.0
Li1409 Li 0.92453 0.04796 0.27166 0.0
Li1410 Li 0.95365 0.07265 0.25342 0.0
Li1411 Li 0.9269 0.09466 0.27483 0.0
C1412 C 0.96723 0.03588 0.27696 0.0
N1413 N 0.99249 1.00854 0.28654 0.0
C1414 C 0.96198 0.02206 0.29199 0.0
C1415 C 0.98537 0.03595 0.26692 0.0
C1416 C 0.97494 1.00831 0.29658 0.0
C1417 C 0.99793 0.02195 0.27195 0.0
C1418 C 0.90919 0.06481 0.31053 0.0
C1419 C 0.87537 0.06202 0.3228 0.0
N1420 N 0.87904 0.0469 0.33482 0.0
C1421 C 0.91265 0.04926 0.32298 0.0
C1422 C 0.89043 0.07127 0.31039 0.0
C1423 C 0.8972 0.04039 0.33516 0.0
C1424 C 0.96292 0.07972 0.34898 0.0
N1425 N 0.97133 0.07336 0.33001 0.0
C1426 C 0.99723 0.06199 0.35285 0.0
C1427 C 0.9886 0.06484 0.3321 0.0
C1428 C 0.98846 0.06783 0.37267 0.0
C1429 C 0.97109 0.07729 0.36989 0.0
H1430 H 0.94938 0.08653 0.34807 0.0
H1431 H 0.99574 0.05962 0.31756 0.0
C1432 C 0.91651 0.99812 0.26186 0.0
N1433 N 0.90706 0.01499 0.26943 0.0
C1434 C 0.90746 0.97545 0.26194 0.0
C1435 C 0.87794 0.98662 0.27603 0.0
C1436 C 0.8878 0.00931 0.27619 0.0
C1437 C 0.88786 0.96905 0.26925 0.0
H1438 H 0.93149 1.00219 0.25603 0.0
H1439 H 0.88004 0.02237 0.2822 0.0
C1440 C 0.97521 0.11541 0.27395 0.0
N1441 N 0.00743 0.14492 0.26182 0.0
C1442 C 0.97137 0.13267 0.26409 0.0
C1443 C 0.99538 0.11308 0.27765 0.0
C1444 C 0.98789 0.14745 0.2581 0.0
C1445 C 0.01148 0.12819 0.27138 0.0
C1446 C 0.91936 0.06308 0.22615 0.0
C1447 C 0.9234 0.0805 0.21468 0.0
C1448 C 0.91407 0.04097 0.21472 0.0
C1449 C 0.92193 0.07549 0.19184 0.0
C1450 C 0.91275 0.03665 0.19188 0.0
N1451 N 0.91668 0.05385 0.18101 0.0
C1452 C 0.96937 0.04942 0.21167 0.0
C1453 C 0.97852 0.08809 0.21433 0.0
C1454 C 0.97811 0.04597 0.19126 0.0
N1455 N 0.96943 0.07028 0.22326 0.0
C1456 C 0.98749 0.08532 0.19385 0.0
C1457 C 0.98743 0.06391 0.18133 0.0
H1458 H 0.96228 0.035 0.2181 0.0
H1459 H 0.97866 0.1048 0.2228 0.0
C1460 C 0.90935 0.1388 0.29284 0.0
N1461 N 0.91039 0.12279 0.27478 0.0
C1462 C 0.89904 0.15684 0.29178 0.0
C1463 C 0.89037 0.14249 0.25375 0.0
C1464 C 0.90066 0.12478 0.25548 0.0
C1465 C 0.88927 0.15959 0.27189 0.0
H1466 H 0.91671 0.13797 0.30846 0.0
H1467 H 0.90074 0.11252 0.24089 0.0
O1468 O 0.95486 0.0496 0.27239 0.0
O1469 O 0.92397 0.07338 0.29823 0.0
O1470 O 0.95924 0.10058 0.2796 0.0
O1471 O 0.92166 0.06758 0.24849 0.0
H1472 H 0.94808 0.02201 0.30005 0.0
H1473 H 0.98973 0.04675 0.25543 0.0
H1474 H 0.97108 0.99751 0.30816 0.0
H1475 H 0.01201 0.02179 0.26429 0.0
H1476 H 0.86076 0.06683 0.32286 0.0
H1477 H 0.92706 0.04401 0.32312 0.0
H1478 H 0.88753 0.08324 0.30074 0.0
H1479 H 0.89964 0.0283 0.34484 0.0
H1480 H 0.01048 0.05465 0.35313 0.0
H1481 H 0.9635 0.083 0.38391 0.0
H1482 H 0.91592 0.9629 0.25628 0.0
H1483 H 0.86292 0.98299 0.28195 0.0
H1484 H 0.95578 0.13454 0.26103 0.0
H1485 H 0.99853 0.09968 0.28516 0.0
H1486 H 0.98517 0.1609 0.25043 0.0
H1487 H 0.02718 0.12661 0.27408 0.0
H1488 H 0.92803 0.09767 0.22335 0.0
H1489 H 0.9112 0.02731 0.22343 0.0
H1490 H 0.92511 0.08879 0.18274 0.0
H1491 H 0.90871 0.01963 0.1828 0.0
H1492 H 0.97756 0.02893 0.18347 0.0
H1493 H 0.99406 0.10011 0.18771 0.0
H1494 H 0.89919 0.16891 0.30662 0.0
H1495 H 0.88307 0.14244 0.23783 0.0
Li1496 Li 0.30183 0.65483 0.55276 0.0
Li1497 Li 0.31603 0.62977 0.5287 0.0
Li1498 Li 0.29543 0.65154 0.51435 0.0
Li1499 Li 0.2799 0.62114 0.53153 0.0
C1500 C 0.34122 0.67164 0.54422 0.0
N1501 N 0.37906 0.68972 0.5682 0.0
C1502 C 0.34681 0.66312 0.56232 0.0
C1503 C 0.35485 0.68947 0.53843 0.0
C1504 C 0.36602 0.67245 0.57419 0.0
C1505 C 0.37391 0.69835 0.55073 0.0
C1506 C 0.3022 0.60259 0.55798 0.0
C1507 C 0.29889 0.56337 0.54374 0.0
N1508 N 0.30317 0.56024 0.56436 0.0
C1509 C 0.30653 0.59898 0.57902 0.0
C1510 C 0.29832 0.58464 0.54017 0.0
C1511 C 0.30696 0.57745 0.58191 0.0
C1512 C 0.29772 0.6649 0.59683 0.0
N1513 N 0.3041 0.67432 0.57977 0.0
C1514 C 0.30731 0.71088 0.60082 0.0
C1515 C 0.3096 0.6968 0.58157 0.0
C1516 C 0.30003 0.70166 0.61863 0.0
C1517 C 0.29594 0.67832 0.61663 0.0
H1518 H 0.29346 0.64693 0.59482 0.0
H1519 H 0.31491 0.7038 0.56775 0.0
C1520 C 0.34393 0.61515 0.5022 0.0
N1521 N 0.3386 0.61693 0.523 0.0
C1522 C 0.35916 0.60391 0.4958 0.0
C1523 C 0.36326 0.5969 0.5325 0.0
C1524 C 0.34821 0.60859 0.53828 0.0
C1525 C 0.36865 0.59427 0.51097 0.0
H1526 H 0.33598 0.62204 0.49048 0.0
H1527 H 0.34391 0.61058 0.5548 0.0
C1528 C 0.26706 0.6698 0.53992 0.0
N1529 N 0.25019 0.7068 0.54787 0.0
C1530 C 0.2469 0.66765 0.54557 0.0
C1531 C 0.27857 0.69075 0.53815 0.0
C1532 C 0.23867 0.68656 0.54958 0.0
C1533 C 0.2698 0.70926 0.54227 0.0
C1534 C 0.28053 0.61081 0.48563 0.0
C1535 C 0.26062 0.61447 0.4849 0.0
C1536 C 0.2867 0.59829 0.46739 0.0
C1537 C 0.24719 0.60556 0.46588 0.0
C1538 C 0.27282 0.58964 0.44866 0.0
N1539 N 0.25352 0.59343 0.4483 0.0
C1540 C 0.30894 0.68177 0.4883 0.0
C1541 C 0.27261 0.66937 0.48516 0.0
C1542 C 0.30739 0.69778 0.47585 0.0
N1543 N 0.29169 0.6683 0.49299 0.0
C1544 C 0.27034 0.6847 0.47212 0.0
C1545 C 0.28786 0.69954 0.46771 0.0
H1546 H 0.32386 0.68073 0.49507 0.0
H1547 H 0.25909 0.65907 0.48981 0.0
C1548 C 0.24533 0.60818 0.55029 0.0
N1549 N 0.25537 0.60058 0.5333 0.0
C1550 C 0.22469 0.59863 0.55106 0.0
C1551 C 0.22575 0.572 0.51803 0.0
C1552 C 0.24651 0.58209 0.51795 0.0
C1553 C 0.21445 0.58113 0.53413 0.0
H1554 H 0.253 0.62277 0.56236 0.0
H1555 H 0.25502 0.57625 0.50477 0.0
O1556 O 0.3224 0.66303 0.53237 0.0
O1557 O 0.3019 0.62366 0.55505 0.0
O1558 O 0.27521 0.65134 0.53573 0.0
O1559 O 0.294 0.6192 0.50407 0.0
H1560 H 0.33649 0.64955 0.56731 0.0
H1561 H 0.35075 0.69646 0.52462 0.0
H1562 H 0.37053 0.66599 0.58821 0.0
H1563 H 0.3846 0.71214 0.54641 0.0
H1564 H 0.29596 0.54934 0.53011 0.0
H1565 H 0.30963 0.61272 0.59296 0.0
H1566 H 0.29501 0.58705 0.52376 0.0
H1567 H 0.31034 0.57444 0.5981 0.0
H1568 H 0.31055 0.72867 0.60134 0.0
H1569 H 0.29105 0.67034 0.63005 0.0
H1570 H 0.363 0.60213 0.47905 0.0
H1571 H 0.37053 0.58986 0.54465 0.0
H1572 H 0.23765 0.65154 0.54677 0.0
H1573 H 0.29414 0.69272 0.53364 0.0
H1574 H 0.22309 0.68513 0.554 0.0
H1575 H 0.27857 0.72557 0.541 0.0
H1576 H 0.25547 0.62383 0.49896 0.0
H1577 H 0.30205 0.59524 0.46772 0.0
H1578 H 0.23172 0.60822 0.46513 0.0
H1579 H 0.27739 0.5799 0.43443 0.0
H1580 H 0.32135 0.70911 0.47337 0.0
H1581 H 0.25499 0.68516 0.46596 0.0
H1582 H 0.21648 0.60584 0.5639 0.0
H1583 H 0.21828 0.55849 0.50471 0.0
Li1584 Li 0.42297 0.5497 0.77482 0.0
Li1585 Li 0.45403 0.57537 0.80114 0.0
Li1586 Li 0.42662 0.59556 0.77797 0.0
Li1587 Li 0.45398 0.5738 0.75547 0.0
C1588 C 0.40309 0.56924 0.80779 0.0
N1589 N 0.36366 0.55801 0.81991 0.0
C1590 C 0.39924 0.55734 0.82459 0.0
C1591 C 0.38685 0.57535 0.79711 0.0
C1592 C 0.37921 0.55182 0.83047 0.0
C1593 C 0.36705 0.56957 0.80349 0.0
C1594 C 0.46856 0.54021 0.78139 0.0
C1595 C 0.50351 0.53579 0.78172 0.0
N1596 N 0.49946 0.52171 0.79597 0.0
C1597 C 0.46473 0.52573 0.79605 0.0
C1598 C 0.48809 0.54537 0.77419 0.0
C1599 C 0.48057 0.51654 0.80323 0.0
C1600 C 0.41316 0.49925 0.76794 0.0
N1601 N 0.40429 0.51721 0.7723 0.0
C1602 C 0.37215 0.49122 0.77536 0.0
C1603 C 0.38392 0.5132 0.77589 0.0
C1604 C 0.38094 0.47232 0.77113 0.0
C1605 C 0.40196 0.47702 0.76739 0.0
H1606 H 0.42917 0.50202 0.76488 0.0
H1607 H 0.37659 0.52707 0.7794 0.0
C1608 C 0.49074 0.58315 0.84048 0.0
N1609 N 0.4706 0.5731 0.83247 0.0
C1610 C 0.49999 0.58012 0.86092 0.0
C1611 C 0.46828 0.55629 0.86528 0.0
C1612 C 0.45978 0.55947 0.84482 0.0
C1613 C 0.4888 0.56667 0.87431 0.0
H1614 H 0.50001 0.59375 0.83115 0.0
H1615 H 0.44428 0.55054 0.83877 0.0
C1616 C 0.40814 0.56884 0.7345 0.0
N1617 N 0.37922 0.56847 0.70096 0.0
C1618 C 0.41408 0.57909 0.71704 0.0
C1619 C 0.38754 0.55838 0.73494 0.0
C1620 C 0.39921 0.57872 0.70023 0.0
C1621 C 0.37313 0.55838 0.71781 0.0
C1622 C 0.47498 0.61705 0.77822 0.0
C1623 C 0.47117 0.63238 0.76566 0.0
C1624 C 0.49515 0.61769 0.78603 0.0
C1625 C 0.4877 0.64824 0.76119 0.0
C1626 C 0.51126 0.63383 0.78122 0.0
N1627 N 0.50723 0.64864 0.769 0.0
C1628 C 0.40469 0.63658 0.79572 0.0
C1629 C 0.40508 0.62928 0.75783 0.0
C1630 C 0.39425 0.65453 0.79456 0.0
N1631 N 0.41029 0.62395 0.77749 0.0
C1632 C 0.39467 0.64689 0.75601 0.0
C1633 C 0.38894 0.66064 0.77443 0.0
H1634 H 0.40828 0.63298 0.81161 0.0
H1635 H 0.40896 0.61984 0.74302 0.0
C1636 C 0.46138 0.55941 0.70576 0.0
N1637 N 0.4706 0.57227 0.72558 0.0
C1638 C 0.47166 0.55817 0.68606 0.0
C1639 C 0.50133 0.58305 0.70648 0.0
C1640 C 0.49053 0.5839 0.72574 0.0
C1641 C 0.49223 0.57017 0.6856 0.0
H1642 H 0.4457 0.54989 0.70491 0.0
H1643 H 0.49846 0.59404 0.74098 0.0
O1644 O 0.42251 0.57471 0.80149 0.0
O1645 O 0.4535 0.54999 0.77475 0.0
O1646 O 0.42242 0.56917 0.75117 0.0
O1647 O 0.45906 0.60114 0.78238 0.0
H1648 H 0.41147 0.55231 0.83298 0.0
H1649 H 0.38945 0.58423 0.78383 0.0
H1650 H 0.37602 0.54258 0.84343 0.0
H1651 H 0.35435 0.57417 0.79532 0.0
H1652 H 0.51871 0.53963 0.7763 0.0
H1653 H 0.44975 0.52185 0.80201 0.0
H1654 H 0.49132 0.55676 0.76303 0.0
H1655 H 0.47786 0.50537 0.81465 0.0
H1656 H 0.35622 0.48924 0.77868 0.0
H1657 H 0.40983 0.46356 0.76371 0.0
H1658 H 0.51578 0.5888 0.86641 0.0
H1659 H 0.45855 0.54533 0.87396 0.0
H1660 H 0.42997 0.5874 0.7166 0.0
H1661 H 0.38274 0.55039 0.74837 0.0
H1662 H 0.40356 0.58664 0.68663 0.0
H1663 H 0.35711 0.55037 0.71792 0.0
H1664 H 0.45561 0.63194 0.75938 0.0
H1665 H 0.49832 0.60573 0.79553 0.0
H1666 H 0.48501 0.66022 0.75147 0.0
H1667 H 0.52697 0.63453 0.78713 0.0
H1668 H 0.39066 0.66378 0.80966 0.0
H1669 H 0.39099 0.64931 0.73968 0.0
H1670 H 0.46317 0.54791 0.67114 0.0
H1671 H 0.51708 0.59251 0.70837 0.0
Li1672 Li 0.6941 0.03477 0.76107 0.0
Li1673 Li 0.71961 0.05768 0.74317 0.0
Li1674 Li 0.68882 0.03234 0.72255 0.0
Li1675 Li 0.71635 0.01837 0.73732 0.0
C1676 C 0.68049 0.07113 0.75947 0.0
N1677 N 0.66069 0.09521 0.78945 0.0
C1678 C 0.69119 0.09145 0.77244 0.0
C1679 C 0.65967 0.06313 0.76173 0.0
C1680 C 0.68091 0.10337 0.78749 0.0
C1681 C 0.64996 0.07552 0.777 0.0
C1682 C 0.7376 0.03131 0.77598 0.0
C1683 C 0.77118 0.02357 0.78126 0.0
N1684 N 0.76407 0.01063 0.79575 0.0
C1685 C 0.73065 0.01805 0.79101 0.0
C1686 C 0.75805 0.03423 0.77115 0.0
C1687 C 0.74427 1.00771 0.80082 0.0
C1688 C 0.66338 0.01931 0.78706 0.0
N1689 N 0.68104 0.03472 0.78688 0.0
C1690 C 0.67642 0.05566 0.82132 0.0
C1691 C 0.68819 0.05212 0.80391 0.0
C1692 C 0.65737 0.0409 0.82119 0.0
C1693 C 0.65119 0.02209 0.80422 0.0
H1694 H 0.65825 1.00553 0.77338 0.0
H1695 H 0.7024 0.06399 0.80325 0.0
C1696 C 0.73236 0.10106 0.73513 0.0
N1697 N 0.73722 0.08647 0.74713 0.0
C1698 C 0.74334 0.12324 0.73959 0.0
C1699 C 0.76425 0.11491 0.76853 0.0
C1700 C 0.75289 0.09285 0.76346 0.0
C1701 C 0.75925 0.13052 0.75679 0.0
H1702 H 0.71949 0.09563 0.72261 0.0
H1703 H 0.75603 0.08106 0.77314 0.0
C1704 C 0.67155 0.99139 0.72557 0.0
N1705 N 0.64126 0.95984 0.69788 0.0
C1706 C 0.67676 0.97411 0.71106 0.0
C1707 C 0.65091 0.99257 0.72602 0.0
C1708 C 0.66123 0.95832 0.6972 0.0
C1709 C 0.63584 0.97649 0.71187 0.0
C1710 C 0.72861 0.05012 0.70274 0.0
C1711 C 0.71858 0.05813 0.68669 0.0
C1712 C 0.75003 0.05672 0.70699 0.0
C1713 C 0.73018 0.07276 0.6752 0.0
C1714 C 0.76107 0.07139 0.69517 0.0
N1715 N 0.751 0.07904 0.67965 0.0
C1716 C 0.65454 0.04124 0.70164 0.0
C1717 C 0.66764 0.01275 0.68057 0.0
C1718 C 0.63879 0.03873 0.68524 0.0
N1719 N 0.66845 0.02828 0.69909 0.0
C1720 C 0.65211 0.00969 0.66364 0.0
C1721 C 0.63757 0.02296 0.66586 0.0
H1722 H 0.65579 0.05374 0.71629 0.0
H1723 H 0.67914 1.0029 0.67893 0.0
C1724 C 0.72518 0.9791 0.7451 0.0
N1725 N 0.73101 0.99577 0.73397 0.0
C1726 C 0.7379 0.96459 0.74748 0.0
C1727 C 0.76162 0.98375 0.72553 0.0
C1728 C 0.74837 0.99786 0.72351 0.0
C1729 C 0.75676 0.96743 0.73835 0.0
H1730 H 0.71133 0.97809 0.75337 0.0
H1731 H 0.75254 0.01131 0.71478 0.0
O1732 O 0.6904 0.05898 0.74492 0.0
O1733 O 0.72432 0.04097 0.76568 0.0
O1734 O 0.68657 1.00719 0.73907 0.0
O1735 O 0.71751 0.03596 0.7143 0.0
H1736 H 0.70732 0.09786 0.77115 0.0
H1737 H 0.6512 0.04726 0.75215 0.0
H1738 H 0.68904 0.11905 0.79768 0.0
H1739 H 0.63392 0.06939 0.77906 0.0
H1740 H 0.78698 0.02547 0.77749 0.0
H1741 H 0.71484 0.01552 0.79484 0.0
H1742 H 0.76362 0.04427 0.75938 0.0
H1743 H 0.73907 0.99727 0.81237 0.0
H1744 H 0.68177 0.07018 0.83433 0.0
H1745 H 0.63656 0.01037 0.80358 0.0
H1746 H 0.73913 0.13468 0.72998 0.0
H1747 H 0.77618 0.11989 0.78212 0.0
H1748 H 0.69264 0.97303 0.71029 0.0
H1749 H 0.6466 1.00603 0.73686 0.0
H1750 H 0.66505 0.94491 0.68583 0.0
H1751 H 0.61984 0.97732 0.71193 0.0
H1752 H 0.70202 0.05325 0.68323 0.0
H1753 H 0.75801 0.05092 0.71957 0.0
H1754 H 0.72262 0.07916 0.66278 0.0
H1755 H 0.77763 0.07677 0.6984 0.0
H1756 H 0.62785 0.04926 0.68757 0.0
H1757 H 0.65189 0.99766 0.64874 0.0
H1758 H 0.73376 0.95243 0.75776 0.0
H1759 H 0.77599 0.98631 0.71814 0.0
Li1760 Li 0.80389 0.71218 0.0346 0.0
Li1761 Li 0.81989 0.68224 0.01215 0.0
Li1762 Li 0.80429 0.70654 0.99324 0.0
Li1763 Li 0.78171 0.67784 0.00827 0.0
C1764 C 0.84209 0.7296 0.00751 0.0
N1765 N 0.86863 0.75758 0.98688 0.0
C1766 C 0.8563 0.72136 0.99474 0.0
C1767 C 0.84149 0.7521 0.00997 0.0
C1768 C 0.86956 0.73577 0.98439 0.0
C1769 C 0.85501 0.76597 0.99936 0.0
C1770 C 0.79813 0.65966 0.04178 0.0
C1771 C 0.79449 0.61978 0.03373 0.0
N1772 N 0.79416 0.61952 0.05544 0.0
C1773 C 0.79783 0.65904 0.064 0.0
C1774 C 0.79651 0.63992 0.0265 0.0
C1775 C 0.79578 0.63856 0.07058 0.0
C1776 C 0.78995 0.7197 0.07697 0.0
N1777 N 0.80421 0.72928 0.06474 0.0
C1778 C 0.81881 0.75815 0.09622 0.0
C1779 C 0.81845 0.74832 0.07394 0.0
C1780 C 0.80456 0.74825 0.10942 0.0
C1781 C 0.78988 0.72882 0.09925 0.0
H1782 H 0.77878 0.70454 0.0695 0.0
H1783 H 0.82986 0.75565 0.06417 0.0
C1784 C 0.84441 0.65225 0.99531 0.0
N1785 N 0.84143 0.66603 0.01374 0.0
C1786 C 0.85865 0.63885 0.99601 0.0
C1787 C 0.86728 0.65467 0.0345 0.0
C1788 C 0.85268 0.66764 0.0331 0.0
C1789 C 0.87017 0.63972 0.01585 0.0
H1790 H 0.83548 0.65142 0.98009 0.0
H1791 H 0.84999 0.67864 0.04757 0.0
C1792 C 0.77193 0.72678 0.00844 0.0
N1793 N 0.75388 0.76117 1.00187 0.0
C1794 C 0.75308 0.72217 0.99565 0.0
C1795 C 0.78143 0.7488 0.0182 0.0
C1796 C 0.74426 0.73981 0.99243 0.0
C1797 C 0.7721 0.76598 0.0146 0.0
C1798 C 0.78888 0.66433 0.96546 0.0
C1799 C 0.77329 0.6741 0.95871 0.0
C1800 C 0.79227 0.64512 0.95226 0.0
C1801 C 0.76141 0.6646 0.93877 0.0
C1802 C 0.78004 0.63608 0.93245 0.0
N1803 N 0.765 0.64594 0.92616 0.0
C1804 C 0.81978 0.71102 0.95201 0.0
C1805 C 0.79754 0.73527 0.9607 0.0
C1806 C 0.8224 0.71754 0.93177 0.0
N1807 N 0.80755 0.71986 0.96621 0.0
C1808 C 0.7996 0.74214 0.94044 0.0
C1809 C 0.8122 0.73329 0.9255 0.0
H1810 H 0.82733 0.69846 0.95624 0.0
H1811 H 0.7877 0.74215 0.97179 0.0
C1812 C 0.74042 0.66456 0.01755 0.0
N1813 N 0.75501 0.65722 1.00584 0.0
C1814 C 0.72092 0.65062 0.01722 0.0
C1815 C 0.73161 0.62169 0.99264 0.0
C1816 C 0.75095 0.6362 0.99349 0.0
C1817 C 0.71619 0.62875 1.00467 0.0
H1818 H 0.74401 0.68127 0.02739 0.0
H1819 H 0.76274 0.63056 0.98437 0.0
O1820 O 0.82861 0.71561 0.01725 0.0
O1821 O 0.80026 0.67955 0.03504 0.0
O1822 O 0.78077 0.70975 0.01182 0.0
O1823 O 0.8006 0.67328 0.98501 0.0
H1824 H 0.8569 0.70395 0.99264 0.0
H1825 H 0.83066 0.75876 0.01989 0.0
H1826 H 0.88055 0.72959 0.97433 0.0
H1827 H 0.85466 0.7834 1.00103 0.0
H1828 H 0.79322 0.60437 0.02209 0.0
H1829 H 0.79922 0.67422 0.07604 0.0
H1830 H 0.79691 0.64017 0.00925 0.0
H1831 H 0.79551 0.6378 0.08773 0.0
H1832 H 0.83059 0.77298 0.10317 0.0
H1833 H 0.77837 0.72061 0.10842 0.0
H1834 H 0.86052 0.62778 0.98117 0.0
H1835 H 0.87568 0.65576 0.05016 0.0
H1836 H 0.74533 0.70515 0.98832 0.0
H1837 H 0.79581 0.75255 0.02848 0.0
H1838 H 0.72973 0.73652 0.98247 0.0
H1839 H 0.77933 0.78313 0.02196 0.0
H1840 H 0.77044 0.68889 0.96871 0.0
H1841 H 0.80409 0.63715 0.95731 0.0
H1842 H 0.74934 0.67205 0.93334 0.0
H1843 H 0.78248 0.62121 0.92209 0.0
H1844 H 0.83202 0.70983 0.92089 0.0
H1845 H 0.79148 0.75443 0.93663 0.0
H1846 H 0.70983 0.65683 0.02711 0.0
H1847 H 0.72876 0.60515 0.98253 0.0
Li1848 Li 0.90342 0.53073 0.79757 0.0
Li1849 Li 0.93102 0.55374 0.82373 0.0
Li1850 Li 0.90569 0.57036 0.80477 0.0
Li1851 Li 0.9322 0.55454 0.78496 0.0
C1852 C 0.88375 0.54196 0.83528 0.0
N1853 N 0.84895 0.52592 0.8546 0.0
C1854 C 0.88485 0.52915 0.8513 0.0
C1855 C 0.86498 0.5468 0.82925 0.0
C1856 C 0.86707 0.52113 0.86081 0.0
C1857 C 0.84756 0.5385 0.83917 0.0
C1858 C 0.94737 0.51901 0.80448 0.0
C1859 C 0.9832 0.51806 0.80942 0.0
N1860 N 0.97771 0.49757 0.81466 0.0
C1861 C 0.94208 0.49789 0.80982 0.0
C1862 C 0.96809 0.52915 0.8042 0.0
C1863 C 0.95764 0.48735 0.81497 0.0
C1864 C 0.89635 0.48795 0.77528 0.0
N1865 N 0.88737 0.50087 0.78983 0.0
C1866 C 0.86332 0.46865 0.79551 0.0
C1867 C 0.87062 0.49182 0.79931 0.0
C1868 C 0.87336 0.45489 0.78178 0.0
C1869 C 0.88952 0.46486 0.77092 0.0
H1870 H 0.90962 0.49556 0.76794 0.0
H1871 H 0.86343 0.50227 0.81053 0.0
C1872 C 0.96103 0.57329 0.86 0.0
N1873 N 0.94698 0.55469 0.8496 0.0
C1874 C 0.9732 0.57263 0.87869 0.0
C1875 C 0.95592 0.53384 0.87549 0.0
C1876 C 0.9441 0.5353 0.85704 0.0
C1877 C 0.97063 0.55268 0.8866 0.0
H1878 H 0.96272 0.58859 0.85387 0.0
H1879 H 0.93268 0.52089 0.84849 0.0
C1880 C 0.88709 0.53713 0.7609 0.0
N1881 N 0.85576 0.50901 0.73173 0.0
C1882 C 0.89172 0.52353 0.74242 0.0
C1883 C 0.86656 0.53666 0.76443 0.0
C1884 C 0.87565 0.50935 0.72789 0.0
C1885 C 0.85094 0.52227 0.74952 0.0
C1886 C 0.95176 0.59774 0.80801 0.0
C1887 C 0.94702 0.61665 0.8019 0.0
C1888 C 0.97234 0.59679 0.81177 0.0
C1889 C 0.96299 0.63419 0.79935 0.0
C1890 C 0.98787 0.61466 0.80902 0.0
N1891 N 0.98292 0.63283 0.80291 0.0
C1892 C 0.88656 0.60272 0.82679 0.0
C1893 C 0.88635 0.59957 0.78832 0.0
C1894 C 0.87483 0.61878 0.82791 0.0
N1895 N 0.89165 0.59328 0.80713 0.0
C1896 C 0.87481 0.61567 0.78868 0.0
C1897 C 0.86863 0.62519 0.80861 0.0
H1898 H 0.89113 0.59732 0.84146 0.0
H1899 H 0.89073 0.59169 0.77298 0.0
C1900 C 0.95433 0.53595 0.75376 0.0
N1901 N 0.95014 0.55576 0.76279 0.0
C1902 C 0.96945 0.5353 0.73942 0.0
C1903 C 0.97476 0.57531 0.74286 0.0
C1904 C 0.95942 0.57515 0.75705 0.0
C1905 C 0.98021 0.55525 0.73425 0.0
H1906 H 0.94638 0.52072 0.75829 0.0
H1907 H 0.95526 0.59054 0.76376 0.0
O1908 O 0.90106 0.55016 0.82598 0.0
O1909 O 0.93231 0.52956 0.79936 0.0
O1910 O 0.90258 0.55074 0.77556 0.0
O1911 O 0.9363 0.5804 0.81051 0.0
H1912 H 0.89923 0.52539 0.85632 0.0
H1913 H 0.86384 0.5568 0.81702 0.0
H1914 H 0.86768 0.51111 0.87315 0.0
H1915 H 0.83293 0.54205 0.8346 0.0
H1916 H 0.99929 0.52573 0.80926 0.0
H1917 H 0.92613 0.48983 0.81029 0.0
H1918 H 0.97245 0.54535 0.79987 0.0
H1919 H 0.95376 0.47106 0.81924 0.0
H1920 H 0.85072 0.4616 0.80412 0.0
H1921 H 0.89736 0.45487 0.75978 0.0
H1922 H 0.98421 0.58758 0.88703 0.0
H1923 H 0.95364 0.51808 0.88092 0.0
H1924 H 0.90755 0.52375 0.73946 0.0
H1925 H 0.86275 0.54726 0.77854 0.0
H1926 H 0.87899 0.4986 0.71359 0.0
H1927 H 0.83497 0.52165 0.7521 0.0
H1928 H 0.93118 0.61772 0.79903 0.0
H1929 H 0.97631 0.58243 0.81676 0.0
H1930 H 0.95955 0.64888 0.79452 0.0
H1931 H 1.00386 0.6141 0.81179 0.0
H1932 H 0.87033 0.62579 0.84355 0.0
H1933 H 0.87002 0.61988 0.77341 0.0
H1934 H 0.97319 0.51948 0.73308 0.0
H1935 H 0.98241 0.59095 0.7388 0.0
Li1936 Li 0.81882 0.42542 0.53054 0.0
Li1937 Li 0.81188 0.46215 0.52577 0.0
Li1938 Li 0.81923 0.43449 0.49498 0.0
Li1939 Li 0.84566 0.45387 0.52283 0.0
C1940 C 0.77912 0.41769 0.51954 0.0
N1941 N 0.74681 0.39056 0.53439 0.0
C1942 C 0.76585 0.4271 0.53284 0.0
C1943 C 0.77585 0.39447 0.51368 0.0
C1944 C 0.74962 0.4131 0.5402 0.0
C1945 C 0.75946 0.38104 0.52139 0.0
C1946 C 0.84418 0.46689 0.56519 0.0
C1947 C 0.86266 0.50133 0.5885 0.0
N1948 N 0.87492 0.48995 0.59771 0.0
C1949 C 0.85684 0.45549 0.57496 0.0
C1950 C 0.847 0.48996 0.57204 0.0
C1951 C 0.87235 0.46747 0.59134 0.0
C1952 C 0.82697 0.38833 0.54432 0.0
N1953 N 0.81469 0.40308 0.5476 0.0
C1954 C 0.8009 0.38729 0.57716 0.0
C1955 C 0.80188 0.40302 0.56372 0.0
C1956 C 0.81337 0.37171 0.57398 0.0
C1957 C 0.82628 0.3722 0.55705 0.0
H1958 H 0.8378 0.38943 0.53222 0.0
H1959 H 0.79285 0.41551 0.56651 0.0
C1960 C 0.78851 0.49109 0.51581 0.0
N1961 N 0.79583 0.48332 0.5329 0.0
C1962 C 0.77607 0.50638 0.5192 0.0
C1963 C 0.77854 0.50502 0.55772 0.0
C1964 C 0.7912 0.48991 0.55361 0.0
C1965 C 0.77087 0.51345 0.54035 0.0
H1966 H 0.79234 0.48529 0.49951 0.0
H1967 H 0.79709 0.4832 0.56683 0.0
C1968 C 0.84316 0.40735 0.49234 0.0
N1969 N 0.85022 0.37839 0.456 0.0
C1970 C 0.85833 0.4146 0.47906 0.0
C1971 C 0.83157 0.38532 0.48703 0.0
C1972 C 0.86167 0.39972 0.46081 0.0
C1973 C 0.83538 0.37095 0.46863 0.0
C1974 C 0.84506 0.48634 0.50171 0.0
C1975 C 0.86159 0.48506 0.48916 0.0
C1976 C 0.84353 0.50706 0.51355 0.0
C1977 C 0.87624 0.50451 0.4886 0.0
C1978 C 0.85847 0.52613 0.51253 0.0
N1979 N 0.87438 0.52448 0.50019 0.0
C1980 C 0.79937 0.4027 0.45743 0.0
C1981 C 0.82543 0.4323 0.45086 0.0
C1982 C 0.79869 0.39114 0.43599 0.0
N1983 N 0.81319 0.42246 0.46458 0.0
C1984 C 0.82545 0.42127 0.42942 0.0
C1985 C 0.81241 0.40006 0.42193 0.0
H1986 H 0.78976 0.39528 0.46868 0.0
H1987 H 0.83618 0.44803 0.45696 0.0
C1988 C 0.88571 0.44875 0.52602 0.0
N1989 N 0.87489 0.46489 0.52959 0.0
C1990 C 0.90707 0.45424 0.52811 0.0
C1991 C 0.90613 0.49286 0.54031 0.0
C1992 C 0.88462 0.48662 0.53724 0.0
C1993 C 0.91774 0.47659 0.53519 0.0
H1994 H 0.87781 0.43146 0.52114 0.0
H1995 H 0.87578 0.49917 0.54076 0.0
O1996 O 0.7952 0.43114 0.51232 0.0
O1997 O 0.82916 0.45553 0.54889 0.0
O1998 O 0.83938 0.42187 0.51009 0.0
O1999 O 0.83046 0.46747 0.50239 0.0
H2000 H 0.76804 0.445 0.53746 0.0
H2001 H 0.78605 0.38686 0.50361 0.0
H2002 H 0.73928 0.42017 0.55055 0.0
H2003 H 0.75687 0.36305 0.51712 0.0
H2004 H 0.86513 0.51921 0.59388 0.0
H2005 H 0.85482 0.43762 0.56978 0.0
H2006 H 0.83738 0.49902 0.56453 0.0
H2007 H 0.88237 0.45891 0.59897 0.0
H2008 H 0.79103 0.38782 0.5903 0.0
H2009 H 0.83602 0.36043 0.55381 0.0
H2010 H 0.77018 0.51221 0.50534 0.0
H2011 H 0.77482 0.5101 0.57425 0.0
H2012 H 0.86722 0.43165 0.48257 0.0
H2013 H 0.81949 0.37943 0.49676 0.0
H2014 H 0.87327 0.40519 0.45036 0.0
H2015 H 0.82643 0.35393 0.4643 0.0
H2016 H 0.86342 0.46919 0.48032 0.0
H2017 H 0.83111 0.50846 0.52364 0.0
H2018 H 0.88916 0.50371 0.47908 0.0
H2019 H 0.85748 0.54224 0.52165 0.0
H2020 H 0.78805 0.37507 0.43076 0.0
H2021 H 0.83643 0.42877 0.41931 0.0
H2022 H 0.91495 0.44093 0.52362 0.0
H2023 H 0.91346 0.51024 0.54653 0.0
Li2024 Li 0.66984 0.52124 0.29606 0.0
Li2025 Li 0.69902 0.54395 0.27565 0.0
Li2026 Li 0.66921 0.51895 0.25005 0.0
Li2027 Li 0.69798 0.49908 0.27139 0.0
C2028 C 0.65478 0.55484 0.27014 0.0
N2029 N 0.62561 0.57637 0.25702 0.0
C2030 C 0.65839 0.56734 0.25375 0.0
C2031 C 0.63634 0.55321 0.27981 0.0
C2032 C 0.64345 0.57812 0.24735 0.0
C2033 C 0.62178 0.56426 0.27297 0.0
C2034 C 0.71983 0.53751 0.31053 0.0
C2035 C 0.75656 0.54458 0.31917 0.0
N2036 N 0.7563 0.56468 0.33171 0.0
C2037 C 0.71992 0.55829 0.32338 0.0
C2038 C 0.73828 0.53063 0.30825 0.0
C2039 C 0.73852 0.57176 0.33401 0.0
C2040 C 0.66604 0.53583 0.34564 0.0
N2041 N 0.65469 0.5232 0.32684 0.0
C2042 C 0.62583 0.51539 0.34952 0.0
C2043 C 0.63467 0.51297 0.32891 0.0
C2044 C 0.63716 0.52873 0.36916 0.0
C2045 C 0.65779 0.53876 0.36637 0.0
H2046 H 0.68188 0.54393 0.34484 0.0
H2047 H 0.62517 0.50283 0.31452 0.0
C2048 C 0.73718 0.58296 0.27531 0.0
N2049 N 0.71677 0.57693 0.27853 0.0
C2050 C 0.74717 0.60565 0.27565 0.0
C2051 C 0.71552 0.61614 0.28318 0.0
C2052 C 0.70629 0.5935 0.28305 0.0
C2053 C 0.73627 0.62287 0.27914 0.0
H2054 H 0.74583 0.57016 0.272 0.0
H2055 H 0.69042 0.58925 0.28638 0.0
C2056 C 0.64849 0.47664 0.26158 0.0
N2057 N 0.6145 0.44269 0.24498 0.0
C2058 C 0.65104 0.45592 0.25085 0.0
C2059 C 0.62871 0.48018 0.26381 0.0
C2060 C 0.63364 0.43894 0.24259 0.0
C2061 C 0.6117 0.46277 0.25532 0.0
C2062 C 0.71645 0.53025 0.23921 0.0
C2063 C 0.71469 0.54731 0.22804 0.0
C2064 C 0.73523 0.52402 0.24126 0.0
C2065 C 0.73181 0.55783 0.21896 0.0
C2066 C 0.75199 0.53494 0.23195 0.0
N2067 N 0.74994 0.55148 0.22109 0.0
C2068 C 0.63136 0.52144 0.21792 0.0
C2069 C 0.66128 0.52181 0.20028 0.0
C2070 C 0.62056 0.52439 0.19846 0.0
N2071 N 0.65168 0.52022 0.21905 0.0
C2072 C 0.65101 0.52484 0.18049 0.0
C2073 C 0.63005 0.52629 0.17879 0.0
H2074 H 0.62329 0.52059 0.23237 0.0
H2075 H 0.67726 0.52094 0.20041 0.0
C2076 C 0.72012 0.46295 0.28827 0.0
N2077 N 0.71425 0.47062 0.27003 0.0
C2078 C 0.73045 0.44469 0.2872 0.0
C2079 C 0.72927 0.44164 0.2487 0.0
C2080 C 0.719 0.45986 0.25043 0.0
C2081 C 0.73538 0.43301 0.26712 0.0
H2082 H 0.71681 0.47091 0.30411 0.0
H2083 H 0.71489 0.46534 0.23565 0.0
O2084 O 0.66907 0.54391 0.27641 0.0
O2085 O 0.70193 0.52442 0.29936 0.0
O2086 O 0.6653 0.4935 0.26964 0.0
O2087 O 0.69997 0.51989 0.2484 0.0
H2088 H 0.67254 0.56857 0.24597 0.0
H2089 H 0.6333 0.54348 0.29243 0.0
H2090 H 0.64601 0.58781 0.23466 0.0
H2091 H 0.60742 0.56317 0.28031 0.0
H2092 H 0.77096 0.53946 0.31759 0.0
H2093 H 0.70585 0.56414 0.32477 0.0
H2094 H 0.73849 0.51473 0.29806 0.0
H2095 H 0.73884 0.58792 0.34396 0.0
H2096 H 0.60992 0.50708 0.34984 0.0
H2097 H 0.66798 0.54886 0.38031 0.0
H2098 H 0.76315 0.60952 0.27244 0.0
H2099 H 0.70626 0.62839 0.28647 0.0
H2100 H 0.6663 0.45301 0.24894 0.0
H2101 H 0.62655 0.49623 0.27194 0.0
H2102 H 0.63535 0.42279 0.23426 0.0
H2103 H 0.59628 0.46524 0.25691 0.0
H2104 H 0.70034 0.55255 0.22662 0.0
H2105 H 0.73685 0.51095 0.25002 0.0
H2106 H 0.7307 0.57111 0.21033 0.0
H2107 H 0.76663 0.53031 0.2334 0.0
H2108 H 0.60473 0.52564 0.19923 0.0
H2109 H 0.65967 0.52584 0.16646 0.0
H2110 H 0.73429 0.43962 0.3023 0.0
H2111 H 0.73255 0.43461 0.23254 0.0
Tb2112 Tb 0.03931 0.03121 0.0119 0.0
C2113 C 0.09275 0.11288 0.07094 0.0
C2114 C 0.09658 0.14122 0.04895 0.0
C2115 C 0.09715 0.15182 0.0884 0.0
C2116 C 0.09312 0.11859 0.05074 0.0
C2117 C 0.09546 0.12943 0.09013 0.0
C2118 C 0.09771 0.15772 0.0678 0.0
C2119 C 0.09747 0.10096 0.11109 0.0
N2120 N 0.09164 0.09119 0.0718 0.0
C2121 C 0.0949 0.0852 0.09157 0.0
C2122 C 0.09738 0.12312 0.11039 0.0
Tb2123 Tb 0.08598 0.06613 0.03896 0.0
N2124 N 0.09261 0.10218 0.03315 0.0
C2125 C 0.09813 0.10774 0.01374 0.0
C2126 C 0.10013 0.14667 0.02855 0.0
C2127 C 0.10151 0.12991 0.01103 0.0
H2128 H 0.09479 0.06809 0.09239 0.0
H2129 H 0.10508 0.13401 0.99536 0.0
H2130 H 0.10002 0.17515 0.06672 0.0
H2131 H 0.09946 0.09598 0.12665 0.0
H2132 H 0.09925 0.09515 0.9999 0.0
H2133 H 0.02399 0.96321 0.05586 0.0
H2134 H 0.10284 0.16384 0.02644 0.0
H2135 H 0.02745 0.02924 0.95894 0.0
H2136 H 0.02948 1.00211 0.05159 0.0
H2137 H 0.02121 1.00148 0.92454 0.0
H2138 H 0.09895 0.16478 0.10292 0.0
H2139 H 0.02399 0.93332 0.02399 0.0
H2140 H 0.02438 0.92204 0.98327 0.0
H2141 H 0.09949 0.13533 0.12552 0.0
H2142 H 0.02344 0.93254 0.94712 0.0
N2143 N 0.03344 0.99504 0.01753 0.0
C2144 C 0.02948 0.9895 0.03735 0.0
C2145 C 0.02647 0.9505 0.02196 0.0
C2146 C 0.02865 0.95598 1.00137 0.0
C2147 C 0.02635 0.9673 0.03994 0.0
C2148 C 0.03185 0.97863 0.99969 0.0
H2149 H 0.02161 0.96211 0.92501 0.0
N2150 N 0.03208 1.00612 0.97903 0.0
C2151 C 0.02412 0.99645 0.93991 0.0
C2152 C 0.03116 0.98442 0.97958 0.0
C2153 C 0.02763 0.01215 0.95955 0.0
C2154 C 0.02447 0.97428 0.94022 0.0
C2155 C 0.02751 0.9679 0.96028 0.0
O2156 O 0.01312 0.03937 0.99811 0.0
O2157 O 0.05673 0.06581 0.02213 0.0
O2158 O 0.06206 0.07192 0.06164 0.0
O2159 O 0.03638 0.04009 0.04852 0.0
O2160 O 0.0397 0.057 0.99242 0.0
O2161 O 0.01202 0.0255 0.02719 0.0
O2162 O 0.11185 0.05923 0.05497 0.0
O2163 O 0.06906 0.03152 0.02771 0.0
O2164 O 0.06228 0.02711 0.98708 0.0
O2165 O 0.08921 0.05713 1.00283 0.0
O2166 O 0.08412 0.03984 0.0583 0.0
O2167 O 0.11391 0.07098 0.02477 0.0
C2168 C 0.05164 0.07355 1.00543 0.0
C2169 C 0.98101 0.01904 1.00467 0.0
C2170 C 0.94434 0.01781 0.99991 0.0
C2171 C 0.9646 0.02947 0.00753 0.0
C2172 C 0.94071 0.99518 0.98971 0.0
C2173 C 0.97731 0.99653 0.99438 0.0
C2174 C 0.95715 0.98464 0.987 0.0
C2175 C 0.04487 0.05773 0.06445 0.0
C2176 C 1.00169 0.03241 0.01266 0.0
C2177 C 0.02597 0.94547 0.96175 0.0
C2178 C 0.02653 0.9395 0.98232 0.0
C2179 C 0.07325 0.02333 0.04428 0.0
C2180 C 0.14404 0.08019 0.04905 0.0
C2181 C 0.16144 0.07107 0.04828 0.0
C2182 C 0.18117 0.08473 0.05512 0.0
C2183 C 0.18327 0.10769 0.06295 0.0
C2184 C 0.14631 0.1031 0.05705 0.0
C2185 C 0.16587 0.11676 0.06402 0.0
C2186 C 0.08031 0.04092 0.98576 0.0
C2187 C 0.1239 0.06552 0.04061 0.0
H2188 H 0.96768 0.04679 0.01591 0.0
H2189 H 0.92526 0.98577 0.98355 0.0
H2190 H 0.98988 0.98821 0.99211 0.0
H2191 H 0.95426 0.96725 0.97904 0.0
H2192 H 0.15966 0.05339 0.04181 0.0
H2193 H 0.19831 0.11855 0.06838 0.0
H2194 H 0.13306 0.11044 0.05769 0.0
H2195 H 0.16758 0.13445 0.07013 0.0
Tb2196 Tb 0.3218 0.77871 0.24516 0.0
C2197 C 0.28067 0.84046 0.30823 0.0
C2198 C 0.30779 0.8729 0.32337 0.0
C2199 C 0.27223 0.87629 0.32061 0.0
C2200 C 0.30124 0.85003 0.31379 0.0
C2201 C 0.2658 0.85327 0.31209 0.0
C2202 C 0.29322 0.8861 0.32623 0.0
C2203 C 0.23946 0.81926 0.30107 0.0
N2204 N 0.27516 0.81819 0.30036 0.0
C2205 C 0.25482 0.80729 0.29761 0.0
C2206 C 0.24497 0.84242 0.30801 0.0
Tb2207 Tb 0.30122 0.79983 0.29491 0.0
N2208 N 0.31474 0.83662 0.31087 0.0
C2209 C 0.33498 0.84485 0.31888 0.0
C2210 C 0.32868 0.88164 0.33031 0.0
C2211 C 0.34227 0.86745 0.32835 0.0
H2212 H 0.25038 0.78941 0.2921 0.0
H2213 H 0.35842 0.87393 0.33403 0.0
H2214 H 0.29796 0.90376 0.33332 0.0
H2215 H 0.2234 0.81061 0.29831 0.0
H2216 H 0.34586 0.83434 0.31746 0.0
H2217 H 0.26604 0.70323 0.20671 0.0
H2218 H 0.33437 0.89914 0.33764 0.0
H2219 H 0.3728 0.79037 0.24912 0.0
H2220 H 0.2778 0.74316 0.22252 0.0
H2221 H 0.40035 0.76985 0.24388 0.0
H2222 H 0.26107 0.8865 0.32349 0.0
H2223 H 0.29076 0.67878 0.20411 0.0
H2224 H 0.32745 0.67519 0.20907 0.0
H2225 H 0.23305 0.85166 0.31076 0.0
H2226 H 0.36413 0.69336 0.21914 0.0
N2227 N 0.30906 0.74171 0.22969 0.0
C2228 C 0.28893 0.73293 0.22153 0.0
C2229 C 0.29608 0.6964 0.21112 0.0
C2230 C 0.31687 0.70571 0.21818 0.0
C2231 C 0.2821 0.71016 0.2125 0.0
C2232 C 0.32294 0.72872 0.22731 0.0
H2233 H 0.39152 0.72876 0.23179 0.0
N2234 N 0.34848 0.76116 0.24065 0.0
C2235 C 0.38439 0.76088 0.24087 0.0
C2236 C 0.34341 0.73881 0.23302 0.0
C2237 C 0.3687 0.77247 0.24378 0.0
C2238 C 0.37934 0.73769 0.23411 0.0
C2239 C 0.35863 0.72639 0.22974 0.0
O2240 O 0.33864 0.79679 0.22431 0.0
O2241 O 0.31716 0.80708 0.26755 0.0
O2242 O 0.28263 0.80737 0.2678 0.0
O2243 O 0.28955 0.78181 0.23857 0.0
O2244 O 0.34491 0.81025 0.25504 0.0
O2245 O 0.30801 0.77636 0.21354 0.0
O2246 O 0.28372 0.78225 0.31572 0.0
O2247 O 0.30555 0.7715 0.27234 0.0
O2248 O 0.33933 0.77019 0.27203 0.0
O2249 O 0.3336 0.79614 0.30158 0.0
O2250 O 0.27788 0.76852 0.28496 0.0
O2251 O 0.3153 0.80015 0.32584 0.0
C2252 C 0.33396 0.82059 0.26749 0.0
C2253 C 0.33065 0.78224 0.18668 0.0
C2254 C 0.33339 0.78934 0.14986 0.0
C2255 C 0.32577 0.79323 0.1703 0.0
C2256 C 0.34506 0.77306 0.14563 0.0
C2257 C 0.34229 0.76607 0.18243 0.0
C2258 C 0.34929 0.76135 0.16181 0.0
C2259 C 0.27848 0.796 0.24723 0.0
C2260 C 0.32415 0.78924 0.20819 0.0
C2261 C 0.35269 0.70327 0.22158 0.0
C2262 C 0.33182 0.69293 0.21584 0.0
C2263 C 0.28869 0.75808 0.27241 0.0
C2264 C 0.29339 0.79523 0.35337 0.0
C2265 C 0.29622 0.78201 0.36845 0.0
C2266 C 0.29202 0.78789 0.39013 0.0
C2267 C 0.28437 0.8071 0.39649 0.0
C2268 C 0.28599 0.81452 0.35972 0.0
C2269 C 0.2814 0.82036 0.38128 0.0
C2270 C 0.34411 0.78149 0.29251 0.0
C2271 C 0.29871 0.78818 0.33136 0.0
H2272 H 0.31625 0.80524 0.17378 0.0
H2273 H 0.35134 0.76975 0.13009 0.0
H2274 H 0.34615 0.75737 0.19497 0.0
H2275 H 0.35838 0.74896 0.15853 0.0
H2276 H 0.30159 0.7669 0.36314 0.0
H2277 H 0.28094 0.81197 0.41316 0.0
H2278 H 0.28377 0.82494 0.34815 0.0
H2279 H 0.27563 0.83522 0.38624 0.0
Tb2280 Tb 0.58833 0.05118 0.51585 0.0
C2281 C 0.51399 1.00596 0.55729 0.0
C2282 C 0.49858 0.97263 0.53043 0.0
C2283 C 0.49515 0.97306 0.56903 0.0
C2284 C 0.5103 0.99481 0.53586 0.0
C2285 C 0.50616 0.99544 0.57416 0.0
C2286 C 0.49138 0.96166 0.54718 0.0
C2287 C 0.51937 0.0304 0.59955 0.0
N2288 N 0.52453 0.02755 0.56148 0.0
C2289 C 0.52671 0.04011 0.5822 0.0
C2290 C 0.50922 1.00789 0.59556 0.0
Tb2291 Tb 0.53659 0.04185 0.53219 0.0
N2292 N 0.5174 1.00609 0.52023 0.0
C2293 C 0.51201 0.99655 0.49858 0.0
C2294 C 0.49406 0.96238 0.50834 0.0
C2295 C 0.50058 0.97451 0.49234 0.0
H2296 H 0.53463 0.05749 0.5855 0.0
H2297 H 0.49687 0.96689 0.47518 0.0
H2298 H 0.4825 0.94456 0.54337 0.0
H2299 H 0.52152 0.04029 0.61598 0.0
H2300 H 0.51691 1.00555 0.48592 0.0
H2301 H 0.63075 0.12789 0.56864 0.0
H2302 H 0.48518 0.94533 0.50346 0.0
H2303 H 0.59141 0.032 0.46314 0.0
H2304 H 0.61104 0.08902 0.56019 0.0
H2305 H 0.60394 0.047 0.43141 0.0
H2306 H 0.48913 0.96459 0.58177 0.0
H2307 H 0.64005 0.14806 0.53874 0.0
H2308 H 0.64095 0.14671 0.49829 0.0
H2309 H 0.50346 1.00042 0.60901 0.0
H2310 H 0.63392 0.12449 0.46074 0.0
N2311 N 0.60802 0.08704 0.52564 0.0
C2312 C 0.61476 0.09743 0.54684 0.0
C2313 C 0.63122 0.13094 0.53488 0.0
C2314 C 0.62575 0.11968 0.51318 0.0
C2315 C 0.62607 0.11959 0.55178 0.0
C2316 C 0.61417 0.09744 0.5091 0.0
H2317 H 0.62052 0.08707 0.43566 0.0
N2318 N 0.6002 0.06337 0.48537 0.0
C2319 C 0.60569 0.05796 0.44727 0.0
C2320 C 0.61026 0.08508 0.48815 0.0
C2321 C 0.59859 0.04951 0.46539 0.0
C2322 C 0.61499 0.08059 0.44971 0.0
C2323 C 0.61771 0.0944 0.47044 0.0
O2324 O 0.60455 0.02623 0.50592 0.0
O2325 O 0.56112 0.0266 0.5203 0.0
O2326 O 0.55589 0.03122 0.55576 0.0
O2327 O 0.58748 0.05346 0.55116 0.0
O2328 O 0.57554 0.01912 0.4933 0.0
O2329 O 0.61552 0.05109 0.53488 0.0
O2330 O 0.51816 0.06386 0.54457 0.0
O2331 O 0.56401 0.06643 0.52877 0.0
O2332 O 0.56999 0.063 0.49244 0.0
O2333 O 0.53756 0.0426 0.49726 0.0
O2334 O 0.54777 0.07418 0.55456 0.0
O2335 O 0.51086 0.04373 0.51218 0.0
C2336 C 0.56072 0.01118 0.50386 0.0
C2337 C 0.64031 0.03532 0.51583 0.0
C2338 C 0.67166 0.02082 0.51504 0.0
C2339 C 0.65195 0.02069 0.52214 0.0
C2340 C 0.67957 0.03596 0.50182 0.0
C2341 C 0.6487 0.0504 0.50285 0.0
C2342 C 0.66822 0.0507 0.49592 0.0
C2343 C 0.57523 0.04143 0.56261 0.0
C2344 C 0.6191 0.0339 0.52188 0.0
C2345 C 0.62825 0.11691 0.47415 0.0
C2346 C 0.63224 0.12957 0.49552 0.0
C2347 C 0.56334 0.08191 0.5449 0.0
C2348 C 0.48321 0.05448 0.52993 0.0
C2349 C 0.47227 0.07096 0.52727 0.0
C2350 C 0.45091 0.06718 0.52927 0.0
C2351 C 0.44084 0.04673 0.5342 0.0
C2352 C 0.47276 0.03432 0.53487 0.0
C2353 C 0.45171 0.03052 0.53701 0.0
C2354 C 0.55006 0.05537 0.48659 0.0
C2355 C 0.50534 0.05832 0.52693 0.0
H2356 H 0.64551 0.00893 0.53209 0.0
H2357 H 0.69471 0.03661 0.49628 0.0
H2358 H 0.64013 0.0618 0.4979 0.0
H2359 H 0.67454 0.06235 0.48584 0.0
H2360 H 0.48031 0.08648 0.52326 0.0
H2361 H 0.42454 0.04336 0.53618 0.0
H2362 H 0.48083 0.02148 0.53695 0.0
H2363 H 0.44374 0.0149 0.54084 0.0
Tb2364 Tb 0.28653 0.30267 0.77353 0.0
C2365 C 0.35207 0.26334 0.8132 0.0
C2366 C 0.36527 0.28925 0.84715 0.0
C2367 C 0.36498 0.2499 0.84419 0.0
C2368 C 0.35598 0.28464 0.82546 0.0
C2369 C 0.35719 0.24582 0.8221 0.0
C2370 C 0.369 0.27162 0.85673 0.0
C2371 C 0.34914 0.22252 0.786 0.0
N2372 N 0.34493 0.26029 0.79187 0.0
C2373 C 0.34436 0.24048 0.77795 0.0
C2374 C 0.35522 0.22506 0.80827 0.0
Tb2375 Tb 0.33651 0.29038 0.78032 0.0
N2376 N 0.35269 0.30117 0.81532 0.0
C2377 C 0.36067 0.32297 0.82522 0.0
C2378 C 0.37162 0.31151 0.85806 0.0
C2379 C 0.36981 0.32846 0.84682 0.0
H2380 H 0.33963 0.23824 0.76073 0.0
H2381 H 0.37537 0.34578 0.85479 0.0
H2382 H 0.37584 0.27477 0.87348 0.0
H2383 H 0.34811 0.20672 0.77504 0.0
H2384 H 0.35943 0.33638 0.81691 0.0
H2385 H 0.25144 0.24278 0.7 0.0
H2386 H 0.37878 0.31579 0.87475 0.0
H2387 H 0.28144 0.35448 0.78981 0.0
H2388 H 0.26668 0.25458 0.73798 0.0
H2389 H 0.2719 0.38428 0.77324 0.0
H2390 H 0.36875 0.23661 0.85146 0.0
H2391 H 0.24619 0.27088 0.67832 0.0
H2392 H 0.24707 0.31114 0.6774 0.0
H2393 H 0.35902 0.21116 0.81445 0.0
H2394 H 0.25254 0.34995 0.69751 0.0
N2395 N 0.271 0.28952 0.73829 0.0
C2396 C 0.26455 0.26727 0.72909 0.0
C2397 C 0.25298 0.27627 0.69514 0.0
C2398 C 0.25803 0.29886 0.70512 0.0
C2399 C 0.25583 0.26037 0.70735 0.0
C2400 C 0.26692 0.30493 0.72702 0.0
H2401 H 0.2613 0.37732 0.7335 0.0
N2402 N 0.27679 0.33091 0.75967 0.0
C2403 C 0.27137 0.36813 0.76314 0.0
C2404 C 0.26994 0.32653 0.73819 0.0
C2405 C 0.27667 0.35114 0.77248 0.0
C2406 C 0.2655 0.36418 0.74069 0.0
C2407 C 0.26427 0.343 0.72799 0.0
O2408 O 0.26638 0.31332 0.79597 0.0
O2409 O 0.31108 0.29998 0.7966 0.0
O2410 O 0.31455 0.26212 0.78932 0.0
O2411 O 0.2834 0.26592 0.77345 0.0
O2412 O 0.29652 0.32569 0.80462 0.0
O2413 O 0.25904 0.28019 0.77694 0.0
O2414 O 0.35468 0.28151 0.75503 0.0
O2415 O 0.31247 0.29448 0.75744 0.0
O2416 O 0.30907 0.33266 0.76699 0.0
O2417 O 0.3399 0.32692 0.78186 0.0
O2418 O 0.32513 0.26755 0.74921 0.0
O2419 O 0.36609 0.31067 0.77976 0.0
C2420 C 0.31053 0.31669 0.81141 0.0
C2421 C 0.23092 0.29597 0.7872 0.0
C2422 C 0.19622 0.29372 0.79936 0.0
C2423 C 0.21724 0.29344 0.80357 0.0
C2424 C 0.18939 0.29697 0.77869 0.0
C2425 C 0.22352 0.29921 0.76685 0.0
C2426 C 0.20293 0.29974 0.76268 0.0
C2427 C 0.29472 0.25383 0.78222 0.0
C2428 C 0.25268 0.29459 0.79109 0.0
C2429 C 0.25673 0.33749 0.70575 0.0
C2430 C 0.25363 0.3154 0.69431 0.0
C2431 C 0.31223 0.27789 0.7423 0.0
C2432 C 0.39077 0.29242 0.76337 0.0
C2433 C 0.40487 0.2984 0.74819 0.0
C2434 C 0.42385 0.29176 0.74823 0.0
C2435 C 0.42848 0.27936 0.76374 0.0
C2436 C 0.39608 0.28038 0.77884 0.0
C2437 C 0.41477 0.27387 0.77898 0.0
C2438 C 0.32914 0.34 0.774 0.0
C2439 C 0.37031 0.29801 0.76251 0.0
H2440 H 0.22284 0.29082 0.81931 0.0
H2441 H 0.17354 0.29766 0.77495 0.0
H2442 H 0.23362 0.30116 0.75409 0.0
H2443 H 0.1974 0.30228 0.7469 0.0
H2444 H 0.40095 0.30776 0.73619 0.0
H2445 H 0.44293 0.27415 0.76428 0.0
H2446 H 0.38577 0.27591 0.79079 0.0
H2447 H 0.41865 0.26449 0.79094 0.0
Tb2448 Tb 0.05303 0.06995 0.53665 0.0
C2449 C 0.09063 0.01072 0.46989 0.0
C2450 C 0.0657 1.00072 0.43808 0.0
C2451 C 0.10175 1.00183 0.43361 0.0
C2452 C 0.0707 1.00748 0.46091 0.0
C2453 C 0.1064 1.00759 0.45643 0.0
C2454 C 0.08141 0.99838 0.42444 0.0
C2455 C 0.12979 0.01443 0.4891 0.0
N2456 N 0.09438 0.01609 0.49197 0.0
C2457 C 0.1136 0.01726 0.50174 0.0
C2458 C 0.12625 0.00984 0.46633 0.0
Tb2459 Tb 0.06712 0.02178 0.51136 0.0
N2460 N 0.05604 0.00978 0.47469 0.0
C2461 C 0.0357 1.00373 0.46662 0.0
C2462 C 0.04503 0.99587 0.42972 0.0
C2463 C 0.02994 0.99705 0.44411 0.0
H2464 H 0.11678 0.02092 0.51928 0.0
H2465 H 0.01385 0.99289 0.43788 0.0
H2466 H 0.07791 0.99341 0.40685 0.0
H2467 H 0.14502 0.01587 0.49696 0.0
H2468 H 0.02366 1.00449 0.47727 0.0
H2469 H 0.10525 0.09792 0.61093 0.0
H2470 H 0.04054 0.99067 0.41229 0.0
H2471 H 1.0036 0.0717 0.52799 0.0
H2472 H 0.09599 0.08685 0.57138 0.0
H2473 H 0.97509 0.0768 0.54985 0.0
H2474 H 0.11368 0.99952 0.42297 0.0
H2475 H 0.07814 0.09974 0.63606 0.0
H2476 H 0.04065 0.09702 0.64088 0.0
H2477 H 0.13881 1.00761 0.45658 0.0
H2478 H 1.00515 0.09143 0.62421 0.0
N2479 N 0.06355 0.08142 0.57347 0.0
C2480 C 0.0838 0.08743 0.58186 0.0
C2481 C 0.0739 0.09475 0.61857 0.0
C2482 C 0.05333 0.09002 0.60988 0.0
C2483 C 0.08923 0.09381 0.60445 0.0
C2484 C 0.04866 0.08354 0.58699 0.0
H2485 H 0.9806 0.08422 0.59025 0.0
N2486 N 0.02547 0.07558 0.55558 0.0
C2487 C 0.99014 0.07782 0.55792 0.0
C2488 C 0.02888 0.08058 0.57771 0.0
C2489 C 1.00649 0.07492 0.54555 0.0
C2490 C 0.99329 0.08195 0.58071 0.0
C2491 C 0.01292 0.08373 0.5909 0.0
O2492 O 0.04361 0.09478 0.52256 0.0
O2493 O 0.05591 0.05049 0.50424 0.0
O2494 O 0.09039 0.04921 0.50397 0.0
O2495 O 0.08625 0.07574 0.53323 0.0
O2496 O 0.03022 0.06225 0.50771 0.0
O2497 O 0.07277 0.10184 0.54196 0.0
O2498 O 0.07729 0.99699 0.52496 0.0
O2499 O 0.06436 0.04128 0.5437 0.0
O2500 O 0.02971 0.0427 0.54412 0.0
O2501 O 0.03388 0.01594 0.51504 0.0
O2502 O 0.09006 0.02954 0.54019 0.0
O2503 O 0.04716 0.99023 0.50743 0.0
C2504 C 0.03935 0.05177 0.49322 0.0
C2505 C 0.05832 0.13239 0.53833 0.0
C2506 C 0.06236 0.17019 0.5316 0.0
C2507 C 0.06418 0.14806 0.52516 0.0
C2508 C 0.05481 0.17649 0.55181 0.0
C2509 C 0.05075 0.13876 0.55836 0.0
C2510 C 0.04906 0.16083 0.56507 0.0
C2511 C 0.09705 0.06869 0.51744 0.0
C2512 C 0.06037 0.10964 0.53032 0.0
C2513 C 0.01722 0.08912 0.61377 0.0
C2514 C 0.03742 0.09228 0.62325 0.0
C2515 C 0.08093 0.03999 0.55471 0.0
C2516 C 0.06047 0.95909 0.51208 0.0
C2517 C 0.05777 0.94594 0.52804 0.0
C2518 C 0.05659 0.92294 0.52267 0.0
C2519 C 0.05825 0.91319 0.50092 0.0
C2520 C 0.06232 0.94935 0.49048 0.0
C2521 C 0.06125 0.9264 0.48497 0.0
C2522 C 0.02313 0.02309 0.53086 0.0
C2523 C 0.05994 0.98255 0.51871 0.0
H2524 H 0.07036 0.14295 0.50986 0.0
H2525 H 0.05306 0.19338 0.5572 0.0
H2526 H 0.04619 0.12677 0.5687 0.0
H2527 H 0.04319 0.16579 0.58054 0.0
H2528 H 0.05596 0.95359 0.54464 0.0
H2529 H 0.0574 0.89545 0.49632 0.0
H2530 H 0.06433 0.95938 0.47798 0.0
H2531 H 0.06259 0.9188 0.46828 0.0
Tb2532 Tb 0.33287 0.81337 0.7724 0.0
C2533 C 0.27423 0.74828 0.81204 0.0
C2534 C 0.28426 0.71356 0.79961 0.0
C2535 C 0.26839 0.71922 0.83358 0.0
C2536 C 0.28326 0.73529 0.79712 0.0
C2537 C 0.26604 0.74014 0.83007 0.0
C2538 C 0.27751 0.70593 0.81836 0.0
C2539 C 0.25131 0.7724 0.83791 0.0
N2540 N 0.27181 0.76809 0.8077 0.0
C2541 C 0.25973 0.77975 0.8198 0.0
C2542 C 0.25483 0.75274 0.84334 0.0
Tb2543 Tb 0.28595 0.77873 0.77757 0.0
N2544 N 0.28881 0.74297 0.77886 0.0
C2545 C 0.29375 0.72884 0.76158 0.0
C2546 C 0.29086 0.6997 0.78263 0.0
C2547 C 0.29521 0.70724 0.76334 0.0
H2548 H 0.25685 0.79499 0.8159 0.0
H2549 H 0.29974 0.69644 0.74982 0.0
H2550 H 0.27842 0.68942 0.82073 0.0
H2551 H 0.24217 0.78197 0.84769 0.0
H2552 H 0.29713 0.73424 0.74647 0.0
H2553 H 0.32019 0.89634 0.79909 0.0
H2554 H 0.29186 0.68291 0.7839 0.0
H2555 H 0.36069 0.79483 0.7333 0.0
H2556 H 0.32089 0.85813 0.80235 0.0
H2557 H 0.37669 0.80753 0.70219 0.0
H2558 H 0.26243 0.71277 0.84749 0.0
H2559 H 0.33118 0.91035 0.76608 0.0
H2560 H 0.34659 0.90385 0.73041 0.0
H2561 H 0.24821 0.74703 0.85731 0.0
H2562 H 0.36221 0.87969 0.70406 0.0
N2563 N 0.3314 0.84952 0.77097 0.0
C2564 C 0.32569 0.86365 0.78771 0.0
C2565 C 0.33142 0.89335 0.76733 0.0
C2566 C 0.33859 0.87941 0.75091 0.0
C2567 C 0.32529 0.88554 0.786 0.0
C2568 C 0.33854 0.8574 0.75335 0.0
H2569 H 0.37392 0.84395 0.69368 0.0
N2570 N 0.34811 0.82347 0.74252 0.0
C2571 C 0.36836 0.8179 0.71222 0.0
C2572 C 0.34736 0.84395 0.73866 0.0
C2573 C 0.35913 0.81074 0.73001 0.0
C2574 C 0.36672 0.83842 0.70744 0.0
C2575 C 0.35641 0.85191 0.72092 0.0
O2576 O 0.3631 0.80946 0.77828 0.0
O2577 O 0.3195 0.78067 0.78088 0.0
O2578 O 0.30068 0.78975 0.81086 0.0
O2579 O 0.32307 0.82134 0.80506 0.0
O2580 O 0.34208 0.78164 0.76084 0.0
O2581 O 0.35249 0.83577 0.79815 0.0
O2582 O 0.25556 0.78238 0.77188 0.0
O2583 O 0.29938 0.81135 0.76924 0.0
O2584 O 0.31753 0.804 0.73939 0.0
O2585 O 0.29553 0.77185 0.74459 0.0
O2586 O 0.27628 0.81035 0.78868 0.0
O2587 O 0.26575 0.75546 0.75279 0.0
C2588 C 0.33083 0.76825 0.77093 0.0
C2589 C 0.38757 0.843 0.79129 0.0
C2590 C 0.42496 0.85047 0.79144 0.0
C2591 C 0.40612 0.83614 0.79334 0.0
C2592 C 0.42491 0.87183 0.78725 0.0
C2593 C 0.38783 0.86436 0.78709 0.0
C2594 C 0.40644 0.87864 0.78503 0.0
C2595 C 0.31313 0.80944 0.81817 0.0
C2596 C 0.36826 0.8274 0.79338 0.0
C2597 C 0.35552 0.87334 0.7177 0.0
C2598 C 0.3466 0.88708 0.73268 0.0
C2599 C 0.28792 0.82379 0.77888 0.0
C2600 C 0.231 0.74861 0.76069 0.0
C2601 C 0.21183 0.75242 0.75406 0.0
C2602 C 0.19339 0.73858 0.75806 0.0
C2603 C 0.19457 0.72118 0.76926 0.0
C2604 C 0.23166 0.73058 0.77098 0.0
C2605 C 0.21357 0.71714 0.77547 0.0
C2606 C 0.30479 0.78456 0.7317 0.0
C2607 C 0.25006 0.764 0.7574 0.0
H2608 H 0.4058 0.81949 0.79623 0.0
H2609 H 0.43916 0.88343 0.78604 0.0
H2610 H 0.37376 0.87009 0.78549 0.0
H2611 H 0.40657 0.89512 0.78188 0.0
H2612 H 0.21139 0.76595 0.74551 0.0
H2613 H 0.1808 0.71061 0.77324 0.0
H2614 H 0.2461 0.72682 0.77557 0.0
H2615 H 0.21427 0.70351 0.78376 0.0
Tb2616 Tb 0.57552 0.03907 0.0581 0.0
C2617 C 0.52199 0.06857 0.99039 0.0
C2618 C 0.49407 0.03645 0.97671 0.0
C2619 C 0.48882 0.07381 0.97715 0.0
C2620 C 0.51453 0.0458 0.98588 0.0
C2621 C 0.50941 0.0829 0.98569 0.0
C2622 C 0.48115 0.0506 0.97268 0.0
C2623 C 0.53897 0.11381 0.99649 0.0
N2624 N 0.54197 0.07661 0.99847 0.0
C2625 C 0.55085 0.09885 1.00068 0.0
C2626 C 0.51808 0.10584 0.9892 0.0
Tb2627 Tb 0.56007 0.05098 1.00543 0.0
N2628 N 0.52749 0.03279 0.99015 0.0
C2629 C 0.52122 0.01004 0.98442 0.0
C2630 C 0.48732 0.01319 0.9717 0.0
C2631 C 0.50102 0.99993 0.9754 0.0
H2632 H 0.56697 0.10516 0.00638 0.0
H2633 H 0.49603 0.98192 0.97137 0.0
H2634 H 0.46533 0.04376 0.9658 0.0
H2635 H 0.54593 0.13147 0.99886 0.0
H2636 H 0.53152 0.99948 0.98721 0.0
H2637 H 0.63911 0.1051 0.09981 0.0
H2638 H 0.47168 1.00532 0.96474 0.0
H2639 H 0.56738 0.9842 0.0543 0.0
H2640 H 0.60404 0.08912 0.08207 0.0
H2641 H 0.58746 0.95675 0.06048 0.0
H2642 H 0.47882 0.08453 0.97357 0.0
H2643 H 0.66341 0.08075 0.10271 0.0
H2644 H 0.66942 0.04184 0.09752 0.0
H2645 H 0.50893 0.11744 0.98586 0.0
H2646 H 0.6552 1.00126 0.08716 0.0
N2647 N 0.60808 0.05579 0.07459 0.0
C2648 C 0.61425 0.07812 0.08327 0.0
C2649 C 0.64792 0.07356 0.09495 0.0
C2650 C 0.64115 0.05054 0.08727 0.0
C2651 C 0.63423 0.08733 0.09342 0.0
C2652 C 0.62082 0.04209 0.07733 0.0
H2653 H 0.62446 0.96934 0.07382 0.0
N2654 N 0.5928 0.01224 0.06365 0.0
C2655 C 0.59482 0.97434 0.06367 0.0
C2656 C 0.61287 0.01944 0.07174 0.0
C2657 C 0.58346 0.99001 0.06025 0.0
C2658 C 0.61572 0.9815 0.07113 0.0
C2659 C 0.62494 1.00434 0.07557 0.0
O2660 O 0.55784 0.02353 0.08004 0.0
O2661 O 0.55096 0.03801 0.03383 0.0
O2662 O 0.5486 0.07268 0.03053 0.0
O2663 O 0.5711 0.07341 0.06096 0.0
O2664 O 0.54786 0.01184 0.04918 0.0
O2665 O 0.57214 0.05883 0.08799 0.0
O2666 O 0.57851 0.06576 0.98361 0.0
O2667 O 0.58403 0.05296 0.03028 0.0
O2668 O 0.58966 0.02022 0.03303 0.0
O2669 O 0.56605 0.0173 1.00318 0.0
O2670 O 0.58821 0.07804 0.01342 0.0
O2671 O 0.56206 0.03115 0.97503 0.0
C2672 C 0.53868 0.02022 0.03528 0.0
C2673 C 0.56771 0.0398 0.11706 0.0
C2674 C 0.56026 0.04346 0.15493 0.0
C2675 C 0.55546 0.04571 0.13344 0.0
C2676 C 0.57761 0.03524 0.15991 0.0
C2677 C 0.58509 0.03177 0.12212 0.0
C2678 C 0.59002 0.02954 0.14353 0.0
C2679 C 0.5576 0.08173 0.05049 0.0
C2680 C 0.56157 0.04182 0.09486 0.0
C2681 C 0.64558 0.01258 0.08428 0.0
C2682 C 0.65368 0.03568 0.09014 0.0
C2683 C 0.59647 0.07054 0.02872 0.0
C2684 C 0.5682 0.05078 0.94645 0.0
C2685 C 0.58023 0.0445 0.92995 0.0
C2686 C 0.57647 0.04856 0.90894 0.0
C2687 C 0.56033 0.05875 0.90444 0.0
C2688 C 0.55195 0.06072 0.94182 0.0
C2689 C 0.54801 0.06462 0.92082 0.0
C2690 C 0.58135 0.01091 0.01288 0.0
C2691 C 0.57373 0.04772 0.96847 0.0
H2692 H 0.54184 0.05154 0.1293 0.0
H2693 H 0.58156 0.0333 0.1764 0.0
H2694 H 0.59467 0.02706 0.10962 0.0
H2695 H 0.6034 0.02325 0.1474 0.0
H2696 H 0.59299 0.03711 0.93366 0.0
H2697 H 0.55728 0.06212 0.88829 0.0
H2698 H 0.54255 0.06574 0.95437 0.0
H2699 H 0.53555 0.07244 0.91733 0.0
Tb2700 Tb 0.32785 0.31378 0.28428 0.0
C2701 C 0.24359 0.27622 0.2648 0.0
C2702 C 0.22798 0.25964 0.29371 0.0
C2703 C 0.20926 0.2801 0.27356 0.0
C2704 C 0.24475 0.26426 0.28112 0.0
C2705 C 0.2256 0.28394 0.26058 0.0
C2706 C 0.21046 0.268 0.29013 0.0
C2707 C 0.24016 0.2968 0.22969 0.0
N2708 N 0.25969 0.27957 0.25251 0.0
C2709 C 0.25736 0.28838 0.23414 0.0
C2710 C 0.22435 0.29495 0.24321 0.0
Tb2711 Tb 0.28768 0.2652 0.26164 0.0
N2712 N 0.26177 0.25611 0.2839 0.0
C2713 C 0.26157 0.24088 0.2973 0.0
C2714 C 0.229 0.24619 0.30912 0.0
C2715 C 0.24571 0.2364 0.31059 0.0
H2716 H 0.26793 0.28826 0.22191 0.0
H2717 H 0.24615 0.22488 0.32153 0.0
H2718 H 0.19761 0.26486 0.29982 0.0
H2719 H 0.23886 0.30413 0.21539 0.0
H2720 H 0.2733 0.23143 0.29751 0.0
H2721 H 0.36781 0.35412 0.22336 0.0
H2722 H 0.21654 0.24242 0.31918 0.0
H2723 H 0.34864 0.29146 0.32387 0.0
H2724 H 0.34152 0.34793 0.24842 0.0
H2725 H 0.37889 0.27779 0.33105 0.0
H2726 H 0.19551 0.28617 0.27071 0.0
H2727 H 0.39756 0.33672 0.22498 0.0
H2728 H 0.41766 0.31576 0.24487 0.0
H2729 H 0.21091 0.30124 0.23955 0.0
H2730 H 0.4213 0.29642 0.27523 0.0
N2731 N 0.35324 0.32297 0.26137 0.0
C2732 C 0.35318 0.33835 0.24815 0.0
C2733 C 0.38535 0.33291 0.23532 0.0
C2734 C 0.38696 0.31984 0.25095 0.0
C2735 C 0.36858 0.34266 0.2343 0.0
C2736 C 0.37047 0.31511 0.2639 0.0
H2737 H 0.40687 0.28184 0.30701 0.0
N2738 N 0.35644 0.30023 0.29316 0.0
C2739 C 0.37713 0.28467 0.31653 0.0
C2740 C 0.37235 0.30387 0.28067 0.0
C2741 C 0.35929 0.29186 0.31172 0.0
C2742 C 0.39294 0.28718 0.30308 0.0
C2743 C 0.39094 0.29739 0.28524 0.0
O2744 O 0.33602 0.3293 0.31739 0.0
O2745 O 0.29599 0.29732 0.28337 0.0
O2746 O 0.29851 0.2831 0.23552 0.0
O2747 O 0.31505 0.31928 0.25277 0.0
O2748 O 0.3023 0.33087 0.2845 0.0
O2749 O 0.34133 0.34802 0.29178 0.0
O2750 O 0.28165 0.24908 0.22843 0.0
O2751 O 0.31967 0.28157 0.26287 0.0
O2752 O 0.31758 0.29517 0.31051 0.0
O2753 O 0.30035 0.25934 0.29266 0.0
O2754 O 0.31327 0.24839 0.26328 0.0
O2755 O 0.27309 0.23122 0.254 0.0
C2756 C 0.28768 0.31368 0.28451 0.0
C2757 C 0.33368 0.36695 0.32553 0.0
C2758 C 0.31813 0.39901 0.32738 0.0
C2759 C 0.32531 0.38161 0.31513 0.0
C2760 C 0.31943 0.4017 0.35029 0.0
C2761 C 0.33496 0.36991 0.34842 0.0
C2762 C 0.32782 0.38719 0.36071 0.0
C2763 C 0.30665 0.30431 0.23496 0.0
C2764 C 0.34171 0.34902 0.31278 0.0
C2765 C 0.40707 0.3015 0.27206 0.0
C2766 C 0.40498 0.31244 0.25476 0.0
C2767 C 0.32797 0.26531 0.26272 0.0
C2768 C 0.28372 0.21133 0.22265 0.0
C2769 C 0.29579 0.20127 0.23509 0.0
C2770 C 0.30417 0.1838 0.22502 0.0
C2771 C 0.30013 0.17602 0.20233 0.0
C2772 C 0.27999 0.20361 0.19994 0.0
C2773 C 0.28813 0.18597 0.18986 0.0
C2774 C 0.30951 0.27374 0.31048 0.0
C2775 C 0.27478 0.22962 0.2332 0.0
H2776 H 0.32466 0.37976 0.2975 0.0
H2777 H 0.31379 0.41485 0.36012 0.0
H2778 H 0.34154 0.35889 0.35679 0.0
H2779 H 0.3288 0.38937 0.37836 0.0
H2780 H 0.29842 0.20666 0.25271 0.0
H2781 H 0.30641 0.16244 0.19427 0.0
H2782 H 0.2707 0.21115 0.19006 0.0
H2783 H 0.28514 0.18001 0.17234 0.0
Tb2784 Tb 0.55884 0.57452 0.03802 0.0
C2785 C 0.5842 0.50637 0.96955 0.0
C2786 C 0.55655 0.49798 0.94051 0.0
C2787 C 0.5908 0.49433 0.93191 0.0
C2788 C 0.56401 0.50524 0.96282 0.0
C2789 C 0.5978 0.50049 0.95428 0.0
C2790 C 0.57017 0.49308 0.92503 0.0
C2791 C 0.62358 0.5053 0.98452 0.0
N2792 N 0.5902 0.51213 0.99128 0.0
C2793 C 0.60944 0.51085 0.999 0.0
C2794 C 0.61782 0.50037 0.96203 0.0
Tb2795 Tb 0.56649 0.52249 0.01383 0.0
N2796 N 0.5514 0.50988 0.97836 0.0
C2797 C 0.53061 0.50564 0.9727 0.0
C2798 C 0.53553 0.49513 0.93456 0.0
C2799 C 0.52245 0.49862 0.95079 0.0
H2800 H 0.61424 0.5147 0.0163 0.0
H2801 H 0.50607 0.49598 0.94645 0.0
H2802 H 0.56479 0.4877 0.90779 0.0
H2803 H 0.63891 0.50487 0.99074 0.0
H2804 H 0.52008 0.50824 0.9848 0.0
H2805 H 0.61486 0.60137 0.10918 0.0
H2806 H 0.52917 0.48964 0.9176 0.0
H2807 H 0.51122 0.58299 0.03149 0.0
H2808 H 0.60326 0.58942 0.06999 0.0
H2809 H 0.48516 0.59336 0.0547 0.0
H2810 H 0.60104 0.48995 0.91988 0.0
H2811 H 0.58972 0.60716 0.13595 0.0
H2812 H 0.5534 0.6092 0.1428 0.0
H2813 H 0.62877 0.49599 0.95084 0.0
H2814 H 0.51803 0.60743 0.12787 0.0
N2815 N 0.57145 0.58694 0.0742 0.0
C2816 C 0.59194 0.59153 0.08134 0.0
C2817 C 0.58446 0.60166 0.11869 0.0
C2818 C 0.56377 0.59878 0.11115 0.0
C2819 C 0.59869 0.59847 0.10364 0.0
C2820 C 0.55777 0.59154 0.08852 0.0
H2821 H 0.49256 0.60202 0.09497 0.0
N2822 N 0.5335 0.58494 0.05818 0.0
C2823 C 0.49995 0.59253 0.06212 0.0
C2824 C 0.53806 0.59068 0.08019 0.0
C2825 C 0.5149 0.58656 0.04896 0.0
C2826 C 0.50416 0.59736 0.08483 0.0
C2827 C 0.52353 0.59682 0.09415 0.0
O2828 O 0.55174 0.59906 0.0218 0.0
O2829 O 0.55805 0.55233 0.00605 0.0
O2830 O 0.59136 0.5468 1.00391 0.0
O2831 O 0.59118 0.57661 0.03191 0.0
O2832 O 0.53442 0.56735 0.01052 0.0
O2833 O 0.58026 0.60531 0.04215 0.0
O2834 O 0.57564 0.49697 0.02703 0.0
O2835 O 0.56819 0.54486 0.04588 0.0
O2836 O 0.53447 0.55087 0.04885 0.0
O2837 O 0.53428 0.52055 0.0214 0.0
O2838 O 0.59127 0.52879 0.0405 0.0
O2839 O 0.54442 0.49293 0.01328 0.0
C2840 C 0.54159 0.55479 0.99579 0.0
C2841 C 0.56801 0.63656 0.03586 0.0
C2842 C 0.57378 0.67338 0.02649 0.0
C2843 C 0.57484 0.65089 0.02167 0.0
C2844 C 0.56571 0.68136 0.04588 0.0
C2845 C 0.5601 0.64464 0.05519 0.0
C2846 C 0.55898 0.66705 0.06016 0.0
C2847 C 0.59988 0.56691 0.01555 0.0
C2848 C 0.56895 0.61322 0.02939 0.0
C2849 C 0.52903 0.60286 0.11684 0.0
C2850 C 0.54914 0.60383 0.12534 0.0
C2851 C 0.58486 0.54184 0.05544 0.0
C2852 C 0.55599 0.46017 0.01511 0.0
C2853 C 0.55446 0.44666 0.03076 0.0
C2854 C 0.55193 0.42351 0.02451 0.0
C2855 C 0.55096 0.41395 1.00219 0.0
C2856 C 0.55527 0.45063 0.99291 0.0
C2857 C 0.55277 0.42751 0.98651 0.0
C2858 C 0.5256 0.5308 0.03752 0.0
C2859 C 0.55736 0.48395 0.02282 0.0
H2860 H 0.5806 0.64433 0.00656 0.0
H2861 H 0.56475 0.69866 0.05008 0.0
H2862 H 0.55474 0.63369 0.06627 0.0
H2863 H 0.55284 0.67333 0.07507 0.0
H2864 H 0.55471 0.45419 0.04788 0.0
H2865 H 0.54899 0.39609 0.99693 0.0
H2866 H 0.55641 0.46093 0.98064 0.0
H2867 H 0.55211 0.42007 0.96936 0.0
Tb2868 Tb 0.83618 0.31417 0.26567 0.0
C2869 C 0.77896 0.25877 0.31814 0.0
C2870 C 0.78673 0.22227 0.31216 0.0
C2871 C 0.77318 0.23611 0.34592 0.0
C2872 C 0.78639 0.24248 0.30534 0.0
C2873 C 0.77204 0.25577 0.3385 0.0
C2874 C 0.78048 0.21935 0.33274 0.0
C2875 C 0.76234 0.29119 0.34196 0.0
N2876 N 0.778 0.27737 0.31023 0.0
C2877 C 0.76929 0.29332 0.32158 0.0
C2878 C 0.76385 0.27241 0.35055 0.0
Tb2879 Tb 0.78988 0.27942 0.27672 0.0
N2880 N 0.79192 0.24587 0.28549 0.0
C2881 C 0.79662 0.22895 0.27095 0.0
C2882 C 0.79261 0.20534 0.29777 0.0
C2883 C 0.79724 0.20858 0.27692 0.0
H2884 H 0.76829 0.3081 0.31538 0.0
H2885 H 0.80138 0.19545 0.26546 0.0
H2886 H 0.78078 0.20402 0.33838 0.0
H2887 H 0.75588 0.30409 0.35106 0.0
H2888 H 0.80014 0.23119 0.25473 0.0
H2889 H 0.82383 0.39786 0.27912 0.0
H2890 H 0.79306 0.18955 0.30236 0.0
H2891 H 0.85862 0.28734 0.22505 0.0
H2892 H 0.82754 0.36259 0.28931 0.0
H2893 H 0.86884 0.29222 0.18916 0.0
H2894 H 0.76804 0.2335 0.36158 0.0
H2895 H 0.82911 0.40381 0.24157 0.0
H2896 H 0.83977 0.38994 0.20458 0.0
H2897 H 0.75841 0.27079 0.36631 0.0
H2898 H 0.85249 0.3613 0.18022 0.0
N2899 N 0.83342 0.34787 0.2576 0.0
C2900 C 0.82943 0.36471 0.27277 0.0
C2901 C 0.83047 0.38814 0.24591 0.0
C2902 C 0.83608 0.37153 0.23089 0.0
C2903 C 0.82752 0.38486 0.2671 0.0
C2904 C 0.83758 0.35143 0.23741 0.0
H2905 H 0.86372 0.325 0.17449 0.0
N2906 N 0.84693 0.31701 0.23148 0.0
C2907 C 0.86205 0.30453 0.19874 0.0
C2908 C 0.84487 0.33554 0.22391 0.0
C2909 C 0.8561 0.30187 0.21939 0.0
C2910 C 0.85911 0.32302 0.1905 0.0
C2911 C 0.85067 0.33897 0.20322 0.0
O2912 O 0.8658 0.31022 0.27492 0.0
O2913 O 0.82333 0.28236 0.27608 0.0
O2914 O 0.80793 0.29377 0.30811 0.0
O2915 O 0.82692 0.32542 0.2982 0.0
O2916 O 0.84724 0.28282 0.25817 0.0
O2917 O 0.85772 0.34149 0.28498 0.0
O2918 O 0.7595 0.28118 0.26848 0.0
O2919 O 0.80371 0.31252 0.27012 0.0
O2920 O 0.81688 0.30096 0.23497 0.0
O2921 O 0.79934 0.26851 0.24431 0.0
O2922 O 0.77484 0.30806 0.27797 0.0
O2923 O 0.7705 0.25228 0.25472 0.0
C2924 C 0.83526 0.26967 0.26792 0.0
C2925 C 0.89199 0.34212 0.2769 0.0
C2926 C 0.92909 0.34596 0.27633 0.0
C2927 C 0.91036 0.33695 0.28401 0.0
C2928 C 0.9291 0.36038 0.26143 0.0
C2929 C 0.89238 0.35671 0.26222 0.0
C2930 C 0.91087 0.36576 0.25455 0.0
C2931 C 0.81928 0.31434 0.31317 0.0
C2932 C 0.87253 0.33104 0.28402 0.0
C2933 C 0.84828 0.35844 0.19613 0.0
C2934 C 0.841 0.37471 0.20997 0.0
C2935 C 0.78872 0.32294 0.27227 0.0
C2936 C 0.73512 0.24738 0.26064 0.0
C2937 C 0.71682 0.25048 0.25092 0.0
C2938 C 0.6977 0.23958 0.25619 0.0
C2939 C 0.69697 0.22535 0.27127 0.0
C2940 C 0.73425 0.23281 0.27539 0.0
C2941 C 0.71521 0.22185 0.28065 0.0
C2942 C 0.80609 0.28022 0.22954 0.0
C2943 C 0.75464 0.26121 0.25654 0.0
H2944 H 0.90997 0.32591 0.29559 0.0
H2945 H 0.94315 0.36732 0.25487 0.0
H2946 H 0.87846 0.36101 0.25655 0.0
H2947 H 0.91105 0.37685 0.24307 0.0
H2948 H 0.71747 0.26195 0.23971 0.0
H2949 H 0.68234 0.21681 0.27556 0.0
H2950 H 0.74814 0.2301 0.28301 0.0
H2951 H 0.7146 0.21075 0.29216 0.0
Tb2952 Tb 0.07591 0.54257 0.55137 0.0
C2953 C 0.0166 0.56784 0.48687 0.0
C2954 C 0.98853 0.53526 0.47618 0.0
C2955 C 0.98234 0.57223 0.47646 0.0
C2956 C 0.0094 0.54503 0.4834 0.0
C2957 C 1.00331 0.58173 0.48297 0.0
C2958 C 0.97496 0.54902 0.47308 0.0
C2959 C 0.03284 0.61294 0.49019 0.0
N2960 N 0.03696 0.57628 0.49291 0.0
C2961 C 0.04542 0.5984 0.49363 0.0
C2962 C 0.01164 0.60462 0.48511 0.0
Tb2963 Tb 0.0562 0.55127 0.49874 0.0
N2964 N 0.02301 0.53238 0.48667 0.0
C2965 C 0.0169 0.50959 0.48178 0.0
C2966 C 0.98202 0.51198 0.47208 0.0
C2967 C 0.99632 0.49909 0.4747 0.0
H2968 H 0.06178 0.60494 0.49761 0.0
H2969 H 0.9915 0.48106 0.47133 0.0
H2970 H 0.95882 0.54186 0.46772 0.0
H2971 H 0.0395 0.63053 0.49143 0.0
H2972 H 0.02769 0.49934 0.48378 0.0
H2973 H 0.14184 0.61047 0.58278 0.0
H2974 H 0.96609 0.50381 0.46661 0.0
H2975 H 0.06806 0.4886 0.55294 0.0
H2976 H 0.10594 0.59368 0.56838 0.0
H2977 H 0.08859 0.4621 0.56066 0.0
H2978 H 0.97182 0.58262 0.47354 0.0
H2979 H 0.16602 0.58644 0.58773 0.0
H2980 H 0.17174 0.54776 0.58627 0.0
H2981 H 1.00194 0.61589 0.48232 0.0
H2982 H 0.1572 0.50725 0.58028 0.0
N2983 N 0.10929 0.56009 0.56472 0.0
C2984 C 0.11605 0.5828 0.57051 0.0
C2985 C 0.15014 0.57889 0.58147 0.0
C2986 C 0.14293 0.5557 0.57662 0.0
C2987 C 0.13654 0.59249 0.57873 0.0
C2988 C 0.12213 0.54677 0.56842 0.0
H2989 H 0.12609 0.47518 0.57116 0.0
N2990 N 0.09367 0.51663 0.55855 0.0
C2991 C 0.09597 0.47952 0.56193 0.0
C2992 C 0.11401 0.52418 0.56523 0.0
C2993 C 0.08435 0.49468 0.55762 0.0
C2994 C 0.11713 0.48695 0.56779 0.0
C2995 C 0.12638 0.5096 0.56983 0.0
O2996 O 0.0583 0.52955 0.57479 0.0
O2997 O 0.04966 0.54009 0.52863 0.0
O2998 O 0.04625 0.57395 0.52443 0.0
O2999 O 0.07156 0.57669 0.5528 0.0
O3000 O 0.04855 0.515 0.54531 0.0
O3001 O 0.07552 0.56385 0.58137 0.0
O3002 O 0.07228 0.56516 0.47483 0.0
O3003 O 0.08207 0.55393 0.52156 0.0
O3004 O 0.08716 0.52064 0.52632 0.0
O3005 O 0.06297 0.51786 0.49676 0.0
O3006 O 0.08427 0.57827 0.50355 0.0
O3007 O 0.0555 0.53067 0.46798 0.0
C3008 C 0.03817 0.52236 0.53153 0.0
C3009 C 0.07046 0.5457 0.61121 0.0
C3010 C 0.06062 0.54072 0.64707 0.0
C3011 C 0.05537 0.54254 0.62557 0.0
C3012 C 0.08124 0.54193 0.65413 0.0
C3013 C 0.09101 0.5466 0.61819 0.0
C3014 C 0.09634 0.54467 0.63962 0.0
C3015 C 0.05682 0.58415 0.54342 0.0
C3016 C 0.06407 0.54805 0.58918 0.0
C3017 C 0.14737 0.5182 0.57688 0.0
C3018 C 0.15564 0.54125 0.58029 0.0
C3019 C 0.09398 0.57109 0.51807 0.0
C3020 C 0.05871 0.54964 0.43853 0.0
C3021 C 0.06932 0.54349 0.42063 0.0
C3022 C 0.06369 0.54755 0.39994 0.0
C3023 C 0.04684 0.55739 0.3974 0.0
C3024 C 0.04193 0.55932 0.4357 0.0
C3025 C 0.03597 0.56308 0.41518 0.0
C3026 C 0.07794 0.51096 0.50657 0.0
C3027 C 0.06627 0.54688 0.4601 0.0
H3028 H 0.03952 0.54205 0.62013 0.0
H3029 H 0.0856 0.54069 0.67076 0.0
H3030 H 0.10287 0.54895 0.60724 0.0
H3031 H 0.1122 0.54547 0.64505 0.0
H3032 H 0.08208 0.5357 0.42296 0.0
H3033 H 0.04231 0.56115 0.38183 0.0
H3034 H 0.0336 0.56426 0.44927 0.0
H3035 H 0.02311 0.57075 0.41314 0.0
Tb3036 Tb 0.78658 0.79967 0.27048 0.0
C3037 C 0.85464 0.77042 0.31682 0.0
C3038 C 0.86519 0.79915 0.34934 0.0
C3039 C 0.86759 0.76111 0.35029 0.0
C3040 C 0.85677 0.79216 0.32731 0.0
C3041 C 0.86086 0.7548 0.32785 0.0
C3042 C 0.86971 0.7833 0.36106 0.0
C3043 C 0.85658 0.72929 0.29304 0.0
N3044 N 0.84872 0.76533 0.29507 0.0
C3045 C 0.85057 0.74542 0.28287 0.0
C3046 C 0.8613 0.73381 0.31572 0.0
Tb3047 Tb 0.8382 0.79237 0.2798 0.0
N3048 N 0.85288 0.80693 0.31511 0.0
C3049 C 0.85935 0.82936 0.32339 0.0
C3050 C 0.87002 0.82197 0.35845 0.0
C3051 C 0.86762 0.83717 0.34522 0.0
H3052 H 0.84673 0.74164 0.26536 0.0
H3053 H 0.87199 0.85493 0.35185 0.0
H3054 H 0.87586 0.78826 0.3781 0.0
H3055 H 0.85744 0.71336 0.28339 0.0
H3056 H 0.85752 0.84147 0.31361 0.0
H3057 H 0.75246 0.73775 0.19805 0.0
H3058 H 0.87648 0.82805 0.37532 0.0
H3059 H 0.77761 0.85008 0.28587 0.0
H3060 H 0.76724 0.7508 0.23619 0.0
H3061 H 0.76627 0.87845 0.26857 0.0
H3062 H 0.87212 0.74927 0.35919 0.0
H3063 H 0.74741 0.76492 0.17514 0.0
H3064 H 0.74745 0.80475 0.17307 0.0
H3065 H 0.86605 0.72134 0.32355 0.0
H3066 H 0.75092 0.84348 0.19257 0.0
N3067 N 0.7716 0.78544 0.23521 0.0
C3068 C 0.76521 0.76306 0.22667 0.0
C3069 C 0.75403 0.77083 0.19198 0.0
C3070 C 0.7587 0.79357 0.20139 0.0
C3071 C 0.75675 0.75546 0.20489 0.0
C3072 C 0.76733 0.80034 0.22336 0.0
H3073 H 0.75714 0.87095 0.22851 0.0
N3074 N 0.77549 0.82677 0.25587 0.0
C3075 C 0.7672 0.86268 0.25865 0.0
C3076 C 0.76927 0.82192 0.23418 0.0
C3077 C 0.7736 0.84649 0.2684 0.0
C3078 C 0.76217 0.85843 0.23603 0.0
C3079 C 0.76269 0.83763 0.22355 0.0
O3080 O 0.76679 0.80857 0.2941 0.0
O3081 O 0.81135 0.79963 0.29486 0.0
O3082 O 0.81731 0.76268 0.2883 0.0
O3083 O 0.78562 0.76374 0.27129 0.0
O3084 O 0.79552 0.82444 0.30063 0.0
O3085 O 0.75852 0.77708 0.27214 0.0
O3086 O 0.8588 0.78283 0.25741 0.0
O3087 O 0.81344 0.79232 0.25547 0.0
O3088 O 0.80725 0.82941 0.26186 0.0
O3089 O 0.83917 0.82823 0.27834 0.0
O3090 O 0.82968 0.7679 0.24935 0.0
O3091 O 0.86601 0.81521 0.27783 0.0
C3092 C 0.80985 0.81669 0.30874 0.0
C3093 C 0.7312 0.7934 0.28449 0.0
C3094 C 0.69686 0.79275 0.29733 0.0
C3095 C 0.71715 0.78944 0.30029 0.0
C3096 C 0.69134 0.80055 0.27851 0.0
C3097 C 0.72482 0.80054 0.26577 0.0
C3098 C 0.70511 0.80421 0.2629 0.0
C3099 C 0.79771 0.75298 0.28081 0.0
C3100 C 0.75256 0.79046 0.28764 0.0
C3101 C 0.75574 0.83157 0.20116 0.0
C3102 C 0.75378 0.80953 0.19006 0.0
C3103 C 0.81515 0.77549 0.24141 0.0
C3104 C 0.89412 0.79914 0.26807 0.0
C3105 C 0.90943 0.80444 0.2538 0.0
C3106 C 0.92989 0.80259 0.25889 0.0
C3107 C 0.9344 0.79469 0.27793 0.0
C3108 C 0.89945 0.79182 0.28707 0.0
C3109 C 0.91934 0.78941 0.29183 0.0
C3110 C 0.82695 0.83903 0.26901 0.0
C3111 C 0.87268 0.80133 0.26343 0.0
H3112 H 0.72196 0.78357 0.3146 0.0
H3113 H 0.67635 0.80413 0.27583 0.0
H3114 H 0.73511 0.80338 0.25336 0.0
H3115 H 0.70048 0.81004 0.2485 0.0
H3116 H 0.90557 0.81043 0.23922 0.0
H3117 H 0.94974 0.79263 0.28215 0.0
H3118 H 0.88825 0.78803 0.29836 0.0
H3119 H 0.92317 0.78356 0.3065 0.0
Tb3120 Tb 0.81771 0.2803 0.74627 0.0
C3121 C 0.80261 0.35691 0.81669 0.0
C3122 C 0.83692 0.37448 0.83377 0.0
C3123 C 0.81018 0.3953 0.83699 0.0
C3124 C 0.82251 0.35551 0.82172 0.0
C3125 C 0.79624 0.37691 0.82406 0.0
C3126 C 0.83052 0.39409 0.84183 0.0
C3127 C 0.76288 0.35952 0.80477 0.0
N3128 N 0.78976 0.33909 0.80356 0.0
C3129 C 0.76986 0.34013 0.79791 0.0
C3130 C 0.77611 0.37801 0.81795 0.0
Tb3131 Tb 0.80094 0.30633 0.79581 0.0
N3132 N 0.8282 0.33642 0.81292 0.0
C3133 C 0.849 0.33705 0.81347 0.0
C3134 C 0.85758 0.37371 0.83637 0.0
C3135 C 0.86369 0.3551 0.82569 0.0
H3136 H 0.7589 0.32595 0.78829 0.0
H3137 H 0.87987 0.35494 0.82613 0.0
H3138 H 0.84134 0.40867 0.85122 0.0
H3139 H 0.74718 0.36006 0.80006 0.0
H3140 H 0.85507 0.32459 0.80352 0.0
H3141 H 0.76647 0.19912 0.71833 0.0
H3142 H 0.86907 0.38792 0.8454 0.0
H3143 H 0.86881 0.29606 0.74617 0.0
H3144 H 0.77542 0.23983 0.73018 0.0
H3145 H 0.89801 0.27826 0.7418 0.0
H3146 H 0.80553 0.41071 0.84288 0.0
H3147 H 0.7937 0.1778 0.71721 0.0
H3148 H 0.83137 0.17815 0.72146 0.0
H3149 H 0.77067 0.39304 0.82326 0.0
H3150 H 0.8673 0.19977 0.7278 0.0
N3151 N 0.80763 0.24209 0.73633 0.0
C3152 C 0.7876 0.23097 0.72991 0.0
C3153 C 0.79778 0.1958 0.72242 0.0
C3154 C 0.81832 0.20728 0.72798 0.0
C3155 C 0.78239 0.20776 0.72301 0.0
C3156 C 0.82279 0.23072 0.73463 0.0
H3157 H 0.89228 0.23712 0.73493 0.0
N3158 N 0.8463 0.26541 0.74293 0.0
C3159 C 0.88258 0.26807 0.74086 0.0
C3160 C 0.84287 0.24281 0.73803 0.0
C3161 C 0.86585 0.27812 0.74339 0.0
C3162 C 0.8793 0.24486 0.73701 0.0
C3163 C 0.85922 0.2319 0.73515 0.0
O3164 O 0.82725 0.29962 0.72277 0.0
O3165 O 0.81352 0.31057 0.76633 0.0
O3166 O 0.78292 0.31107 0.76623 0.0
O3167 O 0.7844 0.27937 0.74179 0.0
O3168 O 0.84052 0.31236 0.7525 0.0
O3169 O 0.80482 0.26879 0.71357 0.0
O3170 O 0.76953 0.29368 0.79697 0.0
O3171 O 0.79763 0.27623 0.7715 0.0
O3172 O 0.83839 0.2759 0.77379 0.0
O3173 O 0.82896 0.29511 0.80658 0.0
O3174 O 0.80043 0.27367 0.80395 0.0
O3175 O 0.78977 0.30721 0.82678 0.0
C3176 C 0.83005 0.32365 0.76464 0.0
C3177 C 0.82588 0.28022 0.68692 0.0
C3178 C 0.83483 0.28978 0.65214 0.0
C3179 C 0.82494 0.29334 0.6712 0.0
C3180 C 0.84584 0.27285 0.649 0.0
C3181 C 0.83677 0.26326 0.68366 0.0
C3182 C 0.84671 0.25961 0.6647 0.0
C3183 C 0.7753 0.29599 0.74811 0.0
C3184 C 0.81589 0.28539 0.70678 0.0
C3185 C 0.85495 0.20848 0.72983 0.0
C3186 C 0.8345 0.19618 0.72624 0.0
C3187 C 0.79759 0.26257 0.78413 0.0
C3188 C 0.76097 0.27697 0.82673 0.0
C3189 C 0.77122 0.26835 0.84227 0.0
C3190 C 0.76117 0.24921 0.84951 0.0
C3191 C 0.74079 0.23873 0.84094 0.0
C3192 C 0.74058 0.26632 0.8185 0.0
C3193 C 0.73061 0.24726 0.8255 0.0
C3194 C 0.84119 0.28344 0.79552 0.0
C3195 C 0.77123 0.2965 0.81818 0.0
H3196 H 0.81681 0.30671 0.67408 0.0
H3197 H 0.85359 0.26976 0.63439 0.0
H3198 H 0.83766 0.25297 0.6957 0.0
H3199 H 0.85515 0.24654 0.66219 0.0
H3200 H 0.78704 0.27627 0.84851 0.0
H3201 H 0.73255 0.22418 0.84648 0.0
H3202 H 0.73241 0.27267 0.80646 0.0
H3203 H 0.71491 0.23913 0.81904 0.0
Tb3204 Tb 0.83517 0.80829 0.78488 0.0
C3205 C 0.74913 0.78706 0.73441 0.0
C3206 C 0.72241 0.7919 0.75803 0.0
C3207 C 0.7183 0.79691 0.72049 0.0
C3208 C 0.74219 0.78811 0.75483 0.0
C3209 C 0.73718 0.79114 0.71688 0.0
C3210 C 0.71082 0.79708 0.741 0.0
C3211 C 0.76205 0.7806 0.69296 0.0
N3212 N 0.76705 0.78063 0.73142 0.0
C3213 C 0.77309 0.77624 0.71076 0.0
C3214 C 0.74415 0.78837 0.69608 0.0
Tb3215 Tb 0.78431 0.77417 0.76166 0.0
N3216 N 0.75396 0.78325 0.77094 0.0
C3217 C 0.74578 0.77975 0.78996 0.0
C3218 C 0.71434 0.789 0.77773 0.0
C3219 C 0.72588 0.7823 0.79351 0.0
H3220 H 0.78693 0.77029 0.7081 0.0
H3221 H 0.7196 0.77942 0.8086 0.0
H3222 H 0.69577 0.80046 0.74329 0.0
H3223 H 0.76733 0.77788 0.67685 0.0
H3224 H 0.75444 0.77473 0.80247 0.0
H3225 H 0.89301 0.81498 0.7277 0.0
H3226 H 0.69905 0.7913 0.78068 0.0
H3227 H 0.84156 0.80926 0.83794 0.0
H3228 H 0.85963 0.81639 0.74042 0.0
H3229 H 0.86685 0.80189 0.8644 0.0
H3230 H 0.70896 0.80029 0.70729 0.0
H3231 H 0.91911 0.80378 0.75013 0.0
H3232 H 0.92924 0.79229 0.78482 0.0
H3233 H 0.73548 0.79147 0.68221 0.0
H3234 H 0.92165 0.78751 0.82195 0.0
N3235 N 0.86501 0.80395 0.76958 0.0
C3236 C 0.87004 0.81039 0.75033 0.0
C3237 C 0.90409 0.80386 0.75578 0.0
C3238 C 0.89944 0.79842 0.77592 0.0
C3239 C 0.88939 0.81014 0.74307 0.0
C3240 C 0.87968 0.799 0.7826 0.0
H3241 H 0.89853 0.79143 0.85196 0.0
N3242 N 0.8577 0.80088 0.81029 0.0
C3243 C 0.86945 0.80015 0.8473 0.0
C3244 C 0.87565 0.79685 0.80355 0.0
C3245 C 0.85512 0.80418 0.83221 0.0
C3246 C 0.88724 0.79414 0.84019 0.0
C3247 C 0.89091 0.79328 0.81826 0.0
O3248 O 0.85024 0.83747 0.80694 0.0
O3249 O 0.80234 0.80438 0.78231 0.0
O3250 O 0.79132 0.80463 0.74792 0.0
O3251 O 0.82689 0.80993 0.75012 0.0
O3252 O 0.81842 0.82308 0.81069 0.0
O3253 O 0.84186 0.83842 0.77338 0.0
O3254 O 0.77304 0.74269 0.74121 0.0
O3255 O 0.81726 0.77742 0.76573 0.0
O3256 O 0.82634 0.77984 0.8022 0.0
O3257 O 0.79045 0.77135 0.79606 0.0
O3258 O 0.8018 0.75685 0.7383 0.0
O3259 O 0.76773 0.74852 0.77538 0.0
C3260 C 0.80049 0.81655 0.80016 0.0
C3261 C 0.84137 0.87025 0.80059 0.0
C3262 C 0.8212 0.89712 0.79477 0.0
C3263 C 0.82736 0.87725 0.7873 0.0
C3264 C 0.82868 0.9097 0.81578 0.0
C3265 C 0.84876 0.88306 0.82154 0.0
C3266 C 0.84231 0.9026 0.82912 0.0
C3267 C 0.80927 0.81229 0.74079 0.0
C3268 C 0.84899 0.85012 0.7928 0.0
C3269 C 0.90985 0.79055 0.811 0.0
C3270 C 0.91419 0.79333 0.7899 0.0
C3271 C 0.81965 0.76423 0.74885 0.0
C3272 C 0.76731 0.71179 0.75851 0.0
C3273 C 0.78568 0.70843 0.76789 0.0
C3274 C 0.78705 0.68688 0.77022 0.0
C3275 C 0.77007 0.66882 0.76279 0.0
C3276 C 0.75054 0.69367 0.75112 0.0
C3277 C 0.75196 0.67224 0.75323 0.0
C3278 C 0.80773 0.77118 0.80769 0.0
C3279 C 0.76478 0.73407 0.75702 0.0
H3280 H 0.82168 0.8677 0.771 0.0
H3281 H 0.82399 0.92506 0.82182 0.0
H3282 H 0.85964 0.87801 0.83202 0.0
H3283 H 0.84805 0.91237 0.84528 0.0
H3284 H 0.79862 0.7225 0.77368 0.0
H3285 H 0.77092 0.652 0.76414 0.0
H3286 H 0.73629 0.69615 0.74389 0.0
H3287 H 0.73898 0.65827 0.74751 0.0
Tb3288 Tb 0.53794 0.52725 0.51135 0.0
C3289 C 0.59341 0.60929 0.57005 0.0
C3290 C 0.59733 0.63717 0.54751 0.0
C3291 C 0.59982 0.6486 0.58705 0.0
C3292 C 0.59334 0.61462 0.5497 0.0
C3293 C 0.59721 0.62619 0.58906 0.0
C3294 C 0.5999 0.65409 0.56627 0.0
C3295 C 0.59821 0.59784 0.61039 0.0
N3296 N 0.59135 0.58755 0.57118 0.0
C3297 C 0.59469 0.58175 0.59104 0.0
C3298 C 0.59915 0.62014 0.60943 0.0
Tb3299 Tb 0.58442 0.56192 0.53868 0.0
N3300 N 0.59105 0.59776 0.53211 0.0
C3301 C 0.59464 0.60265 0.51194 0.0
C3302 C 0.59947 0.64205 0.52669 0.0
C3303 C 0.59851 0.62472 0.50888 0.0
H3304 H 0.59391 0.56457 0.5921 0.0
H3305 H 0.60064 0.6283 0.49274 0.0
H3306 H 0.60268 0.67149 0.56491 0.0
H3307 H 0.60021 0.59302 0.62603 0.0
H3308 H 0.59387 0.58969 0.49781 0.0
H3309 H 0.51951 0.45693 0.55184 0.0
H3310 H 0.6025 0.65913 0.52428 0.0
H3311 H 0.52811 0.52759 0.45841 0.0
H3312 H 0.52541 0.49633 0.549 0.0
H3313 H 0.52259 0.501 0.42332 0.0
H3314 H 0.60253 0.66183 0.60144 0.0
H3315 H 0.52097 0.42819 0.51947 0.0
H3316 H 0.52282 0.41851 0.47885 0.0
H3317 H 0.60204 0.63261 0.62443 0.0
H3318 H 0.52317 0.43056 0.44342 0.0
N3319 N 0.53144 0.49063 0.51552 0.0
C3320 C 0.52623 0.48419 0.53465 0.0
C3321 C 0.52374 0.44558 0.51813 0.0
C3322 C 0.5269 0.45196 0.49804 0.0
C3323 C 0.5228 0.46173 0.53639 0.0
C3324 C 0.53046 0.47486 0.49727 0.0
H3325 H 0.52233 0.46125 0.4225 0.0
N3326 N 0.53172 0.50345 0.47769 0.0
C3327 C 0.52493 0.4953 0.43844 0.0
C3328 C 0.53044 0.48151 0.4775 0.0
C3329 C 0.52806 0.51035 0.45848 0.0
C3330 C 0.52488 0.4729 0.43803 0.0
C3331 C 0.5272 0.46565 0.45775 0.0
O3332 O 0.51241 0.53642 0.49734 0.0
O3333 O 0.55475 0.56195 0.52302 0.0
O3334 O 0.56085 0.56629 0.56296 0.0
O3335 O 0.53479 0.53531 0.54763 0.0
O3336 O 0.53986 0.55382 0.49239 0.0
O3337 O 0.50973 0.5199 0.5247 0.0
O3338 O 0.61016 0.55409 0.55387 0.0
O3339 O 0.56712 0.52736 0.52825 0.0
O3340 O 0.56147 0.5215 0.48825 0.0
O3341 O 0.58779 0.55258 0.50209 0.0
O3342 O 0.58348 0.53625 0.55836 0.0
O3343 O 0.61214 0.56672 0.52406 0.0
C3344 C 0.55059 0.57031 0.50652 0.0
C3345 C 0.48011 0.51398 0.50017 0.0
C3346 C 0.44368 0.51168 0.49171 0.0
C3347 C 0.46337 0.52402 0.50064 0.0
C3348 C 0.4409 0.48899 0.48218 0.0
C3349 C 0.47731 0.49136 0.49049 0.0
C3350 C 0.45772 0.47894 0.48148 0.0
C3351 C 0.54318 0.55195 0.56455 0.0
C3352 C 0.50009 0.52767 0.51032 0.0
C3353 C 0.52539 0.44299 0.4584 0.0
C3354 C 0.52524 0.43614 0.47857 0.0
C3355 C 0.57189 0.51966 0.54507 0.0
C3356 C 0.64264 0.574 0.54779 0.0
C3357 C 0.65858 0.56301 0.55001 0.0
C3358 C 0.6788 0.57515 0.55703 0.0
C3359 C 0.68291 0.59858 0.56192 0.0
C3360 C 0.64681 0.59738 0.55298 0.0
C3361 C 0.66692 0.6096 0.56005 0.0
C3362 C 0.57898 0.53538 0.48579 0.0
C3363 C 0.62206 0.56043 0.53943 0.0
H3364 H 0.46562 0.54144 0.50848 0.0
H3365 H 0.42581 0.47913 0.47522 0.0
H3366 H 0.49011 0.48331 0.49006 0.0
H3367 H 0.45555 0.46147 0.47406 0.0
H3368 H 0.6553 0.54492 0.54572 0.0
H3369 H 0.6984 0.60832 0.56732 0.0
H3370 H 0.63466 0.60614 0.55137 0.0
H3371 H 0.67015 0.62765 0.56394 0.0
Tb3372 Tb 0.08934 0.55165 0.01591 0.0
C3373 C 0.02058 0.51021 0.06557 0.0
C3374 C 1.00323 0.47575 0.04132 0.0
C3375 C 1.00371 0.47866 0.08069 0.0
C3376 C 0.0151 0.49782 0.04473 0.0
C3377 C 0.01459 0.50102 0.08385 0.0
C3378 C 0.99805 0.46602 0.05943 0.0
C3379 C 0.02902 0.53722 0.10669 0.0
N3380 N 0.03093 0.53175 0.06783 0.0
C3381 C 0.03471 0.54552 0.08803 0.0
C3382 C 0.01917 0.51478 0.10463 0.0
Tb3383 Tb 0.03997 0.54379 0.03641 0.0
N3384 N 0.02003 0.50806 0.02777 0.0
C3385 C 0.01181 0.49772 0.00696 0.0
C3386 C 0.9962 0.46449 0.01988 0.0
C3387 C 1.00018 0.47571 1.00265 0.0
H3388 H 0.04249 0.56283 0.08995 0.0
H3389 H 0.99434 0.46741 0.98603 0.0
H3390 H 0.98912 0.449 0.05717 0.0
H3391 H 0.03237 0.5481 0.12265 0.0
H3392 H 0.01468 0.50601 0.99338 0.0
H3393 H 0.13168 0.62798 0.07034 0.0
H3394 H 0.9871 0.44749 0.01652 0.0
H3395 H 0.09232 0.53445 0.96224 0.0
H3396 H 0.1141 0.58866 0.0615 0.0
H3397 H 0.10251 0.55192 0.93115 0.0
H3398 H 0.99911 0.4712 0.09452 0.0
H3399 H 0.1373 0.64982 0.04112 0.0
H3400 H 0.13549 0.65032 1.00103 0.0
H3401 H 0.01479 0.50839 0.11911 0.0
H3402 H 0.12783 0.62952 0.96303 0.0
N3403 N 0.10805 0.58776 0.0272 0.0
C3404 C 0.1159 0.5976 0.0483 0.0
C3405 C 0.12929 0.6324 0.03699 0.0
C3406 C 0.12304 0.62174 0.01524 0.0
C3407 C 0.12618 0.62011 0.05352 0.0
C3408 C 0.11258 0.59905 0.01075 0.0
H3409 H 0.11612 0.59274 0.93688 0.0
N3410 N 0.09956 0.56515 0.98563 0.0
C3411 C 0.10407 0.56211 0.94739 0.0
C3412 C 0.10828 0.58736 0.9893 0.0
C3413 C 0.09836 0.55224 0.96516 0.0
C3414 C 0.11167 0.58516 0.95068 0.0
C3415 C 0.11427 0.59803 0.97187 0.0
O3416 O 0.10232 0.52623 0.02514 0.0
O3417 O 0.06245 0.52697 0.02071 0.0
O3418 O 0.06062 0.53193 0.05744 0.0
O3419 O 0.0908 0.55511 0.05141 0.0
O3420 O 0.07535 0.52135 0.99184 0.0
O3421 O 0.12076 0.55217 0.0124 0.0
O3422 O 0.02211 0.5658 0.05038 0.0
O3423 O 0.06619 0.56821 0.02963 0.0
O3424 O 0.06862 0.55897 0.99114 0.0
O3425 O 0.03678 0.54271 1.00133 0.0
O3426 O 0.05364 0.57643 0.05773 0.0
O3427 O 0.0133 0.54585 0.01811 0.0
C3428 C 0.06108 0.51285 1.00284 0.0
C3429 C 0.12948 0.51693 1.00557 0.0
C3430 C 0.15709 0.49677 0.9997 0.0
C3431 C 0.14835 0.51252 0.01295 0.0
C3432 C 0.14643 0.48521 0.97943 0.0
C3433 C 0.1194 0.50517 0.98517 0.0
C3434 C 0.12776 0.48937 0.9723 0.0
C3435 C 0.0804 0.54121 0.06257 0.0
C3436 C 0.12028 0.53362 0.01907 0.0
C3437 C 0.1234 0.62096 0.97623 0.0
C3438 C 0.12775 0.63281 0.99787 0.0
C3439 C 0.0674 0.58406 0.04588 0.0
C3440 C 0.98664 0.55671 0.03748 0.0
C3441 C 0.97535 0.57276 0.03435 0.0
C3442 C 0.95411 0.56891 0.03694 0.0
C3443 C 0.9445 0.54886 0.04295 0.0
C3444 C 0.97669 0.53694 0.04353 0.0
C3445 C 0.95574 0.53309 0.04628 0.0
C3446 C 0.04837 0.55212 0.9876 0.0
C3447 C 0.00851 0.56043 0.0334 0.0
H3448 H 0.15637 0.52159 0.02862 0.0
H3449 H 0.1526 0.47288 0.96902 0.0
H3450 H 0.10505 0.50812 0.97906 0.0
H3451 H 0.11978 0.48036 0.95663 0.0
H3452 H 0.983 0.58797 0.02945 0.0
H3453 H 0.92829 0.54546 0.04534 0.0
H3454 H 0.98505 0.52442 0.04596 0.0
H3455 H 0.94814 0.51776 0.05094 0.0
H3456 H 0.05074 0.15459 0.95702 0.0
H3457 H 0.02941 0.18282 0.01726 0.0
H3458 H 0.03413 0.15093 0.03288 0.0
H3459 H 0.04286 0.11314 0.02919 0.0
H3460 H 0.06338 0.08547 0.96835 0.0
H3461 H 0.06095 0.11863 0.95396 0.0
C3462 C 0.04733 0.15415 0.97369 0.0
C3463 C 0.03945 0.17167 0.98555 0.0
C3464 C 0.05016 0.13551 0.98284 0.0
C3465 C 0.03502 0.16985 0.00715 0.0
C3466 C 0.03791 0.15148 0.01633 0.0
C3467 C 0.04739 0.11467 0.01306 0.0
C3468 C 0.05407 0.09675 1.00027 0.0
C3469 C 0.04534 0.13396 1.00434 0.0
C3470 C 0.05878 0.09896 0.97893 0.0
C3471 C 0.05721 0.11799 0.97052 0.0
H3472 H 0.20902 0.79683 0.17306 0.0
H3473 H 0.189 0.83826 0.22693 0.0
H3474 H 0.21799 0.8356 0.25086 0.0
H3475 H 0.24937 0.82132 0.25713 0.0
H3476 H 0.26711 0.77709 0.20396 0.0
H3477 H 0.23889 0.78098 0.17976 0.0
C3478 C 0.21061 0.80511 0.19005 0.0
C3479 C 0.1964 0.81798 0.19764 0.0
C3480 C 0.22718 0.803 0.20421 0.0
C3481 C 0.19957 0.82871 0.21994 0.0
C3482 C 0.21621 0.82702 0.23392 0.0
C3483 C 0.24697 0.81228 0.24037 0.0
C3484 C 0.26061 0.79875 0.23277 0.0
C3485 C 0.23018 0.8142 0.22631 0.0
C3486 C 0.25714 0.7876 0.21066 0.0
C3487 C 0.24085 0.7898 0.19662 0.0
H3488 H 0.5411 0.90727 0.50934 0.0
H3489 H 0.54844 0.90214 0.44052 0.0
H3490 H 0.55317 0.94235 0.4445 0.0
H3491 H 0.5566 0.97952 0.46727 0.0
H3492 H 0.55151 0.98635 0.53642 0.0
H3493 H 0.54414 0.94551 0.53255 0.0
C3494 C 0.54361 0.91492 0.49519 0.0
C3495 C 0.54465 0.90127 0.47461 0.0
C3496 C 0.5466 0.9386 0.49763 0.0
C3497 C 0.54796 0.91187 0.45662 0.0
C3498 C 0.55056 0.93502 0.45884 0.0
C3499 C 0.55365 0.9721 0.48151 0.0
C3500 C 0.55409 0.98622 0.50203 0.0
C3501 C 0.55013 0.94861 0.47924 0.0
C3502 C 0.55067 0.97611 0.52031 0.0
C3503 C 0.54668 0.95263 0.51809 0.0
H3504 H 0.49779 0.33149 0.69713 0.0
H3505 H 0.49477 0.26108 0.6755 0.0
H3506 H 0.46528 0.25193 0.69568 0.0
H3507 H 0.44098 0.26344 0.72092 0.0
H3508 H 0.44169 0.3332 0.74081 0.0
H3509 H 0.47078 0.34292 0.71934 0.0
C3510 C 0.49058 0.31411 0.69648 0.0
C3511 C 0.49926 0.29712 0.68511 0.0
C3512 C 0.47296 0.30875 0.70777 0.0
C3513 C 0.48932 0.27472 0.68469 0.0
C3514 C 0.47214 0.26936 0.69607 0.0
C3515 C 0.44735 0.28077 0.72032 0.0
C3516 C 0.43923 0.29758 0.73253 0.0
C3517 C 0.46401 0.28618 0.70793 0.0
C3518 C 0.44755 0.31994 0.73146 0.0
C3519 C 0.46431 0.32549 0.71931 0.0
H3520 H 0.04958 0.87961 0.60644 0.0
H3521 H 1.00181 0.83107 0.56311 0.0
H3522 H 0.00882 0.85186 0.53381 0.0
H3523 H 0.02863 0.88384 0.52038 0.0
H3524 H 0.07652 0.93212 0.56369 0.0
H3525 H 0.06956 0.91127 0.59299 0.0
C3526 C 0.04079 0.8735 0.59055 0.0
C3527 C 0.02516 0.85384 0.58703 0.0
C3528 C 0.04501 0.88541 0.5737 0.0
C3529 C 0.01371 0.84634 0.5664 0.0
C3530 C 0.01783 0.85811 0.54956 0.0
C3531 C 0.0377 0.88958 0.53615 0.0
C3532 C 0.05312 0.90939 0.53985 0.0
C3533 C 0.03348 0.87763 0.55299 0.0
C3534 C 0.06451 0.91693 0.56049 0.0
C3535 C 0.06055 0.90503 0.57724 0.0
H3536 H 0.51443 0.83265 0.7953 0.0
H3537 H 0.49222 0.80153 0.84832 0.0
H3538 H 0.45824 0.80859 0.84054 0.0
H3539 H 0.43591 0.82669 0.82092 0.0
H3540 H 0.45828 0.85814 0.7681 0.0
H3541 H 0.49137 0.84849 0.77407 0.0
C3542 C 0.50211 0.82731 0.80508 0.0
C3543 C 0.50588 0.81667 0.82241 0.0
C3544 C 0.48278 0.83187 0.80084 0.0
C3545 C 0.48968 0.80952 0.83472 0.0
C3546 C 0.47031 0.81378 0.83043 0.0
C3547 C 0.44787 0.8311 0.81043 0.0
C3548 C 0.44463 0.84333 0.79421 0.0
C3549 C 0.46682 0.82536 0.81384 0.0
C3550 C 0.46046 0.84914 0.781 0.0
C3551 C 0.47934 0.84348 0.78428 0.0
H3552 H 0.54937 0.17249 0.10637 0.0
H3553 H 0.49017 0.15455 0.06821 0.0
H3554 H 0.49938 0.1215 0.04741 0.0
H3555 H 0.5233 0.09652 0.04222 0.0
H3556 H 0.58106 0.11346 0.08303 0.0
H3557 H 0.57294 0.14786 0.10141 0.0
C3558 C 0.5383 0.1612 0.09374 0.0
C3559 C 0.51895 0.16567 0.08914 0.0
C3560 C 0.54332 0.14197 0.08261 0.0
C3561 C 0.50516 0.15142 0.07206 0.0
C3562 C 0.51034 0.13247 0.06033 0.0
C3563 C 0.53414 0.10783 0.05505 0.0
C3564 C 0.55272 0.1025 0.06136 0.0
C3565 C 0.52923 0.1274 0.06578 0.0
C3566 C 0.56658 0.11712 0.07807 0.0
C3567 C 0.56201 0.13683 0.0885 0.0
H3568 H 0.21615 0.3075 0.34536 0.0
H3569 H 0.19259 0.34302 0.30022 0.0
H3570 H 0.22444 0.34612 0.2824 0.0
H3571 H 0.25784 0.33567 0.27762 0.0
H3572 H 0.27962 0.2978 0.32143 0.0
H3573 H 0.24993 0.29898 0.34197 0.0
C3574 C 0.21797 0.31592 0.33162 0.0
C3575 C 0.20194 0.32478 0.32398 0.0
C3576 C 0.2361 0.3173 0.32126 0.0
C3577 C 0.20473 0.33609 0.30646 0.0
C3578 C 0.22291 0.33784 0.29623 0.0
C3579 C 0.25604 0.32788 0.29177 0.0
C3580 C 0.2704 0.31599 0.29758 0.0
C3581 C 0.23854 0.3281 0.30321 0.0
C3582 C 0.26837 0.3064 0.31624 0.0
C3583 C 0.25144 0.30716 0.32807 0.0
H3584 H 0.01767 0.0921 0.16136 0.0
H3585 H 0.97722 0.02643 0.14716 0.0
H3586 H 0.99048 0.01869 0.11189 0.0
H3587 H 0.01386 0.02977 0.08343 0.0
H3588 H 0.05343 0.09573 0.097 0.0
H3589 H 0.04045 0.10349 0.13264 0.0
C3590 C 0.01151 0.07602 0.15073 0.0
C3591 C 0.99621 0.05994 0.15833 0.0
C3592 C 0.01928 0.07142 0.12952 0.0
C3593 C 0.98912 0.03936 0.14321 0.0
C3594 C 0.9967 0.03482 0.12243 0.0
C3595 C 0.01972 0.04594 0.09403 0.0
C3596 C 0.03523 0.06193 0.0867 0.0
C3597 C 0.01187 0.05059 0.11518 0.0
C3598 C 0.04205 0.08265 0.1015 0.0
C3599 C 0.0344 0.08726 0.12223 0.0
H3600 H 0.31376 0.716 0.4396 0.0
H3601 H 0.25739 0.72294 0.46782 0.0
H3602 H 0.25395 0.75137 0.44676 0.0
H3603 H 0.26668 0.77378 0.41973 0.0
H3604 H 0.32481 0.76917 0.3947 0.0
H3605 H 0.32816 0.7408 0.41585 0.0
C3606 C 0.30092 0.72399 0.4416 0.0
C3607 C 0.28582 0.71712 0.45521 0.0
C3608 C 0.29942 0.7409 0.43015 0.0
C3609 C 0.26903 0.72742 0.45706 0.0
C3610 C 0.26715 0.74391 0.44523 0.0
C3611 C 0.28027 0.76691 0.41931 0.0
C3612 C 0.29533 0.77333 0.40552 0.0
C3613 C 0.28224 0.75074 0.43168 0.0
C3614 C 0.31281 0.76416 0.40494 0.0
C3615 C 0.31477 0.74797 0.41701 0.0
H3616 H 0.62847 0.05791 0.65134 0.0
H3617 H 0.61326 0.98594 0.63869 0.0
H3618 H 0.58999 0.98518 0.60656 0.0
H3619 H 0.5761 1.00538 0.58061 0.0
H3620 H 0.59393 0.07721 0.59288 0.0
H3621 H 0.61347 0.07779 0.62719 0.0
C3622 C 0.61971 0.04205 0.64187 0.0
C3623 C 0.62242 0.02203 0.64737 0.0
C3624 C 0.60672 0.04179 0.62348 0.0
C3625 C 0.61144 1.00157 0.63461 0.0
C3626 C 0.5981 1.00114 0.61635 0.0
C3627 C 0.58389 0.02106 0.59119 0.0
C3628 C 0.58356 0.04125 0.58462 0.0
C3629 C 0.59587 0.02117 0.61045 0.0
C3630 C 0.59396 0.06156 0.59793 0.0
C3631 C 0.60523 0.06188 0.6174 0.0
H3632 H 0.33082 0.36512 0.90971 0.0
H3633 H 0.31029 0.29813 0.92063 0.0
H3634 H 0.30756 0.28351 0.88117 0.0
H3635 H 0.30877 0.2901 0.84277 0.0
H3636 H 0.32783 0.35771 0.83316 0.0
H3637 H 0.33399 0.37147 0.87256 0.0
C3638 C 0.32613 0.34725 0.90365 0.0
C3639 C 0.32079 0.33288 0.91845 0.0
C3640 C 0.32449 0.33894 0.88089 0.0
C3641 C 0.31427 0.30978 0.90983 0.0
C3642 C 0.31282 0.30133 0.88717 0.0
C3643 C 0.31489 0.30772 0.84939 0.0
C3644 C 0.31846 0.32281 0.83497 0.0
C3645 C 0.31765 0.31577 0.87241 0.0
C3646 C 0.32544 0.34572 0.84386 0.0
C3647 C 0.3288 0.35365 0.86643 0.0
H3648 H 0.02826 0.0634 0.39086 0.0
H3649 H 0.96624 0.0613 0.40806 0.0
H3650 H 0.97629 0.05616 0.44421 0.0
H3651 H 1.00211 0.05257 0.47259 0.0
H3652 H 0.0643 0.05386 0.45759 0.0
H3653 H 0.05473 0.05828 0.42006 0.0
C3654 C 0.01677 0.06178 0.40234 0.0
C3655 C 0.99618 0.06356 0.39564 0.0
C3656 C 0.02272 0.05836 0.42412 0.0
C3657 C 0.98218 0.06106 0.41173 0.0
C3658 C 0.98793 0.05777 0.43286 0.0
C3659 C 0.01375 0.05363 0.46119 0.0
C3660 C 0.03409 0.05247 0.46866 0.0
C3661 C 0.0081 0.05651 0.43946 0.0
C3662 C 0.04853 0.05422 0.45299 0.0
C3663 C 0.04296 0.05696 0.43126 0.0
H3664 H 0.32061 0.74462 0.6368 0.0
H3665 H 0.27057 0.69165 0.64636 0.0
H3666 H 0.26682 0.7134 0.68157 0.0
H3667 H 0.27928 0.74598 0.71062 0.0
H3668 H 0.32576 0.80116 0.69941 0.0
H3669 H 0.32871 0.7802 0.66321 0.0
C3670 C 0.30852 0.73791 0.64621 0.0
C3671 C 0.2964 0.71608 0.63905 0.0
C3672 C 0.30579 0.75087 0.66613 0.0
C3673 C 0.28086 0.70791 0.65175 0.0
C3674 C 0.27845 0.72047 0.67182 0.0
C3675 C 0.28995 0.7536 0.70024 0.0
C3676 C 0.30322 0.77459 0.70822 0.0
C3677 C 0.29114 0.74172 0.67935 0.0
C3678 C 0.31625 0.78453 0.69415 0.0
C3679 C 0.3178 0.77261 0.67337 0.0
H3680 H 0.63569 0.0125 0.84402 0.0
H3681 H 0.64725 0.08063 0.83483 0.0
H3682 H 0.62257 0.08883 0.8607 0.0
H3683 H 0.59757 0.07653 0.88575 0.0
H3684 H 0.58653 1.00873 0.89565 0.0
H3685 H 0.61098 1.00031 0.86943 0.0
C3686 C 0.63275 0.02911 0.84771 0.0
C3687 C 0.64326 0.04596 0.8377 0.0
C3688 C 0.61854 0.03367 0.86251 0.0
C3689 C 0.63952 0.06749 0.84266 0.0
C3690 C 0.62531 0.07214 0.85727 0.0
C3691 C 0.60038 0.05987 0.88189 0.0
C3692 C 0.59021 0.04317 0.89223 0.0
C3693 C 0.61468 0.05534 0.86721 0.0
C3694 C 0.59421 0.02175 0.88766 0.0
C3695 C 0.60817 0.01698 0.87277 0.0
H3696 H 0.3098 0.31404 0.13532 0.0
H3697 H 0.3157 0.38338 0.16437 0.0
H3698 H 0.31403 0.37406 0.20064 0.0
H3699 H 0.31073 0.34614 0.22457 0.0
H3700 H 0.30422 0.27675 0.19525 0.0
H3701 H 0.30625 0.28616 0.15913 0.0
C3702 C 0.31085 0.32717 0.14956 0.0
C3703 C 0.31281 0.34944 0.14682 0.0
C3704 C 0.30973 0.32167 0.17058 0.0
C3705 C 0.31389 0.36606 0.16569 0.0
C3706 C 0.31304 0.36075 0.18658 0.0
C3707 C 0.30992 0.33309 0.21032 0.0
C3708 C 0.30753 0.31074 0.21292 0.0
C3709 C 0.31093 0.3386 0.18929 0.0
C3710 C 0.30607 0.2941 0.19401 0.0
C3711 C 0.30728 0.29947 0.17321 0.0
H3712 H 0.26247 0.05176 0.0362 0.0
H3713 H 0.23307 0.99993 0.06868 0.0
H3714 H 0.20432 0.01803 0.07463 0.0
H3715 H 0.18689 0.04778 0.06927 0.0
H3716 H 0.21634 0.09984 0.03712 0.0
H3717 H 0.24577 0.08253 0.0324 0.0
C3718 C 0.24977 0.04452 0.04464 0.0
C3719 C 0.24983 0.02457 0.05197 0.0
C3720 C 0.23332 0.05501 0.048 0.0
C3721 C 0.23344 0.01542 0.06309 0.0
C3722 C 0.21695 0.02567 0.06637 0.0
C3723 C 0.19979 0.05532 0.06127 0.0
C3724 C 0.19948 0.07497 0.05348 0.0
C3725 C 0.21663 0.04533 0.05869 0.0
C3726 C 0.21635 0.08478 0.04338 0.0
C3727 C 0.2331 0.07484 0.04059 0.0
H3728 H 0.67848 0.63932 1.00539 0.0
H3729 H 0.70706 0.58341 1.00353 0.0
H3730 H 0.67357 0.55879 1.00463 0.0
H3731 H 0.63612 0.55352 0.00858 0.0
H3732 H 0.60844 0.61011 0.01205 0.0
H3733 H 0.64144 0.63395 0.00822 0.0
C3734 C 0.67751 0.6218 1.00538 0.0
C3735 C 0.6955 0.61344 1.00448 0.0
C3736 C 0.65821 0.60774 0.0064 0.0
C3737 C 0.69359 0.59045 1.00398 0.0
C3738 C 0.67439 0.57631 1.00476 0.0
C3739 C 0.63726 0.57092 0.00803 0.0
C3740 C 0.61975 0.57996 0.01052 0.0
C3741 C 0.65656 0.58478 0.00619 0.0
C3742 C 0.62165 0.60274 0.0103 0.0
C3743 C 0.64056 0.61642 0.0081 0.0
H3744 H 0.75923 0.41668 0.29868 0.0
H3745 H 0.7361 0.39987 0.23032 0.0
H3746 H 0.75194 0.36813 0.22527 0.0
H3747 H 0.77134 0.34228 0.23975 0.0
H3748 H 0.79251 0.35702 0.30816 0.0
H3749 H 0.77913 0.39092 0.31312 0.0
C3750 C 0.75752 0.40632 0.28251 0.0
C3751 C 0.74607 0.41225 0.26494 0.0
C3752 C 0.76691 0.38701 0.27943 0.0
C3753 C 0.74474 0.3974 0.24447 0.0
C3754 C 0.75391 0.37858 0.24144 0.0
C3755 C 0.7739 0.35329 0.25566 0.0
C3756 C 0.78492 0.34706 0.2732 0.0
C3757 C 0.76513 0.37297 0.25867 0.0
C3758 C 0.7859 0.3614 0.29382 0.0
C3759 C 0.77766 0.38092 0.29678 0.0
H3760 H 0.94276 0.51591 0.52983 0.0
H3761 H 0.94501 0.45115 0.54397 0.0
H3762 H 0.98176 0.45891 0.54139 0.0
H3763 H 0.01343 0.48383 0.53503 0.0
H3764 H 0.01255 0.55129 0.52964 0.0
H3765 H 0.9752 0.54285 0.52913 0.0
C3766 C 0.95118 0.50358 0.53286 0.0
C3767 C 0.94068 0.48264 0.53642 0.0
C3768 C 0.97265 0.50856 0.53264 0.0
C3769 C 0.95224 0.46703 0.54018 0.0
C3770 C 0.97342 0.47152 0.53897 0.0
C3771 C 1.00499 0.49662 0.5336 0.0
C3772 C 0.01556 0.51771 0.53091 0.0
C3773 C 0.98373 0.4921 0.53496 0.0
C3774 C 1.00467 0.53451 0.53027 0.0
C3775 C 0.9833 0.52978 0.53038 0.0
H3776 H 0.36522 0.15526 0.28909 0.0
H3777 H 0.32656 0.0903 0.26157 0.0
H3778 H 0.30555 0.10708 0.23918 0.0
H3779 H 0.29889 0.14009 0.22649 0.0
H3780 H 0.33737 0.20503 0.25403 0.0
H3781 H 0.358 0.18841 0.27715 0.0
C3782 C 0.35216 0.14483 0.27822 0.0
C3783 C 0.34737 0.12164 0.27702 0.0
C3784 C 0.34031 0.15454 0.26524 0.0
C3785 C 0.33032 0.10827 0.26303 0.0
C3786 C 0.31844 0.1178 0.25007 0.0
C3787 C 0.31191 0.15049 0.23746 0.0
C3788 C 0.31684 0.17361 0.23849 0.0
C3789 C 0.32344 0.14087 0.25086 0.0
C3790 C 0.33343 0.18713 0.25302 0.0
C3791 C 0.34516 0.17766 0.26622 0.0
H3792 H 0.40739 0.14851 0.53202 0.0
H3793 H 0.35955 0.0961 0.4931 0.0
H3794 H 0.38124 0.06947 0.49405 0.0
H3795 H 0.4133 0.06054 0.50669 0.0
H3796 H 0.46149 0.11238 0.54562 0.0
H3797 H 0.44039 0.1397 0.54363 0.0
C3798 C 0.40172 0.13125 0.52379 0.0
C3799 C 0.3818 0.1244 0.51247 0.0
C3800 C 0.41439 0.11589 0.52432 0.0
C3801 C 0.37484 0.10197 0.5017 0.0
C3802 C 0.38722 0.08666 0.50232 0.0
C3803 C 0.4192 0.07781 0.51479 0.0
C3804 C 0.43891 0.0843 0.52648 0.0
C3805 C 0.40695 0.09337 0.51367 0.0
C3806 C 0.44644 0.10689 0.53643 0.0
C3807 C 0.4343 0.1225 0.53543 0.0
H3808 H 0.77538 0.65082 0.29523 0.0
H3809 H 0.71835 0.65092 0.2593 0.0
H3810 H 0.73157 0.68973 0.25659 0.0
H3811 H 0.75937 0.72457 0.2642 0.0
H3812 H 0.81552 0.72559 0.30228 0.0
H3813 H 0.8029 0.68638 0.30403 0.0
C3814 C 0.76581 0.65921 0.2867 0.0
C3815 C 0.7456 0.64727 0.27754 0.0
C3816 C 0.77351 0.68221 0.28543 0.0
C3817 C 0.73373 0.65915 0.2668 0.0
C3818 C 0.74138 0.6816 0.26514 0.0
C3819 C 0.76897 0.71635 0.27292 0.0
C3820 C 0.78893 0.72859 0.28259 0.0
C3821 C 0.76124 0.69347 0.27441 0.0
C3822 C 0.80057 0.71703 0.29398 0.0
C3823 C 0.79317 0.69436 0.29519 0.0
H3824 H 0.83521 0.42703 0.77712 0.0
H3825 H 0.90007 0.42782 0.78277 0.0
H3826 H 0.89221 0.38733 0.7783 0.0
H3827 H 0.86708 0.35162 0.77163 0.0
H3828 H 0.80231 0.35031 0.76545 0.0
H3829 H 0.80987 0.39102 0.7717 0.0
C3830 C 0.84759 0.41832 0.77755 0.0
C3831 C 0.86817 0.43036 0.77988 0.0
C3832 C 0.84298 0.39498 0.77502 0.0
C3833 C 0.88408 0.41888 0.78042 0.0
C3834 C 0.87963 0.39575 0.77801 0.0
C3835 C 0.85467 0.36034 0.77178 0.0
C3836 C 0.83422 0.34815 0.76887 0.0
C3837 C 0.85917 0.38364 0.77503 0.0
C3838 C 0.81818 0.35942 0.76861 0.0
C3839 C 0.82251 0.38269 0.77192 0.0
H3840 H 0.08884 0.92491 0.04364 0.0
H3841 H 0.07412 0.94227 0.11025 0.0
H3842 H 0.06945 0.97769 0.10389 0.0
H3843 H 0.06982 1.00522 0.0804 0.0
H3844 H 0.08015 0.98823 0.01274 0.0
H3845 H 0.08554 0.95172 0.01842 0.0
C3846 C 0.08448 0.93621 0.05686 0.0
C3847 C 0.08297 0.93032 0.07795 0.0
C3848 C 0.08074 0.95703 0.05286 0.0
C3849 C 0.07684 0.94583 0.09426 0.0
C3850 C 0.07372 0.9664 0.09056 0.0
C3851 C 0.07309 0.99348 0.06676 0.0
C3852 C 0.07437 0.99969 0.04609 0.0
C3853 C 0.07583 0.97236 0.0701 0.0
C3854 C 0.07873 0.98406 0.02876 0.0
C3855 C 0.08195 0.96311 0.03211 0.0
H3856 H 0.92128 0.25518 0.8321 0.0
H3857 H 0.91356 0.30055 0.89018 0.0
H3858 H 0.88292 0.30721 0.8717 0.0
H3859 H 0.85815 0.30086 0.83861 0.0
H3860 H 0.86537 0.25445 0.78114 0.0
H3861 H 0.89595 0.24791 0.79951 0.0
C3862 C 0.91301 0.26661 0.84078 0.0
C3863 C 0.92007 0.27722 0.86277 0.0
C3864 C 0.89508 0.27037 0.82999 0.0
C3865 C 0.90865 0.29177 0.87349 0.0
C3866 C 0.89104 0.29574 0.86282 0.0
C3867 C 0.8663 0.28921 0.83006 0.0
C3868 C 0.8593 0.27855 0.80806 0.0
C3869 C 0.88403 0.28517 0.84103 0.0
C3870 C 0.87033 0.26344 0.79767 0.0
C3871 C 0.88792 0.25953 0.80832 0.0
H3872 H 0.59059 0.18359 0.59072 0.0
H3873 H 0.57755 0.19312 0.52513 0.0
H3874 H 0.57158 0.15282 0.51138 0.0
H3875 H 0.56781 0.11382 0.5183 0.0
H3876 H 0.5787 0.1055 0.58461 0.0
H3877 H 0.58837 0.14577 0.59735 0.0
C3878 C 0.58679 0.17705 0.57333 0.0
C3879 C 0.58456 0.19186 0.55916 0.0
C3880 C 0.58318 0.15367 0.56547 0.0
C3881 C 0.57916 0.18247 0.5367 0.0
C3882 C 0.57585 0.15926 0.52872 0.0
C3883 C 0.57294 0.12088 0.5354 0.0
C3884 C 0.57334 0.10638 0.55034 0.0
C3885 C 0.57757 0.14453 0.54296 0.0
C3886 C 0.57899 0.11603 0.57261 0.0
C3887 C 0.58427 0.1392 0.58 0.0
H3888 H 0.64027 0.78592 0.376 0.0
H3889 H 0.5931 0.76675 0.32131 0.0
H3890 H 0.61923 0.76866 0.29602 0.0
H3891 H 0.65519 0.77641 0.2888 0.0
H3892 H 0.70303 0.79932 0.34259 0.0
H3893 H 0.67702 0.79494 0.36853 0.0
C3894 C 0.63562 0.78233 0.35858 0.0
C3895 C 0.6144 0.77581 0.35088 0.0
C3896 C 0.65093 0.78403 0.34377 0.0
C3897 C 0.60905 0.77112 0.32806 0.0
C3898 C 0.62408 0.77242 0.31342 0.0
C3899 C 0.66009 0.78079 0.30619 0.0
C3900 C 0.68126 0.7885 0.31351 0.0
C3901 C 0.64503 0.77892 0.32104 0.0
C3902 C 0.687 0.79321 0.33624 0.0
C3903 C 0.67205 0.79091 0.35116 0.0
H3904 H 0.0947 0.24858 0.48205 0.0
H3905 H 0.06719 0.19681 0.42631 0.0
H3906 H 0.05666 0.17075 0.45048 0.0
H3907 H 0.05483 0.16281 0.48733 0.0
H3908 H 0.08328 0.21398 0.5432 0.0
H3909 H 0.09369 0.24023 0.51907 0.0
C3910 C 0.08663 0.23151 0.47519 0.0
C3911 C 0.08172 0.22465 0.45241 0.0
C3912 C 0.08062 0.21659 0.48919 0.0
C3913 C 0.07095 0.20258 0.44379 0.0
C3914 C 0.06498 0.18765 0.4576 0.0
C3915 C 0.0635 0.17964 0.49426 0.0
C3916 C 0.06828 0.18639 0.51707 0.0
C3917 C 0.06966 0.19451 0.48031 0.0
C3918 C 0.07916 0.20841 0.52574 0.0
C3919 C 0.08526 0.22338 0.51194 0.0
H3920 H 0.62233 0.25277 0.1989 0.0
H3921 H 0.60367 0.2743 0.26267 0.0
H3922 H 0.63485 0.26727 0.28001 0.0
H3923 H 0.66715 0.25424 0.27683 0.0
H3924 H 0.68603 0.23397 0.2129 0.0
H3925 H 0.65488 0.241 0.1957 0.0
C3926 C 0.62511 0.25588 0.2166 0.0
C3927 C 0.61076 0.26388 0.22954 0.0
C3928 C 0.64299 0.25186 0.22636 0.0
C3929 C 0.61462 0.26823 0.25243 0.0
C3930 C 0.63234 0.26409 0.26231 0.0
C3931 C 0.66428 0.25125 0.25915 0.0
C3932 C 0.67862 0.24342 0.24606 0.0
C3933 C 0.64655 0.25574 0.24943 0.0
C3934 C 0.67508 0.23996 0.2232 0.0
C3935 C 0.65733 0.24399 0.2134 0.0
H3936 H 0.62501 0.9346 0.97483 0.0
H3937 H 0.58424 0.93148 0.91774 0.0
H3938 H 0.57105 0.96242 0.93711 0.0
H3939 H 0.56997 0.98882 0.97086 0.0
H3940 H 0.61282 0.99377 0.02699 0.0
H3941 H 0.6261 0.96336 0.00757 0.0
C3942 C 0.61337 0.94091 0.96668 0.0
C3943 C 0.60552 0.93098 0.94507 0.0
C3944 C 0.606 0.95867 0.97782 0.0
C3945 C 0.59056 0.93917 0.9344 0.0
C3946 C 0.58294 0.95668 0.94548 0.0
C3947 C 0.58221 0.98329 0.97887 0.0
C3948 C 0.58983 0.99303 1.00066 0.0
C3949 C 0.59034 0.96632 0.96731 0.0
C3950 C 0.60606 0.98599 0.01056 0.0
C3951 C 0.61388 0.96875 0.99937 0.0
H3952 H 0.89353 0.76256 0.69204 0.0
H3953 H 0.92089 0.74761 0.75035 0.0
H3954 H 0.88807 0.74429 0.76597 0.0
H3955 H 0.85301 0.75175 0.76563 0.0
H3956 H 0.82709 0.76927 0.70828 0.0
H3957 H 0.85812 0.76659 0.69025 0.0
C3958 C 0.89252 0.75886 0.7083 0.0
C3959 C 0.90999 0.75601 0.72012 0.0
C3960 C 0.87391 0.75806 0.71768 0.0
C3961 C 0.90784 0.74994 0.74069 0.0
C3962 C 0.88904 0.74816 0.74978 0.0
C3963 C 0.85435 0.75502 0.74924 0.0
C3964 C 0.83852 0.76204 0.73869 0.0
C3965 C 0.87226 0.75327 0.73889 0.0
C3966 C 0.83969 0.76502 0.71703 0.0
C3967 C 0.85728 0.76323 0.70664 0.0
H3968 H 0.14202 0.04737 0.90859 0.0
H3969 H 0.08927 1.0026 0.86932 0.0
H3970 H 0.07009 1.00311 0.90142 0.0
H3971 H 0.06741 0.01604 0.94175 0.0
H3972 H 0.11992 0.06178 0.98046 0.0
H3973 H 0.13916 0.06071 0.94851 0.0
C3974 C 0.12636 0.03756 0.9068 0.0
C3975 C 0.1176 0.025 0.88551 0.0
C3976 C 0.11491 0.03799 0.92585 0.0
C3977 C 0.09695 0.01281 0.88465 0.0
C3978 C 0.08576 0.01296 0.90338 0.0
C3979 C 0.08303 0.02583 0.94341 0.0
C3980 C 0.0917 0.039 0.96449 0.0
C3981 C 0.09442 0.02549 0.92426 0.0
C3982 C 0.11223 0.0514 0.9652 0.0
C3983 C 0.1235 0.05082 0.94659 0.0
H3984 H 0.84663 0.35841 0.58928 0.0
H3985 H 0.78095 0.34897 0.59194 0.0
H3986 H 0.78182 0.32253 0.61619 0.0
H3987 H 0.80123 0.30188 0.63626 0.0
H3988 H 0.86664 0.31053 0.63246 0.0
H3989 H 0.86571 0.33686 0.60807 0.0
C3990 C 0.8324 0.3503 0.59479 0.0
C3991 C 0.81372 0.35561 0.58868 0.0
C3992 C 0.83293 0.33479 0.60827 0.0
C3993 C 0.79557 0.3454 0.59658 0.0
C3994 C 0.79602 0.33014 0.61029 0.0
C3995 C 0.81526 0.30954 0.63005 0.0
C3996 C 0.83398 0.30433 0.63608 0.0
C3997 C 0.81462 0.32472 0.6162 0.0
C3998 C 0.85203 0.31412 0.62779 0.0
C3999 C 0.85152 0.32929 0.61403 0.0
H4000 H 0.50999 0.06323 0.39625 0.0
H4001 H 0.46522 0.08382 0.43756 0.0
H4002 H 0.48736 0.08368 0.47012 0.0
H4003 H 0.51742 0.07353 0.48625 0.0
H4004 H 0.56127 0.05103 0.44499 0.0
H4005 H 0.54176 0.05646 0.41279 0.0
C4006 C 0.50526 0.06796 0.41243 0.0
C4007 C 0.48598 0.07329 0.41464 0.0
C4008 C 0.51784 0.06741 0.43092 0.0
C4009 C 0.48005 0.07975 0.43557 0.0
C4010 C 0.49261 0.0795 0.45412 0.0
C4011 C 0.52272 0.06998 0.47019 0.0
C4012 C 0.54055 0.06172 0.46776 0.0
C4013 C 0.51119 0.07269 0.4519 0.0
C4014 C 0.54769 0.05762 0.44712 0.0
C4015 C 0.53641 0.06052 0.42876 0.0
H4016 H 0.7984 0.72527 0.14286 0.0
H4017 H 0.8127 0.7924 0.13105 0.0
H4018 H 0.81495 0.80728 0.17044 0.0
H4019 H 0.81478 0.80116 0.20912 0.0
H4020 H 0.80232 0.73357 0.2197 0.0
H4021 H 0.79703 0.71918 0.18038 0.0
C4022 C 0.80171 0.74318 0.14875 0.0
C4023 C 0.80534 0.75756 0.13367 0.0
C4024 C 0.80321 0.75166 0.17152 0.0
C4025 C 0.81004 0.78077 0.14205 0.0
C4026 C 0.81122 0.78934 0.16469 0.0
C4027 C 0.81037 0.78333 0.20274 0.0
C4028 C 0.80832 0.76846 0.21747 0.0
C4029 C 0.80805 0.77498 0.17972 0.0
C4030 C 0.80354 0.74537 0.20881 0.0
C4031 C 0.80064 0.73709 0.18626 0.0
H4032 H 0.09209 0.02793 0.65692 0.0
H4033 H 0.15422 0.03083 0.63997 0.0
H4034 H 0.14421 0.03634 0.60381 0.0
H4035 H 0.11832 0.03991 0.57547 0.0
H4036 H 0.05577 0.0368 0.59002 0.0
H4037 H 0.06535 0.03218 0.62748 0.0
C4038 C 0.10356 0.02973 0.64543 0.0
C4039 C 0.12441 0.02912 0.65241 0.0
C4040 C 0.09756 0.03306 0.62364 0.0
C4041 C 0.1384 0.03161 0.63635 0.0
C4042 C 0.13257 0.03467 0.61516 0.0
C4043 C 0.10661 0.03843 0.58676 0.0
C4044 C 0.08617 0.03914 0.57921 0.0
C4045 C 0.11229 0.03549 0.60847 0.0
C4046 C 0.07162 0.0368 0.59472 0.0
C4047 C 0.07719 0.03395 0.61639 0.0
H4048 H 0.80974 0.35524 0.4108 0.0
H4049 H 0.81927 0.41529 0.38401 0.0
H4050 H 0.8247 0.39425 0.34891 0.0
H4051 H 0.8263 0.35911 0.32587 0.0
H4052 H 0.81282 0.2981 0.3507 0.0
H4053 H 0.80955 0.31935 0.38681 0.0
C4054 C 0.81263 0.36369 0.39721 0.0
C4055 C 0.81415 0.38688 0.40013 0.0
C4056 C 0.81526 0.3514 0.37686 0.0
C4057 C 0.81835 0.39756 0.38239 0.0
C4058 C 0.8214 0.38554 0.36227 0.0
C4059 C 0.82268 0.35037 0.33912 0.0
C4060 C 0.81965 0.32704 0.33556 0.0
C4061 C 0.81996 0.36252 0.35939 0.0
C4062 C 0.81514 0.31608 0.35303 0.0
C4063 C 0.81318 0.3282 0.37361 0.0
H4064 H 0.4953 0.07501 0.21448 0.0
H4065 H 0.49515 0.01234 0.23429 0.0
H4066 H 0.52174 1.00599 0.21032 0.0
H4067 H 0.54435 0.01779 0.18302 0.0
H4068 H 0.54476 0.08061 0.16354 0.0
H4069 H 0.51896 0.08759 0.18845 0.0
C4070 C 0.50126 0.0601 0.21374 0.0
C4071 C 0.49319 0.04412 0.226 0.0
C4072 C 0.51664 0.05664 0.2001 0.0
C4073 C 0.50086 0.02471 0.22468 0.0
C4074 C 0.51617 0.02114 0.21113 0.0
C4075 C 0.53904 0.03318 0.18458 0.0
C4076 C 0.5464 0.0487 0.17162 0.0
C4077 C 0.5241 0.03695 0.19871 0.0
C4078 C 0.53918 0.0684 0.17338 0.0
C4079 C 0.52445 0.07238 0.18756 0.0
H4080 H 0.78308 0.74209 0.89714 0.0
H4081 H 0.84722 0.74015 0.90402 0.0
H4082 H 0.85153 0.75055 0.8684 0.0
H4083 H 0.83708 0.76019 0.83472 0.0
H4084 H 0.77303 0.76264 0.82872 0.0
H4085 H 0.76882 0.7518 0.86383 0.0
C4086 C 0.79809 0.74412 0.89102 0.0
C4087 C 0.81475 0.74022 0.90359 0.0
C4088 C 0.80053 0.75012 0.87032 0.0
C4089 C 0.83395 0.74267 0.89487 0.0
C4090 C 0.83648 0.74874 0.8744 0.0
C4091 C 0.82229 0.75872 0.8412 0.0
C4092 C 0.80558 0.76289 0.8289 0.0
C4093 C 0.81989 0.75251 0.86189 0.0
C4094 C 0.78634 0.75983 0.83749 0.0
C4095 C 0.78386 0.75365 0.85782 0.0
H4096 H 0.86678 0.05796 0.02014 0.0
H4097 H 0.90686 0.11553 1.00407 0.0
H4098 H 0.93305 0.09428 0.99614 0.0
H4099 H 0.94467 0.05969 0.99398 0.0
H4100 H 0.90587 1.00248 0.01197 0.0
H4101 H 0.87886 0.02316 0.01857 0.0
C4102 C 0.88133 0.06589 0.0151 0.0
C4103 C 0.88483 0.08825 0.01261 0.0
C4104 C 0.89644 0.05362 0.01073 0.0
C4105 C 0.90365 0.09823 1.0058 0.0
C4106 C 0.91867 0.08614 1.00134 0.0
C4107 C 0.93039 0.05176 0.99955 0.0
C4108 C 0.92735 0.02963 1.00264 0.0
C4109 C 0.91522 0.06386 1.00376 0.0
C4110 C 0.90853 0.01944 0.00929 0.0
C4111 C 0.89316 0.03132 0.01324 0.0
H4112 H 0.43532 0.4973 0.06414 0.0
H4113 H 0.43938 0.43835 0.01821 0.0
H4114 H 0.47409 0.45638 0.01185 0.0
H4115 H 0.50318 0.48892 0.01885 0.0
H4116 H 0.50054 0.54709 0.06671 0.0
H4117 H 0.46555 0.52952 0.0726 0.0
C4118 C 0.44383 0.48845 0.05273 0.0
C4119 C 0.4347 0.46647 0.04166 0.0
C4120 C 0.46406 0.49885 0.04939 0.0
C4121 C 0.44604 0.45517 0.02709 0.0
C4122 C 0.4659 0.46552 0.02337 0.0
C4123 C 0.49505 0.49784 0.03062 0.0
C4124 C 0.50455 0.51964 0.04196 0.0
C4125 C 0.47507 0.48735 0.03439 0.0
C4126 C 0.49363 0.5306 0.05734 0.0
C4127 C 0.47357 0.52046 0.06083 0.0
H4128 H 0.36434 0.68543 0.80283 0.0
H4129 H 0.38951 0.68433 0.74053 0.0
H4130 H 0.37372 0.71424 0.73433 0.0
H4131 H 0.35301 0.74233 0.74549 0.0
H4132 H 0.32859 0.74661 0.80792 0.0
H4133 H 0.34332 0.71509 0.8146 0.0
C4134 C 0.36652 0.69153 0.78779 0.0
C4135 C 0.37841 0.68093 0.77206 0.0
C4136 C 0.3572 0.70997 0.78408 0.0
C4137 C 0.38042 0.69037 0.75301 0.0
C4138 C 0.37134 0.70816 0.74937 0.0
C4139 C 0.35062 0.73645 0.76064 0.0
C4140 C 0.33881 0.74737 0.77581 0.0
C4141 C 0.35962 0.7182 0.7646 0.0
C4142 C 0.33681 0.73895 0.79539 0.0
C4143 C 0.34556 0.7207 0.79931 0.0
H4144 H 0.18935 0.60946 0.53545 0.0
H4145 H 0.18902 0.53935 0.52594 0.0
H4146 H 0.15131 0.52998 0.51965 0.0
H4147 H 0.11895 0.54203 0.51616 0.0
H4148 H 0.11928 0.61208 0.52604 0.0
H4149 H 0.15696 0.62141 0.53223 0.0
C4150 C 0.18098 0.59213 0.53229 0.0
C4151 C 0.19177 0.57507 0.53143 0.0
C4152 C 0.15955 0.58698 0.52844 0.0
C4153 C 0.18091 0.55268 0.52673 0.0
C4154 C 0.15945 0.54737 0.52307 0.0
C4155 C 0.1272 0.5593 0.52019 0.0
C4156 C 0.11647 0.57643 0.52167 0.0
C4157 C 0.14867 0.56441 0.52384 0.0
C4158 C 0.12738 0.59874 0.52538 0.0
C4159 C 0.14882 0.60402 0.52893 0.0
H4160 H 0.75137 0.92351 0.74047 0.0
H4161 H 0.79702 0.98573 0.75198 0.0
H4162 H 0.82164 0.96863 0.76888 0.0
H4163 H 0.82898 0.93735 0.78383 0.0
H4164 H 0.78358 0.87519 0.77345 0.0
H4165 H 0.75997 0.89082 0.75258 0.0
C4166 C 0.76681 0.93316 0.74643 0.0
C4167 C 0.77239 0.9558 0.745 0.0
C4168 C 0.78078 0.92335 0.75654 0.0
C4169 C 0.79246 0.96818 0.7526 0.0
C4170 C 0.80648 0.9585 0.76248 0.0
C4171 C 0.81393 0.92726 0.77687 0.0
C4172 C 0.80773 0.90544 0.7804 0.0
C4173 C 0.8006 0.93633 0.76508 0.0
C4174 C 0.78848 0.89216 0.77098 0.0
C4175 C 0.77504 0.90109 0.75914 0.0
H4176 H 0.73001 0.96781 0.55645 0.0
H4177 H 0.73753 0.94683 0.48835 0.0
H4178 H 0.71311 0.96813 0.47793 0.0
H4179 H 0.69047 0.99378 0.48817 0.0
H4180 H 0.68137 0.01362 0.55596 0.0
H4181 H 0.70515 0.99151 0.56653 0.0
C4182 C 0.72618 0.96788 0.53935 0.0
C4183 C 0.7356 0.95581 0.52317 0.0
C4184 C 0.71178 0.9799 0.53344 0.0
C4185 C 0.73041 0.95587 0.50107 0.0
C4186 C 0.71648 0.9681 0.49511 0.0
C4187 C 0.69362 0.99315 0.50525 0.0
C4188 C 0.68429 1.00547 0.52128 0.0
C4189 C 0.70719 0.9803 0.51114 0.0
C4190 C 0.68829 1.00423 0.54331 0.0
C4191 C 0.702 0.99171 0.54936 0.0
H4192 H 0.39346 0.43478 0.78143 0.0
H4193 H 0.33912 0.45427 0.75873 0.0
H4194 H 0.31865 0.41666 0.75745 0.0
H4195 H 0.31556 0.37704 0.76239 0.0
H4196 H 0.37028 0.35839 0.78542 0.0
H4197 H 0.39042 0.39578 0.78645 0.0
C4198 C 0.37718 0.431 0.77601 0.0
C4199 C 0.36828 0.44826 0.7703 0.0
C4200 C 0.36515 0.40886 0.77525 0.0
C4201 C 0.34686 0.44216 0.76366 0.0
C4202 C 0.33495 0.42028 0.76275 0.0
C4203 C 0.33184 0.38103 0.76773 0.0
C4204 C 0.34091 0.36407 0.77389 0.0
C4205 C 0.34382 0.40331 0.76851 0.0
C4206 C 0.36232 0.37037 0.78056 0.0
C4207 C 0.37411 0.3921 0.78119 0.0
H4208 H 0.28508 0.65554 0.26517 0.0
H4209 H 0.2204 0.65304 0.2524 0.0
H4210 H 0.22782 0.69335 0.25497 0.0
H4211 H 0.25241 0.72938 0.26205 0.0
H4212 H 0.31698 0.73265 0.27612 0.0
H4213 H 0.31004 0.69201 0.27165 0.0
C4214 C 0.27271 0.66389 0.2628 0.0
C4215 C 0.25225 0.65152 0.25889 0.0
C4216 C 0.27706 0.68713 0.2645 0.0
C4217 C 0.23625 0.66239 0.25585 0.0
C4218 C 0.24046 0.68536 0.25722 0.0
C4219 C 0.26492 0.72109 0.26399 0.0
C4220 C 0.28516 0.73372 0.26877 0.0
C4221 C 0.26075 0.6979 0.26179 0.0
C4222 C 0.30132 0.72309 0.27176 0.0
C4223 C 0.29733 0.69989 0.26938 0.0
H4224 H 0.53954 0.67119 0.50953 0.0
H4225 H 0.53711 0.64826 0.43973 0.0
H4226 H 0.54272 0.61251 0.44543 0.0
H4227 H 0.54777 0.58672 0.46952 0.0
H4228 H 0.54889 0.60721 0.53922 0.0
H4229 H 0.54473 0.64436 0.53434 0.0
C4230 C 0.54032 0.65844 0.49553 0.0
C4231 C 0.53753 0.66291 0.47402 0.0
C4232 C 0.54348 0.6372 0.49892 0.0
C4233 C 0.53865 0.64571 0.45638 0.0
C4234 C 0.54203 0.62507 0.45964 0.0
C4235 C 0.54724 0.59931 0.48376 0.0
C4236 C 0.54924 0.594 0.50481 0.0
C4237 C 0.54434 0.62049 0.48073 0.0
C4238 C 0.54803 0.61068 0.52287 0.0
C4239 C 0.54545 0.632 0.52 0.0
H4240 H 0.69548 0.28458 0.68227 0.0
H4241 H 0.70322 0.3545 0.71066 0.0
H4242 H 0.7326 0.35292 0.73475 0.0
H4243 H 0.75726 0.33206 0.7476 0.0
H4244 H 0.75058 0.2629 0.71733 0.0
H4245 H 0.72038 0.26417 0.69419 0.0
C4246 C 0.70361 0.29968 0.69343 0.0
C4247 C 0.69653 0.31964 0.69431 0.0
C4248 C 0.72107 0.29887 0.70711 0.0
C4249 C 0.70756 0.33867 0.70953 0.0
C4250 C 0.72468 0.33787 0.72335 0.0
C4251 C 0.74913 0.31721 0.73606 0.0
C4252 C 0.75638 0.29735 0.73449 0.0
C4253 C 0.73167 0.31809 0.72234 0.0
C4254 C 0.7456 0.27846 0.71909 0.0
C4255 C 0.72819 0.27914 0.70575 0.0
H4256 H 0.03387 0.41104 0.95639 0.0
H4257 H 0.05026 0.40111 0.0211 0.0
H4258 H 0.0561 0.44128 0.03528 0.0
H4259 H 0.05923 0.48041 0.0289 0.0
H4260 H 0.04428 0.48933 0.96353 0.0
H4261 H 0.03537 0.44902 0.95036 0.0
C4262 C 0.03884 0.4175 0.97361 0.0
C4263 C 0.0417 0.40252 0.98742 0.0
C4264 C 0.04245 0.44085 0.98173 0.0
C4265 C 0.04769 0.41175 0.00984 0.0
C4266 C 0.05118 0.43495 0.01804 0.0
C4267 C 0.05353 0.47346 0.01191 0.0
C4268 C 0.05208 0.4881 0.99731 0.0
C4269 C 0.04888 0.44983 1.00413 0.0
C4270 C 0.04528 0.47862 0.97521 0.0
C4271 C 0.04029 0.45546 0.96759 0.0
H4272 H 0.01504 0.82894 0.21987 0.0
H4273 H 0.97875 0.79249 0.16001 0.0
H4274 H 0.94776 0.78729 0.17935 0.0
H4275 H 0.93111 0.79134 0.21411 0.0
H4276 H 0.96784 0.82877 0.27346 0.0
H4277 H 0.99815 0.8354 0.25361 0.0
C4278 C 1.00035 0.81984 0.21105 0.0
C4279 C 0.99935 0.81099 0.18852 0.0
C4280 C 0.98251 0.81708 0.22226 0.0
C4281 C 0.98004 0.79957 0.17733 0.0
C4282 C 0.96227 0.79653 0.18842 0.0
C4283 C 0.94566 0.80128 0.22258 0.0
C4284 C 0.94714 0.80928 0.24538 0.0
C4285 C 0.9633 0.80504 0.21098 0.0
C4286 C 0.96623 0.82209 0.25603 0.0
C4287 C 0.98365 0.8259 0.24468 0.0
H4288 H 0.55179 0.37846 0.10705 0.0
H4289 H 0.49891 0.33323 0.06826 0.0
H4290 H 0.50372 0.35432 0.03893 0.0
H4291 H 0.52295 0.3857 0.02427 0.0
H4292 H 0.57594 0.43067 0.06299 0.0
H4293 H 0.57128 0.40941 0.09223 0.0
C4294 C 0.54141 0.37312 0.09211 0.0
C4295 C 0.52498 0.35435 0.08991 0.0
C4296 C 0.54436 0.3852 0.07524 0.0
C4297 C 0.51148 0.34784 0.07056 0.0
C4298 C 0.51432 0.35977 0.05368 0.0
C4299 C 0.53362 0.39061 0.03899 0.0
C4300 C 0.54981 0.40961 0.04145 0.0
C4301 C 0.53073 0.37844 0.05582 0.0
C4302 C 0.56331 0.41611 0.06078 0.0
C4303 C 0.56066 0.40398 0.07749 0.0
H4304 H 0.01788 0.33809 0.30947 0.0
H4305 H 0.9849 0.271 0.30998 0.0
H4306 H 0.95299 0.27923 0.29579 0.0
H4307 H 0.93459 0.30575 0.28378 0.0
H4308 H 0.96745 0.37366 0.2859 0.0
H4309 H 0.99942 0.3647 0.29807 0.0
C4310 C 1.00374 0.3252 0.30614 0.0
C4311 C 1.00369 0.30391 0.31045 0.0
C4312 C 0.98549 0.3302 0.29848 0.0
C4313 C 0.98524 0.28747 0.30666 0.0
C4314 C 0.96705 0.29219 0.29859 0.0
C4315 C 0.94868 0.31868 0.28712 0.0
C4316 C 0.94854 0.34035 0.28382 0.0
C4317 C 0.96697 0.31357 0.29461 0.0
C4318 C 0.96709 0.35675 0.28789 0.0
C4319 C 0.98539 0.35169 0.29502 0.0
H4320 H 0.04914 0.67375 0.60232 0.0
H4321 H 0.98813 0.65465 0.56796 0.0
H4322 H 0.99706 0.62226 0.54564 0.0
H4323 H 0.02153 0.5982 0.5378 0.0
H4324 H 0.08147 0.61647 0.57459 0.0
H4325 H 0.07333 0.65013 0.59461 0.0
C4326 C 0.03764 0.66236 0.59018 0.0
C4327 C 0.01789 0.66637 0.58708 0.0
C4328 C 0.04262 0.64356 0.57802 0.0
C4329 C 1.00346 0.65192 0.57067 0.0
C4330 C 0.0085 0.63334 0.55802 0.0
C4331 C 0.03286 0.60967 0.55006 0.0
C4332 C 0.05207 0.60488 0.55474 0.0
C4333 C 0.02795 0.62884 0.56181 0.0
C4334 C 0.06654 0.61972 0.57079 0.0
C4335 C 0.06193 0.639 0.58221 0.0
H4336 H 0.72461 0.81909 0.85355 0.0
H4337 H 0.70442 0.84638 0.79973 0.0
H4338 H 0.73775 0.84727 0.78497 0.0
H4339 H 0.77079 0.83509 0.7849 0.0
H4340 H 0.79029 0.80771 0.83894 0.0
H4341 H 0.75906 0.81182 0.85613 0.0
C4342 C 0.72762 0.8254 0.83869 0.0
C4343 C 0.71205 0.8321 0.82739 0.0
C4344 C 0.74658 0.82559 0.83029 0.0
C4345 C 0.71621 0.84092 0.80854 0.0
C4346 C 0.73523 0.84142 0.80012 0.0
C4347 C 0.76805 0.83013 0.80044 0.0
C4348 C 0.78189 0.81981 0.81012 0.0
C4349 C 0.75021 0.83294 0.81039 0.0
C4350 C 0.77908 0.81454 0.83078 0.0
C4351 C 0.76142 0.81713 0.8407 0.0
H4352 H 0.48445 0.53963 0.64382 0.0
H4353 H 0.52743 0.6 0.67689 0.0
H4354 H 0.54639 0.59991 0.6449 0.0
H4355 H 0.55173 0.5833 0.60606 0.0
H4356 H 0.50816 0.52352 0.57296 0.0
H4357 H 0.48943 0.5234 0.60521 0.0
C4358 C 0.49787 0.553 0.64437 0.0
C4359 C 0.50395 0.56968 0.66416 0.0
C4360 C 0.50914 0.55315 0.62513 0.0
C4361 C 0.52183 0.5864 0.66312 0.0
C4362 C 0.53293 0.58655 0.64429 0.0
C4363 C 0.53819 0.57012 0.60571 0.0
C4364 C 0.53195 0.55333 0.58606 0.0
C4365 C 0.52691 0.57003 0.62499 0.0
C4366 C 0.51398 0.53679 0.58702 0.0
C4367 C 0.50298 0.53666 0.60585 0.0
H4368 H 0.80149 0.2267 0.93368 0.0
H4369 H 0.77553 0.15964 0.89817 0.0
H4370 H 0.76484 0.17417 0.86664 0.0
H4371 H 0.76067 0.20593 0.85039 0.0
H4372 H 0.78504 0.27305 0.88669 0.0
H4373 H 0.79924 0.25849 0.91645 0.0
C4374 C 0.79392 0.21529 0.91884 0.0
C4375 C 0.78926 0.19218 0.91816 0.0
C4376 C 0.78753 0.22376 0.90098 0.0
C4377 C 0.77912 0.17752 0.89903 0.0
C4378 C 0.77303 0.1858 0.88105 0.0
C4379 C 0.76909 0.21736 0.86482 0.0
C4380 C 0.77159 0.24049 0.86646 0.0
C4381 C 0.77674 0.20889 0.88206 0.0
C4382 C 0.78298 0.25515 0.88499 0.0
C4383 C 0.79097 0.24685 0.90208 0.0
H4384 H 0.118 0.51417 0.14554 0.0
H4385 H 0.17382 0.53386 0.1153 0.0
H4386 H 0.15406 0.54268 0.08545 0.0
H4387 H 0.1214 0.54598 0.06873 0.0
H4388 H 0.06507 0.52196 0.0961 0.0
H4389 H 0.08469 0.51336 0.12636 0.0
C4390 C 0.12587 0.51985 0.1322 0.0
C4391 C 0.14745 0.52362 0.13289 0.0
C4392 C 0.11439 0.52435 0.11476 0.0
C4393 C 0.1573 0.53133 0.11553 0.0
C4394 C 0.14602 0.53628 0.09837 0.0
C4395 C 0.11335 0.5389 0.08131 0.0
C4396 C 0.09183 0.53529 0.08059 0.0
C4397 C 0.12463 0.53318 0.09805 0.0
C4398 C 0.08164 0.52551 0.09666 0.0
C4399 C 0.09286 0.52042 0.11386 0.0
H4400 H 0.8246 0.86566 0.4076 0.0
H4401 H 0.81276 0.79823 0.4187 0.0
H4402 H 0.81067 0.78391 0.37924 0.0
H4403 H 0.81046 0.79056 0.34069 0.0
H4404 H 0.82149 0.85844 0.33101 0.0
H4405 H 0.82611 0.87233 0.37039 0.0
C4406 C 0.82191 0.84781 0.40159 0.0
C4407 C 0.81886 0.8332 0.4165 0.0
C4408 C 0.82068 0.83965 0.3788 0.0
C4409 C 0.81491 0.81006 0.40788 0.0
C4410 C 0.81384 0.8018 0.38518 0.0
C4411 C 0.81439 0.80835 0.34729 0.0
C4412 C 0.81617 0.82347 0.33279 0.0
C4413 C 0.8165 0.81641 0.37035 0.0
C4414 C 0.82042 0.84647 0.34171 0.0
C4415 C 0.82295 0.85446 0.3643 0.0
H4416 H 0.52882 0.56283 0.8924 0.0
H4417 H 0.46796 0.56508 0.9109 0.0
H4418 H 0.4783 0.56083 0.94755 0.0
H4419 H 0.50428 0.55702 0.97587 0.0
H4420 H 0.56526 0.55389 0.95919 0.0
H4421 H 0.55532 0.55756 0.92153 0.0
C4422 C 0.5177 0.56244 0.90434 0.0
C4423 C 0.49713 0.56428 0.89774 0.0
C4424 C 0.52385 0.55964 0.92632 0.0
C4425 C 0.48357 0.56348 0.91434 0.0
C4426 C 0.48959 0.56111 0.93577 0.0
C4427 C 0.51554 0.55692 0.96407 0.0
C4428 C 0.5357 0.55484 0.97116 0.0
C4429 C 0.50961 0.55914 0.94212 0.0
C4430 C 0.54965 0.55506 0.95493 0.0
C4431 C 0.54388 0.55736 0.93311 0.0
H4432 H 0.81127 0.21618 0.14117 0.0
H4433 H 0.82586 0.27871 0.11928 0.0
H4434 H 0.82081 0.29871 0.15542 0.0
H4435 H 0.81283 0.29818 0.19332 0.0
H4436 H 0.79847 0.23525 0.21479 0.0
H4437 H 0.80228 0.21553 0.17849 0.0
C4438 C 0.81357 0.23422 0.14444 0.0
C4439 C 0.81929 0.24609 0.12787 0.0
C4440 C 0.81038 0.24544 0.165 0.0
C4441 C 0.82163 0.26935 0.13196 0.0
C4442 C 0.81869 0.28071 0.15254 0.0
C4443 C 0.81051 0.28015 0.19003 0.0
C4444 C 0.80566 0.26827 0.20683 0.0
C4445 C 0.8131 0.26891 0.16918 0.0
C4446 C 0.80224 0.24486 0.2022 0.0
C4447 C 0.80459 0.23355 0.18147 0.0
H4448 H 0.10282 0.5233 0.31166 0.0
H4449 H 0.15826 0.54236 0.35618 0.0
H4450 H 0.13817 0.54935 0.3871 0.0
H4451 H 0.10518 0.55187 0.40107 0.0
H4452 H 0.04939 0.53111 0.35681 0.0
H4453 H 0.06943 0.52364 0.32604 0.0
C4454 C 0.11044 0.52895 0.32816 0.0
C4455 C 0.13192 0.53236 0.33171 0.0
C4456 C 0.09881 0.53292 0.3458 0.0
C4457 C 0.14168 0.53943 0.35313 0.0
C4458 C 0.13024 0.54357 0.37076 0.0
C4459 C 0.09729 0.54529 0.38478 0.0
C4460 C 0.07577 0.54215 0.38131 0.0
C4461 C 0.10882 0.54055 0.36725 0.0
C4462 C 0.06596 0.53409 0.35995 0.0
C4463 C 0.07738 0.52963 0.34235 0.0
H4464 H 0.79417 0.85657 0.65875 0.0
H4465 H 0.84095 0.82304 0.63525 0.0
H4466 H 0.84419 0.81012 0.66982 0.0
H4467 H 0.83367 0.80822 0.70696 0.0
H4468 H 0.78413 0.83809 0.72884 0.0
H4469 H 0.78218 0.85272 0.69515 0.0
C4470 C 0.80503 0.8464 0.66121 0.0
C4471 C 0.81735 0.84085 0.64435 0.0
C4472 C 0.80641 0.83848 0.68103 0.0
C4473 C 0.83122 0.82748 0.64782 0.0
C4474 C 0.83314 0.82016 0.66767 0.0
C4475 C 0.8225 0.81799 0.70441 0.0
C4476 C 0.8092 0.82219 0.72064 0.0
C4477 C 0.82085 0.82556 0.68445 0.0
C4478 C 0.79466 0.83469 0.71678 0.0
C4479 C 0.79348 0.84302 0.69742 0.0
H4480 H 0.73737 0.50929 0.56307 0.0
H4481 H 0.77287 0.55195 0.52513 0.0
H4482 H 0.74815 0.5758 0.52823 0.0
H4483 H 0.71536 0.58321 0.53989 0.0
H4484 H 0.67927 0.53977 0.5767 0.0
H4485 H 0.70535 0.51761 0.57606 0.0
C4486 C 0.73984 0.52403 0.55581 0.0
C4487 C 0.75687 0.52889 0.5439 0.0
C4488 C 0.72542 0.53744 0.55738 0.0
C4489 C 0.75976 0.54781 0.53425 0.0
C4490 C 0.74567 0.56146 0.53604 0.0
C4491 C 0.71343 0.56912 0.54808 0.0
C4492 C 0.69551 0.56312 0.55835 0.0
C4493 C 0.7283 0.55626 0.5473 0.0
C4494 C 0.69295 0.5446 0.56859 0.0
C4495 C 0.70783 0.53196 0.56824 0.0
H4496 H 0.18201 0.13943 0.52865 0.0
H4497 H 0.19455 0.09209 0.4747 0.0
H4498 H 0.16003 0.06859 0.47381 0.0
H4499 H 0.12614 0.0612 0.48886 0.0
H4500 H 0.11513 0.10861 0.54385 0.0
H4501 H 0.14899 0.13202 0.54375 0.0
C4502 C 0.17738 0.12386 0.51682 0.0
C4503 C 0.19109 0.11762 0.50186 0.0
C4504 C 0.1576 0.1103 0.51654 0.0
C4505 C 0.18438 0.09756 0.48632 0.0
C4506 C 0.16462 0.08399 0.48587 0.0
C4507 C 0.13119 0.07655 0.5009 0.0
C4508 C 0.11791 0.08283 0.51643 0.0
C4509 C 0.15107 0.09014 0.50097 0.0
C4510 C 0.12479 0.10307 0.53168 0.0
C4511 C 0.14429 0.11661 0.5317 0.0
H4512 H 0.2558 0.90704 0.74657 0.0
H4513 H 0.23147 0.90966 0.8094 0.0
H4514 H 0.24625 0.879 0.81548 0.0
H4515 H 0.26603 0.85008 0.80417 0.0
H4516 H 0.29153 0.84592 0.74231 0.0
H4517 H 0.27718 0.87763 0.7354 0.0
C4518 C 0.25362 0.90113 0.76172 0.0
C4519 C 0.24138 0.91157 0.77712 0.0
C4520 C 0.26282 0.88269 0.76563 0.0
C4521 C 0.23963 0.90264 0.79647 0.0
C4522 C 0.2485 0.88478 0.80026 0.0
C4523 C 0.26872 0.85602 0.7891 0.0
C4524 C 0.28056 0.84498 0.77408 0.0
C4525 C 0.26006 0.87445 0.78507 0.0
C4526 C 0.28311 0.85357 0.75465 0.0
C4527 C 0.27462 0.87194 0.75061 0.0
H4528 H 0.44362 0.01695 0.02645 0.0
H4529 H 0.4422 0.95185 0.04179 0.0
H4530 H 0.47907 0.95819 0.04138 0.0
H4531 H 0.5121 0.98212 0.0371 0.0
H4532 H 0.51441 0.05017 0.03148 0.0
H4533 H 0.47705 0.04292 0.02801 0.0
C4534 C 0.45119 1.0042 0.03016 0.0
C4535 C 0.43957 0.98357 0.03333 0.0
C4536 C 0.47277 1.00843 0.03145 0.0
C4537 C 0.4502 0.96747 0.03807 0.0
C4538 C 0.4715 0.97115 0.03819 0.0
C4539 C 0.50437 0.9953 0.03495 0.0
C4540 C 0.516 0.01623 0.03305 0.0
C4541 C 0.48292 0.99148 0.03471 0.0
C4542 C 0.50589 0.0335 0.03152 0.0
C4543 C 0.48444 0.02945 0.02992 0.0
H4544 H 0.87039 0.65989 0.78762 0.0
H4545 H 0.83386 0.62287 0.82936 0.0
H4546 H 0.80624 0.6418 0.82374 0.0
H4547 H 0.79056 0.66433 0.80256 0.0
H4548 H 0.82612 0.70016 0.75942 0.0
H4549 H 0.85623 0.68659 0.77022 0.0
C4550 C 0.85649 0.65628 0.79573 0.0
C4551 C 0.85401 0.63986 0.80865 0.0
C4552 C 0.84048 0.66684 0.79201 0.0
C4553 C 0.83614 0.63553 0.81941 0.0
C4554 C 0.82027 0.64619 0.81606 0.0
C4555 C 0.80503 0.66939 0.79581 0.0
C4556 C 0.80614 0.68272 0.77992 0.0
C4557 C 0.82199 0.66118 0.80173 0.0
C4558 C 0.82498 0.68972 0.77159 0.0
C4559 C 0.8421 0.68185 0.77764 0.0
H4560 H 0.90951 0.649 0.03624 0.0
H4561 H 0.86213 0.59524 0.99851 0.0
H4562 H 0.88408 0.56905 1.0009 0.0
H4563 H 0.9163 0.56098 0.01441 0.0
H4564 H 0.96416 0.61432 0.05182 0.0
H4565 H 0.94268 0.64105 0.04862 0.0
C4566 C 0.90401 0.63155 0.02858 0.0
C4567 C 0.88414 0.62415 0.01719 0.0
C4568 C 0.91684 0.61647 0.0299 0.0
C4569 C 0.87738 0.60149 0.00717 0.0
C4570 C 0.8899 0.58644 0.0086 0.0
C4571 C 0.92204 0.57845 0.0219 0.0
C4572 C 0.94177 0.58555 0.03352 0.0
C4573 C 0.9096 0.59369 0.02001 0.0
C4574 C 0.94909 0.60837 0.04271 0.0
C4575 C 0.93674 0.62365 0.04101 0.0
H4576 H 0.27005 0.15184 0.79618 0.0
H4577 H 0.21507 0.15191 0.75628 0.0
H4578 H 0.22882 0.19057 0.75422 0.0
H4579 H 0.2566 0.22562 0.7634 0.0
H4580 H 0.31054 0.22635 0.80507 0.0
H4581 H 0.29711 0.1873 0.8067 0.0
C4582 C 0.26083 0.16013 0.78709 0.0
C4583 C 0.24133 0.14777 0.77607 0.0
C4584 C 0.2688 0.18318 0.78617 0.0
C4585 C 0.23023 0.1598 0.76449 0.0
C4586 C 0.23808 0.18241 0.76344 0.0
C4587 C 0.2655 0.21737 0.77292 0.0
C4588 C 0.28507 0.22953 0.78375 0.0
C4589 C 0.25741 0.19442 0.77411 0.0
C4590 C 0.29585 0.2179 0.79603 0.0
C4591 C 0.28801 0.1953 0.79712 0.0
H4592 H 0.33555 0.92324 0.2803 0.0
H4593 H 0.40068 0.92699 0.29037 0.0
H4594 H 0.39425 0.88635 0.28499 0.0
H4595 H 0.37018 0.84982 0.27708 0.0
H4596 H 0.30522 0.84556 0.26486 0.0
H4597 H 0.31136 0.88627 0.2713 0.0
C4598 C 0.34823 0.91504 0.28136 0.0
C4599 C 0.36851 0.92785 0.28562 0.0
C4600 C 0.34445 0.89168 0.27784 0.0
C4601 C 0.38495 0.91727 0.28689 0.0
C4602 C 0.3813 0.89412 0.28386 0.0
C4603 C 0.35743 0.85791 0.27589 0.0
C4604 C 0.33728 0.84496 0.2713 0.0
C4605 C 0.36114 0.88118 0.27922 0.0
C4606 C 0.32081 0.85535 0.26914 0.0
C4607 C 0.32434 0.87858 0.27267 0.0
H4608 H 0.57148 0.438 0.59287 0.0
H4609 H 0.59261 0.40967 0.53255 0.0
H4610 H 0.58864 0.44196 0.51722 0.0
H4611 H 0.58052 0.48005 0.52118 0.0
H4612 H 0.56003 0.50769 0.58206 0.0
H4613 H 0.56189 0.47426 0.5962 0.0
C4614 C 0.57501 0.43851 0.57624 0.0
C4615 C 0.58259 0.42085 0.56426 0.0
C4616 C 0.5726 0.45737 0.56727 0.0
C4617 C 0.5872 0.42275 0.54274 0.0
C4618 C 0.58474 0.44135 0.53373 0.0
C4619 C 0.57593 0.47849 0.53728 0.0
C4620 C 0.56945 0.49647 0.55019 0.0
C4621 C 0.57759 0.45901 0.54583 0.0
C4622 C 0.56455 0.49417 0.57145 0.0
C4623 C 0.56577 0.47499 0.5797 0.0
H4624 H 0.42182 0.75263 0.33341 0.0
H4625 H 0.41797 0.80583 0.38658 0.0
H4626 H 0.38837 0.81262 0.36655 0.0
H4627 H 0.36312 0.80386 0.33363 0.0
H4628 H 0.36598 0.74938 0.28142 0.0
H4629 H 0.39582 0.74288 0.30126 0.0
C4630 C 0.41448 0.76559 0.34083 0.0
C4631 C 0.42272 0.77879 0.36165 0.0
C4632 C 0.39702 0.76937 0.32922 0.0
C4633 C 0.41268 0.7956 0.37052 0.0
C4634 C 0.39547 0.79946 0.35907 0.0
C4635 C 0.37021 0.79053 0.32655 0.0
C4636 C 0.36221 0.77746 0.30564 0.0
C4637 C 0.38749 0.78655 0.33833 0.0
C4638 C 0.37179 0.76017 0.2971 0.0
C4639 C 0.38892 0.75627 0.30859 0.0
H4640 H 0.07996 0.68679 0.03814 0.0
H4641 H 0.09116 0.69475 0.10814 0.0
H4642 H 0.08678 0.65449 0.10457 0.0
H4643 H 0.07863 0.61658 0.08202 0.0
H4644 H 0.06871 0.60744 0.01196 0.0
H4645 H 0.07401 0.6481 0.01495 0.0
C4646 C 0.08146 0.67968 0.05258 0.0
C4647 C 0.08585 0.69406 0.07348 0.0
C4648 C 0.0793 0.65615 0.05037 0.0
C4649 C 0.0879 0.68435 0.09191 0.0
C4650 C 0.08537 0.66122 0.08987 0.0
C4651 C 0.07791 0.62351 0.06735 0.0
C4652 C 0.07355 0.60884 0.04677 0.0
C4653 C 0.08098 0.64691 0.06926 0.0
C4654 C 0.07243 0.6182 0.02798 0.0
C4655 C 0.07528 0.64154 0.02975 0.0
H4656 H 0.13873 0.29927 0.87719 0.0
H4657 H 0.09562 0.25257 0.82732 0.0
H4658 H 0.12215 0.25313 0.80208 0.0
H4659 H 0.15725 0.26761 0.79348 0.0
H4660 H 0.20101 0.31381 0.84295 0.0
H4661 H 0.17486 0.31242 0.86899 0.0
C4662 C 0.13516 0.28924 0.86079 0.0
C4663 C 0.11507 0.2759 0.85424 0.0
C4664 C 0.15069 0.28945 0.84625 0.0
C4665 C 0.11088 0.26283 0.83296 0.0
C4666 C 0.12607 0.26319 0.81843 0.0
C4667 C 0.16112 0.27736 0.80998 0.0
C4668 C 0.18112 0.29095 0.81611 0.0
C4669 C 0.14598 0.27651 0.82482 0.0
C4670 C 0.18586 0.30311 0.83774 0.0
C4671 C 0.17082 0.30245 0.85261 0.0
H4672 H 0.61213 0.72571 0.95555 0.0
H4673 H 0.55821 0.75285 0.96354 0.0
H4674 H 0.54808 0.73052 0.99099 0.0
H4675 H 0.55428 0.70298 0.01249 0.0
H4676 H 0.60853 0.67641 1.00518 0.0
H4677 H 0.61887 0.69896 0.97786 0.0
C4678 C 0.59827 0.7269 0.96344 0.0
C4679 C 0.5859 0.74084 0.95736 0.0
C4680 C 0.5926 0.71415 0.97938 0.0
C4681 C 0.56784 0.74196 0.96759 0.0
C4682 C 0.5621 0.72932 0.98342 0.0
C4683 C 0.56851 0.70239 1.00515 0.0
C4684 C 0.58062 0.6881 0.01089 0.0
C4685 C 0.57434 0.71534 0.98943 0.0
C4686 C 0.59884 0.68716 1.00091 0.0
C4687 C 0.60479 0.70008 0.98533 0.0
H4688 H 0.10229 0.73484 0.72228 0.0
H4689 H 0.12607 0.8061 0.73178 0.0
H4690 H 0.15928 0.80198 0.74682 0.0
H4691 H 0.18193 0.7779 0.75605 0.0
H4692 H 0.15869 0.7063 0.74191 0.0
H4693 H 0.12503 0.71092 0.72963 0.0
C4694 C 0.11476 0.74953 0.72727 0.0
C4695 C 0.11158 0.77074 0.72566 0.0
C4696 C 0.13401 0.74698 0.73507 0.0
C4697 C 0.12787 0.78956 0.73301 0.0
C4698 C 0.14698 0.78721 0.74143 0.0
C4699 C 0.1696 0.76327 0.75005 0.0
C4700 C 0.17294 0.74178 0.75021 0.0
C4701 C 0.15029 0.76595 0.7423 0.0
C4702 C 0.15658 0.72309 0.74259 0.0
C4703 C 0.13729 0.72567 0.73535 0.0
H4704 H 0.11482 0.42824 0.47132 0.0
H4705 H 0.07307 0.42446 0.41484 0.0
H4706 H 0.06252 0.45781 0.433 0.0
H4707 H 0.0642 0.48686 0.46559 0.0
H4708 H 0.10834 0.49231 0.52078 0.0
H4709 H 0.11876 0.45934 0.50261 0.0
C4710 C 0.10352 0.4349 0.46304 0.0
C4711 C 0.0946 0.42409 0.44198 0.0
C4712 C 0.09777 0.4541 0.47343 0.0
C4713 C 0.08013 0.43276 0.43111 0.0
C4714 C 0.07405 0.45167 0.4415 0.0
C4715 C 0.07609 0.48086 0.47367 0.0
C4716 C 0.08487 0.49158 0.4949 0.0
C4717 C 0.08259 0.46231 0.46278 0.0
C4718 C 0.10066 0.4839 0.50484 0.0
C4719 C 0.10685 0.46515 0.49435 0.0
H4720 H 0.39733 0.26669 0.19989 0.0
H4721 H 0.42671 0.24609 0.25389 0.0
H4722 H 0.39467 0.24061 0.27039 0.0
H4723 H 0.35963 0.24704 0.2727 0.0
H4724 H 0.33389 0.27596 0.22316 0.0
H4725 H 0.36325 0.27371 0.20234 0.0
C4726 C 0.3972 0.26154 0.21552 0.0
C4727 C 0.415 0.25721 0.22545 0.0
C4728 C 0.37919 0.26018 0.22604 0.0
C4729 C 0.41354 0.24931 0.24526 0.0
C4730 C 0.39512 0.24631 0.255 0.0
C4731 C 0.3605 0.25261 0.25724 0.0
C4732 C 0.34506 0.26224 0.24972 0.0
C4733 C 0.37805 0.25243 0.24594 0.0
C4734 C 0.34596 0.26913 0.22955 0.0
C4735 C 0.36271 0.26775 0.2176 0.0
H4736 H 0.60454 0.50201 0.38769 0.0
H4737 H 0.64831 0.56554 0.40379 0.0
H4738 H 0.63567 0.573 0.43951 0.0
H4739 H 0.61169 0.56236 0.46771 0.0
H4740 H 0.5685 0.49858 0.4519 0.0
H4741 H 0.58091 0.49117 0.41597 0.0
C4742 C 0.61144 0.51762 0.3988 0.0
C4743 C 0.62801 0.53288 0.39195 0.0
C4744 C 0.6039 0.52211 0.42016 0.0
C4745 C 0.63612 0.55283 0.40766 0.0
C4746 C 0.62866 0.55734 0.42852 0.0
C4747 C 0.60491 0.54674 0.45656 0.0
C4748 C 0.58851 0.53132 0.46339 0.0
C4749 C 0.61254 0.54219 0.43524 0.0
C4750 C 0.58056 0.51128 0.44785 0.0
C4751 C 0.58789 0.50685 0.42694 0.0
H4752 H 0.31617 0.83609 0.07131 0.0
H4753 H 0.32038 0.89153 0.12496 0.0
H4754 H 0.32659 0.86832 0.15105 0.0
H4755 H 0.33273 0.83327 0.15822 0.0
H4756 H 0.32613 0.77663 0.10509 0.0
H4757 H 0.31989 0.79976 0.0789 0.0
C4758 C 0.31831 0.84295 0.08874 0.0
C4759 C 0.31784 0.86537 0.09633 0.0
C4760 C 0.32186 0.82953 0.10357 0.0
C4761 C 0.32047 0.8742 0.11887 0.0
C4762 C 0.3242 0.86103 0.13372 0.0
C4763 C 0.32945 0.8257 0.14098 0.0
C4764 C 0.32976 0.80313 0.13369 0.0
C4765 C 0.32515 0.83878 0.1262 0.0
C4766 C 0.32624 0.794 0.11116 0.0
C4767 C 0.32246 0.80714 0.0962 0.0
H4768 H 0.01171 0.56952 0.89849 0.0
H4769 H 0.95642 0.5331 0.91973 0.0
H4770 H 0.97605 0.52897 0.95211 0.0
H4771 H 0.00821 0.5354 0.97398 0.0
H4772 H 0.06389 0.57363 0.95522 0.0
H4773 H 0.04468 0.57723 0.92192 0.0
C4774 C 1.00399 0.56089 0.91035 0.0
C4775 C 0.98271 0.55142 0.90665 0.0
C4776 C 0.01536 0.55875 0.92913 0.0
C4777 C 0.97286 0.54015 0.92202 0.0
C4778 C 0.98402 0.53786 0.94057 0.0
C4779 C 0.01634 0.5446 0.96277 0.0
C4780 C 0.03755 0.5541 0.96706 0.0
C4781 C 1.00522 0.54699 0.94418 0.0
C4782 C 0.04763 0.56587 0.95214 0.0
C4783 C 0.03662 0.56807 0.93321 0.0
H4784 H 0.30717 0.28213 0.64087 0.0
H4785 H 0.29719 0.21092 0.63632 0.0
H4786 H 0.29849 0.21588 0.676 0.0
H4787 H 0.30358 0.24011 0.71218 0.0
H4788 H 0.31279 0.31125 0.71824 0.0
H4789 H 0.31039 0.30677 0.67809 0.0
C4790 C 0.30528 0.26776 0.64862 0.0
C4791 C 0.30208 0.24612 0.63547 0.0
C4792 C 0.30576 0.27071 0.67177 0.0
C4793 C 0.2995 0.22769 0.64587 0.0
C4794 C 0.30029 0.23051 0.66863 0.0
C4795 C 0.30482 0.25464 0.70469 0.0
C4796 C 0.30807 0.27594 0.71819 0.0
C4797 C 0.3035 0.25188 0.68174 0.0
C4798 C 0.30989 0.29463 0.70825 0.0
C4799 C 0.30869 0.29204 0.68527 0.0
H4800 H 0.64467 0.54391 0.14169 0.0
H4801 H 0.58755 0.51541 0.16521 0.0
H4802 H 0.56854 0.51957 0.13231 0.0
H4803 H 0.56719 0.52962 0.09445 0.0
H4804 H 0.62468 0.55681 0.07112 0.0
H4805 H 0.64337 0.55484 0.10513 0.0
C4806 C 0.62806 0.53847 0.13994 0.0
C4807 C 0.6182 0.52932 0.1572 0.0
C4808 C 0.6167 0.54085 0.12028 0.0
C4809 C 0.59635 0.52284 0.15336 0.0
C4810 C 0.58515 0.52513 0.13404 0.0
C4811 C 0.58373 0.53581 0.09695 0.0
C4812 C 0.59407 0.54431 0.07962 0.0
C4813 C 0.59498 0.53408 0.1171 0.0
C4814 C 0.6158 0.55089 0.08373 0.0
C4815 C 0.62674 0.54954 0.10341 0.0
H4816 H 0.28893 0.85197 0.90846 0.0
H4817 H 0.33524 0.90817 0.89803 0.0
H4818 H 0.34173 0.88607 0.86429 0.0
H4819 H 0.33413 0.85123 0.83753 0.0
H4820 H 0.29264 0.79329 0.85092 0.0
H4821 H 0.28548 0.8155 0.88474 0.0
C4822 C 0.30082 0.85949 0.8993 0.0
C4823 C 0.31115 0.88213 0.90597 0.0
C4824 C 0.30558 0.84628 0.88053 0.0
C4825 C 0.32623 0.89122 0.89318 0.0
C4826 C 0.33033 0.87843 0.87397 0.0
C4827 C 0.32358 0.84331 0.84783 0.0
C4828 C 0.31284 0.82092 0.84097 0.0
C4829 C 0.32003 0.85601 0.86747 0.0
C4830 C 0.30007 0.81081 0.85513 0.0
C4831 C 0.29612 0.82348 0.87456 0.0
H4832 H 0.98104 0.52647 0.69645 0.0
H4833 H 0.01796 0.58376 0.74147 0.0
H4834 H 0.04673 0.58337 0.7191 0.0
H4835 H 0.06108 0.56721 0.68632 0.0
H4836 H 0.02389 0.51056 0.64087 0.0
H4837 H 0.99556 0.5099 0.66404 0.0
C4838 C 0.99545 0.53874 0.70142 0.0
C4839 C 0.99741 0.55515 0.72048 0.0
C4840 C 0.01187 0.53841 0.68852 0.0
C4841 C 0.01604 0.57116 0.72665 0.0
C4842 C 0.03252 0.57084 0.71399 0.0
C4843 C 0.04688 0.55451 0.68177 0.0
C4844 C 0.04452 0.53883 0.66217 0.0
C4845 C 0.03059 0.55458 0.69488 0.0
C4846 C 0.02596 0.52272 0.65603 0.0
C4847 C 0.00979 0.5224 0.66919 0.0
H4848 H 0.3066 0.22074 0.38836 0.0
H4849 H 0.31059 0.2865 0.42673 0.0
H4850 H 0.31275 0.3021 0.39358 0.0
H4851 H 0.31253 0.2971 0.35308 0.0
H4852 H 0.30767 0.23098 0.31519 0.0
H4853 H 0.30645 0.21574 0.34844 0.0
C4854 C 0.30772 0.23847 0.3896 0.0
C4855 C 0.30841 0.25226 0.41038 0.0
C4856 C 0.30871 0.24741 0.37033 0.0
C4857 C 0.31031 0.27532 0.41126 0.0
C4858 C 0.31141 0.28432 0.39217 0.0
C4859 C 0.31135 0.27938 0.35213 0.0
C4860 C 0.31 0.26524 0.33145 0.0
C4861 C 0.31057 0.27054 0.37154 0.0
C4862 C 0.30842 0.2423 0.33069 0.0
C4863 C 0.3078 0.23352 0.34979 0.0
H4864 H 0.36767 0.55214 0.51587 0.0
H4865 H 0.403 0.6067 0.49083 0.0
H4866 H 0.42877 0.58504 0.48097 0.0
H4867 H 0.44193 0.55136 0.48128 0.0
H4868 H 0.40662 0.49674 0.50632 0.0
H4869 H 0.37978 0.51744 0.51397 0.0
C4870 C 0.38104 0.5592 0.50825 0.0
C4871 C 0.38371 0.58095 0.50426 0.0
C4872 C 0.3956 0.54661 0.50251 0.0
C4873 C 0.40079 0.58994 0.49403 0.0
C4874 C 0.41547 0.5776 0.48844 0.0
C4875 C 0.42825 0.54396 0.48826 0.0
C4876 C 0.42622 0.52268 0.49337 0.0
C4877 C 0.41312 0.55603 0.49283 0.0
C4878 C 0.40838 0.51306 0.50212 0.0
C4879 C 0.39316 0.52495 0.50667 0.0
H4880 H 0.93922 0.95098 0.52304 0.0
H4881 H 0.92512 1.00153 0.5727 0.0
H4882 H 0.95928 0.0255 0.57242 0.0
H4883 H 0.99346 0.03193 0.55808 0.0
H4884 H 1.00607 0.98148 0.50697 0.0
H4885 H 0.97261 0.95767 0.50826 0.0
C4886 C 0.94366 0.96716 0.53395 0.0
C4887 C 0.92962 0.97433 0.54796 0.0
C4888 C 0.96321 0.98093 0.53353 0.0
C4889 C 0.93556 0.99559 0.56167 0.0
C4890 C 0.95514 0.00928 0.56158 0.0
C4891 C 0.98885 0.01584 0.5471 0.0
C4892 C 1.00248 1.00878 0.53238 0.0
C4893 C 0.96914 1.00215 0.54754 0.0
C4894 C 0.99615 0.98761 0.51851 0.0
C4895 C 0.97687 0.97385 0.51917 0.0
H4896 H 0.86951 0.1886 0.30196 0.0
H4897 H 0.88547 0.17866 0.23541 0.0
H4898 H 0.86984 0.20868 0.22872 0.0
H4899 H 0.85202 0.23935 0.24073 0.0
H4900 H 0.83604 0.2515 0.30682 0.0
H4901 H 0.85071 0.22015 0.31416 0.0
C4902 C 0.86967 0.19279 0.28588 0.0
C4903 C 0.87898 0.17988 0.26921 0.0
C4904 C 0.86027 0.21104 0.2818 0.0
C4905 C 0.87845 0.18678 0.24877 0.0
C4906 C 0.86944 0.20452 0.24482 0.0
C4907 C 0.85133 0.2351 0.25678 0.0
C4908 C 0.84191 0.24817 0.27285 0.0
C4909 C 0.86022 0.21687 0.26103 0.0
C4910 C 0.84227 0.24203 0.29363 0.0
C4911 C 0.851 0.2239 0.2979 0.0
H4912 H 0.69128 0.07824 0.03187 0.0
H4913 H 0.69145 0.14231 0.07243 0.0
H4914 H 0.65427 0.13375 0.06757 0.0
H4915 H 0.62148 0.10905 0.04981 0.0
H4916 H 0.62122 0.04224 0.01692 0.0
H4917 H 0.6588 0.05076 0.02137 0.0
C4918 C 0.68354 0.09029 0.04034 0.0
C4919 C 0.69473 0.11155 0.05147 0.0
C4920 C 0.66198 0.08476 0.03884 0.0
C4921 C 0.68369 0.12643 0.06236 0.0
C4922 C 0.66225 0.12149 0.05988 0.0
C4923 C 0.62976 0.09634 0.04395 0.0
C4924 C 0.6188 0.075 0.03351 0.0
C4925 C 0.65127 0.10098 0.04758 0.0
C4926 C 0.62943 0.05858 0.02571 0.0
C4927 C 0.6509 0.0635 0.0281 0.0
H4928 H 0.28503 0.47505 0.29369 0.0
H4929 H 0.25208 0.41924 0.24436 0.0
H4930 H 0.26972 0.39423 0.26015 0.0
H4931 H 0.29196 0.38805 0.2901 0.0
H4932 H 0.32488 0.44426 0.33931 0.0
H4933 H 0.30936 0.46941 0.32168 0.0
C4934 C 0.28191 0.45743 0.28632 0.0
C4935 C 0.26725 0.44881 0.26813 0.0
C4936 C 0.29176 0.44328 0.29567 0.0
C4937 C 0.26342 0.42611 0.25838 0.0
C4938 C 0.27334 0.41186 0.2675 0.0
C4939 C 0.29598 0.40585 0.29678 0.0
C4940 C 0.30934 0.41429 0.31614 0.0
C4941 C 0.28716 0.42021 0.28647 0.0
C4942 C 0.31427 0.43734 0.32471 0.0
C4943 C 0.30556 0.45173 0.31456 0.0
H4944 H 0.24134 0.46695 1.00249 0.0
H4945 H 0.22256 0.4513 0.06379 0.0
H4946 H 0.19269 0.46767 0.05971 0.0
H4947 H 0.17023 0.48389 0.037 0.0
H4948 H 0.18961 0.49912 0.97575 0.0
H4949 H 0.22079 0.48572 0.98158 0.0
C4950 C 0.23073 0.46714 0.01499 0.0
C4951 C 0.23414 0.45768 0.03331 0.0
C4952 C 0.2136 0.47657 0.01253 0.0
C4953 C 0.2204 0.4585 0.04954 0.0
C4954 C 0.20324 0.46779 0.04717 0.0
C4955 C 0.18152 0.48469 0.02522 0.0
C4956 C 0.17752 0.49237 1.00588 0.0
C4957 C 0.19947 0.47661 0.02855 0.0
C4958 C 0.19225 0.49315 0.99067 0.0
C4959 C 0.21007 0.48541 0.99395 0.0
H4960 H 0.84815 0.9416 0.2557 0.0
H4961 H 0.90721 0.94044 0.28642 0.0
H4962 H 0.8943 0.90155 0.28935 0.0
H4963 H 0.86613 0.86695 0.28334 0.0
H4964 H 0.80812 0.86698 0.24953 0.0
H4965 H 0.82044 0.90624 0.24793 0.0
C4966 C 0.85824 0.93294 0.26313 0.0
C4967 C 0.87887 0.94461 0.27088 0.0
C4968 C 0.85075 0.9099 0.26434 0.0
C4969 C 0.89143 0.93241 0.28015 0.0
C4970 C 0.88397 0.90993 0.2819 0.0
C4971 C 0.85606 0.87541 0.27558 0.0
C4972 C 0.83566 0.86344 0.26714 0.0
C4973 C 0.86365 0.89832 0.27403 0.0
C4974 C 0.82344 0.87531 0.25692 0.0
C4975 C 0.83066 0.89801 0.25579 0.0
H4976 H 0.74161 0.16597 0.75972 0.0
H4977 H 0.80032 0.14881 0.7687 0.0
H4978 H 0.81732 0.18841 0.77941 0.0
H4979 H 0.81559 0.22807 0.78481 0.0
H4980 H 0.75716 0.24484 0.77345 0.0
H4981 H 0.73979 0.20519 0.76525 0.0
C4982 C 0.75815 0.17087 0.76382 0.0
C4983 C 0.7697 0.15448 0.76324 0.0
C4984 C 0.7678 0.19357 0.76968 0.0
C4985 C 0.79106 0.16111 0.76914 0.0
C4986 C 0.8008 0.18373 0.77524 0.0
C4987 C 0.79907 0.22285 0.78049 0.0
C4988 C 0.78758 0.23891 0.77903 0.0
C4989 C 0.78934 0.20009 0.7754 0.0
C4990 C 0.76618 0.23243 0.77402 0.0
C4991 C 0.75631 0.20987 0.76944 0.0
loop_
_geom_bond_atom_site_label_1
_geom_bond_atom_site_label_2
_geom_bond_distance
_geom_bond_site_symmetry_2
_ccdc_geom_bond_type
Li0 N17 1.990 . S
Li0 O60 1.956 . S
Li0 O61 1.970 . S
Li0 O62 1.961 . S
Li1 N25 1.990 . S
Li1 O60 1.970 . S
Li1 O61 1.956 . S
Li1 O63 1.961 . S
Li2 N47 1.990 . S
Li2 O60 1.961 . S
Li2 O62 1.956 . S
Li2 O63 1.970 . S
Li3 N53 1.990 . S
Li3 O61 1.961 . S
Li3 O62 1.970 . S
Li3 O63 1.956 . S
C4 C6 1.348 . S
C4 C7 1.356 . S
C4 O60 1.325 . S
N5 C8 1.314 . S
N5 C9 1.279 . S
C6 C4 1.348 . S
C6 C8 1.353 . S
C6 H64 0.929 . S
C7 C4 1.356 . S
C7 C9 1.358 . S
C7 H65 0.930 . S
C8 N5 1.314 . S
C8 C6 1.353 . S
C8 H66 0.930 . S
C9 N5 1.279 . S
C9 C7 1.358 . S
C9 H67 0.930 . S
C10 C13 1.348 . S
C10 C14 1.356 . S
C10 O61 1.325 . S
C11 N12 1.279 . S
C11 C14 1.358 . S
C11 H68 0.930 . S
N12 C11 1.279 . S
N12 C15 1.314 . S
C13 C10 1.348 . S
C13 C15 1.353 . S
C13 H69 0.929 . S
C14 C10 1.356 . S
C14 C11 1.358 . S
C14 H70 0.930 . S
C15 N12 1.314 . S
C15 C13 1.353 . S
C15 H71 0.930 . S
C16 N17 1.314 . S
C16 C21 1.353 . S
C16 H22 0.930 . S
N17 Li0 1.990 . S
N17 C16 1.314 . S
N17 C19 1.279 . S
C18 C19 1.358 . S
C18 C20 1.356 . S
C18 H72 0.930 . S
C19 N17 1.279 . S
C19 C18 1.358 . S
C19 H23 0.930 . S
C20 C18 1.356 . S
C20 C21 1.348 . S
C21 C16 1.353 . S
C21 C20 1.348 . S
C21 H73 0.929 . S
H22 C16 0.930 . S
H23 C19 0.930 . S
C24 N25 1.314 . S
C24 C26 1.353 . S
C24 H30 0.930 . S
N25 Li1 1.990 . S
N25 C24 1.314 . S
N25 C28 1.279 . S
C26 C24 1.353 . S
C26 C29 1.348 . S
C26 H74 0.929 . S
C27 C28 1.358 . S
C27 C29 1.356 . S
C27 H75 0.930 . S
C28 N25 1.279 . S
C28 C27 1.358 . S
C28 H31 0.930 . S
C29 C26 1.348 . S
C29 C27 1.356 . S
H30 C24 0.930 . S
H31 C28 0.930 . S
C32 C34 1.348 . S
C32 C35 1.356 . S
C32 O62 1.325 . S
N33 C36 1.314 . S
N33 C37 1.279 . S
C34 C32 1.348 . S
C34 C36 1.353 . S
C34 H76 0.929 . S
C35 C32 1.356 . S
C35 C37 1.358 . S
C35 H77 0.930 . S
C36 N33 1.314 . S
C36 C34 1.353 . S
C36 H78 0.930 . S
C37 N33 1.279 . S
C37 C35 1.358 . S
C37 H79 0.930 . S
C38 C39 1.348 . S
C38 C40 1.356 . S
C38 O63 1.325 . S
C39 C38 1.348 . S
C39 C41 1.353 . S
C39 H80 0.929 . S
C40 C38 1.356 . S
C40 C42 1.358 . S
C40 H81 0.930 . S
C41 C39 1.353 . S
C41 N43 1.314 . S
C41 H82 0.930 . S
C42 C40 1.358 . S
C42 N43 1.279 . S
C42 H83 0.930 . S
N43 C41 1.314 . S
N43 C42 1.279 . S
C44 C46 1.353 . S
C44 N47 1.314 . S
C44 H50 0.930 . S
C45 N47 1.279 . S
C45 C48 1.358 . S
C45 H51 0.930 . S
C46 C44 1.353 . S
C46 C49 1.348 . S
C46 H84 0.929 . S
N47 Li2 1.990 . S
N47 C44 1.314 . S
N47 C45 1.279 . S
C48 C45 1.358 . S
C48 C49 1.356 . S
C48 H85 0.930 . S
C49 C46 1.348 . S
C49 C48 1.356 . S
H50 C44 0.930 . S
H51 C45 0.930 . S
C52 N53 1.314 . S
C52 C54 1.353 . S
C52 H58 0.930 . S
N53 Li3 1.990 . S
N53 C52 1.314 . S
N53 C56 1.279 . S
C54 C52 1.353 . S
C54 C57 1.348 . S
C54 H86 0.929 . S
C55 C56 1.358 . S
C55 C57 1.356 . S
C55 H87 0.930 . S
C56 N53 1.279 . S
C56 C55 1.358 . S
C56 H59 0.930 . S
C57 C54 1.348 . S
C57 C55 1.356 . S
H58 C52 0.930 . S
H59 C56 0.930 . S
O60 Li0 1.956 . S
O60 Li1 1.970 . S
O60 Li2 1.961 . S
O60 C4 1.325 . S
O61 Li0 1.970 . S
O61 Li1 1.956 . S
O61 Li3 1.961 . S
O61 C10 1.325 . S
O62 Li0 1.961 . S
O62 Li2 1.956 . S
O62 Li3 1.970 . S
O62 C32 1.325 . S
O63 Li1 1.961 . S
O63 Li2 1.970 . S
O63 Li3 1.956 . S
O63 C38 1.325 . S
H64 C6 0.929 . S
H65 C7 0.930 . S
H66 C8 0.930 . S
H67 C9 0.930 . S
H68 C11 0.930 . S
H69 C13 0.929 . S
H70 C14 0.930 . S
H71 C15 0.930 . S
H72 C18 0.930 . S
H73 C21 0.929 . S
H74 C26 0.929 . S
H75 C27 0.930 . S
H76 C34 0.929 . S
H77 C35 0.930 . S
H78 C36 0.930 . S
H79 C37 0.930 . S
H80 C39 0.929 . S
H81 C40 0.930 . S
H82 C41 0.930 . S
H83 C42 0.930 . S
H84 C46 0.929 . S
H85 C48 0.930 . S
H86 C54 0.929 . S
H87 C55 0.930 . S
Li88 N105 1.990 . S
Li88 O148 1.956 . S
Li88 O149 1.970 . S
Li88 O150 1.961 1_455 S
Li89 N113 1.990 . S
Li89 O148 1.970 . S
Li89 O149 1.956 . S
Li89 O151 1.936 1_455 S
Li90 N135 1.990 . S
Li90 O148 1.961 1_655 S
Li90 O150 1.956 . S
Li90 O151 1.972 . S
Li91 N141 1.990 . S
Li91 O149 1.961 1_655 S
Li91 O150 1.970 . S
Li91 O151 1.991 . S
C92 C94 1.348 . S
C92 C95 1.356 . S
C92 O148 1.325 . S
N93 C96 1.314 . S
N93 C97 1.279 . S
C94 C92 1.348 . S
C94 C96 1.353 . S
C94 H152 0.929 . S
C95 C92 1.356 . S
C95 C97 1.358 . S
C95 H153 0.930 . S
C96 N93 1.314 . S
C96 C94 1.353 . S
C96 H154 0.930 . S
C97 N93 1.279 . S
C97 C95 1.358 . S
C97 H155 0.930 . S
C98 C101 1.348 . S
C98 C102 1.356 . S
C98 O149 1.325 . S
C99 N100 1.279 . S
C99 C102 1.358 . S
C99 H156 0.930 . S
N100 C99 1.279 . S
N100 C103 1.314 . S
C101 C98 1.348 . S
C101 C103 1.353 . S
C101 H157 0.929 . S
C102 C98 1.356 . S
C102 C99 1.358 . S
C102 H158 0.929 1_455 S
C103 N100 1.314 . S
C103 C101 1.353 . S
C103 H159 0.930 . S
C104 N105 1.314 1_655 S
C104 C109 1.353 . S
C104 H110 0.930 . S
N105 Li88 1.990 . S
N105 C104 1.314 1_455 S
N105 C107 1.279 . S
C106 C107 1.358 . S
C106 C108 1.356 . S
C106 H160 0.930 . S
C107 N105 1.279 . S
C107 C106 1.358 . S
C107 H111 0.930 . S
C108 C106 1.356 . S
C108 C109 1.348 1_455 S
C109 C104 1.353 . S
C109 C108 1.348 1_655 S
C109 H161 0.929 . S
H110 C104 0.930 . S
H111 C107 0.930 . S
C112 N113 1.314 . S
C112 C114 1.353 . S
C112 H118 0.930 . S
N113 Li89 1.990 . S
N113 C112 1.314 . S
N113 C116 1.279 . S
C114 C112 1.353 . S
C114 C117 1.348 . S
C114 H162 0.929 . S
C115 C116 1.358 . S
C115 C117 1.356 . S
C115 H163 0.930 . S
C116 N113 1.279 . S
C116 C115 1.358 . S
C116 H119 0.930 . S
C117 C114 1.348 . S
C117 C115 1.356 . S
H118 C112 0.930 . S
H119 C116 0.930 . S
C120 C122 1.348 . S
C120 C123 1.356 . S
C120 O150 1.325 . S
N121 C124 1.314 . S
N121 C125 1.279 . S
C122 C120 1.348 . S
C122 C124 1.353 . S
C122 H164 0.929 . S
C123 C120 1.356 . S
C123 C125 1.358 . S
C123 H165 0.930 . S
C124 N121 1.314 . S
C124 C122 1.353 . S
C124 H166 0.930 . S
C125 N121 1.279 . S
C125 C123 1.358 . S
C125 H167 0.930 . S
C126 C127 1.348 . S
C126 C128 1.356 1_655 S
C126 O151 1.323 . S
C127 C126 1.348 . S
C127 C129 1.353 . S
C127 H168 0.929 . S
C128 C126 1.356 1_455 S
C128 C130 1.358 . S
C128 H169 0.930 . S
C129 C127 1.353 . S
C129 N131 1.314 . S
C129 H170 0.930 . S
C130 C128 1.358 . S
C130 N131 1.277 1_455 S
C130 H171 0.934 . S
N131 C129 1.314 . S
N131 C130 1.277 1_655 S
C132 C134 1.353 . S
C132 N135 1.314 1_455 S
C132 H138 0.930 . S
C133 N135 1.279 . S
C133 C136 1.358 . S
C133 H139 0.930 . S
C134 C132 1.353 . S
C134 C137 1.348 1_455 S
C134 H172 0.929 . S
N135 Li90 1.990 . S
N135 C132 1.314 1_655 S
N135 C133 1.279 . S
C136 C133 1.358 . S
C136 C137 1.356 . S
C136 H173 0.930 . S
C137 C134 1.348 1_655 S
C137 C136 1.356 . S
H138 C132 0.930 . S
H139 C133 0.930 . S
C140 N141 1.314 . S
C140 C142 1.353 . S
C140 H146 0.930 . S
N141 Li91 1.990 . S
N141 C140 1.314 . S
N141 C144 1.279 . S
C142 C140 1.353 . S
C142 C145 1.348 . S
C142 H174 0.929 . S
C143 C144 1.358 . S
C143 C145 1.356 . S
C143 H175 0.930 . S
C144 N141 1.279 . S
C144 C143 1.358 . S
C144 H147 0.930 . S
C145 C142 1.348 . S
C145 C143 1.356 . S
H146 C140 0.930 . S
H147 C144 0.930 . S
O148 Li88 1.956 . S
O148 Li89 1.970 . S
O148 Li90 1.961 1_455 S
O148 C92 1.325 . S
O149 Li88 1.970 . S
O149 Li89 1.956 . S
O149 Li91 1.961 1_455 S
O149 C98 1.325 . S
O150 Li88 1.961 1_655 S
O150 Li90 1.956 . S
O150 Li91 1.970 . S
O150 C120 1.325 . S
O151 Li89 1.936 1_655 S
O151 Li90 1.972 . S
O151 Li91 1.991 . S
O151 C126 1.323 . S
H152 C94 0.929 . S
H153 C95 0.930 . S
H154 C96 0.930 . S
H155 C97 0.930 . S
H156 C99 0.930 . S
H157 C101 0.929 . S
H158 C102 0.929 1_655 S
H159 C103 0.930 . S
H160 C106 0.930 . S
H161 C109 0.929 . S
H162 C114 0.929 . S
H163 C115 0.930 . S
H164 C122 0.929 . S
H165 C123 0.930 . S
H166 C124 0.930 . S
H167 C125 0.930 . S
H168 C127 0.929 . S
H169 C128 0.930 . S
H170 C129 0.930 . S
H171 C130 0.934 . S
H172 C134 0.929 . S
H173 C136 0.930 . S
H174 C142 0.929 . S
H175 C143 0.930 . S
Li176 N193 1.990 . S
Li176 O236 1.956 . S
Li176 O237 1.970 . S
Li176 O238 1.961 . S
Li177 N201 1.990 . S
Li177 O236 1.970 . S
Li177 O237 1.956 . S
Li177 O239 1.961 . S
Li178 N223 1.990 . S
Li178 O236 1.961 . S
Li178 O238 1.956 . S
Li178 O239 1.970 . S
Li179 N229 1.990 . S
Li179 O237 1.961 . S
Li179 O238 1.970 . S
Li179 O239 1.956 . S
C180 C182 1.348 . S
C180 C183 1.356 . S
C180 O236 1.325 . S
N181 C184 1.314 . S
N181 C185 1.279 . S
C182 C180 1.348 . S
C182 C184 1.353 . S
C182 H240 0.929 . S
C183 C180 1.356 . S
C183 C185 1.358 . S
C183 H241 0.930 . S
C184 N181 1.314 . S
C184 C182 1.353 . S
C184 H242 0.930 . S
C185 N181 1.279 . S
C185 C183 1.358 . S
C185 H243 0.930 . S
C186 C189 1.348 . S
C186 C190 1.356 . S
C186 O237 1.325 . S
C187 N188 1.279 . S
C187 C190 1.358 . S
C187 H244 0.930 . S
N188 C187 1.279 . S
N188 C191 1.314 . S
C189 C186 1.348 . S
C189 C191 1.353 . S
C189 H245 0.929 . S
C190 C186 1.356 . S
C190 C187 1.358 . S
C190 H246 0.930 . S
C191 N188 1.314 . S
C191 C189 1.353 . S
C191 H247 0.930 . S
C192 N193 1.314 . S
C192 C197 1.353 . S
C192 H198 0.930 . S
N193 Li176 1.990 . S
N193 C192 1.314 . S
N193 C195 1.279 . S
C194 C195 1.358 . S
C194 C196 1.356 . S
C194 H248 0.930 . S
C195 N193 1.279 . S
C195 C194 1.358 . S
C195 H199 0.930 . S
C196 C194 1.356 . S
C196 C197 1.348 . S
C197 C192 1.353 . S
C197 C196 1.348 . S
C197 H249 0.929 . S
H198 C192 0.930 . S
H199 C195 0.930 . S
C200 N201 1.314 . S
C200 C202 1.353 . S
C200 H206 0.930 . S
N201 Li177 1.990 . S
N201 C200 1.314 . S
N201 C204 1.279 . S
C202 C200 1.353 . S
C202 C205 1.348 . S
C202 H250 0.929 . S
C203 C204 1.358 . S
C203 C205 1.356 . S
C203 H251 0.930 . S
C204 N201 1.279 . S
C204 C203 1.358 . S
C204 H207 0.930 . S
C205 C202 1.348 . S
C205 C203 1.356 . S
H206 C200 0.930 . S
H207 C204 0.930 . S
C208 C210 1.348 . S
C208 C211 1.356 . S
C208 O238 1.325 . S
N209 C212 1.314 . S
N209 C213 1.279 . S
C210 C208 1.348 . S
C210 C212 1.353 . S
C210 H252 0.929 . S
C211 C208 1.356 . S
C211 C213 1.358 . S
C211 H253 0.930 . S
C212 N209 1.314 . S
C212 C210 1.353 . S
C212 H254 0.930 . S
C213 N209 1.279 . S
C213 C211 1.358 . S
C213 H255 0.930 . S
C214 C215 1.348 . S
C214 C216 1.356 . S
C214 O239 1.325 . S
C215 C214 1.348 . S
C215 C217 1.353 . S
C215 H256 0.929 . S
C216 C214 1.356 . S
C216 C218 1.358 . S
C216 H257 0.930 . S
C217 C215 1.353 . S
C217 N219 1.314 . S
C217 H258 0.930 . S
C218 C216 1.358 . S
C218 N219 1.279 . S
C218 H259 0.930 . S
N219 C217 1.314 . S
N219 C218 1.279 . S
C220 C222 1.353 . S
C220 N223 1.314 . S
C220 H226 0.930 . S
C221 N223 1.279 . S
C221 C224 1.358 . S
C221 H227 0.930 . S
C222 C220 1.353 . S
C222 C225 1.348 . S
C222 H260 0.929 . S
N223 Li178 1.990 . S
N223 C220 1.314 . S
N223 C221 1.279 . S
C224 C221 1.358 . S
C224 C225 1.356 . S
C224 H261 0.930 . S
C225 C222 1.348 . S
C225 C224 1.356 . S
H226 C220 0.930 . S
H227 C221 0.930 . S
C228 N229 1.314 . S
C228 C230 1.353 . S
C228 H234 0.930 . S
N229 Li179 1.990 . S
N229 C228 1.314 . S
N229 C232 1.279 . S
C230 C228 1.353 . S
C230 C233 1.348 . S
C230 H262 0.929 . S
C231 C232 1.358 . S
C231 C233 1.356 . S
C231 H263 0.930 . S
C232 N229 1.279 . S
C232 C231 1.358 . S
C232 H235 0.930 . S
C233 C230 1.348 . S
C233 C231 1.356 . S
H234 C228 0.930 . S
H235 C232 0.930 . S
O236 Li176 1.956 . S
O236 Li177 1.970 . S
O236 Li178 1.961 . S
O236 C180 1.325 . S
O237 Li176 1.970 . S
O237 Li177 1.956 . S
O237 Li179 1.961 . S
O237 C186 1.325 . S
O238 Li176 1.961 . S
O238 Li178 1.956 . S
O238 Li179 1.970 . S
O238 C208 1.325 . S
O239 Li177 1.961 . S
O239 Li178 1.970 . S
O239 Li179 1.956 . S
O239 C214 1.325 . S
H240 C182 0.929 . S
H241 C183 0.930 . S
H242 C184 0.930 . S
H243 C185 0.930 . S
H244 C187 0.930 . S
H245 C189 0.929 . S
H246 C190 0.930 . S
H247 C191 0.930 . S
H248 C194 0.930 . S
H249 C197 0.929 . S
H250 C202 0.929 . S
H251 C203 0.930 . S
H252 C210 0.929 . S
H253 C211 0.930 . S
H254 C212 0.930 . S
H255 C213 0.930 . S
H256 C215 0.929 . S
H257 C216 0.930 . S
H258 C217 0.930 . S
H259 C218 0.930 . S
H260 C222 0.929 . S
H261 C224 0.930 . S
H262 C230 0.929 . S
H263 C231 0.930 . S
Li264 N281 1.990 . S
Li264 O324 1.956 . S
Li264 O325 1.970 . S
Li264 O326 1.961 . S
Li265 N289 1.990 . S
Li265 O324 1.970 . S
Li265 O325 1.956 . S
Li265 O327 1.961 . S
Li266 N311 1.990 . S
Li266 O324 1.961 . S
Li266 O326 1.956 . S
Li266 O327 1.970 . S
Li267 N317 1.990 . S
Li267 O325 1.961 . S
Li267 O326 1.970 . S
Li267 O327 1.956 . S
C268 C270 1.348 . S
C268 C271 1.356 . S
C268 O324 1.325 . S
N269 C272 1.314 . S
N269 C273 1.279 . S
C270 C268 1.348 . S
C270 C272 1.353 . S
C270 H328 0.929 . S
C271 C268 1.356 . S
C271 C273 1.358 . S
C271 H329 0.930 . S
C272 N269 1.314 . S
C272 C270 1.353 . S
C272 H330 0.930 . S
C273 N269 1.279 . S
C273 C271 1.358 . S
C273 H331 0.930 . S
C274 C277 1.348 . S
C274 C278 1.356 . S
C274 O325 1.325 . S
C275 N276 1.279 . S
C275 C278 1.358 . S
C275 H332 0.930 . S
N276 C275 1.279 . S
N276 C279 1.314 . S
C277 C274 1.348 . S
C277 C279 1.353 . S
C277 H333 0.929 . S
C278 C274 1.356 . S
C278 C275 1.358 . S
C278 H334 0.930 . S
C279 N276 1.314 . S
C279 C277 1.353 . S
C279 H335 0.930 . S
C280 N281 1.314 . S
C280 C285 1.353 . S
C280 H286 0.930 . S
N281 Li264 1.990 . S
N281 C280 1.314 . S
N281 C283 1.279 . S
C282 C283 1.358 . S
C282 C284 1.356 . S
C282 H336 0.930 . S
C283 N281 1.279 . S
C283 C282 1.358 . S
C283 H287 0.930 . S
C284 C282 1.356 . S
C284 C285 1.348 . S
C285 C280 1.353 . S
C285 C284 1.348 . S
C285 H337 0.929 . S
H286 C280 0.930 . S
H287 C283 0.930 . S
C288 N289 1.314 . S
C288 C290 1.353 . S
C288 H294 0.930 . S
N289 Li265 1.990 . S
N289 C288 1.314 . S
N289 C292 1.279 . S
C290 C288 1.353 . S
C290 C293 1.348 . S
C290 H338 0.929 . S
C291 C292 1.358 . S
C291 C293 1.356 . S
C291 H339 0.930 . S
C292 N289 1.279 . S
C292 C291 1.358 . S
C292 H295 0.930 . S
C293 C290 1.348 . S
C293 C291 1.356 . S
H294 C288 0.930 . S
H295 C292 0.930 . S
C296 C298 1.348 . S
C296 C299 1.356 . S
C296 O326 1.325 . S
N297 C300 1.314 . S
N297 C301 1.279 . S
C298 C296 1.348 . S
C298 C300 1.353 . S
C298 H340 0.929 . S
C299 C296 1.356 . S
C299 C301 1.358 . S
C299 H341 0.930 . S
C300 N297 1.314 . S
C300 C298 1.353 . S
C300 H342 0.930 . S
C301 N297 1.279 . S
C301 C299 1.358 . S
C301 H343 0.930 . S
C302 C303 1.348 . S
C302 C304 1.356 . S
C302 O327 1.325 . S
C303 C302 1.348 . S
C303 C305 1.353 . S
C303 H344 0.929 . S
C304 C302 1.356 . S
C304 C306 1.358 . S
C304 H345 0.930 . S
C305 C303 1.353 . S
C305 N307 1.314 . S
C305 H346 0.930 . S
C306 C304 1.358 . S
C306 N307 1.279 . S
C306 H347 0.930 . S
N307 C305 1.314 . S
N307 C306 1.279 . S
C308 C310 1.353 . S
C308 N311 1.314 . S
C308 H314 0.930 . S
C309 N311 1.279 . S
C309 C312 1.358 . S
C309 H315 0.930 . S
C310 C308 1.353 . S
C310 C313 1.348 . S
C310 H348 0.929 . S
N311 Li266 1.990 . S
N311 C308 1.314 . S
N311 C309 1.279 . S
C312 C309 1.358 . S
C312 C313 1.356 . S
C312 H349 0.930 . S
C313 C310 1.348 . S
C313 C312 1.356 . S
H314 C308 0.930 . S
H315 C309 0.930 . S
C316 N317 1.314 . S
C316 C318 1.353 . S
C316 H322 0.930 . S
N317 Li267 1.990 . S
N317 C316 1.314 . S
N317 C320 1.279 . S
C318 C316 1.353 . S
C318 C321 1.348 . S
C318 H350 0.929 . S
C319 C320 1.358 . S
C319 C321 1.356 . S
C319 H351 0.930 . S
C320 N317 1.279 . S
C320 C319 1.358 . S
C320 H323 0.930 . S
C321 C318 1.348 . S
C321 C319 1.356 . S
H322 C316 0.930 . S
H323 C320 0.930 . S
O324 Li264 1.956 . S
O324 Li265 1.970 . S
O324 Li266 1.961 . S
O324 C268 1.325 . S
O325 Li264 1.970 . S
O325 Li265 1.956 . S
O325 Li267 1.961 . S
O325 C274 1.325 . S
O326 Li264 1.961 . S
O326 Li266 1.956 . S
O326 Li267 1.970 . S
O326 C296 1.325 . S
O327 Li265 1.961 . S
O327 Li266 1.970 . S
O327 Li267 1.956 . S
O327 C302 1.325 . S
H328 C270 0.929 . S
H329 C271 0.930 . S
H330 C272 0.930 . S
H331 C273 0.930 . S
H332 C275 0.930 . S
H333 C277 0.929 . S
H334 C278 0.930 . S
H335 C279 0.930 . S
H336 C282 0.930 . S
H337 C285 0.929 . S
H338 C290 0.929 . S
H339 C291 0.930 . S
H340 C298 0.929 . S
H341 C299 0.930 . S
H342 C300 0.930 . S
H343 C301 0.930 . S
H344 C303 0.929 . S
H345 C304 0.930 . S
H346 C305 0.930 . S
H347 C306 0.930 . S
H348 C310 0.929 . S
H349 C312 0.930 . S
H350 C318 0.929 . S
H351 C319 0.930 . S
Li352 N369 1.990 . S
Li352 O412 1.956 . S
Li352 O413 1.970 . S
Li352 O414 1.961 . S
Li353 N377 1.990 . S
Li353 O412 1.970 . S
Li353 O413 1.956 . S
Li353 O415 1.961 . S
Li354 N399 1.990 . S
Li354 O412 1.961 . S
Li354 O414 1.956 . S
Li354 O415 1.970 . S
Li355 N405 1.990 . S
Li355 O413 1.961 . S
Li355 O414 1.970 . S
Li355 O415 1.956 . S
C356 C358 1.348 . S
C356 C359 1.356 . S
C356 O412 1.325 . S
N357 C360 1.314 . S
N357 C361 1.279 . S
C358 C356 1.348 . S
C358 C360 1.353 . S
C358 H416 0.929 . S
C359 C356 1.356 . S
C359 C361 1.358 . S
C359 H417 0.930 . S
C360 N357 1.314 . S
C360 C358 1.353 . S
C360 H418 0.930 . S
C361 N357 1.279 . S
C361 C359 1.358 . S
C361 H419 0.930 . S
C362 C365 1.348 . S
C362 C366 1.356 . S
C362 O413 1.325 . S
C363 N364 1.279 . S
C363 C366 1.358 . S
C363 H420 0.930 . S
N364 C363 1.279 . S
N364 C367 1.314 . S
C365 C362 1.348 . S
C365 C367 1.353 . S
C365 H421 0.929 . S
C366 C362 1.356 . S
C366 C363 1.358 . S
C366 H422 0.930 . S
C367 N364 1.314 . S
C367 C365 1.353 . S
C367 H423 0.930 . S
C368 N369 1.314 . S
C368 C373 1.353 . S
C368 H374 0.930 . S
N369 Li352 1.990 . S
N369 C368 1.314 . S
N369 C371 1.279 . S
C370 C371 1.358 . S
C370 C372 1.356 . S
C370 H424 0.930 . S
C371 N369 1.279 . S
C371 C370 1.358 . S
C371 H375 0.930 . S
C372 C370 1.356 . S
C372 C373 1.348 . S
C373 C368 1.353 . S
C373 C372 1.348 . S
C373 H425 0.929 . S
H374 C368 0.930 . S
H375 C371 0.930 . S
C376 N377 1.314 . S
C376 C378 1.353 . S
C376 H382 0.930 . S
N377 Li353 1.990 . S
N377 C376 1.314 . S
N377 C380 1.279 . S
C378 C376 1.353 . S
C378 C381 1.348 . S
C378 H426 0.929 . S
C379 C380 1.358 . S
C379 C381 1.356 . S
C379 H427 0.930 . S
C380 N377 1.279 . S
C380 C379 1.358 . S
C380 H383 0.930 . S
C381 C378 1.348 . S
C381 C379 1.356 . S
H382 C376 0.930 . S
H383 C380 0.930 . S
C384 C386 1.348 . S
C384 C387 1.356 . S
C384 O414 1.325 . S
N385 C388 1.314 . S
N385 C389 1.279 . S
C386 C384 1.348 . S
C386 C388 1.353 . S
C386 H428 0.929 . S
C387 C384 1.356 . S
C387 C389 1.358 . S
C387 H429 0.930 . S
C388 N385 1.314 . S
C388 C386 1.353 . S
C388 H430 0.890 1_455 S
C389 N385 1.279 . S
C389 C387 1.358 . S
C389 H431 0.930 . S
C390 C391 1.348 . S
C390 C392 1.356 . S
C390 O415 1.325 . S
C391 C390 1.348 . S
C391 C393 1.353 . S
C391 H432 0.929 . S
C392 C390 1.356 . S
C392 C394 1.358 . S
C392 H433 0.930 . S
C393 C391 1.353 . S
C393 N395 1.314 . S
C393 H434 0.930 . S
C394 C392 1.358 . S
C394 N395 1.279 . S
C394 H435 0.930 . S
N395 C393 1.314 . S
N395 C394 1.279 . S
C396 C398 1.353 . S
C396 N399 1.314 . S
C396 H402 0.930 . S
C397 N399 1.279 . S
C397 C400 1.358 . S
C397 H403 0.930 . S
C398 C396 1.353 . S
C398 C401 1.348 . S
C398 H436 0.929 . S
N399 Li354 1.990 . S
N399 C396 1.314 . S
N399 C397 1.279 . S
C400 C397 1.358 . S
C400 C401 1.356 . S
C400 H437 0.930 . S
C401 C398 1.348 . S
C401 C400 1.356 . S
H402 C396 0.930 . S
H403 C397 0.930 . S
C404 N405 1.314 . S
C404 C406 1.353 . S
C404 H410 0.930 . S
N405 Li355 1.990 . S
N405 C404 1.314 . S
N405 C408 1.279 . S
C406 C404 1.353 . S
C406 C409 1.348 . S
C406 H438 0.929 . S
C407 C408 1.358 . S
C407 C409 1.356 . S
C407 H439 0.930 . S
C408 N405 1.279 . S
C408 C407 1.358 . S
C408 H411 0.930 . S
C409 C406 1.348 . S
C409 C407 1.356 . S
H410 C404 0.930 . S
H411 C408 0.930 . S
O412 Li352 1.956 . S
O412 Li353 1.970 . S
O412 Li354 1.961 . S
O412 C356 1.325 . S
O413 Li352 1.970 . S
O413 Li353 1.956 . S
O413 Li355 1.961 . S
O413 C362 1.325 . S
O414 Li352 1.961 . S
O414 Li354 1.956 . S
O414 Li355 1.970 . S
O414 C384 1.325 . S
O415 Li353 1.961 . S
O415 Li354 1.970 . S
O415 Li355 1.956 . S
O415 C390 1.325 . S
H416 C358 0.929 . S
H417 C359 0.930 . S
H418 C360 0.930 . S
H419 C361 0.930 . S
H420 C363 0.930 . S
H421 C365 0.929 . S
H422 C366 0.930 . S
H423 C367 0.930 . S
H424 C370 0.930 . S
H425 C373 0.929 . S
H426 C378 0.929 . S
H427 C379 0.930 . S
H428 C386 0.929 . S
H429 C387 0.930 . S
H430 C388 0.890 1_655 S
H431 C389 0.930 . S
H432 C391 0.929 . S
H433 C392 0.930 . S
H434 C393 0.930 . S
H435 C394 0.930 . S
H436 C398 0.929 . S
H437 C400 0.930 . S
H438 C406 0.929 . S
H439 C407 0.930 . S
Li440 N457 1.990 . S
Li440 O500 1.956 . S
Li440 O501 1.970 . S
Li440 O502 1.961 . S
Li441 N465 1.990 . S
Li441 O500 1.970 . S
Li441 O501 1.956 . S
Li441 O503 1.961 . S
Li442 N487 1.990 . S
Li442 O500 1.961 . S
Li442 O502 1.956 . S
Li442 O503 1.970 . S
Li443 N493 1.990 . S
Li443 O501 1.961 . S
Li443 O502 1.970 . S
Li443 O503 1.956 . S
C444 C446 1.348 . S
C444 C447 1.356 . S
C444 O500 1.325 . S
N445 C448 1.314 . S
N445 C449 1.279 . S
C446 C444 1.348 . S
C446 C448 1.353 . S
C446 H504 0.929 . S
C447 C444 1.356 . S
C447 C449 1.358 . S
C447 H505 0.930 . S
C448 N445 1.314 . S
C448 C446 1.353 . S
C448 H506 0.930 . S
C449 N445 1.279 . S
C449 C447 1.358 . S
C449 H507 0.930 . S
C450 C453 1.348 . S
C450 C454 1.356 . S
C450 O501 1.325 . S
C451 N452 1.279 . S
C451 C454 1.358 . S
C451 H508 0.930 . S
N452 C451 1.279 . S
N452 C455 1.314 . S
C453 C450 1.348 . S
C453 C455 1.353 . S
C453 H509 0.929 . S
C454 C450 1.356 . S
C454 C451 1.358 . S
C454 H510 0.930 . S
C455 N452 1.314 . S
C455 C453 1.353 . S
C455 H511 0.930 . S
C456 N457 1.314 . S
C456 C461 1.353 . S
C456 H462 0.930 . S
N457 Li440 1.990 . S
N457 C456 1.314 . S
N457 C459 1.279 . S
C458 C459 1.358 . S
C458 C460 1.356 . S
C458 H512 0.930 . S
C459 N457 1.279 . S
C459 C458 1.358 . S
C459 H463 0.930 . S
C460 C458 1.356 . S
C460 C461 1.348 . S
C461 C456 1.353 . S
C461 C460 1.348 . S
C461 H513 0.929 . S
H462 C456 0.930 . S
H463 C459 0.930 . S
C464 N465 1.314 . S
C464 C466 1.353 . S
C464 H470 0.930 . S
N465 Li441 1.990 . S
N465 C464 1.314 . S
N465 C468 1.279 . S
C466 C464 1.353 . S
C466 C469 1.348 . S
C466 H514 0.929 . S
C467 C468 1.358 . S
C467 C469 1.356 . S
C467 H515 0.930 . S
C468 N465 1.279 . S
C468 C467 1.358 . S
C468 H471 0.930 . S
C469 C466 1.348 . S
C469 C467 1.356 . S
H470 C464 0.930 . S
H471 C468 0.930 . S
C472 C474 1.348 . S
C472 C475 1.356 . S
C472 O502 1.325 . S
N473 C476 1.314 . S
N473 C477 1.279 . S
C474 C472 1.348 . S
C474 C476 1.353 . S
C474 H516 0.929 . S
C475 C472 1.356 . S
C475 C477 1.358 . S
C475 H517 0.930 . S
C476 N473 1.314 . S
C476 C474 1.353 . S
C476 H518 0.930 . S
C477 N473 1.279 . S
C477 C475 1.358 . S
C477 H519 0.930 . S
C478 C479 1.348 . S
C478 C480 1.356 . S
C478 O503 1.325 . S
C479 C478 1.348 . S
C479 C481 1.353 . S
C479 H520 0.929 . S
C480 C478 1.356 . S
C480 C482 1.358 . S
C480 H521 0.930 . S
C481 C479 1.353 . S
C481 N483 1.314 . S
C481 H522 0.930 . S
C482 C480 1.358 . S
C482 N483 1.279 . S
C482 H523 0.930 . S
N483 C481 1.314 . S
N483 C482 1.279 . S
C484 C486 1.353 . S
C484 N487 1.314 . S
C484 H490 0.930 . S
C485 N487 1.279 . S
C485 C488 1.358 . S
C485 H491 0.930 . S
C486 C484 1.353 . S
C486 C489 1.348 . S
C486 H524 0.929 . S
N487 Li442 1.990 . S
N487 C484 1.314 . S
N487 C485 1.279 . S
C488 C485 1.358 . S
C488 C489 1.356 . S
C488 H525 0.930 . S
C489 C486 1.348 . S
C489 C488 1.356 . S
H490 C484 0.930 . S
H491 C485 0.930 . S
C492 N493 1.314 . S
C492 C494 1.353 . S
C492 H498 0.930 . S
N493 Li443 1.990 . S
N493 C492 1.314 . S
N493 C496 1.279 . S
C494 C492 1.353 . S
C494 C497 1.348 . S
C494 H526 0.929 . S
C495 C496 1.358 . S
C495 C497 1.356 . S
C495 H527 0.930 . S
C496 N493 1.279 . S
C496 C495 1.358 . S
C496 H499 0.930 . S
C497 C494 1.348 . S
C497 C495 1.356 . S
H498 C492 0.930 . S
H499 C496 0.930 . S
O500 Li440 1.956 . S
O500 Li441 1.970 . S
O500 Li442 1.961 . S
O500 C444 1.325 . S
O501 Li440 1.970 . S
O501 Li441 1.956 . S
O501 Li443 1.961 . S
O501 C450 1.325 . S
O502 Li440 1.961 . S
O502 Li442 1.956 . S
O502 Li443 1.970 . S
O502 C472 1.325 . S
O503 Li441 1.961 . S
O503 Li442 1.970 . S
O503 Li443 1.956 . S
O503 C478 1.325 . S
H504 C446 0.929 . S
H505 C447 0.930 . S
H506 C448 0.930 . S
H507 C449 0.930 . S
H508 C451 0.930 . S
H509 C453 0.929 . S
H510 C454 0.930 . S
H511 C455 0.930 . S
H512 C458 0.930 . S
H513 C461 0.929 . S
H514 C466 0.929 . S
H515 C467 0.930 . S
H516 C474 0.929 . S
H517 C475 0.930 . S
H518 C476 0.930 . S
H519 C477 0.930 . S
H520 C479 0.929 . S
H521 C480 0.930 . S
H522 C481 0.930 . S
H523 C482 0.930 . S
H524 C486 0.929 . S
H525 C488 0.930 . S
H526 C494 0.929 . S
H527 C495 0.930 . S
Li528 N545 1.990 . S
Li528 O588 1.956 . S
Li528 O589 1.970 . S
Li528 O590 1.961 . S
Li529 N553 1.990 . S
Li529 O588 1.970 . S
Li529 O589 1.956 . S
Li529 O591 1.961 . S
Li530 N575 1.990 . S
Li530 O588 1.961 . S
Li530 O590 1.956 . S
Li530 O591 1.970 . S
Li531 N581 1.990 . S
Li531 O589 1.961 . S
Li531 O590 1.970 . S
Li531 O591 1.956 . S
C532 C534 1.348 . S
C532 C535 1.356 . S
C532 O588 1.325 . S
N533 C536 1.314 . S
N533 C537 1.279 . S
C534 C532 1.348 . S
C534 C536 1.353 . S
C534 H592 0.929 . S
C535 C532 1.356 . S
C535 C537 1.358 . S
C535 H593 0.930 . S
C536 N533 1.314 . S
C536 C534 1.353 . S
C536 H594 0.930 . S
C537 N533 1.279 . S
C537 C535 1.358 . S
C537 H595 0.930 . S
C538 C541 1.348 . S
C538 C542 1.356 . S
C538 O589 1.325 . S
C539 N540 1.279 . S
C539 C542 1.358 . S
C539 H596 0.930 . S
N540 C539 1.279 . S
N540 C543 1.314 . S
C541 C538 1.348 . S
C541 C543 1.353 . S
C541 H597 0.929 . S
C542 C538 1.356 . S
C542 C539 1.358 . S
C542 H598 0.930 . S
C543 N540 1.314 . S
C543 C541 1.353 . S
C543 H599 0.930 . S
C544 N545 1.314 . S
C544 C549 1.353 . S
C544 H550 0.930 . S
N545 Li528 1.990 . S
N545 C544 1.314 . S
N545 C547 1.279 . S
C546 C547 1.358 . S
C546 C548 1.356 . S
C546 H600 0.930 . S
C547 N545 1.279 . S
C547 C546 1.358 . S
C547 H551 0.930 . S
C548 C546 1.356 . S
C548 C549 1.348 . S
C549 C544 1.353 . S
C549 C548 1.348 . S
C549 H601 0.929 . S
H550 C544 0.930 . S
H551 C547 0.930 . S
C552 N553 1.314 . S
C552 C554 1.353 . S
C552 H558 0.930 . S
N553 Li529 1.990 . S
N553 C552 1.314 . S
N553 C556 1.279 . S
C554 C552 1.353 . S
C554 C557 1.348 . S
C554 H602 0.929 . S
C555 C556 1.358 . S
C555 C557 1.356 . S
C555 H603 0.930 . S
C556 N553 1.279 . S
C556 C555 1.358 . S
C556 H559 0.930 . S
C557 C554 1.348 . S
C557 C555 1.356 . S
H558 C552 0.930 . S
H559 C556 0.930 . S
C560 C562 1.348 . S
C560 C563 1.356 . S
C560 O590 1.325 . S
N561 C564 1.314 . S
N561 C565 1.279 . S
C562 C560 1.348 . S
C562 C564 1.353 . S
C562 H604 0.929 . S
C563 C560 1.356 . S
C563 C565 1.358 . S
C563 H605 0.930 . S
C564 N561 1.314 . S
C564 C562 1.353 . S
C564 H606 0.930 . S
C565 N561 1.279 . S
C565 C563 1.358 . S
C565 H607 0.930 . S
C566 C567 1.348 . S
C566 C568 1.356 . S
C566 O591 1.325 . S
C567 C566 1.348 . S
C567 C569 1.353 . S
C567 H608 0.929 . S
C568 C566 1.356 . S
C568 C570 1.358 . S
C568 H609 0.930 . S
C569 C567 1.353 . S
C569 N571 1.314 . S
C569 H610 0.930 . S
C570 C568 1.358 . S
C570 N571 1.279 . S
C570 H611 0.930 . S
N571 C569 1.314 . S
N571 C570 1.279 . S
C572 C574 1.353 . S
C572 N575 1.314 . S
C572 H578 0.930 . S
C573 N575 1.279 . S
C573 C576 1.358 . S
C573 H579 0.930 . S
C574 C572 1.353 . S
C574 C577 1.348 . S
C574 H612 0.929 . S
N575 Li530 1.990 . S
N575 C572 1.314 . S
N575 C573 1.279 . S
C576 C573 1.358 . S
C576 C577 1.356 . S
C576 H613 0.930 . S
C577 C574 1.348 . S
C577 C576 1.356 . S
H578 C572 0.930 . S
H579 C573 0.930 . S
C580 N581 1.314 . S
C580 C582 1.353 . S
C580 H586 0.930 . S
N581 Li531 1.990 . S
N581 C580 1.314 . S
N581 C584 1.279 . S
C582 C580 1.353 . S
C582 C585 1.348 . S
C582 H614 0.929 . S
C583 C584 1.358 . S
C583 C585 1.356 . S
C583 H615 0.930 . S
C584 N581 1.279 . S
C584 C583 1.358 . S
C584 H587 0.930 . S
C585 C582 1.348 . S
C585 C583 1.356 . S
H586 C580 0.930 . S
H587 C584 0.930 . S
O588 Li528 1.956 . S
O588 Li529 1.970 . S
O588 Li530 1.961 . S
O588 C532 1.325 . S
O589 Li528 1.970 . S
O589 Li529 1.956 . S
O589 Li531 1.961 . S
O589 C538 1.325 . S
O590 Li528 1.961 . S
O590 Li530 1.956 . S
O590 Li531 1.970 . S
O590 C560 1.325 . S
O591 Li529 1.961 . S
O591 Li530 1.970 . S
O591 Li531 1.956 . S
O591 C566 1.325 . S
H592 C534 0.929 . S
H593 C535 0.930 . S
H594 C536 0.930 . S
H595 C537 0.930 . S
H596 C539 0.930 . S
H597 C541 0.929 . S
H598 C542 0.930 . S
H599 C543 0.930 . S
H600 C546 0.930 . S
H601 C549 0.929 . S
H602 C554 0.929 . S
H603 C555 0.930 . S
H604 C562 0.929 . S
H605 C563 0.930 . S
H606 C564 0.930 . S
H607 C565 0.930 . S
H608 C567 0.929 . S
H609 C568 0.930 . S
H610 C569 0.930 . S
H611 C570 0.930 . S
H612 C574 0.929 . S
H613 C576 0.930 . S
H614 C582 0.929 . S
H615 C583 0.930 . S
Li616 N633 1.990 . S
Li616 O676 1.950 1_455 S
Li616 O677 1.970 . S
Li616 O678 1.961 . S
Li617 N641 1.966 1_455 S
Li617 O676 1.967 1_455 S
Li617 O677 1.975 . S
Li617 O679 1.984 . S
Li618 N663 1.990 . S
Li618 O676 1.953 1_455 S
Li618 O678 1.956 . S
Li618 O679 1.970 . S
Li619 N669 1.990 . S
Li619 O677 1.961 . S
Li619 O678 1.970 . S
Li619 O679 1.956 . S
C620 C622 1.348 . S
C620 C623 1.356 . S
C620 O676 1.332 . S
N621 C624 1.314 . S
N621 C625 1.297 . S
C622 C620 1.348 . S
C622 C624 1.353 . S
C622 H680 0.929 . S
C623 C620 1.356 . S
C623 C625 1.393 . S
C623 H681 0.930 . S
C624 N621 1.314 . S
C624 C622 1.353 . S
C624 H682 0.930 . S
C625 N621 1.297 . S
C625 C623 1.393 . S
C625 H683 0.875 1_556 S
C626 C629 1.348 . S
C626 C630 1.356 . S
C626 O677 1.325 . S
C627 N628 1.279 . S
C627 C630 1.358 . S
C627 H684 0.930 . S
N628 C627 1.279 . S
N628 C631 1.314 . S
C629 C626 1.348 . S
C629 C631 1.353 . S
C629 H685 0.929 . S
C630 C626 1.356 . S
C630 C627 1.358 . S
C630 H686 0.930 . S
C631 N628 1.314 . S
C631 C629 1.353 . S
C631 H687 0.930 . S
C632 N633 1.314 . S
C632 C637 1.353 . S
C632 H638 0.930 . S
N633 Li616 1.990 . S
N633 C632 1.314 . S
N633 C635 1.279 . S
C634 C635 1.358 1_554 S
C634 C636 1.356 . S
C634 H688 0.930 . S
C635 N633 1.279 . S
C635 C634 1.358 1_556 S
C635 H639 0.943 . S
C636 C634 1.356 . S
C636 C637 1.348 1_554 S
C637 C632 1.353 . S
C637 C636 1.348 1_556 S
C637 H689 0.929 . S
H638 C632 0.930 . S
H639 C635 0.943 . S
C640 N641 1.314 . S
C640 C642 1.353 . S
C640 H646 0.930 . S
N641 Li617 1.966 1_655 S
N641 C640 1.314 . S
N641 C644 1.279 . S
C642 C640 1.353 . S
C642 C645 1.348 . S
C642 H690 0.929 . S
C643 C644 1.358 . S
C643 C645 1.356 . S
C643 H691 0.930 . S
C644 N641 1.279 . S
C644 C643 1.358 . S
C644 H647 0.930 . S
C645 C642 1.348 . S
C645 C643 1.356 . S
H646 C640 0.930 . S
H647 C644 0.930 . S
C648 C650 1.348 . S
C648 C651 1.356 . S
C648 O678 1.325 . S
N649 C652 1.314 . S
N649 C653 1.279 1_556 S
C650 C648 1.348 . S
C650 C652 1.353 . S
C650 H692 0.929 . S
C651 C648 1.356 . S
C651 C653 1.358 1_556 S
C651 H693 0.930 . S
C652 N649 1.314 . S
C652 C650 1.353 . S
C652 H694 0.930 . S
C653 N649 1.279 1_554 S
C653 C651 1.358 1_554 S
C653 H695 0.930 . S
C654 C655 1.348 . S
C654 C656 1.356 . S
C654 O679 1.325 . S
C655 C654 1.348 . S
C655 C657 1.353 . S
C655 H696 0.929 . S
C656 C654 1.356 . S
C656 C658 1.358 . S
C656 H697 0.930 . S
C657 C655 1.353 . S
C657 N659 1.314 . S
C657 H698 0.930 . S
C658 C656 1.358 . S
C658 N659 1.279 . S
C658 H699 0.930 . S
N659 C657 1.314 . S
N659 C658 1.279 . S
C660 C662 1.353 1_455 S
C660 N663 1.314 . S
C660 H666 0.930 1_455 S
C661 N663 1.279 . S
C661 C664 1.358 . S
C661 H667 0.930 . S
C662 C660 1.353 1_655 S
C662 C665 1.348 1_655 S
C662 H700 0.929 . S
N663 Li618 1.990 . S
N663 C660 1.314 . S
N663 C661 1.279 . S
C664 C661 1.358 . S
C664 C665 1.356 . S
C664 H701 0.952 . S
C665 C662 1.348 1_455 S
C665 C664 1.356 . S
H666 C660 0.930 1_655 S
H667 C661 0.930 . S
C668 N669 1.314 . S
C668 C670 1.353 . S
C668 H674 0.930 . S
N669 Li619 1.990 . S
N669 C668 1.314 . S
N669 C672 1.279 . S
C670 C668 1.353 . S
C670 C673 1.348 . S
C670 H702 0.929 . S
C671 C672 1.358 . S
C671 C673 1.356 . S
C671 H703 0.930 . S
C672 N669 1.279 . S
C672 C671 1.358 . S
C672 H675 0.930 . S
C673 C670 1.348 . S
C673 C671 1.356 . S
H674 C668 0.930 . S
H675 C672 0.930 . S
O676 Li616 1.950 1_655 S
O676 Li617 1.967 1_655 S
O676 Li618 1.953 1_655 S
O676 C620 1.332 . S
O677 Li616 1.970 . S
O677 Li617 1.975 . S
O677 Li619 1.961 . S
O677 C626 1.325 . S
O678 Li616 1.961 . S
O678 Li618 1.956 . S
O678 Li619 1.970 . S
O678 C648 1.325 . S
O679 Li617 1.984 . S
O679 Li618 1.970 . S
O679 Li619 1.956 . S
O679 C654 1.325 . S
H680 C622 0.929 . S
H681 C623 0.930 . S
H682 C624 0.930 . S
H683 C625 0.875 1_554 S
H684 C627 0.930 . S
H685 C629 0.929 . S
H686 C630 0.930 . S
H687 C631 0.930 . S
H688 C634 0.930 . S
H689 C637 0.929 . S
H690 C642 0.929 . S
H691 C643 0.930 . S
H692 C650 0.929 . S
H693 C651 0.930 . S
H694 C652 0.930 . S
H695 C653 0.930 . S
H696 C655 0.929 . S
H697 C656 0.930 . S
H698 C657 0.930 . S
H699 C658 0.930 . S
H700 C662 0.929 . S
H701 C664 0.952 . S
H702 C670 0.929 . S
H703 C671 0.930 . S
Li704 N721 1.990 . S
Li704 O764 1.956 . S
Li704 O765 1.970 . S
Li704 O766 1.961 . S
Li705 N729 1.994 . S
Li705 O764 1.971 1_565 S
Li705 O765 1.953 1_565 S
Li705 O767 1.957 1_565 S
Li706 N751 1.990 . S
Li706 O764 1.961 . S
Li706 O766 1.956 . S
Li706 O767 1.970 . S
Li707 N757 1.990 . S
Li707 O765 1.961 . S
Li707 O766 1.970 . S
Li707 O767 1.956 . S
C708 C710 1.348 . S
C708 C711 1.356 . S
C708 O764 1.325 1_565 S
N709 C712 1.314 . S
N709 C713 1.279 . S
C710 C708 1.348 . S
C710 C712 1.353 . S
C710 H768 0.929 . S
C711 C708 1.356 . S
C711 C713 1.358 . S
C711 H769 0.930 1_565 S
C712 N709 1.314 . S
C712 C710 1.353 . S
C712 H770 0.930 . S
C713 N709 1.279 . S
C713 C711 1.358 . S
C713 H771 0.930 . S
C714 C717 1.348 . S
C714 C718 1.356 . S
C714 O765 1.325 . S
C715 N716 1.279 . S
C715 C718 1.358 . S
C715 H772 0.930 . S
N716 C715 1.279 . S
N716 C719 1.314 . S
C717 C714 1.348 . S
C717 C719 1.353 . S
C717 H773 0.929 . S
C718 C714 1.356 . S
C718 C715 1.358 . S
C718 H774 0.930 . S
C719 N716 1.314 . S
C719 C717 1.353 . S
C719 H775 0.930 . S
C720 N721 1.314 . S
C720 C725 1.353 . S
C720 H726 0.930 . S
N721 Li704 1.990 . S
N721 C720 1.314 . S
N721 C723 1.279 . S
C722 C723 1.358 . S
C722 C724 1.356 . S
C722 H776 0.930 . S
C723 N721 1.279 . S
C723 C722 1.358 . S
C723 H727 0.930 . S
C724 C722 1.356 . S
C724 C725 1.348 . S
C725 C720 1.353 . S
C725 C724 1.348 . S
C725 H777 0.929 . S
H726 C720 0.930 . S
H727 C723 0.930 . S
C728 N729 1.314 . S
C728 C730 1.353 . S
C728 H734 0.930 . S
N729 Li705 1.994 . S
N729 C728 1.314 . S
N729 C732 1.279 . S
C730 C728 1.353 . S
C730 C733 1.348 . S
C730 H778 0.929 . S
C731 C732 1.358 . S
C731 C733 1.356 . S
C731 H779 0.930 . S
C732 N729 1.279 . S
C732 C731 1.358 . S
C732 H735 0.930 . S
C733 C730 1.348 . S
C733 C731 1.356 . S
H734 C728 0.930 . S
H735 C732 0.930 . S
C736 C738 1.348 . S
C736 C739 1.356 . S
C736 O766 1.325 . S
N737 C740 1.314 . S
N737 C741 1.279 . S
C738 C736 1.348 . S
C738 C740 1.353 . S
C738 H780 0.929 . S
C739 C736 1.356 . S
C739 C741 1.358 . S
C739 H781 0.930 . S
C740 N737 1.314 . S
C740 C738 1.353 . S
C740 H782 0.930 . S
C741 N737 1.279 . S
C741 C739 1.358 . S
C741 H783 0.930 . S
C742 C743 1.348 . S
C742 C744 1.356 . S
C742 O767 1.325 . S
C743 C742 1.348 . S
C743 C745 1.353 . S
C743 H784 0.929 . S
C744 C742 1.356 . S
C744 C746 1.358 . S
C744 H785 0.930 . S
C745 C743 1.353 . S
C745 N747 1.314 . S
C745 H786 0.930 . S
C746 C744 1.358 . S
C746 N747 1.279 . S
C746 H787 0.924 1_545 S
N747 C745 1.314 . S
N747 C746 1.279 . S
C748 C750 1.353 . S
C748 N751 1.314 . S
C748 H754 0.930 1_545 S
C749 N751 1.279 . S
C749 C752 1.358 . S
C749 H755 0.930 . S
C750 C748 1.353 . S
C750 C753 1.348 . S
C750 H788 0.929 1_545 S
N751 Li706 1.990 . S
N751 C748 1.314 . S
N751 C749 1.279 . S
C752 C749 1.358 . S
C752 C753 1.356 . S
C752 H789 0.930 . S
C753 C750 1.348 . S
C753 C752 1.356 . S
H754 C748 0.930 1_565 S
H755 C749 0.930 . S
C756 N757 1.314 . S
C756 C758 1.353 . S
C756 H762 0.930 . S
N757 Li707 1.990 . S
N757 C756 1.314 . S
N757 C760 1.279 . S
C758 C756 1.353 . S
C758 C761 1.348 . S
C758 H790 0.929 . S
C759 C760 1.358 . S
C759 C761 1.356 . S
C759 H791 0.930 . S
C760 N757 1.279 . S
C760 C759 1.358 . S
C760 H763 0.930 . S
C761 C758 1.348 . S
C761 C759 1.356 . S
H762 C756 0.930 . S
H763 C760 0.930 . S
O764 Li704 1.956 . S
O764 Li705 1.971 1_545 S
O764 Li706 1.961 . S
O764 C708 1.325 1_545 S
O765 Li704 1.970 . S
O765 Li705 1.953 1_545 S
O765 Li707 1.961 . S
O765 C714 1.325 . S
O766 Li704 1.961 . S
O766 Li706 1.956 . S
O766 Li707 1.970 . S
O766 C736 1.325 . S
O767 Li705 1.957 1_545 S
O767 Li706 1.970 . S
O767 Li707 1.956 . S
O767 C742 1.325 . S
H768 C710 0.929 . S
H769 C711 0.930 1_545 S
H770 C712 0.930 . S
H771 C713 0.930 . S
H772 C715 0.930 . S
H773 C717 0.929 . S
H774 C718 0.930 . S
H775 C719 0.930 . S
H776 C722 0.930 . S
H777 C725 0.929 . S
H778 C730 0.929 . S
H779 C731 0.930 . S
H780 C738 0.929 . S
H781 C739 0.930 . S
H782 C740 0.930 . S
H783 C741 0.930 . S
H784 C743 0.929 . S
H785 C744 0.930 . S
H786 C745 0.930 . S
H787 C746 0.924 1_565 S
H788 C750 0.929 1_565 S
H789 C752 0.930 . S
H790 C758 0.929 . S
H791 C759 0.930 . S
Li792 N809 1.990 . S
Li792 O852 1.956 . S
Li792 O853 1.970 . S
Li792 O854 1.961 . S
Li793 N817 1.990 . S
Li793 O852 1.970 . S
Li793 O853 1.956 . S
Li793 O855 1.961 . S
Li794 N839 1.990 . S
Li794 O852 1.961 . S
Li794 O854 1.956 . S
Li794 O855 1.970 . S
Li795 N845 1.990 . S
Li795 O853 1.961 . S
Li795 O854 1.970 . S
Li795 O855 1.956 . S
C796 C798 1.348 . S
C796 C799 1.356 . S
C796 O852 1.325 . S
N797 C800 1.314 . S
N797 C801 1.279 . S
C798 C796 1.348 . S
C798 C800 1.353 . S
C798 H856 0.929 . S
C799 C796 1.356 . S
C799 C801 1.358 . S
C799 H857 0.930 . S
C800 N797 1.314 . S
C800 C798 1.353 . S
C800 H858 0.930 . S
C801 N797 1.279 . S
C801 C799 1.358 . S
C801 H859 0.930 . S
C802 C805 1.348 . S
C802 C806 1.356 . S
C802 O853 1.325 . S
C803 N804 1.279 . S
C803 C806 1.358 . S
C803 H860 0.930 . S
N804 C803 1.279 . S
N804 C807 1.314 . S
C805 C802 1.348 . S
C805 C807 1.353 . S
C805 H861 0.929 . S
C806 C802 1.356 . S
C806 C803 1.358 . S
C806 H862 0.930 . S
C807 N804 1.314 . S
C807 C805 1.353 . S
C807 H863 0.930 . S
C808 N809 1.314 . S
C808 C813 1.353 . S
C808 H814 0.930 . S
N809 Li792 1.990 . S
N809 C808 1.314 . S
N809 C811 1.279 . S
C810 C811 1.358 . S
C810 C812 1.356 . S
C810 H864 0.930 . S
C811 N809 1.279 . S
C811 C810 1.358 . S
C811 H815 0.930 . S
C812 C810 1.356 . S
C812 C813 1.348 . S
C813 C808 1.353 . S
C813 C812 1.348 . S
C813 H865 0.929 . S
H814 C808 0.930 . S
H815 C811 0.930 . S
C816 N817 1.314 . S
C816 C818 1.353 . S
C816 H822 0.930 . S
N817 Li793 1.990 . S
N817 C816 1.314 . S
N817 C820 1.279 . S
C818 C816 1.353 . S
C818 C821 1.348 . S
C818 H866 0.929 . S
C819 C820 1.358 . S
C819 C821 1.356 . S
C819 H867 0.930 . S
C820 N817 1.279 . S
C820 C819 1.358 . S
C820 H823 0.930 . S
C821 C818 1.348 . S
C821 C819 1.356 . S
H822 C816 0.930 . S
H823 C820 0.930 . S
C824 C826 1.348 . S
C824 C827 1.356 . S
C824 O854 1.325 . S
N825 C828 1.314 . S
N825 C829 1.279 . S
C826 C824 1.348 . S
C826 C828 1.353 . S
C826 H868 0.929 . S
C827 C824 1.356 . S
C827 C829 1.358 . S
C827 H869 0.930 . S
C828 N825 1.314 . S
C828 C826 1.353 . S
C828 H870 0.930 . S
C829 N825 1.279 . S
C829 C827 1.358 . S
C829 H871 0.930 . S
C830 C831 1.348 . S
C830 C832 1.356 . S
C830 O855 1.325 . S
C831 C830 1.348 . S
C831 C833 1.353 . S
C831 H872 0.929 . S
C832 C830 1.356 . S
C832 C834 1.358 . S
C832 H873 0.930 . S
C833 C831 1.353 . S
C833 N835 1.314 . S
C833 H874 0.930 . S
C834 C832 1.358 . S
C834 N835 1.279 . S
C834 H875 0.930 . S
N835 C833 1.314 . S
N835 C834 1.279 . S
C836 C838 1.353 . S
C836 N839 1.314 . S
C836 H842 0.930 . S
C837 N839 1.279 . S
C837 C840 1.358 . S
C837 H843 0.930 . S
C838 C836 1.353 . S
C838 C841 1.348 . S
C838 H876 0.929 . S
N839 Li794 1.990 . S
N839 C836 1.314 . S
N839 C837 1.279 . S
C840 C837 1.358 . S
C840 C841 1.356 . S
C840 H877 0.930 . S
C841 C838 1.348 . S
C841 C840 1.356 . S
H842 C836 0.930 . S
H843 C837 0.930 . S
C844 N845 1.314 . S
C844 C846 1.353 . S
C844 H850 0.930 . S
N845 Li795 1.990 . S
N845 C844 1.314 . S
N845 C848 1.279 . S
C846 C844 1.353 . S
C846 C849 1.348 . S
C846 H878 0.929 . S
C847 C848 1.358 . S
C847 C849 1.356 . S
C847 H879 0.930 . S
C848 N845 1.279 . S
C848 C847 1.358 . S
C848 H851 0.930 . S
C849 C846 1.348 . S
C849 C847 1.356 . S
H850 C844 0.930 . S
H851 C848 0.930 . S
O852 Li792 1.956 . S
O852 Li793 1.970 . S
O852 Li794 1.961 . S
O852 C796 1.325 . S
O853 Li792 1.970 . S
O853 Li793 1.956 . S
O853 Li795 1.961 . S
O853 C802 1.325 . S
O854 Li792 1.961 . S
O854 Li794 1.956 . S
O854 Li795 1.970 . S
O854 C824 1.325 . S
O855 Li793 1.961 . S
O855 Li794 1.970 . S
O855 Li795 1.956 . S
O855 C830 1.325 . S
H856 C798 0.929 . S
H857 C799 0.930 . S
H858 C800 0.930 . S
H859 C801 0.930 . S
H860 C803 0.930 . S
H861 C805 0.929 . S
H862 C806 0.930 . S
H863 C807 0.930 . S
H864 C810 0.930 . S
H865 C813 0.929 . S
H866 C818 0.929 . S
H867 C819 0.930 . S
H868 C826 0.929 . S
H869 C827 0.930 . S
H870 C828 0.930 . S
H871 C829 0.930 . S
H872 C831 0.929 . S
H873 C832 0.930 . S
H874 C833 0.930 . S
H875 C834 0.930 . S
H876 C838 0.929 . S
H877 C840 0.930 . S
H878 C846 0.929 . S
H879 C847 0.930 . S
Li880 N897 1.990 . S
Li880 O940 1.956 . S
Li880 O941 1.970 . S
Li880 O942 1.979 . S
Li881 N905 1.990 . S
Li881 O940 1.967 . S
Li881 O941 1.980 . S
Li881 O943 1.940 1_545 S
Li882 N927 1.990 . S
Li882 O940 1.961 1_565 S
Li882 O942 1.932 1_565 S
Li882 O943 1.970 . S
Li883 N933 1.990 . S
Li883 O941 1.961 1_565 S
Li883 O942 1.972 1_565 S
Li883 O943 1.956 . S
C884 C886 1.348 . S
C884 C887 1.356 . S
C884 O940 1.325 . S
N885 C888 1.314 . S
N885 C889 1.279 . S
C886 C884 1.348 . S
C886 C888 1.353 . S
C886 H944 0.929 . S
C887 C884 1.356 . S
C887 C889 1.358 . S
C887 H945 0.930 . S
C888 N885 1.314 . S
C888 C886 1.353 . S
C888 H946 0.930 . S
C889 N885 1.279 . S
C889 C887 1.358 . S
C889 H947 0.930 . S
C890 C893 1.348 . S
C890 C894 1.356 . S
C890 O941 1.325 . S
C891 N892 1.279 . S
C891 C894 1.358 . S
C891 H948 0.930 . S
N892 C891 1.279 . S
N892 C895 1.314 . S
C893 C890 1.348 . S
C893 C895 1.353 . S
C893 H949 0.929 . S
C894 C890 1.356 . S
C894 C891 1.358 . S
C894 H950 0.930 . S
C895 N892 1.314 . S
C895 C893 1.353 . S
C895 H951 0.930 . S
C896 N897 1.314 . S
C896 C901 1.353 . S
C896 H902 0.930 . S
N897 Li880 1.990 . S
N897 C896 1.314 . S
N897 C899 1.279 . S
C898 C899 1.358 . S
C898 C900 1.356 . S
C898 H952 0.930 . S
C899 N897 1.279 . S
C899 C898 1.358 . S
C899 H903 0.930 . S
C900 C898 1.356 . S
C900 C901 1.348 . S
C901 C896 1.353 . S
C901 C900 1.348 . S
C901 H953 0.929 . S
H902 C896 0.930 . S
H903 C899 0.930 . S
C904 N905 1.286 1_565 S
C904 C906 1.353 . S
C904 H910 0.930 . S
N905 Li881 1.990 . S
N905 C904 1.286 1_545 S
N905 C908 1.306 . S
C906 C904 1.353 . S
C906 C909 1.345 1_565 S
C906 H954 0.929 . S
C907 C908 1.358 . S
C907 C909 1.359 . S
C907 H955 0.930 . S
C908 N905 1.306 . S
C908 C907 1.358 . S
C908 H911 0.930 . S
C909 C906 1.345 1_545 S
C909 C907 1.359 . S
H910 C904 0.930 . S
H911 C908 0.930 . S
C912 C914 1.347 1_545 S
C912 C915 1.356 . S
C912 O942 1.325 . S
N913 C916 1.314 . S
N913 C917 1.279 1_565 S
C914 C912 1.347 1_565 S
C914 C916 1.353 . S
C914 H956 0.929 . S
C915 C912 1.356 . S
C915 C917 1.358 . S
C915 H957 0.930 . S
C916 N913 1.314 . S
C916 C914 1.353 . S
C916 H958 0.930 . S
C917 N913 1.279 1_545 S
C917 C915 1.358 . S
C917 H959 0.930 . S
C918 C919 1.348 . S
C918 C920 1.356 . S
C918 O943 1.325 . S
C919 C918 1.348 . S
C919 C921 1.353 . S
C919 H960 0.929 . S
C920 C918 1.356 . S
C920 C922 1.358 . S
C920 H961 0.930 . S
C921 C919 1.353 . S
C921 N923 1.314 . S
C921 H962 0.930 . S
C922 C920 1.358 . S
C922 N923 1.279 . S
C922 H963 0.930 . S
N923 C921 1.314 . S
N923 C922 1.279 . S
C924 C926 1.353 . S
C924 N927 1.314 . S
C924 H930 0.930 . S
C925 N927 1.279 . S
C925 C928 1.358 . S
C925 H931 0.930 . S
C926 C924 1.353 . S
C926 C929 1.348 . S
C926 H964 0.929 . S
N927 Li882 1.990 . S
N927 C924 1.314 . S
N927 C925 1.279 . S
C928 C925 1.358 . S
C928 C929 1.356 . S
C928 H965 0.930 . S
C929 C926 1.348 . S
C929 C928 1.356 . S
H930 C924 0.930 . S
H931 C925 0.930 . S
C932 N933 1.314 1_545 S
C932 C934 1.353 . S
C932 H938 0.930 . S
N933 Li883 1.990 . S
N933 C932 1.314 1_565 S
N933 C936 1.279 . S
C934 C932 1.353 . S
C934 C937 1.348 1_545 S
C934 H966 0.929 . S
C935 C936 1.358 . S
C935 C937 1.356 . S
C935 H967 0.930 . S
C936 N933 1.279 . S
C936 C935 1.358 . S
C936 H939 0.930 . S
C937 C934 1.348 1_565 S
C937 C935 1.356 . S
H938 C932 0.930 . S
H939 C936 0.930 . S
O940 Li880 1.956 . S
O940 Li881 1.967 . S
O940 Li882 1.961 1_545 S
O940 C884 1.325 . S
O941 Li880 1.970 . S
O941 Li881 1.980 . S
O941 Li883 1.961 1_545 S
O941 C890 1.325 . S
O942 Li880 1.979 . S
O942 Li882 1.932 1_545 S
O942 Li883 1.972 1_545 S
O942 C912 1.325 . S
O943 Li881 1.940 1_565 S
O943 Li882 1.970 . S
O943 Li883 1.956 . S
O943 C918 1.325 . S
H944 C886 0.929 . S
H945 C887 0.930 . S
H946 C888 0.930 . S
H947 C889 0.930 . S
H948 C891 0.930 . S
H949 C893 0.929 . S
H950 C894 0.930 . S
H951 C895 0.930 . S
H952 C898 0.930 . S
H953 C901 0.929 . S
H954 C906 0.929 . S
H955 C907 0.930 . S
H956 C914 0.929 . S
H957 C915 0.930 . S
H958 C916 0.930 . S
H959 C917 0.930 . S
H960 C919 0.929 . S
H961 C920 0.930 . S
H962 C921 0.930 . S
H963 C922 0.930 . S
H964 C926 0.929 . S
H965 C928 0.930 . S
H966 C934 0.929 . S
H967 C935 0.930 . S
Li968 N985 1.990 . S
Li968 O1028 1.956 . S
Li968 O1029 1.970 . S
Li968 O1030 1.961 1_554 S
Li969 N993 1.990 . S
Li969 O1028 1.970 . S
Li969 O1029 1.956 . S
Li969 O1031 1.961 . S
Li970 N1015 1.990 . S
Li970 O1028 1.961 . S
Li970 O1030 1.956 1_554 S
Li970 O1031 1.970 . S
Li971 N1021 1.990 . S
Li971 O1029 1.961 1_556 S
Li971 O1030 1.970 . S
Li971 O1031 1.956 1_556 S
C972 C974 1.348 . S
C972 C975 1.356 . S
C972 O1028 1.325 . S
N973 C976 1.314 . S
N973 C977 1.292 . S
C974 C972 1.348 . S
C974 C976 1.353 . S
C974 H1032 0.929 . S
C975 C972 1.356 . S
C975 C977 1.374 . S
C975 H1033 0.930 . S
C976 N973 1.314 . S
C976 C974 1.353 . S
C976 H1034 0.930 . S
C977 N973 1.292 . S
C977 C975 1.374 . S
C977 H1035 0.899 1_565 S
C978 C981 1.348 . S
C978 C982 1.352 1_554 S
C978 O1029 1.325 . S
C979 N980 1.279 1_556 S
C979 C982 1.355 . S
C979 H1036 0.930 . S
N980 C979 1.279 1_554 S
N980 C983 1.314 . S
C981 C978 1.348 . S
C981 C983 1.353 . S
C981 H1037 0.929 . S
C982 C978 1.352 1_556 S
C982 C979 1.355 . S
C982 H1038 0.941 . S
C983 N980 1.314 . S
C983 C981 1.353 . S
C983 H1039 0.930 . S
C984 N985 1.314 1_556 S
C984 C989 1.353 . S
C984 H990 0.930 . S
N985 Li968 1.990 . S
N985 C984 1.314 1_554 S
N985 C987 1.279 . S
C986 C987 1.358 . S
C986 C988 1.356 . S
C986 H1040 0.930 . S
C987 N985 1.279 . S
C987 C986 1.358 . S
C987 H991 0.930 . S
C988 C986 1.356 . S
C988 C989 1.348 1_554 S
C989 C984 1.353 . S
C989 C988 1.348 1_556 S
C989 H1041 0.929 . S
H990 C984 0.930 . S
H991 C987 0.930 . S
C992 N993 1.314 . S
C992 C994 1.353 . S
C992 H998 0.930 . S
N993 Li969 1.990 . S
N993 C992 1.314 . S
N993 C996 1.279 . S
C994 C992 1.353 . S
C994 C997 1.348 . S
C994 H1042 0.929 . S
C995 C996 1.358 . S
C995 C997 1.356 . S
C995 H1043 0.930 . S
C996 N993 1.279 . S
C996 C995 1.358 . S
C996 H999 0.930 . S
C997 C994 1.348 . S
C997 C995 1.356 . S
H998 C992 0.930 . S
H999 C996 0.930 . S
C1000 C1002 1.348 . S
C1000 C1003 1.356 . S
C1000 O1030 1.325 . S
N1001 C1004 1.314 . S
N1001 C1005 1.279 . S
C1002 C1000 1.348 . S
C1002 C1004 1.353 . S
C1002 H1044 0.929 . S
C1003 C1000 1.356 . S
C1003 C1005 1.358 . S
C1003 H1045 0.930 . S
C1004 N1001 1.314 . S
C1004 C1002 1.353 . S
C1004 H1046 0.930 . S
C1005 N1001 1.279 . S
C1005 C1003 1.358 . S
C1005 H1047 0.930 1_565 S
C1006 C1007 1.348 . S
C1006 C1008 1.356 . S
C1006 O1031 1.325 . S
C1007 C1006 1.348 . S
C1007 C1009 1.353 . S
C1007 H1048 0.929 . S
C1008 C1006 1.356 . S
C1008 C1010 1.358 . S
C1008 H1049 0.930 . S
C1009 C1007 1.353 . S
C1009 N1011 1.314 . S
C1009 H1050 0.930 . S
C1010 C1008 1.358 . S
C1010 N1011 1.279 . S
C1010 H1051 0.930 . S
N1011 C1009 1.314 . S
N1011 C1010 1.279 . S
C1012 C1014 1.353 . S
C1012 N1015 1.314 . S
C1012 H1018 0.930 . S
C1013 N1015 1.279 . S
C1013 C1016 1.358 . S
C1013 H1019 0.930 1_554 S
C1014 C1012 1.353 . S
C1014 C1017 1.371 . S
C1014 H1052 0.929 . S
N1015 Li970 1.990 . S
N1015 C1012 1.314 . S
N1015 C1013 1.279 . S
C1016 C1013 1.358 . S
C1016 C1017 1.352 . S
C1016 H1053 0.930 1_564 S
C1017 C1014 1.371 . S
C1017 C1016 1.352 . S
H1018 C1012 0.930 . S
H1019 C1013 0.930 1_556 S
C1020 N1021 1.314 . S
C1020 C1022 1.353 . S
C1020 H1026 0.930 . S
N1021 Li971 1.990 . S
N1021 C1020 1.314 . S
N1021 C1024 1.279 . S
C1022 C1020 1.353 . S
C1022 C1025 1.348 . S
C1022 H1054 0.929 . S
C1023 C1024 1.358 . S
C1023 C1025 1.356 . S
C1023 H1055 0.930 . S
C1024 N1021 1.279 . S
C1024 C1023 1.358 . S
C1024 H1027 0.930 . S
C1025 C1022 1.348 . S
C1025 C1023 1.356 . S
H1026 C1020 0.930 . S
H1027 C1024 0.930 . S
O1028 Li968 1.956 . S
O1028 Li969 1.970 . S
O1028 Li970 1.961 . S
O1028 C972 1.325 . S
O1029 Li968 1.970 . S
O1029 Li969 1.956 . S
O1029 Li971 1.961 1_554 S
O1029 C978 1.325 . S
O1030 Li968 1.961 1_556 S
O1030 Li970 1.956 1_556 S
O1030 Li971 1.970 . S
O1030 C1000 1.325 . S
O1031 Li969 1.961 . S
O1031 Li970 1.970 . S
O1031 Li971 1.956 1_554 S
O1031 C1006 1.325 . S
H1032 C974 0.929 . S
H1033 C975 0.930 . S
H1034 C976 0.930 . S
H1035 C977 0.899 1_545 S
H1036 C979 0.930 . S
H1037 C981 0.929 . S
H1038 C982 0.941 . S
H1039 C983 0.930 . S
H1040 C986 0.930 . S
H1041 C989 0.929 . S
H1042 C994 0.929 . S
H1043 C995 0.930 . S
H1044 C1002 0.929 . S
H1045 C1003 0.930 . S
H1046 C1004 0.930 . S
H1047 C1005 0.930 1_545 S
H1048 C1007 0.929 . S
H1049 C1008 0.930 . S
H1050 C1009 0.930 . S
H1051 C1010 0.930 . S
H1052 C1014 0.929 . S
H1053 C1016 0.930 1_546 S
H1054 C1022 0.929 . S
H1055 C1023 0.930 . S
Li1056 N1073 1.990 . S
Li1056 O1116 1.956 . S
Li1056 O1117 1.970 . S
Li1056 O1118 1.961 . S
Li1057 N1081 1.990 . S
Li1057 O1116 1.970 . S
Li1057 O1117 1.956 . S
Li1057 O1119 1.961 . S
Li1058 N1103 1.990 . S
Li1058 O1116 1.961 . S
Li1058 O1118 1.956 . S
Li1058 O1119 1.970 . S
Li1059 N1109 1.990 1_554 S
Li1059 O1117 1.961 . S
Li1059 O1118 1.970 . S
Li1059 O1119 1.956 . S
C1060 C1062 1.348 . S
C1060 C1063 1.356 . S
C1060 O1116 1.325 . S
N1061 C1064 1.314 . S
N1061 C1065 1.279 . S
C1062 C1060 1.348 . S
C1062 C1064 1.353 . S
C1062 H1120 0.929 . S
C1063 C1060 1.356 . S
C1063 C1065 1.358 . S
C1063 H1121 0.930 . S
C1064 N1061 1.314 . S
C1064 C1062 1.353 . S
C1064 H1122 0.930 . S
C1065 N1061 1.279 . S
C1065 C1063 1.358 . S
C1065 H1123 0.930 . S
C1066 C1069 1.348 . S
C1066 C1070 1.356 . S
C1066 O1117 1.325 . S
C1067 N1068 1.279 . S
C1067 C1070 1.358 . S
C1067 H1124 0.930 . S
N1068 C1067 1.279 . S
N1068 C1071 1.314 . S
C1069 C1066 1.348 . S
C1069 C1071 1.353 . S
C1069 H1125 0.929 . S
C1070 C1066 1.356 . S
C1070 C1067 1.358 . S
C1070 H1126 0.930 . S
C1071 N1068 1.314 . S
C1071 C1069 1.353 . S
C1071 H1127 0.930 . S
C1072 N1073 1.314 . S
C1072 C1077 1.353 . S
C1072 H1078 0.930 . S
N1073 Li1056 1.990 . S
N1073 C1072 1.314 . S
N1073 C1075 1.279 . S
C1074 C1075 1.358 . S
C1074 C1076 1.356 . S
C1074 H1128 0.930 . S
C1075 N1073 1.279 . S
C1075 C1074 1.358 . S
C1075 H1079 0.930 . S
C1076 C1074 1.356 . S
C1076 C1077 1.348 . S
C1077 C1072 1.353 . S
C1077 C1076 1.348 . S
C1077 H1129 0.929 . S
H1078 C1072 0.930 . S
H1079 C1075 0.930 . S
C1080 N1081 1.314 . S
C1080 C1082 1.353 . S
C1080 H1086 0.930 . S
N1081 Li1057 1.990 . S
N1081 C1080 1.314 . S
N1081 C1084 1.279 . S
C1082 C1080 1.353 . S
C1082 C1085 1.348 . S
C1082 H1130 0.929 . S
C1083 C1084 1.358 . S
C1083 C1085 1.356 . S
C1083 H1131 0.930 . S
C1084 N1081 1.279 . S
C1084 C1083 1.358 . S
C1084 H1087 0.930 . S
C1085 C1082 1.348 . S
C1085 C1083 1.356 . S
H1086 C1080 0.930 . S
H1087 C1084 0.930 . S
C1088 C1090 1.386 . S
C1088 C1091 1.357 1_556 S
C1088 O1118 1.289 1_556 S
N1089 C1092 1.314 . S
N1089 C1093 1.279 . S
C1090 C1088 1.386 . S
C1090 C1092 1.353 . S
C1090 H1132 0.929 . S
C1091 C1088 1.357 1_554 S
C1091 C1093 1.358 1_554 S
C1091 H1133 0.930 . S
C1092 N1089 1.314 . S
C1092 C1090 1.353 . S
C1092 H1134 0.930 . S
C1093 N1089 1.279 . S
C1093 C1091 1.358 1_556 S
C1093 H1135 0.930 . S
C1094 C1095 1.348 . S
C1094 C1096 1.356 . S
C1094 O1119 1.325 . S
C1095 C1094 1.348 . S
C1095 C1097 1.353 . S
C1095 H1136 0.929 . S
C1096 C1094 1.356 . S
C1096 C1098 1.358 . S
C1096 H1137 0.930 . S
C1097 C1095 1.353 . S
C1097 N1099 1.314 . S
C1097 H1138 0.930 . S
C1098 C1096 1.358 . S
C1098 N1099 1.279 . S
C1098 H1139 0.930 . S
N1099 C1097 1.314 . S
N1099 C1098 1.279 . S
C1100 C1102 1.353 . S
C1100 N1103 1.314 . S
C1100 H1106 0.930 . S
C1101 N1103 1.279 . S
C1101 C1104 1.358 . S
C1101 H1107 0.930 . S
C1102 C1100 1.353 . S
C1102 C1105 1.348 . S
C1102 H1140 0.929 . S
N1103 Li1058 1.990 . S
N1103 C1100 1.314 . S
N1103 C1101 1.279 . S
C1104 C1101 1.358 . S
C1104 C1105 1.356 . S
C1104 H1141 0.930 . S
C1105 C1102 1.348 . S
C1105 C1104 1.356 . S
H1106 C1100 0.930 . S
H1107 C1101 0.930 . S
C1108 N1109 1.314 . S
C1108 C1110 1.353 . S
C1108 H1114 0.930 . S
N1109 Li1059 1.990 1_556 S
N1109 C1108 1.314 . S
N1109 C1112 1.279 . S
C1110 C1108 1.353 . S
C1110 C1113 1.348 . S
C1110 H1142 0.929 . S
C1111 C1112 1.358 . S
C1111 C1113 1.356 . S
C1111 H1143 0.930 . S
C1112 N1109 1.279 . S
C1112 C1111 1.358 . S
C1112 H1115 0.930 . S
C1113 C1110 1.348 . S
C1113 C1111 1.356 . S
H1114 C1108 0.930 . S
H1115 C1112 0.930 . S
O1116 Li1056 1.956 . S
O1116 Li1057 1.970 . S
O1116 Li1058 1.961 . S
O1116 C1060 1.325 . S
O1117 Li1056 1.970 . S
O1117 Li1057 1.956 . S
O1117 Li1059 1.961 . S
O1117 C1066 1.325 . S
O1118 Li1056 1.961 . S
O1118 Li1058 1.956 . S
O1118 Li1059 1.970 . S
O1118 C1088 1.289 1_554 S
O1119 Li1057 1.961 . S
O1119 Li1058 1.970 . S
O1119 Li1059 1.956 . S
O1119 C1094 1.325 . S
H1120 C1062 0.929 . S
H1121 C1063 0.930 . S
H1122 C1064 0.930 . S
H1123 C1065 0.930 . S
H1124 C1067 0.930 . S
H1125 C1069 0.929 . S
H1126 C1070 0.930 . S
H1127 C1071 0.930 . S
H1128 C1074 0.930 . S
H1129 C1077 0.929 . S
H1130 C1082 0.929 . S
H1131 C1083 0.930 . S
H1132 C1090 0.929 . S
H1133 C1091 0.930 . S
H1134 C1092 0.930 . S
H1135 C1093 0.930 . S
H1136 C1095 0.929 . S
H1137 C1096 0.930 . S
H1138 C1097 0.930 . S
H1139 C1098 0.930 . S
H1140 C1102 0.929 . S
H1141 C1104 0.930 . S
H1142 C1110 0.929 . S
H1143 C1111 0.930 . S
Li1144 N1161 1.990 . S
Li1144 O1204 1.956 . S
Li1144 O1205 1.970 . S
Li1144 O1206 1.961 . S
Li1145 N1169 1.990 . S
Li1145 O1204 1.970 . S
Li1145 O1205 1.956 . S
Li1145 O1207 1.961 1_554 S
Li1146 N1191 1.990 1_554 S
Li1146 O1204 1.961 . S
Li1146 O1206 1.956 . S
Li1146 O1207 1.970 1_554 S
Li1147 N1197 1.990 . S
Li1147 O1205 1.961 . S
Li1147 O1206 1.970 . S
Li1147 O1207 1.956 1_554 S
C1148 C1150 1.348 . S
C1148 C1151 1.356 . S
C1148 O1204 1.325 . S
N1149 C1152 1.314 . S
N1149 C1153 1.279 . S
C1150 C1148 1.348 . S
C1150 C1152 1.353 . S
C1150 H1208 0.929 . S
C1151 C1148 1.356 . S
C1151 C1153 1.358 . S
C1151 H1209 0.930 . S
C1152 N1149 1.314 . S
C1152 C1150 1.353 . S
C1152 H1210 0.930 . S
C1153 N1149 1.279 . S
C1153 C1151 1.358 . S
C1153 H1211 0.930 . S
C1154 C1157 1.348 . S
C1154 C1158 1.356 . S
C1154 O1205 1.325 . S
C1155 N1156 1.279 . S
C1155 C1158 1.358 . S
C1155 H1212 0.930 . S
N1156 C1155 1.279 . S
N1156 C1159 1.314 . S
C1157 C1154 1.348 . S
C1157 C1159 1.353 . S
C1157 H1213 0.929 . S
C1158 C1154 1.356 . S
C1158 C1155 1.358 . S
C1158 H1214 0.930 . S
C1159 N1156 1.314 . S
C1159 C1157 1.353 . S
C1159 H1215 0.930 . S
C1160 N1161 1.314 . S
C1160 C1165 1.353 . S
C1160 H1166 0.930 . S
N1161 Li1144 1.990 . S
N1161 C1160 1.314 . S
N1161 C1163 1.279 . S
C1162 C1163 1.358 . S
C1162 C1164 1.356 . S
C1162 H1216 0.930 . S
C1163 N1161 1.279 . S
C1163 C1162 1.358 . S
C1163 H1167 0.930 . S
C1164 C1162 1.356 . S
C1164 C1165 1.348 . S
C1165 C1160 1.353 . S
C1165 C1164 1.348 . S
C1165 H1217 0.929 . S
H1166 C1160 0.930 . S
H1167 C1163 0.930 . S
C1168 N1169 1.314 . S
C1168 C1170 1.353 . S
C1168 H1174 0.930 1_554 S
N1169 Li1145 1.990 . S
N1169 C1168 1.314 . S
N1169 C1172 1.279 . S
C1170 C1168 1.353 . S
C1170 C1173 1.348 . S
C1170 H1218 0.929 1_554 S
C1171 C1172 1.358 . S
C1171 C1173 1.356 . S
C1171 H1219 0.930 . S
C1172 N1169 1.279 . S
C1172 C1171 1.358 . S
C1172 H1175 0.930 . S
C1173 C1170 1.348 . S
C1173 C1171 1.356 . S
H1174 C1168 0.930 1_556 S
H1175 C1172 0.930 . S
C1176 C1178 1.348 . S
C1176 C1179 1.356 . S
C1176 O1206 1.325 . S
N1177 C1180 1.314 . S
N1177 C1181 1.279 . S
C1178 C1176 1.348 . S
C1178 C1180 1.353 . S
C1178 H1220 0.929 . S
C1179 C1176 1.356 . S
C1179 C1181 1.358 . S
C1179 H1221 0.930 . S
C1180 N1177 1.314 . S
C1180 C1178 1.353 . S
C1180 H1222 0.930 . S
C1181 N1177 1.279 . S
C1181 C1179 1.358 . S
C1181 H1223 0.930 . S
C1182 C1183 1.348 . S
C1182 C1184 1.356 . S
C1182 O1207 1.325 . S
C1183 C1182 1.348 . S
C1183 C1185 1.353 . S
C1183 H1224 0.929 . S
C1184 C1182 1.356 . S
C1184 C1186 1.358 . S
C1184 H1225 0.930 . S
C1185 C1183 1.353 . S
C1185 N1187 1.314 . S
C1185 H1226 0.930 . S
C1186 C1184 1.358 . S
C1186 N1187 1.279 . S
C1186 H1227 0.930 . S
N1187 C1185 1.314 . S
N1187 C1186 1.279 . S
C1188 C1190 1.353 . S
C1188 N1191 1.314 . S
C1188 H1194 0.930 . S
C1189 N1191 1.279 . S
C1189 C1192 1.358 . S
C1189 H1195 0.930 . S
C1190 C1188 1.353 . S
C1190 C1193 1.348 . S
C1190 H1228 0.929 . S
N1191 Li1146 1.990 1_556 S
N1191 C1188 1.314 . S
N1191 C1189 1.279 . S
C1192 C1189 1.358 . S
C1192 C1193 1.356 . S
C1192 H1229 0.930 . S
C1193 C1190 1.348 . S
C1193 C1192 1.356 . S
H1194 C1188 0.930 . S
H1195 C1189 0.930 . S
C1196 N1197 1.314 . S
C1196 C1198 1.353 . S
C1196 H1202 0.930 . S
N1197 Li1147 1.990 . S
N1197 C1196 1.314 . S
N1197 C1200 1.279 1_554 S
C1198 C1196 1.353 . S
C1198 C1201 1.348 . S
C1198 H1230 0.929 . S
C1199 C1200 1.358 . S
C1199 C1201 1.356 1_556 S
C1199 H1231 0.930 . S
C1200 N1197 1.279 1_556 S
C1200 C1199 1.358 . S
C1200 H1203 0.930 . S
C1201 C1198 1.348 . S
C1201 C1199 1.356 1_554 S
H1202 C1196 0.930 . S
H1203 C1200 0.930 . S
O1204 Li1144 1.956 . S
O1204 Li1145 1.970 . S
O1204 Li1146 1.961 . S
O1204 C1148 1.325 . S
O1205 Li1144 1.970 . S
O1205 Li1145 1.956 . S
O1205 Li1147 1.961 . S
O1205 C1154 1.325 . S
O1206 Li1144 1.961 . S
O1206 Li1146 1.956 . S
O1206 Li1147 1.970 . S
O1206 C1176 1.325 . S
O1207 Li1145 1.961 1_556 S
O1207 Li1146 1.970 1_556 S
O1207 Li1147 1.956 1_556 S
O1207 C1182 1.325 . S
H1208 C1150 0.929 . S
H1209 C1151 0.930 . S
H1210 C1152 0.930 . S
H1211 C1153 0.930 . S
H1212 C1155 0.930 . S
H1213 C1157 0.929 . S
H1214 C1158 0.930 . S
H1215 C1159 0.930 . S
H1216 C1162 0.930 . S
H1217 C1165 0.929 . S
H1218 C1170 0.929 1_556 S
H1219 C1171 0.930 . S
H1220 C1178 0.929 . S
H1221 C1179 0.930 . S
H1222 C1180 0.930 . S
H1223 C1181 0.930 . S
H1224 C1183 0.929 . S
H1225 C1184 0.930 . S
H1226 C1185 0.930 . S
H1227 C1186 0.930 . S
H1228 C1190 0.929 . S
H1229 C1192 0.930 . S
H1230 C1198 0.929 . S
H1231 C1199 0.930 . S
Li1232 N1249 1.990 . S
Li1232 O1292 1.956 . S
Li1232 O1293 1.970 . S
Li1232 O1294 1.961 . S
Li1233 N1257 1.990 . S
Li1233 O1292 1.970 . S
Li1233 O1293 1.956 . S
Li1233 O1295 1.961 . S
Li1234 N1279 1.990 . S
Li1234 O1292 1.961 . S
Li1234 O1294 1.956 . S
Li1234 O1295 1.970 . S
Li1235 N1285 1.990 . S
Li1235 O1293 1.961 . S
Li1235 O1294 1.970 . S
Li1235 O1295 1.956 . S
C1236 C1238 1.348 . S
C1236 C1239 1.356 . S
C1236 O1292 1.325 . S
N1237 C1240 1.314 . S
N1237 C1241 1.279 . S
C1238 C1236 1.348 . S
C1238 C1240 1.353 . S
C1238 H1296 0.929 . S
C1239 C1236 1.356 . S
C1239 C1241 1.358 . S
C1239 H1297 0.930 . S
C1240 N1237 1.314 . S
C1240 C1238 1.353 . S
C1240 H1298 0.930 . S
C1241 N1237 1.279 . S
C1241 C1239 1.358 . S
C1241 H1299 0.930 . S
C1242 C1245 1.348 . S
C1242 C1246 1.356 . S
C1242 O1293 1.325 . S
C1243 N1244 1.279 . S
C1243 C1246 1.358 . S
C1243 H1300 0.930 . S
N1244 C1243 1.279 . S
N1244 C1247 1.314 . S
C1245 C1242 1.348 . S
C1245 C1247 1.353 . S
C1245 H1301 0.929 . S
C1246 C1242 1.356 . S
C1246 C1243 1.358 . S
C1246 H1302 0.930 . S
C1247 N1244 1.314 . S
C1247 C1245 1.353 . S
C1247 H1303 0.930 . S
C1248 N1249 1.314 . S
C1248 C1253 1.353 . S
C1248 H1254 0.930 . S
N1249 Li1232 1.990 . S
N1249 C1248 1.314 . S
N1249 C1251 1.279 . S
C1250 C1251 1.358 . S
C1250 C1252 1.356 . S
C1250 H1304 0.930 . S
C1251 N1249 1.279 . S
C1251 C1250 1.358 . S
C1251 H1255 0.930 . S
C1252 C1250 1.356 . S
C1252 C1253 1.348 . S
C1253 C1248 1.353 . S
C1253 C1252 1.348 . S
C1253 H1305 0.929 . S
H1254 C1248 0.930 . S
H1255 C1251 0.930 . S
C1256 N1257 1.314 . S
C1256 C1258 1.353 . S
C1256 H1262 0.930 . S
N1257 Li1233 1.990 . S
N1257 C1256 1.314 . S
N1257 C1260 1.279 . S
C1258 C1256 1.353 . S
C1258 C1261 1.348 . S
C1258 H1306 0.929 . S
C1259 C1260 1.358 . S
C1259 C1261 1.356 . S
C1259 H1307 0.930 . S
C1260 N1257 1.279 . S
C1260 C1259 1.358 . S
C1260 H1263 0.930 . S
C1261 C1258 1.348 . S
C1261 C1259 1.356 . S
H1262 C1256 0.930 . S
H1263 C1260 0.930 . S
C1264 C1266 1.348 . S
C1264 C1267 1.356 . S
C1264 O1294 1.325 . S
N1265 C1268 1.314 . S
N1265 C1269 1.279 . S
C1266 C1264 1.348 . S
C1266 C1268 1.353 . S
C1266 H1308 0.929 . S
C1267 C1264 1.356 . S
C1267 C1269 1.358 . S
C1267 H1309 0.930 . S
C1268 N1265 1.314 . S
C1268 C1266 1.353 . S
C1268 H1310 0.930 . S
C1269 N1265 1.279 . S
C1269 C1267 1.358 . S
C1269 H1311 0.930 . S
C1270 C1271 1.348 . S
C1270 C1272 1.356 . S
C1270 O1295 1.325 . S
C1271 C1270 1.348 . S
C1271 C1273 1.353 . S
C1271 H1312 0.929 . S
C1272 C1270 1.356 . S
C1272 C1274 1.358 . S
C1272 H1313 0.930 . S
C1273 C1271 1.353 . S
C1273 N1275 1.314 . S
C1273 H1314 0.930 . S
C1274 C1272 1.358 . S
C1274 N1275 1.279 . S
C1274 H1315 0.930 . S
N1275 C1273 1.314 . S
N1275 C1274 1.279 . S
C1276 C1278 1.353 . S
C1276 N1279 1.314 . S
C1276 H1282 0.930 . S
C1277 N1279 1.279 . S
C1277 C1280 1.358 . S
C1277 H1283 0.930 . S
C1278 C1276 1.353 . S
C1278 C1281 1.348 . S
C1278 H1316 0.929 . S
N1279 Li1234 1.990 . S
N1279 C1276 1.314 . S
N1279 C1277 1.279 . S
C1280 C1277 1.358 . S
C1280 C1281 1.356 . S
C1280 H1317 0.930 . S
C1281 C1278 1.348 . S
C1281 C1280 1.356 . S
H1282 C1276 0.930 . S
H1283 C1277 0.930 . S
C1284 N1285 1.314 . S
C1284 C1286 1.353 . S
C1284 H1290 0.930 . S
N1285 Li1235 1.990 . S
N1285 C1284 1.314 . S
N1285 C1288 1.279 . S
C1286 C1284 1.353 . S
C1286 C1289 1.348 . S
C1286 H1318 0.929 . S
C1287 C1288 1.358 . S
C1287 C1289 1.356 . S
C1287 H1319 0.930 . S
C1288 N1285 1.279 . S
C1288 C1287 1.358 . S
C1288 H1291 0.930 . S
C1289 C1286 1.348 . S
C1289 C1287 1.356 . S
H1290 C1284 0.930 . S
H1291 C1288 0.930 . S
O1292 Li1232 1.956 . S
O1292 Li1233 1.970 . S
O1292 Li1234 1.961 . S
O1292 C1236 1.325 . S
O1293 Li1232 1.970 . S
O1293 Li1233 1.956 . S
O1293 Li1235 1.961 . S
O1293 C1242 1.325 . S
O1294 Li1232 1.961 . S
O1294 Li1234 1.956 . S
O1294 Li1235 1.970 . S
O1294 C1264 1.325 . S
O1295 Li1233 1.961 . S
O1295 Li1234 1.970 . S
O1295 Li1235 1.956 . S
O1295 C1270 1.325 . S
H1296 C1238 0.929 . S
H1297 C1239 0.930 . S
H1298 C1240 0.930 . S
H1299 C1241 0.930 . S
H1300 C1243 0.930 . S
H1301 C1245 0.929 . S
H1302 C1246 0.930 . S
H1303 C1247 0.930 . S
H1304 C1250 0.930 . S
H1305 C1253 0.929 . S
H1306 C1258 0.929 . S
H1307 C1259 0.930 . S
H1308 C1266 0.929 . S
H1309 C1267 0.930 . S
H1310 C1268 0.930 . S
H1311 C1269 0.930 . S
H1312 C1271 0.929 . S
H1313 C1272 0.930 . S
H1314 C1273 0.930 . S
H1315 C1274 0.930 . S
H1316 C1278 0.929 . S
H1317 C1280 0.930 . S
H1318 C1286 0.929 . S
H1319 C1287 0.930 . S
Li1320 N1337 1.990 . S
Li1320 O1380 1.956 . S
Li1320 O1381 1.970 . S
Li1320 O1382 1.961 . S
Li1321 N1345 1.990 . S
Li1321 O1380 1.970 . S
Li1321 O1381 1.956 . S
Li1321 O1383 1.961 . S
Li1322 N1367 1.990 . S
Li1322 O1380 1.961 . S
Li1322 O1382 1.956 . S
Li1322 O1383 1.970 . S
Li1323 N1373 1.990 . S
Li1323 O1381 1.961 . S
Li1323 O1382 1.970 . S
Li1323 O1383 1.956 . S
C1324 C1326 1.348 . S
C1324 C1327 1.356 . S
C1324 O1380 1.325 . S
N1325 C1328 1.314 . S
N1325 C1329 1.279 . S
C1326 C1324 1.348 . S
C1326 C1328 1.353 . S
C1326 H1384 0.929 . S
C1327 C1324 1.356 . S
C1327 C1329 1.358 . S
C1327 H1385 0.930 . S
C1328 N1325 1.314 . S
C1328 C1326 1.353 . S
C1328 H1386 0.930 . S
C1329 N1325 1.279 . S
C1329 C1327 1.358 . S
C1329 H1387 0.930 . S
C1330 C1333 1.348 . S
C1330 C1334 1.356 . S
C1330 O1381 1.325 . S
C1331 N1332 1.279 . S
C1331 C1334 1.358 . S
C1331 H1388 0.930 . S
N1332 C1331 1.279 . S
N1332 C1335 1.314 . S
C1333 C1330 1.348 . S
C1333 C1335 1.353 . S
C1333 H1389 0.929 . S
C1334 C1330 1.356 . S
C1334 C1331 1.358 . S
C1334 H1390 0.930 . S
C1335 N1332 1.314 . S
C1335 C1333 1.353 . S
C1335 H1391 0.930 . S
C1336 N1337 1.314 . S
C1336 C1341 1.353 . S
C1336 H1342 0.930 . S
N1337 Li1320 1.990 . S
N1337 C1336 1.314 . S
N1337 C1339 1.279 . S
C1338 C1339 1.358 . S
C1338 C1340 1.356 . S
C1338 H1392 0.930 . S
C1339 N1337 1.279 . S
C1339 C1338 1.358 . S
C1339 H1343 0.930 . S
C1340 C1338 1.356 . S
C1340 C1341 1.348 . S
C1341 C1336 1.353 . S
C1341 C1340 1.348 . S
C1341 H1393 0.929 . S
H1342 C1336 0.930 . S
H1343 C1339 0.930 . S
C1344 N1345 1.314 . S
C1344 C1346 1.353 . S
C1344 H1350 0.930 . S
N1345 Li1321 1.990 . S
N1345 C1344 1.314 . S
N1345 C1348 1.279 . S
C1346 C1344 1.353 . S
C1346 C1349 1.348 . S
C1346 H1394 0.929 . S
C1347 C1348 1.358 . S
C1347 C1349 1.356 . S
C1347 H1395 0.930 . S
C1348 N1345 1.279 . S
C1348 C1347 1.358 . S
C1348 H1351 0.930 . S
C1349 C1346 1.348 . S
C1349 C1347 1.356 . S
H1350 C1344 0.930 . S
H1351 C1348 0.930 . S
C1352 C1354 1.348 . S
C1352 C1355 1.356 . S
C1352 O1382 1.325 . S
N1353 C1356 1.314 . S
N1353 C1357 1.279 . S
C1354 C1352 1.348 . S
C1354 C1356 1.353 . S
C1354 H1396 0.929 . S
C1355 C1352 1.356 . S
C1355 C1357 1.358 . S
C1355 H1397 0.930 . S
C1356 N1353 1.314 . S
C1356 C1354 1.353 . S
C1356 H1398 0.930 . S
C1357 N1353 1.279 . S
C1357 C1355 1.358 . S
C1357 H1399 0.930 . S
C1358 C1359 1.348 . S
C1358 C1360 1.356 . S
C1358 O1383 1.325 . S
C1359 C1358 1.348 . S
C1359 C1361 1.353 . S
C1359 H1400 0.929 . S
C1360 C1358 1.356 . S
C1360 C1362 1.358 . S
C1360 H1401 0.930 . S
C1361 C1359 1.353 . S
C1361 N1363 1.314 . S
C1361 H1402 0.930 . S
C1362 C1360 1.358 . S
C1362 N1363 1.279 . S
C1362 H1403 0.930 . S
N1363 C1361 1.314 . S
N1363 C1362 1.279 . S
C1364 C1366 1.353 . S
C1364 N1367 1.314 . S
C1364 H1370 0.930 . S
C1365 N1367 1.279 . S
C1365 C1368 1.358 . S
C1365 H1371 0.930 . S
C1366 C1364 1.353 . S
C1366 C1369 1.348 . S
C1366 H1404 0.929 . S
N1367 Li1322 1.990 . S
N1367 C1364 1.314 . S
N1367 C1365 1.279 . S
C1368 C1365 1.358 . S
C1368 C1369 1.356 . S
C1368 H1405 0.930 . S
C1369 C1366 1.348 . S
C1369 C1368 1.356 . S
H1370 C1364 0.930 . S
H1371 C1365 0.930 . S
C1372 N1373 1.314 . S
C1372 C1374 1.353 . S
C1372 H1378 0.930 . S
N1373 Li1323 1.990 . S
N1373 C1372 1.314 . S
N1373 C1376 1.279 . S
C1374 C1372 1.353 . S
C1374 C1377 1.348 . S
C1374 H1406 0.929 . S
C1375 C1376 1.358 . S
C1375 C1377 1.356 . S
C1375 H1407 0.930 . S
C1376 N1373 1.279 . S
C1376 C1375 1.358 . S
C1376 H1379 0.930 . S
C1377 C1374 1.348 . S
C1377 C1375 1.356 . S
H1378 C1372 0.930 . S
H1379 C1376 0.930 . S
O1380 Li1320 1.956 . S
O1380 Li1321 1.970 . S
O1380 Li1322 1.961 . S
O1380 C1324 1.325 . S
O1381 Li1320 1.970 . S
O1381 Li1321 1.956 . S
O1381 Li1323 1.961 . S
O1381 C1330 1.325 . S
O1382 Li1320 1.961 . S
O1382 Li1322 1.956 . S
O1382 Li1323 1.970 . S
O1382 C1352 1.325 . S
O1383 Li1321 1.961 . S
O1383 Li1322 1.970 . S
O1383 Li1323 1.956 . S
O1383 C1358 1.325 . S
H1384 C1326 0.929 . S
H1385 C1327 0.930 . S
H1386 C1328 0.930 . S
H1387 C1329 0.930 . S
H1388 C1331 0.930 . S
H1389 C1333 0.929 . S
H1390 C1334 0.930 . S
H1391 C1335 0.930 . S
H1392 C1338 0.930 . S
H1393 C1341 0.929 . S
H1394 C1346 0.929 . S
H1395 C1347 0.930 . S
H1396 C1354 0.929 . S
H1397 C1355 0.930 . S
H1398 C1356 0.930 . S
H1399 C1357 0.930 . S
H1400 C1359 0.929 . S
H1401 C1360 0.930 . S
H1402 C1361 0.930 . S
H1403 C1362 0.930 . S
H1404 C1366 0.929 . S
H1405 C1368 0.930 . S
H1406 C1374 0.929 . S
H1407 C1375 0.930 . S
Li1408 N1425 1.990 . S
Li1408 O1468 1.956 . S
Li1408 O1469 1.970 . S
Li1408 O1470 1.961 . S
Li1409 N1433 1.990 . S
Li1409 O1468 1.970 . S
Li1409 O1469 1.956 . S
Li1409 O1471 1.961 . S
Li1410 N1455 1.990 . S
Li1410 O1468 1.961 . S
Li1410 O1470 1.956 . S
Li1410 O1471 1.970 . S
Li1411 N1461 1.990 . S
Li1411 O1469 1.961 . S
Li1411 O1470 1.970 . S
Li1411 O1471 1.956 . S
C1412 C1414 1.348 . S
C1412 C1415 1.356 . S
C1412 O1468 1.325 . S
N1413 C1416 1.315 1_545 S
N1413 C1417 1.279 . S
C1414 C1412 1.348 . S
C1414 C1416 1.346 1_545 S
C1414 H1472 0.929 . S
C1415 C1412 1.356 . S
C1415 C1417 1.358 . S
C1415 H1473 0.930 . S
C1416 N1413 1.315 1_565 S
C1416 C1414 1.346 1_565 S
C1416 H1474 0.937 . S
C1417 N1413 1.279 . S
C1417 C1415 1.358 . S
C1417 H1475 0.930 1_655 S
C1418 C1421 1.348 . S
C1418 C1422 1.356 . S
C1418 O1469 1.325 . S
C1419 N1420 1.279 . S
C1419 C1422 1.358 . S
C1419 H1476 0.930 . S
N1420 C1419 1.279 . S
N1420 C1423 1.314 . S
C1421 C1418 1.348 . S
C1421 C1423 1.353 . S
C1421 H1477 0.929 . S
C1422 C1418 1.356 . S
C1422 C1419 1.358 . S
C1422 H1478 0.930 . S
C1423 N1420 1.314 . S
C1423 C1421 1.353 . S
C1423 H1479 0.930 . S
C1424 N1425 1.314 . S
C1424 C1429 1.353 . S
C1424 H1430 0.930 . S
N1425 Li1408 1.990 . S
N1425 C1424 1.314 . S
N1425 C1427 1.279 . S
C1426 C1427 1.350 1_455 S
C1426 C1428 1.355 . S
C1426 H1480 0.939 . S
C1427 N1425 1.279 . S
C1427 C1426 1.350 1_655 S
C1427 H1431 0.930 . S
C1428 C1426 1.355 . S
C1428 C1429 1.348 1_455 S
C1429 C1424 1.353 . S
C1429 C1428 1.348 1_655 S
C1429 H1481 0.929 . S
H1430 C1424 0.930 . S
H1431 C1427 0.930 . S
C1432 N1433 1.314 . S
C1432 C1434 1.353 1_545 S
C1432 H1438 0.930 . S
N1433 Li1409 1.990 . S
N1433 C1432 1.314 . S
N1433 C1436 1.279 . S
C1434 C1432 1.353 1_565 S
C1434 C1437 1.348 . S
C1434 H1482 0.929 . S
C1435 C1436 1.358 1_565 S
C1435 C1437 1.356 . S
C1435 H1483 0.930 . S
C1436 N1433 1.279 . S
C1436 C1435 1.358 1_545 S
C1436 H1439 0.930 . S
C1437 C1434 1.348 . S
C1437 C1435 1.356 . S
H1438 C1432 0.930 . S
H1439 C1436 0.930 . S
C1440 C1442 1.348 . S
C1440 C1443 1.356 . S
C1440 O1470 1.325 . S
N1441 C1444 1.314 1_455 S
N1441 C1445 1.279 . S
C1442 C1440 1.348 . S
C1442 C1444 1.353 . S
C1442 H1484 0.929 . S
C1443 C1440 1.356 . S
C1443 C1445 1.358 1_655 S
C1443 H1485 0.919 1_655 S
C1444 N1441 1.314 1_655 S
C1444 C1442 1.353 . S
C1444 H1486 0.930 . S
C1445 N1441 1.279 . S
C1445 C1443 1.358 1_455 S
C1445 H1487 0.930 . S
C1446 C1447 1.348 . S
C1446 C1448 1.356 . S
C1446 O1471 1.325 . S
C1447 C1446 1.348 . S
C1447 C1449 1.353 . S
C1447 H1488 0.929 . S
C1448 C1446 1.356 . S
C1448 C1450 1.358 . S
C1448 H1489 0.930 . S
C1449 C1447 1.353 . S
C1449 N1451 1.314 . S
C1449 H1490 0.930 . S
C1450 C1448 1.358 . S
C1450 N1451 1.279 . S
C1450 H1491 0.930 . S
N1451 C1449 1.314 . S
N1451 C1450 1.279 . S
C1452 C1454 1.353 . S
C1452 N1455 1.314 . S
C1452 H1458 0.930 . S
C1453 N1455 1.279 . S
C1453 C1456 1.358 . S
C1453 H1459 0.930 . S
C1454 C1452 1.353 . S
C1454 C1457 1.348 . S
C1454 H1492 0.929 . S
N1455 Li1410 1.990 . S
N1455 C1452 1.314 . S
N1455 C1453 1.279 . S
C1456 C1453 1.358 . S
C1456 C1457 1.356 . S
C1456 H1493 0.930 1_655 S
C1457 C1454 1.348 . S
C1457 C1456 1.356 . S
H1458 C1452 0.930 . S
H1459 C1453 0.930 . S
C1460 N1461 1.314 . S
C1460 C1462 1.353 . S
C1460 H1466 0.930 . S
N1461 Li1411 1.990 . S
N1461 C1460 1.314 . S
N1461 C1464 1.279 . S
C1462 C1460 1.353 . S
C1462 C1465 1.348 . S
C1462 H1494 0.929 . S
C1463 C1464 1.358 . S
C1463 C1465 1.356 . S
C1463 H1495 0.930 . S
C1464 N1461 1.279 . S
C1464 C1463 1.358 . S
C1464 H1467 0.930 . S
C1465 C1462 1.348 . S
C1465 C1463 1.356 . S
H1466 C1460 0.930 . S
H1467 C1464 0.930 . S
O1468 Li1408 1.956 . S
O1468 Li1409 1.970 . S
O1468 Li1410 1.961 . S
O1468 C1412 1.325 . S
O1469 Li1408 1.970 . S
O1469 Li1409 1.956 . S
O1469 Li1411 1.961 . S
O1469 C1418 1.325 . S
O1470 Li1408 1.961 . S
O1470 Li1410 1.956 . S
O1470 Li1411 1.970 . S
O1470 C1440 1.325 . S
O1471 Li1409 1.961 . S
O1471 Li1410 1.970 . S
O1471 Li1411 1.956 . S
O1471 C1446 1.325 . S
H1472 C1414 0.929 . S
H1473 C1415 0.930 . S
H1474 C1416 0.937 . S
H1475 C1417 0.930 1_455 S
H1476 C1419 0.930 . S
H1477 C1421 0.929 . S
H1478 C1422 0.930 . S
H1479 C1423 0.930 . S
H1480 C1426 0.939 . S
H1481 C1429 0.929 . S
H1482 C1434 0.929 . S
H1483 C1435 0.930 . S
H1484 C1442 0.929 . S
H1485 C1443 0.919 1_455 S
H1486 C1444 0.930 . S
H1487 C1445 0.930 . S
H1488 C1447 0.929 . S
H1489 C1448 0.930 . S
H1490 C1449 0.930 . S
H1491 C1450 0.930 . S
H1492 C1454 0.929 . S
H1493 C1456 0.930 1_455 S
H1494 C1462 0.929 . S
H1495 C1463 0.930 . S
Li1496 N1513 1.990 . S
Li1496 O1556 1.956 . S
Li1496 O1557 1.970 . S
Li1496 O1558 1.961 . S
Li1497 N1521 1.990 . S
Li1497 O1556 1.970 . S
Li1497 O1557 1.956 . S
Li1497 O1559 1.961 . S
Li1498 N1543 1.990 . S
Li1498 O1556 1.961 . S
Li1498 O1558 1.956 . S
Li1498 O1559 1.970 . S
Li1499 N1549 1.990 . S
Li1499 O1557 1.961 . S
Li1499 O1558 1.970 . S
Li1499 O1559 1.956 . S
C1500 C1502 1.348 . S
C1500 C1503 1.356 . S
C1500 O1556 1.325 . S
N1501 C1504 1.314 . S
N1501 C1505 1.279 . S
C1502 C1500 1.348 . S
C1502 C1504 1.353 . S
C1502 H1560 0.929 . S
C1503 C1500 1.356 . S
C1503 C1505 1.358 . S
C1503 H1561 0.930 . S
C1504 N1501 1.314 . S
C1504 C1502 1.353 . S
C1504 H1562 0.930 . S
C1505 N1501 1.279 . S
C1505 C1503 1.358 . S
C1505 H1563 0.930 . S
C1506 C1509 1.348 . S
C1506 C1510 1.356 . S
C1506 O1557 1.325 . S
C1507 N1508 1.279 . S
C1507 C1510 1.358 . S
C1507 H1564 0.930 . S
N1508 C1507 1.279 . S
N1508 C1511 1.314 . S
C1509 C1506 1.348 . S
C1509 C1511 1.353 . S
C1509 H1565 0.929 . S
C1510 C1506 1.356 . S
C1510 C1507 1.358 . S
C1510 H1566 0.930 . S
C1511 N1508 1.314 . S
C1511 C1509 1.353 . S
C1511 H1567 0.930 . S
C1512 N1513 1.314 . S
C1512 C1517 1.353 . S
C1512 H1518 0.930 . S
N1513 Li1496 1.990 . S
N1513 C1512 1.314 . S
N1513 C1515 1.279 . S
C1514 C1515 1.358 . S
C1514 C1516 1.356 . S
C1514 H1568 0.930 . S
C1515 N1513 1.279 . S
C1515 C1514 1.358 . S
C1515 H1519 0.930 . S
C1516 C1514 1.356 . S
C1516 C1517 1.348 . S
C1517 C1512 1.353 . S
C1517 C1516 1.348 . S
C1517 H1569 0.929 . S
H1518 C1512 0.930 . S
H1519 C1515 0.930 . S
C1520 N1521 1.314 . S
C1520 C1522 1.353 . S
C1520 H1526 0.930 . S
N1521 Li1497 1.990 . S
N1521 C1520 1.314 . S
N1521 C1524 1.279 . S
C1522 C1520 1.353 . S
C1522 C1525 1.348 . S
C1522 H1570 0.929 . S
C1523 C1524 1.358 . S
C1523 C1525 1.356 . S
C1523 H1571 0.930 . S
C1524 N1521 1.279 . S
C1524 C1523 1.358 . S
C1524 H1527 0.930 . S
C1525 C1522 1.348 . S
C1525 C1523 1.356 . S
H1526 C1520 0.930 . S
H1527 C1524 0.930 . S
C1528 C1530 1.348 . S
C1528 C1531 1.356 . S
C1528 O1558 1.325 . S
N1529 C1532 1.314 . S
N1529 C1533 1.279 . S
C1530 C1528 1.348 . S
C1530 C1532 1.353 . S
C1530 H1572 0.929 . S
C1531 C1528 1.356 . S
C1531 C1533 1.358 . S
C1531 H1573 0.930 . S
C1532 N1529 1.314 . S
C1532 C1530 1.353 . S
C1532 H1574 0.930 . S
C1533 N1529 1.279 . S
C1533 C1531 1.358 . S
C1533 H1575 0.930 . S
C1534 C1535 1.348 . S
C1534 C1536 1.356 . S
C1534 O1559 1.325 . S
C1535 C1534 1.348 . S
C1535 C1537 1.353 . S
C1535 H1576 0.929 . S
C1536 C1534 1.356 . S
C1536 C1538 1.358 . S
C1536 H1577 0.930 . S
C1537 C1535 1.353 . S
C1537 N1539 1.314 . S
C1537 H1578 0.930 . S
C1538 C1536 1.358 . S
C1538 N1539 1.279 . S
C1538 H1579 0.930 . S
N1539 C1537 1.314 . S
N1539 C1538 1.279 . S
C1540 C1542 1.353 . S
C1540 N1543 1.314 . S
C1540 H1546 0.930 . S
C1541 N1543 1.279 . S
C1541 C1544 1.358 . S
C1541 H1547 0.930 . S
C1542 C1540 1.353 . S
C1542 C1545 1.348 . S
C1542 H1580 0.929 . S
N1543 Li1498 1.990 . S
N1543 C1540 1.314 . S
N1543 C1541 1.279 . S
C1544 C1541 1.358 . S
C1544 C1545 1.356 . S
C1544 H1581 0.930 . S
C1545 C1542 1.348 . S
C1545 C1544 1.356 . S
H1546 C1540 0.930 . S
H1547 C1541 0.930 . S
C1548 N1549 1.314 . S
C1548 C1550 1.353 . S
C1548 H1554 0.930 . S
N1549 Li1499 1.990 . S
N1549 C1548 1.314 . S
N1549 C1552 1.279 . S
C1550 C1548 1.353 . S
C1550 C1553 1.348 . S
C1550 H1582 0.929 . S
C1551 C1552 1.358 . S
C1551 C1553 1.356 . S
C1551 H1583 0.930 . S
C1552 N1549 1.279 . S
C1552 C1551 1.358 . S
C1552 H1555 0.930 . S
C1553 C1550 1.348 . S
C1553 C1551 1.356 . S
H1554 C1548 0.930 . S
H1555 C1552 0.930 . S
O1556 Li1496 1.956 . S
O1556 Li1497 1.970 . S
O1556 Li1498 1.961 . S
O1556 C1500 1.325 . S
O1557 Li1496 1.970 . S
O1557 Li1497 1.956 . S
O1557 Li1499 1.961 . S
O1557 C1506 1.325 . S
O1558 Li1496 1.961 . S
O1558 Li1498 1.956 . S
O1558 Li1499 1.970 . S
O1558 C1528 1.325 . S
O1559 Li1497 1.961 . S
O1559 Li1498 1.970 . S
O1559 Li1499 1.956 . S
O1559 C1534 1.325 . S
H1560 C1502 0.929 . S
H1561 C1503 0.930 . S
H1562 C1504 0.930 . S
H1563 C1505 0.930 . S
H1564 C1507 0.930 . S
H1565 C1509 0.929 . S
H1566 C1510 0.930 . S
H1567 C1511 0.930 . S
H1568 C1514 0.930 . S
H1569 C1517 0.929 . S
H1570 C1522 0.929 . S
H1571 C1523 0.930 . S
H1572 C1530 0.929 . S
H1573 C1531 0.930 . S
H1574 C1532 0.930 . S
H1575 C1533 0.930 . S
H1576 C1535 0.929 . S
H1577 C1536 0.930 . S
H1578 C1537 0.930 . S
H1579 C1538 0.930 . S
H1580 C1542 0.929 . S
H1581 C1544 0.930 . S
H1582 C1550 0.929 . S
H1583 C1551 0.930 . S
Li1584 N1601 1.990 . S
Li1584 O1644 1.956 . S
Li1584 O1645 1.970 . S
Li1584 O1646 1.961 . S
Li1585 N1609 1.990 . S
Li1585 O1644 1.970 . S
Li1585 O1645 1.956 . S
Li1585 O1647 1.961 . S
Li1586 N1631 1.990 . S
Li1586 O1644 1.961 . S
Li1586 O1646 1.956 . S
Li1586 O1647 1.970 . S
Li1587 N1637 1.990 . S
Li1587 O1645 1.961 . S
Li1587 O1646 1.970 . S
Li1587 O1647 1.956 . S
C1588 C1590 1.348 . S
C1588 C1591 1.356 . S
C1588 O1644 1.325 . S
N1589 C1592 1.314 . S
N1589 C1593 1.279 . S
C1590 C1588 1.348 . S
C1590 C1592 1.353 . S
C1590 H1648 0.929 . S
C1591 C1588 1.356 . S
C1591 C1593 1.358 . S
C1591 H1649 0.930 . S
C1592 N1589 1.314 . S
C1592 C1590 1.353 . S
C1592 H1650 0.930 . S
C1593 N1589 1.279 . S
C1593 C1591 1.358 . S
C1593 H1651 0.930 . S
C1594 C1597 1.348 . S
C1594 C1598 1.356 . S
C1594 O1645 1.325 . S
C1595 N1596 1.279 . S
C1595 C1598 1.358 . S
C1595 H1652 0.930 . S
N1596 C1595 1.279 . S
N1596 C1599 1.314 . S
C1597 C1594 1.348 . S
C1597 C1599 1.353 . S
C1597 H1653 0.929 . S
C1598 C1594 1.356 . S
C1598 C1595 1.358 . S
C1598 H1654 0.930 . S
C1599 N1596 1.314 . S
C1599 C1597 1.353 . S
C1599 H1655 0.930 . S
C1600 N1601 1.314 . S
C1600 C1605 1.353 . S
C1600 H1606 0.930 . S
N1601 Li1584 1.990 . S
N1601 C1600 1.314 . S
N1601 C1603 1.279 . S
C1602 C1603 1.358 . S
C1602 C1604 1.356 . S
C1602 H1656 0.930 . S
C1603 N1601 1.279 . S
C1603 C1602 1.358 . S
C1603 H1607 0.930 . S
C1604 C1602 1.356 . S
C1604 C1605 1.348 . S
C1605 C1600 1.353 . S
C1605 C1604 1.348 . S
C1605 H1657 0.929 . S
H1606 C1600 0.930 . S
H1607 C1603 0.930 . S
C1608 N1609 1.314 . S
C1608 C1610 1.353 . S
C1608 H1614 0.930 . S
N1609 Li1585 1.990 . S
N1609 C1608 1.314 . S
N1609 C1612 1.279 . S
C1610 C1608 1.353 . S
C1610 C1613 1.348 . S
C1610 H1658 0.929 . S
C1611 C1612 1.358 . S
C1611 C1613 1.356 . S
C1611 H1659 0.930 . S
C1612 N1609 1.279 . S
C1612 C1611 1.358 . S
C1612 H1615 0.930 . S
C1613 C1610 1.348 . S
C1613 C1611 1.356 . S
H1614 C1608 0.930 . S
H1615 C1612 0.930 . S
C1616 C1618 1.348 . S
C1616 C1619 1.356 . S
C1616 O1646 1.325 . S
N1617 C1620 1.314 . S
N1617 C1621 1.279 . S
C1618 C1616 1.348 . S
C1618 C1620 1.353 . S
C1618 H1660 0.929 . S
C1619 C1616 1.356 . S
C1619 C1621 1.358 . S
C1619 H1661 0.930 . S
C1620 N1617 1.314 . S
C1620 C1618 1.353 . S
C1620 H1662 0.930 . S
C1621 N1617 1.279 . S
C1621 C1619 1.358 . S
C1621 H1663 0.930 . S
C1622 C1623 1.348 . S
C1622 C1624 1.356 . S
C1622 O1647 1.325 . S
C1623 C1622 1.348 . S
C1623 C1625 1.353 . S
C1623 H1664 0.929 . S
C1624 C1622 1.356 . S
C1624 C1626 1.358 . S
C1624 H1665 0.930 . S
C1625 C1623 1.353 . S
C1625 N1627 1.314 . S
C1625 H1666 0.930 . S
C1626 C1624 1.358 . S
C1626 N1627 1.279 . S
C1626 H1667 0.930 . S
N1627 C1625 1.314 . S
N1627 C1626 1.279 . S
C1628 C1630 1.353 . S
C1628 N1631 1.314 . S
C1628 H1634 0.930 . S
C1629 N1631 1.279 . S
C1629 C1632 1.358 . S
C1629 H1635 0.930 . S
C1630 C1628 1.353 . S
C1630 C1633 1.348 . S
C1630 H1668 0.929 . S
N1631 Li1586 1.990 . S
N1631 C1628 1.314 . S
N1631 C1629 1.279 . S
C1632 C1629 1.358 . S
C1632 C1633 1.356 . S
C1632 H1669 0.930 . S
C1633 C1630 1.348 . S
C1633 C1632 1.356 . S
H1634 C1628 0.930 . S
H1635 C1629 0.930 . S
C1636 N1637 1.314 . S
C1636 C1638 1.353 . S
C1636 H1642 0.930 . S
N1637 Li1587 1.990 . S
N1637 C1636 1.314 . S
N1637 C1640 1.279 . S
C1638 C1636 1.353 . S
C1638 C1641 1.348 . S
C1638 H1670 0.929 . S
C1639 C1640 1.358 . S
C1639 C1641 1.356 . S
C1639 H1671 0.930 . S
C1640 N1637 1.279 . S
C1640 C1639 1.358 . S
C1640 H1643 0.930 . S
C1641 C1638 1.348 . S
C1641 C1639 1.356 . S
H1642 C1636 0.930 . S
H1643 C1640 0.930 . S
O1644 Li1584 1.956 . S
O1644 Li1585 1.970 . S
O1644 Li1586 1.961 . S
O1644 C1588 1.325 . S
O1645 Li1584 1.970 . S
O1645 Li1585 1.956 . S
O1645 Li1587 1.961 . S
O1645 C1594 1.325 . S
O1646 Li1584 1.961 . S
O1646 Li1586 1.956 . S
O1646 Li1587 1.970 . S
O1646 C1616 1.325 . S
O1647 Li1585 1.961 . S
O1647 Li1586 1.970 . S
O1647 Li1587 1.956 . S
O1647 C1622 1.325 . S
H1648 C1590 0.929 . S
H1649 C1591 0.930 . S
H1650 C1592 0.930 . S
H1651 C1593 0.930 . S
H1652 C1595 0.930 . S
H1653 C1597 0.929 . S
H1654 C1598 0.930 . S
H1655 C1599 0.930 . S
H1656 C1602 0.930 . S
H1657 C1605 0.929 . S
H1658 C1610 0.929 . S
H1659 C1611 0.930 . S
H1660 C1618 0.929 . S
H1661 C1619 0.930 . S
H1662 C1620 0.930 . S
H1663 C1621 0.930 . S
H1664 C1623 0.929 . S
H1665 C1624 0.930 . S
H1666 C1625 0.930 . S
H1667 C1626 0.930 . S
H1668 C1630 0.929 . S
H1669 C1632 0.930 . S
H1670 C1638 0.929 . S
H1671 C1639 0.930 . S
Li1672 N1689 1.990 . S
Li1672 O1732 1.956 . S
Li1672 O1733 1.970 . S
Li1672 O1734 1.961 . S
Li1673 N1697 1.990 . S
Li1673 O1732 1.970 . S
Li1673 O1733 1.956 . S
Li1673 O1735 1.961 . S
Li1674 N1719 1.990 . S
Li1674 O1732 1.961 . S
Li1674 O1734 1.956 . S
Li1674 O1735 1.970 . S
Li1675 N1725 1.990 . S
Li1675 O1733 1.961 . S
Li1675 O1734 1.970 . S
Li1675 O1735 1.956 . S
C1676 C1678 1.348 . S
C1676 C1679 1.356 . S
C1676 O1732 1.325 . S
N1677 C1680 1.314 . S
N1677 C1681 1.279 . S
C1678 C1676 1.348 . S
C1678 C1680 1.353 . S
C1678 H1736 0.929 . S
C1679 C1676 1.356 . S
C1679 C1681 1.358 . S
C1679 H1737 0.930 . S
C1680 N1677 1.314 . S
C1680 C1678 1.353 . S
C1680 H1738 0.930 . S
C1681 N1677 1.279 . S
C1681 C1679 1.358 . S
C1681 H1739 0.930 . S
C1682 C1685 1.348 . S
C1682 C1686 1.356 . S
C1682 O1733 1.325 . S
C1683 N1684 1.279 . S
C1683 C1686 1.358 . S
C1683 H1740 0.930 . S
N1684 C1683 1.279 . S
N1684 C1687 1.314 . S
C1685 C1682 1.348 . S
C1685 C1687 1.353 . S
C1685 H1741 0.929 . S
C1686 C1682 1.356 . S
C1686 C1683 1.358 . S
C1686 H1742 0.930 . S
C1687 N1684 1.314 . S
C1687 C1685 1.353 . S
C1687 H1743 0.930 . S
C1688 N1689 1.314 . S
C1688 C1693 1.353 . S
C1688 H1694 0.930 . S
N1689 Li1672 1.990 . S
N1689 C1688 1.314 . S
N1689 C1691 1.279 . S
C1690 C1691 1.358 . S
C1690 C1692 1.356 . S
C1690 H1744 0.930 . S
C1691 N1689 1.279 . S
C1691 C1690 1.358 . S
C1691 H1695 0.930 . S
C1692 C1690 1.356 . S
C1692 C1693 1.348 . S
C1693 C1688 1.353 . S
C1693 C1692 1.348 . S
C1693 H1745 0.929 . S
H1694 C1688 0.930 . S
H1695 C1691 0.930 . S
C1696 N1697 1.314 . S
C1696 C1698 1.353 . S
C1696 H1702 0.930 . S
N1697 Li1673 1.990 . S
N1697 C1696 1.314 . S
N1697 C1700 1.279 . S
C1698 C1696 1.353 . S
C1698 C1701 1.348 . S
C1698 H1746 0.929 . S
C1699 C1700 1.358 . S
C1699 C1701 1.356 . S
C1699 H1747 0.930 . S
C1700 N1697 1.279 . S
C1700 C1699 1.358 . S
C1700 H1703 0.930 . S
C1701 C1698 1.348 . S
C1701 C1699 1.356 . S
H1702 C1696 0.930 . S
H1703 C1700 0.930 . S
C1704 C1706 1.348 1_545 S
C1704 C1707 1.356 . S
C1704 O1734 1.325 . S
N1705 C1708 1.314 . S
N1705 C1709 1.279 . S
C1706 C1704 1.348 1_565 S
C1706 C1708 1.353 . S
C1706 H1748 0.929 . S
C1707 C1704 1.356 . S
C1707 C1709 1.358 1_545 S
C1707 H1749 0.930 . S
C1708 N1705 1.314 . S
C1708 C1706 1.353 . S
C1708 H1750 0.930 . S
C1709 N1705 1.279 . S
C1709 C1707 1.358 1_565 S
C1709 H1751 0.930 . S
C1710 C1711 1.348 . S
C1710 C1712 1.356 . S
C1710 O1735 1.325 . S
C1711 C1710 1.348 . S
C1711 C1713 1.353 . S
C1711 H1752 0.929 . S
C1712 C1710 1.356 . S
C1712 C1714 1.358 . S
C1712 H1753 0.930 . S
C1713 C1711 1.353 . S
C1713 N1715 1.314 . S
C1713 H1754 0.930 . S
C1714 C1712 1.358 . S
C1714 N1715 1.279 . S
C1714 H1755 0.930 . S
N1715 C1713 1.314 . S
N1715 C1714 1.279 . S
C1716 C1718 1.353 . S
C1716 N1719 1.314 . S
C1716 H1722 0.930 . S
C1717 N1719 1.279 . S
C1717 C1720 1.358 . S
C1717 H1723 0.930 . S
C1718 C1716 1.353 . S
C1718 C1721 1.348 . S
C1718 H1756 0.929 . S
N1719 Li1674 1.990 . S
N1719 C1716 1.314 . S
N1719 C1717 1.279 . S
C1720 C1717 1.358 . S
C1720 C1721 1.356 . S
C1720 H1757 0.919 1_545 S
C1721 C1718 1.348 . S
C1721 C1720 1.356 . S
H1722 C1716 0.930 . S
H1723 C1717 0.930 . S
C1724 N1725 1.314 1_565 S
C1724 C1726 1.353 . S
C1724 H1730 0.930 1_565 S
N1725 Li1675 1.990 . S
N1725 C1724 1.314 1_545 S
N1725 C1728 1.279 1_545 S
C1726 C1724 1.353 . S
C1726 C1729 1.348 . S
C1726 H1758 0.929 . S
C1727 C1728 1.358 . S
C1727 C1729 1.356 . S
C1727 H1759 0.930 . S
C1728 N1725 1.279 1_565 S
C1728 C1727 1.358 . S
C1728 H1731 0.930 1_565 S
C1729 C1726 1.348 . S
C1729 C1727 1.356 . S
H1730 C1724 0.930 1_545 S
H1731 C1728 0.930 1_545 S
O1732 Li1672 1.956 . S
O1732 Li1673 1.970 . S
O1732 Li1674 1.961 . S
O1732 C1676 1.325 . S
O1733 Li1672 1.970 . S
O1733 Li1673 1.956 . S
O1733 Li1675 1.961 . S
O1733 C1682 1.325 . S
O1734 Li1672 1.961 . S
O1734 Li1674 1.956 . S
O1734 Li1675 1.970 . S
O1734 C1704 1.325 . S
O1735 Li1673 1.961 . S
O1735 Li1674 1.970 . S
O1735 Li1675 1.956 . S
O1735 C1710 1.325 . S
H1736 C1678 0.929 . S
H1737 C1679 0.930 . S
H1738 C1680 0.930 . S
H1739 C1681 0.930 . S
H1740 C1683 0.930 . S
H1741 C1685 0.929 . S
H1742 C1686 0.930 . S
H1743 C1687 0.930 . S
H1744 C1690 0.930 . S
H1745 C1693 0.929 . S
H1746 C1698 0.929 . S
H1747 C1699 0.930 . S
H1748 C1706 0.929 . S
H1749 C1707 0.930 . S
H1750 C1708 0.930 . S
H1751 C1709 0.930 . S
H1752 C1711 0.929 . S
H1753 C1712 0.930 . S
H1754 C1713 0.930 . S
H1755 C1714 0.930 . S
H1756 C1718 0.929 . S
H1757 C1720 0.919 1_565 S
H1758 C1726 0.929 . S
H1759 C1727 0.930 . S
Li1760 N1777 1.990 . S
Li1760 O1820 1.956 . S
Li1760 O1821 1.970 . S
Li1760 O1822 1.961 . S
Li1761 N1785 1.989 . S
Li1761 O1820 1.974 1_556 S
Li1761 O1821 1.934 1_556 S
Li1761 O1823 1.983 . S
Li1762 N1807 1.990 . S
Li1762 O1820 1.961 1_556 S
Li1762 O1822 1.956 1_556 S
Li1762 O1823 1.970 . S
Li1763 N1813 1.990 . S
Li1763 O1821 1.961 1_556 S
Li1763 O1822 1.970 1_556 S
Li1763 O1823 1.956 . S
C1764 C1766 1.348 . S
C1764 C1767 1.356 . S
C1764 O1820 1.325 . S
N1765 C1768 1.314 . S
N1765 C1769 1.279 . S
C1766 C1764 1.348 . S
C1766 C1768 1.353 . S
C1766 H1824 0.929 . S
C1767 C1764 1.356 . S
C1767 C1769 1.358 . S
C1767 H1825 0.930 . S
C1768 N1765 1.314 . S
C1768 C1766 1.353 . S
C1768 H1826 0.930 . S
C1769 N1765 1.279 . S
C1769 C1767 1.358 . S
C1769 H1827 0.930 . S
C1770 C1773 1.348 . S
C1770 C1774 1.356 . S
C1770 O1821 1.325 . S
C1771 N1772 1.279 . S
C1771 C1774 1.358 . S
C1771 H1828 0.930 . S
N1772 C1771 1.279 . S
N1772 C1775 1.314 . S
C1773 C1770 1.348 . S
C1773 C1775 1.353 . S
C1773 H1829 0.929 . S
C1774 C1770 1.356 . S
C1774 C1771 1.358 . S
C1774 H1830 0.930 . S
C1775 N1772 1.314 . S
C1775 C1773 1.353 . S
C1775 H1831 0.930 . S
C1776 N1777 1.314 . S
C1776 C1781 1.353 . S
C1776 H1782 0.930 . S
N1777 Li1760 1.990 . S
N1777 C1776 1.314 . S
N1777 C1779 1.279 . S
C1778 C1779 1.358 . S
C1778 C1780 1.356 . S
C1778 H1832 0.930 . S
C1779 N1777 1.279 . S
C1779 C1778 1.358 . S
C1779 H1783 0.930 . S
C1780 C1778 1.356 . S
C1780 C1781 1.348 . S
C1781 C1776 1.353 . S
C1781 C1780 1.348 . S
C1781 H1833 0.929 . S
H1782 C1776 0.930 . S
H1783 C1779 0.930 . S
C1784 N1785 1.314 . S
C1784 C1786 1.353 . S
C1784 H1790 0.930 . S
N1785 Li1761 1.989 . S
N1785 C1784 1.314 . S
N1785 C1788 1.279 1_556 S
C1786 C1784 1.353 . S
C1786 C1789 1.348 . S
C1786 H1834 0.929 . S
C1787 C1788 1.358 . S
C1787 C1789 1.356 1_554 S
C1787 H1835 0.930 . S
C1788 N1785 1.279 1_554 S
C1788 C1787 1.358 . S
C1788 H1791 0.930 . S
C1789 C1786 1.348 . S
C1789 C1787 1.356 1_556 S
H1790 C1784 0.930 . S
H1791 C1788 0.930 . S
C1792 C1794 1.348 1_554 S
C1792 C1795 1.356 . S
C1792 O1822 1.325 . S
N1793 C1796 1.314 1_554 S
N1793 C1797 1.279 . S
C1794 C1792 1.348 1_556 S
C1794 C1796 1.353 . S
C1794 H1836 0.929 . S
C1795 C1792 1.356 . S
C1795 C1797 1.358 . S
C1795 H1837 0.930 . S
C1796 N1793 1.314 1_556 S
C1796 C1794 1.353 . S
C1796 H1838 0.930 . S
C1797 N1793 1.279 . S
C1797 C1795 1.358 . S
C1797 H1839 0.930 . S
C1798 C1799 1.348 . S
C1798 C1800 1.356 . S
C1798 O1823 1.325 . S
C1799 C1798 1.348 . S
C1799 C1801 1.353 . S
C1799 H1840 0.929 . S
C1800 C1798 1.356 . S
C1800 C1802 1.358 . S
C1800 H1841 0.930 . S
C1801 C1799 1.353 . S
C1801 N1803 1.314 . S
C1801 H1842 0.930 . S
C1802 C1800 1.358 . S
C1802 N1803 1.279 . S
C1802 H1843 0.930 . S
N1803 C1801 1.314 . S
N1803 C1802 1.279 . S
C1804 C1806 1.353 . S
C1804 N1807 1.314 . S
C1804 H1810 0.930 . S
C1805 N1807 1.279 . S
C1805 C1808 1.358 . S
C1805 H1811 0.930 . S
C1806 C1804 1.353 . S
C1806 C1809 1.348 . S
C1806 H1844 0.929 . S
N1807 Li1762 1.990 . S
N1807 C1804 1.314 . S
N1807 C1805 1.279 . S
C1808 C1805 1.358 . S
C1808 C1809 1.356 . S
C1808 H1845 0.930 . S
C1809 C1806 1.348 . S
C1809 C1808 1.356 . S
H1810 C1804 0.930 . S
H1811 C1805 0.930 . S
C1812 N1813 1.314 1_554 S
C1812 C1814 1.353 . S
C1812 H1818 0.930 . S
N1813 Li1763 1.990 . S
N1813 C1812 1.314 1_556 S
N1813 C1816 1.279 . S
C1814 C1812 1.353 . S
C1814 C1817 1.348 1_554 S
C1814 H1846 0.929 . S
C1815 C1816 1.358 . S
C1815 C1817 1.356 . S
C1815 H1847 0.930 . S
C1816 N1813 1.279 . S
C1816 C1815 1.358 . S
C1816 H1819 0.930 . S
C1817 C1814 1.348 1_556 S
C1817 C1815 1.356 . S
H1818 C1812 0.930 . S
H1819 C1816 0.930 . S
O1820 Li1760 1.956 . S
O1820 Li1761 1.974 1_554 S
O1820 Li1762 1.961 1_554 S
O1820 C1764 1.325 . S
O1821 Li1760 1.970 . S
O1821 Li1761 1.934 1_554 S
O1821 Li1763 1.961 1_554 S
O1821 C1770 1.325 . S
O1822 Li1760 1.961 . S
O1822 Li1762 1.956 1_554 S
O1822 Li1763 1.970 1_554 S
O1822 C1792 1.325 . S
O1823 Li1761 1.983 . S
O1823 Li1762 1.970 . S
O1823 Li1763 1.956 . S
O1823 C1798 1.325 . S
H1824 C1766 0.929 . S
H1825 C1767 0.930 . S
H1826 C1768 0.930 . S
H1827 C1769 0.930 . S
H1828 C1771 0.930 . S
H1829 C1773 0.929 . S
H1830 C1774 0.930 . S
H1831 C1775 0.930 . S
H1832 C1778 0.930 . S
H1833 C1781 0.929 . S
H1834 C1786 0.929 . S
H1835 C1787 0.930 . S
H1836 C1794 0.929 . S
H1837 C1795 0.930 . S
H1838 C1796 0.930 . S
H1839 C1797 0.930 . S
H1840 C1799 0.929 . S
H1841 C1800 0.930 . S
H1842 C1801 0.930 . S
H1843 C1802 0.930 . S
H1844 C1806 0.929 . S
H1845 C1808 0.930 . S
H1846 C1814 0.929 . S
H1847 C1815 0.930 . S
Li1848 N1865 1.990 . S
Li1848 O1908 1.956 . S
Li1848 O1909 1.970 . S
Li1848 O1910 1.961 . S
Li1849 N1873 1.990 . S
Li1849 O1908 1.970 . S
Li1849 O1909 1.956 . S
Li1849 O1911 1.961 . S
Li1850 N1895 1.990 . S
Li1850 O1908 1.961 . S
Li1850 O1910 1.956 . S
Li1850 O1911 1.970 . S
Li1851 N1901 1.990 . S
Li1851 O1909 1.961 . S
Li1851 O1910 1.970 . S
Li1851 O1911 1.956 . S
C1852 C1854 1.348 . S
C1852 C1855 1.356 . S
C1852 O1908 1.325 . S
N1853 C1856 1.314 . S
N1853 C1857 1.279 . S
C1854 C1852 1.348 . S
C1854 C1856 1.353 . S
C1854 H1912 0.929 . S
C1855 C1852 1.356 . S
C1855 C1857 1.358 . S
C1855 H1913 0.930 . S
C1856 N1853 1.314 . S
C1856 C1854 1.353 . S
C1856 H1914 0.930 . S
C1857 N1853 1.279 . S
C1857 C1855 1.358 . S
C1857 H1915 0.930 . S
C1858 C1861 1.348 . S
C1858 C1862 1.356 . S
C1858 O1909 1.325 . S
C1859 N1860 1.279 . S
C1859 C1862 1.358 . S
C1859 H1916 0.930 . S
N1860 C1859 1.279 . S
N1860 C1863 1.314 . S
C1861 C1858 1.348 . S
C1861 C1863 1.353 . S
C1861 H1917 0.929 . S
C1862 C1858 1.356 . S
C1862 C1859 1.358 . S
C1862 H1918 0.930 . S
C1863 N1860 1.314 . S
C1863 C1861 1.353 . S
C1863 H1919 0.930 . S
C1864 N1865 1.314 . S
C1864 C1869 1.353 . S
C1864 H1870 0.930 . S
N1865 Li1848 1.990 . S
N1865 C1864 1.314 . S
N1865 C1867 1.279 . S
C1866 C1867 1.358 . S
C1866 C1868 1.356 . S
C1866 H1920 0.930 . S
C1867 N1865 1.279 . S
C1867 C1866 1.358 . S
C1867 H1871 0.930 . S
C1868 C1866 1.356 . S
C1868 C1869 1.348 . S
C1869 C1864 1.353 . S
C1869 C1868 1.348 . S
C1869 H1921 0.929 . S
H1870 C1864 0.930 . S
H1871 C1867 0.930 . S
C1872 N1873 1.314 . S
C1872 C1874 1.353 . S
C1872 H1878 0.930 . S
N1873 Li1849 1.990 . S
N1873 C1872 1.314 . S
N1873 C1876 1.279 . S
C1874 C1872 1.353 . S
C1874 C1877 1.348 . S
C1874 H1922 0.929 . S
C1875 C1876 1.358 . S
C1875 C1877 1.356 . S
C1875 H1923 0.930 . S
C1876 N1873 1.279 . S
C1876 C1875 1.358 . S
C1876 H1879 0.930 . S
C1877 C1874 1.348 . S
C1877 C1875 1.356 . S
H1878 C1872 0.930 . S
H1879 C1876 0.930 . S
C1880 C1882 1.348 . S
C1880 C1883 1.356 . S
C1880 O1910 1.325 . S
N1881 C1884 1.314 . S
N1881 C1885 1.279 . S
C1882 C1880 1.348 . S
C1882 C1884 1.353 . S
C1882 H1924 0.929 . S
C1883 C1880 1.356 . S
C1883 C1885 1.358 . S
C1883 H1925 0.930 . S
C1884 N1881 1.314 . S
C1884 C1882 1.353 . S
C1884 H1926 0.930 . S
C1885 N1881 1.279 . S
C1885 C1883 1.358 . S
C1885 H1927 0.930 . S
C1886 C1887 1.348 . S
C1886 C1888 1.356 . S
C1886 O1911 1.325 . S
C1887 C1886 1.348 . S
C1887 C1889 1.353 . S
C1887 H1928 0.929 . S
C1888 C1886 1.356 . S
C1888 C1890 1.358 . S
C1888 H1929 0.930 . S
C1889 C1887 1.353 . S
C1889 N1891 1.314 . S
C1889 H1930 0.930 . S
C1890 C1888 1.358 . S
C1890 N1891 1.279 . S
C1890 H1931 0.930 . S
N1891 C1889 1.314 . S
N1891 C1890 1.279 . S
C1892 C1894 1.353 . S
C1892 N1895 1.314 . S
C1892 H1898 0.930 . S
C1893 N1895 1.279 . S
C1893 C1896 1.358 . S
C1893 H1899 0.930 . S
C1894 C1892 1.353 . S
C1894 C1897 1.348 . S
C1894 H1932 0.929 . S
N1895 Li1850 1.990 . S
N1895 C1892 1.314 . S
N1895 C1893 1.279 . S
C1896 C1893 1.358 . S
C1896 C1897 1.356 . S
C1896 H1933 0.930 . S
C1897 C1894 1.348 . S
C1897 C1896 1.356 . S
H1898 C1892 0.930 . S
H1899 C1893 0.930 . S
C1900 N1901 1.314 . S
C1900 C1902 1.353 . S
C1900 H1906 0.930 . S
N1901 Li1851 1.990 . S
N1901 C1900 1.314 . S
N1901 C1904 1.279 . S
C1902 C1900 1.353 . S
C1902 C1905 1.348 . S
C1902 H1934 0.929 . S
C1903 C1904 1.358 . S
C1903 C1905 1.356 . S
C1903 H1935 0.930 . S
C1904 N1901 1.279 . S
C1904 C1903 1.358 . S
C1904 H1907 0.930 . S
C1905 C1902 1.348 . S
C1905 C1903 1.356 . S
H1906 C1900 0.930 . S
H1907 C1904 0.930 . S
O1908 Li1848 1.956 . S
O1908 Li1849 1.970 . S
O1908 Li1850 1.961 . S
O1908 C1852 1.325 . S
O1909 Li1848 1.970 . S
O1909 Li1849 1.956 . S
O1909 Li1851 1.961 . S
O1909 C1858 1.325 . S
O1910 Li1848 1.961 . S
O1910 Li1850 1.956 . S
O1910 Li1851 1.970 . S
O1910 C1880 1.325 . S
O1911 Li1849 1.961 . S
O1911 Li1850 1.970 . S
O1911 Li1851 1.956 . S
O1911 C1886 1.325 . S
H1912 C1854 0.929 . S
H1913 C1855 0.930 . S
H1914 C1856 0.930 . S
H1915 C1857 0.930 . S
H1916 C1859 0.930 . S
H1917 C1861 0.929 . S
H1918 C1862 0.930 . S
H1919 C1863 0.930 . S
H1920 C1866 0.930 . S
H1921 C1869 0.929 . S
H1922 C1874 0.929 . S
H1923 C1875 0.930 . S
H1924 C1882 0.929 . S
H1925 C1883 0.930 . S
H1926 C1884 0.930 . S
H1927 C1885 0.930 . S
H1928 C1887 0.929 . S
H1929 C1888 0.930 . S
H1930 C1889 0.930 . S
H1931 C1890 0.930 . S
H1932 C1894 0.929 . S
H1933 C1896 0.930 . S
H1934 C1902 0.929 . S
H1935 C1903 0.930 . S
Li1936 N1953 1.990 . S
Li1936 O1996 1.956 . S
Li1936 O1997 1.970 . S
Li1936 O1998 1.961 . S
Li1937 N1961 1.990 . S
Li1937 O1996 1.970 . S
Li1937 O1997 1.956 . S
Li1937 O1999 1.961 . S
Li1938 N1983 1.990 . S
Li1938 O1996 1.961 . S
Li1938 O1998 1.956 . S
Li1938 O1999 1.970 . S
Li1939 N1989 1.990 . S
Li1939 O1997 1.961 . S
Li1939 O1998 1.970 . S
Li1939 O1999 1.956 . S
C1940 C1942 1.348 . S
C1940 C1943 1.356 . S
C1940 O1996 1.325 . S
N1941 C1944 1.314 . S
N1941 C1945 1.279 . S
C1942 C1940 1.348 . S
C1942 C1944 1.353 . S
C1942 H2000 0.929 . S
C1943 C1940 1.356 . S
C1943 C1945 1.358 . S
C1943 H2001 0.930 . S
C1944 N1941 1.314 . S
C1944 C1942 1.353 . S
C1944 H2002 0.930 . S
C1945 N1941 1.279 . S
C1945 C1943 1.358 . S
C1945 H2003 0.930 . S
C1946 C1949 1.348 . S
C1946 C1950 1.356 . S
C1946 O1997 1.325 . S
C1947 N1948 1.279 . S
C1947 C1950 1.358 . S
C1947 H2004 0.930 . S
N1948 C1947 1.279 . S
N1948 C1951 1.314 . S
C1949 C1946 1.348 . S
C1949 C1951 1.353 . S
C1949 H2005 0.929 . S
C1950 C1946 1.356 . S
C1950 C1947 1.358 . S
C1950 H2006 0.930 . S
C1951 N1948 1.314 . S
C1951 C1949 1.353 . S
C1951 H2007 0.930 . S
C1952 N1953 1.314 . S
C1952 C1957 1.353 . S
C1952 H1958 0.930 . S
N1953 Li1936 1.990 . S
N1953 C1952 1.314 . S
N1953 C1955 1.279 . S
C1954 C1955 1.358 . S
C1954 C1956 1.356 . S
C1954 H2008 0.930 . S
C1955 N1953 1.279 . S
C1955 C1954 1.358 . S
C1955 H1959 0.930 . S
C1956 C1954 1.356 . S
C1956 C1957 1.348 . S
C1957 C1952 1.353 . S
C1957 C1956 1.348 . S
C1957 H2009 0.929 . S
H1958 C1952 0.930 . S
H1959 C1955 0.930 . S
C1960 N1961 1.314 . S
C1960 C1962 1.353 . S
C1960 H1966 0.930 . S
N1961 Li1937 1.990 . S
N1961 C1960 1.314 . S
N1961 C1964 1.279 . S
C1962 C1960 1.353 . S
C1962 C1965 1.348 . S
C1962 H2010 0.929 . S
C1963 C1964 1.358 . S
C1963 C1965 1.356 . S
C1963 H2011 0.930 . S
C1964 N1961 1.279 . S
C1964 C1963 1.358 . S
C1964 H1967 0.930 . S
C1965 C1962 1.348 . S
C1965 C1963 1.356 . S
H1966 C1960 0.930 . S
H1967 C1964 0.930 . S
C1968 C1970 1.348 . S
C1968 C1971 1.356 . S
C1968 O1998 1.325 . S
N1969 C1972 1.314 . S
N1969 C1973 1.279 . S
C1970 C1968 1.348 . S
C1970 C1972 1.353 . S
C1970 H2012 0.929 . S
C1971 C1968 1.356 . S
C1971 C1973 1.358 . S
C1971 H2013 0.930 . S
C1972 N1969 1.314 . S
C1972 C1970 1.353 . S
C1972 H2014 0.930 . S
C1973 N1969 1.279 . S
C1973 C1971 1.358 . S
C1973 H2015 0.930 . S
C1974 C1975 1.348 . S
C1974 C1976 1.356 . S
C1974 O1999 1.325 . S
C1975 C1974 1.348 . S
C1975 C1977 1.353 . S
C1975 H2016 0.929 . S
C1976 C1974 1.356 . S
C1976 C1978 1.358 . S
C1976 H2017 0.930 . S
C1977 C1975 1.353 . S
C1977 N1979 1.314 . S
C1977 H2018 0.930 . S
C1978 C1976 1.358 . S
C1978 N1979 1.279 . S
C1978 H2019 0.930 . S
N1979 C1977 1.314 . S
N1979 C1978 1.279 . S
C1980 C1982 1.353 . S
C1980 N1983 1.314 . S
C1980 H1986 0.930 . S
C1981 N1983 1.279 . S
C1981 C1984 1.358 . S
C1981 H1987 0.930 . S
C1982 C1980 1.353 . S
C1982 C1985 1.348 . S
C1982 H2020 0.929 . S
N1983 Li1938 1.990 . S
N1983 C1980 1.314 . S
N1983 C1981 1.279 . S
C1984 C1981 1.358 . S
C1984 C1985 1.356 . S
C1984 H2021 0.930 . S
C1985 C1982 1.348 . S
C1985 C1984 1.356 . S
H1986 C1980 0.930 . S
H1987 C1981 0.930 . S
C1988 N1989 1.314 . S
C1988 C1990 1.353 . S
C1988 H1994 0.930 . S
N1989 Li1939 1.990 . S
N1989 C1988 1.314 . S
N1989 C1992 1.279 . S
C1990 C1988 1.353 . S
C1990 C1993 1.348 . S
C1990 H2022 0.929 . S
C1991 C1992 1.358 . S
C1991 C1993 1.356 . S
C1991 H2023 0.930 . S
C1992 N1989 1.279 . S
C1992 C1991 1.358 . S
C1992 H1995 0.930 . S
C1993 C1990 1.348 . S
C1993 C1991 1.356 . S
H1994 C1988 0.930 . S
H1995 C1992 0.930 . S
O1996 Li1936 1.956 . S
O1996 Li1937 1.970 . S
O1996 Li1938 1.961 . S
O1996 C1940 1.325 . S
O1997 Li1936 1.970 . S
O1997 Li1937 1.956 . S
O1997 Li1939 1.961 . S
O1997 C1946 1.325 . S
O1998 Li1936 1.961 . S
O1998 Li1938 1.956 . S
O1998 Li1939 1.970 . S
O1998 C1968 1.325 . S
O1999 Li1937 1.961 . S
O1999 Li1938 1.970 . S
O1999 Li1939 1.956 . S
O1999 C1974 1.325 . S
H2000 C1942 0.929 . S
H2001 C1943 0.930 . S
H2002 C1944 0.930 . S
H2003 C1945 0.930 . S
H2004 C1947 0.930 . S
H2005 C1949 0.929 . S
H2006 C1950 0.930 . S
H2007 C1951 0.930 . S
H2008 C1954 0.930 . S
H2009 C1957 0.929 . S
H2010 C1962 0.929 . S
H2011 C1963 0.930 . S
H2012 C1970 0.929 . S
H2013 C1971 0.930 . S
H2014 C1972 0.930 . S
H2015 C1973 0.930 . S
H2016 C1975 0.929 . S
H2017 C1976 0.930 . S
H2018 C1977 0.930 . S
H2019 C1978 0.930 . S
H2020 C1982 0.929 . S
H2021 C1984 0.930 . S
H2022 C1990 0.929 . S
H2023 C1991 0.930 . S
Li2024 N2041 1.990 . S
Li2024 O2084 1.956 . S
Li2024 O2085 1.970 . S
Li2024 O2086 1.961 . S
Li2025 N2049 1.990 . S
Li2025 O2084 1.970 . S
Li2025 O2085 1.956 . S
Li2025 O2087 1.961 . S
Li2026 N2071 1.990 . S
Li2026 O2084 1.961 . S
Li2026 O2086 1.956 . S
Li2026 O2087 1.970 . S
Li2027 N2077 1.990 . S
Li2027 O2085 1.961 . S
Li2027 O2086 1.970 . S
Li2027 O2087 1.956 . S
C2028 C2030 1.348 . S
C2028 C2031 1.356 . S
C2028 O2084 1.325 . S
N2029 C2032 1.314 . S
N2029 C2033 1.279 . S
C2030 C2028 1.348 . S
C2030 C2032 1.353 . S
C2030 H2088 0.929 . S
C2031 C2028 1.356 . S
C2031 C2033 1.358 . S
C2031 H2089 0.930 . S
C2032 N2029 1.314 . S
C2032 C2030 1.353 . S
C2032 H2090 0.930 . S
C2033 N2029 1.279 . S
C2033 C2031 1.358 . S
C2033 H2091 0.930 . S
C2034 C2037 1.348 . S
C2034 C2038 1.356 . S
C2034 O2085 1.325 . S
C2035 N2036 1.279 . S
C2035 C2038 1.358 . S
C2035 H2092 0.930 . S
N2036 C2035 1.279 . S
N2036 C2039 1.314 . S
C2037 C2034 1.348 . S
C2037 C2039 1.353 . S
C2037 H2093 0.929 . S
C2038 C2034 1.356 . S
C2038 C2035 1.358 . S
C2038 H2094 0.930 . S
C2039 N2036 1.314 . S
C2039 C2037 1.353 . S
C2039 H2095 0.930 . S
C2040 N2041 1.314 . S
C2040 C2045 1.353 . S
C2040 H2046 0.930 . S
N2041 Li2024 1.990 . S
N2041 C2040 1.314 . S
N2041 C2043 1.279 . S
C2042 C2043 1.358 . S
C2042 C2044 1.356 . S
C2042 H2096 0.930 . S
C2043 N2041 1.279 . S
C2043 C2042 1.358 . S
C2043 H2047 0.930 . S
C2044 C2042 1.356 . S
C2044 C2045 1.348 . S
C2045 C2040 1.353 . S
C2045 C2044 1.348 . S
C2045 H2097 0.929 . S
H2046 C2040 0.930 . S
H2047 C2043 0.930 . S
C2048 N2049 1.314 . S
C2048 C2050 1.353 . S
C2048 H2054 0.930 . S
N2049 Li2025 1.990 . S
N2049 C2048 1.314 . S
N2049 C2052 1.279 . S
C2050 C2048 1.353 . S
C2050 C2053 1.348 . S
C2050 H2098 0.929 . S
C2051 C2052 1.358 . S
C2051 C2053 1.356 . S
C2051 H2099 0.930 . S
C2052 N2049 1.279 . S
C2052 C2051 1.358 . S
C2052 H2055 0.930 . S
C2053 C2050 1.348 . S
C2053 C2051 1.356 . S
H2054 C2048 0.930 . S
H2055 C2052 0.930 . S
C2056 C2058 1.348 . S
C2056 C2059 1.356 . S
C2056 O2086 1.325 . S
N2057 C2060 1.314 . S
N2057 C2061 1.279 . S
C2058 C2056 1.348 . S
C2058 C2060 1.353 . S
C2058 H2100 0.929 . S
C2059 C2056 1.356 . S
C2059 C2061 1.358 . S
C2059 H2101 0.930 . S
C2060 N2057 1.314 . S
C2060 C2058 1.353 . S
C2060 H2102 0.930 . S
C2061 N2057 1.279 . S
C2061 C2059 1.358 . S
C2061 H2103 0.930 . S
C2062 C2063 1.348 . S
C2062 C2064 1.356 . S
C2062 O2087 1.325 . S
C2063 C2062 1.348 . S
C2063 C2065 1.353 . S
C2063 H2104 0.929 . S
C2064 C2062 1.356 . S
C2064 C2066 1.358 . S
C2064 H2105 0.930 . S
C2065 C2063 1.353 . S
C2065 N2067 1.314 . S
C2065 H2106 0.930 . S
C2066 C2064 1.358 . S
C2066 N2067 1.279 . S
C2066 H2107 0.930 . S
N2067 C2065 1.314 . S
N2067 C2066 1.279 . S
C2068 C2070 1.353 . S
C2068 N2071 1.314 . S
C2068 H2074 0.930 . S
C2069 N2071 1.279 . S
C2069 C2072 1.358 . S
C2069 H2075 0.930 . S
C2070 C2068 1.353 . S
C2070 C2073 1.348 . S
C2070 H2108 0.929 . S
N2071 Li2026 1.990 . S
N2071 C2068 1.314 . S
N2071 C2069 1.279 . S
C2072 C2069 1.358 . S
C2072 C2073 1.356 . S
C2072 H2109 0.930 . S
C2073 C2070 1.348 . S
C2073 C2072 1.356 . S
H2074 C2068 0.930 . S
H2075 C2069 0.930 . S
C2076 N2077 1.314 . S
C2076 C2078 1.353 . S
C2076 H2082 0.930 . S
N2077 Li2027 1.990 . S
N2077 C2076 1.314 . S
N2077 C2080 1.279 . S
C2078 C2076 1.353 . S
C2078 C2081 1.348 . S
C2078 H2110 0.929 . S
C2079 C2080 1.358 . S
C2079 C2081 1.356 . S
C2079 H2111 0.930 . S
C2080 N2077 1.279 . S
C2080 C2079 1.358 . S
C2080 H2083 0.930 . S
C2081 C2078 1.348 . S
C2081 C2079 1.356 . S
H2082 C2076 0.930 . S
H2083 C2080 0.930 . S
O2084 Li2024 1.956 . S
O2084 Li2025 1.970 . S
O2084 Li2026 1.961 . S
O2084 C2028 1.325 . S
O2085 Li2024 1.970 . S
O2085 Li2025 1.956 . S
O2085 Li2027 1.961 . S
O2085 C2034 1.325 . S
O2086 Li2024 1.961 . S
O2086 Li2026 1.956 . S
O2086 Li2027 1.970 . S
O2086 C2056 1.325 . S
O2087 Li2025 1.961 . S
O2087 Li2026 1.970 . S
O2087 Li2027 1.956 . S
O2087 C2062 1.325 . S
H2088 C2030 0.929 . S
H2089 C2031 0.930 . S
H2090 C2032 0.930 . S
H2091 C2033 0.930 . S
H2092 C2035 0.930 . S
H2093 C2037 0.929 . S
H2094 C2038 0.930 . S
H2095 C2039 0.930 . S
H2096 C2042 0.930 . S
H2097 C2045 0.929 . S
H2098 C2050 0.929 . S
H2099 C2051 0.930 . S
H2100 C2058 0.929 . S
H2101 C2059 0.930 . S
H2102 C2060 0.930 . S
H2103 C2061 0.930 . S
H2104 C2063 0.929 . S
H2105 C2064 0.930 . S
H2106 C2065 0.930 . S
H2107 C2066 0.930 . S
H2108 C2070 0.929 . S
H2109 C2072 0.930 . S
H2110 C2078 0.929 . S
H2111 C2079 0.930 . S
Tb2112 N2143 2.660 1_545 S
Tb2112 N2150 2.600 1_544 S
Tb2112 O2156 2.546 1_454 S
Tb2112 O2157 2.610 . S
Tb2112 O2159 2.320 . S
Tb2112 O2160 2.552 . S
Tb2112 O2161 2.413 1_455 S
Tb2112 O2163 2.362 . S
Tb2112 O2164 2.421 1_554 S
Tb2112 C2176 2.833 1_454 S
C2113 C2116 1.432 . S
C2113 C2117 1.414 . S
C2113 N2120 1.359 . S
C2114 C2116 1.417 . S
C2114 C2118 1.432 . S
C2114 C2126 1.365 1_554 S
C2115 C2117 1.444 . S
C2115 C2118 1.317 . S
C2115 H2138 0.929 . S
C2116 C2113 1.432 . S
C2116 C2114 1.417 . S
C2116 N2124 1.360 . S
C2117 C2113 1.414 . S
C2117 C2115 1.444 . S
C2117 C2122 1.385 . S
C2118 C2114 1.432 . S
C2118 C2115 1.317 . S
C2118 H2130 0.930 . S
C2119 C2121 1.392 . S
C2119 C2122 1.370 . S
C2119 H2131 0.931 . S
N2120 C2113 1.359 . S
N2120 C2121 1.327 . S
N2120 Tb2123 2.600 . S
C2121 C2119 1.392 . S
C2121 N2120 1.327 . S
C2121 H2128 0.930 . S
C2122 C2117 1.385 . S
C2122 C2119 1.370 . S
C2122 H2141 0.930 . S
Tb2123 N2120 2.600 . S
Tb2123 N2124 2.660 . S
Tb2123 O2157 2.362 . S
Tb2123 O2158 2.421 . S
Tb2123 O2162 2.546 . S
Tb2123 O2163 2.610 . S
Tb2123 O2165 2.320 1_554 S
Tb2123 O2166 2.552 . S
Tb2123 O2167 2.413 . S
Tb2123 C2187 2.833 . S
N2124 C2116 1.360 . S
N2124 Tb2123 2.660 . S
N2124 C2125 1.305 1_554 S
C2125 N2124 1.305 1_556 S
C2125 C2127 1.407 . S
C2125 H2132 0.930 . S
C2126 C2114 1.365 1_556 S
C2126 C2127 1.365 . S
C2126 H2134 0.956 . S
C2127 C2125 1.407 . S
C2127 C2126 1.365 . S
C2127 H2129 0.930 . S
H2128 C2121 0.930 . S
H2129 C2127 0.930 . S
H2130 C2118 0.930 . S
H2131 C2119 0.931 . S
H2132 C2125 0.930 . S
H2133 C2147 0.930 . S
H2134 C2126 0.956 . S
H2135 C2153 0.930 . S
H2136 C2144 0.930 1_545 S
H2137 C2151 0.932 . S
H2138 C2115 0.929 . S
H2139 C2145 0.930 . S
H2140 C2178 0.930 1_554 S
H2141 C2122 0.930 . S
H2142 C2177 0.929 . S
N2143 Tb2112 2.660 1_565 S
N2143 C2144 1.305 . S
N2143 C2148 1.368 . S
C2144 H2136 0.930 1_565 S
C2144 N2143 1.305 . S
C2144 C2147 1.407 . S
C2145 H2139 0.930 . S
C2145 C2146 1.410 . S
C2145 C2147 1.345 1_655 S
C2146 C2145 1.410 . S
C2146 C2148 1.407 1_655 S
C2146 C2178 1.432 1_554 S
C2147 H2133 0.930 . S
C2147 C2144 1.407 . S
C2147 C2145 1.345 1_455 S
C2148 N2143 1.368 . S
C2148 C2146 1.407 1_455 S
C2148 C2152 1.433 1_554 S
H2149 C2154 0.930 . S
N2150 Tb2112 2.600 1_566 S
N2150 C2152 1.366 . S
N2150 C2153 1.327 . S
C2151 H2137 0.932 . S
C2151 C2153 1.386 1_655 S
C2151 C2154 1.377 . S
C2152 C2148 1.433 1_556 S
C2152 N2150 1.366 . S
C2152 C2155 1.409 1_455 S
C2153 H2135 0.930 . S
C2153 N2150 1.327 . S
C2153 C2151 1.386 1_455 S
C2154 H2149 0.930 . S
C2154 C2151 1.377 . S
C2154 C2155 1.385 . S
C2155 C2152 1.409 1_655 S
C2155 C2154 1.385 . S
C2155 C2177 1.444 . S
O2156 Tb2112 2.546 1_656 S
O2156 C2176 1.251 . S
O2157 Tb2112 2.610 . S
O2157 Tb2123 2.362 . S
O2157 C2168 1.283 . S
O2158 Tb2123 2.421 . S
O2158 C2175 1.262 . S
O2159 Tb2112 2.320 . S
O2159 C2175 1.260 . S
O2160 Tb2112 2.552 . S
O2160 C2168 1.243 . S
O2161 Tb2112 2.413 1_655 S
O2161 C2176 1.256 1_554 S
O2162 Tb2123 2.546 . S
O2162 C2187 1.251 . S
O2163 Tb2112 2.362 . S
O2163 Tb2123 2.610 . S
O2163 C2179 1.263 1_545 S
O2164 Tb2112 2.421 1_556 S
O2164 C2186 1.262 . S
O2165 Tb2123 2.320 1_556 S
O2165 C2186 1.260 . S
O2166 Tb2123 2.552 . S
O2166 C2179 1.241 1_545 S
O2167 Tb2123 2.413 . S
O2167 C2187 1.256 . S
C2168 O2157 1.283 . S
C2168 O2160 1.243 . S
C2169 C2171 1.382 1_556 S
C2169 C2173 1.393 . S
C2169 C2176 1.500 . S
C2170 C2171 1.392 1_556 S
C2170 C2172 1.424 . S
C2171 C2169 1.382 1_554 S
C2171 C2170 1.392 1_554 S
C2171 H2188 0.930 . S
C2172 C2170 1.424 . S
C2172 C2174 1.392 . S
C2172 H2189 0.931 . S
C2173 C2169 1.393 . S
C2173 C2174 1.401 . S
C2173 H2190 0.930 . S
C2174 C2172 1.392 . S
C2174 C2173 1.401 . S
C2174 H2191 0.930 . S
C2175 O2158 1.262 . S
C2175 O2159 1.260 . S
C2176 Tb2112 2.833 1_656 S
C2176 O2156 1.251 . S
C2176 O2161 1.256 1_556 S
C2176 C2169 1.500 . S
C2177 H2142 0.929 . S
C2177 C2155 1.444 . S
C2177 C2178 1.317 . S
C2178 H2140 0.930 1_556 S
C2178 C2146 1.432 1_556 S
C2178 C2177 1.317 . S
C2179 O2163 1.263 1_565 S
C2179 O2166 1.241 1_565 S
C2180 C2181 1.382 . S
C2180 C2184 1.393 . S
C2180 C2187 1.500 . S
C2181 C2180 1.382 . S
C2181 C2182 1.400 . S
C2181 H2192 0.930 . S
C2182 C2181 1.400 . S
C2182 C2183 1.384 . S
C2183 C2182 1.384 . S
C2183 C2185 1.392 . S
C2183 H2193 0.931 . S
C2184 C2180 1.393 . S
C2184 C2185 1.401 . S
C2184 H2194 0.930 . S
C2185 C2183 1.392 . S
C2185 C2184 1.401 . S
C2185 H2195 0.930 . S
C2186 O2164 1.262 . S
C2186 O2165 1.260 . S
C2187 Tb2123 2.833 . S
C2187 O2162 1.251 . S
C2187 O2167 1.256 . S
C2187 C2180 1.500 . S
H2188 C2171 0.930 . S
H2189 C2172 0.931 . S
H2190 C2173 0.930 . S
H2191 C2174 0.930 . S
H2192 C2181 0.930 . S
H2193 C2183 0.931 . S
H2194 C2184 0.930 . S
H2195 C2185 0.930 . S
Tb2196 N2227 2.660 . S
Tb2196 N2234 2.600 . S
Tb2196 O2240 2.546 . S
Tb2196 O2241 2.610 . S
Tb2196 O2243 2.320 . S
Tb2196 O2244 2.552 . S
Tb2196 O2245 2.413 . S
Tb2196 O2247 2.362 . S
Tb2196 O2248 2.421 . S
Tb2196 C2260 2.833 . S
C2197 C2200 1.432 . S
C2197 C2201 1.414 . S
C2197 N2204 1.359 . S
C2198 C2200 1.417 . S
C2198 C2202 1.432 . S
C2198 C2210 1.410 . S
C2199 C2201 1.444 . S
C2199 C2202 1.317 . S
C2199 H2222 0.929 . S
C2200 C2197 1.432 . S
C2200 C2198 1.417 . S
C2200 N2208 1.360 . S
C2201 C2197 1.414 . S
C2201 C2199 1.444 . S
C2201 C2206 1.385 . S
C2202 C2198 1.432 . S
C2202 C2199 1.317 . S
C2202 H2214 0.930 . S
C2203 C2205 1.392 . S
C2203 C2206 1.370 . S
C2203 H2215 0.931 . S
N2204 C2197 1.359 . S
N2204 C2205 1.327 . S
N2204 Tb2207 2.600 . S
C2205 C2203 1.392 . S
C2205 N2204 1.327 . S
C2205 H2212 0.930 . S
C2206 C2201 1.385 . S
C2206 C2203 1.370 . S
C2206 H2225 0.930 . S
Tb2207 N2204 2.600 . S
Tb2207 N2208 2.660 . S
Tb2207 O2241 2.362 . S
Tb2207 O2242 2.421 . S
Tb2207 O2246 2.546 . S
Tb2207 O2247 2.610 . S
Tb2207 O2249 2.320 . S
Tb2207 O2250 2.552 . S
Tb2207 O2251 2.413 . S
Tb2207 C2271 2.833 . S
N2208 C2200 1.360 . S
N2208 Tb2207 2.660 . S
N2208 C2209 1.305 . S
C2209 N2208 1.305 . S
C2209 C2211 1.407 . S
C2209 H2216 0.930 . S
C2210 C2198 1.410 . S
C2210 C2211 1.345 . S
C2210 H2218 0.930 . S
C2211 C2209 1.407 . S
C2211 C2210 1.345 . S
C2211 H2213 0.930 . S
H2212 C2205 0.930 . S
H2213 C2211 0.930 . S
H2214 C2202 0.930 . S
H2215 C2203 0.931 . S
H2216 C2209 0.930 . S
H2217 C2231 0.930 . S
H2218 C2210 0.930 . S
H2219 C2237 0.930 . S
H2220 C2228 0.930 . S
H2221 C2235 0.931 . S
H2222 C2199 0.929 . S
H2223 C2229 0.930 . S
H2224 C2262 0.930 . S
H2225 C2206 0.930 . S
H2226 C2261 0.929 . S
N2227 Tb2196 2.660 . S
N2227 C2228 1.305 . S
N2227 C2232 1.360 . S
C2228 H2220 0.930 . S
C2228 N2227 1.305 . S
C2228 C2231 1.407 . S
C2229 H2223 0.930 . S
C2229 C2230 1.410 . S
C2229 C2231 1.345 . S
C2230 C2229 1.410 . S
C2230 C2232 1.417 . S
C2230 C2262 1.432 . S
C2231 H2217 0.930 . S
C2231 C2228 1.407 . S
C2231 C2229 1.345 . S
C2232 N2227 1.360 . S
C2232 C2230 1.417 . S
C2232 C2236 1.432 . S
H2233 C2238 0.930 . S
N2234 Tb2196 2.600 . S
N2234 C2236 1.359 . S
N2234 C2237 1.327 . S
C2235 H2221 0.931 . S
C2235 C2237 1.392 . S
C2235 C2238 1.370 . S
C2236 C2232 1.432 . S
C2236 N2234 1.359 . S
C2236 C2239 1.414 . S
C2237 H2219 0.930 . S
C2237 N2234 1.327 . S
C2237 C2235 1.392 . S
C2238 H2233 0.930 . S
C2238 C2235 1.370 . S
C2238 C2239 1.385 . S
C2239 C2236 1.414 . S
C2239 C2238 1.385 . S
C2239 C2261 1.444 . S
O2240 Tb2196 2.546 . S
O2240 C2260 1.251 . S
O2241 Tb2196 2.610 . S
O2241 Tb2207 2.362 . S
O2241 C2252 1.283 . S
O2242 Tb2207 2.421 . S
O2242 C2259 1.262 . S
O2243 Tb2196 2.320 . S
O2243 C2259 1.260 . S
O2244 Tb2196 2.552 . S
O2244 C2252 1.243 . S
O2245 Tb2196 2.413 . S
O2245 C2260 1.256 . S
O2246 Tb2207 2.546 . S
O2246 C2271 1.251 . S
O2247 Tb2196 2.362 . S
O2247 Tb2207 2.610 . S
O2247 C2263 1.283 . S
O2248 Tb2196 2.421 . S
O2248 C2270 1.262 . S
O2249 Tb2207 2.320 . S
O2249 C2270 1.260 . S
O2250 Tb2207 2.552 . S
O2250 C2263 1.243 . S
O2251 Tb2207 2.413 . S
O2251 C2271 1.256 . S
C2252 O2241 1.283 . S
C2252 O2244 1.243 . S
C2253 C2255 1.382 . S
C2253 C2257 1.393 . S
C2253 C2260 1.500 . S
C2254 C2255 1.400 . S
C2254 C2256 1.384 . S
C2255 C2253 1.382 . S
C2255 C2254 1.400 . S
C2255 H2272 0.930 . S
C2256 C2254 1.384 . S
C2256 C2258 1.392 . S
C2256 H2273 0.931 . S
C2257 C2253 1.393 . S
C2257 C2258 1.401 . S
C2257 H2274 0.930 . S
C2258 C2256 1.392 . S
C2258 C2257 1.401 . S
C2258 H2275 0.930 . S
C2259 O2242 1.262 . S
C2259 O2243 1.260 . S
C2260 Tb2196 2.833 . S
C2260 O2240 1.251 . S
C2260 O2245 1.256 . S
C2260 C2253 1.500 . S
C2261 H2226 0.929 . S
C2261 C2239 1.444 . S
C2261 C2262 1.317 . S
C2262 H2224 0.930 . S
C2262 C2230 1.432 . S
C2262 C2261 1.317 . S
C2263 O2247 1.283 . S
C2263 O2250 1.243 . S
C2264 C2265 1.382 . S
C2264 C2268 1.393 . S
C2264 C2271 1.500 . S
C2265 C2264 1.382 . S
C2265 C2266 1.400 . S
C2265 H2276 0.930 . S
C2266 C2265 1.400 . S
C2266 C2267 1.384 . S
C2267 C2266 1.384 . S
C2267 C2269 1.392 . S
C2267 H2277 0.931 . S
C2268 C2264 1.393 . S
C2268 C2269 1.401 . S
C2268 H2278 0.930 . S
C2269 C2267 1.392 . S
C2269 C2268 1.401 . S
C2269 H2279 0.930 . S
C2270 O2248 1.262 . S
C2270 O2249 1.260 . S
C2271 Tb2207 2.833 . S
C2271 O2246 1.251 . S
C2271 O2251 1.256 . S
C2271 C2264 1.500 . S
H2272 C2255 0.930 . S
H2273 C2256 0.931 . S
H2274 C2257 0.930 . S
H2275 C2258 0.930 . S
H2276 C2265 0.930 . S
H2277 C2267 0.931 . S
H2278 C2268 0.930 . S
H2279 C2269 0.930 . S
Tb2280 N2311 2.660 . S
Tb2280 N2318 2.600 . S
Tb2280 O2324 2.546 . S
Tb2280 O2325 2.610 . S
Tb2280 O2327 2.320 . S
Tb2280 O2328 2.552 1_545 S
Tb2280 O2329 2.413 . S
Tb2280 O2331 2.362 . S
Tb2280 O2332 2.421 . S
Tb2280 C2344 2.833 . S
C2281 C2284 1.432 . S
C2281 C2285 1.414 . S
C2281 N2288 1.359 1_565 S
C2282 C2284 1.417 . S
C2282 C2286 1.432 . S
C2282 C2294 1.410 . S
C2283 C2285 1.444 . S
C2283 C2286 1.317 . S
C2283 H2306 0.929 . S
C2284 C2281 1.432 . S
C2284 C2282 1.417 . S
C2284 N2292 1.360 . S
C2285 C2281 1.414 . S
C2285 C2283 1.444 . S
C2285 C2290 1.385 . S
C2286 C2282 1.432 . S
C2286 C2283 1.317 . S
C2286 H2298 0.930 . S
C2287 C2289 1.392 . S
C2287 C2290 1.370 1_545 S
C2287 H2299 0.931 . S
N2288 C2281 1.359 1_545 S
N2288 C2289 1.327 . S
N2288 Tb2291 2.600 . S
C2289 C2287 1.392 . S
C2289 N2288 1.327 . S
C2289 H2296 0.930 . S
C2290 C2285 1.385 . S
C2290 C2287 1.370 1_565 S
C2290 H2309 0.930 . S
Tb2291 N2288 2.600 . S
Tb2291 N2292 2.660 1_545 S
Tb2291 O2325 2.362 . S
Tb2291 O2326 2.421 . S
Tb2291 O2330 2.546 . S
Tb2291 O2331 2.610 . S
Tb2291 O2333 2.320 . S
Tb2291 O2334 2.552 . S
Tb2291 O2335 2.413 . S
Tb2291 C2355 2.833 . S
N2292 C2284 1.360 . S
N2292 Tb2291 2.660 1_565 S
N2292 C2293 1.305 . S
C2293 N2292 1.305 . S
C2293 C2295 1.407 . S
C2293 H2300 0.930 . S
C2294 C2282 1.410 . S
C2294 C2295 1.345 . S
C2294 H2302 0.930 . S
C2295 C2293 1.407 . S
C2295 C2294 1.345 . S
C2295 H2297 0.930 . S
H2296 C2289 0.930 . S
H2297 C2295 0.930 . S
H2298 C2286 0.930 . S
H2299 C2287 0.931 . S
H2300 C2293 0.930 . S
H2301 C2315 0.930 . S
H2302 C2294 0.930 . S
H2303 C2321 0.930 . S
H2304 C2312 0.930 . S
H2305 C2319 0.931 . S
H2306 C2283 0.929 . S
H2307 C2313 0.930 . S
H2308 C2346 0.930 . S
H2309 C2290 0.930 . S
H2310 C2345 0.929 . S
N2311 Tb2280 2.660 . S
N2311 C2312 1.305 . S
N2311 C2316 1.360 . S
C2312 H2304 0.930 . S
C2312 N2311 1.305 . S
C2312 C2315 1.407 . S
C2313 H2307 0.930 . S
C2313 C2314 1.410 . S
C2313 C2315 1.345 . S
C2314 C2313 1.410 . S
C2314 C2316 1.417 . S
C2314 C2346 1.432 . S
C2315 H2301 0.930 . S
C2315 C2312 1.407 . S
C2315 C2313 1.345 . S
C2316 N2311 1.360 . S
C2316 C2314 1.417 . S
C2316 C2320 1.432 . S
H2317 C2322 0.930 . S
N2318 Tb2280 2.600 . S
N2318 C2320 1.359 . S
N2318 C2321 1.327 . S
C2319 H2305 0.931 . S
C2319 C2321 1.392 . S
C2319 C2322 1.370 . S
C2320 C2316 1.432 . S
C2320 N2318 1.359 . S
C2320 C2323 1.414 . S
C2321 H2303 0.930 . S
C2321 N2318 1.327 . S
C2321 C2319 1.392 . S
C2322 H2317 0.930 . S
C2322 C2319 1.370 . S
C2322 C2323 1.385 . S
C2323 C2320 1.414 . S
C2323 C2322 1.385 . S
C2323 C2345 1.444 . S
O2324 Tb2280 2.546 . S
O2324 C2344 1.251 . S
O2325 Tb2280 2.610 . S
O2325 Tb2291 2.362 . S
O2325 C2336 1.283 1_545 S
O2326 Tb2291 2.421 . S
O2326 C2343 1.262 . S
O2327 Tb2280 2.320 . S
O2327 C2343 1.260 . S
O2328 Tb2280 2.552 1_565 S
O2328 C2336 1.243 . S
O2329 Tb2280 2.413 . S
O2329 C2344 1.256 . S
O2330 Tb2291 2.546 . S
O2330 C2355 1.251 . S
O2331 Tb2280 2.362 . S
O2331 Tb2291 2.610 . S
O2331 C2347 1.283 . S
O2332 Tb2280 2.421 . S
O2332 C2354 1.262 . S
O2333 Tb2291 2.320 . S
O2333 C2354 1.260 . S
O2334 Tb2291 2.552 . S
O2334 C2347 1.243 . S
O2335 Tb2291 2.413 . S
O2335 C2355 1.256 . S
C2336 O2325 1.283 1_565 S
C2336 O2328 1.243 . S
C2337 C2339 1.382 1_545 S
C2337 C2341 1.393 . S
C2337 C2344 1.500 . S
C2338 C2339 1.400 . S
C2338 C2340 1.384 . S
C2339 C2337 1.382 1_565 S
C2339 C2338 1.400 . S
C2339 H2356 0.929 . S
C2340 C2338 1.384 . S
C2340 C2342 1.392 . S
C2340 H2357 0.931 . S
C2341 C2337 1.393 . S
C2341 C2342 1.401 1_545 S
C2341 H2358 0.930 . S
C2342 C2340 1.392 . S
C2342 C2341 1.401 1_565 S
C2342 H2359 0.930 . S
C2343 O2326 1.262 . S
C2343 O2327 1.260 . S
C2344 Tb2280 2.833 . S
C2344 O2324 1.251 . S
C2344 O2329 1.256 . S
C2344 C2337 1.500 . S
C2345 H2310 0.929 . S
C2345 C2323 1.444 . S
C2345 C2346 1.317 . S
C2346 H2308 0.930 . S
C2346 C2314 1.432 . S
C2346 C2345 1.317 . S
C2347 O2331 1.283 . S
C2347 O2334 1.243 . S
C2348 C2349 1.382 . S
C2348 C2352 1.393 . S
C2348 C2355 1.500 . S
C2349 C2348 1.382 . S
C2349 C2350 1.400 . S
C2349 H2360 0.930 . S
C2350 C2349 1.400 . S
C2350 C2351 1.384 . S
C2351 C2350 1.384 . S
C2351 C2353 1.392 . S
C2351 H2361 0.931 . S
C2352 C2348 1.393 . S
C2352 C2353 1.401 . S
C2352 H2362 0.930 . S
C2353 C2351 1.392 . S
C2353 C2352 1.401 . S
C2353 H2363 0.930 . S
C2354 O2332 1.262 . S
C2354 O2333 1.260 . S
C2355 Tb2291 2.833 . S
C2355 O2330 1.251 . S
C2355 O2335 1.256 . S
C2355 C2348 1.500 . S
H2356 C2339 0.929 . S
H2357 C2340 0.931 . S
H2358 C2341 0.930 . S
H2359 C2342 0.930 . S
H2360 C2349 0.930 . S
H2361 C2351 0.931 . S
H2362 C2352 0.930 . S
H2363 C2353 0.930 . S
Tb2364 N2395 2.660 . S
Tb2364 N2402 2.600 . S
Tb2364 O2408 2.546 . S
Tb2364 O2409 2.610 . S
Tb2364 O2411 2.320 . S
Tb2364 O2412 2.552 . S
Tb2364 O2413 2.413 . S
Tb2364 O2415 2.362 . S
Tb2364 O2416 2.421 . S
Tb2364 C2428 2.833 . S
C2365 C2368 1.432 . S
C2365 C2369 1.414 . S
C2365 N2372 1.359 . S
C2366 C2368 1.417 . S
C2366 C2370 1.432 . S
C2366 C2378 1.410 . S
C2367 C2369 1.444 . S
C2367 C2370 1.317 . S
C2367 H2390 0.929 . S
C2368 C2365 1.432 . S
C2368 C2366 1.417 . S
C2368 N2376 1.360 . S
C2369 C2365 1.414 . S
C2369 C2367 1.444 . S
C2369 C2374 1.385 . S
C2370 C2366 1.432 . S
C2370 C2367 1.317 . S
C2370 H2382 0.930 . S
C2371 C2373 1.392 . S
C2371 C2374 1.370 . S
C2371 H2383 0.931 . S
N2372 C2365 1.359 . S
N2372 C2373 1.327 . S
N2372 Tb2375 2.600 . S
C2373 C2371 1.392 . S
C2373 N2372 1.327 . S
C2373 H2380 0.930 . S
C2374 C2369 1.385 . S
C2374 C2371 1.370 . S
C2374 H2393 0.930 . S
Tb2375 N2372 2.600 . S
Tb2375 N2376 2.660 . S
Tb2375 O2409 2.362 . S
Tb2375 O2410 2.421 . S
Tb2375 O2414 2.546 . S
Tb2375 O2415 2.610 . S
Tb2375 O2417 2.320 . S
Tb2375 O2418 2.552 . S
Tb2375 O2419 2.413 . S
Tb2375 C2439 2.833 . S
N2376 C2368 1.360 . S
N2376 Tb2375 2.660 . S
N2376 C2377 1.305 . S
C2377 N2376 1.305 . S
C2377 C2379 1.407 . S
C2377 H2384 0.930 . S
C2378 C2366 1.410 . S
C2378 C2379 1.345 . S
C2378 H2386 0.930 . S
C2379 C2377 1.407 . S
C2379 C2378 1.345 . S
C2379 H2381 0.930 . S
H2380 C2373 0.930 . S
H2381 C2379 0.930 . S
H2382 C2370 0.930 . S
H2383 C2371 0.931 . S
H2384 C2377 0.930 . S
H2385 C2399 0.930 . S
H2386 C2378 0.930 . S
H2387 C2405 0.930 . S
H2388 C2396 0.930 . S
H2389 C2403 0.931 . S
H2390 C2367 0.929 . S
H2391 C2397 0.930 . S
H2392 C2430 0.930 . S
H2393 C2374 0.930 . S
H2394 C2429 0.929 . S
N2395 Tb2364 2.660 . S
N2395 C2396 1.305 . S
N2395 C2400 1.360 . S
C2396 H2388 0.930 . S
C2396 N2395 1.305 . S
C2396 C2399 1.407 . S
C2397 H2391 0.930 . S
C2397 C2398 1.410 . S
C2397 C2399 1.345 . S
C2398 C2397 1.410 . S
C2398 C2400 1.417 . S
C2398 C2430 1.432 . S
C2399 H2385 0.930 . S
C2399 C2396 1.407 . S
C2399 C2397 1.345 . S
C2400 N2395 1.360 . S
C2400 C2398 1.417 . S
C2400 C2404 1.432 . S
H2401 C2406 0.930 . S
N2402 Tb2364 2.600 . S
N2402 C2404 1.359 . S
N2402 C2405 1.327 . S
C2403 H2389 0.931 . S
C2403 C2405 1.392 . S
C2403 C2406 1.370 . S
C2404 C2400 1.432 . S
C2404 N2402 1.359 . S
C2404 C2407 1.414 . S
C2405 H2387 0.930 . S
C2405 N2402 1.327 . S
C2405 C2403 1.392 . S
C2406 H2401 0.930 . S
C2406 C2403 1.370 . S
C2406 C2407 1.385 . S
C2407 C2404 1.414 . S
C2407 C2406 1.385 . S
C2407 C2429 1.444 . S
O2408 Tb2364 2.546 . S
O2408 C2428 1.251 . S
O2409 Tb2364 2.610 . S
O2409 Tb2375 2.362 . S
O2409 C2420 1.283 . S
O2410 Tb2375 2.421 . S
O2410 C2427 1.262 . S
O2411 Tb2364 2.320 . S
O2411 C2427 1.260 . S
O2412 Tb2364 2.552 . S
O2412 C2420 1.243 . S
O2413 Tb2364 2.413 . S
O2413 C2428 1.256 . S
O2414 Tb2375 2.546 . S
O2414 C2439 1.251 . S
O2415 Tb2364 2.362 . S
O2415 Tb2375 2.610 . S
O2415 C2431 1.283 . S
O2416 Tb2364 2.421 . S
O2416 C2438 1.262 . S
O2417 Tb2375 2.320 . S
O2417 C2438 1.260 . S
O2418 Tb2375 2.552 . S
O2418 C2431 1.243 . S
O2419 Tb2375 2.413 . S
O2419 C2439 1.256 . S
C2420 O2409 1.283 . S
C2420 O2412 1.243 . S
C2421 C2423 1.382 . S
C2421 C2425 1.393 . S
C2421 C2428 1.500 . S
C2422 C2423 1.400 . S
C2422 C2424 1.384 . S
C2423 C2421 1.382 . S
C2423 C2422 1.400 . S
C2423 H2440 0.930 . S
C2424 C2422 1.384 . S
C2424 C2426 1.392 . S
C2424 H2441 0.931 . S
C2425 C2421 1.393 . S
C2425 C2426 1.401 . S
C2425 H2442 0.930 . S
C2426 C2424 1.392 . S
C2426 C2425 1.401 . S
C2426 H2443 0.930 . S
C2427 O2410 1.262 . S
C2427 O2411 1.260 . S
C2428 Tb2364 2.833 . S
C2428 O2408 1.251 . S
C2428 O2413 1.256 . S
C2428 C2421 1.500 . S
C2429 H2394 0.929 . S
C2429 C2407 1.444 . S
C2429 C2430 1.317 . S
C2430 H2392 0.930 . S
C2430 C2398 1.432 . S
C2430 C2429 1.317 . S
C2431 O2415 1.283 . S
C2431 O2418 1.243 . S
C2432 C2433 1.382 . S
C2432 C2436 1.393 . S
C2432 C2439 1.500 . S
C2433 C2432 1.382 . S
C2433 C2434 1.400 . S
C2433 H2444 0.930 . S
C2434 C2433 1.400 . S
C2434 C2435 1.384 . S
C2435 C2434 1.384 . S
C2435 C2437 1.392 . S
C2435 H2445 0.931 . S
C2436 C2432 1.393 . S
C2436 C2437 1.401 . S
C2436 H2446 0.930 . S
C2437 C2435 1.392 . S
C2437 C2436 1.401 . S
C2437 H2447 0.930 . S
C2438 O2416 1.262 . S
C2438 O2417 1.260 . S
C2439 Tb2375 2.833 . S
C2439 O2414 1.251 . S
C2439 O2419 1.256 . S
C2439 C2432 1.500 . S
H2440 C2423 0.930 . S
H2441 C2424 0.931 . S
H2442 C2425 0.930 . S
H2443 C2426 0.930 . S
H2444 C2433 0.930 . S
H2445 C2435 0.931 . S
H2446 C2436 0.930 . S
H2447 C2437 0.930 . S
Tb2448 N2479 2.660 . S
Tb2448 N2486 2.600 . S
Tb2448 O2492 2.546 . S
Tb2448 O2493 2.610 . S
Tb2448 O2495 2.320 . S
Tb2448 O2496 2.552 . S
Tb2448 O2497 2.413 . S
Tb2448 O2499 2.362 . S
Tb2448 O2500 2.421 . S
Tb2448 C2512 2.833 . S
C2449 C2452 1.432 . S
C2449 C2453 1.414 . S
C2449 N2456 1.359 . S
C2450 C2452 1.417 . S
C2450 C2454 1.432 . S
C2450 C2462 1.410 . S
C2451 C2453 1.444 . S
C2451 C2454 1.317 . S
C2451 H2474 0.929 . S
C2452 C2449 1.432 . S
C2452 C2450 1.417 . S
C2452 N2460 1.360 . S
C2453 C2449 1.414 . S
C2453 C2451 1.444 . S
C2453 C2458 1.385 . S
C2454 C2450 1.432 . S
C2454 C2451 1.317 . S
C2454 H2466 0.930 . S
C2455 C2457 1.392 . S
C2455 C2458 1.370 . S
C2455 H2467 0.931 . S
N2456 C2449 1.359 . S
N2456 C2457 1.327 . S
N2456 Tb2459 2.600 1_565 S
C2457 C2455 1.392 . S
C2457 N2456 1.327 . S
C2457 H2464 0.930 1_565 S
C2458 C2453 1.385 . S
C2458 C2455 1.370 . S
C2458 H2477 0.930 . S
Tb2459 N2456 2.600 1_545 S
Tb2459 N2460 2.660 1_545 S
Tb2459 O2493 2.362 . S
Tb2459 O2494 2.421 . S
Tb2459 O2498 2.546 1_545 S
Tb2459 O2499 2.610 . S
Tb2459 O2501 2.320 . S
Tb2459 O2502 2.552 . S
Tb2459 O2503 2.413 1_545 S
Tb2459 C2523 2.833 1_545 S
N2460 C2452 1.360 . S
N2460 Tb2459 2.660 1_565 S
N2460 C2461 1.305 . S
C2461 N2460 1.305 . S
C2461 C2463 1.407 . S
C2461 H2468 0.930 . S
C2462 C2450 1.410 . S
C2462 C2463 1.345 . S
C2462 H2470 0.930 . S
C2463 C2461 1.407 . S
C2463 C2462 1.345 . S
C2463 H2465 0.930 1_455 S
H2464 C2457 0.930 1_545 S
H2465 C2463 0.930 1_655 S
H2466 C2454 0.930 . S
H2467 C2455 0.931 . S
H2468 C2461 0.930 . S
H2469 C2483 0.930 . S
H2470 C2462 0.930 . S
H2471 C2489 0.930 . S
H2472 C2480 0.930 . S
H2473 C2487 0.880 1_655 S
H2474 C2451 0.929 . S
H2475 C2481 0.930 . S
H2476 C2514 0.930 . S
H2477 C2458 0.930 . S
H2478 C2513 0.929 . S
N2479 Tb2448 2.660 . S
N2479 C2480 1.305 . S
N2479 C2484 1.360 . S
C2480 H2472 0.930 . S
C2480 N2479 1.305 . S
C2480 C2483 1.407 . S
C2481 H2475 0.930 . S
C2481 C2482 1.410 . S
C2481 C2483 1.345 . S
C2482 C2481 1.410 . S
C2482 C2484 1.417 . S
C2482 C2514 1.432 . S
C2483 H2469 0.930 . S
C2483 C2480 1.407 . S
C2483 C2481 1.345 . S
C2484 N2479 1.360 . S
C2484 C2482 1.417 . S
C2484 C2488 1.432 . S
H2485 C2490 0.930 . S
N2486 Tb2448 2.600 . S
N2486 C2488 1.359 . S
N2486 C2489 1.327 . S
C2487 H2473 0.880 1_455 S
C2487 C2489 1.425 . S
C2487 C2490 1.390 . S
C2488 C2484 1.432 . S
C2488 N2486 1.359 . S
C2488 C2491 1.414 . S
C2489 H2471 0.930 . S
C2489 N2486 1.327 . S
C2489 C2487 1.425 . S
C2490 H2485 0.930 . S
C2490 C2487 1.390 . S
C2490 C2491 1.385 . S
C2491 C2488 1.414 . S
C2491 C2490 1.385 . S
C2491 C2513 1.444 . S
O2492 Tb2448 2.546 . S
O2492 C2512 1.251 . S
O2493 Tb2448 2.610 . S
O2493 Tb2459 2.362 . S
O2493 C2504 1.283 . S
O2494 Tb2459 2.421 . S
O2494 C2511 1.262 . S
O2495 Tb2448 2.320 . S
O2495 C2511 1.260 . S
O2496 Tb2448 2.552 . S
O2496 C2504 1.243 . S
O2497 Tb2448 2.413 . S
O2497 C2512 1.256 . S
O2498 Tb2459 2.546 1_565 S
O2498 C2523 1.251 . S
O2499 Tb2448 2.362 . S
O2499 Tb2459 2.610 . S
O2499 C2515 1.283 . S
O2500 Tb2448 2.421 . S
O2500 C2522 1.262 . S
O2501 Tb2459 2.320 . S
O2501 C2522 1.260 . S
O2502 Tb2459 2.552 . S
O2502 C2515 1.243 . S
O2503 Tb2459 2.413 1_565 S
O2503 C2523 1.256 . S
C2504 O2493 1.283 . S
C2504 O2496 1.243 . S
C2505 C2507 1.382 . S
C2505 C2509 1.393 . S
C2505 C2512 1.500 . S
C2506 C2507 1.400 . S
C2506 C2508 1.384 . S
C2507 C2505 1.382 . S
C2507 C2506 1.400 . S
C2507 H2524 0.930 . S
C2508 C2506 1.384 . S
C2508 C2510 1.392 . S
C2508 H2525 0.931 . S
C2509 C2505 1.393 . S
C2509 C2510 1.401 . S
C2509 H2526 0.930 . S
C2510 C2508 1.392 . S
C2510 C2509 1.401 . S
C2510 H2527 0.930 . S
C2511 O2494 1.262 . S
C2511 O2495 1.260 . S
C2512 Tb2448 2.833 . S
C2512 O2492 1.251 . S
C2512 O2497 1.256 . S
C2512 C2505 1.500 . S
C2513 H2478 0.929 . S
C2513 C2491 1.444 . S
C2513 C2514 1.317 . S
C2514 H2476 0.930 . S
C2514 C2482 1.432 . S
C2514 C2513 1.317 . S
C2515 O2499 1.283 . S
C2515 O2502 1.243 . S
C2516 C2517 1.382 . S
C2516 C2520 1.393 . S
C2516 C2523 1.500 . S
C2517 C2516 1.382 . S
C2517 C2518 1.400 . S
C2517 H2528 0.930 . S
C2518 C2517 1.400 . S
C2518 C2519 1.384 . S
C2519 C2518 1.384 . S
C2519 C2521 1.392 . S
C2519 H2529 0.931 . S
C2520 C2516 1.393 . S
C2520 C2521 1.401 . S
C2520 H2530 0.930 . S
C2521 C2519 1.392 . S
C2521 C2520 1.401 . S
C2521 H2531 0.930 . S
C2522 O2500 1.262 . S
C2522 O2501 1.260 . S
C2523 Tb2459 2.833 1_565 S
C2523 O2498 1.251 . S
C2523 O2503 1.256 . S
C2523 C2516 1.500 . S
H2524 C2507 0.930 . S
H2525 C2508 0.931 . S
H2526 C2509 0.930 . S
H2527 C2510 0.930 . S
H2528 C2517 0.930 . S
H2529 C2519 0.931 . S
H2530 C2520 0.930 . S
H2531 C2521 0.930 . S
Tb2532 N2563 2.660 . S
Tb2532 N2570 2.600 . S
Tb2532 O2576 2.546 . S
Tb2532 O2577 2.610 . S
Tb2532 O2579 2.320 . S
Tb2532 O2580 2.552 . S
Tb2532 O2581 2.413 . S
Tb2532 O2583 2.362 . S
Tb2532 O2584 2.421 . S
Tb2532 C2596 2.833 . S
C2533 C2536 1.432 . S
C2533 C2537 1.414 . S
C2533 N2540 1.359 . S
C2534 C2536 1.417 . S
C2534 C2538 1.432 . S
C2534 C2546 1.410 . S
C2535 C2537 1.444 . S
C2535 C2538 1.317 . S
C2535 H2558 0.929 . S
C2536 C2533 1.432 . S
C2536 C2534 1.417 . S
C2536 N2544 1.360 . S
C2537 C2533 1.414 . S
C2537 C2535 1.444 . S
C2537 C2542 1.385 . S
C2538 C2534 1.432 . S
C2538 C2535 1.317 . S
C2538 H2550 0.930 . S
C2539 C2541 1.392 . S
C2539 C2542 1.370 . S
C2539 H2551 0.931 . S
N2540 C2533 1.359 . S
N2540 C2541 1.327 . S
N2540 Tb2543 2.600 . S
C2541 C2539 1.392 . S
C2541 N2540 1.327 . S
C2541 H2548 0.930 . S
C2542 C2537 1.385 . S
C2542 C2539 1.370 . S
C2542 H2561 0.930 . S
Tb2543 N2540 2.600 . S
Tb2543 N2544 2.660 . S
Tb2543 O2577 2.362 . S
Tb2543 O2578 2.421 . S
Tb2543 O2582 2.546 . S
Tb2543 O2583 2.610 . S
Tb2543 O2585 2.320 . S
Tb2543 O2586 2.552 . S
Tb2543 O2587 2.413 . S
Tb2543 C2607 2.833 . S
N2544 C2536 1.360 . S
N2544 Tb2543 2.660 . S
N2544 C2545 1.305 . S
C2545 N2544 1.305 . S
C2545 C2547 1.407 . S
C2545 H2552 0.930 . S
C2546 C2534 1.410 . S
C2546 C2547 1.345 . S
C2546 H2554 0.930 . S
C2547 C2545 1.407 . S
C2547 C2546 1.345 . S
C2547 H2549 0.930 . S
H2548 C2541 0.930 . S
H2549 C2547 0.930 . S
H2550 C2538 0.930 . S
H2551 C2539 0.931 . S
H2552 C2545 0.930 . S
H2553 C2567 0.930 . S
H2554 C2546 0.930 . S
H2555 C2573 0.930 . S
H2556 C2564 0.930 . S
H2557 C2571 0.931 . S
H2558 C2535 0.929 . S
H2559 C2565 0.930 . S
H2560 C2598 0.930 . S
H2561 C2542 0.930 . S
H2562 C2597 0.929 . S
N2563 Tb2532 2.660 . S
N2563 C2564 1.305 . S
N2563 C2568 1.360 . S
C2564 H2556 0.930 . S
C2564 N2563 1.305 . S
C2564 C2567 1.407 . S
C2565 H2559 0.930 . S
C2565 C2566 1.410 . S
C2565 C2567 1.345 . S
C2566 C2565 1.410 . S
C2566 C2568 1.417 . S
C2566 C2598 1.432 . S
C2567 H2553 0.930 . S
C2567 C2564 1.407 . S
C2567 C2565 1.345 . S
C2568 N2563 1.360 . S
C2568 C2566 1.417 . S
C2568 C2572 1.432 . S
H2569 C2574 0.930 . S
N2570 Tb2532 2.600 . S
N2570 C2572 1.359 . S
N2570 C2573 1.327 . S
C2571 H2557 0.931 . S
C2571 C2573 1.392 . S
C2571 C2574 1.370 . S
C2572 C2568 1.432 . S
C2572 N2570 1.359 . S
C2572 C2575 1.414 . S
C2573 H2555 0.930 . S
C2573 N2570 1.327 . S
C2573 C2571 1.392 . S
C2574 H2569 0.930 . S
C2574 C2571 1.370 . S
C2574 C2575 1.385 . S
C2575 C2572 1.414 . S
C2575 C2574 1.385 . S
C2575 C2597 1.444 . S
O2576 Tb2532 2.546 . S
O2576 C2596 1.251 . S
O2577 Tb2532 2.610 . S
O2577 Tb2543 2.362 . S
O2577 C2588 1.283 . S
O2578 Tb2543 2.421 . S
O2578 C2595 1.262 . S
O2579 Tb2532 2.320 . S
O2579 C2595 1.260 . S
O2580 Tb2532 2.552 . S
O2580 C2588 1.243 . S
O2581 Tb2532 2.413 . S
O2581 C2596 1.256 . S
O2582 Tb2543 2.546 . S
O2582 C2607 1.251 . S
O2583 Tb2532 2.362 . S
O2583 Tb2543 2.610 . S
O2583 C2599 1.283 . S
O2584 Tb2532 2.421 . S
O2584 C2606 1.262 . S
O2585 Tb2543 2.320 . S
O2585 C2606 1.260 . S
O2586 Tb2543 2.552 . S
O2586 C2599 1.243 . S
O2587 Tb2543 2.413 . S
O2587 C2607 1.256 . S
C2588 O2577 1.283 . S
C2588 O2580 1.243 . S
C2589 C2591 1.382 . S
C2589 C2593 1.393 . S
C2589 C2596 1.500 . S
C2590 C2591 1.400 . S
C2590 C2592 1.384 . S
C2591 C2589 1.382 . S
C2591 C2590 1.400 . S
C2591 H2608 0.930 . S
C2592 C2590 1.384 . S
C2592 C2594 1.392 . S
C2592 H2609 0.931 . S
C2593 C2589 1.393 . S
C2593 C2594 1.401 . S
C2593 H2610 0.930 . S
C2594 C2592 1.392 . S
C2594 C2593 1.401 . S
C2594 H2611 0.930 . S
C2595 O2578 1.262 . S
C2595 O2579 1.260 . S
C2596 Tb2532 2.833 . S
C2596 O2576 1.251 . S
C2596 O2581 1.256 . S
C2596 C2589 1.500 . S
C2597 H2562 0.929 . S
C2597 C2575 1.444 . S
C2597 C2598 1.317 . S
C2598 H2560 0.930 . S
C2598 C2566 1.432 . S
C2598 C2597 1.317 . S
C2599 O2583 1.283 . S
C2599 O2586 1.243 . S
C2600 C2601 1.382 . S
C2600 C2604 1.393 . S
C2600 C2607 1.500 . S
C2601 C2600 1.382 . S
C2601 C2602 1.400 . S
C2601 H2612 0.930 . S
C2602 C2601 1.400 . S
C2602 C2603 1.384 . S
C2603 C2602 1.384 . S
C2603 C2605 1.392 . S
C2603 H2613 0.931 . S
C2604 C2600 1.393 . S
C2604 C2605 1.401 . S
C2604 H2614 0.930 . S
C2605 C2603 1.392 . S
C2605 C2604 1.401 . S
C2605 H2615 0.930 . S
C2606 O2584 1.262 . S
C2606 O2585 1.260 . S
C2607 Tb2543 2.833 . S
C2607 O2582 1.251 . S
C2607 O2587 1.256 . S
C2607 C2600 1.500 . S
H2608 C2591 0.930 . S
H2609 C2592 0.931 . S
H2610 C2593 0.930 . S
H2611 C2594 0.930 . S
H2612 C2601 0.930 . S
H2613 C2603 0.931 . S
H2614 C2604 0.930 . S
H2615 C2605 0.930 . S
Tb2616 N2647 2.660 . S
Tb2616 N2654 2.600 . S
Tb2616 O2660 2.546 1_545 S
Tb2616 O2661 2.610 . S
Tb2616 O2663 2.320 . S
Tb2616 O2664 2.552 . S
Tb2616 O2665 2.413 . S
Tb2616 O2667 2.362 . S
Tb2616 O2668 2.421 1_545 S
Tb2616 C2680 2.833 . S
C2617 C2620 1.432 . S
C2617 C2621 1.414 . S
C2617 N2624 1.359 . S
C2618 C2620 1.417 . S
C2618 C2622 1.432 . S
C2618 C2630 1.410 1_545 S
C2619 C2621 1.444 . S
C2619 C2622 1.317 . S
C2619 H2642 0.929 . S
C2620 C2617 1.432 . S
C2620 C2618 1.417 . S
C2620 N2628 1.360 . S
C2621 C2617 1.414 . S
C2621 C2619 1.444 . S
C2621 C2626 1.385 . S
C2622 C2618 1.432 . S
C2622 C2619 1.317 . S
C2622 H2634 0.930 . S
C2623 C2625 1.392 . S
C2623 C2626 1.370 . S
C2623 H2635 0.931 . S
N2624 C2617 1.359 . S
N2624 C2625 1.327 . S
N2624 Tb2627 2.600 . S
C2625 C2623 1.392 . S
C2625 N2624 1.327 . S
C2625 H2632 0.930 . S
C2626 C2621 1.385 . S
C2626 C2623 1.370 . S
C2626 H2645 0.930 . S
Tb2627 N2624 2.600 . S
Tb2627 N2628 2.660 . S
Tb2627 O2661 2.362 1_556 S
Tb2627 O2662 2.421 1_556 S
Tb2627 O2666 2.546 . S
Tb2627 O2667 2.610 1_556 S
Tb2627 O2669 2.320 . S
Tb2627 O2670 2.552 . S
Tb2627 O2671 2.413 . S
Tb2627 C2691 2.833 . S
N2628 C2620 1.360 . S
N2628 Tb2627 2.660 . S
N2628 C2629 1.305 1_545 S
C2629 N2628 1.305 1_565 S
C2629 C2631 1.407 . S
C2629 H2636 0.930 . S
C2630 C2618 1.410 1_565 S
C2630 C2631 1.345 . S
C2630 H2638 0.930 . S
C2631 C2629 1.407 . S
C2631 C2630 1.345 . S
C2631 H2633 0.930 . S
H2632 C2625 0.930 . S
H2633 C2631 0.930 . S
H2634 C2622 0.930 . S
H2635 C2623 0.931 . S
H2636 C2629 0.930 . S
H2637 C2651 0.930 . S
H2638 C2630 0.930 . S
H2639 C2657 0.930 . S
H2640 C2648 0.930 . S
H2641 C2655 0.931 . S
H2642 C2619 0.929 . S
H2643 C2649 0.930 . S
H2644 C2682 0.930 . S
H2645 C2626 0.930 . S
H2646 C2681 0.929 . S
N2647 Tb2616 2.660 . S
N2647 C2648 1.305 . S
N2647 C2652 1.360 . S
C2648 H2640 0.930 . S
C2648 N2647 1.305 . S
C2648 C2651 1.407 . S
C2649 H2643 0.930 . S
C2649 C2650 1.410 . S
C2649 C2651 1.345 . S
C2650 C2649 1.410 . S
C2650 C2652 1.417 . S
C2650 C2682 1.432 . S
C2651 H2637 0.930 . S
C2651 C2648 1.407 . S
C2651 C2649 1.345 . S
C2652 N2647 1.360 . S
C2652 C2650 1.417 . S
C2652 C2656 1.432 . S
H2653 C2658 0.930 . S
N2654 Tb2616 2.600 . S
N2654 C2656 1.359 . S
N2654 C2657 1.327 1_545 S
C2655 H2641 0.931 . S
C2655 C2657 1.392 . S
C2655 C2658 1.370 . S
C2656 C2652 1.432 . S
C2656 N2654 1.359 . S
C2656 C2659 1.414 . S
C2657 H2639 0.930 . S
C2657 N2654 1.327 1_565 S
C2657 C2655 1.392 . S
C2658 H2653 0.930 . S
C2658 C2655 1.370 . S
C2658 C2659 1.385 1_565 S
C2659 C2656 1.414 . S
C2659 C2658 1.385 1_545 S
C2659 C2681 1.444 . S
O2660 Tb2616 2.546 1_565 S
O2660 C2680 1.251 1_565 S
O2661 Tb2616 2.610 . S
O2661 Tb2627 2.362 1_554 S
O2661 C2672 1.283 . S
O2662 Tb2627 2.421 1_554 S
O2662 C2679 1.262 . S
O2663 Tb2616 2.320 . S
O2663 C2679 1.260 . S
O2664 Tb2616 2.552 . S
O2664 C2672 1.243 . S
O2665 Tb2616 2.413 . S
O2665 C2680 1.256 . S
O2666 Tb2627 2.546 . S
O2666 C2691 1.251 . S
O2667 Tb2616 2.362 . S
O2667 Tb2627 2.610 1_554 S
O2667 C2683 1.283 . S
O2668 Tb2616 2.421 1_565 S
O2668 C2690 1.262 1_554 S
O2669 Tb2627 2.320 . S
O2669 C2690 1.260 1_545 S
O2670 Tb2627 2.552 . S
O2670 C2683 1.243 1_556 S
O2671 Tb2627 2.413 . S
O2671 C2691 1.256 . S
C2672 O2661 1.283 . S
C2672 O2664 1.243 . S
C2673 C2675 1.382 . S
C2673 C2677 1.393 1_545 S
C2673 C2680 1.500 . S
C2674 C2675 1.400 . S
C2674 C2676 1.384 1_545 S
C2675 C2673 1.382 . S
C2675 C2674 1.400 . S
C2675 H2692 0.930 . S
C2676 C2674 1.384 1_565 S
C2676 C2678 1.392 . S
C2676 H2693 0.931 . S
C2677 C2673 1.393 1_565 S
C2677 C2678 1.401 . S
C2677 H2694 0.930 . S
C2678 C2676 1.392 . S
C2678 C2677 1.401 . S
C2678 H2695 0.930 . S
C2679 O2662 1.262 . S
C2679 O2663 1.260 . S
C2680 Tb2616 2.833 . S
C2680 O2660 1.251 1_545 S
C2680 O2665 1.256 . S
C2680 C2673 1.500 . S
C2681 H2646 0.929 . S
C2681 C2659 1.444 . S
C2681 C2682 1.317 . S
C2682 H2644 0.930 . S
C2682 C2650 1.432 . S
C2682 C2681 1.317 . S
C2683 O2667 1.283 . S
C2683 O2670 1.243 1_554 S
C2684 C2685 1.382 . S
C2684 C2688 1.393 . S
C2684 C2691 1.500 . S
C2685 C2684 1.382 . S
C2685 C2686 1.400 . S
C2685 H2696 0.930 . S
C2686 C2685 1.400 . S
C2686 C2687 1.384 . S
C2687 C2686 1.384 . S
C2687 C2689 1.392 . S
C2687 H2697 0.931 . S
C2688 C2684 1.393 . S
C2688 C2689 1.401 . S
C2688 H2698 0.930 . S
C2689 C2687 1.392 . S
C2689 C2688 1.401 . S
C2689 H2699 0.930 . S
C2690 O2668 1.262 1_556 S
C2690 O2669 1.260 1_565 S
C2691 Tb2627 2.833 . S
C2691 O2666 1.251 . S
C2691 O2671 1.256 . S
C2691 C2684 1.500 . S
H2692 C2675 0.930 . S
H2693 C2676 0.931 . S
H2694 C2677 0.930 . S
H2695 C2678 0.930 . S
H2696 C2685 0.930 . S
H2697 C2687 0.931 . S
H2698 C2688 0.930 . S
H2699 C2689 0.930 . S
Tb2700 N2731 2.660 . S
Tb2700 N2738 2.600 . S
Tb2700 O2744 2.546 . S
Tb2700 O2745 2.610 . S
Tb2700 O2747 2.320 . S
Tb2700 O2748 2.552 . S
Tb2700 O2749 2.413 . S
Tb2700 O2751 2.362 . S
Tb2700 O2752 2.421 . S
Tb2700 C2764 2.833 . S
C2701 C2704 1.432 . S
C2701 C2705 1.414 . S
C2701 N2708 1.359 . S
C2702 C2704 1.417 . S
C2702 C2706 1.432 . S
C2702 C2714 1.410 . S
C2703 C2705 1.444 . S
C2703 C2706 1.317 . S
C2703 H2726 0.929 . S
C2704 C2701 1.432 . S
C2704 C2702 1.417 . S
C2704 N2712 1.360 . S
C2705 C2701 1.414 . S
C2705 C2703 1.444 . S
C2705 C2710 1.385 . S
C2706 C2702 1.432 . S
C2706 C2703 1.317 . S
C2706 H2718 0.930 . S
C2707 C2709 1.392 . S
C2707 C2710 1.370 . S
C2707 H2719 0.931 . S
N2708 C2701 1.359 . S
N2708 C2709 1.327 . S
N2708 Tb2711 2.600 . S
C2709 C2707 1.392 . S
C2709 N2708 1.327 . S
C2709 H2716 0.930 . S
C2710 C2705 1.385 . S
C2710 C2707 1.370 . S
C2710 H2729 0.930 . S
Tb2711 N2708 2.600 . S
Tb2711 N2712 2.660 . S
Tb2711 O2745 2.362 . S
Tb2711 O2746 2.421 . S
Tb2711 O2750 2.546 . S
Tb2711 O2751 2.610 . S
Tb2711 O2753 2.320 . S
Tb2711 O2754 2.552 . S
Tb2711 O2755 2.413 . S
Tb2711 C2775 2.833 . S
N2712 C2704 1.360 . S
N2712 Tb2711 2.660 . S
N2712 C2713 1.305 . S
C2713 N2712 1.305 . S
C2713 C2715 1.407 . S
C2713 H2720 0.930 . S
C2714 C2702 1.410 . S
C2714 C2715 1.345 . S
C2714 H2722 0.930 . S
C2715 C2713 1.407 . S
C2715 C2714 1.345 . S
C2715 H2717 0.930 . S
H2716 C2709 0.930 . S
H2717 C2715 0.930 . S
H2718 C2706 0.930 . S
H2719 C2707 0.931 . S
H2720 C2713 0.930 . S
H2721 C2735 0.930 . S
H2722 C2714 0.930 . S
H2723 C2741 0.930 . S
H2724 C2732 0.930 . S
H2725 C2739 0.931 . S
H2726 C2703 0.929 . S
H2727 C2733 0.930 . S
H2728 C2766 0.930 . S
H2729 C2710 0.930 . S
H2730 C2765 0.929 . S
N2731 Tb2700 2.660 . S
N2731 C2732 1.305 . S
N2731 C2736 1.360 . S
C2732 H2724 0.930 . S
C2732 N2731 1.305 . S
C2732 C2735 1.407 . S
C2733 H2727 0.930 . S
C2733 C2734 1.410 . S
C2733 C2735 1.345 . S
C2734 C2733 1.410 . S
C2734 C2736 1.417 . S
C2734 C2766 1.432 . S
C2735 H2721 0.930 . S
C2735 C2732 1.407 . S
C2735 C2733 1.345 . S
C2736 N2731 1.360 . S
C2736 C2734 1.417 . S
C2736 C2740 1.432 . S
H2737 C2742 0.930 . S
N2738 Tb2700 2.600 . S
N2738 C2740 1.359 . S
N2738 C2741 1.327 . S
C2739 H2725 0.931 . S
C2739 C2741 1.392 . S
C2739 C2742 1.370 . S
C2740 C2736 1.432 . S
C2740 N2738 1.359 . S
C2740 C2743 1.414 . S
C2741 H2723 0.930 . S
C2741 N2738 1.327 . S
C2741 C2739 1.392 . S
C2742 H2737 0.930 . S
C2742 C2739 1.370 . S
C2742 C2743 1.385 . S
C2743 C2740 1.414 . S
C2743 C2742 1.385 . S
C2743 C2765 1.444 . S
O2744 Tb2700 2.546 . S
O2744 C2764 1.251 . S
O2745 Tb2700 2.610 . S
O2745 Tb2711 2.362 . S
O2745 C2756 1.283 . S
O2746 Tb2711 2.421 . S
O2746 C2763 1.262 . S
O2747 Tb2700 2.320 . S
O2747 C2763 1.260 . S
O2748 Tb2700 2.552 . S
O2748 C2756 1.243 . S
O2749 Tb2700 2.413 . S
O2749 C2764 1.256 . S
O2750 Tb2711 2.546 . S
O2750 C2775 1.251 . S
O2751 Tb2700 2.362 . S
O2751 Tb2711 2.610 . S
O2751 C2767 1.283 . S
O2752 Tb2700 2.421 . S
O2752 C2774 1.262 . S
O2753 Tb2711 2.320 . S
O2753 C2774 1.260 . S
O2754 Tb2711 2.552 . S
O2754 C2767 1.243 . S
O2755 Tb2711 2.413 . S
O2755 C2775 1.256 . S
C2756 O2745 1.283 . S
C2756 O2748 1.243 . S
C2757 C2759 1.382 . S
C2757 C2761 1.393 . S
C2757 C2764 1.500 . S
C2758 C2759 1.400 . S
C2758 C2760 1.384 . S
C2759 C2757 1.382 . S
C2759 C2758 1.400 . S
C2759 H2776 0.930 . S
C2760 C2758 1.384 . S
C2760 C2762 1.392 . S
C2760 H2777 0.931 . S
C2761 C2757 1.393 . S
C2761 C2762 1.401 . S
C2761 H2778 0.930 . S
C2762 C2760 1.392 . S
C2762 C2761 1.401 . S
C2762 H2779 0.930 . S
C2763 O2746 1.262 . S
C2763 O2747 1.260 . S
C2764 Tb2700 2.833 . S
C2764 O2744 1.251 . S
C2764 O2749 1.256 . S
C2764 C2757 1.500 . S
C2765 H2730 0.929 . S
C2765 C2743 1.444 . S
C2765 C2766 1.317 . S
C2766 H2728 0.930 . S
C2766 C2734 1.432 . S
C2766 C2765 1.317 . S
C2767 O2751 1.283 . S
C2767 O2754 1.243 . S
C2768 C2769 1.382 . S
C2768 C2772 1.393 . S
C2768 C2775 1.500 . S
C2769 C2768 1.382 . S
C2769 C2770 1.400 . S
C2769 H2780 0.930 . S
C2770 C2769 1.400 . S
C2770 C2771 1.384 . S
C2771 C2770 1.384 . S
C2771 C2773 1.392 . S
C2771 H2781 0.931 . S
C2772 C2768 1.393 . S
C2772 C2773 1.401 . S
C2772 H2782 0.930 . S
C2773 C2771 1.392 . S
C2773 C2772 1.401 . S
C2773 H2783 0.930 . S
C2774 O2752 1.262 . S
C2774 O2753 1.260 . S
C2775 Tb2711 2.833 . S
C2775 O2750 1.251 . S
C2775 O2755 1.256 . S
C2775 C2768 1.500 . S
H2776 C2759 0.930 . S
H2777 C2760 0.931 . S
H2778 C2761 0.930 . S
H2779 C2762 0.930 . S
H2780 C2769 0.930 . S
H2781 C2771 0.931 . S
H2782 C2772 0.930 . S
H2783 C2773 0.930 . S
Tb2784 N2815 2.660 . S
Tb2784 N2822 2.600 . S
Tb2784 O2828 2.546 . S
Tb2784 O2829 2.610 1_554 S
Tb2784 O2831 2.320 . S
Tb2784 O2832 2.552 1_554 S
Tb2784 O2833 2.413 . S
Tb2784 O2835 2.362 . S
Tb2784 O2836 2.421 . S
Tb2784 C2848 2.833 . S
C2785 C2788 1.432 . S
C2785 C2789 1.414 . S
C2785 N2792 1.359 . S
C2786 C2788 1.417 . S
C2786 C2790 1.432 . S
C2786 C2798 1.410 . S
C2787 C2789 1.444 . S
C2787 C2790 1.317 . S
C2787 H2810 0.929 . S
C2788 C2785 1.432 . S
C2788 C2786 1.417 . S
C2788 N2796 1.360 . S
C2789 C2785 1.414 . S
C2789 C2787 1.444 . S
C2789 C2794 1.385 . S
C2790 C2786 1.432 . S
C2790 C2787 1.317 . S
C2790 H2802 0.930 . S
C2791 C2793 1.392 . S
C2791 C2794 1.370 . S
C2791 H2803 0.931 . S
N2792 C2785 1.359 . S
N2792 C2793 1.327 . S
N2792 Tb2795 2.600 1_556 S
C2793 C2791 1.392 . S
C2793 N2792 1.327 . S
C2793 H2800 0.930 . S
C2794 C2789 1.385 . S
C2794 C2791 1.370 . S
C2794 H2813 0.930 . S
Tb2795 N2792 2.600 1_554 S
Tb2795 N2796 2.660 1_554 S
Tb2795 O2829 2.362 1_554 S
Tb2795 O2830 2.421 . S
Tb2795 O2834 2.546 . S
Tb2795 O2835 2.610 . S
Tb2795 O2837 2.320 . S
Tb2795 O2838 2.552 . S
Tb2795 O2839 2.413 . S
Tb2795 C2859 2.833 . S
N2796 C2788 1.360 . S
N2796 Tb2795 2.660 1_556 S
N2796 C2797 1.305 . S
C2797 N2796 1.305 . S
C2797 C2799 1.407 . S
C2797 H2804 0.930 . S
C2798 C2786 1.410 . S
C2798 C2799 1.345 . S
C2798 H2806 0.930 . S
C2799 C2797 1.407 . S
C2799 C2798 1.345 . S
C2799 H2801 0.930 . S
H2800 C2793 0.930 . S
H2801 C2799 0.930 . S
H2802 C2790 0.930 . S
H2803 C2791 0.931 . S
H2804 C2797 0.930 . S
H2805 C2819 0.930 . S
H2806 C2798 0.930 . S
H2807 C2825 0.930 . S
H2808 C2816 0.930 . S
H2809 C2823 0.931 . S
H2810 C2787 0.929 . S
H2811 C2817 0.930 . S
H2812 C2850 0.930 . S
H2813 C2794 0.930 . S
H2814 C2849 0.929 . S
N2815 Tb2784 2.660 . S
N2815 C2816 1.305 . S
N2815 C2820 1.360 . S
C2816 H2808 0.930 . S
C2816 N2815 1.305 . S
C2816 C2819 1.407 . S
C2817 H2811 0.930 . S
C2817 C2818 1.410 . S
C2817 C2819 1.345 . S
C2818 C2817 1.410 . S
C2818 C2820 1.417 . S
C2818 C2850 1.432 . S
C2819 H2805 0.930 . S
C2819 C2816 1.407 . S
C2819 C2817 1.345 . S
C2820 N2815 1.360 . S
C2820 C2818 1.417 . S
C2820 C2824 1.432 . S
H2821 C2826 0.930 . S
N2822 Tb2784 2.600 . S
N2822 C2824 1.359 . S
N2822 C2825 1.327 . S
C2823 H2809 0.931 . S
C2823 C2825 1.392 . S
C2823 C2826 1.370 . S
C2824 C2820 1.432 . S
C2824 N2822 1.359 . S
C2824 C2827 1.414 . S
C2825 H2807 0.930 . S
C2825 N2822 1.327 . S
C2825 C2823 1.392 . S
C2826 H2821 0.930 . S
C2826 C2823 1.370 . S
C2826 C2827 1.385 . S
C2827 C2824 1.414 . S
C2827 C2826 1.385 . S
C2827 C2849 1.444 . S
O2828 Tb2784 2.546 . S
O2828 C2848 1.251 . S
O2829 Tb2784 2.610 1_556 S
O2829 Tb2795 2.362 1_556 S
O2829 C2840 1.283 . S
O2830 Tb2795 2.421 . S
O2830 C2847 1.262 . S
O2831 Tb2784 2.320 . S
O2831 C2847 1.260 . S
O2832 Tb2784 2.552 1_556 S
O2832 C2840 1.243 . S
O2833 Tb2784 2.413 . S
O2833 C2848 1.256 . S
O2834 Tb2795 2.546 . S
O2834 C2859 1.251 . S
O2835 Tb2784 2.362 . S
O2835 Tb2795 2.610 . S
O2835 C2851 1.283 . S
O2836 Tb2784 2.421 . S
O2836 C2858 1.262 . S
O2837 Tb2795 2.320 . S
O2837 C2858 1.260 . S
O2838 Tb2795 2.552 . S
O2838 C2851 1.243 . S
O2839 Tb2795 2.413 . S
O2839 C2859 1.256 . S
C2840 O2829 1.283 . S
C2840 O2832 1.243 . S
C2841 C2843 1.382 . S
C2841 C2845 1.393 . S
C2841 C2848 1.500 . S
C2842 C2843 1.400 1_556 S
C2842 C2844 1.384 1_556 S
C2843 C2841 1.382 . S
C2843 C2842 1.400 1_554 S
C2843 H2860 0.930 1_554 S
C2844 C2842 1.384 1_554 S
C2844 C2846 1.392 . S
C2844 H2861 0.944 . S
C2845 C2841 1.393 . S
C2845 C2846 1.401 . S
C2845 H2862 0.930 . S
C2846 C2844 1.392 . S
C2846 C2845 1.401 . S
C2846 H2863 0.930 . S
C2847 O2830 1.262 . S
C2847 O2831 1.260 . S
C2848 Tb2784 2.833 . S
C2848 O2828 1.251 . S
C2848 O2833 1.256 . S
C2848 C2841 1.500 . S
C2849 H2814 0.929 . S
C2849 C2827 1.444 . S
C2849 C2850 1.317 . S
C2850 H2812 0.930 . S
C2850 C2818 1.432 . S
C2850 C2849 1.317 . S
C2851 O2835 1.283 . S
C2851 O2838 1.243 . S
C2852 C2853 1.382 . S
C2852 C2856 1.393 . S
C2852 C2859 1.500 . S
C2853 C2852 1.382 . S
C2853 C2854 1.400 . S
C2853 H2864 0.930 . S
C2854 C2853 1.400 . S
C2854 C2855 1.384 . S
C2855 C2854 1.384 . S
C2855 C2857 1.392 . S
C2855 H2865 0.931 . S
C2856 C2852 1.393 . S
C2856 C2857 1.401 . S
C2856 H2866 0.930 . S
C2857 C2855 1.392 . S
C2857 C2856 1.401 . S
C2857 H2867 0.930 . S
C2858 O2836 1.262 . S
C2858 O2837 1.260 . S
C2859 Tb2795 2.833 . S
C2859 O2834 1.251 . S
C2859 O2839 1.256 . S
C2859 C2852 1.500 . S
H2860 C2843 0.930 1_556 S
H2861 C2844 0.944 . S
H2862 C2845 0.930 . S
H2863 C2846 0.930 . S
H2864 C2853 0.930 . S
H2865 C2855 0.931 . S
H2866 C2856 0.930 . S
H2867 C2857 0.930 . S
Tb2868 N2899 2.660 . S
Tb2868 N2906 2.600 . S
Tb2868 O2912 2.546 . S
Tb2868 O2913 2.610 . S
Tb2868 O2915 2.320 . S
Tb2868 O2916 2.552 . S
Tb2868 O2917 2.413 . S
Tb2868 O2919 2.362 . S
Tb2868 O2920 2.421 . S
Tb2868 C2932 2.833 . S
C2869 C2872 1.432 . S
C2869 C2873 1.414 . S
C2869 N2876 1.359 . S
C2870 C2872 1.417 . S
C2870 C2874 1.432 . S
C2870 C2882 1.410 . S
C2871 C2873 1.444 . S
C2871 C2874 1.317 . S
C2871 H2894 0.929 . S
C2872 C2869 1.432 . S
C2872 C2870 1.417 . S
C2872 N2880 1.360 . S
C2873 C2869 1.414 . S
C2873 C2871 1.444 . S
C2873 C2878 1.385 . S
C2874 C2870 1.432 . S
C2874 C2871 1.317 . S
C2874 H2886 0.930 . S
C2875 C2877 1.392 . S
C2875 C2878 1.370 . S
C2875 H2887 0.931 . S
N2876 C2869 1.359 . S
N2876 C2877 1.327 . S
N2876 Tb2879 2.600 . S
C2877 C2875 1.392 . S
C2877 N2876 1.327 . S
C2877 H2884 0.930 . S
C2878 C2873 1.385 . S
C2878 C2875 1.370 . S
C2878 H2897 0.930 . S
Tb2879 N2876 2.600 . S
Tb2879 N2880 2.660 . S
Tb2879 O2913 2.362 . S
Tb2879 O2914 2.421 . S
Tb2879 O2918 2.546 . S
Tb2879 O2919 2.610 . S
Tb2879 O2921 2.320 . S
Tb2879 O2922 2.552 . S
Tb2879 O2923 2.413 . S
Tb2879 C2943 2.833 . S
N2880 C2872 1.360 . S
N2880 Tb2879 2.660 . S
N2880 C2881 1.305 . S
C2881 N2880 1.305 . S
C2881 C2883 1.407 . S
C2881 H2888 0.930 . S
C2882 C2870 1.410 . S
C2882 C2883 1.345 . S
C2882 H2890 0.930 . S
C2883 C2881 1.407 . S
C2883 C2882 1.345 . S
C2883 H2885 0.930 . S
H2884 C2877 0.930 . S
H2885 C2883 0.930 . S
H2886 C2874 0.930 . S
H2887 C2875 0.931 . S
H2888 C2881 0.930 . S
H2889 C2903 0.930 . S
H2890 C2882 0.930 . S
H2891 C2909 0.930 . S
H2892 C2900 0.930 . S
H2893 C2907 0.931 . S
H2894 C2871 0.929 . S
H2895 C2901 0.930 . S
H2896 C2934 0.930 . S
H2897 C2878 0.930 . S
H2898 C2933 0.929 . S
N2899 Tb2868 2.660 . S
N2899 C2900 1.305 . S
N2899 C2904 1.360 . S
C2900 H2892 0.930 . S
C2900 N2899 1.305 . S
C2900 C2903 1.407 . S
C2901 H2895 0.930 . S
C2901 C2902 1.410 . S
C2901 C2903 1.345 . S
C2902 C2901 1.410 . S
C2902 C2904 1.417 . S
C2902 C2934 1.432 . S
C2903 H2889 0.930 . S
C2903 C2900 1.407 . S
C2903 C2901 1.345 . S
C2904 N2899 1.360 . S
C2904 C2902 1.417 . S
C2904 C2908 1.432 . S
H2905 C2910 0.930 . S
N2906 Tb2868 2.600 . S
N2906 C2908 1.359 . S
N2906 C2909 1.327 . S
C2907 H2893 0.931 . S
C2907 C2909 1.392 . S
C2907 C2910 1.370 . S
C2908 C2904 1.432 . S
C2908 N2906 1.359 . S
C2908 C2911 1.414 . S
C2909 H2891 0.930 . S
C2909 N2906 1.327 . S
C2909 C2907 1.392 . S
C2910 H2905 0.930 . S
C2910 C2907 1.370 . S
C2910 C2911 1.385 . S
C2911 C2908 1.414 . S
C2911 C2910 1.385 . S
C2911 C2933 1.444 . S
O2912 Tb2868 2.546 . S
O2912 C2932 1.251 . S
O2913 Tb2868 2.610 . S
O2913 Tb2879 2.362 . S
O2913 C2924 1.283 . S
O2914 Tb2879 2.421 . S
O2914 C2931 1.262 . S
O2915 Tb2868 2.320 . S
O2915 C2931 1.260 . S
O2916 Tb2868 2.552 . S
O2916 C2924 1.243 . S
O2917 Tb2868 2.413 . S
O2917 C2932 1.256 . S
O2918 Tb2879 2.546 . S
O2918 C2943 1.251 . S
O2919 Tb2868 2.362 . S
O2919 Tb2879 2.610 . S
O2919 C2935 1.283 . S
O2920 Tb2868 2.421 . S
O2920 C2942 1.262 . S
O2921 Tb2879 2.320 . S
O2921 C2942 1.260 . S
O2922 Tb2879 2.552 . S
O2922 C2935 1.243 . S
O2923 Tb2879 2.413 . S
O2923 C2943 1.256 . S
C2924 O2913 1.283 . S
C2924 O2916 1.243 . S
C2925 C2927 1.382 . S
C2925 C2929 1.393 . S
C2925 C2932 1.500 . S
C2926 C2927 1.400 . S
C2926 C2928 1.384 . S
C2927 C2925 1.382 . S
C2927 C2926 1.400 . S
C2927 H2944 0.930 . S
C2928 C2926 1.384 . S
C2928 C2930 1.392 . S
C2928 H2945 0.931 . S
C2929 C2925 1.393 . S
C2929 C2930 1.401 . S
C2929 H2946 0.930 . S
C2930 C2928 1.392 . S
C2930 C2929 1.401 . S
C2930 H2947 0.930 . S
C2931 O2914 1.262 . S
C2931 O2915 1.260 . S
C2932 Tb2868 2.833 . S
C2932 O2912 1.251 . S
C2932 O2917 1.256 . S
C2932 C2925 1.500 . S
C2933 H2898 0.929 . S
C2933 C2911 1.444 . S
C2933 C2934 1.317 . S
C2934 H2896 0.930 . S
C2934 C2902 1.432 . S
C2934 C2933 1.317 . S
C2935 O2919 1.283 . S
C2935 O2922 1.243 . S
C2936 C2937 1.382 . S
C2936 C2940 1.393 . S
C2936 C2943 1.500 . S
C2937 C2936 1.382 . S
C2937 C2938 1.400 . S
C2937 H2948 0.930 . S
C2938 C2937 1.400 . S
C2938 C2939 1.384 . S
C2939 C2938 1.384 . S
C2939 C2941 1.392 . S
C2939 H2949 0.931 . S
C2940 C2936 1.393 . S
C2940 C2941 1.401 . S
C2940 H2950 0.930 . S
C2941 C2939 1.392 . S
C2941 C2940 1.401 . S
C2941 H2951 0.930 . S
C2942 O2920 1.262 . S
C2942 O2921 1.260 . S
C2943 Tb2879 2.833 . S
C2943 O2918 1.251 . S
C2943 O2923 1.256 . S
C2943 C2936 1.500 . S
H2944 C2927 0.930 . S
H2945 C2928 0.931 . S
H2946 C2929 0.930 . S
H2947 C2930 0.930 . S
H2948 C2937 0.930 . S
H2949 C2939 0.931 . S
H2950 C2940 0.930 . S
H2951 C2941 0.930 . S
Tb2952 N2983 2.660 . S
Tb2952 N2990 2.600 . S
Tb2952 O2996 2.546 . S
Tb2952 O2997 2.610 . S
Tb2952 O2999 2.320 . S
Tb2952 O3000 2.552 . S
Tb2952 O3001 2.413 . S
Tb2952 O3003 2.362 . S
Tb2952 O3004 2.421 . S
Tb2952 C3016 2.833 . S
C2953 C2956 1.432 . S
C2953 C2957 1.414 1_455 S
C2953 N2960 1.359 . S
C2954 C2956 1.417 1_655 S
C2954 C2958 1.432 . S
C2954 C2966 1.410 . S
C2955 C2957 1.444 . S
C2955 C2958 1.317 . S
C2955 H2978 0.929 . S
C2956 C2953 1.432 . S
C2956 C2954 1.417 1_455 S
C2956 N2964 1.360 . S
C2957 C2953 1.414 1_655 S
C2957 C2955 1.444 . S
C2957 C2962 1.385 . S
C2958 C2954 1.432 . S
C2958 C2955 1.317 . S
C2958 H2970 0.930 . S
C2959 C2961 1.392 . S
C2959 C2962 1.370 1_455 S
C2959 H2971 0.931 . S
N2960 C2953 1.359 . S
N2960 C2961 1.327 . S
N2960 Tb2963 2.600 . S
C2961 C2959 1.392 . S
C2961 N2960 1.327 . S
C2961 H2968 0.930 . S
C2962 C2957 1.385 . S
C2962 C2959 1.370 1_655 S
C2962 H2981 0.930 . S
Tb2963 N2960 2.600 . S
Tb2963 N2964 2.660 . S
Tb2963 O2997 2.362 . S
Tb2963 O2998 2.421 . S
Tb2963 O3002 2.546 . S
Tb2963 O3003 2.610 . S
Tb2963 O3005 2.320 . S
Tb2963 O3006 2.552 . S
Tb2963 O3007 2.413 . S
Tb2963 C3027 2.833 . S
N2964 C2956 1.360 . S
N2964 Tb2963 2.660 . S
N2964 C2965 1.305 . S
C2965 N2964 1.305 . S
C2965 C2967 1.407 1_455 S
C2965 H2972 0.930 . S
C2966 C2954 1.410 . S
C2966 C2967 1.345 . S
C2966 H2974 0.930 . S
C2967 C2965 1.407 1_655 S
C2967 C2966 1.345 . S
C2967 H2969 0.930 . S
H2968 C2961 0.930 . S
H2969 C2967 0.930 . S
H2970 C2958 0.930 . S
H2971 C2959 0.931 . S
H2972 C2965 0.930 . S
H2973 C2987 0.930 . S
H2974 C2966 0.930 . S
H2975 C2993 0.930 . S
H2976 C2984 0.930 . S
H2977 C2991 0.931 . S
H2978 C2955 0.929 . S
H2979 C2985 0.930 . S
H2980 C3018 0.930 . S
H2981 C2962 0.930 . S
H2982 C3017 0.929 . S
N2983 Tb2952 2.660 . S
N2983 C2984 1.305 . S
N2983 C2988 1.360 . S
C2984 H2976 0.930 . S
C2984 N2983 1.305 . S
C2984 C2987 1.407 . S
C2985 H2979 0.930 . S
C2985 C2986 1.410 . S
C2985 C2987 1.345 . S
C2986 C2985 1.410 . S
C2986 C2988 1.417 . S
C2986 C3018 1.432 . S
C2987 H2973 0.930 . S
C2987 C2984 1.407 . S
C2987 C2985 1.345 . S
C2988 N2983 1.360 . S
C2988 C2986 1.417 . S
C2988 C2992 1.432 . S
H2989 C2994 0.930 . S
N2990 Tb2952 2.600 . S
N2990 C2992 1.359 . S
N2990 C2993 1.327 . S
C2991 H2977 0.931 . S
C2991 C2993 1.392 . S
C2991 C2994 1.370 . S
C2992 C2988 1.432 . S
C2992 N2990 1.359 . S
C2992 C2995 1.414 . S
C2993 H2975 0.930 . S
C2993 N2990 1.327 . S
C2993 C2991 1.392 . S
C2994 H2989 0.930 . S
C2994 C2991 1.370 . S
C2994 C2995 1.385 . S
C2995 C2992 1.414 . S
C2995 C2994 1.385 . S
C2995 C3017 1.444 . S
O2996 Tb2952 2.546 . S
O2996 C3016 1.251 . S
O2997 Tb2952 2.610 . S
O2997 Tb2963 2.362 . S
O2997 C3008 1.283 . S
O2998 Tb2963 2.421 . S
O2998 C3015 1.262 . S
O2999 Tb2952 2.320 . S
O2999 C3015 1.260 . S
O3000 Tb2952 2.552 . S
O3000 C3008 1.243 . S
O3001 Tb2952 2.413 . S
O3001 C3016 1.256 . S
O3002 Tb2963 2.546 . S
O3002 C3027 1.251 . S
O3003 Tb2952 2.362 . S
O3003 Tb2963 2.610 . S
O3003 C3019 1.283 . S
O3004 Tb2952 2.421 . S
O3004 C3026 1.262 . S
O3005 Tb2963 2.320 . S
O3005 C3026 1.260 . S
O3006 Tb2963 2.552 . S
O3006 C3019 1.243 . S
O3007 Tb2963 2.413 . S
O3007 C3027 1.256 . S
C3008 O2997 1.283 . S
C3008 O3000 1.243 . S
C3009 C3011 1.382 . S
C3009 C3013 1.393 . S
C3009 C3016 1.500 . S
C3010 C3011 1.400 . S
C3010 C3012 1.384 . S
C3011 C3009 1.382 . S
C3011 C3010 1.400 . S
C3011 H3028 0.930 . S
C3012 C3010 1.384 . S
C3012 C3014 1.392 . S
C3012 H3029 0.931 . S
C3013 C3009 1.393 . S
C3013 C3014 1.401 . S
C3013 H3030 0.930 . S
C3014 C3012 1.392 . S
C3014 C3013 1.401 . S
C3014 H3031 0.930 . S
C3015 O2998 1.262 . S
C3015 O2999 1.260 . S
C3016 Tb2952 2.833 . S
C3016 O2996 1.251 . S
C3016 O3001 1.256 . S
C3016 C3009 1.500 . S
C3017 H2982 0.929 . S
C3017 C2995 1.444 . S
C3017 C3018 1.317 . S
C3018 H2980 0.930 . S
C3018 C2986 1.432 . S
C3018 C3017 1.317 . S
C3019 O3003 1.283 . S
C3019 O3006 1.243 . S
C3020 C3021 1.382 . S
C3020 C3024 1.393 . S
C3020 C3027 1.500 . S
C3021 C3020 1.382 . S
C3021 C3022 1.400 . S
C3021 H3032 0.930 . S
C3022 C3021 1.400 . S
C3022 C3023 1.384 . S
C3023 C3022 1.384 . S
C3023 C3025 1.392 . S
C3023 H3033 0.931 . S
C3024 C3020 1.393 . S
C3024 C3025 1.401 . S
C3024 H3034 0.930 . S
C3025 C3023 1.392 . S
C3025 C3024 1.401 . S
C3025 H3035 0.930 . S
C3026 O3004 1.262 . S
C3026 O3005 1.260 . S
C3027 Tb2963 2.833 . S
C3027 O3002 1.251 . S
C3027 O3007 1.256 . S
C3027 C3020 1.500 . S
H3028 C3011 0.930 . S
H3029 C3012 0.931 . S
H3030 C3013 0.930 . S
H3031 C3014 0.930 . S
H3032 C3021 0.930 . S
H3033 C3023 0.931 . S
H3034 C3024 0.930 . S
H3035 C3025 0.930 . S
Tb3036 N3067 2.660 . S
Tb3036 N3074 2.600 . S
Tb3036 O3080 2.546 . S
Tb3036 O3081 2.610 . S
Tb3036 O3083 2.320 . S
Tb3036 O3084 2.552 . S
Tb3036 O3085 2.413 . S
Tb3036 O3087 2.362 . S
Tb3036 O3088 2.421 . S
Tb3036 C3100 2.833 . S
C3037 C3040 1.432 . S
C3037 C3041 1.414 . S
C3037 N3044 1.359 . S
C3038 C3040 1.417 . S
C3038 C3042 1.432 . S
C3038 C3050 1.410 . S
C3039 C3041 1.444 . S
C3039 C3042 1.317 . S
C3039 H3062 0.929 . S
C3040 C3037 1.432 . S
C3040 C3038 1.417 . S
C3040 N3048 1.360 . S
C3041 C3037 1.414 . S
C3041 C3039 1.444 . S
C3041 C3046 1.385 . S
C3042 C3038 1.432 . S
C3042 C3039 1.317 . S
C3042 H3054 0.930 . S
C3043 C3045 1.392 . S
C3043 C3046 1.370 . S
C3043 H3055 0.931 . S
N3044 C3037 1.359 . S
N3044 C3045 1.327 . S
N3044 Tb3047 2.600 . S
C3045 C3043 1.392 . S
C3045 N3044 1.327 . S
C3045 H3052 0.930 . S
C3046 C3041 1.385 . S
C3046 C3043 1.370 . S
C3046 H3065 0.930 . S
Tb3047 N3044 2.600 . S
Tb3047 N3048 2.660 . S
Tb3047 O3081 2.362 . S
Tb3047 O3082 2.421 . S
Tb3047 O3086 2.546 . S
Tb3047 O3087 2.610 . S
Tb3047 O3089 2.320 . S
Tb3047 O3090 2.552 . S
Tb3047 O3091 2.413 . S
Tb3047 C3111 2.833 . S
N3048 C3040 1.360 . S
N3048 Tb3047 2.660 . S
N3048 C3049 1.305 . S
C3049 N3048 1.305 . S
C3049 C3051 1.407 . S
C3049 H3056 0.930 . S
C3050 C3038 1.410 . S
C3050 C3051 1.345 . S
C3050 H3058 0.930 . S
C3051 C3049 1.407 . S
C3051 C3050 1.345 . S
C3051 H3053 0.930 . S
H3052 C3045 0.930 . S
H3053 C3051 0.930 . S
H3054 C3042 0.930 . S
H3055 C3043 0.931 . S
H3056 C3049 0.930 . S
H3057 C3071 0.930 . S
H3058 C3050 0.930 . S
H3059 C3077 0.930 . S
H3060 C3068 0.930 . S
H3061 C3075 0.931 . S
H3062 C3039 0.929 . S
H3063 C3069 0.930 . S
H3064 C3102 0.930 . S
H3065 C3046 0.930 . S
H3066 C3101 0.929 . S
N3067 Tb3036 2.660 . S
N3067 C3068 1.305 . S
N3067 C3072 1.360 . S
C3068 H3060 0.930 . S
C3068 N3067 1.305 . S
C3068 C3071 1.407 . S
C3069 H3063 0.930 . S
C3069 C3070 1.410 . S
C3069 C3071 1.345 . S
C3070 C3069 1.410 . S
C3070 C3072 1.417 . S
C3070 C3102 1.432 . S
C3071 H3057 0.930 . S
C3071 C3068 1.407 . S
C3071 C3069 1.345 . S
C3072 N3067 1.360 . S
C3072 C3070 1.417 . S
C3072 C3076 1.432 . S
H3073 C3078 0.930 . S
N3074 Tb3036 2.600 . S
N3074 C3076 1.359 . S
N3074 C3077 1.327 . S
C3075 H3061 0.931 . S
C3075 C3077 1.392 . S
C3075 C3078 1.370 . S
C3076 C3072 1.432 . S
C3076 N3074 1.359 . S
C3076 C3079 1.414 . S
C3077 H3059 0.930 . S
C3077 N3074 1.327 . S
C3077 C3075 1.392 . S
C3078 H3073 0.930 . S
C3078 C3075 1.370 . S
C3078 C3079 1.385 . S
C3079 C3076 1.414 . S
C3079 C3078 1.385 . S
C3079 C3101 1.444 . S
O3080 Tb3036 2.546 . S
O3080 C3100 1.251 . S
O3081 Tb3036 2.610 . S
O3081 Tb3047 2.362 . S
O3081 C3092 1.283 . S
O3082 Tb3047 2.421 . S
O3082 C3099 1.262 . S
O3083 Tb3036 2.320 . S
O3083 C3099 1.260 . S
O3084 Tb3036 2.552 . S
O3084 C3092 1.243 . S
O3085 Tb3036 2.413 . S
O3085 C3100 1.256 . S
O3086 Tb3047 2.546 . S
O3086 C3111 1.251 . S
O3087 Tb3036 2.362 . S
O3087 Tb3047 2.610 . S
O3087 C3103 1.283 . S
O3088 Tb3036 2.421 . S
O3088 C3110 1.262 . S
O3089 Tb3047 2.320 . S
O3089 C3110 1.260 . S
O3090 Tb3047 2.552 . S
O3090 C3103 1.243 . S
O3091 Tb3047 2.413 . S
O3091 C3111 1.256 . S
C3092 O3081 1.283 . S
C3092 O3084 1.243 . S
C3093 C3095 1.382 . S
C3093 C3097 1.393 . S
C3093 C3100 1.500 . S
C3094 C3095 1.400 . S
C3094 C3096 1.384 . S
C3095 C3093 1.382 . S
C3095 C3094 1.400 . S
C3095 H3112 0.930 . S
C3096 C3094 1.384 . S
C3096 C3098 1.392 . S
C3096 H3113 0.931 . S
C3097 C3093 1.393 . S
C3097 C3098 1.401 . S
C3097 H3114 0.930 . S
C3098 C3096 1.392 . S
C3098 C3097 1.401 . S
C3098 H3115 0.930 . S
C3099 O3082 1.262 . S
C3099 O3083 1.260 . S
C3100 Tb3036 2.833 . S
C3100 O3080 1.251 . S
C3100 O3085 1.256 . S
C3100 C3093 1.500 . S
C3101 H3066 0.929 . S
C3101 C3079 1.444 . S
C3101 C3102 1.317 . S
C3102 H3064 0.930 . S
C3102 C3070 1.432 . S
C3102 C3101 1.317 . S
C3103 O3087 1.283 . S
C3103 O3090 1.243 . S
C3104 C3105 1.382 . S
C3104 C3108 1.393 . S
C3104 C3111 1.500 . S
C3105 C3104 1.382 . S
C3105 C3106 1.400 . S
C3105 H3116 0.930 . S
C3106 C3105 1.400 . S
C3106 C3107 1.384 . S
C3107 C3106 1.384 . S
C3107 C3109 1.392 . S
C3107 H3117 0.931 . S
C3108 C3104 1.393 . S
C3108 C3109 1.401 . S
C3108 H3118 0.930 . S
C3109 C3107 1.392 . S
C3109 C3108 1.401 . S
C3109 H3119 0.930 . S
C3110 O3088 1.262 . S
C3110 O3089 1.260 . S
C3111 Tb3047 2.833 . S
C3111 O3086 1.251 . S
C3111 O3091 1.256 . S
C3111 C3104 1.500 . S
H3112 C3095 0.930 . S
H3113 C3096 0.931 . S
H3114 C3097 0.930 . S
H3115 C3098 0.930 . S
H3116 C3105 0.930 . S
H3117 C3107 0.931 . S
H3118 C3108 0.930 . S
H3119 C3109 0.930 . S
Tb3120 N3151 2.660 . S
Tb3120 N3158 2.600 . S
Tb3120 O3164 2.546 . S
Tb3120 O3165 2.610 . S
Tb3120 O3167 2.320 . S
Tb3120 O3168 2.552 . S
Tb3120 O3169 2.413 . S
Tb3120 O3171 2.362 . S
Tb3120 O3172 2.421 . S
Tb3120 C3184 2.833 . S
C3121 C3124 1.432 . S
C3121 C3125 1.414 . S
C3121 N3128 1.359 . S
C3122 C3124 1.417 . S
C3122 C3126 1.432 . S
C3122 C3134 1.410 . S
C3123 C3125 1.444 . S
C3123 C3126 1.317 . S
C3123 H3146 0.929 . S
C3124 C3121 1.432 . S
C3124 C3122 1.417 . S
C3124 N3132 1.360 . S
C3125 C3121 1.414 . S
C3125 C3123 1.444 . S
C3125 C3130 1.385 . S
C3126 C3122 1.432 . S
C3126 C3123 1.317 . S
C3126 H3138 0.930 . S
C3127 C3129 1.392 . S
C3127 C3130 1.370 . S
C3127 H3139 0.931 . S
N3128 C3121 1.359 . S
N3128 C3129 1.327 . S
N3128 Tb3131 2.600 . S
C3129 C3127 1.392 . S
C3129 N3128 1.327 . S
C3129 H3136 0.930 . S
C3130 C3125 1.385 . S
C3130 C3127 1.370 . S
C3130 H3149 0.930 . S
Tb3131 N3128 2.600 . S
Tb3131 N3132 2.660 . S
Tb3131 O3165 2.362 . S
Tb3131 O3166 2.421 . S
Tb3131 O3170 2.546 . S
Tb3131 O3171 2.610 . S
Tb3131 O3173 2.320 . S
Tb3131 O3174 2.552 . S
Tb3131 O3175 2.413 . S
Tb3131 C3195 2.833 . S
N3132 C3124 1.360 . S
N3132 Tb3131 2.660 . S
N3132 C3133 1.305 . S
C3133 N3132 1.305 . S
C3133 C3135 1.407 . S
C3133 H3140 0.930 . S
C3134 C3122 1.410 . S
C3134 C3135 1.345 . S
C3134 H3142 0.930 . S
C3135 C3133 1.407 . S
C3135 C3134 1.345 . S
C3135 H3137 0.930 . S
H3136 C3129 0.930 . S
H3137 C3135 0.930 . S
H3138 C3126 0.930 . S
H3139 C3127 0.931 . S
H3140 C3133 0.930 . S
H3141 C3155 0.930 . S
H3142 C3134 0.930 . S
H3143 C3161 0.930 . S
H3144 C3152 0.930 . S
H3145 C3159 0.931 . S
H3146 C3123 0.929 . S
H3147 C3153 0.930 . S
H3148 C3186 0.930 . S
H3149 C3130 0.930 . S
H3150 C3185 0.929 . S
N3151 Tb3120 2.660 . S
N3151 C3152 1.305 . S
N3151 C3156 1.360 . S
C3152 H3144 0.930 . S
C3152 N3151 1.305 . S
C3152 C3155 1.407 . S
C3153 H3147 0.930 . S
C3153 C3154 1.410 . S
C3153 C3155 1.345 . S
C3154 C3153 1.410 . S
C3154 C3156 1.417 . S
C3154 C3186 1.432 . S
C3155 H3141 0.930 . S
C3155 C3152 1.407 . S
C3155 C3153 1.345 . S
C3156 N3151 1.360 . S
C3156 C3154 1.417 . S
C3156 C3160 1.432 . S
H3157 C3162 0.930 . S
N3158 Tb3120 2.600 . S
N3158 C3160 1.359 . S
N3158 C3161 1.327 . S
C3159 H3145 0.931 . S
C3159 C3161 1.392 . S
C3159 C3162 1.370 . S
C3160 C3156 1.432 . S
C3160 N3158 1.359 . S
C3160 C3163 1.414 . S
C3161 H3143 0.930 . S
C3161 N3158 1.327 . S
C3161 C3159 1.392 . S
C3162 H3157 0.930 . S
C3162 C3159 1.370 . S
C3162 C3163 1.385 . S
C3163 C3160 1.414 . S
C3163 C3162 1.385 . S
C3163 C3185 1.444 . S
O3164 Tb3120 2.546 . S
O3164 C3184 1.251 . S
O3165 Tb3120 2.610 . S
O3165 Tb3131 2.362 . S
O3165 C3176 1.283 . S
O3166 Tb3131 2.421 . S
O3166 C3183 1.262 . S
O3167 Tb3120 2.320 . S
O3167 C3183 1.260 . S
O3168 Tb3120 2.552 . S
O3168 C3176 1.243 . S
O3169 Tb3120 2.413 . S
O3169 C3184 1.256 . S
O3170 Tb3131 2.546 . S
O3170 C3195 1.251 . S
O3171 Tb3120 2.362 . S
O3171 Tb3131 2.610 . S
O3171 C3187 1.283 . S
O3172 Tb3120 2.421 . S
O3172 C3194 1.262 . S
O3173 Tb3131 2.320 . S
O3173 C3194 1.260 . S
O3174 Tb3131 2.552 . S
O3174 C3187 1.243 . S
O3175 Tb3131 2.413 . S
O3175 C3195 1.256 . S
C3176 O3165 1.283 . S
C3176 O3168 1.243 . S
C3177 C3179 1.382 . S
C3177 C3181 1.393 . S
C3177 C3184 1.500 . S
C3178 C3179 1.400 . S
C3178 C3180 1.384 . S
C3179 C3177 1.382 . S
C3179 C3178 1.400 . S
C3179 H3196 0.930 . S
C3180 C3178 1.384 . S
C3180 C3182 1.392 . S
C3180 H3197 0.931 . S
C3181 C3177 1.393 . S
C3181 C3182 1.401 . S
C3181 H3198 0.930 . S
C3182 C3180 1.392 . S
C3182 C3181 1.401 . S
C3182 H3199 0.930 . S
C3183 O3166 1.262 . S
C3183 O3167 1.260 . S
C3184 Tb3120 2.833 . S
C3184 O3164 1.251 . S
C3184 O3169 1.256 . S
C3184 C3177 1.500 . S
C3185 H3150 0.929 . S
C3185 C3163 1.444 . S
C3185 C3186 1.317 . S
C3186 H3148 0.930 . S
C3186 C3154 1.432 . S
C3186 C3185 1.317 . S
C3187 O3171 1.283 . S
C3187 O3174 1.243 . S
C3188 C3189 1.382 . S
C3188 C3192 1.393 . S
C3188 C3195 1.500 . S
C3189 C3188 1.382 . S
C3189 C3190 1.400 . S
C3189 H3200 0.930 . S
C3190 C3189 1.400 . S
C3190 C3191 1.384 . S
C3191 C3190 1.384 . S
C3191 C3193 1.392 . S
C3191 H3201 0.931 . S
C3192 C3188 1.393 . S
C3192 C3193 1.401 . S
C3192 H3202 0.930 . S
C3193 C3191 1.392 . S
C3193 C3192 1.401 . S
C3193 H3203 0.930 . S
C3194 O3172 1.262 . S
C3194 O3173 1.260 . S
C3195 Tb3131 2.833 . S
C3195 O3170 1.251 . S
C3195 O3175 1.256 . S
C3195 C3188 1.500 . S
H3196 C3179 0.930 . S
H3197 C3180 0.931 . S
H3198 C3181 0.930 . S
H3199 C3182 0.930 . S
H3200 C3189 0.930 . S
H3201 C3191 0.931 . S
H3202 C3192 0.930 . S
H3203 C3193 0.930 . S
Tb3204 N3235 2.660 . S
Tb3204 N3242 2.600 . S
Tb3204 O3248 2.546 . S
Tb3204 O3249 2.610 . S
Tb3204 O3251 2.320 . S
Tb3204 O3252 2.552 . S
Tb3204 O3253 2.413 . S
Tb3204 O3255 2.362 . S
Tb3204 O3256 2.421 . S
Tb3204 C3268 2.833 . S
C3205 C3208 1.432 . S
C3205 C3209 1.414 . S
C3205 N3212 1.359 . S
C3206 C3208 1.417 . S
C3206 C3210 1.432 . S
C3206 C3218 1.410 . S
C3207 C3209 1.444 . S
C3207 C3210 1.317 . S
C3207 H3230 0.929 . S
C3208 C3205 1.432 . S
C3208 C3206 1.417 . S
C3208 N3216 1.360 . S
C3209 C3205 1.414 . S
C3209 C3207 1.444 . S
C3209 C3214 1.385 . S
C3210 C3206 1.432 . S
C3210 C3207 1.317 . S
C3210 H3222 0.930 . S
C3211 C3213 1.392 . S
C3211 C3214 1.370 . S
C3211 H3223 0.931 . S
N3212 C3205 1.359 . S
N3212 C3213 1.327 . S
N3212 Tb3215 2.600 . S
C3213 C3211 1.392 . S
C3213 N3212 1.327 . S
C3213 H3220 0.930 . S
C3214 C3209 1.385 . S
C3214 C3211 1.370 . S
C3214 H3233 0.930 . S
Tb3215 N3212 2.600 . S
Tb3215 N3216 2.660 . S
Tb3215 O3249 2.362 . S
Tb3215 O3250 2.421 . S
Tb3215 O3254 2.546 . S
Tb3215 O3255 2.610 . S
Tb3215 O3257 2.320 . S
Tb3215 O3258 2.552 . S
Tb3215 O3259 2.413 . S
Tb3215 C3279 2.833 . S
N3216 C3208 1.360 . S
N3216 Tb3215 2.660 . S
N3216 C3217 1.305 . S
C3217 N3216 1.305 . S
C3217 C3219 1.407 . S
C3217 H3224 0.930 . S
C3218 C3206 1.410 . S
C3218 C3219 1.345 . S
C3218 H3226 0.930 . S
C3219 C3217 1.407 . S
C3219 C3218 1.345 . S
C3219 H3221 0.930 . S
H3220 C3213 0.930 . S
H3221 C3219 0.930 . S
H3222 C3210 0.930 . S
H3223 C3211 0.931 . S
H3224 C3217 0.930 . S
H3225 C3239 0.930 . S
H3226 C3218 0.930 . S
H3227 C3245 0.930 . S
H3228 C3236 0.930 . S
H3229 C3243 0.931 . S
H3230 C3207 0.929 . S
H3231 C3237 0.930 . S
H3232 C3270 0.930 . S
H3233 C3214 0.930 . S
H3234 C3269 0.929 . S
N3235 Tb3204 2.660 . S
N3235 C3236 1.305 . S
N3235 C3240 1.360 . S
C3236 H3228 0.930 . S
C3236 N3235 1.305 . S
C3236 C3239 1.407 . S
C3237 H3231 0.930 . S
C3237 C3238 1.410 . S
C3237 C3239 1.345 . S
C3238 C3237 1.410 . S
C3238 C3240 1.417 . S
C3238 C3270 1.432 . S
C3239 H3225 0.930 . S
C3239 C3236 1.407 . S
C3239 C3237 1.345 . S
C3240 N3235 1.360 . S
C3240 C3238 1.417 . S
C3240 C3244 1.432 . S
H3241 C3246 0.930 . S
N3242 Tb3204 2.600 . S
N3242 C3244 1.359 . S
N3242 C3245 1.327 . S
C3243 H3229 0.931 . S
C3243 C3245 1.392 . S
C3243 C3246 1.370 . S
C3244 C3240 1.432 . S
C3244 N3242 1.359 . S
C3244 C3247 1.414 . S
C3245 H3227 0.930 . S
C3245 N3242 1.327 . S
C3245 C3243 1.392 . S
C3246 H3241 0.930 . S
C3246 C3243 1.370 . S
C3246 C3247 1.385 . S
C3247 C3244 1.414 . S
C3247 C3246 1.385 . S
C3247 C3269 1.444 . S
O3248 Tb3204 2.546 . S
O3248 C3268 1.251 . S
O3249 Tb3204 2.610 . S
O3249 Tb3215 2.362 . S
O3249 C3260 1.283 . S
O3250 Tb3215 2.421 . S
O3250 C3267 1.262 . S
O3251 Tb3204 2.320 . S
O3251 C3267 1.260 . S
O3252 Tb3204 2.552 . S
O3252 C3260 1.243 . S
O3253 Tb3204 2.413 . S
O3253 C3268 1.256 . S
O3254 Tb3215 2.546 . S
O3254 C3279 1.251 . S
O3255 Tb3204 2.362 . S
O3255 Tb3215 2.610 . S
O3255 C3271 1.283 . S
O3256 Tb3204 2.421 . S
O3256 C3278 1.262 . S
O3257 Tb3215 2.320 . S
O3257 C3278 1.260 . S
O3258 Tb3215 2.552 . S
O3258 C3271 1.243 . S
O3259 Tb3215 2.413 . S
O3259 C3279 1.256 . S
C3260 O3249 1.283 . S
C3260 O3252 1.243 . S
C3261 C3263 1.382 . S
C3261 C3265 1.393 . S
C3261 C3268 1.500 . S
C3262 C3263 1.400 . S
C3262 C3264 1.384 . S
C3263 C3261 1.382 . S
C3263 C3262 1.400 . S
C3263 H3280 0.930 . S
C3264 C3262 1.384 . S
C3264 C3266 1.392 . S
C3264 H3281 0.931 . S
C3265 C3261 1.393 . S
C3265 C3266 1.401 . S
C3265 H3282 0.930 . S
C3266 C3264 1.392 . S
C3266 C3265 1.401 . S
C3266 H3283 0.930 . S
C3267 O3250 1.262 . S
C3267 O3251 1.260 . S
C3268 Tb3204 2.833 . S
C3268 O3248 1.251 . S
C3268 O3253 1.256 . S
C3268 C3261 1.500 . S
C3269 H3234 0.929 . S
C3269 C3247 1.444 . S
C3269 C3270 1.317 . S
C3270 H3232 0.930 . S
C3270 C3238 1.432 . S
C3270 C3269 1.317 . S
C3271 O3255 1.283 . S
C3271 O3258 1.243 . S
C3272 C3273 1.382 . S
C3272 C3276 1.393 . S
C3272 C3279 1.500 . S
C3273 C3272 1.382 . S
C3273 C3274 1.400 . S
C3273 H3284 0.930 . S
C3274 C3273 1.400 . S
C3274 C3275 1.384 . S
C3275 C3274 1.384 . S
C3275 C3277 1.392 . S
C3275 H3285 0.931 . S
C3276 C3272 1.393 . S
C3276 C3277 1.401 . S
C3276 H3286 0.930 . S
C3277 C3275 1.392 . S
C3277 C3276 1.401 . S
C3277 H3287 0.930 . S
C3278 O3256 1.262 . S
C3278 O3257 1.260 . S
C3279 Tb3215 2.833 . S
C3279 O3254 1.251 . S
C3279 O3259 1.256 . S
C3279 C3272 1.500 . S
H3280 C3263 0.930 . S
H3281 C3264 0.931 . S
H3282 C3265 0.930 . S
H3283 C3266 0.930 . S
H3284 C3273 0.930 . S
H3285 C3275 0.931 . S
H3286 C3276 0.930 . S
H3287 C3277 0.930 . S
Tb3288 N3319 2.660 . S
Tb3288 N3326 2.600 . S
Tb3288 O3332 2.546 . S
Tb3288 O3333 2.610 . S
Tb3288 O3335 2.320 . S
Tb3288 O3336 2.552 . S
Tb3288 O3337 2.413 . S
Tb3288 O3339 2.362 . S
Tb3288 O3340 2.421 . S
Tb3288 C3352 2.833 . S
C3289 C3292 1.432 . S
C3289 C3293 1.414 . S
C3289 N3296 1.359 . S
C3290 C3292 1.417 . S
C3290 C3294 1.432 . S
C3290 C3302 1.410 . S
C3291 C3293 1.444 . S
C3291 C3294 1.317 . S
C3291 H3314 0.929 . S
C3292 C3289 1.432 . S
C3292 C3290 1.417 . S
C3292 N3300 1.360 . S
C3293 C3289 1.414 . S
C3293 C3291 1.444 . S
C3293 C3298 1.385 . S
C3294 C3290 1.432 . S
C3294 C3291 1.317 . S
C3294 H3306 0.930 . S
C3295 C3297 1.392 . S
C3295 C3298 1.370 . S
C3295 H3307 0.931 . S
N3296 C3289 1.359 . S
N3296 C3297 1.327 . S
N3296 Tb3299 2.600 . S
C3297 C3295 1.392 . S
C3297 N3296 1.327 . S
C3297 H3304 0.930 . S
C3298 C3293 1.385 . S
C3298 C3295 1.370 . S
C3298 H3317 0.930 . S
Tb3299 N3296 2.600 . S
Tb3299 N3300 2.660 . S
Tb3299 O3333 2.362 . S
Tb3299 O3334 2.421 . S
Tb3299 O3338 2.546 . S
Tb3299 O3339 2.610 . S
Tb3299 O3341 2.320 . S
Tb3299 O3342 2.552 . S
Tb3299 O3343 2.413 . S
Tb3299 C3363 2.833 . S
N3300 C3292 1.360 . S
N3300 Tb3299 2.660 . S
N3300 C3301 1.305 . S
C3301 N3300 1.305 . S
C3301 C3303 1.407 . S
C3301 H3308 0.930 . S
C3302 C3290 1.410 . S
C3302 C3303 1.345 . S
C3302 H3310 0.930 . S
C3303 C3301 1.407 . S
C3303 C3302 1.345 . S
C3303 H3305 0.930 . S
H3304 C3297 0.930 . S
H3305 C3303 0.930 . S
H3306 C3294 0.930 . S
H3307 C3295 0.931 . S
H3308 C3301 0.930 . S
H3309 C3323 0.930 . S
H3310 C3302 0.930 . S
H3311 C3329 0.930 . S
H3312 C3320 0.930 . S
H3313 C3327 0.931 . S
H3314 C3291 0.929 . S
H3315 C3321 0.930 . S
H3316 C3354 0.930 . S
H3317 C3298 0.930 . S
H3318 C3353 0.929 . S
N3319 Tb3288 2.660 . S
N3319 C3320 1.305 . S
N3319 C3324 1.360 . S
C3320 H3312 0.930 . S
C3320 N3319 1.305 . S
C3320 C3323 1.407 . S
C3321 H3315 0.930 . S
C3321 C3322 1.410 . S
C3321 C3323 1.345 . S
C3322 C3321 1.410 . S
C3322 C3324 1.417 . S
C3322 C3354 1.432 . S
C3323 H3309 0.930 . S
C3323 C3320 1.407 . S
C3323 C3321 1.345 . S
C3324 N3319 1.360 . S
C3324 C3322 1.417 . S
C3324 C3328 1.432 . S
H3325 C3330 0.930 . S
N3326 Tb3288 2.600 . S
N3326 C3328 1.359 . S
N3326 C3329 1.327 . S
C3327 H3313 0.931 . S
C3327 C3329 1.392 . S
C3327 C3330 1.370 . S
C3328 C3324 1.432 . S
C3328 N3326 1.359 . S
C3328 C3331 1.414 . S
C3329 H3311 0.930 . S
C3329 N3326 1.327 . S
C3329 C3327 1.392 . S
C3330 H3325 0.930 . S
C3330 C3327 1.370 . S
C3330 C3331 1.385 . S
C3331 C3328 1.414 . S
C3331 C3330 1.385 . S
C3331 C3353 1.444 . S
O3332 Tb3288 2.546 . S
O3332 C3352 1.251 . S
O3333 Tb3288 2.610 . S
O3333 Tb3299 2.362 . S
O3333 C3344 1.283 . S
O3334 Tb3299 2.421 . S
O3334 C3351 1.262 . S
O3335 Tb3288 2.320 . S
O3335 C3351 1.260 . S
O3336 Tb3288 2.552 . S
O3336 C3344 1.243 . S
O3337 Tb3288 2.413 . S
O3337 C3352 1.256 . S
O3338 Tb3299 2.546 . S
O3338 C3363 1.251 . S
O3339 Tb3288 2.362 . S
O3339 Tb3299 2.610 . S
O3339 C3355 1.283 . S
O3340 Tb3288 2.421 . S
O3340 C3362 1.262 . S
O3341 Tb3299 2.320 . S
O3341 C3362 1.260 . S
O3342 Tb3299 2.552 . S
O3342 C3355 1.243 . S
O3343 Tb3299 2.413 . S
O3343 C3363 1.256 . S
C3344 O3333 1.283 . S
C3344 O3336 1.243 . S
C3345 C3347 1.382 . S
C3345 C3349 1.393 . S
C3345 C3352 1.500 . S
C3346 C3347 1.400 . S
C3346 C3348 1.384 . S
C3347 C3345 1.382 . S
C3347 C3346 1.400 . S
C3347 H3364 0.930 . S
C3348 C3346 1.384 . S
C3348 C3350 1.392 . S
C3348 H3365 0.931 . S
C3349 C3345 1.393 . S
C3349 C3350 1.401 . S
C3349 H3366 0.930 . S
C3350 C3348 1.392 . S
C3350 C3349 1.401 . S
C3350 H3367 0.930 . S
C3351 O3334 1.262 . S
C3351 O3335 1.260 . S
C3352 Tb3288 2.833 . S
C3352 O3332 1.251 . S
C3352 O3337 1.256 . S
C3352 C3345 1.500 . S
C3353 H3318 0.929 . S
C3353 C3331 1.444 . S
C3353 C3354 1.317 . S
C3354 H3316 0.930 . S
C3354 C3322 1.432 . S
C3354 C3353 1.317 . S
C3355 O3339 1.283 . S
C3355 O3342 1.243 . S
C3356 C3357 1.382 . S
C3356 C3360 1.393 . S
C3356 C3363 1.500 . S
C3357 C3356 1.382 . S
C3357 C3358 1.400 . S
C3357 H3368 0.930 . S
C3358 C3357 1.400 . S
C3358 C3359 1.384 . S
C3359 C3358 1.384 . S
C3359 C3361 1.392 . S
C3359 H3369 0.931 . S
C3360 C3356 1.393 . S
C3360 C3361 1.401 . S
C3360 H3370 0.930 . S
C3361 C3359 1.392 . S
C3361 C3360 1.401 . S
C3361 H3371 0.930 . S
C3362 O3340 1.262 . S
C3362 O3341 1.260 . S
C3363 Tb3299 2.833 . S
C3363 O3338 1.251 . S
C3363 O3343 1.256 . S
C3363 C3356 1.500 . S
H3364 C3347 0.930 . S
H3365 C3348 0.931 . S
H3366 C3349 0.930 . S
H3367 C3350 0.930 . S
H3368 C3357 0.930 . S
H3369 C3359 0.931 . S
H3370 C3360 0.930 . S
H3371 C3361 0.930 . S
Tb3372 N3403 2.660 . S
Tb3372 N3410 2.600 1_554 S
Tb3372 O3416 2.546 1_554 S
Tb3372 O3417 2.610 . S
Tb3372 O3419 2.320 . S
Tb3372 O3420 2.552 1_554 S
Tb3372 O3421 2.413 . S
Tb3372 O3423 2.362 . S
Tb3372 O3424 2.421 1_554 S
Tb3372 C3436 2.833 1_554 S
C3373 C3376 1.432 . S
C3373 C3377 1.414 . S
C3373 N3380 1.359 1_655 S
C3374 C3376 1.417 . S
C3374 C3378 1.432 . S
C3374 C3386 1.410 1_554 S
C3375 C3377 1.444 . S
C3375 C3378 1.317 . S
C3375 H3398 0.929 . S
C3376 C3373 1.432 . S
C3376 C3374 1.417 . S
C3376 N3384 1.360 1_655 S
C3377 C3373 1.414 . S
C3377 C3375 1.444 . S
C3377 C3382 1.385 . S
C3378 C3374 1.432 . S
C3378 C3375 1.317 . S
C3378 H3390 0.930 . S
C3379 C3381 1.392 . S
C3379 C3382 1.370 1_455 S
C3379 H3391 0.931 . S
N3380 C3373 1.359 1_455 S
N3380 C3381 1.327 . S
N3380 Tb3383 2.600 . S
C3381 C3379 1.392 . S
C3381 N3380 1.327 . S
C3381 H3388 0.930 . S
C3382 C3377 1.385 . S
C3382 C3379 1.370 1_655 S
C3382 H3401 0.930 . S
Tb3383 N3380 2.600 . S
Tb3383 N3384 2.660 . S
Tb3383 O3417 2.362 . S
Tb3383 O3418 2.421 . S
Tb3383 O3422 2.546 . S
Tb3383 O3423 2.610 . S
Tb3383 O3425 2.320 1_554 S
Tb3383 O3426 2.552 . S
Tb3383 O3427 2.413 1_455 S
Tb3383 C3447 2.833 1_455 S
N3384 C3376 1.360 1_455 S
N3384 Tb3383 2.660 . S
N3384 C3385 1.305 1_454 S
C3385 N3384 1.305 1_656 S
C3385 C3387 1.407 . S
C3385 H3392 0.930 1_655 S
C3386 C3374 1.410 1_556 S
C3386 C3387 1.345 . S
C3386 H3394 0.930 . S
C3387 C3385 1.407 . S
C3387 C3386 1.345 . S
C3387 H3389 0.930 . S
H3388 C3381 0.930 . S
H3389 C3387 0.930 . S
H3390 C3378 0.930 . S
H3391 C3379 0.931 . S
H3392 C3385 0.930 1_455 S
H3393 C3407 0.930 . S
H3394 C3386 0.930 . S
H3395 C3413 0.930 . S
H3396 C3404 0.930 . S
H3397 C3411 0.931 . S
H3398 C3375 0.929 . S
H3399 C3405 0.930 . S
H3400 C3438 0.930 . S
H3401 C3382 0.930 . S
H3402 C3437 0.929 . S
N3403 Tb3372 2.660 . S
N3403 C3404 1.305 . S
N3403 C3408 1.360 . S
C3404 H3396 0.930 . S
C3404 N3403 1.305 . S
C3404 C3407 1.407 . S
C3405 H3399 0.930 . S
C3405 C3406 1.410 . S
C3405 C3407 1.345 . S
C3406 C3405 1.410 . S
C3406 C3408 1.417 . S
C3406 C3438 1.432 . S
C3407 H3393 0.930 . S
C3407 C3404 1.407 . S
C3407 C3405 1.345 . S
C3408 N3403 1.360 . S
C3408 C3406 1.417 . S
C3408 C3412 1.432 1_554 S
H3409 C3414 0.930 . S
N3410 Tb3372 2.600 1_556 S
N3410 C3412 1.359 . S
N3410 C3413 1.327 . S
C3411 H3397 0.931 . S
C3411 C3413 1.392 . S
C3411 C3414 1.370 . S
C3412 C3408 1.432 1_556 S
C3412 N3410 1.359 . S
C3412 C3415 1.414 . S
C3413 H3395 0.930 . S
C3413 N3410 1.327 . S
C3413 C3411 1.392 . S
C3414 H3409 0.930 . S
C3414 C3411 1.370 . S
C3414 C3415 1.385 . S
C3415 C3412 1.414 . S
C3415 C3414 1.385 . S
C3415 C3437 1.444 . S
O3416 Tb3372 2.546 1_556 S
O3416 C3436 1.251 . S
O3417 Tb3372 2.610 . S
O3417 Tb3383 2.362 . S
O3417 C3428 1.283 . S
O3418 Tb3383 2.421 . S
O3418 C3435 1.262 . S
O3419 Tb3372 2.320 . S
O3419 C3435 1.260 . S
O3420 Tb3372 2.552 1_556 S
O3420 C3428 1.240 1_556 S
O3421 Tb3372 2.413 . S
O3421 C3436 1.256 1_554 S
O3422 Tb3383 2.546 . S
O3422 C3447 1.251 1_455 S
O3423 Tb3372 2.362 . S
O3423 Tb3383 2.610 . S
O3423 C3439 1.283 . S
O3424 Tb3372 2.421 1_556 S
O3424 C3446 1.262 . S
O3425 Tb3383 2.320 1_556 S
O3425 C3446 1.260 . S
O3426 Tb3383 2.552 . S
O3426 C3439 1.243 . S
O3427 Tb3383 2.413 1_655 S
O3427 C3447 1.256 . S
C3428 O3417 1.283 . S
C3428 O3420 1.240 1_554 S
C3429 C3431 1.382 1_556 S
C3429 C3433 1.393 . S
C3429 C3436 1.500 . S
C3430 C3431 1.400 1_556 S
C3430 C3432 1.384 . S
C3431 C3429 1.382 1_554 S
C3431 C3430 1.400 1_554 S
C3431 H3448 0.930 . S
C3432 C3430 1.384 . S
C3432 C3434 1.392 . S
C3432 H3449 0.931 . S
C3433 C3429 1.393 . S
C3433 C3434 1.401 . S
C3433 H3450 0.930 . S
C3434 C3432 1.392 . S
C3434 C3433 1.401 . S
C3434 H3451 0.930 . S
C3435 O3418 1.262 . S
C3435 O3419 1.260 . S
C3436 Tb3372 2.833 1_556 S
C3436 O3416 1.251 . S
C3436 O3421 1.256 1_556 S
C3436 C3429 1.500 . S
C3437 H3402 0.929 . S
C3437 C3415 1.444 . S
C3437 C3438 1.317 1_556 S
C3438 H3400 0.930 . S
C3438 C3406 1.432 . S
C3438 C3437 1.317 1_554 S
C3439 O3423 1.283 . S
C3439 O3426 1.243 . S
C3440 C3441 1.382 . S
C3440 C3444 1.393 . S
C3440 C3447 1.500 . S
C3441 C3440 1.382 . S
C3441 C3442 1.400 . S
C3441 H3452 0.930 . S
C3442 C3441 1.400 . S
C3442 C3443 1.384 . S
C3443 C3442 1.384 . S
C3443 C3445 1.392 . S
C3443 H3453 0.931 . S
C3444 C3440 1.393 . S
C3444 C3445 1.401 . S
C3444 H3454 0.930 . S
C3445 C3443 1.392 . S
C3445 C3444 1.401 . S
C3445 H3455 0.930 . S
C3446 O3424 1.262 . S
C3446 O3425 1.260 . S
C3447 Tb3383 2.833 1_655 S
C3447 O3422 1.251 1_655 S
C3447 O3427 1.256 . S
C3447 C3440 1.500 . S
H3448 C3431 0.930 . S
H3449 C3432 0.931 . S
H3450 C3433 0.930 . S
H3451 C3434 0.930 . S
H3452 C3441 0.930 . S
H3453 C3443 0.931 . S
H3454 C3444 0.930 . S
H3455 C3445 0.930 . S
H3456 C3462 0.930 . S
H3457 C3465 0.930 1_655 S
H3458 C3466 0.954 . S
H3459 C3467 0.930 . S
H3460 C3470 0.930 . S
H3461 C3471 0.930 . S
C3462 H3456 0.930 . S
C3462 C3463 1.355 1_556 S
C3462 C3464 1.430 . S
C3463 C3462 1.355 1_554 S
C3463 C3465 1.419 . S
C3464 C3462 1.430 . S
C3464 C3469 1.398 1_556 S
C3464 C3471 1.421 . S
C3465 H3457 0.930 1_455 S
C3465 C3463 1.419 . S
C3465 C3466 1.362 . S
C3466 H3458 0.954 . S
C3466 C3465 1.362 . S
C3466 C3469 1.409 . S
C3467 H3459 0.930 . S
C3467 C3468 1.355 . S
C3467 C3469 1.415 . S
C3468 C3467 1.355 . S
C3468 C3470 1.419 1_554 S
C3469 C3464 1.398 1_554 S
C3469 C3466 1.409 . S
C3469 C3467 1.415 . S
C3470 H3460 0.930 . S
C3470 C3468 1.419 1_556 S
C3470 C3471 1.362 . S
C3471 H3461 0.930 . S
C3471 C3464 1.421 . S
C3471 C3470 1.362 . S
H3472 C3478 0.930 . S
H3473 C3481 0.930 . S
H3474 C3482 0.930 . S
H3475 C3483 0.930 . S
H3476 C3486 0.930 . S
H3477 C3487 0.930 . S
C3478 H3472 0.930 . S
C3478 C3479 1.355 . S
C3478 C3480 1.415 . S
C3479 C3478 1.355 . S
C3479 C3481 1.419 . S
C3480 C3478 1.415 . S
C3480 C3485 1.425 . S
C3480 C3487 1.409 . S
C3481 H3473 0.930 . S
C3481 C3479 1.419 . S
C3481 C3482 1.362 . S
C3482 H3474 0.930 . S
C3482 C3481 1.362 . S
C3482 C3485 1.409 . S
C3483 H3475 0.930 . S
C3483 C3484 1.355 . S
C3483 C3485 1.415 . S
C3484 C3483 1.355 . S
C3484 C3486 1.419 . S
C3485 C3480 1.425 . S
C3485 C3482 1.409 . S
C3485 C3483 1.415 . S
C3486 H3476 0.930 . S
C3486 C3484 1.419 . S
C3486 C3487 1.362 . S
C3487 H3477 0.930 . S
C3487 C3480 1.409 . S
C3487 C3486 1.362 . S
H3488 C3494 0.930 . S
H3489 C3497 0.930 . S
H3490 C3498 0.930 . S
H3491 C3499 0.930 . S
H3492 C3502 0.930 . S
H3493 C3503 0.930 . S
C3494 H3488 0.930 . S
C3494 C3495 1.355 . S
C3494 C3496 1.415 . S
C3495 C3494 1.355 . S
C3495 C3497 1.419 . S
C3496 C3494 1.415 . S
C3496 C3501 1.425 . S
C3496 C3503 1.409 . S
C3497 H3489 0.930 . S
C3497 C3495 1.419 . S
C3497 C3498 1.362 . S
C3498 H3490 0.930 . S
C3498 C3497 1.362 . S
C3498 C3501 1.409 . S
C3499 H3491 0.930 . S
C3499 C3500 1.355 . S
C3499 C3501 1.415 . S
C3500 C3499 1.355 . S
C3500 C3502 1.419 . S
C3501 C3496 1.425 . S
C3501 C3498 1.409 . S
C3501 C3499 1.415 . S
C3502 H3492 0.930 . S
C3502 C3500 1.419 . S
C3502 C3503 1.362 . S
C3503 H3493 0.930 . S
C3503 C3496 1.409 . S
C3503 C3502 1.362 . S
H3504 C3510 0.930 . S
H3505 C3513 0.930 . S
H3506 C3514 0.930 . S
H3507 C3515 0.930 . S
H3508 C3518 0.930 . S
H3509 C3519 0.930 . S
C3510 H3504 0.930 . S
C3510 C3511 1.355 . S
C3510 C3512 1.415 . S
C3511 C3510 1.355 . S
C3511 C3513 1.419 . S
C3512 C3510 1.415 . S
C3512 C3517 1.425 . S
C3512 C3519 1.409 . S
C3513 H3505 0.930 . S
C3513 C3511 1.419 . S
C3513 C3514 1.362 . S
C3514 H3506 0.930 . S
C3514 C3513 1.362 . S
C3514 C3517 1.409 . S
C3515 H3507 0.930 . S
C3515 C3516 1.355 . S
C3515 C3517 1.415 . S
C3516 C3515 1.355 . S
C3516 C3518 1.419 . S
C3517 C3512 1.425 . S
C3517 C3514 1.409 . S
C3517 C3515 1.415 . S
C3518 H3508 0.930 . S
C3518 C3516 1.419 . S
C3518 C3519 1.362 . S
C3519 H3509 0.930 . S
C3519 C3512 1.409 . S
C3519 C3518 1.362 . S
H3520 C3526 0.930 . S
H3521 C3529 0.930 . S
H3522 C3530 0.930 . S
H3523 C3531 0.930 . S
H3524 C3534 0.930 . S
H3525 C3535 0.930 . S
C3526 H3520 0.930 . S
C3526 C3527 1.355 . S
C3526 C3528 1.415 . S
C3527 C3526 1.355 . S
C3527 C3529 1.419 . S
C3528 C3526 1.415 . S
C3528 C3533 1.425 . S
C3528 C3535 1.409 . S
C3529 H3521 0.930 . S
C3529 C3527 1.419 . S
C3529 C3530 1.362 . S
C3530 H3522 0.930 . S
C3530 C3529 1.362 . S
C3530 C3533 1.409 . S
C3531 H3523 0.930 . S
C3531 C3532 1.355 . S
C3531 C3533 1.415 . S
C3532 C3531 1.355 . S
C3532 C3534 1.419 . S
C3533 C3528 1.425 . S
C3533 C3530 1.409 . S
C3533 C3531 1.415 . S
C3534 H3524 0.930 . S
C3534 C3532 1.419 . S
C3534 C3535 1.362 . S
C3535 H3525 0.930 . S
C3535 C3528 1.409 . S
C3535 C3534 1.362 . S
H3536 C3542 0.930 . S
H3537 C3545 0.930 . S
H3538 C3546 0.930 . S
H3539 C3547 0.930 . S
H3540 C3550 0.930 . S
H3541 C3551 0.930 . S
C3542 H3536 0.930 . S
C3542 C3543 1.355 . S
C3542 C3544 1.415 . S
C3543 C3542 1.355 . S
C3543 C3545 1.419 . S
C3544 C3542 1.415 . S
C3544 C3549 1.425 . S
C3544 C3551 1.409 . S
C3545 H3537 0.930 . S
C3545 C3543 1.419 . S
C3545 C3546 1.362 . S
C3546 H3538 0.930 . S
C3546 C3545 1.362 . S
C3546 C3549 1.409 . S
C3547 H3539 0.930 . S
C3547 C3548 1.355 . S
C3547 C3549 1.415 . S
C3548 C3547 1.355 . S
C3548 C3550 1.419 . S
C3549 C3544 1.425 . S
C3549 C3546 1.409 . S
C3549 C3547 1.415 . S
C3550 H3540 0.930 . S
C3550 C3548 1.419 . S
C3550 C3551 1.362 . S
C3551 H3541 0.930 . S
C3551 C3544 1.409 . S
C3551 C3550 1.362 . S
H3552 C3558 0.930 . S
H3553 C3561 0.930 . S
H3554 C3562 0.930 . S
H3555 C3563 0.930 . S
H3556 C3566 0.930 . S
H3557 C3567 0.930 . S
C3558 H3552 0.930 . S
C3558 C3559 1.355 . S
C3558 C3560 1.415 . S
C3559 C3558 1.355 . S
C3559 C3561 1.419 . S
C3560 C3558 1.415 . S
C3560 C3565 1.425 . S
C3560 C3567 1.409 . S
C3561 H3553 0.930 . S
C3561 C3559 1.419 . S
C3561 C3562 1.362 . S
C3562 H3554 0.930 . S
C3562 C3561 1.362 . S
C3562 C3565 1.409 . S
C3563 H3555 0.930 . S
C3563 C3564 1.355 . S
C3563 C3565 1.415 . S
C3564 C3563 1.355 . S
C3564 C3566 1.419 . S
C3565 C3560 1.425 . S
C3565 C3562 1.409 . S
C3565 C3563 1.415 . S
C3566 H3556 0.930 . S
C3566 C3564 1.419 . S
C3566 C3567 1.362 . S
C3567 H3557 0.930 . S
C3567 C3560 1.409 . S
C3567 C3566 1.362 . S
H3568 C3574 0.930 . S
H3569 C3577 0.930 . S
H3570 C3578 0.930 . S
H3571 C3579 0.930 . S
H3572 C3582 0.930 . S
H3573 C3583 0.930 . S
C3574 H3568 0.930 . S
C3574 C3575 1.355 . S
C3574 C3576 1.415 . S
C3575 C3574 1.355 . S
C3575 C3577 1.419 . S
C3576 C3574 1.415 . S
C3576 C3581 1.425 . S
C3576 C3583 1.409 . S
C3577 H3569 0.930 . S
C3577 C3575 1.419 . S
C3577 C3578 1.362 . S
C3578 H3570 0.930 . S
C3578 C3577 1.362 . S
C3578 C3581 1.409 . S
C3579 H3571 0.930 . S
C3579 C3580 1.355 . S
C3579 C3581 1.415 . S
C3580 C3579 1.355 . S
C3580 C3582 1.419 . S
C3581 C3576 1.425 . S
C3581 C3578 1.409 . S
C3581 C3579 1.415 . S
C3582 H3572 0.930 . S
C3582 C3580 1.419 . S
C3582 C3583 1.362 . S
C3583 H3573 0.930 . S
C3583 C3576 1.409 . S
C3583 C3582 1.362 . S
H3584 C3590 0.930 . S
H3585 C3593 0.930 . S
H3586 C3594 0.930 . S
H3587 C3595 0.930 . S
H3588 C3598 0.930 . S
H3589 C3599 0.930 . S
C3590 H3584 0.930 . S
C3590 C3591 1.355 . S
C3590 C3592 1.415 . S
C3591 C3590 1.355 . S
C3591 C3593 1.419 1_455 S
C3592 C3590 1.415 . S
C3592 C3597 1.425 . S
C3592 C3599 1.409 . S
C3593 H3585 0.930 . S
C3593 C3591 1.419 1_655 S
C3593 C3594 1.362 . S
C3594 H3586 0.930 . S
C3594 C3593 1.362 . S
C3594 C3597 1.409 1_655 S
C3595 H3587 0.930 . S
C3595 C3596 1.355 . S
C3595 C3597 1.415 . S
C3596 C3595 1.355 . S
C3596 C3598 1.419 . S
C3597 C3592 1.425 . S
C3597 C3594 1.409 1_455 S
C3597 C3595 1.415 . S
C3598 H3588 0.930 . S
C3598 C3596 1.419 . S
C3598 C3599 1.362 . S
C3599 H3589 0.930 . S
C3599 C3592 1.409 . S
C3599 C3598 1.362 . S
H3600 C3606 0.930 . S
H3601 C3609 0.930 . S
H3602 C3610 0.930 . S
H3603 C3611 0.930 . S
H3604 C3614 0.930 . S
H3605 C3615 0.930 . S
C3606 H3600 0.930 . S
C3606 C3607 1.355 . S
C3606 C3608 1.415 . S
C3607 C3606 1.355 . S
C3607 C3609 1.419 . S
C3608 C3606 1.415 . S
C3608 C3613 1.425 . S
C3608 C3615 1.409 . S
C3609 H3601 0.930 . S
C3609 C3607 1.419 . S
C3609 C3610 1.362 . S
C3610 H3602 0.930 . S
C3610 C3609 1.362 . S
C3610 C3613 1.409 . S
C3611 H3603 0.930 . S
C3611 C3612 1.355 . S
C3611 C3613 1.415 . S
C3612 C3611 1.355 . S
C3612 C3614 1.419 . S
C3613 C3608 1.425 . S
C3613 C3610 1.409 . S
C3613 C3611 1.415 . S
C3614 H3604 0.930 . S
C3614 C3612 1.419 . S
C3614 C3615 1.362 . S
C3615 H3605 0.930 . S
C3615 C3608 1.409 . S
C3615 C3614 1.362 . S
H3616 C3622 0.930 . S
H3617 C3625 0.930 1_565 S
H3618 C3626 0.930 1_565 S
H3619 C3627 0.930 . S
H3620 C3630 0.930 . S
H3621 C3631 0.930 . S
C3622 H3616 0.930 . S
C3622 C3623 1.355 . S
C3622 C3624 1.415 . S
C3623 C3622 1.355 . S
C3623 C3625 1.419 . S
C3624 C3622 1.415 . S
C3624 C3629 1.425 . S
C3624 C3631 1.409 . S
C3625 H3617 0.930 1_545 S
C3625 C3623 1.419 . S
C3625 C3626 1.362 . S
C3626 H3618 0.930 1_545 S
C3626 C3625 1.362 . S
C3626 C3629 1.409 . S
C3627 H3619 0.930 . S
C3627 C3628 1.355 . S
C3627 C3629 1.415 . S
C3628 C3627 1.355 . S
C3628 C3630 1.419 . S
C3629 C3624 1.425 . S
C3629 C3626 1.409 . S
C3629 C3627 1.415 . S
C3630 H3620 0.930 . S
C3630 C3628 1.419 . S
C3630 C3631 1.362 . S
C3631 H3621 0.930 . S
C3631 C3624 1.409 . S
C3631 C3630 1.362 . S
H3632 C3638 0.930 . S
H3633 C3641 0.930 . S
H3634 C3642 0.930 . S
H3635 C3643 0.930 . S
H3636 C3646 0.930 . S
H3637 C3647 0.930 . S
C3638 H3632 0.930 . S
C3638 C3639 1.355 . S
C3638 C3640 1.415 . S
C3639 C3638 1.355 . S
C3639 C3641 1.419 . S
C3640 C3638 1.415 . S
C3640 C3645 1.425 . S
C3640 C3647 1.409 . S
C3641 H3633 0.930 . S
C3641 C3639 1.419 . S
C3641 C3642 1.362 . S
C3642 H3634 0.930 . S
C3642 C3641 1.362 . S
C3642 C3645 1.409 . S
C3643 H3635 0.930 . S
C3643 C3644 1.355 . S
C3643 C3645 1.415 . S
C3644 C3643 1.355 . S
C3644 C3646 1.419 . S
C3645 C3640 1.425 . S
C3645 C3642 1.409 . S
C3645 C3643 1.415 . S
C3646 H3636 0.930 . S
C3646 C3644 1.419 . S
C3646 C3647 1.362 . S
C3647 H3637 0.930 . S
C3647 C3640 1.409 . S
C3647 C3646 1.362 . S
H3648 C3654 0.930 . S
H3649 C3657 0.930 . S
H3650 C3658 0.930 . S
H3651 C3659 0.930 . S
H3652 C3662 0.930 . S
H3653 C3663 0.930 . S
C3654 H3648 0.930 . S
C3654 C3655 1.355 . S
C3654 C3656 1.415 . S
C3655 C3654 1.355 . S
C3655 C3657 1.419 . S
C3656 C3654 1.415 . S
C3656 C3661 1.425 . S
C3656 C3663 1.409 . S
C3657 H3649 0.930 . S
C3657 C3655 1.419 . S
C3657 C3658 1.362 . S
C3658 H3650 0.930 . S
C3658 C3657 1.362 . S
C3658 C3661 1.409 . S
C3659 H3651 0.930 . S
C3659 C3660 1.355 . S
C3659 C3661 1.415 . S
C3660 C3659 1.355 . S
C3660 C3662 1.419 . S
C3661 C3656 1.425 . S
C3661 C3658 1.409 . S
C3661 C3659 1.415 . S
C3662 H3652 0.930 . S
C3662 C3660 1.419 . S
C3662 C3663 1.362 . S
C3663 H3653 0.930 . S
C3663 C3656 1.409 . S
C3663 C3662 1.362 . S
H3664 C3670 0.930 . S
H3665 C3673 0.930 . S
H3666 C3674 0.930 . S
H3667 C3675 0.930 . S
H3668 C3678 0.930 . S
H3669 C3679 0.930 . S
C3670 H3664 0.930 . S
C3670 C3671 1.355 . S
C3670 C3672 1.415 . S
C3671 C3670 1.355 . S
C3671 C3673 1.419 . S
C3672 C3670 1.415 . S
C3672 C3677 1.425 . S
C3672 C3679 1.409 . S
C3673 H3665 0.930 . S
C3673 C3671 1.419 . S
C3673 C3674 1.362 . S
C3674 H3666 0.930 . S
C3674 C3673 1.362 . S
C3674 C3677 1.409 . S
C3675 H3667 0.930 . S
C3675 C3676 1.355 . S
C3675 C3677 1.415 . S
C3676 C3675 1.355 . S
C3676 C3678 1.419 . S
C3677 C3672 1.425 . S
C3677 C3674 1.409 . S
C3677 C3675 1.415 . S
C3678 H3668 0.930 . S
C3678 C3676 1.419 . S
C3678 C3679 1.362 . S
C3679 H3669 0.930 . S
C3679 C3672 1.409 . S
C3679 C3678 1.362 . S
H3680 C3686 0.930 . S
H3681 C3689 0.930 . S
H3682 C3690 0.930 . S
H3683 C3691 0.930 . S
H3684 C3694 0.930 . S
H3685 C3695 0.930 . S
C3686 H3680 0.930 . S
C3686 C3687 1.355 . S
C3686 C3688 1.415 . S
C3687 C3686 1.355 . S
C3687 C3689 1.419 . S
C3688 C3686 1.415 . S
C3688 C3693 1.425 . S
C3688 C3695 1.409 . S
C3689 H3681 0.930 . S
C3689 C3687 1.419 . S
C3689 C3690 1.362 . S
C3690 H3682 0.930 . S
C3690 C3689 1.362 . S
C3690 C3693 1.409 . S
C3691 H3683 0.930 . S
C3691 C3692 1.355 . S
C3691 C3693 1.415 . S
C3692 C3691 1.355 . S
C3692 C3694 1.419 . S
C3693 C3688 1.425 . S
C3693 C3690 1.409 . S
C3693 C3691 1.415 . S
C3694 H3684 0.930 . S
C3694 C3692 1.419 . S
C3694 C3695 1.362 . S
C3695 H3685 0.930 . S
C3695 C3688 1.409 . S
C3695 C3694 1.362 . S
H3696 C3702 0.930 . S
H3697 C3705 0.930 . S
H3698 C3706 0.930 . S
H3699 C3707 0.930 . S
H3700 C3710 0.930 . S
H3701 C3711 0.930 . S
C3702 H3696 0.930 . S
C3702 C3703 1.355 . S
C3702 C3704 1.415 . S
C3703 C3702 1.355 . S
C3703 C3705 1.419 . S
C3704 C3702 1.415 . S
C3704 C3709 1.425 . S
C3704 C3711 1.409 . S
C3705 H3697 0.930 . S
C3705 C3703 1.419 . S
C3705 C3706 1.362 . S
C3706 H3698 0.930 . S
C3706 C3705 1.362 . S
C3706 C3709 1.409 . S
C3707 H3699 0.930 . S
C3707 C3708 1.355 . S
C3707 C3709 1.415 . S
C3708 C3707 1.355 . S
C3708 C3710 1.419 . S
C3709 C3704 1.425 . S
C3709 C3706 1.409 . S
C3709 C3707 1.415 . S
C3710 H3700 0.930 . S
C3710 C3708 1.419 . S
C3710 C3711 1.362 . S
C3711 H3701 0.930 . S
C3711 C3704 1.409 . S
C3711 C3710 1.362 . S
H3712 C3718 0.930 . S
H3713 C3721 0.930 . S
H3714 C3722 0.930 . S
H3715 C3723 0.930 . S
H3716 C3726 0.930 . S
H3717 C3727 0.930 1_556 S
C3718 H3712 0.930 . S
C3718 C3719 1.355 1_545 S
C3718 C3720 1.415 . S
C3719 C3718 1.355 1_565 S
C3719 C3721 1.419 . S
C3720 C3718 1.415 . S
C3720 C3725 1.425 1_545 S
C3720 C3727 1.409 . S
C3721 H3713 0.930 . S
C3721 C3719 1.419 . S
C3721 C3722 1.362 . S
C3722 H3714 0.930 . S
C3722 C3721 1.362 . S
C3722 C3725 1.409 . S
C3723 H3715 0.930 . S
C3723 C3724 1.355 1_565 S
C3723 C3725 1.415 . S
C3724 C3723 1.355 1_545 S
C3724 C3726 1.419 . S
C3725 C3720 1.425 1_565 S
C3725 C3722 1.409 . S
C3725 C3723 1.415 . S
C3726 H3716 0.930 . S
C3726 C3724 1.419 . S
C3726 C3727 1.362 . S
C3727 H3717 0.930 1_554 S
C3727 C3720 1.409 . S
C3727 C3726 1.362 . S
H3728 C3734 0.930 . S
H3729 C3737 0.930 . S
H3730 C3738 0.930 . S
H3731 C3739 0.930 . S
H3732 C3742 0.930 . S
H3733 C3743 0.930 . S
C3734 H3728 0.930 . S
C3734 C3735 1.355 . S
C3734 C3736 1.415 . S
C3735 C3734 1.355 . S
C3735 C3737 1.419 . S
C3736 C3734 1.415 . S
C3736 C3741 1.425 . S
C3736 C3743 1.409 . S
C3737 H3729 0.930 . S
C3737 C3735 1.419 . S
C3737 C3738 1.362 . S
C3738 H3730 0.930 . S
C3738 C3737 1.362 . S
C3738 C3741 1.409 . S
C3739 H3731 0.930 . S
C3739 C3740 1.355 . S
C3739 C3741 1.415 . S
C3740 C3739 1.355 . S
C3740 C3742 1.419 . S
C3741 C3736 1.425 . S
C3741 C3738 1.409 . S
C3741 C3739 1.415 . S
C3742 H3732 0.930 . S
C3742 C3740 1.419 . S
C3742 C3743 1.362 . S
C3743 H3733 0.930 . S
C3743 C3736 1.409 . S
C3743 C3742 1.362 . S
H3744 C3750 0.930 . S
H3745 C3753 0.930 . S
H3746 C3754 0.930 . S
H3747 C3755 0.930 . S
H3748 C3758 0.930 . S
H3749 C3759 0.930 . S
C3750 H3744 0.930 . S
C3750 C3751 1.355 . S
C3750 C3752 1.415 . S
C3751 C3750 1.355 . S
C3751 C3753 1.419 . S
C3752 C3750 1.415 . S
C3752 C3757 1.425 . S
C3752 C3759 1.409 . S
C3753 H3745 0.930 . S
C3753 C3751 1.419 . S
C3753 C3754 1.362 . S
C3754 H3746 0.930 . S
C3754 C3753 1.362 . S
C3754 C3757 1.409 . S
C3755 H3747 0.930 . S
C3755 C3756 1.355 . S
C3755 C3757 1.415 . S
C3756 C3755 1.355 . S
C3756 C3758 1.419 . S
C3757 C3752 1.425 . S
C3757 C3754 1.409 . S
C3757 C3755 1.415 . S
C3758 H3748 0.930 . S
C3758 C3756 1.419 . S
C3758 C3759 1.362 . S
C3759 H3749 0.930 . S
C3759 C3752 1.409 . S
C3759 C3758 1.362 . S
H3760 C3766 0.930 . S
H3761 C3769 0.930 . S
H3762 C3770 0.930 . S
H3763 C3771 0.918 1_455 S
H3764 C3774 0.927 1_455 S
H3765 C3775 0.930 . S
C3766 H3760 0.930 . S
C3766 C3767 1.355 . S
C3766 C3768 1.415 . S
C3767 C3766 1.355 . S
C3767 C3769 1.419 . S
C3768 C3766 1.415 . S
C3768 C3773 1.425 . S
C3768 C3775 1.409 . S
C3769 H3761 0.930 . S
C3769 C3767 1.419 . S
C3769 C3770 1.362 . S
C3770 H3762 0.930 . S
C3770 C3769 1.362 . S
C3770 C3773 1.409 . S
C3771 H3763 0.918 1_655 S
C3771 C3772 1.342 1_655 S
C3771 C3773 1.439 . S
C3772 C3771 1.342 1_455 S
C3772 C3774 1.416 1_455 S
C3773 C3768 1.425 . S
C3773 C3770 1.409 . S
C3773 C3771 1.439 . S
C3774 H3764 0.927 1_655 S
C3774 C3772 1.416 1_655 S
C3774 C3775 1.368 . S
C3775 H3765 0.930 . S
C3775 C3768 1.409 . S
C3775 C3774 1.368 . S
H3776 C3782 0.930 . S
H3777 C3785 0.930 . S
H3778 C3786 0.930 . S
H3779 C3787 0.930 . S
H3780 C3790 0.930 . S
H3781 C3791 0.930 . S
C3782 H3776 0.930 . S
C3782 C3783 1.355 . S
C3782 C3784 1.415 . S
C3783 C3782 1.355 . S
C3783 C3785 1.419 . S
C3784 C3782 1.415 . S
C3784 C3789 1.425 . S
C3784 C3791 1.409 . S
C3785 H3777 0.930 . S
C3785 C3783 1.419 . S
C3785 C3786 1.362 . S
C3786 H3778 0.930 . S
C3786 C3785 1.362 . S
C3786 C3789 1.409 . S
C3787 H3779 0.930 . S
C3787 C3788 1.355 . S
C3787 C3789 1.415 . S
C3788 C3787 1.355 . S
C3788 C3790 1.419 . S
C3789 C3784 1.425 . S
C3789 C3786 1.409 . S
C3789 C3787 1.415 . S
C3790 H3780 0.930 . S
C3790 C3788 1.419 . S
C3790 C3791 1.362 . S
C3791 H3781 0.930 . S
C3791 C3784 1.409 . S
C3791 C3790 1.362 . S
H3792 C3798 0.930 . S
H3793 C3801 0.930 . S
H3794 C3802 0.930 . S
H3795 C3803 0.930 . S
H3796 C3806 0.930 . S
H3797 C3807 0.930 . S
C3798 H3792 0.930 . S
C3798 C3799 1.355 . S
C3798 C3800 1.415 . S
C3799 C3798 1.355 . S
C3799 C3801 1.419 . S
C3800 C3798 1.415 . S
C3800 C3805 1.425 . S
C3800 C3807 1.409 . S
C3801 H3793 0.930 . S
C3801 C3799 1.419 . S
C3801 C3802 1.362 . S
C3802 H3794 0.930 . S
C3802 C3801 1.362 . S
C3802 C3805 1.409 . S
C3803 H3795 0.930 . S
C3803 C3804 1.355 . S
C3803 C3805 1.415 . S
C3804 C3803 1.355 . S
C3804 C3806 1.419 . S
C3805 C3800 1.425 . S
C3805 C3802 1.409 . S
C3805 C3803 1.415 . S
C3806 H3796 0.930 . S
C3806 C3804 1.419 . S
C3806 C3807 1.362 . S
C3807 H3797 0.930 . S
C3807 C3800 1.409 . S
C3807 C3806 1.362 . S
H3808 C3814 0.930 . S
H3809 C3817 0.930 . S
H3810 C3818 0.930 . S
H3811 C3819 0.930 . S
H3812 C3822 0.930 . S
H3813 C3823 0.930 . S
C3814 H3808 0.930 . S
C3814 C3815 1.355 . S
C3814 C3816 1.415 . S
C3815 C3814 1.355 . S
C3815 C3817 1.419 . S
C3816 C3814 1.415 . S
C3816 C3821 1.425 . S
C3816 C3823 1.409 . S
C3817 H3809 0.930 . S
C3817 C3815 1.419 . S
C3817 C3818 1.362 . S
C3818 H3810 0.930 . S
C3818 C3817 1.362 . S
C3818 C3821 1.409 . S
C3819 H3811 0.930 . S
C3819 C3820 1.355 . S
C3819 C3821 1.415 . S
C3820 C3819 1.355 . S
C3820 C3822 1.419 . S
C3821 C3816 1.425 . S
C3821 C3818 1.409 . S
C3821 C3819 1.415 . S
C3822 H3812 0.930 . S
C3822 C3820 1.419 . S
C3822 C3823 1.362 . S
C3823 H3813 0.930 . S
C3823 C3816 1.409 . S
C3823 C3822 1.362 . S
H3824 C3830 0.930 . S
H3825 C3833 0.930 . S
H3826 C3834 0.930 . S
H3827 C3835 0.930 . S
H3828 C3838 0.930 . S
H3829 C3839 0.930 . S
C3830 H3824 0.930 . S
C3830 C3831 1.355 . S
C3830 C3832 1.415 . S
C3831 C3830 1.355 . S
C3831 C3833 1.419 . S
C3832 C3830 1.415 . S
C3832 C3837 1.425 . S
C3832 C3839 1.409 . S
C3833 H3825 0.930 . S
C3833 C3831 1.419 . S
C3833 C3834 1.362 . S
C3834 H3826 0.930 . S
C3834 C3833 1.362 . S
C3834 C3837 1.409 . S
C3835 H3827 0.930 . S
C3835 C3836 1.355 . S
C3835 C3837 1.415 . S
C3836 C3835 1.355 . S
C3836 C3838 1.419 . S
C3837 C3832 1.425 . S
C3837 C3834 1.409 . S
C3837 C3835 1.415 . S
C3838 H3828 0.930 . S
C3838 C3836 1.419 . S
C3838 C3839 1.362 . S
C3839 H3829 0.930 . S
C3839 C3832 1.409 . S
C3839 C3838 1.362 . S
H3840 C3846 0.930 . S
H3841 C3849 0.930 . S
H3842 C3850 0.930 . S
H3843 C3851 0.930 . S
H3844 C3854 0.930 . S
H3845 C3855 0.930 . S
C3846 H3840 0.930 . S
C3846 C3847 1.355 . S
C3846 C3848 1.415 . S
C3847 C3846 1.355 . S
C3847 C3849 1.419 . S
C3848 C3846 1.415 . S
C3848 C3853 1.425 . S
C3848 C3855 1.409 . S
C3849 H3841 0.930 . S
C3849 C3847 1.419 . S
C3849 C3850 1.362 . S
C3850 H3842 0.930 . S
C3850 C3849 1.362 . S
C3850 C3853 1.409 . S
C3851 H3843 0.930 . S
C3851 C3852 1.355 . S
C3851 C3853 1.415 . S
C3852 C3851 1.355 . S
C3852 C3854 1.419 . S
C3853 C3848 1.425 . S
C3853 C3850 1.409 . S
C3853 C3851 1.415 . S
C3854 H3844 0.930 . S
C3854 C3852 1.419 . S
C3854 C3855 1.362 . S
C3855 H3845 0.930 . S
C3855 C3848 1.409 . S
C3855 C3854 1.362 . S
H3856 C3862 0.930 . S
H3857 C3865 0.930 . S
H3858 C3866 0.930 . S
H3859 C3867 0.930 . S
H3860 C3870 0.930 . S
H3861 C3871 0.930 . S
C3862 H3856 0.930 . S
C3862 C3863 1.355 . S
C3862 C3864 1.415 . S
C3863 C3862 1.355 . S
C3863 C3865 1.419 . S
C3864 C3862 1.415 . S
C3864 C3869 1.425 . S
C3864 C3871 1.409 . S
C3865 H3857 0.930 . S
C3865 C3863 1.419 . S
C3865 C3866 1.362 . S
C3866 H3858 0.930 . S
C3866 C3865 1.362 . S
C3866 C3869 1.409 . S
C3867 H3859 0.930 . S
C3867 C3868 1.355 . S
C3867 C3869 1.415 . S
C3868 C3867 1.355 . S
C3868 C3870 1.419 . S
C3869 C3864 1.425 . S
C3869 C3866 1.409 . S
C3869 C3867 1.415 . S
C3870 H3860 0.930 . S
C3870 C3868 1.419 . S
C3870 C3871 1.362 . S
C3871 H3861 0.930 . S
C3871 C3864 1.409 . S
C3871 C3870 1.362 . S
H3872 C3878 0.930 . S
H3873 C3881 0.930 . S
H3874 C3882 0.930 . S
H3875 C3883 0.930 . S
H3876 C3886 0.930 . S
H3877 C3887 0.930 . S
C3878 H3872 0.930 . S
C3878 C3879 1.355 . S
C3878 C3880 1.415 . S
C3879 C3878 1.355 . S
C3879 C3881 1.419 . S
C3880 C3878 1.415 . S
C3880 C3885 1.425 . S
C3880 C3887 1.409 . S
C3881 H3873 0.930 . S
C3881 C3879 1.419 . S
C3881 C3882 1.362 . S
C3882 H3874 0.930 . S
C3882 C3881 1.362 . S
C3882 C3885 1.409 . S
C3883 H3875 0.930 . S
C3883 C3884 1.355 . S
C3883 C3885 1.415 . S
C3884 C3883 1.355 . S
C3884 C3886 1.419 . S
C3885 C3880 1.425 . S
C3885 C3882 1.409 . S
C3885 C3883 1.415 . S
C3886 H3876 0.930 . S
C3886 C3884 1.419 . S
C3886 C3887 1.362 . S
C3887 H3877 0.930 . S
C3887 C3880 1.409 . S
C3887 C3886 1.362 . S
H3888 C3894 0.930 . S
H3889 C3897 0.930 . S
H3890 C3898 0.930 . S
H3891 C3899 0.930 . S
H3892 C3902 0.930 . S
H3893 C3903 0.930 . S
C3894 H3888 0.930 . S
C3894 C3895 1.355 . S
C3894 C3896 1.415 . S
C3895 C3894 1.355 . S
C3895 C3897 1.419 . S
C3896 C3894 1.415 . S
C3896 C3901 1.425 . S
C3896 C3903 1.409 . S
C3897 H3889 0.930 . S
C3897 C3895 1.419 . S
C3897 C3898 1.362 . S
C3898 H3890 0.930 . S
C3898 C3897 1.362 . S
C3898 C3901 1.409 . S
C3899 H3891 0.930 . S
C3899 C3900 1.355 . S
C3899 C3901 1.415 . S
C3900 C3899 1.355 . S
C3900 C3902 1.419 . S
C3901 C3896 1.425 . S
C3901 C3898 1.409 . S
C3901 C3899 1.415 . S
C3902 H3892 0.930 . S
C3902 C3900 1.419 . S
C3902 C3903 1.362 . S
C3903 H3893 0.930 . S
C3903 C3896 1.409 . S
C3903 C3902 1.362 . S
H3904 C3910 0.930 . S
H3905 C3913 0.930 . S
H3906 C3914 0.930 . S
H3907 C3915 0.930 . S
H3908 C3918 0.930 . S
H3909 C3919 0.930 . S
C3910 H3904 0.930 . S
C3910 C3911 1.355 . S
C3910 C3912 1.415 . S
C3911 C3910 1.355 . S
C3911 C3913 1.419 . S
C3912 C3910 1.415 . S
C3912 C3917 1.425 . S
C3912 C3919 1.409 . S
C3913 H3905 0.930 . S
C3913 C3911 1.419 . S
C3913 C3914 1.362 . S
C3914 H3906 0.930 . S
C3914 C3913 1.362 . S
C3914 C3917 1.409 . S
C3915 H3907 0.930 . S
C3915 C3916 1.355 . S
C3915 C3917 1.415 . S
C3916 C3915 1.355 . S
C3916 C3918 1.419 . S
C3917 C3912 1.425 . S
C3917 C3914 1.409 . S
C3917 C3915 1.415 . S
C3918 H3908 0.930 . S
C3918 C3916 1.419 . S
C3918 C3919 1.362 . S
C3919 H3909 0.930 . S
C3919 C3912 1.409 . S
C3919 C3918 1.362 . S
H3920 C3926 0.930 . S
H3921 C3929 0.930 . S
H3922 C3930 0.930 . S
H3923 C3931 0.930 . S
H3924 C3934 0.930 . S
H3925 C3935 0.930 . S
C3926 H3920 0.930 . S
C3926 C3927 1.355 . S
C3926 C3928 1.415 . S
C3927 C3926 1.355 . S
C3927 C3929 1.419 . S
C3928 C3926 1.415 . S
C3928 C3933 1.425 . S
C3928 C3935 1.409 . S
C3929 H3921 0.930 . S
C3929 C3927 1.419 . S
C3929 C3930 1.362 . S
C3930 H3922 0.930 . S
C3930 C3929 1.362 . S
C3930 C3933 1.409 . S
C3931 H3923 0.930 . S
C3931 C3932 1.355 . S
C3931 C3933 1.415 . S
C3932 C3931 1.355 . S
C3932 C3934 1.419 . S
C3933 C3928 1.425 . S
C3933 C3930 1.409 . S
C3933 C3931 1.415 . S
C3934 H3924 0.930 . S
C3934 C3932 1.419 . S
C3934 C3935 1.362 . S
C3935 H3925 0.930 . S
C3935 C3928 1.409 . S
C3935 C3934 1.362 . S
H3936 C3942 0.930 . S
H3937 C3945 0.930 . S
H3938 C3946 0.930 . S
H3939 C3947 0.930 . S
H3940 C3950 0.930 1_545 S
H3941 C3951 0.915 1_554 S
C3942 H3936 0.930 . S
C3942 C3943 1.355 . S
C3942 C3944 1.415 . S
C3943 C3942 1.355 . S
C3943 C3945 1.419 . S
C3944 C3942 1.415 . S
C3944 C3949 1.425 . S
C3944 C3951 1.432 . S
C3945 H3937 0.930 . S
C3945 C3943 1.419 . S
C3945 C3946 1.362 . S
C3946 H3938 0.930 . S
C3946 C3945 1.362 . S
C3946 C3949 1.409 . S
C3947 H3939 0.930 . S
C3947 C3948 1.355 . S
C3947 C3949 1.415 . S
C3948 C3947 1.355 . S
C3948 C3950 1.419 1_556 S
C3949 C3944 1.425 . S
C3949 C3946 1.409 . S
C3949 C3947 1.415 . S
C3950 H3940 0.930 1_565 S
C3950 C3948 1.419 1_554 S
C3950 C3951 1.356 1_554 S
C3951 H3941 0.915 1_556 S
C3951 C3944 1.432 . S
C3951 C3950 1.356 1_556 S
H3952 C3958 0.930 . S
H3953 C3961 0.930 . S
H3954 C3962 0.930 . S
H3955 C3963 0.930 . S
H3956 C3966 0.930 . S
H3957 C3967 0.930 . S
C3958 H3952 0.930 . S
C3958 C3959 1.355 . S
C3958 C3960 1.415 . S
C3959 C3958 1.355 . S
C3959 C3961 1.419 . S
C3960 C3958 1.415 . S
C3960 C3965 1.425 . S
C3960 C3967 1.409 . S
C3961 H3953 0.930 . S
C3961 C3959 1.419 . S
C3961 C3962 1.362 . S
C3962 H3954 0.930 . S
C3962 C3961 1.362 . S
C3962 C3965 1.409 . S
C3963 H3955 0.930 . S
C3963 C3964 1.355 . S
C3963 C3965 1.415 . S
C3964 C3963 1.355 . S
C3964 C3966 1.419 . S
C3965 C3960 1.425 . S
C3965 C3962 1.409 . S
C3965 C3963 1.415 . S
C3966 H3956 0.930 . S
C3966 C3964 1.419 . S
C3966 C3967 1.362 . S
C3967 H3957 0.930 . S
C3967 C3960 1.409 . S
C3967 C3966 1.362 . S
H3968 C3974 0.930 . S
H3969 C3977 0.930 . S
H3970 C3978 0.930 . S
H3971 C3979 0.930 . S
H3972 C3982 0.936 . S
H3973 C3983 0.930 . S
C3974 H3968 0.930 . S
C3974 C3975 1.355 1_565 S
C3974 C3976 1.415 1_565 S
C3975 C3974 1.355 1_545 S
C3975 C3977 1.419 . S
C3976 C3974 1.415 1_545 S
C3976 C3981 1.425 . S
C3976 C3983 1.409 1_545 S
C3977 H3969 0.930 . S
C3977 C3975 1.419 . S
C3977 C3978 1.362 . S
C3978 H3970 0.930 . S
C3978 C3977 1.362 . S
C3978 C3981 1.409 . S
C3979 H3971 0.930 . S
C3979 C3980 1.355 . S
C3979 C3981 1.415 . S
C3980 C3979 1.355 . S
C3980 C3982 1.411 1_545 S
C3981 C3976 1.425 . S
C3981 C3978 1.409 . S
C3981 C3979 1.415 . S
C3982 H3972 0.936 . S
C3982 C3980 1.411 1_565 S
C3982 C3983 1.364 . S
C3983 H3973 0.930 . S
C3983 C3976 1.409 1_565 S
C3983 C3982 1.364 . S
H3984 C3990 0.930 . S
H3985 C3993 0.930 . S
H3986 C3994 0.930 . S
H3987 C3995 0.930 . S
H3988 C3998 0.930 . S
H3989 C3999 0.930 . S
C3990 H3984 0.930 . S
C3990 C3991 1.355 . S
C3990 C3992 1.415 . S
C3991 C3990 1.355 . S
C3991 C3993 1.419 . S
C3992 C3990 1.415 . S
C3992 C3997 1.425 . S
C3992 C3999 1.409 . S
C3993 H3985 0.930 . S
C3993 C3991 1.419 . S
C3993 C3994 1.362 . S
C3994 H3986 0.930 . S
C3994 C3993 1.362 . S
C3994 C3997 1.409 . S
C3995 H3987 0.930 . S
C3995 C3996 1.355 . S
C3995 C3997 1.415 . S
C3996 C3995 1.355 . S
C3996 C3998 1.419 . S
C3997 C3992 1.425 . S
C3997 C3994 1.409 . S
C3997 C3995 1.415 . S
C3998 H3988 0.930 . S
C3998 C3996 1.419 . S
C3998 C3999 1.362 . S
C3999 H3989 0.930 . S
C3999 C3992 1.409 . S
C3999 C3998 1.362 . S
H4000 C4006 0.930 . S
H4001 C4009 0.930 . S
H4002 C4010 0.930 . S
H4003 C4011 0.930 . S
H4004 C4014 0.930 . S
H4005 C4015 0.930 . S
C4006 H4000 0.930 . S
C4006 C4007 1.355 . S
C4006 C4008 1.415 . S
C4007 C4006 1.355 . S
C4007 C4009 1.419 . S
C4008 C4006 1.415 . S
C4008 C4013 1.425 . S
C4008 C4015 1.409 . S
C4009 H4001 0.930 . S
C4009 C4007 1.419 . S
C4009 C4010 1.362 . S
C4010 H4002 0.930 . S
C4010 C4009 1.362 . S
C4010 C4013 1.409 . S
C4011 H4003 0.930 . S
C4011 C4012 1.355 . S
C4011 C4013 1.415 . S
C4012 C4011 1.355 . S
C4012 C4014 1.419 . S
C4013 C4008 1.425 . S
C4013 C4010 1.409 . S
C4013 C4011 1.415 . S
C4014 H4004 0.930 . S
C4014 C4012 1.419 . S
C4014 C4015 1.362 . S
C4015 H4005 0.930 . S
C4015 C4008 1.409 . S
C4015 C4014 1.362 . S
H4016 C4022 0.930 . S
H4017 C4025 0.930 . S
H4018 C4026 0.930 . S
H4019 C4027 0.930 . S
H4020 C4030 0.930 . S
H4021 C4031 0.930 . S
C4022 H4016 0.930 . S
C4022 C4023 1.355 . S
C4022 C4024 1.415 . S
C4023 C4022 1.355 . S
C4023 C4025 1.419 . S
C4024 C4022 1.415 . S
C4024 C4029 1.425 . S
C4024 C4031 1.409 . S
C4025 H4017 0.930 . S
C4025 C4023 1.419 . S
C4025 C4026 1.362 . S
C4026 H4018 0.930 . S
C4026 C4025 1.362 . S
C4026 C4029 1.409 . S
C4027 H4019 0.930 . S
C4027 C4028 1.355 . S
C4027 C4029 1.415 . S
C4028 C4027 1.355 . S
C4028 C4030 1.419 . S
C4029 C4024 1.425 . S
C4029 C4026 1.409 . S
C4029 C4027 1.415 . S
C4030 H4020 0.930 . S
C4030 C4028 1.419 . S
C4030 C4031 1.362 . S
C4031 H4021 0.930 . S
C4031 C4024 1.409 . S
C4031 C4030 1.362 . S
H4032 C4038 0.930 . S
H4033 C4041 0.930 . S
H4034 C4042 0.930 . S
H4035 C4043 0.930 . S
H4036 C4046 0.930 . S
H4037 C4047 0.930 . S
C4038 H4032 0.930 . S
C4038 C4039 1.355 . S
C4038 C4040 1.415 . S
C4039 C4038 1.355 . S
C4039 C4041 1.419 1_565 S
C4040 C4038 1.415 . S
C4040 C4045 1.425 1_565 S
C4040 C4047 1.409 . S
C4041 H4033 0.930 . S
C4041 C4039 1.419 1_545 S
C4041 C4042 1.362 . S
C4042 H4034 0.930 . S
C4042 C4041 1.362 . S
C4042 C4045 1.409 . S
C4043 H4035 0.930 . S
C4043 C4044 1.355 . S
C4043 C4045 1.415 . S
C4044 C4043 1.355 . S
C4044 C4046 1.419 1_545 S
C4045 C4040 1.425 1_545 S
C4045 C4042 1.409 . S
C4045 C4043 1.415 . S
C4046 H4036 0.930 . S
C4046 C4044 1.419 1_565 S
C4046 C4047 1.362 . S
C4047 H4037 0.930 . S
C4047 C4040 1.409 . S
C4047 C4046 1.362 . S
H4048 C4054 0.930 . S
H4049 C4057 0.930 . S
H4050 C4058 0.930 . S
H4051 C4059 0.930 . S
H4052 C4062 0.930 . S
H4053 C4063 0.930 . S
C4054 H4048 0.930 . S
C4054 C4055 1.355 . S
C4054 C4056 1.415 . S
C4055 C4054 1.355 . S
C4055 C4057 1.419 . S
C4056 C4054 1.415 . S
C4056 C4061 1.425 . S
C4056 C4063 1.409 . S
C4057 H4049 0.930 . S
C4057 C4055 1.419 . S
C4057 C4058 1.362 . S
C4058 H4050 0.930 . S
C4058 C4057 1.362 . S
C4058 C4061 1.409 . S
C4059 H4051 0.930 . S
C4059 C4060 1.355 . S
C4059 C4061 1.415 . S
C4060 C4059 1.355 . S
C4060 C4062 1.419 . S
C4061 C4056 1.425 . S
C4061 C4058 1.409 . S
C4061 C4059 1.415 . S
C4062 H4052 0.930 . S
C4062 C4060 1.419 . S
C4062 C4063 1.362 . S
C4063 H4053 0.930 . S
C4063 C4056 1.409 . S
C4063 C4062 1.362 . S
H4064 C4070 0.930 . S
H4065 C4073 0.969 . S
H4066 C4074 0.930 . S
H4067 C4075 0.930 1_565 S
H4068 C4078 0.930 . S
H4069 C4079 0.930 . S
C4070 H4064 0.930 . S
C4070 C4071 1.355 . S
C4070 C4072 1.415 . S
C4071 C4070 1.355 . S
C4071 C4073 1.375 1_545 S
C4072 C4070 1.415 . S
C4072 C4077 1.425 . S
C4072 C4079 1.409 . S
C4073 H4065 0.969 . S
C4073 C4071 1.375 1_565 S
C4073 C4074 1.370 . S
C4074 H4066 0.930 . S
C4074 C4073 1.370 . S
C4074 C4077 1.409 1_565 S
C4075 H4067 0.930 1_545 S
C4075 C4076 1.355 . S
C4075 C4077 1.415 . S
C4076 C4075 1.355 . S
C4076 C4078 1.419 . S
C4077 C4072 1.425 . S
C4077 C4074 1.409 1_545 S
C4077 C4075 1.415 . S
C4078 H4068 0.930 . S
C4078 C4076 1.419 . S
C4078 C4079 1.362 . S
C4079 H4069 0.930 . S
C4079 C4072 1.409 . S
C4079 C4078 1.362 . S
H4080 C4086 0.930 . S
H4081 C4089 0.930 . S
H4082 C4090 0.930 . S
H4083 C4091 0.930 . S
H4084 C4094 0.930 . S
H4085 C4095 0.930 . S
C4086 H4080 0.930 . S
C4086 C4087 1.355 . S
C4086 C4088 1.415 . S
C4087 C4086 1.355 . S
C4087 C4089 1.419 . S
C4088 C4086 1.415 . S
C4088 C4093 1.425 . S
C4088 C4095 1.409 . S
C4089 H4081 0.930 . S
C4089 C4087 1.419 . S
C4089 C4090 1.362 . S
C4090 H4082 0.930 . S
C4090 C4089 1.362 . S
C4090 C4093 1.409 . S
C4091 H4083 0.930 . S
C4091 C4092 1.355 . S
C4091 C4093 1.415 . S
C4092 C4091 1.355 . S
C4092 C4094 1.419 . S
C4093 C4088 1.425 . S
C4093 C4090 1.409 . S
C4093 C4091 1.415 . S
C4094 H4084 0.930 . S
C4094 C4092 1.419 . S
C4094 C4095 1.362 . S
C4095 H4085 0.930 . S
C4095 C4088 1.409 . S
C4095 C4094 1.362 . S
H4096 C4102 0.930 . S
H4097 C4105 0.930 . S
H4098 C4106 0.930 . S
H4099 C4107 0.930 . S
H4100 C4110 0.930 . S
H4101 C4111 0.930 . S
C4102 H4096 0.930 . S
C4102 C4103 1.355 . S
C4102 C4104 1.415 . S
C4103 C4102 1.355 . S
C4103 C4105 1.419 . S
C4104 C4102 1.415 . S
C4104 C4109 1.425 . S
C4104 C4111 1.409 . S
C4105 H4097 0.930 . S
C4105 C4103 1.419 . S
C4105 C4106 1.362 . S
C4106 H4098 0.930 . S
C4106 C4105 1.362 . S
C4106 C4109 1.409 . S
C4107 H4099 0.930 . S
C4107 C4108 1.355 . S
C4107 C4109 1.415 . S
C4108 C4107 1.355 . S
C4108 C4110 1.419 . S
C4109 C4104 1.425 . S
C4109 C4106 1.409 . S
C4109 C4107 1.415 . S
C4110 H4100 0.930 . S
C4110 C4108 1.419 . S
C4110 C4111 1.362 . S
C4111 H4101 0.930 . S
C4111 C4104 1.409 . S
C4111 C4110 1.362 . S
H4112 C4118 0.930 . S
H4113 C4121 0.930 . S
H4114 C4122 0.930 . S
H4115 C4123 0.930 . S
H4116 C4126 0.930 . S
H4117 C4127 0.930 . S
C4118 H4112 0.930 . S
C4118 C4119 1.355 . S
C4118 C4120 1.415 . S
C4119 C4118 1.355 . S
C4119 C4121 1.419 . S
C4120 C4118 1.415 . S
C4120 C4125 1.425 . S
C4120 C4127 1.409 . S
C4121 H4113 0.930 . S
C4121 C4119 1.419 . S
C4121 C4122 1.362 . S
C4122 H4114 0.930 . S
C4122 C4121 1.362 . S
C4122 C4125 1.409 . S
C4123 H4115 0.930 . S
C4123 C4124 1.355 . S
C4123 C4125 1.415 . S
C4124 C4123 1.355 . S
C4124 C4126 1.419 . S
C4125 C4120 1.425 . S
C4125 C4122 1.409 . S
C4125 C4123 1.415 . S
C4126 H4116 0.930 . S
C4126 C4124 1.419 . S
C4126 C4127 1.362 . S
C4127 H4117 0.930 . S
C4127 C4120 1.409 . S
C4127 C4126 1.362 . S
H4128 C4134 0.930 . S
H4129 C4137 0.930 . S
H4130 C4138 0.930 . S
H4131 C4139 0.930 . S
H4132 C4142 0.930 . S
H4133 C4143 0.930 . S
C4134 H4128 0.930 . S
C4134 C4135 1.355 . S
C4134 C4136 1.415 . S
C4135 C4134 1.355 . S
C4135 C4137 1.419 . S
C4136 C4134 1.415 . S
C4136 C4141 1.425 . S
C4136 C4143 1.409 . S
C4137 H4129 0.930 . S
C4137 C4135 1.419 . S
C4137 C4138 1.362 . S
C4138 H4130 0.930 . S
C4138 C4137 1.362 . S
C4138 C4141 1.409 . S
C4139 H4131 0.930 . S
C4139 C4140 1.355 . S
C4139 C4141 1.415 . S
C4140 C4139 1.355 . S
C4140 C4142 1.419 . S
C4141 C4136 1.425 . S
C4141 C4138 1.409 . S
C4141 C4139 1.415 . S
C4142 H4132 0.930 . S
C4142 C4140 1.419 . S
C4142 C4143 1.362 . S
C4143 H4133 0.930 . S
C4143 C4136 1.409 . S
C4143 C4142 1.362 . S
H4144 C4150 0.930 . S
H4145 C4153 0.930 . S
H4146 C4154 0.930 . S
H4147 C4155 0.930 . S
H4148 C4158 0.930 . S
H4149 C4159 0.930 . S
C4150 H4144 0.930 . S
C4150 C4151 1.355 . S
C4150 C4152 1.415 . S
C4151 C4150 1.355 . S
C4151 C4153 1.419 . S
C4152 C4150 1.415 . S
C4152 C4157 1.425 . S
C4152 C4159 1.409 . S
C4153 H4145 0.930 . S
C4153 C4151 1.419 . S
C4153 C4154 1.362 . S
C4154 H4146 0.930 . S
C4154 C4153 1.362 . S
C4154 C4157 1.409 . S
C4155 H4147 0.930 . S
C4155 C4156 1.355 . S
C4155 C4157 1.415 . S
C4156 C4155 1.355 . S
C4156 C4158 1.419 . S
C4157 C4152 1.425 . S
C4157 C4154 1.409 . S
C4157 C4155 1.415 . S
C4158 H4148 0.930 . S
C4158 C4156 1.419 . S
C4158 C4159 1.362 . S
C4159 H4149 0.930 . S
C4159 C4152 1.409 . S
C4159 C4158 1.362 . S
H4160 C4166 0.930 . S
H4161 C4169 0.930 . S
H4162 C4170 0.930 . S
H4163 C4171 0.930 . S
H4164 C4174 0.930 . S
H4165 C4175 0.930 . S
C4166 H4160 0.930 . S
C4166 C4167 1.355 . S
C4166 C4168 1.415 . S
C4167 C4166 1.355 . S
C4167 C4169 1.419 . S
C4168 C4166 1.415 . S
C4168 C4173 1.425 . S
C4168 C4175 1.409 . S
C4169 H4161 0.930 . S
C4169 C4167 1.419 . S
C4169 C4170 1.362 . S
C4170 H4162 0.930 . S
C4170 C4169 1.362 . S
C4170 C4173 1.409 . S
C4171 H4163 0.930 . S
C4171 C4172 1.355 . S
C4171 C4173 1.415 . S
C4172 C4171 1.355 . S
C4172 C4174 1.419 . S
C4173 C4168 1.425 . S
C4173 C4170 1.409 . S
C4173 C4171 1.415 . S
C4174 H4164 0.930 . S
C4174 C4172 1.419 . S
C4174 C4175 1.362 . S
C4175 H4165 0.930 . S
C4175 C4168 1.409 . S
C4175 C4174 1.362 . S
H4176 C4182 0.930 . S
H4177 C4185 0.930 . S
H4178 C4186 0.930 . S
H4179 C4187 0.930 . S
H4180 C4190 0.930 . S
H4181 C4191 0.930 . S
C4182 H4176 0.930 . S
C4182 C4183 1.355 . S
C4182 C4184 1.415 . S
C4183 C4182 1.355 . S
C4183 C4185 1.419 . S
C4184 C4182 1.415 . S
C4184 C4189 1.425 . S
C4184 C4191 1.409 . S
C4185 H4177 0.930 . S
C4185 C4183 1.419 . S
C4185 C4186 1.362 . S
C4186 H4178 0.930 . S
C4186 C4185 1.362 . S
C4186 C4189 1.409 . S
C4187 H4179 0.930 . S
C4187 C4188 1.355 . S
C4187 C4189 1.415 . S
C4188 C4187 1.355 . S
C4188 C4190 1.419 . S
C4189 C4184 1.425 . S
C4189 C4186 1.409 . S
C4189 C4187 1.415 . S
C4190 H4180 0.930 . S
C4190 C4188 1.419 . S
C4190 C4191 1.362 . S
C4191 H4181 0.930 . S
C4191 C4184 1.409 . S
C4191 C4190 1.362 . S
H4192 C4198 0.930 . S
H4193 C4201 0.930 . S
H4194 C4202 0.930 . S
H4195 C4203 0.930 . S
H4196 C4206 0.930 . S
H4197 C4207 0.930 . S
C4198 H4192 0.930 . S
C4198 C4199 1.355 . S
C4198 C4200 1.415 . S
C4199 C4198 1.355 . S
C4199 C4201 1.419 . S
C4200 C4198 1.415 . S
C4200 C4205 1.425 . S
C4200 C4207 1.409 . S
C4201 H4193 0.930 . S
C4201 C4199 1.419 . S
C4201 C4202 1.362 . S
C4202 H4194 0.930 . S
C4202 C4201 1.362 . S
C4202 C4205 1.409 . S
C4203 H4195 0.930 . S
C4203 C4204 1.355 . S
C4203 C4205 1.415 . S
C4204 C4203 1.355 . S
C4204 C4206 1.419 . S
C4205 C4200 1.425 . S
C4205 C4202 1.409 . S
C4205 C4203 1.415 . S
C4206 H4196 0.930 . S
C4206 C4204 1.419 . S
C4206 C4207 1.362 . S
C4207 H4197 0.930 . S
C4207 C4200 1.409 . S
C4207 C4206 1.362 . S
H4208 C4214 0.930 . S
H4209 C4217 0.930 . S
H4210 C4218 0.930 . S
H4211 C4219 0.930 . S
H4212 C4222 0.930 . S
H4213 C4223 0.930 . S
C4214 H4208 0.930 . S
C4214 C4215 1.355 . S
C4214 C4216 1.415 . S
C4215 C4214 1.355 . S
C4215 C4217 1.419 . S
C4216 C4214 1.415 . S
C4216 C4221 1.425 . S
C4216 C4223 1.409 . S
C4217 H4209 0.930 . S
C4217 C4215 1.419 . S
C4217 C4218 1.362 . S
C4218 H4210 0.930 . S
C4218 C4217 1.362 . S
C4218 C4221 1.409 . S
C4219 H4211 0.930 . S
C4219 C4220 1.355 . S
C4219 C4221 1.415 . S
C4220 C4219 1.355 . S
C4220 C4222 1.419 . S
C4221 C4216 1.425 . S
C4221 C4218 1.409 . S
C4221 C4219 1.415 . S
C4222 H4212 0.930 . S
C4222 C4220 1.419 . S
C4222 C4223 1.362 . S
C4223 H4213 0.930 . S
C4223 C4216 1.409 . S
C4223 C4222 1.362 . S
H4224 C4230 0.930 . S
H4225 C4233 0.930 . S
H4226 C4234 0.930 . S
H4227 C4235 0.930 . S
H4228 C4238 0.930 . S
H4229 C4239 0.930 . S
C4230 H4224 0.930 . S
C4230 C4231 1.355 . S
C4230 C4232 1.415 . S
C4231 C4230 1.355 . S
C4231 C4233 1.419 . S
C4232 C4230 1.415 . S
C4232 C4237 1.425 . S
C4232 C4239 1.409 . S
C4233 H4225 0.930 . S
C4233 C4231 1.419 . S
C4233 C4234 1.362 . S
C4234 H4226 0.930 . S
C4234 C4233 1.362 . S
C4234 C4237 1.409 . S
C4235 H4227 0.930 . S
C4235 C4236 1.355 . S
C4235 C4237 1.415 . S
C4236 C4235 1.355 . S
C4236 C4238 1.419 . S
C4237 C4232 1.425 . S
C4237 C4234 1.409 . S
C4237 C4235 1.415 . S
C4238 H4228 0.930 . S
C4238 C4236 1.419 . S
C4238 C4239 1.362 . S
C4239 H4229 0.930 . S
C4239 C4232 1.409 . S
C4239 C4238 1.362 . S
H4240 C4246 0.930 . S
H4241 C4249 0.930 . S
H4242 C4250 0.930 . S
H4243 C4251 0.930 . S
H4244 C4254 0.930 . S
H4245 C4255 0.930 . S
C4246 H4240 0.930 . S
C4246 C4247 1.355 . S
C4246 C4248 1.415 . S
C4247 C4246 1.355 . S
C4247 C4249 1.419 . S
C4248 C4246 1.415 . S
C4248 C4253 1.425 . S
C4248 C4255 1.409 . S
C4249 H4241 0.930 . S
C4249 C4247 1.419 . S
C4249 C4250 1.362 . S
C4250 H4242 0.930 . S
C4250 C4249 1.362 . S
C4250 C4253 1.409 . S
C4251 H4243 0.930 . S
C4251 C4252 1.355 . S
C4251 C4253 1.415 . S
C4252 C4251 1.355 . S
C4252 C4254 1.419 . S
C4253 C4248 1.425 . S
C4253 C4250 1.409 . S
C4253 C4251 1.415 . S
C4254 H4244 0.930 . S
C4254 C4252 1.419 . S
C4254 C4255 1.362 . S
C4255 H4245 0.930 . S
C4255 C4248 1.409 . S
C4255 C4254 1.362 . S
H4256 C4262 0.930 1_556 S
H4257 C4265 0.930 . S
H4258 C4266 0.930 . S
H4259 C4267 0.930 . S
H4260 C4270 0.927 1_556 S
H4261 C4271 0.930 . S
C4262 H4256 0.930 1_554 S
C4262 C4263 1.355 . S
C4262 C4264 1.415 . S
C4263 C4262 1.355 . S
C4263 C4265 1.419 . S
C4264 C4262 1.415 . S
C4264 C4269 1.425 . S
C4264 C4271 1.409 1_554 S
C4265 H4257 0.930 . S
C4265 C4263 1.419 . S
C4265 C4266 1.362 . S
C4266 H4258 0.930 . S
C4266 C4265 1.362 . S
C4266 C4269 1.409 . S
C4267 H4259 0.930 . S
C4267 C4268 1.355 . S
C4267 C4269 1.415 . S
C4268 C4267 1.355 . S
C4268 C4270 1.422 . S
C4269 C4264 1.425 . S
C4269 C4266 1.409 . S
C4269 C4267 1.415 . S
C4270 H4260 0.927 1_554 S
C4270 C4268 1.422 . S
C4270 C4271 1.363 1_554 S
C4271 H4261 0.930 . S
C4271 C4264 1.409 1_556 S
C4271 C4270 1.363 1_556 S
H4272 C4278 0.930 . S
H4273 C4281 0.930 . S
H4274 C4282 0.930 . S
H4275 C4283 0.930 . S
H4276 C4286 0.930 . S
H4277 C4287 0.930 . S
C4278 H4272 0.930 . S
C4278 C4279 1.355 . S
C4278 C4280 1.415 . S
C4279 C4278 1.355 . S
C4279 C4281 1.419 . S
C4280 C4278 1.415 . S
C4280 C4285 1.425 . S
C4280 C4287 1.409 . S
C4281 H4273 0.930 . S
C4281 C4279 1.419 . S
C4281 C4282 1.362 . S
C4282 H4274 0.930 . S
C4282 C4281 1.362 . S
C4282 C4285 1.409 . S
C4283 H4275 0.930 . S
C4283 C4284 1.355 . S
C4283 C4285 1.415 . S
C4284 C4283 1.355 . S
C4284 C4286 1.419 . S
C4285 C4280 1.425 . S
C4285 C4282 1.409 . S
C4285 C4283 1.415 . S
C4286 H4276 0.930 . S
C4286 C4284 1.419 . S
C4286 C4287 1.362 . S
C4287 H4277 0.930 . S
C4287 C4280 1.409 . S
C4287 C4286 1.362 . S
H4288 C4294 0.930 . S
H4289 C4297 0.930 . S
H4290 C4298 0.930 . S
H4291 C4299 0.930 . S
H4292 C4302 0.930 . S
H4293 C4303 0.930 . S
C4294 H4288 0.930 . S
C4294 C4295 1.355 . S
C4294 C4296 1.415 . S
C4295 C4294 1.355 . S
C4295 C4297 1.419 . S
C4296 C4294 1.415 . S
C4296 C4301 1.425 . S
C4296 C4303 1.409 . S
C4297 H4289 0.930 . S
C4297 C4295 1.419 . S
C4297 C4298 1.362 . S
C4298 H4290 0.930 . S
C4298 C4297 1.362 . S
C4298 C4301 1.409 . S
C4299 H4291 0.930 . S
C4299 C4300 1.355 . S
C4299 C4301 1.415 . S
C4300 C4299 1.355 . S
C4300 C4302 1.419 . S
C4301 C4296 1.425 . S
C4301 C4298 1.409 . S
C4301 C4299 1.415 . S
C4302 H4292 0.930 . S
C4302 C4300 1.419 . S
C4302 C4303 1.362 . S
C4303 H4293 0.930 . S
C4303 C4296 1.409 . S
C4303 C4302 1.362 . S
H4304 C4310 0.930 . S
H4305 C4313 0.914 1_455 S
H4306 C4314 0.930 . S
H4307 C4315 0.930 . S
H4308 C4318 0.930 . S
H4309 C4319 0.930 . S
C4310 H4304 0.930 . S
C4310 C4311 1.355 . S
C4310 C4312 1.415 1_455 S
C4311 C4310 1.355 . S
C4311 C4313 1.419 1_455 S
C4312 C4310 1.415 1_655 S
C4312 C4317 1.425 . S
C4312 C4319 1.409 . S
C4313 H4305 0.914 1_655 S
C4313 C4311 1.419 1_655 S
C4313 C4314 1.362 . S
C4314 H4306 0.930 . S
C4314 C4313 1.362 . S
C4314 C4317 1.409 . S
C4315 H4307 0.930 . S
C4315 C4316 1.355 . S
C4315 C4317 1.415 . S
C4316 C4315 1.355 . S
C4316 C4318 1.419 . S
C4317 C4312 1.425 . S
C4317 C4314 1.409 . S
C4317 C4315 1.415 . S
C4318 H4308 0.930 . S
C4318 C4316 1.419 . S
C4318 C4319 1.362 . S
C4319 H4309 0.930 . S
C4319 C4312 1.409 . S
C4319 C4318 1.362 . S
H4320 C4326 0.930 . S
H4321 C4329 0.930 . S
H4322 C4330 0.930 . S
H4323 C4331 0.930 . S
H4324 C4334 0.930 . S
H4325 C4335 0.930 . S
C4326 H4320 0.930 . S
C4326 C4327 1.355 1_455 S
C4326 C4328 1.415 . S
C4327 C4326 1.355 1_655 S
C4327 C4329 1.419 . S
C4328 C4326 1.415 . S
C4328 C4333 1.425 . S
C4328 C4335 1.409 . S
C4329 H4321 0.930 . S
C4329 C4327 1.419 . S
C4329 C4330 1.362 . S
C4330 H4322 0.930 . S
C4330 C4329 1.362 . S
C4330 C4333 1.409 1_655 S
C4331 H4323 0.930 . S
C4331 C4332 1.355 . S
C4331 C4333 1.415 . S
C4332 C4331 1.355 . S
C4332 C4334 1.419 . S
C4333 C4328 1.425 . S
C4333 C4330 1.409 1_455 S
C4333 C4331 1.415 . S
C4334 H4324 0.930 . S
C4334 C4332 1.419 . S
C4334 C4335 1.362 . S
C4335 H4325 0.930 . S
C4335 C4328 1.409 . S
C4335 C4334 1.362 . S
H4336 C4342 0.930 . S
H4337 C4345 0.930 . S
H4338 C4346 0.930 . S
H4339 C4347 0.930 . S
H4340 C4350 0.930 . S
H4341 C4351 0.930 . S
C4342 H4336 0.930 . S
C4342 C4343 1.355 . S
C4342 C4344 1.415 . S
C4343 C4342 1.355 . S
C4343 C4345 1.419 . S
C4344 C4342 1.415 . S
C4344 C4349 1.425 . S
C4344 C4351 1.409 . S
C4345 H4337 0.930 . S
C4345 C4343 1.419 . S
C4345 C4346 1.362 . S
C4346 H4338 0.930 . S
C4346 C4345 1.362 . S
C4346 C4349 1.409 . S
C4347 H4339 0.930 . S
C4347 C4348 1.355 . S
C4347 C4349 1.415 . S
C4348 C4347 1.355 . S
C4348 C4350 1.419 . S
C4349 C4344 1.425 . S
C4349 C4346 1.409 . S
C4349 C4347 1.415 . S
C4350 H4340 0.930 . S
C4350 C4348 1.419 . S
C4350 C4351 1.362 . S
C4351 H4341 0.930 . S
C4351 C4344 1.409 . S
C4351 C4350 1.362 . S
H4352 C4358 0.930 . S
H4353 C4361 0.930 . S
H4354 C4362 0.930 . S
H4355 C4363 0.930 . S
H4356 C4366 0.930 . S
H4357 C4367 0.930 . S
C4358 H4352 0.930 . S
C4358 C4359 1.355 . S
C4358 C4360 1.415 . S
C4359 C4358 1.355 . S
C4359 C4361 1.419 . S
C4360 C4358 1.415 . S
C4360 C4365 1.425 . S
C4360 C4367 1.409 . S
C4361 H4353 0.930 . S
C4361 C4359 1.419 . S
C4361 C4362 1.362 . S
C4362 H4354 0.930 . S
C4362 C4361 1.362 . S
C4362 C4365 1.409 . S
C4363 H4355 0.930 . S
C4363 C4364 1.355 . S
C4363 C4365 1.415 . S
C4364 C4363 1.355 . S
C4364 C4366 1.419 . S
C4365 C4360 1.425 . S
C4365 C4362 1.409 . S
C4365 C4363 1.415 . S
C4366 H4356 0.930 . S
C4366 C4364 1.419 . S
C4366 C4367 1.362 . S
C4367 H4357 0.930 . S
C4367 C4360 1.409 . S
C4367 C4366 1.362 . S
H4368 C4374 0.930 . S
H4369 C4377 0.930 . S
H4370 C4378 0.930 . S
H4371 C4379 0.930 . S
H4372 C4382 0.930 . S
H4373 C4383 0.930 . S
C4374 H4368 0.930 . S
C4374 C4375 1.355 . S
C4374 C4376 1.415 . S
C4375 C4374 1.355 . S
C4375 C4377 1.419 . S
C4376 C4374 1.415 . S
C4376 C4381 1.425 . S
C4376 C4383 1.409 . S
C4377 H4369 0.930 . S
C4377 C4375 1.419 . S
C4377 C4378 1.362 . S
C4378 H4370 0.930 . S
C4378 C4377 1.362 . S
C4378 C4381 1.409 . S
C4379 H4371 0.930 . S
C4379 C4380 1.355 . S
C4379 C4381 1.415 . S
C4380 C4379 1.355 . S
C4380 C4382 1.419 . S
C4381 C4376 1.425 . S
C4381 C4378 1.409 . S
C4381 C4379 1.415 . S
C4382 H4372 0.930 . S
C4382 C4380 1.419 . S
C4382 C4383 1.362 . S
C4383 H4373 0.930 . S
C4383 C4376 1.409 . S
C4383 C4382 1.362 . S
H4384 C4390 0.930 . S
H4385 C4393 0.930 . S
H4386 C4394 0.930 . S
H4387 C4395 0.930 . S
H4388 C4398 0.930 . S
H4389 C4399 0.930 . S
C4390 H4384 0.930 . S
C4390 C4391 1.355 . S
C4390 C4392 1.415 . S
C4391 C4390 1.355 . S
C4391 C4393 1.419 . S
C4392 C4390 1.415 . S
C4392 C4397 1.425 . S
C4392 C4399 1.409 . S
C4393 H4385 0.930 . S
C4393 C4391 1.419 . S
C4393 C4394 1.362 . S
C4394 H4386 0.930 . S
C4394 C4393 1.362 . S
C4394 C4397 1.409 . S
C4395 H4387 0.930 . S
C4395 C4396 1.355 . S
C4395 C4397 1.415 . S
C4396 C4395 1.355 . S
C4396 C4398 1.419 . S
C4397 C4392 1.425 . S
C4397 C4394 1.409 . S
C4397 C4395 1.415 . S
C4398 H4388 0.930 . S
C4398 C4396 1.419 . S
C4398 C4399 1.362 . S
C4399 H4389 0.930 . S
C4399 C4392 1.409 . S
C4399 C4398 1.362 . S
H4400 C4406 0.930 . S
H4401 C4409 0.930 . S
H4402 C4410 0.930 . S
H4403 C4411 0.930 . S
H4404 C4414 0.930 . S
H4405 C4415 0.930 . S
C4406 H4400 0.930 . S
C4406 C4407 1.355 . S
C4406 C4408 1.415 . S
C4407 C4406 1.355 . S
C4407 C4409 1.419 . S
C4408 C4406 1.415 . S
C4408 C4413 1.425 . S
C4408 C4415 1.409 . S
C4409 H4401 0.930 . S
C4409 C4407 1.419 . S
C4409 C4410 1.362 . S
C4410 H4402 0.930 . S
C4410 C4409 1.362 . S
C4410 C4413 1.409 . S
C4411 H4403 0.930 . S
C4411 C4412 1.355 . S
C4411 C4413 1.415 . S
C4412 C4411 1.355 . S
C4412 C4414 1.419 . S
C4413 C4408 1.425 . S
C4413 C4410 1.409 . S
C4413 C4411 1.415 . S
C4414 H4404 0.930 . S
C4414 C4412 1.419 . S
C4414 C4415 1.362 . S
C4415 H4405 0.930 . S
C4415 C4408 1.409 . S
C4415 C4414 1.362 . S
H4416 C4422 0.930 . S
H4417 C4425 0.930 . S
H4418 C4426 0.930 . S
H4419 C4427 0.930 . S
H4420 C4430 0.930 . S
H4421 C4431 0.930 . S
C4422 H4416 0.930 . S
C4422 C4423 1.355 . S
C4422 C4424 1.415 . S
C4423 C4422 1.355 . S
C4423 C4425 1.419 . S
C4424 C4422 1.415 . S
C4424 C4429 1.425 . S
C4424 C4431 1.409 . S
C4425 H4417 0.930 . S
C4425 C4423 1.419 . S
C4425 C4426 1.362 . S
C4426 H4418 0.930 . S
C4426 C4425 1.362 . S
C4426 C4429 1.409 . S
C4427 H4419 0.930 . S
C4427 C4428 1.355 . S
C4427 C4429 1.415 . S
C4428 C4427 1.355 . S
C4428 C4430 1.419 . S
C4429 C4424 1.425 . S
C4429 C4426 1.409 . S
C4429 C4427 1.415 . S
C4430 H4420 0.930 . S
C4430 C4428 1.419 . S
C4430 C4431 1.362 . S
C4431 H4421 0.930 . S
C4431 C4424 1.409 . S
C4431 C4430 1.362 . S
H4432 C4438 0.930 . S
H4433 C4441 0.930 . S
H4434 C4442 0.930 . S
H4435 C4443 0.930 . S
H4436 C4446 0.930 . S
H4437 C4447 0.930 . S
C4438 H4432 0.930 . S
C4438 C4439 1.355 . S
C4438 C4440 1.415 . S
C4439 C4438 1.355 . S
C4439 C4441 1.419 . S
C4440 C4438 1.415 . S
C4440 C4445 1.425 . S
C4440 C4447 1.409 . S
C4441 H4433 0.930 . S
C4441 C4439 1.419 . S
C4441 C4442 1.362 . S
C4442 H4434 0.930 . S
C4442 C4441 1.362 . S
C4442 C4445 1.409 . S
C4443 H4435 0.930 . S
C4443 C4444 1.355 . S
C4443 C4445 1.415 . S
C4444 C4443 1.355 . S
C4444 C4446 1.419 . S
C4445 C4440 1.425 . S
C4445 C4442 1.409 . S
C4445 C4443 1.415 . S
C4446 H4436 0.930 . S
C4446 C4444 1.419 . S
C4446 C4447 1.362 . S
C4447 H4437 0.930 . S
C4447 C4440 1.409 . S
C4447 C4446 1.362 . S
H4448 C4454 0.930 . S
H4449 C4457 0.930 . S
H4450 C4458 0.930 . S
H4451 C4459 0.930 . S
H4452 C4462 0.930 . S
H4453 C4463 0.930 . S
C4454 H4448 0.930 . S
C4454 C4455 1.355 . S
C4454 C4456 1.415 . S
C4455 C4454 1.355 . S
C4455 C4457 1.419 . S
C4456 C4454 1.415 . S
C4456 C4461 1.425 . S
C4456 C4463 1.409 . S
C4457 H4449 0.930 . S
C4457 C4455 1.419 . S
C4457 C4458 1.362 . S
C4458 H4450 0.930 . S
C4458 C4457 1.362 . S
C4458 C4461 1.409 . S
C4459 H4451 0.930 . S
C4459 C4460 1.355 . S
C4459 C4461 1.415 . S
C4460 C4459 1.355 . S
C4460 C4462 1.419 . S
C4461 C4456 1.425 . S
C4461 C4458 1.409 . S
C4461 C4459 1.415 . S
C4462 H4452 0.930 . S
C4462 C4460 1.419 . S
C4462 C4463 1.362 . S
C4463 H4453 0.930 . S
C4463 C4456 1.409 . S
C4463 C4462 1.362 . S
H4464 C4470 0.930 . S
H4465 C4473 0.930 . S
H4466 C4474 0.930 . S
H4467 C4475 0.930 . S
H4468 C4478 0.930 . S
H4469 C4479 0.930 . S
C4470 H4464 0.930 . S
C4470 C4471 1.355 . S
C4470 C4472 1.415 . S
C4471 C4470 1.355 . S
C4471 C4473 1.419 . S
C4472 C4470 1.415 . S
C4472 C4477 1.425 . S
C4472 C4479 1.409 . S
C4473 H4465 0.930 . S
C4473 C4471 1.419 . S
C4473 C4474 1.362 . S
C4474 H4466 0.930 . S
C4474 C4473 1.362 . S
C4474 C4477 1.409 . S
C4475 H4467 0.930 . S
C4475 C4476 1.355 . S
C4475 C4477 1.415 . S
C4476 C4475 1.355 . S
C4476 C4478 1.419 . S
C4477 C4472 1.425 . S
C4477 C4474 1.409 . S
C4477 C4475 1.415 . S
C4478 H4468 0.930 . S
C4478 C4476 1.419 . S
C4478 C4479 1.362 . S
C4479 H4469 0.930 . S
C4479 C4472 1.409 . S
C4479 C4478 1.362 . S
H4480 C4486 0.930 . S
H4481 C4489 0.930 . S
H4482 C4490 0.930 . S
H4483 C4491 0.930 . S
H4484 C4494 0.930 . S
H4485 C4495 0.930 . S
C4486 H4480 0.930 . S
C4486 C4487 1.355 . S
C4486 C4488 1.415 . S
C4487 C4486 1.355 . S
C4487 C4489 1.419 . S
C4488 C4486 1.415 . S
C4488 C4493 1.425 . S
C4488 C4495 1.409 . S
C4489 H4481 0.930 . S
C4489 C4487 1.419 . S
C4489 C4490 1.362 . S
C4490 H4482 0.930 . S
C4490 C4489 1.362 . S
C4490 C4493 1.409 . S
C4491 H4483 0.930 . S
C4491 C4492 1.355 . S
C4491 C4493 1.415 . S
C4492 C4491 1.355 . S
C4492 C4494 1.419 . S
C4493 C4488 1.425 . S
C4493 C4490 1.409 . S
C4493 C4491 1.415 . S
C4494 H4484 0.930 . S
C4494 C4492 1.419 . S
C4494 C4495 1.362 . S
C4495 H4485 0.930 . S
C4495 C4488 1.409 . S
C4495 C4494 1.362 . S
H4496 C4502 0.930 . S
H4497 C4505 0.930 . S
H4498 C4506 0.930 . S
H4499 C4507 0.930 . S
H4500 C4510 0.930 . S
H4501 C4511 0.930 . S
C4502 H4496 0.930 . S
C4502 C4503 1.355 . S
C4502 C4504 1.415 . S
C4503 C4502 1.355 . S
C4503 C4505 1.419 . S
C4504 C4502 1.415 . S
C4504 C4509 1.425 . S
C4504 C4511 1.409 . S
C4505 H4497 0.930 . S
C4505 C4503 1.419 . S
C4505 C4506 1.362 . S
C4506 H4498 0.930 . S
C4506 C4505 1.362 . S
C4506 C4509 1.409 . S
C4507 H4499 0.930 . S
C4507 C4508 1.355 . S
C4507 C4509 1.415 . S
C4508 C4507 1.355 . S
C4508 C4510 1.419 . S
C4509 C4504 1.425 . S
C4509 C4506 1.409 . S
C4509 C4507 1.415 . S
C4510 H4500 0.930 . S
C4510 C4508 1.419 . S
C4510 C4511 1.362 . S
C4511 H4501 0.930 . S
C4511 C4504 1.409 . S
C4511 C4510 1.362 . S
H4512 C4518 0.930 . S
H4513 C4521 0.930 . S
H4514 C4522 0.930 . S
H4515 C4523 0.930 . S
H4516 C4526 0.930 . S
H4517 C4527 0.930 . S
C4518 H4512 0.930 . S
C4518 C4519 1.355 . S
C4518 C4520 1.415 . S
C4519 C4518 1.355 . S
C4519 C4521 1.419 . S
C4520 C4518 1.415 . S
C4520 C4525 1.425 . S
C4520 C4527 1.409 . S
C4521 H4513 0.930 . S
C4521 C4519 1.419 . S
C4521 C4522 1.362 . S
C4522 H4514 0.930 . S
C4522 C4521 1.362 . S
C4522 C4525 1.409 . S
C4523 H4515 0.930 . S
C4523 C4524 1.355 . S
C4523 C4525 1.415 . S
C4524 C4523 1.355 . S
C4524 C4526 1.419 . S
C4525 C4520 1.425 . S
C4525 C4522 1.409 . S
C4525 C4523 1.415 . S
C4526 H4516 0.930 . S
C4526 C4524 1.419 . S
C4526 C4527 1.362 . S
C4527 H4517 0.930 . S
C4527 C4520 1.409 . S
C4527 C4526 1.362 . S
H4528 C4534 0.930 1_556 S
H4529 C4537 0.934 . S
H4530 C4538 0.930 . S
H4531 C4539 0.930 . S
H4532 C4542 0.930 . S
H4533 C4543 0.930 . S
C4534 H4528 0.930 1_554 S
C4534 C4535 1.355 . S
C4534 C4536 1.415 . S
C4535 C4534 1.355 . S
C4535 C4537 1.419 . S
C4536 C4534 1.415 . S
C4536 C4541 1.425 . S
C4536 C4543 1.409 1_554 S
C4537 H4529 0.934 . S
C4537 C4535 1.419 . S
C4537 C4538 1.362 . S
C4538 H4530 0.930 . S
C4538 C4537 1.362 . S
C4538 C4541 1.409 . S
C4539 H4531 0.930 . S
C4539 C4540 1.355 . S
C4539 C4541 1.415 . S
C4540 C4539 1.355 . S
C4540 C4542 1.419 1_554 S
C4541 C4536 1.425 . S
C4541 C4538 1.409 . S
C4541 C4539 1.415 . S
C4542 H4532 0.930 . S
C4542 C4540 1.419 1_556 S
C4542 C4543 1.362 . S
C4543 H4533 0.930 . S
C4543 C4536 1.409 1_556 S
C4543 C4542 1.362 . S
H4544 C4550 0.930 . S
H4545 C4553 0.930 . S
H4546 C4554 0.930 . S
H4547 C4555 0.930 . S
H4548 C4558 0.930 . S
H4549 C4559 0.930 . S
C4550 H4544 0.930 . S
C4550 C4551 1.355 . S
C4550 C4552 1.415 . S
C4551 C4550 1.355 . S
C4551 C4553 1.419 . S
C4552 C4550 1.415 . S
C4552 C4557 1.425 . S
C4552 C4559 1.409 . S
C4553 H4545 0.930 . S
C4553 C4551 1.419 . S
C4553 C4554 1.362 . S
C4554 H4546 0.930 . S
C4554 C4553 1.362 . S
C4554 C4557 1.409 . S
C4555 H4547 0.930 . S
C4555 C4556 1.355 . S
C4555 C4557 1.415 . S
C4556 C4555 1.355 . S
C4556 C4558 1.419 . S
C4557 C4552 1.425 . S
C4557 C4554 1.409 . S
C4557 C4555 1.415 . S
C4558 H4548 0.930 . S
C4558 C4556 1.419 . S
C4558 C4559 1.362 . S
C4559 H4549 0.930 . S
C4559 C4552 1.409 . S
C4559 C4558 1.362 . S
H4560 C4566 0.930 . S
H4561 C4569 0.930 . S
H4562 C4570 0.930 . S
H4563 C4571 0.938 . S
H4564 C4574 0.930 . S
H4565 C4575 0.930 . S
C4566 H4560 0.930 . S
C4566 C4567 1.355 1_554 S
C4566 C4568 1.415 . S
C4567 C4566 1.355 1_556 S
C4567 C4569 1.419 . S
C4568 C4566 1.415 . S
C4568 C4573 1.425 . S
C4568 C4575 1.409 . S
C4569 H4561 0.930 . S
C4569 C4567 1.419 . S
C4569 C4570 1.362 . S
C4570 H4562 0.930 . S
C4570 C4569 1.362 . S
C4570 C4573 1.409 1_556 S
C4571 H4563 0.938 . S
C4571 C4572 1.355 . S
C4571 C4573 1.415 . S
C4572 C4571 1.355 . S
C4572 C4574 1.419 . S
C4573 C4568 1.425 . S
C4573 C4570 1.409 1_554 S
C4573 C4571 1.415 . S
C4574 H4564 0.930 . S
C4574 C4572 1.419 . S
C4574 C4575 1.362 . S
C4575 H4565 0.930 . S
C4575 C4568 1.409 . S
C4575 C4574 1.362 . S
H4576 C4582 0.930 . S
H4577 C4585 0.930 . S
H4578 C4586 0.930 . S
H4579 C4587 0.930 . S
H4580 C4590 0.930 . S
H4581 C4591 0.930 . S
C4582 H4576 0.930 . S
C4582 C4583 1.355 . S
C4582 C4584 1.415 . S
C4583 C4582 1.355 . S
C4583 C4585 1.419 . S
C4584 C4582 1.415 . S
C4584 C4589 1.425 . S
C4584 C4591 1.409 . S
C4585 H4577 0.930 . S
C4585 C4583 1.419 . S
C4585 C4586 1.362 . S
C4586 H4578 0.930 . S
C4586 C4585 1.362 . S
C4586 C4589 1.409 . S
C4587 H4579 0.930 . S
C4587 C4588 1.355 . S
C4587 C4589 1.415 . S
C4588 C4587 1.355 . S
C4588 C4590 1.419 . S
C4589 C4584 1.425 . S
C4589 C4586 1.409 . S
C4589 C4587 1.415 . S
C4590 H4580 0.930 . S
C4590 C4588 1.419 . S
C4590 C4591 1.362 . S
C4591 H4581 0.930 . S
C4591 C4584 1.409 . S
C4591 C4590 1.362 . S
H4592 C4598 0.930 . S
H4593 C4601 0.930 . S
H4594 C4602 0.930 . S
H4595 C4603 0.930 . S
H4596 C4606 0.930 . S
H4597 C4607 0.930 . S
C4598 H4592 0.930 . S
C4598 C4599 1.355 . S
C4598 C4600 1.415 . S
C4599 C4598 1.355 . S
C4599 C4601 1.419 . S
C4600 C4598 1.415 . S
C4600 C4605 1.425 . S
C4600 C4607 1.409 . S
C4601 H4593 0.930 . S
C4601 C4599 1.419 . S
C4601 C4602 1.362 . S
C4602 H4594 0.930 . S
C4602 C4601 1.362 . S
C4602 C4605 1.409 . S
C4603 H4595 0.930 . S
C4603 C4604 1.355 . S
C4603 C4605 1.415 . S
C4604 C4603 1.355 . S
C4604 C4606 1.419 . S
C4605 C4600 1.425 . S
C4605 C4602 1.409 . S
C4605 C4603 1.415 . S
C4606 H4596 0.930 . S
C4606 C4604 1.419 . S
C4606 C4607 1.362 . S
C4607 H4597 0.930 . S
C4607 C4600 1.409 . S
C4607 C4606 1.362 . S
H4608 C4614 0.930 . S
H4609 C4617 0.930 . S
H4610 C4618 0.930 . S
H4611 C4619 0.930 . S
H4612 C4622 0.930 . S
H4613 C4623 0.930 . S
C4614 H4608 0.930 . S
C4614 C4615 1.355 . S
C4614 C4616 1.415 . S
C4615 C4614 1.355 . S
C4615 C4617 1.419 . S
C4616 C4614 1.415 . S
C4616 C4621 1.425 . S
C4616 C4623 1.409 . S
C4617 H4609 0.930 . S
C4617 C4615 1.419 . S
C4617 C4618 1.362 . S
C4618 H4610 0.930 . S
C4618 C4617 1.362 . S
C4618 C4621 1.409 . S
C4619 H4611 0.930 . S
C4619 C4620 1.355 . S
C4619 C4621 1.415 . S
C4620 C4619 1.355 . S
C4620 C4622 1.419 . S
C4621 C4616 1.425 . S
C4621 C4618 1.409 . S
C4621 C4619 1.415 . S
C4622 H4612 0.930 . S
C4622 C4620 1.419 . S
C4622 C4623 1.362 . S
C4623 H4613 0.930 . S
C4623 C4616 1.409 . S
C4623 C4622 1.362 . S
H4624 C4630 0.930 . S
H4625 C4633 0.930 . S
H4626 C4634 0.930 . S
H4627 C4635 0.930 . S
H4628 C4638 0.930 . S
H4629 C4639 0.930 . S
C4630 H4624 0.930 . S
C4630 C4631 1.355 . S
C4630 C4632 1.415 . S
C4631 C4630 1.355 . S
C4631 C4633 1.419 . S
C4632 C4630 1.415 . S
C4632 C4637 1.425 . S
C4632 C4639 1.409 . S
C4633 H4625 0.930 . S
C4633 C4631 1.419 . S
C4633 C4634 1.362 . S
C4634 H4626 0.930 . S
C4634 C4633 1.362 . S
C4634 C4637 1.409 . S
C4635 H4627 0.930 . S
C4635 C4636 1.355 . S
C4635 C4637 1.415 . S
C4636 C4635 1.355 . S
C4636 C4638 1.419 . S
C4637 C4632 1.425 . S
C4637 C4634 1.409 . S
C4637 C4635 1.415 . S
C4638 H4628 0.930 . S
C4638 C4636 1.419 . S
C4638 C4639 1.362 . S
C4639 H4629 0.930 . S
C4639 C4632 1.409 . S
C4639 C4638 1.362 . S
H4640 C4646 0.930 . S
H4641 C4649 0.930 . S
H4642 C4650 0.930 . S
H4643 C4651 0.930 . S
H4644 C4654 0.946 . S
H4645 C4655 0.930 1_556 S
C4646 H4640 0.930 . S
C4646 C4647 1.355 . S
C4646 C4648 1.415 . S
C4647 C4646 1.355 . S
C4647 C4649 1.419 . S
C4648 C4646 1.415 . S
C4648 C4653 1.425 . S
C4648 C4655 1.409 . S
C4649 H4641 0.930 . S
C4649 C4647 1.419 . S
C4649 C4650 1.362 . S
C4650 H4642 0.930 . S
C4650 C4649 1.362 . S
C4650 C4653 1.409 . S
C4651 H4643 0.930 . S
C4651 C4652 1.355 . S
C4651 C4653 1.415 . S
C4652 C4651 1.355 . S
C4652 C4654 1.419 . S
C4653 C4648 1.425 . S
C4653 C4650 1.409 . S
C4653 C4651 1.415 . S
C4654 H4644 0.946 . S
C4654 C4652 1.419 . S
C4654 C4655 1.362 . S
C4655 H4645 0.930 1_554 S
C4655 C4648 1.409 . S
C4655 C4654 1.362 . S
H4656 C4662 0.930 . S
H4657 C4665 0.930 . S
H4658 C4666 0.930 . S
H4659 C4667 0.930 . S
H4660 C4670 0.930 . S
H4661 C4671 0.930 . S
C4662 H4656 0.930 . S
C4662 C4663 1.355 . S
C4662 C4664 1.415 . S
C4663 C4662 1.355 . S
C4663 C4665 1.419 . S
C4664 C4662 1.415 . S
C4664 C4669 1.425 . S
C4664 C4671 1.409 . S
C4665 H4657 0.930 . S
C4665 C4663 1.419 . S
C4665 C4666 1.362 . S
C4666 H4658 0.930 . S
C4666 C4665 1.362 . S
C4666 C4669 1.409 . S
C4667 H4659 0.930 . S
C4667 C4668 1.355 . S
C4667 C4669 1.415 . S
C4668 C4667 1.355 . S
C4668 C4670 1.419 . S
C4669 C4664 1.425 . S
C4669 C4666 1.409 . S
C4669 C4667 1.415 . S
C4670 H4660 0.930 . S
C4670 C4668 1.419 . S
C4670 C4671 1.362 . S
C4671 H4661 0.930 . S
C4671 C4664 1.409 . S
C4671 C4670 1.362 . S
H4672 C4678 0.930 . S
H4673 C4681 0.930 . S
H4674 C4682 0.930 . S
H4675 C4683 0.930 . S
H4676 C4686 0.930 . S
H4677 C4687 0.930 . S
C4678 H4672 0.930 . S
C4678 C4679 1.355 . S
C4678 C4680 1.415 . S
C4679 C4678 1.355 . S
C4679 C4681 1.419 . S
C4680 C4678 1.415 . S
C4680 C4685 1.425 . S
C4680 C4687 1.409 . S
C4681 H4673 0.930 . S
C4681 C4679 1.419 . S
C4681 C4682 1.362 . S
C4682 H4674 0.930 . S
C4682 C4681 1.362 . S
C4682 C4685 1.409 . S
C4683 H4675 0.930 . S
C4683 C4684 1.355 . S
C4683 C4685 1.415 . S
C4684 C4683 1.355 . S
C4684 C4686 1.419 . S
C4685 C4680 1.425 . S
C4685 C4682 1.409 . S
C4685 C4683 1.415 . S
C4686 H4676 0.930 . S
C4686 C4684 1.419 . S
C4686 C4687 1.362 . S
C4687 H4677 0.930 . S
C4687 C4680 1.409 . S
C4687 C4686 1.362 . S
H4688 C4694 0.930 . S
H4689 C4697 0.930 . S
H4690 C4698 0.930 . S
H4691 C4699 0.930 . S
H4692 C4702 0.930 . S
H4693 C4703 0.930 . S
C4694 H4688 0.930 . S
C4694 C4695 1.355 . S
C4694 C4696 1.415 . S
C4695 C4694 1.355 . S
C4695 C4697 1.419 . S
C4696 C4694 1.415 . S
C4696 C4701 1.425 . S
C4696 C4703 1.409 . S
C4697 H4689 0.930 . S
C4697 C4695 1.419 . S
C4697 C4698 1.362 . S
C4698 H4690 0.930 . S
C4698 C4697 1.362 . S
C4698 C4701 1.409 . S
C4699 H4691 0.930 . S
C4699 C4700 1.355 . S
C4699 C4701 1.415 . S
C4700 C4699 1.355 . S
C4700 C4702 1.419 . S
C4701 C4696 1.425 . S
C4701 C4698 1.409 . S
C4701 C4699 1.415 . S
C4702 H4692 0.930 . S
C4702 C4700 1.419 . S
C4702 C4703 1.362 . S
C4703 H4693 0.930 . S
C4703 C4696 1.409 . S
C4703 C4702 1.362 . S
H4704 C4710 0.930 . S
H4705 C4713 0.930 . S
H4706 C4714 0.930 . S
H4707 C4715 0.930 . S
H4708 C4718 0.930 . S
H4709 C4719 0.930 . S
C4710 H4704 0.930 . S
C4710 C4711 1.355 . S
C4710 C4712 1.415 . S
C4711 C4710 1.355 . S
C4711 C4713 1.419 . S
C4712 C4710 1.415 . S
C4712 C4717 1.425 . S
C4712 C4719 1.409 . S
C4713 H4705 0.930 . S
C4713 C4711 1.419 . S
C4713 C4714 1.362 . S
C4714 H4706 0.930 . S
C4714 C4713 1.362 . S
C4714 C4717 1.409 . S
C4715 H4707 0.930 . S
C4715 C4716 1.355 . S
C4715 C4717 1.415 . S
C4716 C4715 1.355 . S
C4716 C4718 1.419 . S
C4717 C4712 1.425 . S
C4717 C4714 1.409 . S
C4717 C4715 1.415 . S
C4718 H4708 0.930 . S
C4718 C4716 1.419 . S
C4718 C4719 1.362 . S
C4719 H4709 0.930 . S
C4719 C4712 1.409 . S
C4719 C4718 1.362 . S
H4720 C4726 0.930 . S
H4721 C4729 0.930 . S
H4722 C4730 0.930 . S
H4723 C4731 0.930 . S
H4724 C4734 0.930 . S
H4725 C4735 0.930 . S
C4726 H4720 0.930 . S
C4726 C4727 1.355 . S
C4726 C4728 1.415 . S
C4727 C4726 1.355 . S
C4727 C4729 1.419 . S
C4728 C4726 1.415 . S
C4728 C4733 1.425 . S
C4728 C4735 1.409 . S
C4729 H4721 0.930 . S
C4729 C4727 1.419 . S
C4729 C4730 1.362 . S
C4730 H4722 0.930 . S
C4730 C4729 1.362 . S
C4730 C4733 1.409 . S
C4731 H4723 0.930 . S
C4731 C4732 1.355 . S
C4731 C4733 1.415 . S
C4732 C4731 1.355 . S
C4732 C4734 1.419 . S
C4733 C4728 1.425 . S
C4733 C4730 1.409 . S
C4733 C4731 1.415 . S
C4734 H4724 0.930 . S
C4734 C4732 1.419 . S
C4734 C4735 1.362 . S
C4735 H4725 0.930 . S
C4735 C4728 1.409 . S
C4735 C4734 1.362 . S
H4736 C4742 0.930 . S
H4737 C4745 0.930 . S
H4738 C4746 0.930 . S
H4739 C4747 0.930 . S
H4740 C4750 0.930 . S
H4741 C4751 0.930 . S
C4742 H4736 0.930 . S
C4742 C4743 1.355 . S
C4742 C4744 1.415 . S
C4743 C4742 1.355 . S
C4743 C4745 1.419 . S
C4744 C4742 1.415 . S
C4744 C4749 1.425 . S
C4744 C4751 1.409 . S
C4745 H4737 0.930 . S
C4745 C4743 1.419 . S
C4745 C4746 1.362 . S
C4746 H4738 0.930 . S
C4746 C4745 1.362 . S
C4746 C4749 1.409 . S
C4747 H4739 0.930 . S
C4747 C4748 1.355 . S
C4747 C4749 1.415 . S
C4748 C4747 1.355 . S
C4748 C4750 1.419 . S
C4749 C4744 1.425 . S
C4749 C4746 1.409 . S
C4749 C4747 1.415 . S
C4750 H4740 0.930 . S
C4750 C4748 1.419 . S
C4750 C4751 1.362 . S
C4751 H4741 0.930 . S
C4751 C4744 1.409 . S
C4751 C4750 1.362 . S
H4752 C4758 0.930 . S
H4753 C4761 0.930 . S
H4754 C4762 0.930 . S
H4755 C4763 0.930 . S
H4756 C4766 0.930 . S
H4757 C4767 0.930 . S
C4758 H4752 0.930 . S
C4758 C4759 1.355 . S
C4758 C4760 1.415 . S
C4759 C4758 1.355 . S
C4759 C4761 1.419 . S
C4760 C4758 1.415 . S
C4760 C4765 1.425 . S
C4760 C4767 1.409 . S
C4761 H4753 0.930 . S
C4761 C4759 1.419 . S
C4761 C4762 1.362 . S
C4762 H4754 0.930 . S
C4762 C4761 1.362 . S
C4762 C4765 1.409 . S
C4763 H4755 0.930 . S
C4763 C4764 1.355 . S
C4763 C4765 1.415 . S
C4764 C4763 1.355 . S
C4764 C4766 1.419 . S
C4765 C4760 1.425 . S
C4765 C4762 1.409 . S
C4765 C4763 1.415 . S
C4766 H4756 0.930 . S
C4766 C4764 1.419 . S
C4766 C4767 1.362 . S
C4767 H4757 0.930 . S
C4767 C4760 1.409 . S
C4767 C4766 1.362 . S
H4768 C4774 0.930 . S
H4769 C4777 0.930 . S
H4770 C4778 0.930 . S
H4771 C4779 0.930 . S
H4772 C4782 0.930 . S
H4773 C4783 0.930 . S
C4774 H4768 0.930 . S
C4774 C4775 1.355 1_455 S
C4774 C4776 1.415 . S
C4775 C4774 1.355 1_655 S
C4775 C4777 1.419 . S
C4776 C4774 1.415 . S
C4776 C4781 1.427 1_455 S
C4776 C4783 1.409 . S
C4777 H4769 0.930 . S
C4777 C4775 1.419 . S
C4777 C4778 1.362 . S
C4778 H4770 0.930 . S
C4778 C4777 1.362 . S
C4778 C4781 1.406 . S
C4779 H4771 0.930 . S
C4779 C4780 1.355 . S
C4779 C4781 1.416 1_455 S
C4780 C4779 1.355 . S
C4780 C4782 1.419 . S
C4781 C4776 1.427 1_655 S
C4781 C4778 1.406 . S
C4781 C4779 1.416 1_655 S
C4782 H4772 0.930 . S
C4782 C4780 1.419 . S
C4782 C4783 1.362 . S
C4783 H4773 0.930 . S
C4783 C4776 1.409 . S
C4783 C4782 1.362 . S
H4784 C4790 0.930 . S
H4785 C4793 0.930 . S
H4786 C4794 0.930 . S
H4787 C4795 0.930 . S
H4788 C4798 0.930 . S
H4789 C4799 0.930 . S
C4790 H4784 0.930 . S
C4790 C4791 1.355 . S
C4790 C4792 1.415 . S
C4791 C4790 1.355 . S
C4791 C4793 1.419 . S
C4792 C4790 1.415 . S
C4792 C4797 1.425 . S
C4792 C4799 1.409 . S
C4793 H4785 0.930 . S
C4793 C4791 1.419 . S
C4793 C4794 1.362 . S
C4794 H4786 0.930 . S
C4794 C4793 1.362 . S
C4794 C4797 1.409 . S
C4795 H4787 0.930 . S
C4795 C4796 1.355 . S
C4795 C4797 1.415 . S
C4796 C4795 1.355 . S
C4796 C4798 1.419 . S
C4797 C4792 1.425 . S
C4797 C4794 1.409 . S
C4797 C4795 1.415 . S
C4798 H4788 0.930 . S
C4798 C4796 1.419 . S
C4798 C4799 1.362 . S
C4799 H4789 0.930 . S
C4799 C4792 1.409 . S
C4799 C4798 1.362 . S
H4800 C4806 0.930 . S
H4801 C4809 0.930 . S
H4802 C4810 0.930 . S
H4803 C4811 0.930 . S
H4804 C4814 0.930 . S
H4805 C4815 0.930 . S
C4806 H4800 0.930 . S
C4806 C4807 1.355 . S
C4806 C4808 1.415 . S
C4807 C4806 1.355 . S
C4807 C4809 1.419 . S
C4808 C4806 1.415 . S
C4808 C4813 1.425 . S
C4808 C4815 1.409 . S
C4809 H4801 0.930 . S
C4809 C4807 1.419 . S
C4809 C4810 1.362 . S
C4810 H4802 0.930 . S
C4810 C4809 1.362 . S
C4810 C4813 1.409 . S
C4811 H4803 0.930 . S
C4811 C4812 1.355 . S
C4811 C4813 1.415 . S
C4812 C4811 1.355 . S
C4812 C4814 1.419 . S
C4813 C4808 1.425 . S
C4813 C4810 1.409 . S
C4813 C4811 1.415 . S
C4814 H4804 0.930 . S
C4814 C4812 1.419 . S
C4814 C4815 1.362 . S
C4815 H4805 0.930 . S
C4815 C4808 1.409 . S
C4815 C4814 1.362 . S
H4816 C4822 0.930 . S
H4817 C4825 0.930 . S
H4818 C4826 0.930 . S
H4819 C4827 0.930 . S
H4820 C4830 0.930 . S
H4821 C4831 0.930 . S
C4822 H4816 0.930 . S
C4822 C4823 1.355 . S
C4822 C4824 1.415 . S
C4823 C4822 1.355 . S
C4823 C4825 1.419 . S
C4824 C4822 1.415 . S
C4824 C4829 1.425 . S
C4824 C4831 1.409 . S
C4825 H4817 0.930 . S
C4825 C4823 1.419 . S
C4825 C4826 1.362 . S
C4826 H4818 0.930 . S
C4826 C4825 1.362 . S
C4826 C4829 1.409 . S
C4827 H4819 0.930 . S
C4827 C4828 1.355 . S
C4827 C4829 1.415 . S
C4828 C4827 1.355 . S
C4828 C4830 1.419 . S
C4829 C4824 1.425 . S
C4829 C4826 1.409 . S
C4829 C4827 1.415 . S
C4830 H4820 0.930 . S
C4830 C4828 1.419 . S
C4830 C4831 1.362 . S
C4831 H4821 0.930 . S
C4831 C4824 1.409 . S
C4831 C4830 1.362 . S
H4832 C4838 0.930 . S
H4833 C4841 0.930 1_455 S
H4834 C4842 0.930 . S
H4835 C4843 0.930 . S
H4836 C4846 0.930 . S
H4837 C4847 0.930 . S
C4838 H4832 0.930 . S
C4838 C4839 1.355 . S
C4838 C4840 1.415 . S
C4839 C4838 1.355 . S
C4839 C4841 1.419 . S
C4840 C4838 1.415 . S
C4840 C4845 1.425 . S
C4840 C4847 1.409 . S
C4841 H4833 0.930 1_655 S
C4841 C4839 1.419 . S
C4841 C4842 1.362 1_655 S
C4842 H4834 0.930 . S
C4842 C4841 1.362 1_455 S
C4842 C4845 1.409 1_455 S
C4843 H4835 0.930 . S
C4843 C4844 1.355 . S
C4843 C4845 1.415 1_455 S
C4844 C4843 1.355 . S
C4844 C4846 1.419 1_455 S
C4845 C4840 1.425 . S
C4845 C4842 1.409 1_655 S
C4845 C4843 1.415 1_655 S
C4846 H4836 0.930 . S
C4846 C4844 1.419 1_655 S
C4846 C4847 1.362 . S
C4847 H4837 0.930 . S
C4847 C4840 1.409 . S
C4847 C4846 1.362 . S
H4848 C4854 0.930 . S
H4849 C4857 0.930 . S
H4850 C4858 0.930 . S
H4851 C4859 0.930 . S
H4852 C4862 0.930 . S
H4853 C4863 0.930 . S
C4854 H4848 0.930 . S
C4854 C4855 1.355 . S
C4854 C4856 1.415 . S
C4855 C4854 1.355 . S
C4855 C4857 1.419 . S
C4856 C4854 1.415 . S
C4856 C4861 1.425 . S
C4856 C4863 1.409 . S
C4857 H4849 0.930 . S
C4857 C4855 1.419 . S
C4857 C4858 1.362 . S
C4858 H4850 0.930 . S
C4858 C4857 1.362 . S
C4858 C4861 1.409 . S
C4859 H4851 0.930 . S
C4859 C4860 1.355 . S
C4859 C4861 1.415 . S
C4860 C4859 1.355 . S
C4860 C4862 1.419 . S
C4861 C4856 1.425 . S
C4861 C4858 1.409 . S
C4861 C4859 1.415 . S
C4862 H4852 0.930 . S
C4862 C4860 1.419 . S
C4862 C4863 1.362 . S
C4863 H4853 0.930 . S
C4863 C4856 1.409 . S
C4863 C4862 1.362 . S
H4864 C4870 0.930 . S
H4865 C4873 0.930 . S
H4866 C4874 0.930 . S
H4867 C4875 0.930 . S
H4868 C4878 0.930 . S
H4869 C4879 0.930 . S
C4870 H4864 0.930 . S
C4870 C4871 1.355 . S
C4870 C4872 1.415 . S
C4871 C4870 1.355 . S
C4871 C4873 1.419 . S
C4872 C4870 1.415 . S
C4872 C4877 1.425 . S
C4872 C4879 1.409 . S
C4873 H4865 0.930 . S
C4873 C4871 1.419 . S
C4873 C4874 1.362 . S
C4874 H4866 0.930 . S
C4874 C4873 1.362 . S
C4874 C4877 1.409 . S
C4875 H4867 0.930 . S
C4875 C4876 1.355 . S
C4875 C4877 1.415 . S
C4876 C4875 1.355 . S
C4876 C4878 1.419 . S
C4877 C4872 1.425 . S
C4877 C4874 1.409 . S
C4877 C4875 1.415 . S
C4878 H4868 0.930 . S
C4878 C4876 1.419 . S
C4878 C4879 1.362 . S
C4879 H4869 0.930 . S
C4879 C4872 1.409 . S
C4879 C4878 1.362 . S
H4880 C4886 0.930 . S
H4881 C4889 0.930 . S
H4882 C4890 0.930 1_545 S
H4883 C4891 0.930 . S
H4884 C4894 0.930 1_455 S
H4885 C4895 0.930 . S
C4886 H4880 0.930 . S
C4886 C4887 1.355 . S
C4886 C4888 1.415 . S
C4887 C4886 1.355 . S
C4887 C4889 1.419 . S
C4888 C4886 1.415 . S
C4888 C4893 1.425 . S
C4888 C4895 1.409 . S
C4889 H4881 0.930 . S
C4889 C4887 1.419 . S
C4889 C4890 1.362 . S
C4890 H4882 0.930 1_565 S
C4890 C4889 1.362 . S
C4890 C4893 1.409 . S
C4891 H4883 0.930 . S
C4891 C4892 1.354 1_545 S
C4891 C4893 1.415 1_545 S
C4892 C4891 1.354 1_565 S
C4892 C4894 1.420 . S
C4893 C4888 1.425 . S
C4893 C4890 1.409 . S
C4893 C4891 1.415 1_565 S
C4894 H4884 0.930 1_655 S
C4894 C4892 1.420 . S
C4894 C4895 1.362 . S
C4895 H4885 0.930 . S
C4895 C4888 1.409 . S
C4895 C4894 1.362 . S
H4896 C4902 0.930 . S
H4897 C4905 0.930 . S
H4898 C4906 0.930 . S
H4899 C4907 0.930 . S
H4900 C4910 0.930 . S
H4901 C4911 0.930 . S
C4902 H4896 0.930 . S
C4902 C4903 1.355 . S
C4902 C4904 1.415 . S
C4903 C4902 1.355 . S
C4903 C4905 1.419 . S
C4904 C4902 1.415 . S
C4904 C4909 1.425 . S
C4904 C4911 1.409 . S
C4905 H4897 0.930 . S
C4905 C4903 1.419 . S
C4905 C4906 1.362 . S
C4906 H4898 0.930 . S
C4906 C4905 1.362 . S
C4906 C4909 1.409 . S
C4907 H4899 0.930 . S
C4907 C4908 1.355 . S
C4907 C4909 1.415 . S
C4908 C4907 1.355 . S
C4908 C4910 1.419 . S
C4909 C4904 1.425 . S
C4909 C4906 1.409 . S
C4909 C4907 1.415 . S
C4910 H4900 0.930 . S
C4910 C4908 1.419 . S
C4910 C4911 1.362 . S
C4911 H4901 0.930 . S
C4911 C4904 1.409 . S
C4911 C4910 1.362 . S
H4912 C4918 0.930 . S
H4913 C4921 0.930 . S
H4914 C4922 0.930 . S
H4915 C4923 0.930 . S
H4916 C4926 0.930 . S
H4917 C4927 0.930 . S
C4918 H4912 0.930 . S
C4918 C4919 1.355 1_556 S
C4918 C4920 1.415 1_556 S
C4919 C4918 1.355 1_554 S
C4919 C4921 1.419 . S
C4920 C4918 1.415 1_554 S
C4920 C4925 1.425 . S
C4920 C4927 1.409 1_554 S
C4921 H4913 0.930 . S
C4921 C4919 1.419 . S
C4921 C4922 1.362 . S
C4922 H4914 0.930 . S
C4922 C4921 1.362 . S
C4922 C4925 1.409 . S
C4923 H4915 0.930 . S
C4923 C4924 1.355 . S
C4923 C4925 1.415 . S
C4924 C4923 1.355 . S
C4924 C4926 1.419 1_554 S
C4925 C4920 1.425 . S
C4925 C4922 1.409 . S
C4925 C4923 1.415 . S
C4926 H4916 0.930 . S
C4926 C4924 1.419 1_556 S
C4926 C4927 1.362 . S
C4927 H4917 0.930 . S
C4927 C4920 1.409 1_556 S
C4927 C4926 1.362 . S
H4928 C4934 0.930 . S
H4929 C4937 0.930 . S
H4930 C4938 0.930 . S
H4931 C4939 0.930 . S
H4932 C4942 0.930 . S
H4933 C4943 0.930 . S
C4934 H4928 0.930 . S
C4934 C4935 1.355 . S
C4934 C4936 1.415 . S
C4935 C4934 1.355 . S
C4935 C4937 1.419 . S
C4936 C4934 1.415 . S
C4936 C4941 1.425 . S
C4936 C4943 1.409 . S
C4937 H4929 0.930 . S
C4937 C4935 1.419 . S
C4937 C4938 1.362 . S
C4938 H4930 0.930 . S
C4938 C4937 1.362 . S
C4938 C4941 1.409 . S
C4939 H4931 0.930 . S
C4939 C4940 1.355 . S
C4939 C4941 1.415 . S
C4940 C4939 1.355 . S
C4940 C4942 1.419 . S
C4941 C4936 1.425 . S
C4941 C4938 1.409 . S
C4941 C4939 1.415 . S
C4942 H4932 0.930 . S
C4942 C4940 1.419 . S
C4942 C4943 1.362 . S
C4943 H4933 0.930 . S
C4943 C4936 1.409 . S
C4943 C4942 1.362 . S
H4944 C4950 0.930 . S
H4945 C4953 0.930 . S
H4946 C4954 0.930 . S
H4947 C4955 0.930 . S
H4948 C4958 0.930 . S
H4949 C4959 0.930 1_556 S
C4950 H4944 0.930 . S
C4950 C4951 1.355 . S
C4950 C4952 1.415 . S
C4951 C4950 1.355 . S
C4951 C4953 1.419 . S
C4952 C4950 1.415 . S
C4952 C4957 1.425 . S
C4952 C4959 1.409 . S
C4953 H4945 0.930 . S
C4953 C4951 1.419 . S
C4953 C4954 1.362 . S
C4954 H4946 0.930 . S
C4954 C4953 1.362 . S
C4954 C4957 1.409 . S
C4955 H4947 0.930 . S
C4955 C4956 1.355 . S
C4955 C4957 1.415 . S
C4956 C4955 1.355 . S
C4956 C4958 1.419 1_554 S
C4957 C4952 1.425 . S
C4957 C4954 1.409 . S
C4957 C4955 1.415 . S
C4958 H4948 0.930 . S
C4958 C4956 1.419 1_556 S
C4958 C4959 1.362 1_556 S
C4959 H4949 0.930 1_554 S
C4959 C4952 1.409 . S
C4959 C4958 1.362 1_554 S
H4960 C4966 0.930 . S
H4961 C4969 0.930 . S
H4962 C4970 0.930 . S
H4963 C4971 0.930 . S
H4964 C4974 0.930 . S
H4965 C4975 0.930 . S
C4966 H4960 0.930 . S
C4966 C4967 1.355 . S
C4966 C4968 1.415 . S
C4967 C4966 1.355 . S
C4967 C4969 1.419 . S
C4968 C4966 1.415 . S
C4968 C4973 1.425 . S
C4968 C4975 1.409 . S
C4969 H4961 0.930 . S
C4969 C4967 1.419 . S
C4969 C4970 1.362 . S
C4970 H4962 0.930 . S
C4970 C4969 1.362 . S
C4970 C4973 1.409 . S
C4971 H4963 0.930 . S
C4971 C4972 1.355 . S
C4971 C4973 1.415 . S
C4972 C4971 1.355 . S
C4972 C4974 1.419 . S
C4973 C4968 1.425 . S
C4973 C4970 1.409 . S
C4973 C4971 1.415 . S
C4974 H4964 0.930 . S
C4974 C4972 1.419 . S
C4974 C4975 1.362 . S
C4975 H4965 0.930 . S
C4975 C4968 1.409 . S
C4975 C4974 1.362 . S
H4976 C4982 0.930 . S
H4977 C4985 0.930 . S
H4978 C4986 0.930 . S
H4979 C4987 0.930 . S
H4980 C4990 0.930 . S
H4981 C4991 0.930 . S
C4982 H4976 0.930 . S
C4982 C4983 1.355 . S
C4982 C4984 1.415 . S
C4983 C4982 1.355 . S
C4983 C4985 1.419 . S
C4984 C4982 1.415 . S
C4984 C4989 1.425 . S
C4984 C4991 1.409 . S
C4985 H4977 0.930 . S
C4985 C4983 1.419 . S
C4985 C4986 1.362 . S
C4986 H4978 0.930 . S
C4986 C4985 1.362 . S
C4986 C4989 1.409 . S
C4987 H4979 0.930 . S
C4987 C4988 1.355 . S
C4987 C4989 1.415 . S
C4988 C4987 1.355 . S
C4988 C4990 1.419 . S
C4989 C4984 1.425 . S
C4989 C4986 1.409 . S
C4989 C4987 1.415 . S
C4990 H4980 0.930 . S
C4990 C4988 1.419 . S
C4990 C4991 1.362 . S
C4991 H4981 0.930 . S
C4991 C4984 1.409 . S
C4991 C4990 1.362 . S
C3463 C665 1.821 1_554 S
C3468 C2168 1.741 . S
C3479 C381 2.179 . S
C3484 C2259 2.196 . S
C3495 C460 1.665 . S
C3500 C2336 1.754 . S
C3516 C2434 1.475 . S
C3511 C585 1.598 . S
C3527 C108 1.563 . S
C3532 C2518 1.547 . S
C3548 C2590 0.883 . S
C3543 C196 1.030 . S
C3564 C2679 1.043 . S
C3559 C313 1.060 . S
C3575 C49 1.392 . S
C3580 C2756 1.195 . S
C3596 C2175 1.988 . S
C3591 C1457 2.066 1_455 S
C3607 C1545 0.574 . S
C3612 C2266 0.740 . S
C3628 C2343 1.117 . S
C3623 C1721 1.182 . S
C3644 C2420 1.756 . S
C3639 C1113 1.800 . S
C3655 C1428 2.218 . S
C3660 C2504 2.097 . S
C3676 C2606 1.056 . S
C3671 C1516 1.129 . S
C3692 C2686 0.828 . S
C3687 C1692 0.718 . S
C3708 C2763 1.416 . S
C3703 C1085 1.560 . S
C3724 C2182 1.400 . S
C3719 C988 1.468 . S
C3735 C1817 1.952 . S
C3740 C2847 1.913 1_556 S
C3756 C2935 2.099 . S
C3751 C2081 2.305 . S
C3772 C3008 0.630 . S
C3767 C1993 0.490 . S
C3783 C761 0.871 . S
C3788 C2770 0.947 . S
C3799 C821 1.472 . S
C3804 C2350 1.431 . S
C3815 C2053 2.314 . S
C3820 C3099 2.219 . S
C3836 C3176 0.785 . S
C3831 C1868 0.678 . S
C3852 C2179 1.713 . S
C3847 C372 1.766 . S
C3868 C3194 2.174 . S
C3863 C645 2.199 . S
C3879 C577 1.717 . S
C3884 C2347 1.694 . S
C3895 C497 1.598 . S
C3900 C3094 1.511 . S
C3916 C2506 1.492 . S
C3911 C57 1.567 . S
C3927 C293 1.117 . S
C3932 C2938 1.056 . S
C3948 C2690 1.051 . S
C3943 C205 0.910 . S
C3964 C3271 1.196 . S
C3959 C145 1.364 . S
C3980 C2186 2.007 . S
C3975 C909 2.083 . S
C3996 C3178 0.690 . S
C3991 C1956 0.575 . S
C4007 C724 1.176 . S
C4012 C2354 1.154 . S
C4023 C1780 1.785 . S
C4028 C3103 1.764 . S
C4039 C937 2.175 . S
C4044 C2515 2.048 . S
C4060 C2931 1.071 . S
C4055 C1985 1.123 . S
C4071 C753 0.699 . S
C4076 C2674 0.779 . S
C4087 C1809 1.577 . S
C4092 C3278 1.415 . S
C4103 C1173 1.463 . S
C4108 C2170 1.321 1_554 S
C4119 C1105 1.938 . S
C4124 C2858 1.893 . S
C4135 C1633 2.303 . S
C4140 C2588 2.159 . S
C4151 C1553 0.468 . S
C4156 C3019 0.429 . S
C4172 C3262 0.944 . S
C4167 C1729 0.848 . S
C4183 C1340 1.436 . S
C4188 C2338 1.455 . S
C4204 C2438 2.250 . S
C4199 C1604 2.324 . S
C4220 C2263 0.757 . S
C4215 C1252 0.700 . S
C4231 C489 1.793 . S
C4236 C3344 1.756 . S
C4252 C3183 2.166 . S
C4247 C557 2.205 . S
C4263 C636 1.725 . S
C4268 C3428 1.701 . S
C4279 C409 1.600 1_655 S
C4284 C3106 1.455 . S
C4295 C284 1.582 . S
C4300 C2854 1.508 . S
C4316 C2926 0.927 . S
C4311 C20 1.082 . S
C4332 C3015 1.044 . S
C4327 C137 1.059 . S
C4348 C3260 1.182 . S
C4343 C225 1.370 . S
C4364 C3351 1.965 . S
C4359 C1641 2.085 . S
C4375 C1193 0.567 . S
C4380 C3190 0.712 . S
C4396 C3435 1.156 . S
C4391 C1289 1.178 . S
C4412 C3092 1.784 . S
C4407 C1377 1.781 . S
C4428 C2840 2.029 . S
C4423 C1613 2.170 . S
C4439 C1164 1.135 . S
C4444 C2942 1.012 . S
C4460 C3022 0.615 . S
C4455 C1261 0.690 . S
C4471 C1349 1.604 . S
C4476 C3267 1.482 . S
C4492 C3358 1.419 . S
C4487 C1965 1.502 . S
C4503 C849 1.952 . S
C4508 C2511 1.917 . S
C4524 C2599 2.132 . S
C4519 C929 2.310 . S
C4540 C2672 0.631 . S
C4535 C1017 0.472 1_545 S
C4556 C3274 0.930 . S
C4551 C1897 0.925 . S
C4567 C1789 1.482 . S
C4572 C3442 1.409 . S
C4588 C2427 2.226 . S
C4583 C900 2.300 . S
C4604 C2252 0.786 . S
C4599 C733 0.676 . S
C4615 C548 1.822 . S
C4620 C3355 1.726 . S
C4636 C2270 2.195 . S
C4631 C469 2.179 . S
C4647 C401 1.677 . S
C4652 C3439 1.752 . S
C4663 C673 1.603 . S
C4668 C2422 1.478 . S
C4679 C233 1.545 . S
C4684 C2842 1.534 . S
C4700 C2602 0.991 . S
C4695 C117 1.109 . S
C4711 C29 0.910 . S
C4716 C3026 1.049 . S
C4727 C321 1.368 . S
C4732 C2767 1.182 . S
C4748 C3362 1.958 . S
C4743 C2044 2.067 . S
C4759 C997 0.566 . S
C4764 C2254 0.523 . S
C4780 C3446 1.178 . S
C4775 C1877 1.165 . S
C4791 C812 1.737 . S
C4796 C2431 1.739 . S
C4807 C2073 2.180 . S
C4812 C2851 2.017 . S
C4828 C2595 1.000 . S
C4823 C1025 1.130 . S
C4839 C1905 0.720 . S
C4844 C3010 0.791 . S
C4860 C2774 1.421 . S
C4855 C841 1.584 . S
C4876 C3346 1.326 . S
C4871 C1525 1.484 . S
C4892 C2522 1.898 1_665 S
C4887 C1369 1.954 . S
C4903 C1465 2.301 . S
C4908 C2924 2.089 . S
C4924 C2683 0.438 . S
C4919 C1201 0.456 . S
C4935 C1281 0.898 . S
C4940 C2758 0.865 . S
C4951 C1076 1.482 . S
C4956 C3430 1.396 1_554 S
C4972 C3110 2.240 . S
C4967 C1437 2.298 . S
C4988 C3187 0.640 . S
C4983 C1701 0.749 . S
