# Generated by pormake.
# Topology gar, (4,6)-cn, num edge types: 1
# Building blocks:
#     Node 0, Type 0, BuildingBlock: TATPOV_clean_sbu_0, # of connection points: 4
#     Node 1, Type 0, BuildingBlock: TATPOV_clean_sbu_0, # of connection points: 4
#     Node 2, Type 0, BuildingBlock: TATPOV_clean_sbu_0, # of connection points: 4
#     Node 3, Type 0, BuildingBlock: TATPOV_clean_sbu_0, # of connection points: 4
#     Node 4, Type 0, BuildingBlock: TATPOV_clean_sbu_0, # of connection points: 4
#     Node 5, Type 0, BuildingBlock: TATPOV_clean_sbu_0, # of connection points: 4
#     Node 6, Type 0, BuildingBlock: TATPOV_clean_sbu_0, # of connection points: 4
#     Node 7, Type 0, BuildingBlock: TATPOV_clean_sbu_0, # of connection points: 4
#     Node 8, Type 0, BuildingBlock: TATPOV_clean_sbu_0, # of connection points: 4
#     Node 9, Type 0, BuildingBlock: TATPOV_clean_sbu_0, # of connection points: 4
#     Node 10, Type 0, BuildingBlock: TATPOV_clean_sbu_0, # of connection points: 4
#     Node 11, Type 0, BuildingBlock: TATPOV_clean_sbu_0, # of connection points: 4
#     Node 12, Type 0, BuildingBlock: TATPOV_clean_sbu_0, # of connection points: 4
#     Node 13, Type 0, BuildingBlock: TATPOV_clean_sbu_0, # of connection points: 4
#     Node 14, Type 0, BuildingBlock: TATPOV_clean_sbu_0, # of connection points: 4
#     Node 15, Type 0, BuildingBlock: TATPOV_clean_sbu_0, # of connection points: 4
#     Node 16, Type 0, BuildingBlock: TATPOV_clean_sbu_0, # of connection points: 4
#     Node 17, Type 0, BuildingBlock: TATPOV_clean_sbu_0, # of connection points: 4
#     Node 18, Type 0, BuildingBlock: TATPOV_clean_sbu_0, # of connection points: 4
#     Node 19, Type 0, BuildingBlock: TATPOV_clean_sbu_0, # of connection points: 4
#     Node 20, Type 0, BuildingBlock: TATPOV_clean_sbu_0, # of connection points: 4
#     Node 21, Type 0, BuildingBlock: TATPOV_clean_sbu_0, # of connection points: 4
#     Node 22, Type 0, BuildingBlock: TATPOV_clean_sbu_0, # of connection points: 4
#     Node 23, Type 0, BuildingBlock: TATPOV_clean_sbu_0, # of connection points: 4
#     Node 24, Type 1, BuildingBlock: BETGAK_clean_sbu_0, # of connection points: 6
#     Node 25, Type 1, BuildingBlock: BETGAK_clean_sbu_0, # of connection points: 6
#     Node 26, Type 1, BuildingBlock: BETGAK_clean_sbu_0, # of connection points: 6
#     Node 27, Type 1, BuildingBlock: BETGAK_clean_sbu_0, # of connection points: 6
#     Node 28, Type 1, BuildingBlock: BETGAK_clean_sbu_0, # of connection points: 6
#     Node 29, Type 1, BuildingBlock: BETGAK_clean_sbu_0, # of connection points: 6
#     Node 30, Type 1, BuildingBlock: BETGAK_clean_sbu_0, # of connection points: 6
#     Node 31, Type 1, BuildingBlock: BETGAK_clean_sbu_0, # of connection points: 6
#     Node 32, Type 1, BuildingBlock: BETGAK_clean_sbu_0, # of connection points: 6
#     Node 33, Type 1, BuildingBlock: BETGAK_clean_sbu_0, # of connection points: 6
#     Node 34, Type 1, BuildingBlock: BETGAK_clean_sbu_0, # of connection points: 6
#     Node 35, Type 1, BuildingBlock: BETGAK_clean_sbu_0, # of connection points: 6
#     Node 36, Type 1, BuildingBlock: BETGAK_clean_sbu_0, # of connection points: 6
#     Node 37, Type 1, BuildingBlock: BETGAK_clean_sbu_0, # of connection points: 6
#     Node 38, Type 1, BuildingBlock: BETGAK_clean_sbu_0, # of connection points: 6
#     Node 39, Type 1, BuildingBlock: BETGAK_clean_sbu_0, # of connection points: 6
#     Edge 40, Type (0, 1), BuildingBlock: MIFKUJ_clean_linker_0, # of connection points: 2
#     Edge 41, Type (0, 1), BuildingBlock: MIFKUJ_clean_linker_0, # of connection points: 2
#     Edge 42, Type (0, 1), BuildingBlock: MIFKUJ_clean_linker_0, # of connection points: 2
#     Edge 43, Type (0, 1), BuildingBlock: MIFKUJ_clean_linker_0, # of connection points: 2
#     Edge 44, Type (0, 1), BuildingBlock: MIFKUJ_clean_linker_0, # of connection points: 2
#     Edge 45, Type (0, 1), BuildingBlock: MIFKUJ_clean_linker_0, # of connection points: 2
#     Edge 46, Type (0, 1), BuildingBlock: MIFKUJ_clean_linker_0, # of connection points: 2
#     Edge 47, Type (0, 1), BuildingBlock: MIFKUJ_clean_linker_0, # of connection points: 2
#     Edge 48, Type (0, 1), BuildingBlock: MIFKUJ_clean_linker_0, # of connection points: 2
#     Edge 49, Type (0, 1), BuildingBlock: MIFKUJ_clean_linker_0, # of connection points: 2
#     Edge 50, Type (0, 1), BuildingBlock: MIFKUJ_clean_linker_0, # of connection points: 2
#     Edge 51, Type (0, 1), BuildingBlock: MIFKUJ_clean_linker_0, # of connection points: 2
#     Edge 52, Type (0, 1), BuildingBlock: MIFKUJ_clean_linker_0, # of connection points: 2
#     Edge 53, Type (0, 1), BuildingBlock: MIFKUJ_clean_linker_0, # of connection points: 2
#     Edge 54, Type (0, 1), BuildingBlock: MIFKUJ_clean_linker_0, # of connection points: 2
#     Edge 55, Type (0, 1), BuildingBlock: MIFKUJ_clean_linker_0, # of connection points: 2
#     Edge 56, Type (0, 1), BuildingBlock: MIFKUJ_clean_linker_0, # of connection points: 2
#     Edge 57, Type (0, 1), BuildingBlock: MIFKUJ_clean_linker_0, # of connection points: 2
#     Edge 58, Type (0, 1), BuildingBlock: MIFKUJ_clean_linker_0, # of connection points: 2
#     Edge 59, Type (0, 1), BuildingBlock: MIFKUJ_clean_linker_0, # of connection points: 2
#     Edge 60, Type (0, 1), BuildingBlock: MIFKUJ_clean_linker_0, # of connection points: 2
#     Edge 61, Type (0, 1), BuildingBlock: MIFKUJ_clean_linker_0, # of connection points: 2
#     Edge 62, Type (0, 1), BuildingBlock: MIFKUJ_clean_linker_0, # of connection points: 2
#     Edge 63, Type (0, 1), BuildingBlock: MIFKUJ_clean_linker_0, # of connection points: 2
#     Edge 64, Type (0, 1), BuildingBlock: MIFKUJ_clean_linker_0, # of connection points: 2
#     Edge 65, Type (0, 1), BuildingBlock: MIFKUJ_clean_linker_0, # of connection points: 2
#     Edge 66, Type (0, 1), BuildingBlock: MIFKUJ_clean_linker_0, # of connection points: 2
#     Edge 67, Type (0, 1), BuildingBlock: MIFKUJ_clean_linker_0, # of connection points: 2
#     Edge 68, Type (0, 1), BuildingBlock: MIFKUJ_clean_linker_0, # of connection points: 2
#     Edge 69, Type (0, 1), BuildingBlock: MIFKUJ_clean_linker_0, # of connection points: 2
#     Edge 70, Type (0, 1), BuildingBlock: MIFKUJ_clean_linker_0, # of connection points: 2
#     Edge 71, Type (0, 1), BuildingBlock: MIFKUJ_clean_linker_0, # of connection points: 2
#     Edge 72, Type (0, 1), BuildingBlock: MIFKUJ_clean_linker_0, # of connection points: 2
#     Edge 73, Type (0, 1), BuildingBlock: MIFKUJ_clean_linker_0, # of connection points: 2
#     Edge 74, Type (0, 1), BuildingBlock: MIFKUJ_clean_linker_0, # of connection points: 2
#     Edge 75, Type (0, 1), BuildingBlock: MIFKUJ_clean_linker_0, # of connection points: 2
#     Edge 76, Type (0, 1), BuildingBlock: MIFKUJ_clean_linker_0, # of connection points: 2
#     Edge 77, Type (0, 1), BuildingBlock: MIFKUJ_clean_linker_0, # of connection points: 2
#     Edge 78, Type (0, 1), BuildingBlock: MIFKUJ_clean_linker_0, # of connection points: 2
#     Edge 79, Type (0, 1), BuildingBlock: MIFKUJ_clean_linker_0, # of connection points: 2
#     Edge 80, Type (0, 1), BuildingBlock: MIFKUJ_clean_linker_0, # of connection points: 2
#     Edge 81, Type (0, 1), BuildingBlock: MIFKUJ_clean_linker_0, # of connection points: 2
#     Edge 82, Type (0, 1), BuildingBlock: MIFKUJ_clean_linker_0, # of connection points: 2
#     Edge 83, Type (0, 1), BuildingBlock: MIFKUJ_clean_linker_0, # of connection points: 2
#     Edge 84, Type (0, 1), BuildingBlock: MIFKUJ_clean_linker_0, # of connection points: 2
#     Edge 85, Type (0, 1), BuildingBlock: MIFKUJ_clean_linker_0, # of connection points: 2
#     Edge 86, Type (0, 1), BuildingBlock: MIFKUJ_clean_linker_0, # of connection points: 2
#     Edge 87, Type (0, 1), BuildingBlock: MIFKUJ_clean_linker_0, # of connection points: 2
#     Edge 88, Type (0, 1), BuildingBlock: MIFKUJ_clean_linker_0, # of connection points: 2
#     Edge 89, Type (0, 1), BuildingBlock: MIFKUJ_clean_linker_0, # of connection points: 2
#     Edge 90, Type (0, 1), BuildingBlock: MIFKUJ_clean_linker_0, # of connection points: 2
#     Edge 91, Type (0, 1), BuildingBlock: MIFKUJ_clean_linker_0, # of connection points: 2
#     Edge 92, Type (0, 1), BuildingBlock: MIFKUJ_clean_linker_0, # of connection points: 2
#     Edge 93, Type (0, 1), BuildingBlock: MIFKUJ_clean_linker_0, # of connection points: 2
#     Edge 94, Type (0, 1), BuildingBlock: MIFKUJ_clean_linker_0, # of connection points: 2
#     Edge 95, Type (0, 1), BuildingBlock: MIFKUJ_clean_linker_0, # of connection points: 2
#     Edge 96, Type (0, 1), BuildingBlock: MIFKUJ_clean_linker_0, # of connection points: 2
#     Edge 97, Type (0, 1), BuildingBlock: MIFKUJ_clean_linker_0, # of connection points: 2
#     Edge 98, Type (0, 1), BuildingBlock: MIFKUJ_clean_linker_0, # of connection points: 2
#     Edge 99, Type (0, 1), BuildingBlock: MIFKUJ_clean_linker_0, # of connection points: 2
#     Edge 100, Type (0, 1), BuildingBlock: MIFKUJ_clean_linker_0, # of connection points: 2
#     Edge 101, Type (0, 1), BuildingBlock: MIFKUJ_clean_linker_0, # of connection points: 2
#     Edge 102, Type (0, 1), BuildingBlock: MIFKUJ_clean_linker_0, # of connection points: 2
#     Edge 103, Type (0, 1), BuildingBlock: MIFKUJ_clean_linker_0, # of connection points: 2
#     Edge 104, Type (0, 1), BuildingBlock: MIFKUJ_clean_linker_0, # of connection points: 2
#     Edge 105, Type (0, 1), BuildingBlock: MIFKUJ_clean_linker_0, # of connection points: 2
#     Edge 106, Type (0, 1), BuildingBlock: MIFKUJ_clean_linker_0, # of connection points: 2
#     Edge 107, Type (0, 1), BuildingBlock: MIFKUJ_clean_linker_0, # of connection points: 2
#     Edge 108, Type (0, 1), BuildingBlock: MIFKUJ_clean_linker_0, # of connection points: 2
#     Edge 109, Type (0, 1), BuildingBlock: MIFKUJ_clean_linker_0, # of connection points: 2
#     Edge 110, Type (0, 1), BuildingBlock: MIFKUJ_clean_linker_0, # of connection points: 2
#     Edge 111, Type (0, 1), BuildingBlock: MIFKUJ_clean_linker_0, # of connection points: 2
#     Edge 112, Type (0, 1), BuildingBlock: MIFKUJ_clean_linker_0, # of connection points: 2
#     Edge 113, Type (0, 1), BuildingBlock: MIFKUJ_clean_linker_0, # of connection points: 2
#     Edge 114, Type (0, 1), BuildingBlock: MIFKUJ_clean_linker_0, # of connection points: 2
#     Edge 115, Type (0, 1), BuildingBlock: MIFKUJ_clean_linker_0, # of connection points: 2
#     Edge 116, Type (0, 1), BuildingBlock: MIFKUJ_clean_linker_0, # of connection points: 2
#     Edge 117, Type (0, 1), BuildingBlock: MIFKUJ_clean_linker_0, # of connection points: 2
#     Edge 118, Type (0, 1), BuildingBlock: MIFKUJ_clean_linker_0, # of connection points: 2
#     Edge 119, Type (0, 1), BuildingBlock: MIFKUJ_clean_linker_0, # of connection points: 2
#     Edge 120, Type (0, 1), BuildingBlock: MIFKUJ_clean_linker_0, # of connection points: 2
#     Edge 121, Type (0, 1), BuildingBlock: MIFKUJ_clean_linker_0, # of connection points: 2
#     Edge 122, Type (0, 1), BuildingBlock: MIFKUJ_clean_linker_0, # of connection points: 2
#     Edge 123, Type (0, 1), BuildingBlock: MIFKUJ_clean_linker_0, # of connection points: 2
#     Edge 124, Type (0, 1), BuildingBlock: MIFKUJ_clean_linker_0, # of connection points: 2
#     Edge 125, Type (0, 1), BuildingBlock: MIFKUJ_clean_linker_0, # of connection points: 2
#     Edge 126, Type (0, 1), BuildingBlock: MIFKUJ_clean_linker_0, # of connection points: 2
#     Edge 127, Type (0, 1), BuildingBlock: MIFKUJ_clean_linker_0, # of connection points: 2
#     Edge 128, Type (0, 1), BuildingBlock: MIFKUJ_clean_linker_0, # of connection points: 2
#     Edge 129, Type (0, 1), BuildingBlock: MIFKUJ_clean_linker_0, # of connection points: 2
#     Edge 130, Type (0, 1), BuildingBlock: MIFKUJ_clean_linker_0, # of connection points: 2
#     Edge 131, Type (0, 1), BuildingBlock: MIFKUJ_clean_linker_0, # of connection points: 2
#     Edge 132, Type (0, 1), BuildingBlock: MIFKUJ_clean_linker_0, # of connection points: 2
#     Edge 133, Type (0, 1), BuildingBlock: MIFKUJ_clean_linker_0, # of connection points: 2
#     Edge 134, Type (0, 1), BuildingBlock: MIFKUJ_clean_linker_0, # of connection points: 2
#     Edge 135, Type (0, 1), BuildingBlock: MIFKUJ_clean_linker_0, # of connection points: 2
# Relax obj value: 0.181
# Max RMSD: 0.293
# Mean RMSD: 0.171
data_MOF--net-gar--node1-TATPOV_clean_sbu_0--node2-BETGAK_clean_sbu_0--edge1-MIFKUJ_clean_linker_0
_symmetry_space_group_name_H-M    P1
_symmetry_Int_Tables_number       1
_symmetry_cell_setting            triclinic
loop_
_symmetry_equiv_pos_as_xyz
'x, y, z'
_cell_length_a     78.186646
_cell_length_b     73.160168
_cell_length_c     73.674489
_cell_angle_alpha  98.52716
_cell_angle_beta   95.549234
_cell_angle_gamma 104.34105
loop_
_atom_site_label
_atom_site_type_symbol
_atom_site_fract_x
_atom_site_fract_y
_atom_site_fract_z
_atom_type_partial_charge
Zn0 Zn 0.06731 0.32777 0.41189 0.0
Zn1 Zn 0.09551 0.32403 0.3946 0.0
O2 O 0.10259 0.35091 0.4096 0.0
O3 O 0.07562 0.35168 0.40018 0.0
O4 O 0.11563 0.32209 0.38029 0.0
O5 O 0.06412 0.29847 0.40685 0.0
O6 O 0.09306 0.30239 0.40923 0.0
C7 C 0.09172 0.36051 0.40581 0.0
C8 C 0.05779 0.30967 0.375 0.0
O9 O 0.07379 0.31887 0.37449 0.0
O10 O 0.05278 0.30674 0.3905 0.0
C11 C 0.11486 0.32425 0.36346 0.0
O12 O 0.10106 0.32877 0.35557 0.0
C13 C 0.07753 0.2919 0.40946 0.0
Zn14 Zn 0.99291 0.72628 0.67062 0.0
Zn15 Zn 0.99714 0.75456 0.64865 0.0
O16 O 0.9754 0.75651 0.66051 0.0
O17 O 0.97134 0.7336 0.67746 0.0
O18 O 1.00266 0.77699 0.63573 0.0
O19 O 0.01662 0.74023 0.68558 0.0
O20 O 0.01975 0.76067 0.66622 0.0
C21 C 0.96669 0.74714 0.67136 0.0
C22 C 0.99235 0.71342 0.63113 0.0
O23 O 0.9941 0.73084 0.62951 0.0
O24 O 0.99168 0.70839 0.64682 0.0
C25 C 0.99825 0.77715 0.61875 0.0
O26 O 0.98835 0.76142 0.60792 0.0
C27 C 0.02578 0.75467 0.68011 0.0
Zn28 Zn 0.55061 0.82421 0.90738 0.0
Zn29 Zn 0.59695 0.82313 0.88831 0.0
O30 O 0.60375 0.8505 0.90367 0.0
O31 O 0.57659 0.83716 0.90577 0.0
O32 O 0.61875 0.81836 0.87952 0.0
O33 O 0.55649 0.79959 0.91186 0.0
O34 O 0.58328 0.80094 0.90158 0.0
C35 C 0.58951 0.85208 0.90965 0.0
C36 C 0.56587 0.82163 0.86975 0.0
O37 O 0.58063 0.82173 0.86421 0.0
O38 O 0.5661 0.82473 0.88709 0.0
C39 C 0.62366 0.82869 0.86757 0.0
O40 O 0.61522 0.84152 0.8641 0.0
C41 C 0.56984 0.79274 0.9091 0.0
Zn42 Zn 0.49167 0.22606 0.16808 0.0
Zn43 Zn 0.49615 0.25525 0.14889 0.0
O44 O 0.4755 0.25754 0.16235 0.0
O45 O 0.47436 0.23651 0.18105 0.0
O46 O 0.49997 0.27737 0.13561 0.0
O47 O 0.51767 0.23518 0.17724 0.0
O48 O 0.51982 0.26111 0.16477 0.0
C49 C 0.46886 0.24972 0.17524 0.0
C50 C 0.48676 0.21359 0.12958 0.0
O51 O 0.49208 0.23146 0.12954 0.0
O52 O 0.48373 0.20751 0.14446 0.0
C53 C 0.50387 0.27651 0.11925 0.0
O54 O 0.50436 0.26003 0.10975 0.0
C55 C 0.52675 0.25112 0.17441 0.0
Zn56 Zn 0.09834 0.81017 0.09971 0.0
Zn57 Zn 0.07264 0.80458 0.12117 0.0
O58 O 0.06987 0.82817 0.10849 0.0
O59 O 0.09241 0.83354 0.09245 0.0
O60 O 0.05037 0.79818 0.13442 0.0
O61 O 0.0875 0.78397 0.08364 0.0
O62 O 0.06781 0.77919 0.103 0.0
C63 C 0.07879 0.83789 0.09777 0.0
C64 C 0.11234 0.81035 0.13776 0.0
O65 O 0.09592 0.80759 0.14027 0.0
O66 O 0.11663 0.81242 0.12188 0.0
C67 C 0.04492 0.80951 0.14592 0.0
O68 O 0.05461 0.82731 0.15121 0.0
C69 C 0.0744 0.77306 0.08893 0.0
Zn70 Zn 0.48968 0.7613 0.43104 0.0
Zn71 Zn 0.51241 0.76401 0.40723 0.0
O72 O 0.5193 0.79059 0.42406 0.0
O73 O 0.50288 0.78691 0.44656 0.0
O74 O 0.534 0.7661 0.39258 0.0
O75 O 0.49296 0.73717 0.4386 0.0
O76 O 0.51417 0.74057 0.42086 0.0
C77 C 0.51475 0.79733 0.43925 0.0
C78 C 0.47279 0.76167 0.39415 0.0
O79 O 0.48833 0.76215 0.38955 0.0
O80 O 0.47027 0.76086 0.41078 0.0
C81 C 0.54133 0.78066 0.38574 0.0
O82 O 0.53388 0.79493 0.38615 0.0
C83 C 0.50567 0.73163 0.43236 0.0
Zn84 Zn 0.59946 0.31092 0.60223 0.0
Zn85 Zn 0.57347 0.30585 0.6236 0.0
O86 O 0.57084 0.32912 0.61015 0.0
O87 O 0.59347 0.33406 0.59424 0.0
O88 O 0.55233 0.30123 0.63873 0.0
O89 O 0.5882 0.28426 0.58706 0.0
O90 O 0.56833 0.27974 0.60634 0.0
C91 C 0.5798 0.33856 0.59927 0.0
C92 C 0.61329 0.31148 0.6401 0.0
O93 O 0.59683 0.30884 0.64225 0.0
O94 O 0.61805 0.31342 0.6244 0.0
C95 C 0.53698 0.30209 0.63187 0.0
O96 O 0.53509 0.30676 0.61539 0.0
C97 C 0.57517 0.2734 0.59254 0.0
Zn98 Zn 0.98862 0.25793 0.92945 0.0
Zn99 Zn 0.01345 0.26328 0.9083 0.0
O100 O 0.01895 0.28926 0.92647 0.0
O101 O 0.9981 0.28404 0.94455 0.0
O102 O 0.03451 0.26693 0.89265 0.0
O103 O 0.99428 0.23572 0.93875 0.0
O104 O 0.01563 0.23946 0.92114 0.0
C105 C 0.01135 0.29523 0.93984 0.0
C106 C 0.97352 0.25888 0.89324 0.0
O107 O 0.98979 0.26149 0.89031 0.0
O108 O 0.96931 0.25568 0.90885 0.0
C109 C 0.04938 0.27944 0.89863 0.0
O110 O 0.0512 0.29036 0.91491 0.0
C111 C 0.00739 0.23069 0.93291 0.0
Zn112 Zn 0.4533 0.01469 0.27226 0.0
Zn113 Zn 0.4338 0.03624 0.2783 0.0
O114 O 0.44438 0.0357 0.30445 0.0
O115 O 0.45565 0.01114 0.29803 0.0
O116 O 0.41982 0.05531 0.28033 0.0
O117 O 0.4723 0.03366 0.26379 0.0
O118 O 0.44883 0.04409 0.2585 0.0
C119 C 0.45151 0.02317 0.30971 0.0
C120 C 0.41801 0.99707 0.25678 0.0
O121 O 0.4159 0.01142 0.26739 0.0
O122 O 0.43352 0.99588 0.25433 0.0
C123 C 0.40303 0.05053 0.27991 0.0
O124 O 0.3947 0.03272 0.28047 0.0
C125 C 0.46389 0.04259 0.25445 0.0
Zn126 Zn 0.26239 0.20588 0.49539 0.0
Zn127 Zn 0.28482 0.1862 0.4979 0.0
O128 O 0.28931 0.1988 0.47365 0.0
O129 O 0.27225 0.21861 0.47523 0.0
O130 O 0.30502 0.1731 0.50213 0.0
O131 O 0.26817 0.21899 0.52184 0.0
O132 O 0.28946 0.20434 0.52371 0.0
C133 C 0.28351 0.21185 0.46721 0.0
C134 C 0.24423 0.16657 0.49161 0.0
O135 O 0.26013 0.16519 0.49567 0.0
O136 O 0.24175 0.18252 0.48915 0.0
C137 C 0.30841 0.15934 0.49163 0.0
O138 O 0.29803 0.15175 0.47582 0.0
C139 C 0.28107 0.21566 0.53127 0.0
Zn140 Zn 0.14498 0.03332 0.77509 0.0
Zn141 Zn 0.16191 0.0073 0.77195 0.0
O142 O 0.14746 0.00713 0.79856 0.0
O143 O 0.13208 0.02833 0.7969 0.0
O144 O 0.17451 0.98126 0.76964 0.0
O145 O 0.13177 0.02739 0.74923 0.0
O146 O 0.14521 1.00448 0.74376 0.0
C147 C 0.13643 0.01616 0.80563 0.0
C148 C 0.18143 0.05297 0.77639 0.0
O149 O 0.18264 0.03537 0.77357 0.0
O150 O 0.16653 0.05598 0.7789 0.0
C151 C 0.1908 0.97987 0.77341 0.0
O152 O 0.20311 0.99601 0.77977 0.0
C153 C 0.13485 0.01438 0.73768 0.0
Zn154 Zn 0.31888 0.89057 0.01209 0.0
Zn155 Zn 0.29486 0.90871 0.00621 0.0
O156 O 0.29308 0.89413 0.98067 0.0
O157 O 0.31895 0.88736 0.98467 0.0
O158 O 0.2754 0.92156 0.00589 0.0
O159 O 0.303 0.8714 0.02427 0.0
O160 O 0.2916 0.89586 0.02818 0.0
C161 C 0.30583 0.88885 0.97406 0.0
C162 C 0.3311 0.93075 0.02295 0.0
O163 O 0.31736 0.92985 0.01184 0.0
O164 O 0.33377 0.91565 0.02773 0.0
C165 C 0.27817 0.93798 0.01589 0.0
O166 O 0.29406 0.94655 0.0251 0.0
C167 C 0.29465 0.88122 0.03367 0.0
Zn168 Zn 0.31999 0.36557 0.03327 0.0
Zn169 Zn 0.29924 0.38603 0.03142 0.0
O170 O 0.2938 0.36767 0.00536 0.0
O171 O 0.31199 0.34945 0.00861 0.0
O172 O 0.28005 0.40138 0.02944 0.0
O173 O 0.31379 0.35499 0.0553 0.0
O174 O 0.2949 0.37277 0.05573 0.0
C175 C 0.30038 0.35421 0.99862 0.0
C176 C 0.34036 0.40326 0.03415 0.0
O177 O 0.32478 0.40618 0.03269 0.0
O178 O 0.34181 0.38668 0.03546 0.0
C179 C 0.26481 0.3939 0.01958 0.0
O180 O 0.26126 0.3761 0.01085 0.0
C181 C 0.30197 0.36093 0.06297 0.0
Zn182 Zn 0.74717 0.16964 0.01843 0.0
Zn183 Zn 0.79027 0.14873 0.02398 0.0
O184 O 0.7948 0.16234 1.00159 0.0
O185 O 0.77068 0.16659 0.01062 0.0
O186 O 0.81233 0.14104 0.03024 0.0
O187 O 0.75894 0.17769 0.0454 0.0
O188 O 0.78352 0.16613 0.04628 0.0
C189 C 0.78192 0.16967 0.99946 0.0
C190 C 0.7565 0.13024 0.01328 0.0
O191 O 0.76982 0.12379 0.01619 0.0
O192 O 0.75941 0.14824 0.01615 0.0
C193 C 0.81291 0.12726 0.01784 0.0
O194 O 0.79974 0.12047 0.00412 0.0
C195 C 0.7733 0.17553 0.05381 0.0
Zn196 Zn 0.14474 0.55998 0.25977 0.0
Zn197 Zn 0.15504 0.52643 0.24242 0.0
O198 O 0.14616 0.52521 0.267 0.0
O199 O 0.16512 0.55268 0.27455 0.0
O200 O 0.16906 0.50782 0.23963 0.0
O201 O 0.13041 0.54789 0.23343 0.0
O202 O 0.13509 0.51994 0.22279 0.0
C203 C 0.15519 0.53866 0.27968 0.0
C204 C 0.16773 0.56681 0.23583 0.0
O205 O 0.17168 0.55197 0.23992 0.0
O206 O 0.15177 0.56783 0.23572 0.0
C207 C 0.18466 0.51442 0.24847 0.0
O208 O 0.18972 0.53226 0.25727 0.0
C209 C 0.12708 0.53278 0.22114 0.0
Zn210 Zn 0.81892 0.86283 0.53166 0.0
Zn211 Zn 0.79857 0.88423 0.53092 0.0
O212 O 0.79262 0.86624 0.5047 0.0
O213 O 0.80966 0.84672 0.50706 0.0
O214 O 0.77829 0.89803 0.52975 0.0
O215 O 0.81289 0.85212 0.55381 0.0
O216 O 0.79486 0.87087 0.55506 0.0
C217 C 0.79822 0.85218 0.49752 0.0
C218 C 0.83922 0.90135 0.53276 0.0
O219 O 0.8238 0.90465 0.53211 0.0
O220 O 0.84043 0.88451 0.5333 0.0
C221 C 0.77431 0.9059 0.51616 0.0
O222 O 0.78426 0.90661 0.50277 0.0
C223 C 0.80145 0.85848 0.56182 0.0
Zn224 Zn 0.94554 0.03884 0.25428 0.0
Zn225 Zn 0.92513 0.06055 0.25528 0.0
O226 O 0.94143 0.06522 0.28383 0.0
O227 O 0.96079 0.04844 0.27889 0.0
O228 O 0.90911 0.08355 0.25639 0.0
O229 O 0.95652 0.04188 0.23117 0.0
O230 O 0.93985 0.06171 0.22874 0.0
C231 C 0.9547 0.05911 0.29019 0.0
C232 C 0.91013 0.0149 0.25424 0.0
O233 O 0.90621 0.03115 0.25398 0.0
O234 O 0.92625 0.01476 0.25394 0.0
C235 C 0.91454 0.10217 0.26163 0.0
O236 O 0.93168 0.10942 0.26732 0.0
C237 C 0.95133 0.05318 0.22189 0.0
Zn238 Zn 0.25978 0.65431 0.52765 0.0
Zn239 Zn 0.28793 0.64975 0.52787 0.0
O240 O 0.28677 0.6645 0.50676 0.0
O241 O 0.25812 0.65076 0.49985 0.0
O242 O 0.31038 0.64185 0.5274 0.0
O243 O 0.26873 0.68031 0.54232 0.0
O244 O 0.28864 0.66672 0.55308 0.0
C245 C 0.27258 0.65973 0.49523 0.0
C246 C 0.2558 0.61923 0.52984 0.0
O247 O 0.26886 0.62395 0.52099 0.0
O248 O 0.25259 0.63218 0.54122 0.0
C249 C 0.31229 0.63394 0.51145 0.0
O250 O 0.30025 0.63257 0.49722 0.0
C251 C 0.28056 0.6799 0.55506 0.0
Zn252 Zn 0.44771 0.53914 0.75416 0.0
Zn253 Zn 0.42567 0.56086 0.75605 0.0
O254 O 0.44178 0.56491 0.7843 0.0
O255 O 0.46199 0.54904 0.77977 0.0
O256 O 0.40984 0.58398 0.7574 0.0
O257 O 0.45859 0.54418 0.73085 0.0
O258 O 0.43985 0.56217 0.7296 0.0
C259 C 0.45522 0.55921 0.79088 0.0
C260 C 0.41111 0.51516 0.75299 0.0
O261 O 0.40715 0.53149 0.75406 0.0
O262 O 0.42726 0.51512 0.75234 0.0
C263 C 0.41495 0.60216 0.7649 0.0
O264 O 0.43146 0.60869 0.77324 0.0
C265 C 0.45186 0.55497 0.72218 0.0
Zn266 Zn 0.64401 0.06135 0.76085 0.0
Zn267 Zn 0.65374 0.02684 0.74304 0.0
O268 O 0.64559 0.0255 0.76792 0.0
O269 O 0.66397 0.05342 0.77558 0.0
O270 O 0.66704 0.00744 0.73908 0.0
O271 O 0.63083 0.05093 0.7336 0.0
O272 O 0.63325 0.02164 0.7239 0.0
C273 C 0.65466 0.03894 0.78061 0.0
C274 C 0.66766 0.06735 0.73773 0.0
O275 O 0.67118 0.05215 0.74133 0.0
O276 O 0.6516 0.06821 0.73663 0.0
C277 C 0.68295 0.01326 0.74728 0.0
O278 O 0.68883 0.03091 0.75647 0.0
C279 C 0.62651 0.03536 0.72181 0.0
Zn280 Zn 0.76737 0.70986 0.99823 0.0
Zn281 Zn 0.78682 0.6858 0.99902 0.0
O282 O 0.79112 0.6974 0.9743 0.0
O283 O 0.7754 0.71864 0.97543 0.0
O284 O 0.80633 0.67158 0.00333 0.0
O285 O 0.77763 0.72604 0.0229 0.0
O286 O 0.79245 0.70437 0.02472 0.0
C287 C 0.78572 0.71041 0.96735 0.0
C288 C 0.74642 0.67051 0.99711 0.0
O289 O 0.76147 0.66645 0.99728 0.0
O290 O 0.74578 0.68765 0.9971 0.0
C291 C 0.81258 0.66132 0.99155 0.0
O292 O 0.80571 0.65801 0.97401 0.0
C293 C 0.78821 0.71925 0.03218 0.0
Zn294 Zn 0.9483 0.5153 0.77139 0.0
Zn295 Zn 0.93546 0.54191 0.77732 0.0
O296 O 0.94914 0.54476 0.80255 0.0
O297 O 0.9477 0.514 0.79804 0.0
O298 O 0.92335 0.56228 0.77723 0.0
O299 O 0.96968 0.53113 0.76286 0.0
O300 O 0.94819 0.54367 0.755 0.0
C301 C 0.94997 0.52973 0.8089 0.0
C302 C 0.91315 0.50347 0.76052 0.0
O303 O 0.91502 0.51822 0.77278 0.0
O304 O 0.92647 0.50056 0.7533 0.0
C305 C 0.91036 0.56266 0.78615 0.0
O306 O 0.9065 0.55113 0.7981 0.0
C307 C 0.96249 0.53945 0.75169 0.0
Zn308 Zn 0.81426 0.39263 0.51032 0.0
Zn309 Zn 0.79639 0.41514 0.506 0.0
O310 O 0.79509 0.40144 0.4795 0.0
O311 O 0.81769 0.38904 0.48422 0.0
O312 O 0.77812 0.42959 0.50542 0.0
O313 O 0.79634 0.37359 0.52028 0.0
O314 O 0.79057 0.40124 0.52729 0.0
C315 C 0.80656 0.39344 0.47327 0.0
C316 C 0.83305 0.43098 0.52432 0.0
O317 O 0.82041 0.43411 0.51408 0.0
O318 O 0.83222 0.41422 0.52737 0.0
C319 C 0.78095 0.4462 0.51502 0.0
O320 O 0.79689 0.45498 0.52403 0.0
C321 C 0.79054 0.38491 0.53115 0.0
Zn322 Zn 0.64293 0.53268 0.27515 0.0
Zn323 Zn 0.66116 0.50703 0.27133 0.0
O324 O 0.64701 0.50649 0.29787 0.0
O325 O 0.63239 0.52869 0.29884 0.0
O326 O 0.67399 0.48117 0.26927 0.0
O327 O 0.62799 0.52449 0.24989 0.0
O328 O 0.64426 0.50443 0.24339 0.0
C329 C 0.6368 0.51573 0.30628 0.0
C330 C 0.67966 0.55255 0.27463 0.0
O331 O 0.68154 0.53522 0.27312 0.0
O332 O 0.6644 0.5551 0.27616 0.0
C333 C 0.69044 0.47995 0.26961 0.0
O334 O 0.70279 0.4962 0.27128 0.0
C335 C 0.63227 0.51277 0.23788 0.0
La336 La 0.02743 0.02539 0.00406 0.0
La337 La 0.06488 0.04577 0.02596 0.0
C338 C 0.99424 0.01337 0.99549 0.0
C339 C 0.98027 0.02335 0.99411 0.0
C340 C 0.9655 0.01567 0.98039 0.0
C341 C 0.95276 0.02574 0.9778 0.0
C342 C 0.95461 0.04363 0.98898 0.0
C343 C 0.96962 0.05143 0.00257 0.0
C344 C 0.98242 0.04139 0.00506 0.0
C345 C 0.05228 0.02477 0.98043 0.0
C346 C 0.04304 0.07046 0.00725 0.0
C347 C 0.09808 0.05777 0.03464 0.0
C348 C 0.11238 0.04809 0.03482 0.0
C349 C 0.12522 0.05253 0.05056 0.0
C350 C 0.13786 0.04215 0.05201 0.0
C351 C 0.13793 0.02724 0.03764 0.0
C352 C 0.1251 0.02292 0.02177 0.0
C353 C 0.11232 0.03316 0.02044 0.0
C354 C 0.03979 0.04684 0.04932 0.0
C355 C 0.04941 1.00055 0.02266 0.0
O356 O 0.0053 0.01647 0.98343 0.0
O357 O 1.00242 0.01435 0.01213 0.0
O358 O 0.03522 0.01777 0.97634 0.0
O359 O 0.05453 0.03148 0.99788 0.0
O360 O 0.02873 0.05563 0.00397 0.0
O361 O 0.05885 0.06963 0.01465 0.0
O362 O 0.08706 0.05325 0.04649 0.0
O363 O 0.0898 0.0582 0.01843 0.0
O364 O 0.05683 0.05405 0.05353 0.0
O365 O 0.03779 0.03986 0.03199 0.0
O366 O 0.06355 0.01559 0.02615 0.0
O367 O 0.03367 1.00127 0.01483 0.0
H368 H 0.96394 1.00198 0.97153 0.0
H369 H 0.94145 0.01953 0.96707 0.0
H370 H 0.97129 0.06506 0.01155 0.0
H371 H 0.99398 0.04773 0.01548 0.0
H372 H 0.12519 0.06375 0.06195 0.0
H373 H 0.14737 0.04561 0.06453 0.0
H374 H 0.12497 0.01169 0.01034 0.0
H375 H 0.10229 0.02924 0.0083 0.0
La376 La 0.2953 0.78742 0.25348 0.0
La377 La 0.28411 0.79434 0.29428 0.0
C378 C 0.29578 0.78471 0.21949 0.0
C379 C 0.30617 0.79858 0.20968 0.0
C380 C 0.31666 0.79269 0.19684 0.0
C381 C 0.32704 0.80605 0.18795 0.0
C382 C 0.32688 0.82542 0.1917 0.0
C383 C 0.31692 0.83135 0.20519 0.0
C384 C 0.30674 0.81808 0.21416 0.0
C385 C 0.32263 0.79091 0.27992 0.0
C386 C 0.30213 0.82907 0.2765 0.0
C387 C 0.28178 0.79683 0.32787 0.0
C388 C 0.26957 0.78359 0.33688 0.0
C389 C 0.25749 0.79008 0.34732 0.0
C390 C 0.24591 0.77743 0.3559 0.0
C391 C 0.24635 0.75817 0.35415 0.0
C392 C 0.25767 0.75148 0.34272 0.0
C393 C 0.26918 0.76406 0.3342 0.0
C394 C 0.25721 0.7906 0.26687 0.0
C395 C 0.27857 0.75251 0.27237 0.0
O396 O 0.30523 0.77669 0.22989 0.0
O397 O 0.28334 0.7902 0.22781 0.0
O398 O 0.32349 0.78893 0.26229 0.0
O399 O 0.30686 0.79162 0.28161 0.0
O400 O 0.29993 0.81821 0.25994 0.0
O401 O 0.29921 0.82263 0.29203 0.0
O402 O 0.27422 0.8064 0.31732 0.0
O403 O 0.29385 0.78995 0.32016 0.0
O404 O 0.25569 0.79261 0.28434 0.0
O405 O 0.2731 0.79025 0.26626 0.0
O406 O 0.27973 0.76371 0.28852 0.0
O407 O 0.28201 0.75876 0.25679 0.0
H408 H 0.31671 0.77776 0.1936 0.0
H409 H 0.33471 0.80114 0.1777 0.0
H410 H 0.31616 0.84606 0.20815 0.0
H411 H 0.29905 0.82312 0.22432 0.0
H412 H 0.2573 0.805 0.34916 0.0
H413 H 0.23727 0.78287 0.36467 0.0
H414 H 0.25861 0.73682 0.34138 0.0
H415 H 0.27813 0.75851 0.32596 0.0
La416 La 0.56139 0.03535 0.51431 0.0
La417 La 0.52088 0.03318 0.51474 0.0
C418 C 0.59205 0.03016 0.52121 0.0
C419 C 0.60239 0.0158 0.51693 0.0
C420 C 0.60897 0.01301 0.4999 0.0
C421 C 0.62048 1.00115 0.49704 0.0
C422 C 0.62585 0.99184 0.51118 0.0
C423 C 0.61878 0.99424 0.52799 0.0
C424 C 0.60726 0.00603 0.53081 0.0
C425 C 0.54401 0.03853 0.48364 0.0
C426 C 0.53128 0.99486 0.50551 0.0
C427 C 0.48941 0.03682 0.51223 0.0
C428 C 0.47906 0.05143 0.51373 0.0
C429 C 0.47366 0.05764 0.53075 0.0
C430 C 0.46165 0.06905 0.53171 0.0
C431 C 0.45458 0.07442 0.51565 0.0
C432 C 0.46054 0.06882 0.49877 0.0
C433 C 0.47256 0.05743 0.49781 0.0
C434 C 0.53943 0.03032 0.54504 0.0
C435 C 0.55034 0.07361 0.52245 0.0
O436 O 0.58762 0.03907 0.50805 0.0
O437 O 0.57928 0.02584 0.53138 0.0
O438 O 0.56116 0.04511 0.48762 0.0
O439 O 0.53795 0.02827 0.49492 0.0
O440 O 0.54822 1.00453 0.51092 0.0
O441 O 0.51825 1.00332 0.50328 0.0
O442 O 0.49838 0.03501 0.52749 0.0
O443 O 0.49805 0.03486 0.49798 0.0
O444 O 0.52287 0.02094 0.54008 0.0
O445 O 0.54447 0.04099 0.53383 0.0
O446 O 0.53364 0.06383 0.51576 0.0
O447 O 0.56313 0.06506 0.52602 0.0
H448 H 0.60558 0.02032 0.48888 0.0
H449 H 0.62532 0.99947 0.48378 0.0
H450 H 0.62269 0.98764 0.53936 0.0
H451 H 0.60262 0.00802 0.54417 0.0
H452 H 0.47817 0.05309 0.54328 0.0
H453 H 0.45728 0.0729 0.54491 0.0
H454 H 0.45562 0.07293 0.48616 0.0
H455 H 0.47629 0.05282 0.48446 0.0
La456 La 0.2754 0.28689 0.76317 0.0
La457 La 0.31218 0.28025 0.76854 0.0
C458 C 0.24221 0.2801 0.76458 0.0
C459 C 0.22945 0.28371 0.77764 0.0
C460 C 0.2252 0.3014 0.78138 0.0
C461 C 0.21186 0.30353 0.79247 0.0
C462 C 0.20236 0.28795 0.79985 0.0
C463 C 0.20706 0.27053 0.79653 0.0
C464 C 0.22035 0.26845 0.7856 0.0
C465 C 0.29994 0.32113 0.76536 0.0
C466 C 0.29703 0.29426 0.80372 0.0
C467 C 0.34353 0.27735 0.76595 0.0
C468 C 0.35611 0.27681 0.75206 0.0
C469 C 0.36107 0.2598 0.74673 0.0
C470 C 0.37401 0.25918 0.73492 0.0
C471 C 0.38251 0.27564 0.72819 0.0
C472 C 0.3772 0.29258 0.73319 0.0
C473 C 0.36418 0.29316 0.74497 0.0
C474 C 0.28521 0.25048 0.77193 0.0
C475 C 0.29217 0.27712 0.72769 0.0
O476 O 0.25113 0.29421 0.75728 0.0
O477 O 0.25206 0.26896 0.76909 0.0
O478 O 0.28275 0.31823 0.76331 0.0
O479 O 0.30253 0.30475 0.76639 0.0
O480 O 0.28156 0.29018 0.79303 0.0
O481 O 0.31198 0.2937 0.79691 0.0
O482 O 0.32946 0.26276 0.76357 0.0
O483 O 0.33977 0.29358 0.77164 0.0
O484 O 0.30052 0.25638 0.78239 0.0
O485 O 0.28541 0.26156 0.76004 0.0
O486 O 0.30727 0.27961 0.73872 0.0
O487 O 0.2771 0.27775 0.73417 0.0
H488 H 0.23188 0.31345 0.77543 0.0
H489 H 0.20854 0.31713 0.79472 0.0
H490 H 0.20026 0.25834 0.80221 0.0
H491 H 0.22322 0.25462 0.78301 0.0
H492 H 0.35514 0.24696 0.75198 0.0
H493 H 0.37742 0.24578 0.73117 0.0
H494 H 0.38353 0.30563 0.72852 0.0
H495 H 0.36075 0.30654 0.74882 0.0
La496 La 0.04162 0.05279 0.51973 0.0
La497 La 0.04368 0.01453 0.5064 0.0
C498 C 0.04821 0.08823 0.53065 0.0
C499 C 0.04774 0.10368 0.51994 0.0
C500 C 0.03263 0.11084 0.51836 0.0
C501 C 0.03169 0.12451 0.50719 0.0
C502 C 0.04592 0.13134 0.49767 0.0
C503 C 0.06093 0.12416 0.49909 0.0
C504 C 0.06188 0.11049 0.51014 0.0
C505 C 0.0109 0.02683 0.51699 0.0
C506 C 0.02971 0.03811 0.4767 0.0
C507 C 0.03845 0.97922 0.49529 0.0
C508 C 0.03954 0.96424 0.50624 0.0
C509 C 0.04501 0.94825 0.49873 0.0
C510 C 0.04679 0.93445 0.50949 0.0
C511 C 0.04335 0.93665 0.52796 0.0
C512 C 0.03821 0.95287 0.53555 0.0
C513 C 0.03622 0.96649 0.52474 0.0
C514 C 0.07403 0.04114 0.50894 0.0
C515 C 0.05525 0.02911 0.54953 0.0
O516 O 0.03284 0.07629 0.53122 0.0
O517 O 0.06059 0.07934 0.52781 0.0
O518 O 0.01272 0.04398 0.51356 0.0
O519 O 0.02602 0.02497 0.52293 0.0
O520 O 0.03442 0.05332 0.49014 0.0
O521 O 0.03165 0.02129 0.48011 0.0
O522 O 0.0536 0.99173 0.49525 0.0
O523 O 0.02557 0.98741 0.49797 0.0
O524 O 0.07268 0.02448 0.51345 0.0
O525 O 0.05877 0.04222 0.50272 0.0
O526 O 0.04993 0.01389 0.53611 0.0
O527 O 0.05398 0.04608 0.54591 0.0
H528 H 0.0215 0.10577 0.52565 0.0
H529 H 0.02003 0.12999 0.50624 0.0
H530 H 0.07192 0.12913 0.49157 0.0
H531 H 0.07363 0.10515 0.51083 0.0
H532 H 0.04789 0.94645 0.48459 0.0
H533 H 0.05082 0.92204 0.5034 0.0
H534 H 0.03523 0.95473 0.54967 0.0
H535 H 0.03197 0.97872 0.53085 0.0
La536 La 0.31425 0.80223 0.76879 0.0
La537 La 0.281 0.77072 0.76468 0.0
C538 C 0.34427 0.82486 0.78053 0.0
C539 C 0.36223 0.82216 0.783 0.0
C540 C 0.36966 0.81462 0.76792 0.0
C541 C 0.38611 0.81064 0.77084 0.0
C542 C 0.39524 0.81397 0.78885 0.0
C543 C 0.38793 0.82174 0.80386 0.0
C544 C 0.37157 0.82587 0.80094 0.0
C545 C 0.2992 0.78754 0.73499 0.0
C546 C 0.31683 0.75722 0.76709 0.0
C547 C 0.25109 0.74801 0.75296 0.0
C548 C 0.23406 0.75173 0.74747 0.0
C549 C 0.21866 0.74168 0.75359 0.0
C550 C 0.20265 0.74638 0.74976 0.0
C551 C 0.20197 0.76117 0.73978 0.0
C552 C 0.21742 0.77125 0.73374 0.0
C553 C 0.23338 0.76659 0.73757 0.0
C554 C 0.2965 0.78485 0.79853 0.0
C555 C 0.27825 0.81551 0.76595 0.0
O556 O 0.3365 0.82229 0.76344 0.0
O557 O 0.33354 0.81679 0.79137 0.0
O558 O 0.30765 0.80548 0.7401 0.0
O559 O 0.30087 0.77873 0.74804 0.0
O560 O 0.3252 0.77614 0.77072 0.0
O561 O 0.29914 0.75172 0.76303 0.0
O562 O 0.25721 0.7536 0.77061 0.0
O563 O 0.26335 0.75279 0.74229 0.0
O564 O 0.28772 0.76703 0.79306 0.0
O565 O 0.29467 0.79398 0.78569 0.0
O566 O 0.2701 0.79659 0.7616 0.0
O567 O 0.29585 0.82105 0.77098 0.0
H568 H 0.36266 0.81147 0.75393 0.0
H569 H 0.39154 0.80462 0.75909 0.0
H570 H 0.39492 0.82472 0.81785 0.0
H571 H 0.36602 0.83163 0.81273 0.0
H572 H 0.21909 0.73039 0.76148 0.0
H573 H 0.19077 0.73832 0.75437 0.0
H574 H 0.21719 0.78284 0.72619 0.0
H575 H 0.24519 0.77478 0.73298 0.0
La576 La 0.54358 0.04331 0.02534 0.0
La577 La 0.53099 0.03906 0.98507 0.0
C578 C 0.54461 0.04661 0.05957 0.0
C579 C 0.53187 0.03485 0.06948 0.0
C580 C 0.53211 0.01583 0.07045 0.0
C581 C 0.51872 1.00399 0.07783 0.0
C582 C 0.50488 0.01095 0.0844 0.0
C583 C 0.50463 0.02993 0.08336 0.0
C584 C 0.518 0.04176 0.07602 0.0
C585 C 0.54956 0.01438 0.00429 0.0
C586 C 0.50328 0.02151 0.0079 0.0
C587 C 0.529 0.03552 0.95071 0.0
C588 C 0.54141 0.04681 0.94019 0.0
C589 C 0.5386 0.06387 0.9354 0.0
C590 C 0.55164 0.07613 0.928 0.0
C591 C 0.56767 0.07152 0.92526 0.0
C592 C 0.57039 0.0544 0.92988 0.0
C593 C 0.55735 0.0421 0.93713 0.0
C594 C 0.52568 0.06829 0.00636 0.0
C595 C 0.57139 0.06094 0.00264 0.0
O596 O 0.55447 0.03763 0.0503 0.0
O597 O 0.53816 0.05776 0.05 0.0
O598 O 0.56047 0.02445 0.01861 0.0
O599 O 0.53565 0.01991 0.00268 0.0
O600 O 0.51465 0.03154 0.02253 0.0
O601 O 0.50803 0.01932 0.99123 0.0
O602 O 0.51994 0.04517 0.96043 0.0
O603 O 0.53538 0.02421 0.96012 0.0
O604 O 0.51428 0.05825 0.99239 0.0
O605 O 0.53934 0.06244 0.0076 0.0
O606 O 0.56011 0.05105 0.9878 0.0
O607 O 0.56646 0.06311 0.01925 0.0
H608 H 0.54251 0.00995 0.06534 0.0
H609 H 0.51931 0.98949 0.07864 0.0
H610 H 0.49443 0.03591 0.08884 0.0
H611 H 0.51739 0.05627 0.0753 0.0
H612 H 0.52648 0.06796 0.93773 0.0
H613 H 0.5492 0.08917 0.92437 0.0
H614 H 0.58246 0.05024 0.92751 0.0
H615 H 0.55996 0.02909 0.94066 0.0
La616 La 0.2942 0.30263 0.26787 0.0
La617 La 0.27944 0.25881 0.25407 0.0
C618 C 0.30202 0.33737 0.26574 0.0
C619 C 0.2941 0.3531 0.27137 0.0
C620 C 0.2977 0.3633 0.28966 0.0
C621 C 0.28881 0.37712 0.29497 0.0
C622 C 0.27615 0.38064 0.28209 0.0
C623 C 0.27302 0.3709 0.26372 0.0
C624 C 0.28201 0.35735 0.25838 0.0
C625 C 0.29351 0.28425 0.29644 0.0
C626 C 0.25401 0.28185 0.26934 0.0
C627 C 0.2729 0.22308 0.24664 0.0
C628 C 0.28379 0.20956 0.24643 0.0
C629 C 0.27909 0.19313 0.23267 0.0
C630 C 0.28967 0.18036 0.23179 0.0
C631 C 0.30503 0.18389 0.24474 0.0
C632 C 0.30986 0.20058 0.25834 0.0
C633 C 0.29936 0.21342 0.25911 0.0
C634 C 0.27676 0.28151 0.22971 0.0
C635 C 0.32101 0.27896 0.25863 0.0
O636 O 0.30961 0.3306 0.27897 0.0
O637 O 0.29206 0.32379 0.25256 0.0
O638 O 0.29815 0.3028 0.29801 0.0
O639 O 0.28928 0.2775 0.27941 0.0
O640 O 0.26569 0.29807 0.2683 0.0
O641 O 0.25717 0.26484 0.26644 0.0
O642 O 0.27549 0.23409 0.23416 0.0
O643 O 0.2719 0.23247 0.26296 0.0
O644 O 0.26453 0.26617 0.23057 0.0
O645 O 0.28964 0.28332 0.24206 0.0
O646 O 0.30832 0.26272 0.25684 0.0
O647 O 0.31825 0.29606 0.2619 0.0
H648 H 0.30711 0.36041 0.29991 0.0
H649 H 0.29152 0.38474 0.30915 0.0
H650 H 0.26368 0.37384 0.25342 0.0
H651 H 0.2792 0.34995 0.24411 0.0
H652 H 0.26729 0.19024 0.22256 0.0
H653 H 0.28586 0.16778 0.22096 0.0
H654 H 0.32156 0.20355 0.2686 0.0
H655 H 0.30336 0.22628 0.26962 0.0
La656 La 0.54208 0.55418 0.02046 0.0
La657 La 0.54439 0.51404 0.00499 0.0
C658 C 0.54691 0.58932 0.03155 0.0
C659 C 0.54762 0.60426 0.02012 0.0
C660 C 0.5374 0.61743 0.02314 0.0
C661 C 0.53713 0.63074 0.01138 0.0
C662 C 0.54724 0.6311 0.99662 0.0
C663 C 0.55712 0.61767 0.99339 0.0
C664 C 0.55715 0.60425 0.00488 0.0
C665 C 0.51181 0.52706 0.01569 0.0
C666 C 0.53163 0.53916 0.97695 0.0
C667 C 0.5379 0.47826 0.99659 0.0
C668 C 0.53869 0.46353 0.00789 0.0
C669 C 0.54782 0.44987 1.0024 0.0
C670 C 0.55043 0.43695 0.01384 0.0
C671 C 0.54374 0.43734 0.0309 0.0
C672 C 0.53463 0.45112 0.03638 0.0
C673 C 0.53232 0.46424 0.02507 0.0
C674 C 0.57435 0.53981 1.0015 0.0
C675 C 0.55688 0.52985 0.04888 0.0
O676 O 0.53136 0.57693 0.02991 0.0
O677 O 0.55993 0.58099 0.03122 0.0
O678 O 0.5133 0.54444 0.01308 0.0
O679 O 0.52707 0.52549 0.02165 0.0
O680 O 0.53894 0.55443 0.99018 0.0
O681 O 0.53038 0.52154 0.98047 0.0
O682 O 0.55337 0.49 0.99621 0.0
O683 O 0.52542 0.48721 0.99867 0.0
O684 O 0.57107 0.52153 0.99605 0.0
O685 O 0.56066 0.54245 0.00792 0.0
O686 O 0.55463 0.51558 0.03457 0.0
O687 O 0.5524 0.54595 0.04661 0.0
H688 H 0.52954 0.6173 0.03447 0.0
H689 H 0.52935 0.64098 0.01401 0.0
H690 H 0.56475 0.6175 0.98186 0.0
H691 H 0.56446 0.59373 1.00162 0.0
H692 H 0.55329 0.44948 0.98943 0.0
H693 H 0.55781 0.42678 0.00938 0.0
H694 H 0.5291 0.45168 0.0493 0.0
H695 H 0.52577 0.47506 0.02992 0.0
La696 La 0.81415 0.30235 0.26764 0.0
La697 La 0.78044 0.27117 0.26331 0.0
C698 C 0.84401 0.32468 0.281 0.0
C699 C 0.86216 0.32232 0.28379 0.0
C700 C 0.87262 0.32291 0.2693 0.0
C701 C 0.88935 0.31944 0.27172 0.0
C702 C 0.89586 0.31536 0.28864 0.0
C703 C 0.8856 0.3152 0.30326 0.0
C704 C 0.86893 0.31876 0.30089 0.0
C705 C 0.80067 0.28653 0.23357 0.0
C706 C 0.81603 0.25712 0.26644 0.0
C707 C 0.75019 0.24933 0.25149 0.0
C708 C 0.73294 0.25361 0.24875 0.0
C709 C 0.71966 0.24633 0.25924 0.0
C710 C 0.70373 0.2516 0.25787 0.0
C711 C 0.70088 0.26411 0.24586 0.0
C712 C 0.7142 0.27143 0.23542 0.0
C713 C 0.73012 0.26628 0.23689 0.0
C714 C 0.79515 0.28602 0.29717 0.0
C715 C 0.77814 0.31601 0.264 0.0
O716 O 0.8368 0.32291 0.2638 0.0
O717 O 0.83281 0.31583 0.29103 0.0
O718 O 0.80952 0.30443 0.23831 0.0
O719 O 0.80108 0.27838 0.2473 0.0
O720 O 0.82464 0.27598 0.26986 0.0
O721 O 0.79833 0.25186 0.26218 0.0
O722 O 0.75747 0.25219 0.2688 0.0
O723 O 0.76162 0.25605 0.24064 0.0
O724 O 0.78617 0.26824 0.29209 0.0
O725 O 0.79384 0.29479 0.28395 0.0
O726 O 0.76977 0.29716 0.26059 0.0
O727 O 0.79585 0.32146 0.26831 0.0
H728 H 0.86782 0.32578 0.25601 0.0
H729 H 0.89707 0.31965 0.26027 0.0
H730 H 0.89055 0.3125 0.31658 0.0
H731 H 0.86126 0.31849 0.31238 0.0
H732 H 0.72171 0.23677 0.26866 0.0
H733 H 0.69363 0.24587 0.26612 0.0
H734 H 0.71216 0.28079 0.22579 0.0
H735 H 0.74021 0.27233 0.22877 0.0
La736 La 0.04098 0.54412 0.52539 0.0
La737 La 0.03551 0.53967 0.48416 0.0
C738 C 0.03667 0.548 0.55873 0.0
C739 C 0.02491 0.53394 0.56746 0.0
C740 C 0.02712 0.51537 0.5671 0.0
C741 C 0.01467 0.50152 0.57358 0.0
C742 C 0.99973 0.50593 0.58036 0.0
C743 C 0.9973 0.52433 0.58011 0.0
C744 C 0.00983 0.53821 0.57389 0.0
C745 C 0.04351 0.51108 0.50789 0.0
C746 C 1.00243 0.52926 0.50224 0.0
C747 C 0.038 0.53363 0.45052 0.0
C748 C 0.04906 0.54665 0.44039 0.0
C749 C 0.04772 0.56558 0.44098 0.0
C750 C 0.06 0.57862 0.4335 0.0
C751 C 0.074 0.57304 0.42584 0.0
C752 C 0.0754 0.5542 0.42542 0.0
C753 C 0.06287 0.54105 0.4324 0.0
C754 C 0.0334 0.57291 0.50177 0.0
C755 C 0.07438 0.55727 0.50713 0.0
O756 O 0.05048 0.54324 0.55281 0.0
O757 O 0.0283 0.5552 0.54656 0.0
O758 O 0.05219 0.51955 0.52389 0.0
O759 O 0.03275 0.52013 0.50297 0.0
O760 O 0.01239 0.53961 0.51755 0.0
O761 O 0.00954 0.52332 0.48781 0.0
O762 O 0.02475 0.53925 0.45692 0.0
O763 O 0.04701 0.52709 0.4628 0.0
O764 O 0.02468 0.56479 0.48564 0.0
O765 O 0.04377 0.56344 0.50652 0.0
O766 O 0.06455 0.54762 0.49137 0.0
O767 O 0.06724 0.5608 0.52239 0.0
H768 H 0.03838 0.51145 0.56174 0.0
H769 H 0.01688 0.48748 0.5736 0.0
H770 H 0.98617 0.52841 0.58562 0.0
H771 H 0.00767 0.55229 0.57397 0.0
H772 H 0.03738 0.57044 0.44744 0.0
H773 H 0.05862 0.59303 0.43372 0.0
H774 H 0.08595 0.5495 0.41926 0.0
H775 H 0.06414 0.5266 0.43196 0.0
La776 La 0.77398 0.78615 0.26275 0.0
La777 La 0.81105 0.77987 0.26743 0.0
C778 C 0.74119 0.77879 0.26624 0.0
C779 C 0.72915 0.78374 0.27964 0.0
C780 C 0.72228 0.79977 0.27943 0.0
C781 C 0.70954 0.80296 0.2909 0.0
C782 C 0.70321 0.79014 0.30282 0.0
C783 C 0.71047 0.7744 0.3033 0.0
C784 C 0.72318 0.77124 0.29189 0.0
C785 C 0.79796 0.82018 0.26322 0.0
C786 C 0.7975 0.79665 0.30273 0.0
C787 C 0.84263 0.77816 0.26423 0.0
C788 C 0.85519 0.7782 0.25024 0.0
C789 C 0.85956 0.76115 0.24345 0.0
C790 C 0.87292 0.76123 0.23204 0.0
C791 C 0.88242 0.77842 0.22722 0.0
C792 C 0.87763 0.79537 0.23351 0.0
C793 C 0.86422 0.79528 0.24489 0.0
C794 C 0.7846 0.75031 0.27225 0.0
C795 C 0.78948 0.77455 0.22682 0.0
O796 O 0.74888 0.79165 0.25679 0.0
O797 O 0.75197 0.76893 0.2717 0.0
O798 O 0.78072 0.81702 0.2612 0.0
O799 O 0.80091 0.80403 0.26475 0.0
O800 O 0.78173 0.79289 0.29264 0.0
O801 O 0.81179 0.79405 0.29565 0.0
O802 O 0.82897 0.76315 0.26219 0.0
O803 O 0.83834 0.79408 0.26987 0.0
O804 O 0.80026 0.75637 0.28209 0.0
O805 O 0.78428 0.76107 0.26016 0.0
O806 O 0.80478 0.77685 0.23744 0.0
O807 O 0.77481 0.77639 0.2336 0.0
H808 H 0.72646 0.80966 0.27013 0.0
H809 H 0.70452 0.81541 0.29026 0.0
H810 H 0.70583 0.76397 0.31195 0.0
H811 H 0.72795 0.75859 0.2923 0.0
H812 H 0.85301 0.74777 0.24747 0.0
H813 H 0.87632 0.74793 0.22766 0.0
H814 H 0.88445 0.80884 0.22987 0.0
H815 H 0.86128 0.80871 0.24985 0.0
La816 La 0.79872 0.28564 0.75562 0.0
La817 La 0.78667 0.29626 0.79281 0.0
C818 C 0.81094 0.28519 0.72547 0.0
C819 C 0.81629 0.29978 0.71417 0.0
C820 C 0.83181 0.3007 0.70595 0.0
C821 C 0.83807 0.3155 0.69642 0.0
C822 C 0.82882 0.32952 0.69496 0.0
C823 C 0.8135 0.32881 0.70368 0.0
C824 C 0.80732 0.31407 0.7133 0.0
C825 C 0.81867 0.28129 0.78483 0.0
C826 C 0.80183 0.32892 0.77326 0.0
C827 C 0.78475 0.29749 0.82655 0.0
C828 C 0.77396 0.28311 0.83582 0.0
C829 C 0.75707 0.28426 0.84013 0.0
C830 C 0.74648 0.26974 0.8477 0.0
C831 C 0.75259 0.25384 0.85087 0.0
C832 C 0.76943 0.25274 0.8465 0.0
C833 C 0.78001 0.26722 0.83916 0.0
C834 C 0.76046 0.29406 0.76576 0.0
C835 C 0.77471 0.25353 0.77037 0.0
O836 O 0.82086 0.2889 0.74157 0.0
O837 O 0.79384 0.27918 0.72656 0.0
O838 O 0.81356 0.26914 0.76949 0.0
O839 O 0.81194 0.29529 0.78379 0.0
O840 O 0.79995 0.31595 0.75816 0.0
O841 O 0.80013 0.32452 0.78976 0.0
O842 O 0.77603 0.30629 0.81625 0.0
O843 O 0.79736 0.29214 0.81844 0.0
O844 O 0.75995 0.29924 0.78324 0.0
O845 O 0.7755 0.29104 0.76451 0.0
O846 O 0.77784 0.26513 0.7866 0.0
O847 O 0.7798 0.25898 0.75506 0.0
H848 H 0.83913 0.29002 0.70701 0.0
H849 H 0.84999 0.31583 0.68996 0.0
H850 H 0.8059 0.33922 0.70253 0.0
H851 H 0.79551 0.31379 0.71993 0.0
H852 H 0.75205 0.29632 0.83762 0.0
H853 H 0.73364 0.27099 0.85123 0.0
H854 H 0.77476 0.24098 0.84938 0.0
H855 H 0.79296 0.26586 0.83609 0.0
La856 La 0.79262 0.80036 0.76759 0.0
La857 La 0.78282 0.75849 0.75544 0.0
C858 C 0.80203 0.83621 0.7716 0.0
C859 C 0.79211 0.85055 0.77565 0.0
C860 C 0.79765 0.86435 0.79189 0.0
C861 C 0.78777 0.87737 0.79653 0.0
C862 C 0.77228 0.87686 0.78489 0.0
C863 C 0.76671 0.86294 0.76866 0.0
C864 C 0.77647 0.84982 0.76413 0.0
C865 C 0.79001 0.78084 0.79512 0.0
C866 C 0.75337 0.77895 0.76573 0.0
C867 C 0.7743 0.72242 0.74975 0.0
C868 C 0.7853 0.70933 0.74511 0.0
C869 C 0.77748 0.68999 0.73755 0.0
C870 C 0.78824 0.67748 0.7344 0.0
C871 C 0.80689 0.68432 0.73877 0.0
C872 C 0.81463 0.70387 0.7454 0.0
C873 C 0.80393 0.7162 0.74866 0.0
C874 C 0.78594 0.77841 0.72825 0.0
C875 C 0.82211 0.78008 0.75768 0.0
O876 O 0.80449 0.82684 0.78497 0.0
O877 O 0.79732 0.82492 0.75542 0.0
O878 O 0.78579 0.79684 0.79511 0.0
O879 O 0.79664 0.77683 0.78054 0.0
O880 O 0.76405 0.79532 0.76373 0.0
O881 O 0.75866 0.76316 0.76527 0.0
O882 O 0.77127 0.73239 0.73709 0.0
O883 O 0.77905 0.7331 0.76618 0.0
O884 O 0.79097 0.76291 0.72857 0.0
O885 O 0.7788 0.78194 0.74255 0.0
O886 O 0.8113 0.76391 0.75976 0.0
O887 O 0.81711 0.79599 0.75852 0.0
H888 H 0.80955 0.86494 0.80107 0.0
H889 H 0.79228 0.88787 0.80918 0.0
H890 H 0.75505 0.86246 0.75918 0.0
H891 H 0.77174 0.83918 0.7516 0.0
H892 H 0.76311 0.68449 0.73464 0.0
H893 H 0.78198 0.66237 0.72944 0.0
H894 H 0.82897 0.70951 0.74875 0.0
H895 H 0.8103 0.73094 0.7546 0.0
La896 La 0.52719 0.52492 0.50329 0.0
La897 La 0.56149 0.54464 0.52325 0.0
C898 C 0.49478 0.51461 0.48954 0.0
C899 C 0.48071 0.52451 0.49085 0.0
C900 C 0.46621 0.51978 0.47673 0.0
C901 C 0.45315 0.52977 0.47756 0.0
C902 C 0.45446 0.5446 0.49256 0.0
C903 C 0.46912 0.5494 0.50661 0.0
C904 C 0.48217 0.53946 0.50574 0.0
C905 C 0.55325 0.52235 0.48199 0.0
C906 C 0.54024 0.57054 0.50766 0.0
C907 C 0.59497 0.55603 0.53047 0.0
C908 C 0.6087 0.54592 0.53341 0.0
C909 C 0.6232 0.55412 0.54737 0.0
C910 C 0.63635 0.54463 0.55039 0.0
C911 C 0.63521 0.52683 0.53938 0.0
C912 C 0.62041 0.51844 0.52566 0.0
C913 C 0.6072 0.52786 0.52277 0.0
C914 C 0.53912 0.54576 0.5493 0.0
C915 C 0.547 0.50033 0.52334 0.0
O916 O 0.50761 0.52232 0.48073 0.0
O917 O 0.50089 0.5101 0.50493 0.0
O918 O 0.5395 0.50865 0.48315 0.0
O919 O 0.55223 0.53693 0.49343 0.0
O920 O 0.52666 0.55501 0.50411 0.0
O921 O 0.5561 0.56991 0.51478 0.0
O922 O 0.58438 0.55604 0.54305 0.0
O923 O 0.58626 0.55242 0.51376 0.0
O924 O 0.55599 0.55401 0.55137 0.0
O925 O 0.53471 0.53799 0.53209 0.0
O926 O 0.56119 0.51477 0.52417 0.0
O927 O 0.53111 0.50172 0.51714 0.0
H928 H 0.46502 0.50841 0.46506 0.0
H929 H 0.44189 0.52572 0.46663 0.0
H930 H 0.47057 0.56096 0.51818 0.0
H931 H 0.49345 0.54351 0.51665 0.0
H932 H 0.62438 0.5679 0.55589 0.0
H933 H 0.64747 0.55128 0.56125 0.0
H934 H 0.61927 0.50487 0.51679 0.0
H935 H 0.59596 0.52112 0.51207 0.0
La936 La 0.06192 0.537 0.01293 0.0
La937 La 0.02139 0.53151 0.01543 0.0
C938 C 0.09349 0.53387 0.01705 0.0
C939 C 0.1036 0.51907 0.014 0.0
C940 C 0.11013 0.51512 0.99707 0.0
C941 C 0.12169 0.50321 0.99512 0.0
C942 C 0.12715 0.49519 0.01012 0.0
C943 C 0.12005 0.49842 0.02673 0.0
C944 C 0.10842 0.5102 0.02867 0.0
C945 C 0.04149 0.53692 0.98293 0.0
C946 C 0.03451 0.49474 0.00705 0.0
C947 C 0.98974 0.53443 0.01162 0.0
C948 C 0.9797 0.54925 0.01478 0.0
C949 C 0.96969 0.54981 0.02965 0.0
C950 C 0.95835 0.56196 0.03143 0.0
C951 C 0.95659 0.57366 0.01824 0.0
C952 C 0.96724 0.57381 0.00392 0.0
C953 C 0.97864 0.56175 1.00217 0.0
C954 C 0.04183 0.53139 0.04523 0.0
C955 C 0.04903 0.57372 0.02158 0.0
O956 O 0.0862 0.53878 1.00239 0.0
O957 O 0.08326 0.53298 0.03019 0.0
O958 O 0.05804 0.54687 0.98656 0.0
O959 O 0.03765 0.52676 0.99488 0.0
O960 O 0.05104 0.50602 0.01142 0.0
O961 O 0.02038 0.50169 0.00542 0.0
O962 O 0.99724 0.52976 0.02631 0.0
O963 O 0.99981 0.53521 0.99834 0.0
O964 O 0.02534 0.52128 0.04158 0.0
O965 O 0.0456 0.54171 0.03342 0.0
O966 O 0.03236 0.56274 0.01744 0.0
O967 O 0.06305 0.56666 0.02325 0.0
H968 H 0.10683 0.52176 0.98549 0.0
H969 H 0.127 0.50098 0.98217 0.0
H970 H 0.12384 0.49211 0.03837 0.0
H971 H 0.10367 0.51286 0.04188 0.0
H972 H 0.97014 0.54035 0.03959 0.0
H973 H 0.95032 0.56151 0.04262 0.0
H974 H 0.96645 0.58302 0.99382 0.0
H975 H 0.98618 0.56182 0.99059 0.0
H976 H 0.02786 0.20756 0.91863 0.0
H977 H 0.03599 0.18137 0.9319 0.0
H978 H 0.00859 0.19324 0.97848 0.0
H979 H 1.0003 0.21899 0.96535 0.0
H980 H 0.04077 0.18672 0.98962 0.0
H981 H 0.98837 0.15656 0.94652 0.0
H982 H 0.96897 0.14848 0.91644 0.0
H983 H 0.00714 0.12368 0.89107 0.0
H984 H 0.02687 0.13183 0.92101 0.0
H985 H 0.02376 0.09473 0.0204 0.0
H986 H 0.02047 0.12381 0.00887 0.0
H987 H 0.05486 0.11467 0.96802 0.0
H988 H 0.0587 0.08611 0.98 0.0
H989 H 0.02038 0.12024 0.95414 0.0
H990 H 0.07163 0.14912 1.00052 0.0
H991 H 0.08878 0.15704 0.03184 0.0
H992 H 0.04982 0.18379 0.05268 0.0
H993 H 0.03228 0.17577 0.02152 0.0
C994 C 0.02365 0.20461 0.93172 0.0
C995 C 0.01327 0.21527 0.94079 0.0
C996 C 0.02827 0.18963 0.93928 0.0
C997 C 0.02283 0.18527 0.95618 0.0
C998 C 0.01297 0.1963 0.96548 0.0
C999 C 0.00813 0.21097 0.95783 0.0
C1000 C 0.02679 0.16882 0.96396 0.0
C1001 C 0.03623 0.17217 0.9819 0.0
C1002 C 0.02089 0.14982 0.95396 0.0
C1003 C 0.0092 0.14503 0.93592 0.0
C1004 C 0.99271 0.14956 0.93448 0.0
C1005 C 0.98163 0.14492 0.91748 0.0
C1006 C 0.98685 0.13564 0.90184 0.0
C1007 C 1.00314 0.13092 0.90319 0.0
C1008 C 0.01427 0.13553 0.92017 0.0
C1009 C 0.03074 0.09914 0.00911 0.0
C1010 C 0.04153 0.08835 1.0011 0.0
C1011 C 0.0289 0.11571 0.00256 0.0
C1012 C 0.03746 0.12142 0.9876 0.0
C1013 C 0.04821 0.11057 0.9796 0.0
C1014 C 0.05043 0.09433 0.98646 0.0
C1015 C 0.03453 0.13816 0.97969 0.0
C1016 C 0.02512 0.13482 0.96178 0.0
C1017 C 0.04017 0.1571 0.9899 0.0
C1018 C 0.05053 0.16163 0.00872 0.0
C1019 C 0.0666 0.15647 0.01182 0.0
C1020 C 0.07642 0.16104 0.02954 0.0
C1021 C 0.07037 0.17086 0.04425 0.0
C1022 C 0.05448 0.17615 0.04127 0.0
C1023 C 0.04459 0.17161 0.02359 0.0
H1024 H 0.07801 0.17441 0.05795 0.0
H1025 H 0.97826 0.13205 0.88868 0.0
H1026 H 0.14816 0.82558 0.13979 0.0
H1027 H 0.17219 0.82152 0.1611 0.0
H1028 H 0.13362 0.78859 0.19 0.0
H1029 H 0.10931 0.79322 0.16887 0.0
H1030 H 0.15987 0.80986 0.21424 0.0
H1031 H 0.15828 0.76778 0.15741 0.0
H1032 H 0.15825 0.75891 0.12377 0.0
H1033 H 0.20979 0.79852 0.12797 0.0
H1034 H 0.21003 0.80781 0.16159 0.0
H1035 H 0.22187 0.77373 0.26449 0.0
H1036 H 0.19739 0.77596 0.24235 0.0
H1037 H 0.23521 0.81016 0.21362 0.0
H1038 H 0.25979 0.80763 0.23574 0.0
H1039 H 0.20909 0.7874 0.1889 0.0
H1040 H 0.21001 0.82983 0.24579 0.0
H1041 H 0.20948 0.83884 0.27931 0.0
H1042 H 0.15853 0.79804 0.27471 0.0
H1043 H 0.15886 0.78862 0.24121 0.0
C1044 C 0.1447 0.81762 0.15079 0.0
C1045 C 0.12668 0.80971 0.15252 0.0
C1046 C 0.15856 0.8151 0.16291 0.0
C1047 C 0.15494 0.80422 0.17698 0.0
C1048 C 0.13693 0.79691 0.17922 0.0
C1049 C 0.12297 0.79964 0.16717 0.0
C1050 C 0.16993 0.80068 0.1893 0.0
C1051 C 0.17044 0.80463 0.20862 0.0
C1052 C 0.18414 0.79429 0.1822 0.0
C1053 C 0.1841 0.7886 0.162 0.0
C1054 C 0.16956 0.77468 0.15114 0.0
C1055 C 0.16951 0.76956 0.13208 0.0
C1056 C 0.18399 0.77817 0.12373 0.0
C1057 C 0.19858 0.79187 0.13444 0.0
C1058 C 0.19869 0.79705 0.15351 0.0
C1059 C 0.225 0.78146 0.25326 0.0
C1060 C 0.24286 0.79013 0.25169 0.0
C1061 C 0.21093 0.78291 0.24065 0.0
C1062 C 0.21422 0.7936 0.22636 0.0
C1063 C 0.23214 0.80181 0.22442 0.0
C1064 C 0.24629 0.80015 0.23697 0.0
C1065 C 0.199 0.79657 0.21387 0.0
C1066 C 0.19847 0.79255 0.19451 0.0
C1067 C 0.1847 0.80282 0.22091 0.0
C1068 C 0.18455 0.80839 0.24105 0.0
C1069 C 0.19876 0.82268 0.25197 0.0
C1070 C 0.19849 0.82788 0.27095 0.0
C1071 C 0.18401 0.81898 0.27914 0.0
C1072 C 0.16975 0.8049 0.26836 0.0
C1073 C 0.16997 0.79963 0.24937 0.0
H1074 H 0.18381 0.82304 0.29384 0.0
H1075 H 0.18393 0.7742 0.10897 0.0
H1076 H 0.52049 0.82639 0.41982 0.0
H1077 H 0.52414 0.86021 0.4317 0.0
H1078 H 0.52701 0.84885 0.48768 0.0
H1079 H 0.52178 0.81464 0.47555 0.0
H1080 H 0.50649 0.86914 0.48555 0.0
H1081 H 0.56435 0.87636 0.46702 0.0
H1082 H 0.58684 0.87278 0.44646 0.0
H1083 H 0.56374 0.90199 0.40831 0.0
H1084 H 0.54099 0.90556 0.42855 0.0
H1085 H 0.54316 0.97049 0.52451 0.0
H1086 H 0.5401 0.9363 0.51366 0.0
H1087 H 0.50908 0.93867 0.46278 0.0
H1088 H 0.51169 0.97282 0.47392 0.0
H1089 H 0.54405 0.92395 0.46289 0.0
H1090 H 0.48584 0.91567 0.48385 0.0
H1091 H 0.46607 0.92068 0.50717 0.0
H1092 H 0.4943 0.89471 0.54437 0.0
H1093 H 0.51439 0.88979 0.52134 0.0
C1094 C 0.52234 0.83122 0.43468 0.0
C1095 C 0.52095 0.81799 0.4468 0.0
C1096 C 0.52451 0.85062 0.44151 0.0
C1097 C 0.52609 0.8573 0.46067 0.0
C1098 C 0.52573 0.84413 0.47284 0.0
C1099 C 0.52291 0.82462 0.46595 0.0
C1100 C 0.5265 0.87756 0.46788 0.0
C1101 C 0.51499 0.88105 0.48075 0.0
C1102 C 0.53727 0.8933 0.46149 0.0
C1103 C 0.55087 0.89106 0.44923 0.0
C1104 C 0.56398 0.88189 0.45418 0.0
C1105 C 0.5768 0.87989 0.4426 0.0
C1106 C 0.57669 0.88711 0.42607 0.0
C1107 C 0.5638 0.89638 0.42111 0.0
C1108 C 0.55095 0.89842 0.43264 0.0
C1109 C 0.53539 0.96355 0.51119 0.0
C1110 C 0.52747 0.97402 0.50005 0.0
C1111 C 0.53368 0.94413 0.50502 0.0
C1112 C 0.52439 0.93511 0.48747 0.0
C1113 C 0.51622 0.94547 0.47641 0.0
C1114 C 0.51756 0.96481 0.4828 0.0
C1115 C 0.52416 0.91514 0.48032 0.0
C1116 C 0.53569 0.91184 0.46756 0.0
C1117 C 0.51382 0.89966 0.48716 0.0
C1118 C 0.50171 0.90254 0.50095 0.0
C1119 C 0.48793 0.9112 0.49707 0.0
C1120 C 0.47664 0.91398 0.51022 0.0
C1121 C 0.47895 0.90806 0.52726 0.0
C1122 C 0.49253 0.89931 0.53117 0.0
C1123 C 0.50386 0.8965 0.51807 0.0
H1124 H 0.4702 0.91022 0.53742 0.0
H1125 H 0.58663 0.88554 0.41712 0.0
H1126 H 0.50564 0.31165 0.62544 0.0
H1127 H 0.47949 0.30442 0.64145 0.0
H1128 H 0.50579 0.27467 0.67669 0.0
H1129 H 0.53233 0.28218 0.66085 0.0
H1130 H 0.46786 0.25507 0.66193 0.0
H1131 H 0.50472 0.3151 0.6957 0.0
H1132 H 0.52349 0.34827 0.69948 0.0
H1133 H 0.47927 0.36552 0.67495 0.0
H1134 H 0.4603 0.33235 0.67076 0.0
H1135 H 0.40863 0.2565 0.73132 0.0
H1136 H 0.4338 0.25778 0.71387 0.0
H1137 H 0.41565 0.29578 0.68182 0.0
H1138 H 0.39018 0.29425 0.69888 0.0
H1139 H 0.4503 0.3099 0.69576 0.0
H1140 H 0.41299 0.24959 0.66284 0.0
H1141 H 0.39451 0.21626 0.65875 0.0
H1142 H 0.43936 0.19904 0.68177 0.0
H1143 H 0.45806 0.23235 0.68629 0.0
C1144 C 0.50593 0.30356 0.63659 0.0
C1145 C 0.52119 0.29764 0.64193 0.0
C1146 C 0.49091 0.2994 0.64571 0.0
C1147 C 0.49063 0.28899 0.66029 0.0
C1148 C 0.50567 0.28266 0.66545 0.0
C1149 C 0.52088 0.28711 0.65649 0.0
C1150 C 0.4749 0.28571 0.67057 0.0
C1151 C 0.46414 0.267 0.66959 0.0
C1152 C 0.46983 0.30127 0.68025 0.0
C1153 C 0.48115 0.32122 0.68274 0.0
C1154 C 0.49905 0.32593 0.69095 0.0
C1155 C 0.50971 0.34473 0.6932 0.0
C1156 C 0.50259 0.35898 0.68741 0.0
C1157 C 0.48477 0.35446 0.6794 0.0
C1158 C 0.47406 0.33566 0.67709 0.0
C1159 C 0.40971 0.26483 0.7203 0.0
C1160 C 0.3973 0.27538 0.71667 0.0
C1161 C 0.42421 0.26556 0.71033 0.0
C1162 C 0.42669 0.27686 0.69647 0.0
C1163 C 0.41412 0.28703 0.6925 0.0
C1164 C 0.39958 0.28624 0.70239 0.0
C1165 C 0.44299 0.27925 0.68702 0.0
C1166 C 0.45395 0.29788 0.68817 0.0
C1167 C 0.44818 0.26355 0.67759 0.0
C1168 C 0.43688 0.24355 0.67512 0.0
C1169 C 0.41887 0.23876 0.66724 0.0
C1170 C 0.40836 0.21985 0.6648 0.0
C1171 C 0.41574 0.20556 0.67005 0.0
C1172 C 0.43365 0.21014 0.67774 0.0
C1173 C 0.44421 0.22903 0.68024 0.0
H1174 H 0.4076 0.19092 0.66812 0.0
H1175 H 0.51087 0.37354 0.68918 0.0
H1176 H 0.99043 0.78374 0.5837 0.0
H1177 H 1.003 0.81252 0.57122 0.0
H1178 H 0.03486 0.83881 0.62413 0.0
H1179 H 0.02203 0.81032 0.63686 0.0
H1180 H 0.02116 0.86403 0.61014 0.0
H1181 H 0.05405 0.82081 0.58831 0.0
H1182 H 0.05869 0.79015 0.57375 0.0
H1183 H 0.02998 0.79384 0.5223 0.0
H1184 H 0.02494 0.8244 0.53662 0.0
H1185 H 0.05999 0.94007 0.56324 0.0
H1186 H 0.05827 0.91457 0.58177 0.0
H1187 H 0.02452 0.87382 0.53589 0.0
H1188 H 0.02698 0.89891 0.51723 0.0
H1189 H 0.04638 0.85788 0.55099 0.0
H1190 H 0.00957 0.89923 0.57616 0.0
H1191 H 0.00583 0.92999 0.5918 0.0
H1192 H 0.04382 0.93012 0.63804 0.0
H1193 H 0.04789 0.89948 0.62258 0.0
C1194 C 1.00006 0.79566 0.59269 0.0
C1195 C 0.00528 0.79471 0.61122 0.0
C1196 C 0.00732 0.81205 0.58553 0.0
C1197 C 0.02012 0.82765 0.59667 0.0
C1198 C 0.02508 0.8269 0.61528 0.0
C1199 C 0.01773 0.81058 0.6225 0.0
C1200 C 0.02818 0.84475 0.58884 0.0
C1201 C 0.02692 0.86275 0.59734 0.0
C1202 C 0.03591 0.84313 0.57231 0.0
C1203 C 0.03904 0.82484 0.56358 0.0
C1204 C 0.04864 0.81503 0.57392 0.0
C1205 C 0.05134 0.79767 0.56571 0.0
C1206 C 0.04461 0.79003 0.54712 0.0
C1207 C 0.03518 0.79977 0.53669 0.0
C1208 C 0.03242 0.81712 0.54485 0.0
C1209 C 0.05241 0.92557 0.55714 0.0
C1210 C 0.04363 0.92134 0.53884 0.0
C1211 C 0.05133 0.91108 0.56774 0.0
C1212 C 0.04101 0.89233 0.56034 0.0
C1213 C 0.03262 0.88814 0.54191 0.0
C1214 C 0.03402 0.90246 0.53123 0.0
C1215 C 0.03824 0.87691 0.57157 0.0
C1216 C 0.04077 0.85921 0.56387 0.0
C1217 C 0.03179 0.87888 0.58888 0.0
C1218 C 0.02917 0.8972 0.59814 0.0
C1219 C 0.01718 0.90589 0.58962 0.0
C1220 C 0.015 0.92329 0.59845 0.0
C1221 C 0.02462 0.93203 0.61587 0.0
C1222 C 0.0364 0.92336 0.62453 0.0
C1223 C 0.03864 0.90598 0.61574 0.0
H1224 H 0.02292 0.9455 0.62268 0.0
H1225 H 0.04671 0.77659 0.54079 0.0
H1226 H 0.53279 0.80691 0.87772 0.0
H1227 H 0.50463 0.80061 0.85751 0.0
H1228 H 0.53303 0.81914 0.81325 0.0
H1229 H 0.56151 0.82536 0.8335 0.0
H1230 H 0.5058 0.83808 0.82443 0.0
H1231 H 0.51344 0.77453 0.80714 0.0
H1232 H 0.51972 0.74469 0.81409 0.0
H1233 H 0.47446 0.73421 0.84352 0.0
H1234 H 0.46807 0.76413 0.837 0.0
H1235 H 0.42348 0.82369 0.77013 0.0
H1236 H 0.45345 0.82008 0.77799 0.0
H1237 H 0.43595 0.79171 0.82292 0.0
H1238 H 0.40588 0.79485 0.81482 0.0
H1239 H 0.45937 0.77607 0.80643 0.0
H1240 H 0.45425 0.83774 0.83175 0.0
H1241 H 0.44748 0.86895 0.83225 0.0
H1242 H 0.48683 0.88467 0.7965 0.0
H1243 H 0.49361 0.85336 0.79552 0.0
C1244 C 0.53306 0.80954 0.86366 0.0
C1245 C 0.5492 0.81681 0.85713 0.0
C1246 C 0.51701 0.80574 0.85211 0.0
C1247 C 0.51693 0.80926 0.83395 0.0
C1248 C 0.53302 0.8162 0.82724 0.0
C1249 C 0.54916 0.81976 0.83875 0.0
C1250 C 0.49986 0.80749 0.82282 0.0
C1251 C 0.49579 0.82448 0.81988 0.0
C1252 C 0.4867 0.78981 0.818 0.0
C1253 C 0.49032 0.77161 0.82162 0.0
C1254 C 0.50488 0.76591 0.81518 0.0
C1255 C 0.50846 0.74898 0.81903 0.0
C1256 C 0.49751 0.73757 0.82925 0.0
C1257 C 0.48293 0.74305 0.83559 0.0
C1258 C 0.47931 0.75998 0.83179 0.0
C1259 C 0.42597 0.81628 0.78138 0.0
C1260 C 0.41257 0.80977 0.79207 0.0
C1261 C 0.44304 0.8143 0.78588 0.0
C1262 C 0.44684 0.80587 0.80114 0.0
C1263 C 0.43319 0.79828 0.8111 0.0
C1264 C 0.41614 0.80026 0.80661 0.0
C1265 C 0.46532 0.80667 0.80793 0.0
C1266 C 0.46958 0.78958 0.81028 0.0
C1267 C 0.47848 0.82438 0.81305 0.0
C1268 C 0.4742 0.84307 0.81328 0.0
C1269 C 0.46128 0.84774 0.82378 0.0
C1270 C 0.45748 0.86547 0.8242 0.0
C1271 C 0.46666 0.87875 0.81433 0.0
C1272 C 0.47968 0.87433 0.80406 0.0
C1273 C 0.48349 0.85659 0.80355 0.0
H1274 H 0.46373 0.8925 0.81471 0.0
H1275 H 0.50031 0.72448 0.83224 0.0
H1276 H 0.47367 0.17487 0.12349 0.0
H1277 H 0.48355 0.15211 0.10215 0.0
H1278 H 0.51395 0.19862 0.07902 0.0
H1279 H 0.504 0.22152 0.10015 0.0
H1280 H 0.49727 0.16807 0.05301 0.0
H1281 H 0.53542 0.18075 0.1099 0.0
H1282 H 0.54421 0.18475 0.1436 0.0
H1283 H 0.51804 0.12548 0.14223 0.0
H1284 H 0.50884 0.12117 0.10856 0.0
H1285 H 0.5458 0.10462 0.01229 0.0
H1286 H 0.54174 0.13181 0.03379 0.0
H1287 H 0.4971 0.09397 0.05127 0.0
H1288 H 0.50066 0.06694 0.02915 0.0
H1289 H 0.52637 0.12351 0.08059 0.0
H1290 H 0.48415 0.11415 0.02401 0.0
H1291 H 0.47647 0.11109 0.99025 0.0
H1292 H 0.51275 0.16619 0.99179 0.0
H1293 H 0.52089 0.16937 0.02556 0.0
C1294 C 0.48208 0.18021 0.11354 0.0
C1295 C 0.48823 0.19994 0.11358 0.0
C1296 C 0.48789 0.16725 0.10158 0.0
C1297 C 0.49991 0.17391 0.0896 0.0
C1298 C 0.50486 0.19339 0.08846 0.0
C1299 C 0.499 0.20638 0.10038 0.0
C1300 C 0.50726 0.16037 0.0783 0.0
C1301 C 0.50395 0.15858 0.05904 0.0
C1302 C 0.51598 0.14812 0.08634 0.0
C1303 C 0.52129 0.15068 0.10668 0.0
C1304 C 0.53137 0.1686 0.1168 0.0
C1305 C 0.53647 0.17092 0.1359 0.0
C1306 C 0.53165 0.15539 0.14506 0.0
C1307 C 0.52175 0.13751 0.13512 0.0
C1308 C 0.5166 0.13511 0.11602 0.0
C1309 C 0.53512 0.10228 0.02074 0.0
C1310 C 0.52325 0.08415 0.01907 0.0
C1311 C 0.53293 0.11762 0.03299 0.0
C1312 C 0.51917 0.11464 0.04393 0.0
C1313 C 0.50777 0.0963 0.04282 0.0
C1314 C 0.50964 0.08107 0.03016 0.0
C1315 C 0.51574 0.13092 0.05548 0.0
C1316 C 0.51993 0.13327 0.07471 0.0
C1317 C 0.50804 0.14387 0.04748 0.0
C1318 C 0.50334 0.14184 0.0272 0.0
C1319 C 0.49068 0.12547 0.0171 0.0
C1320 C 0.4862 0.12374 0.99798 0.0
C1321 C 0.49418 0.1384 0.98886 0.0
C1322 C 0.50664 0.15482 0.99885 0.0
C1323 C 0.5112 0.15658 0.01797 0.0
H1324 H 0.49065 0.13706 0.97406 0.0
H1325 H 0.53563 0.15721 0.15984 0.0
H1326 H 0.11256 0.31655 0.32584 0.0
H1327 H 0.13502 0.30815 0.3077 0.0
H1328 H 0.17062 0.3145 0.35812 0.0
H1329 H 0.14821 0.32272 0.37639 0.0
H1330 H 0.18634 0.33292 0.3303 0.0
H1331 H 0.14956 0.27191 0.33814 0.0
H1332 H 0.12161 0.24657 0.33595 0.0
H1333 H 0.1139 0.24186 0.27677 0.0
H1334 H 0.14168 0.26743 0.27863 0.0
H1335 H 0.25147 0.2887 0.30534 0.0
H1336 H 0.22566 0.29422 0.3194 0.0
H1337 H 0.19528 0.28392 0.26498 0.0
H1338 H 0.22122 0.27809 0.25089 0.0
H1339 H 0.17565 0.26836 0.2918 0.0
H1340 H 0.21538 0.32666 0.28419 0.0
H1341 H 0.24491 0.34938 0.28712 0.0
H1342 H 0.24746 0.35981 0.34633 0.0
H1343 H 0.2185 0.33596 0.34388 0.0
C1344 C 0.12522 0.31629 0.33305 0.0
C1345 C 0.12868 0.32027 0.35251 0.0
C1346 C 0.13794 0.31139 0.32268 0.0
C1347 C 0.15431 0.31063 0.33166 0.0
C1348 C 0.15798 0.31502 0.35104 0.0
C1349 C 0.14519 0.31966 0.36142 0.0
C1350 C 0.16771 0.30522 0.32088 0.0
C1351 C 0.18411 0.31878 0.32197 0.0
C1352 C 0.16441 0.28694 0.30966 0.0
C1353 C 0.14755 0.27181 0.30856 0.0
C1354 C 0.14178 0.26567 0.32468 0.0
C1355 C 0.126 0.25122 0.32349 0.0
C1356 C 0.11594 0.24267 0.30624 0.0
C1357 C 0.12167 0.24854 0.29013 0.0
C1358 C 0.13743 0.26302 0.29124 0.0
C1359 C 0.23915 0.2874 0.29649 0.0
C1360 C 0.23806 0.28328 0.27721 0.0
C1361 C 0.22451 0.2905 0.30446 0.0
C1362 C 0.20879 0.28977 0.29314 0.0
C1363 C 0.2074 0.2846 0.27383 0.0
C1364 C 0.2221 0.28141 0.26584 0.0
C1365 C 0.19441 0.29591 0.30156 0.0
C1366 C 0.17782 0.28257 0.29995 0.0
C1367 C 0.19755 0.31443 0.31233 0.0
C1368 C 0.21475 0.32932 0.31384 0.0
C1369 C 0.22229 0.3336 0.29787 0.0
C1370 C 0.23896 0.3467 0.29944 0.0
C1371 C 0.24798 0.35622 0.31689 0.0
C1372 C 0.24043 0.35246 0.33281 0.0
C1373 C 0.22394 0.33901 0.33134 0.0
H1374 H 0.26082 0.36649 0.3181 0.0
H1375 H 0.10374 0.23146 0.30535 0.0
H1376 H 0.94556 0.07443 0.19271 0.0
H1377 H 0.95905 0.07503 0.16368 0.0
H1378 H 0.98837 0.03583 0.17927 0.0
H1379 H 0.9757 0.03568 0.20786 0.0
H1380 H 0.00972 0.05686 0.16401 0.0
H1381 H 0.94701 0.02618 0.14122 0.0
H1382 H 0.91503 0.02506 0.1372 0.0
H1383 H 0.92638 0.07561 0.11253 0.0
H1384 H 0.95844 0.0771 0.11656 0.0
H1385 H 0.04097 0.02851 0.07915 0.0
H1386 H 0.02554 0.03021 0.10638 0.0
H1387 H 0.99624 0.06589 0.08301 0.0
H1388 H 0.01109 0.06305 0.05505 0.0
H1389 H 0.97517 0.04972 0.10226 0.0
H1390 H 0.03683 0.08055 0.12336 0.0
H1391 H 0.06928 0.08441 0.12871 0.0
H1392 H 0.06099 0.03701 0.1579 0.0
H1393 H 0.02849 0.03274 0.15256 0.0
C1394 C 0.9549 0.06595 0.19005 0.0
C1395 C 0.95916 0.05498 0.20333 0.0
C1396 C 0.96265 0.06612 0.17307 0.0
C1397 C 0.97493 0.05519 0.16836 0.0
C1398 C 0.9792 0.04455 0.1818 0.0
C1399 C 0.97164 0.04444 0.19854 0.0
C1400 C 0.98362 0.05455 0.15004 0.0
C1401 C 1.0019 0.05501 0.15057 0.0
C1402 C 0.97428 0.05289 0.13195 0.0
C1403 C 0.95508 0.05184 0.12934 0.0
C1404 C 0.94266 0.03708 0.135 0.0
C1405 C 0.92454 0.03638 0.13272 0.0
C1406 C 0.91869 0.05028 0.12466 0.0
C1407 C 0.93093 0.06487 0.11879 0.0
C1408 C 0.94907 0.06564 0.12105 0.0
C1409 C 0.03087 0.03631 0.07946 0.0
C1410 C 0.02712 0.04507 0.06418 0.0
C1411 C 0.02219 0.03775 0.09556 0.0
C1412 C 0.00974 0.04883 0.09788 0.0
C1413 C 0.00564 0.05724 0.08233 0.0
C1414 C 0.01413 0.05546 0.06597 0.0
C1415 C 1.00121 0.05153 0.11619 0.0
C1416 C 0.98301 0.0515 0.11567 0.0
C1417 C 0.0107 0.05385 0.13439 0.0
C1418 C 0.03021 0.0562 0.13738 0.0
C1419 C 0.04193 0.07086 0.13079 0.0
C1420 C 0.06033 0.07314 0.13385 0.0
C1421 C 0.06719 0.06093 0.14358 0.0
C1422 C 0.05566 0.04643 0.15032 0.0
C1423 C 0.03725 0.04409 0.1473 0.0
H1424 H 0.08143 0.06273 0.14595 0.0
H1425 H 0.90465 0.04973 0.12292 0.0
H1426 H 0.28959 0.69492 0.4894 0.0
H1427 H 0.28199 0.70936 0.46277 0.0
H1428 H 0.24637 0.65503 0.43575 0.0
H1429 H 0.25349 0.64068 0.46252 0.0
H1430 H 0.26971 0.68039 0.41277 0.0
H1431 H 0.22749 0.67943 0.45851 0.0
H1432 H 0.22049 0.68717 0.49021 0.0
H1433 H 0.24484 0.74691 0.49163 0.0
H1434 H 0.25228 0.73946 0.46006 0.0
H1435 H 0.22841 0.71998 0.34722 0.0
H1436 H 0.22765 0.699 0.37029 0.0
H1437 H 0.24782 0.74877 0.41358 0.0
H1438 H 0.24815 0.76951 0.39095 0.0
H1439 H 0.22994 0.72233 0.42755 0.0
H1440 H 0.2753 0.72761 0.38748 0.0
H1441 H 0.28806 0.72454 0.3582 0.0
H1442 H 0.26554 0.66355 0.34843 0.0
H1443 H 0.25235 0.66631 0.37751 0.0
C1444 C 0.28063 0.68596 0.47748 0.0
C1445 C 0.27199 0.66682 0.47783 0.0
C1446 C 0.27626 0.6942 0.46242 0.0
C1447 C 0.26353 0.68317 0.44762 0.0
C1448 C 0.2562 0.66362 0.44719 0.0
C1449 C 0.26025 0.6555 0.46239 0.0
C1450 C 0.25625 0.69242 0.43363 0.0
C1451 C 0.26081 0.68937 0.41579 0.0
C1452 C 0.24511 0.70447 0.43804 0.0
C1453 C 0.24062 0.70885 0.45702 0.0
C1454 C 0.23153 0.69418 0.46566 0.0
C1455 C 0.22745 0.69852 0.48359 0.0
C1456 C 0.23226 0.71751 0.49295 0.0
C1457 C 0.24115 0.7322 0.48439 0.0
C1458 C 0.2453 0.72793 0.46648 0.0
C1459 C 0.23185 0.72635 0.36178 0.0
C1460 C 0.23869 0.7463 0.36732 0.0
C1461 C 0.23156 0.7144 0.37488 0.0
C1462 C 0.23834 0.72238 0.39347 0.0
C1463 C 0.2427 0.7423 0.39926 0.0
C1464 C 0.24277 0.75421 0.38626 0.0
C1465 C 0.24352 0.71062 0.40646 0.0
C1466 C 0.23858 0.71312 0.42426 0.0
C1467 C 0.25504 0.69881 0.40222 0.0
C1468 C 0.26254 0.69721 0.38448 0.0
C1469 C 0.27286 0.71358 0.37897 0.0
C1470 C 0.28022 0.71189 0.36243 0.0
C1471 C 0.27753 0.69387 0.35142 0.0
C1472 C 0.26752 0.67751 0.35693 0.0
C1473 C 0.26008 0.67913 0.37341 0.0
H1474 H 0.28327 0.69259 0.33865 0.0
H1475 H 0.22906 0.72085 0.50681 0.0
H1476 H 0.63952 0.05989 0.7 0.0
H1477 H 0.62807 0.05917 0.66792 0.0
H1478 H 0.58363 0.01131 0.67071 0.0
H1479 H 0.59593 0.01122 0.70265 0.0
H1480 H 0.59792 1.00494 0.64062 0.0
H1481 H 0.58166 0.06079 0.67317 0.0
H1482 H 0.58833 0.09286 0.69268 0.0
H1483 H 0.62322 0.11639 0.65547 0.0
H1484 H 0.61691 0.08443 0.63586 0.0
H1485 H 0.53209 0.00591 0.56942 0.0
H1486 H 0.55133 0.00628 0.59784 0.0
H1487 H 0.59194 0.05248 0.58476 0.0
H1488 H 0.57251 0.05291 0.55717 0.0
H1489 H 0.58462 0.06113 0.61793 0.0
H1490 H 0.59921 0.00882 0.58346 0.0
H1491 H 0.59379 0.97791 0.5623 0.0
H1492 H 0.56491 0.94891 0.60109 0.0
H1493 H 0.56992 0.97968 0.62238 0.0
C1494 C 0.62717 0.04941 0.69377 0.0
C1495 C 0.6183 0.03574 0.70353 0.0
C1496 C 0.62066 0.04904 0.67554 0.0
C1497 C 0.60487 0.03544 0.66718 0.0
C1498 C 0.59584 0.02194 0.67709 0.0
C1499 C 0.6027 0.02193 0.6952 0.0
C1500 C 0.5981 0.03469 0.64782 0.0
C1501 C 0.5948 0.01714 0.63566 0.0
C1502 C 0.59516 0.05101 0.64125 0.0
C1503 C 0.59895 0.07018 0.65317 0.0
C1504 C 0.59085 0.07277 0.66923 0.0
C1505 C 0.59455 0.09094 0.68029 0.0
C1506 C 0.60623 0.10664 0.67535 0.0
C1507 C 0.6142 0.10422 0.65931 0.0
C1508 C 0.61056 0.08609 0.64822 0.0
C1509 C 0.54517 0.01599 0.57265 0.0
C1510 C 0.55094 0.02932 0.56128 0.0
C1511 C 0.55619 0.01606 0.58865 0.0
C1512 C 0.57306 0.02926 0.59309 0.0
C1513 C 0.57897 0.04216 0.5814 0.0
C1514 C 0.56788 0.04235 0.5657 0.0
C1515 C 0.58361 0.03114 0.61102 0.0
C1516 C 0.58787 0.04895 0.62284 0.0
C1517 C 0.58774 0.01521 0.61716 0.0
C1518 C 0.58488 0.99659 0.6045 0.0
C1519 C 0.59161 0.99587 0.58744 0.0
C1520 C 0.58862 0.97837 0.57542 0.0
C1521 C 0.579 0.96146 0.58034 0.0
C1522 C 0.57238 0.96202 0.5973 0.0
C1523 C 0.57531 0.97948 0.60938 0.0
H1524 H 0.57669 0.94792 0.57101 0.0
H1525 H 0.60907 0.12068 0.68392 0.0
H1526 H 0.27032 0.34932 0.97319 0.0
H1527 H 0.26687 0.33714 0.9395 0.0
H1528 H 0.3202 0.33028 0.94552 0.0
H1529 H 0.32352 0.34157 0.97868 0.0
H1530 H 0.30948 0.35394 0.91753 0.0
H1531 H 0.29496 0.29351 0.93985 0.0
H1532 H 0.27733 0.26975 0.95595 0.0
H1533 H 0.2302 0.26584 0.91882 0.0
H1534 H 0.24752 0.28997 0.90275 0.0
H1535 H 0.32553 0.30742 0.83182 0.0
H1536 H 0.32425 0.31608 0.86507 0.0
H1537 H 0.2668 0.30053 0.85438 0.0
H1538 H 0.26789 0.29155 0.82158 0.0
H1539 H 0.27689 0.28854 0.88457 0.0
H1540 H 0.2919 0.34751 0.86079 0.0
H1541 H 0.30958 0.37207 0.84542 0.0
H1542 H 0.35542 0.37906 0.88553 0.0
H1543 H 0.33815 0.35434 0.90092 0.0
C1544 C 0.28115 0.34495 0.96727 0.0
C1545 C 0.2971 0.34619 0.97858 0.0
C1546 C 0.27918 0.33801 0.94813 0.0
C1547 C 0.29329 0.33275 0.94018 0.0
C1548 C 0.30914 0.33412 0.95146 0.0
C1549 C 0.31095 0.34051 0.97044 0.0
C1550 C 0.29232 0.32676 0.91998 0.0
C1551 C 0.30236 0.33964 0.91028 0.0
C1552 C 0.28289 0.30819 0.91062 0.0
C1553 C 0.27246 0.29384 0.92035 0.0
C1554 C 0.28079 0.28785 0.93532 0.0
C1555 C 0.27086 0.27425 0.94439 0.0
C1556 C 0.25263 0.26637 0.93848 0.0
C1557 C 0.24431 0.27203 0.92344 0.0
C1558 C 0.25417 0.28568 0.91436 0.0
C1559 C 0.31266 0.30576 0.8366 0.0
C1560 C 0.29686 0.29902 0.82397 0.0
C1561 C 0.31192 0.31077 0.85558 0.0
C1562 C 0.2954 0.3092 0.86219 0.0
C1563 C 0.27968 0.30191 0.84965 0.0
C1564 C 0.28039 0.29692 0.83081 0.0
C1565 C 0.29432 0.31569 0.88203 0.0
C1566 C 0.28387 0.30292 0.89169 0.0
C1567 C 0.30338 0.33442 0.89141 0.0
C1568 C 0.31379 0.34899 0.88191 0.0
C1569 C 0.3058 0.35416 0.86621 0.0
C1570 C 0.31573 0.36811 0.85751 0.0
C1571 C 0.33359 0.37707 0.86454 0.0
C1572 C 0.34159 0.37207 0.88014 0.0
C1573 C 0.33175 0.3581 0.88884 0.0
H1574 H 0.34127 0.38799 0.85806 0.0
H1575 H 0.24498 0.25582 0.9455 0.0
H1576 H 0.93923 0.06461 0.32311 0.0
H1577 H 0.9514 0.06237 0.35468 0.0
H1578 H 1.00034 0.05677 0.33514 0.0
H1579 H 0.98831 0.05881 0.30403 0.0
H1580 H 0.99302 0.03162 0.35513 0.0
H1581 H 0.99506 0.09829 0.36701 0.0
H1582 H 0.98388 0.12713 0.36894 0.0
H1583 H 0.94728 0.10488 0.40522 0.0
H1584 H 0.95812 0.07581 0.40333 0.0
H1585 H 0.04297 0.03321 0.44317 0.0
H1586 H 0.03139 0.03879 0.41295 0.0
H1587 H 0.98637 0.05215 0.43608 0.0
H1588 H 0.99901 0.04832 0.46661 0.0
H1589 H 0.99117 0.07318 0.41396 0.0
H1590 H 0.9894 0.00537 0.40097 0.0
H1591 H 1.00198 0.97745 0.39899 0.0
H1592 H 0.03912 1.00252 0.36446 0.0
H1593 H 0.02686 0.03063 0.36636 0.0
C1594 C 0.95276 0.06346 0.32561 0.0
C1595 C 0.96267 0.0621 0.31061 0.0
C1596 C 0.9598 0.06204 0.34385 0.0
C1597 C 0.97703 0.05926 0.34785 0.0
C1598 C 0.98703 0.05865 0.33295 0.0
C1599 C 0.98007 0.06003 0.31491 0.0
C1600 C 0.98456 0.05605 0.36694 0.0
C1601 C 0.99268 0.04092 0.36792 0.0
C1602 C 0.98413 0.06764 0.38413 0.0
C1603 C 0.97722 0.08477 0.38481 0.0
C1604 C 0.98448 0.09945 0.37521 0.0
C1605 C 0.97824 0.11586 0.37635 0.0
C1606 C 0.96483 0.1178 0.38714 0.0
C1607 C 0.95763 0.10334 0.39683 0.0
C1608 C 0.96381 0.08689 0.39573 0.0
C1609 C 0.03054 0.03724 0.44179 0.0
C1610 C 0.02195 0.04012 0.45753 0.0
C1611 C 0.02365 0.04025 0.42421 0.0
C1612 C 0.00739 0.04544 0.42134 0.0
C1613 C 0.99884 0.0482 0.43724 0.0
C1614 C 0.00606 0.04585 0.45492 0.0
C1615 C 0.99948 0.04852 0.40227 0.0
C1616 C 0.99135 0.0637 0.40124 0.0
C1617 C 0.99992 0.03697 0.38498 0.0
C1618 C 0.00733 0.02015 0.38396 0.0
C1619 C 1.00031 1.00495 0.39304 0.0
C1620 C 0.00738 0.98909 0.39192 0.0
C1621 C 0.02137 0.98824 0.38164 0.0
C1622 C 0.02831 1.00321 0.37243 0.0
C1623 C 0.02129 0.01909 0.37352 0.0
H1624 H 0.02682 0.97595 0.38079 0.0
H1625 H 0.96005 0.13054 0.38803 0.0
H1626 H 0.25846 0.70155 0.56528 0.0
H1627 H 0.25842 0.71914 0.59579 0.0
H1628 H 0.30619 0.7047 0.61603 0.0
H1629 H 0.30589 0.68605 0.58536 0.0
H1630 H 0.28008 0.69872 0.63872 0.0
H1631 H 0.30654 0.75032 0.60528 0.0
H1632 H 0.30537 0.76804 0.57936 0.0
H1633 H 0.25629 0.7791 0.59308 0.0
H1634 H 0.25711 0.76132 0.61896 0.0
H1635 H 0.31609 0.76288 0.71987 0.0
H1636 H 0.3087 0.74356 0.68884 0.0
H1637 H 0.26565 0.76935 0.67718 0.0
H1638 H 0.27364 0.78939 0.70828 0.0
H1639 H 0.28331 0.76815 0.6496 0.0
H1640 H 0.25819 0.72439 0.68535 0.0
H1641 H 0.25429 0.70558 0.7104 0.0
H1642 H 0.2922 0.67628 0.69159 0.0
H1643 H 0.29741 0.69584 0.66713 0.0
C1644 C 0.26915 0.70227 0.57609 0.0
C1645 C 0.28229 0.6925 0.57294 0.0
C1646 C 0.26907 0.71236 0.59353 0.0
C1647 C 0.28241 0.71338 0.60799 0.0
C1648 C 0.2958 0.70401 0.6049 0.0
C1649 C 0.2957 0.69353 0.58743 0.0
C1650 C 0.28215 0.72396 0.62645 0.0
C1651 C 0.28112 0.71397 0.64131 0.0
C1652 C 0.28203 0.74345 0.62929 0.0
C1653 C 0.28184 0.75442 0.61395 0.0
C1654 C 0.29549 0.75649 0.60271 0.0
C1655 C 0.29488 0.76655 0.58804 0.0
C1656 C 0.28075 0.77466 0.58456 0.0
C1657 C 0.26723 0.77281 0.59579 0.0
C1658 C 0.26777 0.76279 0.61047 0.0
C1659 C 0.30519 0.76451 0.71052 0.0
C1660 C 0.29553 0.77763 0.71599 0.0
C1661 C 0.30082 0.75334 0.69299 0.0
C1662 C 0.28641 0.75479 0.68094 0.0
C1663 C 0.27678 0.76805 0.6864 0.0
C1664 C 0.28138 0.77952 0.70394 0.0
C1665 C 0.28233 0.74321 0.66224 0.0
C1666 C 0.28227 0.75289 0.64723 0.0
C1667 C 0.2808 0.72327 0.65924 0.0
C1668 C 0.27834 0.71184 0.67442 0.0
C1669 C 0.26606 0.71428 0.68675 0.0
C1670 C 0.26367 0.70351 0.70092 0.0
C1671 C 0.2732 0.68992 0.70271 0.0
C1672 C 0.28514 0.68709 0.69036 0.0
C1673 C 0.28786 0.69808 0.67637 0.0
H1674 H 0.27122 0.68146 0.71358 0.0
H1675 H 0.28029 0.78241 0.57317 0.0
H1676 H 0.62055 0.03907 0.78283 0.0
H1677 H 0.60972 0.0548 0.80939 0.0
H1678 H 0.66129 0.06574 0.84195 0.0
H1679 H 0.67239 0.05056 0.81517 0.0
H1680 H 0.62445 0.04346 0.85355 0.0
H1681 H 0.6575 0.10099 0.83339 0.0
H1682 H 0.66451 0.12214 0.81048 0.0
H1683 H 0.61059 0.12657 0.80428 0.0
H1684 H 0.60314 0.10507 0.82682 0.0
H1685 H 0.60394 0.08232 0.93332 0.0
H1686 H 0.62389 0.08729 0.90996 0.0
H1687 H 0.58045 0.09088 0.87106 0.0
H1688 H 0.56038 0.08556 0.89412 0.0
H1689 H 0.61526 0.10883 0.86266 0.0
H1690 H 0.5792 0.04924 0.87315 0.0
H1691 H 0.56614 0.02372 0.89009 0.0
H1692 H 0.6184 0.01865 0.90811 0.0
H1693 H 0.63177 0.04437 0.89144 0.0
C1694 C 0.62936 0.04433 0.79585 0.0
C1695 C 0.64707 0.04314 0.7974 0.0
C1696 C 0.62335 0.05371 0.81073 0.0
C1697 C 0.63495 0.06174 0.82722 0.0
C1698 C 0.65239 0.05987 0.82906 0.0
C1699 C 0.65854 0.05087 0.81405 0.0
C1700 C 0.62817 0.06998 0.8433 0.0
C1701 C 0.62288 0.05793 0.85586 0.0
C1702 C 0.62524 0.08844 0.84538 0.0
C1703 C 0.62971 0.10119 0.83164 0.0
C1704 C 0.64706 0.10622 0.82694 0.0
C1705 C 0.65114 0.11834 0.81406 0.0
C1706 C 0.638 0.12565 0.80589 0.0
C1707 C 0.62075 0.12087 0.81059 0.0
C1708 C 0.6166 0.10871 0.82341 0.0
C1709 C 0.59887 0.0851 0.92007 0.0
C1710 C 0.58055 0.08282 0.91519 0.0
C1711 C 0.61029 0.0881 0.90683 0.0
C1712 C 0.60338 0.08885 0.88877 0.0
C1713 C 0.58589 0.09019 0.88496 0.0
C1714 C 0.57442 0.0871 0.89818 0.0
C1715 C 0.61222 0.08251 0.87332 0.0
C1716 C 0.61744 0.09463 0.86067 0.0
C1717 C 0.61438 0.0637 0.87052 0.0
C1718 C 0.60651 0.04907 0.88147 0.0
C1719 C 0.58793 0.04296 0.88103 0.0
C1720 C 0.58046 0.02834 0.89044 0.0
C1721 C 0.59144 0.01964 0.90026 0.0
C1722 C 0.60991 0.0255 0.90062 0.0
C1723 C 0.61745 0.0401 0.89121 0.0
H1724 H 0.58562 0.00832 0.90753 0.0
H1725 H 0.64119 0.13507 0.79596 0.0
H1726 H 0.27361 0.364 0.08257 0.0
H1727 H 0.26663 0.35071 0.11069 0.0
H1728 H 0.31326 0.32919 0.11088 0.0
H1729 H 0.31995 0.34177 0.08313 0.0
H1730 H 0.28804 0.30286 0.11773 0.0
H1731 H 0.31105 0.37017 0.14141 0.0
H1732 H 0.31247 0.40451 0.14372 0.0
H1733 H 0.25946 0.39391 0.15827 0.0
H1734 H 0.25765 0.35945 0.15581 0.0
H1735 H 0.30657 0.29556 0.2143 0.0
H1736 H 0.3083 0.30881 0.18557 0.0
H1737 H 0.25162 0.30232 0.17931 0.0
H1738 H 0.24971 0.28822 0.20764 0.0
H1739 H 0.2787 0.34167 0.17521 0.0
H1740 H 0.25862 0.27287 0.15344 0.0
H1741 H 0.26027 0.23947 0.15181 0.0
H1742 H 0.3121 0.25435 0.13457 0.0
H1743 H 0.31091 0.28796 0.13649 0.0
C1744 C 0.28235 0.35647 0.08868 0.0
C1745 C 0.2973 0.35396 0.08042 0.0
C1746 C 0.27839 0.34889 0.10479 0.0
C1747 C 0.28943 0.33887 0.11305 0.0
C1748 C 0.30437 0.33661 0.10483 0.0
C1749 C 0.30822 0.34396 0.08886 0.0
C1750 C 0.28579 0.33061 0.13019 0.0
C1751 C 0.28608 0.31145 0.13028 0.0
C1752 C 0.28307 0.34158 0.14667 0.0
C1753 C 0.28412 0.36224 0.14819 0.0
C1754 C 0.29964 0.37516 0.14495 0.0
C1755 C 0.30053 0.39463 0.14631 0.0
C1756 C 0.28604 0.40138 0.15107 0.0
C1757 C 0.27065 0.38866 0.15454 0.0
C1758 C 0.26969 0.36916 0.15317 0.0
C1759 C 0.2945 0.29708 0.20686 0.0
C1760 C 0.27799 0.2909 0.21319 0.0
C1761 C 0.2955 0.30459 0.19042 0.0
C1762 C 0.28008 0.30653 0.18028 0.0
C1763 C 0.26367 0.30092 0.18691 0.0
C1764 C 0.26258 0.29288 0.20305 0.0
C1765 C 0.28113 0.31413 0.16263 0.0
C1766 C 0.28045 0.33311 0.16253 0.0
C1767 C 0.28393 0.30315 0.14625 0.0
C1768 C 0.28478 0.28301 0.1454 0.0
C1769 C 0.27049 0.26911 0.14959 0.0
C1770 C 0.27131 0.25011 0.14855 0.0
C1771 C 0.28631 0.24481 0.14316 0.0
C1772 C 0.30051 0.25849 0.1388 0.0
C1773 C 0.29977 0.27752 0.13988 0.0
H1774 H 0.2869 0.23008 0.14231 0.0
H1775 H 0.28675 0.41647 0.15212 0.0
H1776 H 0.27998 0.97417 0.03287 0.0
H1777 H 0.25505 0.98745 0.03946 0.0
H1778 H 0.21795 0.93387 0.01276 0.0
H1779 H 0.24277 0.92053 0.00585 0.0
H1780 H 0.21041 0.96511 1.00131 0.0
H1781 H 0.22448 0.94527 0.05916 0.0
H1782 H 0.24481 0.9438 0.08634 0.0
H1783 H 0.25726 1.00496 0.10267 0.0
H1784 H 0.23716 0.00683 0.07545 0.0
H1785 H 0.13351 0.98875 0.02676 0.0
H1786 H 0.15679 0.9718 0.02598 0.0
H1787 H 0.19623 0.02424 0.05127 0.0
H1788 H 0.1732 0.04145 0.05162 0.0
H1789 H 0.20192 0.99212 0.06468 0.0
H1790 H 0.19143 0.0133 0.00727 0.0
H1791 H 0.17408 0.01718 0.97901 0.0
H1792 H 0.15791 0.95611 0.96095 0.0
H1793 H 0.17492 0.95185 0.98931 0.0
C1794 C 0.26651 0.96524 0.02838 0.0
C1795 C 0.26326 0.94635 0.01885 0.0
C1796 C 0.25233 0.97278 0.03229 0.0
C1797 C 0.23478 0.96146 0.02686 0.0
C1798 C 0.23148 0.9427 0.01713 0.0
C1799 C 0.24564 0.93518 0.01312 0.0
C1800 C 0.21981 0.96955 0.03048 0.0
C1801 C 0.20828 0.97063 0.01518 0.0
C1802 C 0.21761 0.97733 0.04858 0.0
C1803 C 0.22939 0.9762 0.0652 0.0
C1804 C 0.23161 0.95842 0.0685 0.0
C1805 C 0.24309 0.95751 0.08392 0.0
C1806 C 0.25234 0.97428 0.09621 0.0
C1807 C 0.25008 0.99199 0.09314 0.0
C1808 C 0.23862 0.99297 0.07774 0.0
C1809 C 0.14713 0.99667 0.03216 0.0
C1810 C 0.15158 0.0165 0.03898 0.0
C1811 C 0.16034 0.98694 0.03187 0.0
C1812 C 0.17814 0.99689 0.03843 0.0
C1813 C 0.1825 0.01638 0.04622 0.0
C1814 C 0.16933 0.02616 0.0464 0.0
C1815 C 0.1924 0.98742 0.03547 0.0
C1816 C 0.20386 0.98624 0.05086 0.0
C1817 C 0.19477 0.97979 0.01741 0.0
C1818 C 0.18419 0.98224 1.00055 0.0
C1819 C 0.18396 1.00068 0.99741 0.0
C1820 C 0.17424 1.00295 0.98134 0.0
C1821 C 0.16483 0.9869 0.96823 0.0
C1822 C 0.16515 0.96853 0.97115 0.0
C1823 C 0.17481 0.96618 0.98722 0.0
H1824 H 0.15735 0.98869 0.95578 0.0
H1825 H 0.26124 0.97355 0.10813 0.0
H1826 H 0.73904 0.63072 0.99146 0.0
H1827 H 0.71045 0.60778 0.99309 0.0
H1828 H 0.68712 0.65473 0.00684 0.0
H1829 H 0.71518 0.67743 0.00519 0.0
H1830 H 0.67793 0.62815 0.02878 0.0
H1831 H 0.6787 0.62931 0.96353 0.0
H1832 H 0.69105 0.62586 0.93404 0.0
H1833 H 0.68856 0.56703 0.93669 0.0
H1834 H 0.67641 0.57022 0.96635 0.0
H1835 H 0.5849 0.57928 0.01302 0.0
H1836 H 0.61426 0.60113 0.01289 0.0
H1837 H 0.63344 0.55294 0.99136 0.0
H1838 H 0.60401 0.53146 0.99067 0.0
H1839 H 0.6456 0.57969 0.97403 0.0
H1840 H 0.64322 0.57763 0.03844 0.0
H1841 H 0.63125 0.58098 0.06811 0.0
H1842 H 0.63763 0.64097 0.06813 0.0
H1843 H 0.64918 0.63789 0.03815 0.0
C1844 C 0.72781 0.63611 0.99482 0.0
C1845 C 0.72947 0.65596 0.99802 0.0
C1846 C 0.71146 0.623 0.99573 0.0
C1847 C 0.69654 0.62951 1.00003 0.0
C1848 C 0.69835 0.64929 0.00354 0.0
C1849 C 0.71449 0.66228 1.00244 0.0
C1850 C 0.67884 0.61598 1.00056 0.0
C1851 C 0.67079 0.61762 0.01677 0.0
C1852 C 0.66959 0.602 0.98506 0.0
C1853 C 0.67685 0.60006 0.96724 0.0
C1854 C 0.68093 0.61569 0.9579 0.0
C1855 C 0.68787 0.61377 0.94114 0.0
C1856 C 0.69064 0.59625 0.93353 0.0
C1857 C 0.68644 0.5806 0.94263 0.0
C1858 C 0.67952 0.58245 0.9594 0.0
C1859 C 0.5953 0.57344 0.00812 0.0
C1860 C 0.59197 0.55366 1.00173 0.0
C1861 C 0.61223 0.58591 0.00822 0.0
C1862 C 0.62633 0.57877 1.0023 0.0
C1863 C 0.62292 0.55897 0.99595 0.0
C1864 C 0.60602 0.54664 0.99562 0.0
C1865 C 0.64455 0.59172 1.00233 0.0
C1866 C 0.65271 0.59006 0.98616 0.0
C1867 C 0.65392 0.6056 0.01795 0.0
C1868 C 0.64687 0.60747 0.03592 0.0
C1869 C 0.6419 0.5915 0.04467 0.0
C1870 C 0.63522 0.59336 0.06157 0.0
C1871 C 0.63368 0.61117 0.07002 0.0
C1872 C 0.6388 0.62717 0.06156 0.0
C1873 C 0.64539 0.62537 0.04459 0.0
H1874 H 0.62854 0.61257 0.08313 0.0
H1875 H 0.69601 0.59479 0.92055 0.0
H1876 H 0.72468 0.47628 0.26882 0.0
H1877 H 0.73682 0.44877 0.26738 0.0
H1878 H 0.68433 0.41177 0.26569 0.0
H1879 H 0.67188 0.43996 0.26757 0.0
H1880 H 0.70543 0.39577 0.28401 0.0
H1881 H 0.71089 0.41408 0.22594 0.0
H1882 H 0.71827 0.43492 0.20285 0.0
H1883 H 0.77369 0.44956 0.22524 0.0
H1884 H 0.76661 0.42896 0.24864 0.0
H1885 H 0.74099 0.31255 0.26042 0.0
H1886 H 0.72486 0.33749 0.26051 0.0
H1887 H 0.77471 0.3807 0.26703 0.0
H1888 H 0.7908 0.35585 0.26693 0.0
H1889 H 0.75267 0.39161 0.24458 0.0
H1890 H 0.74431 0.3715 0.30374 0.0
H1891 H 0.73455 0.34755 0.32353 0.0
H1892 H 0.68135 0.33254 0.2943 0.0
H1893 H 0.69085 0.35631 0.27425 0.0
C1894 C 0.71537 0.46241 0.26807 0.0
C1895 C 0.69692 0.46114 0.26824 0.0
C1896 C 0.72255 0.44622 0.26706 0.0
C1897 C 0.71189 0.42726 0.26594 0.0
C1898 C 0.69336 0.42578 0.26639 0.0
C1899 C 0.68607 0.44219 0.2674 0.0
C1900 C 0.72031 0.40968 0.26447 0.0
C1901 C 0.71558 0.39498 0.27512 0.0
C1902 C 0.73381 0.40759 0.25304 0.0
C1903 C 0.73819 0.42016 0.23918 0.0
C1904 C 0.72464 0.42187 0.22605 0.0
C1905 C 0.72877 0.43361 0.21288 0.0
C1906 C 0.74643 0.44361 0.21262 0.0
C1907 C 0.76001 0.44184 0.22549 0.0
C1908 C 0.75595 0.43012 0.23871 0.0
C1909 C 0.74867 0.32733 0.26192 0.0
C1910 C 0.76758 0.33161 0.26372 0.0
C1911 C 0.73927 0.34192 0.26212 0.0
C1912 C 0.74813 0.36178 0.26408 0.0
C1913 C 0.767 0.36594 0.26555 0.0
C1914 C 0.77639 0.35141 0.26553 0.0
C1915 C 0.73813 0.37804 0.26444 0.0
C1916 C 0.74258 0.3925 0.25353 0.0
C1917 C 0.72408 0.37957 0.27523 0.0
C1918 C 0.7183 0.36557 0.28745 0.0
C1919 C 0.73054 0.36305 0.30152 0.0
C1920 C 0.72506 0.34951 0.31277 0.0
C1921 C 0.70735 0.33851 0.31016 0.0
C1922 C 0.69506 0.34107 0.29631 0.0
C1923 C 0.70048 0.35459 0.28502 0.0
H1924 H 0.70313 0.32802 0.31887 0.0
H1925 H 0.7496 0.45268 0.20241 0.0
H1926 H 0.86534 0.42436 0.52842 0.0
H1927 H 0.89354 0.44694 0.52829 0.0
H1928 H 0.86809 0.49325 0.53146 0.0
H1929 H 0.83909 0.46998 0.52984 0.0
H1930 H 0.88694 0.495 0.50529 0.0
H1931 H 0.90034 0.4879 0.56834 0.0
H1932 H 0.90139 0.46983 0.59398 0.0
H1933 H 0.93629 0.44065 0.56771 0.0
H1934 H 0.93523 0.45826 0.54179 0.0
H1935 H 0.98223 0.55053 0.51756 0.0
H1936 H 0.95134 0.53876 0.52305 0.0
H1937 H 0.94941 0.48256 0.4936 0.0
H1938 H 0.98019 0.49439 0.48758 0.0
H1939 H 0.94492 0.49288 0.53764 0.0
H1940 H 0.9236 0.49195 0.47216 0.0
H1941 H 0.92343 0.50858 0.44538 0.0
H1942 H 0.90506 0.55243 0.47683 0.0
H1943 H 0.90529 0.53608 0.50386 0.0
C1944 C 0.86576 0.43941 0.52966 0.0
C1945 C 0.85011 0.44551 0.52916 0.0
C1946 C 0.88199 0.4524 0.52976 0.0
C1947 C 0.88304 0.4719 0.53035 0.0
C1948 C 0.86755 0.47826 0.53113 0.0
C1949 C 0.85108 0.46506 0.53031 0.0
C1950 C 0.89991 0.48483 0.52758 0.0
C1951 C 0.89957 0.49495 0.51278 0.0
C1952 C 0.91646 0.48451 0.53709 0.0
C1953 C 0.91771 0.47447 0.55311 0.0
C1954 C 0.90824 0.47764 0.56803 0.0
C1955 C 0.90881 0.46744 0.5826 0.0
C1956 C 0.9189 0.45411 0.58248 0.0
C1957 C 0.92851 0.45101 0.56782 0.0
C1958 C 0.92796 0.46114 0.55321 0.0
C1959 C 0.97498 0.5358 0.51186 0.0
C1960 C 0.98333 0.5232 0.5023 0.0
C1961 C 0.95747 0.52919 0.51495 0.0
C1962 C 0.94842 0.50992 0.50872 0.0
C1963 C 0.95639 0.49755 0.49832 0.0
C1964 C 0.97381 0.50427 0.49487 0.0
C1965 C 0.93159 0.5021 0.5152 0.0
C1966 C 0.93214 0.49323 0.53069 0.0
C1967 C 0.91533 0.50345 0.50637 0.0
C1968 C 0.91457 0.5129 0.49001 0.0
C1969 C 0.91959 0.50517 0.47336 0.0
C1970 C 0.91947 0.51453 0.45814 0.0
C1971 C 0.91426 0.53157 0.45941 0.0
C1972 C 0.90908 0.53923 0.47587 0.0
C1973 C 0.90917 0.52991 0.49113 0.0
H1974 H 0.91422 0.53883 0.44764 0.0
H1975 H 0.91927 0.44619 0.59374 0.0
H1976 H 0.3669 0.04377 0.27188 0.0
H1977 H 0.35066 0.06609 0.26213 0.0
H1978 H 0.40026 0.10989 0.26768 0.0
H1979 H 0.41653 0.08797 0.27768 0.0
H1980 H 0.37549 0.12236 0.28476 0.0
H1981 H 0.37915 0.08706 0.22548 0.0
H1982 H 0.37507 0.05834 0.20159 0.0
H1983 H 0.31841 0.04511 0.20158 0.0
H1984 H 0.32216 0.07359 0.2257 0.0
H1985 H 0.34121 0.19118 0.24985 0.0
H1986 H 0.35872 0.16799 0.25155 0.0
H1987 H 0.31025 0.12199 0.24208 0.0
H1988 H 0.29272 0.14502 0.23948 0.0
H1989 H 0.33516 0.11063 0.2255 0.0
H1990 H 0.3314 0.14368 0.2863 0.0
H1991 H 0.33496 0.17194 0.31065 0.0
H1992 H 0.39127 0.18845 0.30837 0.0
H1993 H 0.388 0.16043 0.28382 0.0
C1994 C 0.37431 0.05821 0.27117 0.0
C1995 C 0.39296 0.06418 0.27562 0.0
C1996 C 0.36505 0.07081 0.26538 0.0
C1997 C 0.37437 0.08943 0.26395 0.0
C1998 C 0.39292 0.09548 0.26861 0.0
C1999 C 0.40215 0.08297 0.27441 0.0
C2000 C 0.36476 0.10317 0.25881 0.0
C2001 C 0.36688 0.11995 0.27168 0.0
C2002 C 0.35323 0.09962 0.24194 0.0
C2003 C 0.35097 0.08236 0.22757 0.0
C2004 C 0.36583 0.07792 0.22054 0.0
C2005 C 0.36357 0.0617 0.20692 0.0
C2006 C 0.3465 0.04987 0.20011 0.0
C2007 C 0.33164 0.05426 0.20689 0.0
C2008 C 0.33382 0.07044 0.22053 0.0
C2009 C 0.33433 0.17609 0.24781 0.0
C2010 C 0.31565 0.16987 0.24451 0.0
C2011 C 0.34431 0.1629 0.24882 0.0
C2012 C 0.33571 0.14339 0.24729 0.0
C2013 C 0.3171 0.13702 0.24327 0.0
C2014 C 0.30712 0.15018 0.24183 0.0
C2015 C 0.34595 0.12982 0.25146 0.0
C2016 C 0.34389 0.11306 0.2385 0.0
C2017 C 0.35746 0.13325 0.26834 0.0
C2018 C 0.35942 0.15008 0.28311 0.0
C2019 C 0.34451 0.15342 0.2909 0.0
C2020 C 0.34648 0.16938 0.30475 0.0
C2021 C 0.36332 0.18201 0.31102 0.0
C2022 C 0.37823 0.17868 0.30348 0.0
C2023 C 0.37633 0.16276 0.28961 0.0
H2024 H 0.36482 0.19435 0.32174 0.0
H2025 H 0.34478 0.03734 0.18955 0.0
H2026 H 0.31816 0.12894 0.47336 0.0
H2027 H 0.34334 0.11651 0.48228 0.0
H2028 H 0.35925 0.16019 0.5314 0.0
H2029 H 0.33401 0.17289 0.52246 0.0
H2030 H 0.38814 0.15586 0.51524 0.0
H2031 H 0.3402 0.115 0.53573 0.0
H2032 H 0.30989 0.09414 0.53442 0.0
H2033 H 0.31938 0.05427 0.49009 0.0
H2034 H 0.34967 0.07505 0.49093 0.0
H2035 H 0.45159 0.1039 0.54229 0.0
H2036 H 0.4274 0.11981 0.54315 0.0
H2037 H 0.40095 0.08403 0.49119 0.0
H2038 H 0.42469 0.06785 0.49048 0.0
H2039 H 0.37771 0.08626 0.51585 0.0
H2040 H 0.42536 0.13106 0.49429 0.0
H2041 H 0.45565 0.15257 0.49736 0.0
H2042 H 0.44674 0.18542 0.54715 0.0
H2043 H 0.41643 0.16392 0.54452 0.0
C2044 C 0.32696 0.13595 0.48608 0.0
C2045 C 0.32392 0.15189 0.4972 0.0
C2046 C 0.34136 0.12876 0.49122 0.0
C2047 C 0.35314 0.13722 0.50766 0.0
C2048 C 0.35036 0.15335 0.51869 0.0
C2049 C 0.33586 0.16055 0.51357 0.0
C2050 C 0.36823 0.12905 0.51305 0.0
C2051 C 0.38584 0.14071 0.51572 0.0
C2052 C 0.36536 0.10931 0.51386 0.0
C2053 C 0.34717 0.09667 0.5133 0.0
C2054 C 0.33578 0.10186 0.5256 0.0
C2055 C 0.31861 0.09003 0.52496 0.0
C2056 C 0.3127 0.07291 0.51215 0.0
C2057 C 0.32397 0.06755 0.49999 0.0
C2058 C 0.34116 0.07933 0.50056 0.0
C2059 C 0.44059 0.09938 0.53108 0.0
C2060 C 0.44023 0.08468 0.51621 0.0
C2061 C 0.4268 0.10858 0.53154 0.0
C2062 C 0.41236 0.10324 0.51715 0.0
C2063 C 0.41192 0.08846 0.50245 0.0
C2064 C 0.42566 0.07934 0.50195 0.0
C2065 C 0.39758 0.11286 0.5171 0.0
C2066 C 0.38 0.10146 0.51559 0.0
C2067 C 0.40053 0.13287 0.51771 0.0
C2068 C 0.41871 0.14578 0.5193 0.0
C2069 C 0.42991 0.14278 0.50598 0.0
C2070 C 0.44706 0.15497 0.50762 0.0
C2071 C 0.4531 0.17032 0.52244 0.0
C2072 C 0.44202 0.17351 0.53569 0.0
C2073 C 0.42486 0.16133 0.53412 0.0
H2074 H 0.46633 0.17977 0.52358 0.0
H2075 H 0.2994 0.06377 0.51168 0.0
H2076 H 0.68277 0.57049 0.24476 0.0
H2077 H 0.69987 0.60301 0.24341 0.0
H2078 H 0.72479 0.60911 0.29953 0.0
H2079 H 0.70715 0.57649 0.30094 0.0
H2080 H 0.71679 0.64101 0.29676 0.0
H2081 H 0.74689 0.60496 0.25675 0.0
H2082 H 0.74875 0.58097 0.23022 0.0
H2083 H 0.7251 0.61044 0.19276 0.0
H2084 H 0.7229 0.63447 0.21909 0.0
H2085 H 0.78407 0.72782 0.29886 0.0
H2086 H 0.76687 0.69483 0.29816 0.0
H2087 H 0.74074 0.69315 0.2435 0.0
H2088 H 0.75807 0.72653 0.24424 0.0
H2089 H 0.74865 0.65928 0.24446 0.0
H2090 H 0.71862 0.69506 0.28227 0.0
H2091 H 0.715 0.71932 0.30757 0.0
H2092 H 0.73602 0.69072 0.34774 0.0
H2093 H 0.74007 0.66645 0.32265 0.0
C2094 C 0.69241 0.57842 0.25661 0.0
C2095 C 0.69403 0.57017 0.27266 0.0
C2096 C 0.70225 0.59732 0.25588 0.0
C2097 C 0.71421 0.60905 0.27122 0.0
C2098 C 0.71595 0.60074 0.28729 0.0
C2099 C 0.70603 0.58176 0.28801 0.0
C2100 C 0.72414 0.62998 0.27078 0.0
C2101 C 0.724 0.64478 0.28542 0.0
C2102 C 0.73312 0.63573 0.25574 0.0
C2103 C 0.7346 0.62141 0.2399 0.0
C2104 C 0.742 0.60626 0.24286 0.0
C2105 C 0.74312 0.59266 0.22786 0.0
C2106 C 0.73701 0.59415 0.20982 0.0
C2107 C 0.72981 0.60929 0.20674 0.0
C2108 C 0.72864 0.62291 0.22169 0.0
C2109 C 0.77456 0.72059 0.28669 0.0
C2110 C 0.77256 0.73024 0.27168 0.0
C2111 C 0.76458 0.70151 0.28631 0.0
C2112 C 0.75213 0.69098 0.27084 0.0
C2113 C 0.75011 0.70057 0.25572 0.0
C2114 C 0.76 0.71987 0.25619 0.0
C2115 C 0.74157 0.67016 0.27061 0.0
C2116 C 0.74152 0.65544 0.25584 0.0
C2117 C 0.7322 0.6645 0.28539 0.0
C2118 C 0.72983 0.67904 0.30056 0.0
C2119 C 0.72263 0.69403 0.29649 0.0
C2120 C 0.72047 0.70777 0.3108 0.0
C2121 C 0.72532 0.70659 0.32925 0.0
C2122 C 0.7323 0.69163 0.33343 0.0
C2123 C 0.73453 0.67788 0.31917 0.0
H2124 H 0.72362 0.71723 0.34031 0.0
H2125 H 0.73788 0.5836 0.19823 0.0
H2126 H 0.89546 0.47902 0.72903 0.0
H2127 H 0.87124 0.44968 0.72755 0.0
H2128 H 0.87327 0.46221 0.78694 0.0
H2129 H 0.89648 0.49177 0.78839 0.0
H2130 H 0.87765 0.42091 0.75817 0.0
H2131 H 0.84298 0.4656 0.78504 0.0
H2132 H 0.83213 0.49433 0.78359 0.0
H2133 H 0.80851 0.47159 0.72707 0.0
H2134 H 0.81975 0.44296 0.7281 0.0
H2135 H 0.81984 0.35921 0.79967 0.0
H2136 H 0.83343 0.39145 0.79432 0.0
H2137 H 0.80793 0.37581 0.73753 0.0
H2138 H 0.79425 0.34351 0.74271 0.0
H2139 H 0.81351 0.41758 0.75965 0.0
H2140 H 0.84234 0.36723 0.73876 0.0
H2141 H 0.85274 0.3391 0.74434 0.0
H2142 H 0.88785 0.37292 0.79263 0.0
H2143 H 0.87732 0.40115 0.78757 0.0
C2144 C 0.89026 0.47566 0.7416 0.0
C2145 C 0.89735 0.48762 0.75874 0.0
C2146 C 0.87663 0.45904 0.74076 0.0
C2147 C 0.87048 0.45426 0.75712 0.0
C2148 C 0.87762 0.46616 0.77419 0.0
C2149 C 0.89076 0.48297 0.77497 0.0
C2150 C 0.85739 0.4362 0.75686 0.0
C2151 C 0.86359 0.42003 0.75822 0.0
C2152 C 0.83924 0.43539 0.75716 0.0
C2153 C 0.83249 0.45244 0.75651 0.0
C2154 C 0.83573 0.4669 0.77223 0.0
C2155 C 0.82948 0.48313 0.7715 0.0
C2156 C 0.81972 0.48484 0.75521 0.0
C2157 C 0.81617 0.4703 0.73964 0.0
C2158 C 0.82253 0.45411 0.74026 0.0
C2159 C 0.81667 0.36286 0.78624 0.0
C2160 C 0.80653 0.34895 0.77141 0.0
C2161 C 0.82434 0.3812 0.78326 0.0
C2162 C 0.82171 0.3856 0.76552 0.0
C2163 C 0.80998 0.37241 0.75126 0.0
C2164 C 0.80244 0.35402 0.75418 0.0
C2165 C 0.83377 0.40236 0.76109 0.0
C2166 C 0.82745 0.41826 0.75896 0.0
C2167 C 0.8519 0.40296 0.76039 0.0
C2168 C 0.85895 0.38627 0.76286 0.0
C2169 C 0.85221 0.36865 0.75062 0.0
C2170 C 0.85812 0.35268 0.7537 0.0
C2171 C 0.87093 0.35421 0.76886 0.0
C2172 C 0.87792 0.37175 0.78091 0.0
C2173 C 0.87199 0.38774 0.77793 0.0
H2174 H 0.87545 0.34183 0.77126 0.0
H2175 H 0.81485 0.49739 0.75469 0.0
H2176 H 0.10063 0.8704 0.09075 0.0
H2177 H 0.0925 0.89618 0.07722 0.0
H2178 H 0.03683 0.86744 0.0743 0.0
H2179 H 0.04493 0.84168 0.08851 0.0
H2180 H 0.05278 0.88356 0.03888 0.0
H2181 H 0.04436 0.90002 0.1028 0.0
H2182 H 0.05342 0.90489 0.13653 0.0
H2183 H 0.10043 0.94832 0.13223 0.0
H2184 H 0.09179 0.94342 0.09838 0.0
H2185 H 0.02454 0.9654 0.01658 0.0
H2186 H 0.02712 0.93647 0.0284 0.0
H2187 H 0.08074 0.96568 0.05431 0.0
H2188 H 0.07829 0.99457 0.04267 0.0
H2189 H 0.06256 0.94756 0.07803 0.0
H2190 H 0.07241 0.93182 0.01529 0.0
H2191 H 0.06567 0.92688 0.98126 0.0
H2192 H 0.01835 0.88249 0.98245 0.0
H2193 H 0.02465 0.8874 0.01655 0.0
C2194 C 0.08663 0.86961 0.0874 0.0
C2195 C 0.07342 0.85408 0.0909 0.0
C2196 C 0.08202 0.88431 0.07957 0.0
C2197 C 0.06408 0.88368 0.07463 0.0
C2198 C 0.05077 0.86816 0.07794 0.0
C2199 C 0.0554 0.85358 0.08625 0.0
C2200 C 0.05958 0.89976 0.06665 0.0
C2201 C 0.05449 0.89746 0.04745 0.0
C2202 C 0.0624 0.91803 0.07772 0.0
C2203 C 0.06753 0.9212 0.09806 0.0
C2204 C 0.05672 0.91047 0.10903 0.0
C2205 C 0.06176 0.91325 0.12817 0.0
C2206 C 0.07752 0.92687 0.13651 0.0
C2207 C 0.08824 0.93776 0.12574 0.0
C2208 C 0.08328 0.93499 0.10658 0.0
C2209 C 0.03695 0.96564 0.02466 0.0
C2210 C 0.05121 0.9824 0.0286 0.0
C2211 C 0.03841 0.94903 0.03139 0.0
C2212 C 0.05416 0.9488 0.04224 0.0
C2213 C 0.06844 0.96545 0.04603 0.0
C2214 C 0.06703 0.98199 0.03925 0.0
C2215 C 0.05572 0.93151 0.05015 0.0
C2216 C 0.06046 0.93362 0.06938 0.0
C2217 C 0.05272 0.91314 0.03902 0.0
C2218 C 0.04888 0.91015 0.01851 0.0
C2219 C 0.06047 0.92114 0.00832 0.0
C2220 C 0.05674 0.91832 0.98901 0.0
C2221 C 0.04156 0.90443 0.9797 0.0
C2222 C 0.03009 0.89328 0.98969 0.0
C2223 C 0.03373 0.89608 0.00901 0.0
H2224 H 0.03871 0.90225 0.96475 0.0
H2225 H 0.0814 0.92901 0.15134 0.0
H2226 H 0.95687 0.28622 0.90191 0.0
H2227 H 0.93228 0.29323 0.8838 0.0
H2228 H 0.93399 0.24917 0.83857 0.0
H2229 H 0.95947 0.24276 0.85663 0.0
H2230 H 0.92664 0.27785 0.82504 0.0
H2231 H 0.90222 0.24302 0.87165 0.0
H2232 H 0.8993 0.23675 0.90335 0.0
H2233 H 0.8882 0.29116 0.91868 0.0
H2234 H 0.89125 0.29783 0.88712 0.0
H2235 H 0.83849 0.25588 0.7807 0.0
H2236 H 0.86611 0.25609 0.79902 0.0
H2237 H 0.86391 0.30694 0.83563 0.0
H2238 H 0.83601 0.3071 0.8168 0.0
H2239 H 0.87208 0.27814 0.85424 0.0
H2240 H 0.89385 0.31197 0.80747 0.0
H2241 H 0.89655 0.31874 0.77593 0.0
H2242 H 0.9125 0.26704 0.76106 0.0
H2243 H 0.90965 0.25979 0.79245 0.0
C2244 C 0.95214 0.27816 0.88799 0.0
C2245 C 0.96003 0.26388 0.88069 0.0
C2246 C 0.93791 0.28205 0.8777 0.0
C2247 C 0.93073 0.27135 0.85997 0.0
C2248 C 0.9391 0.25755 0.85229 0.0
C2249 C 0.95369 0.25388 0.86255 0.0
C2250 C 0.91442 0.27445 0.84972 0.0
C2251 C 0.91465 0.27763 0.83139 0.0
C2252 C 0.89886 0.27496 0.8581 0.0
C2253 C 0.89713 0.27099 0.87709 0.0
C2254 C 0.89928 0.25369 0.88182 0.0
C2255 C 0.89758 0.25006 0.89976 0.0
C2256 C 0.89361 0.26356 0.91303 0.0
C2257 C 0.8913 0.28072 0.90839 0.0
C2258 C 0.89299 0.28443 0.89048 0.0
C2259 C 0.84378 0.26719 0.79264 0.0
C2260 C 0.83498 0.28152 0.79724 0.0
C2261 C 0.85971 0.26732 0.80306 0.0
C2262 C 0.8673 0.28165 0.81857 0.0
C2263 C 0.85838 0.29579 0.82361 0.0
C2264 C 0.84242 0.29586 0.81291 0.0
C2265 C 0.88426 0.28119 0.82955 0.0
C2266 C 0.88413 0.27847 0.84798 0.0
C2267 C 0.8999 0.28113 0.82128 0.0
C2268 C 0.90136 0.28524 0.80228 0.0
C2269 C 0.89774 0.30193 0.79742 0.0
C2270 C 0.89934 0.30588 0.77958 0.0
C2271 C 0.90464 0.2933 0.76649 0.0
C2272 C 0.90837 0.27675 0.77121 0.0
C2273 C 0.90678 0.27272 0.78904 0.0
H2274 H 0.9059 0.2964 0.75269 0.0
H2275 H 0.89229 0.26072 0.9269 0.0
H2276 H 0.57563 0.25663 0.55694 0.0
H2277 H 0.56995 0.22221 0.5448 0.0
H2278 H 0.55805 0.20936 0.59815 0.0
H2279 H 0.56297 0.24361 0.61017 0.0
H2280 H 0.58925 0.19553 0.57318 0.0
H2281 H 0.5267 0.19258 0.5806 0.0
H2282 H 0.50061 0.20547 0.57595 0.0
H2283 H 0.50145 0.19595 0.51714 0.0
H2284 H 0.5278 0.18332 0.52153 0.0
H2285 H 0.56771 0.09417 0.55559 0.0
H2286 H 0.57045 0.12787 0.56767 0.0
H2287 H 0.54406 0.13354 0.5153 0.0
H2288 H 0.53994 0.0993 0.50387 0.0
H2289 H 0.53211 0.15188 0.54006 0.0
H2290 H 0.59268 0.15153 0.53185 0.0
H2291 H 0.61986 0.14036 0.53607 0.0
H2292 H 0.62417 0.15713 0.59507 0.0
H2293 H 0.59691 0.16821 0.5912 0.0
C2294 C 0.57144 0.24642 0.56594 0.0
C2295 C 0.56958 0.25275 0.58443 0.0
C2296 C 0.56826 0.22683 0.55902 0.0
C2297 C 0.56355 0.21335 0.5706 0.0
C2298 C 0.5615 0.21959 0.58899 0.0
C2299 C 0.56422 0.23912 0.59578 0.0
C2300 C 0.56171 0.19284 0.56374 0.0
C2301 C 0.57676 0.18585 0.56609 0.0
C2302 C 0.54552 0.18049 0.55418 0.0
C2303 C 0.52935 0.18734 0.55142 0.0
C2304 C 0.52142 0.19342 0.56671 0.0
C2305 C 0.50658 0.20065 0.56412 0.0
C2306 C 0.49948 0.20169 0.54628 0.0
C2307 C 0.50705 0.19526 0.53097 0.0
C2308 C 0.52193 0.18805 0.53349 0.0
C2309 C 0.56273 0.10275 0.54663 0.0
C2310 C 0.55388 0.09437 0.52874 0.0
C2311 C 0.56435 0.12204 0.55349 0.0
C2312 C 0.55789 0.13354 0.54228 0.0
C2313 C 0.54921 0.12509 0.52426 0.0
C2314 C 0.547 0.1056 0.51765 0.0
C2315 C 0.55976 0.1542 0.54945 0.0
C2316 C 0.54471 0.16136 0.5471 0.0
C2317 C 0.57606 0.16676 0.55895 0.0
C2318 C 0.59271 0.16059 0.56123 0.0
C2319 C 0.59942 0.15279 0.54571 0.0
C2320 C 0.61483 0.14647 0.54805 0.0
C2321 C 0.62372 0.14801 0.56583 0.0
C2322 C 0.61727 0.15595 0.58131 0.0
C2323 C 0.60186 0.16229 0.57905 0.0
H2324 H 0.63562 0.14306 0.56761 0.0
H2325 H 0.48807 0.20743 0.54433 0.0
H2326 H 0.56782 0.76359 0.39517 0.0
H2327 H 0.59696 0.76767 0.38397 0.0
H2328 H 0.58328 0.80526 0.34857 0.0
H2329 H 0.55449 0.8018 0.36012 0.0
H2330 H 0.59605 0.77212 0.33132 0.0
H2331 H 0.61072 0.8259 0.38169 0.0
H2332 H 0.61428 0.84261 0.41398 0.0
H2333 H 0.65027 0.81043 0.43062 0.0
H2334 H 0.64665 0.79323 0.39847 0.0
H2335 H 0.67413 0.80327 0.29291 0.0
H2336 H 0.64865 0.80401 0.30933 0.0
H2337 H 0.67218 0.78183 0.35366 0.0
H2338 H 0.69827 0.78198 0.33776 0.0
H2339 H 0.6549 0.80668 0.36779 0.0
H2340 H 0.64005 0.75205 0.31935 0.0
H2341 H 0.6376 0.73472 0.28744 0.0
H2342 H 0.60242 0.76662 0.26814 0.0
H2343 H 0.60488 0.78435 0.29993 0.0
C2344 C 0.57102 0.7727 0.38498 0.0
C2345 C 0.55872 0.78226 0.37844 0.0
C2346 C 0.58775 0.77515 0.37871 0.0
C2347 C 0.59239 0.78688 0.3655 0.0
C2348 C 0.58007 0.79624 0.35883 0.0
C2349 C 0.56357 0.79418 0.36541 0.0
C2350 C 0.60956 0.78853 0.35772 0.0
C2351 C 0.60889 0.77987 0.33926 0.0
C2352 C 0.62642 0.79812 0.36823 0.0
C2353 C 0.62814 0.808 0.38769 0.0
C2354 C 0.61914 0.82212 0.39227 0.0
C2355 C 0.62124 0.83176 0.41055 0.0
C2356 C 0.63243 0.82752 0.42436 0.0
C2357 C 0.64155 0.81365 0.41992 0.0
C2358 C 0.63947 0.80394 0.40167 0.0
C2359 C 0.67419 0.79895 0.30634 0.0
C2360 C 0.68834 0.79233 0.31379 0.0
C2361 C 0.65941 0.79917 0.31567 0.0
C2362 C 0.65816 0.79252 0.33259 0.0
C2363 C 0.67265 0.78685 0.34056 0.0
C2364 C 0.68752 0.78675 0.33129 0.0
C2365 C 0.64134 0.79045 0.34127 0.0
C2366 C 0.64207 0.79891 0.35988 0.0
C2367 C 0.62448 0.78041 0.33104 0.0
C2368 C 0.62276 0.76962 0.31197 0.0
C2369 C 0.63187 0.75544 0.30828 0.0
C2370 C 0.63048 0.74554 0.29022 0.0
C2371 C 0.61989 0.74959 0.27577 0.0
C2372 C 0.61063 0.76351 0.27935 0.0
C2373 C 0.61201 0.77348 0.29739 0.0
H2374 H 0.61884 0.74192 0.26179 0.0
H2375 H 0.63409 0.83505 0.43849 0.0
H2376 H 0.04995 0.26137 0.39439 0.0
H2377 H 0.04245 0.23019 0.40416 0.0
H2378 H 0.09042 0.24813 0.4439 0.0
H2379 H 0.09843 0.27895 0.43337 0.0
H2380 H 0.0843 0.21192 0.42966 0.0
H2381 H 0.04781 0.2523 0.45514 0.0
H2382 H 0.02637 0.2717 0.45173 0.0
H2383 H 0.98799 0.22281 0.41855 0.0
H2384 H 0.00929 0.20318 0.42165 0.0
H2385 H 0.06968 0.16589 0.50333 0.0
H2386 H 0.07181 0.19042 0.48389 0.0
H2387 H 0.02441 0.15561 0.44804 0.0
H2388 H 0.02198 0.13105 0.46795 0.0
H2389 H 0.0267 0.19554 0.4546 0.0
H2390 H 0.06218 0.15418 0.43315 0.0
H2391 H 0.08386 0.13518 0.43716 0.0
H2392 H 0.12414 0.18625 0.46322 0.0
H2393 H 0.10264 0.20554 0.45949 0.0
C2394 C 0.05904 0.25843 0.40495 0.0
C2395 C 0.07466 0.27245 0.41333 0.0
C2396 C 0.05469 0.24072 0.41058 0.0
C2397 C 0.06561 0.2371 0.42511 0.0
C2398 C 0.08176 0.25071 0.43273 0.0
C2399 C 0.08635 0.26826 0.42674 0.0
C2400 C 0.05984 0.21969 0.4332 0.0
C2401 C 0.07172 0.20838 0.43513 0.0
C2402 C 0.04315 0.21471 0.4398 0.0
C2403 C 0.03017 0.22634 0.4385 0.0
C2404 C 0.0348 0.24572 0.4471 0.0
C2405 C 0.02269 0.25675 0.44522 0.0
C2406 C 0.00584 0.24851 0.43489 0.0
C2407 C 1.00104 0.22918 0.42653 0.0
C2408 C 0.01312 0.21809 0.42837 0.0
C2409 C 0.05961 0.16362 0.49143 0.0
C2410 C 0.04579 0.14667 0.48692 0.0
C2411 C 0.06084 0.17755 0.48036 0.0
C2412 C 0.04848 0.17455 0.46438 0.0
C2413 C 0.03409 0.15804 0.4603 0.0
C2414 C 0.03273 0.14411 0.47159 0.0
C2415 C 0.05149 0.18835 0.45162 0.0
C2416 C 0.03909 0.1989 0.44877 0.0
C2417 C 0.06772 0.1927 0.44419 0.0
C2418 C 0.08081 0.18127 0.44604 0.0
C2419 C 0.07566 0.16134 0.43976 0.0
C2420 C 0.08791 0.15053 0.44197 0.0
C2421 C 0.10537 0.15951 0.45039 0.0
C2422 C 0.11063 0.17933 0.45662 0.0
C2423 C 0.09843 0.19021 0.45442 0.0
H2424 H 0.11483 0.15111 0.45213 0.0
H2425 H 0.9965 0.25708 0.4334 0.0
H2426 H 0.54834 0.22835 0.17963 0.0
H2427 H 0.57983 0.23829 0.1923 0.0
H2428 H 0.57952 0.29772 0.19703 0.0
H2429 H 0.54784 0.28781 0.18373 0.0
H2430 H 0.61218 0.28459 0.1841 0.0
H2431 H 0.57451 0.28365 0.23429 0.0
H2432 H 0.54771 0.26719 0.24654 0.0
H2433 H 0.56692 0.21693 0.24518 0.0
H2434 H 0.59375 0.23305 0.2328 0.0
H2435 H 0.69419 0.29858 0.24305 0.0
H2436 H 0.66522 0.30383 0.23303 0.0
H2437 H 0.63988 0.24394 0.23158 0.0
H2438 H 0.66855 0.23858 0.24128 0.0
H2439 H 0.62052 0.26597 0.24584 0.0
H2440 H 0.65192 0.25875 0.19359 0.0
H2441 H 0.6764 0.26632 0.1749 0.0
H2442 H 0.66799 0.32197 0.17367 0.0
H2443 H 0.64364 0.31483 0.19267 0.0
C2444 C 0.555 0.24353 0.18327 0.0
C2445 C 0.54574 0.25738 0.18121 0.0
C2446 C 0.57295 0.24915 0.19026 0.0
C2447 C 0.58169 0.26866 0.19569 0.0
C2448 C 0.5728 0.28261 0.19281 0.0
C2449 C 0.5548 0.27696 0.18544 0.0
C2450 C 0.59939 0.27399 0.20646 0.0
C2451 C 0.61418 0.28122 0.19788 0.0
C2452 C 0.60162 0.26873 0.22403 0.0
C2453 C 0.58616 0.2596 0.23276 0.0
C2454 C 0.57305 0.26913 0.23672 0.0
C2455 C 0.55784 0.25984 0.24364 0.0
C2456 C 0.55563 0.24104 0.24667 0.0
C2457 C 0.56868 0.23152 0.24291 0.0
C2458 C 0.58392 0.24075 0.23602 0.0
C2459 C 0.68235 0.28665 0.24079 0.0
C2460 C 0.6835 0.26817 0.24284 0.0
C2461 C 0.66592 0.28967 0.23513 0.0
C2462 C 0.6506 0.27423 0.23151 0.0
C2463 C 0.65163 0.25603 0.23447 0.0
C2464 C 0.66797 0.253 0.24008 0.0
C2465 C 0.63352 0.27638 0.22345 0.0
C2466 C 0.61875 0.2704 0.23252 0.0
C2467 C 0.63132 0.28194 0.20595 0.0
C2468 C 0.6462 0.28642 0.19487 0.0
C2469 C 0.65546 0.27271 0.18957 0.0
C2470 C 0.66927 0.2769 0.17887 0.0
C2471 C 0.67381 0.29466 0.17318 0.0
C2472 C 0.66452 0.30825 0.17816 0.0
C2473 C 0.65073 0.30416 0.18892 0.0
H2474 H 0.68448 0.29786 0.16485 0.0
H2475 H 0.5438 0.23384 0.25192 0.0
H2476 H 0.6144 0.88677 0.91923 0.0
H2477 H 0.60901 0.91758 0.93163 0.0
H2478 H 0.55343 0.88933 0.93088 0.0
H2479 H 0.55862 0.85878 0.91865 0.0
H2480 H 0.55823 0.92277 0.91692 0.0
H2481 H 0.57975 0.89884 0.96949 0.0
H2482 H 0.60083 0.8869 0.98853 0.0
H2483 H 0.64114 0.93972 0.99209 0.0
H2484 H 0.62037 0.95184 0.97276 0.0
H2485 H 0.52687 0.98294 0.98281 0.0
H2486 H 0.53504 0.95783 0.96244 0.0
H2487 H 0.59015 0.99092 0.97355 0.0
H2488 H 0.58216 0.01534 0.99491 0.0
H2489 H 0.58787 0.9572 0.97955 0.0
H2490 H 0.56252 0.98247 0.92964 0.0
H2491 H 0.53885 0.99325 0.91323 0.0
H2492 H 0.50318 0.93693 0.90671 0.0
H2493 H 0.52653 0.92589 0.92335 0.0
C2494 C 0.60109 0.88718 0.92184 0.0
C2495 C 0.58697 0.87042 0.91818 0.0
C2496 C 0.59802 0.90472 0.92877 0.0
C2497 C 0.58083 0.90556 0.93202 0.0
C2498 C 0.56675 0.88888 0.92827 0.0
C2499 C 0.5698 0.87142 0.92149 0.0
C2500 C 0.57747 0.92361 0.94025 0.0
C2501 C 0.56471 0.93044 0.93058 0.0
C2502 C 0.58606 0.93345 0.95798 0.0
C2503 C 0.59863 0.9261 0.9694 0.0
C2504 C 0.59319 0.9078 0.97412 0.0
C2505 C 0.60506 0.90102 0.985 0.0
C2506 C 0.62235 0.9125 0.99143 0.0
C2507 C 0.62778 0.93081 0.98703 0.0
C2508 C 0.61597 0.93763 0.97609 0.0
C2509 C 0.54067 0.98482 0.98066 0.0
C2510 C 0.554 1.00064 0.99049 0.0
C2511 C 0.54531 0.97066 0.9689 0.0
C2512 C 0.56322 0.97268 0.96636 0.0
C2513 C 0.57631 0.98916 0.9754 0.0
C2514 C 0.57177 1.00298 0.98759 0.0
C2515 C 0.56866 0.95666 0.95622 0.0
C2516 C 0.58173 0.95003 0.96562 0.0
C2517 C 0.56013 0.94691 0.93838 0.0
C2518 C 0.54628 0.95337 0.92779 0.0
C2519 C 0.54962 0.97239 0.92474 0.0
C2520 C 0.53625 0.97855 0.91542 0.0
C2521 C 0.51952 0.96578 0.90894 0.0
C2522 C 0.51615 0.9468 0.91171 0.0
C2523 C 0.52946 0.94058 0.92107 0.0
H2524 H 0.50917 0.97058 0.90175 0.0
H2525 H 0.63152 0.90724 0.99989 0.0
H2526 H 0.97012 0.77107 0.70326 0.0
H2527 H 0.94601 0.77961 0.71852 0.0
H2528 H 0.90761 0.7453 0.67224 0.0
H2529 H 0.93192 0.73701 0.65685 0.0
H2530 H 0.90049 0.77871 0.68368 0.0
H2531 H 0.91171 0.72717 0.70999 0.0
H2532 H 0.92828 0.70756 0.72501 0.0
H2533 H 0.94529 0.75198 0.77316 0.0
H2534 H 0.92895 0.77196 0.75832 0.0
H2535 H 0.82602 0.75213 0.732 0.0
H2536 H 0.8524 0.75133 0.71713 0.0
H2537 H 0.8812 0.80533 0.75155 0.0
H2538 H 0.85435 0.80661 0.76618 0.0
H2539 H 0.89396 0.76488 0.747 0.0
H2540 H 0.87657 0.81407 0.7165 0.0
H2541 H 0.85459 0.82646 0.69928 0.0
H2542 H 0.84318 0.77705 0.65609 0.0
H2543 H 0.86496 0.76425 0.67316 0.0
C2544 C 0.95651 0.76568 0.69634 0.0
C2545 C 0.95254 0.75363 0.67904 0.0
C2546 C 0.94285 0.77039 0.70503 0.0
C2547 C 0.92517 0.76285 0.69651 0.0
C2548 C 0.92126 0.7512 0.67891 0.0
C2549 C 0.93499 0.74653 0.67018 0.0
C2550 C 0.91077 0.76697 0.70622 0.0
C2551 C 0.89903 0.77568 0.69752 0.0
C2552 C 0.90895 0.76282 0.72418 0.0
C2553 C 0.91936 0.7512 0.73292 0.0
C2554 C 0.9192 0.73288 0.72367 0.0
C2555 C 0.92848 0.72166 0.73218 0.0
C2556 C 0.93791 0.72856 0.74999 0.0
C2557 C 0.93804 0.74668 0.75934 0.0
C2558 C 0.92876 0.75796 0.75088 0.0
C2559 C 0.83805 0.76371 0.73656 0.0
C2560 C 0.83851 0.77925 0.75041 0.0
C2561 C 0.85292 0.76334 0.72793 0.0
C2562 C 0.86842 0.77835 0.73328 0.0
C2563 C 0.86911 0.79379 0.74731 0.0
C2564 C 0.85398 0.79443 0.75566 0.0
C2565 C 0.88406 0.77699 0.72463 0.0
C2566 C 0.89586 0.76844 0.73341 0.0
C2567 C 0.88539 0.78044 0.70643 0.0
C2568 C 0.87227 0.78813 0.6962 0.0
C2569 C 0.86923 0.80575 0.70344 0.0
C2570 C 0.85683 0.81286 0.69367 0.0
C2571 C 0.84743 0.80251 0.67663 0.0
C2572 C 0.85045 0.78504 0.6693 0.0
C2573 C 0.86284 0.77787 0.679 0.0
H2574 H 0.83788 0.80805 0.66904 0.0
H2575 H 0.94505 0.71984 0.75659 0.0
H2576 H 0.10717 0.02699 0.81623 0.0
H2577 H 0.09494 0.02788 0.84526 0.0
H2578 H 0.1343 1.00217 0.86748 0.0
H2579 H 0.14673 1.00098 0.83771 0.0
H2580 H 0.10301 0.98853 0.88152 0.0
H2581 H 0.1356 0.05362 0.87901 0.0
H2582 H 0.14303 0.0826 0.86483 0.0
H2583 H 0.08882 0.0859 0.86286 0.0
H2584 H 0.08103 0.05682 0.87683 0.0
H2585 H 0.08337 0.01225 0.97576 0.0
H2586 H 0.09823 0.00979 0.94769 0.0
H2587 H 0.06277 0.03744 0.92111 0.0
H2588 H 0.04795 0.03962 0.94885 0.0
H2589 H 0.0933 0.05024 0.90999 0.0
H2590 H 0.05893 0.98773 0.90981 0.0
H2591 H 0.0473 0.95765 0.92117 0.0
H2592 H 0.0994 0.94796 0.92526 0.0
H2593 H 0.11141 0.97818 0.91415 0.0
C2594 C 0.11343 0.02136 0.82709 0.0
C2595 C 0.12831 0.01398 0.82395 0.0
C2596 C 0.10632 0.02206 0.84413 0.0
C2597 C 0.11367 0.01568 0.85951 0.0
C2598 C 0.12813 0.00751 0.85633 0.0
C2599 C 0.13533 0.00674 0.83902 0.0
C2600 C 0.10633 0.01795 0.8785 0.0
C2601 C 0.10136 1.00223 0.88783 0.0
C2602 C 0.103 0.0354 0.88704 0.0
C2603 C 0.10772 0.05299 0.87885 0.0
C2604 C 0.12526 0.06049 0.87548 0.0
C2605 C 0.12953 0.07693 0.86748 0.0
C2606 C 0.1164 0.08607 0.86292 0.0
C2607 C 0.09898 0.07881 0.86639 0.0
C2608 C 0.09463 0.06237 0.87437 0.0
C2609 C 0.07904 0.01835 0.96419 0.0
C2610 C 0.06461 0.02677 0.96526 0.0
C2611 C 0.08743 0.01662 0.94775 0.0
C2612 C 0.08187 0.02327 0.93154 0.0
C2613 C 0.06777 0.03214 0.93294 0.0
C2614 C 0.05926 0.03355 0.94914 0.0
C2615 C 0.09031 0.02095 0.91324 0.0
C2616 C 0.09527 0.03661 0.9039 0.0
C2617 C 0.09315 1.00335 0.90448 0.0
C2618 C 0.08613 0.98536 0.91142 0.0
C2619 C 0.06796 0.9793 0.91333 0.0
C2620 C 0.06128 0.9622 0.91968 0.0
C2621 C 0.07262 0.95094 0.92401 0.0
C2622 C 0.09065 0.95674 0.92195 0.0
C2623 C 0.0974 0.97385 0.91563 0.0
H2624 H 0.06742 0.93769 0.9289 0.0
H2625 H 0.11973 0.09878 0.85671 0.0
H2626 H 0.80041 0.41428 0.56045 0.0
H2627 H 0.81316 0.41252 0.59142 0.0
H2628 H 0.79881 0.35082 0.57728 0.0
H2629 H 0.78648 0.35234 0.54584 0.0
H2630 H 0.78857 0.37012 0.61156 0.0
H2631 H 0.83706 0.36882 0.57559 0.0
H2632 H 0.85988 0.38132 0.55645 0.0
H2633 H 0.88383 0.42948 0.59999 0.0
H2634 H 0.86086 0.41751 0.61925 0.0
H2635 H 0.83847 0.32222 0.66081 0.0
H2636 H 0.83822 0.34172 0.63691 0.0
H2637 H 0.82828 0.3867 0.67592 0.0
H2638 H 0.82914 0.36747 0.70038 0.0
H2639 H 0.8535 0.38394 0.63243 0.0
H2640 H 0.79397 0.38569 0.66146 0.0
H2641 H 0.76705 0.36996 0.67401 0.0
H2642 H 0.76476 0.31639 0.63955 0.0
H2643 H 0.7916 0.33191 0.62677 0.0
C2644 C 0.79947 0.40025 0.56402 0.0
C2645 C 0.79236 0.38334 0.55076 0.0
C2646 C 0.80714 0.39939 0.58156 0.0
C2647 C 0.80736 0.38164 0.58615 0.0
C2648 C 0.79904 0.36466 0.57357 0.0
C2649 C 0.79171 0.3655 0.55585 0.0
C2650 C 0.81491 0.38049 0.60468 0.0
C2651 C 0.80279 0.37353 0.61628 0.0
C2652 C 0.83347 0.38505 0.61059 0.0
C2653 C 0.84694 0.39249 0.59872 0.0
C2654 C 0.84693 0.38229 0.58096 0.0
C2655 C 0.85997 0.38923 0.57011 0.0
C2656 C 0.87323 0.40625 0.57695 0.0
C2657 C 0.8735 0.41635 0.59467 0.0
C2658 C 0.86045 0.40951 0.60554 0.0
C2659 C 0.83717 0.33664 0.66464 0.0
C2660 C 0.83355 0.34325 0.68237 0.0
C2661 C 0.83702 0.34775 0.65093 0.0
C2662 C 0.83316 0.36547 0.65479 0.0
C2663 C 0.83132 0.373 0.67288 0.0
C2664 C 0.83164 0.36195 0.6867 0.0
C2665 C 0.82705 0.3735 0.63918 0.0
C2666 C 0.83935 0.38154 0.62802 0.0
C2667 C 0.80862 0.36974 0.63335 0.0
C2668 C 0.79486 0.35983 0.64349 0.0
C2669 C 0.78795 0.37046 0.65696 0.0
C2670 C 0.77263 0.36162 0.66396 0.0
C2671 C 0.76419 0.34219 0.65753 0.0
C2672 C 0.77133 0.33142 0.64452 0.0
C2673 C 0.78661 0.3402 0.63745 0.0
H2674 H 0.75196 0.33552 0.66239 0.0
H2675 H 0.88334 0.41158 0.56856 0.0
H2676 H 0.43677 0.03823 0.33863 0.0
H2677 H 0.44492 0.03784 0.37158 0.0
H2678 H 0.48344 0.00671 0.35719 0.0
H2679 H 0.47495 0.00634 0.32473 0.0
H2680 H 0.46935 0.99475 0.3848 0.0
H2681 H 0.49391 0.0569 0.36707 0.0
H2682 H 0.49158 0.08638 0.35568 0.0
H2683 H 0.46203 0.09978 0.39971 0.0
H2684 H 0.46401 0.07022 0.41118 0.0
H2685 H 0.54686 0.02256 0.44907 0.0
H2686 H 0.52503 0.01816 0.42145 0.0
H2687 H 0.49508 0.05015 0.45353 0.0
H2688 H 0.51778 0.05596 0.48049 0.0
H2689 H 0.49699 0.05988 0.42142 0.0
H2690 H 0.48055 0.998 0.44183 0.0
H2691 H 0.48637 0.96875 0.45097 0.0
H2692 H 0.5063 0.9559 0.39961 0.0
H2693 H 0.50022 0.98484 0.39001 0.0
C2694 C 0.44683 0.03117 0.34263 0.0
C2695 C 0.45548 0.02261 0.32931 0.0
C2696 C 0.45135 0.03084 0.36132 0.0
C2697 C 0.46486 0.0224 0.36671 0.0
C2698 C 0.47287 0.01315 0.35329 0.0
C2699 C 0.46815 0.01315 0.33475 0.0
C2700 C 0.47258 0.02507 0.38614 0.0
C2701 C 0.47524 0.00896 0.39297 0.0
C2702 C 0.48009 0.04361 0.39673 0.0
C2703 C 0.47885 0.06127 0.38978 0.0
C2704 C 0.4868 0.06608 0.37421 0.0
C2705 C 0.48556 0.08279 0.36776 0.0
C2706 C 0.4766 0.0949 0.37692 0.0
C2707 C 0.46891 0.09035 0.39258 0.0
C2708 C 0.47006 0.07362 0.39905 0.0
C2709 C 0.53581 0.029 0.44992 0.0
C2710 C 0.53352 0.03922 0.46667 0.0
C2711 C 0.5232 0.02614 0.4344 0.0
C2712 C 0.5081 0.03312 0.43579 0.0
C2713 C 0.50644 0.04427 0.45237 0.0
C2714 C 0.51925 0.04747 0.46771 0.0
C2715 C 0.49443 0.02962 0.4197 0.0
C2716 C 0.49058 0.0456 0.41365 0.0
C2717 C 0.48639 0.01101 0.4095 0.0
C2718 C 0.48998 0.99359 0.41526 0.0
C2719 C 0.48621 0.98895 0.43253 0.0
C2720 C 0.48954 0.97241 0.43778 0.0
C2721 C 0.49685 0.96056 0.42596 0.0
C2722 C 0.50066 0.9651 0.40877 0.0
C2723 C 0.49715 0.98148 0.40336 0.0
H2724 H 0.4995 0.94782 0.4301 0.0
H2725 H 0.47566 0.10785 0.37191 0.0
H2726 H 0.78461 0.75281 0.05095 0.0
H2727 H 0.7876 0.76284 0.08437 0.0
H2728 H 0.80625 0.71351 0.09265 0.0
H2729 H 0.803 0.70316 0.05901 0.0
H2730 H 0.78035 0.7157 0.11237 0.0
H2731 H 0.83418 0.75917 0.10576 0.0
H2732 H 0.85495 0.78394 0.09334 0.0
H2733 H 0.82437 0.82389 0.10793 0.0
H2734 H 0.8033 0.79929 0.12027 0.0
H2735 H 0.80752 0.75124 0.2102 0.0
H2736 H 0.8083 0.74215 0.17706 0.0
H2737 H 0.77192 0.77578 0.16481 0.0
H2738 H 0.77062 0.78452 0.19819 0.0
H2739 H 0.80799 0.78132 0.14794 0.0
H2740 H 0.75384 0.73449 0.15464 0.0
H2741 H 0.73653 0.70909 0.16929 0.0
H2742 H 0.77226 0.67448 0.15627 0.0
H2743 H 0.78996 0.69983 0.14181 0.0
C2744 C 0.7897 0.74426 0.05984 0.0
C2745 C 0.79347 0.72711 0.05227 0.0
C2746 C 0.79148 0.75008 0.079 0.0
C2747 C 0.79718 0.73897 0.09109 0.0
C2748 C 0.80179 0.72231 0.0836 0.0
C2749 C 0.80006 0.71648 0.06436 0.0
C2750 C 0.79669 0.7439 0.11133 0.0
C2751 C 0.78664 0.72999 0.12016 0.0
C2752 C 0.80469 0.76259 0.12156 0.0
C2753 C 0.81704 0.77731 0.11374 0.0
C2754 C 0.83176 0.77317 0.10612 0.0
C2755 C 0.84363 0.7872 0.09916 0.0
C2756 C 0.84094 0.80545 0.09979 0.0
C2757 C 0.82641 0.80973 0.10742 0.0
C2758 C 0.81451 0.79575 0.11442 0.0
C2759 C 0.7996 0.75663 0.20045 0.0
C2760 C 0.78903 0.76862 0.20671 0.0
C2761 C 0.80005 0.75139 0.18156 0.0
C2762 C 0.79021 0.75833 0.16857 0.0
C2763 C 0.7796 0.77031 0.1747 0.0
C2764 C 0.7788 0.7752 0.19368 0.0
C2765 C 0.79142 0.75326 0.14863 0.0
C2766 C 0.80169 0.7671 0.13999 0.0
C2767 C 0.784 0.73441 0.1387 0.0
C2768 C 0.77333 0.71915 0.14733 0.0
C2769 C 0.75811 0.72155 0.15508 0.0
C2770 C 0.74821 0.70715 0.16331 0.0
C2771 C 0.75333 0.6902 0.16376 0.0
C2772 C 0.76833 0.68762 0.15594 0.0
C2773 C 0.77829 0.702 0.14771 0.0
H2774 H 0.74564 0.67906 0.17013 0.0
H2775 H 0.85016 0.81631 0.09441 0.0
H2776 H 0.12494 0.98342 0.70655 0.0
H2777 H 0.11089 0.98364 0.67507 0.0
H2778 H 0.11438 0.04373 0.69072 0.0
H2779 H 0.12733 0.04327 0.72176 0.0
H2780 H 0.0857 0.0319 0.67139 0.0
H2781 H 0.14164 0.01829 0.658 0.0
H2782 H 0.1638 0.99943 0.65669 0.0
H2783 H 0.12396 0.95063 0.6253 0.0
H2784 H 0.10154 0.96913 0.62662 0.0
H2785 H 0.06888 0.05679 0.58157 0.0
H2786 H 0.08173 0.0529 0.61205 0.0
H2787 H 0.07194 0.99228 0.59235 0.0
H2788 H 0.05944 0.99621 0.56185 0.0
H2789 H 0.10194 1.00198 0.6131 0.0
H2790 H 0.04674 0.01444 0.62457 0.0
H2791 H 0.02342 0.03177 0.62499 0.0
H2792 H 0.0602 0.08088 0.65964 0.0
H2793 H 0.08384 0.06394 0.6592 0.0
C2794 C 0.12283 0.99671 0.70326 0.0
C2795 C 0.12744 0.01329 0.71725 0.0
C2796 C 0.11477 0.99692 0.68498 0.0
C2797 C 0.11137 0.01383 0.67973 0.0
C2798 C 0.11635 0.03029 0.69373 0.0
C2799 C 0.12401 0.03 0.71183 0.0
C2800 C 0.10246 0.0149 0.66027 0.0
C2801 C 0.08965 0.02554 0.65877 0.0
C2802 C 0.10649 0.00614 0.64314 0.0
C2803 C 0.11989 0.995 0.64263 0.0
C2804 C 0.13759 1.00348 0.65096 0.0
C2805 C 0.1502 0.99287 0.65019 0.0
C2806 C 0.14527 0.97382 0.64097 0.0
C2807 C 0.12774 0.96536 0.63248 0.0
C2808 C 0.11509 0.9759 0.63324 0.0
C2809 C 0.06934 0.04257 0.58366 0.0
C2810 C 0.06284 0.02686 0.56884 0.0
C2811 C 0.07671 0.04028 0.60136 0.0
C2812 C 0.07784 0.02215 0.60519 0.0
C2813 C 0.07146 0.00651 0.5903 0.0
C2814 C 0.06412 0.00879 0.57263 0.0
C2815 C 0.08572 0.01945 0.62438 0.0
C2816 C 0.09817 0.00845 0.62578 0.0
C2817 C 0.08125 0.02773 0.64143 0.0
C2818 C 0.06711 0.03799 0.64169 0.0
C2819 C 0.0499 0.02899 0.63215 0.0
C2820 C 0.03661 0.03874 0.63242 0.0
C2821 C 0.04034 0.05743 0.6423 0.0
C2822 C 0.05735 0.06641 0.65197 0.0
C2823 C 0.07069 0.05674 0.65172 0.0
H2824 H 0.03003 0.06495 0.6425 0.0
H2825 H 0.15506 0.96564 0.64037 0.0
H2826 H 0.77953 0.38792 0.44497 0.0
H2827 H 0.77958 0.37397 0.4126 0.0
H2828 H 0.83496 0.37499 0.425 0.0
H2829 H 0.83509 0.38907 0.45705 0.0
H2830 H 0.82649 0.3796 0.3892 0.0
H2831 H 0.80601 0.33769 0.43164 0.0
H2832 H 0.78766 0.32567 0.45496 0.0
H2833 H 0.74013 0.31564 0.41629 0.0
H2834 H 0.75822 0.32791 0.39284 0.0
H2835 H 0.82527 0.29741 0.32192 0.0
H2836 H 0.82953 0.31902 0.35195 0.0
H2837 H 0.77422 0.31959 0.34311 0.0
H2838 H 0.76998 0.29784 0.31352 0.0
H2839 H 0.78451 0.31456 0.37753 0.0
H2840 H 0.80755 0.35562 0.33396 0.0
H2841 H 0.82792 0.3658 0.31161 0.0
H2842 H 0.87301 0.37544 0.35343 0.0
H2843 H 0.85291 0.36502 0.37595 0.0
C2844 C 0.7918 0.38568 0.44059 0.0
C2845 C 0.80712 0.3889 0.45344 0.0
C2846 C 0.79185 0.37782 0.4222 0.0
C2847 C 0.80719 0.3732 0.41673 0.0
C2848 C 0.82301 0.37842 0.42909 0.0
C2849 C 0.82296 0.38619 0.44741 0.0
C2850 C 0.80599 0.35987 0.39951 0.0
C2851 C 0.81733 0.36538 0.38655 0.0
C2852 C 0.79434 0.34123 0.39649 0.0
C2853 C 0.78343 0.33396 0.4106 0.0
C2854 C 0.79164 0.33311 0.42819 0.0
C2855 C 0.78129 0.32622 0.44141 0.0
C2856 C 0.76274 0.31996 0.43713 0.0
C2857 C 0.7545 0.32054 0.41961 0.0
C2858 C 0.76479 0.32747 0.40635 0.0
C2859 C 0.81405 0.30191 0.32677 0.0
C2860 C 0.79727 0.29596 0.31598 0.0
C2861 C 0.81651 0.31432 0.34365 0.0
C2862 C 0.8022 0.32093 0.34947 0.0
C2863 C 0.78535 0.31453 0.33876 0.0
C2864 C 0.7829 0.30209 0.32205 0.0
C2865 C 0.80446 0.33449 0.36677 0.0
C2866 C 0.79352 0.32887 0.37999 0.0
C2867 C 0.8167 0.35283 0.37007 0.0
C2868 C 0.82873 0.35935 0.35658 0.0
C2869 C 0.82181 0.35978 0.33835 0.0
C2870 C 0.83331 0.36561 0.32566 0.0
C2871 C 0.85175 0.37121 0.33108 0.0
C2872 C 0.85873 0.37107 0.34923 0.0
C2873 C 0.84729 0.36521 0.36197 0.0
H2874 H 0.86062 0.3757 0.32123 0.0
H2875 H 0.75475 0.3146 0.44738 0.0
H2876 H 0.49232 0.03556 0.239 0.0
H2877 H 0.49144 0.02256 0.20646 0.0
H2878 H 0.44105 0.03498 0.19328 0.0
H2879 H 0.44155 0.04786 0.22594 0.0
H2880 H 0.44469 0.99423 0.17759 0.0
H2881 H 0.46933 0.06251 0.17919 0.0
H2882 H 0.48858 0.0933 0.19669 0.0
H2883 H 0.53411 0.07043 0.19574 0.0
H2884 H 0.51506 0.03944 0.17834 0.0
H2885 H 0.46899 0.00689 0.08315 0.0
H2886 H 0.45326 1.00256 0.10994 0.0
H2887 H 0.49711 0.98613 0.13684 0.0
H2888 H 0.51304 0.99079 0.11055 0.0
H2889 H 0.49155 0.02817 0.14428 0.0
H2890 H 0.4671 0.96012 0.14181 0.0
H2891 H 0.44777 0.92825 0.12725 0.0
H2892 H 0.4015 0.94956 0.13059 0.0
H2893 H 0.42062 0.98171 0.14495 0.0
C2894 C 0.48127 0.03605 0.22916 0.0
C2895 C 0.46692 0.0425 0.2351 0.0
C2896 C 0.4806 0.02822 0.21069 0.0
C2897 C 0.46585 0.02725 0.19782 0.0
C2898 C 0.45221 0.03512 0.20328 0.0
C2899 C 0.45282 0.04293 0.22184 0.0
C2900 C 0.46593 0.01974 0.17831 0.0
C2901 C 0.45462 1.00171 0.17002 0.0
C2902 C 0.47901 0.02958 0.16882 0.0
C2903 C 0.49083 0.04876 0.17732 0.0
C2904 C 0.48349 0.06415 0.18253 0.0
C2905 C 0.49434 0.08159 0.19251 0.0
C2906 C 0.51257 0.08384 0.19729 0.0
C2907 C 0.52001 0.0687 0.19194 0.0
C2908 C 0.50921 0.05122 0.18193 0.0
C2909 C 0.47484 1.00138 0.09438 0.0
C2910 C 0.49248 0.99993 0.09518 0.0
C2911 C 0.46574 0.99868 0.10954 0.0
C2912 C 0.47425 0.99437 0.12533 0.0
C2913 C 0.49038 0.98939 0.12465 0.0
C2914 C 0.49952 0.99216 0.10958 0.0
C2915 C 0.47056 1.00237 0.14346 0.0
C2916 C 0.48128 0.02073 0.15153 0.0
C2917 C 0.45687 0.99278 0.15251 0.0
C2918 C 0.44532 0.9734 0.14423 0.0
C2919 C 0.45283 0.95808 0.13927 0.0
C2920 C 0.4419 0.93995 0.1311 0.0
C2921 C 0.42342 0.9369 0.12793 0.0
C2922 C 0.41582 0.95196 0.13303 0.0
C2923 C 0.4267 0.97014 0.14121 0.0
H2924 H 0.41498 0.92285 0.12158 0.0
H2925 H 0.52092 0.09729 0.20516 0.0
H2926 H 0.78412 0.68759 0.93365 0.0
H2927 H 0.78623 0.69819 0.90363 0.0
H2928 H 0.80071 0.7572 0.93154 0.0
H2929 H 0.79752 0.74656 0.96117 0.0
H2930 H 0.77779 0.75479 0.90489 0.0
H2931 H 0.83074 0.73243 0.90866 0.0
H2932 H 0.84832 0.70915 0.91226 0.0
H2933 H 0.81622 0.67076 0.86448 0.0
H2934 H 0.79833 0.69375 0.86073 0.0
H2935 H 0.80411 0.80007 0.82988 0.0
H2936 H 0.8057 0.78697 0.85858 0.0
H2937 H 0.78123 0.73005 0.82761 0.0
H2938 H 0.77979 0.74317 0.79901 0.0
H2939 H 0.80845 0.73028 0.85457 0.0
H2940 H 0.75665 0.75483 0.85066 0.0
H2941 H 0.74117 0.77986 0.84682 0.0
H2942 H 0.77354 0.81613 0.89558 0.0
H2943 H 0.78943 0.79143 0.89953 0.0
C2944 C 0.78821 0.7028 0.93334 0.0
C2945 C 0.79086 0.71625 0.94976 0.0
C2946 C 0.7894 0.70891 0.91615 0.0
C2947 C 0.79375 0.72861 0.91512 0.0
C2948 C 0.7972 0.74196 0.93174 0.0
C2949 C 0.79558 0.73587 0.94876 0.0
C2950 C 0.79377 0.73553 0.8969 0.0
C2951 C 0.78476 0.74956 0.89407 0.0
C2952 C 0.80237 0.72851 0.88234 0.0
C2953 C 0.81309 0.7147 0.88455 0.0
C2954 C 0.82736 0.71896 0.89901 0.0
C2955 C 0.83739 0.70584 0.90106 0.0
C2956 C 0.83335 0.68846 0.88864 0.0
C2957 C 0.81931 0.68421 0.87411 0.0
C2958 C 0.80924 0.69728 0.872 0.0
C2959 C 0.79925 0.78473 0.8292 0.0
C2960 C 0.79208 0.77257 0.81212 0.0
C2961 C 0.80013 0.77726 0.8456 0.0
C2962 C 0.79346 0.7575 0.84532 0.0
C2963 C 0.78661 0.7453 0.8282 0.0
C2964 C 0.78591 0.75279 0.81178 0.0
C2965 C 0.79289 0.74972 0.86294 0.0
C2966 C 0.80159 0.73547 0.86552 0.0
C2967 C 0.78422 0.75671 0.87738 0.0
C2968 C 0.7743 0.77132 0.87533 0.0
C2969 C 0.76051 0.76817 0.86052 0.0
C2970 C 0.75167 0.7823 0.85832 0.0
C2971 C 0.75638 0.79958 0.87094 0.0
C2972 C 0.76991 0.80274 0.88582 0.0
C2973 C 0.77882 0.78867 0.88805 0.0
H2974 H 0.74954 0.81052 0.8692 0.0
H2975 H 0.84113 0.67831 0.89025 0.0
H2976 H 0.81329 0.09086 0.00577 0.0
H2977 H 0.83944 0.07906 1.00098 0.0
H2978 H 0.87384 0.13554 0.02312 0.0
H2979 H 0.84759 0.14741 0.0284 0.0
H2980 H 0.87746 0.1141 0.98448 0.0
H2981 H 0.87695 0.1092 0.0493 0.0
H2982 H 0.86196 0.09985 0.07576 0.0
H2983 H 0.84645 0.04094 0.04857 0.0
H2984 H 0.86113 0.04999 0.02182 0.0
H2985 H 0.95788 0.08204 0.99049 0.0
H2986 H 0.93409 0.09825 0.99334 0.0
H2987 H 0.89536 0.04343 0.98682 0.0
H2988 H 0.91894 0.02722 0.98456 0.0
H2989 H 0.89541 0.06687 0.01881 0.0
H2990 H 0.89401 0.06933 0.95467 0.0
H2991 H 0.90468 0.07632 0.9254 0.0
H2992 H 0.91996 0.1366 0.94764 0.0
H2993 H 0.90968 0.12996 0.97721 0.0
C2994 C 0.82645 0.10066 0.00988 0.0
C2995 C 0.8286 0.11994 0.01749 0.0
C2996 C 0.84128 0.09395 0.0071 0.0
C2997 C 0.85837 0.10655 0.01163 0.0
C2998 C 0.86063 0.12576 0.01956 0.0
C2999 C 0.84575 0.13241 0.02272 0.0
C3000 C 0.87371 0.0994 0.00761 0.0
C3001 C 0.88183 0.10414 0.99218 0.0
C3002 C 0.87856 0.08583 0.0173 0.0
C3003 C 0.87005 0.0803 0.03353 0.0
C3004 C 0.87025 0.09427 0.04892 0.0
C3005 C 0.86182 0.08902 0.06398 0.0
C3006 C 0.85324 0.06982 0.06384 0.0
C3007 C 0.85311 0.05581 0.04866 0.0
C3008 C 0.86151 0.06099 0.03357 0.0
C3009 C 0.94425 0.07347 0.98944 0.0
C3010 C 0.94026 0.05339 0.98753 0.0
C3011 C 0.9307 0.08272 0.99087 0.0
C3012 C 0.91308 0.07196 0.99035 0.0
C3013 C 0.90894 0.05191 0.98726 0.0
C3014 C 0.92242 0.04268 0.98586 0.0
C3015 C 0.89936 0.0815 0.99554 0.0
C3016 C 0.89144 0.07712 0.01121 0.0
C3017 C 0.89449 0.0951 0.9858 0.0
C3018 C 0.90135 0.09911 0.9683 0.0
C3019 C 0.89993 0.08406 0.95346 0.0
C3020 C 0.90583 0.08796 0.93677 0.0
C3021 C 0.91307 0.10689 0.93469 0.0
C3022 C 0.91442 0.12195 0.9493 0.0
C3023 C 0.90856 0.11812 0.96603 0.0
H3024 H 0.91757 0.10988 0.92174 0.0
H3025 H 0.84671 0.06578 0.0755 0.0
H3026 H 0.34481 0.43886 0.02303 0.0
H3027 H 0.37315 0.46076 0.01882 0.0
H3028 H 0.40179 0.42214 0.0376 0.0
H3029 H 0.37419 0.401 0.0424 0.0
H3030 H 0.41921 0.45576 0.05261 0.0
H3031 H 0.39203 0.42614 0.99017 0.0
H3032 H 0.36904 0.41764 0.96271 0.0
H3033 H 0.37526 0.47733 0.96102 0.0
H3034 H 0.39814 0.48618 0.98864 0.0
H3035 H 0.50439 0.49159 0.0264 0.0
H3036 H 0.47496 0.47043 0.02775 0.0
H3037 H 0.44994 0.5114 0.00783 0.0
H3038 H 0.47914 0.5318 0.0054 0.0
H3039 H 0.43011 0.47791 0.99334 0.0
H3040 H 0.45773 0.50678 0.05646 0.0
H3041 H 0.48143 0.51415 0.0832 0.0
H3042 H 0.47456 0.45398 0.08273 0.0
H3043 H 0.45094 0.44628 0.05587 0.0
C3044 C 0.3572 0.43527 0.02653 0.0
C3045 C 0.35709 0.41813 0.03312 0.0
C3046 C 0.37341 0.44767 0.0239 0.0
C3047 C 0.38976 0.44309 0.0277 0.0
C3048 C 0.38953 0.42618 0.03458 0.0
C3049 C 0.37356 0.414 0.0373 0.0
C3050 C 0.40733 0.45565 0.02495 0.0
C3051 C 0.42154 0.46043 0.03955 0.0
C3052 C 0.41055 0.46214 0.00807 0.0
C3053 C 0.39663 0.45682 0.99162 0.0
C3054 C 0.38837 0.43745 0.98406 0.0
C3055 C 0.37538 0.43257 0.96844 0.0
C3056 C 0.37065 0.44694 0.96016 0.0
C3057 C 0.37891 0.46621 0.96747 0.0
C3058 C 0.39189 0.47117 0.98311 0.0
C3059 C 0.4926 0.49586 0.022 0.0
C3060 C 0.49418 0.51338 0.01582 0.0
C3061 C 0.47572 0.48388 0.02299 0.0
C3062 C 0.46003 0.48942 0.01831 0.0
C3063 C 0.46167 0.50668 0.01161 0.0
C3064 C 0.47847 0.51844 0.01033 0.0
C3065 C 0.44198 0.47778 0.02096 0.0
C3066 C 0.42771 0.47326 0.0064 0.0
C3067 C 0.43867 0.47132 0.03782 0.0
C3068 C 0.45268 0.47597 0.0541 0.0
C3069 C 0.46133 0.49514 0.06203 0.0
C3070 C 0.47474 0.49937 0.0772 0.0
C3071 C 0.47952 0.48454 0.08464 0.0
C3072 C 0.47085 0.46545 0.07695 0.0
C3073 C 0.45745 0.46115 0.06178 0.0
H3074 H 0.48991 0.48784 0.09637 0.0
H3075 H 0.36061 0.44313 0.94806 0.0
H3076 H 0.42513 0.64093 0.7794 0.0
H3077 H 0.40917 0.66544 0.77986 0.0
H3078 H 0.36196 0.62329 0.75125 0.0
H3079 H 0.3784 0.59834 0.75023 0.0
H3080 H 0.36099 0.65369 0.7385 0.0
H3081 H 0.37148 0.64965 0.80309 0.0
H3082 H 0.3889 0.65039 0.83308 0.0
H3083 H 0.41988 0.70752 0.83218 0.0
H3084 H 0.40277 0.70705 0.8021 0.0
H3085 H 0.3045 0.7179 0.75364 0.0
H3086 H 0.31985 0.69251 0.75312 0.0
H3087 H 0.36835 0.73409 0.77945 0.0
H3088 H 0.3529 0.75973 0.77988 0.0
H3089 H 0.3682 0.70382 0.79389 0.0
H3090 H 0.35971 0.70903 0.73082 0.0
H3091 H 0.34575 0.7091 0.69939 0.0
H3092 H 0.3138 0.65152 0.69634 0.0
H3093 H 0.32731 0.65123 0.72793 0.0
C3094 C 0.4113 0.63648 0.77317 0.0
C3095 C 0.40346 0.61695 0.76482 0.0
C3096 C 0.40189 0.6509 0.77367 0.0
C3097 C 0.38373 0.64694 0.76611 0.0
C3098 C 0.37578 0.62743 0.75749 0.0
C3099 C 0.38532 0.61285 0.75691 0.0
C3100 C 0.37359 0.66307 0.7667 0.0
C3101 C 0.36238 0.66429 0.75088 0.0
C3102 C 0.37546 0.67805 0.78234 0.0
C3103 C 0.38597 0.67821 0.80024 0.0
C3104 C 0.38211 0.6623 0.80921 0.0
C3105 C 0.39191 0.66269 0.82625 0.0
C3106 C 0.40552 0.67897 0.83451 0.0
C3107 C 0.40935 0.69491 0.82576 0.0
C3108 C 0.3996 0.69459 0.80872 0.0
C3109 C 0.31848 0.7219 0.75932 0.0
C3110 C 0.32713 0.74145 0.76678 0.0
C3111 C 0.32746 0.70706 0.75889 0.0
C3112 C 0.34574 0.71068 0.76602 0.0
C3113 C 0.35439 0.73022 0.77371 0.0
C3114 C 0.34543 0.74517 0.77391 0.0
C3115 C 0.3555 0.69431 0.76571 0.0
C3116 C 0.36665 0.69309 0.78158 0.0
C3117 C 0.35376 0.67946 0.75006 0.0
C3118 C 0.3444 0.68018 0.73183 0.0
C3119 C 0.34947 0.69651 0.7236 0.0
C3120 C 0.34171 0.69655 0.70571 0.0
C3121 C 0.32899 0.6803 0.69584 0.0
C3122 C 0.32373 0.66408 0.70398 0.0
C3123 C 0.33138 0.66398 0.7219 0.0
H3124 H 0.32318 0.68028 0.68189 0.0
H3125 H 0.41307 0.67925 0.8477 0.0
H3126 H 0.23299 0.59546 0.54681 0.0
H3127 H 0.20134 0.58217 0.5348 0.0
H3128 H 0.21126 0.59771 0.48183 0.0
H3129 H 0.24304 0.61003 0.49341 0.0
H3130 H 0.18734 0.61685 0.51074 0.0
H3131 H 0.193 0.56183 0.47002 0.0
H3132 H 0.20461 0.53374 0.46176 0.0
H3133 H 0.18012 0.50806 0.50488 0.0
H3134 H 0.16857 0.53616 0.51354 0.0
H3135 H 0.08983 0.57024 0.47855 0.0
H3136 H 0.12184 0.58113 0.47705 0.0
H3137 H 0.13327 0.57298 0.53331 0.0
H3138 H 0.10124 0.56261 0.53513 0.0
H3139 H 0.14608 0.55145 0.49473 0.0
H3140 H 0.14648 0.61029 0.53885 0.0
H3141 H 0.13465 0.63827 0.54697 0.0
H3142 H 0.14712 0.65665 0.49596 0.0
H3143 H 0.1588 0.62857 0.48745 0.0
C3144 C 0.22858 0.59481 0.53227 0.0
C3145 C 0.24035 0.60364 0.52102 0.0
C3146 C 0.21053 0.58753 0.52551 0.0
C3147 C 0.20417 0.58931 0.50759 0.0
C3148 C 0.2161 0.59625 0.49569 0.0
C3149 C 0.23425 0.60301 0.50227 0.0
C3150 C 0.18501 0.58663 0.50273 0.0
C3151 C 0.17824 0.60262 0.50676 0.0
C3152 C 0.17336 0.56811 0.4977 0.0
C3153 C 0.18008 0.55113 0.49251 0.0
C3154 C 0.19024 0.55026 0.47784 0.0
C3155 C 0.19677 0.53432 0.47306 0.0
C3156 C 0.19314 0.51914 0.48282 0.0
C3157 C 0.18293 0.51984 0.49734 0.0
C3158 C 0.17636 0.53575 0.50217 0.0
C3159 C 0.09922 0.57108 0.49068 0.0
C3160 C 0.0933 0.56553 0.50694 0.0
C3161 C 0.11737 0.57736 0.48981 0.0
C3162 C 0.12963 0.57787 0.5051 0.0
C3163 C 0.12378 0.57283 0.52151 0.0
C3164 C 0.10562 0.56693 0.52253 0.0
C3165 C 0.14854 0.58155 0.50334 0.0
C3166 C 0.15515 0.56573 0.49813 0.0
C3167 C 0.15999 0.60024 0.50719 0.0
C3168 C 0.15329 0.61725 0.51242 0.0
C3169 C 0.14654 0.62021 0.5293 0.0
C3170 C 0.1399 0.6361 0.53399 0.0
C3171 C 0.14007 0.6492 0.52196 0.0
C3172 C 0.14696 0.64647 0.50525 0.0
C3173 C 0.1536 0.63058 0.50049 0.0
H3174 H 0.13492 0.66149 0.5256 0.0
H3175 H 0.19823 0.50681 0.47912 0.0
H3176 H 0.7178 0.02162 0.76181 0.0
H3177 H 0.7339 0.99893 0.77052 0.0
H3178 H 0.68825 0.95181 0.74651 0.0
H3179 H 0.67194 0.97437 0.73779 0.0
H3180 H 0.70083 0.9527 0.78386 0.0
H3181 H 0.72331 0.95765 0.72557 0.0
H3182 H 0.73745 0.97568 0.70276 0.0
H3183 H 0.78479 1.00023 0.74218 0.0
H3184 H 0.77082 0.98255 0.76532 0.0
H3185 H 0.73627 0.87247 0.78036 0.0
H3186 H 0.72144 0.89796 0.77894 0.0
H3187 H 0.77185 0.94038 0.797 0.0
H3188 H 0.78691 0.91504 0.7974 0.0
H3189 H 0.75787 0.94417 0.76482 0.0
H3190 H 0.73691 0.93774 0.82248 0.0
H3191 H 0.72216 0.92411 0.8474 0.0
H3192 H 0.67224 0.9047 0.81137 0.0
H3193 H 0.68672 0.91786 0.78611 0.0
C3194 C 0.71131 0.00641 0.75807 0.0
C3195 C 0.6936 0.99969 0.74932 0.0
C3196 C 0.72052 0.99353 0.76303 0.0
C3197 C 0.71212 0.97386 0.75918 0.0
C3198 C 0.69479 0.96703 0.74959 0.0
C3199 C 0.68559 0.9799 0.74455 0.0
C3200 C 0.72096 0.96051 0.76639 0.0
C3201 C 0.71317 0.95047 0.77956 0.0
C3202 C 0.7374 0.9586 0.76126 0.0
C3203 C 0.74597 0.96888 0.74721 0.0
C3204 C 0.7367 0.96698 0.7294 0.0
C3205 C 0.74469 0.97713 0.71641 0.0
C3206 C 0.762 0.98912 0.72103 0.0
C3207 C 0.77138 0.99094 0.73862 0.0
C3208 C 0.76344 0.98084 0.75167 0.0
C3209 C 0.74413 0.88724 0.78435 0.0
C3210 C 0.76278 0.89179 0.7886 0.0
C3211 C 0.73561 0.90178 0.78381 0.0
C3212 C 0.74562 0.92101 0.78782 0.0
C3213 C 0.76397 0.92558 0.79385 0.0
C3214 C 0.77252 0.91107 0.79417 0.0
C3215 C 0.73764 0.93588 0.78229 0.0
C3216 C 0.74559 0.9463 0.76933 0.0
C3217 C 0.72135 0.93818 0.78773 0.0
C3218 C 0.71295 0.92873 0.80235 0.0
C3219 C 0.72286 0.93025 0.81975 0.0
C3220 C 0.71452 0.92268 0.83397 0.0
C3221 C 0.69627 0.91365 0.83098 0.0
C3222 C 0.68637 0.91177 0.81367 0.0
C3223 C 0.69464 0.91926 0.7994 0.0
H3224 H 0.68973 0.90829 0.84214 0.0
H3225 H 0.76815 0.99699 0.71096 0.0
H3226 H 0.74463 0.89749 0.53409 0.0
H3227 H 0.71802 0.9096 0.53073 0.0
H3228 H 0.74107 0.94377 0.49189 0.0
H3229 H 0.7674 0.9315 0.49487 0.0
H3230 H 0.72818 0.96453 0.51928 0.0
H3231 H 0.70817 0.90608 0.47605 0.0
H3232 H 0.70059 0.8714 0.46388 0.0
H3233 H 0.66251 0.86096 0.50194 0.0
H3234 H 0.67009 0.89557 0.5146 0.0
H3235 H 0.65487 0.99891 0.49221 0.0
H3236 H 0.67821 0.98223 0.49047 0.0
H3237 H 0.65207 0.94324 0.52398 0.0
H3238 H 0.62803 0.95916 0.52488 0.0
H3239 H 0.66628 0.92433 0.49847 0.0
H3240 H 0.68798 0.98364 0.54246 0.0
H3241 H 0.69461 0.01867 0.55238 0.0
H3242 H 0.7293 0.02739 0.51088 0.0
H3243 H 0.72268 0.9924 0.50054 0.0
C3244 C 0.74404 0.9076 0.52485 0.0
C3245 C 0.75826 0.91358 0.51483 0.0
C3246 C 0.72874 0.9144 0.52282 0.0
C3247 C 0.72743 0.92755 0.51096 0.0
C3248 C 0.74168 0.93362 0.50109 0.0
C3249 C 0.75678 0.92658 0.50284 0.0
C3250 C 0.71172 0.93579 0.50948 0.0
C3251 C 0.71468 0.95571 0.51454 0.0
C3252 C 0.69399 0.92434 0.50354 0.0
C3253 C 0.68994 0.90343 0.49651 0.0
C3254 C 0.6984 0.89638 0.48207 0.0
C3255 C 0.69404 0.87672 0.47501 0.0
C3256 C 0.68113 0.86397 0.48218 0.0
C3257 C 0.67256 0.87084 0.49644 0.0
C3258 C 0.67689 0.89048 0.50357 0.0
C3259 C 0.65377 0.98654 0.4989 0.0
C3260 C 0.6395 0.98063 0.50889 0.0
C3261 C 0.66734 0.97711 0.49808 0.0
C3262 C 0.66726 0.96171 0.5075 0.0
C3263 C 0.65264 0.9552 0.51675 0.0
C3264 C 0.63895 0.9645 0.51743 0.0
C3265 C 0.68276 0.95305 0.50845 0.0
C3266 C 0.67978 0.9331 0.5033 0.0
C3267 C 0.70053 0.96443 0.51424 0.0
C3268 C 0.70473 0.98544 0.52064 0.0
C3269 C 0.69696 0.99304 0.5354 0.0
C3270 C 0.70071 0.01288 0.5411 0.0
C3271 C 0.71234 0.02525 0.53224 0.0
C3272 C 0.72029 0.0178 0.51771 0.0
C3273 C 0.71655 0.99797 0.51194 0.0
H3274 H 0.71522 0.04061 0.53666 0.0
H3275 H 0.67772 0.84877 0.47664 0.0
H3276 H 0.41669 0.47957 0.74463 0.0
H3277 H 0.39848 0.44825 0.74698 0.0
H3278 H 0.35701 0.47338 0.76404 0.0
H3279 H 0.37577 0.50553 0.76214 0.0
H3280 H 0.35916 0.44649 0.78423 0.0
H3281 H 0.35466 0.44351 0.71854 0.0
H3282 H 0.36625 0.44695 0.68891 0.0
H3283 H 0.3959 0.40588 0.69677 0.0
H3284 H 0.38464 0.40237 0.72656 0.0
H3285 H 0.2938 0.35626 0.77388 0.0
H3286 H 0.31209 0.3881 0.77226 0.0
H3287 H 0.35395 0.36356 0.75527 0.0
H3288 H 0.33544 0.33126 0.75711 0.0
H3289 H 0.3514 0.39017 0.73459 0.0
H3290 H 0.35973 0.39532 0.80007 0.0
H3291 H 0.35319 0.39457 0.8319 0.0
H3292 H 0.31907 0.43179 0.82561 0.0
H3293 H 0.32572 0.43295 0.79365 0.0
C3294 C 0.40364 0.47873 0.74875 0.0
C3295 C 0.39796 0.49566 0.75301 0.0
C3296 C 0.393 0.46041 0.74997 0.0
C3297 C 0.37587 0.45772 0.75534 0.0
C3298 C 0.37001 0.47456 0.75969 0.0
C3299 C 0.38078 0.49314 0.75846 0.0
C3300 C 0.36467 0.43753 0.75682 0.0
C3301 C 0.35718 0.43436 0.7731 0.0
C3302 C 0.36239 0.42098 0.74287 0.0
C3303 C 0.3689 0.42277 0.72482 0.0
C3304 C 0.36371 0.43527 0.71398 0.0
C3305 C 0.37021 0.43723 0.69715 0.0
C3306 C 0.38183 0.42667 0.69098 0.0
C3307 C 0.38691 0.41406 0.70157 0.0
C3308 C 0.38044 0.41205 0.71841 0.0
C3309 C 0.307 0.35749 0.77002 0.0
C3310 C 0.31294 0.34078 0.7658 0.0
C3311 C 0.31764 0.37601 0.76916 0.0
C3312 C 0.33481 0.37893 0.76377 0.0
C3313 C 0.34089 0.36221 0.75954 0.0
C3314 C 0.33027 0.34355 0.76072 0.0
C3315 C 0.34577 0.39916 0.76199 0.0
C3316 C 0.35322 0.40233 0.74564 0.0
C3317 C 0.34815 0.41572 0.77591 0.0
C3318 C 0.34299 0.41397 0.79445 0.0
C3319 C 0.35061 0.4031 0.80539 0.0
C3320 C 0.34695 0.4027 0.82352 0.0
C3321 C 0.33556 0.41302 0.8308 0.0
C3322 C 0.32783 0.42376 0.81994 0.0
C3323 C 0.33159 0.42435 0.80184 0.0
H3324 H 0.3328 0.41285 0.84489 0.0
H3325 H 0.38688 0.42823 0.67796 0.0
H3326 H 0.20143 0.57484 0.22659 0.0
H3327 H 0.2251 0.6048 0.23772 0.0
H3328 H 0.18942 0.62713 0.27046 0.0
H3329 H 0.16583 0.59804 0.25883 0.0
H3330 H 0.20152 0.65004 0.24872 0.0
H3331 H 0.22559 0.61823 0.29174 0.0
H3332 H 0.23799 0.59453 0.30515 0.0
H3333 H 0.28138 0.60519 0.2732 0.0
H3334 H 0.26912 0.62879 0.25941 0.0
H3335 H 0.26235 0.73435 0.29819 0.0
H3336 H 0.24834 0.70022 0.29506 0.0
H3337 H 0.26624 0.68992 0.24185 0.0
H3338 H 0.28038 0.72418 0.24472 0.0
H3339 H 0.26478 0.66137 0.2755 0.0
H3340 H 0.23227 0.69158 0.22988 0.0
H3341 H 0.21954 0.71823 0.22405 0.0
H3342 H 0.19085 0.71192 0.2706 0.0
H3343 H 0.2036 0.68539 0.27677 0.0
C3344 C 0.19873 0.58635 0.23595 0.0
C3345 C 0.18172 0.58469 0.24117 0.0
C3346 C 0.21226 0.60317 0.24259 0.0
C3347 C 0.20887 0.61806 0.25484 0.0
C3348 C 0.19216 0.61583 0.26084 0.0
C3349 C 0.17863 0.59938 0.25391 0.0
C3350 C 0.22157 0.63704 0.25921 0.0
C3351 C 0.21531 0.6524 0.25469 0.0
C3352 C 0.2395 0.64014 0.26705 0.0
C3353 C 0.24625 0.62502 0.27428 0.0
C3354 C 0.23759 0.61525 0.28729 0.0
C3355 C 0.24465 0.60192 0.29506 0.0
C3356 C 0.26041 0.59829 0.28996 0.0
C3357 C 0.26913 0.60796 0.27707 0.0
C3358 C 0.26213 0.6213 0.26928 0.0
C3359 C 0.26375 0.72483 0.28604 0.0
C3360 C 0.27224 0.73188 0.27157 0.0
C3361 C 0.25585 0.70538 0.28437 0.0
C3362 C 0.25648 0.69291 0.26831 0.0
C3363 C 0.26592 0.69959 0.25439 0.0
C3364 C 0.27375 0.71909 0.25597 0.0
C3365 C 0.24461 0.67371 0.26465 0.0
C3366 C 0.251 0.65857 0.26934 0.0
C3367 C 0.22658 0.67077 0.25762 0.0
C3368 C 0.21902 0.68672 0.25389 0.0
C3369 C 0.22337 0.69602 0.23894 0.0
C3370 C 0.21613 0.71106 0.23556 0.0
C3371 C 0.20444 0.71681 0.24699 0.0
C3372 C 0.19994 0.70749 0.26179 0.0
C3373 C 0.20716 0.69246 0.26523 0.0
H3374 H 0.19885 0.72846 0.24434 0.0
H3375 H 0.26591 0.58803 0.29606 0.0
H3376 H 0.5385 0.72378 0.43543 0.0
H3377 H 0.54681 0.69855 0.44998 0.0
H3378 H 0.49232 0.67712 0.45919 0.0
H3379 H 0.48431 0.7028 0.44569 0.0
H3380 H 0.51176 0.67618 0.48815 0.0
H3381 H 0.51463 0.65513 0.42288 0.0
H3382 H 0.52555 0.65916 0.39302 0.0
H3383 H 0.57938 0.66815 0.41869 0.0
H3384 H 0.56877 0.66435 0.44874 0.0
H3385 H 0.50905 0.5803 0.49918 0.0
H3386 H 0.50544 0.60923 0.48796 0.0
H3387 H 0.5625 0.63048 0.49184 0.0
H3388 H 0.56624 0.60176 0.50327 0.0
H3389 H 0.545 0.63326 0.45821 0.0
H3390 H 0.54238 0.65149 0.52234 0.0
H3391 H 0.53227 0.64796 0.55262 0.0
H3392 H 0.47877 0.64467 0.52958 0.0
H3393 H 0.48853 0.64794 0.49907 0.0
C3394 C 0.52829 0.71353 0.44037 0.0
C3395 C 0.51071 0.71525 0.43925 0.0
C3396 C 0.53303 0.69903 0.44869 0.0
C3397 C 0.52017 0.68556 0.45556 0.0
C3398 C 0.50259 0.68723 0.45415 0.0
C3399 C 0.49797 0.7019 0.44626 0.0
C3400 C 0.52478 0.66983 0.46439 0.0
C3401 C 0.51882 0.66669 0.4814 0.0
C3402 C 0.53461 0.65771 0.45615 0.0
C3403 C 0.54093 0.65962 0.43805 0.0
C3404 C 0.52879 0.65803 0.42215 0.0
C3405 C 0.53493 0.66027 0.4052 0.0
C3406 C 0.55316 0.66395 0.40397 0.0
C3407 C 0.56528 0.66531 0.41967 0.0
C3408 C 0.55921 0.66309 0.43665 0.0
C3409 C 0.52085 0.59122 0.49784 0.0
C3410 C 0.53794 0.5887 0.50223 0.0
C3411 C 0.51877 0.60777 0.49143 0.0
C3412 C 0.5337 0.6221 0.48907 0.0
C3413 C 0.55077 0.61967 0.49353 0.0
C3414 C 0.55288 0.60326 0.50019 0.0
C3415 C 0.53144 0.63934 0.48151 0.0
C3416 C 0.53792 0.6428 0.46487 0.0
C3417 C 0.52212 0.65176 0.49008 0.0
C3418 C 0.51616 0.64979 0.50838 0.0
C3419 C 0.52843 0.64985 0.52369 0.0
C3420 C 0.52277 0.64793 0.5409 0.0
C3421 C 0.50488 0.64605 0.54301 0.0
C3422 C 0.49262 0.64612 0.52792 0.0
C3423 C 0.49821 0.64802 0.51067 0.0
H3424 H 0.50053 0.64457 0.55635 0.0
H3425 H 0.55788 0.66572 0.39084 0.0
H3426 H 0.61816 0.27829 0.64871 0.0
H3427 H 0.64324 0.27373 0.66839 0.0
H3428 H 0.66439 0.33512 0.6838 0.0
H3429 H 0.63976 0.33951 0.66297 0.0
H3430 H 0.69081 0.32201 0.67962 0.0
H3431 H 0.6418 0.30238 0.71341 0.0
H3432 H 0.61193 0.28404 0.71784 0.0
H3433 H 0.62649 0.23132 0.70411 0.0
H3434 H 0.65638 0.24933 0.69936 0.0
H3435 H 0.74619 0.32361 0.76258 0.0
H3436 H 0.72087 0.32444 0.74067 0.0
H3437 H 0.71695 0.26664 0.71417 0.0
H3438 H 0.74283 0.266 0.73597 0.0
H3439 H 0.68242 0.2759 0.7232 0.0
H3440 H 0.73283 0.29725 0.69179 0.0
H3441 H 0.76388 0.31689 0.69492 0.0
H3442 H 0.74674 0.36812 0.7079 0.0
H3443 H 0.71563 0.34872 0.70556 0.0
C3444 C 0.62797 0.29079 0.65665 0.0
C3445 C 0.6267 0.30926 0.65476 0.0
C3446 C 0.64239 0.28821 0.66796 0.0
C3447 C 0.65577 0.30405 0.67814 0.0
C3448 C 0.65436 0.32257 0.67629 0.0
C3449 C 0.64012 0.32513 0.66459 0.0
C3450 C 0.67133 0.30132 0.6903 0.0
C3451 C 0.6888 0.31199 0.68919 0.0
C3452 C 0.66915 0.28805 0.70277 0.0
C3453 C 0.65127 0.2772 0.70587 0.0
C3454 C 0.6386 0.28687 0.71125 0.0
C3455 C 0.62167 0.27653 0.71381 0.0
C3456 C 0.61731 0.25652 0.71121 0.0
C3457 C 0.62989 0.24681 0.7061 0.0
C3458 C 0.64683 0.25708 0.70348 0.0
C3459 C 0.74011 0.31118 0.7519 0.0
C3460 C 0.74668 0.29489 0.75076 0.0
C3461 C 0.72553 0.3116 0.73948 0.0
C3462 C 0.71685 0.29557 0.7258 0.0
C3463 C 0.72335 0.27916 0.72463 0.0
C3464 C 0.73828 0.2789 0.73688 0.0
C3465 C 0.70152 0.29656 0.71241 0.0
C3466 C 0.68423 0.28567 0.71338 0.0
C3467 C 0.70381 0.30973 0.7 0.0
C3468 C 0.72192 0.32152 0.69868 0.0
C3469 C 0.73567 0.31272 0.69528 0.0
C3470 C 0.75331 0.32377 0.69713 0.0
C3471 C 0.75731 0.34371 0.70192 0.0
C3472 C 0.74362 0.35265 0.7044 0.0
C3473 C 0.72598 0.34162 0.70283 0.0
H3474 H 0.77099 0.35225 0.70345 0.0
H3475 H 0.60419 0.24855 0.71319 0.0
H3476 H 0.99037 0.31403 0.95775 0.0
H3477 H 0.9963 0.3483 0.96895 0.0
H3478 H 0.04868 0.3575 0.9523 0.0
H3479 H 0.04265 0.32289 0.94037 0.0
H3480 H 0.04339 0.37646 0.99191 0.0
H3481 H 0.02668 0.37066 0.92655 0.0
H3482 H 0.00839 0.35679 0.89617 0.0
H3483 H 0.96289 0.37032 0.91735 0.0
H3484 H 0.98085 0.38397 0.948 0.0
H3485 H 0.06091 0.47687 0.00318 0.0
H3486 H 0.05795 0.44319 0.99227 0.0
H3487 H 1.0007 0.43141 0.98824 0.0
H3488 H 1.0035 0.4656 0.99856 0.0
H3489 H 0.00989 0.41365 0.95833 0.0
H3490 H 0.02651 0.41908 0.02394 0.0
H3491 H 0.04499 0.43351 0.05417 0.0
H3492 H 0.09075 0.4211 0.03257 0.0
H3493 H 0.07258 0.40676 1.00215 0.0
C3494 C 1.00327 0.32323 0.95663 0.0
C3495 C 0.0161 0.31575 0.94825 0.0
C3496 C 0.00656 0.34282 0.96296 0.0
C3497 C 0.02285 0.35529 0.96133 0.0
C3498 C 0.03601 0.34795 0.95359 0.0
C3499 C 0.03257 0.32827 0.94683 0.0
C3500 C 0.02566 0.37603 0.96754 0.0
C3501 C 0.03636 0.38476 0.98446 0.0
C3502 C 0.016 0.38651 0.95798 0.0
C3503 C 0.00506 0.37809 0.93965 0.0
C3504 C 0.01271 0.37043 0.92482 0.0
C3505 C 1.00242 0.36267 0.90752 0.0
C3506 C 0.98447 0.3626 0.90485 0.0
C3507 C 0.97679 0.37033 0.91946 0.0
C3508 C 0.98702 0.37809 0.9368 0.0
C3509 C 0.04763 0.46719 1.00015 0.0
C3510 C 0.0324 0.47395 1.00181 0.0
C3511 C 0.046 0.44785 0.99398 0.0
C3512 C 0.02914 0.43472 0.98975 0.0
C3513 C 0.01386 0.44133 0.99152 0.0
C3514 C 0.01547 0.46082 0.99749 0.0
C3515 C 0.02758 0.41422 0.98286 0.0
C3516 C 0.01701 0.40546 0.96582 0.0
C3517 C 0.03736 0.40372 0.99235 0.0
C3518 C 0.04821 0.41195 0.01075 0.0
C3519 C 0.04053 0.41949 0.02562 0.0
C3520 C 0.05094 0.42765 0.04279 0.0
C3521 C 0.06903 0.42824 0.04528 0.0
C3522 C 0.07673 0.42062 0.03062 0.0
C3523 C 0.06637 0.41244 0.01343 0.0
H3524 H 0.07708 0.4346 0.05857 0.0
H3525 H 0.97653 0.35662 0.89144 0.0
H3526 H 0.03261 0.8272 0.17527 0.0
H3527 H 1.00395 0.81702 0.18643 0.0
H3528 H 0.98858 0.76701 0.14326 0.0
H3529 H 0.01749 0.77706 0.13205 0.0
H3530 H 0.96071 0.7844 0.14751 0.0
H3531 H 0.99801 0.75946 0.18434 0.0
H3532 H 0.02493 0.75807 0.20385 0.0
H3533 H 0.01795 0.80223 0.24558 0.0
H3534 H 0.99111 0.80411 0.22617 0.0
H3535 H 0.88576 0.75228 0.19748 0.0
H3536 H 0.91193 0.75281 0.18142 0.0
H3537 H 0.94038 0.80605 0.21714 0.0
H3538 H 0.91457 0.80545 0.23341 0.0
H3539 H 0.96032 0.77978 0.21399 0.0
H3540 H 0.9218 0.80379 0.17208 0.0
H3541 H 0.89389 0.8002 0.15152 0.0
H3542 H 0.90194 0.75059 0.11802 0.0
H3543 H 0.92979 0.75373 0.13855 0.0
C3544 C 0.0232 0.81401 0.16813 0.0
C3545 C 0.02747 0.80293 0.15281 0.0
C3546 C 0.00677 0.80817 0.17455 0.0
C3547 C 0.99407 0.79118 0.16577 0.0
C3548 C 0.99813 0.78017 0.15028 0.0
C3549 C 0.01472 0.78589 0.14397 0.0
C3550 C 0.97679 0.78508 0.17319 0.0
C3551 C 0.9606 0.78309 0.16197 0.0
C3552 C 0.97647 0.78295 0.19194 0.0
C3553 C 0.99264 0.78206 0.20371 0.0
C3554 C 1.00231 0.76902 0.1976 0.0
C3555 C 0.01754 0.76811 0.20866 0.0
C3556 C 0.02318 0.78009 0.22593 0.0
C3557 C 0.01358 0.79298 0.23219 0.0
C3558 C 0.99834 0.79396 0.22117 0.0
C3559 C 0.8976 0.76409 0.20193 0.0
C3560 C 0.89796 0.77889 0.21671 0.0
C3561 C 0.91253 0.76443 0.19264 0.0
C3562 C 0.92815 0.77954 0.19797 0.0
C3563 C 0.92851 0.79426 0.21272 0.0
C3564 C 0.91363 0.79398 0.22191 0.0
C3565 C 0.94437 0.78017 0.18862 0.0
C3566 C 0.96041 0.78097 0.19949 0.0
C3567 C 0.94437 0.78053 0.16943 0.0
C3568 C 0.92779 0.7789 0.15695 0.0
C3569 C 0.91756 0.79205 0.1604 0.0
C3570 C 0.90176 0.7901 0.14874 0.0
C3571 C 0.89612 0.77515 0.1335 0.0
C3572 C 0.90631 0.76215 0.12985 0.0
C3573 C 0.92211 0.76402 0.14148 0.0
H3574 H 0.88388 0.77367 0.1245 0.0
H3575 H 0.03496 0.77936 0.23448 0.0
H3576 H 0.51188 0.31319 0.13814 0.0
H3577 H 0.52296 0.34265 0.12626 0.0
H3578 H 0.51955 0.30962 0.07176 0.0
H3579 H 0.50897 0.27997 0.08368 0.0
H3580 H 0.55035 0.33682 0.08074 0.0
H3581 H 0.48792 0.33346 0.08358 0.0
H3582 H 0.46113 0.33122 0.09917 0.0
H3583 H 0.48778 0.38313 0.1373 0.0
H3584 H 0.51481 0.38553 0.12208 0.0
H3585 H 0.54101 0.39943 0.01921 0.0
H3586 H 0.54023 0.37479 0.03813 0.0
H3587 H 0.54872 0.41733 0.08772 0.0
H3588 H 0.55009 0.44236 0.06885 0.0
H3589 H 0.51911 0.3883 0.08579 0.0
H3590 H 0.58002 0.39413 0.08028 0.0
H3591 H 0.60705 0.39645 0.06514 0.0
H3592 H 0.58377 0.34051 0.0323 0.0
H3593 H 0.55648 0.33795 0.04706 0.0
C3594 C 0.51338 0.31218 0.12359 0.0
C3595 C 0.5095 0.29429 0.11178 0.0
C3596 C 0.5197 0.32904 0.11685 0.0
C3597 C 0.52191 0.32828 0.09812 0.0
C3598 C 0.51796 0.31045 0.08628 0.0
C3599 C 0.51184 0.29356 0.09307 0.0
C3600 C 0.52834 0.34606 0.0908 0.0
C3601 C 0.54346 0.34803 0.08168 0.0
C3602 C 0.51973 0.36097 0.09276 0.0
C3603 C 0.50344 0.35955 0.10183 0.0
C3604 C 0.48811 0.34431 0.09538 0.0
C3605 C 0.47287 0.34303 0.10413 0.0
C3606 C 0.47277 0.35699 0.11926 0.0
C3607 C 0.48789 0.3723 0.12561 0.0
C3608 C 0.50316 0.37364 0.11692 0.0
C3609 C 0.54329 0.40371 0.03414 0.0
C3610 C 0.54545 0.42285 0.04251 0.0
C3611 C 0.54284 0.38958 0.04494 0.0
C3612 C 0.5445 0.3943 0.06429 0.0
C3613 C 0.54743 0.41347 0.07278 0.0
C3614 C 0.54804 0.42768 0.06197 0.0
C3615 C 0.54083 0.37884 0.07525 0.0
C3616 C 0.52621 0.37727 0.08508 0.0
C3617 C 0.54989 0.36432 0.07392 0.0
C3618 C 0.56615 0.36591 0.06472 0.0
C3619 C 0.58058 0.3824 0.0697 0.0
C3620 C 0.59598 0.38373 0.06122 0.0
C3621 C 0.59712 0.36865 0.04775 0.0
C3622 C 0.58286 0.35219 0.04273 0.0
C3623 C 0.56744 0.35078 0.05118 0.0
H3624 H 0.60906 0.36969 0.04123 0.0
H3625 H 0.46097 0.35597 0.12602 0.0
H3626 H 0.02625 0.28237 0.36861 0.0
H3627 H 1.00105 0.28015 0.34535 0.0
H3628 H 0.03362 0.32458 0.32145 0.0
H3629 H 0.05902 0.32677 0.34463 0.0
H3630 H 1.00326 0.33286 0.33556 0.0
H3631 H 0.01743 0.28293 0.29464 0.0
H3632 H 0.02569 0.25253 0.28732 0.0
H3633 H 0.97717 0.22209 0.30419 0.0
H3634 H 0.96872 0.25235 0.31184 0.0
H3635 H 0.92676 0.33587 0.27931 0.0
H3636 H 0.95662 0.33176 0.2866 0.0
H3637 H 0.93458 0.28296 0.31162 0.0
H3638 H 0.90463 0.28674 0.304 0.0
H3639 H 0.96182 0.2777 0.29234 0.0
H3640 H 0.9497 0.32424 0.3384 0.0
H3641 H 0.94061 0.35313 0.35053 0.0
H3642 H 0.98405 0.38827 0.32944 0.0
H3643 H 0.99323 0.35951 0.31689 0.0
C3644 C 0.02819 0.2912 0.35802 0.0
C3645 C 0.04443 0.30488 0.35847 0.0
C3646 C 0.01384 0.28986 0.34471 0.0
C3647 C 0.01558 0.30223 0.33178 0.0
C3648 C 0.03216 0.31489 0.33132 0.0
C3649 C 0.04662 0.31606 0.3445 0.0
C3650 C 0.99944 0.30401 0.32103 0.0
C3651 C 0.99443 0.32104 0.32562 0.0
C3652 C 0.98768 0.28821 0.30887 0.0
C3653 C 0.99248 0.26992 0.30386 0.0
C3654 C 0.00856 0.26976 0.29686 0.0
C3655 C 0.01327 0.25255 0.29264 0.0
C3656 C 1.00197 0.23539 0.2953 0.0
C3657 C 0.9859 0.23539 0.30212 0.0
C3658 C 0.98112 0.25256 0.30635 0.0
C3659 C 0.92827 0.32402 0.28599 0.0
C3660 C 0.91352 0.31173 0.2913 0.0
C3661 C 0.94528 0.32174 0.29018 0.0
C3662 C 0.94769 0.30719 0.29977 0.0
C3663 C 0.93289 0.29426 0.3042 0.0
C3664 C 0.91588 0.29655 0.30003 0.0
C3665 C 0.96573 0.30658 0.3068 0.0
C3666 C 0.97094 0.28974 0.30174 0.0
C3667 C 0.97751 0.32237 0.31903 0.0
C3668 C 0.97198 0.3397 0.32644 0.0
C3669 C 0.95719 0.33811 0.33615 0.0
C3670 C 0.95205 0.35446 0.34314 0.0
C3671 C 0.9617 0.37252 0.34068 0.0
C3672 C 0.97655 0.37426 0.33127 0.0
C3673 C 0.98173 0.35794 0.32421 0.0
H3674 H 0.95771 0.38517 0.34612 0.0
H3675 H 0.00566 0.22209 0.29206 0.0
H3676 H 0.99042 0.67569 0.63036 0.0
H3677 H 0.99736 0.65381 0.60565 0.0
H3678 H 1.00341 0.69704 0.57109 0.0
H3679 H 0.99666 0.71933 0.59585 0.0
H3680 H 0.98286 0.65431 0.55485 0.0
H3681 H 0.0391 0.69636 0.59145 0.0
H3682 H 0.05783 0.71011 0.62168 0.0
H3683 H 0.05528 0.6535 0.63255 0.0
H3684 H 0.03637 0.63944 0.6025 0.0
H3685 H 0.01873 0.59997 0.49031 0.0
H3686 H 0.01358 0.62757 0.50988 0.0
H3687 H 0.03631 0.61023 0.55832 0.0
H3688 H 0.04468 0.5854 0.53836 0.0
H3689 H 0.04277 0.64336 0.56668 0.0
H3690 H 0.98654 0.59929 0.53897 0.0
H3691 H 0.96343 0.57957 0.51361 0.0
H3692 H 0.96 0.63011 0.49194 0.0
H3693 H 0.98317 0.65009 0.51711 0.0
C3694 C 0.99291 0.6805 0.61741 0.0
C3695 C 0.99323 0.69931 0.61511 0.0
C3696 C 0.99687 0.66798 0.60337 0.0
C3697 C 1.00107 0.67407 0.58684 0.0
C3698 C 1.00023 0.6923 0.58391 0.0
C3699 C 0.99637 0.70494 0.59802 0.0
C3700 C 0.00756 0.66174 0.57322 0.0
C3701 C 0.99603 0.65199 0.55715 0.0
C3702 C 0.02439 0.65827 0.57696 0.0
C3703 C 0.03627 0.66687 0.59474 0.0
C3704 C 0.04249 0.68686 0.60031 0.0
C3705 C 0.05314 0.69471 0.61742 0.0
C3706 C 0.05773 0.68269 0.62903 0.0
C3707 C 0.05174 0.6628 0.62354 0.0
C3708 C 0.04109 0.65489 0.60646 0.0
C3709 C 0.02285 0.6024 0.50513 0.0
C3710 C 0.03129 0.59013 0.51307 0.0
C3711 C 0.01966 0.61795 0.51635 0.0
C3712 C 0.02363 0.6205 0.53575 0.0
C3713 C 0.03284 0.60862 0.54347 0.0
C3714 C 0.03722 0.59403 0.53212 0.0
C3715 C 0.01786 0.63507 0.5481 0.0
C3716 C 0.02957 0.64547 0.56403 0.0
C3717 C 1.00066 0.63812 0.54487 0.0
C3718 C 0.98669 0.62614 0.52979 0.0
C3719 C 0.98089 0.60617 0.52875 0.0
C3720 C 0.96778 0.59495 0.51442 0.0
C3721 C 0.96028 0.60358 0.50115 0.0
C3722 C 0.96583 0.62344 0.50222 0.0
C3723 C 0.97893 0.63472 0.51651 0.0
H3724 H 0.95014 0.59488 0.49007 0.0
H3725 H 0.06595 0.68879 0.64228 0.0
H3726 H 0.65114 0.81368 0.87662 0.0
H3727 H 0.67187 0.80492 0.85615 0.0
H3728 H 0.64558 0.82444 0.81153 0.0
H3729 H 0.62515 0.83376 0.83202 0.0
H3730 H 0.65136 0.78516 0.80385 0.0
H3731 H 0.68033 0.85108 0.82716 0.0
H3732 H 0.69243 0.8799 0.85117 0.0
H3733 H 0.73073 0.85397 0.87486 0.0
H3734 H 0.7183 0.82452 0.85152 0.0
H3735 H 0.72868 0.79498 0.75131 0.0
H3736 H 0.70333 0.80127 0.76607 0.0
H3737 H 0.71627 0.77195 0.81004 0.0
H3738 H 0.74104 0.76489 0.79495 0.0
H3739 H 0.71625 0.81727 0.81548 0.0
H3740 H 0.68409 0.74997 0.79498 0.0
H3741 H 0.6723 0.7211 0.77086 0.0
H3742 H 0.64117 0.75077 0.74109 0.0
H3743 H 0.65308 0.77998 0.76492 0.0
C3744 C 0.64993 0.81625 0.8625 0.0
C3745 C 0.63674 0.82447 0.85586 0.0
C3746 C 0.66168 0.81124 0.85089 0.0
C3747 C 0.66009 0.81409 0.83248 0.0
C3748 C 0.64689 0.82221 0.82576 0.0
C3749 C 0.63539 0.82763 0.83748 0.0
C3750 C 0.67225 0.80841 0.82027 0.0
C3751 C 0.66551 0.79231 0.80618 0.0
C3752 C 0.69065 0.81776 0.8236 0.0
C3753 C 0.69818 0.83544 0.83771 0.0
C3754 C 0.69115 0.85137 0.83764 0.0
C3755 C 0.69812 0.86787 0.85109 0.0
C3756 C 0.71239 0.86883 0.86447 0.0
C3757 C 0.71967 0.85321 0.86448 0.0
C3758 C 0.71261 0.83656 0.85119 0.0
C3759 C 0.72561 0.78933 0.76375 0.0
C3760 C 0.73643 0.77932 0.772 0.0
C3761 C 0.71128 0.79292 0.77212 0.0
C3762 C 0.70809 0.78691 0.78894 0.0
C3763 C 0.71852 0.77635 0.79686 0.0
C3764 C 0.73251 0.77227 0.78823 0.0
C3765 C 0.6954 0.7938 0.79948 0.0
C3766 C 0.70207 0.81022 0.81314 0.0
C3767 C 0.677 0.78476 0.79578 0.0
C3768 C 0.66966 0.76721 0.78157 0.0
C3769 C 0.6749 0.75041 0.78317 0.0
C3770 C 0.66816 0.73397 0.76959 0.0
C3771 C 0.65605 0.73412 0.75441 0.0
C3772 C 0.6506 0.7507 0.75283 0.0
C3773 C 0.65733 0.76719 0.76638 0.0
H3774 H 0.65083 0.72137 0.7439 0.0
H3775 H 0.7178 0.88167 0.87482 0.0
H3776 H 0.48196 0.58023 0.71399 0.0
H3777 H 0.49553 0.57918 0.68527 0.0
H3778 H 0.451 0.53239 0.65835 0.0
H3779 H 0.43759 0.53341 0.68724 0.0
H3780 H 0.479 0.52382 0.64696 0.0
H3781 H 0.46237 0.58369 0.64919 0.0
H3782 H 0.46221 0.61639 0.66334 0.0
H3783 H 0.51934 0.63438 0.66848 0.0
H3784 H 0.51985 0.60173 0.65456 0.0
H3785 H 0.50467 0.52354 0.55397 0.0
H3786 H 0.48928 0.52542 0.58176 0.0
H3787 H 0.53301 0.57243 0.60996 0.0
H3788 H 0.54826 0.57044 0.58264 0.0
H3789 H 0.50529 0.58112 0.62052 0.0
H3790 H 0.52429 0.52513 0.62042 0.0
H3791 H 0.52828 0.49325 0.60905 0.0
H3792 H 0.47172 0.46862 0.60313 0.0
H3793 H 0.46736 0.50047 0.61421 0.0
C3794 C 0.47462 0.57017 0.70179 0.0
C3795 C 0.45798 0.5576 0.70316 0.0
C3796 C 0.48258 0.56944 0.68509 0.0
C3797 C 0.47449 0.55588 0.66874 0.0
C3798 C 0.45787 0.54324 0.67019 0.0
C3799 C 0.4499 0.54405 0.68688 0.0
C3800 C 0.48337 0.55444 0.6506 0.0
C3801 C 0.48435 0.53645 0.64111 0.0
C3802 C 0.49145 0.57064 0.64269 0.0
C3803 C 0.49115 0.59024 0.65099 0.0
C3804 C 0.4749 0.5946 0.65344 0.0
C3805 C 0.47475 0.61313 0.66141 0.0
C3806 C 0.49076 0.62744 0.66684 0.0
C3807 C 0.50695 0.62327 0.66429 0.0
C3808 C 0.50718 0.60477 0.65635 0.0
C3809 C 0.511 0.53439 0.566 0.0
C3810 C 0.52794 0.54687 0.56552 0.0
C3811 C 0.50216 0.53541 0.58221 0.0
C3812 C 0.5097 0.54909 0.59871 0.0
C3813 C 0.52643 0.56171 0.59792 0.0
C3814 C 0.5353 0.5605 0.58197 0.0
C3815 C 0.50055 0.55046 0.61665 0.0
C3816 C 0.49969 0.56845 0.62619 0.0
C3817 C 0.49303 0.53434 0.62488 0.0
C3818 C 0.49546 0.51523 0.61787 0.0
C3819 C 0.51267 0.51296 0.61648 0.0
C3820 C 0.51501 0.49489 0.61014 0.0
C3821 C 0.50026 0.47893 0.6053 0.0
C3822 C 0.48313 0.48101 0.60682 0.0
C3823 C 0.48071 0.49907 0.61313 0.0
H3824 H 0.5021 0.46494 0.60042 0.0
H3825 H 0.49061 0.64177 0.67301 0.0
H3826 H 0.79019 0.16089 0.96493 0.0
H3827 H 0.77902 0.17115 0.93706 0.0
H3828 H 0.75373 0.20773 0.97028 0.0
H3829 H 0.76404 0.19661 0.99797 0.0
H3830 H 0.73181 0.18971 0.94111 0.0
H3831 H 0.79266 0.22599 0.95279 0.0
H3832 H 0.82515 0.231 0.95969 0.0
H3833 H 0.82488 0.19482 0.90807 0.0
H3834 H 0.79231 0.18939 0.90097 0.0
H3835 H 0.73842 0.261 0.88253 0.0
H3836 H 0.73499 0.24019 0.90561 0.0
H3837 H 0.74323 0.19439 0.86628 0.0
H3838 H 0.74615 0.21497 0.84288 0.0
H3839 H 0.77195 0.21419 0.89689 0.0
H3840 H 0.70892 0.18297 0.88524 0.0
H3841 H 0.67713 0.1824 0.88063 0.0
H3842 H 0.68286 0.21577 0.93504 0.0
H3843 H 0.71476 0.21675 0.93989 0.0
C3844 C 0.78254 0.17139 0.96624 0.0
C3845 C 0.77808 0.1782 0.98343 0.0
C3846 C 0.7761 0.17716 0.95037 0.0
C3847 C 0.76566 0.19029 0.95168 0.0
C3848 C 0.76166 0.1975 0.969 0.0
C3849 C 0.76771 0.19135 0.98477 0.0
C3850 C 0.75888 0.19651 0.93497 0.0
C3851 C 0.74059 0.19519 0.93148 0.0
C3852 C 0.77036 0.20353 0.92244 0.0
C3853 C 0.79002 0.20715 0.92642 0.0
C3854 C 0.79951 0.21903 0.94295 0.0
C3855 C 0.81794 0.22195 0.94689 0.0
C3856 C 0.82707 0.2132 0.93435 0.0
C3857 C 0.81779 0.20158 0.91778 0.0
C3858 C 0.79935 0.1986 0.91378 0.0
C3859 C 0.73837 0.24615 0.87842 0.0
C3860 C 0.74303 0.23968 0.86116 0.0
C3861 C 0.73645 0.23428 0.89164 0.0
C3862 C 0.73918 0.21597 0.88761 0.0
C3863 C 0.74115 0.20855 0.86953 0.0
C3864 C 0.74287 0.22032 0.85625 0.0
C3865 C 0.74489 0.20723 0.90296 0.0
C3866 C 0.76312 0.20834 0.90633 0.0
C3867 C 0.73347 0.20076 0.91568 0.0
C3868 C 0.71425 0.20001 0.91288 0.0
C3869 C 0.70343 0.1903 0.89617 0.0
C3870 C 0.68538 0.18988 0.89353 0.0
C3871 C 0.67798 0.19907 0.90752 0.0
C3872 C 0.68861 0.20865 0.92421 0.0
C3873 C 0.70667 0.20911 0.92693 0.0
H3874 H 0.66401 0.19874 0.90544 0.0
H3875 H 0.84133 0.21544 0.93744 0.0
H3876 H 0.11835 0.56291 0.2091 0.0
H3877 H 0.10758 0.56448 0.17756 0.0
H3878 H 0.1032 0.5042 0.16085 0.0
H3879 H 0.11481 0.50259 0.19247 0.0
H3880 H 0.11962 0.52627 0.13711 0.0
H3881 H 0.06655 0.51957 0.16783 0.0
H3882 H 0.0501 0.52906 0.19295 0.0
H3883 H 0.05827 0.58522 0.17895 0.0
H3884 H 0.07498 0.57613 0.15388 0.0
H3885 H 0.044 0.5024 0.06349 0.0
H3886 H 0.06441 0.50488 0.09183 0.0
H3887 H 0.08699 0.56494 0.09142 0.0
H3888 H 0.06731 0.56235 0.06273 0.0
H3889 H 0.06475 0.54707 0.12303 0.0
H3890 H 0.11549 0.55418 0.09135 0.0
H3891 H 0.13414 0.54704 0.0676 0.0
H3892 H 0.13184 0.49244 0.08349 0.0
H3893 H 0.11274 0.49906 0.10708 0.0
C3894 C 0.11479 0.54986 0.19885 0.0
C3895 C 0.11727 0.53255 0.20321 0.0
C3896 C 0.10878 0.55086 0.18083 0.0
C3897 C 0.10462 0.53445 0.16709 0.0
C3898 C 0.10651 0.51699 0.17143 0.0
C3899 C 0.11287 0.51604 0.18944 0.0
C3900 C 0.09799 0.53551 0.14821 0.0
C3901 C 0.10752 0.53058 0.13391 0.0
C3902 C 0.08266 0.54197 0.14443 0.0
C3903 C 0.0721 0.54721 0.15908 0.0
C3904 C 0.06487 0.53396 0.17015 0.0
C3905 C 0.05551 0.53927 0.18438 0.0
C3906 C 0.05317 0.55774 0.18757 0.0
C3907 C 0.0601 0.57092 0.17647 0.0
C3908 C 0.06949 0.56569 0.16223 0.0
C3909 C 0.05358 0.51596 0.06937 0.0
C3910 C 0.05417 0.53223 0.06138 0.0
C3911 C 0.06529 0.51731 0.08523 0.0
C3912 C 0.07725 0.53499 0.0932 0.0
C3913 C 0.07809 0.55114 0.08499 0.0
C3914 C 0.06678 0.54967 0.06887 0.0
C3915 C 0.08608 0.53729 0.11192 0.0
C3916 C 0.07693 0.54288 0.12623 0.0
C3917 C 0.10177 0.53157 0.11563 0.0
C3918 C 0.11246 0.52702 0.10084 0.0
C3919 C 0.11862 0.54048 0.08955 0.0
C3920 C 0.12939 0.53659 0.0762 0.0
C3921 C 0.13425 0.51934 0.07412 0.0
C3922 C 0.12811 0.50582 0.08518 0.0
C3923 C 0.11729 0.50963 0.09853 0.0
H3924 H 0.14282 0.5165 0.06398 0.0
H3925 H 0.04596 0.56184 0.19862 0.0
H3926 H 0.77842 0.86336 0.47019 0.0
H3927 H 0.77626 0.8529 0.43653 0.0
H3928 H 0.80638 0.8124 0.44607 0.0
H3929 H 0.80825 0.82224 0.47935 0.0
H3930 H 0.8209 0.84002 0.4233 0.0
H3931 H 0.76648 0.79473 0.43011 0.0
H3932 H 0.73624 0.78442 0.43849 0.0
H3933 H 0.71721 0.81688 0.40087 0.0
H3934 H 0.74743 0.82768 0.39252 0.0
H3935 H 0.81996 0.79166 0.3315 0.0
H3936 H 0.81893 0.8007 0.36473 0.0
H3937 H 0.77661 0.82708 0.35201 0.0
H3938 H 0.7771 0.81739 0.31904 0.0
H3939 H 0.76795 0.80712 0.37673 0.0
H3940 H 0.82129 0.85331 0.36994 0.0
H3941 H 0.85123 0.86465 0.36114 0.0
H3942 H 0.8721 0.83285 0.39822 0.0
H3943 H 0.84221 0.82111 0.40706 0.0
C3944 C 0.78416 0.85189 0.4651 0.0
C3945 C 0.79365 0.84379 0.47749 0.0
C3946 C 0.78298 0.84598 0.4459 0.0
C3947 C 0.79134 0.83204 0.4389 0.0
C3948 C 0.79996 0.82327 0.45123 0.0
C3949 C 0.80095 0.82893 0.47028 0.0
C3950 C 0.79251 0.82755 0.41888 0.0
C3951 C 0.80936 0.83269 0.41308 0.0
C3952 C 0.77738 0.81843 0.4056 0.0
C3953 C 0.75929 0.81226 0.41091 0.0
C3954 C 0.75592 0.79991 0.42383 0.0
C3955 C 0.73876 0.79392 0.42853 0.0
C3956 C 0.72483 0.80006 0.42028 0.0
C3957 C 0.72802 0.81219 0.4073 0.0
C3958 C 0.74517 0.81825 0.40259 0.0
C3959 C 0.81063 0.7996 0.33587 0.0
C3960 C 0.7986 0.80379 0.32273 0.0
C3961 C 0.81004 0.80479 0.35484 0.0
C3962 C 0.79774 0.8147 0.36094 0.0
C3963 C 0.78612 0.81934 0.34773 0.0
C3964 C 0.78647 0.81385 0.32886 0.0
C3965 C 0.7964 0.81969 0.38098 0.0
C3966 C 0.77953 0.8146 0.38684 0.0
C3967 C 0.81149 0.82914 0.3943 0.0
C3968 C 0.82948 0.83618 0.38902 0.0
C3969 C 0.83223 0.84862 0.37611 0.0
C3970 C 0.8492 0.85513 0.37113 0.0
C3971 C 0.86355 0.84943 0.37908 0.0
C3972 C 0.86097 0.83723 0.39205 0.0
C3973 C 0.84402 0.83065 0.39707 0.0
H3974 H 0.87667 0.85449 0.3752 0.0
H3975 H 0.71155 0.79537 0.4239 0.0
H3976 H 0.49003 0.57252 0.80758 0.0
H3977 H 0.50283 0.57129 0.83882 0.0
H3978 H 0.45012 0.54824 0.85194 0.0
H3979 H 0.43727 0.55086 0.82087 0.0
H3980 H 0.46726 0.56611 0.88252 0.0
H3981 H 0.48486 0.52095 0.83888 0.0
H3982 H 0.49839 0.51031 0.81171 0.0
H3983 H 0.54903 0.54885 0.83605 0.0
H3984 H 0.53575 0.55989 0.86326 0.0
H3985 H 0.5014 0.51706 0.95334 0.0
H3986 H 0.48869 0.5222 0.92317 0.0
H3987 H 0.53242 0.57213 0.92621 0.0
H3988 H 0.54467 0.56761 0.95685 0.0
H3989 H 0.52012 0.54032 0.88819 0.0
H3990 H 0.50198 0.58509 0.9319 0.0
H3991 H 0.48843 0.5942 0.95952 0.0
H3992 H 0.43845 0.5544 0.93501 0.0
H3993 H 0.45186 0.54474 0.90738 0.0
C3994 C 0.48106 0.5677 0.81725 0.0
C3995 C 0.46246 0.56222 0.81145 0.0
C3996 C 0.48849 0.56653 0.83525 0.0
C3997 C 0.47778 0.55889 0.8482 0.0
C3998 C 0.45908 0.55408 0.84265 0.0
C3999 C 0.45159 0.55575 0.82472 0.0
C4000 C 0.486 0.55563 0.86707 0.0
C4001 C 0.47868 0.56024 0.88346 0.0
C4002 C 0.50122 0.54817 0.86922 0.0
C4003 C 0.50927 0.54137 0.85301 0.0
C4004 C 0.49887 0.5272 0.83839 0.0
C4005 C 0.50649 0.52111 0.82299 0.0
C4006 C 0.52455 0.52893 0.82214 0.0
C4007 C 0.53504 0.54282 0.83672 0.0
C4008 C 0.52748 0.54899 0.85214 0.0
C4009 C 0.50839 0.52915 0.94764 0.0
C4010 C 0.52421 0.54187 0.95783 0.0
C4011 C 0.50103 0.53212 0.93024 0.0
C4012 C 0.50944 0.54759 0.92199 0.0
C4013 C 0.52548 0.56005 0.93196 0.0
C4014 C 0.53252 0.55745 0.94964 0.0
C4015 C 0.5014 0.5509 0.90329 0.0
C4016 C 0.50869 0.54619 0.88705 0.0
C4017 C 0.48615 0.55811 0.90125 0.0
C4018 C 0.47799 0.564 0.9177 0.0
C4019 C 0.48816 0.5781 0.9325 0.0
C4020 C 0.4805 0.5834 0.94813 0.0
C4021 C 0.4626 0.57483 0.94905 0.0
C4022 C 0.45233 0.56099 0.9343 0.0
C4023 C 0.45996 0.55559 0.91865 0.0
H4024 H 0.45668 0.57896 0.96116 0.0
H4025 H 0.53042 0.52421 0.81019 0.0
H4026 H 0.75325 0.16794 0.08076 0.0
H4027 H 0.75871 0.18556 0.11261 0.0
H4028 H 0.80836 0.22094 0.10159 0.0
H4029 H 0.80339 0.20237 0.07007 0.0
H4030 H 0.81187 0.21493 0.13547 0.0
H4031 H 0.76761 0.23429 0.09732 0.0
H4032 H 0.73942 0.229 0.07659 0.0
H4033 H 0.70981 0.20629 0.1181 0.0
H4034 H 0.73783 0.21125 0.13898 0.0
H4035 H 0.80745 0.29969 0.20145 0.0
H4036 H 0.80329 0.27986 0.17045 0.0
H4037 H 0.7799 0.22949 0.19256 0.0
H4038 H 0.78542 0.24859 0.22343 0.0
H4039 H 0.76358 0.24403 0.15354 0.0
H4040 H 0.80833 0.22056 0.18949 0.0
H4041 H 0.83638 0.227 0.2107 0.0
H4042 H 0.86491 0.25801 0.17292 0.0
H4043 H 0.83685 0.25237 0.15183 0.0
C4044 C 0.7655 0.17921 0.08541 0.0
C4045 C 0.77792 0.18405 0.07328 0.0
C4046 C 0.76854 0.18932 0.10343 0.0
C4047 C 0.78365 0.2049 0.10918 0.0
C4048 C 0.79656 0.20903 0.09732 0.0
C4049 C 0.79376 0.1985 0.07942 0.0
C4050 C 0.78549 0.21758 0.1271 0.0
C4051 C 0.80136 0.2214 0.13932 0.0
C4052 C 0.77167 0.22588 0.13217 0.0
C4053 C 0.75482 0.223 0.11964 0.0
C4054 C 0.75509 0.22808 0.10197 0.0
C4055 C 0.73914 0.22515 0.09021 0.0
C4056 C 0.72284 0.21727 0.09601 0.0
C4057 C 0.72245 0.21237 0.11361 0.0
C4058 C 0.73835 0.21525 0.12542 0.0
C4059 C 0.8013 0.28442 0.19957 0.0
C4060 C 0.79642 0.27569 0.21468 0.0
C4061 C 0.79898 0.2732 0.18201 0.0
C4062 C 0.79146 0.25337 0.17956 0.0
C4063 C 0.78582 0.24482 0.19442 0.0
C4064 C 0.78869 0.25583 0.21195 0.0
C4065 C 0.78985 0.24124 0.16159 0.0
C4066 C 0.77403 0.23756 0.14949 0.0
C4067 C 0.80363 0.23305 0.15665 0.0
C4068 C 0.82046 0.23642 0.1693 0.0
C4069 C 0.82052 0.22908 0.18588 0.0
C4070 C 0.83643 0.23251 0.19785 0.0
C4071 C 0.85241 0.24295 0.19318 0.0
C4072 C 0.85251 0.24999 0.17655 0.0
C4073 C 0.8366 0.24675 0.16463 0.0
H4074 H 0.86473 0.24552 0.20242 0.0
H4075 H 0.71051 0.21501 0.08687 0.0
H4076 H 0.1209 0.53925 0.27995 0.0
H4077 H 0.10918 0.55619 0.30502 0.0
H4078 H 0.15952 0.56778 0.34005 0.0
H4079 H 0.1716 0.55152 0.31471 0.0
H4080 H 0.11588 0.54395 0.34543 0.0
H4081 H 0.16174 0.60197 0.33667 0.0
H4082 H 0.1743 0.6246 0.31665 0.0
H4083 H 0.12344 0.63606 0.30524 0.0
H4084 H 0.11047 0.61307 0.3248 0.0
H4085 H 0.11013 0.58211 0.42995 0.0
H4086 H 0.12698 0.58783 0.40425 0.0
H4087 H 0.08124 0.59712 0.37314 0.0
H4088 H 0.06422 0.59116 0.39871 0.0
H4089 H 0.12076 0.61349 0.36297 0.0
H4090 H 0.07348 0.5576 0.36607 0.0
H4091 H 0.05512 0.53081 0.3782 0.0
H4092 H 0.10163 0.51192 0.39265 0.0
H4093 H 0.12035 0.53913 0.38139 0.0
C4094 C 0.12929 0.54504 0.29317 0.0
C4095 C 0.14694 0.54373 0.2958 0.0
C4096 C 0.12279 0.55514 0.30717 0.0
C4097 C 0.13384 0.56382 0.32387 0.0
C4098 C 0.15116 0.56174 0.32686 0.0
C4099 C 0.15782 0.55203 0.31271 0.0
C4100 C 0.12625 0.57206 0.33931 0.0
C4101 C 0.11713 0.55917 0.34946 0.0
C4102 C 0.12717 0.59177 0.34362 0.0
C4103 C 0.13507 0.60553 0.33191 0.0
C4104 C 0.15316 0.60903 0.32962 0.0
C4105 C 0.16037 0.62199 0.31842 0.0
C4106 C 0.14966 0.63169 0.3096 0.0
C4107 C 0.13171 0.62848 0.31201 0.0
C4108 C 0.12443 0.61548 0.32313 0.0
C4109 C 0.10405 0.58655 0.41809 0.0
C4110 C 0.08582 0.5856 0.41589 0.0
C4111 C 0.11369 0.58991 0.40349 0.0
C4112 C 0.10507 0.59235 0.38681 0.0
C4113 C 0.08798 0.59519 0.386 0.0
C4114 C 0.07827 0.59175 0.40061 0.0
C4115 C 0.11117 0.58537 0.36965 0.0
C4116 C 0.11971 0.59832 0.35906 0.0
C4117 C 0.1092 0.56549 0.36433 0.0
C4118 C 0.09838 0.55072 0.37338 0.0
C4119 C 0.07988 0.54813 0.37243 0.0
C4120 C 0.06937 0.53276 0.379 0.0
C4121 C 0.07719 0.5197 0.38626 0.0
C4122 C 0.09558 0.52213 0.38718 0.0
C4123 C 0.10616 0.53761 0.38085 0.0
H4124 H 0.06901 0.50769 0.39115 0.0
H4125 H 0.15528 0.64175 0.30097 0.0
H4126 H 0.80694 0.82637 0.57269 0.0
H4127 H 0.80137 0.81463 0.60118 0.0
H4128 H 0.77872 0.86131 0.61869 0.0
H4129 H 0.78463 0.87357 0.58979 0.0
H4130 H 0.80204 0.85601 0.64676 0.0
H4131 H 0.75182 0.81535 0.6048 0.0
H4132 H 0.73613 0.79337 0.57607 0.0
H4133 H 0.76573 0.75305 0.587 0.0
H4134 H 0.78177 0.77487 0.61568 0.0
H4135 H 0.77319 0.8095 0.7232 0.0
H4136 H 0.77347 0.82481 0.69559 0.0
H4137 H 0.79931 0.78447 0.66913 0.0
H4138 H 0.79929 0.76942 0.69656 0.0
H4139 H 0.77087 0.788 0.64621 0.0
H4140 H 0.82212 0.82827 0.6864 0.0
H4141 H 0.8389 0.84962 0.71498 0.0
H4142 H 0.80862 0.89014 0.70732 0.0
H4143 H 0.79141 0.86884 0.67884 0.0
C4144 C 0.80067 0.83422 0.58246 0.0
C4145 C 0.79626 0.85101 0.57885 0.0
C4146 C 0.79738 0.82734 0.5988 0.0
C4147 C 0.78941 0.83688 0.61208 0.0
C4148 C 0.78481 0.85362 0.6086 0.0
C4149 C 0.78808 0.86056 0.59204 0.0
C4150 C 0.78658 0.82943 0.6297 0.0
C4151 C 0.79482 0.84127 0.64669 0.0
C4152 C 0.77767 0.81 0.62963 0.0
C4153 C 0.76807 0.79682 0.61235 0.0
C4154 C 0.75508 0.80186 0.60101 0.0
C4155 C 0.74611 0.78941 0.58474 0.0
C4156 C 0.74995 0.77184 0.5797 0.0
C4157 C 0.76277 0.76666 0.59092 0.0
C4158 C 0.77178 0.77905 0.6072 0.0
C4159 C 0.77904 0.80403 0.71153 0.0
C4160 C 0.78622 0.78827 0.71205 0.0
C4161 C 0.77917 0.81276 0.69577 0.0
C4162 C 0.78638 0.80576 0.68024 0.0
C4163 C 0.79357 0.79005 0.68084 0.0
C4164 C 0.79359 0.78149 0.69658 0.0
C4165 C 0.78638 0.81454 0.66321 0.0
C4166 C 0.77774 0.80286 0.64633 0.0
C4167 C 0.79504 0.83403 0.6634 0.0
C4168 C 0.80532 0.84683 0.68057 0.0
C4169 C 0.81892 0.84164 0.69088 0.0
C4170 C 0.82853 0.85375 0.70705 0.0
C4171 C 0.82481 0.87121 0.71298 0.0
C4172 C 0.81147 0.87659 0.70273 0.0
C4173 C 0.80177 0.8645 0.68657 0.0
H4174 H 0.83229 0.88058 0.72549 0.0
H4175 H 0.74298 0.76222 0.5671 0.0
H4176 H 0.78177 0.4835 0.52721 0.0
H4177 H 0.75645 0.49614 0.53404 0.0
H4178 H 0.72103 0.43909 0.51818 0.0
H4179 H 0.74604 0.42661 0.51048 0.0
H4180 H 0.70679 0.46265 0.50434 0.0
H4181 H 0.73515 0.4621 0.56495 0.0
H4182 H 0.7603 0.46946 0.59017 0.0
H4183 H 0.76664 0.52974 0.5921 0.0
H4184 H 0.74165 0.52274 0.56673 0.0
H4185 H 0.63295 0.48863 0.53781 0.0
H4186 H 0.65749 0.47341 0.53682 0.0
H4187 H 0.69517 0.529 0.5443 0.0
H4188 H 0.67083 0.54429 0.54493 0.0
H4189 H 0.70726 0.5044 0.56407 0.0
H4190 H 0.68044 0.50446 0.50195 0.0
H4191 H 0.65594 0.49704 0.47605 0.0
H4192 H 0.64696 0.43689 0.47704 0.0
H4193 H 0.67131 0.44399 0.50312 0.0
C4194 C 0.76854 0.47374 0.52508 0.0
C4195 C 0.76581 0.45415 0.51825 0.0
C4196 C 0.75415 0.48091 0.52916 0.0
C4197 C 0.73694 0.46847 0.52697 0.0
C4198 C 0.73421 0.44892 0.52 0.0
C4199 C 0.7485 0.44183 0.51555 0.0
C4200 C 0.7216 0.47584 0.5313 0.0
C4201 C 0.70677 0.47146 0.51755 0.0
C4202 C 0.72174 0.48764 0.54841 0.0
C4203 C 0.73661 0.49189 0.56385 0.0
C4204 C 0.74197 0.47692 0.57069 0.0
C4205 C 0.75619 0.48103 0.58502 0.0
C4206 C 0.76509 0.50006 0.59271 0.0
C4207 C 0.75974 0.51501 0.58613 0.0
C4208 C 0.74553 0.51098 0.57179 0.0
C4209 C 0.64648 0.4976 0.53936 0.0
C4210 C 0.64997 0.51764 0.54127 0.0
C4211 C 0.66044 0.4889 0.53889 0.0
C4212 C 0.67803 0.50014 0.5403 0.0
C4213 C 0.68164 0.52015 0.54325 0.0
C4214 C 0.66772 0.52885 0.54365 0.0
C4215 C 0.69258 0.49113 0.53712 0.0
C4216 C 0.70725 0.49529 0.55102 0.0
C4217 C 0.69228 0.47903 0.52019 0.0
C4218 C 0.67752 0.47478 0.50465 0.0
C4219 C 0.67311 0.48967 0.49678 0.0
C4220 C 0.65927 0.48552 0.48204 0.0
C4221 C 0.64983 0.46651 0.47496 0.0
C4222 C 0.65424 0.45161 0.48258 0.0
C4223 C 0.66806 0.45569 0.49733 0.0
H4224 H 0.63913 0.46334 0.46354 0.0
H4225 H 0.77611 0.50321 0.60379 0.0
H4226 H 0.23943 0.13898 0.5137 0.0
H4227 H 0.21091 0.11762 0.51768 0.0
H4228 H 0.18407 0.13741 0.47361 0.0
H4229 H 0.21228 0.15914 0.47016 0.0
H4230 H 0.16592 0.1377 0.50118 0.0
H4231 H 0.19258 0.0907 0.46973 0.0
H4232 H 0.21648 0.07437 0.46638 0.0
H4233 H 0.21079 0.05747 0.51933 0.0
H4234 H 0.187 0.07389 0.52308 0.0
H4235 H 0.08085 0.0696 0.48801 0.0
H4236 H 0.10999 0.09034 0.48515 0.0
H4237 H 0.13513 0.06522 0.52613 0.0
H4238 H 0.10622 0.04375 0.52806 0.0
H4239 H 0.15468 0.06805 0.5015 0.0
H4240 H 0.12801 0.11315 0.53344 0.0
H4241 H 0.10543 0.13082 0.53921 0.0
H4242 H 0.112 0.15266 0.48866 0.0
H4243 H 0.13439 0.13482 0.48235 0.0
C4244 C 0.2275 0.13835 0.50456 0.0
C4245 C 0.22815 0.15062 0.4915 0.0
C4246 C 0.21114 0.1262 0.50688 0.0
C4247 C 0.19517 0.12576 0.4959 0.0
C4248 C 0.19605 0.13748 0.48237 0.0
C4249 C 0.21226 0.14978 0.48027 0.0
C4250 C 0.17741 0.1137 0.49873 0.0
C4251 C 0.16341 0.1224 0.50101 0.0
C4252 C 0.17415 0.09387 0.49922 0.0
C4253 C 0.18811 0.08361 0.49673 0.0
C4254 C 0.19647 0.08354 0.48067 0.0
C4255 C 0.21 0.07428 0.47871 0.0
C4256 C 0.21517 0.06491 0.49265 0.0
C4257 C 0.20678 0.06473 0.50855 0.0
C4258 C 0.19326 0.07399 0.51059 0.0
C4259 C 0.09262 0.06862 0.49645 0.0
C4260 C 0.09128 0.05501 0.5082 0.0
C4261 C 0.10932 0.08059 0.49492 0.0
C4262 C 0.12497 0.07965 0.50557 0.0
C4263 C 0.12344 0.06629 0.51763 0.0
C4264 C 0.10685 0.05405 0.51881 0.0
C4265 C 0.14301 0.09197 0.50377 0.0
C4266 C 0.1571 0.08334 0.5017 0.0
C4267 C 0.1464 0.11194 0.50374 0.0
C4268 C 0.1328 0.12253 0.50736 0.0
C4269 C 0.12454 0.1216 0.52347 0.0
C4270 C 0.1118 0.13167 0.52684 0.0
C4271 C 0.10734 0.1429 0.51433 0.0
C4272 C 0.11551 0.14397 0.49834 0.0
C4273 C 0.12823 0.13388 0.49485 0.0
H4274 H 0.09755 0.15076 0.51702 0.0
H4275 H 0.22567 0.05778 0.49111 0.0
H4276 H 0.17192 0.93979 0.76122 0.0
H4277 H 0.18401 0.91145 0.75835 0.0
H4278 H 0.23674 0.94815 0.77802 0.0
H4279 H 0.22496 0.976 0.7804 0.0
H4280 H 0.24253 0.92337 0.7545 0.0
H4281 H 0.20427 0.9118 0.80277 0.0
H4282 H 0.17533 0.90569 0.8147 0.0
H4283 H 0.15413 0.85661 0.7714 0.0
H4284 H 0.18288 0.86257 0.75912 0.0
H4285 H 0.29088 0.85546 0.77414 0.0
H4286 H 0.27515 0.88042 0.77431 0.0
H4287 H 0.22532 0.83729 0.757 0.0
H4288 H 0.24119 0.81207 0.75734 0.0
H4289 H 0.21598 0.86337 0.77661 0.0
H4290 H 0.25031 0.8716 0.72815 0.0
H4291 H 0.27626 0.87609 0.71115 0.0
H4292 H 0.30156 0.92917 0.74815 0.0
H4293 H 0.27585 0.92486 0.76556 0.0
C4294 C 0.1861 0.94196 0.76498 0.0
C4295 C 0.19713 0.96095 0.77116 0.0
C4296 C 0.19319 0.9254 0.76349 0.0
C4297 C 0.21172 0.92677 0.76819 0.0
C4298 C 0.22254 0.94577 0.77414 0.0
C4299 C 0.21555 0.96211 0.77561 0.0
C4300 C 0.22024 0.90924 0.76683 0.0
C4301 C 0.23669 0.9105 0.75976 0.0
C4302 C 0.21282 0.89133 0.77248 0.0
C4303 C 0.19564 0.88775 0.77993 0.0
C4304 C 0.1934 0.89977 0.79575 0.0
C4305 C 0.17704 0.89633 0.80258 0.0
C4306 C 0.16289 0.88081 0.79379 0.0
C4307 C 0.16508 0.86865 0.77818 0.0
C4308 C 0.18141 0.87205 0.77129 0.0
C4309 C 0.27656 0.85102 0.77027 0.0
C4310 C 0.26772 0.83113 0.76563 0.0
C4311 C 0.26735 0.86567 0.77019 0.0
C4312 C 0.24858 0.86158 0.76525 0.0
C4313 C 0.23965 0.84164 0.76085 0.0
C4314 C 0.2489 0.82691 0.76096 0.0
C4315 C 0.23862 0.87788 0.76493 0.0
C4316 C 0.22193 0.87634 0.77156 0.0
C4317 C 0.2455 0.89535 0.75832 0.0
C4318 C 0.26124 0.89778 0.7483 0.0
C4319 C 0.26149 0.88412 0.73279 0.0
C4320 C 0.27614 0.88666 0.72306 0.0
C4321 C 0.29058 0.90287 0.72861 0.0
C4322 C 0.29039 0.91659 0.74391 0.0
C4323 C 0.27578 0.91411 0.75371 0.0
H4324 H 0.30188 0.90484 0.72101 0.0
H4325 H 0.15023 0.87817 0.79909 0.0
H4326 H 0.35906 0.94043 0.05075 0.0
H4327 H 0.38707 0.96454 0.05128 0.0
H4328 H 0.36363 0.98411 0.00494 0.0
H4329 H 0.33544 0.96091 0.00491 0.0
H4330 H 0.39672 0.95539 0.0125 0.0
H4331 H 0.37894 0.01731 0.00937 0.0
H4332 H 0.3639 0.04099 0.02283 0.0
H4333 H 0.39409 0.04622 0.07614 0.0
H4334 H 0.40898 0.02221 0.06298 0.0
H4335 H 0.47555 1.00326 0.98076 0.0
H4336 H 0.44405 0.99353 0.98441 0.0
H4337 H 0.45745 0.01375 0.04343 0.0
H4338 H 0.4889 0.02368 0.04 0.0
H4339 H 0.42816 0.02474 0.02728 0.0
H4340 H 0.45054 0.96833 0.02841 0.0
H4341 H 0.46552 0.9444 0.01547 0.0
H4342 H 0.42653 0.92764 0.96668 0.0
H4343 H 0.41145 0.95169 0.97925 0.0
C4344 C 0.35965 0.95055 0.04132 0.0
C4345 C 0.34537 0.94856 0.02746 0.0
C4346 C 0.37555 0.96437 0.04174 0.0
C4347 C 0.37725 0.97601 0.02817 0.0
C4348 C 0.36238 0.97557 0.01579 0.0
C4349 C 0.34635 0.96208 0.01565 0.0
C4350 C 0.395 0.9838 0.02354 0.0
C4351 C 0.40358 0.97057 0.01554 0.0
C4352 C 0.40364 1.00349 0.0274 0.0
C4353 C 0.39476 0.01779 0.03532 0.0
C4354 C 0.38214 0.02333 0.02401 0.0
C4355 C 0.37369 0.03683 0.03157 0.0
C4356 C 0.37796 0.04503 0.05036 0.0
C4357 C 0.39072 0.03978 0.06161 0.0
C4358 C 0.39914 0.0262 0.05413 0.0
C4359 C 0.4718 0.00553 0.99453 0.0
C4360 C 0.48463 0.0141 0.01013 0.0
C4361 C 0.45386 1.00013 0.99653 0.0
C4362 C 0.44865 1.00312 0.01414 0.0
C4363 C 0.46138 0.0116 0.02973 0.0
C4364 C 0.4793 0.01702 0.02775 0.0
C4365 C 0.43001 0.99627 0.01659 0.0
C4366 C 0.42123 0.00959 0.02404 0.0
C4367 C 0.4211 0.97657 0.01212 0.0
C4368 C 0.42999 0.96192 0.00468 0.0
C4369 C 0.44524 0.95962 0.01487 0.0
C4370 C 0.45373 0.94603 0.00761 0.0
C4371 C 0.44701 0.93454 0.99024 0.0
C4372 C 0.43173 0.93658 0.98012 0.0
C4373 C 0.4232 0.95017 0.98731 0.0
H4374 H 0.45361 0.92403 0.98464 0.0
H4375 H 0.37144 0.05552 0.05618 0.0
H4376 H 0.89437 0.5866 0.80582 0.0
H4377 H 0.87412 0.60369 0.7929 0.0
H4378 H 0.87599 0.57508 0.73769 0.0
H4379 H 0.897 0.55904 0.75052 0.0
H4380 H 0.8804 0.6104 0.73715 0.0
H4381 H 0.83755 0.56423 0.75981 0.0
H4382 H 0.82498 0.54484 0.78243 0.0
H4383 H 0.82436 0.59598 0.81918 0.0
H4384 H 0.83712 0.61569 0.79689 0.0
H4385 H 0.80649 0.65402 0.71177 0.0
H4386 H 0.82309 0.62974 0.71431 0.0
H4387 H 0.84859 0.66021 0.76869 0.0
H4388 H 0.83221 0.68422 0.76639 0.0
H4389 H 0.82611 0.61856 0.76334 0.0
H4390 H 0.87429 0.66379 0.74128 0.0
H4391 H 0.88763 0.68197 0.71814 0.0
H4392 H 0.87651 0.62981 0.67838 0.0
H4393 H 0.86297 0.61137 0.70125 0.0
C4394 C 0.89028 0.58397 0.79099 0.0
C4395 C 0.89722 0.57183 0.77908 0.0
C4396 C 0.87865 0.59354 0.7836 0.0
C4397 C 0.87339 0.59043 0.76433 0.0
C4398 C 0.87993 0.57772 0.75256 0.0
C4399 C 0.89188 0.56862 0.75988 0.0
C4400 C 0.86212 0.60148 0.75636 0.0
C4401 C 0.86828 0.6118 0.74258 0.0
C4402 C 0.8463 0.60324 0.76336 0.0
C4403 C 0.83835 0.59144 0.7767 0.0
C4404 C 0.83479 0.57134 0.77275 0.0
C4405 C 0.82763 0.56029 0.78551 0.0
C4406 C 0.82389 0.56917 0.80224 0.0
C4407 C 0.82725 0.58912 0.80621 0.0
C4408 C 0.8344 0.60023 0.7935 0.0
C4409 C 0.81584 0.65558 0.72411 0.0
C4410 C 0.81811 0.6709 0.73888 0.0
C4411 C 0.82532 0.64187 0.72547 0.0
C4412 C 0.83694 0.6434 0.74166 0.0
C4413 C 0.83969 0.65901 0.75608 0.0
C4414 C 0.8304 0.67271 0.75469 0.0
C4415 C 0.84484 0.62783 0.74482 0.0
C4416 C 0.83795 0.61661 0.75761 0.0
C4417 C 0.85979 0.62504 0.73672 0.0
C4418 C 0.86735 0.63626 0.72285 0.0
C4419 C 0.87444 0.65625 0.72751 0.0
C4420 C 0.88212 0.66659 0.71448 0.0
C4421 C 0.88283 0.65706 0.69677 0.0
C4422 C 0.87589 0.63718 0.69207 0.0
C4423 C 0.86822 0.62679 0.70506 0.0
H4424 H 0.88882 0.66508 0.68672 0.0
H4425 H 0.81837 0.56059 0.81211 0.0
H4426 H 0.82495 0.63396 0.97149 0.0
H4427 H 0.8498 0.62114 0.98076 0.0
H4428 H 0.86002 0.65819 0.03407 0.0
H4429 H 0.83492 0.67109 0.0249 0.0
H4430 H 0.89167 0.65694 0.01979 0.0
H4431 H 0.84204 0.61357 0.03348 0.0
H4432 H 0.81147 0.5926 0.02957 0.0
H4433 H 0.82276 0.55639 0.98339 0.0
H4434 H 0.85336 0.57734 0.98683 0.0
H4435 H 0.94968 0.59785 0.04737 0.0
H4436 H 0.92593 0.61459 0.04735 0.0
H4437 H 0.90803 0.58982 0.98972 0.0
H4438 H 0.93175 0.57339 0.98961 0.0
H4439 H 0.88033 0.58629 0.01302 0.0
H4440 H 0.93208 0.63467 1.00163 0.0
H4441 H 0.96266 0.65556 0.01084 0.0
H4442 H 0.94697 0.68245 0.06 0.0
H4443 H 0.91637 0.66143 0.05128 0.0
C4444 C 0.83242 0.63943 0.9852 0.0
C4445 C 0.82778 0.6535 0.99745 0.0
C4446 C 0.84667 0.63205 0.99051 0.0
C4447 C 0.8568 0.63858 0.00817 0.0
C4448 C 0.85245 0.6529 0.02037 0.0
C4449 C 0.838 0.66017 0.01513 0.0
C4450 C 0.87153 0.62991 0.01371 0.0
C4451 C 0.88914 0.64152 0.01859 0.0
C4452 C 0.86835 0.60983 0.01258 0.0
C4453 C 0.84995 0.59715 0.0103 0.0
C4454 C 0.83796 0.60124 0.02237 0.0
C4455 C 0.82064 0.58933 0.02026 0.0
C4456 C 0.81516 0.57319 0.00621 0.0
C4457 C 0.82702 0.56891 0.99425 0.0
C4458 C 0.84437 0.58079 0.99629 0.0
C4459 C 0.9407 0.59607 0.03471 0.0
C4460 C 0.94267 0.58442 0.01845 0.0
C4461 C 0.92717 0.60565 0.0347 0.0
C4462 C 0.9152 0.6035 0.01851 0.0
C4463 C 0.9171 0.59174 1.00236 0.0
C4464 C 0.93075 0.58246 1.00228 0.0
C4465 C 0.90049 0.61319 0.01814 0.0
C4466 C 0.88283 0.60172 0.01434 0.0
C4467 C 0.90366 0.63341 0.02094 0.0
C4468 C 0.92196 0.64633 0.02589 0.0
C4469 C 0.93517 0.64493 0.01448 0.0
C4470 C 0.95251 0.65681 0.0196 0.0
C4471 C 0.95676 0.6703 0.03601 0.0
C4472 C 0.94367 0.67198 0.04731 0.0
C4473 C 0.92632 0.66009 0.04228 0.0
H4474 H 0.97019 0.67948 0.03996 0.0
H4475 H 0.80174 0.56398 0.0046 0.0
H4476 H 0.19954 0.08198 0.80492 0.0
H4477 H 0.21696 0.11428 0.80309 0.0
H4478 H 0.2117 0.09835 0.74371 0.0
H4479 H 0.19497 0.06565 0.74579 0.0
H4480 H 0.2412 0.12321 0.7519 0.0
H4481 H 0.18553 0.12689 0.76964 0.0
H4482 H 0.16025 0.12248 0.7876 0.0
H4483 H 0.19481 0.1562 0.83625 0.0
H4484 H 0.22037 0.16061 0.81863 0.0
H4485 H 0.26369 0.22428 0.74158 0.0
H4486 H 0.24678 0.19073 0.74084 0.0
H4487 H 0.26206 0.19752 0.79968 0.0
H4488 H 0.27924 0.23061 0.80033 0.0
H4489 H 0.22626 0.17757 0.78966 0.0
H4490 H 0.28212 0.17333 0.76838 0.0
H4491 H 0.30492 0.17842 0.74739 0.0
H4492 H 0.26597 0.14634 0.70122 0.0
H4493 H 0.24287 0.14131 0.72191 0.0
C4494 C 0.20269 0.08507 0.79151 0.0
C4495 C 0.1963 0.07064 0.77562 0.0
C4496 C 0.21238 0.10392 0.79037 0.0
C4497 C 0.21555 0.10958 0.77316 0.0
C4498 C 0.2097 0.09492 0.75728 0.0
C4499 C 0.20022 0.07593 0.75849 0.0
C4500 C 0.22444 0.1306 0.77179 0.0
C4501 C 0.23763 0.13495 0.76006 0.0
C4502 C 0.22017 0.14659 0.78216 0.0
C4503 C 0.20491 0.14389 0.79287 0.0
C4504 C 0.18777 0.13324 0.78421 0.0
C4505 C 0.17339 0.13076 0.79432 0.0
C4506 C 0.17594 0.139 0.81307 0.0
C4507 C 0.19287 0.14979 0.82173 0.0
C4508 C 0.20731 0.15229 0.81169 0.0
C4509 C 0.26331 0.21872 0.75441 0.0
C4510 C 0.27292 0.23049 0.77106 0.0
C4511 C 0.25367 0.19932 0.75397 0.0
C4512 C 0.25301 0.19106 0.77021 0.0
C4513 C 0.26215 0.2031 0.78686 0.0
C4514 C 0.27204 0.22223 0.78722 0.0
C4515 C 0.24315 0.17005 0.77011 0.0
C4516 C 0.22976 0.16574 0.78154 0.0
C4517 C 0.24685 0.15416 0.75905 0.0
C4518 C 0.26073 0.15713 0.74665 0.0
C4519 C 0.27839 0.1675 0.75372 0.0
C4520 C 0.29137 0.17035 0.74189 0.0
C4521 C 0.28688 0.16276 0.72297 0.0
C4522 C 0.26942 0.15225 0.71587 0.0
C4523 C 0.25638 0.14939 0.72764 0.0
H4524 H 0.29695 0.16498 0.71383 0.0
H4525 H 0.16478 0.13707 0.82087 0.0
H4526 H 0.41927 0.96024 0.25115 0.0
H4527 H 0.3948 0.93288 0.25214 0.0
H4528 H 0.35797 0.96816 0.25041 0.0
H4529 H 0.3829 0.99616 0.25077 0.0
H4530 H 0.35498 0.95071 0.27871 0.0
H4531 H 0.35779 0.92989 0.21397 0.0
H4532 H 0.37391 0.92353 0.18757 0.0
H4533 H 0.39197 0.88097 0.21251 0.0
H4534 H 0.37637 0.88743 0.23927 0.0
H4535 H 0.28844 0.85234 0.25802 0.0
H4536 H 0.30422 0.88486 0.25475 0.0
H4537 H 0.34891 0.88262 0.29284 0.0
H4538 H 0.33278 0.85053 0.29686 0.0
H4539 H 0.3436 0.88425 0.24429 0.0
H4540 H 0.35091 0.91358 0.31156 0.0
H4541 H 0.33678 0.91904 0.33968 0.0
H4542 H 0.30061 0.9437 0.31027 0.0
H4543 H 0.31436 0.93799 0.28186 0.0
C4544 C 0.40589 0.96205 0.25026 0.0
C4545 C 0.40289 0.98023 0.25099 0.0
C4546 C 0.39186 0.94636 0.25078 0.0
C4547 C 0.37455 0.94849 0.25117 0.0
C4548 C 0.37128 0.96632 0.25013 0.0
C4549 C 0.38544 0.98219 0.25018 0.0
C4550 C 0.36054 0.9327 0.25513 0.0
C4551 C 0.3522 0.93626 0.27089 0.0
C4552 C 0.3573 0.91379 0.24523 0.0
C4553 C 0.36591 0.90919 0.22865 0.0
C4554 C 0.36524 0.91922 0.21385 0.0
C4555 C 0.37438 0.91568 0.19887 0.0
C4556 C 0.38399 0.90189 0.19839 0.0
C4557 C 0.3845 0.89163 0.21289 0.0
C4558 C 0.37551 0.89523 0.22797 0.0
C4559 C 0.30131 0.85925 0.26624 0.0
C4560 C 0.30957 0.84938 0.2777 0.0
C4561 C 0.31021 0.87767 0.26445 0.0
C4562 C 0.32746 0.88599 0.27382 0.0
C4563 C 0.33533 0.8765 0.28603 0.0
C4564 C 0.32623 0.85826 0.28821 0.0
C4565 C 0.3385 0.90243 0.26777 0.0
C4566 C 0.34617 0.89886 0.25169 0.0
C4567 C 0.34137 0.92118 0.27747 0.0
C4568 C 0.33348 0.92515 0.29459 0.0
C4569 C 0.33983 0.92 0.31106 0.0
C4570 C 0.33192 0.92316 0.32705 0.0
C4571 C 0.31776 0.93166 0.32674 0.0
C4572 C 0.31155 0.93708 0.31047 0.0
C4573 C 0.31939 0.93388 0.29443 0.0
H4574 H 0.31163 0.93408 0.33912 0.0
H4575 H 0.39099 0.89912 0.18674 0.0
H4576 H 0.60133 0.36867 0.58773 0.0
H4577 H 0.59317 0.39443 0.57429 0.0
H4578 H 0.5381 0.37055 0.57966 0.0
H4579 H 0.54628 0.34473 0.59369 0.0
H4580 H 0.54774 0.38315 0.54198 0.0
H4581 H 0.55398 0.40568 0.60804 0.0
H4582 H 0.56964 0.41211 0.63995 0.0
H4583 H 0.61487 0.44975 0.62388 0.0
H4584 H 0.59956 0.44328 0.59177 0.0
H4585 H 0.52125 0.46669 0.52271 0.0
H4586 H 0.52481 0.43813 0.53467 0.0
H4587 H 0.58106 0.4649 0.55049 0.0
H4588 H 0.57758 0.49345 0.53878 0.0
H4589 H 0.56846 0.4495 0.57773 0.0
H4590 H 0.56444 0.42805 0.51286 0.0
H4591 H 0.55165 0.42104 0.47988 0.0
H4592 H 0.50541 0.38134 0.49176 0.0
H4593 H 0.5178 0.38836 0.5249 0.0
C4594 C 0.58746 0.36887 0.58616 0.0
C4595 C 0.57449 0.35466 0.59196 0.0
C4596 C 0.58282 0.38361 0.57838 0.0
C4597 C 0.56503 0.38442 0.57585 0.0
C4598 C 0.55192 0.37017 0.5814 0.0
C4599 C 0.55663 0.35554 0.58958 0.0
C4600 C 0.56056 0.40073 0.56814 0.0
C4601 C 0.55189 0.39762 0.5499 0.0
C4602 C 0.56658 0.41971 0.57817 0.0
C4603 C 0.57569 0.42386 0.59749 0.0
C4604 C 0.56732 0.41521 0.61129 0.0
C4605 C 0.57612 0.41888 0.62941 0.0
C4606 C 0.59325 0.43129 0.63393 0.0
C4607 C 0.6016 0.44012 0.62035 0.0
C4608 C 0.59286 0.43647 0.60219 0.0
C4609 C 0.5344 0.46647 0.52864 0.0
C4610 C 0.54912 0.48247 0.52976 0.0
C4611 C 0.53644 0.45005 0.53542 0.0
C4612 C 0.55325 0.44919 0.54346 0.0
C4613 C 0.56794 0.46511 0.54443 0.0
C4614 C 0.56593 0.48147 0.53764 0.0
C4615 C 0.55555 0.43209 0.55144 0.0
C4616 C 0.56398 0.43505 0.56978 0.0
C4617 C 0.54955 0.41305 0.54132 0.0
C4618 C 0.54195 0.40893 0.52143 0.0
C4619 C 0.55145 0.41799 0.50849 0.0
C4620 C 0.54429 0.41398 0.48975 0.0
C4621 C 0.52769 0.40081 0.48374 0.0
C4622 C 0.51824 0.39159 0.49645 0.0
C4623 C 0.52533 0.39557 0.51522 0.0
H4624 H 0.52219 0.3977 0.46922 0.0
H4625 H 0.60005 0.43411 0.64798 0.0
H4626 H 0.43832 0.75716 0.40029 0.0
H4627 H 0.41377 0.76322 0.38163 0.0
H4628 H 0.44717 0.77673 0.33959 0.0
H4629 H 0.47241 0.77116 0.35878 0.0
H4630 H 0.4275 0.80214 0.34516 0.0
H4631 H 0.41339 0.73341 0.33405 0.0
H4632 H 0.40876 0.70159 0.34308 0.0
H4633 H 0.36666 0.7119 0.37311 0.0
H4634 H 0.3712 0.74389 0.36445 0.0
H4635 H 0.35726 0.79867 0.27539 0.0
H4636 H 0.38234 0.79449 0.29499 0.0
H4637 H 0.34811 0.7782 0.33567 0.0
H4638 H 0.32256 0.78164 0.31542 0.0
H4639 H 0.36831 0.75461 0.33121 0.0
H4640 H 0.38174 0.82288 0.34216 0.0
H4641 H 0.38645 0.85505 0.33393 0.0
H4642 H 0.42974 0.84624 0.30513 0.0
H4643 H 0.42512 0.81389 0.31296 0.0
C4644 C 0.44059 0.76123 0.38701 0.0
C4645 C 0.45752 0.76347 0.38109 0.0
C4646 C 0.42635 0.76465 0.37623 0.0
C4647 C 0.42831 0.77016 0.35893 0.0
C4648 C 0.44516 0.77239 0.35282 0.0
C4649 C 0.45959 0.76901 0.36374 0.0
C4650 C 0.41276 0.77382 0.34763 0.0
C4651 C 0.41466 0.7916 0.34184 0.0
C4652 C 0.39568 0.76044 0.34376 0.0
C4653 C 0.39272 0.74109 0.34871 0.0
C4654 C 0.4032 0.72892 0.34265 0.0
C4655 C 0.40059 0.71086 0.3477 0.0
C4656 C 0.38745 0.70474 0.35869 0.0
C4657 C 0.37684 0.71666 0.3646 0.0
C4658 C 0.37941 0.73474 0.35961 0.0
C4659 C 0.35503 0.79451 0.28866 0.0
C4660 C 0.33783 0.7909 0.29393 0.0
C4661 C 0.36953 0.7922 0.29997 0.0
C4662 C 0.36744 0.78636 0.31714 0.0
C4663 C 0.35027 0.78291 0.32262 0.0
C4664 C 0.33563 0.78517 0.31115 0.0
C4665 C 0.38302 0.78293 0.32865 0.0
C4666 C 0.38114 0.76519 0.3345 0.0
C4667 C 0.40009 0.79639 0.33264 0.0
C4668 C 0.40298 0.81589 0.32802 0.0
C4669 C 0.39218 0.82775 0.33396 0.0
C4670 C 0.39485 0.84602 0.32939 0.0
C4671 C 0.40835 0.85266 0.31898 0.0
C4672 C 0.41926 0.84106 0.31318 0.0
C4673 C 0.41664 0.82277 0.31769 0.0
H4674 H 0.41039 0.86681 0.31544 0.0
H4675 H 0.38547 0.69076 0.3626 0.0
H4676 H 0.05549 0.74331 0.10331 0.0
H4677 H 0.04888 0.70908 0.09062 0.0
H4678 H 0.07216 0.72227 0.04186 0.0
H4679 H 0.07923 0.75662 0.05461 0.0
H4680 H 0.03703 0.68984 0.03725 0.0
H4681 H 0.09811 0.71368 0.07013 0.0
H4682 H 0.12004 0.73042 0.09759 0.0
H4683 H 0.0931 0.69141 0.13032 0.0
H4684 H 0.07082 0.67465 0.10311 0.0
H4685 H 0.05418 0.60196 1.001 0.0
H4686 H 0.05652 0.63606 0.01183 0.0
H4687 H 0.05088 0.62481 0.06718 0.0
H4688 H 0.04897 0.59092 0.05636 0.0
H4689 H 0.07579 0.65631 0.0689 0.0
H4690 H 0.01612 0.63163 0.03998 0.0
H4691 H 0.99136 0.61391 0.01549 0.0
H4692 H 0.01126 0.65224 0.97892 0.0
H4693 H 0.03627 0.67014 0.00318 0.0
C4694 C 0.0589 0.73897 0.08972 0.0
C4695 C 0.06799 0.75265 0.08 0.0
C4696 C 0.05512 0.71942 0.08252 0.0
C4697 C 0.06009 0.71325 0.06537 0.0
C4698 C 0.06819 0.72684 0.0551 0.0
C4699 C 0.07228 0.74641 0.06244 0.0
C4700 C 0.05845 0.6927 0.05905 0.0
C4701 C 0.04562 0.6825 0.04396 0.0
C4702 C 0.0692 0.68307 0.06836 0.0
C4703 C 0.08269 0.69307 0.08465 0.0
C4704 C 0.09676 0.7088 0.08323 0.0
C4705 C 0.10927 0.71827 0.09873 0.0
C4706 C 0.10793 0.71203 0.1157 0.0
C4707 C 0.0941 0.69626 0.11718 0.0
C4708 C 0.08154 0.68677 0.10172 0.0
C4709 C 0.05362 0.60696 0.01547 0.0
C4710 C 0.05151 0.59416 0.02796 0.0
C4711 C 0.05479 0.62629 0.02163 0.0
C4712 C 0.05365 0.63292 0.04028 0.0
C4713 C 0.0518 0.62003 0.05276 0.0
C4714 C 0.05071 0.60076 0.04662 0.0
C4715 C 0.05451 0.65332 0.04684 0.0
C4716 C 0.06717 0.66354 0.06207 0.0
C4717 C 0.04321 0.66276 0.038 0.0
C4718 C 0.02817 0.65213 0.02335 0.0
C4719 C 0.0153 0.63621 0.02667 0.0
C4720 C 1.0012 0.62614 0.01284 0.0
C4721 C 0.99976 0.6319 0.99564 0.0
C4722 C 0.0124 0.64779 0.99225 0.0
C4723 C 0.02653 0.65793 0.00605 0.0
H4724 H 0.98884 0.62407 0.98494 0.0
H4725 H 0.11763 0.71937 0.12769 0.0
H4726 H 0.05349 0.25599 0.86722 0.0
H4727 H 0.0798 0.25925 0.85104 0.0
H4728 H 0.10673 0.31099 0.88977 0.0
H4729 H 0.08057 0.30792 0.90584 0.0
H4730 H 0.11368 0.31568 0.85601 0.0
H4731 H 0.11667 0.26896 0.89359 0.0
H4732 H 0.1061 0.23964 0.90654 0.0
H4733 H 0.09954 0.20524 0.85251 0.0
H4734 H 0.10981 0.23441 0.83917 0.0
H4735 H 0.20004 0.31647 0.82794 0.0
H4736 H 0.17504 0.31706 0.84562 0.0
H4737 H 0.14472 0.2631 0.81217 0.0
H4738 H 0.16974 0.26221 0.79507 0.0
H4739 H 0.14088 0.26123 0.8458 0.0
H4740 H 0.13831 0.31092 0.80882 0.0
H4741 H 0.15032 0.3415 0.79839 0.0
H4742 H 0.15827 0.37175 0.85442 0.0
H4743 H 0.14652 0.34132 0.86521 0.0
C4744 C 0.06496 0.26812 0.87222 0.0
C4745 C 0.06486 0.2816 0.88793 0.0
C4746 C 0.08007 0.26994 0.863 0.0
C4747 C 0.09544 0.28529 0.86926 0.0
C4748 C 0.09514 0.29902 0.88462 0.0
C4749 C 0.08012 0.29716 0.89387 0.0
C4750 C 0.11195 0.28678 0.86013 0.0
C4751 C 0.1197 0.30381 0.8539 0.0
C4752 C 0.12002 0.27145 0.85743 0.0
C4753 C 0.11381 0.25387 0.86535 0.0
C4754 C 0.11282 0.25515 0.88444 0.0
C4755 C 0.10691 0.23856 0.89186 0.0
C4756 C 0.1021 0.22059 0.88035 0.0
C4757 C 0.10324 0.21917 0.8614 0.0
C4758 C 0.1091 0.23573 0.8539 0.0
C4759 C 0.18797 0.30483 0.82431 0.0
C4760 C 0.18697 0.28923 0.81015 0.0
C4761 C 0.17361 0.30519 0.83439 0.0
C4762 C 0.15774 0.29018 0.83022 0.0
C4763 C 0.15673 0.27482 0.81586 0.0
C4764 C 0.1711 0.27432 0.80603 0.0
C4765 C 0.14228 0.28986 0.84093 0.0
C4766 C 0.13481 0.27308 0.84771 0.0
C4767 C 0.13469 0.30557 0.84438 0.0
C4768 C 0.1417 0.32382 0.83783 0.0
C4769 C 0.14273 0.32408 0.81892 0.0
C4770 C 0.14948 0.34139 0.81295 0.0
C4771 C 0.1551 0.35855 0.82574 0.0
C4772 C 0.15394 0.35845 0.84453 0.0
C4773 C 0.14724 0.34118 0.85058 0.0
H4774 H 0.16031 0.37193 0.82108 0.0
H4775 H 0.09754 0.20775 0.88612 0.0
H4776 H 0.54046 0.76319 0.90156 0.0
H4777 H 0.53617 0.73237 0.91176 0.0
H4778 H 0.59141 0.74813 0.93612 0.0
H4779 H 0.59594 0.77908 0.92538 0.0
H4780 H 0.57686 0.70821 0.91886 0.0
H4781 H 0.56258 0.75699 0.96352 0.0
H4782 H 0.54711 0.78218 0.97094 0.0
H4783 H 0.4966 0.74141 0.95047 0.0
H4784 H 0.51181 0.71602 0.9428 0.0
H4785 H 0.57719 0.65481 0.98945 0.0
H4786 H 0.57958 0.67941 0.97017 0.0
H4787 H 0.52219 0.66515 0.95801 0.0
H4788 H 0.51977 0.6407 0.9779 0.0
H4789 H 0.53535 0.70231 0.96595 0.0
H4790 H 0.54733 0.65281 0.92422 0.0
H4791 H 0.56089 0.6268 0.91355 0.0
H4792 H 0.61282 0.66664 0.92476 0.0
H4793 H 0.59958 0.69287 0.93567 0.0
C4794 C 0.55176 0.75995 0.90886 0.0
C4795 C 0.56843 0.7735 0.9131 0.0
C4796 C 0.5493 0.74237 0.91458 0.0
C4797 C 0.56338 0.73828 0.92497 0.0
C4798 C 0.58041 0.75121 0.92814 0.0
C4799 C 0.58297 0.7688 0.9221 0.0
C4800 C 0.55971 0.7215 0.93414 0.0
C4801 C 0.56797 0.70693 0.92931 0.0
C4802 C 0.54748 0.71963 0.94713 0.0
C4803 C 0.53832 0.73466 0.95254 0.0
C4804 C 0.54817 0.75342 0.96061 0.0
C4805 C 0.53946 0.76772 0.96485 0.0
C4806 C 0.52088 0.7634 0.96116 0.0
C4807 C 0.51098 0.74473 0.95333 0.0
C4808 C 0.51964 0.73037 0.94909 0.0
C4809 C 0.5651 0.65687 0.98256 0.0
C4810 C 0.54831 0.64593 0.98502 0.0
C4811 C 0.56647 0.6708 0.97147 0.0
C4812 C 0.55107 0.67377 0.96233 0.0
C4813 C 0.53422 0.66294 0.96486 0.0
C4814 C 0.53284 0.64909 0.97621 0.0
C4815 C 0.55281 0.68899 0.95102 0.0
C4816 C 0.54415 0.70336 0.95541 0.0
C4817 C 0.5644 0.69046 0.93736 0.0
C4818 C 0.57247 0.67476 0.93087 0.0
C4819 C 0.56165 0.65599 0.92453 0.0
C4820 C 0.56928 0.64122 0.91841 0.0
C4821 C 0.58771 0.64506 0.9185 0.0
C4822 C 0.59855 0.66369 0.92469 0.0
C4823 C 0.59099 0.67852 0.9308 0.0
H4824 H 0.59359 0.6336 0.91376 0.0
H4825 H 0.51416 0.77451 0.96437 0.0
H4826 H 0.04056 0.75563 0.71532 0.0
H4827 H 0.07252 0.76446 0.72687 0.0
H4828 H 0.08454 0.78027 0.67449 0.0
H4829 H 0.05273 0.77211 0.66303 0.0
H4830 H 0.09592 0.74624 0.68964 0.0
H4831 H 0.09878 0.81353 0.70084 0.0
H4832 H 0.08872 0.84154 0.71364 0.0
H4833 H 0.1 0.83095 0.76875 0.0
H4834 H 0.10988 0.80266 0.75623 0.0
H4835 H 0.18844 0.76568 0.70605 0.0
H4836 H 0.15933 0.77082 0.6972 0.0
H4837 H 0.14812 0.77125 0.75347 0.0
H4838 H 0.1775 0.76644 0.76254 0.0
H4839 H 0.13671 0.79913 0.73598 0.0
H4840 H 0.13257 0.73181 0.72577 0.0
H4841 H 0.14093 0.70236 0.71397 0.0
H4842 H 0.13034 0.71121 0.65811 0.0
H4843 H 0.1222 0.74092 0.66961 0.0
C4844 C 0.05004 0.76152 0.70652 0.0
C4845 C 0.04434 0.76309 0.68832 0.0
C4846 C 0.06817 0.76663 0.71312 0.0
C4847 C 0.0806 0.77302 0.70145 0.0
C4848 C 0.07495 0.77556 0.68364 0.0
C4849 C 0.05685 0.77088 0.67718 0.0
C4850 C 0.09925 0.7738 0.70671 0.0
C4851 C 0.10501 0.75794 0.69948 0.0
C4852 C 0.11059 0.78881 0.71998 0.0
C4853 C 0.10486 0.80588 0.72759 0.0
C4854 C 0.09894 0.81706 0.71568 0.0
C4855 C 0.09332 0.83301 0.72288 0.0
C4856 C 0.09366 0.83798 0.74199 0.0
C4857 C 0.09971 0.82706 0.75395 0.0
C4858 C 0.10534 0.81108 0.74681 0.0
C4859 C 0.1799 0.76725 0.71659 0.0
C4860 C 0.18501 0.76557 0.73491 0.0
C4861 C 0.16334 0.77011 0.71152 0.0
C4862 C 0.15173 0.77123 0.7247 0.0
C4863 C 0.15706 0.7704 0.7432 0.0
C4864 C 0.17365 0.76748 0.74828 0.0
C4865 C 0.13347 0.77163 0.71875 0.0
C4866 C 0.12771 0.78755 0.72595 0.0
C4867 C 0.12198 0.75652 0.70555 0.0
C4868 C 0.12701 0.73873 0.69857 0.0
C4869 C 0.13223 0.7276 0.71098 0.0
C4870 C 0.13688 0.71084 0.70434 0.0
C4871 C 0.13623 0.70496 0.6853 0.0
C4872 C 0.13089 0.71581 0.67286 0.0
C4873 C 0.12625 0.73262 0.67943 0.0
H4874 H 0.13981 0.69195 0.68019 0.0
H4875 H 0.08928 0.85033 0.74755 0.0
H4876 H 0.10727 0.37832 0.44034 0.0
H4877 H 0.10123 0.40727 0.45648 0.0
H4878 H 0.07724 0.4169 0.40476 0.0
H4879 H 0.08279 0.38762 0.38864 0.0
H4880 H 0.09659 0.45177 0.4331 0.0
H4881 H 0.05074 0.39205 0.42297 0.0
H4882 H 0.03797 0.35783 0.42359 0.0
H4883 H 0.05096 0.36869 0.48284 0.0
H4884 H 0.06429 0.40292 0.48252 0.0
H4885 H 0.03026 0.49513 0.47177 0.0
H4886 H 0.04073 0.47111 0.45209 0.0
H4887 H 0.07485 0.46558 0.49943 0.0
H4888 H 0.0654 0.49034 0.51882 0.0
H4889 H 0.04918 0.42919 0.47121 0.0
H4890 H 0.09753 0.48841 0.48064 0.0
H4891 H 0.1087 0.52294 0.4801 0.0
H4892 H 0.0893 0.51281 0.42209 0.0
H4893 H 0.07758 0.47829 0.4223 0.0
C4894 C 0.10162 0.3872 0.43229 0.0
C4895 C 0.09543 0.3809 0.41334 0.0
C4896 C 0.09803 0.40358 0.44153 0.0
C4897 C 0.08855 0.41386 0.43175 0.0
C4898 C 0.08454 0.40903 0.41243 0.0
C4899 C 0.08779 0.39243 0.40326 0.0
C4900 C 0.08018 0.42729 0.44192 0.0
C4901 C 0.08614 0.44685 0.44131 0.0
C4902 C 0.06648 0.42069 0.4525 0.0
C4903 C 0.05885 0.40001 0.45268 0.0
C4904 C 0.05119 0.3871 0.4361 0.0
C4905 C 0.04378 0.3677 0.4364 0.0
C4906 C 0.04373 0.36107 0.45324 0.0
C4907 C 0.05109 0.37383 0.4698 0.0
C4908 C 0.05861 0.39322 0.46956 0.0
C4909 C 0.04007 0.48885 0.47787 0.0
C4910 C 0.04745 0.49486 0.49659 0.0
C4911 C 0.04591 0.47513 0.46671 0.0
C4912 C 0.05867 0.46696 0.47442 0.0
C4913 C 0.06509 0.47198 0.49336 0.0
C4914 C 0.05969 0.48605 0.50435 0.0
C4915 C 0.0659 0.4536 0.46272 0.0
C4916 C 0.05961 0.43404 0.46295 0.0
C4917 C 0.07924 0.46017 0.45182 0.0
C4918 C 0.08643 0.48084 0.45156 0.0
C4919 C 0.09543 0.49359 0.46781 0.0
C4920 C 0.1019 0.51315 0.46754 0.0
C4921 C 0.09966 0.52007 0.45103 0.0
C4922 C 0.09103 0.50741 0.43479 0.0
C4923 C 0.08442 0.48787 0.43499 0.0
H4924 H 0.10463 0.53521 0.45082 0.0
H4925 H 0.03791 0.34606 0.45345 0.0
H4926 H 0.44787 0.2703 0.16092 0.0
H4927 H 0.42178 0.27747 0.17326 0.0
H4928 H 0.43109 0.24922 0.21928 0.0
H4929 H 0.45687 0.24186 0.20712 0.0
H4930 H 0.39575 0.23711 0.19908 0.0
H4931 H 0.44399 0.29739 0.22501 0.0
H4932 H 0.46624 0.3254 0.21881 0.0
H4933 H 0.4252 0.34101 0.18639 0.0
H4934 H 0.40277 0.31301 0.1923 0.0
H4935 H 0.34186 0.25507 0.26545 0.0
H4936 H 0.36845 0.25285 0.25091 0.0
H4937 H 0.36238 0.29805 0.22108 0.0
H4938 H 0.33724 0.30137 0.23664 0.0
H4939 H 0.39426 0.3023 0.22797 0.0
H4940 H 0.34528 0.24892 0.20387 0.0
H4941 H 0.32057 0.22013 0.2027 0.0
H4942 H 0.35775 0.18988 0.22077 0.0
H4943 H 0.38255 0.21878 0.22313 0.0
C4944 C 0.44439 0.2658 0.17375 0.0
C4945 C 0.45421 0.25545 0.18307 0.0
C4946 C 0.42956 0.26984 0.18068 0.0
C4947 C 0.42471 0.2637 0.197 0.0
C4948 C 0.43473 0.25383 0.20653 0.0
C4949 C 0.44941 0.2497 0.19961 0.0
C4950 C 0.40906 0.26722 0.20444 0.0
C4951 C 0.39527 0.25128 0.20552 0.0
C4952 C 0.40834 0.28585 0.21172 0.0
C4953 C 0.42176 0.30313 0.20906 0.0
C4954 C 0.43974 0.30682 0.21659 0.0
C4955 C 0.45237 0.32268 0.21311 0.0
C4956 C 0.44714 0.33497 0.2022 0.0
C4957 C 0.42924 0.3315 0.19485 0.0
C4958 C 0.41657 0.31568 0.1983 0.0
C4959 C 0.34662 0.26473 0.25613 0.0
C4960 C 0.33776 0.27836 0.25211 0.0
C4961 C 0.3616 0.26342 0.24776 0.0
C4962 C 0.36706 0.27502 0.23463 0.0
C4963 C 0.35847 0.28905 0.23121 0.0
C4964 C 0.34408 0.29087 0.24008 0.0
C4965 C 0.38099 0.27194 0.22355 0.0
C4966 C 0.39442 0.28801 0.22155 0.0
C4967 C 0.38087 0.2534 0.21459 0.0
C4968 C 0.36581 0.23615 0.21387 0.0
C4969 C 0.34817 0.23626 0.20794 0.0
C4970 C 0.33412 0.21991 0.20711 0.0
C4971 C 0.33757 0.20321 0.21174 0.0
C4972 C 0.35506 0.20287 0.21733 0.0
C4973 C 0.36911 0.21927 0.21854 0.0
H4974 H 0.32669 0.19052 0.2109 0.0
H4975 H 0.45694 0.34718 0.19946 0.0
H4976 H 0.60832 0.48818 0.31524 0.0
H4977 H 0.59475 0.48879 0.34406 0.0
H4978 H 0.63557 0.54005 0.36907 0.0
H4979 H 0.64914 0.53919 0.34039 0.0
H4980 H 0.62914 0.52259 0.39597 0.0
H4981 H 0.58772 0.53619 0.3511 0.0
H4982 H 0.56705 0.53102 0.3222 0.0
H4983 H 0.53531 0.47935 0.3359 0.0
H4984 H 0.55594 0.48407 0.36477 0.0
H4985 H 0.58277 0.54926 0.47305 0.0
H4986 H 0.59704 0.54783 0.44458 0.0
H4987 H 0.55916 0.49379 0.42159 0.0
H4988 H 0.54518 0.49507 0.44991 0.0
H4989 H 0.56394 0.5127 0.39388 0.0
H4990 H 0.60514 0.49899 0.43847 0.0
H4991 H 0.62498 0.50463 0.46801 0.0
H4992 H 0.65657 0.55676 0.45498 0.0
H4993 H 0.63669 0.55158 0.42547 0.0
C4994 C 0.61481 0.49927 0.32703 0.0
C4995 C 0.63051 0.51316 0.32525 0.0
C4996 C 0.60671 0.4999 0.34369 0.0
C4997 C 0.61364 0.51469 0.35945 0.0
C4998 C 0.62955 0.52831 0.3577 0.0
C4999 C 0.63756 0.5277 0.34107 0.0
C5000 C 0.60454 0.51623 0.37745 0.0
C5001 C 0.61487 0.52065 0.39524 0.0
C5002 C 0.58575 0.51345 0.37749 0.0
C5003 C 0.57352 0.51035 0.35998 0.0
C5004 C 0.57644 0.52362 0.34786 0.0
C5005 C 0.56471 0.52079 0.3315 0.0
C5006 C 0.54991 0.50483 0.32719 0.0
C5007 C 0.5468 0.49168 0.33923 0.0
C5008 C 0.55851 0.49442 0.3556 0.0
C5009 C 0.57745 0.53701 0.46202 0.0
C5010 C 0.56263 0.52227 0.46436 0.0
C5011 C 0.58575 0.53611 0.44549 0.0
C5012 C 0.57958 0.52054 0.43029 0.0
C5013 C 0.56458 0.50607 0.43259 0.0
C5014 C 0.5565 0.50682 0.44913 0.0
C5015 C 0.58856 0.51909 0.41226 0.0
C5016 C 0.5782 0.51466 0.39452 0.0
C5017 C 0.60729 0.52187 0.41224 0.0
C5018 C 0.61933 0.52501 0.42987 0.0
C5019 C 0.61624 0.51173 0.44197 0.0
C5020 C 0.6275 0.51484 0.4587 0.0
C5021 C 0.64201 0.53107 0.46339 0.0
C5022 C 0.6453 0.54421 0.45134 0.0
C5023 C 0.63405 0.5412 0.43461 0.0
H5024 H 0.65072 0.53344 0.47635 0.0
H5025 H 0.54082 0.50269 0.31453 0.0
H5026 H 0.31263 0.91261 0.05771 0.0
H5027 H 0.32405 0.91453 0.09007 0.0
H5028 H 0.2959 0.85518 0.08698 0.0
H5029 H 0.285 0.85287 0.05402 0.0
H5030 H 0.29407 0.88275 0.11982 0.0
H5031 H 0.33409 0.86164 0.08027 0.0
H5032 H 0.35464 0.86432 0.05689 0.0
H5033 H 0.38896 0.91552 0.0909 0.0
H5034 H 0.36832 0.91337 0.11432 0.0
H5035 H 0.32502 0.81704 0.15441 0.0
H5036 H 0.32723 0.83984 0.13353 0.0
H5037 H 0.34527 0.88673 0.1797 0.0
H5038 H 0.34399 0.86388 0.20107 0.0
H5039 H 0.35713 0.88115 0.13278 0.0
H5040 H 0.3144 0.89145 0.17647 0.0
H5041 H 0.29196 0.87953 0.19631 0.0
H5042 H 0.26052 0.83857 0.14981 0.0
H5043 H 0.28304 0.84975 0.12989 0.0
C5044 C 0.30843 0.9001 0.06408 0.0
C5045 C 0.29768 0.88262 0.05365 0.0
C5046 C 0.31509 0.90125 0.08245 0.0
C5047 C 0.31076 0.88504 0.09064 0.0
C5048 C 0.29923 0.86781 0.08063 0.0
C5049 C 0.29296 0.86648 0.06199 0.0
C5050 C 0.31909 0.88549 0.10933 0.0
C5051 C 0.30796 0.88287 0.12293 0.0
C5052 C 0.33729 0.88599 0.11313 0.0
C5053 C 0.3494 0.88766 0.0988 0.0
C5054 C 0.3458 0.87371 0.08259 0.0
C5055 C 0.35752 0.87506 0.06937 0.0
C5056 C 0.37303 0.89017 0.07234 0.0
C5057 C 0.37687 0.90391 0.08855 0.0
C5058 C 0.36514 0.90266 0.10178 0.0
C5059 C 0.33048 0.83212 0.16019 0.0
C5060 C 0.33408 0.83869 0.17942 0.0
C5061 C 0.3316 0.84514 0.14821 0.0
C5062 C 0.3362 0.8648 0.1553 0.0
C5063 C 0.34178 0.87154 0.17421 0.0
C5064 C 0.34087 0.85848 0.1863 0.0
C5065 C 0.33183 0.87732 0.14295 0.0
C5066 C 0.34361 0.88245 0.1303 0.0
C5067 C 0.31395 0.87821 0.13962 0.0
C5068 C 0.30055 0.87132 0.15176 0.0
C5069 C 0.30285 0.8797 0.17056 0.0
C5070 C 0.29009 0.87309 0.18181 0.0
C5071 C 0.27485 0.85827 0.17434 0.0
C5072 C 0.27235 0.85 0.15561 0.0
C5073 C 0.28513 0.85644 0.14436 0.0
H5074 H 0.26495 0.85324 0.18305 0.0
H5075 H 0.38212 0.89115 0.06212 0.0
H5076 H 0.97014 0.55993 0.8343 0.0
H5077 H 0.98173 0.5587 0.86606 0.0
H5078 H 0.95117 0.49967 0.8593 0.0
H5079 H 0.93971 0.50067 0.82749 0.0
H5080 H 0.95296 0.52563 0.89551 0.0
H5081 H 0.98773 0.5007 0.85357 0.0
H5082 H 1.00459 0.49935 0.82703 0.0
H5083 H 0.04182 0.55287 0.85245 0.0
H5084 H 0.02497 0.55473 0.87899 0.0
H5085 H 0.01074 0.50988 0.97017 0.0
H5086 H 0.9904 0.50771 0.9423 0.0
H5087 H 0.02336 0.56111 0.93236 0.0
H5088 H 0.04412 0.56309 0.96017 0.0
H5089 H 0.01812 0.53218 0.90374 0.0
H5090 H 0.9765 0.55979 0.94047 0.0
H5091 H 0.95752 0.56095 0.96521 0.0
H5092 H 0.93429 0.50021 0.95013 0.0
H5093 H 0.95248 0.49892 0.92456 0.0
C5094 C 0.96562 0.54688 0.83977 0.0
C5095 C 0.95436 0.53032 0.8286 0.0
C5096 C 0.97222 0.54618 0.85775 0.0
C5097 C 0.96735 0.52901 0.86458 0.0
C5098 C 0.955 0.51293 0.85399 0.0
C5099 C 0.94861 0.51353 0.83593 0.0
C5100 C 0.97651 0.52754 0.88217 0.0
C5101 C 0.96716 0.52677 0.89737 0.0
C5102 C 0.99491 0.52886 0.88423 0.0
C5103 C 1.00494 0.52798 0.86815 0.0
C5104 C 0.99936 0.51232 0.85338 0.0
C5105 C 0.00895 0.51143 0.83836 0.0
C5106 C 0.02423 0.52605 0.83802 0.0
C5107 C 0.02996 0.54158 0.85271 0.0
C5108 C 0.02039 0.54256 0.86774 0.0
C5109 C 0.01348 0.5213 0.96216 0.0
C5110 C 0.02894 0.5366 0.96701 0.0
C5111 C 1.00175 0.52014 0.94643 0.0
C5112 C 0.00534 0.53438 0.93555 0.0
C5113 C 0.02045 0.55007 0.94078 0.0
C5114 C 0.03229 0.55114 0.95646 0.0
C5115 C 0.99484 0.53156 0.9174 0.0
C5116 C 1.00392 0.53103 0.90195 0.0
C5117 C 0.97619 0.52875 0.9151 0.0
C5118 C 0.96599 0.52923 0.9309 0.0
C5119 C 0.96745 0.54668 0.94257 0.0
C5120 C 0.95678 0.54737 0.95667 0.0
C5121 C 0.94496 0.53062 0.95953 0.0
C5122 C 0.94355 0.51316 0.94802 0.0
C5123 C 0.95389 0.51247 0.9336 0.0
H5124 H 0.9368 0.53121 0.97055 0.0
H5125 H 0.03166 0.52531 0.8264 0.0
H5126 H 0.25699 0.22265 0.55329 0.0
H5127 H 0.26141 0.23362 0.58653 0.0
H5128 H 0.31746 0.23681 0.58863 0.0
H5129 H 0.31275 0.22443 0.55503 0.0
H5130 H 0.30656 0.22437 0.61776 0.0
H5131 H 0.30088 0.27855 0.59154 0.0
H5132 H 0.28771 0.2963 0.57058 0.0
H5133 H 0.23905 0.28369 0.59441 0.0
H5134 H 0.25187 0.26568 0.61538 0.0
H5135 H 0.32119 0.27842 0.70953 0.0
H5136 H 0.32164 0.26934 0.67643 0.0
H5137 H 0.26424 0.25598 0.66674 0.0
H5138 H 0.26365 0.26537 0.69993 0.0
H5139 H 0.27949 0.27611 0.64174 0.0
H5140 H 0.28655 0.22023 0.66724 0.0
H5141 H 0.30171 0.20468 0.68891 0.0
H5142 H 0.35076 0.22379 0.66712 0.0
H5143 H 0.33591 0.23959 0.64542 0.0
C5144 C 0.27032 0.22582 0.56074 0.0
C5145 C 0.2846 0.22305 0.55147 0.0
C5146 C 0.27286 0.23218 0.57982 0.0
C5147 C 0.28989 0.23673 0.59012 0.0
C5148 C 0.30421 0.23363 0.58099 0.0
C5149 C 0.30155 0.22666 0.5618 0.0
C5150 C 0.29237 0.24459 0.61036 0.0
C5151 C 0.30091 0.23592 0.62296 0.0
C5152 C 0.28498 0.25964 0.61732 0.0
C5153 C 0.27731 0.2707 0.60495 0.0
C5154 C 0.28735 0.27951 0.59225 0.0
C5155 C 0.27995 0.28962 0.58038 0.0
C5156 C 0.26254 0.2911 0.58115 0.0
C5157 C 0.25253 0.28253 0.59384 0.0
C5158 C 0.25987 0.27241 0.60575 0.0
C5159 C 0.30862 0.27361 0.7004 0.0
C5160 C 0.29235 0.27258 0.70743 0.0
C5161 C 0.30892 0.26832 0.68145 0.0
C5162 C 0.29297 0.26167 0.66913 0.0
C5163 C 0.27672 0.261 0.67602 0.0
C5164 C 0.2764 0.2664 0.69499 0.0
C5165 C 0.29317 0.25555 0.64902 0.0
C5166 C 0.28522 0.26465 0.63648 0.0
C5167 C 0.3014 0.24121 0.6422 0.0
C5168 C 0.31015 0.23117 0.6548 0.0
C5169 C 0.30057 0.22114 0.6671 0.0
C5170 C 0.30911 0.21229 0.67939 0.0
C5171 C 0.32719 0.21328 0.67942 0.0
C5172 C 0.33676 0.22303 0.66708 0.0
C5173 C 0.32828 0.2319 0.65476 0.0
H5174 H 0.33379 0.20647 0.68898 0.0
H5175 H 0.25683 0.29891 0.57192 0.0
H5176 H 0.60514 0.52738 0.2254 0.0
H5177 H 0.5932 0.52908 0.19439 0.0
H5178 H 0.62735 0.49624 0.17173 0.0
H5179 H 0.64023 0.49526 0.2035 0.0
H5180 H 0.62621 0.52018 0.15012 0.0
H5181 H 0.57687 0.47933 0.16966 0.0
H5182 H 0.554 0.4678 0.18916 0.0
H5183 H 0.53408 0.51707 0.18597 0.0
H5184 H 0.55696 0.529 0.16661 0.0
H5185 H 0.57552 0.50401 0.05817 0.0
H5186 H 0.58811 0.50014 0.08877 0.0
H5187 H 0.56822 0.54588 0.11465 0.0
H5188 H 0.55602 0.5502 0.08395 0.0
H5189 H 0.56175 0.5137 0.13348 0.0
H5190 H 0.61279 0.55421 0.11417 0.0
H5191 H 0.63446 0.56318 0.09271 0.0
H5192 H 0.64922 0.51048 0.0932 0.0
H5193 H 0.62766 0.50123 0.11478 0.0
C5194 C 0.61018 0.52021 0.214 0.0
C5195 C 0.6238 0.51096 0.21761 0.0
C5196 C 0.60303 0.52108 0.19585 0.0
C5197 C 0.60871 0.51244 0.17993 0.0
C5198 C 0.62232 0.50305 0.18335 0.0
C5199 C 0.62968 0.5023 0.20175 0.0
C5200 C 0.6008 0.51391 0.1602 0.0
C5201 C 0.61204 0.51839 0.14662 0.0
C5202 C 0.58225 0.512 0.15484 0.0
C5203 C 0.56877 0.50516 0.16687 0.0
C5204 C 0.56773 0.4878 0.17328 0.0
C5205 C 0.55474 0.48117 0.18426 0.0
C5206 C 0.54263 0.49172 0.18885 0.0
C5207 C 0.54348 0.50893 0.18244 0.0
C5208 C 0.55646 0.51562 0.17145 0.0
C5209 C 0.5738 0.51337 0.07029 0.0
C5210 C 0.56459 0.52749 0.06814 0.0
C5211 C 0.58115 0.51115 0.088 0.0
C5212 C 0.57939 0.52269 0.10453 0.0
C5213 C 0.56997 0.53665 0.10245 0.0
C5214 C 0.56296 0.53916 0.08468 0.0
C5215 C 0.58717 0.52009 0.12374 0.0
C5216 C 0.5759 0.51543 0.13714 0.0
C5217 C 0.60556 0.52146 0.12879 0.0
C5218 C 0.61854 0.52697 0.11594 0.0
C5219 C 0.6206 0.5445 0.10961 0.0
C5220 C 0.63287 0.54964 0.09745 0.0
C5221 C 0.64314 0.53737 0.09149 0.0
C5222 C 0.64124 0.51996 0.0978 0.0
C5223 C 0.62904 0.51479 0.11005 0.0
H5224 H 0.65261 0.54137 0.08204 0.0
H5225 H 0.53256 0.48655 0.19733 0.0
H5226 H 0.33403 0.88658 0.956 0.0
H5227 H 0.33319 0.87558 0.92304 0.0
H5228 H 0.27703 0.8722 0.91395 0.0
H5229 H 0.27769 0.88315 0.94707 0.0
H5230 H 0.2862 0.83745 0.90821 0.0
H5231 H 0.30405 0.89968 0.89103 0.0
H5232 H 0.32331 0.93258 0.89441 0.0
H5233 H 0.36822 0.91045 0.88461 0.0
H5234 H 0.34929 0.8774 0.8814 0.0
H5235 H 0.27006 0.79079 0.81671 0.0
H5236 H 0.27302 0.81308 0.84565 0.0
H5237 H 0.33032 0.8235 0.85117 0.0
H5238 H 0.32727 0.80147 0.82167 0.0
H5239 H 0.32101 0.85643 0.85801 0.0
H5240 H 0.30724 0.79675 0.87851 0.0
H5241 H 0.29131 0.7631 0.87825 0.0
H5242 H 0.24311 0.77961 0.88591 0.0
H5243 H 0.25871 0.81335 0.88593 0.0
C5244 C 0.32156 0.88381 0.94694 0.0
C5245 C 0.30575 0.88495 0.95404 0.0
C5246 C 0.3212 0.87794 0.9281 0.0
C5247 C 0.30506 0.87315 0.91626 0.0
C5248 C 0.28961 0.876 0.92304 0.0
C5249 C 0.28996 0.88198 0.94191 0.0
C5250 C 0.30347 0.8607 0.89843 0.0
C5251 C 0.2934 0.84171 0.89697 0.0
C5252 C 0.31391 0.86616 0.88457 0.0
C5253 C 0.32524 0.88603 0.88605 0.0
C5254 C 0.31805 0.90181 0.88968 0.0
C5255 C 0.32891 0.9205 0.89155 0.0
C5256 C 0.34698 0.9236 0.88974 0.0
C5257 C 0.35422 0.90802 0.88599 0.0
C5258 C 0.34341 0.88931 0.8841 0.0
C5259 C 0.28321 0.79745 0.82445 0.0
C5260 C 0.29844 0.79433 0.81751 0.0
C5261 C 0.28492 0.81025 0.8408 0.0
C5262 C 0.30188 0.81972 0.85052 0.0
C5263 C 0.31715 0.81626 0.84377 0.0
C5264 C 0.31542 0.80359 0.82718 0.0
C5265 C 0.30339 0.83332 0.86769 0.0
C5266 C 0.31359 0.85232 0.86913 0.0
C5267 C 0.29356 0.82782 0.88198 0.0
C5268 C 0.28411 0.80755 0.88205 0.0
C5269 C 0.29321 0.79318 0.87999 0.0
C5270 C 0.28424 0.7741 0.87991 0.0
C5271 C 0.2662 0.76921 0.88201 0.0
C5272 C 0.25709 0.78342 0.88426 0.0
C5273 C 0.26599 0.80253 0.88433 0.0
H5274 H 0.25928 0.75442 0.88195 0.0
H5275 H 0.35537 0.93808 0.89124 0.0
H5276 H 0.94071 0.54131 0.72114 0.0
H5277 H 0.9409 0.52569 0.68952 0.0
H5278 H 0.99014 0.51264 0.70696 0.0
H5279 H 0.99023 0.52829 0.73855 0.0
H5280 H 0.98996 0.53085 0.67716 0.0
H5281 H 0.95204 0.47894 0.69976 0.0
H5282 H 0.92548 0.46241 0.71223 0.0
H5283 H 0.89187 0.46619 0.66406 0.0
H5284 H 0.91816 0.48322 0.65149 0.0
H5285 H 0.01085 0.48515 0.60458 0.0
H5286 H 0.9971 0.47924 0.63193 0.0
H5287 H 0.9502 0.49321 0.60873 0.0
H5288 H 0.96349 0.49813 0.58061 0.0
H5289 H 0.94584 0.47284 0.64084 0.0
H5290 H 0.98132 0.53185 0.62384 0.0
H5291 H 0.00666 0.55382 0.61389 0.0
H5292 H 0.0432 0.53888 0.65268 0.0
H5293 H 0.01804 0.51715 0.66313 0.0
C5294 C 0.95183 0.53554 0.71817 0.0
C5295 C 0.96549 0.53596 0.73233 0.0
C5296 C 0.95162 0.52621 0.70024 0.0
C5297 C 0.96514 0.51747 0.69628 0.0
C5298 C 0.97935 0.51895 0.71005 0.0
C5299 C 0.97959 0.52822 0.72794 0.0
C5300 C 0.96596 0.50889 0.67729 0.0
C5301 C 0.98045 0.51796 0.66937 0.0
C5302 C 0.95298 0.49261 0.66701 0.0
C5303 C 0.93712 0.48265 0.67479 0.0
C5304 C 0.93898 0.47655 0.69194 0.0
C5305 C 0.92396 0.46702 0.69901 0.0
C5306 C 0.907 0.46331 0.68898 0.0
C5307 C 0.90501 0.46913 0.67185 0.0
C5308 C 0.91998 0.47874 0.66476 0.0
C5309 C 0.99712 0.48561 0.60457 0.0
C5310 C 0.98858 0.49313 0.59092 0.0
C5311 C 0.98925 0.48221 0.62031 0.0
C5312 C 0.97309 0.48672 0.62254 0.0
C5313 C 0.96291 0.4901 0.60732 0.0
C5314 C 0.97062 0.49313 0.59136 0.0
C5315 C 0.97034 0.49439 0.64125 0.0
C5316 C 0.95539 0.48551 0.64889 0.0
C5317 C 0.98273 0.51111 0.65148 0.0
C5318 C 0.99788 0.52251 0.64387 0.0
C5319 C 0.99479 0.53297 0.62995 0.0
C5320 C 0.0091 0.54549 0.62434 0.0
C5321 C 0.02654 0.5475 0.63241 0.0
C5322 C 0.02971 0.53714 0.64627 0.0
C5323 C 0.01544 0.52477 0.65208 0.0
H5324 H 0.03757 0.55722 0.62806 0.0
H5325 H 0.8954 0.45589 0.69445 0.0
H5326 H 0.27854 0.24384 0.45544 0.0
H5327 H 0.28199 0.25317 0.42545 0.0
H5328 H 0.30286 0.20494 0.40879 0.0
H5329 H 0.2994 0.19533 0.43925 0.0
H5330 H 0.32061 0.23974 0.39649 0.0
H5331 H 0.26083 0.2006 0.39406 0.0
H5332 H 0.23173 0.19059 0.40509 0.0
H5333 H 0.22282 0.24565 0.40162 0.0
H5334 H 0.25199 0.25609 0.39083 0.0
H5335 H 0.29933 0.249 0.29914 0.0
H5336 H 0.30003 0.23439 0.32729 0.0
H5337 H 0.28531 0.28197 0.35753 0.0
H5338 H 0.28528 0.29681 0.32988 0.0
H5339 H 0.26467 0.24334 0.36089 0.0
H5340 H 0.32401 0.28397 0.3668 0.0
H5341 H 0.35364 0.29651 0.35781 0.0
H5342 H 0.36381 0.24127 0.35613 0.0
H5343 H 0.33406 0.2283 0.3648 0.0
C5344 C 0.28406 0.23522 0.44556 0.0
C5345 C 0.28849 0.21863 0.44979 0.0
C5346 C 0.28599 0.24061 0.42832 0.0
C5347 C 0.29233 0.22958 0.41465 0.0
C5348 C 0.2978 0.21362 0.41907 0.0
C5349 C 0.29586 0.20815 0.4365 0.0
C5350 C 0.29218 0.23442 0.39562 0.0
C5351 C 0.30833 0.24007 0.38848 0.0
C5352 C 0.27624 0.23541 0.38534 0.0
C5353 C 0.25865 0.22916 0.39175 0.0
C5354 C 0.25272 0.21062 0.39578 0.0
C5355 C 0.2362 0.20486 0.40196 0.0
C5356 C 0.22544 0.21749 0.40408 0.0
C5357 C 0.23117 0.23589 0.39998 0.0
C5358 C 0.24768 0.24172 0.39381 0.0
C5359 C 0.29609 0.25617 0.31178 0.0
C5360 C 0.29215 0.27396 0.31234 0.0
C5361 C 0.29664 0.24793 0.32786 0.0
C5362 C 0.29282 0.25716 0.34456 0.0
C5363 C 0.28837 0.27462 0.34486 0.0
C5364 C 0.28831 0.28306 0.32904 0.0
C5365 C 0.29306 0.24869 0.36177 0.0
C5366 C 0.27691 0.24253 0.36864 0.0
C5367 C 0.30901 0.24747 0.37184 0.0
C5368 C 0.32666 0.25506 0.36608 0.0
C5369 C 0.33242 0.2744 0.36419 0.0
C5370 C 0.34928 0.28161 0.35924 0.0
C5371 C 0.36057 0.26967 0.3563 0.0
C5372 C 0.35502 0.25049 0.35833 0.0
C5373 C 0.33816 0.24319 0.36325 0.0
H5374 H 0.37364 0.2753 0.35253 0.0
H5375 H 0.21266 0.213 0.40887 0.0
H5376 H 0.33162 0.6218 0.53757 0.0
H5377 H 0.3558 0.60664 0.53312 0.0
H5378 H 0.35098 0.61221 0.47544 0.0
H5379 H 0.32616 0.62649 0.47962 0.0
H5380 H 0.35563 0.57881 0.47858 0.0
H5381 H 0.38459 0.64346 0.50881 0.0
H5382 H 0.38905 0.67185 0.53321 0.0
H5383 H 0.40202 0.63989 0.57451 0.0
H5384 H 0.3974 0.61122 0.55036 0.0
H5385 H 0.43863 0.55878 0.46514 0.0
H5386 H 0.41483 0.57502 0.46722 0.0
H5387 H 0.41474 0.56931 0.5247 0.0
H5388 H 0.43863 0.55333 0.52276 0.0
H5389 H 0.41321 0.60408 0.52021 0.0
H5390 H 0.38334 0.53908 0.48938 0.0
H5391 H 0.37745 0.5106 0.46477 0.0
H5392 H 0.36583 0.5437 0.42398 0.0
H5393 H 0.37192 0.57245 0.44831 0.0
C5394 C 0.3358 0.61986 0.52398 0.0
C5395 C 0.32723 0.62548 0.50897 0.0
C5396 C 0.34961 0.61124 0.52145 0.0
C5397 C 0.35542 0.6087 0.50404 0.0
C5398 C 0.34673 0.61413 0.489 0.0
C5399 C 0.33265 0.62235 0.49142 0.0
C5400 C 0.37063 0.60043 0.50154 0.0
C5401 C 0.36833 0.5845 0.48748 0.0
C5402 C 0.38707 0.60775 0.51334 0.0
C5403 C 0.39056 0.62518 0.52779 0.0
C5404 C 0.38837 0.64249 0.5231 0.0
C5405 C 0.39091 0.65862 0.53688 0.0
C5406 C 0.39579 0.65767 0.5554 0.0
C5407 C 0.39824 0.64061 0.56016 0.0
C5408 C 0.3957 0.62442 0.54642 0.0
C5409 C 0.43346 0.56095 0.47818 0.0
C5410 C 0.44038 0.55476 0.49378 0.0
C5411 C 0.41989 0.5702 0.47934 0.0
C5412 C 0.4129 0.57311 0.49605 0.0
C5413 C 0.41999 0.56719 0.51169 0.0
C5414 C 0.43363 0.55811 0.51057 0.0
C5415 C 0.39816 0.58231 0.49737 0.0
C5416 C 0.40057 0.59847 0.51121 0.0
C5417 C 0.38187 0.57527 0.48527 0.0
C5418 C 0.37829 0.55797 0.47064 0.0
C5419 C 0.37969 0.54033 0.47514 0.0
C5420 C 0.37629 0.52413 0.46125 0.0
C5421 C 0.37132 0.52535 0.44282 0.0
C5422 C 0.36972 0.54278 0.43825 0.0
C5423 C 0.37314 0.55903 0.45209 0.0
H5424 H 0.36868 0.51279 0.43209 0.0
H5425 H 0.39769 0.67016 0.56606 0.0
H5426 H 0.84417 0.93874 0.52579 0.0
H5427 H 0.87257 0.96111 0.52243 0.0
H5428 H 0.90043 0.91899 0.5333 0.0
H5429 H 0.87283 0.8973 0.53723 0.0
H5430 H 0.91894 0.95101 0.55139 0.0
H5431 H 0.88984 0.92934 0.48848 0.0
H5432 H 0.8663 0.92439 0.46202 0.0
H5433 H 0.87357 0.98522 0.46802 0.0
H5434 H 0.89699 0.99052 0.49468 0.0
H5435 H 1.00317 0.98985 0.52413 0.0
H5436 H 0.97367 0.96872 0.52523 0.0
H5437 H 0.94928 0.01326 0.51334 0.0
H5438 H 0.97847 0.0338 0.51112 0.0
H5439 H 0.92857 0.98132 0.49605 0.0
H5440 H 0.95837 1.00198 0.55964 0.0
H5441 H 0.98315 0.00559 0.58449 0.0
H5442 H 0.97506 0.94452 0.5756 0.0
H5443 H 0.95034 0.94058 0.55059 0.0
C5444 C 0.8564 0.93441 0.52768 0.0
C5445 C 0.85606 0.91616 0.53187 0.0
C5446 C 0.87264 0.94712 0.52556 0.0
C5447 C 0.8888 0.94177 0.52746 0.0
C5448 C 0.88834 0.92366 0.53183 0.0
C5449 C 0.87235 0.91116 0.53404 0.0
C5450 C 0.90641 0.95471 0.52531 0.0
C5451 C 0.92098 0.95749 0.53918 0.0
C5452 C 0.90929 0.9635 0.50956 0.0
C5453 C 0.895 0.96031 0.49374 0.0
C5454 C 0.88628 0.94165 0.48428 0.0
C5455 C 0.87299 0.93878 0.46922 0.0
C5456 C 0.86839 0.95448 0.46339 0.0
C5457 C 0.8771 0.97307 0.47259 0.0
C5458 C 0.89039 0.97602 0.48767 0.0
C5459 C 0.99149 0.99503 0.52161 0.0
C5460 C 0.99322 0.01356 0.51766 0.0
C5461 C 0.97458 0.983 0.52239 0.0
C5462 C 0.95907 0.98945 0.51981 0.0
C5463 C 0.96087 0.00783 0.51547 0.0
C5464 C 0.97767 0.01966 0.51432 0.0
C5465 C 0.94105 0.97745 0.52208 0.0
C5466 C 0.92644 0.9749 0.50829 0.0
C5467 C 0.93811 0.96865 0.5378 0.0
C5468 C 0.95259 0.971 0.55321 0.0
C5469 C 0.9619 0.98934 0.56299 0.0
C5470 C 0.97593 0.99144 0.57709 0.0
C5471 C 0.98069 0.9753 0.5816 0.0
C5472 C 0.97136 0.95701 0.57209 0.0
C5473 C 0.95732 0.95483 0.55799 0.0
H5474 H 0.99159 0.97696 0.59249 0.0
H5475 H 0.85812 0.95223 0.45171 0.0
H5476 H 0.92557 0.14173 0.26857 0.0
H5477 H 0.90924 0.16589 0.26929 0.0
H5478 H 0.85974 0.12171 0.25622 0.0
H5479 H 0.87646 0.09698 0.25475 0.0
H5480 H 0.85279 0.14815 0.24098 0.0
H5481 H 0.87954 0.15654 0.3033 0.0
H5482 H 0.90285 0.16167 0.33001 0.0
H5483 H 0.93048 0.21489 0.31566 0.0
H5484 H 0.90742 0.20998 0.28874 0.0
H5485 H 0.80217 0.21747 0.26128 0.0
H5486 H 0.81706 0.19183 0.26091 0.0
H5487 H 0.86809 0.23357 0.27043 0.0
H5488 H 0.85302 0.25951 0.27146 0.0
H5489 H 0.87315 0.20763 0.28809 0.0
H5490 H 0.84438 0.19723 0.2245 0.0
H5491 H 0.81875 0.1913 0.2 0.0
H5492 H 0.79238 0.14091 0.2199 0.0
H5493 H 0.81783 0.1465 0.2445 0.0
C5494 C 0.91118 0.13677 0.26584 0.0
C5495 C 0.90278 0.11672 0.26166 0.0
C5496 C 0.90159 0.15103 0.26652 0.0
C5497 C 0.88273 0.14647 0.26344 0.0
C5498 C 0.87415 0.12639 0.25891 0.0
C5499 C 0.88386 0.11194 0.25807 0.0
C5500 C 0.87245 0.16253 0.26456 0.0
C5501 C 0.85732 0.16096 0.25155 0.0
C5502 C 0.87773 0.17996 0.27801 0.0
C5503 C 0.89188 0.18275 0.29386 0.0
C5504 C 0.89069 0.16923 0.30573 0.0
C5505 C 0.90383 0.17213 0.32093 0.0
C5506 C 0.91817 0.18856 0.32449 0.0
C5507 C 0.91938 0.20215 0.31286 0.0
C5508 C 0.90628 0.19932 0.29763 0.0
C5509 C 0.8166 0.22144 0.26327 0.0
C5510 C 0.82606 0.24114 0.26633 0.0
C5511 C 0.82531 0.2064 0.26283 0.0
C5512 C 0.84415 0.20993 0.26508 0.0
C5513 C 0.85367 0.22969 0.26844 0.0
C5514 C 0.84491 0.24482 0.26901 0.0
C5515 C 0.85376 0.19338 0.26434 0.0
C5516 C 0.86874 0.19486 0.27746 0.0
C5517 C 0.84813 0.17574 0.25123 0.0
C5518 C 0.83293 0.17237 0.23641 0.0
C5519 C 0.83308 0.18494 0.22369 0.0
C5520 C 0.8186 0.18164 0.20979 0.0
C5521 C 0.80392 0.16582 0.20847 0.0
C5522 C 0.80374 0.15318 0.22097 0.0
C5523 C 0.8182 0.15637 0.23485 0.0
H5524 H 0.79272 0.16332 0.19771 0.0
H5525 H 0.92831 0.19079 0.33629 0.0
H5526 H 0.73315 0.13477 0.98657 0.0
H5527 H 0.70122 0.11928 0.98052 0.0
H5528 H 0.70728 0.08441 0.02192 0.0
H5529 H 0.7396 0.09936 0.02732 0.0
H5530 H 0.68135 0.06513 0.99445 0.0
H5531 H 0.69737 0.12571 0.03396 0.0
H5532 H 0.71176 0.16017 0.04463 0.0
H5533 H 0.68165 0.17353 0.9989 0.0
H5534 H 0.66733 0.1391 0.98772 0.0
H5535 H 0.59879 0.06474 0.02917 0.0
H5536 H 0.63046 0.07357 0.02637 0.0
H5537 H 0.61823 0.08141 0.97014 0.0
H5538 H 0.58618 0.07194 0.97261 0.0
H5539 H 0.64649 0.11325 0.00348 0.0
H5540 H 0.6295 0.04837 0.96648 0.0
H5541 H 0.61463 0.01382 0.96186 0.0
H5542 H 0.64616 0.00905 0.01113 0.0
H5543 H 0.66108 0.04368 0.01615 0.0
C5544 C 0.72767 0.12338 0.99394 0.0
C5545 C 0.73849 0.11819 0.00745 0.0
C5546 C 0.70953 0.11464 0.99055 0.0
C5547 C 0.70197 0.10114 1.00113 0.0
C5548 C 0.71298 0.09489 0.0137 0.0
C5549 C 0.73131 0.10336 0.01678 0.0
C5550 C 0.68254 0.09522 1.00038 0.0
C5551 C 0.67373 0.07563 0.99642 0.0
C5552 C 0.67272 0.10902 0.00327 0.0
C5553 C 0.68144 0.12978 0.00985 0.0
C5554 C 0.69396 0.13597 0.02605 0.0
C5555 C 0.70208 0.1555 0.03222 0.0
C5556 C 0.69767 0.16903 0.02242 0.0
C5557 C 0.6851 0.16304 0.00644 0.0
C5558 C 0.67698 0.14351 1.00018 0.0
C5559 C 0.60283 0.06853 0.01626 0.0
C5560 C 0.59021 0.06787 1.00112 0.0
C5561 C 0.62084 0.07336 0.01466 0.0
C5562 C 0.62638 0.07785 0.99803 0.0
C5563 C 0.61392 0.07774 0.98299 0.0
C5564 C 0.59578 0.07245 0.98443 0.0
C5565 C 0.64541 0.08332 0.99691 0.0
C5566 C 0.65416 0.10285 1.00098 0.0
C5567 C 0.65516 0.06948 0.99487 0.0
C5568 C 0.64629 0.04864 0.99177 0.0
C5569 C 0.63313 0.04 0.97643 0.0
C5570 C 0.62473 0.02038 0.97372 0.0
C5571 C 0.62941 0.00924 0.98623 0.0
C5572 C 0.64254 0.01769 1.00146 0.0
C5573 C 0.651 0.03731 0.00422 0.0
H5574 H 0.62292 0.99404 0.9841 0.0
H5575 H 0.70395 0.18415 0.02723 0.0
H5576 H 0.21889 0.52432 0.26523 0.0
H5577 H 0.2356 0.50263 0.27514 0.0
H5578 H 0.19207 0.45398 0.24913 0.0
H5579 H 0.17515 0.47553 0.23921 0.0
H5580 H 0.20348 0.45387 0.28622 0.0
H5581 H 0.22719 0.46194 0.22957 0.0
H5582 H 0.24082 0.48066 0.20698 0.0
H5583 H 0.28741 0.50718 0.24696 0.0
H5584 H 0.27391 0.48882 0.26992 0.0
H5585 H 0.24067 0.37631 0.27447 0.0
H5586 H 0.22588 0.40184 0.27573 0.0
H5587 H 0.27505 0.44291 0.30192 0.0
H5588 H 0.29011 0.4172 0.30041 0.0
H5589 H 0.26248 0.45008 0.26905 0.0
H5590 H 0.23844 0.43576 0.3241 0.0
H5591 H 0.22337 0.41482 0.34431 0.0
H5592 H 0.17573 0.39721 0.30476 0.0
H5593 H 0.1906 0.41773 0.28412 0.0
C5594 C 0.21299 0.509 0.26138 0.0
C5595 C 0.19572 0.50154 0.25162 0.0
C5596 C 0.22252 0.4967 0.26704 0.0
C5597 C 0.21487 0.47689 0.26291 0.0
C5598 C 0.19798 0.46934 0.25248 0.0
C5599 C 0.18846 0.48162 0.24674 0.0
C5600 C 0.22428 0.46406 0.27013 0.0
C5601 C 0.21634 0.45286 0.28246 0.0
C5602 C 0.24117 0.46337 0.26541 0.0
C5603 C 0.24947 0.47417 0.25153 0.0
C5604 C 0.24029 0.47188 0.2336 0.0
C5605 C 0.24799 0.4824 0.22072 0.0
C5606 C 0.26495 0.49514 0.22555 0.0
C5607 C 0.27426 0.49732 0.24325 0.0
C5608 C 0.2666 0.48685 0.2562 0.0
C5609 C 0.24816 0.39065 0.28114 0.0
C5610 C 0.2665 0.39493 0.28726 0.0
C5611 C 0.23968 0.4052 0.28197 0.0
C5612 C 0.24942 0.42415 0.28903 0.0
C5613 C 0.26739 0.42826 0.29658 0.0
C5614 C 0.27592 0.41363 0.29577 0.0
C5615 C 0.24165 0.43962 0.28515 0.0
C5616 C 0.24984 0.45135 0.27328 0.0
C5617 C 0.2248 0.44047 0.29001 0.0
C5618 C 0.21569 0.42829 0.30253 0.0
C5619 C 0.22479 0.42734 0.31965 0.0
C5620 C 0.21627 0.41554 0.33119 0.0
C5621 C 0.19861 0.40469 0.32582 0.0
C5622 C 0.18941 0.40563 0.30891 0.0
C5623 C 0.19787 0.41738 0.2973 0.0
H5624 H 0.19204 0.39555 0.33478 0.0
H5625 H 0.27089 0.50329 0.21556 0.0
H5626 H 0.23241 0.3821 0.99759 0.0
H5627 H 0.20943 0.39913 0.99451 0.0
H5628 H 0.24253 0.44749 0.03385 0.0
H5629 H 0.26566 0.43033 0.03719 0.0
H5630 H 0.20864 0.43902 0.04133 0.0
H5631 H 0.23609 0.44737 0.98578 0.0
H5632 H 0.24625 0.43618 0.95651 0.0
H5633 H 0.1928 0.40325 0.93452 0.0
H5634 H 0.18236 0.41405 0.96376 0.0
H5635 H 0.15956 0.50542 0.03116 0.0
H5636 H 0.18307 0.48882 0.03046 0.0
H5637 H 0.15019 0.44467 0.98671 0.0
H5638 H 0.127 0.46214 0.98664 0.0
H5639 H 0.18305 0.44969 0.98072 0.0
H5640 H 0.15479 0.43878 0.03385 0.0
H5641 H 0.14231 0.44872 0.06201 0.0
H5642 H 0.1943 0.48289 0.08777 0.0
H5643 H 0.20705 0.47335 0.05964 0.0
C5644 C 0.23492 0.39639 0.0056 0.0
C5645 C 0.25102 0.4048 0.01767 0.0
C5646 C 0.22172 0.4062 0.00371 0.0
C5647 C 0.22422 0.42478 0.01373 0.0
C5648 C 0.24023 0.43321 0.02587 0.0
C5649 C 0.2535 0.42339 0.02775 0.0
C5650 C 0.20993 0.43511 0.01199 0.0
C5651 C 0.20328 0.44158 0.02808 0.0
C5652 C 0.20221 0.43778 0.99465 0.0
C5653 C 0.20848 0.43139 0.97703 0.0
C5654 C 0.22653 0.43764 0.97476 0.0
C5655 C 0.23233 0.43138 0.95816 0.0
C5656 C 0.22019 0.41897 0.94368 0.0
C5657 C 0.2022 0.41284 0.94575 0.0
C5658 C 0.19633 0.41904 0.96232 0.0
C5659 C 0.15739 0.49221 0.02135 0.0
C5660 C 0.14137 0.48492 0.00914 0.0
C5661 C 0.17081 0.48262 0.021 0.0
C5662 C 0.16833 0.46507 0.00893 0.0
C5663 C 0.15249 0.45806 0.99628 0.0
C5664 C 0.13919 0.46798 0.99629 0.0
C5665 C 0.18204 0.45391 0.01011 0.0
C5666 C 0.18845 0.44715 0.99396 0.0
C5667 C 0.18925 0.45049 0.02732 0.0
C5668 C 0.18186 0.45542 0.04463 0.0
C5669 C 0.16356 0.4484 0.04554 0.0
C5670 C 0.15643 0.45399 0.06147 0.0
C5671 C 0.1675 0.46645 0.07666 0.0
C5672 C 0.18574 0.47324 0.07599 0.0
C5673 C 0.19294 0.46771 0.06007 0.0
H5674 H 0.16194 0.47084 0.08896 0.0
H5675 H 0.22471 0.41414 0.93085 0.0
H5676 H 0.91882 0.98348 0.26403 0.0
H5677 H 0.90047 0.95223 0.26614 0.0
H5678 H 0.85324 0.96964 0.25049 0.0
H5679 H 0.87198 1.00193 0.24875 0.0
H5680 H 0.84682 0.94671 0.27654 0.0
H5681 H 0.87212 0.93811 0.21944 0.0
H5682 H 0.89703 0.94128 0.20095 0.0
H5683 H 0.92153 0.90905 0.23462 0.0
H5684 H 0.89686 0.90587 0.25344 0.0
H5685 H 0.78885 0.85273 0.25796 0.0
H5686 H 0.80717 0.88453 0.25688 0.0
H5687 H 0.85456 0.86543 0.26671 0.0
H5688 H 0.83586 0.83286 0.2673 0.0
H5689 H 0.86138 0.88931 0.24395 0.0
H5690 H 0.83902 0.89734 0.30098 0.0
H5691 H 0.81703 0.89523 0.32294 0.0
H5692 H 0.79017 0.92908 0.29378 0.0
H5693 H 0.81189 0.93119 0.27148 0.0
C5694 C 0.90453 0.98097 0.26088 0.0
C5695 C 0.89722 0.99576 0.2559 0.0
C5696 C 0.89388 0.96266 0.26202 0.0
C5697 C 0.87518 0.95773 0.25795 0.0
C5698 C 0.86759 0.97257 0.25354 0.0
C5699 C 0.87838 0.99124 0.25251 0.0
C5700 C 0.86403 0.93723 0.2584 0.0
C5701 C 0.84984 0.93424 0.26904 0.0
C5702 C 0.86815 0.92041 0.24953 0.0
C5703 C 0.88269 0.92183 0.23789 0.0
C5704 C 0.88284 0.93173 0.22291 0.0
C5705 C 0.89692 0.93354 0.21238 0.0
C5706 C 0.91087 0.92539 0.21662 0.0
C5707 C 0.91072 0.91535 0.23135 0.0
C5708 C 0.89668 0.9135 0.24193 0.0
C5709 C 0.80318 0.85509 0.25997 0.0
C5710 C 0.81061 0.83979 0.26283 0.0
C5711 C 0.81383 0.87366 0.2595 0.0
C5712 C 0.83262 0.8782 0.26214 0.0
C5713 C 0.8402 0.86284 0.26473 0.0
C5714 C 0.82943 0.84402 0.26513 0.0
C5715 C 0.8439 0.89873 0.26185 0.0
C5716 C 0.85819 0.90173 0.25133 0.0
C5717 C 0.84014 0.91557 0.27119 0.0
C5718 C 0.82697 0.91425 0.28444 0.0
C5719 C 0.82833 0.9042 0.29916 0.0
C5720 C 0.81594 0.90303 0.31168 0.0
C5721 C 0.80218 0.91197 0.30972 0.0
C5722 C 0.80082 0.92214 0.29525 0.0
C5723 C 0.81318 0.92334 0.28268 0.0
H5724 H 0.7926 0.91106 0.31944 0.0
H5725 H 0.92178 0.92685 0.20848 0.0
H5726 H 0.7028 0.07619 0.73322 0.0
H5727 H 0.72528 0.10656 0.74644 0.0
H5728 H 0.68577 0.12698 0.7744 0.0
H5729 H 0.66341 0.09737 0.76101 0.0
H5730 H 0.69862 0.14578 0.74584 0.0
H5731 H 0.71814 0.12613 0.80089 0.0
H5732 H 0.73035 0.10777 0.82187 0.0
H5733 H 0.77931 0.11868 0.79845 0.0
H5734 H 0.76729 0.13688 0.77712 0.0
H5735 H 0.74888 0.23951 0.79018 0.0
H5736 H 0.73343 0.20569 0.78853 0.0
H5737 H 0.7657 0.18929 0.74796 0.0
H5738 H 0.78089 0.22313 0.74911 0.0
H5739 H 0.7579 0.16875 0.78458 0.0
H5740 H 0.73403 0.18603 0.72663 0.0
H5741 H 0.72105 0.20706 0.70953 0.0
H5742 H 0.67856 0.20175 0.74288 0.0
H5743 H 0.69151 0.18096 0.76039 0.0
C5744 C 0.69907 0.08725 0.7422 0.0
C5745 C 0.68133 0.08505 0.74533 0.0
C5746 C 0.7119 0.10424 0.75007 0.0
C5747 C 0.707 0.11875 0.76134 0.0
C5748 C 0.68966 0.1158 0.76574 0.0
C5749 C 0.67686 0.09913 0.75767 0.0
C5750 C 0.71806 0.13837 0.76424 0.0
C5751 C 0.71152 0.15081 0.75446 0.0
C5752 C 0.73489 0.14465 0.7753 0.0
C5753 C 0.74167 0.13256 0.78714 0.0
C5754 C 0.73137 0.12428 0.79992 0.0
C5755 C 0.7383 0.11401 0.81198 0.0
C5756 C 0.75556 0.11198 0.81143 0.0
C5757 C 0.76591 0.12019 0.7988 0.0
C5758 C 0.75904 0.13048 0.78672 0.0
C5759 C 0.75268 0.22862 0.781 0.0
C5760 C 0.76581 0.23359 0.76963 0.0
C5761 C 0.74399 0.20951 0.78016 0.0
C5762 C 0.74869 0.19542 0.76822 0.0
C5763 C 0.76216 0.20026 0.75727 0.0
C5764 C 0.7706 0.21941 0.7578 0.0
C5765 C 0.7384 0.17569 0.76607 0.0
C5766 C 0.74505 0.16341 0.77591 0.0
C5767 C 0.7215 0.1695 0.75533 0.0
C5768 C 0.71389 0.18223 0.745 0.0
C5769 C 0.72208 0.18959 0.73049 0.0
C5770 C 0.71469 0.2014 0.72068 0.0
C5771 C 0.69904 0.20582 0.72517 0.0
C5772 C 0.69072 0.19839 0.73946 0.0
C5773 C 0.69808 0.1866 0.74933 0.0
H5774 H 0.69332 0.21493 0.71753 0.0
H5775 H 0.76094 0.10411 0.82084 0.0
loop_
_geom_bond_atom_site_label_1
_geom_bond_atom_site_label_2
_geom_bond_distance
_geom_bond_site_symmetry_2
_ccdc_geom_bond_type
Zn0 O3 2.031 . S
Zn0 O5 2.049 . S
Zn0 O10 2.067 . S
Zn1 O2 1.962 . S
Zn1 O4 1.986 . S
Zn1 O6 1.996 . S
Zn1 O9 1.943 . S
O2 Zn1 1.962 . S
O2 C7 1.254 . S
O3 Zn0 2.031 . S
O3 C7 1.269 . S
O4 Zn1 1.986 . S
O4 C11 1.262 . S
O5 Zn0 2.049 . S
O5 C13 1.260 . S
O6 Zn1 1.996 . S
O6 C13 1.257 . S
C7 O2 1.254 . S
C7 O3 1.269 . S
C8 O9 1.249 . S
C8 O10 1.270 . S
O9 Zn1 1.943 . S
O9 C8 1.249 . S
O10 Zn0 2.067 . S
O10 C8 1.270 . S
C11 O4 1.262 . S
C11 O12 1.232 . S
O12 C11 1.232 . S
C13 O5 1.260 . S
C13 O6 1.257 . S
Zn14 O17 2.031 1_455 S
Zn14 O19 2.049 . S
Zn14 O24 2.067 . S
Zn15 O16 1.950 1_455 S
Zn15 O18 1.991 . S
Zn15 O20 2.006 . S
Zn15 O23 1.945 1_455 S
O16 Zn15 1.950 1_655 S
O16 C21 1.254 . S
O17 Zn14 2.031 1_655 S
O17 C21 1.269 . S
O18 Zn15 1.991 . S
O18 C25 1.262 . S
O19 Zn14 2.049 . S
O19 C27 1.260 . S
O20 Zn15 2.006 . S
O20 C27 1.257 . S
C21 O16 1.254 . S
C21 O17 1.269 . S
C22 O23 1.249 . S
C22 O24 1.270 1_655 S
O23 Zn15 1.945 1_655 S
O23 C22 1.249 . S
O24 Zn14 2.067 . S
O24 C22 1.270 1_455 S
C25 O18 1.262 . S
C25 O26 1.232 1_455 S
O26 C25 1.232 1_655 S
C27 O19 1.260 . S
C27 O20 1.257 . S
Zn28 O31 2.031 . S
Zn28 O33 2.049 . S
Zn28 O38 2.067 . S
Zn29 O30 1.962 . S
Zn29 O32 1.986 . S
Zn29 O34 1.996 . S
Zn29 O37 1.943 . S
O30 Zn29 1.962 . S
O30 C35 1.254 . S
O31 Zn28 2.031 . S
O31 C35 1.269 . S
O32 Zn29 1.986 . S
O32 C39 1.262 . S
O33 Zn28 2.049 . S
O33 C41 1.260 . S
O34 Zn29 1.996 . S
O34 C41 1.257 . S
C35 O30 1.254 . S
C35 O31 1.269 . S
C36 O37 1.249 . S
C36 O38 1.270 . S
O37 Zn29 1.943 . S
O37 C36 1.249 . S
O38 Zn28 2.067 . S
O38 C36 1.270 . S
C39 O32 1.262 . S
C39 O40 1.232 . S
O40 C39 1.232 . S
C41 O33 1.260 . S
C41 O34 1.257 . S
Zn42 O45 2.031 . S
Zn42 O47 2.049 . S
Zn42 O52 2.067 . S
Zn43 O44 1.962 . S
Zn43 O46 1.986 . S
Zn43 O48 1.996 . S
Zn43 O51 1.943 . S
O44 Zn43 1.962 . S
O44 C49 1.254 . S
O45 Zn42 2.031 . S
O45 C49 1.269 . S
O46 Zn43 1.986 . S
O46 C53 1.262 . S
O47 Zn42 2.049 . S
O47 C55 1.260 . S
O48 Zn43 1.996 . S
O48 C55 1.257 . S
C49 O44 1.254 . S
C49 O45 1.269 . S
C50 O51 1.249 . S
C50 O52 1.270 . S
O51 Zn43 1.943 . S
O51 C50 1.249 . S
O52 Zn42 2.067 . S
O52 C50 1.270 . S
C53 O46 1.262 . S
C53 O54 1.232 . S
O54 C53 1.232 . S
C55 O47 1.260 . S
C55 O48 1.257 . S
Zn56 O59 2.031 . S
Zn56 O61 2.049 . S
Zn56 O66 2.067 . S
Zn57 O58 1.962 . S
Zn57 O60 1.986 . S
Zn57 O62 1.996 . S
Zn57 O65 1.943 . S
O58 Zn57 1.962 . S
O58 C63 1.254 . S
O59 Zn56 2.031 . S
O59 C63 1.269 . S
O60 Zn57 1.986 . S
O60 C67 1.262 . S
O61 Zn56 2.049 . S
O61 C69 1.260 . S
O62 Zn57 1.996 . S
O62 C69 1.257 . S
C63 O58 1.254 . S
C63 O59 1.269 . S
C64 O65 1.249 . S
C64 O66 1.270 . S
O65 Zn57 1.943 . S
O65 C64 1.249 . S
O66 Zn56 2.067 . S
O66 C64 1.270 . S
C67 O60 1.262 . S
C67 O68 1.232 . S
O68 C67 1.232 . S
C69 O61 1.260 . S
C69 O62 1.257 . S
Zn70 O73 2.031 . S
Zn70 O75 2.049 . S
Zn70 O80 2.067 . S
Zn71 O72 1.962 . S
Zn71 O74 1.986 . S
Zn71 O76 1.996 . S
Zn71 O79 1.943 . S
O72 Zn71 1.962 . S
O72 C77 1.254 . S
O73 Zn70 2.031 . S
O73 C77 1.269 . S
O74 Zn71 1.986 . S
O74 C81 1.262 . S
O75 Zn70 2.049 . S
O75 C83 1.260 . S
O76 Zn71 1.996 . S
O76 C83 1.257 . S
C77 O72 1.254 . S
C77 O73 1.269 . S
C78 O79 1.249 . S
C78 O80 1.270 . S
O79 Zn71 1.943 . S
O79 C78 1.249 . S
O80 Zn70 2.067 . S
O80 C78 1.270 . S
C81 O74 1.262 . S
C81 O82 1.232 . S
O82 C81 1.232 . S
C83 O75 1.260 . S
C83 O76 1.257 . S
Zn84 O87 2.031 . S
Zn84 O89 2.049 . S
Zn84 O94 2.067 . S
Zn85 O86 1.962 . S
Zn85 O88 1.986 . S
Zn85 O90 1.996 . S
Zn85 O93 1.943 . S
O86 Zn85 1.962 . S
O86 C91 1.254 . S
O87 Zn84 2.031 . S
O87 C91 1.269 . S
O88 Zn85 1.986 . S
O88 C95 1.262 . S
O89 Zn84 2.049 . S
O89 C97 1.260 . S
O90 Zn85 1.996 . S
O90 C97 1.257 . S
C91 O86 1.254 . S
C91 O87 1.269 . S
C92 O93 1.249 . S
C92 O94 1.270 . S
O93 Zn85 1.943 . S
O93 C92 1.249 . S
O94 Zn84 2.067 . S
O94 C92 1.270 . S
C95 O88 1.262 . S
C95 O96 1.232 . S
O96 C95 1.232 . S
C97 O89 1.260 . S
C97 O90 1.257 . S
Zn98 O101 2.031 . S
Zn98 O103 2.049 . S
Zn98 O108 2.067 . S
Zn99 O100 1.962 . S
Zn99 O102 1.986 . S
Zn99 O104 1.996 . S
Zn99 O107 1.926 1_455 S
O100 Zn99 1.962 . S
O100 C105 1.254 . S
O101 Zn98 2.031 . S
O101 C105 1.269 1_655 S
O102 Zn99 1.986 . S
O102 C109 1.262 . S
O103 Zn98 2.049 . S
O103 C111 1.260 1_655 S
O104 Zn99 1.996 . S
O104 C111 1.257 . S
C105 O100 1.254 . S
C105 O101 1.269 1_455 S
C106 O107 1.271 . S
C106 O108 1.270 . S
O107 Zn99 1.926 1_655 S
O107 C106 1.271 . S
O108 Zn98 2.067 . S
O108 C106 1.270 . S
C109 O102 1.262 . S
C109 O110 1.232 . S
O110 C109 1.232 . S
C111 O103 1.260 1_455 S
C111 O104 1.257 . S
Zn112 O115 2.031 . S
Zn112 O117 2.049 . S
Zn112 O122 2.067 . S
Zn113 O114 1.962 . S
Zn113 O116 1.986 . S
Zn113 O118 1.996 . S
Zn113 O121 1.943 1_545 S
O114 Zn113 1.962 . S
O114 C119 1.254 . S
O115 Zn112 2.031 . S
O115 C119 1.269 1_565 S
O116 Zn113 1.986 . S
O116 C123 1.262 . S
O117 Zn112 2.049 . S
O117 C125 1.260 1_565 S
O118 Zn113 1.996 . S
O118 C125 1.257 . S
C119 O114 1.254 . S
C119 O115 1.269 1_545 S
C120 O121 1.249 . S
C120 O122 1.270 . S
O121 Zn113 1.943 1_565 S
O121 C120 1.249 . S
O122 Zn112 2.067 . S
O122 C120 1.270 . S
C123 O116 1.262 . S
C123 O124 1.232 . S
O124 C123 1.232 . S
C125 O117 1.260 1_545 S
C125 O118 1.257 . S
Zn126 O129 2.031 . S
Zn126 O131 2.049 . S
Zn126 O136 2.067 . S
Zn127 O128 1.962 . S
Zn127 O130 1.986 . S
Zn127 O132 1.996 . S
Zn127 O135 1.943 . S
O128 Zn127 1.962 . S
O128 C133 1.254 . S
O129 Zn126 2.031 . S
O129 C133 1.269 . S
O130 Zn127 1.986 . S
O130 C137 1.262 . S
O131 Zn126 2.049 . S
O131 C139 1.260 . S
O132 Zn127 1.996 . S
O132 C139 1.257 . S
C133 O128 1.254 . S
C133 O129 1.269 . S
C134 O135 1.249 . S
C134 O136 1.270 . S
O135 Zn127 1.943 . S
O135 C134 1.249 . S
O136 Zn126 2.067 . S
O136 C134 1.270 . S
C137 O130 1.262 . S
C137 O138 1.232 . S
O138 C137 1.232 . S
C139 O131 1.260 . S
C139 O132 1.257 . S
Zn140 O143 2.031 . S
Zn140 O145 2.049 . S
Zn140 O150 2.067 . S
Zn141 O142 1.962 . S
Zn141 O144 1.986 . S
Zn141 O146 1.996 . S
Zn141 O149 1.943 1_565 S
O142 Zn141 1.962 . S
O142 C147 1.254 1_565 S
O143 Zn140 2.031 . S
O143 C147 1.269 . S
O144 Zn141 1.986 . S
O144 C151 1.262 . S
O145 Zn140 2.049 . S
O145 C153 1.207 1_545 S
O146 Zn141 1.996 . S
O146 C153 1.289 . S
C147 O142 1.254 1_545 S
C147 O143 1.269 . S
C148 O149 1.249 . S
C148 O150 1.270 . S
O149 Zn141 1.943 1_545 S
O149 C148 1.249 . S
O150 Zn140 2.067 . S
O150 C148 1.270 . S
C151 O144 1.262 . S
C151 O152 1.232 . S
O152 C151 1.232 . S
C153 O145 1.207 1_565 S
C153 O146 1.289 . S
Zn154 O157 2.031 1_554 S
Zn154 O159 2.049 . S
Zn154 O164 2.067 . S
Zn155 O156 1.962 1_554 S
Zn155 O158 1.986 . S
Zn155 O160 1.996 . S
Zn155 O163 1.943 . S
O156 Zn155 1.962 1_556 S
O156 C161 1.254 . S
O157 Zn154 2.031 1_556 S
O157 C161 1.269 . S
O158 Zn155 1.986 . S
O158 C165 1.262 . S
O159 Zn154 2.049 . S
O159 C167 1.260 . S
O160 Zn155 1.996 . S
O160 C167 1.257 . S
C161 O156 1.254 . S
C161 O157 1.269 . S
C162 O163 1.249 . S
C162 O164 1.270 . S
O163 Zn155 1.943 . S
O163 C162 1.249 . S
O164 Zn154 2.067 . S
O164 C162 1.270 . S
C165 O158 1.262 . S
C165 O166 1.232 1_554 S
O166 C165 1.232 1_556 S
C167 O159 1.260 . S
C167 O160 1.257 . S
Zn168 O171 2.031 1_554 S
Zn168 O173 2.049 . S
Zn168 O178 2.067 . S
Zn169 O170 1.962 1_554 S
Zn169 O172 1.986 . S
Zn169 O174 1.996 . S
Zn169 O177 1.943 . S
O170 Zn169 1.962 1_556 S
O170 C175 1.254 . S
O171 Zn168 2.031 1_556 S
O171 C175 1.269 . S
O172 Zn169 1.986 . S
O172 C179 1.262 . S
O173 Zn168 2.049 . S
O173 C181 1.260 . S
O174 Zn169 1.996 . S
O174 C181 1.257 . S
C175 O170 1.254 . S
C175 O171 1.269 . S
C176 O177 1.249 . S
C176 O178 1.270 . S
O177 Zn169 1.943 . S
O177 C176 1.249 . S
O178 Zn168 2.067 . S
O178 C176 1.270 . S
C179 O172 1.262 . S
C179 O180 1.280 . S
O180 C179 1.280 . S
C181 O173 1.260 . S
C181 O174 1.257 . S
Zn182 O185 2.031 1_554 S
Zn182 O187 2.049 . S
Zn182 O192 2.067 . S
Zn183 O184 1.962 1_554 S
Zn183 O186 1.986 . S
Zn183 O188 1.996 . S
Zn183 O191 1.943 . S
O184 Zn183 1.962 1_556 S
O184 C189 1.254 . S
O185 Zn182 2.031 1_556 S
O185 C189 1.269 . S
O186 Zn183 1.986 . S
O186 C193 1.262 . S
O187 Zn182 2.049 . S
O187 C195 1.260 . S
O188 Zn183 1.996 . S
O188 C195 1.257 . S
C189 O184 1.254 . S
C189 O185 1.269 . S
C190 O191 1.249 . S
C190 O192 1.270 . S
O191 Zn183 1.943 . S
O191 C190 1.249 . S
O192 Zn182 2.067 . S
O192 C190 1.270 . S
C193 O186 1.262 . S
C193 O194 1.232 1_554 S
O194 C193 1.232 1_556 S
C195 O187 1.260 . S
C195 O188 1.257 . S
Zn196 O199 2.031 . S
Zn196 O201 2.049 . S
Zn196 O206 2.067 . S
Zn197 O198 1.962 . S
Zn197 O200 1.986 . S
Zn197 O202 1.996 . S
Zn197 O205 1.943 . S
O198 Zn197 1.962 . S
O198 C203 1.254 . S
O199 Zn196 2.031 . S
O199 C203 1.269 . S
O200 Zn197 1.986 . S
O200 C207 1.262 . S
O201 Zn196 2.049 . S
O201 C209 1.260 . S
O202 Zn197 1.996 . S
O202 C209 1.257 . S
C203 O198 1.254 . S
C203 O199 1.269 . S
C204 O205 1.249 . S
C204 O206 1.270 . S
O205 Zn197 1.943 . S
O205 C204 1.249 . S
O206 Zn196 2.067 . S
O206 C204 1.270 . S
C207 O200 1.262 . S
C207 O208 1.232 . S
O208 C207 1.232 . S
C209 O201 1.260 . S
C209 O202 1.257 . S
Zn210 O213 2.031 . S
Zn210 O215 2.049 . S
Zn210 O220 2.067 . S
Zn211 O212 1.962 . S
Zn211 O214 1.986 . S
Zn211 O216 1.996 . S
Zn211 O219 1.943 . S
O212 Zn211 1.962 . S
O212 C217 1.254 . S
O213 Zn210 2.031 . S
O213 C217 1.269 . S
O214 Zn211 1.986 . S
O214 C221 1.262 . S
O215 Zn210 2.049 . S
O215 C223 1.260 . S
O216 Zn211 1.996 . S
O216 C223 1.257 . S
C217 O212 1.254 . S
C217 O213 1.269 . S
C218 O219 1.249 . S
C218 O220 1.270 . S
O219 Zn211 1.943 . S
O219 C218 1.249 . S
O220 Zn210 2.067 . S
O220 C218 1.270 . S
C221 O214 1.262 . S
C221 O222 1.232 . S
O222 C221 1.232 . S
C223 O215 1.260 . S
C223 O216 1.257 . S
Zn224 O227 2.031 . S
Zn224 O229 2.049 . S
Zn224 O234 2.067 . S
Zn225 O226 1.962 . S
Zn225 O228 1.986 . S
Zn225 O230 1.996 . S
Zn225 O233 1.943 . S
O226 Zn225 1.962 . S
O226 C231 1.254 . S
O227 Zn224 2.031 . S
O227 C231 1.269 . S
O228 Zn225 1.986 . S
O228 C235 1.262 . S
O229 Zn224 2.049 . S
O229 C237 1.260 . S
O230 Zn225 1.996 . S
O230 C237 1.257 . S
C231 O226 1.254 . S
C231 O227 1.269 . S
C232 O233 1.249 . S
C232 O234 1.270 . S
O233 Zn225 1.943 . S
O233 C232 1.249 . S
O234 Zn224 2.067 . S
O234 C232 1.270 . S
C235 O228 1.262 . S
C235 O236 1.232 . S
O236 C235 1.232 . S
C237 O229 1.260 . S
C237 O230 1.257 . S
Zn238 O241 2.031 . S
Zn238 O243 2.049 . S
Zn238 O248 2.067 . S
Zn239 O240 1.962 . S
Zn239 O242 1.986 . S
Zn239 O244 1.996 . S
Zn239 O247 1.943 . S
O240 Zn239 1.962 . S
O240 C245 1.254 . S
O241 Zn238 2.031 . S
O241 C245 1.269 . S
O242 Zn239 1.986 . S
O242 C249 1.262 . S
O243 Zn238 2.049 . S
O243 C251 1.260 . S
O244 Zn239 1.996 . S
O244 C251 1.257 . S
C245 O240 1.254 . S
C245 O241 1.269 . S
C246 O247 1.249 . S
C246 O248 1.270 . S
O247 Zn239 1.943 . S
O247 C246 1.249 . S
O248 Zn238 2.067 . S
O248 C246 1.270 . S
C249 O242 1.262 . S
C249 O250 1.232 . S
O250 C249 1.232 . S
C251 O243 1.260 . S
C251 O244 1.257 . S
Zn252 O255 2.031 . S
Zn252 O257 2.049 . S
Zn252 O262 2.067 . S
Zn253 O254 1.962 . S
Zn253 O256 1.986 . S
Zn253 O258 1.996 . S
Zn253 O261 1.943 . S
O254 Zn253 1.962 . S
O254 C259 1.254 . S
O255 Zn252 2.031 . S
O255 C259 1.269 . S
O256 Zn253 1.986 . S
O256 C263 1.262 . S
O257 Zn252 2.049 . S
O257 C265 1.260 . S
O258 Zn253 1.996 . S
O258 C265 1.257 . S
C259 O254 1.254 . S
C259 O255 1.269 . S
C260 O261 1.249 . S
C260 O262 1.270 . S
O261 Zn253 1.943 . S
O261 C260 1.249 . S
O262 Zn252 2.067 . S
O262 C260 1.270 . S
C263 O256 1.262 . S
C263 O264 1.232 . S
O264 C263 1.232 . S
C265 O257 1.260 . S
C265 O258 1.257 . S
Zn266 O269 2.031 . S
Zn266 O271 2.049 . S
Zn266 O276 2.067 . S
Zn267 O268 1.962 . S
Zn267 O270 1.986 . S
Zn267 O272 1.996 . S
Zn267 O275 1.943 . S
O268 Zn267 1.962 . S
O268 C273 1.254 . S
O269 Zn266 2.031 . S
O269 C273 1.269 . S
O270 Zn267 1.986 . S
O270 C277 1.262 . S
O271 Zn266 2.049 . S
O271 C279 1.260 . S
O272 Zn267 1.996 . S
O272 C279 1.257 . S
C273 O268 1.254 . S
C273 O269 1.269 . S
C274 O275 1.249 . S
C274 O276 1.270 . S
O275 Zn267 1.943 . S
O275 C274 1.249 . S
O276 Zn266 2.067 . S
O276 C274 1.270 . S
C277 O270 1.262 . S
C277 O278 1.232 . S
O278 C277 1.232 . S
C279 O271 1.260 . S
C279 O272 1.257 . S
Zn280 O283 2.031 1_554 S
Zn280 O285 2.049 . S
Zn280 O290 2.067 . S
Zn281 O282 1.962 1_554 S
Zn281 O284 1.986 . S
Zn281 O286 1.996 . S
Zn281 O289 1.943 . S
O282 Zn281 1.962 1_556 S
O282 C287 1.254 . S
O283 Zn280 2.031 1_556 S
O283 C287 1.269 . S
O284 Zn281 1.986 . S
O284 C291 1.262 . S
O285 Zn280 2.049 . S
O285 C293 1.260 . S
O286 Zn281 1.996 . S
O286 C293 1.257 . S
C287 O282 1.254 . S
C287 O283 1.269 . S
C288 O289 1.249 . S
C288 O290 1.270 . S
O289 Zn281 1.943 . S
O289 C288 1.249 . S
O290 Zn280 2.067 . S
O290 C288 1.270 . S
C291 O284 1.262 . S
C291 O292 1.232 1_554 S
O292 C291 1.232 1_556 S
C293 O285 1.260 . S
C293 O286 1.257 . S
Zn294 O297 2.031 . S
Zn294 O299 2.049 . S
Zn294 O304 2.067 . S
Zn295 O296 1.962 . S
Zn295 O298 1.986 . S
Zn295 O300 1.996 . S
Zn295 O303 1.943 . S
O296 Zn295 1.962 . S
O296 C301 1.254 . S
O297 Zn294 2.031 . S
O297 C301 1.269 . S
O298 Zn295 1.986 . S
O298 C305 1.262 . S
O299 Zn294 2.049 . S
O299 C307 1.260 . S
O300 Zn295 1.996 . S
O300 C307 1.257 . S
C301 O296 1.254 . S
C301 O297 1.269 . S
C302 O303 1.249 . S
C302 O304 1.270 . S
O303 Zn295 1.943 . S
O303 C302 1.249 . S
O304 Zn294 2.067 . S
O304 C302 1.270 . S
C305 O298 1.262 . S
C305 O306 1.232 . S
O306 C305 1.232 . S
C307 O299 1.260 . S
C307 O300 1.257 . S
Zn308 O311 2.031 . S
Zn308 O313 2.049 . S
Zn308 O318 2.067 . S
Zn309 O310 1.962 . S
Zn309 O312 1.986 . S
Zn309 O314 1.996 . S
Zn309 O317 1.943 . S
O310 Zn309 1.962 . S
O310 C315 1.254 . S
O311 Zn308 2.031 . S
O311 C315 1.269 . S
O312 Zn309 1.986 . S
O312 C319 1.262 . S
O313 Zn308 2.049 . S
O313 C321 1.260 . S
O314 Zn309 1.996 . S
O314 C321 1.257 . S
C315 O310 1.254 . S
C315 O311 1.269 . S
C316 O317 1.249 . S
C316 O318 1.270 . S
O317 Zn309 1.943 . S
O317 C316 1.249 . S
O318 Zn308 2.067 . S
O318 C316 1.270 . S
C319 O312 1.262 . S
C319 O320 1.232 . S
O320 C319 1.232 . S
C321 O313 1.260 . S
C321 O314 1.257 . S
Zn322 O325 2.031 . S
Zn322 O327 2.049 . S
Zn322 O332 2.067 . S
Zn323 O324 1.962 . S
Zn323 O326 1.986 . S
Zn323 O328 1.996 . S
Zn323 O331 1.943 . S
O324 Zn323 1.962 . S
O324 C329 1.254 . S
O325 Zn322 2.031 . S
O325 C329 1.269 . S
O326 Zn323 1.986 . S
O326 C333 1.262 . S
O327 Zn322 2.049 . S
O327 C335 1.260 . S
O328 Zn323 1.996 . S
O328 C335 1.257 . S
C329 O324 1.254 . S
C329 O325 1.269 . S
C330 O331 1.249 . S
C330 O332 1.270 . S
O331 Zn323 1.943 . S
O331 C330 1.249 . S
O332 Zn322 2.067 . S
O332 C330 1.270 . S
C333 O326 1.262 . S
C333 O334 1.232 . S
O334 C333 1.232 . S
C335 O327 1.260 . S
C335 O328 1.257 . S
La336 C338 2.928 1_454 S
La336 O356 2.521 1_454 S
La336 O357 2.628 1_455 S
La336 O358 2.554 1_554 S
La336 O359 2.757 1_554 S
La336 O360 2.470 1_554 S
La336 O365 2.482 . S
La336 O367 2.503 1_545 S
La337 C347 2.928 . S
La337 O359 2.482 1_554 S
La337 O361 2.503 . S
La337 O362 2.521 . S
La337 O363 2.628 . S
La337 O364 2.554 . S
La337 O365 2.757 . S
La337 O366 2.470 . S
C338 La336 2.928 1_656 S
C338 C339 1.503 . S
C338 O356 1.261 . S
C338 O357 1.243 1_556 S
C339 C338 1.503 . S
C339 C340 1.394 . S
C339 C344 1.373 1_556 S
C340 C339 1.394 . S
C340 C341 1.380 . S
C340 H368 0.930 . S
C341 C340 1.380 . S
C341 C342 1.376 . S
C341 H369 0.930 . S
C342 C341 1.376 . S
C342 C343 1.370 . S
C343 C342 1.370 . S
C343 C344 1.396 1_556 S
C343 H370 0.929 1_556 S
C344 C339 1.373 1_554 S
C344 C343 1.396 1_554 S
C344 H371 0.929 . S
C345 O358 1.240 . S
C345 O359 1.289 . S
C346 O360 1.258 1_554 S
C346 O361 1.256 . S
C347 La337 2.928 . S
C347 C348 1.503 . S
C347 O362 1.261 . S
C347 O363 1.243 . S
C348 C347 1.503 . S
C348 C349 1.394 . S
C348 C353 1.373 . S
C349 C348 1.394 . S
C349 C350 1.380 . S
C349 H372 0.930 . S
C350 C349 1.380 . S
C350 C351 1.376 . S
C350 H373 0.930 . S
C351 C350 1.376 . S
C351 C352 1.369 1_545 S
C352 C351 1.369 1_565 S
C352 C353 1.383 1_565 S
C352 H374 0.942 . S
C353 C348 1.373 . S
C353 C352 1.383 1_545 S
C353 H375 0.929 . S
C354 O364 1.240 . S
C354 O365 1.289 . S
C355 O366 1.258 1_565 S
C355 O367 1.256 . S
O356 La336 2.521 1_656 S
O356 C338 1.261 . S
O357 La336 2.628 1_655 S
O357 C338 1.243 1_554 S
O358 La336 2.554 1_556 S
O358 C345 1.240 . S
O359 La336 2.757 1_556 S
O359 La337 2.482 1_556 S
O359 C345 1.289 . S
O360 La336 2.470 1_556 S
O360 C346 1.258 1_556 S
O361 La337 2.503 . S
O361 C346 1.256 . S
O362 La337 2.521 . S
O362 C347 1.261 . S
O363 La337 2.628 . S
O363 C347 1.243 . S
O364 La337 2.554 . S
O364 C354 1.240 . S
O365 La336 2.482 . S
O365 La337 2.757 . S
O365 C354 1.289 . S
O366 La337 2.470 . S
O366 C355 1.258 1_545 S
O367 La336 2.503 1_565 S
O367 C355 1.256 . S
H368 C340 0.930 . S
H369 C341 0.930 . S
H370 C343 0.929 1_554 S
H371 C344 0.929 . S
H372 C349 0.930 . S
H373 C350 0.930 . S
H374 C352 0.942 . S
H375 C353 0.929 . S
La376 C378 2.928 . S
La376 O396 2.521 . S
La376 O397 2.628 . S
La376 O398 2.554 . S
La376 O399 2.757 . S
La376 O400 2.470 . S
La376 O405 2.482 . S
La376 O407 2.503 . S
La377 C387 2.928 . S
La377 O399 2.482 . S
La377 O401 2.503 . S
La377 O402 2.521 . S
La377 O403 2.628 . S
La377 O404 2.554 . S
La377 O405 2.757 . S
La377 O406 2.470 . S
C378 La376 2.928 . S
C378 C379 1.503 . S
C378 O396 1.261 . S
C378 O397 1.243 . S
C379 C378 1.503 . S
C379 C380 1.394 . S
C379 C384 1.373 . S
C380 C379 1.394 . S
C380 C381 1.380 . S
C380 H408 0.930 . S
C381 C380 1.380 . S
C381 C382 1.376 . S
C381 H409 0.930 . S
C382 C381 1.376 . S
C382 C383 1.370 . S
C383 C382 1.370 . S
C383 C384 1.396 . S
C383 H410 0.929 . S
C384 C379 1.373 . S
C384 C383 1.396 . S
C384 H411 0.929 . S
C385 O398 1.240 . S
C385 O399 1.289 . S
C386 O400 1.258 . S
C386 O401 1.256 . S
C387 La377 2.928 . S
C387 C388 1.503 . S
C387 O402 1.261 . S
C387 O403 1.243 . S
C388 C387 1.503 . S
C388 C389 1.394 . S
C388 C393 1.373 . S
C389 C388 1.394 . S
C389 C390 1.380 . S
C389 H412 0.930 . S
C390 C389 1.380 . S
C390 C391 1.376 . S
C390 H413 0.930 . S
C391 C390 1.376 . S
C391 C392 1.370 . S
C392 C391 1.370 . S
C392 C393 1.396 . S
C392 H414 0.929 . S
C393 C388 1.373 . S
C393 C392 1.396 . S
C393 H415 0.929 . S
C394 O404 1.240 . S
C394 O405 1.289 . S
C395 O406 1.258 . S
C395 O407 1.256 . S
O396 La376 2.521 . S
O396 C378 1.261 . S
O397 La376 2.628 . S
O397 C378 1.243 . S
O398 La376 2.554 . S
O398 C385 1.240 . S
O399 La376 2.757 . S
O399 La377 2.482 . S
O399 C385 1.289 . S
O400 La376 2.470 . S
O400 C386 1.258 . S
O401 La377 2.503 . S
O401 C386 1.256 . S
O402 La377 2.521 . S
O402 C387 1.261 . S
O403 La377 2.628 . S
O403 C387 1.243 . S
O404 La377 2.554 . S
O404 C394 1.240 . S
O405 La376 2.482 . S
O405 La377 2.757 . S
O405 C394 1.289 . S
O406 La377 2.470 . S
O406 C395 1.258 . S
O407 La376 2.503 . S
O407 C395 1.256 . S
H408 C380 0.930 . S
H409 C381 0.930 . S
H410 C383 0.929 . S
H411 C384 0.929 . S
H412 C389 0.930 . S
H413 C390 0.930 . S
H414 C392 0.929 . S
H415 C393 0.929 . S
La416 C418 2.928 . S
La416 O436 2.521 . S
La416 O437 2.628 . S
La416 O438 2.554 . S
La416 O439 2.757 . S
La416 O440 2.470 1_545 S
La416 O445 2.482 . S
La416 O447 2.503 . S
La417 C427 2.928 . S
La417 O439 2.482 . S
La417 O441 2.503 1_545 S
La417 O442 2.521 . S
La417 O443 2.628 . S
La417 O444 2.554 . S
La417 O445 2.757 . S
La417 O446 2.470 . S
C418 La416 2.928 . S
C418 C419 1.503 1_545 S
C418 O436 1.261 . S
C418 O437 1.243 . S
C419 C418 1.503 1_565 S
C419 C420 1.394 . S
C419 C424 1.373 . S
C420 C419 1.394 . S
C420 C421 1.380 . S
C420 H448 0.930 1_565 S
C421 C420 1.380 . S
C421 C422 1.376 . S
C421 H449 0.930 . S
C422 C421 1.376 . S
C422 C423 1.370 . S
C423 C422 1.370 . S
C423 C424 1.396 . S
C423 H450 0.929 . S
C424 C419 1.373 . S
C424 C423 1.396 . S
C424 H451 0.929 . S
C425 O438 1.240 . S
C425 O439 1.289 . S
C426 O440 1.258 . S
C426 O441 1.256 . S
C427 La417 2.928 . S
C427 C428 1.503 . S
C427 O442 1.261 . S
C427 O443 1.243 . S
C428 C427 1.503 . S
C428 C429 1.394 . S
C428 C433 1.373 . S
C429 C428 1.394 . S
C429 C430 1.380 . S
C429 H452 0.930 . S
C430 C429 1.380 . S
C430 C431 1.376 . S
C430 H453 0.930 . S
C431 C430 1.376 . S
C431 C432 1.370 . S
C432 C431 1.370 . S
C432 C433 1.396 . S
C432 H454 0.929 . S
C433 C428 1.373 . S
C433 C432 1.396 . S
C433 H455 0.929 . S
C434 O444 1.240 . S
C434 O445 1.289 . S
C435 O446 1.258 . S
C435 O447 1.256 . S
O436 La416 2.521 . S
O436 C418 1.261 . S
O437 La416 2.628 . S
O437 C418 1.243 . S
O438 La416 2.554 . S
O438 C425 1.240 . S
O439 La416 2.757 . S
O439 La417 2.482 . S
O439 C425 1.289 . S
O440 La416 2.470 1_565 S
O440 C426 1.258 . S
O441 La417 2.503 1_565 S
O441 C426 1.256 . S
O442 La417 2.521 . S
O442 C427 1.261 . S
O443 La417 2.628 . S
O443 C427 1.243 . S
O444 La417 2.554 . S
O444 C434 1.240 . S
O445 La416 2.482 . S
O445 La417 2.757 . S
O445 C434 1.289 . S
O446 La417 2.470 . S
O446 C435 1.258 . S
O447 La416 2.503 . S
O447 C435 1.256 . S
H448 C420 0.930 1_545 S
H449 C421 0.930 . S
H450 C423 0.929 . S
H451 C424 0.929 . S
H452 C429 0.930 . S
H453 C430 0.930 . S
H454 C432 0.929 . S
H455 C433 0.929 . S
La456 C458 2.928 . S
La456 O476 2.521 . S
La456 O477 2.628 . S
La456 O478 2.554 . S
La456 O479 2.757 . S
La456 O480 2.470 . S
La456 O485 2.482 . S
La456 O487 2.503 . S
La457 C467 2.928 . S
La457 O479 2.482 . S
La457 O481 2.503 . S
La457 O482 2.521 . S
La457 O483 2.628 . S
La457 O484 2.554 . S
La457 O485 2.757 . S
La457 O486 2.470 . S
C458 La456 2.928 . S
C458 C459 1.503 . S
C458 O476 1.261 . S
C458 O477 1.243 . S
C459 C458 1.503 . S
C459 C460 1.394 . S
C459 C464 1.373 . S
C460 C459 1.394 . S
C460 C461 1.380 . S
C460 H488 0.930 . S
C461 C460 1.380 . S
C461 C462 1.376 . S
C461 H489 0.930 . S
C462 C461 1.376 . S
C462 C463 1.370 . S
C463 C462 1.370 . S
C463 C464 1.396 . S
C463 H490 0.929 . S
C464 C459 1.373 . S
C464 C463 1.396 . S
C464 H491 0.929 . S
C465 O478 1.240 . S
C465 O479 1.289 . S
C466 O480 1.258 . S
C466 O481 1.256 . S
C467 La457 2.928 . S
C467 C468 1.503 . S
C467 O482 1.261 . S
C467 O483 1.243 . S
C468 C467 1.503 . S
C468 C469 1.394 . S
C468 C473 1.373 . S
C469 C468 1.394 . S
C469 C470 1.380 . S
C469 H492 0.930 . S
C470 C469 1.380 . S
C470 C471 1.376 . S
C470 H493 0.930 . S
C471 C470 1.376 . S
C471 C472 1.370 . S
C472 C471 1.370 . S
C472 C473 1.396 . S
C472 H494 0.929 . S
C473 C468 1.373 . S
C473 C472 1.396 . S
C473 H495 0.929 . S
C474 O484 1.240 . S
C474 O485 1.289 . S
C475 O486 1.258 . S
C475 O487 1.256 . S
O476 La456 2.521 . S
O476 C458 1.261 . S
O477 La456 2.628 . S
O477 C458 1.243 . S
O478 La456 2.554 . S
O478 C465 1.240 . S
O479 La456 2.757 . S
O479 La457 2.482 . S
O479 C465 1.289 . S
O480 La456 2.470 . S
O480 C466 1.258 . S
O481 La457 2.503 . S
O481 C466 1.256 . S
O482 La457 2.521 . S
O482 C467 1.261 . S
O483 La457 2.628 . S
O483 C467 1.243 . S
O484 La457 2.554 . S
O484 C474 1.240 . S
O485 La456 2.482 . S
O485 La457 2.757 . S
O485 C474 1.289 . S
O486 La457 2.470 . S
O486 C475 1.258 . S
O487 La456 2.503 . S
O487 C475 1.256 . S
H488 C460 0.930 . S
H489 C461 0.930 . S
H490 C463 0.929 . S
H491 C464 0.929 . S
H492 C469 0.930 . S
H493 C470 0.930 . S
H494 C472 0.929 . S
H495 C473 0.929 . S
La496 C498 2.928 . S
La496 O516 2.521 . S
La496 O517 2.628 . S
La496 O518 2.554 . S
La496 O519 2.757 . S
La496 O520 2.470 . S
La496 O525 2.482 . S
La496 O527 2.503 . S
La497 C507 2.928 1_545 S
La497 O519 2.482 . S
La497 O521 2.503 . S
La497 O522 2.521 1_545 S
La497 O523 2.628 1_545 S
La497 O524 2.554 . S
La497 O525 2.757 . S
La497 O526 2.470 . S
C498 La496 2.928 . S
C498 C499 1.503 . S
C498 O516 1.261 . S
C498 O517 1.243 . S
C499 C498 1.503 . S
C499 C500 1.394 . S
C499 C504 1.373 . S
C500 C499 1.394 . S
C500 C501 1.380 . S
C500 H528 0.930 . S
C501 C500 1.380 . S
C501 C502 1.376 . S
C501 H529 0.930 . S
C502 C501 1.376 . S
C502 C503 1.370 . S
C503 C502 1.370 . S
C503 C504 1.396 . S
C503 H530 0.929 . S
C504 C499 1.373 . S
C504 C503 1.396 . S
C504 H531 0.929 . S
C505 O518 1.240 . S
C505 O519 1.289 . S
C506 O520 1.258 . S
C506 O521 1.256 . S
C507 La497 2.928 1_565 S
C507 C508 1.503 . S
C507 O522 1.261 . S
C507 O523 1.243 . S
C508 C507 1.503 . S
C508 C509 1.394 . S
C508 C513 1.373 . S
C509 C508 1.394 . S
C509 C510 1.380 . S
C509 H532 0.930 . S
C510 C509 1.380 . S
C510 C511 1.376 . S
C510 H533 0.930 . S
C511 C510 1.376 . S
C511 C512 1.370 . S
C512 C511 1.370 . S
C512 C513 1.396 . S
C512 H534 0.929 . S
C513 C508 1.373 . S
C513 C512 1.396 . S
C513 H535 0.929 . S
C514 O524 1.240 . S
C514 O525 1.289 . S
C515 O526 1.258 . S
C515 O527 1.256 . S
O516 La496 2.521 . S
O516 C498 1.261 . S
O517 La496 2.628 . S
O517 C498 1.243 . S
O518 La496 2.554 . S
O518 C505 1.240 . S
O519 La496 2.757 . S
O519 La497 2.482 . S
O519 C505 1.289 . S
O520 La496 2.470 . S
O520 C506 1.258 . S
O521 La497 2.503 . S
O521 C506 1.256 . S
O522 La497 2.521 1_565 S
O522 C507 1.261 . S
O523 La497 2.628 1_565 S
O523 C507 1.243 . S
O524 La497 2.554 . S
O524 C514 1.240 . S
O525 La496 2.482 . S
O525 La497 2.757 . S
O525 C514 1.289 . S
O526 La497 2.470 . S
O526 C515 1.258 . S
O527 La496 2.503 . S
O527 C515 1.256 . S
H528 C500 0.930 . S
H529 C501 0.930 . S
H530 C503 0.929 . S
H531 C504 0.929 . S
H532 C509 0.930 . S
H533 C510 0.930 . S
H534 C512 0.929 . S
H535 C513 0.929 . S
La536 C538 2.928 . S
La536 O556 2.521 . S
La536 O557 2.628 . S
La536 O558 2.554 . S
La536 O559 2.757 . S
La536 O560 2.470 . S
La536 O565 2.482 . S
La536 O567 2.503 . S
La537 C547 2.928 . S
La537 O559 2.482 . S
La537 O561 2.503 . S
La537 O562 2.521 . S
La537 O563 2.628 . S
La537 O564 2.554 . S
La537 O565 2.757 . S
La537 O566 2.470 . S
C538 La536 2.928 . S
C538 C539 1.503 . S
C538 O556 1.261 . S
C538 O557 1.243 . S
C539 C538 1.503 . S
C539 C540 1.394 . S
C539 C544 1.373 . S
C540 C539 1.394 . S
C540 C541 1.380 . S
C540 H568 0.930 . S
C541 C540 1.380 . S
C541 C542 1.376 . S
C541 H569 0.930 . S
C542 C541 1.376 . S
C542 C543 1.370 . S
C543 C542 1.370 . S
C543 C544 1.396 . S
C543 H570 0.929 . S
C544 C539 1.373 . S
C544 C543 1.396 . S
C544 H571 0.929 . S
C545 O558 1.240 . S
C545 O559 1.289 . S
C546 O560 1.258 . S
C546 O561 1.256 . S
C547 La537 2.928 . S
C547 C548 1.503 . S
C547 O562 1.261 . S
C547 O563 1.243 . S
C548 C547 1.503 . S
C548 C549 1.394 . S
C548 C553 1.373 . S
C549 C548 1.394 . S
C549 C550 1.380 . S
C549 H572 0.930 . S
C550 C549 1.380 . S
C550 C551 1.376 . S
C550 H573 0.930 . S
C551 C550 1.376 . S
C551 C552 1.370 . S
C552 C551 1.370 . S
C552 C553 1.396 . S
C552 H574 0.929 . S
C553 C548 1.373 . S
C553 C552 1.396 . S
C553 H575 0.929 . S
C554 O564 1.240 . S
C554 O565 1.289 . S
C555 O566 1.258 . S
C555 O567 1.256 . S
O556 La536 2.521 . S
O556 C538 1.261 . S
O557 La536 2.628 . S
O557 C538 1.243 . S
O558 La536 2.554 . S
O558 C545 1.240 . S
O559 La536 2.757 . S
O559 La537 2.482 . S
O559 C545 1.289 . S
O560 La536 2.470 . S
O560 C546 1.258 . S
O561 La537 2.503 . S
O561 C546 1.256 . S
O562 La537 2.521 . S
O562 C547 1.261 . S
O563 La537 2.628 . S
O563 C547 1.243 . S
O564 La537 2.554 . S
O564 C554 1.240 . S
O565 La536 2.482 . S
O565 La537 2.757 . S
O565 C554 1.289 . S
O566 La537 2.470 . S
O566 C555 1.258 . S
O567 La536 2.503 . S
O567 C555 1.256 . S
H568 C540 0.930 . S
H569 C541 0.930 . S
H570 C543 0.929 . S
H571 C544 0.929 . S
H572 C549 0.930 . S
H573 C550 0.930 . S
H574 C552 0.929 . S
H575 C553 0.929 . S
La576 C578 2.928 . S
La576 O596 2.521 . S
La576 O597 2.628 . S
La576 O598 2.554 1_545 S
La576 O599 2.757 1_554 S
La576 O600 2.470 . S
La576 O605 2.482 . S
La576 O607 2.503 . S
La577 C587 2.928 . S
La577 O599 2.482 . S
La577 O601 2.503 . S
La577 O602 2.521 . S
La577 O603 2.628 . S
La577 O604 2.554 . S
La577 O605 2.757 1_556 S
La577 O606 2.470 . S
C578 La576 2.928 . S
C578 C579 1.503 . S
C578 O596 1.261 . S
C578 O597 1.243 . S
C579 C578 1.503 . S
C579 C580 1.394 1_545 S
C579 C584 1.373 . S
C580 C579 1.394 1_565 S
C580 C581 1.380 . S
C580 H608 0.930 . S
C581 C580 1.380 . S
C581 C582 1.353 1_565 S
C581 H609 0.930 . S
C582 C581 1.353 1_545 S
C582 C583 1.405 . S
C583 C582 1.405 . S
C583 C584 1.396 . S
C583 H610 0.929 . S
C584 C579 1.373 . S
C584 C583 1.396 . S
C584 H611 0.929 . S
C585 O598 1.240 1_546 S
C585 O599 1.289 . S
C586 O600 1.258 . S
C586 O601 1.256 1_554 S
C587 La577 2.928 . S
C587 C588 1.503 . S
C587 O602 1.261 . S
C587 O603 1.243 . S
C588 C587 1.503 . S
C588 C589 1.394 . S
C588 C593 1.373 . S
C589 C588 1.394 . S
C589 C590 1.380 . S
C589 H612 0.930 . S
C590 C589 1.380 . S
C590 C591 1.376 . S
C590 H613 0.930 . S
C591 C590 1.376 . S
C591 C592 1.370 . S
C592 C591 1.370 . S
C592 C593 1.396 . S
C592 H614 0.929 . S
C593 C588 1.373 . S
C593 C592 1.396 . S
C593 H615 0.929 . S
C594 O604 1.240 1_554 S
C594 O605 1.289 . S
C595 O606 1.258 1_554 S
C595 O607 1.256 . S
O596 La576 2.521 . S
O596 C578 1.261 . S
O597 La576 2.628 . S
O597 C578 1.243 . S
O598 La576 2.554 1_565 S
O598 C585 1.240 1_564 S
O599 La576 2.757 1_556 S
O599 La577 2.482 . S
O599 C585 1.289 . S
O600 La576 2.470 . S
O600 C586 1.258 . S
O601 La577 2.503 . S
O601 C586 1.256 1_556 S
O602 La577 2.521 . S
O602 C587 1.261 . S
O603 La577 2.628 . S
O603 C587 1.243 . S
O604 La577 2.554 . S
O604 C594 1.240 1_556 S
O605 La576 2.482 . S
O605 La577 2.757 1_554 S
O605 C594 1.289 . S
O606 La577 2.470 . S
O606 C595 1.258 1_556 S
O607 La576 2.503 . S
O607 C595 1.256 . S
H608 C580 0.930 . S
H609 C581 0.930 . S
H610 C583 0.929 . S
H611 C584 0.929 . S
H612 C589 0.930 . S
H613 C590 0.930 . S
H614 C592 0.929 . S
H615 C593 0.929 . S
La616 C618 2.928 . S
La616 O636 2.521 . S
La616 O637 2.628 . S
La616 O638 2.554 . S
La616 O639 2.757 . S
La616 O640 2.470 . S
La616 O645 2.482 . S
La616 O647 2.503 . S
La617 C627 2.928 . S
La617 O639 2.482 . S
La617 O641 2.503 . S
La617 O642 2.521 . S
La617 O643 2.628 . S
La617 O644 2.554 . S
La617 O645 2.757 . S
La617 O646 2.470 . S
C618 La616 2.928 . S
C618 C619 1.503 . S
C618 O636 1.261 . S
C618 O637 1.243 . S
C619 C618 1.503 . S
C619 C620 1.394 . S
C619 C624 1.373 . S
C620 C619 1.394 . S
C620 C621 1.380 . S
C620 H648 0.930 . S
C621 C620 1.380 . S
C621 C622 1.376 . S
C621 H649 0.930 . S
C622 C621 1.376 . S
C622 C623 1.370 . S
C623 C622 1.370 . S
C623 C624 1.396 . S
C623 H650 0.929 . S
C624 C619 1.373 . S
C624 C623 1.396 . S
C624 H651 0.929 . S
C625 O638 1.240 . S
C625 O639 1.289 . S
C626 O640 1.258 . S
C626 O641 1.256 . S
C627 La617 2.928 . S
C627 C628 1.503 . S
C627 O642 1.261 . S
C627 O643 1.243 . S
C628 C627 1.503 . S
C628 C629 1.394 . S
C628 C633 1.373 . S
C629 C628 1.394 . S
C629 C630 1.380 . S
C629 H652 0.930 . S
C630 C629 1.380 . S
C630 C631 1.376 . S
C630 H653 0.930 . S
C631 C630 1.376 . S
C631 C632 1.370 . S
C632 C631 1.370 . S
C632 C633 1.396 . S
C632 H654 0.929 . S
C633 C628 1.373 . S
C633 C632 1.396 . S
C633 H655 0.929 . S
C634 O644 1.240 . S
C634 O645 1.289 . S
C635 O646 1.258 . S
C635 O647 1.256 . S
O636 La616 2.521 . S
O636 C618 1.261 . S
O637 La616 2.628 . S
O637 C618 1.243 . S
O638 La616 2.554 . S
O638 C625 1.240 . S
O639 La616 2.757 . S
O639 La617 2.482 . S
O639 C625 1.289 . S
O640 La616 2.470 . S
O640 C626 1.258 . S
O641 La617 2.503 . S
O641 C626 1.256 . S
O642 La617 2.521 . S
O642 C627 1.261 . S
O643 La617 2.628 . S
O643 C627 1.243 . S
O644 La617 2.554 . S
O644 C634 1.240 . S
O645 La616 2.482 . S
O645 La617 2.757 . S
O645 C634 1.289 . S
O646 La617 2.470 . S
O646 C635 1.258 . S
O647 La616 2.503 . S
O647 C635 1.256 . S
H648 C620 0.930 . S
H649 C621 0.930 . S
H650 C623 0.929 . S
H651 C624 0.929 . S
H652 C629 0.930 . S
H653 C630 0.930 . S
H654 C632 0.929 . S
H655 C633 0.929 . S
La656 C658 2.928 1_554 S
La656 O676 2.521 . S
La656 O677 2.628 1_554 S
La656 O678 2.554 . S
La656 O679 2.757 . S
La656 O680 2.470 1_554 S
La656 O685 2.482 . S
La656 O687 2.503 . S
La657 C667 2.895 1_556 S
La657 O679 2.459 1_556 S
La657 O681 2.552 . S
La657 O682 2.503 1_556 S
La657 O683 2.586 1_556 S
La657 O684 2.558 . S
La657 O685 2.764 1_556 S
La657 O686 2.419 1_556 S
C658 La656 2.928 1_556 S
C658 C659 1.503 . S
C658 O676 1.261 1_556 S
C658 O677 1.243 . S
C659 C658 1.503 . S
C659 C660 1.394 . S
C659 C664 1.373 . S
C660 C659 1.394 . S
C660 C661 1.380 . S
C660 H688 0.951 . S
C661 C660 1.380 . S
C661 C662 1.376 . S
C661 H689 0.930 . S
C662 C661 1.376 . S
C662 C663 1.370 . S
C663 C662 1.370 . S
C663 C664 1.396 . S
C663 H690 0.929 . S
C664 C659 1.373 . S
C664 C663 1.396 . S
C664 H691 0.929 . S
C665 O678 1.240 . S
C665 O679 1.289 . S
C666 O680 1.258 . S
C666 O681 1.256 . S
C667 La657 2.895 1_554 S
C667 C668 1.503 . S
C667 O682 1.261 . S
C667 O683 1.243 . S
C668 C667 1.503 . S
C668 C669 1.394 . S
C668 C673 1.373 . S
C669 C668 1.394 . S
C669 C670 1.380 . S
C669 H692 0.930 . S
C670 C669 1.380 . S
C670 C671 1.376 . S
C670 H693 0.930 . S
C671 C670 1.376 . S
C671 C672 1.370 . S
C672 C671 1.370 . S
C672 C673 1.396 . S
C672 H694 0.929 . S
C673 C668 1.373 . S
C673 C672 1.396 . S
C673 H695 0.929 . S
C674 O684 1.241 1_554 S
C674 O685 1.289 . S
C675 O686 1.258 . S
C675 O687 1.256 . S
O676 La656 2.521 . S
O676 C658 1.261 1_554 S
O677 La656 2.628 1_556 S
O677 C658 1.243 . S
O678 La656 2.554 . S
O678 C665 1.240 . S
O679 La656 2.757 . S
O679 La657 2.459 1_554 S
O679 C665 1.289 . S
O680 La656 2.470 1_556 S
O680 C666 1.258 . S
O681 La657 2.552 . S
O681 C666 1.256 . S
O682 La657 2.503 1_554 S
O682 C667 1.261 . S
O683 La657 2.586 1_554 S
O683 C667 1.243 . S
O684 La657 2.558 . S
O684 C674 1.241 1_556 S
O685 La656 2.482 . S
O685 La657 2.764 1_554 S
O685 C674 1.289 . S
O686 La657 2.419 1_554 S
O686 C675 1.258 . S
O687 La656 2.503 . S
O687 C675 1.256 . S
H688 C660 0.951 . S
H689 C661 0.930 . S
H690 C663 0.929 . S
H691 C664 0.929 . S
H692 C669 0.930 . S
H693 C670 0.930 . S
H694 C672 0.929 . S
H695 C673 0.929 . S
La696 C698 2.928 . S
La696 O716 2.521 . S
La696 O717 2.628 . S
La696 O718 2.554 . S
La696 O719 2.757 . S
La696 O720 2.470 . S
La696 O725 2.482 . S
La696 O727 2.503 . S
La697 C707 2.928 . S
La697 O719 2.482 . S
La697 O721 2.503 . S
La697 O722 2.521 . S
La697 O723 2.628 . S
La697 O724 2.554 . S
La697 O725 2.757 . S
La697 O726 2.470 . S
C698 La696 2.928 . S
C698 C699 1.503 . S
C698 O716 1.261 . S
C698 O717 1.243 . S
C699 C698 1.503 . S
C699 C700 1.394 . S
C699 C704 1.373 . S
C700 C699 1.394 . S
C700 C701 1.380 . S
C700 H728 0.930 . S
C701 C700 1.380 . S
C701 C702 1.376 . S
C701 H729 0.930 . S
C702 C701 1.376 . S
C702 C703 1.370 . S
C703 C702 1.370 . S
C703 C704 1.396 . S
C703 H730 0.929 . S
C704 C699 1.373 . S
C704 C703 1.396 . S
C704 H731 0.929 . S
C705 O718 1.240 . S
C705 O719 1.289 . S
C706 O720 1.258 . S
C706 O721 1.256 . S
C707 La697 2.928 . S
C707 C708 1.503 . S
C707 O722 1.261 . S
C707 O723 1.243 . S
C708 C707 1.503 . S
C708 C709 1.394 . S
C708 C713 1.373 . S
C709 C708 1.394 . S
C709 C710 1.380 . S
C709 H732 0.930 . S
C710 C709 1.380 . S
C710 C711 1.376 . S
C710 H733 0.930 . S
C711 C710 1.376 . S
C711 C712 1.370 . S
C712 C711 1.370 . S
C712 C713 1.396 . S
C712 H734 0.929 . S
C713 C708 1.373 . S
C713 C712 1.396 . S
C713 H735 0.929 . S
C714 O724 1.240 . S
C714 O725 1.289 . S
C715 O726 1.258 . S
C715 O727 1.256 . S
O716 La696 2.521 . S
O716 C698 1.261 . S
O717 La696 2.628 . S
O717 C698 1.243 . S
O718 La696 2.554 . S
O718 C705 1.240 . S
O719 La696 2.757 . S
O719 La697 2.482 . S
O719 C705 1.289 . S
O720 La696 2.470 . S
O720 C706 1.258 . S
O721 La697 2.503 . S
O721 C706 1.256 . S
O722 La697 2.521 . S
O722 C707 1.261 . S
O723 La697 2.628 . S
O723 C707 1.243 . S
O724 La697 2.554 . S
O724 C714 1.240 . S
O725 La696 2.482 . S
O725 La697 2.757 . S
O725 C714 1.289 . S
O726 La697 2.470 . S
O726 C715 1.258 . S
O727 La696 2.503 . S
O727 C715 1.256 . S
H728 C700 0.930 . S
H729 C701 0.930 . S
H730 C703 0.929 . S
H731 C704 0.929 . S
H732 C709 0.930 . S
H733 C710 0.930 . S
H734 C712 0.929 . S
H735 C713 0.929 . S
La736 C738 2.928 . S
La736 O756 2.521 . S
La736 O757 2.628 . S
La736 O758 2.554 . S
La736 O759 2.757 . S
La736 O760 2.470 . S
La736 O765 2.482 . S
La736 O767 2.503 . S
La737 C747 2.928 . S
La737 O759 2.482 . S
La737 O761 2.503 1_455 S
La737 O762 2.521 . S
La737 O763 2.628 . S
La737 O764 2.554 . S
La737 O765 2.757 . S
La737 O766 2.470 . S
C738 La736 2.928 . S
C738 C739 1.503 . S
C738 O756 1.261 . S
C738 O757 1.243 . S
C739 C738 1.503 . S
C739 C740 1.394 . S
C739 C744 1.373 1_455 S
C740 C739 1.394 . S
C740 C741 1.380 1_455 S
C740 H768 0.930 . S
C741 C740 1.380 1_655 S
C741 C742 1.376 . S
C741 H769 0.930 . S
C742 C741 1.376 . S
C742 C743 1.370 . S
C743 C742 1.370 . S
C743 C744 1.396 . S
C743 H770 0.929 . S
C744 C739 1.373 1_655 S
C744 C743 1.396 . S
C744 H771 0.929 . S
C745 O758 1.240 . S
C745 O759 1.289 . S
C746 O760 1.258 1_655 S
C746 O761 1.256 . S
C747 La737 2.928 . S
C747 C748 1.503 . S
C747 O762 1.261 . S
C747 O763 1.243 . S
C748 C747 1.503 . S
C748 C749 1.394 . S
C748 C753 1.373 . S
C749 C748 1.394 . S
C749 C750 1.380 . S
C749 H772 0.930 . S
C750 C749 1.380 . S
C750 C751 1.376 . S
C750 H773 0.930 . S
C751 C750 1.376 . S
C751 C752 1.370 . S
C752 C751 1.370 . S
C752 C753 1.396 . S
C752 H774 0.929 . S
C753 C748 1.373 . S
C753 C752 1.396 . S
C753 H775 0.929 . S
C754 O764 1.240 . S
C754 O765 1.289 . S
C755 O766 1.258 . S
C755 O767 1.256 . S
O756 La736 2.521 . S
O756 C738 1.261 . S
O757 La736 2.628 . S
O757 C738 1.243 . S
O758 La736 2.554 . S
O758 C745 1.240 . S
O759 La736 2.757 . S
O759 La737 2.482 . S
O759 C745 1.289 . S
O760 La736 2.470 . S
O760 C746 1.258 1_455 S
O761 La737 2.503 1_655 S
O761 C746 1.256 . S
O762 La737 2.521 . S
O762 C747 1.261 . S
O763 La737 2.628 . S
O763 C747 1.243 . S
O764 La737 2.554 . S
O764 C754 1.240 . S
O765 La736 2.482 . S
O765 La737 2.757 . S
O765 C754 1.289 . S
O766 La737 2.470 . S
O766 C755 1.258 . S
O767 La736 2.503 . S
O767 C755 1.256 . S
H768 C740 0.930 . S
H769 C741 0.930 . S
H770 C743 0.929 . S
H771 C744 0.929 . S
H772 C749 0.930 . S
H773 C750 0.930 . S
H774 C752 0.929 . S
H775 C753 0.929 . S
La776 C778 2.928 . S
La776 O796 2.521 . S
La776 O797 2.628 . S
La776 O798 2.554 . S
La776 O799 2.757 . S
La776 O800 2.470 . S
La776 O805 2.482 . S
La776 O807 2.503 . S
La777 C787 2.928 . S
La777 O799 2.482 . S
La777 O801 2.503 . S
La777 O802 2.521 . S
La777 O803 2.628 . S
La777 O804 2.554 . S
La777 O805 2.757 . S
La777 O806 2.470 . S
C778 La776 2.928 . S
C778 C779 1.503 . S
C778 O796 1.261 . S
C778 O797 1.243 . S
C779 C778 1.503 . S
C779 C780 1.394 . S
C779 C784 1.373 . S
C780 C779 1.394 . S
C780 C781 1.380 . S
C780 H808 0.930 . S
C781 C780 1.380 . S
C781 C782 1.376 . S
C781 H809 0.930 . S
C782 C781 1.376 . S
C782 C783 1.370 . S
C783 C782 1.370 . S
C783 C784 1.396 . S
C783 H810 0.929 . S
C784 C779 1.373 . S
C784 C783 1.396 . S
C784 H811 0.929 . S
C785 O798 1.240 . S
C785 O799 1.289 . S
C786 O800 1.258 . S
C786 O801 1.256 . S
C787 La777 2.928 . S
C787 C788 1.503 . S
C787 O802 1.261 . S
C787 O803 1.243 . S
C788 C787 1.503 . S
C788 C789 1.394 . S
C788 C793 1.373 . S
C789 C788 1.394 . S
C789 C790 1.380 . S
C789 H812 0.930 . S
C790 C789 1.380 . S
C790 C791 1.376 . S
C790 H813 0.930 . S
C791 C790 1.376 . S
C791 C792 1.370 . S
C792 C791 1.370 . S
C792 C793 1.396 . S
C792 H814 0.929 . S
C793 C788 1.373 . S
C793 C792 1.396 . S
C793 H815 0.929 . S
C794 O804 1.240 . S
C794 O805 1.289 . S
C795 O806 1.258 . S
C795 O807 1.256 . S
O796 La776 2.521 . S
O796 C778 1.261 . S
O797 La776 2.628 . S
O797 C778 1.243 . S
O798 La776 2.554 . S
O798 C785 1.240 . S
O799 La776 2.757 . S
O799 La777 2.482 . S
O799 C785 1.289 . S
O800 La776 2.470 . S
O800 C786 1.258 . S
O801 La777 2.503 . S
O801 C786 1.256 . S
O802 La777 2.521 . S
O802 C787 1.261 . S
O803 La777 2.628 . S
O803 C787 1.243 . S
O804 La777 2.554 . S
O804 C794 1.240 . S
O805 La776 2.482 . S
O805 La777 2.757 . S
O805 C794 1.289 . S
O806 La777 2.470 . S
O806 C795 1.258 . S
O807 La776 2.503 . S
O807 C795 1.256 . S
H808 C780 0.930 . S
H809 C781 0.930 . S
H810 C783 0.929 . S
H811 C784 0.929 . S
H812 C789 0.930 . S
H813 C790 0.930 . S
H814 C792 0.929 . S
H815 C793 0.929 . S
La816 C818 2.928 . S
La816 O836 2.521 . S
La816 O837 2.628 . S
La816 O838 2.554 . S
La816 O839 2.757 . S
La816 O840 2.470 . S
La816 O845 2.482 . S
La816 O847 2.503 . S
La817 C827 2.928 . S
La817 O839 2.482 . S
La817 O841 2.503 . S
La817 O842 2.521 . S
La817 O843 2.628 . S
La817 O844 2.554 . S
La817 O845 2.757 . S
La817 O846 2.470 . S
C818 La816 2.928 . S
C818 C819 1.503 . S
C818 O836 1.261 . S
C818 O837 1.243 . S
C819 C818 1.503 . S
C819 C820 1.394 . S
C819 C824 1.373 . S
C820 C819 1.394 . S
C820 C821 1.380 . S
C820 H848 0.930 . S
C821 C820 1.380 . S
C821 C822 1.376 . S
C821 H849 0.930 . S
C822 C821 1.376 . S
C822 C823 1.370 . S
C823 C822 1.370 . S
C823 C824 1.396 . S
C823 H850 0.929 . S
C824 C819 1.373 . S
C824 C823 1.396 . S
C824 H851 0.929 . S
C825 O838 1.240 . S
C825 O839 1.289 . S
C826 O840 1.258 . S
C826 O841 1.256 . S
C827 La817 2.928 . S
C827 C828 1.503 . S
C827 O842 1.261 . S
C827 O843 1.243 . S
C828 C827 1.503 . S
C828 C829 1.394 . S
C828 C833 1.373 . S
C829 C828 1.394 . S
C829 C830 1.380 . S
C829 H852 0.930 . S
C830 C829 1.380 . S
C830 C831 1.376 . S
C830 H853 0.930 . S
C831 C830 1.376 . S
C831 C832 1.370 . S
C832 C831 1.370 . S
C832 C833 1.396 . S
C832 H854 0.929 . S
C833 C828 1.373 . S
C833 C832 1.396 . S
C833 H855 0.929 . S
C834 O844 1.240 . S
C834 O845 1.289 . S
C835 O846 1.258 . S
C835 O847 1.256 . S
O836 La816 2.521 . S
O836 C818 1.261 . S
O837 La816 2.628 . S
O837 C818 1.243 . S
O838 La816 2.554 . S
O838 C825 1.240 . S
O839 La816 2.757 . S
O839 La817 2.482 . S
O839 C825 1.289 . S
O840 La816 2.470 . S
O840 C826 1.258 . S
O841 La817 2.503 . S
O841 C826 1.256 . S
O842 La817 2.521 . S
O842 C827 1.261 . S
O843 La817 2.628 . S
O843 C827 1.243 . S
O844 La817 2.554 . S
O844 C834 1.240 . S
O845 La816 2.482 . S
O845 La817 2.757 . S
O845 C834 1.289 . S
O846 La817 2.470 . S
O846 C835 1.258 . S
O847 La816 2.503 . S
O847 C835 1.256 . S
H848 C820 0.930 . S
H849 C821 0.930 . S
H850 C823 0.929 . S
H851 C824 0.929 . S
H852 C829 0.930 . S
H853 C830 0.930 . S
H854 C832 0.929 . S
H855 C833 0.929 . S
La856 C858 2.928 . S
La856 O876 2.521 . S
La856 O877 2.628 . S
La856 O878 2.554 . S
La856 O879 2.757 . S
La856 O880 2.470 . S
La856 O885 2.482 . S
La856 O887 2.503 . S
La857 C867 2.928 . S
La857 O879 2.482 . S
La857 O881 2.503 . S
La857 O882 2.521 . S
La857 O883 2.628 . S
La857 O884 2.554 . S
La857 O885 2.757 . S
La857 O886 2.470 . S
C858 La856 2.928 . S
C858 C859 1.503 . S
C858 O876 1.261 . S
C858 O877 1.243 . S
C859 C858 1.503 . S
C859 C860 1.394 . S
C859 C864 1.373 . S
C860 C859 1.394 . S
C860 C861 1.380 . S
C860 H888 0.930 . S
C861 C860 1.380 . S
C861 C862 1.376 . S
C861 H889 0.930 . S
C862 C861 1.376 . S
C862 C863 1.370 . S
C863 C862 1.370 . S
C863 C864 1.396 . S
C863 H890 0.929 . S
C864 C859 1.373 . S
C864 C863 1.396 . S
C864 H891 0.929 . S
C865 O878 1.240 . S
C865 O879 1.289 . S
C866 O880 1.258 . S
C866 O881 1.256 . S
C867 La857 2.928 . S
C867 C868 1.503 . S
C867 O882 1.261 . S
C867 O883 1.243 . S
C868 C867 1.503 . S
C868 C869 1.394 . S
C868 C873 1.373 . S
C869 C868 1.394 . S
C869 C870 1.380 . S
C869 H892 0.930 . S
C870 C869 1.380 . S
C870 C871 1.376 . S
C870 H893 0.930 . S
C871 C870 1.376 . S
C871 C872 1.370 . S
C872 C871 1.370 . S
C872 C873 1.396 . S
C872 H894 0.929 . S
C873 C868 1.373 . S
C873 C872 1.396 . S
C873 H895 0.929 . S
C874 O884 1.240 . S
C874 O885 1.289 . S
C875 O886 1.258 . S
C875 O887 1.256 . S
O876 La856 2.521 . S
O876 C858 1.261 . S
O877 La856 2.628 . S
O877 C858 1.243 . S
O878 La856 2.554 . S
O878 C865 1.240 . S
O879 La856 2.757 . S
O879 La857 2.482 . S
O879 C865 1.289 . S
O880 La856 2.470 . S
O880 C866 1.258 . S
O881 La857 2.503 . S
O881 C866 1.256 . S
O882 La857 2.521 . S
O882 C867 1.261 . S
O883 La857 2.628 . S
O883 C867 1.243 . S
O884 La857 2.554 . S
O884 C874 1.240 . S
O885 La856 2.482 . S
O885 La857 2.757 . S
O885 C874 1.289 . S
O886 La857 2.470 . S
O886 C875 1.258 . S
O887 La856 2.503 . S
O887 C875 1.256 . S
H888 C860 0.930 . S
H889 C861 0.930 . S
H890 C863 0.929 . S
H891 C864 0.929 . S
H892 C869 0.930 . S
H893 C870 0.930 . S
H894 C872 0.929 . S
H895 C873 0.929 . S
La896 C898 2.928 . S
La896 O916 2.521 . S
La896 O917 2.628 . S
La896 O918 2.554 . S
La896 O919 2.757 . S
La896 O920 2.470 . S
La896 O925 2.482 . S
La896 O927 2.503 . S
La897 C907 2.928 . S
La897 O919 2.482 . S
La897 O921 2.503 . S
La897 O922 2.521 . S
La897 O923 2.628 . S
La897 O924 2.554 . S
La897 O925 2.757 . S
La897 O926 2.470 . S
C898 La896 2.928 . S
C898 C899 1.503 . S
C898 O916 1.261 . S
C898 O917 1.243 . S
C899 C898 1.503 . S
C899 C900 1.394 . S
C899 C904 1.373 . S
C900 C899 1.394 . S
C900 C901 1.380 . S
C900 H928 0.930 . S
C901 C900 1.380 . S
C901 C902 1.376 . S
C901 H929 0.930 . S
C902 C901 1.376 . S
C902 C903 1.370 . S
C903 C902 1.370 . S
C903 C904 1.396 . S
C903 H930 0.929 . S
C904 C899 1.373 . S
C904 C903 1.396 . S
C904 H931 0.929 . S
C905 O918 1.240 . S
C905 O919 1.289 . S
C906 O920 1.258 . S
C906 O921 1.256 . S
C907 La897 2.928 . S
C907 C908 1.503 . S
C907 O922 1.261 . S
C907 O923 1.243 . S
C908 C907 1.503 . S
C908 C909 1.394 . S
C908 C913 1.373 . S
C909 C908 1.394 . S
C909 C910 1.380 . S
C909 H932 0.930 . S
C910 C909 1.380 . S
C910 C911 1.376 . S
C910 H933 0.930 . S
C911 C910 1.376 . S
C911 C912 1.370 . S
C912 C911 1.370 . S
C912 C913 1.396 . S
C912 H934 0.929 . S
C913 C908 1.373 . S
C913 C912 1.396 . S
C913 H935 0.929 . S
C914 O924 1.240 . S
C914 O925 1.289 . S
C915 O926 1.258 . S
C915 O927 1.256 . S
O916 La896 2.521 . S
O916 C898 1.261 . S
O917 La896 2.628 . S
O917 C898 1.243 . S
O918 La896 2.554 . S
O918 C905 1.240 . S
O919 La896 2.757 . S
O919 La897 2.482 . S
O919 C905 1.289 . S
O920 La896 2.470 . S
O920 C906 1.258 . S
O921 La897 2.503 . S
O921 C906 1.256 . S
O922 La897 2.521 . S
O922 C907 1.261 . S
O923 La897 2.628 . S
O923 C907 1.243 . S
O924 La897 2.554 . S
O924 C914 1.240 . S
O925 La896 2.482 . S
O925 La897 2.757 . S
O925 C914 1.289 . S
O926 La897 2.470 . S
O926 C915 1.258 . S
O927 La896 2.503 . S
O927 C915 1.256 . S
H928 C900 0.930 . S
H929 C901 0.930 . S
H930 C903 0.929 . S
H931 C904 0.929 . S
H932 C909 0.930 . S
H933 C910 0.930 . S
H934 C912 0.929 . S
H935 C913 0.929 . S
La936 C938 2.923 1_554 S
La936 O956 2.521 1_554 S
La936 O957 2.628 . S
La936 O958 2.554 1_554 S
La936 O959 2.757 1_554 S
La936 O960 2.470 1_554 S
La936 O965 2.482 . S
La936 O967 2.503 . S
La937 C947 2.928 1_455 S
La937 O959 2.482 1_554 S
La937 O961 2.503 . S
La937 O962 2.521 1_455 S
La937 O963 2.628 1_455 S
La937 O964 2.554 . S
La937 O965 2.757 . S
La937 O966 2.470 . S
C938 La936 2.923 1_556 S
C938 C939 1.514 . S
C938 O956 1.303 . S
C938 O957 1.193 1_556 S
C939 C938 1.514 . S
C939 C940 1.394 . S
C939 C944 1.373 1_556 S
C940 C939 1.394 . S
C940 C941 1.380 . S
C940 H968 0.930 . S
C941 C940 1.380 . S
C941 C942 1.376 . S
C941 H969 0.930 . S
C942 C941 1.376 . S
C942 C943 1.370 1_556 S
C943 C942 1.370 1_554 S
C943 C944 1.396 . S
C943 H970 0.929 . S
C944 C939 1.373 1_554 S
C944 C943 1.396 . S
C944 H971 0.929 . S
C945 O958 1.240 . S
C945 O959 1.289 . S
C946 O960 1.258 1_554 S
C946 O961 1.256 . S
C947 La937 2.928 1_655 S
C947 C948 1.503 . S
C947 O962 1.261 . S
C947 O963 1.243 . S
C948 C947 1.503 . S
C948 C949 1.394 . S
C948 C953 1.373 . S
C949 C948 1.394 . S
C949 C950 1.380 . S
C949 H972 0.930 . S
C950 C949 1.380 . S
C950 C951 1.376 . S
C950 H973 0.930 . S
C951 C950 1.376 . S
C951 C952 1.370 . S
C952 C951 1.370 . S
C952 C953 1.396 . S
C952 H974 0.929 . S
C953 C948 1.373 . S
C953 C952 1.396 . S
C953 H975 0.929 . S
C954 O964 1.240 . S
C954 O965 1.289 . S
C955 O966 1.258 . S
C955 O967 1.256 . S
O956 La936 2.521 1_556 S
O956 C938 1.303 . S
O957 La936 2.628 . S
O957 C938 1.193 1_554 S
O958 La936 2.554 1_556 S
O958 C945 1.240 . S
O959 La936 2.757 1_556 S
O959 La937 2.482 1_556 S
O959 C945 1.289 . S
O960 La936 2.470 1_556 S
O960 C946 1.258 1_556 S
O961 La937 2.503 . S
O961 C946 1.256 . S
O962 La937 2.521 1_655 S
O962 C947 1.261 . S
O963 La937 2.628 1_655 S
O963 C947 1.243 . S
O964 La937 2.554 . S
O964 C954 1.240 . S
O965 La936 2.482 . S
O965 La937 2.757 . S
O965 C954 1.289 . S
O966 La937 2.470 . S
O966 C955 1.258 . S
O967 La936 2.503 . S
O967 C955 1.256 . S
H968 C940 0.930 . S
H969 C941 0.930 . S
H970 C943 0.929 . S
H971 C944 0.929 . S
H972 C949 0.930 . S
H973 C950 0.930 . S
H974 C952 0.929 . S
H975 C953 0.929 . S
H976 C994 0.951 . S
H977 C996 0.951 . S
H978 C998 0.950 . S
H979 C999 0.950 . S
H980 C1001 0.950 . S
H981 C1004 0.950 . S
H982 C1005 0.950 . S
H983 C1007 0.950 . S
H984 C1008 0.950 . S
H985 C1009 0.951 . S
H986 C1011 0.951 . S
H987 C1013 0.950 . S
H988 C1014 0.950 . S
H989 C1016 0.950 . S
H990 C1019 0.944 1_556 S
H991 C1020 0.950 . S
H992 C1022 0.950 . S
H993 C1023 0.950 . S
C994 H976 0.951 . S
C994 C995 1.366 . S
C994 C996 1.388 . S
C995 C994 1.366 . S
C995 C999 1.385 . S
C996 H977 0.951 . S
C996 C994 1.388 . S
C996 C997 1.366 . S
C997 C996 1.366 . S
C997 C998 1.414 . S
C997 C1000 1.499 . S
C998 H978 0.950 . S
C998 C997 1.414 . S
C998 C999 1.374 . S
C999 H979 0.950 . S
C999 C995 1.385 . S
C999 C998 1.374 . S
C1000 C997 1.499 . S
C1000 C1001 1.373 . S
C1000 C1002 1.389 . S
C1001 H980 0.950 . S
C1001 C1000 1.373 . S
C1001 C1017 1.377 . S
C1002 C1000 1.389 . S
C1002 C1003 1.524 . S
C1002 C1016 1.377 . S
C1003 C1002 1.524 . S
C1003 C1004 1.397 1_455 S
C1003 C1008 1.363 . S
C1004 H981 0.950 . S
C1004 C1003 1.397 1_655 S
C1004 C1005 1.334 . S
C1005 H982 0.950 . S
C1005 C1004 1.334 . S
C1005 C1006 1.287 . S
C1006 C1005 1.287 . S
C1006 C1007 1.524 . S
C1006 H1025 0.913 . S
C1007 H983 0.950 . S
C1007 C1006 1.524 . S
C1007 C1008 1.415 1_655 S
C1008 H984 0.950 . S
C1008 C1003 1.363 . S
C1008 C1007 1.415 1_455 S
C1009 H985 0.951 . S
C1009 C1010 1.394 . S
C1009 C1011 1.388 . S
C1010 C1009 1.394 . S
C1010 C1014 1.331 1_554 S
C1011 H986 0.951 . S
C1011 C1009 1.388 . S
C1011 C1012 1.366 1_554 S
C1012 C1011 1.366 1_556 S
C1012 C1013 1.414 . S
C1012 C1015 1.499 . S
C1013 H987 0.950 . S
C1013 C1012 1.414 . S
C1013 C1014 1.374 . S
C1014 H988 0.950 . S
C1014 C1010 1.331 1_556 S
C1014 C1013 1.374 . S
C1015 C1012 1.499 . S
C1015 C1016 1.373 . S
C1015 C1017 1.389 . S
C1016 H989 0.950 . S
C1016 C1002 1.377 . S
C1016 C1015 1.373 . S
C1017 C1001 1.377 . S
C1017 C1015 1.389 . S
C1017 C1018 1.524 1_556 S
C1018 C1017 1.524 1_554 S
C1018 C1019 1.397 . S
C1018 C1023 1.363 . S
C1019 H990 0.944 1_554 S
C1019 C1018 1.397 . S
C1019 C1020 1.334 . S
C1020 H991 0.950 . S
C1020 C1019 1.334 . S
C1020 C1021 1.287 . S
C1021 C1020 1.287 . S
C1021 C1022 1.524 . S
C1021 H1024 0.999 . S
C1022 H992 0.950 . S
C1022 C1021 1.524 . S
C1022 C1023 1.415 . S
C1023 H993 0.950 . S
C1023 C1018 1.363 . S
C1023 C1022 1.415 . S
H1024 C1021 0.999 . S
H1025 C1006 0.913 . S
H1026 C1044 0.951 . S
H1027 C1046 0.951 . S
H1028 C1048 0.950 . S
H1029 C1049 0.950 . S
H1030 C1051 0.950 . S
H1031 C1054 0.950 . S
H1032 C1055 0.950 . S
H1033 C1057 0.950 . S
H1034 C1058 0.950 . S
H1035 C1059 0.951 . S
H1036 C1061 0.951 . S
H1037 C1063 0.950 . S
H1038 C1064 0.950 . S
H1039 C1066 0.950 . S
H1040 C1069 0.950 . S
H1041 C1070 0.950 . S
H1042 C1072 0.950 . S
H1043 C1073 0.950 . S
C1044 H1026 0.951 . S
C1044 C1045 1.366 . S
C1044 C1046 1.388 . S
C1045 C1044 1.366 . S
C1045 C1049 1.385 . S
C1046 H1027 0.951 . S
C1046 C1044 1.388 . S
C1046 C1047 1.366 . S
C1047 C1046 1.366 . S
C1047 C1048 1.414 . S
C1047 C1050 1.499 . S
C1048 H1028 0.950 . S
C1048 C1047 1.414 . S
C1048 C1049 1.374 . S
C1049 H1029 0.950 . S
C1049 C1045 1.385 . S
C1049 C1048 1.374 . S
C1050 C1047 1.499 . S
C1050 C1051 1.373 . S
C1050 C1052 1.389 . S
C1051 H1030 0.950 . S
C1051 C1050 1.373 . S
C1051 C1067 1.377 . S
C1052 C1050 1.389 . S
C1052 C1053 1.524 . S
C1052 C1066 1.377 . S
C1053 C1052 1.524 . S
C1053 C1054 1.397 . S
C1053 C1058 1.363 . S
C1054 H1031 0.950 . S
C1054 C1053 1.397 . S
C1054 C1055 1.334 . S
C1055 H1032 0.950 . S
C1055 C1054 1.334 . S
C1055 C1056 1.287 . S
C1056 C1055 1.287 . S
C1056 C1057 1.524 . S
C1056 H1075 0.913 . S
C1057 H1033 0.950 . S
C1057 C1056 1.524 . S
C1057 C1058 1.415 . S
C1058 H1034 0.950 . S
C1058 C1053 1.363 . S
C1058 C1057 1.415 . S
C1059 H1035 0.951 . S
C1059 C1060 1.366 . S
C1059 C1061 1.388 . S
C1060 C1059 1.366 . S
C1060 C1064 1.385 . S
C1061 H1036 0.951 . S
C1061 C1059 1.388 . S
C1061 C1062 1.366 . S
C1062 C1061 1.366 . S
C1062 C1063 1.414 . S
C1062 C1065 1.499 . S
C1063 H1037 0.950 . S
C1063 C1062 1.414 . S
C1063 C1064 1.374 . S
C1064 H1038 0.950 . S
C1064 C1060 1.385 . S
C1064 C1063 1.374 . S
C1065 C1062 1.499 . S
C1065 C1066 1.373 . S
C1065 C1067 1.389 . S
C1066 H1039 0.950 . S
C1066 C1052 1.377 . S
C1066 C1065 1.373 . S
C1067 C1051 1.377 . S
C1067 C1065 1.389 . S
C1067 C1068 1.524 . S
C1068 C1067 1.524 . S
C1068 C1069 1.397 . S
C1068 C1073 1.363 . S
C1069 H1040 0.950 . S
C1069 C1068 1.397 . S
C1069 C1070 1.334 . S
C1070 H1041 0.950 . S
C1070 C1069 1.334 . S
C1070 C1071 1.287 . S
C1071 C1070 1.287 . S
C1071 C1072 1.524 . S
C1071 H1074 0.999 . S
C1072 H1042 0.950 . S
C1072 C1071 1.524 . S
C1072 C1073 1.415 . S
C1073 H1043 0.950 . S
C1073 C1068 1.363 . S
C1073 C1072 1.415 . S
H1074 C1071 0.999 . S
H1075 C1056 0.913 . S
H1076 C1094 0.951 . S
H1077 C1096 0.951 . S
H1078 C1098 0.950 . S
H1079 C1099 0.950 . S
H1080 C1101 0.950 . S
H1081 C1104 0.950 . S
H1082 C1105 0.950 . S
H1083 C1107 0.950 . S
H1084 C1108 0.950 . S
H1085 C1109 0.951 . S
H1086 C1111 0.951 . S
H1087 C1113 0.950 . S
H1088 C1114 0.950 . S
H1089 C1116 0.950 . S
H1090 C1119 0.950 . S
H1091 C1120 0.950 . S
H1092 C1122 0.950 . S
H1093 C1123 0.950 . S
C1094 H1076 0.951 . S
C1094 C1095 1.366 . S
C1094 C1096 1.388 . S
C1095 C1094 1.366 . S
C1095 C1099 1.385 . S
C1096 H1077 0.951 . S
C1096 C1094 1.388 . S
C1096 C1097 1.366 . S
C1097 C1096 1.366 . S
C1097 C1098 1.414 . S
C1097 C1100 1.499 . S
C1098 H1078 0.950 . S
C1098 C1097 1.414 . S
C1098 C1099 1.374 . S
C1099 H1079 0.950 . S
C1099 C1095 1.385 . S
C1099 C1098 1.374 . S
C1100 C1097 1.499 . S
C1100 C1101 1.373 . S
C1100 C1102 1.389 . S
C1101 H1080 0.950 . S
C1101 C1100 1.373 . S
C1101 C1117 1.377 . S
C1102 C1100 1.389 . S
C1102 C1103 1.524 . S
C1102 C1116 1.377 . S
C1103 C1102 1.524 . S
C1103 C1104 1.397 . S
C1103 C1108 1.363 . S
C1104 H1081 0.950 . S
C1104 C1103 1.397 . S
C1104 C1105 1.334 . S
C1105 H1082 0.950 . S
C1105 C1104 1.334 . S
C1105 C1106 1.287 . S
C1106 C1105 1.287 . S
C1106 C1107 1.524 . S
C1106 H1125 0.913 . S
C1107 H1083 0.950 . S
C1107 C1106 1.524 . S
C1107 C1108 1.415 . S
C1108 H1084 0.950 . S
C1108 C1103 1.363 . S
C1108 C1107 1.415 . S
C1109 H1085 0.951 . S
C1109 C1110 1.366 . S
C1109 C1111 1.388 . S
C1110 C1109 1.366 . S
C1110 C1114 1.385 . S
C1111 H1086 0.951 . S
C1111 C1109 1.388 . S
C1111 C1112 1.366 . S
C1112 C1111 1.366 . S
C1112 C1113 1.414 . S
C1112 C1115 1.499 . S
C1113 H1087 0.950 . S
C1113 C1112 1.414 . S
C1113 C1114 1.374 . S
C1114 H1088 0.950 . S
C1114 C1110 1.385 . S
C1114 C1113 1.374 . S
C1115 C1112 1.499 . S
C1115 C1116 1.373 . S
C1115 C1117 1.389 . S
C1116 H1089 0.950 . S
C1116 C1102 1.377 . S
C1116 C1115 1.373 . S
C1117 C1101 1.377 . S
C1117 C1115 1.389 . S
C1117 C1118 1.524 . S
C1118 C1117 1.524 . S
C1118 C1119 1.397 . S
C1118 C1123 1.363 . S
C1119 H1090 0.950 . S
C1119 C1118 1.397 . S
C1119 C1120 1.334 . S
C1120 H1091 0.950 . S
C1120 C1119 1.334 . S
C1120 C1121 1.287 . S
C1121 C1120 1.287 . S
C1121 C1122 1.524 . S
C1121 H1124 0.999 . S
C1122 H1092 0.950 . S
C1122 C1121 1.524 . S
C1122 C1123 1.415 . S
C1123 H1093 0.950 . S
C1123 C1118 1.363 . S
C1123 C1122 1.415 . S
H1124 C1121 0.999 . S
H1125 C1106 0.913 . S
H1126 C1144 0.951 . S
H1127 C1146 0.951 . S
H1128 C1148 0.950 . S
H1129 C1149 0.950 . S
H1130 C1151 0.950 . S
H1131 C1154 0.950 . S
H1132 C1155 0.950 . S
H1133 C1157 0.950 . S
H1134 C1158 0.950 . S
H1135 C1159 0.951 . S
H1136 C1161 0.951 . S
H1137 C1163 0.950 . S
H1138 C1164 0.950 . S
H1139 C1166 0.950 . S
H1140 C1169 0.950 . S
H1141 C1170 0.950 . S
H1142 C1172 0.950 . S
H1143 C1173 0.950 . S
C1144 H1126 0.951 . S
C1144 C1145 1.366 . S
C1144 C1146 1.388 . S
C1145 C1144 1.366 . S
C1145 C1149 1.385 . S
C1146 H1127 0.951 . S
C1146 C1144 1.388 . S
C1146 C1147 1.366 . S
C1147 C1146 1.366 . S
C1147 C1148 1.414 . S
C1147 C1150 1.499 . S
C1148 H1128 0.950 . S
C1148 C1147 1.414 . S
C1148 C1149 1.374 . S
C1149 H1129 0.950 . S
C1149 C1145 1.385 . S
C1149 C1148 1.374 . S
C1150 C1147 1.499 . S
C1150 C1151 1.373 . S
C1150 C1152 1.389 . S
C1151 H1130 0.950 . S
C1151 C1150 1.373 . S
C1151 C1167 1.377 . S
C1152 C1150 1.389 . S
C1152 C1153 1.524 . S
C1152 C1166 1.377 . S
C1153 C1152 1.524 . S
C1153 C1154 1.397 . S
C1153 C1158 1.363 . S
C1154 H1131 0.950 . S
C1154 C1153 1.397 . S
C1154 C1155 1.334 . S
C1155 H1132 0.950 . S
C1155 C1154 1.334 . S
C1155 C1156 1.287 . S
C1156 C1155 1.287 . S
C1156 C1157 1.524 . S
C1156 H1175 0.913 . S
C1157 H1133 0.950 . S
C1157 C1156 1.524 . S
C1157 C1158 1.415 . S
C1158 H1134 0.950 . S
C1158 C1153 1.363 . S
C1158 C1157 1.415 . S
C1159 H1135 0.951 . S
C1159 C1160 1.366 . S
C1159 C1161 1.388 . S
C1160 C1159 1.366 . S
C1160 C1164 1.385 . S
C1161 H1136 0.951 . S
C1161 C1159 1.388 . S
C1161 C1162 1.366 . S
C1162 C1161 1.366 . S
C1162 C1163 1.414 . S
C1162 C1165 1.499 . S
C1163 H1137 0.950 . S
C1163 C1162 1.414 . S
C1163 C1164 1.374 . S
C1164 H1138 0.950 . S
C1164 C1160 1.385 . S
C1164 C1163 1.374 . S
C1165 C1162 1.499 . S
C1165 C1166 1.373 . S
C1165 C1167 1.389 . S
C1166 H1139 0.950 . S
C1166 C1152 1.377 . S
C1166 C1165 1.373 . S
C1167 C1151 1.377 . S
C1167 C1165 1.389 . S
C1167 C1168 1.524 . S
C1168 C1167 1.524 . S
C1168 C1169 1.397 . S
C1168 C1173 1.363 . S
C1169 H1140 0.950 . S
C1169 C1168 1.397 . S
C1169 C1170 1.334 . S
C1170 H1141 0.950 . S
C1170 C1169 1.334 . S
C1170 C1171 1.287 . S
C1171 C1170 1.287 . S
C1171 C1172 1.524 . S
C1171 H1174 0.999 . S
C1172 H1142 0.950 . S
C1172 C1171 1.524 . S
C1172 C1173 1.415 . S
C1173 H1143 0.950 . S
C1173 C1168 1.363 . S
C1173 C1172 1.415 . S
H1174 C1171 0.999 . S
H1175 C1156 0.913 . S
H1176 C1194 0.951 . S
H1177 C1196 0.950 1_655 S
H1178 C1198 0.950 . S
H1179 C1199 0.950 . S
H1180 C1201 0.950 . S
H1181 C1204 0.950 . S
H1182 C1205 0.950 . S
H1183 C1207 0.950 . S
H1184 C1208 0.950 . S
H1185 C1209 0.951 . S
H1186 C1211 0.951 . S
H1187 C1213 0.950 . S
H1188 C1214 0.950 . S
H1189 C1216 0.950 . S
H1190 C1219 0.950 . S
H1191 C1220 0.950 . S
H1192 C1222 0.950 . S
H1193 C1223 0.950 . S
C1194 H1176 0.951 . S
C1194 C1195 1.366 1_655 S
C1194 C1196 1.388 1_655 S
C1195 C1194 1.366 1_455 S
C1195 C1199 1.385 . S
C1196 H1177 0.950 1_455 S
C1196 C1194 1.388 1_455 S
C1196 C1197 1.366 . S
C1197 C1196 1.366 . S
C1197 C1198 1.414 . S
C1197 C1200 1.499 . S
C1198 H1178 0.950 . S
C1198 C1197 1.414 . S
C1198 C1199 1.374 . S
C1199 H1179 0.950 . S
C1199 C1195 1.385 . S
C1199 C1198 1.374 . S
C1200 C1197 1.499 . S
C1200 C1201 1.373 . S
C1200 C1202 1.389 . S
C1201 H1180 0.950 . S
C1201 C1200 1.373 . S
C1201 C1217 1.377 . S
C1202 C1200 1.389 . S
C1202 C1203 1.524 . S
C1202 C1216 1.377 . S
C1203 C1202 1.524 . S
C1203 C1204 1.397 . S
C1203 C1208 1.363 . S
C1204 H1181 0.950 . S
C1204 C1203 1.397 . S
C1204 C1205 1.334 . S
C1205 H1182 0.950 . S
C1205 C1204 1.334 . S
C1205 C1206 1.287 . S
C1206 C1205 1.287 . S
C1206 C1207 1.524 . S
C1206 H1225 0.913 . S
C1207 H1183 0.950 . S
C1207 C1206 1.524 . S
C1207 C1208 1.415 . S
C1208 H1184 0.950 . S
C1208 C1203 1.363 . S
C1208 C1207 1.415 . S
C1209 H1185 0.951 . S
C1209 C1210 1.366 . S
C1209 C1211 1.388 . S
C1210 C1209 1.366 . S
C1210 C1214 1.385 . S
C1211 H1186 0.951 . S
C1211 C1209 1.388 . S
C1211 C1212 1.366 . S
C1212 C1211 1.366 . S
C1212 C1213 1.414 . S
C1212 C1215 1.499 . S
C1213 H1187 0.950 . S
C1213 C1212 1.414 . S
C1213 C1214 1.374 . S
C1214 H1188 0.950 . S
C1214 C1210 1.385 . S
C1214 C1213 1.374 . S
C1215 C1212 1.499 . S
C1215 C1216 1.373 . S
C1215 C1217 1.389 . S
C1216 H1189 0.950 . S
C1216 C1202 1.377 . S
C1216 C1215 1.373 . S
C1217 C1201 1.377 . S
C1217 C1215 1.389 . S
C1217 C1218 1.524 . S
C1218 C1217 1.524 . S
C1218 C1219 1.397 . S
C1218 C1223 1.363 . S
C1219 H1190 0.950 . S
C1219 C1218 1.397 . S
C1219 C1220 1.334 . S
C1220 H1191 0.950 . S
C1220 C1219 1.334 . S
C1220 C1221 1.287 . S
C1221 C1220 1.287 . S
C1221 C1222 1.524 . S
C1221 H1224 0.999 . S
C1222 H1192 0.950 . S
C1222 C1221 1.524 . S
C1222 C1223 1.415 . S
C1223 H1193 0.950 . S
C1223 C1218 1.363 . S
C1223 C1222 1.415 . S
H1224 C1221 0.999 . S
H1225 C1206 0.913 . S
H1226 C1244 0.951 . S
H1227 C1246 0.951 . S
H1228 C1248 0.950 . S
H1229 C1249 0.950 . S
H1230 C1251 0.950 . S
H1231 C1254 0.950 . S
H1232 C1255 0.950 . S
H1233 C1257 0.950 . S
H1234 C1258 0.950 . S
H1235 C1259 0.951 . S
H1236 C1261 0.951 . S
H1237 C1263 0.950 . S
H1238 C1264 0.950 . S
H1239 C1266 0.950 . S
H1240 C1269 0.950 . S
H1241 C1270 0.950 . S
H1242 C1272 0.950 . S
H1243 C1273 0.950 . S
C1244 H1226 0.951 . S
C1244 C1245 1.366 . S
C1244 C1246 1.388 . S
C1245 C1244 1.366 . S
C1245 C1249 1.385 . S
C1246 H1227 0.951 . S
C1246 C1244 1.388 . S
C1246 C1247 1.366 . S
C1247 C1246 1.366 . S
C1247 C1248 1.414 . S
C1247 C1250 1.499 . S
C1248 H1228 0.950 . S
C1248 C1247 1.414 . S
C1248 C1249 1.374 . S
C1249 H1229 0.950 . S
C1249 C1245 1.385 . S
C1249 C1248 1.374 . S
C1250 C1247 1.499 . S
C1250 C1251 1.373 . S
C1250 C1252 1.389 . S
C1251 H1230 0.950 . S
C1251 C1250 1.373 . S
C1251 C1267 1.377 . S
C1252 C1250 1.389 . S
C1252 C1253 1.524 . S
C1252 C1266 1.377 . S
C1253 C1252 1.524 . S
C1253 C1254 1.397 . S
C1253 C1258 1.363 . S
C1254 H1231 0.950 . S
C1254 C1253 1.397 . S
C1254 C1255 1.334 . S
C1255 H1232 0.950 . S
C1255 C1254 1.334 . S
C1255 C1256 1.287 . S
C1256 C1255 1.287 . S
C1256 C1257 1.524 . S
C1256 H1275 0.913 . S
C1257 H1233 0.950 . S
C1257 C1256 1.524 . S
C1257 C1258 1.415 . S
C1258 H1234 0.950 . S
C1258 C1253 1.363 . S
C1258 C1257 1.415 . S
C1259 H1235 0.951 . S
C1259 C1260 1.366 . S
C1259 C1261 1.388 . S
C1260 C1259 1.366 . S
C1260 C1264 1.385 . S
C1261 H1236 0.951 . S
C1261 C1259 1.388 . S
C1261 C1262 1.366 . S
C1262 C1261 1.366 . S
C1262 C1263 1.414 . S
C1262 C1265 1.499 . S
C1263 H1237 0.950 . S
C1263 C1262 1.414 . S
C1263 C1264 1.374 . S
C1264 H1238 0.950 . S
C1264 C1260 1.385 . S
C1264 C1263 1.374 . S
C1265 C1262 1.499 . S
C1265 C1266 1.373 . S
C1265 C1267 1.389 . S
C1266 H1239 0.950 . S
C1266 C1252 1.377 . S
C1266 C1265 1.373 . S
C1267 C1251 1.377 . S
C1267 C1265 1.389 . S
C1267 C1268 1.524 . S
C1268 C1267 1.524 . S
C1268 C1269 1.397 . S
C1268 C1273 1.363 . S
C1269 H1240 0.950 . S
C1269 C1268 1.397 . S
C1269 C1270 1.334 . S
C1270 H1241 0.950 . S
C1270 C1269 1.334 . S
C1270 C1271 1.287 . S
C1271 C1270 1.287 . S
C1271 C1272 1.524 . S
C1271 H1274 0.999 . S
C1272 H1242 0.950 . S
C1272 C1271 1.524 . S
C1272 C1273 1.415 . S
C1273 H1243 0.950 . S
C1273 C1268 1.363 . S
C1273 C1272 1.415 . S
H1274 C1271 0.999 . S
H1275 C1256 0.913 . S
H1276 C1294 0.951 . S
H1277 C1296 0.951 . S
H1278 C1298 0.950 . S
H1279 C1299 0.950 . S
H1280 C1301 0.950 . S
H1281 C1304 0.950 . S
H1282 C1305 0.950 . S
H1283 C1307 0.950 . S
H1284 C1308 0.950 . S
H1285 C1309 0.951 . S
H1286 C1311 0.951 . S
H1287 C1313 0.950 . S
H1288 C1314 0.950 . S
H1289 C1316 0.950 . S
H1290 C1319 0.950 . S
H1291 C1320 0.950 1_556 S
H1292 C1322 0.950 1_556 S
H1293 C1323 0.950 . S
C1294 H1276 0.951 . S
C1294 C1295 1.366 . S
C1294 C1296 1.388 . S
C1295 C1294 1.366 . S
C1295 C1299 1.385 . S
C1296 H1277 0.951 . S
C1296 C1294 1.388 . S
C1296 C1297 1.366 . S
C1297 C1296 1.366 . S
C1297 C1298 1.414 . S
C1297 C1300 1.499 . S
C1298 H1278 0.950 . S
C1298 C1297 1.414 . S
C1298 C1299 1.374 . S
C1299 H1279 0.950 . S
C1299 C1295 1.385 . S
C1299 C1298 1.374 . S
C1300 C1297 1.499 . S
C1300 C1301 1.373 . S
C1300 C1302 1.389 . S
C1301 H1280 0.950 . S
C1301 C1300 1.373 . S
C1301 C1317 1.377 . S
C1302 C1300 1.389 . S
C1302 C1303 1.524 . S
C1302 C1316 1.377 . S
C1303 C1302 1.524 . S
C1303 C1304 1.397 . S
C1303 C1308 1.363 . S
C1304 H1281 0.950 . S
C1304 C1303 1.397 . S
C1304 C1305 1.334 . S
C1305 H1282 0.950 . S
C1305 C1304 1.334 . S
C1305 C1306 1.287 . S
C1306 C1305 1.287 . S
C1306 C1307 1.524 . S
C1306 H1325 0.913 . S
C1307 H1283 0.950 . S
C1307 C1306 1.524 . S
C1307 C1308 1.415 . S
C1308 H1284 0.950 . S
C1308 C1303 1.363 . S
C1308 C1307 1.415 . S
C1309 H1285 0.951 . S
C1309 C1310 1.366 . S
C1309 C1311 1.388 . S
C1310 C1309 1.366 . S
C1310 C1314 1.385 . S
C1311 H1286 0.951 . S
C1311 C1309 1.388 . S
C1311 C1312 1.366 . S
C1312 C1311 1.366 . S
C1312 C1313 1.414 . S
C1312 C1315 1.499 . S
C1313 H1287 0.950 . S
C1313 C1312 1.414 . S
C1313 C1314 1.374 . S
C1314 H1288 0.950 . S
C1314 C1310 1.385 . S
C1314 C1313 1.374 . S
C1315 C1312 1.499 . S
C1315 C1316 1.373 . S
C1315 C1317 1.389 . S
C1316 H1289 0.950 . S
C1316 C1302 1.377 . S
C1316 C1315 1.373 . S
C1317 C1301 1.377 . S
C1317 C1315 1.389 . S
C1317 C1318 1.524 . S
C1318 C1317 1.524 . S
C1318 C1319 1.397 . S
C1318 C1323 1.363 . S
C1319 H1290 0.950 . S
C1319 C1318 1.397 . S
C1319 C1320 1.334 . S
C1320 H1291 0.950 1_554 S
C1320 C1319 1.334 . S
C1320 C1321 1.287 1_554 S
C1321 C1320 1.287 1_556 S
C1321 C1322 1.524 1_556 S
C1321 H1324 0.999 . S
C1322 H1292 0.950 1_554 S
C1322 C1321 1.524 1_554 S
C1322 C1323 1.415 . S
C1323 H1293 0.950 . S
C1323 C1318 1.363 . S
C1323 C1322 1.415 . S
H1324 C1321 0.999 . S
H1325 C1306 0.913 . S
H1326 C1344 0.951 . S
H1327 C1346 0.951 . S
H1328 C1348 0.950 . S
H1329 C1349 0.950 . S
H1330 C1351 0.950 . S
H1331 C1354 0.950 . S
H1332 C1355 0.950 . S
H1333 C1357 0.950 . S
H1334 C1358 0.950 . S
H1335 C1359 0.951 . S
H1336 C1361 0.951 . S
H1337 C1363 0.950 . S
H1338 C1364 0.950 . S
H1339 C1366 0.950 . S
H1340 C1369 0.950 . S
H1341 C1370 0.950 . S
H1342 C1372 0.950 . S
H1343 C1373 0.950 . S
C1344 H1326 0.951 . S
C1344 C1345 1.366 . S
C1344 C1346 1.388 . S
C1345 C1344 1.366 . S
C1345 C1349 1.385 . S
C1346 H1327 0.951 . S
C1346 C1344 1.388 . S
C1346 C1347 1.366 . S
C1347 C1346 1.366 . S
C1347 C1348 1.414 . S
C1347 C1350 1.499 . S
C1348 H1328 0.950 . S
C1348 C1347 1.414 . S
C1348 C1349 1.374 . S
C1349 H1329 0.950 . S
C1349 C1345 1.385 . S
C1349 C1348 1.374 . S
C1350 C1347 1.499 . S
C1350 C1351 1.373 . S
C1350 C1352 1.389 . S
C1351 H1330 0.950 . S
C1351 C1350 1.373 . S
C1351 C1367 1.377 . S
C1352 C1350 1.389 . S
C1352 C1353 1.524 . S
C1352 C1366 1.377 . S
C1353 C1352 1.524 . S
C1353 C1354 1.397 . S
C1353 C1358 1.363 . S
C1354 H1331 0.950 . S
C1354 C1353 1.397 . S
C1354 C1355 1.334 . S
C1355 H1332 0.950 . S
C1355 C1354 1.334 . S
C1355 C1356 1.287 . S
C1356 C1355 1.287 . S
C1356 C1357 1.524 . S
C1356 H1375 0.913 . S
C1357 H1333 0.950 . S
C1357 C1356 1.524 . S
C1357 C1358 1.415 . S
C1358 H1334 0.950 . S
C1358 C1353 1.363 . S
C1358 C1357 1.415 . S
C1359 H1335 0.951 . S
C1359 C1360 1.366 . S
C1359 C1361 1.388 . S
C1360 C1359 1.366 . S
C1360 C1364 1.385 . S
C1361 H1336 0.951 . S
C1361 C1359 1.388 . S
C1361 C1362 1.366 . S
C1362 C1361 1.366 . S
C1362 C1363 1.414 . S
C1362 C1365 1.499 . S
C1363 H1337 0.950 . S
C1363 C1362 1.414 . S
C1363 C1364 1.374 . S
C1364 H1338 0.950 . S
C1364 C1360 1.385 . S
C1364 C1363 1.374 . S
C1365 C1362 1.499 . S
C1365 C1366 1.373 . S
C1365 C1367 1.389 . S
C1366 H1339 0.950 . S
C1366 C1352 1.377 . S
C1366 C1365 1.373 . S
C1367 C1351 1.377 . S
C1367 C1365 1.389 . S
C1367 C1368 1.524 . S
C1368 C1367 1.524 . S
C1368 C1369 1.397 . S
C1368 C1373 1.363 . S
C1369 H1340 0.950 . S
C1369 C1368 1.397 . S
C1369 C1370 1.334 . S
C1370 H1341 0.950 . S
C1370 C1369 1.334 . S
C1370 C1371 1.287 . S
C1371 C1370 1.287 . S
C1371 C1372 1.524 . S
C1371 H1374 0.999 . S
C1372 H1342 0.950 . S
C1372 C1371 1.524 . S
C1372 C1373 1.415 . S
C1373 H1343 0.950 . S
C1373 C1368 1.363 . S
C1373 C1372 1.415 . S
H1374 C1371 0.999 . S
H1375 C1356 0.913 . S
H1376 C1394 0.951 . S
H1377 C1396 0.951 . S
H1378 C1398 0.950 . S
H1379 C1399 0.950 . S
H1380 C1401 0.950 . S
H1381 C1404 0.950 . S
H1382 C1405 0.950 . S
H1383 C1407 0.950 . S
H1384 C1408 0.950 . S
H1385 C1409 0.951 . S
H1386 C1411 0.951 . S
H1387 C1413 0.950 . S
H1388 C1414 0.950 . S
H1389 C1416 0.950 . S
H1390 C1419 0.950 . S
H1391 C1420 0.950 . S
H1392 C1422 0.950 . S
H1393 C1423 0.950 . S
C1394 H1376 0.951 . S
C1394 C1395 1.366 . S
C1394 C1396 1.388 . S
C1395 C1394 1.366 . S
C1395 C1399 1.385 . S
C1396 H1377 0.951 . S
C1396 C1394 1.388 . S
C1396 C1397 1.366 . S
C1397 C1396 1.366 . S
C1397 C1398 1.414 . S
C1397 C1400 1.499 . S
C1398 H1378 0.950 . S
C1398 C1397 1.414 . S
C1398 C1399 1.374 . S
C1399 H1379 0.950 . S
C1399 C1395 1.385 . S
C1399 C1398 1.374 . S
C1400 C1397 1.499 . S
C1400 C1401 1.373 1_655 S
C1400 C1402 1.389 . S
C1401 H1380 0.950 . S
C1401 C1400 1.373 1_455 S
C1401 C1417 1.377 . S
C1402 C1400 1.389 . S
C1402 C1403 1.524 . S
C1402 C1416 1.377 . S
C1403 C1402 1.524 . S
C1403 C1404 1.397 . S
C1403 C1408 1.363 . S
C1404 H1381 0.950 . S
C1404 C1403 1.397 . S
C1404 C1405 1.334 . S
C1405 H1382 0.950 . S
C1405 C1404 1.334 . S
C1405 C1406 1.287 . S
C1406 C1405 1.287 . S
C1406 C1407 1.524 . S
C1406 H1425 0.913 . S
C1407 H1383 0.950 . S
C1407 C1406 1.524 . S
C1407 C1408 1.415 . S
C1408 H1384 0.950 . S
C1408 C1403 1.363 . S
C1408 C1407 1.415 . S
C1409 H1385 0.951 . S
C1409 C1410 1.366 . S
C1409 C1411 1.388 . S
C1410 C1409 1.366 . S
C1410 C1414 1.385 . S
C1411 H1386 0.951 . S
C1411 C1409 1.388 . S
C1411 C1412 1.366 . S
C1412 C1411 1.366 . S
C1412 C1413 1.414 . S
C1412 C1415 1.499 . S
C1413 H1387 0.950 . S
C1413 C1412 1.414 . S
C1413 C1414 1.374 . S
C1414 H1388 0.950 . S
C1414 C1410 1.385 . S
C1414 C1413 1.374 . S
C1415 C1412 1.499 . S
C1415 C1416 1.373 1_455 S
C1415 C1417 1.389 . S
C1416 H1389 0.950 . S
C1416 C1402 1.377 . S
C1416 C1415 1.373 1_655 S
C1417 C1401 1.377 . S
C1417 C1415 1.389 . S
C1417 C1418 1.524 . S
C1418 C1417 1.524 . S
C1418 C1419 1.397 . S
C1418 C1423 1.363 . S
C1419 H1390 0.950 . S
C1419 C1418 1.397 . S
C1419 C1420 1.334 . S
C1420 H1391 0.950 . S
C1420 C1419 1.334 . S
C1420 C1421 1.287 . S
C1421 C1420 1.287 . S
C1421 C1422 1.524 . S
C1421 H1424 0.999 . S
C1422 H1392 0.950 . S
C1422 C1421 1.524 . S
C1422 C1423 1.415 . S
C1423 H1393 0.950 . S
C1423 C1418 1.363 . S
C1423 C1422 1.415 . S
H1424 C1421 0.999 . S
H1425 C1406 0.913 . S
H1426 C1444 0.951 . S
H1427 C1446 0.951 . S
H1428 C1448 0.950 . S
H1429 C1449 0.950 . S
H1430 C1451 0.950 . S
H1431 C1454 0.950 . S
H1432 C1455 0.950 . S
H1433 C1457 0.950 . S
H1434 C1458 0.950 . S
H1435 C1459 0.951 . S
H1436 C1461 0.951 . S
H1437 C1463 0.950 . S
H1438 C1464 0.950 . S
H1439 C1466 0.950 . S
H1440 C1469 0.950 . S
H1441 C1470 0.950 . S
H1442 C1472 0.950 . S
H1443 C1473 0.950 . S
C1444 H1426 0.951 . S
C1444 C1445 1.366 . S
C1444 C1446 1.388 . S
C1445 C1444 1.366 . S
C1445 C1449 1.385 . S
C1446 H1427 0.951 . S
C1446 C1444 1.388 . S
C1446 C1447 1.366 . S
C1447 C1446 1.366 . S
C1447 C1448 1.414 . S
C1447 C1450 1.499 . S
C1448 H1428 0.950 . S
C1448 C1447 1.414 . S
C1448 C1449 1.374 . S
C1449 H1429 0.950 . S
C1449 C1445 1.385 . S
C1449 C1448 1.374 . S
C1450 C1447 1.499 . S
C1450 C1451 1.373 . S
C1450 C1452 1.389 . S
C1451 H1430 0.950 . S
C1451 C1450 1.373 . S
C1451 C1467 1.377 . S
C1452 C1450 1.389 . S
C1452 C1453 1.524 . S
C1452 C1466 1.377 . S
C1453 C1452 1.524 . S
C1453 C1454 1.397 . S
C1453 C1458 1.363 . S
C1454 H1431 0.950 . S
C1454 C1453 1.397 . S
C1454 C1455 1.334 . S
C1455 H1432 0.950 . S
C1455 C1454 1.334 . S
C1455 C1456 1.287 . S
C1456 C1455 1.287 . S
C1456 C1457 1.524 . S
C1456 H1475 0.913 . S
C1457 H1433 0.950 . S
C1457 C1456 1.524 . S
C1457 C1458 1.415 . S
C1458 H1434 0.950 . S
C1458 C1453 1.363 . S
C1458 C1457 1.415 . S
C1459 H1435 0.951 . S
C1459 C1460 1.366 . S
C1459 C1461 1.388 . S
C1460 C1459 1.366 . S
C1460 C1464 1.385 . S
C1461 H1436 0.951 . S
C1461 C1459 1.388 . S
C1461 C1462 1.366 . S
C1462 C1461 1.366 . S
C1462 C1463 1.414 . S
C1462 C1465 1.499 . S
C1463 H1437 0.950 . S
C1463 C1462 1.414 . S
C1463 C1464 1.374 . S
C1464 H1438 0.950 . S
C1464 C1460 1.385 . S
C1464 C1463 1.374 . S
C1465 C1462 1.499 . S
C1465 C1466 1.373 . S
C1465 C1467 1.389 . S
C1466 H1439 0.950 . S
C1466 C1452 1.377 . S
C1466 C1465 1.373 . S
C1467 C1451 1.377 . S
C1467 C1465 1.389 . S
C1467 C1468 1.524 . S
C1468 C1467 1.524 . S
C1468 C1469 1.397 . S
C1468 C1473 1.363 . S
C1469 H1440 0.950 . S
C1469 C1468 1.397 . S
C1469 C1470 1.334 . S
C1470 H1441 0.950 . S
C1470 C1469 1.334 . S
C1470 C1471 1.287 . S
C1471 C1470 1.287 . S
C1471 C1472 1.524 . S
C1471 H1474 0.999 . S
C1472 H1442 0.950 . S
C1472 C1471 1.524 . S
C1472 C1473 1.415 . S
C1473 H1443 0.950 . S
C1473 C1468 1.363 . S
C1473 C1472 1.415 . S
H1474 C1471 0.999 . S
H1475 C1456 0.913 . S
H1476 C1494 0.951 . S
H1477 C1496 0.951 . S
H1478 C1498 0.950 . S
H1479 C1499 0.950 . S
H1480 C1501 0.950 . S
H1481 C1504 0.950 . S
H1482 C1505 0.950 . S
H1483 C1507 0.950 . S
H1484 C1508 0.950 . S
H1485 C1509 0.951 . S
H1486 C1511 0.951 . S
H1487 C1513 0.950 . S
H1488 C1514 0.950 . S
H1489 C1516 0.950 . S
H1490 C1519 0.950 1_545 S
H1491 C1520 0.950 . S
H1492 C1522 0.950 . S
H1493 C1523 0.950 . S
C1494 H1476 0.951 . S
C1494 C1495 1.366 . S
C1494 C1496 1.388 . S
C1495 C1494 1.366 . S
C1495 C1499 1.385 . S
C1496 H1477 0.951 . S
C1496 C1494 1.388 . S
C1496 C1497 1.366 . S
C1497 C1496 1.366 . S
C1497 C1498 1.414 . S
C1497 C1500 1.499 . S
C1498 H1478 0.950 . S
C1498 C1497 1.414 . S
C1498 C1499 1.374 . S
C1499 H1479 0.950 . S
C1499 C1495 1.385 . S
C1499 C1498 1.374 . S
C1500 C1497 1.499 . S
C1500 C1501 1.373 . S
C1500 C1502 1.389 . S
C1501 H1480 0.950 . S
C1501 C1500 1.373 . S
C1501 C1517 1.377 . S
C1502 C1500 1.389 . S
C1502 C1503 1.524 . S
C1502 C1516 1.377 . S
C1503 C1502 1.524 . S
C1503 C1504 1.397 . S
C1503 C1508 1.363 . S
C1504 H1481 0.950 . S
C1504 C1503 1.397 . S
C1504 C1505 1.334 . S
C1505 H1482 0.950 . S
C1505 C1504 1.334 . S
C1505 C1506 1.287 . S
C1506 C1505 1.287 . S
C1506 C1507 1.524 . S
C1506 H1525 0.913 . S
C1507 H1483 0.950 . S
C1507 C1506 1.524 . S
C1507 C1508 1.415 . S
C1508 H1484 0.950 . S
C1508 C1503 1.363 . S
C1508 C1507 1.415 . S
C1509 H1485 0.951 . S
C1509 C1510 1.366 . S
C1509 C1511 1.388 . S
C1510 C1509 1.366 . S
C1510 C1514 1.385 . S
C1511 H1486 0.951 . S
C1511 C1509 1.388 . S
C1511 C1512 1.366 . S
C1512 C1511 1.366 . S
C1512 C1513 1.414 . S
C1512 C1515 1.499 . S
C1513 H1487 0.950 . S
C1513 C1512 1.414 . S
C1513 C1514 1.374 . S
C1514 H1488 0.950 . S
C1514 C1510 1.385 . S
C1514 C1513 1.374 . S
C1515 C1512 1.499 . S
C1515 C1516 1.373 . S
C1515 C1517 1.389 . S
C1516 H1489 0.950 . S
C1516 C1502 1.377 . S
C1516 C1515 1.373 . S
C1517 C1501 1.377 . S
C1517 C1515 1.389 . S
C1517 C1518 1.524 1_545 S
C1518 C1517 1.524 1_565 S
C1518 C1519 1.397 . S
C1518 C1523 1.363 . S
C1519 H1490 0.950 1_565 S
C1519 C1518 1.397 . S
C1519 C1520 1.334 . S
C1520 H1491 0.950 . S
C1520 C1519 1.334 . S
C1520 C1521 1.287 . S
C1521 C1520 1.287 . S
C1521 C1522 1.524 . S
C1521 H1524 0.999 . S
C1522 H1492 0.950 . S
C1522 C1521 1.524 . S
C1522 C1523 1.415 . S
C1523 H1493 0.950 . S
C1523 C1518 1.363 . S
C1523 C1522 1.415 . S
H1524 C1521 0.999 . S
H1525 C1506 0.913 . S
H1526 C1544 0.951 . S
H1527 C1546 0.951 . S
H1528 C1548 0.950 . S
H1529 C1549 0.950 . S
H1530 C1551 0.950 . S
H1531 C1554 0.950 . S
H1532 C1555 0.950 . S
H1533 C1557 0.950 . S
H1534 C1558 0.950 . S
H1535 C1559 0.951 . S
H1536 C1561 0.951 . S
H1537 C1563 0.950 . S
H1538 C1564 0.950 . S
H1539 C1566 0.950 . S
H1540 C1569 0.950 . S
H1541 C1570 0.950 . S
H1542 C1572 0.950 . S
H1543 C1573 0.950 . S
C1544 H1526 0.951 . S
C1544 C1545 1.366 . S
C1544 C1546 1.388 . S
C1545 C1544 1.366 . S
C1545 C1549 1.385 . S
C1546 H1527 0.951 . S
C1546 C1544 1.388 . S
C1546 C1547 1.366 . S
C1547 C1546 1.366 . S
C1547 C1548 1.414 . S
C1547 C1550 1.499 . S
C1548 H1528 0.950 . S
C1548 C1547 1.414 . S
C1548 C1549 1.374 . S
C1549 H1529 0.950 . S
C1549 C1545 1.385 . S
C1549 C1548 1.374 . S
C1550 C1547 1.499 . S
C1550 C1551 1.373 . S
C1550 C1552 1.389 . S
C1551 H1530 0.950 . S
C1551 C1550 1.373 . S
C1551 C1567 1.377 . S
C1552 C1550 1.389 . S
C1552 C1553 1.524 . S
C1552 C1566 1.377 . S
C1553 C1552 1.524 . S
C1553 C1554 1.397 . S
C1553 C1558 1.363 . S
C1554 H1531 0.950 . S
C1554 C1553 1.397 . S
C1554 C1555 1.334 . S
C1555 H1532 0.950 . S
C1555 C1554 1.334 . S
C1555 C1556 1.287 . S
C1556 C1555 1.287 . S
C1556 C1557 1.524 . S
C1556 H1575 0.913 . S
C1557 H1533 0.950 . S
C1557 C1556 1.524 . S
C1557 C1558 1.415 . S
C1558 H1534 0.950 . S
C1558 C1553 1.363 . S
C1558 C1557 1.415 . S
C1559 H1535 0.951 . S
C1559 C1560 1.366 . S
C1559 C1561 1.388 . S
C1560 C1559 1.366 . S
C1560 C1564 1.385 . S
C1561 H1536 0.951 . S
C1561 C1559 1.388 . S
C1561 C1562 1.366 . S
C1562 C1561 1.366 . S
C1562 C1563 1.414 . S
C1562 C1565 1.499 . S
C1563 H1537 0.950 . S
C1563 C1562 1.414 . S
C1563 C1564 1.374 . S
C1564 H1538 0.950 . S
C1564 C1560 1.385 . S
C1564 C1563 1.374 . S
C1565 C1562 1.499 . S
C1565 C1566 1.373 . S
C1565 C1567 1.389 . S
C1566 H1539 0.950 . S
C1566 C1552 1.377 . S
C1566 C1565 1.373 . S
C1567 C1551 1.377 . S
C1567 C1565 1.389 . S
C1567 C1568 1.524 . S
C1568 C1567 1.524 . S
C1568 C1569 1.397 . S
C1568 C1573 1.363 . S
C1569 H1540 0.950 . S
C1569 C1568 1.397 . S
C1569 C1570 1.334 . S
C1570 H1541 0.950 . S
C1570 C1569 1.334 . S
C1570 C1571 1.287 . S
C1571 C1570 1.287 . S
C1571 C1572 1.524 . S
C1571 H1574 0.999 . S
C1572 H1542 0.950 . S
C1572 C1571 1.524 . S
C1572 C1573 1.415 . S
C1573 H1543 0.950 . S
C1573 C1568 1.363 . S
C1573 C1572 1.415 . S
H1574 C1571 0.999 . S
H1575 C1556 0.913 . S
H1576 C1594 0.951 . S
H1577 C1596 0.951 . S
H1578 C1598 0.950 . S
H1579 C1599 0.950 . S
H1580 C1601 0.950 . S
H1581 C1604 0.950 . S
H1582 C1605 0.950 . S
H1583 C1607 0.950 . S
H1584 C1608 0.950 . S
H1585 C1609 0.951 . S
H1586 C1611 0.951 . S
H1587 C1613 0.950 . S
H1588 C1614 0.950 1_655 S
H1589 C1616 0.950 . S
H1590 C1619 0.899 1_655 S
H1591 C1620 0.950 . S
H1592 C1622 0.936 1_565 S
H1593 C1623 0.950 . S
C1594 H1576 0.951 . S
C1594 C1595 1.366 . S
C1594 C1596 1.388 . S
C1595 C1594 1.366 . S
C1595 C1599 1.385 . S
C1596 H1577 0.951 . S
C1596 C1594 1.388 . S
C1596 C1597 1.366 . S
C1597 C1596 1.366 . S
C1597 C1598 1.414 . S
C1597 C1600 1.499 . S
C1598 H1578 0.950 . S
C1598 C1597 1.414 . S
C1598 C1599 1.374 . S
C1599 H1579 0.950 . S
C1599 C1595 1.385 . S
C1599 C1598 1.374 . S
C1600 C1597 1.499 . S
C1600 C1601 1.373 . S
C1600 C1602 1.389 . S
C1601 H1580 0.950 . S
C1601 C1600 1.373 . S
C1601 C1617 1.369 1_655 S
C1602 C1600 1.389 . S
C1602 C1603 1.524 . S
C1602 C1616 1.377 . S
C1603 C1602 1.524 . S
C1603 C1604 1.397 . S
C1603 C1608 1.363 . S
C1604 H1581 0.950 . S
C1604 C1603 1.397 . S
C1604 C1605 1.334 . S
C1605 H1582 0.950 . S
C1605 C1604 1.334 . S
C1605 C1606 1.287 . S
C1606 C1605 1.287 . S
C1606 C1607 1.524 . S
C1606 H1625 0.913 . S
C1607 H1583 0.950 . S
C1607 C1606 1.524 . S
C1607 C1608 1.415 . S
C1608 H1584 0.950 . S
C1608 C1603 1.363 . S
C1608 C1607 1.415 . S
C1609 H1585 0.951 . S
C1609 C1610 1.366 . S
C1609 C1611 1.388 . S
C1610 C1609 1.366 . S
C1610 C1614 1.385 . S
C1611 H1586 0.951 . S
C1611 C1609 1.388 . S
C1611 C1612 1.366 . S
C1612 C1611 1.366 . S
C1612 C1613 1.414 1_455 S
C1612 C1615 1.499 1_455 S
C1613 H1587 0.950 . S
C1613 C1612 1.414 1_655 S
C1613 C1614 1.374 1_655 S
C1614 H1588 0.950 1_455 S
C1614 C1610 1.385 . S
C1614 C1613 1.374 1_455 S
C1615 C1612 1.499 1_655 S
C1615 C1616 1.373 . S
C1615 C1617 1.382 1_655 S
C1616 H1589 0.950 . S
C1616 C1602 1.377 . S
C1616 C1615 1.373 . S
C1617 C1601 1.369 1_455 S
C1617 C1615 1.382 1_455 S
C1617 C1618 1.539 . S
C1618 C1617 1.539 . S
C1618 C1619 1.414 . S
C1618 C1623 1.363 . S
C1619 H1590 0.899 1_455 S
C1619 C1618 1.414 . S
C1619 C1620 1.370 1_545 S
C1620 H1591 0.950 . S
C1620 C1619 1.370 1_565 S
C1620 C1621 1.287 . S
C1621 C1620 1.287 . S
C1621 C1622 1.496 1_565 S
C1621 H1624 0.999 . S
C1622 H1592 0.936 1_545 S
C1622 C1621 1.496 1_545 S
C1622 C1623 1.454 . S
C1623 H1593 0.950 . S
C1623 C1618 1.363 . S
C1623 C1622 1.454 . S
H1624 C1621 0.999 . S
H1625 C1606 0.913 . S
H1626 C1644 0.951 . S
H1627 C1646 0.951 . S
H1628 C1648 0.950 . S
H1629 C1649 0.950 . S
H1630 C1651 0.950 . S
H1631 C1654 0.950 . S
H1632 C1655 0.950 . S
H1633 C1657 0.950 . S
H1634 C1658 0.950 . S
H1635 C1659 0.951 . S
H1636 C1661 0.951 . S
H1637 C1663 0.950 . S
H1638 C1664 0.950 . S
H1639 C1666 0.950 . S
H1640 C1669 0.950 . S
H1641 C1670 0.950 . S
H1642 C1672 0.950 . S
H1643 C1673 0.950 . S
C1644 H1626 0.951 . S
C1644 C1645 1.366 . S
C1644 C1646 1.388 . S
C1645 C1644 1.366 . S
C1645 C1649 1.385 . S
C1646 H1627 0.951 . S
C1646 C1644 1.388 . S
C1646 C1647 1.366 . S
C1647 C1646 1.366 . S
C1647 C1648 1.414 . S
C1647 C1650 1.499 . S
C1648 H1628 0.950 . S
C1648 C1647 1.414 . S
C1648 C1649 1.374 . S
C1649 H1629 0.950 . S
C1649 C1645 1.385 . S
C1649 C1648 1.374 . S
C1650 C1647 1.499 . S
C1650 C1651 1.373 . S
C1650 C1652 1.389 . S
C1651 H1630 0.950 . S
C1651 C1650 1.373 . S
C1651 C1667 1.377 . S
C1652 C1650 1.389 . S
C1652 C1653 1.524 . S
C1652 C1666 1.377 . S
C1653 C1652 1.524 . S
C1653 C1654 1.397 . S
C1653 C1658 1.363 . S
C1654 H1631 0.950 . S
C1654 C1653 1.397 . S
C1654 C1655 1.334 . S
C1655 H1632 0.950 . S
C1655 C1654 1.334 . S
C1655 C1656 1.287 . S
C1656 C1655 1.287 . S
C1656 C1657 1.524 . S
C1656 H1675 0.913 . S
C1657 H1633 0.950 . S
C1657 C1656 1.524 . S
C1657 C1658 1.415 . S
C1658 H1634 0.950 . S
C1658 C1653 1.363 . S
C1658 C1657 1.415 . S
C1659 H1635 0.951 . S
C1659 C1660 1.366 . S
C1659 C1661 1.388 . S
C1660 C1659 1.366 . S
C1660 C1664 1.385 . S
C1661 H1636 0.951 . S
C1661 C1659 1.388 . S
C1661 C1662 1.366 . S
C1662 C1661 1.366 . S
C1662 C1663 1.414 . S
C1662 C1665 1.499 . S
C1663 H1637 0.950 . S
C1663 C1662 1.414 . S
C1663 C1664 1.374 . S
C1664 H1638 0.950 . S
C1664 C1660 1.385 . S
C1664 C1663 1.374 . S
C1665 C1662 1.499 . S
C1665 C1666 1.373 . S
C1665 C1667 1.389 . S
C1666 H1639 0.950 . S
C1666 C1652 1.377 . S
C1666 C1665 1.373 . S
C1667 C1651 1.377 . S
C1667 C1665 1.389 . S
C1667 C1668 1.524 . S
C1668 C1667 1.524 . S
C1668 C1669 1.397 . S
C1668 C1673 1.363 . S
C1669 H1640 0.950 . S
C1669 C1668 1.397 . S
C1669 C1670 1.334 . S
C1670 H1641 0.950 . S
C1670 C1669 1.334 . S
C1670 C1671 1.287 . S
C1671 C1670 1.287 . S
C1671 C1672 1.524 . S
C1671 H1674 0.999 . S
C1672 H1642 0.950 . S
C1672 C1671 1.524 . S
C1672 C1673 1.415 . S
C1673 H1643 0.950 . S
C1673 C1668 1.363 . S
C1673 C1672 1.415 . S
H1674 C1671 0.999 . S
H1675 C1656 0.913 . S
H1676 C1694 0.951 . S
H1677 C1696 0.951 . S
H1678 C1698 0.950 . S
H1679 C1699 0.950 . S
H1680 C1701 0.950 . S
H1681 C1704 0.950 . S
H1682 C1705 0.950 . S
H1683 C1707 0.950 . S
H1684 C1708 0.950 . S
H1685 C1709 0.951 . S
H1686 C1711 0.951 . S
H1687 C1713 0.950 . S
H1688 C1714 0.950 . S
H1689 C1716 0.950 . S
H1690 C1719 0.950 . S
H1691 C1720 0.950 . S
H1692 C1722 0.950 . S
H1693 C1723 0.950 . S
C1694 H1676 0.951 . S
C1694 C1695 1.366 . S
C1694 C1696 1.388 . S
C1695 C1694 1.366 . S
C1695 C1699 1.385 . S
C1696 H1677 0.951 . S
C1696 C1694 1.388 . S
C1696 C1697 1.366 . S
C1697 C1696 1.366 . S
C1697 C1698 1.414 . S
C1697 C1700 1.499 . S
C1698 H1678 0.950 . S
C1698 C1697 1.414 . S
C1698 C1699 1.374 . S
C1699 H1679 0.950 . S
C1699 C1695 1.385 . S
C1699 C1698 1.374 . S
C1700 C1697 1.499 . S
C1700 C1701 1.373 . S
C1700 C1702 1.389 . S
C1701 H1680 0.950 . S
C1701 C1700 1.373 . S
C1701 C1717 1.377 . S
C1702 C1700 1.389 . S
C1702 C1703 1.524 . S
C1702 C1716 1.377 . S
C1703 C1702 1.524 . S
C1703 C1704 1.397 . S
C1703 C1708 1.363 . S
C1704 H1681 0.950 . S
C1704 C1703 1.397 . S
C1704 C1705 1.334 . S
C1705 H1682 0.950 . S
C1705 C1704 1.334 . S
C1705 C1706 1.287 . S
C1706 C1705 1.287 . S
C1706 C1707 1.524 . S
C1706 H1725 0.913 . S
C1707 H1683 0.950 . S
C1707 C1706 1.524 . S
C1707 C1708 1.415 . S
C1708 H1684 0.950 . S
C1708 C1703 1.363 . S
C1708 C1707 1.415 . S
C1709 H1685 0.951 . S
C1709 C1710 1.366 . S
C1709 C1711 1.388 . S
C1710 C1709 1.366 . S
C1710 C1714 1.385 . S
C1711 H1686 0.951 . S
C1711 C1709 1.388 . S
C1711 C1712 1.366 . S
C1712 C1711 1.366 . S
C1712 C1713 1.414 . S
C1712 C1715 1.499 . S
C1713 H1687 0.950 . S
C1713 C1712 1.414 . S
C1713 C1714 1.374 . S
C1714 H1688 0.950 . S
C1714 C1710 1.385 . S
C1714 C1713 1.374 . S
C1715 C1712 1.499 . S
C1715 C1716 1.373 . S
C1715 C1717 1.389 . S
C1716 H1689 0.950 . S
C1716 C1702 1.377 . S
C1716 C1715 1.373 . S
C1717 C1701 1.377 . S
C1717 C1715 1.389 . S
C1717 C1718 1.524 . S
C1718 C1717 1.524 . S
C1718 C1719 1.397 . S
C1718 C1723 1.363 . S
C1719 H1690 0.950 . S
C1719 C1718 1.397 . S
C1719 C1720 1.334 . S
C1720 H1691 0.950 . S
C1720 C1719 1.334 . S
C1720 C1721 1.287 . S
C1721 C1720 1.287 . S
C1721 C1722 1.524 . S
C1721 H1724 0.999 1_545 S
C1722 H1692 0.950 . S
C1722 C1721 1.524 . S
C1722 C1723 1.415 . S
C1723 H1693 0.950 . S
C1723 C1718 1.363 . S
C1723 C1722 1.415 . S
H1724 C1721 0.999 1_565 S
H1725 C1706 0.913 . S
H1726 C1744 0.951 . S
H1727 C1746 0.951 . S
H1728 C1748 0.950 . S
H1729 C1749 0.950 . S
H1730 C1751 0.950 . S
H1731 C1754 0.950 . S
H1732 C1755 0.950 . S
H1733 C1757 0.950 . S
H1734 C1758 0.950 . S
H1735 C1759 0.951 . S
H1736 C1761 0.951 . S
H1737 C1763 0.950 . S
H1738 C1764 0.950 . S
H1739 C1766 0.950 . S
H1740 C1769 0.950 . S
H1741 C1770 0.950 . S
H1742 C1772 0.950 . S
H1743 C1773 0.950 . S
C1744 H1726 0.951 . S
C1744 C1745 1.366 . S
C1744 C1746 1.388 . S
C1745 C1744 1.366 . S
C1745 C1749 1.385 . S
C1746 H1727 0.951 . S
C1746 C1744 1.388 . S
C1746 C1747 1.366 . S
C1747 C1746 1.366 . S
C1747 C1748 1.414 . S
C1747 C1750 1.499 . S
C1748 H1728 0.950 . S
C1748 C1747 1.414 . S
C1748 C1749 1.374 . S
C1749 H1729 0.950 . S
C1749 C1745 1.385 . S
C1749 C1748 1.374 . S
C1750 C1747 1.499 . S
C1750 C1751 1.373 . S
C1750 C1752 1.389 . S
C1751 H1730 0.950 . S
C1751 C1750 1.373 . S
C1751 C1767 1.377 . S
C1752 C1750 1.389 . S
C1752 C1753 1.524 . S
C1752 C1766 1.377 . S
C1753 C1752 1.524 . S
C1753 C1754 1.397 . S
C1753 C1758 1.363 . S
C1754 H1731 0.950 . S
C1754 C1753 1.397 . S
C1754 C1755 1.334 . S
C1755 H1732 0.950 . S
C1755 C1754 1.334 . S
C1755 C1756 1.287 . S
C1756 C1755 1.287 . S
C1756 C1757 1.524 . S
C1756 H1775 0.913 . S
C1757 H1733 0.950 . S
C1757 C1756 1.524 . S
C1757 C1758 1.415 . S
C1758 H1734 0.950 . S
C1758 C1753 1.363 . S
C1758 C1757 1.415 . S
C1759 H1735 0.951 . S
C1759 C1760 1.366 . S
C1759 C1761 1.388 . S
C1760 C1759 1.366 . S
C1760 C1764 1.385 . S
C1761 H1736 0.951 . S
C1761 C1759 1.388 . S
C1761 C1762 1.366 . S
C1762 C1761 1.366 . S
C1762 C1763 1.414 . S
C1762 C1765 1.499 . S
C1763 H1737 0.950 . S
C1763 C1762 1.414 . S
C1763 C1764 1.374 . S
C1764 H1738 0.950 . S
C1764 C1760 1.385 . S
C1764 C1763 1.374 . S
C1765 C1762 1.499 . S
C1765 C1766 1.373 . S
C1765 C1767 1.389 . S
C1766 H1739 0.950 . S
C1766 C1752 1.377 . S
C1766 C1765 1.373 . S
C1767 C1751 1.377 . S
C1767 C1765 1.389 . S
C1767 C1768 1.524 . S
C1768 C1767 1.524 . S
C1768 C1769 1.397 . S
C1768 C1773 1.363 . S
C1769 H1740 0.950 . S
C1769 C1768 1.397 . S
C1769 C1770 1.334 . S
C1770 H1741 0.950 . S
C1770 C1769 1.334 . S
C1770 C1771 1.287 . S
C1771 C1770 1.287 . S
C1771 C1772 1.524 . S
C1771 H1774 0.999 . S
C1772 H1742 0.950 . S
C1772 C1771 1.524 . S
C1772 C1773 1.415 . S
C1773 H1743 0.950 . S
C1773 C1768 1.363 . S
C1773 C1772 1.415 . S
H1774 C1771 0.999 . S
H1775 C1756 0.913 . S
H1776 C1794 0.951 . S
H1777 C1796 0.951 . S
H1778 C1798 0.950 . S
H1779 C1799 0.947 1_556 S
H1780 C1801 0.950 . S
H1781 C1804 0.950 . S
H1782 C1805 0.950 . S
H1783 C1807 0.950 . S
H1784 C1808 0.950 . S
H1785 C1809 0.951 . S
H1786 C1811 0.951 . S
H1787 C1813 0.950 . S
H1788 C1814 0.950 . S
H1789 C1816 0.950 . S
H1790 C1819 0.950 1_544 S
H1791 C1820 0.950 1_545 S
H1792 C1822 0.950 . S
H1793 C1823 0.950 . S
C1794 H1776 0.951 . S
C1794 C1795 1.366 . S
C1794 C1796 1.388 . S
C1795 C1794 1.366 . S
C1795 C1799 1.385 . S
C1796 H1777 0.951 . S
C1796 C1794 1.388 . S
C1796 C1797 1.366 . S
C1797 C1796 1.366 . S
C1797 C1798 1.414 . S
C1797 C1800 1.499 . S
C1798 H1778 0.950 . S
C1798 C1797 1.414 . S
C1798 C1799 1.374 . S
C1799 H1779 0.947 1_554 S
C1799 C1795 1.385 . S
C1799 C1798 1.374 . S
C1800 C1797 1.499 . S
C1800 C1801 1.373 . S
C1800 C1802 1.389 . S
C1801 H1780 0.950 . S
C1801 C1800 1.373 . S
C1801 C1817 1.377 . S
C1802 C1800 1.389 . S
C1802 C1803 1.524 . S
C1802 C1816 1.377 . S
C1803 C1802 1.524 . S
C1803 C1804 1.397 . S
C1803 C1808 1.363 . S
C1804 H1781 0.950 . S
C1804 C1803 1.397 . S
C1804 C1805 1.334 . S
C1805 H1782 0.950 . S
C1805 C1804 1.334 . S
C1805 C1806 1.287 . S
C1806 C1805 1.287 . S
C1806 C1807 1.524 . S
C1806 H1825 0.913 . S
C1807 H1783 0.950 . S
C1807 C1806 1.524 . S
C1807 C1808 1.415 . S
C1808 H1784 0.950 . S
C1808 C1803 1.363 . S
C1808 C1807 1.415 . S
C1809 H1785 0.951 . S
C1809 C1810 1.370 1_565 S
C1809 C1811 1.388 . S
C1810 C1809 1.370 1_545 S
C1810 C1814 1.383 . S
C1811 H1786 0.951 . S
C1811 C1809 1.388 . S
C1811 C1812 1.366 . S
C1812 C1811 1.366 . S
C1812 C1813 1.414 1_565 S
C1812 C1815 1.499 . S
C1813 H1787 0.950 . S
C1813 C1812 1.414 1_545 S
C1813 C1814 1.374 . S
C1814 H1788 0.950 . S
C1814 C1810 1.383 . S
C1814 C1813 1.374 . S
C1815 C1812 1.499 . S
C1815 C1816 1.373 . S
C1815 C1817 1.389 . S
C1816 H1789 0.950 . S
C1816 C1802 1.377 . S
C1816 C1815 1.373 . S
C1817 C1801 1.377 . S
C1817 C1815 1.389 . S
C1817 C1818 1.503 1_554 S
C1818 C1817 1.503 1_556 S
C1818 C1819 1.403 . S
C1818 C1823 1.379 . S
C1819 H1790 0.950 1_566 S
C1819 C1818 1.403 . S
C1819 C1820 1.334 . S
C1820 H1791 0.950 1_565 S
C1820 C1819 1.334 . S
C1820 C1821 1.287 . S
C1821 C1820 1.287 . S
C1821 C1822 1.524 . S
C1821 H1824 0.999 . S
C1822 H1792 0.950 . S
C1822 C1821 1.524 . S
C1822 C1823 1.415 . S
C1823 H1793 0.950 . S
C1823 C1818 1.379 . S
C1823 C1822 1.415 . S
H1824 C1821 0.999 . S
H1825 C1806 0.913 . S
H1826 C1844 0.951 . S
H1827 C1846 0.951 . S
H1828 C1848 0.950 . S
H1829 C1849 0.950 . S
H1830 C1851 0.950 . S
H1831 C1854 0.950 . S
H1832 C1855 0.950 . S
H1833 C1857 0.950 . S
H1834 C1858 0.950 . S
H1835 C1859 0.951 . S
H1836 C1861 0.951 . S
H1837 C1863 0.950 . S
H1838 C1864 0.950 . S
H1839 C1866 0.950 . S
H1840 C1869 0.950 . S
H1841 C1870 0.950 . S
H1842 C1872 0.950 . S
H1843 C1873 0.950 . S
C1844 H1826 0.951 . S
C1844 C1845 1.365 . S
C1844 C1846 1.388 . S
C1845 C1844 1.365 . S
C1845 C1849 1.387 1_556 S
C1846 H1827 0.951 . S
C1846 C1844 1.388 . S
C1846 C1847 1.373 . S
C1847 C1846 1.373 . S
C1847 C1848 1.411 1_556 S
C1847 C1850 1.493 . S
C1848 H1828 0.950 . S
C1848 C1847 1.411 1_554 S
C1848 C1849 1.374 . S
C1849 H1829 0.950 . S
C1849 C1845 1.387 1_554 S
C1849 C1848 1.374 . S
C1850 C1847 1.493 . S
C1850 C1851 1.372 1_556 S
C1850 C1852 1.390 . S
C1851 H1830 0.950 . S
C1851 C1850 1.372 1_554 S
C1851 C1867 1.377 . S
C1852 C1850 1.390 . S
C1852 C1853 1.524 . S
C1852 C1866 1.377 . S
C1853 C1852 1.524 . S
C1853 C1854 1.397 . S
C1853 C1858 1.363 . S
C1854 H1831 0.950 . S
C1854 C1853 1.397 . S
C1854 C1855 1.334 . S
C1855 H1832 0.950 . S
C1855 C1854 1.334 . S
C1855 C1856 1.287 . S
C1856 C1855 1.287 . S
C1856 C1857 1.524 . S
C1856 H1875 0.913 . S
C1857 H1833 0.950 . S
C1857 C1856 1.524 . S
C1857 C1858 1.415 . S
C1858 H1834 0.950 . S
C1858 C1853 1.363 . S
C1858 C1857 1.415 . S
C1859 H1835 0.951 . S
C1859 C1860 1.366 . S
C1859 C1861 1.388 . S
C1860 C1859 1.366 . S
C1860 C1864 1.385 1_554 S
C1861 H1836 0.951 . S
C1861 C1859 1.388 . S
C1861 C1862 1.366 . S
C1862 C1861 1.366 . S
C1862 C1863 1.414 1_554 S
C1862 C1865 1.499 . S
C1863 H1837 0.950 . S
C1863 C1862 1.414 1_556 S
C1863 C1864 1.374 . S
C1864 H1838 0.950 . S
C1864 C1860 1.385 1_556 S
C1864 C1863 1.374 . S
C1865 C1862 1.499 . S
C1865 C1866 1.373 1_554 S
C1865 C1867 1.389 . S
C1866 H1839 0.950 . S
C1866 C1852 1.377 . S
C1866 C1865 1.373 1_556 S
C1867 C1851 1.377 . S
C1867 C1865 1.389 . S
C1867 C1868 1.524 . S
C1868 C1867 1.524 . S
C1868 C1869 1.397 . S
C1868 C1873 1.363 . S
C1869 H1840 0.950 . S
C1869 C1868 1.397 . S
C1869 C1870 1.334 . S
C1870 H1841 0.950 . S
C1870 C1869 1.334 . S
C1870 C1871 1.287 . S
C1871 C1870 1.287 . S
C1871 C1872 1.524 . S
C1871 H1874 0.999 . S
C1872 H1842 0.950 . S
C1872 C1871 1.524 . S
C1872 C1873 1.415 . S
C1873 H1843 0.950 . S
C1873 C1868 1.363 . S
C1873 C1872 1.415 . S
H1874 C1871 0.999 . S
H1875 C1856 0.913 . S
H1876 C1894 0.951 . S
H1877 C1896 0.951 . S
H1878 C1898 0.950 . S
H1879 C1899 0.950 . S
H1880 C1901 0.950 . S
H1881 C1904 0.950 . S
H1882 C1905 0.950 . S
H1883 C1907 0.950 . S
H1884 C1908 0.950 . S
H1885 C1909 0.951 . S
H1886 C1911 0.951 . S
H1887 C1913 0.950 . S
H1888 C1914 0.950 . S
H1889 C1916 0.950 . S
H1890 C1919 0.950 . S
H1891 C1920 0.950 . S
H1892 C1922 0.950 . S
H1893 C1923 0.950 . S
C1894 H1876 0.951 . S
C1894 C1895 1.366 . S
C1894 C1896 1.388 . S
C1895 C1894 1.366 . S
C1895 C1899 1.385 . S
C1896 H1877 0.951 . S
C1896 C1894 1.388 . S
C1896 C1897 1.366 . S
C1897 C1896 1.366 . S
C1897 C1898 1.414 . S
C1897 C1900 1.499 . S
C1898 H1878 0.950 . S
C1898 C1897 1.414 . S
C1898 C1899 1.374 . S
C1899 H1879 0.950 . S
C1899 C1895 1.385 . S
C1899 C1898 1.374 . S
C1900 C1897 1.499 . S
C1900 C1901 1.373 . S
C1900 C1902 1.389 . S
C1901 H1880 0.950 . S
C1901 C1900 1.373 . S
C1901 C1917 1.377 . S
C1902 C1900 1.389 . S
C1902 C1903 1.524 . S
C1902 C1916 1.377 . S
C1903 C1902 1.524 . S
C1903 C1904 1.397 . S
C1903 C1908 1.363 . S
C1904 H1881 0.950 . S
C1904 C1903 1.397 . S
C1904 C1905 1.334 . S
C1905 H1882 0.950 . S
C1905 C1904 1.334 . S
C1905 C1906 1.287 . S
C1906 C1905 1.287 . S
C1906 C1907 1.524 . S
C1906 H1925 0.913 . S
C1907 H1883 0.950 . S
C1907 C1906 1.524 . S
C1907 C1908 1.415 . S
C1908 H1884 0.950 . S
C1908 C1903 1.363 . S
C1908 C1907 1.415 . S
C1909 H1885 0.951 . S
C1909 C1910 1.366 . S
C1909 C1911 1.388 . S
C1910 C1909 1.366 . S
C1910 C1914 1.385 . S
C1911 H1886 0.951 . S
C1911 C1909 1.388 . S
C1911 C1912 1.366 . S
C1912 C1911 1.366 . S
C1912 C1913 1.414 . S
C1912 C1915 1.499 . S
C1913 H1887 0.950 . S
C1913 C1912 1.414 . S
C1913 C1914 1.374 . S
C1914 H1888 0.950 . S
C1914 C1910 1.385 . S
C1914 C1913 1.374 . S
C1915 C1912 1.499 . S
C1915 C1916 1.373 . S
C1915 C1917 1.389 . S
C1916 H1889 0.950 . S
C1916 C1902 1.377 . S
C1916 C1915 1.373 . S
C1917 C1901 1.377 . S
C1917 C1915 1.389 . S
C1917 C1918 1.524 . S
C1918 C1917 1.524 . S
C1918 C1919 1.397 . S
C1918 C1923 1.363 . S
C1919 H1890 0.950 . S
C1919 C1918 1.397 . S
C1919 C1920 1.334 . S
C1920 H1891 0.950 . S
C1920 C1919 1.334 . S
C1920 C1921 1.287 . S
C1921 C1920 1.287 . S
C1921 C1922 1.524 . S
C1921 H1924 0.999 . S
C1922 H1892 0.950 . S
C1922 C1921 1.524 . S
C1922 C1923 1.415 . S
C1923 H1893 0.950 . S
C1923 C1918 1.363 . S
C1923 C1922 1.415 . S
H1924 C1921 0.999 . S
H1925 C1906 0.913 . S
H1926 C1944 0.951 . S
H1927 C1946 0.951 . S
H1928 C1948 0.950 . S
H1929 C1949 0.950 . S
H1930 C1951 0.950 . S
H1931 C1954 0.950 . S
H1932 C1955 0.950 . S
H1933 C1957 0.950 . S
H1934 C1958 0.950 . S
H1935 C1959 0.951 . S
H1936 C1961 0.951 . S
H1937 C1963 0.950 . S
H1938 C1964 0.950 . S
H1939 C1966 0.950 . S
H1940 C1969 0.950 . S
H1941 C1970 0.950 . S
H1942 C1972 0.950 . S
H1943 C1973 0.950 . S
C1944 H1926 0.951 . S
C1944 C1945 1.366 . S
C1944 C1946 1.388 . S
C1945 C1944 1.366 . S
C1945 C1949 1.385 . S
C1946 H1927 0.951 . S
C1946 C1944 1.388 . S
C1946 C1947 1.366 . S
C1947 C1946 1.366 . S
C1947 C1948 1.414 . S
C1947 C1950 1.499 . S
C1948 H1928 0.950 . S
C1948 C1947 1.414 . S
C1948 C1949 1.374 . S
C1949 H1929 0.950 . S
C1949 C1945 1.385 . S
C1949 C1948 1.374 . S
C1950 C1947 1.499 . S
C1950 C1951 1.373 . S
C1950 C1952 1.389 . S
C1951 H1930 0.950 . S
C1951 C1950 1.373 . S
C1951 C1967 1.377 . S
C1952 C1950 1.389 . S
C1952 C1953 1.524 . S
C1952 C1966 1.377 . S
C1953 C1952 1.524 . S
C1953 C1954 1.397 . S
C1953 C1958 1.363 . S
C1954 H1931 0.950 . S
C1954 C1953 1.397 . S
C1954 C1955 1.334 . S
C1955 H1932 0.950 . S
C1955 C1954 1.334 . S
C1955 C1956 1.287 . S
C1956 C1955 1.287 . S
C1956 C1957 1.524 . S
C1956 H1975 0.913 . S
C1957 H1933 0.950 . S
C1957 C1956 1.524 . S
C1957 C1958 1.415 . S
C1958 H1934 0.950 . S
C1958 C1953 1.363 . S
C1958 C1957 1.415 . S
C1959 H1935 0.951 . S
C1959 C1960 1.366 . S
C1959 C1961 1.388 . S
C1960 C1959 1.366 . S
C1960 C1964 1.385 . S
C1961 H1936 0.951 . S
C1961 C1959 1.388 . S
C1961 C1962 1.366 . S
C1962 C1961 1.366 . S
C1962 C1963 1.414 . S
C1962 C1965 1.499 . S
C1963 H1937 0.950 . S
C1963 C1962 1.414 . S
C1963 C1964 1.374 . S
C1964 H1938 0.950 . S
C1964 C1960 1.385 . S
C1964 C1963 1.374 . S
C1965 C1962 1.499 . S
C1965 C1966 1.373 . S
C1965 C1967 1.389 . S
C1966 H1939 0.950 . S
C1966 C1952 1.377 . S
C1966 C1965 1.373 . S
C1967 C1951 1.377 . S
C1967 C1965 1.389 . S
C1967 C1968 1.524 . S
C1968 C1967 1.524 . S
C1968 C1969 1.397 . S
C1968 C1973 1.363 . S
C1969 H1940 0.950 . S
C1969 C1968 1.397 . S
C1969 C1970 1.334 . S
C1970 H1941 0.950 . S
C1970 C1969 1.334 . S
C1970 C1971 1.287 . S
C1971 C1970 1.287 . S
C1971 C1972 1.524 . S
C1971 H1974 0.999 . S
C1972 H1942 0.950 . S
C1972 C1971 1.524 . S
C1972 C1973 1.415 . S
C1973 H1943 0.950 . S
C1973 C1968 1.363 . S
C1973 C1972 1.415 . S
H1974 C1971 0.999 . S
H1975 C1956 0.913 . S
H1976 C1994 0.951 . S
H1977 C1996 0.951 . S
H1978 C1998 0.950 . S
H1979 C1999 0.950 . S
H1980 C2001 0.950 . S
H1981 C2004 0.950 . S
H1982 C2005 0.950 . S
H1983 C2007 0.950 . S
H1984 C2008 0.950 . S
H1985 C2009 0.951 . S
H1986 C2011 0.951 . S
H1987 C2013 0.950 . S
H1988 C2014 0.950 . S
H1989 C2016 0.950 . S
H1990 C2019 0.950 . S
H1991 C2020 0.950 . S
H1992 C2022 0.950 . S
H1993 C2023 0.950 . S
C1994 H1976 0.951 . S
C1994 C1995 1.366 . S
C1994 C1996 1.388 . S
C1995 C1994 1.366 . S
C1995 C1999 1.385 . S
C1996 H1977 0.951 . S
C1996 C1994 1.388 . S
C1996 C1997 1.366 . S
C1997 C1996 1.366 . S
C1997 C1998 1.414 . S
C1997 C2000 1.499 . S
C1998 H1978 0.950 . S
C1998 C1997 1.414 . S
C1998 C1999 1.374 . S
C1999 H1979 0.950 . S
C1999 C1995 1.385 . S
C1999 C1998 1.374 . S
C2000 C1997 1.499 . S
C2000 C2001 1.373 . S
C2000 C2002 1.389 . S
C2001 H1980 0.950 . S
C2001 C2000 1.373 . S
C2001 C2017 1.377 . S
C2002 C2000 1.389 . S
C2002 C2003 1.524 . S
C2002 C2016 1.377 . S
C2003 C2002 1.524 . S
C2003 C2004 1.397 . S
C2003 C2008 1.363 . S
C2004 H1981 0.950 . S
C2004 C2003 1.397 . S
C2004 C2005 1.334 . S
C2005 H1982 0.950 . S
C2005 C2004 1.334 . S
C2005 C2006 1.287 . S
C2006 C2005 1.287 . S
C2006 C2007 1.524 . S
C2006 H2025 0.913 . S
C2007 H1983 0.950 . S
C2007 C2006 1.524 . S
C2007 C2008 1.415 . S
C2008 H1984 0.950 . S
C2008 C2003 1.363 . S
C2008 C2007 1.415 . S
C2009 H1985 0.951 . S
C2009 C2010 1.366 . S
C2009 C2011 1.388 . S
C2010 C2009 1.366 . S
C2010 C2014 1.385 . S
C2011 H1986 0.951 . S
C2011 C2009 1.388 . S
C2011 C2012 1.366 . S
C2012 C2011 1.366 . S
C2012 C2013 1.414 . S
C2012 C2015 1.499 . S
C2013 H1987 0.950 . S
C2013 C2012 1.414 . S
C2013 C2014 1.374 . S
C2014 H1988 0.950 . S
C2014 C2010 1.385 . S
C2014 C2013 1.374 . S
C2015 C2012 1.499 . S
C2015 C2016 1.373 . S
C2015 C2017 1.389 . S
C2016 H1989 0.950 . S
C2016 C2002 1.377 . S
C2016 C2015 1.373 . S
C2017 C2001 1.377 . S
C2017 C2015 1.389 . S
C2017 C2018 1.524 . S
C2018 C2017 1.524 . S
C2018 C2019 1.397 . S
C2018 C2023 1.363 . S
C2019 H1990 0.950 . S
C2019 C2018 1.397 . S
C2019 C2020 1.334 . S
C2020 H1991 0.950 . S
C2020 C2019 1.334 . S
C2020 C2021 1.287 . S
C2021 C2020 1.287 . S
C2021 C2022 1.524 . S
C2021 H2024 0.999 . S
C2022 H1992 0.950 . S
C2022 C2021 1.524 . S
C2022 C2023 1.415 . S
C2023 H1993 0.950 . S
C2023 C2018 1.363 . S
C2023 C2022 1.415 . S
H2024 C2021 0.999 . S
H2025 C2006 0.913 . S
H2026 C2044 0.951 . S
H2027 C2046 0.951 . S
H2028 C2048 0.950 . S
H2029 C2049 0.950 . S
H2030 C2051 0.950 . S
H2031 C2054 0.950 . S
H2032 C2055 0.950 . S
H2033 C2057 0.950 . S
H2034 C2058 0.950 . S
H2035 C2059 0.951 . S
H2036 C2061 0.951 . S
H2037 C2063 0.950 . S
H2038 C2064 0.950 . S
H2039 C2066 0.950 . S
H2040 C2069 0.950 . S
H2041 C2070 0.950 . S
H2042 C2072 0.950 . S
H2043 C2073 0.950 . S
C2044 H2026 0.951 . S
C2044 C2045 1.366 . S
C2044 C2046 1.388 . S
C2045 C2044 1.366 . S
C2045 C2049 1.385 . S
C2046 H2027 0.951 . S
C2046 C2044 1.388 . S
C2046 C2047 1.366 . S
C2047 C2046 1.366 . S
C2047 C2048 1.414 . S
C2047 C2050 1.499 . S
C2048 H2028 0.950 . S
C2048 C2047 1.414 . S
C2048 C2049 1.374 . S
C2049 H2029 0.950 . S
C2049 C2045 1.385 . S
C2049 C2048 1.374 . S
C2050 C2047 1.499 . S
C2050 C2051 1.373 . S
C2050 C2052 1.389 . S
C2051 H2030 0.950 . S
C2051 C2050 1.373 . S
C2051 C2067 1.377 . S
C2052 C2050 1.389 . S
C2052 C2053 1.524 . S
C2052 C2066 1.377 . S
C2053 C2052 1.524 . S
C2053 C2054 1.397 . S
C2053 C2058 1.363 . S
C2054 H2031 0.950 . S
C2054 C2053 1.397 . S
C2054 C2055 1.334 . S
C2055 H2032 0.950 . S
C2055 C2054 1.334 . S
C2055 C2056 1.287 . S
C2056 C2055 1.287 . S
C2056 C2057 1.524 . S
C2056 H2075 0.913 . S
C2057 H2033 0.950 . S
C2057 C2056 1.524 . S
C2057 C2058 1.415 . S
C2058 H2034 0.950 . S
C2058 C2053 1.363 . S
C2058 C2057 1.415 . S
C2059 H2035 0.951 . S
C2059 C2060 1.366 . S
C2059 C2061 1.388 . S
C2060 C2059 1.366 . S
C2060 C2064 1.385 . S
C2061 H2036 0.951 . S
C2061 C2059 1.388 . S
C2061 C2062 1.366 . S
C2062 C2061 1.366 . S
C2062 C2063 1.414 . S
C2062 C2065 1.499 . S
C2063 H2037 0.950 . S
C2063 C2062 1.414 . S
C2063 C2064 1.374 . S
C2064 H2038 0.950 . S
C2064 C2060 1.385 . S
C2064 C2063 1.374 . S
C2065 C2062 1.499 . S
C2065 C2066 1.373 . S
C2065 C2067 1.389 . S
C2066 H2039 0.950 . S
C2066 C2052 1.377 . S
C2066 C2065 1.373 . S
C2067 C2051 1.377 . S
C2067 C2065 1.389 . S
C2067 C2068 1.524 . S
C2068 C2067 1.524 . S
C2068 C2069 1.397 . S
C2068 C2073 1.363 . S
C2069 H2040 0.950 . S
C2069 C2068 1.397 . S
C2069 C2070 1.334 . S
C2070 H2041 0.950 . S
C2070 C2069 1.334 . S
C2070 C2071 1.287 . S
C2071 C2070 1.287 . S
C2071 C2072 1.524 . S
C2071 H2074 0.999 . S
C2072 H2042 0.950 . S
C2072 C2071 1.524 . S
C2072 C2073 1.415 . S
C2073 H2043 0.950 . S
C2073 C2068 1.363 . S
C2073 C2072 1.415 . S
H2074 C2071 0.999 . S
H2075 C2056 0.913 . S
H2076 C2094 0.951 . S
H2077 C2096 0.951 . S
H2078 C2098 0.950 . S
H2079 C2099 0.950 . S
H2080 C2101 0.950 . S
H2081 C2104 0.950 . S
H2082 C2105 0.950 . S
H2083 C2107 0.950 . S
H2084 C2108 0.950 . S
H2085 C2109 0.951 . S
H2086 C2111 0.951 . S
H2087 C2113 0.950 . S
H2088 C2114 0.950 . S
H2089 C2116 0.950 . S
H2090 C2119 0.950 . S
H2091 C2120 0.950 . S
H2092 C2122 0.950 . S
H2093 C2123 0.950 . S
C2094 H2076 0.951 . S
C2094 C2095 1.366 . S
C2094 C2096 1.388 . S
C2095 C2094 1.366 . S
C2095 C2099 1.385 . S
C2096 H2077 0.951 . S
C2096 C2094 1.388 . S
C2096 C2097 1.366 . S
C2097 C2096 1.366 . S
C2097 C2098 1.414 . S
C2097 C2100 1.499 . S
C2098 H2078 0.950 . S
C2098 C2097 1.414 . S
C2098 C2099 1.374 . S
C2099 H2079 0.950 . S
C2099 C2095 1.385 . S
C2099 C2098 1.374 . S
C2100 C2097 1.499 . S
C2100 C2101 1.373 . S
C2100 C2102 1.389 . S
C2101 H2080 0.950 . S
C2101 C2100 1.373 . S
C2101 C2117 1.377 . S
C2102 C2100 1.389 . S
C2102 C2103 1.524 . S
C2102 C2116 1.377 . S
C2103 C2102 1.524 . S
C2103 C2104 1.397 . S
C2103 C2108 1.363 . S
C2104 H2081 0.950 . S
C2104 C2103 1.397 . S
C2104 C2105 1.334 . S
C2105 H2082 0.950 . S
C2105 C2104 1.334 . S
C2105 C2106 1.287 . S
C2106 C2105 1.287 . S
C2106 C2107 1.524 . S
C2106 H2125 0.913 . S
C2107 H2083 0.950 . S
C2107 C2106 1.524 . S
C2107 C2108 1.415 . S
C2108 H2084 0.950 . S
C2108 C2103 1.363 . S
C2108 C2107 1.415 . S
C2109 H2085 0.951 . S
C2109 C2110 1.366 . S
C2109 C2111 1.388 . S
C2110 C2109 1.366 . S
C2110 C2114 1.385 . S
C2111 H2086 0.951 . S
C2111 C2109 1.388 . S
C2111 C2112 1.366 . S
C2112 C2111 1.366 . S
C2112 C2113 1.414 . S
C2112 C2115 1.499 . S
C2113 H2087 0.950 . S
C2113 C2112 1.414 . S
C2113 C2114 1.374 . S
C2114 H2088 0.950 . S
C2114 C2110 1.385 . S
C2114 C2113 1.374 . S
C2115 C2112 1.499 . S
C2115 C2116 1.373 . S
C2115 C2117 1.389 . S
C2116 H2089 0.950 . S
C2116 C2102 1.377 . S
C2116 C2115 1.373 . S
C2117 C2101 1.377 . S
C2117 C2115 1.389 . S
C2117 C2118 1.524 . S
C2118 C2117 1.524 . S
C2118 C2119 1.397 . S
C2118 C2123 1.363 . S
C2119 H2090 0.950 . S
C2119 C2118 1.397 . S
C2119 C2120 1.334 . S
C2120 H2091 0.950 . S
C2120 C2119 1.334 . S
C2120 C2121 1.287 . S
C2121 C2120 1.287 . S
C2121 C2122 1.524 . S
C2121 H2124 0.999 . S
C2122 H2092 0.950 . S
C2122 C2121 1.524 . S
C2122 C2123 1.415 . S
C2123 H2093 0.950 . S
C2123 C2118 1.363 . S
C2123 C2122 1.415 . S
H2124 C2121 0.999 . S
H2125 C2106 0.913 . S
H2126 C2144 0.951 . S
H2127 C2146 0.951 . S
H2128 C2148 0.950 . S
H2129 C2149 0.950 . S
H2130 C2151 0.950 . S
H2131 C2154 0.950 . S
H2132 C2155 0.950 . S
H2133 C2157 0.950 . S
H2134 C2158 0.950 . S
H2135 C2159 0.951 . S
H2136 C2161 0.951 . S
H2137 C2163 0.950 . S
H2138 C2164 0.950 . S
H2139 C2166 0.950 . S
H2140 C2169 0.950 . S
H2141 C2170 0.950 . S
H2142 C2172 0.950 . S
H2143 C2173 0.950 . S
C2144 H2126 0.951 . S
C2144 C2145 1.366 . S
C2144 C2146 1.388 . S
C2145 C2144 1.366 . S
C2145 C2149 1.385 . S
C2146 H2127 0.951 . S
C2146 C2144 1.388 . S
C2146 C2147 1.366 . S
C2147 C2146 1.366 . S
C2147 C2148 1.414 . S
C2147 C2150 1.499 . S
C2148 H2128 0.950 . S
C2148 C2147 1.414 . S
C2148 C2149 1.374 . S
C2149 H2129 0.950 . S
C2149 C2145 1.385 . S
C2149 C2148 1.374 . S
C2150 C2147 1.499 . S
C2150 C2151 1.373 . S
C2150 C2152 1.389 . S
C2151 H2130 0.950 . S
C2151 C2150 1.373 . S
C2151 C2167 1.377 . S
C2152 C2150 1.389 . S
C2152 C2153 1.524 . S
C2152 C2166 1.377 . S
C2153 C2152 1.524 . S
C2153 C2154 1.397 . S
C2153 C2158 1.363 . S
C2154 H2131 0.950 . S
C2154 C2153 1.397 . S
C2154 C2155 1.334 . S
C2155 H2132 0.950 . S
C2155 C2154 1.334 . S
C2155 C2156 1.287 . S
C2156 C2155 1.287 . S
C2156 C2157 1.524 . S
C2156 H2175 0.913 . S
C2157 H2133 0.950 . S
C2157 C2156 1.524 . S
C2157 C2158 1.415 . S
C2158 H2134 0.950 . S
C2158 C2153 1.363 . S
C2158 C2157 1.415 . S
C2159 H2135 0.951 . S
C2159 C2160 1.366 . S
C2159 C2161 1.388 . S
C2160 C2159 1.366 . S
C2160 C2164 1.385 . S
C2161 H2136 0.951 . S
C2161 C2159 1.388 . S
C2161 C2162 1.366 . S
C2162 C2161 1.366 . S
C2162 C2163 1.414 . S
C2162 C2165 1.499 . S
C2163 H2137 0.950 . S
C2163 C2162 1.414 . S
C2163 C2164 1.374 . S
C2164 H2138 0.950 . S
C2164 C2160 1.385 . S
C2164 C2163 1.374 . S
C2165 C2162 1.499 . S
C2165 C2166 1.373 . S
C2165 C2167 1.389 . S
C2166 H2139 0.950 . S
C2166 C2152 1.377 . S
C2166 C2165 1.373 . S
C2167 C2151 1.377 . S
C2167 C2165 1.389 . S
C2167 C2168 1.524 . S
C2168 C2167 1.524 . S
C2168 C2169 1.397 . S
C2168 C2173 1.363 . S
C2169 H2140 0.950 . S
C2169 C2168 1.397 . S
C2169 C2170 1.334 . S
C2170 H2141 0.950 . S
C2170 C2169 1.334 . S
C2170 C2171 1.287 . S
C2171 C2170 1.287 . S
C2171 C2172 1.524 . S
C2171 H2174 0.999 . S
C2172 H2142 0.950 . S
C2172 C2171 1.524 . S
C2172 C2173 1.415 . S
C2173 H2143 0.950 . S
C2173 C2168 1.363 . S
C2173 C2172 1.415 . S
H2174 C2171 0.999 . S
H2175 C2156 0.913 . S
H2176 C2194 0.951 . S
H2177 C2196 0.951 . S
H2178 C2198 0.950 . S
H2179 C2199 0.950 . S
H2180 C2201 0.950 . S
H2181 C2204 0.950 . S
H2182 C2205 0.950 . S
H2183 C2207 0.950 . S
H2184 C2208 0.950 . S
H2185 C2209 0.951 . S
H2186 C2211 0.951 . S
H2187 C2213 0.950 . S
H2188 C2214 0.950 . S
H2189 C2216 0.950 . S
H2190 C2219 0.950 . S
H2191 C2220 0.950 . S
H2192 C2222 0.950 . S
H2193 C2223 0.950 . S
C2194 H2176 0.951 . S
C2194 C2195 1.366 . S
C2194 C2196 1.388 . S
C2195 C2194 1.366 . S
C2195 C2199 1.385 . S
C2196 H2177 0.951 . S
C2196 C2194 1.388 . S
C2196 C2197 1.366 . S
C2197 C2196 1.366 . S
C2197 C2198 1.414 . S
C2197 C2200 1.499 . S
C2198 H2178 0.950 . S
C2198 C2197 1.414 . S
C2198 C2199 1.374 . S
C2199 H2179 0.950 . S
C2199 C2195 1.385 . S
C2199 C2198 1.374 . S
C2200 C2197 1.499 . S
C2200 C2201 1.373 . S
C2200 C2202 1.389 . S
C2201 H2180 0.950 . S
C2201 C2200 1.373 . S
C2201 C2217 1.377 . S
C2202 C2200 1.389 . S
C2202 C2203 1.524 . S
C2202 C2216 1.377 . S
C2203 C2202 1.524 . S
C2203 C2204 1.397 . S
C2203 C2208 1.363 . S
C2204 H2181 0.950 . S
C2204 C2203 1.397 . S
C2204 C2205 1.334 . S
C2205 H2182 0.950 . S
C2205 C2204 1.334 . S
C2205 C2206 1.287 . S
C2206 C2205 1.287 . S
C2206 C2207 1.524 . S
C2206 H2225 0.913 . S
C2207 H2183 0.950 . S
C2207 C2206 1.524 . S
C2207 C2208 1.415 . S
C2208 H2184 0.950 . S
C2208 C2203 1.363 . S
C2208 C2207 1.415 . S
C2209 H2185 0.951 . S
C2209 C2210 1.366 . S
C2209 C2211 1.388 . S
C2210 C2209 1.366 . S
C2210 C2214 1.385 . S
C2211 H2186 0.951 . S
C2211 C2209 1.388 . S
C2211 C2212 1.366 . S
C2212 C2211 1.366 . S
C2212 C2213 1.414 . S
C2212 C2215 1.499 . S
C2213 H2187 0.950 . S
C2213 C2212 1.414 . S
C2213 C2214 1.374 . S
C2214 H2188 0.950 . S
C2214 C2210 1.385 . S
C2214 C2213 1.374 . S
C2215 C2212 1.499 . S
C2215 C2216 1.373 . S
C2215 C2217 1.389 . S
C2216 H2189 0.950 . S
C2216 C2202 1.377 . S
C2216 C2215 1.373 . S
C2217 C2201 1.377 . S
C2217 C2215 1.389 . S
C2217 C2218 1.524 . S
C2218 C2217 1.524 . S
C2218 C2219 1.397 . S
C2218 C2223 1.363 . S
C2219 H2190 0.950 . S
C2219 C2218 1.397 . S
C2219 C2220 1.334 1_554 S
C2220 H2191 0.950 . S
C2220 C2219 1.334 1_556 S
C2220 C2221 1.287 . S
C2221 C2220 1.287 . S
C2221 C2222 1.524 . S
C2221 H2224 0.999 . S
C2222 H2192 0.950 . S
C2222 C2221 1.524 . S
C2222 C2223 1.415 1_556 S
C2223 H2193 0.950 . S
C2223 C2218 1.363 . S
C2223 C2222 1.415 1_554 S
H2224 C2221 0.999 . S
H2225 C2206 0.913 . S
H2226 C2244 0.951 . S
H2227 C2246 0.951 . S
H2228 C2248 0.950 . S
H2229 C2249 0.950 . S
H2230 C2251 0.950 . S
H2231 C2254 0.950 . S
H2232 C2255 0.950 . S
H2233 C2257 0.950 . S
H2234 C2258 0.950 . S
H2235 C2259 0.951 . S
H2236 C2261 0.951 . S
H2237 C2263 0.950 . S
H2238 C2264 0.950 . S
H2239 C2266 0.950 . S
H2240 C2269 0.950 . S
H2241 C2270 0.950 . S
H2242 C2272 0.950 . S
H2243 C2273 0.950 . S
C2244 H2226 0.951 . S
C2244 C2245 1.366 . S
C2244 C2246 1.388 . S
C2245 C2244 1.366 . S
C2245 C2249 1.385 . S
C2246 H2227 0.951 . S
C2246 C2244 1.388 . S
C2246 C2247 1.366 . S
C2247 C2246 1.366 . S
C2247 C2248 1.414 . S
C2247 C2250 1.499 . S
C2248 H2228 0.950 . S
C2248 C2247 1.414 . S
C2248 C2249 1.374 . S
C2249 H2229 0.950 . S
C2249 C2245 1.385 . S
C2249 C2248 1.374 . S
C2250 C2247 1.499 . S
C2250 C2251 1.373 . S
C2250 C2252 1.389 . S
C2251 H2230 0.950 . S
C2251 C2250 1.373 . S
C2251 C2267 1.377 . S
C2252 C2250 1.389 . S
C2252 C2253 1.524 . S
C2252 C2266 1.377 . S
C2253 C2252 1.524 . S
C2253 C2254 1.397 . S
C2253 C2258 1.363 . S
C2254 H2231 0.950 . S
C2254 C2253 1.397 . S
C2254 C2255 1.334 . S
C2255 H2232 0.950 . S
C2255 C2254 1.334 . S
C2255 C2256 1.287 . S
C2256 C2255 1.287 . S
C2256 C2257 1.524 . S
C2256 H2275 0.913 . S
C2257 H2233 0.950 . S
C2257 C2256 1.524 . S
C2257 C2258 1.415 . S
C2258 H2234 0.950 . S
C2258 C2253 1.363 . S
C2258 C2257 1.415 . S
C2259 H2235 0.951 . S
C2259 C2260 1.366 . S
C2259 C2261 1.388 . S
C2260 C2259 1.366 . S
C2260 C2264 1.385 . S
C2261 H2236 0.951 . S
C2261 C2259 1.388 . S
C2261 C2262 1.366 . S
C2262 C2261 1.366 . S
C2262 C2263 1.414 . S
C2262 C2265 1.499 . S
C2263 H2237 0.950 . S
C2263 C2262 1.414 . S
C2263 C2264 1.374 . S
C2264 H2238 0.950 . S
C2264 C2260 1.385 . S
C2264 C2263 1.374 . S
C2265 C2262 1.499 . S
C2265 C2266 1.373 . S
C2265 C2267 1.389 . S
C2266 H2239 0.950 . S
C2266 C2252 1.377 . S
C2266 C2265 1.373 . S
C2267 C2251 1.377 . S
C2267 C2265 1.389 . S
C2267 C2268 1.524 . S
C2268 C2267 1.524 . S
C2268 C2269 1.397 . S
C2268 C2273 1.363 . S
C2269 H2240 0.950 . S
C2269 C2268 1.397 . S
C2269 C2270 1.334 . S
C2270 H2241 0.950 . S
C2270 C2269 1.334 . S
C2270 C2271 1.287 . S
C2271 C2270 1.287 . S
C2271 C2272 1.524 . S
C2271 H2274 0.999 . S
C2272 H2242 0.950 . S
C2272 C2271 1.524 . S
C2272 C2273 1.415 . S
C2273 H2243 0.950 . S
C2273 C2268 1.363 . S
C2273 C2272 1.415 . S
H2274 C2271 0.999 . S
H2275 C2256 0.913 . S
H2276 C2294 0.951 . S
H2277 C2296 0.951 . S
H2278 C2298 0.950 . S
H2279 C2299 0.950 . S
H2280 C2301 0.950 . S
H2281 C2304 0.950 . S
H2282 C2305 0.950 . S
H2283 C2307 0.950 . S
H2284 C2308 0.950 . S
H2285 C2309 0.951 . S
H2286 C2311 0.951 . S
H2287 C2313 0.950 . S
H2288 C2314 0.950 . S
H2289 C2316 0.950 . S
H2290 C2319 0.950 . S
H2291 C2320 0.950 . S
H2292 C2322 0.950 . S
H2293 C2323 0.950 . S
C2294 H2276 0.951 . S
C2294 C2295 1.366 . S
C2294 C2296 1.388 . S
C2295 C2294 1.366 . S
C2295 C2299 1.385 . S
C2296 H2277 0.951 . S
C2296 C2294 1.388 . S
C2296 C2297 1.366 . S
C2297 C2296 1.366 . S
C2297 C2298 1.414 . S
C2297 C2300 1.499 . S
C2298 H2278 0.950 . S
C2298 C2297 1.414 . S
C2298 C2299 1.374 . S
C2299 H2279 0.950 . S
C2299 C2295 1.385 . S
C2299 C2298 1.374 . S
C2300 C2297 1.499 . S
C2300 C2301 1.373 . S
C2300 C2302 1.389 . S
C2301 H2280 0.950 . S
C2301 C2300 1.373 . S
C2301 C2317 1.377 . S
C2302 C2300 1.389 . S
C2302 C2303 1.524 . S
C2302 C2316 1.377 . S
C2303 C2302 1.524 . S
C2303 C2304 1.397 . S
C2303 C2308 1.363 . S
C2304 H2281 0.950 . S
C2304 C2303 1.397 . S
C2304 C2305 1.334 . S
C2305 H2282 0.950 . S
C2305 C2304 1.334 . S
C2305 C2306 1.287 . S
C2306 C2305 1.287 . S
C2306 C2307 1.524 . S
C2306 H2325 0.913 . S
C2307 H2283 0.950 . S
C2307 C2306 1.524 . S
C2307 C2308 1.415 . S
C2308 H2284 0.950 . S
C2308 C2303 1.363 . S
C2308 C2307 1.415 . S
C2309 H2285 0.951 . S
C2309 C2310 1.366 . S
C2309 C2311 1.388 . S
C2310 C2309 1.366 . S
C2310 C2314 1.385 . S
C2311 H2286 0.951 . S
C2311 C2309 1.388 . S
C2311 C2312 1.366 . S
C2312 C2311 1.366 . S
C2312 C2313 1.414 . S
C2312 C2315 1.499 . S
C2313 H2287 0.950 . S
C2313 C2312 1.414 . S
C2313 C2314 1.374 . S
C2314 H2288 0.950 . S
C2314 C2310 1.385 . S
C2314 C2313 1.374 . S
C2315 C2312 1.499 . S
C2315 C2316 1.373 . S
C2315 C2317 1.389 . S
C2316 H2289 0.950 . S
C2316 C2302 1.377 . S
C2316 C2315 1.373 . S
C2317 C2301 1.377 . S
C2317 C2315 1.389 . S
C2317 C2318 1.524 . S
C2318 C2317 1.524 . S
C2318 C2319 1.397 . S
C2318 C2323 1.363 . S
C2319 H2290 0.950 . S
C2319 C2318 1.397 . S
C2319 C2320 1.334 . S
C2320 H2291 0.950 . S
C2320 C2319 1.334 . S
C2320 C2321 1.287 . S
C2321 C2320 1.287 . S
C2321 C2322 1.524 . S
C2321 H2324 0.999 . S
C2322 H2292 0.950 . S
C2322 C2321 1.524 . S
C2322 C2323 1.415 . S
C2323 H2293 0.950 . S
C2323 C2318 1.363 . S
C2323 C2322 1.415 . S
H2324 C2321 0.999 . S
H2325 C2306 0.913 . S
H2326 C2344 0.951 . S
H2327 C2346 0.951 . S
H2328 C2348 0.950 . S
H2329 C2349 0.950 . S
H2330 C2351 0.950 . S
H2331 C2354 0.950 . S
H2332 C2355 0.950 . S
H2333 C2357 0.950 . S
H2334 C2358 0.950 . S
H2335 C2359 0.951 . S
H2336 C2361 0.951 . S
H2337 C2363 0.950 . S
H2338 C2364 0.950 . S
H2339 C2366 0.950 . S
H2340 C2369 0.950 . S
H2341 C2370 0.950 . S
H2342 C2372 0.950 . S
H2343 C2373 0.950 . S
C2344 H2326 0.951 . S
C2344 C2345 1.366 . S
C2344 C2346 1.388 . S
C2345 C2344 1.366 . S
C2345 C2349 1.385 . S
C2346 H2327 0.951 . S
C2346 C2344 1.388 . S
C2346 C2347 1.366 . S
C2347 C2346 1.366 . S
C2347 C2348 1.414 . S
C2347 C2350 1.499 . S
C2348 H2328 0.950 . S
C2348 C2347 1.414 . S
C2348 C2349 1.374 . S
C2349 H2329 0.950 . S
C2349 C2345 1.385 . S
C2349 C2348 1.374 . S
C2350 C2347 1.499 . S
C2350 C2351 1.373 . S
C2350 C2352 1.389 . S
C2351 H2330 0.950 . S
C2351 C2350 1.373 . S
C2351 C2367 1.377 . S
C2352 C2350 1.389 . S
C2352 C2353 1.524 . S
C2352 C2366 1.377 . S
C2353 C2352 1.524 . S
C2353 C2354 1.397 . S
C2353 C2358 1.363 . S
C2354 H2331 0.950 . S
C2354 C2353 1.397 . S
C2354 C2355 1.334 . S
C2355 H2332 0.950 . S
C2355 C2354 1.334 . S
C2355 C2356 1.287 . S
C2356 C2355 1.287 . S
C2356 C2357 1.524 . S
C2356 H2375 0.913 . S
C2357 H2333 0.950 . S
C2357 C2356 1.524 . S
C2357 C2358 1.415 . S
C2358 H2334 0.950 . S
C2358 C2353 1.363 . S
C2358 C2357 1.415 . S
C2359 H2335 0.951 . S
C2359 C2360 1.366 . S
C2359 C2361 1.388 . S
C2360 C2359 1.366 . S
C2360 C2364 1.385 . S
C2361 H2336 0.951 . S
C2361 C2359 1.388 . S
C2361 C2362 1.366 . S
C2362 C2361 1.366 . S
C2362 C2363 1.414 . S
C2362 C2365 1.499 . S
C2363 H2337 0.950 . S
C2363 C2362 1.414 . S
C2363 C2364 1.374 . S
C2364 H2338 0.950 . S
C2364 C2360 1.385 . S
C2364 C2363 1.374 . S
C2365 C2362 1.499 . S
C2365 C2366 1.373 . S
C2365 C2367 1.389 . S
C2366 H2339 0.950 . S
C2366 C2352 1.377 . S
C2366 C2365 1.373 . S
C2367 C2351 1.377 . S
C2367 C2365 1.389 . S
C2367 C2368 1.524 . S
C2368 C2367 1.524 . S
C2368 C2369 1.397 . S
C2368 C2373 1.363 . S
C2369 H2340 0.950 . S
C2369 C2368 1.397 . S
C2369 C2370 1.334 . S
C2370 H2341 0.950 . S
C2370 C2369 1.334 . S
C2370 C2371 1.287 . S
C2371 C2370 1.287 . S
C2371 C2372 1.524 . S
C2371 H2374 0.999 . S
C2372 H2342 0.950 . S
C2372 C2371 1.524 . S
C2372 C2373 1.415 . S
C2373 H2343 0.950 . S
C2373 C2368 1.363 . S
C2373 C2372 1.415 . S
H2374 C2371 0.999 . S
H2375 C2356 0.913 . S
H2376 C2394 0.951 . S
H2377 C2396 0.951 . S
H2378 C2398 0.950 . S
H2379 C2399 0.950 . S
H2380 C2401 0.950 . S
H2381 C2404 0.950 . S
H2382 C2405 0.950 . S
H2383 C2407 0.950 . S
H2384 C2408 0.950 . S
H2385 C2409 0.951 . S
H2386 C2411 0.951 . S
H2387 C2413 0.950 . S
H2388 C2414 0.950 . S
H2389 C2416 0.950 . S
H2390 C2419 0.950 . S
H2391 C2420 0.950 . S
H2392 C2422 0.950 . S
H2393 C2423 0.950 . S
C2394 H2376 0.951 . S
C2394 C2395 1.366 . S
C2394 C2396 1.388 . S
C2395 C2394 1.366 . S
C2395 C2399 1.385 . S
C2396 H2377 0.951 . S
C2396 C2394 1.388 . S
C2396 C2397 1.366 . S
C2397 C2396 1.366 . S
C2397 C2398 1.414 . S
C2397 C2400 1.499 . S
C2398 H2378 0.950 . S
C2398 C2397 1.414 . S
C2398 C2399 1.374 . S
C2399 H2379 0.950 . S
C2399 C2395 1.385 . S
C2399 C2398 1.374 . S
C2400 C2397 1.499 . S
C2400 C2401 1.373 . S
C2400 C2402 1.389 . S
C2401 H2380 0.950 . S
C2401 C2400 1.373 . S
C2401 C2417 1.377 . S
C2402 C2400 1.389 . S
C2402 C2403 1.524 . S
C2402 C2416 1.377 . S
C2403 C2402 1.524 . S
C2403 C2404 1.397 . S
C2403 C2408 1.363 . S
C2404 H2381 0.950 . S
C2404 C2403 1.397 . S
C2404 C2405 1.334 . S
C2405 H2382 0.950 . S
C2405 C2404 1.334 . S
C2405 C2406 1.327 . S
C2406 C2405 1.327 . S
C2406 C2407 1.522 1_455 S
C2406 H2425 0.873 1_455 S
C2407 H2383 0.950 . S
C2407 C2406 1.522 1_655 S
C2407 C2408 1.415 1_655 S
C2408 H2384 0.950 . S
C2408 C2403 1.363 . S
C2408 C2407 1.415 1_455 S
C2409 H2385 0.951 . S
C2409 C2410 1.366 . S
C2409 C2411 1.388 . S
C2410 C2409 1.366 . S
C2410 C2414 1.385 . S
C2411 H2386 0.951 . S
C2411 C2409 1.388 . S
C2411 C2412 1.366 . S
C2412 C2411 1.366 . S
C2412 C2413 1.414 . S
C2412 C2415 1.499 . S
C2413 H2387 0.950 . S
C2413 C2412 1.414 . S
C2413 C2414 1.374 . S
C2414 H2388 0.950 . S
C2414 C2410 1.385 . S
C2414 C2413 1.374 . S
C2415 C2412 1.499 . S
C2415 C2416 1.373 . S
C2415 C2417 1.389 . S
C2416 H2389 0.950 . S
C2416 C2402 1.377 . S
C2416 C2415 1.373 . S
C2417 C2401 1.377 . S
C2417 C2415 1.389 . S
C2417 C2418 1.524 . S
C2418 C2417 1.524 . S
C2418 C2419 1.397 . S
C2418 C2423 1.363 . S
C2419 H2390 0.950 . S
C2419 C2418 1.397 . S
C2419 C2420 1.334 . S
C2420 H2391 0.950 . S
C2420 C2419 1.334 . S
C2420 C2421 1.287 . S
C2421 C2420 1.287 . S
C2421 C2422 1.524 . S
C2421 H2424 0.999 . S
C2422 H2392 0.950 . S
C2422 C2421 1.524 . S
C2422 C2423 1.415 . S
C2423 H2393 0.950 . S
C2423 C2418 1.363 . S
C2423 C2422 1.415 . S
H2424 C2421 0.999 . S
H2425 C2406 0.873 1_655 S
H2426 C2444 0.951 . S
H2427 C2446 0.951 . S
H2428 C2448 0.950 . S
H2429 C2449 0.950 . S
H2430 C2451 0.950 . S
H2431 C2454 0.950 . S
H2432 C2455 0.950 . S
H2433 C2457 0.950 . S
H2434 C2458 0.950 . S
H2435 C2459 0.951 . S
H2436 C2461 0.951 . S
H2437 C2463 0.950 . S
H2438 C2464 0.950 . S
H2439 C2466 0.950 . S
H2440 C2469 0.950 . S
H2441 C2470 0.950 . S
H2442 C2472 0.950 . S
H2443 C2473 0.950 . S
C2444 H2426 0.951 . S
C2444 C2445 1.366 . S
C2444 C2446 1.388 . S
C2445 C2444 1.366 . S
C2445 C2449 1.385 . S
C2446 H2427 0.951 . S
C2446 C2444 1.388 . S
C2446 C2447 1.366 . S
C2447 C2446 1.366 . S
C2447 C2448 1.414 . S
C2447 C2450 1.499 . S
C2448 H2428 0.950 . S
C2448 C2447 1.414 . S
C2448 C2449 1.374 . S
C2449 H2429 0.950 . S
C2449 C2445 1.385 . S
C2449 C2448 1.374 . S
C2450 C2447 1.499 . S
C2450 C2451 1.373 . S
C2450 C2452 1.389 . S
C2451 H2430 0.950 . S
C2451 C2450 1.373 . S
C2451 C2467 1.377 . S
C2452 C2450 1.389 . S
C2452 C2453 1.524 . S
C2452 C2466 1.377 . S
C2453 C2452 1.524 . S
C2453 C2454 1.397 . S
C2453 C2458 1.363 . S
C2454 H2431 0.950 . S
C2454 C2453 1.397 . S
C2454 C2455 1.334 . S
C2455 H2432 0.950 . S
C2455 C2454 1.334 . S
C2455 C2456 1.287 . S
C2456 C2455 1.287 . S
C2456 C2457 1.524 . S
C2456 H2475 0.913 . S
C2457 H2433 0.950 . S
C2457 C2456 1.524 . S
C2457 C2458 1.415 . S
C2458 H2434 0.950 . S
C2458 C2453 1.363 . S
C2458 C2457 1.415 . S
C2459 H2435 0.951 . S
C2459 C2460 1.366 . S
C2459 C2461 1.388 . S
C2460 C2459 1.366 . S
C2460 C2464 1.385 . S
C2461 H2436 0.951 . S
C2461 C2459 1.388 . S
C2461 C2462 1.366 . S
C2462 C2461 1.366 . S
C2462 C2463 1.414 . S
C2462 C2465 1.499 . S
C2463 H2437 0.950 . S
C2463 C2462 1.414 . S
C2463 C2464 1.374 . S
C2464 H2438 0.950 . S
C2464 C2460 1.385 . S
C2464 C2463 1.374 . S
C2465 C2462 1.499 . S
C2465 C2466 1.373 . S
C2465 C2467 1.389 . S
C2466 H2439 0.950 . S
C2466 C2452 1.377 . S
C2466 C2465 1.373 . S
C2467 C2451 1.377 . S
C2467 C2465 1.389 . S
C2467 C2468 1.524 . S
C2468 C2467 1.524 . S
C2468 C2469 1.397 . S
C2468 C2473 1.363 . S
C2469 H2440 0.950 . S
C2469 C2468 1.397 . S
C2469 C2470 1.334 . S
C2470 H2441 0.950 . S
C2470 C2469 1.334 . S
C2470 C2471 1.287 . S
C2471 C2470 1.287 . S
C2471 C2472 1.524 . S
C2471 H2474 0.999 . S
C2472 H2442 0.950 . S
C2472 C2471 1.524 . S
C2472 C2473 1.415 . S
C2473 H2443 0.950 . S
C2473 C2468 1.363 . S
C2473 C2472 1.415 . S
H2474 C2471 0.999 . S
H2475 C2456 0.913 . S
H2476 C2494 0.951 . S
H2477 C2496 0.951 . S
H2478 C2498 0.950 . S
H2479 C2499 0.950 . S
H2480 C2501 0.950 . S
H2481 C2504 0.950 . S
H2482 C2505 0.950 . S
H2483 C2507 0.950 . S
H2484 C2508 0.950 . S
H2485 C2509 0.951 . S
H2486 C2511 0.951 . S
H2487 C2513 0.950 . S
H2488 C2514 0.950 1_545 S
H2489 C2516 0.950 . S
H2490 C2519 0.950 . S
H2491 C2520 0.950 . S
H2492 C2522 0.950 . S
H2493 C2523 0.950 . S
C2494 H2476 0.951 . S
C2494 C2495 1.366 . S
C2494 C2496 1.388 . S
C2495 C2494 1.366 . S
C2495 C2499 1.385 . S
C2496 H2477 0.951 . S
C2496 C2494 1.388 . S
C2496 C2497 1.366 . S
C2497 C2496 1.366 . S
C2497 C2498 1.414 . S
C2497 C2500 1.499 . S
C2498 H2478 0.950 . S
C2498 C2497 1.414 . S
C2498 C2499 1.374 . S
C2499 H2479 0.950 . S
C2499 C2495 1.385 . S
C2499 C2498 1.374 . S
C2500 C2497 1.499 . S
C2500 C2501 1.373 . S
C2500 C2502 1.389 . S
C2501 H2480 0.950 . S
C2501 C2500 1.373 . S
C2501 C2517 1.377 . S
C2502 C2500 1.389 . S
C2502 C2503 1.524 . S
C2502 C2516 1.377 . S
C2503 C2502 1.524 . S
C2503 C2504 1.397 . S
C2503 C2508 1.363 . S
C2504 H2481 0.950 . S
C2504 C2503 1.397 . S
C2504 C2505 1.334 . S
C2505 H2482 0.950 . S
C2505 C2504 1.334 . S
C2505 C2506 1.287 . S
C2506 C2505 1.287 . S
C2506 C2507 1.524 . S
C2506 H2525 0.913 . S
C2507 H2483 0.950 . S
C2507 C2506 1.524 . S
C2507 C2508 1.415 . S
C2508 H2484 0.950 . S
C2508 C2503 1.363 . S
C2508 C2507 1.415 . S
C2509 H2485 0.951 . S
C2509 C2510 1.366 . S
C2509 C2511 1.388 . S
C2510 C2509 1.366 . S
C2510 C2514 1.385 . S
C2511 H2486 0.951 . S
C2511 C2509 1.388 . S
C2511 C2512 1.366 . S
C2512 C2511 1.366 . S
C2512 C2513 1.414 . S
C2512 C2515 1.499 . S
C2513 H2487 0.950 . S
C2513 C2512 1.414 . S
C2513 C2514 1.374 . S
C2514 H2488 0.950 1_565 S
C2514 C2510 1.385 . S
C2514 C2513 1.374 . S
C2515 C2512 1.499 . S
C2515 C2516 1.373 . S
C2515 C2517 1.389 . S
C2516 H2489 0.950 . S
C2516 C2502 1.377 . S
C2516 C2515 1.373 . S
C2517 C2501 1.377 . S
C2517 C2515 1.389 . S
C2517 C2518 1.524 . S
C2518 C2517 1.524 . S
C2518 C2519 1.397 . S
C2518 C2523 1.363 . S
C2519 H2490 0.950 . S
C2519 C2518 1.397 . S
C2519 C2520 1.334 . S
C2520 H2491 0.950 . S
C2520 C2519 1.334 . S
C2520 C2521 1.287 . S
C2521 C2520 1.287 . S
C2521 C2522 1.524 . S
C2521 H2524 0.999 . S
C2522 H2492 0.950 . S
C2522 C2521 1.524 . S
C2522 C2523 1.415 . S
C2523 H2493 0.950 . S
C2523 C2518 1.363 . S
C2523 C2522 1.415 . S
H2524 C2521 0.999 . S
H2525 C2506 0.913 . S
H2526 C2544 0.951 . S
H2527 C2546 0.951 . S
H2528 C2548 0.950 . S
H2529 C2549 0.950 . S
H2530 C2551 0.950 . S
H2531 C2554 0.950 . S
H2532 C2555 0.950 . S
H2533 C2557 0.950 . S
H2534 C2558 0.950 . S
H2535 C2559 0.951 . S
H2536 C2561 0.951 . S
H2537 C2563 0.950 . S
H2538 C2564 0.950 . S
H2539 C2566 0.950 . S
H2540 C2569 0.950 . S
H2541 C2570 0.950 . S
H2542 C2572 0.950 . S
H2543 C2573 0.950 . S
C2544 H2526 0.951 . S
C2544 C2545 1.366 . S
C2544 C2546 1.388 . S
C2545 C2544 1.366 . S
C2545 C2549 1.385 . S
C2546 H2527 0.951 . S
C2546 C2544 1.388 . S
C2546 C2547 1.366 . S
C2547 C2546 1.366 . S
C2547 C2548 1.414 . S
C2547 C2550 1.499 . S
C2548 H2528 0.950 . S
C2548 C2547 1.414 . S
C2548 C2549 1.374 . S
C2549 H2529 0.950 . S
C2549 C2545 1.385 . S
C2549 C2548 1.374 . S
C2550 C2547 1.499 . S
C2550 C2551 1.373 . S
C2550 C2552 1.389 . S
C2551 H2530 0.950 . S
C2551 C2550 1.373 . S
C2551 C2567 1.377 . S
C2552 C2550 1.389 . S
C2552 C2553 1.524 . S
C2552 C2566 1.377 . S
C2553 C2552 1.524 . S
C2553 C2554 1.397 . S
C2553 C2558 1.363 . S
C2554 H2531 0.950 . S
C2554 C2553 1.397 . S
C2554 C2555 1.334 . S
C2555 H2532 0.950 . S
C2555 C2554 1.334 . S
C2555 C2556 1.287 . S
C2556 C2555 1.287 . S
C2556 C2557 1.524 . S
C2556 H2575 0.913 . S
C2557 H2533 0.950 . S
C2557 C2556 1.524 . S
C2557 C2558 1.415 . S
C2558 H2534 0.950 . S
C2558 C2553 1.363 . S
C2558 C2557 1.415 . S
C2559 H2535 0.951 . S
C2559 C2560 1.366 . S
C2559 C2561 1.388 . S
C2560 C2559 1.366 . S
C2560 C2564 1.385 . S
C2561 H2536 0.951 . S
C2561 C2559 1.388 . S
C2561 C2562 1.366 . S
C2562 C2561 1.366 . S
C2562 C2563 1.414 . S
C2562 C2565 1.499 . S
C2563 H2537 0.950 . S
C2563 C2562 1.414 . S
C2563 C2564 1.374 . S
C2564 H2538 0.950 . S
C2564 C2560 1.385 . S
C2564 C2563 1.374 . S
C2565 C2562 1.499 . S
C2565 C2566 1.373 . S
C2565 C2567 1.389 . S
C2566 H2539 0.950 . S
C2566 C2552 1.377 . S
C2566 C2565 1.373 . S
C2567 C2551 1.377 . S
C2567 C2565 1.389 . S
C2567 C2568 1.524 . S
C2568 C2567 1.524 . S
C2568 C2569 1.397 . S
C2568 C2573 1.363 . S
C2569 H2540 0.950 . S
C2569 C2568 1.397 . S
C2569 C2570 1.334 . S
C2570 H2541 0.950 . S
C2570 C2569 1.334 . S
C2570 C2571 1.287 . S
C2571 C2570 1.287 . S
C2571 C2572 1.524 . S
C2571 H2574 0.999 . S
C2572 H2542 0.950 . S
C2572 C2571 1.524 . S
C2572 C2573 1.415 . S
C2573 H2543 0.950 . S
C2573 C2568 1.363 . S
C2573 C2572 1.415 . S
H2574 C2571 0.999 . S
H2575 C2556 0.913 . S
H2576 C2594 0.951 . S
H2577 C2596 0.951 . S
H2578 C2598 0.950 1_565 S
H2579 C2599 0.952 . S
H2580 C2601 0.950 . S
H2581 C2604 0.950 . S
H2582 C2605 0.950 . S
H2583 C2607 0.950 . S
H2584 C2608 0.950 . S
H2585 C2609 0.951 . S
H2586 C2611 0.951 . S
H2587 C2613 0.950 . S
H2588 C2614 0.950 . S
H2589 C2616 0.950 . S
H2590 C2619 0.950 . S
H2591 C2620 0.950 . S
H2592 C2622 0.950 . S
H2593 C2623 0.950 . S
C2594 H2576 0.951 . S
C2594 C2595 1.366 . S
C2594 C2596 1.388 . S
C2595 C2594 1.366 . S
C2595 C2599 1.383 1_545 S
C2596 H2577 0.951 . S
C2596 C2594 1.388 . S
C2596 C2597 1.366 . S
C2597 C2596 1.366 . S
C2597 C2598 1.414 . S
C2597 C2600 1.499 . S
C2598 H2578 0.950 1_545 S
C2598 C2597 1.414 . S
C2598 C2599 1.374 1_545 S
C2599 H2579 0.952 . S
C2599 C2595 1.383 1_565 S
C2599 C2598 1.374 1_565 S
C2600 C2597 1.499 . S
C2600 C2601 1.373 1_545 S
C2600 C2602 1.389 . S
C2601 H2580 0.950 . S
C2601 C2600 1.373 1_565 S
C2601 C2617 1.377 . S
C2602 C2600 1.389 . S
C2602 C2603 1.524 . S
C2602 C2616 1.377 . S
C2603 C2602 1.524 . S
C2603 C2604 1.397 . S
C2603 C2608 1.363 . S
C2604 H2581 0.950 . S
C2604 C2603 1.397 . S
C2604 C2605 1.334 . S
C2605 H2582 0.950 . S
C2605 C2604 1.334 . S
C2605 C2606 1.287 . S
C2606 C2605 1.287 . S
C2606 C2607 1.524 . S
C2606 H2625 0.913 . S
C2607 H2583 0.950 . S
C2607 C2606 1.524 . S
C2607 C2608 1.415 . S
C2608 H2584 0.950 . S
C2608 C2603 1.363 . S
C2608 C2607 1.415 . S
C2609 H2585 0.951 . S
C2609 C2610 1.366 . S
C2609 C2611 1.388 . S
C2610 C2609 1.366 . S
C2610 C2614 1.385 . S
C2611 H2586 0.951 . S
C2611 C2609 1.388 . S
C2611 C2612 1.366 . S
C2612 C2611 1.366 . S
C2612 C2613 1.414 . S
C2612 C2615 1.499 . S
C2613 H2587 0.950 . S
C2613 C2612 1.414 . S
C2613 C2614 1.374 . S
C2614 H2588 0.950 . S
C2614 C2610 1.385 . S
C2614 C2613 1.374 . S
C2615 C2612 1.499 . S
C2615 C2616 1.373 . S
C2615 C2617 1.389 1_545 S
C2616 H2589 0.950 . S
C2616 C2602 1.377 . S
C2616 C2615 1.373 . S
C2617 C2601 1.377 . S
C2617 C2615 1.389 1_565 S
C2617 C2618 1.524 . S
C2618 C2617 1.524 . S
C2618 C2619 1.397 . S
C2618 C2623 1.363 . S
C2619 H2590 0.950 . S
C2619 C2618 1.397 . S
C2619 C2620 1.334 . S
C2620 H2591 0.950 . S
C2620 C2619 1.334 . S
C2620 C2621 1.287 . S
C2621 C2620 1.287 . S
C2621 C2622 1.524 . S
C2621 H2624 0.999 . S
C2622 H2592 0.950 . S
C2622 C2621 1.524 . S
C2622 C2623 1.415 . S
C2623 H2593 0.950 . S
C2623 C2618 1.363 . S
C2623 C2622 1.415 . S
H2624 C2621 0.999 . S
H2625 C2606 0.913 . S
H2626 C2644 0.951 . S
H2627 C2646 0.951 . S
H2628 C2648 0.950 . S
H2629 C2649 0.950 . S
H2630 C2651 0.950 . S
H2631 C2654 0.950 . S
H2632 C2655 0.950 . S
H2633 C2657 0.950 . S
H2634 C2658 0.950 . S
H2635 C2659 0.951 . S
H2636 C2661 0.951 . S
H2637 C2663 0.950 . S
H2638 C2664 0.950 . S
H2639 C2666 0.950 . S
H2640 C2669 0.950 . S
H2641 C2670 0.950 . S
H2642 C2672 0.950 . S
H2643 C2673 0.950 . S
C2644 H2626 0.951 . S
C2644 C2645 1.366 . S
C2644 C2646 1.388 . S
C2645 C2644 1.366 . S
C2645 C2649 1.385 . S
C2646 H2627 0.951 . S
C2646 C2644 1.388 . S
C2646 C2647 1.366 . S
C2647 C2646 1.366 . S
C2647 C2648 1.414 . S
C2647 C2650 1.499 . S
C2648 H2628 0.950 . S
C2648 C2647 1.414 . S
C2648 C2649 1.374 . S
C2649 H2629 0.950 . S
C2649 C2645 1.385 . S
C2649 C2648 1.374 . S
C2650 C2647 1.499 . S
C2650 C2651 1.373 . S
C2650 C2652 1.389 . S
C2651 H2630 0.950 . S
C2651 C2650 1.373 . S
C2651 C2667 1.377 . S
C2652 C2650 1.389 . S
C2652 C2653 1.524 . S
C2652 C2666 1.377 . S
C2653 C2652 1.524 . S
C2653 C2654 1.397 . S
C2653 C2658 1.363 . S
C2654 H2631 0.950 . S
C2654 C2653 1.397 . S
C2654 C2655 1.334 . S
C2655 H2632 0.950 . S
C2655 C2654 1.334 . S
C2655 C2656 1.287 . S
C2656 C2655 1.287 . S
C2656 C2657 1.524 . S
C2656 H2675 0.913 . S
C2657 H2633 0.950 . S
C2657 C2656 1.524 . S
C2657 C2658 1.415 . S
C2658 H2634 0.950 . S
C2658 C2653 1.363 . S
C2658 C2657 1.415 . S
C2659 H2635 0.951 . S
C2659 C2660 1.366 . S
C2659 C2661 1.388 . S
C2660 C2659 1.366 . S
C2660 C2664 1.385 . S
C2661 H2636 0.951 . S
C2661 C2659 1.388 . S
C2661 C2662 1.366 . S
C2662 C2661 1.366 . S
C2662 C2663 1.414 . S
C2662 C2665 1.499 . S
C2663 H2637 0.950 . S
C2663 C2662 1.414 . S
C2663 C2664 1.374 . S
C2664 H2638 0.950 . S
C2664 C2660 1.385 . S
C2664 C2663 1.374 . S
C2665 C2662 1.499 . S
C2665 C2666 1.373 . S
C2665 C2667 1.389 . S
C2666 H2639 0.950 . S
C2666 C2652 1.377 . S
C2666 C2665 1.373 . S
C2667 C2651 1.377 . S
C2667 C2665 1.389 . S
C2667 C2668 1.524 . S
C2668 C2667 1.524 . S
C2668 C2669 1.397 . S
C2668 C2673 1.363 . S
C2669 H2640 0.950 . S
C2669 C2668 1.397 . S
C2669 C2670 1.334 . S
C2670 H2641 0.950 . S
C2670 C2669 1.334 . S
C2670 C2671 1.287 . S
C2671 C2670 1.287 . S
C2671 C2672 1.524 . S
C2671 H2674 0.999 . S
C2672 H2642 0.950 . S
C2672 C2671 1.524 . S
C2672 C2673 1.415 . S
C2673 H2643 0.950 . S
C2673 C2668 1.363 . S
C2673 C2672 1.415 . S
H2674 C2671 0.999 . S
H2675 C2656 0.913 . S
H2676 C2694 0.951 . S
H2677 C2696 0.951 . S
H2678 C2698 0.950 . S
H2679 C2699 0.950 . S
H2680 C2701 0.950 1_565 S
H2681 C2704 0.950 . S
H2682 C2705 0.950 . S
H2683 C2707 0.950 . S
H2684 C2708 0.950 . S
H2685 C2709 0.951 . S
H2686 C2711 0.951 . S
H2687 C2713 0.950 . S
H2688 C2714 0.950 . S
H2689 C2716 0.950 . S
H2690 C2719 0.950 . S
H2691 C2720 0.950 . S
H2692 C2722 0.950 . S
H2693 C2723 0.950 . S
C2694 H2676 0.951 . S
C2694 C2695 1.366 . S
C2694 C2696 1.388 . S
C2695 C2694 1.366 . S
C2695 C2699 1.385 . S
C2696 H2677 0.951 . S
C2696 C2694 1.388 . S
C2696 C2697 1.366 . S
C2697 C2696 1.366 . S
C2697 C2698 1.414 . S
C2697 C2700 1.499 . S
C2698 H2678 0.950 . S
C2698 C2697 1.414 . S
C2698 C2699 1.374 . S
C2699 H2679 0.950 . S
C2699 C2695 1.385 . S
C2699 C2698 1.374 . S
C2700 C2697 1.499 . S
C2700 C2701 1.373 . S
C2700 C2702 1.389 . S
C2701 H2680 0.950 1_545 S
C2701 C2700 1.373 . S
C2701 C2717 1.377 . S
C2702 C2700 1.389 . S
C2702 C2703 1.524 . S
C2702 C2716 1.377 . S
C2703 C2702 1.524 . S
C2703 C2704 1.397 . S
C2703 C2708 1.363 . S
C2704 H2681 0.950 . S
C2704 C2703 1.397 . S
C2704 C2705 1.334 . S
C2705 H2682 0.950 . S
C2705 C2704 1.334 . S
C2705 C2706 1.287 . S
C2706 C2705 1.287 . S
C2706 C2707 1.524 . S
C2706 H2725 0.913 . S
C2707 H2683 0.950 . S
C2707 C2706 1.524 . S
C2707 C2708 1.415 . S
C2708 H2684 0.950 . S
C2708 C2703 1.363 . S
C2708 C2707 1.415 . S
C2709 H2685 0.951 . S
C2709 C2710 1.366 . S
C2709 C2711 1.388 . S
C2710 C2709 1.366 . S
C2710 C2714 1.385 . S
C2711 H2686 0.951 . S
C2711 C2709 1.388 . S
C2711 C2712 1.366 . S
C2712 C2711 1.366 . S
C2712 C2713 1.414 . S
C2712 C2715 1.499 . S
C2713 H2687 0.950 . S
C2713 C2712 1.414 . S
C2713 C2714 1.374 . S
C2714 H2688 0.950 . S
C2714 C2710 1.385 . S
C2714 C2713 1.374 . S
C2715 C2712 1.499 . S
C2715 C2716 1.373 . S
C2715 C2717 1.389 . S
C2716 H2689 0.950 . S
C2716 C2702 1.377 . S
C2716 C2715 1.373 . S
C2717 C2701 1.377 . S
C2717 C2715 1.389 . S
C2717 C2718 1.524 1_545 S
C2718 C2717 1.524 1_565 S
C2718 C2719 1.397 . S
C2718 C2723 1.363 . S
C2719 H2690 0.950 . S
C2719 C2718 1.397 . S
C2719 C2720 1.334 . S
C2720 H2691 0.950 . S
C2720 C2719 1.334 . S
C2720 C2721 1.287 . S
C2721 C2720 1.287 . S
C2721 C2722 1.524 . S
C2721 H2724 0.999 . S
C2722 H2692 0.950 . S
C2722 C2721 1.524 . S
C2722 C2723 1.415 . S
C2723 H2693 0.950 . S
C2723 C2718 1.363 . S
C2723 C2722 1.415 . S
H2724 C2721 0.999 . S
H2725 C2706 0.913 . S
H2726 C2744 0.951 . S
H2727 C2746 0.951 . S
H2728 C2748 0.950 . S
H2729 C2749 0.950 . S
H2730 C2751 0.950 . S
H2731 C2754 0.950 . S
H2732 C2755 0.950 . S
H2733 C2757 0.950 . S
H2734 C2758 0.950 . S
H2735 C2759 0.951 . S
H2736 C2761 0.951 . S
H2737 C2763 0.950 . S
H2738 C2764 0.950 . S
H2739 C2766 0.950 . S
H2740 C2769 0.950 . S
H2741 C2770 0.950 . S
H2742 C2772 0.950 . S
H2743 C2773 0.950 . S
C2744 H2726 0.951 . S
C2744 C2745 1.366 . S
C2744 C2746 1.388 . S
C2745 C2744 1.366 . S
C2745 C2749 1.385 . S
C2746 H2727 0.951 . S
C2746 C2744 1.388 . S
C2746 C2747 1.366 . S
C2747 C2746 1.366 . S
C2747 C2748 1.414 . S
C2747 C2750 1.499 . S
C2748 H2728 0.950 . S
C2748 C2747 1.414 . S
C2748 C2749 1.374 . S
C2749 H2729 0.950 . S
C2749 C2745 1.385 . S
C2749 C2748 1.374 . S
C2750 C2747 1.499 . S
C2750 C2751 1.373 . S
C2750 C2752 1.389 . S
C2751 H2730 0.950 . S
C2751 C2750 1.373 . S
C2751 C2767 1.377 . S
C2752 C2750 1.389 . S
C2752 C2753 1.524 . S
C2752 C2766 1.377 . S
C2753 C2752 1.524 . S
C2753 C2754 1.397 . S
C2753 C2758 1.363 . S
C2754 H2731 0.950 . S
C2754 C2753 1.397 . S
C2754 C2755 1.334 . S
C2755 H2732 0.950 . S
C2755 C2754 1.334 . S
C2755 C2756 1.287 . S
C2756 C2755 1.287 . S
C2756 C2757 1.524 . S
C2756 H2775 0.913 . S
C2757 H2733 0.950 . S
C2757 C2756 1.524 . S
C2757 C2758 1.415 . S
C2758 H2734 0.950 . S
C2758 C2753 1.363 . S
C2758 C2757 1.415 . S
C2759 H2735 0.951 . S
C2759 C2760 1.366 . S
C2759 C2761 1.388 . S
C2760 C2759 1.366 . S
C2760 C2764 1.385 . S
C2761 H2736 0.951 . S
C2761 C2759 1.388 . S
C2761 C2762 1.366 . S
C2762 C2761 1.366 . S
C2762 C2763 1.414 . S
C2762 C2765 1.499 . S
C2763 H2737 0.950 . S
C2763 C2762 1.414 . S
C2763 C2764 1.374 . S
C2764 H2738 0.950 . S
C2764 C2760 1.385 . S
C2764 C2763 1.374 . S
C2765 C2762 1.499 . S
C2765 C2766 1.373 . S
C2765 C2767 1.389 . S
C2766 H2739 0.950 . S
C2766 C2752 1.377 . S
C2766 C2765 1.373 . S
C2767 C2751 1.377 . S
C2767 C2765 1.389 . S
C2767 C2768 1.524 . S
C2768 C2767 1.524 . S
C2768 C2769 1.397 . S
C2768 C2773 1.363 . S
C2769 H2740 0.950 . S
C2769 C2768 1.397 . S
C2769 C2770 1.334 . S
C2770 H2741 0.950 . S
C2770 C2769 1.334 . S
C2770 C2771 1.287 . S
C2771 C2770 1.287 . S
C2771 C2772 1.524 . S
C2771 H2774 0.999 . S
C2772 H2742 0.950 . S
C2772 C2771 1.524 . S
C2772 C2773 1.415 . S
C2773 H2743 0.950 . S
C2773 C2768 1.363 . S
C2773 C2772 1.415 . S
H2774 C2771 0.999 . S
H2775 C2756 0.913 . S
H2776 C2794 0.951 . S
H2777 C2796 0.951 . S
H2778 C2798 0.950 . S
H2779 C2799 0.950 . S
H2780 C2801 0.950 . S
H2781 C2804 0.950 1_545 S
H2782 C2805 0.950 . S
H2783 C2807 0.950 . S
H2784 C2808 0.950 . S
H2785 C2809 0.951 . S
H2786 C2811 0.951 . S
H2787 C2813 0.912 1_565 S
H2788 C2814 0.950 1_565 S
H2789 C2816 0.939 1_565 S
H2790 C2819 0.950 . S
H2791 C2820 0.950 . S
H2792 C2822 0.950 . S
H2793 C2823 0.950 . S
C2794 H2776 0.951 . S
C2794 C2795 1.366 . S
C2794 C2796 1.388 . S
C2795 C2794 1.366 . S
C2795 C2799 1.385 1_565 S
C2796 H2777 0.951 . S
C2796 C2794 1.388 . S
C2796 C2797 1.366 1_565 S
C2797 C2796 1.366 1_545 S
C2797 C2798 1.414 . S
C2797 C2800 1.499 . S
C2798 H2778 0.950 . S
C2798 C2797 1.414 . S
C2798 C2799 1.374 . S
C2799 H2779 0.950 . S
C2799 C2795 1.385 1_545 S
C2799 C2798 1.374 . S
C2800 C2797 1.499 . S
C2800 C2801 1.373 . S
C2800 C2802 1.389 1_545 S
C2801 H2780 0.950 . S
C2801 C2800 1.373 . S
C2801 C2817 1.377 . S
C2802 C2800 1.389 1_565 S
C2802 C2803 1.524 . S
C2802 C2816 1.365 1_565 S
C2803 C2802 1.524 . S
C2803 C2804 1.397 . S
C2803 C2808 1.363 . S
C2804 H2781 0.950 1_565 S
C2804 C2803 1.397 . S
C2804 C2805 1.334 . S
C2805 H2782 0.950 . S
C2805 C2804 1.334 . S
C2805 C2806 1.287 . S
C2806 C2805 1.287 . S
C2806 C2807 1.524 . S
C2806 H2825 0.913 . S
C2807 H2783 0.950 . S
C2807 C2806 1.524 . S
C2807 C2808 1.415 . S
C2808 H2784 0.950 . S
C2808 C2803 1.363 . S
C2808 C2807 1.415 . S
C2809 H2785 0.951 . S
C2809 C2810 1.366 . S
C2809 C2811 1.388 . S
C2810 C2809 1.366 . S
C2810 C2814 1.385 . S
C2811 H2786 0.951 . S
C2811 C2809 1.388 . S
C2811 C2812 1.366 . S
C2812 C2811 1.366 . S
C2812 C2813 1.436 . S
C2812 C2815 1.499 . S
C2813 H2787 0.912 1_545 S
C2813 C2812 1.436 . S
C2813 C2814 1.391 . S
C2814 H2788 0.950 1_545 S
C2814 C2810 1.385 . S
C2814 C2813 1.391 . S
C2815 C2812 1.499 . S
C2815 C2816 1.397 . S
C2815 C2817 1.389 . S
C2816 H2789 0.939 1_545 S
C2816 C2802 1.365 1_545 S
C2816 C2815 1.397 . S
C2817 C2801 1.377 . S
C2817 C2815 1.389 . S
C2817 C2818 1.524 . S
C2818 C2817 1.524 . S
C2818 C2819 1.397 . S
C2818 C2823 1.363 . S
C2819 H2790 0.950 . S
C2819 C2818 1.397 . S
C2819 C2820 1.334 . S
C2820 H2791 0.950 . S
C2820 C2819 1.334 . S
C2820 C2821 1.287 . S
C2821 C2820 1.287 . S
C2821 C2822 1.524 . S
C2821 H2824 0.999 . S
C2822 H2792 0.950 . S
C2822 C2821 1.524 . S
C2822 C2823 1.415 . S
C2823 H2793 0.950 . S
C2823 C2818 1.363 . S
C2823 C2822 1.415 . S
H2824 C2821 0.999 . S
H2825 C2806 0.913 . S
H2826 C2844 0.951 . S
H2827 C2846 0.951 . S
H2828 C2848 0.950 . S
H2829 C2849 0.950 . S
H2830 C2851 0.950 . S
H2831 C2854 0.950 . S
H2832 C2855 0.950 . S
H2833 C2857 0.950 . S
H2834 C2858 0.950 . S
H2835 C2859 0.951 . S
H2836 C2861 0.951 . S
H2837 C2863 0.950 . S
H2838 C2864 0.950 . S
H2839 C2866 0.950 . S
H2840 C2869 0.950 . S
H2841 C2870 0.950 . S
H2842 C2872 0.950 . S
H2843 C2873 0.950 . S
C2844 H2826 0.951 . S
C2844 C2845 1.366 . S
C2844 C2846 1.388 . S
C2845 C2844 1.366 . S
C2845 C2849 1.385 . S
C2846 H2827 0.951 . S
C2846 C2844 1.388 . S
C2846 C2847 1.366 . S
C2847 C2846 1.366 . S
C2847 C2848 1.414 . S
C2847 C2850 1.499 . S
C2848 H2828 0.950 . S
C2848 C2847 1.414 . S
C2848 C2849 1.374 . S
C2849 H2829 0.950 . S
C2849 C2845 1.385 . S
C2849 C2848 1.374 . S
C2850 C2847 1.499 . S
C2850 C2851 1.373 . S
C2850 C2852 1.389 . S
C2851 H2830 0.950 . S
C2851 C2850 1.373 . S
C2851 C2867 1.377 . S
C2852 C2850 1.389 . S
C2852 C2853 1.524 . S
C2852 C2866 1.377 . S
C2853 C2852 1.524 . S
C2853 C2854 1.397 . S
C2853 C2858 1.363 . S
C2854 H2831 0.950 . S
C2854 C2853 1.397 . S
C2854 C2855 1.334 . S
C2855 H2832 0.950 . S
C2855 C2854 1.334 . S
C2855 C2856 1.287 . S
C2856 C2855 1.287 . S
C2856 C2857 1.524 . S
C2856 H2875 0.913 . S
C2857 H2833 0.950 . S
C2857 C2856 1.524 . S
C2857 C2858 1.415 . S
C2858 H2834 0.950 . S
C2858 C2853 1.363 . S
C2858 C2857 1.415 . S
C2859 H2835 0.951 . S
C2859 C2860 1.366 . S
C2859 C2861 1.388 . S
C2860 C2859 1.366 . S
C2860 C2864 1.385 . S
C2861 H2836 0.951 . S
C2861 C2859 1.388 . S
C2861 C2862 1.366 . S
C2862 C2861 1.366 . S
C2862 C2863 1.414 . S
C2862 C2865 1.499 . S
C2863 H2837 0.950 . S
C2863 C2862 1.414 . S
C2863 C2864 1.374 . S
C2864 H2838 0.950 . S
C2864 C2860 1.385 . S
C2864 C2863 1.374 . S
C2865 C2862 1.499 . S
C2865 C2866 1.373 . S
C2865 C2867 1.389 . S
C2866 H2839 0.950 . S
C2866 C2852 1.377 . S
C2866 C2865 1.373 . S
C2867 C2851 1.377 . S
C2867 C2865 1.389 . S
C2867 C2868 1.524 . S
C2868 C2867 1.524 . S
C2868 C2869 1.397 . S
C2868 C2873 1.363 . S
C2869 H2840 0.950 . S
C2869 C2868 1.397 . S
C2869 C2870 1.334 . S
C2870 H2841 0.950 . S
C2870 C2869 1.334 . S
C2870 C2871 1.287 . S
C2871 C2870 1.287 . S
C2871 C2872 1.524 . S
C2871 H2874 0.999 . S
C2872 H2842 0.950 . S
C2872 C2871 1.524 . S
C2872 C2873 1.415 . S
C2873 H2843 0.950 . S
C2873 C2868 1.363 . S
C2873 C2872 1.415 . S
H2874 C2871 0.999 . S
H2875 C2856 0.913 . S
H2876 C2894 0.951 . S
H2877 C2896 0.951 . S
H2878 C2898 0.950 . S
H2879 C2899 0.950 . S
H2880 C2901 0.950 . S
H2881 C2904 0.950 . S
H2882 C2905 0.950 . S
H2883 C2907 0.950 . S
H2884 C2908 0.950 . S
H2885 C2909 0.951 . S
H2886 C2911 0.951 . S
H2887 C2913 0.950 . S
H2888 C2914 0.962 . S
H2889 C2916 0.950 . S
H2890 C2919 0.950 . S
H2891 C2920 0.950 . S
H2892 C2922 0.950 . S
H2893 C2923 0.950 . S
C2894 H2876 0.951 . S
C2894 C2895 1.366 . S
C2894 C2896 1.388 . S
C2895 C2894 1.366 . S
C2895 C2899 1.385 . S
C2896 H2877 0.951 . S
C2896 C2894 1.388 . S
C2896 C2897 1.366 . S
C2897 C2896 1.366 . S
C2897 C2898 1.414 . S
C2897 C2900 1.499 . S
C2898 H2878 0.950 . S
C2898 C2897 1.414 . S
C2898 C2899 1.374 . S
C2899 H2879 0.950 . S
C2899 C2895 1.385 . S
C2899 C2898 1.374 . S
C2900 C2897 1.499 . S
C2900 C2901 1.373 1_545 S
C2900 C2902 1.389 . S
C2901 H2880 0.950 . S
C2901 C2900 1.373 1_565 S
C2901 C2917 1.377 . S
C2902 C2900 1.389 . S
C2902 C2903 1.524 . S
C2902 C2916 1.377 . S
C2903 C2902 1.524 . S
C2903 C2904 1.397 . S
C2903 C2908 1.363 . S
C2904 H2881 0.950 . S
C2904 C2903 1.397 . S
C2904 C2905 1.334 . S
C2905 H2882 0.950 . S
C2905 C2904 1.334 . S
C2905 C2906 1.287 . S
C2906 C2905 1.287 . S
C2906 C2907 1.524 . S
C2906 H2925 0.913 . S
C2907 H2883 0.950 . S
C2907 C2906 1.524 . S
C2907 C2908 1.415 . S
C2908 H2884 0.950 . S
C2908 C2903 1.363 . S
C2908 C2907 1.415 . S
C2909 H2885 0.951 . S
C2909 C2910 1.366 . S
C2909 C2911 1.388 . S
C2910 C2909 1.366 . S
C2910 C2914 1.374 . S
C2911 H2886 0.951 . S
C2911 C2909 1.388 . S
C2911 C2912 1.366 . S
C2912 C2911 1.366 . S
C2912 C2913 1.414 1_565 S
C2912 C2915 1.499 . S
C2913 H2887 0.950 . S
C2913 C2912 1.414 1_545 S
C2913 C2914 1.375 1_545 S
C2914 H2888 0.962 . S
C2914 C2910 1.374 . S
C2914 C2913 1.375 1_565 S
C2915 C2912 1.499 . S
C2915 C2916 1.377 1_565 S
C2915 C2917 1.386 . S
C2916 H2889 0.950 . S
C2916 C2902 1.377 . S
C2916 C2915 1.377 1_545 S
C2917 C2901 1.377 . S
C2917 C2915 1.386 . S
C2917 C2918 1.524 . S
C2918 C2917 1.524 . S
C2918 C2919 1.397 . S
C2918 C2923 1.363 . S
C2919 H2890 0.950 . S
C2919 C2918 1.397 . S
C2919 C2920 1.334 . S
C2920 H2891 0.950 . S
C2920 C2919 1.334 . S
C2920 C2921 1.287 . S
C2921 C2920 1.287 . S
C2921 C2922 1.524 . S
C2921 H2924 0.999 . S
C2922 H2892 0.950 . S
C2922 C2921 1.524 . S
C2922 C2923 1.415 . S
C2923 H2893 0.950 . S
C2923 C2918 1.363 . S
C2923 C2922 1.415 . S
H2924 C2921 0.999 . S
H2925 C2906 0.913 . S
H2926 C2944 0.951 . S
H2927 C2946 0.951 . S
H2928 C2948 0.950 . S
H2929 C2949 0.950 . S
H2930 C2951 0.950 . S
H2931 C2954 0.950 . S
H2932 C2955 0.950 . S
H2933 C2957 0.950 . S
H2934 C2958 0.950 . S
H2935 C2959 0.951 . S
H2936 C2961 0.951 . S
H2937 C2963 0.950 . S
H2938 C2964 0.950 . S
H2939 C2966 0.950 . S
H2940 C2969 0.950 . S
H2941 C2970 0.950 . S
H2942 C2972 0.950 . S
H2943 C2973 0.950 . S
C2944 H2926 0.951 . S
C2944 C2945 1.366 . S
C2944 C2946 1.388 . S
C2945 C2944 1.366 . S
C2945 C2949 1.385 . S
C2946 H2927 0.951 . S
C2946 C2944 1.388 . S
C2946 C2947 1.366 . S
C2947 C2946 1.366 . S
C2947 C2948 1.414 . S
C2947 C2950 1.499 . S
C2948 H2928 0.950 . S
C2948 C2947 1.414 . S
C2948 C2949 1.374 . S
C2949 H2929 0.950 . S
C2949 C2945 1.385 . S
C2949 C2948 1.374 . S
C2950 C2947 1.499 . S
C2950 C2951 1.373 . S
C2950 C2952 1.389 . S
C2951 H2930 0.950 . S
C2951 C2950 1.373 . S
C2951 C2967 1.377 . S
C2952 C2950 1.389 . S
C2952 C2953 1.524 . S
C2952 C2966 1.377 . S
C2953 C2952 1.524 . S
C2953 C2954 1.397 . S
C2953 C2958 1.363 . S
C2954 H2931 0.950 . S
C2954 C2953 1.397 . S
C2954 C2955 1.334 . S
C2955 H2932 0.950 . S
C2955 C2954 1.334 . S
C2955 C2956 1.287 . S
C2956 C2955 1.287 . S
C2956 C2957 1.524 . S
C2956 H2975 0.913 . S
C2957 H2933 0.950 . S
C2957 C2956 1.524 . S
C2957 C2958 1.415 . S
C2958 H2934 0.950 . S
C2958 C2953 1.363 . S
C2958 C2957 1.415 . S
C2959 H2935 0.951 . S
C2959 C2960 1.366 . S
C2959 C2961 1.388 . S
C2960 C2959 1.366 . S
C2960 C2964 1.385 . S
C2961 H2936 0.951 . S
C2961 C2959 1.388 . S
C2961 C2962 1.366 . S
C2962 C2961 1.366 . S
C2962 C2963 1.414 . S
C2962 C2965 1.499 . S
C2963 H2937 0.950 . S
C2963 C2962 1.414 . S
C2963 C2964 1.374 . S
C2964 H2938 0.950 . S
C2964 C2960 1.385 . S
C2964 C2963 1.374 . S
C2965 C2962 1.499 . S
C2965 C2966 1.373 . S
C2965 C2967 1.389 . S
C2966 H2939 0.950 . S
C2966 C2952 1.377 . S
C2966 C2965 1.373 . S
C2967 C2951 1.377 . S
C2967 C2965 1.389 . S
C2967 C2968 1.524 . S
C2968 C2967 1.524 . S
C2968 C2969 1.397 . S
C2968 C2973 1.363 . S
C2969 H2940 0.950 . S
C2969 C2968 1.397 . S
C2969 C2970 1.334 . S
C2970 H2941 0.950 . S
C2970 C2969 1.334 . S
C2970 C2971 1.287 . S
C2971 C2970 1.287 . S
C2971 C2972 1.524 . S
C2971 H2974 0.999 . S
C2972 H2942 0.950 . S
C2972 C2971 1.524 . S
C2972 C2973 1.415 . S
C2973 H2943 0.950 . S
C2973 C2968 1.363 . S
C2973 C2972 1.415 . S
H2974 C2971 0.999 . S
H2975 C2956 0.913 . S
H2976 C2994 0.951 . S
H2977 C2996 0.951 . S
H2978 C2998 0.950 . S
H2979 C2999 0.950 . S
H2980 C3001 0.950 . S
H2981 C3004 0.950 . S
H2982 C3005 0.950 . S
H2983 C3007 0.950 . S
H2984 C3008 0.950 . S
H2985 C3009 0.951 . S
H2986 C3011 0.951 . S
H2987 C3013 0.950 . S
H2988 C3014 0.950 . S
H2989 C3016 0.950 . S
H2990 C3019 0.950 . S
H2991 C3020 0.950 . S
H2992 C3022 0.950 . S
H2993 C3023 0.950 . S
C2994 H2976 0.951 . S
C2994 C2995 1.366 . S
C2994 C2996 1.388 . S
C2995 C2994 1.366 . S
C2995 C2999 1.385 . S
C2996 H2977 0.951 . S
C2996 C2994 1.388 . S
C2996 C2997 1.366 . S
C2997 C2996 1.366 . S
C2997 C2998 1.414 . S
C2997 C3000 1.514 . S
C2998 H2978 0.950 . S
C2998 C2997 1.414 . S
C2998 C2999 1.374 . S
C2999 H2979 0.950 . S
C2999 C2995 1.385 . S
C2999 C2998 1.374 . S
C3000 C2997 1.514 . S
C3000 C3001 1.321 1_554 S
C3000 C3002 1.426 . S
C3001 H2980 0.950 . S
C3001 C3000 1.321 1_556 S
C3001 C3017 1.377 . S
C3002 C3000 1.426 . S
C3002 C3003 1.524 . S
C3002 C3016 1.377 . S
C3003 C3002 1.524 . S
C3003 C3004 1.397 . S
C3003 C3008 1.363 . S
C3004 H2981 0.950 . S
C3004 C3003 1.397 . S
C3004 C3005 1.334 . S
C3005 H2982 0.950 . S
C3005 C3004 1.334 . S
C3005 C3006 1.287 . S
C3006 C3005 1.287 . S
C3006 C3007 1.524 . S
C3006 H3025 0.913 . S
C3007 H2983 0.950 . S
C3007 C3006 1.524 . S
C3007 C3008 1.415 . S
C3008 H2984 0.950 . S
C3008 C3003 1.363 . S
C3008 C3007 1.415 . S
C3009 H2985 0.951 . S
C3009 C3010 1.366 . S
C3009 C3011 1.388 . S
C3010 C3009 1.366 . S
C3010 C3014 1.385 . S
C3011 H2986 0.951 . S
C3011 C3009 1.388 . S
C3011 C3012 1.366 . S
C3012 C3011 1.366 . S
C3012 C3013 1.414 . S
C3012 C3015 1.499 . S
C3013 H2987 0.950 . S
C3013 C3012 1.414 . S
C3013 C3014 1.374 . S
C3014 H2988 0.950 . S
C3014 C3010 1.385 . S
C3014 C3013 1.374 . S
C3015 C3012 1.499 . S
C3015 C3016 1.373 1_556 S
C3015 C3017 1.389 . S
C3016 H2989 0.950 . S
C3016 C3002 1.377 . S
C3016 C3015 1.373 1_554 S
C3017 C3001 1.377 . S
C3017 C3015 1.389 . S
C3017 C3018 1.524 . S
C3018 C3017 1.524 . S
C3018 C3019 1.397 . S
C3018 C3023 1.363 . S
C3019 H2990 0.950 . S
C3019 C3018 1.397 . S
C3019 C3020 1.334 . S
C3020 H2991 0.950 . S
C3020 C3019 1.334 . S
C3020 C3021 1.287 . S
C3021 C3020 1.287 . S
C3021 C3022 1.524 . S
C3021 H3024 0.999 . S
C3022 H2992 0.950 . S
C3022 C3021 1.524 . S
C3022 C3023 1.415 . S
C3023 H2993 0.950 . S
C3023 C3018 1.363 . S
C3023 C3022 1.415 . S
H3024 C3021 0.999 . S
H3025 C3006 0.913 . S
H3026 C3044 0.951 . S
H3027 C3046 0.951 . S
H3028 C3048 0.950 . S
H3029 C3049 0.950 . S
H3030 C3051 0.950 . S
H3031 C3054 0.950 . S
H3032 C3055 0.950 . S
H3033 C3057 0.950 . S
H3034 C3058 0.950 . S
H3035 C3059 0.951 . S
H3036 C3061 0.951 . S
H3037 C3063 0.950 . S
H3038 C3064 0.950 . S
H3039 C3066 0.893 1_556 S
H3040 C3069 0.950 . S
H3041 C3070 0.950 . S
H3042 C3072 0.950 . S
H3043 C3073 0.950 . S
C3044 H3026 0.951 . S
C3044 C3045 1.366 . S
C3044 C3046 1.388 . S
C3045 C3044 1.366 . S
C3045 C3049 1.385 . S
C3046 H3027 0.951 . S
C3046 C3044 1.388 . S
C3046 C3047 1.366 . S
C3047 C3046 1.366 . S
C3047 C3048 1.414 . S
C3047 C3050 1.499 . S
C3048 H3028 0.950 . S
C3048 C3047 1.414 . S
C3048 C3049 1.374 . S
C3049 H3029 0.950 . S
C3049 C3045 1.385 . S
C3049 C3048 1.374 . S
C3050 C3047 1.499 . S
C3050 C3051 1.373 . S
C3050 C3052 1.421 . S
C3051 H3030 0.950 . S
C3051 C3050 1.373 . S
C3051 C3067 1.377 . S
C3052 C3050 1.421 . S
C3052 C3053 1.497 1_554 S
C3052 C3066 1.382 . S
C3053 C3052 1.497 1_556 S
C3053 C3054 1.397 . S
C3053 C3058 1.363 . S
C3054 H3031 0.950 . S
C3054 C3053 1.397 . S
C3054 C3055 1.334 . S
C3055 H3032 0.950 . S
C3055 C3054 1.334 . S
C3055 C3056 1.287 . S
C3056 C3055 1.287 . S
C3056 C3057 1.524 . S
C3056 H3075 0.913 . S
C3057 H3033 0.950 . S
C3057 C3056 1.524 . S
C3057 C3058 1.415 . S
C3058 H3034 0.950 . S
C3058 C3053 1.363 . S
C3058 C3057 1.415 . S
C3059 H3035 0.951 . S
C3059 C3060 1.366 . S
C3059 C3061 1.388 . S
C3060 C3059 1.366 . S
C3060 C3064 1.385 . S
C3061 H3036 0.951 . S
C3061 C3059 1.388 . S
C3061 C3062 1.366 . S
C3062 C3061 1.366 . S
C3062 C3063 1.414 . S
C3062 C3065 1.499 . S
C3063 H3037 0.950 . S
C3063 C3062 1.414 . S
C3063 C3064 1.374 . S
C3064 H3038 0.950 . S
C3064 C3060 1.385 . S
C3064 C3063 1.374 . S
C3065 C3062 1.499 . S
C3065 C3066 1.420 . S
C3065 C3067 1.389 . S
C3066 H3039 0.893 1_554 S
C3066 C3052 1.382 . S
C3066 C3065 1.420 . S
C3067 C3051 1.377 . S
C3067 C3065 1.389 . S
C3067 C3068 1.524 . S
C3068 C3067 1.524 . S
C3068 C3069 1.397 . S
C3068 C3073 1.363 . S
C3069 H3040 0.950 . S
C3069 C3068 1.397 . S
C3069 C3070 1.334 . S
C3070 H3041 0.950 . S
C3070 C3069 1.334 . S
C3070 C3071 1.287 . S
C3071 C3070 1.287 . S
C3071 C3072 1.524 . S
C3071 H3074 0.999 . S
C3072 H3042 0.950 . S
C3072 C3071 1.524 . S
C3072 C3073 1.415 . S
C3073 H3043 0.950 . S
C3073 C3068 1.363 . S
C3073 C3072 1.415 . S
H3074 C3071 0.999 . S
H3075 C3056 0.913 . S
H3076 C3094 0.951 . S
H3077 C3096 0.951 . S
H3078 C3098 0.950 . S
H3079 C3099 0.950 . S
H3080 C3101 0.950 . S
H3081 C3104 0.950 . S
H3082 C3105 0.950 . S
H3083 C3107 0.950 . S
H3084 C3108 0.950 . S
H3085 C3109 0.951 . S
H3086 C3111 0.951 . S
H3087 C3113 0.950 . S
H3088 C3114 0.950 . S
H3089 C3116 0.950 . S
H3090 C3119 0.950 . S
H3091 C3120 0.950 . S
H3092 C3122 0.950 . S
H3093 C3123 0.950 . S
C3094 H3076 0.951 . S
C3094 C3095 1.366 . S
C3094 C3096 1.388 . S
C3095 C3094 1.366 . S
C3095 C3099 1.385 . S
C3096 H3077 0.951 . S
C3096 C3094 1.388 . S
C3096 C3097 1.366 . S
C3097 C3096 1.366 . S
C3097 C3098 1.414 . S
C3097 C3100 1.499 . S
C3098 H3078 0.950 . S
C3098 C3097 1.414 . S
C3098 C3099 1.374 . S
C3099 H3079 0.950 . S
C3099 C3095 1.385 . S
C3099 C3098 1.374 . S
C3100 C3097 1.499 . S
C3100 C3101 1.373 . S
C3100 C3102 1.389 . S
C3101 H3080 0.950 . S
C3101 C3100 1.373 . S
C3101 C3117 1.377 . S
C3102 C3100 1.389 . S
C3102 C3103 1.524 . S
C3102 C3116 1.377 . S
C3103 C3102 1.524 . S
C3103 C3104 1.397 . S
C3103 C3108 1.363 . S
C3104 H3081 0.950 . S
C3104 C3103 1.397 . S
C3104 C3105 1.334 . S
C3105 H3082 0.950 . S
C3105 C3104 1.334 . S
C3105 C3106 1.287 . S
C3106 C3105 1.287 . S
C3106 C3107 1.524 . S
C3106 H3125 0.913 . S
C3107 H3083 0.950 . S
C3107 C3106 1.524 . S
C3107 C3108 1.415 . S
C3108 H3084 0.950 . S
C3108 C3103 1.363 . S
C3108 C3107 1.415 . S
C3109 H3085 0.951 . S
C3109 C3110 1.366 . S
C3109 C3111 1.388 . S
C3110 C3109 1.366 . S
C3110 C3114 1.385 . S
C3111 H3086 0.951 . S
C3111 C3109 1.388 . S
C3111 C3112 1.366 . S
C3112 C3111 1.366 . S
C3112 C3113 1.414 . S
C3112 C3115 1.499 . S
C3113 H3087 0.950 . S
C3113 C3112 1.414 . S
C3113 C3114 1.374 . S
C3114 H3088 0.950 . S
C3114 C3110 1.385 . S
C3114 C3113 1.374 . S
C3115 C3112 1.499 . S
C3115 C3116 1.373 . S
C3115 C3117 1.389 . S
C3116 H3089 0.950 . S
C3116 C3102 1.377 . S
C3116 C3115 1.373 . S
C3117 C3101 1.377 . S
C3117 C3115 1.389 . S
C3117 C3118 1.524 . S
C3118 C3117 1.524 . S
C3118 C3119 1.397 . S
C3118 C3123 1.363 . S
C3119 H3090 0.950 . S
C3119 C3118 1.397 . S
C3119 C3120 1.334 . S
C3120 H3091 0.950 . S
C3120 C3119 1.334 . S
C3120 C3121 1.287 . S
C3121 C3120 1.287 . S
C3121 C3122 1.524 . S
C3121 H3124 0.999 . S
C3122 H3092 0.950 . S
C3122 C3121 1.524 . S
C3122 C3123 1.415 . S
C3123 H3093 0.950 . S
C3123 C3118 1.363 . S
C3123 C3122 1.415 . S
H3124 C3121 0.999 . S
H3125 C3106 0.913 . S
H3126 C3144 0.951 . S
H3127 C3146 0.951 . S
H3128 C3148 0.950 . S
H3129 C3149 0.950 . S
H3130 C3151 0.950 . S
H3131 C3154 0.950 . S
H3132 C3155 0.950 . S
H3133 C3157 0.950 . S
H3134 C3158 0.950 . S
H3135 C3159 0.951 . S
H3136 C3161 0.951 . S
H3137 C3163 0.950 . S
H3138 C3164 0.950 . S
H3139 C3166 0.950 . S
H3140 C3169 0.950 . S
H3141 C3170 0.950 . S
H3142 C3172 0.950 . S
H3143 C3173 0.950 . S
C3144 H3126 0.951 . S
C3144 C3145 1.366 . S
C3144 C3146 1.388 . S
C3145 C3144 1.366 . S
C3145 C3149 1.385 . S
C3146 H3127 0.951 . S
C3146 C3144 1.388 . S
C3146 C3147 1.366 . S
C3147 C3146 1.366 . S
C3147 C3148 1.414 . S
C3147 C3150 1.499 . S
C3148 H3128 0.950 . S
C3148 C3147 1.414 . S
C3148 C3149 1.374 . S
C3149 H3129 0.950 . S
C3149 C3145 1.385 . S
C3149 C3148 1.374 . S
C3150 C3147 1.499 . S
C3150 C3151 1.373 . S
C3150 C3152 1.389 . S
C3151 H3130 0.950 . S
C3151 C3150 1.373 . S
C3151 C3167 1.377 . S
C3152 C3150 1.389 . S
C3152 C3153 1.524 . S
C3152 C3166 1.377 . S
C3153 C3152 1.524 . S
C3153 C3154 1.397 . S
C3153 C3158 1.363 . S
C3154 H3131 0.950 . S
C3154 C3153 1.397 . S
C3154 C3155 1.334 . S
C3155 H3132 0.950 . S
C3155 C3154 1.334 . S
C3155 C3156 1.287 . S
C3156 C3155 1.287 . S
C3156 C3157 1.524 . S
C3156 H3175 0.913 . S
C3157 H3133 0.950 . S
C3157 C3156 1.524 . S
C3157 C3158 1.415 . S
C3158 H3134 0.950 . S
C3158 C3153 1.363 . S
C3158 C3157 1.415 . S
C3159 H3135 0.951 . S
C3159 C3160 1.366 . S
C3159 C3161 1.388 . S
C3160 C3159 1.366 . S
C3160 C3164 1.385 . S
C3161 H3136 0.951 . S
C3161 C3159 1.388 . S
C3161 C3162 1.366 . S
C3162 C3161 1.366 . S
C3162 C3163 1.414 . S
C3162 C3165 1.499 . S
C3163 H3137 0.950 . S
C3163 C3162 1.414 . S
C3163 C3164 1.374 . S
C3164 H3138 0.950 . S
C3164 C3160 1.385 . S
C3164 C3163 1.374 . S
C3165 C3162 1.499 . S
C3165 C3166 1.373 . S
C3165 C3167 1.389 . S
C3166 H3139 0.950 . S
C3166 C3152 1.377 . S
C3166 C3165 1.373 . S
C3167 C3151 1.377 . S
C3167 C3165 1.389 . S
C3167 C3168 1.524 . S
C3168 C3167 1.524 . S
C3168 C3169 1.397 . S
C3168 C3173 1.363 . S
C3169 H3140 0.950 . S
C3169 C3168 1.397 . S
C3169 C3170 1.334 . S
C3170 H3141 0.950 . S
C3170 C3169 1.334 . S
C3170 C3171 1.287 . S
C3171 C3170 1.287 . S
C3171 C3172 1.524 . S
C3171 H3174 0.999 . S
C3172 H3142 0.950 . S
C3172 C3171 1.524 . S
C3172 C3173 1.415 . S
C3173 H3143 0.950 . S
C3173 C3168 1.363 . S
C3173 C3172 1.415 . S
H3174 C3171 0.999 . S
H3175 C3156 0.913 . S
H3176 C3194 0.951 . S
H3177 C3196 0.955 1_545 S
H3178 C3198 0.950 . S
H3179 C3199 0.950 . S
H3180 C3201 0.950 . S
H3181 C3204 0.950 . S
H3182 C3205 0.950 . S
H3183 C3207 0.950 1_545 S
H3184 C3208 0.950 . S
H3185 C3209 0.951 . S
H3186 C3211 0.951 . S
H3187 C3213 0.950 . S
H3188 C3214 0.950 . S
H3189 C3216 0.950 . S
H3190 C3219 0.950 . S
H3191 C3220 0.950 . S
H3192 C3222 0.950 . S
H3193 C3223 0.950 . S
C3194 H3176 0.951 . S
C3194 C3195 1.366 . S
C3194 C3196 1.338 1_545 S
C3195 C3194 1.366 . S
C3195 C3199 1.385 1_545 S
C3196 H3177 0.955 1_565 S
C3196 C3194 1.338 1_565 S
C3196 C3197 1.414 . S
C3197 C3196 1.414 . S
C3197 C3198 1.414 . S
C3197 C3200 1.499 . S
C3198 H3178 0.950 . S
C3198 C3197 1.414 . S
C3198 C3199 1.374 . S
C3199 H3179 0.950 . S
C3199 C3195 1.385 1_565 S
C3199 C3198 1.374 . S
C3200 C3197 1.499 . S
C3200 C3201 1.373 . S
C3200 C3202 1.389 . S
C3201 H3180 0.950 . S
C3201 C3200 1.373 . S
C3201 C3217 1.377 . S
C3202 C3200 1.389 . S
C3202 C3203 1.524 . S
C3202 C3216 1.377 . S
C3203 C3202 1.524 . S
C3203 C3204 1.397 . S
C3203 C3208 1.363 . S
C3204 H3181 0.950 . S
C3204 C3203 1.397 . S
C3204 C3205 1.334 . S
C3205 H3182 0.950 . S
C3205 C3204 1.334 . S
C3205 C3206 1.287 . S
C3206 C3205 1.287 . S
C3206 C3207 1.524 . S
C3206 H3225 0.913 . S
C3207 H3183 0.950 1_565 S
C3207 C3206 1.524 . S
C3207 C3208 1.415 . S
C3208 H3184 0.950 . S
C3208 C3203 1.363 . S
C3208 C3207 1.415 . S
C3209 H3185 0.951 . S
C3209 C3210 1.366 . S
C3209 C3211 1.388 . S
C3210 C3209 1.366 . S
C3210 C3214 1.385 . S
C3211 H3186 0.951 . S
C3211 C3209 1.388 . S
C3211 C3212 1.366 . S
C3212 C3211 1.366 . S
C3212 C3213 1.414 . S
C3212 C3215 1.499 . S
C3213 H3187 0.950 . S
C3213 C3212 1.414 . S
C3213 C3214 1.374 . S
C3214 H3188 0.950 . S
C3214 C3210 1.385 . S
C3214 C3213 1.374 . S
C3215 C3212 1.499 . S
C3215 C3216 1.373 . S
C3215 C3217 1.389 . S
C3216 H3189 0.950 . S
C3216 C3202 1.377 . S
C3216 C3215 1.373 . S
C3217 C3201 1.377 . S
C3217 C3215 1.389 . S
C3217 C3218 1.524 . S
C3218 C3217 1.524 . S
C3218 C3219 1.397 . S
C3218 C3223 1.363 . S
C3219 H3190 0.950 . S
C3219 C3218 1.397 . S
C3219 C3220 1.334 . S
C3220 H3191 0.950 . S
C3220 C3219 1.334 . S
C3220 C3221 1.287 . S
C3221 C3220 1.287 . S
C3221 C3222 1.524 . S
C3221 H3224 0.999 . S
C3222 H3192 0.950 . S
C3222 C3221 1.524 . S
C3222 C3223 1.415 . S
C3223 H3193 0.950 . S
C3223 C3218 1.363 . S
C3223 C3222 1.415 . S
H3224 C3221 0.999 . S
H3225 C3206 0.913 . S
H3226 C3244 0.951 . S
H3227 C3246 0.951 . S
H3228 C3248 0.950 . S
H3229 C3249 0.950 . S
H3230 C3251 0.950 . S
H3231 C3254 0.950 . S
H3232 C3255 0.950 . S
H3233 C3257 0.950 . S
H3234 C3258 0.950 . S
H3235 C3259 0.951 . S
H3236 C3261 0.951 . S
H3237 C3263 0.950 . S
H3238 C3264 0.950 . S
H3239 C3266 0.950 . S
H3240 C3269 0.950 . S
H3241 C3270 0.957 . S
H3242 C3272 0.950 . S
H3243 C3273 0.950 . S
C3244 H3226 0.951 . S
C3244 C3245 1.366 . S
C3244 C3246 1.388 . S
C3245 C3244 1.366 . S
C3245 C3249 1.385 . S
C3246 H3227 0.951 . S
C3246 C3244 1.388 . S
C3246 C3247 1.366 . S
C3247 C3246 1.366 . S
C3247 C3248 1.414 . S
C3247 C3250 1.499 . S
C3248 H3228 0.950 . S
C3248 C3247 1.414 . S
C3248 C3249 1.374 . S
C3249 H3229 0.950 . S
C3249 C3245 1.385 . S
C3249 C3248 1.374 . S
C3250 C3247 1.499 . S
C3250 C3251 1.373 . S
C3250 C3252 1.389 . S
C3251 H3230 0.950 . S
C3251 C3250 1.373 . S
C3251 C3267 1.377 . S
C3252 C3250 1.389 . S
C3252 C3253 1.524 . S
C3252 C3266 1.377 . S
C3253 C3252 1.524 . S
C3253 C3254 1.397 . S
C3253 C3258 1.363 . S
C3254 H3231 0.950 . S
C3254 C3253 1.397 . S
C3254 C3255 1.334 . S
C3255 H3232 0.950 . S
C3255 C3254 1.334 . S
C3255 C3256 1.287 . S
C3256 C3255 1.287 . S
C3256 C3257 1.524 . S
C3256 H3275 0.913 . S
C3257 H3233 0.950 . S
C3257 C3256 1.524 . S
C3257 C3258 1.415 . S
C3258 H3234 0.950 . S
C3258 C3253 1.363 . S
C3258 C3257 1.415 . S
C3259 H3235 0.951 . S
C3259 C3260 1.366 . S
C3259 C3261 1.388 . S
C3260 C3259 1.366 . S
C3260 C3264 1.385 . S
C3261 H3236 0.951 . S
C3261 C3259 1.388 . S
C3261 C3262 1.366 . S
C3262 C3261 1.366 . S
C3262 C3263 1.414 . S
C3262 C3265 1.499 . S
C3263 H3237 0.950 . S
C3263 C3262 1.414 . S
C3263 C3264 1.374 . S
C3264 H3238 0.950 . S
C3264 C3260 1.385 . S
C3264 C3263 1.374 . S
C3265 C3262 1.499 . S
C3265 C3266 1.373 . S
C3265 C3267 1.389 . S
C3266 H3239 0.950 . S
C3266 C3252 1.377 . S
C3266 C3265 1.373 . S
C3267 C3251 1.377 . S
C3267 C3265 1.389 . S
C3267 C3268 1.524 . S
C3268 C3267 1.524 . S
C3268 C3269 1.397 . S
C3268 C3273 1.363 . S
C3269 H3240 0.950 . S
C3269 C3268 1.397 . S
C3269 C3270 1.320 1_565 S
C3270 H3241 0.957 . S
C3270 C3269 1.320 1_545 S
C3270 C3271 1.294 . S
C3271 C3270 1.294 . S
C3271 C3272 1.524 . S
C3271 H3274 0.999 . S
C3272 H3242 0.950 . S
C3272 C3271 1.524 . S
C3272 C3273 1.415 1_545 S
C3273 H3243 0.950 . S
C3273 C3268 1.363 . S
C3273 C3272 1.415 1_565 S
H3274 C3271 0.999 . S
H3275 C3256 0.913 . S
H3276 C3294 0.951 . S
H3277 C3296 0.951 . S
H3278 C3298 0.950 . S
H3279 C3299 0.950 . S
H3280 C3301 0.950 . S
H3281 C3304 0.950 . S
H3282 C3305 0.950 . S
H3283 C3307 0.950 . S
H3284 C3308 0.950 . S
H3285 C3309 0.951 . S
H3286 C3311 0.951 . S
H3287 C3313 0.950 . S
H3288 C3314 0.950 . S
H3289 C3316 0.950 . S
H3290 C3319 0.950 . S
H3291 C3320 0.950 . S
H3292 C3322 0.950 . S
H3293 C3323 0.950 . S
C3294 H3276 0.951 . S
C3294 C3295 1.366 . S
C3294 C3296 1.388 . S
C3295 C3294 1.366 . S
C3295 C3299 1.385 . S
C3296 H3277 0.951 . S
C3296 C3294 1.388 . S
C3296 C3297 1.366 . S
C3297 C3296 1.366 . S
C3297 C3298 1.414 . S
C3297 C3300 1.499 . S
C3298 H3278 0.950 . S
C3298 C3297 1.414 . S
C3298 C3299 1.374 . S
C3299 H3279 0.950 . S
C3299 C3295 1.385 . S
C3299 C3298 1.374 . S
C3300 C3297 1.499 . S
C3300 C3301 1.373 . S
C3300 C3302 1.389 . S
C3301 H3280 0.950 . S
C3301 C3300 1.373 . S
C3301 C3317 1.377 . S
C3302 C3300 1.389 . S
C3302 C3303 1.524 . S
C3302 C3316 1.377 . S
C3303 C3302 1.524 . S
C3303 C3304 1.397 . S
C3303 C3308 1.363 . S
C3304 H3281 0.950 . S
C3304 C3303 1.397 . S
C3304 C3305 1.334 . S
C3305 H3282 0.950 . S
C3305 C3304 1.334 . S
C3305 C3306 1.287 . S
C3306 C3305 1.287 . S
C3306 C3307 1.524 . S
C3306 H3325 0.913 . S
C3307 H3283 0.950 . S
C3307 C3306 1.524 . S
C3307 C3308 1.415 . S
C3308 H3284 0.950 . S
C3308 C3303 1.363 . S
C3308 C3307 1.415 . S
C3309 H3285 0.951 . S
C3309 C3310 1.366 . S
C3309 C3311 1.388 . S
C3310 C3309 1.366 . S
C3310 C3314 1.385 . S
C3311 H3286 0.951 . S
C3311 C3309 1.388 . S
C3311 C3312 1.366 . S
C3312 C3311 1.366 . S
C3312 C3313 1.414 . S
C3312 C3315 1.499 . S
C3313 H3287 0.950 . S
C3313 C3312 1.414 . S
C3313 C3314 1.374 . S
C3314 H3288 0.950 . S
C3314 C3310 1.385 . S
C3314 C3313 1.374 . S
C3315 C3312 1.499 . S
C3315 C3316 1.373 . S
C3315 C3317 1.389 . S
C3316 H3289 0.950 . S
C3316 C3302 1.377 . S
C3316 C3315 1.373 . S
C3317 C3301 1.377 . S
C3317 C3315 1.389 . S
C3317 C3318 1.524 . S
C3318 C3317 1.524 . S
C3318 C3319 1.397 . S
C3318 C3323 1.363 . S
C3319 H3290 0.950 . S
C3319 C3318 1.397 . S
C3319 C3320 1.334 . S
C3320 H3291 0.950 . S
C3320 C3319 1.334 . S
C3320 C3321 1.287 . S
C3321 C3320 1.287 . S
C3321 C3322 1.524 . S
C3321 H3324 0.999 . S
C3322 H3292 0.950 . S
C3322 C3321 1.524 . S
C3322 C3323 1.415 . S
C3323 H3293 0.950 . S
C3323 C3318 1.363 . S
C3323 C3322 1.415 . S
H3324 C3321 0.999 . S
H3325 C3306 0.913 . S
H3326 C3344 0.951 . S
H3327 C3346 0.951 . S
H3328 C3348 0.950 . S
H3329 C3349 0.950 . S
H3330 C3351 0.950 . S
H3331 C3354 0.950 . S
H3332 C3355 0.950 . S
H3333 C3357 0.950 . S
H3334 C3358 0.950 . S
H3335 C3359 0.951 . S
H3336 C3361 0.951 . S
H3337 C3363 0.950 . S
H3338 C3364 0.950 . S
H3339 C3366 0.950 . S
H3340 C3369 0.950 . S
H3341 C3370 0.950 . S
H3342 C3372 0.950 . S
H3343 C3373 0.950 . S
C3344 H3326 0.951 . S
C3344 C3345 1.366 . S
C3344 C3346 1.388 . S
C3345 C3344 1.366 . S
C3345 C3349 1.385 . S
C3346 H3327 0.951 . S
C3346 C3344 1.388 . S
C3346 C3347 1.366 . S
C3347 C3346 1.366 . S
C3347 C3348 1.414 . S
C3347 C3350 1.499 . S
C3348 H3328 0.950 . S
C3348 C3347 1.414 . S
C3348 C3349 1.374 . S
C3349 H3329 0.950 . S
C3349 C3345 1.385 . S
C3349 C3348 1.374 . S
C3350 C3347 1.499 . S
C3350 C3351 1.373 . S
C3350 C3352 1.389 . S
C3351 H3330 0.950 . S
C3351 C3350 1.373 . S
C3351 C3367 1.377 . S
C3352 C3350 1.389 . S
C3352 C3353 1.524 . S
C3352 C3366 1.377 . S
C3353 C3352 1.524 . S
C3353 C3354 1.397 . S
C3353 C3358 1.363 . S
C3354 H3331 0.950 . S
C3354 C3353 1.397 . S
C3354 C3355 1.334 . S
C3355 H3332 0.950 . S
C3355 C3354 1.334 . S
C3355 C3356 1.287 . S
C3356 C3355 1.287 . S
C3356 C3357 1.524 . S
C3356 H3375 0.913 . S
C3357 H3333 0.950 . S
C3357 C3356 1.524 . S
C3357 C3358 1.415 . S
C3358 H3334 0.950 . S
C3358 C3353 1.363 . S
C3358 C3357 1.415 . S
C3359 H3335 0.951 . S
C3359 C3360 1.366 . S
C3359 C3361 1.388 . S
C3360 C3359 1.366 . S
C3360 C3364 1.385 . S
C3361 H3336 0.951 . S
C3361 C3359 1.388 . S
C3361 C3362 1.366 . S
C3362 C3361 1.366 . S
C3362 C3363 1.414 . S
C3362 C3365 1.499 . S
C3363 H3337 0.950 . S
C3363 C3362 1.414 . S
C3363 C3364 1.374 . S
C3364 H3338 0.950 . S
C3364 C3360 1.385 . S
C3364 C3363 1.374 . S
C3365 C3362 1.499 . S
C3365 C3366 1.373 . S
C3365 C3367 1.389 . S
C3366 H3339 0.950 . S
C3366 C3352 1.377 . S
C3366 C3365 1.373 . S
C3367 C3351 1.377 . S
C3367 C3365 1.389 . S
C3367 C3368 1.524 . S
C3368 C3367 1.524 . S
C3368 C3369 1.397 . S
C3368 C3373 1.363 . S
C3369 H3340 0.950 . S
C3369 C3368 1.397 . S
C3369 C3370 1.334 . S
C3370 H3341 0.950 . S
C3370 C3369 1.334 . S
C3370 C3371 1.287 . S
C3371 C3370 1.287 . S
C3371 C3372 1.524 . S
C3371 H3374 0.999 . S
C3372 H3342 0.950 . S
C3372 C3371 1.524 . S
C3372 C3373 1.415 . S
C3373 H3343 0.950 . S
C3373 C3368 1.363 . S
C3373 C3372 1.415 . S
H3374 C3371 0.999 . S
H3375 C3356 0.913 . S
H3376 C3394 0.951 . S
H3377 C3396 0.951 . S
H3378 C3398 0.950 . S
H3379 C3399 0.950 . S
H3380 C3401 0.950 . S
H3381 C3404 0.950 . S
H3382 C3405 0.950 . S
H3383 C3407 0.950 . S
H3384 C3408 0.950 . S
H3385 C3409 0.951 . S
H3386 C3411 0.951 . S
H3387 C3413 0.950 . S
H3388 C3414 0.950 . S
H3389 C3416 0.950 . S
H3390 C3419 0.950 . S
H3391 C3420 0.950 . S
H3392 C3422 0.950 . S
H3393 C3423 0.950 . S
C3394 H3376 0.951 . S
C3394 C3395 1.366 . S
C3394 C3396 1.388 . S
C3395 C3394 1.366 . S
C3395 C3399 1.385 . S
C3396 H3377 0.951 . S
C3396 C3394 1.388 . S
C3396 C3397 1.366 . S
C3397 C3396 1.366 . S
C3397 C3398 1.414 . S
C3397 C3400 1.499 . S
C3398 H3378 0.950 . S
C3398 C3397 1.414 . S
C3398 C3399 1.374 . S
C3399 H3379 0.950 . S
C3399 C3395 1.385 . S
C3399 C3398 1.374 . S
C3400 C3397 1.499 . S
C3400 C3401 1.373 . S
C3400 C3402 1.389 . S
C3401 H3380 0.950 . S
C3401 C3400 1.373 . S
C3401 C3417 1.377 . S
C3402 C3400 1.389 . S
C3402 C3403 1.524 . S
C3402 C3416 1.377 . S
C3403 C3402 1.524 . S
C3403 C3404 1.397 . S
C3403 C3408 1.363 . S
C3404 H3381 0.950 . S
C3404 C3403 1.397 . S
C3404 C3405 1.334 . S
C3405 H3382 0.950 . S
C3405 C3404 1.334 . S
C3405 C3406 1.287 . S
C3406 C3405 1.287 . S
C3406 C3407 1.524 . S
C3406 H3425 0.913 . S
C3407 H3383 0.950 . S
C3407 C3406 1.524 . S
C3407 C3408 1.415 . S
C3408 H3384 0.950 . S
C3408 C3403 1.363 . S
C3408 C3407 1.415 . S
C3409 H3385 0.951 . S
C3409 C3410 1.366 . S
C3409 C3411 1.388 . S
C3410 C3409 1.366 . S
C3410 C3414 1.385 . S
C3411 H3386 0.951 . S
C3411 C3409 1.388 . S
C3411 C3412 1.366 . S
C3412 C3411 1.366 . S
C3412 C3413 1.414 . S
C3412 C3415 1.499 . S
C3413 H3387 0.950 . S
C3413 C3412 1.414 . S
C3413 C3414 1.374 . S
C3414 H3388 0.950 . S
C3414 C3410 1.385 . S
C3414 C3413 1.374 . S
C3415 C3412 1.499 . S
C3415 C3416 1.373 . S
C3415 C3417 1.389 . S
C3416 H3389 0.950 . S
C3416 C3402 1.377 . S
C3416 C3415 1.373 . S
C3417 C3401 1.377 . S
C3417 C3415 1.389 . S
C3417 C3418 1.524 . S
C3418 C3417 1.524 . S
C3418 C3419 1.397 . S
C3418 C3423 1.363 . S
C3419 H3390 0.950 . S
C3419 C3418 1.397 . S
C3419 C3420 1.334 . S
C3420 H3391 0.950 . S
C3420 C3419 1.334 . S
C3420 C3421 1.287 . S
C3421 C3420 1.287 . S
C3421 C3422 1.524 . S
C3421 H3424 0.999 . S
C3422 H3392 0.950 . S
C3422 C3421 1.524 . S
C3422 C3423 1.415 . S
C3423 H3393 0.950 . S
C3423 C3418 1.363 . S
C3423 C3422 1.415 . S
H3424 C3421 0.999 . S
H3425 C3406 0.913 . S
H3426 C3444 0.951 . S
H3427 C3446 0.951 . S
H3428 C3448 0.950 . S
H3429 C3449 0.950 . S
H3430 C3451 0.950 . S
H3431 C3454 0.950 . S
H3432 C3455 0.950 . S
H3433 C3457 0.950 . S
H3434 C3458 0.950 . S
H3435 C3459 0.951 . S
H3436 C3461 0.951 . S
H3437 C3463 0.950 . S
H3438 C3464 0.950 . S
H3439 C3466 0.950 . S
H3440 C3469 0.950 . S
H3441 C3470 0.950 . S
H3442 C3472 0.950 . S
H3443 C3473 0.950 . S
C3444 H3426 0.951 . S
C3444 C3445 1.366 . S
C3444 C3446 1.388 . S
C3445 C3444 1.366 . S
C3445 C3449 1.385 . S
C3446 H3427 0.951 . S
C3446 C3444 1.388 . S
C3446 C3447 1.366 . S
C3447 C3446 1.366 . S
C3447 C3448 1.414 . S
C3447 C3450 1.499 . S
C3448 H3428 0.950 . S
C3448 C3447 1.414 . S
C3448 C3449 1.374 . S
C3449 H3429 0.950 . S
C3449 C3445 1.385 . S
C3449 C3448 1.374 . S
C3450 C3447 1.499 . S
C3450 C3451 1.373 . S
C3450 C3452 1.389 . S
C3451 H3430 0.950 . S
C3451 C3450 1.373 . S
C3451 C3467 1.377 . S
C3452 C3450 1.389 . S
C3452 C3453 1.524 . S
C3452 C3466 1.377 . S
C3453 C3452 1.524 . S
C3453 C3454 1.397 . S
C3453 C3458 1.363 . S
C3454 H3431 0.950 . S
C3454 C3453 1.397 . S
C3454 C3455 1.334 . S
C3455 H3432 0.950 . S
C3455 C3454 1.334 . S
C3455 C3456 1.287 . S
C3456 C3455 1.287 . S
C3456 C3457 1.524 . S
C3456 H3475 0.913 . S
C3457 H3433 0.950 . S
C3457 C3456 1.524 . S
C3457 C3458 1.415 . S
C3458 H3434 0.950 . S
C3458 C3453 1.363 . S
C3458 C3457 1.415 . S
C3459 H3435 0.951 . S
C3459 C3460 1.366 . S
C3459 C3461 1.388 . S
C3460 C3459 1.366 . S
C3460 C3464 1.385 . S
C3461 H3436 0.951 . S
C3461 C3459 1.388 . S
C3461 C3462 1.366 . S
C3462 C3461 1.366 . S
C3462 C3463 1.414 . S
C3462 C3465 1.499 . S
C3463 H3437 0.950 . S
C3463 C3462 1.414 . S
C3463 C3464 1.374 . S
C3464 H3438 0.950 . S
C3464 C3460 1.385 . S
C3464 C3463 1.374 . S
C3465 C3462 1.499 . S
C3465 C3466 1.373 . S
C3465 C3467 1.389 . S
C3466 H3439 0.950 . S
C3466 C3452 1.377 . S
C3466 C3465 1.373 . S
C3467 C3451 1.377 . S
C3467 C3465 1.389 . S
C3467 C3468 1.524 . S
C3468 C3467 1.524 . S
C3468 C3469 1.397 . S
C3468 C3473 1.363 . S
C3469 H3440 0.950 . S
C3469 C3468 1.397 . S
C3469 C3470 1.334 . S
C3470 H3441 0.950 . S
C3470 C3469 1.334 . S
C3470 C3471 1.287 . S
C3471 C3470 1.287 . S
C3471 C3472 1.524 . S
C3471 H3474 0.999 . S
C3472 H3442 0.950 . S
C3472 C3471 1.524 . S
C3472 C3473 1.415 . S
C3473 H3443 0.950 . S
C3473 C3468 1.363 . S
C3473 C3472 1.415 . S
H3474 C3471 0.999 . S
H3475 C3456 0.913 . S
H3476 C3494 0.951 1_655 S
H3477 C3496 0.951 1_655 S
H3478 C3498 0.950 . S
H3479 C3499 0.950 . S
H3480 C3501 0.950 . S
H3481 C3504 0.950 . S
H3482 C3505 0.935 1_455 S
H3483 C3507 0.950 . S
H3484 C3508 0.950 . S
H3485 C3509 0.950 1_554 S
H3486 C3511 0.951 . S
H3487 C3513 0.967 . S
H3488 C3514 0.950 . S
H3489 C3516 0.950 . S
H3490 C3519 0.950 . S
H3491 C3520 0.950 . S
H3492 C3522 0.950 . S
H3493 C3523 0.929 1_556 S
C3494 H3476 0.951 1_455 S
C3494 C3495 1.366 . S
C3494 C3496 1.388 . S
C3495 C3494 1.366 . S
C3495 C3499 1.385 . S
C3496 H3477 0.951 1_455 S
C3496 C3494 1.388 . S
C3496 C3497 1.366 . S
C3497 C3496 1.366 . S
C3497 C3498 1.414 . S
C3497 C3500 1.499 . S
C3498 H3478 0.950 . S
C3498 C3497 1.414 . S
C3498 C3499 1.374 . S
C3499 H3479 0.950 . S
C3499 C3495 1.385 . S
C3499 C3498 1.374 . S
C3500 C3497 1.499 . S
C3500 C3501 1.373 . S
C3500 C3502 1.389 . S
C3501 H3480 0.950 . S
C3501 C3500 1.373 . S
C3501 C3517 1.377 . S
C3502 C3500 1.389 . S
C3502 C3503 1.543 . S
C3502 C3516 1.377 . S
C3503 C3502 1.543 . S
C3503 C3504 1.424 . S
C3503 C3508 1.320 1_455 S
C3504 H3481 0.950 . S
C3504 C3503 1.424 . S
C3504 C3505 1.325 1_455 S
C3505 H3482 0.935 1_655 S
C3505 C3504 1.325 1_655 S
C3505 C3506 1.312 . S
C3506 C3505 1.312 . S
C3506 C3507 1.524 . S
C3506 H3525 0.913 . S
C3507 H3483 0.950 . S
C3507 C3506 1.524 . S
C3507 C3508 1.415 . S
C3508 H3484 0.950 . S
C3508 C3503 1.320 1_655 S
C3508 C3507 1.415 . S
C3509 H3485 0.950 1_556 S
C3509 C3510 1.363 1_556 S
C3509 C3511 1.391 . S
C3510 C3509 1.363 1_554 S
C3510 C3514 1.385 1_554 S
C3511 H3486 0.951 . S
C3511 C3509 1.391 . S
C3511 C3512 1.366 . S
C3512 C3511 1.366 . S
C3512 C3513 1.414 . S
C3512 C3515 1.499 . S
C3513 H3487 0.967 . S
C3513 C3512 1.414 . S
C3513 C3514 1.374 . S
C3514 H3488 0.950 . S
C3514 C3510 1.385 1_556 S
C3514 C3513 1.374 . S
C3515 C3512 1.499 . S
C3515 C3516 1.373 . S
C3515 C3517 1.389 . S
C3516 H3489 0.950 . S
C3516 C3502 1.377 . S
C3516 C3515 1.373 . S
C3517 C3501 1.377 . S
C3517 C3515 1.389 . S
C3517 C3518 1.524 1_556 S
C3518 C3517 1.524 1_554 S
C3518 C3519 1.397 . S
C3518 C3523 1.363 . S
C3519 H3490 0.950 . S
C3519 C3518 1.397 . S
C3519 C3520 1.334 . S
C3520 H3491 0.950 . S
C3520 C3519 1.334 . S
C3520 C3521 1.287 . S
C3521 C3520 1.287 . S
C3521 C3522 1.524 . S
C3521 H3524 0.999 . S
C3522 H3492 0.950 . S
C3522 C3521 1.524 . S
C3522 C3523 1.415 . S
C3523 H3493 0.929 1_554 S
C3523 C3518 1.363 . S
C3523 C3522 1.415 . S
H3524 C3521 0.999 . S
H3525 C3506 0.913 . S
H3526 C3544 0.951 . S
H3527 C3546 0.951 . S
H3528 C3548 0.950 . S
H3529 C3549 0.950 . S
H3530 C3551 0.950 . S
H3531 C3554 0.950 . S
H3532 C3555 0.950 . S
H3533 C3557 0.950 . S
H3534 C3558 0.950 . S
H3535 C3559 0.951 . S
H3536 C3561 0.951 . S
H3537 C3563 0.950 . S
H3538 C3564 0.950 . S
H3539 C3566 0.950 . S
H3540 C3569 0.950 . S
H3541 C3570 0.950 . S
H3542 C3572 0.950 . S
H3543 C3573 0.950 . S
C3544 H3526 0.951 . S
C3544 C3545 1.366 . S
C3544 C3546 1.388 . S
C3545 C3544 1.366 . S
C3545 C3549 1.385 . S
C3546 H3527 0.951 . S
C3546 C3544 1.388 . S
C3546 C3547 1.366 1_455 S
C3547 C3546 1.366 1_655 S
C3547 C3548 1.414 . S
C3547 C3550 1.499 . S
C3548 H3528 0.950 . S
C3548 C3547 1.414 . S
C3548 C3549 1.374 1_655 S
C3549 H3529 0.950 . S
C3549 C3545 1.385 . S
C3549 C3548 1.374 1_455 S
C3550 C3547 1.499 . S
C3550 C3551 1.373 . S
C3550 C3552 1.389 . S
C3551 H3530 0.950 . S
C3551 C3550 1.373 . S
C3551 C3567 1.377 . S
C3552 C3550 1.389 . S
C3552 C3553 1.524 . S
C3552 C3566 1.377 . S
C3553 C3552 1.524 . S
C3553 C3554 1.397 . S
C3553 C3558 1.363 . S
C3554 H3531 0.950 . S
C3554 C3553 1.397 . S
C3554 C3555 1.334 1_655 S
C3555 H3532 0.950 . S
C3555 C3554 1.334 1_455 S
C3555 C3556 1.287 . S
C3556 C3555 1.287 . S
C3556 C3557 1.524 . S
C3556 H3575 0.913 . S
C3557 H3533 0.950 . S
C3557 C3556 1.524 . S
C3557 C3558 1.415 1_455 S
C3558 H3534 0.950 . S
C3558 C3553 1.363 . S
C3558 C3557 1.415 1_655 S
C3559 H3535 0.951 . S
C3559 C3560 1.366 . S
C3559 C3561 1.388 . S
C3560 C3559 1.366 . S
C3560 C3564 1.385 . S
C3561 H3536 0.951 . S
C3561 C3559 1.388 . S
C3561 C3562 1.366 . S
C3562 C3561 1.366 . S
C3562 C3563 1.414 . S
C3562 C3565 1.499 . S
C3563 H3537 0.950 . S
C3563 C3562 1.414 . S
C3563 C3564 1.374 . S
C3564 H3538 0.950 . S
C3564 C3560 1.385 . S
C3564 C3563 1.374 . S
C3565 C3562 1.499 . S
C3565 C3566 1.373 . S
C3565 C3567 1.389 . S
C3566 H3539 0.950 . S
C3566 C3552 1.377 . S
C3566 C3565 1.373 . S
C3567 C3551 1.377 . S
C3567 C3565 1.389 . S
C3567 C3568 1.524 . S
C3568 C3567 1.524 . S
C3568 C3569 1.397 . S
C3568 C3573 1.363 . S
C3569 H3540 0.950 . S
C3569 C3568 1.397 . S
C3569 C3570 1.334 . S
C3570 H3541 0.950 . S
C3570 C3569 1.334 . S
C3570 C3571 1.287 . S
C3571 C3570 1.287 . S
C3571 C3572 1.524 . S
C3571 H3574 0.999 . S
C3572 H3542 0.950 . S
C3572 C3571 1.524 . S
C3572 C3573 1.415 . S
C3573 H3543 0.950 . S
C3573 C3568 1.363 . S
C3573 C3572 1.415 . S
H3574 C3571 0.999 . S
H3575 C3556 0.913 . S
H3576 C3594 0.951 . S
H3577 C3596 0.951 . S
H3578 C3598 0.950 . S
H3579 C3599 0.950 . S
H3580 C3601 0.950 . S
H3581 C3604 0.950 . S
H3582 C3605 0.950 . S
H3583 C3607 0.950 . S
H3584 C3608 0.950 . S
H3585 C3609 0.951 . S
H3586 C3611 0.951 . S
H3587 C3613 0.950 . S
H3588 C3614 0.950 . S
H3589 C3616 0.950 . S
H3590 C3619 0.950 . S
H3591 C3620 0.950 . S
H3592 C3622 0.950 . S
H3593 C3623 0.950 . S
C3594 H3576 0.951 . S
C3594 C3595 1.366 . S
C3594 C3596 1.388 . S
C3595 C3594 1.366 . S
C3595 C3599 1.385 . S
C3596 H3577 0.951 . S
C3596 C3594 1.388 . S
C3596 C3597 1.366 . S
C3597 C3596 1.366 . S
C3597 C3598 1.414 . S
C3597 C3600 1.499 . S
C3598 H3578 0.950 . S
C3598 C3597 1.414 . S
C3598 C3599 1.374 . S
C3599 H3579 0.950 . S
C3599 C3595 1.385 . S
C3599 C3598 1.374 . S
C3600 C3597 1.499 . S
C3600 C3601 1.373 . S
C3600 C3602 1.389 . S
C3601 H3580 0.950 . S
C3601 C3600 1.373 . S
C3601 C3617 1.377 . S
C3602 C3600 1.389 . S
C3602 C3603 1.524 . S
C3602 C3616 1.377 . S
C3603 C3602 1.524 . S
C3603 C3604 1.397 . S
C3603 C3608 1.363 . S
C3604 H3581 0.950 . S
C3604 C3603 1.397 . S
C3604 C3605 1.334 . S
C3605 H3582 0.950 . S
C3605 C3604 1.334 . S
C3605 C3606 1.287 . S
C3606 C3605 1.287 . S
C3606 C3607 1.524 . S
C3606 H3625 0.913 . S
C3607 H3583 0.950 . S
C3607 C3606 1.524 . S
C3607 C3608 1.415 . S
C3608 H3584 0.950 . S
C3608 C3603 1.363 . S
C3608 C3607 1.415 . S
C3609 H3585 0.951 . S
C3609 C3610 1.366 . S
C3609 C3611 1.388 . S
C3610 C3609 1.366 . S
C3610 C3614 1.385 . S
C3611 H3586 0.951 . S
C3611 C3609 1.388 . S
C3611 C3612 1.366 . S
C3612 C3611 1.366 . S
C3612 C3613 1.414 . S
C3612 C3615 1.499 . S
C3613 H3587 0.950 . S
C3613 C3612 1.414 . S
C3613 C3614 1.374 . S
C3614 H3588 0.950 . S
C3614 C3610 1.385 . S
C3614 C3613 1.374 . S
C3615 C3612 1.499 . S
C3615 C3616 1.373 . S
C3615 C3617 1.389 . S
C3616 H3589 0.950 . S
C3616 C3602 1.377 . S
C3616 C3615 1.373 . S
C3617 C3601 1.377 . S
C3617 C3615 1.389 . S
C3617 C3618 1.524 . S
C3618 C3617 1.524 . S
C3618 C3619 1.397 . S
C3618 C3623 1.363 . S
C3619 H3590 0.950 . S
C3619 C3618 1.397 . S
C3619 C3620 1.334 . S
C3620 H3591 0.950 . S
C3620 C3619 1.334 . S
C3620 C3621 1.287 . S
C3621 C3620 1.287 . S
C3621 C3622 1.524 . S
C3621 H3624 0.999 . S
C3622 H3592 0.950 . S
C3622 C3621 1.524 . S
C3622 C3623 1.415 . S
C3623 H3593 0.950 . S
C3623 C3618 1.363 . S
C3623 C3622 1.415 . S
H3624 C3621 0.999 . S
H3625 C3606 0.913 . S
H3626 C3644 0.951 . S
H3627 C3646 0.951 . S
H3628 C3648 0.950 . S
H3629 C3649 0.950 . S
H3630 C3651 0.950 . S
H3631 C3654 0.950 . S
H3632 C3655 0.950 . S
H3633 C3657 0.950 . S
H3634 C3658 0.950 . S
H3635 C3659 0.951 . S
H3636 C3661 0.951 . S
H3637 C3663 0.950 . S
H3638 C3664 0.950 . S
H3639 C3666 0.950 . S
H3640 C3669 0.950 . S
H3641 C3670 0.950 . S
H3642 C3672 0.950 . S
H3643 C3673 0.950 . S
C3644 H3626 0.951 . S
C3644 C3645 1.366 . S
C3644 C3646 1.388 . S
C3645 C3644 1.366 . S
C3645 C3649 1.385 . S
C3646 H3627 0.951 . S
C3646 C3644 1.388 . S
C3646 C3647 1.366 . S
C3647 C3646 1.366 . S
C3647 C3648 1.414 . S
C3647 C3650 1.499 1_455 S
C3648 H3628 0.950 . S
C3648 C3647 1.414 . S
C3648 C3649 1.374 . S
C3649 H3629 0.950 . S
C3649 C3645 1.385 . S
C3649 C3648 1.374 . S
C3650 C3647 1.499 1_655 S
C3650 C3651 1.373 . S
C3650 C3652 1.389 . S
C3651 H3630 0.950 . S
C3651 C3650 1.373 . S
C3651 C3667 1.377 . S
C3652 C3650 1.389 . S
C3652 C3653 1.524 . S
C3652 C3666 1.377 . S
C3653 C3652 1.524 . S
C3653 C3654 1.397 1_655 S
C3653 C3658 1.363 . S
C3654 H3631 0.950 . S
C3654 C3653 1.397 1_455 S
C3654 C3655 1.334 . S
C3655 H3632 0.950 . S
C3655 C3654 1.334 . S
C3655 C3656 1.287 . S
C3656 C3655 1.287 . S
C3656 C3657 1.524 1_455 S
C3656 H3675 0.913 . S
C3657 H3633 0.950 . S
C3657 C3656 1.524 1_655 S
C3657 C3658 1.415 . S
C3658 H3634 0.950 . S
C3658 C3653 1.363 . S
C3658 C3657 1.415 . S
C3659 H3635 0.951 . S
C3659 C3660 1.366 . S
C3659 C3661 1.388 . S
C3660 C3659 1.366 . S
C3660 C3664 1.385 . S
C3661 H3636 0.951 . S
C3661 C3659 1.388 . S
C3661 C3662 1.366 . S
C3662 C3661 1.366 . S
C3662 C3663 1.414 . S
C3662 C3665 1.499 . S
C3663 H3637 0.950 . S
C3663 C3662 1.414 . S
C3663 C3664 1.374 . S
C3664 H3638 0.950 . S
C3664 C3660 1.385 . S
C3664 C3663 1.374 . S
C3665 C3662 1.499 . S
C3665 C3666 1.373 . S
C3665 C3667 1.389 . S
C3666 H3639 0.950 . S
C3666 C3652 1.377 . S
C3666 C3665 1.373 . S
C3667 C3651 1.377 . S
C3667 C3665 1.389 . S
C3667 C3668 1.524 . S
C3668 C3667 1.524 . S
C3668 C3669 1.397 . S
C3668 C3673 1.363 . S
C3669 H3640 0.950 . S
C3669 C3668 1.397 . S
C3669 C3670 1.334 . S
C3670 H3641 0.950 . S
C3670 C3669 1.334 . S
C3670 C3671 1.287 . S
C3671 C3670 1.287 . S
C3671 C3672 1.524 . S
C3671 H3674 0.999 . S
C3672 H3642 0.950 . S
C3672 C3671 1.524 . S
C3672 C3673 1.415 . S
C3673 H3643 0.950 . S
C3673 C3668 1.363 . S
C3673 C3672 1.415 . S
H3674 C3671 0.999 . S
H3675 C3656 0.913 . S
H3676 C3694 0.951 . S
H3677 C3696 0.954 . S
H3678 C3698 0.936 1_455 S
H3679 C3699 0.950 . S
H3680 C3701 0.950 . S
H3681 C3704 0.950 . S
H3682 C3705 0.950 . S
H3683 C3707 0.950 . S
H3684 C3708 0.950 . S
H3685 C3709 0.951 . S
H3686 C3711 0.951 . S
H3687 C3713 0.950 . S
H3688 C3714 0.950 . S
H3689 C3716 0.950 . S
H3690 C3719 0.950 . S
H3691 C3720 0.950 . S
H3692 C3722 0.950 . S
H3693 C3723 0.950 . S
C3694 H3676 0.951 . S
C3694 C3695 1.366 . S
C3694 C3696 1.388 . S
C3695 C3694 1.366 . S
C3695 C3699 1.385 . S
C3696 H3677 0.954 . S
C3696 C3694 1.388 . S
C3696 C3697 1.366 1_655 S
C3697 C3696 1.366 1_455 S
C3697 C3698 1.401 1_455 S
C3697 C3700 1.499 . S
C3698 H3678 0.936 1_655 S
C3698 C3697 1.401 1_655 S
C3698 C3699 1.397 . S
C3699 H3679 0.950 . S
C3699 C3695 1.385 . S
C3699 C3698 1.397 . S
C3700 C3697 1.499 . S
C3700 C3701 1.373 1_455 S
C3700 C3702 1.389 . S
C3701 H3680 0.950 . S
C3701 C3700 1.373 1_655 S
C3701 C3717 1.377 . S
C3702 C3700 1.389 . S
C3702 C3703 1.524 . S
C3702 C3716 1.377 . S
C3703 C3702 1.524 . S
C3703 C3704 1.397 . S
C3703 C3708 1.363 . S
C3704 H3681 0.950 . S
C3704 C3703 1.397 . S
C3704 C3705 1.334 . S
C3705 H3682 0.950 . S
C3705 C3704 1.334 . S
C3705 C3706 1.287 . S
C3706 C3705 1.287 . S
C3706 C3707 1.524 . S
C3706 H3725 0.913 . S
C3707 H3683 0.950 . S
C3707 C3706 1.524 . S
C3707 C3708 1.415 . S
C3708 H3684 0.950 . S
C3708 C3703 1.363 . S
C3708 C3707 1.415 . S
C3709 H3685 0.951 . S
C3709 C3710 1.366 . S
C3709 C3711 1.388 . S
C3710 C3709 1.366 . S
C3710 C3714 1.385 . S
C3711 H3686 0.951 . S
C3711 C3709 1.388 . S
C3711 C3712 1.366 . S
C3712 C3711 1.366 . S
C3712 C3713 1.414 . S
C3712 C3715 1.499 . S
C3713 H3687 0.950 . S
C3713 C3712 1.414 . S
C3713 C3714 1.374 . S
C3714 H3688 0.950 . S
C3714 C3710 1.385 . S
C3714 C3713 1.374 . S
C3715 C3712 1.499 . S
C3715 C3716 1.373 . S
C3715 C3717 1.389 1_455 S
C3716 H3689 0.950 . S
C3716 C3702 1.377 . S
C3716 C3715 1.373 . S
C3717 C3701 1.377 . S
C3717 C3715 1.389 1_655 S
C3717 C3718 1.524 . S
C3718 C3717 1.524 . S
C3718 C3719 1.397 . S
C3718 C3723 1.363 . S
C3719 H3690 0.950 . S
C3719 C3718 1.397 . S
C3719 C3720 1.334 . S
C3720 H3691 0.950 . S
C3720 C3719 1.334 . S
C3720 C3721 1.287 . S
C3721 C3720 1.287 . S
C3721 C3722 1.524 . S
C3721 H3724 0.999 . S
C3722 H3692 0.950 . S
C3722 C3721 1.524 . S
C3722 C3723 1.415 . S
C3723 H3693 0.950 . S
C3723 C3718 1.363 . S
C3723 C3722 1.415 . S
H3724 C3721 0.999 . S
H3725 C3706 0.913 . S
H3726 C3744 0.951 . S
H3727 C3746 0.951 . S
H3728 C3748 0.950 . S
H3729 C3749 0.950 . S
H3730 C3751 0.950 . S
H3731 C3754 0.950 . S
H3732 C3755 0.950 . S
H3733 C3757 0.950 . S
H3734 C3758 0.950 . S
H3735 C3759 0.951 . S
H3736 C3761 0.951 . S
H3737 C3763 0.950 . S
H3738 C3764 0.950 . S
H3739 C3766 0.950 . S
H3740 C3769 0.950 . S
H3741 C3770 0.950 . S
H3742 C3772 0.950 . S
H3743 C3773 0.950 . S
C3744 H3726 0.951 . S
C3744 C3745 1.366 . S
C3744 C3746 1.388 . S
C3745 C3744 1.366 . S
C3745 C3749 1.385 . S
C3746 H3727 0.951 . S
C3746 C3744 1.388 . S
C3746 C3747 1.366 . S
C3747 C3746 1.366 . S
C3747 C3748 1.414 . S
C3747 C3750 1.499 . S
C3748 H3728 0.950 . S
C3748 C3747 1.414 . S
C3748 C3749 1.374 . S
C3749 H3729 0.950 . S
C3749 C3745 1.385 . S
C3749 C3748 1.374 . S
C3750 C3747 1.499 . S
C3750 C3751 1.373 . S
C3750 C3752 1.389 . S
C3751 H3730 0.950 . S
C3751 C3750 1.373 . S
C3751 C3767 1.377 . S
C3752 C3750 1.389 . S
C3752 C3753 1.524 . S
C3752 C3766 1.377 . S
C3753 C3752 1.524 . S
C3753 C3754 1.397 . S
C3753 C3758 1.363 . S
C3754 H3731 0.950 . S
C3754 C3753 1.397 . S
C3754 C3755 1.334 . S
C3755 H3732 0.950 . S
C3755 C3754 1.334 . S
C3755 C3756 1.287 . S
C3756 C3755 1.287 . S
C3756 C3757 1.524 . S
C3756 H3775 0.913 . S
C3757 H3733 0.950 . S
C3757 C3756 1.524 . S
C3757 C3758 1.415 . S
C3758 H3734 0.950 . S
C3758 C3753 1.363 . S
C3758 C3757 1.415 . S
C3759 H3735 0.951 . S
C3759 C3760 1.366 . S
C3759 C3761 1.388 . S
C3760 C3759 1.366 . S
C3760 C3764 1.385 . S
C3761 H3736 0.951 . S
C3761 C3759 1.388 . S
C3761 C3762 1.366 . S
C3762 C3761 1.366 . S
C3762 C3763 1.414 . S
C3762 C3765 1.499 . S
C3763 H3737 0.950 . S
C3763 C3762 1.414 . S
C3763 C3764 1.374 . S
C3764 H3738 0.950 . S
C3764 C3760 1.385 . S
C3764 C3763 1.374 . S
C3765 C3762 1.499 . S
C3765 C3766 1.373 . S
C3765 C3767 1.389 . S
C3766 H3739 0.950 . S
C3766 C3752 1.377 . S
C3766 C3765 1.373 . S
C3767 C3751 1.377 . S
C3767 C3765 1.389 . S
C3767 C3768 1.524 . S
C3768 C3767 1.524 . S
C3768 C3769 1.397 . S
C3768 C3773 1.363 . S
C3769 H3740 0.950 . S
C3769 C3768 1.397 . S
C3769 C3770 1.334 . S
C3770 H3741 0.950 . S
C3770 C3769 1.334 . S
C3770 C3771 1.287 . S
C3771 C3770 1.287 . S
C3771 C3772 1.524 . S
C3771 H3774 0.999 . S
C3772 H3742 0.950 . S
C3772 C3771 1.524 . S
C3772 C3773 1.415 . S
C3773 H3743 0.950 . S
C3773 C3768 1.363 . S
C3773 C3772 1.415 . S
H3774 C3771 0.999 . S
H3775 C3756 0.913 . S
H3776 C3794 0.951 . S
H3777 C3796 0.951 . S
H3778 C3798 0.950 . S
H3779 C3799 0.950 . S
H3780 C3801 0.950 . S
H3781 C3804 0.950 . S
H3782 C3805 0.950 . S
H3783 C3807 0.950 . S
H3784 C3808 0.950 . S
H3785 C3809 0.951 . S
H3786 C3811 0.951 . S
H3787 C3813 0.950 . S
H3788 C3814 0.950 . S
H3789 C3816 0.950 . S
H3790 C3819 0.950 . S
H3791 C3820 0.950 . S
H3792 C3822 0.950 . S
H3793 C3823 0.950 . S
C3794 H3776 0.951 . S
C3794 C3795 1.366 . S
C3794 C3796 1.388 . S
C3795 C3794 1.366 . S
C3795 C3799 1.385 . S
C3796 H3777 0.951 . S
C3796 C3794 1.388 . S
C3796 C3797 1.366 . S
C3797 C3796 1.366 . S
C3797 C3798 1.414 . S
C3797 C3800 1.499 . S
C3798 H3778 0.950 . S
C3798 C3797 1.414 . S
C3798 C3799 1.374 . S
C3799 H3779 0.950 . S
C3799 C3795 1.385 . S
C3799 C3798 1.374 . S
C3800 C3797 1.499 . S
C3800 C3801 1.373 . S
C3800 C3802 1.389 . S
C3801 H3780 0.950 . S
C3801 C3800 1.373 . S
C3801 C3817 1.377 . S
C3802 C3800 1.389 . S
C3802 C3803 1.524 . S
C3802 C3816 1.377 . S
C3803 C3802 1.524 . S
C3803 C3804 1.397 . S
C3803 C3808 1.363 . S
C3804 H3781 0.950 . S
C3804 C3803 1.397 . S
C3804 C3805 1.334 . S
C3805 H3782 0.950 . S
C3805 C3804 1.334 . S
C3805 C3806 1.287 . S
C3806 C3805 1.287 . S
C3806 C3807 1.524 . S
C3806 H3825 0.913 . S
C3807 H3783 0.950 . S
C3807 C3806 1.524 . S
C3807 C3808 1.415 . S
C3808 H3784 0.950 . S
C3808 C3803 1.363 . S
C3808 C3807 1.415 . S
C3809 H3785 0.951 . S
C3809 C3810 1.366 . S
C3809 C3811 1.388 . S
C3810 C3809 1.366 . S
C3810 C3814 1.385 . S
C3811 H3786 0.951 . S
C3811 C3809 1.388 . S
C3811 C3812 1.366 . S
C3812 C3811 1.366 . S
C3812 C3813 1.414 . S
C3812 C3815 1.499 . S
C3813 H3787 0.950 . S
C3813 C3812 1.414 . S
C3813 C3814 1.374 . S
C3814 H3788 0.950 . S
C3814 C3810 1.385 . S
C3814 C3813 1.374 . S
C3815 C3812 1.499 . S
C3815 C3816 1.373 . S
C3815 C3817 1.389 . S
C3816 H3789 0.950 . S
C3816 C3802 1.377 . S
C3816 C3815 1.373 . S
C3817 C3801 1.377 . S
C3817 C3815 1.389 . S
C3817 C3818 1.524 . S
C3818 C3817 1.524 . S
C3818 C3819 1.397 . S
C3818 C3823 1.363 . S
C3819 H3790 0.950 . S
C3819 C3818 1.397 . S
C3819 C3820 1.334 . S
C3820 H3791 0.950 . S
C3820 C3819 1.334 . S
C3820 C3821 1.287 . S
C3821 C3820 1.287 . S
C3821 C3822 1.524 . S
C3821 H3824 0.999 . S
C3822 H3792 0.950 . S
C3822 C3821 1.524 . S
C3822 C3823 1.415 . S
C3823 H3793 0.950 . S
C3823 C3818 1.363 . S
C3823 C3822 1.415 . S
H3824 C3821 0.999 . S
H3825 C3806 0.913 . S
H3826 C3844 0.951 . S
H3827 C3846 0.951 . S
H3828 C3848 0.950 . S
H3829 C3849 0.950 . S
H3830 C3851 0.950 . S
H3831 C3854 0.950 . S
H3832 C3855 0.950 . S
H3833 C3857 0.950 . S
H3834 C3858 0.950 . S
H3835 C3859 0.951 . S
H3836 C3861 0.951 . S
H3837 C3863 0.950 . S
H3838 C3864 0.950 . S
H3839 C3866 0.950 . S
H3840 C3869 0.950 . S
H3841 C3870 0.950 . S
H3842 C3872 0.950 . S
H3843 C3873 0.950 . S
C3844 H3826 0.951 . S
C3844 C3845 1.366 . S
C3844 C3846 1.388 . S
C3845 C3844 1.366 . S
C3845 C3849 1.385 . S
C3846 H3827 0.951 . S
C3846 C3844 1.388 . S
C3846 C3847 1.366 . S
C3847 C3846 1.366 . S
C3847 C3848 1.414 . S
C3847 C3850 1.499 . S
C3848 H3828 0.950 . S
C3848 C3847 1.414 . S
C3848 C3849 1.374 . S
C3849 H3829 0.950 . S
C3849 C3845 1.385 . S
C3849 C3848 1.374 . S
C3850 C3847 1.499 . S
C3850 C3851 1.373 . S
C3850 C3852 1.389 . S
C3851 H3830 0.950 . S
C3851 C3850 1.373 . S
C3851 C3867 1.377 . S
C3852 C3850 1.389 . S
C3852 C3853 1.524 . S
C3852 C3866 1.377 . S
C3853 C3852 1.524 . S
C3853 C3854 1.397 . S
C3853 C3858 1.363 . S
C3854 H3831 0.950 . S
C3854 C3853 1.397 . S
C3854 C3855 1.334 . S
C3855 H3832 0.950 . S
C3855 C3854 1.334 . S
C3855 C3856 1.287 . S
C3856 C3855 1.287 . S
C3856 C3857 1.524 . S
C3856 H3875 0.913 . S
C3857 H3833 0.950 . S
C3857 C3856 1.524 . S
C3857 C3858 1.415 . S
C3858 H3834 0.950 . S
C3858 C3853 1.363 . S
C3858 C3857 1.415 . S
C3859 H3835 0.951 . S
C3859 C3860 1.366 . S
C3859 C3861 1.388 . S
C3860 C3859 1.366 . S
C3860 C3864 1.385 . S
C3861 H3836 0.951 . S
C3861 C3859 1.388 . S
C3861 C3862 1.366 . S
C3862 C3861 1.366 . S
C3862 C3863 1.414 . S
C3862 C3865 1.499 . S
C3863 H3837 0.950 . S
C3863 C3862 1.414 . S
C3863 C3864 1.374 . S
C3864 H3838 0.950 . S
C3864 C3860 1.385 . S
C3864 C3863 1.374 . S
C3865 C3862 1.499 . S
C3865 C3866 1.373 . S
C3865 C3867 1.389 . S
C3866 H3839 0.950 . S
C3866 C3852 1.377 . S
C3866 C3865 1.373 . S
C3867 C3851 1.377 . S
C3867 C3865 1.389 . S
C3867 C3868 1.524 . S
C3868 C3867 1.524 . S
C3868 C3869 1.397 . S
C3868 C3873 1.363 . S
C3869 H3840 0.950 . S
C3869 C3868 1.397 . S
C3869 C3870 1.334 . S
C3870 H3841 0.950 . S
C3870 C3869 1.334 . S
C3870 C3871 1.287 . S
C3871 C3870 1.287 . S
C3871 C3872 1.524 . S
C3871 H3874 0.999 . S
C3872 H3842 0.950 . S
C3872 C3871 1.524 . S
C3872 C3873 1.415 . S
C3873 H3843 0.950 . S
C3873 C3868 1.363 . S
C3873 C3872 1.415 . S
H3874 C3871 0.999 . S
H3875 C3856 0.913 . S
H3876 C3894 0.951 . S
H3877 C3896 0.951 . S
H3878 C3898 0.950 . S
H3879 C3899 0.950 . S
H3880 C3901 0.950 . S
H3881 C3904 0.950 . S
H3882 C3905 0.950 . S
H3883 C3907 0.950 . S
H3884 C3908 0.950 . S
H3885 C3909 0.951 . S
H3886 C3911 0.951 . S
H3887 C3913 0.950 . S
H3888 C3914 0.950 . S
H3889 C3916 0.950 . S
H3890 C3919 0.950 . S
H3891 C3920 0.950 . S
H3892 C3922 0.950 . S
H3893 C3923 0.950 . S
C3894 H3876 0.951 . S
C3894 C3895 1.366 . S
C3894 C3896 1.388 . S
C3895 C3894 1.366 . S
C3895 C3899 1.385 . S
C3896 H3877 0.951 . S
C3896 C3894 1.388 . S
C3896 C3897 1.366 . S
C3897 C3896 1.366 . S
C3897 C3898 1.414 . S
C3897 C3900 1.499 . S
C3898 H3878 0.950 . S
C3898 C3897 1.414 . S
C3898 C3899 1.374 . S
C3899 H3879 0.950 . S
C3899 C3895 1.385 . S
C3899 C3898 1.374 . S
C3900 C3897 1.499 . S
C3900 C3901 1.373 . S
C3900 C3902 1.389 . S
C3901 H3880 0.950 . S
C3901 C3900 1.373 . S
C3901 C3917 1.377 . S
C3902 C3900 1.389 . S
C3902 C3903 1.524 . S
C3902 C3916 1.377 . S
C3903 C3902 1.524 . S
C3903 C3904 1.397 . S
C3903 C3908 1.363 . S
C3904 H3881 0.950 . S
C3904 C3903 1.397 . S
C3904 C3905 1.334 . S
C3905 H3882 0.950 . S
C3905 C3904 1.334 . S
C3905 C3906 1.287 . S
C3906 C3905 1.287 . S
C3906 C3907 1.524 . S
C3906 H3925 0.913 . S
C3907 H3883 0.950 . S
C3907 C3906 1.524 . S
C3907 C3908 1.415 . S
C3908 H3884 0.950 . S
C3908 C3903 1.363 . S
C3908 C3907 1.415 . S
C3909 H3885 0.951 . S
C3909 C3910 1.366 . S
C3909 C3911 1.388 . S
C3910 C3909 1.366 . S
C3910 C3914 1.385 . S
C3911 H3886 0.951 . S
C3911 C3909 1.388 . S
C3911 C3912 1.366 . S
C3912 C3911 1.366 . S
C3912 C3913 1.414 . S
C3912 C3915 1.499 . S
C3913 H3887 0.950 . S
C3913 C3912 1.414 . S
C3913 C3914 1.374 . S
C3914 H3888 0.950 . S
C3914 C3910 1.385 . S
C3914 C3913 1.374 . S
C3915 C3912 1.499 . S
C3915 C3916 1.373 . S
C3915 C3917 1.389 . S
C3916 H3889 0.950 . S
C3916 C3902 1.377 . S
C3916 C3915 1.373 . S
C3917 C3901 1.377 . S
C3917 C3915 1.389 . S
C3917 C3918 1.524 . S
C3918 C3917 1.524 . S
C3918 C3919 1.397 . S
C3918 C3923 1.363 . S
C3919 H3890 0.950 . S
C3919 C3918 1.397 . S
C3919 C3920 1.334 . S
C3920 H3891 0.950 . S
C3920 C3919 1.334 . S
C3920 C3921 1.287 . S
C3921 C3920 1.287 . S
C3921 C3922 1.524 . S
C3921 H3924 0.999 . S
C3922 H3892 0.950 . S
C3922 C3921 1.524 . S
C3922 C3923 1.415 . S
C3923 H3893 0.950 . S
C3923 C3918 1.363 . S
C3923 C3922 1.415 . S
H3924 C3921 0.999 . S
H3925 C3906 0.913 . S
H3926 C3944 0.951 . S
H3927 C3946 0.951 . S
H3928 C3948 0.950 . S
H3929 C3949 0.950 . S
H3930 C3951 0.950 . S
H3931 C3954 0.950 . S
H3932 C3955 0.950 . S
H3933 C3957 0.950 . S
H3934 C3958 0.950 . S
H3935 C3959 0.951 . S
H3936 C3961 0.951 . S
H3937 C3963 0.950 . S
H3938 C3964 0.950 . S
H3939 C3966 0.950 . S
H3940 C3969 0.950 . S
H3941 C3970 0.950 . S
H3942 C3972 0.950 . S
H3943 C3973 0.950 . S
C3944 H3926 0.951 . S
C3944 C3945 1.366 . S
C3944 C3946 1.388 . S
C3945 C3944 1.366 . S
C3945 C3949 1.385 . S
C3946 H3927 0.951 . S
C3946 C3944 1.388 . S
C3946 C3947 1.366 . S
C3947 C3946 1.366 . S
C3947 C3948 1.414 . S
C3947 C3950 1.499 . S
C3948 H3928 0.950 . S
C3948 C3947 1.414 . S
C3948 C3949 1.374 . S
C3949 H3929 0.950 . S
C3949 C3945 1.385 . S
C3949 C3948 1.374 . S
C3950 C3947 1.499 . S
C3950 C3951 1.373 . S
C3950 C3952 1.389 . S
C3951 H3930 0.950 . S
C3951 C3950 1.373 . S
C3951 C3967 1.377 . S
C3952 C3950 1.389 . S
C3952 C3953 1.524 . S
C3952 C3966 1.377 . S
C3953 C3952 1.524 . S
C3953 C3954 1.397 . S
C3953 C3958 1.363 . S
C3954 H3931 0.950 . S
C3954 C3953 1.397 . S
C3954 C3955 1.334 . S
C3955 H3932 0.950 . S
C3955 C3954 1.334 . S
C3955 C3956 1.287 . S
C3956 C3955 1.287 . S
C3956 C3957 1.524 . S
C3956 H3975 0.913 . S
C3957 H3933 0.950 . S
C3957 C3956 1.524 . S
C3957 C3958 1.415 . S
C3958 H3934 0.950 . S
C3958 C3953 1.363 . S
C3958 C3957 1.415 . S
C3959 H3935 0.951 . S
C3959 C3960 1.366 . S
C3959 C3961 1.388 . S
C3960 C3959 1.366 . S
C3960 C3964 1.385 . S
C3961 H3936 0.951 . S
C3961 C3959 1.388 . S
C3961 C3962 1.366 . S
C3962 C3961 1.366 . S
C3962 C3963 1.414 . S
C3962 C3965 1.499 . S
C3963 H3937 0.950 . S
C3963 C3962 1.414 . S
C3963 C3964 1.374 . S
C3964 H3938 0.950 . S
C3964 C3960 1.385 . S
C3964 C3963 1.374 . S
C3965 C3962 1.499 . S
C3965 C3966 1.373 . S
C3965 C3967 1.389 . S
C3966 H3939 0.950 . S
C3966 C3952 1.377 . S
C3966 C3965 1.373 . S
C3967 C3951 1.377 . S
C3967 C3965 1.389 . S
C3967 C3968 1.524 . S
C3968 C3967 1.524 . S
C3968 C3969 1.397 . S
C3968 C3973 1.363 . S
C3969 H3940 0.950 . S
C3969 C3968 1.397 . S
C3969 C3970 1.334 . S
C3970 H3941 0.950 . S
C3970 C3969 1.334 . S
C3970 C3971 1.287 . S
C3971 C3970 1.287 . S
C3971 C3972 1.524 . S
C3971 H3974 0.999 . S
C3972 H3942 0.950 . S
C3972 C3971 1.524 . S
C3972 C3973 1.415 . S
C3973 H3943 0.950 . S
C3973 C3968 1.363 . S
C3973 C3972 1.415 . S
H3974 C3971 0.999 . S
H3975 C3956 0.913 . S
H3976 C3994 0.951 . S
H3977 C3996 0.951 . S
H3978 C3998 0.950 . S
H3979 C3999 0.950 . S
H3980 C4001 0.950 . S
H3981 C4004 0.950 . S
H3982 C4005 0.950 . S
H3983 C4007 0.950 . S
H3984 C4008 0.950 . S
H3985 C4009 0.951 . S
H3986 C4011 0.951 . S
H3987 C4013 0.950 . S
H3988 C4014 0.950 . S
H3989 C4016 0.950 . S
H3990 C4019 0.950 . S
H3991 C4020 0.950 . S
H3992 C4022 0.950 . S
H3993 C4023 0.950 . S
C3994 H3976 0.951 . S
C3994 C3995 1.366 . S
C3994 C3996 1.388 . S
C3995 C3994 1.366 . S
C3995 C3999 1.385 . S
C3996 H3977 0.951 . S
C3996 C3994 1.388 . S
C3996 C3997 1.366 . S
C3997 C3996 1.366 . S
C3997 C3998 1.414 . S
C3997 C4000 1.499 . S
C3998 H3978 0.950 . S
C3998 C3997 1.414 . S
C3998 C3999 1.374 . S
C3999 H3979 0.950 . S
C3999 C3995 1.385 . S
C3999 C3998 1.374 . S
C4000 C3997 1.499 . S
C4000 C4001 1.373 . S
C4000 C4002 1.389 . S
C4001 H3980 0.950 . S
C4001 C4000 1.373 . S
C4001 C4017 1.377 . S
C4002 C4000 1.389 . S
C4002 C4003 1.524 . S
C4002 C4016 1.377 . S
C4003 C4002 1.524 . S
C4003 C4004 1.397 . S
C4003 C4008 1.363 . S
C4004 H3981 0.950 . S
C4004 C4003 1.397 . S
C4004 C4005 1.334 . S
C4005 H3982 0.950 . S
C4005 C4004 1.334 . S
C4005 C4006 1.287 . S
C4006 C4005 1.287 . S
C4006 C4007 1.524 . S
C4006 H4025 0.913 . S
C4007 H3983 0.950 . S
C4007 C4006 1.524 . S
C4007 C4008 1.415 . S
C4008 H3984 0.950 . S
C4008 C4003 1.363 . S
C4008 C4007 1.415 . S
C4009 H3985 0.951 . S
C4009 C4010 1.366 . S
C4009 C4011 1.388 . S
C4010 C4009 1.366 . S
C4010 C4014 1.385 . S
C4011 H3986 0.951 . S
C4011 C4009 1.388 . S
C4011 C4012 1.366 . S
C4012 C4011 1.366 . S
C4012 C4013 1.414 . S
C4012 C4015 1.499 . S
C4013 H3987 0.950 . S
C4013 C4012 1.414 . S
C4013 C4014 1.374 . S
C4014 H3988 0.950 . S
C4014 C4010 1.385 . S
C4014 C4013 1.374 . S
C4015 C4012 1.499 . S
C4015 C4016 1.373 . S
C4015 C4017 1.389 . S
C4016 H3989 0.950 . S
C4016 C4002 1.377 . S
C4016 C4015 1.373 . S
C4017 C4001 1.377 . S
C4017 C4015 1.389 . S
C4017 C4018 1.524 . S
C4018 C4017 1.524 . S
C4018 C4019 1.397 . S
C4018 C4023 1.363 . S
C4019 H3990 0.950 . S
C4019 C4018 1.397 . S
C4019 C4020 1.334 . S
C4020 H3991 0.950 . S
C4020 C4019 1.334 . S
C4020 C4021 1.287 . S
C4021 C4020 1.287 . S
C4021 C4022 1.524 . S
C4021 H4024 0.999 . S
C4022 H3992 0.950 . S
C4022 C4021 1.524 . S
C4022 C4023 1.415 . S
C4023 H3993 0.950 . S
C4023 C4018 1.363 . S
C4023 C4022 1.415 . S
H4024 C4021 0.999 . S
H4025 C4006 0.913 . S
H4026 C4044 0.951 . S
H4027 C4046 0.951 . S
H4028 C4048 0.950 . S
H4029 C4049 0.950 . S
H4030 C4051 0.950 . S
H4031 C4054 0.950 . S
H4032 C4055 0.950 . S
H4033 C4057 0.950 . S
H4034 C4058 0.950 . S
H4035 C4059 0.951 . S
H4036 C4061 0.951 . S
H4037 C4063 0.950 . S
H4038 C4064 0.950 . S
H4039 C4066 0.950 . S
H4040 C4069 0.950 . S
H4041 C4070 0.950 . S
H4042 C4072 0.950 . S
H4043 C4073 0.950 . S
C4044 H4026 0.951 . S
C4044 C4045 1.366 . S
C4044 C4046 1.388 . S
C4045 C4044 1.366 . S
C4045 C4049 1.385 . S
C4046 H4027 0.951 . S
C4046 C4044 1.388 . S
C4046 C4047 1.366 . S
C4047 C4046 1.366 . S
C4047 C4048 1.414 . S
C4047 C4050 1.499 . S
C4048 H4028 0.950 . S
C4048 C4047 1.414 . S
C4048 C4049 1.374 . S
C4049 H4029 0.950 . S
C4049 C4045 1.385 . S
C4049 C4048 1.374 . S
C4050 C4047 1.499 . S
C4050 C4051 1.373 . S
C4050 C4052 1.389 . S
C4051 H4030 0.950 . S
C4051 C4050 1.373 . S
C4051 C4067 1.377 . S
C4052 C4050 1.389 . S
C4052 C4053 1.524 . S
C4052 C4066 1.377 . S
C4053 C4052 1.524 . S
C4053 C4054 1.397 . S
C4053 C4058 1.363 . S
C4054 H4031 0.950 . S
C4054 C4053 1.397 . S
C4054 C4055 1.334 . S
C4055 H4032 0.950 . S
C4055 C4054 1.334 . S
C4055 C4056 1.287 . S
C4056 C4055 1.287 . S
C4056 C4057 1.524 . S
C4056 H4075 0.913 . S
C4057 H4033 0.950 . S
C4057 C4056 1.524 . S
C4057 C4058 1.415 . S
C4058 H4034 0.950 . S
C4058 C4053 1.363 . S
C4058 C4057 1.415 . S
C4059 H4035 0.951 . S
C4059 C4060 1.366 . S
C4059 C4061 1.388 . S
C4060 C4059 1.366 . S
C4060 C4064 1.385 . S
C4061 H4036 0.951 . S
C4061 C4059 1.388 . S
C4061 C4062 1.366 . S
C4062 C4061 1.366 . S
C4062 C4063 1.414 . S
C4062 C4065 1.499 . S
C4063 H4037 0.950 . S
C4063 C4062 1.414 . S
C4063 C4064 1.374 . S
C4064 H4038 0.950 . S
C4064 C4060 1.385 . S
C4064 C4063 1.374 . S
C4065 C4062 1.499 . S
C4065 C4066 1.373 . S
C4065 C4067 1.389 . S
C4066 H4039 0.950 . S
C4066 C4052 1.377 . S
C4066 C4065 1.373 . S
C4067 C4051 1.377 . S
C4067 C4065 1.389 . S
C4067 C4068 1.524 . S
C4068 C4067 1.524 . S
C4068 C4069 1.397 . S
C4068 C4073 1.363 . S
C4069 H4040 0.950 . S
C4069 C4068 1.397 . S
C4069 C4070 1.334 . S
C4070 H4041 0.950 . S
C4070 C4069 1.334 . S
C4070 C4071 1.287 . S
C4071 C4070 1.287 . S
C4071 C4072 1.524 . S
C4071 H4074 0.999 . S
C4072 H4042 0.950 . S
C4072 C4071 1.524 . S
C4072 C4073 1.415 . S
C4073 H4043 0.950 . S
C4073 C4068 1.363 . S
C4073 C4072 1.415 . S
H4074 C4071 0.999 . S
H4075 C4056 0.913 . S
H4076 C4094 0.951 . S
H4077 C4096 0.951 . S
H4078 C4098 0.950 . S
H4079 C4099 0.950 . S
H4080 C4101 0.950 . S
H4081 C4104 0.950 . S
H4082 C4105 0.950 . S
H4083 C4107 0.950 . S
H4084 C4108 0.950 . S
H4085 C4109 0.951 . S
H4086 C4111 0.951 . S
H4087 C4113 0.950 . S
H4088 C4114 0.950 . S
H4089 C4116 0.950 . S
H4090 C4119 0.950 . S
H4091 C4120 0.950 . S
H4092 C4122 0.950 . S
H4093 C4123 0.950 . S
C4094 H4076 0.951 . S
C4094 C4095 1.366 . S
C4094 C4096 1.388 . S
C4095 C4094 1.366 . S
C4095 C4099 1.385 . S
C4096 H4077 0.951 . S
C4096 C4094 1.388 . S
C4096 C4097 1.366 . S
C4097 C4096 1.366 . S
C4097 C4098 1.414 . S
C4097 C4100 1.499 . S
C4098 H4078 0.950 . S
C4098 C4097 1.414 . S
C4098 C4099 1.374 . S
C4099 H4079 0.950 . S
C4099 C4095 1.385 . S
C4099 C4098 1.374 . S
C4100 C4097 1.499 . S
C4100 C4101 1.373 . S
C4100 C4102 1.389 . S
C4101 H4080 0.950 . S
C4101 C4100 1.373 . S
C4101 C4117 1.377 . S
C4102 C4100 1.389 . S
C4102 C4103 1.524 . S
C4102 C4116 1.377 . S
C4103 C4102 1.524 . S
C4103 C4104 1.397 . S
C4103 C4108 1.363 . S
C4104 H4081 0.950 . S
C4104 C4103 1.397 . S
C4104 C4105 1.334 . S
C4105 H4082 0.950 . S
C4105 C4104 1.334 . S
C4105 C4106 1.287 . S
C4106 C4105 1.287 . S
C4106 C4107 1.524 . S
C4106 H4125 0.913 . S
C4107 H4083 0.950 . S
C4107 C4106 1.524 . S
C4107 C4108 1.415 . S
C4108 H4084 0.950 . S
C4108 C4103 1.363 . S
C4108 C4107 1.415 . S
C4109 H4085 0.951 . S
C4109 C4110 1.366 . S
C4109 C4111 1.388 . S
C4110 C4109 1.366 . S
C4110 C4114 1.385 . S
C4111 H4086 0.951 . S
C4111 C4109 1.388 . S
C4111 C4112 1.366 . S
C4112 C4111 1.366 . S
C4112 C4113 1.414 . S
C4112 C4115 1.499 . S
C4113 H4087 0.950 . S
C4113 C4112 1.414 . S
C4113 C4114 1.374 . S
C4114 H4088 0.950 . S
C4114 C4110 1.385 . S
C4114 C4113 1.374 . S
C4115 C4112 1.499 . S
C4115 C4116 1.373 . S
C4115 C4117 1.389 . S
C4116 H4089 0.950 . S
C4116 C4102 1.377 . S
C4116 C4115 1.373 . S
C4117 C4101 1.377 . S
C4117 C4115 1.389 . S
C4117 C4118 1.524 . S
C4118 C4117 1.524 . S
C4118 C4119 1.397 . S
C4118 C4123 1.363 . S
C4119 H4090 0.950 . S
C4119 C4118 1.397 . S
C4119 C4120 1.334 . S
C4120 H4091 0.950 . S
C4120 C4119 1.334 . S
C4120 C4121 1.287 . S
C4121 C4120 1.287 . S
C4121 C4122 1.524 . S
C4121 H4124 0.999 . S
C4122 H4092 0.950 . S
C4122 C4121 1.524 . S
C4122 C4123 1.415 . S
C4123 H4093 0.950 . S
C4123 C4118 1.363 . S
C4123 C4122 1.415 . S
H4124 C4121 0.999 . S
H4125 C4106 0.913 . S
H4126 C4144 0.951 . S
H4127 C4146 0.951 . S
H4128 C4148 0.950 . S
H4129 C4149 0.950 . S
H4130 C4151 0.950 . S
H4131 C4154 0.950 . S
H4132 C4155 0.950 . S
H4133 C4157 0.950 . S
H4134 C4158 0.950 . S
H4135 C4159 0.951 . S
H4136 C4161 0.951 . S
H4137 C4163 0.950 . S
H4138 C4164 0.950 . S
H4139 C4166 0.950 . S
H4140 C4169 0.950 . S
H4141 C4170 0.950 . S
H4142 C4172 0.950 . S
H4143 C4173 0.950 . S
C4144 H4126 0.951 . S
C4144 C4145 1.366 . S
C4144 C4146 1.388 . S
C4145 C4144 1.366 . S
C4145 C4149 1.385 . S
C4146 H4127 0.951 . S
C4146 C4144 1.388 . S
C4146 C4147 1.366 . S
C4147 C4146 1.366 . S
C4147 C4148 1.414 . S
C4147 C4150 1.499 . S
C4148 H4128 0.950 . S
C4148 C4147 1.414 . S
C4148 C4149 1.374 . S
C4149 H4129 0.950 . S
C4149 C4145 1.385 . S
C4149 C4148 1.374 . S
C4150 C4147 1.499 . S
C4150 C4151 1.373 . S
C4150 C4152 1.389 . S
C4151 H4130 0.950 . S
C4151 C4150 1.373 . S
C4151 C4167 1.377 . S
C4152 C4150 1.389 . S
C4152 C4153 1.524 . S
C4152 C4166 1.377 . S
C4153 C4152 1.524 . S
C4153 C4154 1.397 . S
C4153 C4158 1.363 . S
C4154 H4131 0.950 . S
C4154 C4153 1.397 . S
C4154 C4155 1.334 . S
C4155 H4132 0.950 . S
C4155 C4154 1.334 . S
C4155 C4156 1.287 . S
C4156 C4155 1.287 . S
C4156 C4157 1.524 . S
C4156 H4175 0.913 . S
C4157 H4133 0.950 . S
C4157 C4156 1.524 . S
C4157 C4158 1.415 . S
C4158 H4134 0.950 . S
C4158 C4153 1.363 . S
C4158 C4157 1.415 . S
C4159 H4135 0.951 . S
C4159 C4160 1.366 . S
C4159 C4161 1.388 . S
C4160 C4159 1.366 . S
C4160 C4164 1.385 . S
C4161 H4136 0.951 . S
C4161 C4159 1.388 . S
C4161 C4162 1.366 . S
C4162 C4161 1.366 . S
C4162 C4163 1.414 . S
C4162 C4165 1.499 . S
C4163 H4137 0.950 . S
C4163 C4162 1.414 . S
C4163 C4164 1.374 . S
C4164 H4138 0.950 . S
C4164 C4160 1.385 . S
C4164 C4163 1.374 . S
C4165 C4162 1.499 . S
C4165 C4166 1.373 . S
C4165 C4167 1.389 . S
C4166 H4139 0.950 . S
C4166 C4152 1.377 . S
C4166 C4165 1.373 . S
C4167 C4151 1.377 . S
C4167 C4165 1.389 . S
C4167 C4168 1.524 . S
C4168 C4167 1.524 . S
C4168 C4169 1.397 . S
C4168 C4173 1.363 . S
C4169 H4140 0.950 . S
C4169 C4168 1.397 . S
C4169 C4170 1.334 . S
C4170 H4141 0.950 . S
C4170 C4169 1.334 . S
C4170 C4171 1.287 . S
C4171 C4170 1.287 . S
C4171 C4172 1.524 . S
C4171 H4174 0.999 . S
C4172 H4142 0.950 . S
C4172 C4171 1.524 . S
C4172 C4173 1.415 . S
C4173 H4143 0.950 . S
C4173 C4168 1.363 . S
C4173 C4172 1.415 . S
H4174 C4171 0.999 . S
H4175 C4156 0.913 . S
H4176 C4194 0.951 . S
H4177 C4196 0.951 . S
H4178 C4198 0.950 . S
H4179 C4199 0.950 . S
H4180 C4201 0.950 . S
H4181 C4204 0.950 . S
H4182 C4205 0.950 . S
H4183 C4207 0.950 . S
H4184 C4208 0.950 . S
H4185 C4209 0.951 . S
H4186 C4211 0.951 . S
H4187 C4213 0.950 . S
H4188 C4214 0.950 . S
H4189 C4216 0.950 . S
H4190 C4219 0.950 . S
H4191 C4220 0.950 . S
H4192 C4222 0.950 . S
H4193 C4223 0.950 . S
C4194 H4176 0.951 . S
C4194 C4195 1.366 . S
C4194 C4196 1.388 . S
C4195 C4194 1.366 . S
C4195 C4199 1.385 . S
C4196 H4177 0.951 . S
C4196 C4194 1.388 . S
C4196 C4197 1.366 . S
C4197 C4196 1.366 . S
C4197 C4198 1.414 . S
C4197 C4200 1.499 . S
C4198 H4178 0.950 . S
C4198 C4197 1.414 . S
C4198 C4199 1.374 . S
C4199 H4179 0.950 . S
C4199 C4195 1.385 . S
C4199 C4198 1.374 . S
C4200 C4197 1.499 . S
C4200 C4201 1.373 . S
C4200 C4202 1.389 . S
C4201 H4180 0.950 . S
C4201 C4200 1.373 . S
C4201 C4217 1.377 . S
C4202 C4200 1.389 . S
C4202 C4203 1.524 . S
C4202 C4216 1.377 . S
C4203 C4202 1.524 . S
C4203 C4204 1.397 . S
C4203 C4208 1.363 . S
C4204 H4181 0.950 . S
C4204 C4203 1.397 . S
C4204 C4205 1.334 . S
C4205 H4182 0.950 . S
C4205 C4204 1.334 . S
C4205 C4206 1.287 . S
C4206 C4205 1.287 . S
C4206 C4207 1.524 . S
C4206 H4225 0.913 . S
C4207 H4183 0.950 . S
C4207 C4206 1.524 . S
C4207 C4208 1.415 . S
C4208 H4184 0.950 . S
C4208 C4203 1.363 . S
C4208 C4207 1.415 . S
C4209 H4185 0.951 . S
C4209 C4210 1.366 . S
C4209 C4211 1.388 . S
C4210 C4209 1.366 . S
C4210 C4214 1.385 . S
C4211 H4186 0.951 . S
C4211 C4209 1.388 . S
C4211 C4212 1.366 . S
C4212 C4211 1.366 . S
C4212 C4213 1.414 . S
C4212 C4215 1.499 . S
C4213 H4187 0.950 . S
C4213 C4212 1.414 . S
C4213 C4214 1.374 . S
C4214 H4188 0.950 . S
C4214 C4210 1.385 . S
C4214 C4213 1.374 . S
C4215 C4212 1.499 . S
C4215 C4216 1.373 . S
C4215 C4217 1.389 . S
C4216 H4189 0.950 . S
C4216 C4202 1.377 . S
C4216 C4215 1.373 . S
C4217 C4201 1.377 . S
C4217 C4215 1.389 . S
C4217 C4218 1.524 . S
C4218 C4217 1.524 . S
C4218 C4219 1.397 . S
C4218 C4223 1.363 . S
C4219 H4190 0.950 . S
C4219 C4218 1.397 . S
C4219 C4220 1.334 . S
C4220 H4191 0.950 . S
C4220 C4219 1.334 . S
C4220 C4221 1.287 . S
C4221 C4220 1.287 . S
C4221 C4222 1.524 . S
C4221 H4224 0.999 . S
C4222 H4192 0.950 . S
C4222 C4221 1.524 . S
C4222 C4223 1.415 . S
C4223 H4193 0.950 . S
C4223 C4218 1.363 . S
C4223 C4222 1.415 . S
H4224 C4221 0.999 . S
H4225 C4206 0.913 . S
H4226 C4244 0.951 . S
H4227 C4246 0.951 . S
H4228 C4248 0.950 . S
H4229 C4249 0.950 . S
H4230 C4251 0.950 . S
H4231 C4254 0.950 . S
H4232 C4255 0.950 . S
H4233 C4257 0.950 . S
H4234 C4258 0.950 . S
H4235 C4259 0.951 . S
H4236 C4261 0.951 . S
H4237 C4263 0.950 . S
H4238 C4264 0.950 . S
H4239 C4266 0.950 . S
H4240 C4269 0.950 . S
H4241 C4270 0.950 . S
H4242 C4272 0.950 . S
H4243 C4273 0.950 . S
C4244 H4226 0.951 . S
C4244 C4245 1.366 . S
C4244 C4246 1.388 . S
C4245 C4244 1.366 . S
C4245 C4249 1.385 . S
C4246 H4227 0.951 . S
C4246 C4244 1.388 . S
C4246 C4247 1.366 . S
C4247 C4246 1.366 . S
C4247 C4248 1.414 . S
C4247 C4250 1.499 . S
C4248 H4228 0.950 . S
C4248 C4247 1.414 . S
C4248 C4249 1.374 . S
C4249 H4229 0.950 . S
C4249 C4245 1.385 . S
C4249 C4248 1.374 . S
C4250 C4247 1.499 . S
C4250 C4251 1.373 . S
C4250 C4252 1.389 . S
C4251 H4230 0.950 . S
C4251 C4250 1.373 . S
C4251 C4267 1.377 . S
C4252 C4250 1.389 . S
C4252 C4253 1.524 . S
C4252 C4266 1.377 . S
C4253 C4252 1.524 . S
C4253 C4254 1.397 . S
C4253 C4258 1.363 . S
C4254 H4231 0.950 . S
C4254 C4253 1.397 . S
C4254 C4255 1.334 . S
C4255 H4232 0.950 . S
C4255 C4254 1.334 . S
C4255 C4256 1.287 . S
C4256 C4255 1.287 . S
C4256 C4257 1.524 . S
C4256 H4275 0.913 . S
C4257 H4233 0.950 . S
C4257 C4256 1.524 . S
C4257 C4258 1.415 . S
C4258 H4234 0.950 . S
C4258 C4253 1.363 . S
C4258 C4257 1.415 . S
C4259 H4235 0.951 . S
C4259 C4260 1.366 . S
C4259 C4261 1.388 . S
C4260 C4259 1.366 . S
C4260 C4264 1.385 . S
C4261 H4236 0.951 . S
C4261 C4259 1.388 . S
C4261 C4262 1.366 . S
C4262 C4261 1.366 . S
C4262 C4263 1.414 . S
C4262 C4265 1.499 . S
C4263 H4237 0.950 . S
C4263 C4262 1.414 . S
C4263 C4264 1.374 . S
C4264 H4238 0.950 . S
C4264 C4260 1.385 . S
C4264 C4263 1.374 . S
C4265 C4262 1.499 . S
C4265 C4266 1.373 . S
C4265 C4267 1.389 . S
C4266 H4239 0.950 . S
C4266 C4252 1.377 . S
C4266 C4265 1.373 . S
C4267 C4251 1.377 . S
C4267 C4265 1.389 . S
C4267 C4268 1.524 . S
C4268 C4267 1.524 . S
C4268 C4269 1.397 . S
C4268 C4273 1.363 . S
C4269 H4240 0.950 . S
C4269 C4268 1.397 . S
C4269 C4270 1.334 . S
C4270 H4241 0.950 . S
C4270 C4269 1.334 . S
C4270 C4271 1.287 . S
C4271 C4270 1.287 . S
C4271 C4272 1.524 . S
C4271 H4274 0.999 . S
C4272 H4242 0.950 . S
C4272 C4271 1.524 . S
C4272 C4273 1.415 . S
C4273 H4243 0.950 . S
C4273 C4268 1.363 . S
C4273 C4272 1.415 . S
H4274 C4271 0.999 . S
H4275 C4256 0.913 . S
H4276 C4294 0.951 . S
H4277 C4296 0.951 . S
H4278 C4298 0.950 . S
H4279 C4299 0.950 . S
H4280 C4301 0.950 . S
H4281 C4304 0.950 . S
H4282 C4305 0.950 . S
H4283 C4307 0.950 . S
H4284 C4308 0.950 . S
H4285 C4309 0.951 . S
H4286 C4311 0.951 . S
H4287 C4313 0.950 . S
H4288 C4314 0.950 . S
H4289 C4316 0.950 . S
H4290 C4319 0.950 . S
H4291 C4320 0.950 . S
H4292 C4322 0.950 . S
H4293 C4323 0.950 . S
C4294 H4276 0.951 . S
C4294 C4295 1.366 . S
C4294 C4296 1.388 . S
C4295 C4294 1.366 . S
C4295 C4299 1.385 . S
C4296 H4277 0.951 . S
C4296 C4294 1.388 . S
C4296 C4297 1.366 . S
C4297 C4296 1.366 . S
C4297 C4298 1.414 . S
C4297 C4300 1.499 . S
C4298 H4278 0.950 . S
C4298 C4297 1.414 . S
C4298 C4299 1.374 . S
C4299 H4279 0.950 . S
C4299 C4295 1.385 . S
C4299 C4298 1.374 . S
C4300 C4297 1.499 . S
C4300 C4301 1.373 . S
C4300 C4302 1.389 . S
C4301 H4280 0.950 . S
C4301 C4300 1.373 . S
C4301 C4317 1.377 . S
C4302 C4300 1.389 . S
C4302 C4303 1.524 . S
C4302 C4316 1.377 . S
C4303 C4302 1.524 . S
C4303 C4304 1.397 . S
C4303 C4308 1.363 . S
C4304 H4281 0.950 . S
C4304 C4303 1.397 . S
C4304 C4305 1.334 . S
C4305 H4282 0.950 . S
C4305 C4304 1.334 . S
C4305 C4306 1.287 . S
C4306 C4305 1.287 . S
C4306 C4307 1.524 . S
C4306 H4325 0.913 . S
C4307 H4283 0.950 . S
C4307 C4306 1.524 . S
C4307 C4308 1.415 . S
C4308 H4284 0.950 . S
C4308 C4303 1.363 . S
C4308 C4307 1.415 . S
C4309 H4285 0.951 . S
C4309 C4310 1.366 . S
C4309 C4311 1.388 . S
C4310 C4309 1.366 . S
C4310 C4314 1.385 . S
C4311 H4286 0.951 . S
C4311 C4309 1.388 . S
C4311 C4312 1.366 . S
C4312 C4311 1.366 . S
C4312 C4313 1.414 . S
C4312 C4315 1.499 . S
C4313 H4287 0.950 . S
C4313 C4312 1.414 . S
C4313 C4314 1.374 . S
C4314 H4288 0.950 . S
C4314 C4310 1.385 . S
C4314 C4313 1.374 . S
C4315 C4312 1.499 . S
C4315 C4316 1.373 . S
C4315 C4317 1.389 . S
C4316 H4289 0.950 . S
C4316 C4302 1.377 . S
C4316 C4315 1.373 . S
C4317 C4301 1.377 . S
C4317 C4315 1.389 . S
C4317 C4318 1.524 . S
C4318 C4317 1.524 . S
C4318 C4319 1.397 . S
C4318 C4323 1.363 . S
C4319 H4290 0.950 . S
C4319 C4318 1.397 . S
C4319 C4320 1.334 . S
C4320 H4291 0.950 . S
C4320 C4319 1.334 . S
C4320 C4321 1.287 . S
C4321 C4320 1.287 . S
C4321 C4322 1.524 . S
C4321 H4324 0.999 . S
C4322 H4292 0.950 . S
C4322 C4321 1.524 . S
C4322 C4323 1.415 . S
C4323 H4293 0.950 . S
C4323 C4318 1.363 . S
C4323 C4322 1.415 . S
H4324 C4321 0.999 . S
H4325 C4306 0.913 . S
H4326 C4344 0.951 . S
H4327 C4346 0.951 . S
H4328 C4348 0.950 . S
H4329 C4349 0.986 . S
H4330 C4351 0.950 1_556 S
H4331 C4354 0.950 1_565 S
H4332 C4355 0.950 . S
H4333 C4357 0.950 . S
H4334 C4358 0.950 . S
H4335 C4359 0.951 . S
H4336 C4361 0.951 . S
H4337 C4363 0.950 . S
H4338 C4364 0.950 . S
H4339 C4366 0.950 1_545 S
H4340 C4369 0.950 . S
H4341 C4370 0.959 . S
H4342 C4372 0.950 . S
H4343 C4373 0.950 . S
C4344 H4326 0.951 . S
C4344 C4345 1.366 . S
C4344 C4346 1.388 . S
C4345 C4344 1.366 . S
C4345 C4349 1.336 1_554 S
C4346 H4327 0.951 . S
C4346 C4344 1.388 . S
C4346 C4347 1.366 . S
C4347 C4346 1.366 . S
C4347 C4348 1.414 1_554 S
C4347 C4350 1.499 . S
C4348 H4328 0.950 . S
C4348 C4347 1.414 1_556 S
C4348 C4349 1.388 . S
C4349 H4329 0.986 . S
C4349 C4345 1.336 1_556 S
C4349 C4348 1.388 . S
C4350 C4347 1.499 . S
C4350 C4351 1.373 . S
C4350 C4352 1.389 . S
C4351 H4330 0.950 1_554 S
C4351 C4350 1.373 . S
C4351 C4367 1.377 . S
C4352 C4350 1.389 . S
C4352 C4353 1.524 1_565 S
C4352 C4366 1.377 . S
C4353 C4352 1.524 1_545 S
C4353 C4354 1.397 . S
C4353 C4358 1.363 . S
C4354 H4331 0.950 1_545 S
C4354 C4353 1.397 . S
C4354 C4355 1.334 . S
C4355 H4332 0.950 . S
C4355 C4354 1.334 . S
C4355 C4356 1.287 . S
C4356 C4355 1.287 . S
C4356 C4357 1.524 . S
C4356 H4375 0.913 . S
C4357 H4333 0.950 . S
C4357 C4356 1.524 . S
C4357 C4358 1.415 . S
C4358 H4334 0.950 . S
C4358 C4353 1.363 . S
C4358 C4357 1.415 . S
C4359 H4335 0.951 . S
C4359 C4360 1.366 1_556 S
C4359 C4361 1.388 1_545 S
C4360 C4359 1.366 1_554 S
C4360 C4364 1.385 . S
C4361 H4336 0.951 . S
C4361 C4359 1.388 1_565 S
C4361 C4362 1.366 1_556 S
C4362 C4361 1.366 1_554 S
C4362 C4363 1.414 1_565 S
C4362 C4365 1.499 . S
C4363 H4337 0.950 . S
C4363 C4362 1.414 1_545 S
C4363 C4364 1.374 . S
C4364 H4338 0.950 . S
C4364 C4360 1.385 . S
C4364 C4363 1.374 . S
C4365 C4362 1.499 . S
C4365 C4366 1.373 . S
C4365 C4367 1.389 . S
C4366 H4339 0.950 1_565 S
C4366 C4352 1.377 . S
C4366 C4365 1.373 . S
C4367 C4351 1.377 . S
C4367 C4365 1.389 . S
C4367 C4368 1.524 1_554 S
C4368 C4367 1.524 1_556 S
C4368 C4369 1.397 1_556 S
C4368 C4373 1.363 . S
C4369 H4340 0.950 . S
C4369 C4368 1.397 1_554 S
C4369 C4370 1.339 . S
C4370 H4341 0.959 . S
C4370 C4369 1.339 . S
C4370 C4371 1.272 1_554 S
C4371 C4370 1.272 1_556 S
C4371 C4372 1.524 . S
C4371 H4374 0.999 . S
C4372 H4342 0.950 . S
C4372 C4371 1.524 . S
C4372 C4373 1.415 . S
C4373 H4343 0.950 . S
C4373 C4368 1.363 . S
C4373 C4372 1.415 . S
H4374 C4371 0.999 . S
H4375 C4356 0.913 . S
H4376 C4394 0.951 . S
H4377 C4396 0.951 . S
H4378 C4398 0.950 . S
H4379 C4399 0.950 . S
H4380 C4401 0.950 . S
H4381 C4404 0.950 . S
H4382 C4405 0.950 . S
H4383 C4407 0.950 . S
H4384 C4408 0.950 . S
H4385 C4409 0.951 . S
H4386 C4411 0.951 . S
H4387 C4413 0.950 . S
H4388 C4414 0.950 . S
H4389 C4416 0.950 . S
H4390 C4419 0.950 . S
H4391 C4420 0.950 . S
H4392 C4422 0.950 . S
H4393 C4423 0.950 . S
C4394 H4376 0.951 . S
C4394 C4395 1.366 . S
C4394 C4396 1.388 . S
C4395 C4394 1.366 . S
C4395 C4399 1.385 . S
C4396 H4377 0.951 . S
C4396 C4394 1.388 . S
C4396 C4397 1.366 . S
C4397 C4396 1.366 . S
C4397 C4398 1.414 . S
C4397 C4400 1.499 . S
C4398 H4378 0.950 . S
C4398 C4397 1.414 . S
C4398 C4399 1.374 . S
C4399 H4379 0.950 . S
C4399 C4395 1.385 . S
C4399 C4398 1.374 . S
C4400 C4397 1.499 . S
C4400 C4401 1.373 . S
C4400 C4402 1.389 . S
C4401 H4380 0.950 . S
C4401 C4400 1.373 . S
C4401 C4417 1.377 . S
C4402 C4400 1.389 . S
C4402 C4403 1.524 . S
C4402 C4416 1.377 . S
C4403 C4402 1.524 . S
C4403 C4404 1.397 . S
C4403 C4408 1.363 . S
C4404 H4381 0.950 . S
C4404 C4403 1.397 . S
C4404 C4405 1.334 . S
C4405 H4382 0.950 . S
C4405 C4404 1.334 . S
C4405 C4406 1.287 . S
C4406 C4405 1.287 . S
C4406 C4407 1.524 . S
C4406 H4425 0.913 . S
C4407 H4383 0.950 . S
C4407 C4406 1.524 . S
C4407 C4408 1.415 . S
C4408 H4384 0.950 . S
C4408 C4403 1.363 . S
C4408 C4407 1.415 . S
C4409 H4385 0.951 . S
C4409 C4410 1.366 . S
C4409 C4411 1.388 . S
C4410 C4409 1.366 . S
C4410 C4414 1.385 . S
C4411 H4386 0.951 . S
C4411 C4409 1.388 . S
C4411 C4412 1.366 . S
C4412 C4411 1.366 . S
C4412 C4413 1.414 . S
C4412 C4415 1.499 . S
C4413 H4387 0.950 . S
C4413 C4412 1.414 . S
C4413 C4414 1.374 . S
C4414 H4388 0.950 . S
C4414 C4410 1.385 . S
C4414 C4413 1.374 . S
C4415 C4412 1.499 . S
C4415 C4416 1.373 . S
C4415 C4417 1.389 . S
C4416 H4389 0.950 . S
C4416 C4402 1.377 . S
C4416 C4415 1.373 . S
C4417 C4401 1.377 . S
C4417 C4415 1.389 . S
C4417 C4418 1.524 . S
C4418 C4417 1.524 . S
C4418 C4419 1.397 . S
C4418 C4423 1.363 . S
C4419 H4390 0.950 . S
C4419 C4418 1.397 . S
C4419 C4420 1.334 . S
C4420 H4391 0.950 . S
C4420 C4419 1.334 . S
C4420 C4421 1.287 . S
C4421 C4420 1.287 . S
C4421 C4422 1.524 . S
C4421 H4424 0.999 . S
C4422 H4392 0.950 . S
C4422 C4421 1.524 . S
C4422 C4423 1.415 . S
C4423 H4393 0.950 . S
C4423 C4418 1.363 . S
C4423 C4422 1.415 . S
H4424 C4421 0.999 . S
H4425 C4406 0.913 . S
H4426 C4444 0.951 . S
H4427 C4446 0.973 . S
H4428 C4448 0.950 . S
H4429 C4449 0.950 . S
H4430 C4451 0.950 . S
H4431 C4454 0.950 . S
H4432 C4455 0.950 . S
H4433 C4457 0.950 . S
H4434 C4458 0.989 . S
H4435 C4459 0.951 . S
H4436 C4461 0.951 . S
H4437 C4463 0.950 . S
H4438 C4464 0.950 . S
H4439 C4466 0.950 . S
H4440 C4469 0.950 . S
H4441 C4470 0.950 . S
H4442 C4472 0.950 . S
H4443 C4473 0.950 . S
C4444 H4426 0.951 . S
C4444 C4445 1.366 1_556 S
C4444 C4446 1.396 . S
C4445 C4444 1.366 1_554 S
C4445 C4449 1.385 . S
C4446 H4427 0.973 . S
C4446 C4444 1.396 . S
C4446 C4447 1.336 1_556 S
C4447 C4446 1.336 1_554 S
C4447 C4448 1.414 . S
C4447 C4450 1.499 . S
C4448 H4428 0.950 . S
C4448 C4447 1.414 . S
C4448 C4449 1.374 . S
C4449 H4429 0.950 . S
C4449 C4445 1.385 . S
C4449 C4448 1.374 . S
C4450 C4447 1.499 . S
C4450 C4451 1.373 . S
C4450 C4452 1.389 . S
C4451 H4430 0.950 . S
C4451 C4450 1.373 . S
C4451 C4467 1.377 . S
C4452 C4450 1.389 . S
C4452 C4453 1.524 . S
C4452 C4466 1.377 . S
C4453 C4452 1.524 . S
C4453 C4454 1.397 . S
C4453 C4458 1.328 1_554 S
C4454 H4431 0.950 . S
C4454 C4453 1.397 . S
C4454 C4455 1.334 . S
C4455 H4432 0.950 . S
C4455 C4454 1.334 . S
C4455 C4456 1.287 . S
C4456 C4455 1.287 . S
C4456 C4457 1.524 1_554 S
C4456 H4475 0.913 . S
C4457 H4433 0.950 . S
C4457 C4456 1.524 1_556 S
C4457 C4458 1.415 . S
C4458 H4434 0.989 . S
C4458 C4453 1.328 1_556 S
C4458 C4457 1.415 . S
C4459 H4435 0.951 . S
C4459 C4460 1.366 . S
C4459 C4461 1.388 . S
C4460 C4459 1.366 . S
C4460 C4464 1.385 . S
C4461 H4436 0.951 . S
C4461 C4459 1.388 . S
C4461 C4462 1.366 . S
C4462 C4461 1.366 . S
C4462 C4463 1.414 . S
C4462 C4465 1.499 . S
C4463 H4437 0.950 . S
C4463 C4462 1.414 . S
C4463 C4464 1.374 . S
C4464 H4438 0.950 . S
C4464 C4460 1.385 . S
C4464 C4463 1.374 . S
C4465 C4462 1.499 . S
C4465 C4466 1.373 . S
C4465 C4467 1.389 . S
C4466 H4439 0.950 . S
C4466 C4452 1.377 . S
C4466 C4465 1.373 . S
C4467 C4451 1.377 . S
C4467 C4465 1.389 . S
C4467 C4468 1.524 . S
C4468 C4467 1.524 . S
C4468 C4469 1.397 . S
C4468 C4473 1.363 . S
C4469 H4440 0.950 . S
C4469 C4468 1.397 . S
C4469 C4470 1.334 . S
C4470 H4441 0.950 . S
C4470 C4469 1.334 . S
C4470 C4471 1.287 . S
C4471 C4470 1.287 . S
C4471 C4472 1.524 . S
C4471 H4474 0.999 . S
C4472 H4442 0.950 . S
C4472 C4471 1.524 . S
C4472 C4473 1.415 . S
C4473 H4443 0.950 . S
C4473 C4468 1.363 . S
C4473 C4472 1.415 . S
H4474 C4471 0.999 . S
H4475 C4456 0.913 . S
H4476 C4494 0.951 . S
H4477 C4496 0.951 . S
H4478 C4498 0.950 . S
H4479 C4499 0.950 . S
H4480 C4501 0.950 . S
H4481 C4504 0.950 . S
H4482 C4505 0.950 . S
H4483 C4507 0.950 . S
H4484 C4508 0.950 . S
H4485 C4509 0.951 . S
H4486 C4511 0.951 . S
H4487 C4513 0.950 . S
H4488 C4514 0.950 . S
H4489 C4516 0.950 . S
H4490 C4519 0.950 . S
H4491 C4520 0.950 . S
H4492 C4522 0.950 . S
H4493 C4523 0.950 . S
C4494 H4476 0.951 . S
C4494 C4495 1.366 . S
C4494 C4496 1.388 . S
C4495 C4494 1.366 . S
C4495 C4499 1.385 . S
C4496 H4477 0.951 . S
C4496 C4494 1.388 . S
C4496 C4497 1.366 . S
C4497 C4496 1.366 . S
C4497 C4498 1.414 . S
C4497 C4500 1.499 . S
C4498 H4478 0.950 . S
C4498 C4497 1.414 . S
C4498 C4499 1.374 . S
C4499 H4479 0.950 . S
C4499 C4495 1.385 . S
C4499 C4498 1.374 . S
C4500 C4497 1.499 . S
C4500 C4501 1.373 . S
C4500 C4502 1.389 . S
C4501 H4480 0.950 . S
C4501 C4500 1.373 . S
C4501 C4517 1.377 . S
C4502 C4500 1.389 . S
C4502 C4503 1.524 . S
C4502 C4516 1.377 . S
C4503 C4502 1.524 . S
C4503 C4504 1.397 . S
C4503 C4508 1.363 . S
C4504 H4481 0.950 . S
C4504 C4503 1.397 . S
C4504 C4505 1.334 . S
C4505 H4482 0.950 . S
C4505 C4504 1.334 . S
C4505 C4506 1.287 . S
C4506 C4505 1.287 . S
C4506 C4507 1.524 . S
C4506 H4525 0.913 . S
C4507 H4483 0.950 . S
C4507 C4506 1.524 . S
C4507 C4508 1.415 . S
C4508 H4484 0.950 . S
C4508 C4503 1.363 . S
C4508 C4507 1.415 . S
C4509 H4485 0.951 . S
C4509 C4510 1.366 . S
C4509 C4511 1.388 . S
C4510 C4509 1.366 . S
C4510 C4514 1.385 . S
C4511 H4486 0.951 . S
C4511 C4509 1.388 . S
C4511 C4512 1.366 . S
C4512 C4511 1.366 . S
C4512 C4513 1.414 . S
C4512 C4515 1.499 . S
C4513 H4487 0.950 . S
C4513 C4512 1.414 . S
C4513 C4514 1.374 . S
C4514 H4488 0.950 . S
C4514 C4510 1.385 . S
C4514 C4513 1.374 . S
C4515 C4512 1.499 . S
C4515 C4516 1.373 . S
C4515 C4517 1.389 . S
C4516 H4489 0.950 . S
C4516 C4502 1.377 . S
C4516 C4515 1.373 . S
C4517 C4501 1.377 . S
C4517 C4515 1.389 . S
C4517 C4518 1.524 . S
C4518 C4517 1.524 . S
C4518 C4519 1.397 . S
C4518 C4523 1.363 . S
C4519 H4490 0.950 . S
C4519 C4518 1.397 . S
C4519 C4520 1.334 . S
C4520 H4491 0.950 . S
C4520 C4519 1.334 . S
C4520 C4521 1.287 . S
C4521 C4520 1.287 . S
C4521 C4522 1.524 . S
C4521 H4524 0.999 . S
C4522 H4492 0.950 . S
C4522 C4521 1.524 . S
C4522 C4523 1.415 . S
C4523 H4493 0.950 . S
C4523 C4518 1.363 . S
C4523 C4522 1.415 . S
H4524 C4521 0.999 . S
H4525 C4506 0.913 . S
H4526 C4544 0.951 . S
H4527 C4546 0.951 . S
H4528 C4548 0.950 . S
H4529 C4549 0.950 . S
H4530 C4551 0.950 . S
H4531 C4554 0.950 . S
H4532 C4555 0.950 . S
H4533 C4557 0.950 . S
H4534 C4558 0.950 . S
H4535 C4559 0.951 . S
H4536 C4561 0.951 . S
H4537 C4563 0.950 . S
H4538 C4564 0.950 . S
H4539 C4566 0.950 . S
H4540 C4569 0.950 . S
H4541 C4570 0.950 . S
H4542 C4572 0.950 . S
H4543 C4573 0.950 . S
C4544 H4526 0.951 . S
C4544 C4545 1.366 . S
C4544 C4546 1.388 . S
C4545 C4544 1.366 . S
C4545 C4549 1.385 . S
C4546 H4527 0.951 . S
C4546 C4544 1.388 . S
C4546 C4547 1.366 . S
C4547 C4546 1.366 . S
C4547 C4548 1.414 . S
C4547 C4550 1.499 . S
C4548 H4528 0.950 . S
C4548 C4547 1.414 . S
C4548 C4549 1.374 . S
C4549 H4529 0.950 . S
C4549 C4545 1.385 . S
C4549 C4548 1.374 . S
C4550 C4547 1.499 . S
C4550 C4551 1.373 . S
C4550 C4552 1.389 . S
C4551 H4530 0.950 . S
C4551 C4550 1.373 . S
C4551 C4567 1.377 . S
C4552 C4550 1.389 . S
C4552 C4553 1.524 . S
C4552 C4566 1.377 . S
C4553 C4552 1.524 . S
C4553 C4554 1.397 . S
C4553 C4558 1.363 . S
C4554 H4531 0.950 . S
C4554 C4553 1.397 . S
C4554 C4555 1.334 . S
C4555 H4532 0.950 . S
C4555 C4554 1.334 . S
C4555 C4556 1.287 . S
C4556 C4555 1.287 . S
C4556 C4557 1.524 . S
C4556 H4575 0.913 . S
C4557 H4533 0.950 . S
C4557 C4556 1.524 . S
C4557 C4558 1.415 . S
C4558 H4534 0.950 . S
C4558 C4553 1.363 . S
C4558 C4557 1.415 . S
C4559 H4535 0.951 . S
C4559 C4560 1.366 . S
C4559 C4561 1.388 . S
C4560 C4559 1.366 . S
C4560 C4564 1.385 . S
C4561 H4536 0.951 . S
C4561 C4559 1.388 . S
C4561 C4562 1.366 . S
C4562 C4561 1.366 . S
C4562 C4563 1.414 . S
C4562 C4565 1.499 . S
C4563 H4537 0.950 . S
C4563 C4562 1.414 . S
C4563 C4564 1.374 . S
C4564 H4538 0.950 . S
C4564 C4560 1.385 . S
C4564 C4563 1.374 . S
C4565 C4562 1.499 . S
C4565 C4566 1.373 . S
C4565 C4567 1.389 . S
C4566 H4539 0.950 . S
C4566 C4552 1.377 . S
C4566 C4565 1.373 . S
C4567 C4551 1.377 . S
C4567 C4565 1.389 . S
C4567 C4568 1.524 . S
C4568 C4567 1.524 . S
C4568 C4569 1.397 . S
C4568 C4573 1.363 . S
C4569 H4540 0.950 . S
C4569 C4568 1.397 . S
C4569 C4570 1.334 . S
C4570 H4541 0.950 . S
C4570 C4569 1.334 . S
C4570 C4571 1.287 . S
C4571 C4570 1.287 . S
C4571 C4572 1.524 . S
C4571 H4574 0.999 . S
C4572 H4542 0.950 . S
C4572 C4571 1.524 . S
C4572 C4573 1.415 . S
C4573 H4543 0.950 . S
C4573 C4568 1.363 . S
C4573 C4572 1.415 . S
H4574 C4571 0.999 . S
H4575 C4556 0.913 . S
H4576 C4594 0.951 . S
H4577 C4596 0.951 . S
H4578 C4598 0.950 . S
H4579 C4599 0.950 . S
H4580 C4601 0.950 . S
H4581 C4604 0.950 . S
H4582 C4605 0.950 . S
H4583 C4607 0.950 . S
H4584 C4608 0.950 . S
H4585 C4609 0.951 . S
H4586 C4611 0.951 . S
H4587 C4613 0.950 . S
H4588 C4614 0.950 . S
H4589 C4616 0.950 . S
H4590 C4619 0.950 . S
H4591 C4620 0.950 . S
H4592 C4622 0.950 . S
H4593 C4623 0.950 . S
C4594 H4576 0.951 . S
C4594 C4595 1.366 . S
C4594 C4596 1.388 . S
C4595 C4594 1.366 . S
C4595 C4599 1.385 . S
C4596 H4577 0.951 . S
C4596 C4594 1.388 . S
C4596 C4597 1.366 . S
C4597 C4596 1.366 . S
C4597 C4598 1.414 . S
C4597 C4600 1.499 . S
C4598 H4578 0.950 . S
C4598 C4597 1.414 . S
C4598 C4599 1.374 . S
C4599 H4579 0.950 . S
C4599 C4595 1.385 . S
C4599 C4598 1.374 . S
C4600 C4597 1.499 . S
C4600 C4601 1.373 . S
C4600 C4602 1.389 . S
C4601 H4580 0.950 . S
C4601 C4600 1.373 . S
C4601 C4617 1.377 . S
C4602 C4600 1.389 . S
C4602 C4603 1.524 . S
C4602 C4616 1.377 . S
C4603 C4602 1.524 . S
C4603 C4604 1.397 . S
C4603 C4608 1.363 . S
C4604 H4581 0.950 . S
C4604 C4603 1.397 . S
C4604 C4605 1.334 . S
C4605 H4582 0.950 . S
C4605 C4604 1.334 . S
C4605 C4606 1.287 . S
C4606 C4605 1.287 . S
C4606 C4607 1.524 . S
C4606 H4625 0.913 . S
C4607 H4583 0.950 . S
C4607 C4606 1.524 . S
C4607 C4608 1.415 . S
C4608 H4584 0.950 . S
C4608 C4603 1.363 . S
C4608 C4607 1.415 . S
C4609 H4585 0.951 . S
C4609 C4610 1.366 . S
C4609 C4611 1.388 . S
C4610 C4609 1.366 . S
C4610 C4614 1.385 . S
C4611 H4586 0.951 . S
C4611 C4609 1.388 . S
C4611 C4612 1.366 . S
C4612 C4611 1.366 . S
C4612 C4613 1.414 . S
C4612 C4615 1.499 . S
C4613 H4587 0.950 . S
C4613 C4612 1.414 . S
C4613 C4614 1.374 . S
C4614 H4588 0.950 . S
C4614 C4610 1.385 . S
C4614 C4613 1.374 . S
C4615 C4612 1.499 . S
C4615 C4616 1.373 . S
C4615 C4617 1.389 . S
C4616 H4589 0.950 . S
C4616 C4602 1.377 . S
C4616 C4615 1.373 . S
C4617 C4601 1.377 . S
C4617 C4615 1.389 . S
C4617 C4618 1.524 . S
C4618 C4617 1.524 . S
C4618 C4619 1.397 . S
C4618 C4623 1.363 . S
C4619 H4590 0.950 . S
C4619 C4618 1.397 . S
C4619 C4620 1.334 . S
C4620 H4591 0.950 . S
C4620 C4619 1.334 . S
C4620 C4621 1.287 . S
C4621 C4620 1.287 . S
C4621 C4622 1.524 . S
C4621 H4624 0.999 . S
C4622 H4592 0.950 . S
C4622 C4621 1.524 . S
C4622 C4623 1.415 . S
C4623 H4593 0.950 . S
C4623 C4618 1.363 . S
C4623 C4622 1.415 . S
H4624 C4621 0.999 . S
H4625 C4606 0.913 . S
H4626 C4644 0.951 . S
H4627 C4646 0.951 . S
H4628 C4648 0.950 . S
H4629 C4649 0.950 . S
H4630 C4651 0.950 . S
H4631 C4654 0.950 . S
H4632 C4655 0.950 . S
H4633 C4657 0.950 . S
H4634 C4658 0.950 . S
H4635 C4659 0.951 . S
H4636 C4661 0.951 . S
H4637 C4663 0.950 . S
H4638 C4664 0.950 . S
H4639 C4666 0.950 . S
H4640 C4669 0.950 . S
H4641 C4670 0.950 . S
H4642 C4672 0.950 . S
H4643 C4673 0.950 . S
C4644 H4626 0.951 . S
C4644 C4645 1.366 . S
C4644 C4646 1.388 . S
C4645 C4644 1.366 . S
C4645 C4649 1.385 . S
C4646 H4627 0.951 . S
C4646 C4644 1.388 . S
C4646 C4647 1.366 . S
C4647 C4646 1.366 . S
C4647 C4648 1.414 . S
C4647 C4650 1.499 . S
C4648 H4628 0.950 . S
C4648 C4647 1.414 . S
C4648 C4649 1.374 . S
C4649 H4629 0.950 . S
C4649 C4645 1.385 . S
C4649 C4648 1.374 . S
C4650 C4647 1.499 . S
C4650 C4651 1.373 . S
C4650 C4652 1.389 . S
C4651 H4630 0.950 . S
C4651 C4650 1.373 . S
C4651 C4667 1.377 . S
C4652 C4650 1.389 . S
C4652 C4653 1.524 . S
C4652 C4666 1.377 . S
C4653 C4652 1.524 . S
C4653 C4654 1.397 . S
C4653 C4658 1.363 . S
C4654 H4631 0.950 . S
C4654 C4653 1.397 . S
C4654 C4655 1.334 . S
C4655 H4632 0.950 . S
C4655 C4654 1.334 . S
C4655 C4656 1.287 . S
C4656 C4655 1.287 . S
C4656 C4657 1.524 . S
C4656 H4675 0.913 . S
C4657 H4633 0.950 . S
C4657 C4656 1.524 . S
C4657 C4658 1.415 . S
C4658 H4634 0.950 . S
C4658 C4653 1.363 . S
C4658 C4657 1.415 . S
C4659 H4635 0.951 . S
C4659 C4660 1.366 . S
C4659 C4661 1.388 . S
C4660 C4659 1.366 . S
C4660 C4664 1.385 . S
C4661 H4636 0.951 . S
C4661 C4659 1.388 . S
C4661 C4662 1.366 . S
C4662 C4661 1.366 . S
C4662 C4663 1.414 . S
C4662 C4665 1.499 . S
C4663 H4637 0.950 . S
C4663 C4662 1.414 . S
C4663 C4664 1.374 . S
C4664 H4638 0.950 . S
C4664 C4660 1.385 . S
C4664 C4663 1.374 . S
C4665 C4662 1.499 . S
C4665 C4666 1.373 . S
C4665 C4667 1.389 . S
C4666 H4639 0.950 . S
C4666 C4652 1.377 . S
C4666 C4665 1.373 . S
C4667 C4651 1.377 . S
C4667 C4665 1.389 . S
C4667 C4668 1.524 . S
C4668 C4667 1.524 . S
C4668 C4669 1.397 . S
C4668 C4673 1.363 . S
C4669 H4640 0.950 . S
C4669 C4668 1.397 . S
C4669 C4670 1.334 . S
C4670 H4641 0.950 . S
C4670 C4669 1.334 . S
C4670 C4671 1.287 . S
C4671 C4670 1.287 . S
C4671 C4672 1.524 . S
C4671 H4674 0.999 . S
C4672 H4642 0.950 . S
C4672 C4671 1.524 . S
C4672 C4673 1.415 . S
C4673 H4643 0.950 . S
C4673 C4668 1.363 . S
C4673 C4672 1.415 . S
H4674 C4671 0.999 . S
H4675 C4656 0.913 . S
H4676 C4694 0.951 . S
H4677 C4696 0.951 . S
H4678 C4698 0.950 . S
H4679 C4699 0.950 . S
H4680 C4701 0.950 . S
H4681 C4704 0.950 . S
H4682 C4705 0.950 . S
H4683 C4707 0.950 . S
H4684 C4708 0.950 . S
H4685 C4709 0.951 1_556 S
H4686 C4711 0.951 . S
H4687 C4713 0.950 . S
H4688 C4714 0.950 . S
H4689 C4716 0.950 . S
H4690 C4719 0.950 . S
H4691 C4720 0.950 . S
H4692 C4722 0.950 . S
H4693 C4723 0.950 . S
C4694 H4676 0.951 . S
C4694 C4695 1.366 . S
C4694 C4696 1.388 . S
C4695 C4694 1.366 . S
C4695 C4699 1.385 . S
C4696 H4677 0.951 . S
C4696 C4694 1.388 . S
C4696 C4697 1.366 . S
C4697 C4696 1.366 . S
C4697 C4698 1.414 . S
C4697 C4700 1.499 . S
C4698 H4678 0.950 . S
C4698 C4697 1.414 . S
C4698 C4699 1.374 . S
C4699 H4679 0.950 . S
C4699 C4695 1.385 . S
C4699 C4698 1.374 . S
C4700 C4697 1.499 . S
C4700 C4701 1.373 . S
C4700 C4702 1.389 . S
C4701 H4680 0.950 . S
C4701 C4700 1.373 . S
C4701 C4717 1.377 . S
C4702 C4700 1.389 . S
C4702 C4703 1.524 . S
C4702 C4716 1.377 . S
C4703 C4702 1.524 . S
C4703 C4704 1.397 . S
C4703 C4708 1.363 . S
C4704 H4681 0.950 . S
C4704 C4703 1.397 . S
C4704 C4705 1.334 . S
C4705 H4682 0.950 . S
C4705 C4704 1.334 . S
C4705 C4706 1.287 . S
C4706 C4705 1.287 . S
C4706 C4707 1.524 . S
C4706 H4725 0.913 . S
C4707 H4683 0.950 . S
C4707 C4706 1.524 . S
C4707 C4708 1.415 . S
C4708 H4684 0.950 . S
C4708 C4703 1.363 . S
C4708 C4707 1.415 . S
C4709 H4685 0.951 1_554 S
C4709 C4710 1.366 . S
C4709 C4711 1.388 . S
C4710 C4709 1.366 . S
C4710 C4714 1.385 . S
C4711 H4686 0.951 . S
C4711 C4709 1.388 . S
C4711 C4712 1.366 . S
C4712 C4711 1.366 . S
C4712 C4713 1.414 . S
C4712 C4715 1.499 . S
C4713 H4687 0.950 . S
C4713 C4712 1.414 . S
C4713 C4714 1.374 . S
C4714 H4688 0.950 . S
C4714 C4710 1.385 . S
C4714 C4713 1.374 . S
C4715 C4712 1.499 . S
C4715 C4716 1.373 . S
C4715 C4717 1.389 . S
C4716 H4689 0.950 . S
C4716 C4702 1.377 . S
C4716 C4715 1.373 . S
C4717 C4701 1.377 . S
C4717 C4715 1.389 . S
C4717 C4718 1.524 . S
C4718 C4717 1.524 . S
C4718 C4719 1.397 . S
C4718 C4723 1.363 . S
C4719 H4690 0.950 . S
C4719 C4718 1.397 . S
C4719 C4720 1.334 1_455 S
C4720 H4691 0.950 . S
C4720 C4719 1.334 1_655 S
C4720 C4721 1.287 1_554 S
C4721 C4720 1.287 1_556 S
C4721 C4722 1.524 1_655 S
C4721 H4724 0.999 . S
C4722 H4692 0.950 . S
C4722 C4721 1.524 1_455 S
C4722 C4723 1.415 1_556 S
C4723 H4693 0.950 . S
C4723 C4718 1.363 . S
C4723 C4722 1.415 1_554 S
H4724 C4721 0.999 . S
H4725 C4706 0.913 . S
H4726 C4744 0.951 . S
H4727 C4746 0.951 . S
H4728 C4748 0.950 . S
H4729 C4749 0.950 . S
H4730 C4751 0.950 . S
H4731 C4754 0.950 . S
H4732 C4755 0.950 . S
H4733 C4757 0.950 . S
H4734 C4758 0.950 . S
H4735 C4759 0.951 . S
H4736 C4761 0.951 . S
H4737 C4763 0.950 . S
H4738 C4764 0.950 . S
H4739 C4766 0.950 . S
H4740 C4769 0.950 . S
H4741 C4770 0.950 . S
H4742 C4772 0.950 . S
H4743 C4773 0.950 . S
C4744 H4726 0.951 . S
C4744 C4745 1.366 . S
C4744 C4746 1.388 . S
C4745 C4744 1.366 . S
C4745 C4749 1.385 . S
C4746 H4727 0.951 . S
C4746 C4744 1.388 . S
C4746 C4747 1.366 . S
C4747 C4746 1.366 . S
C4747 C4748 1.414 . S
C4747 C4750 1.499 . S
C4748 H4728 0.950 . S
C4748 C4747 1.414 . S
C4748 C4749 1.374 . S
C4749 H4729 0.950 . S
C4749 C4745 1.385 . S
C4749 C4748 1.374 . S
C4750 C4747 1.499 . S
C4750 C4751 1.373 . S
C4750 C4752 1.389 . S
C4751 H4730 0.950 . S
C4751 C4750 1.373 . S
C4751 C4767 1.377 . S
C4752 C4750 1.389 . S
C4752 C4753 1.524 . S
C4752 C4766 1.377 . S
C4753 C4752 1.524 . S
C4753 C4754 1.397 . S
C4753 C4758 1.363 . S
C4754 H4731 0.950 . S
C4754 C4753 1.397 . S
C4754 C4755 1.334 . S
C4755 H4732 0.950 . S
C4755 C4754 1.334 . S
C4755 C4756 1.287 . S
C4756 C4755 1.287 . S
C4756 C4757 1.524 . S
C4756 H4775 0.913 . S
C4757 H4733 0.950 . S
C4757 C4756 1.524 . S
C4757 C4758 1.415 . S
C4758 H4734 0.950 . S
C4758 C4753 1.363 . S
C4758 C4757 1.415 . S
C4759 H4735 0.951 . S
C4759 C4760 1.366 . S
C4759 C4761 1.388 . S
C4760 C4759 1.366 . S
C4760 C4764 1.385 . S
C4761 H4736 0.951 . S
C4761 C4759 1.388 . S
C4761 C4762 1.366 . S
C4762 C4761 1.366 . S
C4762 C4763 1.414 . S
C4762 C4765 1.499 . S
C4763 H4737 0.950 . S
C4763 C4762 1.414 . S
C4763 C4764 1.374 . S
C4764 H4738 0.950 . S
C4764 C4760 1.385 . S
C4764 C4763 1.374 . S
C4765 C4762 1.499 . S
C4765 C4766 1.373 . S
C4765 C4767 1.389 . S
C4766 H4739 0.950 . S
C4766 C4752 1.377 . S
C4766 C4765 1.373 . S
C4767 C4751 1.377 . S
C4767 C4765 1.389 . S
C4767 C4768 1.524 . S
C4768 C4767 1.524 . S
C4768 C4769 1.397 . S
C4768 C4773 1.363 . S
C4769 H4740 0.950 . S
C4769 C4768 1.397 . S
C4769 C4770 1.334 . S
C4770 H4741 0.950 . S
C4770 C4769 1.334 . S
C4770 C4771 1.287 . S
C4771 C4770 1.287 . S
C4771 C4772 1.524 . S
C4771 H4774 0.999 . S
C4772 H4742 0.950 . S
C4772 C4771 1.524 . S
C4772 C4773 1.415 . S
C4773 H4743 0.950 . S
C4773 C4768 1.363 . S
C4773 C4772 1.415 . S
H4774 C4771 0.999 . S
H4775 C4756 0.913 . S
H4776 C4794 0.951 . S
H4777 C4796 0.951 . S
H4778 C4798 0.950 . S
H4779 C4799 0.950 . S
H4780 C4801 0.950 . S
H4781 C4804 0.950 . S
H4782 C4805 0.950 . S
H4783 C4807 0.950 . S
H4784 C4808 0.950 . S
H4785 C4809 0.951 . S
H4786 C4811 0.951 . S
H4787 C4813 0.950 . S
H4788 C4814 0.950 . S
H4789 C4816 0.950 . S
H4790 C4819 0.950 . S
H4791 C4820 0.950 . S
H4792 C4822 0.950 . S
H4793 C4823 0.950 . S
C4794 H4776 0.951 . S
C4794 C4795 1.366 . S
C4794 C4796 1.388 . S
C4795 C4794 1.366 . S
C4795 C4799 1.385 . S
C4796 H4777 0.951 . S
C4796 C4794 1.388 . S
C4796 C4797 1.366 . S
C4797 C4796 1.366 . S
C4797 C4798 1.414 . S
C4797 C4800 1.499 . S
C4798 H4778 0.950 . S
C4798 C4797 1.414 . S
C4798 C4799 1.374 . S
C4799 H4779 0.950 . S
C4799 C4795 1.385 . S
C4799 C4798 1.374 . S
C4800 C4797 1.499 . S
C4800 C4801 1.373 . S
C4800 C4802 1.389 . S
C4801 H4780 0.950 . S
C4801 C4800 1.373 . S
C4801 C4817 1.377 . S
C4802 C4800 1.389 . S
C4802 C4803 1.524 . S
C4802 C4816 1.377 . S
C4803 C4802 1.524 . S
C4803 C4804 1.397 . S
C4803 C4808 1.363 . S
C4804 H4781 0.950 . S
C4804 C4803 1.397 . S
C4804 C4805 1.334 . S
C4805 H4782 0.950 . S
C4805 C4804 1.334 . S
C4805 C4806 1.287 . S
C4806 C4805 1.287 . S
C4806 C4807 1.524 . S
C4806 H4825 0.913 . S
C4807 H4783 0.950 . S
C4807 C4806 1.524 . S
C4807 C4808 1.415 . S
C4808 H4784 0.950 . S
C4808 C4803 1.363 . S
C4808 C4807 1.415 . S
C4809 H4785 0.951 . S
C4809 C4810 1.366 . S
C4809 C4811 1.388 . S
C4810 C4809 1.366 . S
C4810 C4814 1.385 . S
C4811 H4786 0.951 . S
C4811 C4809 1.388 . S
C4811 C4812 1.366 . S
C4812 C4811 1.366 . S
C4812 C4813 1.414 . S
C4812 C4815 1.499 . S
C4813 H4787 0.950 . S
C4813 C4812 1.414 . S
C4813 C4814 1.374 . S
C4814 H4788 0.950 . S
C4814 C4810 1.385 . S
C4814 C4813 1.374 . S
C4815 C4812 1.499 . S
C4815 C4816 1.373 . S
C4815 C4817 1.389 . S
C4816 H4789 0.950 . S
C4816 C4802 1.377 . S
C4816 C4815 1.373 . S
C4817 C4801 1.377 . S
C4817 C4815 1.389 . S
C4817 C4818 1.524 . S
C4818 C4817 1.524 . S
C4818 C4819 1.397 . S
C4818 C4823 1.363 . S
C4819 H4790 0.950 . S
C4819 C4818 1.397 . S
C4819 C4820 1.334 . S
C4820 H4791 0.950 . S
C4820 C4819 1.334 . S
C4820 C4821 1.287 . S
C4821 C4820 1.287 . S
C4821 C4822 1.524 . S
C4821 H4824 0.999 . S
C4822 H4792 0.950 . S
C4822 C4821 1.524 . S
C4822 C4823 1.415 . S
C4823 H4793 0.950 . S
C4823 C4818 1.363 . S
C4823 C4822 1.415 . S
H4824 C4821 0.999 . S
H4825 C4806 0.913 . S
H4826 C4844 0.951 . S
H4827 C4846 0.951 . S
H4828 C4848 0.950 . S
H4829 C4849 0.950 . S
H4830 C4851 0.950 . S
H4831 C4854 0.950 . S
H4832 C4855 0.950 . S
H4833 C4857 0.950 . S
H4834 C4858 0.950 . S
H4835 C4859 0.951 . S
H4836 C4861 0.951 . S
H4837 C4863 0.950 . S
H4838 C4864 0.950 . S
H4839 C4866 0.950 . S
H4840 C4869 0.950 . S
H4841 C4870 0.950 . S
H4842 C4872 0.950 . S
H4843 C4873 0.950 . S
C4844 H4826 0.951 . S
C4844 C4845 1.366 . S
C4844 C4846 1.388 . S
C4845 C4844 1.366 . S
C4845 C4849 1.385 . S
C4846 H4827 0.951 . S
C4846 C4844 1.388 . S
C4846 C4847 1.366 . S
C4847 C4846 1.366 . S
C4847 C4848 1.414 . S
C4847 C4850 1.499 . S
C4848 H4828 0.950 . S
C4848 C4847 1.414 . S
C4848 C4849 1.374 . S
C4849 H4829 0.950 . S
C4849 C4845 1.385 . S
C4849 C4848 1.374 . S
C4850 C4847 1.499 . S
C4850 C4851 1.373 . S
C4850 C4852 1.389 . S
C4851 H4830 0.950 . S
C4851 C4850 1.373 . S
C4851 C4867 1.377 . S
C4852 C4850 1.389 . S
C4852 C4853 1.524 . S
C4852 C4866 1.377 . S
C4853 C4852 1.524 . S
C4853 C4854 1.397 . S
C4853 C4858 1.363 . S
C4854 H4831 0.950 . S
C4854 C4853 1.397 . S
C4854 C4855 1.334 . S
C4855 H4832 0.950 . S
C4855 C4854 1.334 . S
C4855 C4856 1.287 . S
C4856 C4855 1.287 . S
C4856 C4857 1.524 . S
C4856 H4875 0.913 . S
C4857 H4833 0.950 . S
C4857 C4856 1.524 . S
C4857 C4858 1.415 . S
C4858 H4834 0.950 . S
C4858 C4853 1.363 . S
C4858 C4857 1.415 . S
C4859 H4835 0.951 . S
C4859 C4860 1.366 . S
C4859 C4861 1.388 . S
C4860 C4859 1.366 . S
C4860 C4864 1.385 . S
C4861 H4836 0.951 . S
C4861 C4859 1.388 . S
C4861 C4862 1.366 . S
C4862 C4861 1.366 . S
C4862 C4863 1.414 . S
C4862 C4865 1.499 . S
C4863 H4837 0.950 . S
C4863 C4862 1.414 . S
C4863 C4864 1.374 . S
C4864 H4838 0.950 . S
C4864 C4860 1.385 . S
C4864 C4863 1.374 . S
C4865 C4862 1.499 . S
C4865 C4866 1.373 . S
C4865 C4867 1.389 . S
C4866 H4839 0.950 . S
C4866 C4852 1.377 . S
C4866 C4865 1.373 . S
C4867 C4851 1.377 . S
C4867 C4865 1.389 . S
C4867 C4868 1.524 . S
C4868 C4867 1.524 . S
C4868 C4869 1.397 . S
C4868 C4873 1.363 . S
C4869 H4840 0.950 . S
C4869 C4868 1.397 . S
C4869 C4870 1.334 . S
C4870 H4841 0.950 . S
C4870 C4869 1.334 . S
C4870 C4871 1.287 . S
C4871 C4870 1.287 . S
C4871 C4872 1.524 . S
C4871 H4874 0.999 . S
C4872 H4842 0.950 . S
C4872 C4871 1.524 . S
C4872 C4873 1.415 . S
C4873 H4843 0.950 . S
C4873 C4868 1.363 . S
C4873 C4872 1.415 . S
H4874 C4871 0.999 . S
H4875 C4856 0.913 . S
H4876 C4894 0.951 . S
H4877 C4896 0.951 . S
H4878 C4898 0.950 . S
H4879 C4899 0.950 . S
H4880 C4901 0.950 . S
H4881 C4904 0.950 . S
H4882 C4905 0.950 . S
H4883 C4907 0.950 . S
H4884 C4908 0.950 . S
H4885 C4909 0.951 . S
H4886 C4911 0.951 . S
H4887 C4913 0.950 . S
H4888 C4914 0.950 . S
H4889 C4916 0.950 . S
H4890 C4919 0.950 . S
H4891 C4920 0.950 . S
H4892 C4922 0.950 . S
H4893 C4923 0.950 . S
C4894 H4876 0.951 . S
C4894 C4895 1.366 . S
C4894 C4896 1.388 . S
C4895 C4894 1.366 . S
C4895 C4899 1.385 . S
C4896 H4877 0.951 . S
C4896 C4894 1.388 . S
C4896 C4897 1.366 . S
C4897 C4896 1.366 . S
C4897 C4898 1.414 . S
C4897 C4900 1.499 . S
C4898 H4878 0.950 . S
C4898 C4897 1.414 . S
C4898 C4899 1.374 . S
C4899 H4879 0.950 . S
C4899 C4895 1.385 . S
C4899 C4898 1.374 . S
C4900 C4897 1.499 . S
C4900 C4901 1.373 . S
C4900 C4902 1.389 . S
C4901 H4880 0.950 . S
C4901 C4900 1.373 . S
C4901 C4917 1.377 . S
C4902 C4900 1.389 . S
C4902 C4903 1.524 . S
C4902 C4916 1.377 . S
C4903 C4902 1.524 . S
C4903 C4904 1.397 . S
C4903 C4908 1.363 . S
C4904 H4881 0.950 . S
C4904 C4903 1.397 . S
C4904 C4905 1.334 . S
C4905 H4882 0.950 . S
C4905 C4904 1.334 . S
C4905 C4906 1.287 . S
C4906 C4905 1.287 . S
C4906 C4907 1.524 . S
C4906 H4925 0.913 . S
C4907 H4883 0.950 . S
C4907 C4906 1.524 . S
C4907 C4908 1.415 . S
C4908 H4884 0.950 . S
C4908 C4903 1.363 . S
C4908 C4907 1.415 . S
C4909 H4885 0.951 . S
C4909 C4910 1.366 . S
C4909 C4911 1.388 . S
C4910 C4909 1.366 . S
C4910 C4914 1.385 . S
C4911 H4886 0.951 . S
C4911 C4909 1.388 . S
C4911 C4912 1.366 . S
C4912 C4911 1.366 . S
C4912 C4913 1.414 . S
C4912 C4915 1.499 . S
C4913 H4887 0.950 . S
C4913 C4912 1.414 . S
C4913 C4914 1.374 . S
C4914 H4888 0.950 . S
C4914 C4910 1.385 . S
C4914 C4913 1.374 . S
C4915 C4912 1.499 . S
C4915 C4916 1.373 . S
C4915 C4917 1.389 . S
C4916 H4889 0.950 . S
C4916 C4902 1.377 . S
C4916 C4915 1.373 . S
C4917 C4901 1.377 . S
C4917 C4915 1.389 . S
C4917 C4918 1.524 . S
C4918 C4917 1.524 . S
C4918 C4919 1.397 . S
C4918 C4923 1.363 . S
C4919 H4890 0.950 . S
C4919 C4918 1.397 . S
C4919 C4920 1.334 . S
C4920 H4891 0.950 . S
C4920 C4919 1.334 . S
C4920 C4921 1.287 . S
C4921 C4920 1.287 . S
C4921 C4922 1.524 . S
C4921 H4924 0.999 . S
C4922 H4892 0.950 . S
C4922 C4921 1.524 . S
C4922 C4923 1.415 . S
C4923 H4893 0.950 . S
C4923 C4918 1.363 . S
C4923 C4922 1.415 . S
H4924 C4921 0.999 . S
H4925 C4906 0.913 . S
H4926 C4944 0.951 . S
H4927 C4946 0.951 . S
H4928 C4948 0.950 . S
H4929 C4949 0.950 . S
H4930 C4951 0.950 . S
H4931 C4954 0.950 . S
H4932 C4955 0.950 . S
H4933 C4957 0.950 . S
H4934 C4958 0.950 . S
H4935 C4959 0.951 . S
H4936 C4961 0.951 . S
H4937 C4963 0.950 . S
H4938 C4964 0.950 . S
H4939 C4966 0.950 . S
H4940 C4969 0.950 . S
H4941 C4970 0.950 . S
H4942 C4972 0.950 . S
H4943 C4973 0.950 . S
C4944 H4926 0.951 . S
C4944 C4945 1.366 . S
C4944 C4946 1.388 . S
C4945 C4944 1.366 . S
C4945 C4949 1.385 . S
C4946 H4927 0.951 . S
C4946 C4944 1.388 . S
C4946 C4947 1.366 . S
C4947 C4946 1.366 . S
C4947 C4948 1.414 . S
C4947 C4950 1.499 . S
C4948 H4928 0.950 . S
C4948 C4947 1.414 . S
C4948 C4949 1.374 . S
C4949 H4929 0.950 . S
C4949 C4945 1.385 . S
C4949 C4948 1.374 . S
C4950 C4947 1.499 . S
C4950 C4951 1.373 . S
C4950 C4952 1.389 . S
C4951 H4930 0.950 . S
C4951 C4950 1.373 . S
C4951 C4967 1.377 . S
C4952 C4950 1.389 . S
C4952 C4953 1.524 . S
C4952 C4966 1.377 . S
C4953 C4952 1.524 . S
C4953 C4954 1.397 . S
C4953 C4958 1.363 . S
C4954 H4931 0.950 . S
C4954 C4953 1.397 . S
C4954 C4955 1.334 . S
C4955 H4932 0.950 . S
C4955 C4954 1.334 . S
C4955 C4956 1.287 . S
C4956 C4955 1.287 . S
C4956 C4957 1.524 . S
C4956 H4975 0.913 . S
C4957 H4933 0.950 . S
C4957 C4956 1.524 . S
C4957 C4958 1.415 . S
C4958 H4934 0.950 . S
C4958 C4953 1.363 . S
C4958 C4957 1.415 . S
C4959 H4935 0.951 . S
C4959 C4960 1.366 . S
C4959 C4961 1.388 . S
C4960 C4959 1.366 . S
C4960 C4964 1.385 . S
C4961 H4936 0.951 . S
C4961 C4959 1.388 . S
C4961 C4962 1.366 . S
C4962 C4961 1.366 . S
C4962 C4963 1.414 . S
C4962 C4965 1.499 . S
C4963 H4937 0.950 . S
C4963 C4962 1.414 . S
C4963 C4964 1.374 . S
C4964 H4938 0.950 . S
C4964 C4960 1.385 . S
C4964 C4963 1.374 . S
C4965 C4962 1.499 . S
C4965 C4966 1.373 . S
C4965 C4967 1.389 . S
C4966 H4939 0.950 . S
C4966 C4952 1.377 . S
C4966 C4965 1.373 . S
C4967 C4951 1.377 . S
C4967 C4965 1.389 . S
C4967 C4968 1.524 . S
C4968 C4967 1.524 . S
C4968 C4969 1.397 . S
C4968 C4973 1.363 . S
C4969 H4940 0.950 . S
C4969 C4968 1.397 . S
C4969 C4970 1.334 . S
C4970 H4941 0.950 . S
C4970 C4969 1.334 . S
C4970 C4971 1.287 . S
C4971 C4970 1.287 . S
C4971 C4972 1.524 . S
C4971 H4974 0.999 . S
C4972 H4942 0.950 . S
C4972 C4971 1.524 . S
C4972 C4973 1.415 . S
C4973 H4943 0.950 . S
C4973 C4968 1.363 . S
C4973 C4972 1.415 . S
H4974 C4971 0.999 . S
H4975 C4956 0.913 . S
H4976 C4994 0.951 . S
H4977 C4996 0.951 . S
H4978 C4998 0.950 . S
H4979 C4999 0.950 . S
H4980 C5001 0.950 . S
H4981 C5004 0.950 . S
H4982 C5005 0.950 . S
H4983 C5007 0.950 . S
H4984 C5008 0.950 . S
H4985 C5009 0.951 . S
H4986 C5011 0.951 . S
H4987 C5013 0.950 . S
H4988 C5014 0.950 . S
H4989 C5016 0.950 . S
H4990 C5019 0.950 . S
H4991 C5020 0.950 . S
H4992 C5022 0.950 . S
H4993 C5023 0.950 . S
C4994 H4976 0.951 . S
C4994 C4995 1.366 . S
C4994 C4996 1.388 . S
C4995 C4994 1.366 . S
C4995 C4999 1.385 . S
C4996 H4977 0.951 . S
C4996 C4994 1.388 . S
C4996 C4997 1.366 . S
C4997 C4996 1.366 . S
C4997 C4998 1.414 . S
C4997 C5000 1.499 . S
C4998 H4978 0.950 . S
C4998 C4997 1.414 . S
C4998 C4999 1.374 . S
C4999 H4979 0.950 . S
C4999 C4995 1.385 . S
C4999 C4998 1.374 . S
C5000 C4997 1.499 . S
C5000 C5001 1.373 . S
C5000 C5002 1.389 . S
C5001 H4980 0.950 . S
C5001 C5000 1.373 . S
C5001 C5017 1.377 . S
C5002 C5000 1.389 . S
C5002 C5003 1.524 . S
C5002 C5016 1.377 . S
C5003 C5002 1.524 . S
C5003 C5004 1.397 . S
C5003 C5008 1.363 . S
C5004 H4981 0.950 . S
C5004 C5003 1.397 . S
C5004 C5005 1.334 . S
C5005 H4982 0.950 . S
C5005 C5004 1.334 . S
C5005 C5006 1.287 . S
C5006 C5005 1.287 . S
C5006 C5007 1.524 . S
C5006 H5025 0.913 . S
C5007 H4983 0.950 . S
C5007 C5006 1.524 . S
C5007 C5008 1.415 . S
C5008 H4984 0.950 . S
C5008 C5003 1.363 . S
C5008 C5007 1.415 . S
C5009 H4985 0.951 . S
C5009 C5010 1.366 . S
C5009 C5011 1.388 . S
C5010 C5009 1.366 . S
C5010 C5014 1.385 . S
C5011 H4986 0.951 . S
C5011 C5009 1.388 . S
C5011 C5012 1.366 . S
C5012 C5011 1.366 . S
C5012 C5013 1.414 . S
C5012 C5015 1.499 . S
C5013 H4987 0.950 . S
C5013 C5012 1.414 . S
C5013 C5014 1.374 . S
C5014 H4988 0.950 . S
C5014 C5010 1.385 . S
C5014 C5013 1.374 . S
C5015 C5012 1.499 . S
C5015 C5016 1.373 . S
C5015 C5017 1.389 . S
C5016 H4989 0.950 . S
C5016 C5002 1.377 . S
C5016 C5015 1.373 . S
C5017 C5001 1.377 . S
C5017 C5015 1.389 . S
C5017 C5018 1.524 . S
C5018 C5017 1.524 . S
C5018 C5019 1.397 . S
C5018 C5023 1.363 . S
C5019 H4990 0.950 . S
C5019 C5018 1.397 . S
C5019 C5020 1.334 . S
C5020 H4991 0.950 . S
C5020 C5019 1.334 . S
C5020 C5021 1.287 . S
C5021 C5020 1.287 . S
C5021 C5022 1.524 . S
C5021 H5024 0.999 . S
C5022 H4992 0.950 . S
C5022 C5021 1.524 . S
C5022 C5023 1.415 . S
C5023 H4993 0.950 . S
C5023 C5018 1.363 . S
C5023 C5022 1.415 . S
H5024 C5021 0.999 . S
H5025 C5006 0.913 . S
H5026 C5044 0.951 . S
H5027 C5046 0.951 . S
H5028 C5048 0.950 . S
H5029 C5049 0.950 . S
H5030 C5051 0.950 . S
H5031 C5054 0.950 . S
H5032 C5055 0.950 . S
H5033 C5057 0.950 . S
H5034 C5058 0.950 . S
H5035 C5059 0.951 . S
H5036 C5061 0.951 . S
H5037 C5063 0.950 . S
H5038 C5064 0.950 . S
H5039 C5066 0.950 . S
H5040 C5069 0.950 . S
H5041 C5070 0.950 . S
H5042 C5072 0.950 . S
H5043 C5073 0.950 . S
C5044 H5026 0.951 . S
C5044 C5045 1.366 . S
C5044 C5046 1.388 . S
C5045 C5044 1.366 . S
C5045 C5049 1.385 . S
C5046 H5027 0.951 . S
C5046 C5044 1.388 . S
C5046 C5047 1.366 . S
C5047 C5046 1.366 . S
C5047 C5048 1.414 . S
C5047 C5050 1.499 . S
C5048 H5028 0.950 . S
C5048 C5047 1.414 . S
C5048 C5049 1.374 . S
C5049 H5029 0.950 . S
C5049 C5045 1.385 . S
C5049 C5048 1.374 . S
C5050 C5047 1.499 . S
C5050 C5051 1.373 . S
C5050 C5052 1.389 . S
C5051 H5030 0.950 . S
C5051 C5050 1.373 . S
C5051 C5067 1.377 . S
C5052 C5050 1.389 . S
C5052 C5053 1.524 . S
C5052 C5066 1.377 . S
C5053 C5052 1.524 . S
C5053 C5054 1.397 . S
C5053 C5058 1.363 . S
C5054 H5031 0.950 . S
C5054 C5053 1.397 . S
C5054 C5055 1.334 . S
C5055 H5032 0.950 . S
C5055 C5054 1.334 . S
C5055 C5056 1.287 . S
C5056 C5055 1.287 . S
C5056 C5057 1.524 . S
C5056 H5075 0.913 . S
C5057 H5033 0.950 . S
C5057 C5056 1.524 . S
C5057 C5058 1.415 . S
C5058 H5034 0.950 . S
C5058 C5053 1.363 . S
C5058 C5057 1.415 . S
C5059 H5035 0.951 . S
C5059 C5060 1.366 . S
C5059 C5061 1.388 . S
C5060 C5059 1.366 . S
C5060 C5064 1.385 . S
C5061 H5036 0.951 . S
C5061 C5059 1.388 . S
C5061 C5062 1.366 . S
C5062 C5061 1.366 . S
C5062 C5063 1.414 . S
C5062 C5065 1.499 . S
C5063 H5037 0.950 . S
C5063 C5062 1.414 . S
C5063 C5064 1.374 . S
C5064 H5038 0.950 . S
C5064 C5060 1.385 . S
C5064 C5063 1.374 . S
C5065 C5062 1.499 . S
C5065 C5066 1.373 . S
C5065 C5067 1.389 . S
C5066 H5039 0.950 . S
C5066 C5052 1.377 . S
C5066 C5065 1.373 . S
C5067 C5051 1.377 . S
C5067 C5065 1.389 . S
C5067 C5068 1.524 . S
C5068 C5067 1.524 . S
C5068 C5069 1.397 . S
C5068 C5073 1.363 . S
C5069 H5040 0.950 . S
C5069 C5068 1.397 . S
C5069 C5070 1.334 . S
C5070 H5041 0.950 . S
C5070 C5069 1.334 . S
C5070 C5071 1.287 . S
C5071 C5070 1.287 . S
C5071 C5072 1.524 . S
C5071 H5074 0.999 . S
C5072 H5042 0.950 . S
C5072 C5071 1.524 . S
C5072 C5073 1.415 . S
C5073 H5043 0.950 . S
C5073 C5068 1.363 . S
C5073 C5072 1.415 . S
H5074 C5071 0.999 . S
H5075 C5056 0.913 . S
H5076 C5094 0.951 . S
H5077 C5096 0.951 . S
H5078 C5098 0.950 . S
H5079 C5099 0.950 . S
H5080 C5101 0.950 . S
H5081 C5104 0.950 . S
H5082 C5105 0.950 . S
H5083 C5107 0.950 . S
H5084 C5108 0.950 . S
H5085 C5109 0.951 1_655 S
H5086 C5111 0.951 . S
H5087 C5113 0.950 . S
H5088 C5114 0.950 . S
H5089 C5116 0.918 1_455 S
H5090 C5119 0.950 . S
H5091 C5120 0.950 . S
H5092 C5122 0.950 . S
H5093 C5123 0.950 . S
C5094 H5076 0.951 . S
C5094 C5095 1.366 . S
C5094 C5096 1.388 . S
C5095 C5094 1.366 . S
C5095 C5099 1.385 . S
C5096 H5077 0.951 . S
C5096 C5094 1.388 . S
C5096 C5097 1.366 . S
C5097 C5096 1.366 . S
C5097 C5098 1.414 . S
C5097 C5100 1.499 . S
C5098 H5078 0.950 . S
C5098 C5097 1.414 . S
C5098 C5099 1.374 . S
C5099 H5079 0.950 . S
C5099 C5095 1.385 . S
C5099 C5098 1.374 . S
C5100 C5097 1.499 . S
C5100 C5101 1.373 . S
C5100 C5102 1.389 . S
C5101 H5080 0.950 . S
C5101 C5100 1.373 . S
C5101 C5117 1.377 . S
C5102 C5100 1.389 . S
C5102 C5103 1.524 1_655 S
C5102 C5116 1.389 . S
C5103 C5102 1.524 1_455 S
C5103 C5104 1.397 1_455 S
C5103 C5108 1.363 . S
C5104 H5081 0.950 . S
C5104 C5103 1.397 1_655 S
C5104 C5105 1.334 1_655 S
C5105 H5082 0.950 . S
C5105 C5104 1.334 1_455 S
C5105 C5106 1.287 . S
C5106 C5105 1.287 . S
C5106 C5107 1.524 . S
C5106 H5125 0.913 . S
C5107 H5083 0.950 . S
C5107 C5106 1.524 . S
C5107 C5108 1.415 . S
C5108 H5084 0.950 . S
C5108 C5103 1.363 . S
C5108 C5107 1.415 . S
C5109 H5085 0.951 1_455 S
C5109 C5110 1.366 . S
C5109 C5111 1.388 1_455 S
C5110 C5109 1.366 . S
C5110 C5114 1.385 . S
C5111 H5086 0.951 . S
C5111 C5109 1.388 1_655 S
C5111 C5112 1.377 . S
C5112 C5111 1.377 . S
C5112 C5113 1.378 1_655 S
C5112 C5115 1.522 . S
C5113 H5087 0.950 . S
C5113 C5112 1.378 1_455 S
C5113 C5114 1.374 . S
C5114 H5088 0.950 . S
C5114 C5110 1.385 . S
C5114 C5113 1.374 . S
C5115 C5112 1.522 . S
C5115 C5116 1.394 . S
C5115 C5117 1.389 . S
C5116 H5089 0.918 1_655 S
C5116 C5102 1.389 . S
C5116 C5115 1.394 . S
C5117 C5101 1.377 . S
C5117 C5115 1.389 . S
C5117 C5118 1.524 . S
C5118 C5117 1.524 . S
C5118 C5119 1.397 . S
C5118 C5123 1.363 . S
C5119 H5090 0.950 . S
C5119 C5118 1.397 . S
C5119 C5120 1.334 . S
C5120 H5091 0.950 . S
C5120 C5119 1.334 . S
C5120 C5121 1.287 . S
C5121 C5120 1.287 . S
C5121 C5122 1.524 . S
C5121 H5124 0.999 . S
C5122 H5092 0.950 . S
C5122 C5121 1.524 . S
C5122 C5123 1.415 . S
C5123 H5093 0.950 . S
C5123 C5118 1.363 . S
C5123 C5122 1.415 . S
H5124 C5121 0.999 . S
H5125 C5106 0.913 . S
H5126 C5144 0.951 . S
H5127 C5146 0.951 . S
H5128 C5148 0.950 . S
H5129 C5149 0.950 . S
H5130 C5151 0.950 . S
H5131 C5154 0.950 . S
H5132 C5155 0.950 . S
H5133 C5157 0.950 . S
H5134 C5158 0.950 . S
H5135 C5159 0.951 . S
H5136 C5161 0.951 . S
H5137 C5163 0.950 . S
H5138 C5164 0.950 . S
H5139 C5166 0.950 . S
H5140 C5169 0.950 . S
H5141 C5170 0.950 . S
H5142 C5172 0.950 . S
H5143 C5173 0.950 . S
C5144 H5126 0.951 . S
C5144 C5145 1.366 . S
C5144 C5146 1.388 . S
C5145 C5144 1.366 . S
C5145 C5149 1.385 . S
C5146 H5127 0.951 . S
C5146 C5144 1.388 . S
C5146 C5147 1.366 . S
C5147 C5146 1.366 . S
C5147 C5148 1.414 . S
C5147 C5150 1.499 . S
C5148 H5128 0.950 . S
C5148 C5147 1.414 . S
C5148 C5149 1.374 . S
C5149 H5129 0.950 . S
C5149 C5145 1.385 . S
C5149 C5148 1.374 . S
C5150 C5147 1.499 . S
C5150 C5151 1.373 . S
C5150 C5152 1.389 . S
C5151 H5130 0.950 . S
C5151 C5150 1.373 . S
C5151 C5167 1.377 . S
C5152 C5150 1.389 . S
C5152 C5153 1.524 . S
C5152 C5166 1.377 . S
C5153 C5152 1.524 . S
C5153 C5154 1.397 . S
C5153 C5158 1.363 . S
C5154 H5131 0.950 . S
C5154 C5153 1.397 . S
C5154 C5155 1.334 . S
C5155 H5132 0.950 . S
C5155 C5154 1.334 . S
C5155 C5156 1.287 . S
C5156 C5155 1.287 . S
C5156 C5157 1.524 . S
C5156 H5175 0.913 . S
C5157 H5133 0.950 . S
C5157 C5156 1.524 . S
C5157 C5158 1.415 . S
C5158 H5134 0.950 . S
C5158 C5153 1.363 . S
C5158 C5157 1.415 . S
C5159 H5135 0.951 . S
C5159 C5160 1.366 . S
C5159 C5161 1.388 . S
C5160 C5159 1.366 . S
C5160 C5164 1.385 . S
C5161 H5136 0.951 . S
C5161 C5159 1.388 . S
C5161 C5162 1.366 . S
C5162 C5161 1.366 . S
C5162 C5163 1.414 . S
C5162 C5165 1.499 . S
C5163 H5137 0.950 . S
C5163 C5162 1.414 . S
C5163 C5164 1.374 . S
C5164 H5138 0.950 . S
C5164 C5160 1.385 . S
C5164 C5163 1.374 . S
C5165 C5162 1.499 . S
C5165 C5166 1.373 . S
C5165 C5167 1.389 . S
C5166 H5139 0.950 . S
C5166 C5152 1.377 . S
C5166 C5165 1.373 . S
C5167 C5151 1.377 . S
C5167 C5165 1.389 . S
C5167 C5168 1.524 . S
C5168 C5167 1.524 . S
C5168 C5169 1.397 . S
C5168 C5173 1.363 . S
C5169 H5140 0.950 . S
C5169 C5168 1.397 . S
C5169 C5170 1.334 . S
C5170 H5141 0.950 . S
C5170 C5169 1.334 . S
C5170 C5171 1.287 . S
C5171 C5170 1.287 . S
C5171 C5172 1.524 . S
C5171 H5174 0.999 . S
C5172 H5142 0.950 . S
C5172 C5171 1.524 . S
C5172 C5173 1.415 . S
C5173 H5143 0.950 . S
C5173 C5168 1.363 . S
C5173 C5172 1.415 . S
H5174 C5171 0.999 . S
H5175 C5156 0.913 . S
H5176 C5194 0.951 . S
H5177 C5196 0.951 . S
H5178 C5198 0.950 . S
H5179 C5199 0.950 . S
H5180 C5201 0.950 . S
H5181 C5204 0.950 . S
H5182 C5205 0.950 . S
H5183 C5207 0.950 . S
H5184 C5208 0.950 . S
H5185 C5209 0.951 . S
H5186 C5211 0.951 . S
H5187 C5213 0.950 . S
H5188 C5214 0.950 . S
H5189 C5216 0.950 . S
H5190 C5219 0.950 . S
H5191 C5220 0.950 . S
H5192 C5222 0.950 . S
H5193 C5223 0.950 . S
C5194 H5176 0.951 . S
C5194 C5195 1.366 . S
C5194 C5196 1.388 . S
C5195 C5194 1.366 . S
C5195 C5199 1.385 . S
C5196 H5177 0.951 . S
C5196 C5194 1.388 . S
C5196 C5197 1.366 . S
C5197 C5196 1.366 . S
C5197 C5198 1.414 . S
C5197 C5200 1.499 . S
C5198 H5178 0.950 . S
C5198 C5197 1.414 . S
C5198 C5199 1.374 . S
C5199 H5179 0.950 . S
C5199 C5195 1.385 . S
C5199 C5198 1.374 . S
C5200 C5197 1.499 . S
C5200 C5201 1.373 . S
C5200 C5202 1.389 . S
C5201 H5180 0.950 . S
C5201 C5200 1.373 . S
C5201 C5217 1.377 . S
C5202 C5200 1.389 . S
C5202 C5203 1.524 . S
C5202 C5216 1.377 . S
C5203 C5202 1.524 . S
C5203 C5204 1.397 . S
C5203 C5208 1.363 . S
C5204 H5181 0.950 . S
C5204 C5203 1.397 . S
C5204 C5205 1.334 . S
C5205 H5182 0.950 . S
C5205 C5204 1.334 . S
C5205 C5206 1.287 . S
C5206 C5205 1.287 . S
C5206 C5207 1.524 . S
C5206 H5225 0.913 . S
C5207 H5183 0.950 . S
C5207 C5206 1.524 . S
C5207 C5208 1.415 . S
C5208 H5184 0.950 . S
C5208 C5203 1.363 . S
C5208 C5207 1.415 . S
C5209 H5185 0.951 . S
C5209 C5210 1.366 . S
C5209 C5211 1.388 . S
C5210 C5209 1.366 . S
C5210 C5214 1.385 . S
C5211 H5186 0.951 . S
C5211 C5209 1.388 . S
C5211 C5212 1.366 . S
C5212 C5211 1.366 . S
C5212 C5213 1.414 . S
C5212 C5215 1.499 . S
C5213 H5187 0.950 . S
C5213 C5212 1.414 . S
C5213 C5214 1.374 . S
C5214 H5188 0.950 . S
C5214 C5210 1.385 . S
C5214 C5213 1.374 . S
C5215 C5212 1.499 . S
C5215 C5216 1.373 . S
C5215 C5217 1.389 . S
C5216 H5189 0.950 . S
C5216 C5202 1.377 . S
C5216 C5215 1.373 . S
C5217 C5201 1.377 . S
C5217 C5215 1.389 . S
C5217 C5218 1.524 . S
C5218 C5217 1.524 . S
C5218 C5219 1.397 . S
C5218 C5223 1.363 . S
C5219 H5190 0.950 . S
C5219 C5218 1.397 . S
C5219 C5220 1.334 . S
C5220 H5191 0.950 . S
C5220 C5219 1.334 . S
C5220 C5221 1.287 . S
C5221 C5220 1.287 . S
C5221 C5222 1.524 . S
C5221 H5224 0.999 . S
C5222 H5192 0.950 . S
C5222 C5221 1.524 . S
C5222 C5223 1.415 . S
C5223 H5193 0.950 . S
C5223 C5218 1.363 . S
C5223 C5222 1.415 . S
H5224 C5221 0.999 . S
H5225 C5206 0.913 . S
H5226 C5244 0.951 . S
H5227 C5246 0.951 . S
H5228 C5248 0.950 . S
H5229 C5249 0.950 . S
H5230 C5251 0.950 . S
H5231 C5254 0.950 . S
H5232 C5255 0.950 . S
H5233 C5257 0.950 . S
H5234 C5258 0.950 . S
H5235 C5259 0.951 . S
H5236 C5261 0.951 . S
H5237 C5263 0.950 . S
H5238 C5264 0.950 . S
H5239 C5266 0.950 . S
H5240 C5269 0.950 . S
H5241 C5270 0.950 . S
H5242 C5272 0.950 . S
H5243 C5273 0.950 . S
C5244 H5226 0.951 . S
C5244 C5245 1.366 . S
C5244 C5246 1.388 . S
C5245 C5244 1.366 . S
C5245 C5249 1.385 . S
C5246 H5227 0.951 . S
C5246 C5244 1.388 . S
C5246 C5247 1.366 . S
C5247 C5246 1.366 . S
C5247 C5248 1.414 . S
C5247 C5250 1.499 . S
C5248 H5228 0.950 . S
C5248 C5247 1.414 . S
C5248 C5249 1.374 . S
C5249 H5229 0.950 . S
C5249 C5245 1.385 . S
C5249 C5248 1.374 . S
C5250 C5247 1.499 . S
C5250 C5251 1.373 . S
C5250 C5252 1.389 . S
C5251 H5230 0.950 . S
C5251 C5250 1.373 . S
C5251 C5267 1.377 . S
C5252 C5250 1.389 . S
C5252 C5253 1.524 . S
C5252 C5266 1.377 . S
C5253 C5252 1.524 . S
C5253 C5254 1.397 . S
C5253 C5258 1.363 . S
C5254 H5231 0.950 . S
C5254 C5253 1.397 . S
C5254 C5255 1.334 . S
C5255 H5232 0.950 . S
C5255 C5254 1.334 . S
C5255 C5256 1.287 . S
C5256 C5255 1.287 . S
C5256 C5257 1.524 . S
C5256 H5275 0.913 . S
C5257 H5233 0.950 . S
C5257 C5256 1.524 . S
C5257 C5258 1.415 . S
C5258 H5234 0.950 . S
C5258 C5253 1.363 . S
C5258 C5257 1.415 . S
C5259 H5235 0.951 . S
C5259 C5260 1.366 . S
C5259 C5261 1.388 . S
C5260 C5259 1.366 . S
C5260 C5264 1.385 . S
C5261 H5236 0.951 . S
C5261 C5259 1.388 . S
C5261 C5262 1.366 . S
C5262 C5261 1.366 . S
C5262 C5263 1.414 . S
C5262 C5265 1.499 . S
C5263 H5237 0.950 . S
C5263 C5262 1.414 . S
C5263 C5264 1.374 . S
C5264 H5238 0.950 . S
C5264 C5260 1.385 . S
C5264 C5263 1.374 . S
C5265 C5262 1.499 . S
C5265 C5266 1.373 . S
C5265 C5267 1.389 . S
C5266 H5239 0.950 . S
C5266 C5252 1.377 . S
C5266 C5265 1.373 . S
C5267 C5251 1.377 . S
C5267 C5265 1.389 . S
C5267 C5268 1.524 . S
C5268 C5267 1.524 . S
C5268 C5269 1.397 . S
C5268 C5273 1.363 . S
C5269 H5240 0.950 . S
C5269 C5268 1.397 . S
C5269 C5270 1.334 . S
C5270 H5241 0.950 . S
C5270 C5269 1.334 . S
C5270 C5271 1.287 . S
C5271 C5270 1.287 . S
C5271 C5272 1.524 . S
C5271 H5274 0.999 . S
C5272 H5242 0.950 . S
C5272 C5271 1.524 . S
C5272 C5273 1.415 . S
C5273 H5243 0.950 . S
C5273 C5268 1.363 . S
C5273 C5272 1.415 . S
H5274 C5271 0.999 . S
H5275 C5256 0.913 . S
H5276 C5294 0.951 . S
H5277 C5296 0.951 . S
H5278 C5298 0.950 . S
H5279 C5299 0.950 . S
H5280 C5301 0.950 . S
H5281 C5304 0.950 . S
H5282 C5305 0.950 . S
H5283 C5307 0.950 . S
H5284 C5308 0.950 . S
H5285 C5309 0.951 1_455 S
H5286 C5311 0.951 . S
H5287 C5313 0.950 . S
H5288 C5314 0.950 . S
H5289 C5316 0.950 . S
H5290 C5319 0.950 . S
H5291 C5320 0.950 . S
H5292 C5322 0.950 . S
H5293 C5323 0.950 . S
C5294 H5276 0.951 . S
C5294 C5295 1.366 . S
C5294 C5296 1.388 . S
C5295 C5294 1.366 . S
C5295 C5299 1.385 . S
C5296 H5277 0.951 . S
C5296 C5294 1.388 . S
C5296 C5297 1.366 . S
C5297 C5296 1.366 . S
C5297 C5298 1.414 . S
C5297 C5300 1.499 . S
C5298 H5278 0.950 . S
C5298 C5297 1.414 . S
C5298 C5299 1.374 . S
C5299 H5279 0.950 . S
C5299 C5295 1.385 . S
C5299 C5298 1.374 . S
C5300 C5297 1.499 . S
C5300 C5301 1.373 . S
C5300 C5302 1.389 . S
C5301 H5280 0.950 . S
C5301 C5300 1.373 . S
C5301 C5317 1.377 . S
C5302 C5300 1.389 . S
C5302 C5303 1.524 . S
C5302 C5316 1.377 . S
C5303 C5302 1.524 . S
C5303 C5304 1.397 . S
C5303 C5308 1.363 . S
C5304 H5281 0.950 . S
C5304 C5303 1.397 . S
C5304 C5305 1.334 . S
C5305 H5282 0.950 . S
C5305 C5304 1.334 . S
C5305 C5306 1.287 . S
C5306 C5305 1.287 . S
C5306 C5307 1.524 . S
C5306 H5325 0.913 . S
C5307 H5283 0.950 . S
C5307 C5306 1.524 . S
C5307 C5308 1.415 . S
C5308 H5284 0.950 . S
C5308 C5303 1.363 . S
C5308 C5307 1.415 . S
C5309 H5285 0.951 1_655 S
C5309 C5310 1.366 . S
C5309 C5311 1.388 . S
C5310 C5309 1.366 . S
C5310 C5314 1.385 . S
C5311 H5286 0.951 . S
C5311 C5309 1.388 . S
C5311 C5312 1.366 . S
C5312 C5311 1.366 . S
C5312 C5313 1.414 . S
C5312 C5315 1.499 . S
C5313 H5287 0.950 . S
C5313 C5312 1.414 . S
C5313 C5314 1.374 . S
C5314 H5288 0.950 . S
C5314 C5310 1.385 . S
C5314 C5313 1.374 . S
C5315 C5312 1.499 . S
C5315 C5316 1.373 . S
C5315 C5317 1.389 . S
C5316 H5289 0.950 . S
C5316 C5302 1.377 . S
C5316 C5315 1.373 . S
C5317 C5301 1.377 . S
C5317 C5315 1.389 . S
C5317 C5318 1.524 . S
C5318 C5317 1.524 . S
C5318 C5319 1.397 . S
C5318 C5323 1.363 1_655 S
C5319 H5290 0.950 . S
C5319 C5318 1.397 . S
C5319 C5320 1.334 1_655 S
C5320 H5291 0.950 . S
C5320 C5319 1.334 1_455 S
C5320 C5321 1.287 . S
C5321 C5320 1.287 . S
C5321 C5322 1.524 . S
C5321 H5324 0.999 . S
C5322 H5292 0.950 . S
C5322 C5321 1.524 . S
C5322 C5323 1.415 . S
C5323 H5293 0.950 . S
C5323 C5318 1.363 1_455 S
C5323 C5322 1.415 . S
H5324 C5321 0.999 . S
H5325 C5306 0.913 . S
H5326 C5344 0.951 . S
H5327 C5346 0.951 . S
H5328 C5348 0.950 . S
H5329 C5349 0.950 . S
H5330 C5351 0.950 . S
H5331 C5354 0.950 . S
H5332 C5355 0.950 . S
H5333 C5357 0.950 . S
H5334 C5358 0.950 . S
H5335 C5359 0.951 . S
H5336 C5361 0.951 . S
H5337 C5363 0.950 . S
H5338 C5364 0.950 . S
H5339 C5366 0.950 . S
H5340 C5369 0.950 . S
H5341 C5370 0.950 . S
H5342 C5372 0.950 . S
H5343 C5373 0.950 . S
C5344 H5326 0.951 . S
C5344 C5345 1.366 . S
C5344 C5346 1.388 . S
C5345 C5344 1.366 . S
C5345 C5349 1.385 . S
C5346 H5327 0.951 . S
C5346 C5344 1.388 . S
C5346 C5347 1.366 . S
C5347 C5346 1.366 . S
C5347 C5348 1.414 . S
C5347 C5350 1.499 . S
C5348 H5328 0.950 . S
C5348 C5347 1.414 . S
C5348 C5349 1.374 . S
C5349 H5329 0.950 . S
C5349 C5345 1.385 . S
C5349 C5348 1.374 . S
C5350 C5347 1.499 . S
C5350 C5351 1.373 . S
C5350 C5352 1.389 . S
C5351 H5330 0.950 . S
C5351 C5350 1.373 . S
C5351 C5367 1.377 . S
C5352 C5350 1.389 . S
C5352 C5353 1.524 . S
C5352 C5366 1.377 . S
C5353 C5352 1.524 . S
C5353 C5354 1.397 . S
C5353 C5358 1.363 . S
C5354 H5331 0.950 . S
C5354 C5353 1.397 . S
C5354 C5355 1.334 . S
C5355 H5332 0.950 . S
C5355 C5354 1.334 . S
C5355 C5356 1.287 . S
C5356 C5355 1.287 . S
C5356 C5357 1.524 . S
C5356 H5375 0.913 . S
C5357 H5333 0.950 . S
C5357 C5356 1.524 . S
C5357 C5358 1.415 . S
C5358 H5334 0.950 . S
C5358 C5353 1.363 . S
C5358 C5357 1.415 . S
C5359 H5335 0.951 . S
C5359 C5360 1.366 . S
C5359 C5361 1.388 . S
C5360 C5359 1.366 . S
C5360 C5364 1.385 . S
C5361 H5336 0.951 . S
C5361 C5359 1.388 . S
C5361 C5362 1.366 . S
C5362 C5361 1.366 . S
C5362 C5363 1.414 . S
C5362 C5365 1.499 . S
C5363 H5337 0.950 . S
C5363 C5362 1.414 . S
C5363 C5364 1.374 . S
C5364 H5338 0.950 . S
C5364 C5360 1.385 . S
C5364 C5363 1.374 . S
C5365 C5362 1.499 . S
C5365 C5366 1.373 . S
C5365 C5367 1.389 . S
C5366 H5339 0.950 . S
C5366 C5352 1.377 . S
C5366 C5365 1.373 . S
C5367 C5351 1.377 . S
C5367 C5365 1.389 . S
C5367 C5368 1.524 . S
C5368 C5367 1.524 . S
C5368 C5369 1.397 . S
C5368 C5373 1.363 . S
C5369 H5340 0.950 . S
C5369 C5368 1.397 . S
C5369 C5370 1.334 . S
C5370 H5341 0.950 . S
C5370 C5369 1.334 . S
C5370 C5371 1.287 . S
C5371 C5370 1.287 . S
C5371 C5372 1.524 . S
C5371 H5374 0.999 . S
C5372 H5342 0.950 . S
C5372 C5371 1.524 . S
C5372 C5373 1.415 . S
C5373 H5343 0.950 . S
C5373 C5368 1.363 . S
C5373 C5372 1.415 . S
H5374 C5371 0.999 . S
H5375 C5356 0.913 . S
H5376 C5394 0.951 . S
H5377 C5396 0.951 . S
H5378 C5398 0.950 . S
H5379 C5399 0.950 . S
H5380 C5401 0.950 . S
H5381 C5404 0.950 . S
H5382 C5405 0.950 . S
H5383 C5407 0.950 . S
H5384 C5408 0.950 . S
H5385 C5409 0.951 . S
H5386 C5411 0.951 . S
H5387 C5413 0.950 . S
H5388 C5414 0.950 . S
H5389 C5416 0.950 . S
H5390 C5419 0.950 . S
H5391 C5420 0.950 . S
H5392 C5422 0.950 . S
H5393 C5423 0.950 . S
C5394 H5376 0.951 . S
C5394 C5395 1.366 . S
C5394 C5396 1.388 . S
C5395 C5394 1.366 . S
C5395 C5399 1.385 . S
C5396 H5377 0.951 . S
C5396 C5394 1.388 . S
C5396 C5397 1.366 . S
C5397 C5396 1.366 . S
C5397 C5398 1.414 . S
C5397 C5400 1.499 . S
C5398 H5378 0.950 . S
C5398 C5397 1.414 . S
C5398 C5399 1.374 . S
C5399 H5379 0.950 . S
C5399 C5395 1.385 . S
C5399 C5398 1.374 . S
C5400 C5397 1.499 . S
C5400 C5401 1.373 . S
C5400 C5402 1.389 . S
C5401 H5380 0.950 . S
C5401 C5400 1.373 . S
C5401 C5417 1.377 . S
C5402 C5400 1.389 . S
C5402 C5403 1.524 . S
C5402 C5416 1.377 . S
C5403 C5402 1.524 . S
C5403 C5404 1.397 . S
C5403 C5408 1.363 . S
C5404 H5381 0.950 . S
C5404 C5403 1.397 . S
C5404 C5405 1.334 . S
C5405 H5382 0.950 . S
C5405 C5404 1.334 . S
C5405 C5406 1.287 . S
C5406 C5405 1.287 . S
C5406 C5407 1.524 . S
C5406 H5425 0.913 . S
C5407 H5383 0.950 . S
C5407 C5406 1.524 . S
C5407 C5408 1.415 . S
C5408 H5384 0.950 . S
C5408 C5403 1.363 . S
C5408 C5407 1.415 . S
C5409 H5385 0.951 . S
C5409 C5410 1.366 . S
C5409 C5411 1.388 . S
C5410 C5409 1.366 . S
C5410 C5414 1.385 . S
C5411 H5386 0.951 . S
C5411 C5409 1.388 . S
C5411 C5412 1.366 . S
C5412 C5411 1.366 . S
C5412 C5413 1.414 . S
C5412 C5415 1.499 . S
C5413 H5387 0.950 . S
C5413 C5412 1.414 . S
C5413 C5414 1.374 . S
C5414 H5388 0.950 . S
C5414 C5410 1.385 . S
C5414 C5413 1.374 . S
C5415 C5412 1.499 . S
C5415 C5416 1.373 . S
C5415 C5417 1.389 . S
C5416 H5389 0.950 . S
C5416 C5402 1.377 . S
C5416 C5415 1.373 . S
C5417 C5401 1.377 . S
C5417 C5415 1.389 . S
C5417 C5418 1.524 . S
C5418 C5417 1.524 . S
C5418 C5419 1.397 . S
C5418 C5423 1.363 . S
C5419 H5390 0.950 . S
C5419 C5418 1.397 . S
C5419 C5420 1.334 . S
C5420 H5391 0.950 . S
C5420 C5419 1.334 . S
C5420 C5421 1.287 . S
C5421 C5420 1.287 . S
C5421 C5422 1.524 . S
C5421 H5424 0.999 . S
C5422 H5392 0.950 . S
C5422 C5421 1.524 . S
C5422 C5423 1.415 . S
C5423 H5393 0.950 . S
C5423 C5418 1.363 . S
C5423 C5422 1.415 . S
H5424 C5421 0.999 . S
H5425 C5406 0.913 . S
H5426 C5444 0.951 . S
H5427 C5446 0.951 . S
H5428 C5448 0.950 . S
H5429 C5449 0.950 . S
H5430 C5451 0.950 . S
H5431 C5454 0.950 . S
H5432 C5455 0.950 . S
H5433 C5457 0.950 . S
H5434 C5458 0.950 . S
H5435 C5459 0.951 . S
H5436 C5461 0.951 . S
H5437 C5463 0.950 1_545 S
H5438 C5464 0.950 . S
H5439 C5466 0.950 . S
H5440 C5469 0.950 . S
H5441 C5470 0.950 . S
H5442 C5472 0.950 . S
H5443 C5473 0.950 . S
C5444 H5426 0.951 . S
C5444 C5445 1.366 . S
C5444 C5446 1.388 . S
C5445 C5444 1.366 . S
C5445 C5449 1.385 . S
C5446 H5427 0.951 . S
C5446 C5444 1.388 . S
C5446 C5447 1.366 . S
C5447 C5446 1.366 . S
C5447 C5448 1.414 . S
C5447 C5450 1.499 . S
C5448 H5428 0.950 . S
C5448 C5447 1.414 . S
C5448 C5449 1.374 . S
C5449 H5429 0.950 . S
C5449 C5445 1.385 . S
C5449 C5448 1.374 . S
C5450 C5447 1.499 . S
C5450 C5451 1.373 . S
C5450 C5452 1.389 . S
C5451 H5430 0.950 . S
C5451 C5450 1.373 . S
C5451 C5467 1.377 . S
C5452 C5450 1.389 . S
C5452 C5453 1.524 . S
C5452 C5466 1.377 . S
C5453 C5452 1.524 . S
C5453 C5454 1.397 . S
C5453 C5458 1.363 . S
C5454 H5431 0.950 . S
C5454 C5453 1.397 . S
C5454 C5455 1.334 . S
C5455 H5432 0.950 . S
C5455 C5454 1.334 . S
C5455 C5456 1.287 . S
C5456 C5455 1.287 . S
C5456 C5457 1.524 . S
C5456 H5475 0.913 . S
C5457 H5433 0.950 . S
C5457 C5456 1.524 . S
C5457 C5458 1.415 . S
C5458 H5434 0.950 . S
C5458 C5453 1.363 . S
C5458 C5457 1.415 . S
C5459 H5435 0.951 . S
C5459 C5460 1.366 1_565 S
C5459 C5461 1.388 . S
C5460 C5459 1.366 1_545 S
C5460 C5464 1.385 . S
C5461 H5436 0.951 . S
C5461 C5459 1.388 . S
C5461 C5462 1.366 . S
C5462 C5461 1.366 . S
C5462 C5463 1.414 . S
C5462 C5465 1.499 . S
C5463 H5437 0.950 1_565 S
C5463 C5462 1.414 . S
C5463 C5464 1.374 1_565 S
C5464 H5438 0.950 . S
C5464 C5460 1.385 . S
C5464 C5463 1.374 1_545 S
C5465 C5462 1.499 . S
C5465 C5466 1.373 . S
C5465 C5467 1.389 . S
C5466 H5439 0.950 . S
C5466 C5452 1.377 . S
C5466 C5465 1.373 . S
C5467 C5451 1.377 . S
C5467 C5465 1.389 . S
C5467 C5468 1.524 . S
C5468 C5467 1.524 . S
C5468 C5469 1.397 . S
C5468 C5473 1.363 . S
C5469 H5440 0.950 . S
C5469 C5468 1.397 . S
C5469 C5470 1.334 . S
C5470 H5441 0.950 . S
C5470 C5469 1.334 . S
C5470 C5471 1.287 . S
C5471 C5470 1.287 . S
C5471 C5472 1.524 . S
C5471 H5474 0.999 . S
C5472 H5442 0.950 . S
C5472 C5471 1.524 . S
C5472 C5473 1.415 . S
C5473 H5443 0.950 . S
C5473 C5468 1.363 . S
C5473 C5472 1.415 . S
H5474 C5471 0.999 . S
H5475 C5456 0.913 . S
H5476 C5494 0.951 . S
H5477 C5496 0.951 . S
H5478 C5498 0.950 . S
H5479 C5499 0.950 . S
H5480 C5501 0.950 . S
H5481 C5504 0.950 . S
H5482 C5505 0.950 . S
H5483 C5507 0.950 . S
H5484 C5508 0.950 . S
H5485 C5509 0.951 . S
H5486 C5511 0.951 . S
H5487 C5513 0.950 . S
H5488 C5514 0.950 . S
H5489 C5516 0.950 . S
H5490 C5519 0.950 . S
H5491 C5520 0.950 . S
H5492 C5522 0.950 . S
H5493 C5523 0.950 . S
C5494 H5476 0.951 . S
C5494 C5495 1.366 . S
C5494 C5496 1.388 . S
C5495 C5494 1.366 . S
C5495 C5499 1.385 . S
C5496 H5477 0.951 . S
C5496 C5494 1.388 . S
C5496 C5497 1.366 . S
C5497 C5496 1.366 . S
C5497 C5498 1.414 . S
C5497 C5500 1.499 . S
C5498 H5478 0.950 . S
C5498 C5497 1.414 . S
C5498 C5499 1.374 . S
C5499 H5479 0.950 . S
C5499 C5495 1.385 . S
C5499 C5498 1.374 . S
C5500 C5497 1.499 . S
C5500 C5501 1.373 . S
C5500 C5502 1.389 . S
C5501 H5480 0.950 . S
C5501 C5500 1.373 . S
C5501 C5517 1.377 . S
C5502 C5500 1.389 . S
C5502 C5503 1.524 . S
C5502 C5516 1.377 . S
C5503 C5502 1.524 . S
C5503 C5504 1.397 . S
C5503 C5508 1.363 . S
C5504 H5481 0.950 . S
C5504 C5503 1.397 . S
C5504 C5505 1.334 . S
C5505 H5482 0.950 . S
C5505 C5504 1.334 . S
C5505 C5506 1.287 . S
C5506 C5505 1.287 . S
C5506 C5507 1.524 . S
C5506 H5525 0.913 . S
C5507 H5483 0.950 . S
C5507 C5506 1.524 . S
C5507 C5508 1.415 . S
C5508 H5484 0.950 . S
C5508 C5503 1.363 . S
C5508 C5507 1.415 . S
C5509 H5485 0.951 . S
C5509 C5510 1.366 . S
C5509 C5511 1.388 . S
C5510 C5509 1.366 . S
C5510 C5514 1.385 . S
C5511 H5486 0.951 . S
C5511 C5509 1.388 . S
C5511 C5512 1.366 . S
C5512 C5511 1.366 . S
C5512 C5513 1.414 . S
C5512 C5515 1.499 . S
C5513 H5487 0.950 . S
C5513 C5512 1.414 . S
C5513 C5514 1.374 . S
C5514 H5488 0.950 . S
C5514 C5510 1.385 . S
C5514 C5513 1.374 . S
C5515 C5512 1.499 . S
C5515 C5516 1.373 . S
C5515 C5517 1.389 . S
C5516 H5489 0.950 . S
C5516 C5502 1.377 . S
C5516 C5515 1.373 . S
C5517 C5501 1.377 . S
C5517 C5515 1.389 . S
C5517 C5518 1.524 . S
C5518 C5517 1.524 . S
C5518 C5519 1.397 . S
C5518 C5523 1.363 . S
C5519 H5490 0.950 . S
C5519 C5518 1.397 . S
C5519 C5520 1.334 . S
C5520 H5491 0.950 . S
C5520 C5519 1.334 . S
C5520 C5521 1.287 . S
C5521 C5520 1.287 . S
C5521 C5522 1.524 . S
C5521 H5524 0.999 . S
C5522 H5492 0.950 . S
C5522 C5521 1.524 . S
C5522 C5523 1.415 . S
C5523 H5493 0.950 . S
C5523 C5518 1.363 . S
C5523 C5522 1.415 . S
H5524 C5521 0.999 . S
H5525 C5506 0.913 . S
H5526 C5544 0.951 . S
H5527 C5546 0.951 . S
H5528 C5548 0.950 . S
H5529 C5549 0.950 . S
H5530 C5551 0.950 . S
H5531 C5554 0.950 . S
H5532 C5555 0.950 . S
H5533 C5557 0.922 1_556 S
H5534 C5558 0.950 1_556 S
H5535 C5559 0.951 . S
H5536 C5561 0.951 . S
H5537 C5563 0.950 . S
H5538 C5564 0.950 . S
H5539 C5566 0.950 . S
H5540 C5569 0.950 . S
H5541 C5570 0.950 . S
H5542 C5572 0.950 . S
H5543 C5573 0.950 . S
C5544 H5526 0.951 . S
C5544 C5545 1.366 1_556 S
C5544 C5546 1.388 . S
C5545 C5544 1.366 1_554 S
C5545 C5549 1.385 . S
C5546 H5527 0.951 . S
C5546 C5544 1.388 . S
C5546 C5547 1.366 1_556 S
C5547 C5546 1.366 1_554 S
C5547 C5548 1.414 . S
C5547 C5550 1.499 . S
C5548 H5528 0.950 . S
C5548 C5547 1.414 . S
C5548 C5549 1.374 . S
C5549 H5529 0.950 . S
C5549 C5545 1.385 . S
C5549 C5548 1.374 . S
C5550 C5547 1.499 . S
C5550 C5551 1.373 . S
C5550 C5552 1.389 . S
C5551 H5530 0.950 . S
C5551 C5550 1.373 . S
C5551 C5567 1.377 . S
C5552 C5550 1.389 . S
C5552 C5553 1.524 . S
C5552 C5566 1.377 . S
C5553 C5552 1.524 . S
C5553 C5554 1.397 . S
C5553 C5558 1.363 . S
C5554 H5531 0.950 . S
C5554 C5553 1.397 . S
C5554 C5555 1.334 . S
C5555 H5532 0.950 . S
C5555 C5554 1.334 . S
C5555 C5556 1.287 . S
C5556 C5555 1.287 . S
C5556 C5557 1.524 . S
C5556 H5575 0.913 . S
C5557 H5533 0.922 1_554 S
C5557 C5556 1.524 . S
C5557 C5558 1.415 . S
C5558 H5534 0.950 1_554 S
C5558 C5553 1.363 . S
C5558 C5557 1.415 . S
C5559 H5535 0.951 . S
C5559 C5560 1.366 . S
C5559 C5561 1.388 . S
C5560 C5559 1.366 . S
C5560 C5564 1.385 1_554 S
C5561 H5536 0.951 . S
C5561 C5559 1.388 . S
C5561 C5562 1.366 . S
C5562 C5561 1.366 . S
C5562 C5563 1.414 1_554 S
C5562 C5565 1.499 . S
C5563 H5537 0.950 . S
C5563 C5562 1.414 1_556 S
C5563 C5564 1.374 . S
C5564 H5538 0.950 . S
C5564 C5560 1.385 1_556 S
C5564 C5563 1.374 . S
C5565 C5562 1.499 . S
C5565 C5566 1.373 . S
C5565 C5567 1.389 . S
C5566 H5539 0.950 . S
C5566 C5552 1.377 . S
C5566 C5565 1.373 . S
C5567 C5551 1.377 . S
C5567 C5565 1.389 . S
C5567 C5568 1.524 1_554 S
C5568 C5567 1.524 1_556 S
C5568 C5569 1.397 . S
C5568 C5573 1.363 1_556 S
C5569 H5540 0.950 . S
C5569 C5568 1.397 . S
C5569 C5570 1.334 . S
C5570 H5541 0.950 . S
C5570 C5569 1.334 . S
C5570 C5571 1.287 . S
C5571 C5570 1.287 . S
C5571 C5572 1.524 1_556 S
C5571 H5574 0.999 1_545 S
C5572 H5542 0.950 . S
C5572 C5571 1.524 1_554 S
C5572 C5573 1.415 . S
C5573 H5543 0.950 . S
C5573 C5568 1.363 1_554 S
C5573 C5572 1.415 . S
H5574 C5571 0.999 1_565 S
H5575 C5556 0.913 . S
H5576 C5594 0.951 . S
H5577 C5596 0.951 . S
H5578 C5598 0.950 . S
H5579 C5599 0.950 . S
H5580 C5601 0.950 . S
H5581 C5604 0.950 . S
H5582 C5605 0.950 . S
H5583 C5607 0.950 . S
H5584 C5608 0.950 . S
H5585 C5609 0.951 . S
H5586 C5611 0.951 . S
H5587 C5613 0.950 . S
H5588 C5614 0.950 . S
H5589 C5616 0.950 . S
H5590 C5619 0.950 . S
H5591 C5620 0.950 . S
H5592 C5622 0.950 . S
H5593 C5623 0.950 . S
C5594 H5576 0.951 . S
C5594 C5595 1.366 . S
C5594 C5596 1.388 . S
C5595 C5594 1.366 . S
C5595 C5599 1.385 . S
C5596 H5577 0.951 . S
C5596 C5594 1.388 . S
C5596 C5597 1.366 . S
C5597 C5596 1.366 . S
C5597 C5598 1.414 . S
C5597 C5600 1.499 . S
C5598 H5578 0.950 . S
C5598 C5597 1.414 . S
C5598 C5599 1.374 . S
C5599 H5579 0.950 . S
C5599 C5595 1.385 . S
C5599 C5598 1.374 . S
C5600 C5597 1.499 . S
C5600 C5601 1.373 . S
C5600 C5602 1.389 . S
C5601 H5580 0.950 . S
C5601 C5600 1.373 . S
C5601 C5617 1.377 . S
C5602 C5600 1.389 . S
C5602 C5603 1.524 . S
C5602 C5616 1.377 . S
C5603 C5602 1.524 . S
C5603 C5604 1.397 . S
C5603 C5608 1.363 . S
C5604 H5581 0.950 . S
C5604 C5603 1.397 . S
C5604 C5605 1.334 . S
C5605 H5582 0.950 . S
C5605 C5604 1.334 . S
C5605 C5606 1.287 . S
C5606 C5605 1.287 . S
C5606 C5607 1.524 . S
C5606 H5625 0.913 . S
C5607 H5583 0.950 . S
C5607 C5606 1.524 . S
C5607 C5608 1.415 . S
C5608 H5584 0.950 . S
C5608 C5603 1.363 . S
C5608 C5607 1.415 . S
C5609 H5585 0.951 . S
C5609 C5610 1.366 . S
C5609 C5611 1.388 . S
C5610 C5609 1.366 . S
C5610 C5614 1.385 . S
C5611 H5586 0.951 . S
C5611 C5609 1.388 . S
C5611 C5612 1.366 . S
C5612 C5611 1.366 . S
C5612 C5613 1.414 . S
C5612 C5615 1.499 . S
C5613 H5587 0.950 . S
C5613 C5612 1.414 . S
C5613 C5614 1.374 . S
C5614 H5588 0.950 . S
C5614 C5610 1.385 . S
C5614 C5613 1.374 . S
C5615 C5612 1.499 . S
C5615 C5616 1.373 . S
C5615 C5617 1.389 . S
C5616 H5589 0.950 . S
C5616 C5602 1.377 . S
C5616 C5615 1.373 . S
C5617 C5601 1.377 . S
C5617 C5615 1.389 . S
C5617 C5618 1.524 . S
C5618 C5617 1.524 . S
C5618 C5619 1.397 . S
C5618 C5623 1.363 . S
C5619 H5590 0.950 . S
C5619 C5618 1.397 . S
C5619 C5620 1.334 . S
C5620 H5591 0.950 . S
C5620 C5619 1.334 . S
C5620 C5621 1.287 . S
C5621 C5620 1.287 . S
C5621 C5622 1.524 . S
C5621 H5624 0.999 . S
C5622 H5592 0.950 . S
C5622 C5621 1.524 . S
C5622 C5623 1.415 . S
C5623 H5593 0.950 . S
C5623 C5618 1.363 . S
C5623 C5622 1.415 . S
H5624 C5621 0.999 . S
H5625 C5606 0.913 . S
H5626 C5644 0.951 1_556 S
H5627 C5646 0.980 . S
H5628 C5648 0.950 . S
H5629 C5649 0.950 . S
H5630 C5651 0.950 . S
H5631 C5654 0.950 . S
H5632 C5655 0.950 . S
H5633 C5657 0.950 . S
H5634 C5658 0.950 . S
H5635 C5659 0.951 1_554 S
H5636 C5661 0.951 . S
H5637 C5663 0.950 . S
H5638 C5664 0.950 . S
H5639 C5666 0.950 . S
H5640 C5669 0.950 . S
H5641 C5670 0.950 . S
H5642 C5672 0.950 . S
H5643 C5673 0.950 . S
C5644 H5626 0.951 1_554 S
C5644 C5645 1.366 . S
C5644 C5646 1.377 1_554 S
C5645 C5644 1.366 . S
C5645 C5649 1.385 . S
C5646 H5627 0.980 . S
C5646 C5644 1.377 1_556 S
C5646 C5647 1.350 1_556 S
C5647 C5646 1.350 1_554 S
C5647 C5648 1.414 . S
C5647 C5650 1.499 . S
C5648 H5628 0.950 . S
C5648 C5647 1.414 . S
C5648 C5649 1.374 . S
C5649 H5629 0.950 . S
C5649 C5645 1.385 . S
C5649 C5648 1.374 . S
C5650 C5647 1.499 . S
C5650 C5651 1.373 . S
C5650 C5652 1.389 1_554 S
C5651 H5630 0.950 . S
C5651 C5650 1.373 . S
C5651 C5667 1.377 . S
C5652 C5650 1.389 1_556 S
C5652 C5653 1.524 . S
C5652 C5666 1.377 . S
C5653 C5652 1.524 . S
C5653 C5654 1.397 . S
C5653 C5658 1.363 . S
C5654 H5631 0.950 . S
C5654 C5653 1.397 . S
C5654 C5655 1.334 . S
C5655 H5632 0.950 . S
C5655 C5654 1.334 . S
C5655 C5656 1.287 . S
C5656 C5655 1.287 . S
C5656 C5657 1.524 . S
C5656 H5675 0.913 . S
C5657 H5633 0.950 . S
C5657 C5656 1.524 . S
C5657 C5658 1.415 . S
C5658 H5634 0.950 . S
C5658 C5653 1.363 . S
C5658 C5657 1.415 . S
C5659 H5635 0.951 1_556 S
C5659 C5660 1.366 . S
C5659 C5661 1.388 1_556 S
C5660 C5659 1.366 . S
C5660 C5664 1.385 . S
C5661 H5636 0.951 . S
C5661 C5659 1.388 1_554 S
C5661 C5662 1.366 1_554 S
C5662 C5661 1.366 1_556 S
C5662 C5663 1.414 . S
C5662 C5665 1.499 . S
C5663 H5637 0.950 . S
C5663 C5662 1.414 . S
C5663 C5664 1.374 . S
C5664 H5638 0.950 . S
C5664 C5660 1.385 . S
C5664 C5663 1.374 . S
C5665 C5662 1.499 . S
C5665 C5666 1.373 . S
C5665 C5667 1.389 1_556 S
C5666 H5639 0.950 . S
C5666 C5652 1.377 . S
C5666 C5665 1.373 . S
C5667 C5651 1.377 . S
C5667 C5665 1.389 1_554 S
C5667 C5668 1.524 . S
C5668 C5667 1.524 . S
C5668 C5669 1.397 . S
C5668 C5673 1.363 . S
C5669 H5640 0.950 . S
C5669 C5668 1.397 . S
C5669 C5670 1.334 . S
C5670 H5641 0.950 . S
C5670 C5669 1.334 . S
C5670 C5671 1.287 . S
C5671 C5670 1.287 . S
C5671 C5672 1.524 . S
C5671 H5674 0.999 . S
C5672 H5642 0.950 . S
C5672 C5671 1.524 . S
C5672 C5673 1.415 . S
C5673 H5643 0.950 . S
C5673 C5668 1.363 . S
C5673 C5672 1.415 . S
H5674 C5671 0.999 . S
H5675 C5656 0.913 . S
H5676 C5694 0.951 . S
H5677 C5696 0.951 . S
H5678 C5698 0.950 . S
H5679 C5699 0.950 1_545 S
H5680 C5701 0.950 . S
H5681 C5704 0.950 . S
H5682 C5705 0.950 . S
H5683 C5707 0.950 . S
H5684 C5708 0.950 . S
H5685 C5709 0.951 . S
H5686 C5711 0.951 . S
H5687 C5713 0.950 . S
H5688 C5714 0.950 . S
H5689 C5716 0.950 . S
H5690 C5719 0.950 . S
H5691 C5720 0.950 . S
H5692 C5722 0.950 . S
H5693 C5723 0.950 . S
C5694 H5676 0.951 . S
C5694 C5695 1.366 . S
C5694 C5696 1.388 . S
C5695 C5694 1.366 . S
C5695 C5699 1.385 . S
C5696 H5677 0.951 . S
C5696 C5694 1.388 . S
C5696 C5697 1.366 . S
C5697 C5696 1.366 . S
C5697 C5698 1.414 . S
C5697 C5700 1.499 . S
C5698 H5678 0.950 . S
C5698 C5697 1.414 . S
C5698 C5699 1.374 . S
C5699 H5679 0.950 1_565 S
C5699 C5695 1.385 . S
C5699 C5698 1.374 . S
C5700 C5697 1.499 . S
C5700 C5701 1.373 . S
C5700 C5702 1.389 . S
C5701 H5680 0.950 . S
C5701 C5700 1.373 . S
C5701 C5717 1.377 . S
C5702 C5700 1.389 . S
C5702 C5703 1.524 . S
C5702 C5716 1.377 . S
C5703 C5702 1.524 . S
C5703 C5704 1.397 . S
C5703 C5708 1.363 . S
C5704 H5681 0.950 . S
C5704 C5703 1.397 . S
C5704 C5705 1.334 . S
C5705 H5682 0.950 . S
C5705 C5704 1.334 . S
C5705 C5706 1.287 . S
C5706 C5705 1.287 . S
C5706 C5707 1.524 . S
C5706 H5725 0.913 . S
C5707 H5683 0.950 . S
C5707 C5706 1.524 . S
C5707 C5708 1.415 . S
C5708 H5684 0.950 . S
C5708 C5703 1.363 . S
C5708 C5707 1.415 . S
C5709 H5685 0.951 . S
C5709 C5710 1.366 . S
C5709 C5711 1.388 . S
C5710 C5709 1.366 . S
C5710 C5714 1.385 . S
C5711 H5686 0.951 . S
C5711 C5709 1.388 . S
C5711 C5712 1.366 . S
C5712 C5711 1.366 . S
C5712 C5713 1.414 . S
C5712 C5715 1.499 . S
C5713 H5687 0.950 . S
C5713 C5712 1.414 . S
C5713 C5714 1.374 . S
C5714 H5688 0.950 . S
C5714 C5710 1.385 . S
C5714 C5713 1.374 . S
C5715 C5712 1.499 . S
C5715 C5716 1.373 . S
C5715 C5717 1.389 . S
C5716 H5689 0.950 . S
C5716 C5702 1.377 . S
C5716 C5715 1.373 . S
C5717 C5701 1.377 . S
C5717 C5715 1.389 . S
C5717 C5718 1.524 . S
C5718 C5717 1.524 . S
C5718 C5719 1.397 . S
C5718 C5723 1.363 . S
C5719 H5690 0.950 . S
C5719 C5718 1.397 . S
C5719 C5720 1.334 . S
C5720 H5691 0.950 . S
C5720 C5719 1.334 . S
C5720 C5721 1.287 . S
C5721 C5720 1.287 . S
C5721 C5722 1.524 . S
C5721 H5724 0.999 . S
C5722 H5692 0.950 . S
C5722 C5721 1.524 . S
C5722 C5723 1.415 . S
C5723 H5693 0.950 . S
C5723 C5718 1.363 . S
C5723 C5722 1.415 . S
H5724 C5721 0.999 . S
H5725 C5706 0.913 . S
H5726 C5744 0.951 . S
H5727 C5746 0.951 . S
H5728 C5748 0.950 . S
H5729 C5749 0.950 . S
H5730 C5751 0.950 . S
H5731 C5754 0.950 . S
H5732 C5755 0.950 . S
H5733 C5757 0.950 . S
H5734 C5758 0.950 . S
H5735 C5759 0.951 . S
H5736 C5761 0.951 . S
H5737 C5763 0.950 . S
H5738 C5764 0.950 . S
H5739 C5766 0.950 . S
H5740 C5769 0.950 . S
H5741 C5770 0.950 . S
H5742 C5772 0.950 . S
H5743 C5773 0.950 . S
C5744 H5726 0.951 . S
C5744 C5745 1.366 . S
C5744 C5746 1.388 . S
C5745 C5744 1.366 . S
C5745 C5749 1.385 . S
C5746 H5727 0.951 . S
C5746 C5744 1.388 . S
C5746 C5747 1.366 . S
C5747 C5746 1.366 . S
C5747 C5748 1.414 . S
C5747 C5750 1.499 . S
C5748 H5728 0.950 . S
C5748 C5747 1.414 . S
C5748 C5749 1.374 . S
C5749 H5729 0.950 . S
C5749 C5745 1.385 . S
C5749 C5748 1.374 . S
C5750 C5747 1.499 . S
C5750 C5751 1.373 . S
C5750 C5752 1.389 . S
C5751 H5730 0.950 . S
C5751 C5750 1.373 . S
C5751 C5767 1.377 . S
C5752 C5750 1.389 . S
C5752 C5753 1.524 . S
C5752 C5766 1.377 . S
C5753 C5752 1.524 . S
C5753 C5754 1.397 . S
C5753 C5758 1.363 . S
C5754 H5731 0.950 . S
C5754 C5753 1.397 . S
C5754 C5755 1.334 . S
C5755 H5732 0.950 . S
C5755 C5754 1.334 . S
C5755 C5756 1.287 . S
C5756 C5755 1.287 . S
C5756 C5757 1.524 . S
C5756 H5775 0.913 . S
C5757 H5733 0.950 . S
C5757 C5756 1.524 . S
C5757 C5758 1.415 . S
C5758 H5734 0.950 . S
C5758 C5753 1.363 . S
C5758 C5757 1.415 . S
C5759 H5735 0.951 . S
C5759 C5760 1.366 . S
C5759 C5761 1.388 . S
C5760 C5759 1.366 . S
C5760 C5764 1.385 . S
C5761 H5736 0.951 . S
C5761 C5759 1.388 . S
C5761 C5762 1.366 . S
C5762 C5761 1.366 . S
C5762 C5763 1.414 . S
C5762 C5765 1.499 . S
C5763 H5737 0.950 . S
C5763 C5762 1.414 . S
C5763 C5764 1.374 . S
C5764 H5738 0.950 . S
C5764 C5760 1.385 . S
C5764 C5763 1.374 . S
C5765 C5762 1.499 . S
C5765 C5766 1.373 . S
C5765 C5767 1.389 . S
C5766 H5739 0.950 . S
C5766 C5752 1.377 . S
C5766 C5765 1.373 . S
C5767 C5751 1.377 . S
C5767 C5765 1.389 . S
C5767 C5768 1.524 . S
C5768 C5767 1.524 . S
C5768 C5769 1.397 . S
C5768 C5773 1.363 . S
C5769 H5740 0.950 . S
C5769 C5768 1.397 . S
C5769 C5770 1.334 . S
C5770 H5741 0.950 . S
C5770 C5769 1.334 . S
C5770 C5771 1.287 . S
C5771 C5770 1.287 . S
C5771 C5772 1.524 . S
C5771 H5774 0.999 . S
C5772 H5742 0.950 . S
C5772 C5771 1.524 . S
C5772 C5773 1.415 . S
C5773 H5743 0.950 . S
C5773 C5768 1.363 . S
C5773 C5772 1.415 . S
H5774 C5771 0.999 . S
H5775 C5756 0.913 . S
C995 C111 2.109 . S
C1010 C346 2.118 . S
C1045 C64 2.021 . S
C1060 C394 2.085 . S
C1095 C77 0.899 . S
C1110 C426 0.887 . S
C1160 C471 1.165 . S
C1145 C95 1.172 . S
C1195 C25 0.961 . S
C1210 C511 0.944 . S
C1260 C542 0.278 . S
C1245 C36 0.387 . S
C1310 C594 1.143 . S
C1295 C50 1.084 . S
C1345 C11 1.619 . S
C1360 C626 1.544 . S
C1410 C354 2.364 . S
C1395 C237 2.255 . S
C1445 C245 0.252 . S
C1460 C391 0.361 . S
C1510 C434 1.196 . S
C1495 C279 1.139 . S
C1560 C466 1.066 . S
C1545 C175 1.079 . S
C1595 C231 1.584 . S
C1610 C506 1.570 . S
C1660 C545 1.355 . S
C1645 C251 1.301 . S
C1710 C591 0.323 . S
C1695 C273 0.174 . S
C1760 C634 1.927 . S
C1745 C181 1.880 . S
C1810 C351 1.288 . S
C1795 C165 1.315 . S
C1845 C288 1.909 1_556 S
C1860 C674 1.963 . S
C1910 C715 2.515 . S
C1895 C333 2.582 . S
C1960 C746 0.454 . S
C1945 C316 0.483 . S
C1995 C123 1.207 . S
C2010 C631 1.173 . S
C2045 C137 1.391 . S
C2060 C431 1.367 . S
C2095 C330 2.210 . S
C2110 C794 2.263 . S
C2160 C826 0.451 . S
C2145 C302 0.378 . S
C2210 C355 2.236 . S
C2195 C63 2.284 . S
C2260 C825 2.132 . S
C2245 C106 2.131 . S
C2295 C97 1.003 . S
C2310 C435 1.020 . S
C2345 C81 1.251 . S
C2360 C782 1.254 . S
C2410 C502 1.078 . S
C2395 C13 1.016 . S
C2445 C55 0.487 . S
C2460 C711 0.276 . S
C2510 C585 1.180 1_565 S
C2495 C35 1.166 . S
C2560 C875 1.748 . S
C2545 C21 1.817 . S
C2610 C345 2.496 . S
C2595 C147 2.514 . S
C2660 C822 0.323 . S
C2645 C321 0.518 . S
C2695 C119 1.297 . S
C2710 C425 1.281 . S
C2745 C293 1.198 . S
C2760 C795 1.239 . S
C2795 C153 1.661 . S
C2810 C515 1.792 . S
C2860 C714 1.399 . S
C2845 C315 1.427 . S
C2895 C125 0.469 . S
C2910 C582 0.225 1_565 S
C2945 C287 2.084 . S
C2960 C865 2.052 . S
C2995 C193 1.355 . S
C3010 C342 1.356 . S
C3045 C176 1.987 . S
C3060 C665 2.004 . S
C3095 C263 2.538 . S
C3110 C546 2.465 . S
C3145 C246 0.707 . S
C3160 C755 0.699 . S
C3210 C862 1.231 . S
C3195 C277 1.234 . S
C3245 C221 1.401 . S
C3260 C422 1.402 . S
C3310 C465 2.333 . S
C3295 C260 2.314 . S
C3360 C395 0.566 . S
C3345 C204 0.566 . S
C3395 C83 2.109 . S
C3410 C906 2.099 . S
C3460 C834 2.084 . S
C3445 C92 2.021 . S
C3495 C105 0.899 . S
C3510 C946 0.886 . S
C3545 C67 1.171 . S
C3560 C791 1.166 . S
C3595 C53 0.961 . S
C3610 C671 0.942 . S
C3660 C702 0.278 . S
C3645 C8 0.386 . S
C3710 C754 1.143 . S
C3695 C22 1.084 . S
C3760 C866 1.543 . S
C3745 C39 1.618 . S
C3810 C914 2.363 . S
C3795 C265 2.255 . S
C3845 C189 0.249 . S
C3860 C831 0.357 . S
C3910 C954 1.195 . S
C3895 C209 1.138 . S
C3960 C786 1.066 . S
C3945 C217 1.079 . S
C4010 C666 1.569 . S
C3995 C259 1.584 . S
C4045 C195 1.301 . S
C4060 C705 1.355 . S
C4110 C751 0.323 . S
C4095 C203 0.174 . S
C4145 C223 1.880 . S
C4160 C874 1.926 . S
C4210 C911 1.291 . S
C4195 C319 1.315 . S
C4245 C134 1.909 . S
C4260 C514 1.963 . S
C4310 C555 2.515 . S
C4295 C151 2.590 . S
C4360 C586 0.455 . S
C4345 C162 0.480 . S
C4410 C871 1.172 . S
C4395 C305 1.207 . S
C4445 C291 1.391 . S
C4460 C951 1.366 . S
C4510 C474 2.261 . S
C4495 C148 2.202 . S
C4560 C386 0.450 . S
C4545 C120 0.381 . S
C4595 C91 2.284 . S
C4610 C915 2.236 . S
C4660 C385 2.131 . S
C4645 C78 2.130 . S
C4695 C69 1.005 . S
C4710 C955 1.019 . S
C4745 C109 1.251 . S
C4760 C462 1.253 . S
C4795 C41 1.016 . S
C4810 C662 1.077 . S
C4860 C551 0.274 . S
C4845 C27 0.482 . S
C4895 C7 1.167 . S
C4910 C745 1.181 . S
C4945 C49 1.811 . S
C4960 C635 1.747 . S
C5010 C905 2.496 . S
C4995 C329 2.514 . S
C5045 C167 0.518 . S
C5060 C382 0.323 . S
C5110 C945 1.281 . S
C5095 C301 1.298 . S
C5145 C139 1.199 . S
C5160 C475 1.240 . S
C5195 C335 1.666 . S
C5210 C675 1.797 . S
C5260 C554 1.399 . S
C5245 C161 1.426 . S
C5295 C307 0.471 . S
C5310 C742 0.263 . S
C5360 C625 2.051 . S
C5345 C133 2.083 . S
C5410 C902 1.356 . S
C5395 C249 1.355 . S
C5460 C505 2.004 1_655 S
C5445 C218 1.988 . S
C5495 C235 2.538 . S
C5510 C706 2.465 . S
C5560 C595 0.698 . S
C5545 C190 0.710 . S
C5595 C207 1.234 . S
C5610 C622 1.231 . S
C5645 C179 1.401 . S
C5660 C942 1.402 . S
C5710 C785 2.333 . S
C5695 C232 2.315 1_565 S
C5760 C835 0.565 . S
C5745 C274 0.566 . S
