# Generated by pormake.
# Topology pth, (4,4)-cn, num edge types: 1
# Building blocks:
#     Node 0, Type 0, BuildingBlock: QUQFOY_clean_sbu_1, # of connection points: 4
#     Node 1, Type 0, BuildingBlock: QUQFOY_clean_sbu_1, # of connection points: 4
#     Node 2, Type 0, BuildingBlock: QUQFOY_clean_sbu_1, # of connection points: 4
#     Node 3, Type 1, BuildingBlock: NAWXER_clean_sbu_0, # of connection points: 4
#     Node 4, Type 1, BuildingBlock: NAWXER_clean_sbu_0, # of connection points: 4
#     Node 5, Type 1, BuildingBlock: NAWXER_clean_sbu_0, # of connection points: 4
#     Edge 6, Type (0, 1), BuildingBlock: FUNLAD_clean_linker_0, # of connection points: 2
#     Edge 7, Type (0, 1), BuildingBlock: FUNLAD_clean_linker_0, # of connection points: 2
#     Edge 8, Type (0, 1), BuildingBlock: FUNLAD_clean_linker_0, # of connection points: 2
#     Edge 9, Type (0, 1), BuildingBlock: FUNLAD_clean_linker_0, # of connection points: 2
#     Edge 10, Type (0, 1), BuildingBlock: FUNLAD_clean_linker_0, # of connection points: 2
#     Edge 11, Type (0, 1), BuildingBlock: FUNLAD_clean_linker_0, # of connection points: 2
#     Edge 12, Type (0, 1), BuildingBlock: FUNLAD_clean_linker_0, # of connection points: 2
#     Edge 13, Type (0, 1), BuildingBlock: FUNLAD_clean_linker_0, # of connection points: 2
#     Edge 14, Type (0, 1), BuildingBlock: FUNLAD_clean_linker_0, # of connection points: 2
#     Edge 15, Type (0, 1), BuildingBlock: FUNLAD_clean_linker_0, # of connection points: 2
#     Edge 16, Type (0, 1), BuildingBlock: FUNLAD_clean_linker_0, # of connection points: 2
#     Edge 17, Type (0, 1), BuildingBlock: FUNLAD_clean_linker_0, # of connection points: 2
# Relax obj value: 0.023
# Max RMSD: 0.120
# Mean RMSD: 0.065
data_MOF--net-pth--node1-QUQFOY_clean_sbu_1--node2-NAWXER_clean_sbu_0--edge1-FUNLAD_clean_linker_0
_symmetry_space_group_name_H-M    P1
_symmetry_Int_Tables_number       1
_symmetry_cell_setting            triclinic
loop_
_symmetry_equiv_pos_as_xyz
'x, y, z'
_cell_length_a     25.766374
_cell_length_b     27.700223
_cell_length_c     68.001996
_cell_angle_alpha  89.96149
_cell_angle_beta   90.025904
_cell_angle_gamma 120.26055
loop_
_atom_site_label
_atom_site_type_symbol
_atom_site_fract_x
_atom_site_fract_y
_atom_site_fract_z
_atom_type_partial_charge
O0 O 0.04085 0.08631 0.06191 0.0
Cd1 Cd 0.97777 0.03393 0.08184 0.0
Cd2 Cd 0.04624 0.99092 0.08253 0.0
O3 O 0.11089 0.06866 0.07178 0.0
O4 O 0.94162 0.07779 0.09211 0.0
O5 O 0.99893 0.0564 0.11006 0.0
C6 C 0.97036 0.08337 0.1083 0.0
C7 C 0.05381 0.9454 0.11022 0.0
C8 C 0.09532 0.09829 0.06185 0.0
C9 C 0.92865 0.92487 0.06246 0.0
O10 O 0.98297 0.93625 0.06297 0.0
O11 O 0.91325 0.95578 0.07164 0.0
O12 O 0.08383 0.95 0.09442 0.0
O13 O 0.02323 0.97067 0.11078 0.0
O14 O 0.97546 0.05715 0.42621 0.0
Cd15 Cd 0.04132 0.06799 0.40672 0.0
Cd16 Cd 0.97853 0.95983 0.40612 0.0
O17 O 0.91037 0.97071 0.41751 0.0
O18 O 0.07652 0.14613 0.39689 0.0
O19 O 0.0215 0.07159 0.37839 0.0
C20 C 0.0495 0.12527 0.38042 0.0
C21 C 0.97517 0.9085 0.37857 0.0
C22 C 0.92279 0.0149 0.427 0.0
C23 C 0.09598 1.01051 0.42679 0.0
O24 O 0.04326 0.9685 0.42571 0.0
O25 O 0.10875 0.05542 0.41774 0.0
O26 O 0.94714 0.88399 0.39455 0.0
O27 O 1.00061 0.96232 0.3777 0.0
O28 O 0.94265 0.96914 0.72573 0.0
Cd29 Cd 0.99404 0.96417 0.74775 0.0
Cd30 Cd 0.03242 0.06998 0.7494 0.0
O31 O 0.95013 0.04757 0.73625 0.0
O32 O 0.94713 0.88655 0.75842 0.0
O33 O 0.96517 0.96194 0.77525 0.0
C34 C 0.93834 0.9081 0.77402 0.0
C35 C 0.07458 0.12607 0.77703 0.0
C36 C 0.92576 1.00495 0.72506 0.0
C37 C 0.11336 0.03433 0.73123 0.0
O38 O 0.09756 0.07103 0.73153 0.0
O39 O 0.08097 0.98746 0.73971 0.0
O40 O 0.06986 0.14698 0.7606 0.0
O41 O 0.05054 0.07246 0.7782 0.0
C42 C 0.05293 0.59598 0.27138 0.0
C43 C 0.03173 0.46557 0.21877 0.0
O44 O 0.09636 0.59785 0.26178 0.0
Zn45 Zn 0.0474 0.53308 0.24493 0.0
O46 O 0.99874 0.55882 0.26732 0.0
Zn47 Zn 0.94986 0.49211 0.24733 0.0
O48 O 0.90853 0.42764 0.26502 0.0
O49 O 1.0074 0.46645 0.26548 0.0
O50 O 0.9823 0.45917 0.22555 0.0
O51 O 0.08151 0.50334 0.22592 0.0
O52 O 1.00626 0.56575 0.22649 0.0
O53 O 0.90829 0.52192 0.23158 0.0
C54 C 0.9556 0.42941 0.2718 0.0
C55 C 0.95459 0.55946 0.22264 0.0
C56 C 0.55047 0.96454 0.60338 0.0
C57 C 0.41848 0.96457 0.55145 0.0
O58 O 0.50617 0.9214 0.59583 0.0
Zn59 Zn 0.48107 0.96071 0.57777 0.0
O60 O 0.56247 0.01325 0.59782 0.0
Zn61 Zn 0.52969 0.05141 0.57832 0.0
O62 O 0.50174 0.08874 0.59639 0.0
O63 O 0.44644 0.99679 0.59724 0.0
O64 O 0.45856 0.01325 0.55736 0.0
O65 O 0.4141 0.92124 0.55961 0.0
O66 O 0.55438 1.00078 0.55773 0.0
O67 O 0.59849 0.09255 0.56091 0.0
C68 C 0.45699 0.04463 0.60327 0.0
C69 C 0.59498 0.04996 0.55244 0.0
C70 C 0.42293 0.46852 0.94394 0.0
C71 C 0.56803 0.60759 0.89794 0.0
O72 O 0.4209 0.51046 0.93718 0.0
Zn73 Zn 0.49162 0.53835 0.92024 0.0
O74 O 0.46475 0.45956 0.9383 0.0
Zn75 Zn 0.54094 0.49405 0.91944 0.0
O76 O 0.60562 0.51315 0.9383 0.0
O77 O 0.56065 0.56275 0.94177 0.0
O78 O 0.57911 0.56885 0.90253 0.0
O79 O 0.52079 0.60597 0.90436 0.0
O80 O 0.46177 0.47465 0.89867 0.0
O81 O 0.51662 0.43411 0.90008 0.0
C82 C 0.60042 0.55082 0.94732 0.0
C83 C 0.47365 0.43774 0.89239 0.0
C84 C 0.95523 0.16154 0.11921 0.0
C85 C 0.97639 0.12476 0.12328 0.0
C86 C 0.96805 0.20593 0.13185 0.0
C87 C 1.00187 0.21443 0.14915 0.0
C88 C 0.02147 0.17649 0.15347 0.0
C89 C 0.00904 0.13228 0.14068 0.0
C90 C 0.01867 0.26242 0.16286 0.0
C91 C 0.99741 0.29794 0.16138 0.0
C92 C 0.01073 0.34352 0.17563 0.0
C93 C 0.96878 0.36137 0.17733 0.0
C94 C 0.97717 0.40229 0.1909 0.0
C95 C 0.02835 0.42734 0.20298 0.0
H96 H 0.09747 0.35829 0.18593 0.0
C97 C 0.0721 0.41167 0.20076 0.0
C98 C 0.06326 0.36981 0.18724 0.0
H99 H 0.11198 0.43033 0.20989 0.0
H100 H 0.93053 0.1574 0.10582 0.0
H101 H 0.95232 0.2338 0.12747 0.0
H102 H 0.04745 0.18157 0.16663 0.0
H103 H 0.02635 0.10488 0.14421 0.0
H104 H 0.04819 0.26731 0.17505 0.0
H105 H 0.96513 0.29168 0.15005 0.0
H106 H 0.92832 0.3425 0.16845 0.0
H107 H 0.94283 0.41377 0.19213 0.0
C108 C 0.892 0.06658 0.44995 0.0
C109 C 0.87755 0.01702 0.43986 0.0
C110 C 0.85166 0.06817 0.46328 0.0
C111 C 0.79552 0.02015 0.46677 0.0
C112 C 0.78069 0.97091 0.4564 0.0
C113 C 0.82109 0.96935 0.44304 0.0
C114 C 0.75272 0.01837 0.48185 0.0
C115 C 0.75399 0.06389 0.48961 0.0
C116 C 0.71175 0.06054 0.50524 0.0
C117 C 0.72761 0.1074 0.51723 0.0
C118 C 0.68966 0.10489 0.53248 0.0
C119 C 0.6352 0.05529 0.53602 0.0
H120 H 0.64021 0.97558 0.499 0.0
C121 C 0.61861 1.00915 0.52363 0.0
C122 C 0.65595 1.01183 0.50836 0.0
H123 H 0.57623 0.97066 0.52563 0.0
H124 H 0.93522 0.10412 0.44792 0.0
H125 H 0.86584 0.10665 0.4712 0.0
H126 H 0.73789 0.93318 0.45883 0.0
H127 H 0.80856 0.93047 0.43556 0.0
H128 H 0.71923 0.97707 0.48688 0.0
H129 H 0.7878 0.10536 0.48483 0.0
H130 H 0.76993 0.14578 0.51501 0.0
H131 H 0.70343 0.14125 0.54169 0.0
C132 C 0.88757 0.89527 0.8067 0.0
C133 C 0.8941 0.87219 0.78911 0.0
C134 C 0.84139 0.86244 0.81994 0.0
C135 C 0.80051 0.80588 0.81576 0.0
C136 C 0.80745 0.78282 0.79828 0.0
C137 C 0.85401 0.81539 0.78519 0.0
C138 C 0.74916 0.77019 0.82895 0.0
C139 C 0.75129 0.7768 0.84859 0.0
C140 C 0.70258 0.73651 0.86168 0.0
C141 C 0.71826 0.71996 0.87911 0.0
C142 C 0.67396 0.67889 0.89104 0.0
C143 C 0.61294 0.65494 0.88616 0.0
H144 H 0.62803 0.72638 0.84376 0.0
C145 C 0.59671 0.67347 0.86929 0.0
C146 C 0.64133 0.71358 0.85697 0.0
H147 H 0.54988 0.65533 0.86523 0.0
H148 H 0.91735 0.93903 0.81007 0.0
H149 H 0.83673 0.88195 0.83308 0.0
H150 H 0.77654 0.73943 0.79468 0.0
H151 H 0.85734 0.7964 0.77169 0.0
H152 H 0.71013 0.73454 0.82243 0.0
H153 H 0.79249 0.80866 0.85547 0.0
H154 H 0.76504 0.73728 0.88311 0.0
H155 H 0.68746 0.66529 0.90404 0.0
C156 C 1.00147 0.88603 0.13967 0.0
C157 C 0.04948 0.90723 0.12621 0.0
C158 C 0.99229 0.84363 0.1529 0.0
C159 C 0.03141 0.82206 0.15304 0.0
C160 C 0.08105 0.8454 0.14028 0.0
C161 C 0.08967 0.88706 0.12688 0.0
C162 C 0.0226 0.77547 0.16612 0.0
C163 C 0.96871 0.73503 0.1729 0.0
C164 C 0.96168 0.6863 0.18447 0.0
C165 C 0.91383 0.65891 0.19787 0.0
C166 C 0.90889 0.6152 0.20973 0.0
C167 C 0.95178 0.59828 0.2083 0.0
H168 H 0.03738 0.68397 0.17133 0.0
C169 C 0.99725 0.62338 0.19406 0.0
C170 C 1.00188 0.66638 0.18219 0.0
H171 H 0.03029 0.61044 0.19231 0.0
H172 H 0.96966 0.90071 0.13949 0.0
H173 H 0.95456 0.82786 0.1629 0.0
H174 H 0.1123 0.83005 0.14022 0.0
H175 H 0.12715 0.90258 0.11675 0.0
H176 H 0.06257 0.7733 0.16947 0.0
H177 H 0.92858 0.7373 0.16995 0.0
H178 H 0.88144 0.67259 0.19964 0.0
H179 H 0.87334 0.59654 0.22057 0.0
C180 C 0.12609 0.95695 0.44912 0.0
C181 C 0.14093 1.00724 0.43946 0.0
C182 C 0.16622 0.95423 0.46225 0.0
C183 C 0.22251 1.00182 0.46598 0.0
C184 C 0.23773 0.05179 0.45604 0.0
C185 C 0.19755 0.0545 0.44287 0.0
C186 C 0.26501 1.00234 0.48093 0.0
C187 C 0.26341 0.95615 0.48817 0.0
C188 C 0.3049 0.95808 0.50383 0.0
C189 C 0.28827 0.91024 0.51537 0.0
C190 C 0.32528 0.91143 0.53072 0.0
C191 C 0.37956 0.96065 0.53481 0.0
H192 H 0.3769 0.04344 0.49845 0.0
C193 C 0.39703 1.00779 0.52284 0.0
C194 C 0.3606 1.00644 0.50747 0.0
H195 H 0.43932 0.04605 0.52527 0.0
H196 H 0.08274 0.91972 0.44689 0.0
H197 H 0.15174 0.91522 0.46986 0.0
H198 H 0.28065 0.08921 0.45868 0.0
H199 H 0.21037 0.09391 0.43573 0.0
H200 H 0.29841 0.04319 0.48634 0.0
H201 H 0.22972 0.91514 0.48298 0.0
H202 H 0.246 0.87213 0.51274 0.0
H203 H 0.31085 0.87434 0.5396 0.0
C204 C 0.1378 0.14351 0.80712 0.0
C205 C 0.11261 0.16306 0.79308 0.0
C206 C 0.18123 0.18054 0.8204 0.0
C207 C 0.19971 0.23776 0.82001 0.0
C208 C 0.17209 0.25659 0.80669 0.0
C209 C 0.12956 0.21983 0.79321 0.0
C210 C 0.24715 0.27911 0.83327 0.0
C211 C 0.29455 0.27508 0.83962 0.0
C212 C 0.34386 0.31865 0.85197 0.0
C213 C 0.38028 0.30449 0.86315 0.0
C214 C 0.42494 0.34381 0.87566 0.0
C215 C 0.43388 0.39805 0.87719 0.0
H216 H 0.33127 0.38803 0.84364 0.0
C217 C 0.39967 0.41297 0.86524 0.0
C218 C 0.3557 0.37408 0.85268 0.0
H219 H 0.40624 0.45478 0.86582 0.0
H220 H 0.12574 0.09997 0.80736 0.0
H221 H 0.20026 0.16429 0.83086 0.0
H222 H 0.18495 0.30033 0.80625 0.0
H223 H 0.11093 0.23616 0.7826 0.0
H224 H 0.2436 0.31531 0.83713 0.0
H225 H 0.29751 0.23852 0.83573 0.0
H226 H 0.37301 0.26243 0.86265 0.0
H227 H 0.45059 0.33109 0.8847 0.0
C228 C 0.83924 0.01554 0.71347 0.0
C229 C 0.88121 0.99828 0.71006 0.0
C230 C 0.79714 1.00798 0.69892 0.0
C231 C 0.79775 0.9845 0.68064 0.0
C232 C 0.84024 0.96812 0.67722 0.0
C233 C 0.88085 0.97402 0.69188 0.0
C234 C 0.75804 0.9807 0.66429 0.0
C235 C 0.69919 0.96258 0.66658 0.0
C236 C 0.66157 0.96106 0.6498 0.0
C237 C 0.60175 0.91732 0.64802 0.0
C238 C 0.56578 0.91658 0.63239 0.0
C239 C 0.58878 0.9605 0.61867 0.0
H240 H 0.73013 0.0392 0.63699 0.0
C241 C 0.6486 1.00409 0.62051 0.0
C242 C 0.68464 1.00428 0.63581 0.0
H243 H 0.6675 0.03863 0.6102 0.0
H244 H 0.83868 0.03433 0.72737 0.0
H245 H 0.76541 0.02194 0.70173 0.0
H246 H 0.84193 0.95056 0.66316 0.0
H247 H 0.91303 0.96075 0.6888 0.0
H248 H 0.77756 0.9906 0.64964 0.0
H249 H 0.67797 0.94702 0.68079 0.0
H250 H 0.58294 0.88375 0.65872 0.0
H251 H 0.51958 0.88286 0.63142 0.0
C252 C 0.9017 0.84196 0.04102 0.0
C253 C 0.88427 0.87635 0.05076 0.0
C254 C 0.86096 0.79745 0.0293 0.0
C255 C 0.80153 0.78606 0.02711 0.0
C256 C 0.78406 0.82019 0.03698 0.0
C257 C 0.82481 0.86468 0.04874 0.0
C258 C 0.75734 0.74138 0.01388 0.0
C259 C 0.7623 0.69805 1.00705 0.0
C260 C 0.71846 0.65601 0.99299 0.0
C261 C 0.73698 0.62728 0.98037 0.0
C262 C 0.69802 0.59084 0.96594 0.0
C263 C 0.63991 0.58267 0.96392 0.0
H264 H 0.64154 0.66344 1.00175 0.0
C265 C 0.6204 0.60892 0.97727 0.0
C266 C 0.65887 0.64467 0.99173 0.0
H267 H 0.57533 0.60244 0.97638 0.0
H268 H 0.94726 0.84986 0.04218 0.0
H269 H 0.87707 0.77339 0.02162 0.0
H270 H 0.73871 0.81269 0.03549 0.0
H271 H 0.80988 0.89034 0.05599 0.0
H272 H 0.71934 0.74548 1.00937 0.0
H273 H 0.80055 0.69395 0.01117 0.0
H274 H 0.78234 0.6345 0.98123 0.0
H275 H 0.71415 0.57097 0.9559 0.0
C276 C 0.96145 0.81876 0.36508 0.0
C277 C 0.98408 0.8764 0.3628 0.0
C278 C 0.97722 0.78965 0.35188 0.0
C279 C 0.01631 0.81756 0.33607 0.0
C280 C 0.03616 0.87445 0.33313 0.0
C281 C 0.02058 0.90372 0.34642 0.0
C282 C 0.03583 0.788 0.32226 0.0
C283 C 0.04094 0.74379 0.32779 0.0
C284 C 0.05285 0.70895 0.31395 0.0
C285 C 0.02826 0.65207 0.31838 0.0
C286 C 0.03207 0.616 0.30493 0.0
C287 C 0.06221 0.6363 0.28699 0.0
H288 H 0.10671 0.7739 0.29273 0.0
C289 C 0.09071 0.69381 0.28303 0.0
C290 C 0.0858 0.72998 0.29638 0.0
H291 H 0.11349 0.71018 0.26915 0.0
H292 H 0.9328 0.79624 0.37742 0.0
H293 H 0.95869 0.74528 0.35416 0.0
H294 H 0.06535 0.89675 0.32087 0.0
H295 H 0.0387 0.9481 0.3442 0.0
H296 H 0.04575 0.80301 0.3072 0.0
H297 H 0.03164 0.72962 0.34296 0.0
H298 H 1.00318 0.63483 0.33186 0.0
H299 H 0.00929 0.57167 0.30819 0.0
C300 C 0.17764 1.00178 0.7149 0.0
C301 C 0.16706 0.04537 0.71974 0.0
C302 C 0.2243 1.01129 0.70209 0.0
C303 C 0.26133 0.06463 0.69385 0.0
C304 C 0.25312 0.10885 0.69967 0.0
C305 C 0.20621 0.09929 0.71235 0.0
C306 C 0.30736 0.07482 0.67871 0.0
C307 C 0.2982 0.03577 0.6652 0.0
C308 C 0.34019 0.04229 0.64901 0.0
C309 C 0.32342 0.99586 0.63686 0.0
C310 C 0.36091 0.99771 0.62182 0.0
C311 C 0.41651 0.04626 0.61836 0.0
H312 H 0.41012 0.12876 0.65416 0.0
C313 C 0.43307 0.09365 0.63005 0.0
C314 C 0.39535 0.09171 0.64532 0.0
H315 H 0.4757 0.13162 0.62773 0.0
H316 H 0.14873 0.95992 0.72049 0.0
H317 H 0.23079 0.97664 0.69847 0.0
H318 H 0.28153 0.15045 0.69377 0.0
H319 H 0.19978 0.134 0.71598 0.0
H320 H 0.3469 0.11613 0.67805 0.0
H321 H 0.25623 0.99607 0.66579 0.0
H322 H 0.28122 0.95735 0.63914 0.0
H323 H 0.34631 0.9605 0.61299 0.0
C324 C 0.12038 0.1761 0.0381 0.0
C325 C 0.13953 0.14616 0.04985 0.0
C326 C 0.16089 0.22 0.02615 0.0
C327 C 0.22196 0.23555 0.02576 0.0
C328 C 0.24121 0.20602 0.03769 0.0
C329 C 0.20054 0.16187 0.04961 0.0
C330 C 0.2661 0.2793 0.01221 0.0
C331 C 0.25639 0.31617 1.00217 0.0
C332 C 0.29916 0.35522 0.9872 0.0
C333 C 0.29873 0.40444 0.98236 0.0
C334 C 0.3382 0.4414 0.96812 0.0
C335 C 0.37861 0.42954 0.95842 0.0
H336 H 0.33852 0.3043 0.97952 0.0
C337 C 0.37778 0.37959 0.96294 0.0
C338 C 0.33845 0.34283 0.977 0.0
H339 H 0.40751 0.36849 0.95553 0.0
H340 H 0.07363 0.16503 0.03784 0.0
H341 H 0.14338 0.24026 0.01692 0.0
H342 H 0.28785 0.21668 0.03761 0.0
H343 H 0.21682 0.13975 0.05847 0.0
H344 H 0.3088 0.28086 0.01048 0.0
H345 H 0.21651 0.31881 1.00503 0.0
H346 H 0.26819 0.41457 0.98975 0.0
H347 H 0.33757 0.4794 0.96491 0.0
C348 C 0.99817 0.14008 0.35164 0.0
C349 C 0.04577 0.16173 0.36526 0.0
C350 C 0.98978 0.17591 0.33918 0.0
C351 C 0.02941 0.23401 0.33996 0.0
C352 C 0.07855 0.25515 0.3529 0.0
C353 C 0.08626 0.21955 0.36557 0.0
C354 C 0.02188 0.27411 0.32748 0.0
C355 C 0.96819 0.26637 0.32149 0.0
C356 C 0.96209 0.30943 0.31015 0.0
C357 C 0.91136 0.29325 0.29816 0.0
C358 C 0.90678 0.33262 0.28637 0.0
C359 C 0.95303 0.38878 0.28642 0.0
H360 H 0.04411 0.3816 0.32094 0.0
C361 C 1.00176 0.40539 0.29929 0.0
C362 C 1.00599 0.36648 0.31114 0.0
H363 H 0.03755 0.44866 0.29991 0.0
H364 H 0.96611 0.09565 0.35111 0.0
H365 H 0.95239 0.15804 0.329 0.0
H366 H 0.11015 0.29967 0.35363 0.0
H367 H 0.1234 0.23748 0.37587 0.0
H368 H 0.06272 0.31275 0.32392 0.0
H369 H 0.9274 0.22739 0.32486 0.0
H370 H 0.87621 0.24978 0.29739 0.0
H371 H 0.86873 0.31871 0.27657 0.0
loop_
_geom_bond_atom_site_label_1
_geom_bond_atom_site_label_2
_geom_bond_distance
_geom_bond_site_symmetry_2
_ccdc_geom_bond_type
O0 Cd1 2.223 1_455 S
O0 C8 1.315 . S
Cd1 O0 2.223 1_655 S
Cd1 O4 2.297 . S
Cd1 O5 2.439 . S
Cd1 O11 2.240 1_545 S
Cd2 O3 2.240 1_565 S
Cd2 O10 2.223 1_455 S
Cd2 O12 2.297 . S
Cd2 O13 2.439 . S
O3 Cd2 2.240 1_545 S
O3 C8 1.279 . S
O4 Cd1 2.297 . S
O4 C6 1.247 . S
O5 Cd1 2.439 . S
O5 C6 1.208 . S
C6 O4 1.247 . S
C6 O5 1.208 . S
C7 O12 1.247 . S
C7 O13 1.208 . S
C8 O0 1.315 . S
C8 O3 1.279 . S
C9 O10 1.315 . S
C9 O11 1.279 . S
O10 Cd2 2.223 1_655 S
O10 C9 1.315 . S
O11 Cd1 2.240 1_565 S
O11 C9 1.279 . S
O12 Cd2 2.297 . S
O12 C7 1.247 . S
O13 Cd2 2.439 . S
O13 C7 1.208 . S
O14 Cd15 2.223 1_655 S
O14 C22 1.315 . S
Cd15 O14 2.223 1_455 S
Cd15 O18 2.297 . S
Cd15 O19 2.439 . S
Cd15 O25 2.240 . S
Cd16 O17 2.240 . S
Cd16 O24 2.223 1_655 S
Cd16 O26 2.297 . S
Cd16 O27 2.439 . S
O17 Cd16 2.240 . S
O17 C22 1.279 1_565 S
O18 Cd15 2.297 . S
O18 C20 1.247 . S
O19 Cd15 2.439 . S
O19 C20 1.208 . S
C20 O18 1.247 . S
C20 O19 1.208 . S
C21 O26 1.247 . S
C21 O27 1.208 . S
C22 O14 1.315 . S
C22 O17 1.279 1_545 S
C23 O24 1.315 . S
C23 O25 1.279 1_565 S
O24 Cd16 2.223 1_455 S
O24 C23 1.315 . S
O25 Cd15 2.240 . S
O25 C23 1.279 1_545 S
O26 Cd16 2.297 . S
O26 C21 1.247 . S
O27 Cd16 2.439 . S
O27 C21 1.208 . S
O28 Cd29 2.223 . S
O28 C36 1.315 . S
Cd29 O28 2.223 . S
Cd29 O32 2.297 . S
Cd29 O33 2.439 . S
Cd29 O39 2.240 1_655 S
Cd30 O31 2.240 1_455 S
Cd30 O38 2.223 . S
Cd30 O40 2.297 . S
Cd30 O41 2.439 . S
O31 Cd30 2.240 1_655 S
O31 C36 1.279 1_545 S
O32 Cd29 2.297 . S
O32 C34 1.247 . S
O33 Cd29 2.439 . S
O33 C34 1.208 . S
C34 O32 1.247 . S
C34 O33 1.208 . S
C35 O40 1.247 . S
C35 O41 1.208 . S
C36 O28 1.315 . S
C36 O31 1.279 1_565 S
C37 O38 1.315 . S
C37 O39 1.279 1_545 S
O38 Cd30 2.223 . S
O38 C37 1.315 . S
O39 Cd29 2.240 1_455 S
O39 C37 1.279 1_565 S
O40 Cd30 2.297 . S
O40 C35 1.247 . S
O41 Cd30 2.439 . S
O41 C35 1.208 . S
C42 O44 1.252 . S
C42 O46 1.255 1_455 S
C43 O50 1.247 . S
C43 O51 1.258 1_655 S
O44 C42 1.252 . S
O44 Zn45 2.028 . S
Zn45 O44 2.028 . S
Zn45 O49 2.035 . S
Zn45 O51 2.035 . S
Zn45 O52 2.028 . S
O46 C42 1.255 1_655 S
O46 Zn47 2.035 . S
Zn47 O46 2.035 . S
Zn47 O48 2.028 . S
Zn47 O50 2.028 . S
Zn47 O53 2.035 . S
O48 Zn47 2.028 . S
O48 C54 1.247 . S
O49 Zn45 2.035 . S
O49 C54 1.258 1_455 S
O50 C43 1.247 . S
O50 Zn47 2.028 . S
O51 C43 1.258 1_455 S
O51 Zn45 2.035 . S
O52 Zn45 2.028 . S
O52 C55 1.252 . S
O53 Zn47 2.035 . S
O53 C55 1.255 1_655 S
C54 O48 1.247 . S
C54 O49 1.258 1_655 S
C55 O52 1.252 . S
C55 O53 1.255 1_455 S
C56 O58 1.247 . S
C56 O60 1.258 1_565 S
C57 O64 1.250 . S
C57 O65 1.253 1_545 S
O58 C56 1.247 . S
O58 Zn59 2.028 . S
Zn59 O58 2.028 . S
Zn59 O63 2.035 . S
Zn59 O65 2.035 . S
Zn59 O66 2.028 . S
O60 C56 1.258 1_545 S
O60 Zn61 2.035 . S
Zn61 O60 2.035 . S
Zn61 O62 2.028 . S
Zn61 O64 2.028 . S
Zn61 O67 2.035 . S
O62 Zn61 2.028 . S
O62 C68 1.250 . S
O63 Zn59 2.035 . S
O63 C68 1.253 1_565 S
O64 C57 1.250 . S
O64 Zn61 2.028 . S
O65 C57 1.253 1_565 S
O65 Zn59 2.035 . S
O66 Zn59 2.028 . S
O66 C69 1.247 . S
O67 Zn61 2.035 . S
O67 C69 1.258 1_545 S
C68 O62 1.250 . S
C68 O63 1.253 1_545 S
C69 O66 1.247 . S
C69 O67 1.258 1_565 S
C70 O72 1.247 . S
C70 O74 1.258 . S
C71 O78 1.247 . S
C71 O79 1.258 . S
O72 C70 1.247 . S
O72 Zn73 2.028 . S
Zn73 O72 2.028 . S
Zn73 O77 2.035 . S
Zn73 O79 2.035 . S
Zn73 O80 2.028 . S
O74 C70 1.258 . S
O74 Zn75 2.035 . S
Zn75 O74 2.035 . S
Zn75 O76 2.028 . S
Zn75 O78 2.028 . S
Zn75 O81 2.035 . S
O76 Zn75 2.028 . S
O76 C82 1.247 . S
O77 Zn73 2.035 . S
O77 C82 1.258 . S
O78 C71 1.247 . S
O78 Zn75 2.028 . S
O79 C71 1.258 . S
O79 Zn73 2.035 . S
O80 Zn73 2.028 . S
O80 C83 1.247 . S
O81 Zn75 2.035 . S
O81 C83 1.258 . S
C82 O76 1.247 . S
C82 O77 1.258 . S
C83 O80 1.247 . S
C83 O81 1.258 . S
C84 C85 1.386 1_655 S
C84 C86 1.383 . S
C84 H100 0.951 . S
C85 C84 1.386 1_455 S
C85 C89 1.383 . S
C86 C84 1.383 . S
C86 C87 1.402 1_655 S
C86 H101 0.951 . S
C87 C86 1.402 1_455 S
C87 C88 1.375 . S
C87 C90 1.481 . S
C88 C87 1.375 . S
C88 C89 1.367 . S
C88 H102 0.951 . S
C89 C85 1.383 . S
C89 C88 1.367 . S
C89 H103 0.950 . S
C90 C87 1.481 . S
C90 C91 1.297 1_455 S
C90 H104 0.950 . S
C91 C90 1.297 1_655 S
C91 C92 1.479 1_655 S
C91 H105 0.950 . S
C92 C91 1.479 1_455 S
C92 C93 1.375 1_455 S
C92 C98 1.404 . S
C93 C92 1.375 1_655 S
C93 C94 1.369 . S
C93 H106 0.950 . S
C94 C93 1.369 . S
C94 C95 1.392 1_655 S
C94 H107 0.951 . S
C95 C94 1.392 1_455 S
C95 C97 1.384 . S
H96 C98 0.949 . S
C97 C95 1.384 . S
C97 C98 1.385 . S
C97 H99 0.950 . S
C98 C92 1.404 . S
C98 H96 0.949 . S
C98 C97 1.385 . S
H99 C97 0.950 . S
H100 C84 0.951 . S
H101 C86 0.951 . S
H102 C88 0.951 . S
H103 C89 0.950 . S
H104 C90 0.950 . S
H105 C91 0.950 . S
H106 C93 0.950 . S
H107 C94 0.951 . S
C108 C109 1.386 . S
C108 C110 1.383 . S
C108 H124 0.951 . S
C109 C108 1.386 . S
C109 C113 1.383 1_545 S
C110 C108 1.383 . S
C110 C111 1.402 . S
C110 H125 0.951 . S
C111 C110 1.402 . S
C111 C112 1.375 1_545 S
C111 C114 1.472 . S
C112 C111 1.375 1_565 S
C112 C113 1.367 . S
C112 H126 0.951 . S
C113 C109 1.383 1_565 S
C113 C112 1.367 . S
C113 H127 0.950 . S
C114 C111 1.472 . S
C114 C115 1.310 . S
C114 H128 0.946 1_545 S
C115 C114 1.310 . S
C115 C116 1.479 . S
C115 H129 0.950 . S
C116 C115 1.479 . S
C116 C117 1.375 . S
C116 C122 1.404 1_545 S
C117 C116 1.375 . S
C117 C118 1.369 . S
C117 H130 0.950 . S
C118 C117 1.369 . S
C118 C119 1.392 . S
C118 H131 0.951 . S
C119 C118 1.392 . S
C119 C121 1.384 1_545 S
H120 C122 0.949 . S
C121 C119 1.384 1_565 S
C121 C122 1.385 . S
C121 H123 0.950 . S
C122 C116 1.404 1_565 S
C122 H120 0.949 . S
C122 C121 1.385 . S
H123 C121 0.950 . S
H124 C108 0.951 . S
H125 C110 0.951 . S
H126 C112 0.951 . S
H127 C113 0.950 . S
H128 C114 0.946 1_565 S
H129 C115 0.950 . S
H130 C117 0.950 . S
H131 C118 0.951 . S
C132 C133 1.386 . S
C132 C134 1.383 . S
C132 H148 0.951 . S
C133 C132 1.386 . S
C133 C137 1.383 . S
C134 C132 1.383 . S
C134 C135 1.402 . S
C134 H149 0.951 . S
C135 C134 1.402 . S
C135 C136 1.375 . S
C135 C138 1.481 . S
C136 C135 1.375 . S
C136 C137 1.367 . S
C136 H150 0.951 . S
C137 C133 1.383 . S
C137 C136 1.367 . S
C137 H151 0.950 . S
C138 C135 1.481 . S
C138 C139 1.297 . S
C138 H152 0.950 . S
C139 C138 1.297 . S
C139 C140 1.479 . S
C139 H153 0.950 . S
C140 C139 1.479 . S
C140 C141 1.375 . S
C140 C146 1.404 . S
C141 C140 1.375 . S
C141 C142 1.369 . S
C141 H154 0.950 . S
C142 C141 1.369 . S
C142 C143 1.392 . S
C142 H155 0.951 . S
C143 C142 1.392 . S
C143 C145 1.384 . S
H144 C146 0.949 . S
C145 C143 1.384 . S
C145 C146 1.385 . S
C145 H147 0.950 . S
C146 C140 1.404 . S
C146 H144 0.949 . S
C146 C145 1.385 . S
H147 C145 0.950 . S
H148 C132 0.951 . S
H149 C134 0.951 . S
H150 C136 0.951 . S
H151 C137 0.950 . S
H152 C138 0.950 . S
H153 C139 0.950 . S
H154 C141 0.950 . S
H155 C142 0.951 . S
C156 C157 1.386 1_655 S
C156 C158 1.383 . S
C156 H172 0.951 . S
C157 C156 1.386 1_455 S
C157 C161 1.383 . S
C158 C156 1.383 . S
C158 C159 1.402 1_655 S
C158 H173 0.951 . S
C159 C158 1.402 1_455 S
C159 C160 1.375 . S
C159 C162 1.481 . S
C160 C159 1.375 . S
C160 C161 1.367 . S
C160 H174 0.951 . S
C161 C157 1.383 . S
C161 C160 1.367 . S
C161 H175 0.950 . S
C162 C159 1.481 . S
C162 C163 1.297 1_455 S
C162 H176 0.950 . S
C163 C162 1.297 1_655 S
C163 C164 1.479 . S
C163 H177 0.950 . S
C164 C163 1.479 . S
C164 C165 1.375 . S
C164 C170 1.404 1_655 S
C165 C164 1.375 . S
C165 C166 1.369 . S
C165 H178 0.950 . S
C166 C165 1.369 . S
C166 C167 1.392 . S
C166 H179 0.951 . S
C167 C166 1.392 . S
C167 C169 1.384 1_655 S
H168 C170 0.949 . S
C169 C167 1.384 1_455 S
C169 C170 1.385 . S
C169 H171 0.950 . S
C170 C164 1.404 1_455 S
C170 H168 0.949 . S
C170 C169 1.385 . S
H171 C169 0.950 . S
H172 C156 0.951 . S
H173 C158 0.951 . S
H174 C160 0.951 . S
H175 C161 0.950 . S
H176 C162 0.950 . S
H177 C163 0.950 . S
H178 C165 0.950 . S
H179 C166 0.951 . S
C180 C181 1.386 . S
C180 C182 1.383 . S
C180 H196 0.951 . S
C181 C180 1.386 . S
C181 C185 1.383 1_565 S
C182 C180 1.383 . S
C182 C183 1.402 1_565 S
C182 H197 0.951 . S
C183 C182 1.402 1_545 S
C183 C184 1.375 . S
C183 C186 1.481 . S
C184 C183 1.375 . S
C184 C185 1.367 . S
C184 H198 0.951 . S
C185 C181 1.383 1_545 S
C185 C184 1.367 . S
C185 H199 0.950 . S
C186 C183 1.481 . S
C186 C187 1.297 1_545 S
C186 H200 0.950 . S
C187 C186 1.297 1_565 S
C187 C188 1.479 . S
C187 H201 0.950 . S
C188 C187 1.479 . S
C188 C189 1.375 . S
C188 C194 1.404 1_565 S
C189 C188 1.375 . S
C189 C190 1.369 . S
C189 H202 0.950 . S
C190 C189 1.369 . S
C190 C191 1.392 . S
C190 H203 0.951 . S
C191 C190 1.392 . S
C191 C193 1.384 1_565 S
H192 C194 0.949 . S
C193 C191 1.384 1_545 S
C193 C194 1.385 . S
C193 H195 0.950 . S
C194 C188 1.404 1_545 S
C194 H192 0.949 . S
C194 C193 1.385 . S
H195 C193 0.950 . S
H196 C180 0.951 . S
H197 C182 0.951 . S
H198 C184 0.951 . S
H199 C185 0.950 . S
H200 C186 0.950 . S
H201 C187 0.950 . S
H202 C189 0.950 . S
H203 C190 0.951 . S
C204 C205 1.386 . S
C204 C206 1.383 . S
C204 H220 0.951 . S
C205 C204 1.386 . S
C205 C209 1.383 . S
C206 C204 1.383 . S
C206 C207 1.402 . S
C206 H221 0.951 . S
C207 C206 1.402 . S
C207 C208 1.375 . S
C207 C210 1.481 . S
C208 C207 1.375 . S
C208 C209 1.367 . S
C208 H222 0.951 . S
C209 C205 1.383 . S
C209 C208 1.367 . S
C209 H223 0.950 . S
C210 C207 1.481 . S
C210 C211 1.297 . S
C210 H224 0.950 . S
C211 C210 1.297 . S
C211 C212 1.479 . S
C211 H225 0.950 . S
C212 C211 1.479 . S
C212 C213 1.375 . S
C212 C218 1.404 . S
C213 C212 1.375 . S
C213 C214 1.369 . S
C213 H226 0.950 . S
C214 C213 1.369 . S
C214 C215 1.392 . S
C214 H227 0.951 . S
C215 C214 1.392 . S
C215 C217 1.384 . S
H216 C218 0.949 . S
C217 C215 1.384 . S
C217 C218 1.385 . S
C217 H219 0.950 . S
C218 C212 1.404 . S
C218 H216 0.949 . S
C218 C217 1.385 . S
H219 C217 0.950 . S
H220 C204 0.951 . S
H221 C206 0.951 . S
H222 C208 0.951 . S
H223 C209 0.950 . S
H224 C210 0.950 . S
H225 C211 0.950 . S
H226 C213 0.950 . S
H227 C214 0.951 . S
C228 C229 1.386 . S
C228 C230 1.383 1_565 S
C228 H244 0.951 . S
C229 C228 1.386 . S
C229 C233 1.383 1_565 S
C230 C228 1.383 1_545 S
C230 C231 1.402 . S
C230 H245 0.951 . S
C231 C230 1.402 . S
C231 C232 1.375 . S
C231 C234 1.481 . S
C232 C231 1.375 . S
C232 C233 1.371 . S
C232 H246 0.951 . S
C233 C229 1.383 1_545 S
C233 C232 1.371 . S
C233 H247 0.944 . S
C234 C231 1.481 . S
C234 C235 1.297 . S
C234 H248 0.950 . S
C235 C234 1.297 . S
C235 C236 1.479 . S
C235 H249 0.950 . S
C236 C235 1.479 . S
C236 C237 1.375 . S
C236 C242 1.404 . S
C237 C236 1.375 . S
C237 C238 1.369 . S
C237 H250 0.950 . S
C238 C237 1.369 . S
C238 C239 1.392 . S
C238 H251 0.943 . S
C239 C238 1.392 . S
C239 C241 1.384 . S
H240 C242 0.949 . S
C241 C239 1.384 . S
C241 C242 1.385 . S
C241 H243 0.950 . S
C242 C236 1.404 . S
C242 H240 0.949 . S
C242 C241 1.385 . S
H243 C241 0.950 . S
H244 C228 0.951 . S
H245 C230 0.951 . S
H246 C232 0.951 . S
H247 C233 0.944 . S
H248 C234 0.950 . S
H249 C235 0.950 . S
H250 C237 0.950 . S
H251 C238 0.943 . S
C252 C253 1.386 . S
C252 C254 1.383 . S
C252 H268 0.951 . S
C253 C252 1.386 . S
C253 C257 1.383 . S
C254 C252 1.383 . S
C254 C255 1.402 . S
C254 H269 0.951 1_554 S
C255 C254 1.402 . S
C255 C256 1.375 . S
C255 C258 1.507 . S
C256 C255 1.375 . S
C256 C257 1.367 . S
C256 H270 0.951 . S
C257 C253 1.383 . S
C257 C256 1.367 . S
C257 H271 0.950 . S
C258 C255 1.507 . S
C258 C259 1.254 1_554 S
C258 H272 0.970 . S
C259 C258 1.254 1_556 S
C259 C260 1.479 . S
C259 H273 0.950 . S
C260 C259 1.479 . S
C260 C261 1.375 . S
C260 C266 1.404 . S
C261 C260 1.375 . S
C261 C262 1.369 . S
C261 H274 0.950 . S
C262 C261 1.369 . S
C262 C263 1.392 . S
C262 H275 0.951 . S
C263 C262 1.392 . S
C263 C265 1.384 . S
H264 C266 0.949 . S
C265 C263 1.384 . S
C265 C266 1.385 . S
C265 H267 0.950 . S
C266 C260 1.404 . S
C266 H264 0.949 . S
C266 C265 1.385 . S
H267 C265 0.950 . S
H268 C252 0.951 . S
H269 C254 0.951 1_556 S
H270 C256 0.951 . S
H271 C257 0.950 . S
H272 C258 0.970 . S
H273 C259 0.950 . S
H274 C261 0.950 . S
H275 C262 0.951 . S
C276 C277 1.386 1_655 S
C276 C278 1.383 . S
C276 H292 0.951 . S
C277 C276 1.386 1_455 S
C277 C281 1.383 . S
C278 C276 1.383 . S
C278 C279 1.402 1_655 S
C278 H293 0.951 . S
C279 C278 1.402 1_455 S
C279 C280 1.375 . S
C279 C282 1.481 . S
C280 C279 1.375 . S
C280 C281 1.367 . S
C280 H294 0.951 . S
C281 C277 1.383 . S
C281 C280 1.367 . S
C281 H295 0.950 . S
C282 C279 1.481 . S
C282 C283 1.297 1_455 S
C282 H296 0.950 . S
C283 C282 1.297 1_655 S
C283 C284 1.479 . S
C283 H297 0.950 . S
C284 C283 1.479 . S
C284 C285 1.375 . S
C284 C290 1.404 1_655 S
C285 C284 1.375 . S
C285 C286 1.369 . S
C285 H298 0.950 . S
C286 C285 1.369 . S
C286 C287 1.392 . S
C286 H299 0.951 . S
C287 C286 1.392 . S
C287 C289 1.384 1_655 S
H288 C290 0.949 . S
C289 C287 1.384 1_455 S
C289 C290 1.385 . S
C289 H291 0.950 . S
C290 C284 1.404 1_455 S
C290 H288 0.949 . S
C290 C289 1.385 . S
H291 C289 0.950 . S
H292 C276 0.951 . S
H293 C278 0.951 . S
H294 C280 0.951 . S
H295 C281 0.950 . S
H296 C282 0.950 . S
H297 C283 0.950 . S
H298 C285 0.950 . S
H299 C286 0.951 . S
C300 C301 1.386 1_565 S
C300 C302 1.383 . S
C300 H316 0.951 . S
C301 C300 1.386 1_545 S
C301 C305 1.383 . S
C302 C300 1.383 . S
C302 C303 1.402 1_565 S
C302 H317 0.951 . S
C303 C302 1.402 1_545 S
C303 C304 1.375 . S
C303 C306 1.481 . S
C304 C303 1.375 . S
C304 C305 1.367 . S
C304 H318 0.951 . S
C305 C301 1.383 . S
C305 C304 1.367 . S
C305 H319 0.950 . S
C306 C303 1.481 . S
C306 C307 1.285 1_545 S
C306 H320 0.950 . S
C307 C306 1.285 1_565 S
C307 C308 1.485 1_565 S
C307 H321 0.958 . S
C308 C307 1.485 1_545 S
C308 C309 1.375 1_545 S
C308 C314 1.404 . S
C309 C308 1.375 1_565 S
C309 C310 1.369 . S
C309 H322 0.950 . S
C310 C309 1.369 . S
C310 C311 1.392 1_565 S
C310 H323 0.951 . S
C311 C310 1.392 1_545 S
C311 C313 1.384 . S
H312 C314 0.949 . S
C313 C311 1.384 . S
C313 C314 1.385 . S
C313 H315 0.950 . S
C314 C308 1.404 . S
C314 H312 0.949 . S
C314 C313 1.385 . S
H315 C313 0.950 . S
H316 C300 0.951 . S
H317 C302 0.951 . S
H318 C304 0.951 . S
H319 C305 0.950 . S
H320 C306 0.950 . S
H321 C307 0.958 . S
H322 C309 0.950 . S
H323 C310 0.951 . S
C324 C325 1.386 . S
C324 C326 1.383 . S
C324 H340 0.951 . S
C325 C324 1.386 . S
C325 C329 1.383 . S
C326 C324 1.383 . S
C326 C327 1.402 . S
C326 H341 0.951 . S
C327 C326 1.402 . S
C327 C328 1.375 . S
C327 C330 1.481 1_554 S
C328 C327 1.375 . S
C328 C329 1.367 . S
C328 H342 0.951 1_554 S
C329 C325 1.383 . S
C329 C328 1.367 . S
C329 H343 0.950 . S
C330 C327 1.481 1_556 S
C330 C331 1.297 . S
C330 H344 0.950 . S
C331 C330 1.297 . S
C331 C332 1.479 . S
C331 H345 0.950 1_556 S
C332 C331 1.479 . S
C332 C333 1.375 . S
C332 C338 1.404 . S
C333 C332 1.375 . S
C333 C334 1.369 . S
C333 H346 0.950 . S
C334 C333 1.369 . S
C334 C335 1.392 . S
C334 H347 0.951 . S
C335 C334 1.392 . S
C335 C337 1.384 . S
H336 C338 0.949 . S
C337 C335 1.384 . S
C337 C338 1.385 . S
C337 H339 0.950 . S
C338 C332 1.404 . S
C338 H336 0.949 . S
C338 C337 1.385 . S
H339 C337 0.950 . S
H340 C324 0.951 . S
H341 C326 0.951 . S
H342 C328 0.951 1_556 S
H343 C329 0.950 . S
H344 C330 0.950 . S
H345 C331 0.950 1_554 S
H346 C333 0.950 . S
H347 C334 0.951 . S
C348 C349 1.386 . S
C348 C350 1.383 . S
C348 H364 0.951 . S
C349 C348 1.386 . S
C349 C353 1.383 1_655 S
C350 C348 1.383 . S
C350 C351 1.402 1_655 S
C350 H365 0.951 . S
C351 C350 1.402 1_455 S
C351 C352 1.375 . S
C351 C354 1.481 . S
C352 C351 1.375 . S
C352 C353 1.367 . S
C352 H366 0.951 . S
C353 C349 1.383 1_455 S
C353 C352 1.367 . S
C353 H367 0.950 . S
C354 C351 1.481 . S
C354 C355 1.297 1_455 S
C354 H368 0.950 . S
C355 C354 1.297 1_655 S
C355 C356 1.479 . S
C355 H369 0.950 . S
C356 C355 1.479 . S
C356 C357 1.375 . S
C356 C362 1.404 1_655 S
C357 C356 1.375 . S
C357 C358 1.369 . S
C357 H370 0.950 . S
C358 C357 1.369 . S
C358 C359 1.392 . S
C358 H371 0.951 . S
C359 C358 1.392 . S
C359 C361 1.384 1_655 S
H360 C362 0.949 . S
C361 C359 1.384 1_455 S
C361 C362 1.385 . S
C361 H363 0.950 . S
C362 C356 1.404 1_455 S
C362 H360 0.949 . S
C362 C361 1.385 . S
H363 C361 0.950 . S
H364 C348 0.951 . S
H365 C350 0.951 . S
H366 C352 0.951 . S
H367 C353 0.950 . S
H368 C354 0.950 . S
H369 C355 0.950 . S
H370 C357 0.950 . S
H371 C358 0.951 . S
C95 C43 1.462 1_455 S
C85 C6 1.461 1_455 S
C109 C22 1.527 . S
C119 C69 1.543 1_545 S
C133 C34 1.259 . S
C143 C71 1.262 . S
C157 C7 1.431 . S
C167 C55 1.449 1_655 S
C191 C57 1.540 1_565 S
C181 C23 1.533 . S
C205 C35 1.235 . S
C215 C83 1.243 . S
C239 C56 1.546 1_545 S
C229 C36 1.552 . S
C253 C9 1.733 . S
C263 C82 1.765 . S
C287 C42 1.456 1_655 S
C277 C21 1.458 1_455 S
C311 C68 1.555 . S
C301 C37 1.523 . S
C335 C70 1.762 . S
C325 C8 1.756 . S
C349 C20 1.422 1_655 S
C359 C54 1.443 . S
