# Generated by pormake.
# Topology pth, (4,4)-cn, num edge types: 1
# Building blocks:
#     Node 0, Type 0, BuildingBlock: AZAVOO_clean_sbu_0, # of connection points: 4
#     Node 1, Type 0, BuildingBlock: AZAVOO_clean_sbu_0, # of connection points: 4
#     Node 2, Type 0, BuildingBlock: AZAVOO_clean_sbu_0, # of connection points: 4
#     Node 3, Type 1, BuildingBlock: KOZSID_clean_sbu_0, # of connection points: 4
#     Node 4, Type 1, BuildingBlock: KOZSID_clean_sbu_0, # of connection points: 4
#     Node 5, Type 1, BuildingBlock: KOZSID_clean_sbu_0, # of connection points: 4
#     Edge 6, Type (0, 1), BuildingBlock: CIFDUS_clean_linker_0, # of connection points: 2
#     Edge 7, Type (0, 1), BuildingBlock: CIFDUS_clean_linker_0, # of connection points: 2
#     Edge 8, Type (0, 1), BuildingBlock: CIFDUS_clean_linker_0, # of connection points: 2
#     Edge 9, Type (0, 1), BuildingBlock: CIFDUS_clean_linker_0, # of connection points: 2
#     Edge 10, Type (0, 1), BuildingBlock: CIFDUS_clean_linker_0, # of connection points: 2
#     Edge 11, Type (0, 1), BuildingBlock: CIFDUS_clean_linker_0, # of connection points: 2
#     Edge 12, Type (0, 1), BuildingBlock: CIFDUS_clean_linker_0, # of connection points: 2
#     Edge 13, Type (0, 1), BuildingBlock: CIFDUS_clean_linker_0, # of connection points: 2
#     Edge 14, Type (0, 1), BuildingBlock: CIFDUS_clean_linker_0, # of connection points: 2
#     Edge 15, Type (0, 1), BuildingBlock: CIFDUS_clean_linker_0, # of connection points: 2
#     Edge 16, Type (0, 1), BuildingBlock: CIFDUS_clean_linker_0, # of connection points: 2
#     Edge 17, Type (0, 1), BuildingBlock: CIFDUS_clean_linker_0, # of connection points: 2
# Relax obj value: 0.066
# Max RMSD: 0.218
# Mean RMSD: 0.106
data_MOF--net-pth--node1-AZAVOO_clean_sbu_0--node2-KOZSID_clean_sbu_0--edge1-CIFDUS_clean_linker_0
_symmetry_space_group_name_H-M    P1
_symmetry_Int_Tables_number       1
_symmetry_cell_setting            triclinic
loop_
_symmetry_equiv_pos_as_xyz
'x, y, z'
_cell_length_a     23.459436
_cell_length_b     23.990345
_cell_length_c     52.912153
_cell_angle_alpha  87.850601
_cell_angle_beta   89.976305
_cell_angle_gamma 122.30449
loop_
_atom_site_label
_atom_site_type_symbol
_atom_site_fract_x
_atom_site_fract_y
_atom_site_fract_z
_atom_type_partial_charge
Mg0 Mg 0.13568 0.09197 0.03612 0.0
O1 O 0.0556 0.03598 0.00676 0.0
O2 O 0.0378 0.10578 0.98461 0.0
Mg3 Mg 0.10994 0.20907 -0.00078 0.0
C4 C 0.02514 0.04769 0.98947 0.0
C5 C 0.09328 0.9778 0.07834 0.0
O6 O 0.09859 0.02263 0.09337 0.0
O7 O 0.0628 0.10324 0.06112 0.0
O8 O 0.05662 0.17983 0.03797 0.0
O9 O 0.21917 0.11855 0.00744 0.0
O10 O 0.17779 0.18021 0.01488 0.0
C11 C 0.04248 0.143 0.05802 0.0
C12 C 0.21999 0.17234 0.00272 0.0
O13 O 0.10554 0.99207 0.05477 0.0
Mg14 Mg 0.00196 0.05851 0.35389 0.0
O15 O 0.08121 0.06495 0.381 0.0
O16 O 0.10004 0.13846 0.40968 0.0
Mg17 Mg 0.02599 0.17201 0.40345 0.0
C18 C 0.11237 0.09776 0.40016 0.0
C19 C 0.98819 0.97081 0.31003 0.0
O20 O 0.93037 0.96732 0.30934 0.0
O21 O 0.07491 0.16113 0.33572 0.0
O22 O 0.07724 0.22571 0.36571 0.0
O23 O 0.91555 0.97731 0.3777 0.0
O24 O 0.96013 0.08377 0.38222 0.0
C25 C 0.09232 0.21791 0.34346 0.0
C26 C 0.91638 0.02404 0.38951 0.0
O27 O 0.03113 0.00691 0.32611 0.0
Mg28 Mg 0.07225 0.02513 0.68221 0.0
O29 O 0.14218 0.09843 0.71085 0.0
O30 O 0.0828 0.10909 0.74094 0.0
Mg31 Mg 0.97117 0.03622 0.73239 0.0
C32 C 0.13914 0.12425 0.73098 0.0
C33 C 0.21524 0.06775 0.66559 0.0
O34 O 0.21068 0.0465 0.6892 0.0
O35 O 0.04545 0.09696 0.66559 0.0
O36 O 0.97679 0.09421 0.69572 0.0
O37 O 0.06445 0.9399 0.70434 0.0
O38 O 0.99644 0.97617 0.70988 0.0
C39 C 0.00476 0.1127 0.67368 0.0
C40 C 0.01408 0.93548 0.71642 0.0
O41 O 0.164 0.06423 0.65576 0.0
C42 C 0.09848 0.66003 0.15452 0.0
C43 C 0.15381 0.70341 0.13905 0.0
C44 C 0.20561 0.69677 0.1465 0.0
C45 C 0.17913 0.64996 0.16599 0.0
N46 N 0.11326 0.62547 0.17113 0.0
Co47 Co 0.05534 0.55697 0.19803 0.0
N48 N 0.1348 0.5575 0.21231 0.0
C49 C 0.20008 0.5978 0.20477 0.0
C50 C 0.24347 0.58633 0.21784 0.0
C51 C 0.20346 0.53508 0.23454 0.0
C52 C 0.13761 0.51822 0.23068 0.0
N53 N 0.99664 0.48503 0.22378 0.0
C54 C 0.01192 0.44997 0.23998 0.0
C55 C 0.95502 0.40019 0.25316 0.0
C56 C 0.90163 0.40274 0.24448 0.0
C57 C 0.92883 0.45371 0.22658 0.0
N58 N 0.97698 0.56041 0.18489 0.0
C59 C 0.91246 0.52447 0.19376 0.0
C60 C 0.87146 0.54272 0.18286 0.0
C61 C 0.91273 0.59474 0.16655 0.0
C62 C 0.97655 0.60492 0.16844 0.0
N63 N 0.03812 0.48685 0.17463 0.0
C64 C 0.01054 0.38065 0.14486 0.0
C65 C 0.95925 0.38991 0.15213 0.0
C66 C 0.97389 0.44256 0.16699 0.0
C67 C 0.07618 0.42592 0.15227 0.0
C68 C 0.08896 0.47885 0.16676 0.0
N69 N 0.0713 0.6265 0.22135 0.0
C70 C 0.02366 0.66725 0.25022 0.0
C71 C 0.07968 0.73131 0.24679 0.0
C72 C 0.13426 0.74129 0.23215 0.0
C73 C 0.12916 0.68822 0.21971 0.0
C74 C 0.02078 0.61597 0.23765 0.0
H75 H 0.17148 0.69858 0.20816 0.0
H76 H 0.97582 0.56873 0.24072 0.0
H77 H 0.93195 0.44571 0.17216 0.0
H78 H 0.14034 0.5125 0.17138 0.0
C79 C 0.21727 0.63743 0.18267 0.0
C80 C 0.03567 0.65876 0.15488 0.0
C81 C 0.07894 0.46066 0.24296 0.0
C82 C 0.89255 0.47466 0.2126 0.0
H83 H 0.15769 0.73878 0.12477 0.0
H84 H 0.25752 0.72593 0.13972 0.0
H85 H 0.29721 0.60959 0.21452 0.0
H86 H 0.22074 0.51096 0.24719 0.0
H87 H 0.95233 0.3651 0.26735 0.0
H88 H 0.84918 0.37084 0.25035 0.0
H89 H 0.81832 0.52177 0.18675 0.0
H90 H 0.89804 0.6229 0.15492 0.0
H91 H 0.90772 0.35611 0.14662 0.0
H92 H 0.11771 0.42129 0.14647 0.0
H93 H 0.98119 0.65691 0.26213 0.0
H94 H 0.17928 0.79011 0.22942 0.0
C95 C 0.48707 0.06812 0.56565 0.0
C96 C 0.43858 0.01403 0.58041 0.0
C97 C 0.43561 0.95997 0.57157 0.0
C98 C 0.48218 0.98394 0.55205 0.0
N99 N 0.5155 0.05018 0.54809 0.0
Co100 Co 0.58676 0.10512 0.52153 0.0
N101 N 0.57645 0.02448 0.50663 0.0
C102 C 0.53041 0.96081 0.51366 0.0
C103 C 0.53844 0.91622 0.50137 0.0
C104 C 0.59359 0.95341 0.48589 0.0
C105 C 0.61585 0.01915 0.48937 0.0
N106 N 0.6602 0.16003 0.49568 0.0
C107 C 0.69143 0.14185 0.47939 0.0
C108 C 0.74255 0.19587 0.46545 0.0
C109 C 0.74564 0.25037 0.474 0.0
C110 C 0.69617 0.22662 0.49248 0.0
N111 N 0.59487 0.18549 0.53574 0.0
C112 C 0.63661 0.24899 0.52735 0.0
C113 C 0.6269 0.29279 0.53956 0.0
C114 C 0.57484 0.25489 0.55642 0.0
C115 C 0.55599 0.19004 0.55349 0.0
N116 N 0.65654 0.11147 0.54461 0.0
C117 C 0.76229 0.12085 0.57312 0.0
C118 C 0.7638 0.17746 0.56491 0.0
C119 C 0.71102 0.17173 0.55061 0.0
C120 C 0.70607 0.05943 0.56771 0.0
C121 C 0.65362 0.05585 0.55387 0.0
N122 N 0.51714 0.09957 0.49846 0.0
C123 C 0.47917 0.15637 0.47149 0.0
C124 C 0.41323 0.10183 0.47284 0.0
C125 C 0.40078 0.04423 0.48561 0.0
C126 C 0.45327 0.04416 0.49824 0.0
C127 C 0.52999 0.1539 0.48403 0.0
H128 H 0.44054 0.99951 0.50835 0.0
H129 H 0.57878 0.19754 0.48238 0.0
H130 H 0.71619 0.21685 0.54425 0.0
H131 H 0.61172 0.00757 0.55057 0.0
C132 C 0.4895 0.94497 0.53517 0.0
C133 C 0.49971 0.13426 0.56745 0.0
C134 C 0.67761 0.075 0.47772 0.0
C135 C 0.68314 0.26548 0.50752 0.0
H136 H 0.4065 0.0131 0.59532 0.0
H137 H 0.4012 0.90894 0.57778 0.0
H138 H 0.5108 0.86319 0.50475 0.0
H139 H 0.61633 0.93355 0.47455 0.0
H140 H 0.77556 0.19601 0.45112 0.0
H141 H 0.78093 0.30134 0.46795 0.0
H142 H 0.65347 0.34577 0.53622 0.0
H143 H 0.55243 0.27265 0.56914 0.0
H144 H 0.80648 0.22601 0.56885 0.0
H145 H 0.70253 0.01427 0.57421 0.0
H146 H 0.49131 0.20146 0.46119 0.0
H147 H 0.35032 1.00049 0.48681 0.0
C148 C 0.7432 0.61803 0.82531 0.0
C149 C 0.7946 0.60885 0.81816 0.0
C150 C 0.78191 0.55222 0.83035 0.0
C151 C 0.72436 0.53035 0.84449 0.0
N152 N 0.69898 0.5693 0.84192 0.0
Co153 Co 0.6189 0.55799 0.86077 0.0
N154 N 0.60793 0.4814 0.88173 0.0
C155 C 0.6494 0.4584 0.88182 0.0
C156 C 0.63014 0.4064 0.89874 0.0
C157 C 0.57205 0.39461 0.90984 0.0
C158 C 0.55881 0.43978 0.89868 0.0
N159 N 0.53654 0.54422 0.8787 0.0
C160 C 0.49091 0.49315 0.89425 0.0
C161 C 0.43564 0.49777 0.89964 0.0
C162 C 0.44669 0.55355 0.88714 0.0
C163 C 0.50731 0.57933 0.87459 0.0
N164 N 0.63221 0.63693 0.84072 0.0
C165 C 0.59447 0.66399 0.84241 0.0
C166 C 0.61645 0.71873 0.82671 0.0
C167 C 0.67271 0.72837 0.81474 0.0
C168 C 0.68222 0.67903 0.82405 0.0
N169 N 0.55813 0.4972 0.83498 0.0
C170 C 0.44932 0.39919 0.80818 0.0
C171 C 0.45993 0.46184 0.80962 0.0
C172 C 0.51467 0.50996 0.82265 0.0
C173 C 0.49772 0.38805 0.81816 0.0
C174 C 0.55191 0.43783 0.83137 0.0
N175 N 0.67879 0.61897 0.88669 0.0
C176 C 0.7096 0.71071 0.91309 0.0
C177 C 0.77063 0.71678 0.91895 0.0
C178 C 0.78341 0.67083 0.90938 0.0
C179 C 0.73703 0.62251 0.89348 0.0
C180 C 0.66482 0.66188 0.89718 0.0
H181 H 0.75005 0.5895 0.8865 0.0
H182 H 0.61977 0.66078 0.8933 0.0
H183 H 0.51871 0.55611 0.8233 0.0
H184 H 0.58662 0.42645 0.83933 0.0
C185 C 0.70071 0.48107 0.86361 0.0
C186 C 0.74067 0.67564 0.81713 0.0
C187 C 0.4966 0.438 0.90335 0.0
C188 C 0.53671 0.63478 0.85799 0.0
H189 H 0.83871 0.64091 0.80633 0.0
H190 H 0.81349 0.53192 0.83025 0.0
H191 H 0.65379 0.37848 0.90181 0.0
H192 H 0.5416 0.35554 0.92386 0.0
H193 H 0.39087 0.46355 0.91083 0.0
H194 H 0.41336 0.57187 0.88656 0.0
H195 H 0.59419 0.74807 0.82424 0.0
H196 H 0.70356 0.76775 0.80089 0.0
H197 H 0.42481 0.47316 0.80133 0.0
H198 H 0.49203 0.34037 0.81688 0.0
H199 H 0.69641 0.74387 0.92061 0.0
H200 H 0.82991 0.67327 0.91346 0.0
H201 H 0.96386 0.19394 0.05695 0.0
H202 H 0.06594 0.13342 0.10813 0.0
H203 H 0.05991 0.19886 0.14111 0.0
H204 H 0.04417 0.28904 0.15243 0.0
H205 H 0.94415 0.3505 0.10063 0.0
H206 H 0.93125 0.26945 0.07079 0.0
C207 C 0.98288 0.19342 0.0756 0.0
C208 C 0.01633 0.15988 0.07994 0.0
C209 C 0.98137 0.23292 0.09411 0.0
C210 C 0.03993 0.15882 0.10426 0.0
C211 C 0.03749 0.19715 0.12302 0.0
C212 C 0.01892 0.28394 0.13471 0.0
C213 C 0.99621 0.32625 0.12844 0.0
C214 C 0.01158 0.2371 0.11766 0.0
C215 C 0.96233 0.31859 0.10572 0.0
C216 C 0.95498 0.27234 0.08867 0.0
H217 H 0.93117 0.0805 0.43426 0.0
H218 H 0.78215 0.94235 0.38401 0.0
H219 H 0.69368 0.94646 0.40676 0.0
H220 H 0.66232 1.00105 0.43738 0.0
H221 H 0.80801 0.12848 0.49102 0.0
H222 H 0.8954 0.11925 0.46991 0.0
C223 C 0.87896 0.04992 0.42883 0.0
C224 C 0.86281 0.01132 0.40757 0.0
C225 C 0.82853 0.05229 0.44208 0.0
C226 C 0.79529 0.97172 0.40057 0.0
C227 C 0.74498 0.97486 0.41332 0.0
C228 C 0.71268 0.02506 0.44491 0.0
C229 C 0.72883 0.06512 0.46574 0.0
C230 C 0.76149 0.01668 0.43355 0.0
C231 C 0.79473 0.09761 0.4749 0.0
C232 C 0.84444 0.09202 0.46296 0.0
H233 H 0.97362 0.94189 0.76359 0.0
H234 H 0.9583 0.80619 0.70889 0.0
H235 H 0.86996 0.71301 0.73483 0.0
H236 H 0.7909 0.67166 0.77137 0.0
H237 H 0.81738 0.80457 0.8293 0.0
H238 H 0.90651 0.89804 0.80359 0.0
C239 C 0.95172 0.8917 0.75773 0.0
C240 C 0.97185 0.88038 0.7345 0.0
C241 C 0.90228 0.8384 0.77303 0.0
C242 C 0.94371 0.81554 0.72691 0.0
C243 C 0.89285 0.76248 0.74157 0.0
C244 C 0.81732 0.7209 0.77858 0.0
C245 C 0.79772 0.73146 0.80209 0.0
C246 C 0.87084 0.7735 0.76441 0.0
C247 C 0.83151 0.79557 0.81112 0.0
C248 C 0.88255 0.84881 0.79652 0.0
H249 H 0.07185 0.93381 0.1278 0.0
H250 H 0.07384 0.87326 0.05213 0.0
H251 H 0.04977 0.76664 0.06906 0.0
H252 H 0.03496 0.69277 0.10554 0.0
H253 H 0.0372 0.75435 0.18109 0.0
H254 H 0.0515 0.85782 0.16415 0.0
C255 C 0.06662 0.89719 0.11499 0.0
C256 C 0.07522 0.91189 0.08873 0.0
C257 C 0.05329 0.83601 0.12486 0.0
C258 C 0.06799 0.8636 0.07243 0.0
C259 C 0.0541 0.80248 0.08208 0.0
C260 C 0.03772 0.72873 0.11814 0.0
C261 C 0.03532 0.71676 0.14439 0.0
C262 C 0.04757 0.78848 0.10826 0.0
C263 C 0.03887 0.76307 0.16078 0.0
C264 C 0.04746 0.82218 0.1511 0.0
H265 H 0.20413 0.17297 0.43501 0.0
H266 H 0.1372 1.00057 0.39154 0.0
H267 H 0.22226 0.98459 0.41093 0.0
H268 H 0.31748 0.02086 0.43992 0.0
H269 H 0.38596 0.19558 0.48189 0.0
H270 H 0.29837 0.20914 0.46354 0.0
C271 C 0.20789 0.13174 0.42979 0.0
C272 C 0.16416 0.08808 0.41184 0.0
C273 C 0.2573 0.12321 0.44079 0.0
C274 C 0.17028 0.03517 0.40523 0.0
C275 C 0.21885 0.02585 0.41636 0.0
C276 C 0.31268 0.06151 0.4451 0.0
C277 C 0.35799 0.10725 0.46214 0.0
C278 C 0.26279 0.06966 0.43412 0.0
C279 C 0.35188 0.16012 0.46862 0.0
C280 C 0.30181 0.16784 0.45818 0.0
H281 H 0.15559 0.19725 0.77178 0.0
H282 H 0.26732 0.15936 0.7176 0.0
H283 H 0.37263 0.23761 0.73754 0.0
H284 H 0.43417 0.31975 0.76986 0.0
H285 H 0.32244 0.36024 0.82278 0.0
H286 H 0.21638 0.27798 0.80405 0.0
C287 C 0.20288 0.20594 0.76433 0.0
C288 C 0.20314 0.17226 0.74319 0.0
C289 C 0.26357 0.25156 0.77574 0.0
C290 C 0.26523 0.18448 0.73382 0.0
C291 C 0.32572 0.22927 0.74524 0.0
C292 C 0.38642 0.30986 0.77736 0.0
C293 C 0.38583 0.34578 0.79759 0.0
C294 C 0.32561 0.26333 0.76616 0.0
C295 C 0.32388 0.33324 0.80708 0.0
C296 C 0.26331 0.28631 0.79639 0.0
H297 H 0.98475 0.0879 0.62418 0.0
H298 H 0.95694 0.19223 0.68266 0.0
H299 H 0.88424 0.21074 0.65507 0.0
H300 H 0.81628 0.18348 0.61656 0.0
H301 H 0.83505 0.068 0.56054 0.0
H302 H 0.92333 0.06722 0.58485 0.0
C303 C 0.96453 0.11651 0.6306 0.0
C304 C 0.97652 0.13908 0.65534 0.0
C305 C 0.91979 0.12347 0.61524 0.0
C306 C 0.94867 0.17473 0.66362 0.0
C307 C 0.90662 0.18473 0.64794 0.0
C308 C 0.84058 0.15905 0.60961 0.0
C309 C 0.81922 0.12542 0.58699 0.0
C310 C 0.88978 0.1571 0.62409 0.0
C311 C 0.85042 0.09349 0.5781 0.0
C312 C 0.90094 0.09327 0.59193 0.0
H313 H 0.98971 0.91914 0.99278 0.0
H314 H 0.94665 0.05145 0.95199 0.0
H315 H 0.86475 0.96099 0.92675 0.0
H316 H 0.80627 0.84491 0.91585 0.0
H317 H 0.84827 0.71215 0.95668 0.0
H318 H 0.93047 0.80264 0.98205 0.0
C319 C 0.96239 0.92835 0.97842 0.0
C320 C 0.97452 0.99229 0.97438 0.0
C321 C 0.91541 0.8761 0.96386 0.0
C322 C 0.93855 0.00295 0.95559 0.0
C323 C 0.89164 0.9512 0.9411 0.0
C324 C 0.83284 0.83552 0.93049 0.0
C325 C 0.82083 0.77167 0.93441 0.0
C326 C 0.87972 0.88765 0.94506 0.0
C327 C 0.85689 0.76085 0.95309 0.0
C328 C 0.90364 0.81252 0.96771 0.0
H329 H 0.0994 0.96149 0.30821 0.0
H330 H 0.90338 0.88448 0.27579 0.0
H331 H 0.91698 0.80695 0.25219 0.0
H332 H 0.98068 0.75597 0.24282 0.0
H333 H 0.17604 0.83067 0.27499 0.0
H334 H 0.16712 0.91493 0.29634 0.0
C335 C 0.05992 0.92815 0.29581 0.0
C336 C 1.00013 0.92847 0.294 0.0
C337 C 0.06787 0.88319 0.28231 0.0
C338 C 0.94972 0.88517 0.27771 0.0
C339 C 0.95737 0.84067 0.2642 0.0
C340 C 0.02137 0.79086 0.25448 0.0
C341 C 0.07848 0.7867 0.25769 0.0
C342 C 0.01557 0.83844 0.26673 0.0
C343 C 0.13157 0.83299 0.27233 0.0
C344 C 0.12626 0.88083 0.2846 0.0
H345 H 0.23744 0.09844 0.61486 0.0
H346 H 0.33586 0.0948 0.6833 0.0
H347 H 0.43781 0.12653 0.659 0.0
H348 H 0.49437 0.14237 0.61791 0.0
H349 H 0.39476 0.13975 0.5493 0.0
H350 H 0.29865 0.12518 0.57392 0.0
C351 C 0.28146 0.10534 0.62447 0.0
C352 C 0.27858 0.09313 0.65079 0.0
C353 C 0.33985 0.12275 0.61032 0.0
C354 C 0.33625 0.10278 0.66299 0.0
C355 C 0.39477 0.12117 0.64914 0.0
C356 C 0.45231 0.14055 0.60853 0.0
C357 C 0.45098 0.14228 0.58206 0.0
C358 C 0.39652 0.12958 0.62277 0.0
C359 C 0.39641 0.139 0.56977 0.0
C360 C 0.34138 0.12997 0.58382 0.0
H361 H 0.27114 0.16679 0.95688 0.0
H362 H 0.28334 0.30088 0.01184 0.0
H363 H 0.36998 0.39486 0.98619 0.0
H364 H 0.44427 0.43937 0.94863 0.0
H365 H 0.42587 0.30878 0.89113 0.0
H366 H 0.34021 0.21305 0.9171 0.0
C367 C 0.29301 0.21665 0.9631 0.0
C368 C 0.27148 0.22711 0.98621 0.0
C369 C 0.34155 0.27102 0.9478 0.0
C370 C 0.29922 0.29183 0.99404 0.0
C371 C 0.3488 0.3456 0.97943 0.0
C372 C 0.42048 0.38998 0.94167 0.0
C373 C 0.4406 0.38077 0.91809 0.0
C374 C 0.37038 0.33584 0.95632 0.0
C375 C 0.41056 0.31663 0.9093 0.0
C376 C 0.36185 0.26208 0.92413 0.0
H377 H 0.06582 0.21216 0.29344 0.0
H378 H 0.16778 0.34913 0.35237 0.0
H379 H 0.17617 0.4384 0.32552 0.0
H380 H 0.13992 0.47359 0.28774 0.0
H381 H 0.03473 0.33615 0.22949 0.0
H382 H 0.0409 0.25043 0.25373 0.0
C383 C 0.09194 0.26199 0.30008 0.0
C384 C 0.11599 0.27397 0.32489 0.0
C385 C 0.09405 0.31246 0.28494 0.0
C386 C 0.14885 0.33868 0.33334 0.0
C387 C 0.15299 0.38959 0.31811 0.0
C388 C 0.1193 0.42503 0.28033 0.0
C389 C 0.08663 0.41054 0.2571 0.0
C390 C 0.12324 0.37638 0.29433 0.0
C391 C 0.05969 0.34774 0.24749 0.0
C392 C 0.06351 0.29905 0.26127 0.0
loop_
_geom_bond_atom_site_label_1
_geom_bond_atom_site_label_2
_geom_bond_distance
_geom_bond_site_symmetry_2
_ccdc_geom_bond_type
Mg0 O1 2.028 . S
Mg0 O7 1.986 . S
Mg0 O9 2.114 . S
Mg0 O10 2.251 . S
Mg0 O13 2.010 . S
O1 Mg0 2.028 . S
O1 C4 1.250 . S
O2 Mg3 2.028 . S
O2 C4 1.248 1_556 S
Mg3 O2 2.028 . S
Mg3 O8 2.032 1_556 S
Mg3 O10 2.079 1_556 S
C4 O1 1.250 . S
C4 O2 1.248 1_554 S
C5 O6 1.264 . S
C5 O13 1.249 1_565 S
O6 C5 1.264 . S
O7 Mg0 1.986 . S
O7 C11 1.246 . S
O8 Mg3 2.032 1_554 S
O8 C11 1.259 . S
O9 Mg0 2.114 . S
O9 C12 1.251 1_554 S
O10 Mg0 2.251 . S
O10 Mg3 2.079 1_554 S
O10 C12 1.272 1_554 S
C11 O7 1.246 . S
C11 O8 1.259 . S
C12 O9 1.251 1_556 S
C12 O10 1.272 1_556 S
O13 Mg0 2.010 . S
O13 C5 1.249 1_545 S
Mg14 O15 2.028 . S
Mg14 O21 1.986 . S
Mg14 O23 2.114 1_455 S
Mg14 O24 2.251 1_455 S
Mg14 O27 2.010 1_445 S
O15 Mg14 2.028 . S
O15 C18 1.250 . S
O16 Mg17 2.028 . S
O16 C18 1.248 . S
Mg17 O16 2.028 . S
Mg17 O22 2.032 . S
Mg17 O24 2.079 1_455 S
C18 O15 1.250 . S
C18 O16 1.248 . S
C19 O20 1.264 . S
C19 O27 1.249 . S
O20 C19 1.264 . S
O21 Mg14 1.986 . S
O21 C25 1.246 . S
O22 Mg17 2.032 . S
O22 C25 1.259 . S
O23 Mg14 2.114 1_655 S
O23 C26 1.252 . S
O24 Mg14 2.251 1_655 S
O24 Mg17 2.079 1_655 S
O24 C26 1.273 . S
C25 O21 1.246 . S
C25 O22 1.259 . S
C26 O23 1.252 . S
C26 O24 1.273 . S
O27 Mg14 2.010 1_665 S
O27 C19 1.249 . S
Mg28 O29 2.028 . S
Mg28 O35 1.986 . S
Mg28 O37 2.114 1_545 S
Mg28 O38 2.251 1_445 S
Mg28 O41 2.010 . S
O29 Mg28 2.028 . S
O29 C32 1.250 . S
O30 Mg31 2.028 1_455 S
O30 C32 1.248 . S
Mg31 O30 2.028 1_655 S
Mg31 O36 2.032 . S
Mg31 O38 2.079 1_545 S
C32 O29 1.250 . S
C32 O30 1.248 . S
C33 O34 1.264 . S
C33 O41 1.249 1_565 S
O34 C33 1.264 . S
O35 Mg28 1.986 . S
O35 C39 1.246 1_455 S
O36 Mg31 2.032 . S
O36 C39 1.259 . S
O37 Mg28 2.114 1_565 S
O37 C40 1.252 . S
O38 Mg28 2.251 1_665 S
O38 Mg31 2.079 1_565 S
O38 C40 1.273 1_655 S
C39 O35 1.246 1_655 S
C39 O36 1.259 . S
C40 O37 1.252 . S
C40 O38 1.273 1_455 S
O41 Mg28 2.010 . S
O41 C33 1.249 1_545 S
C42 C43 1.443 . S
C42 N46 1.376 . S
C42 C80 1.389 . S
C43 C42 1.443 . S
C43 C44 1.340 . S
C43 H83 0.951 . S
C44 C43 1.340 . S
C44 C45 1.439 . S
C44 H84 0.950 . S
C45 C44 1.439 . S
C45 N46 1.374 . S
C45 C79 1.395 . S
N46 C42 1.376 . S
N46 C45 1.374 . S
N46 Co47 2.008 . S
Co47 N46 2.008 . S
Co47 N48 1.995 . S
Co47 N53 2.008 1_455 S
Co47 N58 1.995 1_455 S
Co47 N63 2.282 . S
Co47 N69 2.282 . S
N48 Co47 1.995 . S
N48 C49 1.376 . S
N48 C52 1.383 . S
C49 N48 1.376 . S
C49 C50 1.446 . S
C49 C79 1.391 . S
C50 C49 1.446 . S
C50 C51 1.339 . S
C50 H85 0.949 . S
C51 C50 1.339 . S
C51 C52 1.439 . S
C51 H86 0.950 . S
C52 N48 1.383 . S
C52 C51 1.439 . S
C52 C81 1.392 . S
N53 Co47 2.008 1_655 S
N53 C54 1.376 . S
N53 C57 1.374 . S
C54 N53 1.376 . S
C54 C55 1.443 . S
C54 C81 1.389 1_655 S
C55 C54 1.443 . S
C55 C56 1.340 . S
C55 H87 0.951 . S
C56 C55 1.340 . S
C56 C57 1.439 . S
C56 H88 0.950 . S
C57 N53 1.374 . S
C57 C56 1.439 . S
C57 C82 1.395 . S
N58 Co47 1.995 1_655 S
N58 C59 1.376 . S
N58 C62 1.383 1_655 S
C59 N58 1.376 . S
C59 C60 1.446 . S
C59 C82 1.391 . S
C60 C59 1.446 . S
C60 C61 1.339 . S
C60 H89 0.949 . S
C61 C60 1.339 . S
C61 C62 1.439 1_655 S
C61 H90 0.950 . S
C62 N58 1.383 1_455 S
C62 C61 1.439 1_455 S
C62 C80 1.392 . S
N63 Co47 2.282 . S
N63 C66 1.332 . S
N63 C68 1.332 . S
C64 C65 1.386 . S
C64 C67 1.388 . S
C65 C64 1.386 . S
C65 C66 1.382 . S
C65 H91 0.950 1_455 S
C66 N63 1.332 . S
C66 C65 1.382 . S
C66 H77 0.952 1_455 S
C67 C64 1.388 . S
C67 C68 1.382 . S
C67 H92 0.950 . S
C68 N63 1.332 . S
C68 C67 1.382 . S
C68 H78 0.948 . S
N69 Co47 2.282 . S
N69 C73 1.332 . S
N69 C74 1.332 1_455 S
C70 C71 1.388 1_655 S
C70 C74 1.382 . S
C70 H93 0.950 . S
C71 C70 1.388 1_455 S
C71 C72 1.386 . S
C72 C71 1.386 . S
C72 C73 1.382 . S
C72 H94 0.950 . S
C73 N69 1.332 . S
C73 C72 1.382 . S
C73 H75 0.952 . S
C74 N69 1.332 1_655 S
C74 C70 1.382 . S
C74 H76 0.948 . S
H75 C73 0.952 . S
H76 C74 0.948 . S
H77 C66 0.952 1_655 S
H78 C68 0.948 . S
C79 C45 1.395 . S
C79 C49 1.391 . S
C80 C42 1.389 . S
C80 C62 1.392 . S
C81 C52 1.392 . S
C81 C54 1.389 1_455 S
C82 C57 1.395 . S
C82 C59 1.391 . S
H83 C43 0.951 . S
H84 C44 0.950 . S
H85 C50 0.949 . S
H86 C51 0.950 . S
H87 C55 0.951 . S
H88 C56 0.950 . S
H89 C60 0.949 . S
H90 C61 0.950 . S
H91 C65 0.950 1_655 S
H92 C67 0.950 . S
H93 C70 0.950 . S
H94 C72 0.950 . S
C95 C96 1.443 1_545 S
C95 N99 1.376 . S
C95 C133 1.389 . S
C96 C95 1.443 1_565 S
C96 C97 1.340 . S
C96 H136 0.951 . S
C97 C96 1.340 . S
C97 C98 1.439 . S
C97 H137 0.950 . S
C98 C97 1.439 . S
C98 N99 1.374 1_565 S
C98 C132 1.395 . S
N99 C95 1.376 . S
N99 C98 1.374 1_545 S
N99 Co100 2.008 . S
Co100 N99 2.008 . S
Co100 N101 1.995 . S
Co100 N106 2.008 . S
Co100 N111 1.995 . S
Co100 N116 2.282 . S
Co100 N122 2.282 . S
N101 Co100 1.995 . S
N101 C102 1.376 1_545 S
N101 C105 1.383 . S
C102 N101 1.376 1_565 S
C102 C103 1.446 . S
C102 C132 1.391 . S
C103 C102 1.446 . S
C103 C104 1.339 1_565 S
C103 H138 0.949 . S
C104 C103 1.339 1_545 S
C104 C105 1.438 . S
C104 H139 0.950 1_545 S
C105 N101 1.383 . S
C105 C104 1.438 . S
C105 C134 1.392 . S
N106 Co100 2.008 . S
N106 C107 1.376 . S
N106 C110 1.374 . S
C107 N106 1.376 . S
C107 C108 1.443 . S
C107 C134 1.389 . S
C108 C107 1.443 . S
C108 C109 1.340 . S
C108 H140 0.951 . S
C109 C108 1.340 . S
C109 C110 1.439 . S
C109 H141 0.950 . S
C110 N106 1.374 . S
C110 C109 1.439 . S
C110 C135 1.395 . S
N111 Co100 1.995 . S
N111 C112 1.376 . S
N111 C115 1.383 . S
C112 N111 1.376 . S
C112 C113 1.446 . S
C112 C135 1.391 . S
C113 C112 1.446 . S
C113 C114 1.339 . S
C113 H142 0.949 . S
C114 C113 1.339 . S
C114 C115 1.439 . S
C114 H143 0.950 . S
C115 N111 1.383 . S
C115 C114 1.439 . S
C115 C133 1.392 . S
N116 Co100 2.282 . S
N116 C119 1.332 . S
N116 C121 1.332 . S
C117 C118 1.386 . S
C117 C120 1.388 . S
C118 C117 1.386 . S
C118 C119 1.382 . S
C118 H144 0.950 . S
C119 N116 1.332 . S
C119 C118 1.382 . S
C119 H130 0.952 . S
C120 C117 1.388 . S
C120 C121 1.382 . S
C120 H145 0.950 . S
C121 N116 1.332 . S
C121 C120 1.382 . S
C121 H131 0.948 . S
N122 Co100 2.282 . S
N122 C126 1.332 . S
N122 C127 1.332 . S
C123 C124 1.388 . S
C123 C127 1.382 . S
C123 H146 0.950 . S
C124 C123 1.388 . S
C124 C125 1.386 . S
C125 C124 1.386 . S
C125 C126 1.382 . S
C125 H147 0.950 . S
C126 N122 1.332 . S
C126 C125 1.382 . S
C126 H128 0.952 . S
C127 N122 1.332 . S
C127 C123 1.382 . S
C127 H129 0.948 . S
H128 C126 0.952 . S
H129 C127 0.948 . S
H130 C119 0.952 . S
H131 C121 0.948 . S
C132 C98 1.395 . S
C132 C102 1.391 . S
C133 C95 1.389 . S
C133 C115 1.392 . S
C134 C105 1.392 . S
C134 C107 1.389 . S
C135 C110 1.395 . S
C135 C112 1.391 . S
H136 C96 0.951 . S
H137 C97 0.950 . S
H138 C103 0.949 . S
H139 C104 0.950 1_565 S
H140 C108 0.951 . S
H141 C109 0.950 . S
H142 C113 0.949 . S
H143 C114 0.950 . S
H144 C118 0.950 . S
H145 C120 0.950 . S
H146 C123 0.950 . S
H147 C125 0.950 . S
C148 C149 1.443 . S
C148 N152 1.376 . S
C148 C186 1.389 . S
C149 C148 1.443 . S
C149 C150 1.340 . S
C149 H189 0.951 . S
C150 C149 1.340 . S
C150 C151 1.439 . S
C150 H190 0.950 . S
C151 C150 1.439 . S
C151 N152 1.374 . S
C151 C185 1.395 . S
N152 C148 1.376 . S
N152 C151 1.374 . S
N152 Co153 2.008 . S
Co153 N152 2.008 . S
Co153 N154 1.995 . S
Co153 N159 2.008 . S
Co153 N164 1.995 . S
Co153 N169 2.282 . S
Co153 N175 2.282 . S
N154 Co153 1.995 . S
N154 C155 1.376 . S
N154 C158 1.383 . S
C155 N154 1.376 . S
C155 C156 1.446 . S
C155 C185 1.391 . S
C156 C155 1.446 . S
C156 C157 1.339 . S
C156 H191 0.949 . S
C157 C156 1.339 . S
C157 C158 1.439 . S
C157 H192 0.950 . S
C158 N154 1.383 . S
C158 C157 1.439 . S
C158 C187 1.392 . S
N159 Co153 2.008 . S
N159 C160 1.376 . S
N159 C163 1.374 . S
C160 N159 1.376 . S
C160 C161 1.443 . S
C160 C187 1.389 . S
C161 C160 1.443 . S
C161 C162 1.340 . S
C161 H193 0.951 . S
C162 C161 1.340 . S
C162 C163 1.439 . S
C162 H194 0.950 . S
C163 N159 1.374 . S
C163 C162 1.439 . S
C163 C188 1.395 . S
N164 Co153 1.995 . S
N164 C165 1.376 . S
N164 C168 1.383 . S
C165 N164 1.376 . S
C165 C166 1.446 . S
C165 C188 1.391 . S
C166 C165 1.446 . S
C166 C167 1.339 . S
C166 H195 0.949 . S
C167 C166 1.339 . S
C167 C168 1.439 . S
C167 H196 0.950 . S
C168 N164 1.383 . S
C168 C167 1.439 . S
C168 C186 1.392 . S
N169 Co153 2.282 . S
N169 C172 1.332 . S
N169 C174 1.332 . S
C170 C171 1.386 . S
C170 C173 1.388 . S
C171 C170 1.386 . S
C171 C172 1.382 . S
C171 H197 0.950 . S
C172 N169 1.332 . S
C172 C171 1.382 . S
C172 H183 0.952 . S
C173 C170 1.388 . S
C173 C174 1.382 . S
C173 H198 0.950 . S
C174 N169 1.332 . S
C174 C173 1.382 . S
C174 H184 0.948 . S
N175 Co153 2.282 . S
N175 C179 1.332 . S
N175 C180 1.332 . S
C176 C177 1.388 . S
C176 C180 1.382 . S
C176 H199 0.950 . S
C177 C176 1.388 . S
C177 C178 1.386 . S
C178 C177 1.386 . S
C178 C179 1.382 . S
C178 H200 0.950 . S
C179 N175 1.332 . S
C179 C178 1.382 . S
C179 H181 0.952 . S
C180 N175 1.332 . S
C180 C176 1.382 . S
C180 H182 0.948 . S
H181 C179 0.952 . S
H182 C180 0.948 . S
H183 C172 0.952 . S
H184 C174 0.948 . S
C185 C151 1.395 . S
C185 C155 1.391 . S
C186 C148 1.389 . S
C186 C168 1.392 . S
C187 C158 1.392 . S
C187 C160 1.389 . S
C188 C163 1.395 . S
C188 C165 1.391 . S
H189 C149 0.951 . S
H190 C150 0.950 . S
H191 C156 0.949 . S
H192 C157 0.950 . S
H193 C161 0.951 . S
H194 C162 0.950 . S
H195 C166 0.949 . S
H196 C167 0.950 . S
H197 C171 0.950 . S
H198 C173 0.950 . S
H199 C176 0.950 . S
H200 C178 0.950 . S
H201 C207 0.930 . S
H202 C210 0.930 . S
H203 C211 0.930 . S
H204 C212 0.930 . S
H205 C215 0.930 1_655 S
H206 C216 0.930 1_655 S
C207 H201 0.930 . S
C207 C208 1.355 . S
C207 C209 1.415 . S
C208 C207 1.355 . S
C208 C210 1.419 . S
C209 C207 1.415 . S
C209 C214 1.425 . S
C209 C216 1.409 . S
C210 H202 0.930 . S
C210 C208 1.419 . S
C210 C211 1.362 . S
C211 H203 0.930 . S
C211 C210 1.362 . S
C211 C214 1.409 . S
C212 H204 0.930 . S
C212 C213 1.355 . S
C212 C214 1.415 . S
C213 C212 1.355 . S
C213 C215 1.419 . S
C214 C209 1.425 . S
C214 C211 1.409 . S
C214 C212 1.415 . S
C215 H205 0.930 1_455 S
C215 C213 1.419 . S
C215 C216 1.362 . S
C216 H206 0.930 1_455 S
C216 C209 1.409 . S
C216 C215 1.362 . S
H217 C223 0.930 . S
H218 C226 0.930 . S
H219 C227 0.930 . S
H220 C228 0.930 . S
H221 C231 0.930 . S
H222 C232 0.930 . S
C223 H217 0.930 . S
C223 C224 1.355 . S
C223 C225 1.415 . S
C224 C223 1.355 . S
C224 C226 1.419 . S
C225 C223 1.415 . S
C225 C230 1.425 . S
C225 C232 1.409 . S
C226 H218 0.930 . S
C226 C224 1.419 . S
C226 C227 1.362 . S
C227 H219 0.930 . S
C227 C226 1.362 . S
C227 C230 1.409 . S
C228 H220 0.930 . S
C228 C229 1.355 . S
C228 C230 1.415 . S
C229 C228 1.355 . S
C229 C231 1.419 . S
C230 C225 1.425 . S
C230 C227 1.409 . S
C230 C228 1.415 . S
C231 H221 0.930 . S
C231 C229 1.419 . S
C231 C232 1.362 . S
C232 H222 0.930 . S
C232 C225 1.409 . S
C232 C231 1.362 . S
H233 C239 0.930 . S
H234 C242 0.930 . S
H235 C243 0.930 . S
H236 C244 0.930 . S
H237 C247 0.930 . S
H238 C248 0.930 . S
C239 H233 0.930 . S
C239 C240 1.355 . S
C239 C241 1.415 . S
C240 C239 1.355 . S
C240 C242 1.419 . S
C241 C239 1.415 . S
C241 C246 1.425 . S
C241 C248 1.409 . S
C242 H234 0.930 . S
C242 C240 1.419 . S
C242 C243 1.362 . S
C243 H235 0.930 . S
C243 C242 1.362 . S
C243 C246 1.409 . S
C244 H236 0.930 . S
C244 C245 1.355 . S
C244 C246 1.415 . S
C245 C244 1.355 . S
C245 C247 1.419 . S
C246 C241 1.425 . S
C246 C243 1.409 . S
C246 C244 1.415 . S
C247 H237 0.930 . S
C247 C245 1.419 . S
C247 C248 1.362 . S
C248 H238 0.930 . S
C248 C241 1.409 . S
C248 C247 1.362 . S
H249 C255 0.930 . S
H250 C258 0.930 . S
H251 C259 0.930 . S
H252 C260 0.930 . S
H253 C263 0.930 . S
H254 C264 0.930 . S
C255 H249 0.930 . S
C255 C256 1.355 . S
C255 C257 1.415 . S
C256 C255 1.355 . S
C256 C258 1.419 . S
C257 C255 1.415 . S
C257 C262 1.425 . S
C257 C264 1.409 . S
C258 H250 0.930 . S
C258 C256 1.419 . S
C258 C259 1.362 . S
C259 H251 0.930 . S
C259 C258 1.362 . S
C259 C262 1.409 . S
C260 H252 0.930 . S
C260 C261 1.355 . S
C260 C262 1.415 . S
C261 C260 1.355 . S
C261 C263 1.419 . S
C262 C257 1.425 . S
C262 C259 1.409 . S
C262 C260 1.415 . S
C263 H253 0.930 . S
C263 C261 1.419 . S
C263 C264 1.362 . S
C264 H254 0.930 . S
C264 C257 1.409 . S
C264 C263 1.362 . S
H265 C271 0.930 . S
H266 C274 0.930 . S
H267 C275 0.930 . S
H268 C276 0.930 . S
H269 C279 0.930 . S
H270 C280 0.930 . S
C271 H265 0.930 . S
C271 C272 1.355 . S
C271 C273 1.415 . S
C272 C271 1.355 . S
C272 C274 1.419 . S
C273 C271 1.415 . S
C273 C278 1.425 . S
C273 C280 1.409 . S
C274 H266 0.930 . S
C274 C272 1.419 . S
C274 C275 1.362 . S
C275 H267 0.930 . S
C275 C274 1.362 . S
C275 C278 1.409 . S
C276 H268 0.930 . S
C276 C277 1.355 . S
C276 C278 1.415 . S
C277 C276 1.355 . S
C277 C279 1.419 . S
C278 C273 1.425 . S
C278 C275 1.409 . S
C278 C276 1.415 . S
C279 H269 0.930 . S
C279 C277 1.419 . S
C279 C280 1.362 . S
C280 H270 0.930 . S
C280 C273 1.409 . S
C280 C279 1.362 . S
H281 C287 0.930 . S
H282 C290 0.930 . S
H283 C291 0.930 . S
H284 C292 0.930 . S
H285 C295 0.930 . S
H286 C296 0.930 . S
C287 H281 0.930 . S
C287 C288 1.355 . S
C287 C289 1.415 . S
C288 C287 1.355 . S
C288 C290 1.419 . S
C289 C287 1.415 . S
C289 C294 1.425 . S
C289 C296 1.409 . S
C290 H282 0.930 . S
C290 C288 1.419 . S
C290 C291 1.362 . S
C291 H283 0.930 . S
C291 C290 1.362 . S
C291 C294 1.409 . S
C292 H284 0.930 . S
C292 C293 1.355 . S
C292 C294 1.415 . S
C293 C292 1.355 . S
C293 C295 1.419 . S
C294 C289 1.425 . S
C294 C291 1.409 . S
C294 C292 1.415 . S
C295 H285 0.930 . S
C295 C293 1.419 . S
C295 C296 1.362 . S
C296 H286 0.930 . S
C296 C289 1.409 . S
C296 C295 1.362 . S
H297 C303 0.930 1_455 S
H298 C306 0.930 . S
H299 C307 0.930 . S
H300 C308 0.930 . S
H301 C311 0.930 . S
H302 C312 0.930 . S
C303 H297 0.930 1_655 S
C303 C304 1.355 . S
C303 C305 1.415 . S
C304 C303 1.355 . S
C304 C306 1.419 . S
C305 C303 1.415 . S
C305 C310 1.425 . S
C305 C312 1.409 . S
C306 H298 0.930 . S
C306 C304 1.419 . S
C306 C307 1.362 . S
C307 H299 0.930 . S
C307 C306 1.362 . S
C307 C310 1.409 . S
C308 H300 0.930 . S
C308 C309 1.355 . S
C308 C310 1.415 . S
C309 C308 1.355 . S
C309 C311 1.419 . S
C310 C305 1.425 . S
C310 C307 1.409 . S
C310 C308 1.415 . S
C311 H301 0.930 . S
C311 C309 1.419 . S
C311 C312 1.362 . S
C312 H302 0.930 . S
C312 C305 1.409 . S
C312 C311 1.362 . S
H313 C319 0.930 1_554 S
H314 C322 0.930 1_445 S
H315 C323 0.930 . S
H316 C324 0.930 . S
H317 C327 0.930 . S
H318 C328 0.930 . S
C319 H313 0.930 1_556 S
C319 C320 1.355 . S
C319 C321 1.415 . S
C320 C319 1.355 . S
C320 C322 1.419 . S
C321 C319 1.415 . S
C321 C326 1.425 . S
C321 C328 1.409 . S
C322 H314 0.930 1_665 S
C322 C320 1.419 . S
C322 C323 1.362 . S
C323 H315 0.930 . S
C323 C322 1.362 . S
C323 C326 1.409 . S
C324 H316 0.930 . S
C324 C325 1.355 . S
C324 C326 1.415 . S
C325 C324 1.355 . S
C325 C327 1.419 . S
C326 C321 1.425 . S
C326 C323 1.409 . S
C326 C324 1.415 . S
C327 H317 0.930 . S
C327 C325 1.419 . S
C327 C328 1.362 . S
C328 H318 0.930 . S
C328 C321 1.409 . S
C328 C327 1.362 . S
H329 C335 0.930 . S
H330 C338 0.930 . S
H331 C339 0.930 . S
H332 C340 0.930 . S
H333 C343 0.930 . S
H334 C344 0.930 . S
C335 H329 0.930 . S
C335 C336 1.355 . S
C335 C337 1.415 . S
C336 C335 1.355 . S
C336 C338 1.419 1_455 S
C337 C335 1.415 . S
C337 C342 1.425 1_455 S
C337 C344 1.409 . S
C338 H330 0.930 . S
C338 C336 1.419 1_655 S
C338 C339 1.362 . S
C339 H331 0.930 . S
C339 C338 1.362 . S
C339 C342 1.409 . S
C340 H332 0.930 . S
C340 C341 1.355 1_655 S
C340 C342 1.415 . S
C341 C340 1.355 1_455 S
C341 C343 1.419 . S
C342 C337 1.425 1_655 S
C342 C339 1.409 . S
C342 C340 1.415 . S
C343 H333 0.930 . S
C343 C341 1.419 . S
C343 C344 1.362 . S
C344 H334 0.930 . S
C344 C337 1.409 . S
C344 C343 1.362 . S
H345 C351 0.930 . S
H346 C354 0.930 . S
H347 C355 0.930 . S
H348 C356 0.930 . S
H349 C359 0.930 . S
H350 C360 0.930 . S
C351 H345 0.930 . S
C351 C352 1.355 . S
C351 C353 1.415 . S
C352 C351 1.355 . S
C352 C354 1.419 . S
C353 C351 1.415 . S
C353 C358 1.425 . S
C353 C360 1.409 . S
C354 H346 0.930 . S
C354 C352 1.419 . S
C354 C355 1.362 . S
C355 H347 0.930 . S
C355 C354 1.362 . S
C355 C358 1.409 . S
C356 H348 0.930 . S
C356 C357 1.355 . S
C356 C358 1.415 . S
C357 C356 1.355 . S
C357 C359 1.419 . S
C358 C353 1.425 . S
C358 C355 1.409 . S
C358 C356 1.415 . S
C359 H349 0.930 . S
C359 C357 1.419 . S
C359 C360 1.362 . S
C360 H350 0.930 . S
C360 C353 1.409 . S
C360 C359 1.362 . S
H361 C367 0.930 . S
H362 C370 0.930 . S
H363 C371 0.930 . S
H364 C372 0.930 . S
H365 C375 0.930 . S
H366 C376 0.930 . S
C367 H361 0.930 . S
C367 C368 1.355 . S
C367 C369 1.415 . S
C368 C367 1.355 . S
C368 C370 1.419 . S
C369 C367 1.415 . S
C369 C374 1.425 . S
C369 C376 1.409 . S
C370 H362 0.930 . S
C370 C368 1.419 . S
C370 C371 1.362 . S
C371 H363 0.930 . S
C371 C370 1.362 . S
C371 C374 1.409 . S
C372 H364 0.930 . S
C372 C373 1.355 . S
C372 C374 1.415 . S
C373 C372 1.355 . S
C373 C375 1.419 . S
C374 C369 1.425 . S
C374 C371 1.409 . S
C374 C372 1.415 . S
C375 H365 0.930 . S
C375 C373 1.419 . S
C375 C376 1.362 . S
C376 H366 0.930 . S
C376 C369 1.409 . S
C376 C375 1.362 . S
H377 C383 0.930 . S
H378 C386 0.930 . S
H379 C387 0.930 1_655 S
H380 C388 0.930 1_655 S
H381 C391 0.930 . S
H382 C392 0.930 . S
C383 H377 0.930 . S
C383 C384 1.355 . S
C383 C385 1.415 . S
C384 C383 1.355 . S
C384 C386 1.419 . S
C385 C383 1.415 . S
C385 C390 1.425 . S
C385 C392 1.409 . S
C386 H378 0.930 . S
C386 C384 1.419 . S
C386 C387 1.362 . S
C387 H379 0.930 1_455 S
C387 C386 1.362 . S
C387 C390 1.409 . S
C388 H380 0.930 1_455 S
C388 C389 1.355 . S
C388 C390 1.415 . S
C389 C388 1.355 . S
C389 C391 1.419 . S
C390 C385 1.425 . S
C390 C387 1.409 . S
C390 C388 1.415 . S
C391 H381 0.930 . S
C391 C389 1.419 . S
C391 C392 1.362 . S
C392 H382 0.930 . S
C392 C385 1.409 . S
C392 C391 1.362 . S
C213 C64 1.410 . S
C208 C11 1.385 . S
C224 C26 1.552 . S
C229 C134 1.578 . S
C240 C40 1.431 1_655 S
C245 C186 1.450 . S
C256 C5 1.330 . S
C261 C80 1.440 . S
C277 C124 1.543 . S
C272 C18 1.542 . S
C288 C32 1.431 . S
C293 C170 1.430 . S
C309 C117 1.325 . S
C304 C39 1.283 . S
C320 C4 1.396 1_666 S
C325 C177 1.430 . S
C341 C71 1.410 . S
C336 C19 1.182 1_455 S
C357 C133 1.381 . S
C352 C33 1.258 1_545 S
C373 C187 1.457 . S
C368 C12 1.425 . S
C384 C25 1.378 . S
C389 C81 1.431 . S
