# Generated by pormake.
# Topology gar, (4,6)-cn, num edge types: 1
# Building blocks:
#     Node 0, Type 0, BuildingBlock: QUQFOY_clean_sbu_1, # of connection points: 4
#     Node 1, Type 0, BuildingBlock: QUQFOY_clean_sbu_1, # of connection points: 4
#     Node 2, Type 0, BuildingBlock: QUQFOY_clean_sbu_1, # of connection points: 4
#     Node 3, Type 0, BuildingBlock: QUQFOY_clean_sbu_1, # of connection points: 4
#     Node 4, Type 0, BuildingBlock: QUQFOY_clean_sbu_1, # of connection points: 4
#     Node 5, Type 0, BuildingBlock: QUQFOY_clean_sbu_1, # of connection points: 4
#     Node 6, Type 0, BuildingBlock: QUQFOY_clean_sbu_1, # of connection points: 4
#     Node 7, Type 0, BuildingBlock: QUQFOY_clean_sbu_1, # of connection points: 4
#     Node 8, Type 0, BuildingBlock: QUQFOY_clean_sbu_1, # of connection points: 4
#     Node 9, Type 0, BuildingBlock: QUQFOY_clean_sbu_1, # of connection points: 4
#     Node 10, Type 0, BuildingBlock: QUQFOY_clean_sbu_1, # of connection points: 4
#     Node 11, Type 0, BuildingBlock: QUQFOY_clean_sbu_1, # of connection points: 4
#     Node 12, Type 0, BuildingBlock: QUQFOY_clean_sbu_1, # of connection points: 4
#     Node 13, Type 0, BuildingBlock: QUQFOY_clean_sbu_1, # of connection points: 4
#     Node 14, Type 0, BuildingBlock: QUQFOY_clean_sbu_1, # of connection points: 4
#     Node 15, Type 0, BuildingBlock: QUQFOY_clean_sbu_1, # of connection points: 4
#     Node 16, Type 0, BuildingBlock: QUQFOY_clean_sbu_1, # of connection points: 4
#     Node 17, Type 0, BuildingBlock: QUQFOY_clean_sbu_1, # of connection points: 4
#     Node 18, Type 0, BuildingBlock: QUQFOY_clean_sbu_1, # of connection points: 4
#     Node 19, Type 0, BuildingBlock: QUQFOY_clean_sbu_1, # of connection points: 4
#     Node 20, Type 0, BuildingBlock: QUQFOY_clean_sbu_1, # of connection points: 4
#     Node 21, Type 0, BuildingBlock: QUQFOY_clean_sbu_1, # of connection points: 4
#     Node 22, Type 0, BuildingBlock: QUQFOY_clean_sbu_1, # of connection points: 4
#     Node 23, Type 0, BuildingBlock: QUQFOY_clean_sbu_1, # of connection points: 4
#     Node 24, Type 1, BuildingBlock: KUMBUR_clean_sbu_0, # of connection points: 6
#     Node 25, Type 1, BuildingBlock: KUMBUR_clean_sbu_0, # of connection points: 6
#     Node 26, Type 1, BuildingBlock: KUMBUR_clean_sbu_0, # of connection points: 6
#     Node 27, Type 1, BuildingBlock: KUMBUR_clean_sbu_0, # of connection points: 6
#     Node 28, Type 1, BuildingBlock: KUMBUR_clean_sbu_0, # of connection points: 6
#     Node 29, Type 1, BuildingBlock: KUMBUR_clean_sbu_0, # of connection points: 6
#     Node 30, Type 1, BuildingBlock: KUMBUR_clean_sbu_0, # of connection points: 6
#     Node 31, Type 1, BuildingBlock: KUMBUR_clean_sbu_0, # of connection points: 6
#     Node 32, Type 1, BuildingBlock: KUMBUR_clean_sbu_0, # of connection points: 6
#     Node 33, Type 1, BuildingBlock: KUMBUR_clean_sbu_0, # of connection points: 6
#     Node 34, Type 1, BuildingBlock: KUMBUR_clean_sbu_0, # of connection points: 6
#     Node 35, Type 1, BuildingBlock: KUMBUR_clean_sbu_0, # of connection points: 6
#     Node 36, Type 1, BuildingBlock: KUMBUR_clean_sbu_0, # of connection points: 6
#     Node 37, Type 1, BuildingBlock: KUMBUR_clean_sbu_0, # of connection points: 6
#     Node 38, Type 1, BuildingBlock: KUMBUR_clean_sbu_0, # of connection points: 6
#     Node 39, Type 1, BuildingBlock: KUMBUR_clean_sbu_0, # of connection points: 6
#     Edge 40, Type (0, 1), BuildingBlock: UVAHIK_clean_linker_0, # of connection points: 2
#     Edge 41, Type (0, 1), BuildingBlock: UVAHIK_clean_linker_0, # of connection points: 2
#     Edge 42, Type (0, 1), BuildingBlock: UVAHIK_clean_linker_0, # of connection points: 2
#     Edge 43, Type (0, 1), BuildingBlock: UVAHIK_clean_linker_0, # of connection points: 2
#     Edge 44, Type (0, 1), BuildingBlock: UVAHIK_clean_linker_0, # of connection points: 2
#     Edge 45, Type (0, 1), BuildingBlock: UVAHIK_clean_linker_0, # of connection points: 2
#     Edge 46, Type (0, 1), BuildingBlock: UVAHIK_clean_linker_0, # of connection points: 2
#     Edge 47, Type (0, 1), BuildingBlock: UVAHIK_clean_linker_0, # of connection points: 2
#     Edge 48, Type (0, 1), BuildingBlock: UVAHIK_clean_linker_0, # of connection points: 2
#     Edge 49, Type (0, 1), BuildingBlock: UVAHIK_clean_linker_0, # of connection points: 2
#     Edge 50, Type (0, 1), BuildingBlock: UVAHIK_clean_linker_0, # of connection points: 2
#     Edge 51, Type (0, 1), BuildingBlock: UVAHIK_clean_linker_0, # of connection points: 2
#     Edge 52, Type (0, 1), BuildingBlock: UVAHIK_clean_linker_0, # of connection points: 2
#     Edge 53, Type (0, 1), BuildingBlock: UVAHIK_clean_linker_0, # of connection points: 2
#     Edge 54, Type (0, 1), BuildingBlock: UVAHIK_clean_linker_0, # of connection points: 2
#     Edge 55, Type (0, 1), BuildingBlock: UVAHIK_clean_linker_0, # of connection points: 2
#     Edge 56, Type (0, 1), BuildingBlock: UVAHIK_clean_linker_0, # of connection points: 2
#     Edge 57, Type (0, 1), BuildingBlock: UVAHIK_clean_linker_0, # of connection points: 2
#     Edge 58, Type (0, 1), BuildingBlock: UVAHIK_clean_linker_0, # of connection points: 2
#     Edge 59, Type (0, 1), BuildingBlock: UVAHIK_clean_linker_0, # of connection points: 2
#     Edge 60, Type (0, 1), BuildingBlock: UVAHIK_clean_linker_0, # of connection points: 2
#     Edge 61, Type (0, 1), BuildingBlock: UVAHIK_clean_linker_0, # of connection points: 2
#     Edge 62, Type (0, 1), BuildingBlock: UVAHIK_clean_linker_0, # of connection points: 2
#     Edge 63, Type (0, 1), BuildingBlock: UVAHIK_clean_linker_0, # of connection points: 2
#     Edge 64, Type (0, 1), BuildingBlock: UVAHIK_clean_linker_0, # of connection points: 2
#     Edge 65, Type (0, 1), BuildingBlock: UVAHIK_clean_linker_0, # of connection points: 2
#     Edge 66, Type (0, 1), BuildingBlock: UVAHIK_clean_linker_0, # of connection points: 2
#     Edge 67, Type (0, 1), BuildingBlock: UVAHIK_clean_linker_0, # of connection points: 2
#     Edge 68, Type (0, 1), BuildingBlock: UVAHIK_clean_linker_0, # of connection points: 2
#     Edge 69, Type (0, 1), BuildingBlock: UVAHIK_clean_linker_0, # of connection points: 2
#     Edge 70, Type (0, 1), BuildingBlock: UVAHIK_clean_linker_0, # of connection points: 2
#     Edge 71, Type (0, 1), BuildingBlock: UVAHIK_clean_linker_0, # of connection points: 2
#     Edge 72, Type (0, 1), BuildingBlock: UVAHIK_clean_linker_0, # of connection points: 2
#     Edge 73, Type (0, 1), BuildingBlock: UVAHIK_clean_linker_0, # of connection points: 2
#     Edge 74, Type (0, 1), BuildingBlock: UVAHIK_clean_linker_0, # of connection points: 2
#     Edge 75, Type (0, 1), BuildingBlock: UVAHIK_clean_linker_0, # of connection points: 2
#     Edge 76, Type (0, 1), BuildingBlock: UVAHIK_clean_linker_0, # of connection points: 2
#     Edge 77, Type (0, 1), BuildingBlock: UVAHIK_clean_linker_0, # of connection points: 2
#     Edge 78, Type (0, 1), BuildingBlock: UVAHIK_clean_linker_0, # of connection points: 2
#     Edge 79, Type (0, 1), BuildingBlock: UVAHIK_clean_linker_0, # of connection points: 2
#     Edge 80, Type (0, 1), BuildingBlock: UVAHIK_clean_linker_0, # of connection points: 2
#     Edge 81, Type (0, 1), BuildingBlock: UVAHIK_clean_linker_0, # of connection points: 2
#     Edge 82, Type (0, 1), BuildingBlock: UVAHIK_clean_linker_0, # of connection points: 2
#     Edge 83, Type (0, 1), BuildingBlock: UVAHIK_clean_linker_0, # of connection points: 2
#     Edge 84, Type (0, 1), BuildingBlock: UVAHIK_clean_linker_0, # of connection points: 2
#     Edge 85, Type (0, 1), BuildingBlock: UVAHIK_clean_linker_0, # of connection points: 2
#     Edge 86, Type (0, 1), BuildingBlock: UVAHIK_clean_linker_0, # of connection points: 2
#     Edge 87, Type (0, 1), BuildingBlock: UVAHIK_clean_linker_0, # of connection points: 2
#     Edge 88, Type (0, 1), BuildingBlock: UVAHIK_clean_linker_0, # of connection points: 2
#     Edge 89, Type (0, 1), BuildingBlock: UVAHIK_clean_linker_0, # of connection points: 2
#     Edge 90, Type (0, 1), BuildingBlock: UVAHIK_clean_linker_0, # of connection points: 2
#     Edge 91, Type (0, 1), BuildingBlock: UVAHIK_clean_linker_0, # of connection points: 2
#     Edge 92, Type (0, 1), BuildingBlock: UVAHIK_clean_linker_0, # of connection points: 2
#     Edge 93, Type (0, 1), BuildingBlock: UVAHIK_clean_linker_0, # of connection points: 2
#     Edge 94, Type (0, 1), BuildingBlock: UVAHIK_clean_linker_0, # of connection points: 2
#     Edge 95, Type (0, 1), BuildingBlock: UVAHIK_clean_linker_0, # of connection points: 2
#     Edge 96, Type (0, 1), BuildingBlock: UVAHIK_clean_linker_0, # of connection points: 2
#     Edge 97, Type (0, 1), BuildingBlock: UVAHIK_clean_linker_0, # of connection points: 2
#     Edge 98, Type (0, 1), BuildingBlock: UVAHIK_clean_linker_0, # of connection points: 2
#     Edge 99, Type (0, 1), BuildingBlock: UVAHIK_clean_linker_0, # of connection points: 2
#     Edge 100, Type (0, 1), BuildingBlock: UVAHIK_clean_linker_0, # of connection points: 2
#     Edge 101, Type (0, 1), BuildingBlock: UVAHIK_clean_linker_0, # of connection points: 2
#     Edge 102, Type (0, 1), BuildingBlock: UVAHIK_clean_linker_0, # of connection points: 2
#     Edge 103, Type (0, 1), BuildingBlock: UVAHIK_clean_linker_0, # of connection points: 2
#     Edge 104, Type (0, 1), BuildingBlock: UVAHIK_clean_linker_0, # of connection points: 2
#     Edge 105, Type (0, 1), BuildingBlock: UVAHIK_clean_linker_0, # of connection points: 2
#     Edge 106, Type (0, 1), BuildingBlock: UVAHIK_clean_linker_0, # of connection points: 2
#     Edge 107, Type (0, 1), BuildingBlock: UVAHIK_clean_linker_0, # of connection points: 2
#     Edge 108, Type (0, 1), BuildingBlock: UVAHIK_clean_linker_0, # of connection points: 2
#     Edge 109, Type (0, 1), BuildingBlock: UVAHIK_clean_linker_0, # of connection points: 2
#     Edge 110, Type (0, 1), BuildingBlock: UVAHIK_clean_linker_0, # of connection points: 2
#     Edge 111, Type (0, 1), BuildingBlock: UVAHIK_clean_linker_0, # of connection points: 2
#     Edge 112, Type (0, 1), BuildingBlock: UVAHIK_clean_linker_0, # of connection points: 2
#     Edge 113, Type (0, 1), BuildingBlock: UVAHIK_clean_linker_0, # of connection points: 2
#     Edge 114, Type (0, 1), BuildingBlock: UVAHIK_clean_linker_0, # of connection points: 2
#     Edge 115, Type (0, 1), BuildingBlock: UVAHIK_clean_linker_0, # of connection points: 2
#     Edge 116, Type (0, 1), BuildingBlock: UVAHIK_clean_linker_0, # of connection points: 2
#     Edge 117, Type (0, 1), BuildingBlock: UVAHIK_clean_linker_0, # of connection points: 2
#     Edge 118, Type (0, 1), BuildingBlock: UVAHIK_clean_linker_0, # of connection points: 2
#     Edge 119, Type (0, 1), BuildingBlock: UVAHIK_clean_linker_0, # of connection points: 2
#     Edge 120, Type (0, 1), BuildingBlock: UVAHIK_clean_linker_0, # of connection points: 2
#     Edge 121, Type (0, 1), BuildingBlock: UVAHIK_clean_linker_0, # of connection points: 2
#     Edge 122, Type (0, 1), BuildingBlock: UVAHIK_clean_linker_0, # of connection points: 2
#     Edge 123, Type (0, 1), BuildingBlock: UVAHIK_clean_linker_0, # of connection points: 2
#     Edge 124, Type (0, 1), BuildingBlock: UVAHIK_clean_linker_0, # of connection points: 2
#     Edge 125, Type (0, 1), BuildingBlock: UVAHIK_clean_linker_0, # of connection points: 2
#     Edge 126, Type (0, 1), BuildingBlock: UVAHIK_clean_linker_0, # of connection points: 2
#     Edge 127, Type (0, 1), BuildingBlock: UVAHIK_clean_linker_0, # of connection points: 2
#     Edge 128, Type (0, 1), BuildingBlock: UVAHIK_clean_linker_0, # of connection points: 2
#     Edge 129, Type (0, 1), BuildingBlock: UVAHIK_clean_linker_0, # of connection points: 2
#     Edge 130, Type (0, 1), BuildingBlock: UVAHIK_clean_linker_0, # of connection points: 2
#     Edge 131, Type (0, 1), BuildingBlock: UVAHIK_clean_linker_0, # of connection points: 2
#     Edge 132, Type (0, 1), BuildingBlock: UVAHIK_clean_linker_0, # of connection points: 2
#     Edge 133, Type (0, 1), BuildingBlock: UVAHIK_clean_linker_0, # of connection points: 2
#     Edge 134, Type (0, 1), BuildingBlock: UVAHIK_clean_linker_0, # of connection points: 2
#     Edge 135, Type (0, 1), BuildingBlock: UVAHIK_clean_linker_0, # of connection points: 2
# Relax obj value: 0.126
# Max RMSD: 0.318
# Mean RMSD: 0.177
data_MOF--net-gar--node1-QUQFOY_clean_sbu_1--node2-KUMBUR_clean_sbu_0--edge1-UVAHIK_clean_linker_0
_symmetry_space_group_name_H-M    P1
_symmetry_Int_Tables_number       1
_symmetry_cell_setting            triclinic
loop_
_symmetry_equiv_pos_as_xyz
'x, y, z'
_cell_length_a     78.006518
_cell_length_b     73.143933
_cell_length_c     73.143221
_cell_angle_alpha  100.29977
_cell_angle_beta   93.389561
_cell_angle_gamma 104.64449
loop_
_atom_site_label
_atom_site_type_symbol
_atom_site_fract_x
_atom_site_fract_y
_atom_site_fract_z
_atom_type_partial_charge
O0 O 0.10027 0.28879 0.39423 0.0
Cd1 Cd 0.09923 0.30655 0.37557 0.0
Cd2 Cd 0.09966 0.33349 0.40645 0.0
O3 O 0.10341 0.31158 0.41932 0.0
O4 O 0.10792 0.29545 0.35235 0.0
O5 O 0.12176 0.32397 0.36999 0.0
C6 C 0.12107 0.31081 0.35536 0.0
C7 C 0.11456 0.36519 0.42053 0.0
C8 C 0.10245 0.29421 0.4119 0.0
C9 C 0.06725 0.32153 0.3778 0.0
O10 O 0.07465 0.33142 0.39368 0.0
O11 O 0.07498 0.31061 0.36795 0.0
O12 O 0.10251 0.35475 0.42836 0.0
O13 O 0.11886 0.35746 0.40479 0.0
O14 O 0.99524 0.73741 0.66012 0.0
Cd15 Cd 0.00469 0.763 0.67905 0.0
Cd16 Cd 0.01567 0.77723 0.65045 0.0
O17 O 1.00044 0.75106 0.63584 0.0
O18 O 0.99051 0.7618 0.70033 0.0
O19 O 0.99034 0.78208 0.68104 0.0
C20 C 0.98448 0.77523 0.69528 0.0
C21 C 0.01693 0.80313 0.63581 0.0
C22 C 0.99423 0.7362 0.64254 0.0
C23 C 0.04342 0.77518 0.67984 0.0
O24 O 0.04004 0.77795 0.66354 0.0
O25 O 0.03083 0.7702 0.68963 0.0
O26 O 0.02424 0.78965 0.62976 0.0
O27 O 0.00826 0.80178 0.65021 0.0
O28 O 0.63545 0.82042 0.88437 0.0
Cd29 Cd 0.62056 0.82095 0.9066 0.0
Cd30 Cd 0.59657 0.82476 0.87989 0.0
O31 O 0.61299 0.81448 0.86238 0.0
O32 O 0.62808 0.80638 0.92452 0.0
O33 O 0.60128 0.7976 0.9084 0.0
C34 C 0.61238 0.79448 0.92056 0.0
C35 C 0.56812 0.82235 0.86622 0.0
C36 C 0.62926 0.81622 0.86725 0.0
C37 C 0.61441 0.85867 0.9121 0.0
O38 O 0.60598 0.85205 0.89594 0.0
O39 O 0.62055 0.84775 0.92075 0.0
O40 O 0.58221 0.83296 0.86146 0.0
O41 O 0.57002 0.81179 0.87815 0.0
O42 O 0.49905 0.22795 0.161 0.0
Cd43 Cd 0.50719 0.25552 0.17697 0.0
Cd44 Cd 0.51399 0.26479 0.14566 0.0
O45 O 0.49516 0.23917 0.13566 0.0
O46 O 0.49399 0.25642 0.19918 0.0
O47 O 0.49008 0.27144 0.17599 0.0
C48 C 0.48552 0.26671 0.19158 0.0
C49 C 0.51358 0.28971 0.13008 0.0
C50 C 0.49306 0.22505 0.1439 0.0
C51 C 0.54477 0.26672 0.17253 0.0
O52 O 0.53909 0.26361 0.15533 0.0
O53 O 0.53398 0.26709 0.18482 0.0
O54 O 0.51797 0.27456 0.12235 0.0
O55 O 0.50922 0.29083 0.14691 0.0
O56 O 0.07683 0.78773 0.11355 0.0
Cd57 Cd 0.08034 0.81392 0.13144 0.0
Cd58 Cd 0.09724 0.82624 0.10113 0.0
O59 O 0.08772 0.7965 0.08831 0.0
O60 O 0.06559 0.80624 0.15192 0.0
O61 O 0.05917 0.82562 0.13442 0.0
C62 C 0.05506 0.81615 0.14755 0.0
C63 C 0.08969 0.85223 0.08911 0.0
C64 C 0.08053 0.78323 0.09692 0.0
C65 C 0.12066 0.83016 0.1376 0.0
O66 O 0.12008 0.83176 0.12045 0.0
O67 O 0.10621 0.82498 0.14493 0.0
O68 O 0.10122 0.84388 0.08202 0.0
O69 O 0.08215 0.84568 0.10279 0.0
O70 O 0.55821 0.77597 0.41945 0.0
Cd71 Cd 0.54138 0.77392 0.44069 0.0
Cd72 Cd 0.51911 0.78405 0.40603 0.0
O73 O 0.54186 0.77857 0.39445 0.0
O74 O 0.55326 0.76309 0.46047 0.0
O75 O 0.52833 0.74642 0.44321 0.0
C76 C 0.54094 0.74706 0.45579 0.0
C77 C 0.49228 0.78156 0.3866 0.0
C78 C 0.55643 0.77698 0.4022 0.0
C79 C 0.52985 0.81162 0.44591 0.0
O80 O 0.52365 0.80684 0.42871 0.0
O81 O 0.5364 0.8002 0.45378 0.0
O82 O 0.50677 0.79483 0.38685 0.0
O83 O 0.49308 0.76884 0.39656 0.0
O84 O 0.58527 0.28421 0.61545 0.0
Cd85 Cd 0.58854 0.31022 0.63378 0.0
Cd86 Cd 0.60502 0.32321 0.60387 0.0
O87 O 0.59507 0.29385 0.59013 0.0
O88 O 0.57293 0.30245 0.65362 0.0
O89 O 0.5675 0.32214 0.63594 0.0
C90 C 0.56271 0.31252 0.64882 0.0
C91 C 0.59772 0.34988 0.59291 0.0
C92 C 0.58837 0.28021 0.59851 0.0
C93 C 0.62864 0.32662 0.64016 0.0
O94 O 0.62793 0.32781 0.6229 0.0
O95 O 0.61428 0.3218 0.64773 0.0
O96 O 0.60904 0.34149 0.58536 0.0
O97 O 0.59029 0.34304 0.6065 0.0
O98 O 0.02691 0.24091 0.92166 0.0
Cd99 Cd 0.02686 0.26025 0.90354 0.0
Cd100 Cd 0.01423 0.27953 0.93801 0.0
O101 O 0.02075 0.25625 0.94832 0.0
O102 O 0.03995 0.25035 0.88245 0.0
O103 O 0.05086 0.2787 0.90105 0.0
C104 C 0.0529 0.26581 0.8874 0.0
C105 C 0.02281 0.31208 0.95503 0.0
C106 C 0.02498 0.24177 0.93899 0.0
C107 C 0.99011 0.26909 0.90029 0.0
O108 O 0.99213 0.27448 0.91807 0.0
O109 O 1.00243 0.26357 0.89189 0.0
O110 O 0.01033 0.29906 0.95977 0.0
O111 O 0.03123 0.30646 0.94132 0.0
O112 O 0.42083 0.06246 0.26561 0.0
Cd113 Cd 0.41202 0.06409 0.29182 0.0
Cd114 Cd 0.44269 0.06058 0.30166 0.0
O115 O 0.44883 0.06962 0.27736 0.0
O116 O 0.4155 0.09028 0.30806 0.0
O117 O 0.39049 0.07335 0.2903 0.0
C118 C 0.39925 0.08879 0.30189 0.0
C119 C 0.46141 0.07395 0.329 0.0
C120 C 0.43731 0.06694 0.26349 0.0
C121 C 0.41244 0.02689 0.30114 0.0
O122 O 0.42902 0.03213 0.29975 0.0
O123 O 0.40316 0.03876 0.30069 0.0
O124 O 0.46598 0.06308 0.31532 0.0
O125 O 0.44631 0.07798 0.32684 0.0
O126 O 0.31317 0.20004 0.53643 0.0
Cd127 Cd 0.31129 0.17959 0.51229 0.0
Cd128 Cd 0.2996 0.20852 0.49884 0.0
O129 O 0.30798 0.22478 0.52587 0.0
O130 O 0.32153 0.16077 0.52294 0.0
O131 O 0.33373 0.17534 0.50119 0.0
C132 C 0.33423 0.16376 0.5125 0.0
C133 C 0.30735 0.21892 0.47104 0.0
C134 C 0.31185 0.21728 0.53948 0.0
C135 C 0.27276 0.17018 0.49691 0.0
O136 O 0.2755 0.18794 0.49623 0.0
O137 O 0.28564 0.16345 0.50128 0.0
O138 O 0.29678 0.22604 0.4813 0.0
O139 O 0.31436 0.20658 0.47706 0.0
O140 O 0.17069 0.00721 0.73004 0.0
Cd141 Cd 0.19264 0.00727 0.75032 0.0
Cd142 Cd 0.16248 0.0271 0.77506 0.0
O143 O 0.15064 0.01904 0.7459 0.0
O144 O 0.21001 0.99111 0.73828 0.0
O145 O 0.1964 0.9835 0.7619 0.0
C146 C 0.20734 0.9797 0.75006 0.0
C147 C 0.14719 0.02696 0.80453 0.0
C148 C 0.15616 0.0128 0.73019 0.0
C149 C 0.20164 0.05174 0.77036 0.0
O150 O 0.18616 0.04927 0.77618 0.0
O151 O 0.20673 0.03734 0.76164 0.0
O152 O 0.14599 0.03852 0.79336 0.0
O153 O 0.15628 0.01489 0.7989 0.0
O154 O 0.30751 0.93146 0.04077 0.0
Cd155 Cd 0.30754 0.94466 0.01817 0.0
Cd156 Cd 0.31084 0.91185 1.00122 0.0
O157 O 0.30072 0.90212 0.02392 0.0
O158 O 0.30107 0.96816 0.02925 0.0
O159 O 0.28436 0.94616 0.00587 0.0
C160 C 0.28673 0.96215 0.01778 0.0
C161 C 0.30066 0.89411 0.97161 0.0
C162 C 0.30271 0.91337 0.03968 0.0
C163 C 0.34221 0.94527 0.00495 0.0
O164 O 0.33721 0.92714 0.00376 0.0
O165 O 0.33129 0.95529 0.00849 0.0
O166 O 0.30965 0.88794 0.98332 0.0
O167 O 0.29666 0.91019 0.97699 0.0
O168 O 0.30513 0.39162 0.06264 0.0
Cd169 Cd 0.30979 0.41144 0.04512 0.0
Cd170 Cd 0.32006 0.37998 0.0234 0.0
O171 O 0.30999 0.36625 0.04449 0.0
O172 O 0.29747 0.43142 0.05567 0.0
O173 O 0.28926 0.41307 0.02757 0.0
C174 C 0.28668 0.42635 0.0405 0.0
C175 C 0.31394 0.36407 0.99191 0.0
C176 C 0.30543 0.37401 0.05978 0.0
C177 C 0.34832 0.41822 0.03699 0.0
O178 O 0.34444 0.40037 0.02954 0.0
O179 O 0.33628 0.42582 0.04329 0.0
O180 O 0.32418 0.35923 0.00357 0.0
O181 O 0.30649 0.37746 0.99829 0.0
O182 O 0.79587 0.15111 0.04967 0.0
Cd183 Cd 0.79488 0.134 0.02402 0.0
Cd184 Cd 0.79306 0.16392 0.01333 0.0
O185 O 0.80632 0.17749 0.03903 0.0
O186 O 0.80752 0.11459 0.02734 0.0
O187 O 0.8169 0.13782 0.01141 0.0
C188 C 0.81947 0.12338 0.01805 0.0
C189 C 0.80125 0.17617 0.98717 0.0
C190 C 0.80275 0.16919 0.05269 0.0
C191 C 0.75991 0.13237 0.01077 0.0
O192 O 0.76657 0.15049 0.01373 0.0
O193 O 0.77001 0.12126 0.01047 0.0
O194 O 0.79323 0.18477 0.99948 0.0
O195 O 0.80486 0.16051 0.98985 0.0
O196 O 0.19436 0.53623 0.22192 0.0
Cd197 Cd 0.21188 0.53812 0.24444 0.0
Cd198 Cd 0.18751 0.54611 0.26246 0.0
O199 O 0.1719 0.52982 0.23862 0.0
O200 O 0.22629 0.5203 0.23692 0.0
O201 O 0.20652 0.51634 0.25765 0.0
C202 C 0.21798 0.51007 0.248 0.0
C203 C 0.17731 0.54545 0.2913 0.0
C204 C 0.17779 0.53002 0.22284 0.0
C205 C 0.22001 0.57759 0.26135 0.0
O206 O 0.20323 0.57315 0.26159 0.0
O207 O 0.22781 0.56446 0.25714 0.0
O208 O 0.17076 0.55361 0.27944 0.0
O209 O 0.18904 0.5364 0.28641 0.0
O210 O 0.80834 0.89564 0.56922 0.0
Cd211 Cd 0.81227 0.91321 0.54963 0.0
Cd212 Cd 0.82269 0.88157 0.53067 0.0
O213 O 0.81286 0.8692 0.55276 0.0
O214 O 0.79939 0.93322 0.55806 0.0
O215 O 0.79143 0.91233 0.53126 0.0
C216 C 0.78855 0.92642 0.54297 0.0
C217 C 0.81526 0.86546 0.49929 0.0
C218 C 0.80861 0.8781 0.56769 0.0
C219 C 0.85069 0.92008 0.54176 0.0
O220 O 0.84718 0.90193 0.53586 0.0
O221 O 0.83839 0.92779 0.54697 0.0
O222 O 0.82563 0.86031 0.51057 0.0
O223 O 0.80836 0.8792 0.50605 0.0
O224 O 0.94199 0.07364 0.23503 0.0
Cd225 Cd 0.92017 0.07404 0.2524 0.0
Cd226 Cd 0.95446 0.05805 0.27576 0.0
O227 O 0.96428 0.06542 0.24971 0.0
O228 O 0.90167 0.08671 0.24034 0.0
O229 O 0.91664 0.10051 0.26731 0.0
C230 C 0.90505 0.10123 0.25424 0.0
C231 C 0.97178 0.05968 0.30622 0.0
C232 C 0.95748 0.07017 0.2352 0.0
C233 C 0.91358 0.03254 0.26447 0.0
O234 O 0.93005 0.03642 0.27083 0.0
O235 O 0.90739 0.04522 0.2579 0.0
O236 O 0.97212 0.04745 0.29122 0.0
O237 O 0.96269 0.0718 0.30393 0.0
O238 O 0.29299 0.64813 0.53782 0.0
Cd239 Cd 0.29247 0.62918 0.5135 0.0
Cd240 Cd 0.29049 0.65738 0.49821 0.0
O241 O 0.3006 0.67319 0.52449 0.0
O242 O 0.30554 0.61083 0.51934 0.0
O243 O 0.31482 0.63207 0.50132 0.0
C244 C 0.31761 0.61877 0.5097 0.0
C245 C 0.29999 0.67079 0.47287 0.0
C246 C 0.29801 0.66624 0.53911 0.0
C247 C 0.2574 0.62496 0.49639 0.0
O248 O 0.26395 0.64257 0.49569 0.0
O249 O 0.26758 0.61494 0.5006 0.0
O250 O 0.29063 0.67831 0.48436 0.0
O251 O 0.30421 0.65549 0.47567 0.0
O252 O 0.44407 0.57563 0.73994 0.0
Cd253 Cd 0.42142 0.57664 0.75596 0.0
Cd254 Cd 0.45549 0.55995 0.78141 0.0
O255 O 0.46578 0.56724 0.75561 0.0
O256 O 0.40333 0.589 0.74244 0.0
O257 O 0.41733 0.60347 0.76964 0.0
C258 C 0.40622 0.60385 0.75595 0.0
C259 C 0.47241 0.55999 0.81176 0.0
C260 C 0.45945 0.57189 0.74079 0.0
C261 C 0.41449 0.53504 0.76818 0.0
O262 O 0.43075 0.53896 0.7753 0.0
O263 O 0.40852 0.54771 0.7613 0.0
O264 O 0.47269 0.54824 0.7964 0.0
O265 O 0.46355 0.57243 0.80999 0.0
O266 O 0.69023 0.03899 0.72012 0.0
Cd267 Cd 0.70921 0.04023 0.74104 0.0
Cd268 Cd 0.68508 0.04726 0.76067 0.0
O269 O 0.66863 0.03081 0.7374 0.0
O270 O 0.72304 0.0232 0.72968 0.0
O271 O 0.70592 0.01721 0.75244 0.0
C272 C 0.7159 0.01167 0.74027 0.0
C273 C 0.67485 0.04855 0.78978 0.0
C274 C 0.67385 0.03201 0.72146 0.0
C275 C 0.71717 0.07922 0.75796 0.0
O276 O 0.70051 0.07414 0.75895 0.0
O277 O 0.72541 0.06654 0.75344 0.0
O278 O 0.66845 0.05596 0.77718 0.0
O279 O 0.68634 0.03896 0.78546 0.0
O280 O 0.80951 0.70192 0.04243 0.0
Cd281 Cd 0.80818 0.68345 0.017 0.0
Cd282 Cd 0.79678 0.7121 0.00558 0.0
O283 O 0.80527 0.72748 0.03277 0.0
O284 O 0.81832 0.66296 0.02422 0.0
O285 O 0.83134 0.68206 0.00603 0.0
C286 C 0.8314 0.66817 0.0147 0.0
C287 C 0.80594 0.72223 0.97828 0.0
C288 C 0.8086 0.71932 0.04604 0.0
C289 C 0.76981 0.67417 1.00129 0.0
O290 O 0.77229 0.69217 1.0022 0.0
O291 O 0.78289 0.66741 0.00474 0.0
O292 O 0.79551 0.73003 0.98817 0.0
O293 O 0.81206 0.70936 0.9845 0.0
O294 O 0.92507 0.57169 0.77344 0.0
Cd295 Cd 0.91231 0.57162 0.79765 0.0
Cd296 Cd 0.94156 0.56593 0.80992 0.0
O297 O 0.95178 0.57787 0.78842 0.0
O298 O 0.91364 0.59659 0.81525 0.0
O299 O 0.89138 0.58113 0.79315 0.0
C300 C 0.8983 0.59546 0.80676 0.0
C301 C 0.959 0.56992 0.83762 0.0
C302 C 0.94192 0.57606 0.77343 0.0
C303 C 0.90935 0.53309 0.80362 0.0
O304 O 0.92607 0.53807 0.80335 0.0
O305 O 0.90065 0.54554 0.80391 0.0
O306 O 0.96231 0.56064 0.82218 0.0
O307 O 0.94655 0.57863 0.83717 0.0
O308 O 0.81195 0.43577 0.54793 0.0
Cd309 Cd 0.81089 0.4482 0.52486 0.0
Cd310 Cd 0.81177 0.41423 0.50822 0.0
O311 O 0.80192 0.40625 0.5317 0.0
O312 O 0.80545 0.47256 0.53517 0.0
O313 O 0.78747 0.44979 0.51326 0.0
C314 C 0.7907 0.46643 0.52433 0.0
C315 C 0.80179 0.39454 0.4793 0.0
C316 C 0.80609 0.41783 0.54737 0.0
C317 C 0.84429 0.44594 0.51028 0.0
O318 O 0.83845 0.42805 0.51003 0.0
O319 O 0.83414 0.45692 0.51354 0.0
O320 O 0.81027 0.38911 0.49204 0.0
O321 O 0.79794 0.41086 0.48334 0.0
O322 O 0.67166 0.50522 0.23547 0.0
Cd323 Cd 0.69344 0.50583 0.25627 0.0
Cd324 Cd 0.66302 0.52506 0.28005 0.0
O325 O 0.6513 0.51684 0.25092 0.0
O326 O 0.71095 0.48942 0.24502 0.0
O327 O 0.69695 0.48239 0.26858 0.0
C328 C 0.70804 0.4783 0.25705 0.0
C329 C 0.6474 0.52454 0.30922 0.0
C330 C 0.65702 0.51059 0.23535 0.0
C331 C 0.70194 0.55041 0.27564 0.0
O332 O 0.68638 0.54767 0.2813 0.0
O333 O 0.70735 0.53611 0.26722 0.0
O334 O 0.64648 0.53637 0.29826 0.0
O335 O 0.65643 0.51243 0.30354 0.0
Tb336 Tb 0.03551 0.03556 0.01105 0.0
C337 C 0.08787 0.10596 0.06051 0.0
C338 C 0.09235 0.13014 0.04142 0.0
C339 C 0.09596 0.13996 0.07525 0.0
C340 C 0.08771 0.11063 0.04315 0.0
C341 C 0.09257 0.12054 0.07681 0.0
C342 C 0.09584 0.14476 0.05755 0.0
C343 C 0.09278 0.09585 0.09467 0.0
N344 N 0.08507 0.0871 0.06133 0.0
C345 C 0.08827 0.08195 0.07808 0.0
C346 C 0.09463 0.11521 0.09408 0.0
Tb347 Tb 0.07739 0.06512 0.03348 0.0
N348 N 0.08484 0.09608 0.02803 0.0
C349 C 0.08838 0.10027 0.01089 0.0
C350 C 0.09435 0.13436 0.02364 0.0
C351 C 0.09276 0.11936 0.00837 0.0
H352 H 0.08689 0.06706 0.0788 0.0
H353 H 0.09489 0.12246 0.99463 0.0
H354 H 0.09922 0.15982 0.0565 0.0
H355 H 0.09483 0.0916 0.10789 0.0
H356 H 0.08727 0.08897 0.99885 0.0
H357 H 0.0192 0.97865 0.05073 0.0
H358 H 0.09788 0.14914 0.02169 0.0
H359 H 0.0234 0.03277 0.96626 0.0
H360 H 0.02635 0.01193 0.04617 0.0
H361 H 0.01471 0.00793 0.93739 0.0
H362 H 0.09941 0.15138 0.08761 0.0
H363 H 0.01626 0.95178 0.0239 0.0
H364 H 0.01446 0.94074 0.98909 0.0
H365 H 0.09828 0.12597 0.10693 0.0
H366 H 0.01305 0.94876 0.95784 0.0
N367 N 0.02845 1.00466 0.01689 0.0
C368 C 0.02518 1.00061 0.03416 0.0
C369 C 0.01954 0.96649 0.02176 0.0
C370 C 0.02119 0.97051 0.00388 0.0
C371 C 0.02109 0.9816 0.0369 0.0
C372 C 0.02549 0.98995 1.00191 0.0
H373 H 0.01254 0.9738 0.93841 0.0
N374 N 0.02692 0.01315 0.98358 0.0
C375 C 0.01763 1.00391 0.95053 0.0
C376 C 0.02467 0.99439 0.98451 0.0
C377 C 0.02258 0.01798 0.967 0.0
C378 C 0.01652 0.98469 0.95114 0.0
C379 C 0.01959 0.97964 0.96836 0.0
O380 O 0.01478 0.04564 1.00041 0.0
O381 O 0.05206 0.0652 0.01995 0.0
O382 O 0.05819 0.07055 0.05402 0.0
O383 O 0.03416 0.04403 0.04197 0.0
O384 O 0.03843 0.05724 0.99373 0.0
O385 O 0.01128 0.03016 0.02286 0.0
O386 O 0.09812 0.05569 0.04507 0.0
O387 O 0.061 0.03559 0.02413 0.0
O388 O 0.05421 0.03075 0.98982 0.0
O389 O 0.07909 0.05631 0.00252 0.0
O390 O 0.07439 0.04296 0.05038 0.0
O391 O 0.10187 0.07047 0.02209 0.0
C392 C 0.04887 0.07154 0.00529 0.0
C393 C 0.98585 0.02788 0.00267 0.0
C394 C 0.95595 0.02971 0.99398 0.0
C395 C 0.97356 0.03865 1.00166 0.0
C396 C 0.95068 0.00969 0.98714 0.0
C397 C 0.98069 0.00793 0.99561 0.0
C398 C 0.9631 0.99888 0.98782 0.0
C399 C 0.04257 0.05867 0.05585 0.0
C400 C 1.0038 0.03818 0.01137 0.0
C401 C 0.01673 0.9603 0.97009 0.0
C402 C 0.01754 0.95574 0.98787 0.0
C403 C 0.0642 0.02882 0.03846 0.0
C404 C 0.12734 0.07243 0.04214 0.0
C405 C 0.14018 0.06224 0.03949 0.0
C406 C 0.15799 0.0708 0.04686 0.0
C407 C 0.16269 0.08972 0.0575 0.0
C408 C 0.1321 0.09131 0.05263 0.0
C409 C 0.14976 0.09988 0.06036 0.0
C410 C 0.07021 0.04218 0.98831 0.0
C411 C 0.10915 0.06253 0.03384 0.0
H412 H 0.97762 0.05405 0.00739 0.0
H413 H 0.93705 1.00248 0.98129 0.0
H414 H 0.99011 0.9994 0.99627 0.0
H415 H 0.95905 0.98347 0.98247 0.0
H416 H 0.13617 0.04748 0.0317 0.0
H417 H 0.17635 0.09677 0.06331 0.0
H418 H 0.12226 0.09936 0.05481 0.0
H419 H 0.15348 0.11447 0.06848 0.0
Tb420 Tb 0.3098 0.79025 0.24378 0.0
C421 C 0.29908 0.85929 0.29863 0.0
C422 C 0.32852 0.87519 0.31456 0.0
C423 C 0.30628 0.89304 0.31444 0.0
C424 C 0.31592 0.85844 0.30431 0.0
C425 C 0.29411 0.87671 0.30348 0.0
C426 C 0.32343 0.89224 0.3201 0.0
C427 C 0.26508 0.86049 0.28725 0.0
N428 N 0.28766 0.84316 0.2881 0.0
C429 C 0.27045 0.84353 0.28322 0.0
C430 C 0.27699 0.87721 0.29738 0.0
Tb431 Tb 0.29648 0.81483 0.28567 0.0
N432 N 0.32032 0.84166 0.29865 0.0
C433 C 0.33801 0.84188 0.30089 0.0
C434 C 0.34607 0.8746 0.31833 0.0
C435 C 0.35091 0.858 0.31102 0.0
H436 H 0.26034 0.83063 0.27678 0.0
H437 H 0.36472 0.85773 0.31275 0.0
H438 H 0.33286 0.90508 0.3282 0.0
H439 H 0.25154 0.86047 0.28302 0.0
H440 H 0.3429 0.83035 0.29409 0.0
H441 H 0.24099 0.75019 0.21562 0.0
H442 H 0.35614 0.88716 0.32597 0.0
H443 H 0.34439 0.77205 0.25352 0.0
H444 H 0.26341 0.7767 0.23452 0.0
H445 H 0.35142 0.74132 0.24846 0.0
H446 H 0.30262 0.90643 0.31845 0.0
H447 H 0.24811 0.71968 0.20328 0.0
H448 H 0.26977 0.69986 0.20295 0.0
H449 H 0.27271 0.89029 0.30077 0.0
H450 H 0.29925 0.69695 0.2135 0.0
N451 N 0.28532 0.76416 0.23031 0.0
C452 C 0.26788 0.76482 0.22784 0.0
C453 C 0.25856 0.73195 0.21082 0.0
C454 C 0.27569 0.73036 0.2151 0.0
C455 C 0.25455 0.74915 0.21764 0.0
C456 C 0.28888 0.74683 0.22503 0.0
H457 H 0.3293 0.71202 0.23111 0.0
N458 N 0.31714 0.76099 0.24149 0.0
C459 C 0.33825 0.74204 0.24372 0.0
C460 C 0.30525 0.74512 0.23113 0.0
C461 C 0.33386 0.75962 0.24702 0.0
C462 C 0.32582 0.72562 0.23381 0.0
C463 C 0.30918 0.72703 0.22716 0.0
O464 O 0.33667 0.79692 0.23946 0.0
O465 O 0.31458 0.81635 0.26487 0.0
O466 O 0.27969 0.81577 0.26008 0.0
O467 O 0.28879 0.80143 0.23219 0.0
O468 O 0.31494 0.81912 0.23737 0.0
O469 O 0.31619 0.78769 0.21597 0.0
O470 O 0.2699 0.80656 0.2911 0.0
O471 O 0.29194 0.78874 0.26469 0.0
O472 O 0.32702 0.79015 0.26925 0.0
O473 O 0.31839 0.80488 0.29718 0.0
O474 O 0.29215 0.78616 0.29232 0.0
O475 O 0.29119 0.81825 0.31381 0.0
C476 C 0.31678 0.82841 0.25432 0.0
C477 C 0.34345 0.81085 0.21357 0.0
C478 C 0.34495 0.83505 0.19429 0.0
C479 C 0.33519 0.81897 0.20076 0.0
C480 C 0.36309 0.84305 0.20088 0.0
C481 C 0.36167 0.81888 0.21977 0.0
C482 C 0.37137 0.83494 0.21353 0.0
C483 C 0.27839 0.81093 0.24144 0.0
C484 C 0.33327 0.79473 0.22145 0.0
C485 C 0.29641 0.71087 0.21671 0.0
C486 C 0.2797 0.71255 0.21061 0.0
C487 C 0.28967 0.77684 0.27538 0.0
C488 C 0.26477 0.79554 0.31894 0.0
C489 C 0.27389 0.78516 0.32851 0.0
C490 C 0.26437 0.77022 0.3367 0.0
C491 C 0.24567 0.76596 0.33539 0.0
C492 C 0.24611 0.79112 0.31792 0.0
C493 C 0.23664 0.77641 0.3261 0.0
C494 C 0.32887 0.79561 0.28783 0.0
C495 C 0.27408 0.81045 0.30915 0.0
H496 H 0.32111 0.81303 0.19604 0.0
H497 H 0.37096 0.8553 0.19595 0.0
H498 H 0.36836 0.81287 0.22967 0.0
H499 H 0.38537 0.84109 0.21846 0.0
H500 H 0.2883 0.78841 0.32929 0.0
H501 H 0.23803 0.75476 0.34185 0.0
H502 H 0.23885 0.79896 0.3106 0.0
H503 H 0.22225 0.7731 0.32524 0.0
Tb504 Tb 0.58234 0.04892 0.51956 0.0
C505 C 0.51992 0.00813 0.55662 0.0
C506 C 0.50416 0.98027 0.53316 0.0
C507 C 0.5038 0.97892 0.56611 0.0
C508 C 0.5151 0.99935 0.5381 0.0
C509 C 0.51403 0.99823 0.57089 0.0
C510 C 0.49888 0.96994 0.54726 0.0
C511 C 0.52748 0.02771 0.59336 0.0
N512 N 0.52967 0.02682 0.5606 0.0
C513 C 0.53294 0.03693 0.57868 0.0
C514 C 0.51817 0.0082 0.58948 0.0
Tb515 Tb 0.53856 0.04046 0.53562 0.0
N516 N 0.5203 0.00992 0.52497 0.0
C517 C 0.51385 1.00267 0.5066 0.0
C518 C 0.49842 0.97238 0.51426 0.0
C519 C 0.50305 0.98376 0.50096 0.0
H520 H 0.54022 0.05198 0.58187 0.0
H521 H 0.49838 0.97794 0.48633 0.0
H522 H 0.49062 0.9552 0.54374 0.0
H523 H 0.53048 0.03565 0.60766 0.0
H524 H 0.51736 0.01118 0.49609 0.0
H525 H 0.61972 0.11433 0.56715 0.0
H526 H 0.49005 0.95775 0.50985 0.0
H527 H 0.58479 0.03417 0.47437 0.0
H528 H 0.60161 0.0807 0.55854 0.0
H529 H 0.5967 0.0483 0.44815 0.0
H530 H 0.49926 0.97098 0.57687 0.0
H531 H 0.62918 0.13276 0.54255 0.0
H532 H 0.63068 0.1329 0.50829 0.0
H533 H 0.51391 1.00111 0.60087 0.0
H534 H 0.62449 0.11481 0.47573 0.0
N535 N 0.59998 0.07997 0.52919 0.0
C536 C 0.60553 0.08841 0.54756 0.0
C537 C 0.62111 0.11796 0.53865 0.0
C538 C 0.61648 0.10883 0.51987 0.0
C539 C 0.61585 0.10758 0.55256 0.0
C540 C 0.60586 0.08958 0.51559 0.0
H541 H 0.6122 0.08307 0.45319 0.0
N542 N 0.59295 0.06075 0.49424 0.0
C543 C 0.59823 0.05731 0.46191 0.0
C544 C 0.60227 0.07957 0.4974 0.0
C545 C 0.59144 0.04936 0.47688 0.0
C546 C 0.60692 0.07695 0.4648 0.0
C547 C 0.60932 0.08829 0.48279 0.0
O548 O 0.59486 0.0272 0.50986 0.0
O549 O 0.55826 0.02792 0.52301 0.0
O550 O 0.55503 0.0287 0.55289 0.0
O551 O 0.58268 0.04828 0.5495 0.0
O552 O 0.56962 0.0222 0.49919 0.0
O553 O 0.60627 0.04862 0.53447 0.0
O554 O 0.52521 0.06005 0.54867 0.0
O555 O 0.56231 0.06173 0.53171 0.0
O556 O 0.56627 0.05925 0.5004 0.0
O557 O 0.53764 0.0431 0.50603 0.0
O558 O 0.55121 0.06719 0.55582 0.0
O559 O 0.51496 0.04241 0.52151 0.0
C560 C 0.55667 0.01539 0.50823 0.0
C561 C 0.62604 0.03498 0.51663 0.0
C562 C 0.65193 0.02193 0.51335 0.0
C563 C 0.63549 0.02174 0.52048 0.0
C564 C 0.65885 0.03556 0.50254 0.0
C565 C 0.63342 0.04869 0.5061 0.0
C566 C 0.64971 0.04894 0.49909 0.0
C567 C 0.57214 0.03656 0.55849 0.0
C568 C 0.60821 0.03376 0.52287 0.0
C569 C 0.61913 0.10776 0.48678 0.0
C570 C 0.62266 0.11805 0.50531 0.0
C571 C 0.56364 0.07442 0.54636 0.0
C572 C 0.4941 0.05214 0.54054 0.0
C573 C 0.4831 0.06326 0.53505 0.0
C574 C 0.46558 0.06042 0.54009 0.0
C575 C 0.4594 0.0465 0.55092 0.0
C576 C 0.48758 0.03834 0.55127 0.0
C577 C 0.47035 0.0356 0.55646 0.0
C578 C 0.54871 0.05343 0.49623 0.0
C579 C 0.51234 0.05523 0.5351 0.0
H580 H 0.62991 0.01109 0.52862 0.0
H581 H 0.67146 0.03598 0.49693 0.0
H582 H 0.62657 0.0591 0.50317 0.0
H583 H 0.65523 0.05949 0.49086 0.0
H584 H 0.48809 0.07386 0.52666 0.0
H585 H 0.44613 0.04417 0.55529 0.0
H586 H 0.49579 0.02974 0.5557 0.0
H587 H 0.46545 0.02498 0.56483 0.0
Tb588 Tb 0.28528 0.29608 0.76085 0.0
C589 C 0.34314 0.26827 0.79866 0.0
C590 C 0.35418 0.29255 0.82677 0.0
C591 C 0.35532 0.25956 0.82622 0.0
C592 C 0.34608 0.28697 0.80815 0.0
C593 C 0.34842 0.2545 0.80728 0.0
C594 C 0.35816 0.27858 0.83598 0.0
C595 C 0.34244 0.23293 0.77713 0.0
N596 N 0.33696 0.2642 0.78029 0.0
C597 C 0.33738 0.24711 0.76925 0.0
C598 C 0.34759 0.23647 0.79633 0.0
Tb599 Tb 0.329 0.28827 0.7684 0.0
N600 N 0.34254 0.30005 0.79852 0.0
C601 C 0.34839 0.31932 0.80629 0.0
C602 C 0.35886 0.3121 0.83523 0.0
C603 C 0.35628 0.32558 0.8248 0.0
H604 H 0.33336 0.24417 0.75441 0.0
H605 H 0.36032 0.34081 0.83102 0.0
H606 H 0.36417 0.28253 0.85036 0.0
H607 H 0.34229 0.21927 0.76842 0.0
H608 H 0.3465 0.33004 0.7986 0.0
H609 H 0.25601 0.2418 0.6987 0.0
H610 H 0.36507 0.31699 0.84952 0.0
H611 H 0.27996 0.33987 0.77327 0.0
H612 H 0.26882 0.25352 0.73138 0.0
H613 H 0.27099 0.36407 0.75806 0.0
H614 H 0.35921 0.24912 0.83319 0.0
H615 H 0.25135 0.26481 0.67916 0.0
H616 H 0.25167 0.2989 0.67723 0.0
H617 H 0.35159 0.22551 0.80239 0.0
H618 H 0.2557 0.33248 0.69352 0.0
N619 N 0.27227 0.2833 0.73064 0.0
C620 C 0.26694 0.26391 0.72326 0.0
C621 C 0.2571 0.27013 0.69358 0.0
C622 C 0.26121 0.28977 0.70161 0.0
C623 C 0.25963 0.2571 0.70459 0.0
C624 C 0.26875 0.2959 0.72041 0.0
H625 H 0.26239 0.35681 0.72389 0.0
N626 N 0.27699 0.31931 0.74788 0.0
C627 C 0.27114 0.35028 0.74979 0.0
C628 C 0.27121 0.31469 0.7294 0.0
C629 C 0.27618 0.33652 0.75836 0.0
C630 C 0.26638 0.34617 0.73049 0.0
C631 C 0.26596 0.32801 0.7201 0.0
O632 O 0.26886 0.30432 0.78106 0.0
O633 O 0.30633 0.29492 0.78093 0.0
O634 O 0.31017 0.26317 0.77601 0.0
O635 O 0.28308 0.26522 0.7622 0.0
O636 O 0.29434 0.31692 0.78695 0.0
O637 O 0.26006 0.27722 0.7621 0.0
O638 O 0.34504 0.2804 0.74765 0.0
O639 O 0.30806 0.28973 0.74822 0.0
O640 O 0.30432 0.3218 0.7543 0.0
O641 O 0.33136 0.31937 0.76793 0.0
O642 O 0.31946 0.26734 0.74244 0.0
O643 O 0.35444 0.30685 0.76753 0.0
C644 C 0.30606 0.30937 0.79323 0.0
C645 C 0.23769 0.29202 0.77297 0.0
C646 C 0.20785 0.29086 0.78313 0.0
C647 C 0.22504 0.28784 0.7859 0.0
C648 C 0.20398 0.29872 0.76764 0.0
C649 C 0.233 0.29929 0.75749 0.0
C650 C 0.21639 0.30279 0.75498 0.0
C651 C 0.29291 0.25552 0.76999 0.0
C652 C 0.25574 0.28894 0.7755 0.0
C653 C 0.25957 0.32239 0.70102 0.0
C654 C 0.25725 0.30327 0.69175 0.0
C655 C 0.30809 0.27517 0.73592 0.0
C656 C 0.37619 0.2915 0.75599 0.0
C657 C 0.38879 0.29557 0.74306 0.0
C658 C 0.40563 0.2917 0.74541 0.0
C659 C 0.40921 0.28307 0.76043 0.0
C660 C 0.38059 0.28354 0.77109 0.0
C661 C 0.39684 0.27913 0.77314 0.0
C662 C 0.32157 0.32937 0.76051 0.0
C663 C 0.35847 0.29535 0.75373 0.0
H664 H 0.22844 0.28194 0.79776 0.0
H665 H 0.19125 0.30177 0.76525 0.0
H666 H 0.24218 0.30226 0.74727 0.0
H667 H 0.21305 0.30863 0.74306 0.0
H668 H 0.38564 0.30202 0.73151 0.0
H669 H 0.42167 0.27932 0.76241 0.0
H670 H 0.3715 0.28073 0.78136 0.0
H671 H 0.39992 0.27271 0.78473 0.0
Tb672 Tb 0.06039 0.06768 0.53325 0.0
C673 C 0.08137 0.00995 0.47272 0.0
C674 C 0.05775 1.00166 0.44733 0.0
C675 C 0.08734 0.99917 0.44088 0.0
C676 C 0.064 0.00837 0.46648 0.0
C677 C 0.0932 1.00497 0.46008 0.0
C678 C 0.06962 0.99752 0.43451 0.0
C679 C 0.11514 0.01008 0.48643 0.0
N680 N 0.08638 0.01535 0.49138 0.0
C681 C 0.10291 0.01484 0.49841 0.0
C682 C 0.11036 1.00538 0.46716 0.0
Tb683 Tb 0.06541 0.02308 0.50999 0.0
N684 N 0.05294 0.01225 0.47936 0.0
C685 C 0.03503 0.00818 0.47402 0.0
C686 C 0.03964 0.99866 0.44174 0.0
C687 C 0.02819 1.00164 0.4552 0.0
H688 H 0.10699 0.01841 0.51321 0.0
H689 H 0.01407 0.99898 0.45112 0.0
H690 H 0.06511 0.99251 0.41974 0.0
H691 H 0.12828 0.01007 0.4921 0.0
H692 H 0.02588 0.01035 0.48407 0.0
H693 H 0.11315 0.09085 0.59065 0.0
H694 H 0.03431 0.99355 0.42717 0.0
H695 H 0.01841 0.07055 0.53155 0.0
H696 H 0.10059 0.08014 0.55779 0.0
H697 H 0.99729 0.07748 0.55374 0.0
H698 H 0.09627 0.99543 0.43093 0.0
H699 H 0.09351 0.09553 0.6154 0.0
H700 H 0.06285 0.0959 0.62398 0.0
H701 H 0.11985 1.00163 0.45792 0.0
H702 H 0.03129 0.09233 0.61393 0.0
N703 N 0.07369 0.07789 0.56352 0.0
C704 C 0.09169 0.08196 0.56828 0.0
C705 C 0.08783 0.09068 0.60092 0.0
C706 C 0.06959 0.08754 0.59593 0.0
C707 C 0.09896 0.08811 0.587 0.0
C708 C 0.06288 0.08118 0.57688 0.0
H709 H 0.00676 0.08565 0.58775 0.0
N710 N 0.03967 0.07404 0.55272 0.0
C711 C 0.01072 0.07793 0.55888 0.0
C712 C 0.04523 0.07921 0.57128 0.0
C713 C 0.02279 0.07403 0.54632 0.0
C714 C 0.0161 0.08249 0.57806 0.0
C715 C 0.03362 0.08347 0.58448 0.0
O716 O 0.05277 0.08883 0.52125 0.0
O717 O 0.05879 0.0492 0.50572 0.0
O718 O 0.08615 0.04475 0.50096 0.0
O719 O 0.08779 0.06986 0.52601 0.0
O720 O 0.03913 0.06246 0.51017 0.0
O721 O 0.07845 0.09527 0.53705 0.0
O722 O 0.07198 1.00165 0.5224 0.0
O723 O 0.06725 0.04159 0.5377 0.0
O724 O 0.03977 0.04559 0.54193 0.0
O725 O 0.03768 0.0216 0.51587 0.0
O726 O 0.08696 0.02869 0.53273 0.0
O727 O 0.04614 0.9965 0.50711 0.0
C728 C 0.04484 0.05166 0.49747 0.0
C729 C 0.06596 0.12131 0.53487 0.0
C730 C 0.0679 0.15374 0.52943 0.0
C731 C 0.07054 0.1353 0.52388 0.0
C732 C 0.06077 0.15797 0.54644 0.0
C733 C 0.05893 0.12577 0.55177 0.0
C734 C 0.0564 0.14408 0.55752 0.0
C735 C 0.09443 0.06186 0.51132 0.0
C736 C 0.0676 0.1019 0.52755 0.0
C737 C 0.04002 0.08909 0.60355 0.0
C738 C 0.05798 0.09112 0.60927 0.0
C739 C 0.08148 0.03935 0.54571 0.0
C740 C 0.05687 0.96952 0.50956 0.0
C741 C 0.053 0.9569 0.52185 0.0
C742 C 0.05383 0.9378 0.5168 0.0
C743 C 0.05815 0.93122 0.49885 0.0
C744 C 0.06138 0.96306 0.49175 0.0
C745 C 0.06192 0.94386 0.4864 0.0
C746 C 0.03097 0.02931 0.53063 0.0
C747 C 0.05662 0.98939 0.5165 0.0
H748 H 0.07615 0.13172 0.51092 0.0
H749 H 0.05828 0.17188 0.55104 0.0
H750 H 0.05524 0.11512 0.56036 0.0
H751 H 0.05084 0.14745 0.57052 0.0
H752 H 0.04933 0.96208 0.53552 0.0
H753 H 0.0589 0.91651 0.49461 0.0
H754 H 0.06449 0.97275 0.48211 0.0
H755 H 0.06541 0.93882 0.47266 0.0
Tb756 Tb 0.32874 0.80963 0.74893 0.0
C757 C 0.28064 0.75011 0.78504 0.0
C758 C 0.2875 0.72018 0.77259 0.0
C759 C 0.27644 0.72466 0.80299 0.0
C760 C 0.28692 0.739 0.77116 0.0
C761 C 0.27495 0.74295 0.80096 0.0
C762 C 0.28273 0.71329 0.78882 0.0
C763 C 0.26526 0.77165 0.81078 0.0
N764 N 0.27922 0.76759 0.78241 0.0
C765 C 0.27109 0.77814 0.79476 0.0
C766 C 0.2674 0.75409 0.81402 0.0
Tb767 Tb 0.28905 0.77686 0.75558 0.0
N768 N 0.2909 0.74599 0.75551 0.0
C769 C 0.29405 0.73414 0.74009 0.0
C770 C 0.29203 0.70854 0.75732 0.0
C771 C 0.29499 0.71544 0.74088 0.0
H772 H 0.26926 0.79173 0.79261 0.0
H773 H 0.29803 0.70638 0.72879 0.0
H774 H 0.28326 0.69896 0.79027 0.0
H775 H 0.25912 0.78023 0.82062 0.0
H776 H 0.29633 0.73917 0.72722 0.0
H777 H 0.31888 0.87829 0.78214 0.0
H778 H 0.29267 0.69402 0.75787 0.0
H779 H 0.35012 0.79978 0.71237 0.0
H780 H 0.32107 0.8454 0.78068 0.0
H781 H 0.36033 0.81436 0.68568 0.0
H782 H 0.27229 0.71896 0.81519 0.0
H783 H 0.32358 0.89344 0.75458 0.0
H784 H 0.33247 0.89152 0.722 0.0
H785 H 0.26281 0.74908 0.82641 0.0
H786 H 0.34382 0.87403 0.69552 0.0
N787 N 0.32655 0.84094 0.75214 0.0
C788 C 0.3233 0.85148 0.76842 0.0
C789 C 0.32455 0.8788 0.75378 0.0
C790 C 0.32906 0.86853 0.7376 0.0
C791 C 0.32198 0.87034 0.76937 0.0
C792 C 0.33007 0.84948 0.73729 0.0
H793 H 0.35478 0.84544 0.6821 0.0
N794 N 0.33839 0.82208 0.72359 0.0
C795 C 0.35342 0.82156 0.69583 0.0
C796 C 0.33625 0.83966 0.72243 0.0
C797 C 0.34761 0.81335 0.71102 0.0
C798 C 0.35019 0.83906 0.69381 0.0
C799 C 0.34186 0.84856 0.70743 0.0
O800 O 0.3548 0.80649 0.75024 0.0
O801 O 0.31774 0.78086 0.75517 0.0
O802 O 0.30526 0.78453 0.7824 0.0
O803 O 0.32278 0.81368 0.77804 0.0
O804 O 0.33616 0.7831 0.73678 0.0
O805 O 0.34786 0.82803 0.77028 0.0
O806 O 0.26257 0.77878 0.7531 0.0
O807 O 0.29998 0.80547 0.74887 0.0
O808 O 0.31337 0.80066 0.72141 0.0
O809 O 0.29493 0.77205 0.7265 0.0
O810 O 0.28125 0.80332 0.76678 0.0
O811 O 0.27072 0.75696 0.73457 0.0
C812 C 0.3268 0.77097 0.74548 0.0
C813 C 0.37779 0.83397 0.76362 0.0
C814 C 0.40983 0.8436 0.77274 0.0
C815 C 0.39269 0.83218 0.77399 0.0
C816 C 0.41176 0.85719 0.76107 0.0
C817 C 0.37985 0.84764 0.75216 0.0
C818 C 0.39681 0.85923 0.75093 0.0
C819 C 0.31631 0.80166 0.78897 0.0
C820 C 0.36053 0.82063 0.7645 0.0
C821 C 0.33982 0.86704 0.70704 0.0
C822 C 0.33337 0.877 0.72212 0.0
C823 C 0.29074 0.81539 0.7582 0.0
C824 C 0.24092 0.74952 0.74162 0.0
C825 C 0.22473 0.75241 0.73532 0.0
C826 C 0.20851 0.73977 0.73752 0.0
C827 C 0.20865 0.72414 0.7462 0.0
C828 C 0.24092 0.73367 0.74996 0.0
C829 C 0.22482 0.72108 0.75228 0.0
C830 C 0.30161 0.78376 0.71531 0.0
C831 C 0.25745 0.76363 0.73971 0.0
H832 H 0.39084 0.82178 0.78307 0.0
H833 H 0.42479 0.86604 0.75954 0.0
H834 H 0.36848 0.84928 0.74413 0.0
H835 H 0.3984 0.86967 0.74195 0.0
H836 H 0.22476 0.76476 0.72901 0.0
H837 H 0.19628 0.71422 0.74807 0.0
H838 H 0.25325 0.73099 0.75466 0.0
H839 H 0.22488 0.70894 0.75882 0.0
Tb840 Tb 0.56153 0.03963 0.05762 0.0
C841 C 0.5161 0.05852 0.99468 0.0
C842 C 0.48855 0.03307 0.98848 0.0
C843 C 0.48891 0.06469 0.98232 0.0
C844 C 0.50683 0.03992 0.99518 0.0
C845 C 0.50736 0.07096 0.9877 0.0
C846 C 0.47951 0.04574 0.98267 0.0
C847 C 0.53605 0.09365 0.98908 0.0
N848 N 0.534 0.06385 0.99956 0.0
C849 C 0.54412 0.08079 0.99584 0.0
C850 C 0.51756 0.08892 0.98538 0.0
Tb851 Tb 0.54594 0.04133 0.01003 0.0
N852 N 0.51606 0.02804 1.00067 0.0
C853 C 0.508 0.00872 0.99839 0.0
C854 C 0.48011 0.0135 0.98695 0.0
C855 C 0.48995 1.00123 0.99164 0.0
H856 H 0.55845 0.08473 0.99814 0.0
H857 H 0.48364 0.98597 0.99012 0.0
H858 H 0.46542 0.04082 0.97776 0.0
H859 H 0.54414 0.10719 0.98662 0.0
H860 H 0.51532 0.99887 1.00174 0.0
H861 H 0.59157 0.11113 0.1011 0.0
H862 H 0.46616 0.00762 0.98162 0.0
H863 H 0.5763 1.00053 0.05904 0.0
H864 H 0.56681 0.08316 0.08723 0.0
H865 H 0.60493 0.99318 0.06467 0.0
H866 H 0.48194 0.07412 0.97713 0.0
H867 H 0.62264 0.109 0.10011 0.0
H868 H 0.64334 0.08794 0.09355 0.0
H869 H 0.51136 0.09885 0.98 0.0
H870 H 0.64696 0.05521 0.0843 0.0
N871 N 0.58329 0.06589 0.07522 0.0
C872 C 0.58015 0.08218 0.0854 0.0
C873 C 0.61174 0.09681 0.09329 0.0
C874 C 0.6148 0.07922 0.08548 0.0
C875 C 0.59425 0.09807 0.09384 0.0
C876 C 0.60009 0.06381 0.07675 0.0
H877 H 0.6326 0.01963 0.0742 0.0
N878 N 0.58741 0.03109 0.06462 0.0
C879 C 0.60444 0.00805 0.06646 0.0
C880 C 0.60217 0.0456 0.07153 0.0
C881 C 0.58817 0.01237 0.06332 0.0
C882 C 0.62 0.02298 0.07176 0.0
C883 C 0.61894 0.04206 0.07489 0.0
O884 O 0.54925 0.01247 0.0639 0.0
O885 O 0.53972 0.03052 0.03521 0.0
O886 O 0.53932 0.06529 0.02774 0.0
O887 O 0.55586 0.06779 0.05666 0.0
O888 O 0.53468 0.04174 0.06192 0.0
O889 O 0.55557 0.03896 0.08499 0.0
O890 O 0.56625 0.04132 0.99217 0.0
O891 O 0.56773 0.04596 0.03129 0.0
O892 O 0.5697 0.0195 0.03579 0.0
O893 O 0.54535 0.01246 0.01443 0.0
O894 O 0.57029 0.0654 0.01425 0.0
O895 O 0.5397 0.02414 0.98293 0.0
C896 C 0.52774 0.03417 0.04504 0.0
C897 C 0.54793 0.00988 0.0962 0.0
C898 C 0.53435 1.0029 0.12413 0.0
C899 C 0.53428 0.01014 0.10769 0.0
C900 C 0.548 0.99464 0.12875 0.0
C901 C 0.56149 1.00151 0.10076 0.0
C902 C 0.56136 0.99369 0.11691 0.0
C903 C 0.54568 0.0741 0.0452 0.0
C904 C 0.54802 0.02046 0.08102 0.0
C905 C 0.63391 0.05758 0.08202 0.0
C906 C 0.63185 0.0762 0.08724 0.0
C907 C 0.57782 0.06115 0.02839 0.0
C908 C 0.55568 0.04004 0.96134 0.0
C909 C 0.57166 0.04452 0.95326 0.0
C910 C 0.57307 0.0546 0.93856 0.0
C911 C 0.55824 0.06015 0.93196 0.0
C912 C 0.5409 0.04548 0.95443 0.0
C913 C 0.54224 0.05554 0.93984 0.0
C914 C 0.55978 0.00832 0.02068 0.0
C915 C 0.55523 0.03123 0.97791 0.0
H916 H 0.5241 0.01717 0.10442 0.0
H917 H 0.54844 0.98922 0.14157 0.0
H918 H 0.5723 1.00136 0.09227 0.0
H919 H 0.57192 0.98739 0.12055 0.0
H920 H 0.58312 0.04053 0.95873 0.0
H921 H 0.55891 0.06772 0.92047 0.0
H922 H 0.52839 0.04224 0.96042 0.0
H923 H 0.53085 0.05979 0.93465 0.0
Tb924 Tb 0.30768 0.29935 0.26453 0.0
C925 C 0.23772 0.25225 0.24947 0.0
C926 C 0.2279 0.23376 0.27303 0.0
C927 C 0.20763 0.24857 0.25848 0.0
C928 C 0.24125 0.24157 0.26219 0.0
C929 C 0.22067 0.25548 0.24713 0.0
C930 C 0.21126 0.23776 0.27146 0.0
C931 C 0.23034 0.27149 0.22209 0.0
N932 N 0.25089 0.25924 0.23919 0.0
C933 C 0.24704 0.2681 0.22504 0.0
C934 C 0.21717 0.26542 0.23337 0.0
Tb935 Tb 0.27809 0.25289 0.24531 0.0
N936 N 0.25746 0.23801 0.26327 0.0
C937 C 0.26024 0.2246 0.27329 0.0
C938 C 0.23147 0.22167 0.28468 0.0
C939 C 0.24759 0.21675 0.2845 0.0
H940 H 0.25638 0.27246 0.2155 0.0
H941 H 0.25022 0.20673 0.29283 0.0
H942 H 0.20095 0.23214 0.27985 0.0
H943 H 0.22763 0.2787 0.21099 0.0
H944 H 0.27241 0.22009 0.27283 0.0
H945 H 0.3564 0.30284 0.21498 0.0
H946 H 0.22161 0.21546 0.29325 0.0
H947 H 0.31272 0.3176 0.30978 0.0
H948 H 0.32627 0.29655 0.22468 0.0
H949 H 0.33709 0.32909 0.33563 0.0
H950 H 0.19461 0.25122 0.2571 0.0
H951 H 0.38263 0.31183 0.23869 0.0
H952 H 0.39483 0.31917 0.27247 0.0
H953 H 0.20426 0.26815 0.2311 0.0
H954 H 0.38951 0.32563 0.30555 0.0
N955 N 0.33496 0.30158 0.25377 0.0
C956 C 0.33743 0.30035 0.23527 0.0
C957 C 0.36935 0.30893 0.24305 0.0
C958 C 0.36681 0.31067 0.26197 0.0
C959 C 0.35459 0.30396 0.22966 0.0
C960 C 0.34925 0.30717 0.26695 0.0
H961 H 0.36799 0.32957 0.32928 0.0
N962 N 0.3293 0.30958 0.28942 0.0
C963 C 0.33985 0.32379 0.32163 0.0
C964 C 0.34628 0.31101 0.28547 0.0
C965 C 0.32605 0.31709 0.30699 0.0
C966 C 0.35726 0.32401 0.318 0.0
C967 C 0.36075 0.31816 0.29963 0.0
O968 O 0.29707 0.32281 0.27326 0.0
O969 O 0.28001 0.28226 0.25787 0.0
O970 O 0.28402 0.26765 0.22177 0.0
O971 O 0.29812 0.29949 0.23598 0.0
O972 O 0.28843 0.29853 0.2847 0.0
O973 O 0.3192 0.32581 0.25693 0.0
O974 O 0.2767 0.24069 0.21666 0.0
O975 O 0.30483 0.27126 0.24744 0.0
O976 O 0.31108 0.28212 0.28544 0.0
O977 O 0.28802 0.25363 0.27484 0.0
O978 O 0.30185 0.24333 0.25102 0.0
O979 O 0.26901 0.22277 0.23642 0.0
C980 C 0.27502 0.28697 0.27381 0.0
C981 C 0.31697 0.35346 0.27801 0.0
C982 C 0.31322 0.38489 0.29106 0.0
C983 C 0.30623 0.36604 0.28102 0.0
C984 C 0.3312 0.39116 0.29847 0.0
C985 C 0.33491 0.35956 0.28568 0.0
C986 C 0.34194 0.37837 0.29599 0.0
C987 C 0.2905 0.28609 0.22119 0.0
C988 C 0.30887 0.33452 0.26613 0.0
C989 C 0.37822 0.32032 0.29486 0.0
C990 C 0.38126 0.31667 0.27603 0.0
C991 C 0.3133 0.25925 0.2504 0.0
C992 C 0.28542 0.21185 0.21265 0.0
C993 C 0.29398 0.20326 0.22482 0.0
C994 C 0.30718 0.19432 0.21898 0.0
C995 C 0.31162 0.19365 0.20059 0.0
C996 C 0.28983 0.21084 0.19424 0.0
C997 C 0.30284 0.20173 0.18825 0.0
C998 C 0.30088 0.2653 0.28764 0.0
C999 C 0.2731 0.22322 0.21956 0.0
H1000 H 0.29247 0.36137 0.27474 0.0
H1001 H 0.33689 0.40587 0.30593 0.0
H1002 H 0.34348 0.34999 0.28348 0.0
H1003 H 0.3558 0.38317 0.30174 0.0
H1004 H 0.29087 0.20411 0.23915 0.0
H1005 H 0.32172 0.18674 0.19573 0.0
H1006 H 0.28347 0.21742 0.18462 0.0
H1007 H 0.30626 0.20112 0.17407 0.0
Tb1008 Tb 0.56061 0.56269 0.03655 0.0
C1009 C 0.58215 0.50605 0.97678 0.0
C1010 C 0.55792 0.49724 0.95195 0.0
C1011 C 0.58757 0.49565 0.94467 0.0
C1012 C 0.56453 0.50399 0.971 0.0
C1013 C 0.59379 0.50138 0.96378 0.0
C1014 C 0.56965 0.49361 0.93876 0.0
C1015 C 0.61617 0.50617 0.9897 0.0
N1016 N 0.58752 0.51129 0.99538 0.0
C1017 C 0.60412 0.51068 1.00203 0.0
C1018 C 0.6111 0.50182 0.97046 0.0
Tb1019 Tb 0.56679 0.51831 0.01454 0.0
N1020 N 0.5536 0.50724 0.98424 0.0
C1021 C 0.53555 0.50247 0.97939 0.0
C1022 C 0.53964 0.4936 0.94684 0.0
C1023 C 0.52837 0.49593 0.96067 0.0
H1024 H 0.60832 0.51397 0.01683 0.0
H1025 H 0.51414 0.49272 0.95694 0.0
H1026 H 0.56486 0.4886 0.92404 0.0
H1027 H 0.62938 0.50609 0.99505 0.0
H1028 H 0.52654 0.50412 0.98979 0.0
H1029 H 0.61402 0.5865 0.09343 0.0
H1030 H 0.53403 0.48844 0.93236 0.0
H1031 H 0.52 0.56908 0.03492 0.0
H1032 H 0.60114 0.57561 0.06075 0.0
H1033 H 0.4996 0.57823 0.05704 0.0
H1034 H 0.59635 0.49218 0.93444 0.0
H1035 H 0.59471 0.59162 0.11841 0.0
H1036 H 0.56434 0.59298 0.12723 0.0
H1037 H 0.62044 0.49826 0.96095 0.0
H1038 H 0.53308 0.5909 0.11729 0.0
N1039 N 0.57427 0.57335 0.06674 0.0
C1040 C 0.59232 0.57752 0.0713 0.0
C1041 C 0.58887 0.5866 0.104 0.0
C1042 C 0.57064 0.58372 0.09918 0.0
C1043 C 0.5998 0.5838 0.08994 0.0
C1044 C 0.56371 0.57711 0.0802 0.0
H1045 H 0.50892 0.58584 0.09107 0.0
N1046 N 0.54065 0.57083 0.05614 0.0
C1047 C 0.51265 0.57749 0.06222 0.0
C1048 C 0.54624 0.57587 0.07468 0.0
C1049 C 0.5243 0.57229 0.0497 0.0
C1050 C 0.51792 0.58171 0.08141 0.0
C1051 C 0.53503 0.58128 0.08786 0.0
O1052 O 0.55283 0.58331 0.02362 0.0
O1053 O 0.55912 0.54367 0.00933 0.0
O1054 O 0.58706 0.54005 0.00492 0.0
O1055 O 0.58803 0.5654 0.02937 0.0
O1056 O 0.53878 0.55588 0.01389 0.0
O1057 O 0.57865 0.59 0.03903 0.0
O1058 O 0.57485 0.49797 0.0275 0.0
O1059 O 0.56793 0.53701 0.04201 0.0
O1060 O 0.53918 0.54122 0.04497 0.0
O1061 O 0.53919 0.51517 0.02151 0.0
O1062 O 0.5887 0.52557 0.03706 0.0
O1063 O 0.5493 0.49051 0.01119 0.0
C1064 C 0.54468 0.54525 1.00122 0.0
C1065 C 0.56638 0.61598 0.03655 0.0
C1066 C 0.56828 0.64829 0.03098 0.0
C1067 C 0.56896 0.62923 0.02459 0.0
C1068 C 0.5647 0.65386 0.04947 0.0
C1069 C 0.56279 0.62172 0.05493 0.0
C1070 C 0.56188 0.64059 0.06131 0.0
C1071 C 0.59479 0.55754 0.01476 0.0
C1072 C 0.56772 0.5964 0.02942 0.0
C1073 C 0.54152 0.58686 0.10691 0.0
C1074 C 0.55931 0.58805 0.11257 0.0
C1075 C 0.58253 0.53555 0.05002 0.0
C1076 C 0.56274 0.46538 0.01379 0.0
C1077 C 0.55914 0.45168 0.02511 0.0
C1078 C 0.56199 0.43341 0.01946 0.0
C1079 C 0.56845 0.42901 1.00211 0.0
C1080 C 0.56907 0.46083 0.99649 0.0
C1081 C 0.57193 0.44267 0.9907 0.0
C1082 C 0.53162 0.52366 0.03511 0.0
C1083 C 0.56037 0.48446 0.02099 0.0
H1084 H 0.57192 0.6248 0.01043 0.0
H1085 H 0.564 0.66844 0.05472 0.0
H1086 H 0.5608 0.61171 0.06433 0.0
H1087 H 0.5591 0.64499 0.07551 0.0
H1088 H 0.55394 0.45527 0.03832 0.0
H1089 H 0.57094 0.41511 0.99742 0.0
H1090 H 0.57186 0.47122 0.98754 0.0
H1091 H 0.57692 0.43921 0.97738 0.0
Tb1092 Tb 0.82882 0.30834 0.25816 0.0
C1093 C 0.78252 0.24703 0.29365 0.0
C1094 C 0.78784 0.21722 0.27809 0.0
C1095 C 0.77901 0.22003 0.30955 0.0
C1096 C 0.78751 0.23646 0.27835 0.0
C1097 C 0.7778 0.23883 0.30929 0.0
C1098 C 0.78405 0.20925 0.29397 0.0
C1099 C 0.76953 0.26769 0.32242 0.0
N1100 N 0.78135 0.26503 0.29274 0.0
C1101 C 0.77439 0.27519 0.30661 0.0
C1102 C 0.77146 0.24952 0.32389 0.0
Tb1103 Tb 0.78936 0.27602 0.26618 0.0
N1104 N 0.7906 0.24454 0.26314 0.0
C1105 C 0.79263 0.23346 0.24664 0.0
C1106 C 0.79121 0.20633 0.26162 0.0
C1107 C 0.7933 0.21439 0.24573 0.0
H1108 H 0.77292 0.28929 0.30573 0.0
H1109 H 0.79546 0.20595 0.23277 0.0
H1110 H 0.7844 0.19456 0.29411 0.0
H1111 H 0.76435 0.27595 0.3335 0.0
H1112 H 0.79425 0.23931 0.23414 0.0
H1113 H 0.82075 0.37734 0.29254 0.0
H1114 H 0.79164 0.19152 0.26085 0.0
H1115 H 0.84759 0.29729 0.21975 0.0
H1116 H 0.82251 0.3442 0.2906 0.0
H1117 H 0.85693 0.31171 0.19276 0.0
H1118 H 0.77558 0.21352 0.3215 0.0
H1119 H 0.82511 0.39267 0.26506 0.0
H1120 H 0.8332 0.39075 0.23216 0.0
H1121 H 0.76765 0.24372 0.33614 0.0
H1122 H 0.84321 0.37288 0.20489 0.0
N1123 N 0.82727 0.33984 0.26184 0.0
C1124 C 0.82451 0.35038 0.27835 0.0
C1125 C 0.82585 0.37794 0.26404 0.0
C1126 C 0.82985 0.36762 0.24759 0.0
C1127 C 0.82346 0.36936 0.27959 0.0
C1128 C 0.83055 0.34843 0.24699 0.0
H1129 H 0.85257 0.34357 0.19029 0.0
N1130 N 0.83763 0.32054 0.23242 0.0
C1131 C 0.85093 0.31933 0.20356 0.0
C1132 C 0.83601 0.33842 0.2317 0.0
C1133 C 0.84561 0.31121 0.21893 0.0
C1134 C 0.84839 0.33728 0.20217 0.0
C1135 C 0.84113 0.34722 0.21651 0.0
O1136 O 0.85497 0.30543 0.25769 0.0
O1137 O 0.81775 0.27949 0.26412 0.0
O1138 O 0.807 0.28286 0.29206 0.0
O1139 O 0.82401 0.31221 0.28763 0.0
O1140 O 0.83521 0.28162 0.24476 0.0
O1141 O 0.84843 0.32545 0.27965 0.0
O1142 O 0.76284 0.27767 0.2674 0.0
O1143 O 0.80026 0.30467 0.25972 0.0
O1144 O 0.81193 0.30074 0.23157 0.0
O1145 O 0.79362 0.2721 0.23663 0.0
O1146 O 0.78255 0.30281 0.2787 0.0
O1147 O 0.76994 0.25862 0.24486 0.0
C1148 C 0.82607 0.26948 0.25358 0.0
C1149 C 0.87809 0.33261 0.2722 0.0
C1150 C 0.91003 0.34391 0.28204 0.0
C1151 C 0.89341 0.33067 0.28178 0.0
C1152 C 0.91113 0.35911 0.27243 0.0
C1153 C 0.87937 0.34781 0.26264 0.0
C1154 C 0.89586 0.36097 0.26273 0.0
C1155 C 0.81832 0.29987 0.29853 0.0
C1156 C 0.86102 0.31864 0.27267 0.0
C1157 C 0.83954 0.36593 0.21652 0.0
C1158 C 0.83385 0.37611 0.23204 0.0
C1159 C 0.7916 0.31477 0.26967 0.0
C1160 C 0.74053 0.24967 0.25266 0.0
C1161 C 0.72445 0.25285 0.24639 0.0
C1162 C 0.70833 0.23861 0.24515 0.0
C1163 C 0.7084 0.2211 0.25046 0.0
C1164 C 0.74048 0.23221 0.25808 0.0
C1165 C 0.72443 0.21801 0.25705 0.0
C1166 C 0.79968 0.28417 0.22558 0.0
C1167 C 0.75707 0.26449 0.25231 0.0
H1168 H 0.89232 0.31902 0.28934 0.0
H1169 H 0.92379 0.36944 0.27228 0.0
H1170 H 0.86769 0.34958 0.25524 0.0
H1171 H 0.89681 0.37267 0.25531 0.0
H1172 H 0.72456 0.26626 0.24194 0.0
H1173 H 0.69609 0.20991 0.24963 0.0
H1174 H 0.75277 0.22941 0.26283 0.0
H1175 H 0.72443 0.20453 0.26118 0.0
Tb1176 Tb 0.06323 0.54583 0.55972 0.0
C1177 C 0.01744 0.56537 0.49887 0.0
C1178 C 0.99115 0.5385 0.48979 0.0
C1179 C 0.9895 0.5708 0.48774 0.0
C1180 C 0.00924 0.54602 0.49708 0.0
C1181 C 0.00779 0.57796 0.49381 0.0
C1182 C 0.98119 0.55107 0.48567 0.0
C1183 C 0.03539 0.60312 0.49887 0.0
N1184 N 0.03523 0.5716 0.50442 0.0
C1185 C 0.04443 0.59003 0.50346 0.0
C1186 C 0.01695 0.59715 0.49431 0.0
Tb1187 Tb 0.04876 0.54886 0.51206 0.0
N1188 N 0.01935 0.53435 0.5011 0.0
C1189 C 0.01238 0.51474 0.49684 0.0
C1190 C 0.98384 0.51852 0.48609 0.0
C1191 C 0.99459 0.50659 0.48936 0.0
H1192 H 0.05869 0.59497 0.50673 0.0
H1193 H 0.98916 0.49108 0.48622 0.0
H1194 H 0.96722 0.5456 0.48032 0.0
H1195 H 0.04269 0.61778 0.49872 0.0
H1196 H 0.02047 0.50523 0.49916 0.0
H1197 H 0.08371 0.61398 0.61016 0.0
H1198 H 0.97009 0.51215 0.48023 0.0
H1199 H 0.0829 0.50993 0.56158 0.0
H1200 H 0.06213 0.5844 0.5925 0.0
H1201 H 0.1132 0.50677 0.56725 0.0
H1202 H 0.98181 0.58027 0.48399 0.0
H1203 H 0.1161 0.61771 0.60957 0.0
H1204 H 0.1406 0.60188 0.60134 0.0
H1205 H 0.01002 0.60728 0.49058 0.0
H1206 H 0.14876 0.57179 0.58985 0.0
N1207 N 0.08197 0.57249 0.57996 0.0
C1208 C 0.07622 0.58609 0.5916 0.0
C1209 C 0.10666 0.60491 0.60142 0.0
C1210 C 0.11243 0.58959 0.59196 0.0
C1211 C 0.08841 0.60282 0.60183 0.0
C1212 C 0.09952 0.57328 0.5816 0.0
H1213 H 0.13846 0.53585 0.5779 0.0
N1214 N 0.09063 0.54077 0.56784 0.0
C1215 C 0.11091 0.52095 0.56937 0.0
C1216 C 0.10405 0.55655 0.5754 0.0
C1217 C 0.09366 0.52289 0.56616 0.0
C1218 C 0.12512 0.53737 0.57529 0.0
C1219 C 0.12169 0.55544 0.57904 0.0
O1220 O 0.05466 0.51809 0.56647 0.0
O1221 O 0.04261 0.53592 0.53607 0.0
O1222 O 0.03979 0.57006 0.53087 0.0
O1223 O 0.05813 0.57438 0.55884 0.0
O1224 O 0.0355 0.5453 0.56229 0.0
O1225 O 0.05213 0.54376 0.58468 0.0
O1226 O 0.06877 0.55401 0.49396 0.0
O1227 O 0.07001 0.55332 0.5339 0.0
O1228 O 0.07275 0.52636 0.53808 0.0
O1229 O 0.05015 0.51988 0.51439 0.0
O1230 O 0.07281 0.57339 0.51755 0.0
O1231 O 0.0444 0.53221 0.48474 0.0
C1232 C 0.02968 0.53773 0.54516 0.0
C1233 C 0.05098 0.51743 0.59895 0.0
C1234 C 0.04053 0.51476 0.62939 0.0
C1235 C 0.03911 0.52031 0.61214 0.0
C1236 C 0.05392 0.50584 0.63329 0.0
C1237 C 0.06416 0.50829 0.6028 0.0
C1238 C 0.06554 0.50245 0.61994 0.0
C1239 C 0.04683 0.57972 0.54781 0.0
C1240 C 0.04914 0.52515 0.58197 0.0
C1241 C 0.13505 0.57221 0.58736 0.0
C1242 C 0.13041 0.58935 0.59384 0.0
C1243 C 0.08007 0.56884 0.53168 0.0
C1244 C 0.05698 0.5505 0.4631 0.0
C1245 C 0.07108 0.55345 0.45208 0.0
C1246 C 0.07038 0.56288 0.43701 0.0
C1247 C 0.05533 0.56951 0.43329 0.0
C1248 C 0.04183 0.55661 0.45878 0.0
C1249 C 0.04111 0.56623 0.44405 0.0
C1250 C 0.0644 0.5161 0.52171 0.0
C1251 C 0.05887 0.54222 0.47973 0.0
H1252 H 0.02909 0.52764 0.6092 0.0
H1253 H 0.05537 0.50151 0.64657 0.0
H1254 H 0.07341 0.50586 0.59281 0.0
H1255 H 0.07578 0.4955 0.62299 0.0
H1256 H 0.08249 0.54816 0.4552 0.0
H1257 H 0.05452 0.57718 0.42205 0.0
H1258 H 0.0306 0.55408 0.46678 0.0
H1259 H 0.0295 0.57118 0.44099 0.0
Tb1260 Tb 0.78179 0.79619 0.2672 0.0
C1261 C 0.84017 0.76938 0.30538 0.0
C1262 C 0.85122 0.794 0.33324 0.0
C1263 C 0.85262 0.76116 0.33308 0.0
C1264 C 0.84302 0.78814 0.31466 0.0
C1265 C 0.84559 0.75581 0.31418 0.0
C1266 C 0.8554 0.78026 0.34263 0.0
C1267 C 0.8394 0.73382 0.28427 0.0
N1268 N 0.83382 0.76501 0.28704 0.0
C1269 C 0.83422 0.74781 0.27619 0.0
C1270 C 0.84474 0.73767 0.30345 0.0
Tb1271 Tb 0.82559 0.78876 0.27487 0.0
N1272 N 0.83923 0.801 0.30489 0.0
C1273 C 0.84488 0.82033 0.31247 0.0
C1274 C 0.85573 0.8136 0.3415 0.0
C1275 C 0.85287 0.82686 0.33093 0.0
H1276 H 0.83006 0.74464 0.26136 0.0
H1277 H 0.85675 0.84212 0.33699 0.0
H1278 H 0.86148 0.78442 0.35698 0.0
H1279 H 0.83922 0.72006 0.27571 0.0
H1280 H 0.84278 0.83088 0.30465 0.0
H1281 H 0.75264 0.74215 0.20486 0.0
H1282 H 0.86199 0.8187 0.35576 0.0
H1283 H 0.77645 0.83997 0.27989 0.0
H1284 H 0.76554 0.75376 0.23752 0.0
H1285 H 0.76729 0.86418 0.2649 0.0
H1286 H 0.85664 0.75089 0.3402 0.0
H1287 H 0.74766 0.76523 0.18554 0.0
H1288 H 0.74767 0.7993 0.18386 0.0
H1289 H 0.84884 0.72686 0.30966 0.0
H1290 H 0.75158 0.83279 0.20035 0.0
N1291 N 0.76875 0.78353 0.23698 0.0
C1292 C 0.76353 0.76417 0.22949 0.0
C1293 C 0.75346 0.77049 0.19995 0.0
C1294 C 0.75746 0.79009 0.20809 0.0
C1295 C 0.75617 0.75743 0.21083 0.0
C1296 C 0.76506 0.79616 0.22687 0.0
H1297 H 0.75839 0.857 0.23079 0.0
N1298 N 0.77327 0.81943 0.25444 0.0
C1299 C 0.76739 0.85042 0.25656 0.0
C1300 C 0.7674 0.81488 0.23598 0.0
C1301 C 0.77254 0.83663 0.265 0.0
C1302 C 0.76246 0.84635 0.23729 0.0
C1303 C 0.76204 0.82823 0.2268 0.0
O1304 O 0.7651 0.80428 0.28716 0.0
O1305 O 0.8029 0.79532 0.2874 0.0
O1306 O 0.80689 0.76362 0.28256 0.0
O1307 O 0.7798 0.76528 0.26841 0.0
O1308 O 0.79072 0.81716 0.29326 0.0
O1309 O 0.75692 0.77685 0.2686 0.0
O1310 O 0.84149 0.78088 0.254 0.0
O1311 O 0.8046 0.78997 0.25468 0.0
O1312 O 0.80067 0.8218 0.26019 0.0
O1313 O 0.82778 0.81973 0.27397 0.0
O1314 O 0.8161 0.76765 0.249 0.0
O1315 O 0.85097 0.80737 0.27385 0.0
C1316 C 0.80253 0.80979 0.29963 0.0
C1317 C 0.73405 0.79109 0.27878 0.0
C1318 C 0.70421 0.78978 0.28888 0.0
C1319 C 0.72163 0.78749 0.292 0.0
C1320 C 0.69983 0.79626 0.27266 0.0
C1321 C 0.72894 0.79708 0.26264 0.0
C1322 C 0.71205 0.7998 0.2597 0.0
C1323 C 0.78971 0.75571 0.27633 0.0
C1324 C 0.75226 0.78861 0.2817 0.0
C1325 C 0.75556 0.82268 0.20774 0.0
C1326 C 0.75331 0.80362 0.19837 0.0
C1327 C 0.80467 0.77539 0.24245 0.0
C1328 C 0.87265 0.79217 0.26184 0.0
C1329 C 0.88505 0.79665 0.24883 0.0
C1330 C 0.90186 0.79262 0.25057 0.0
C1331 C 0.90561 0.78347 0.26515 0.0
C1332 C 0.87722 0.78375 0.27651 0.0
C1333 C 0.89346 0.77923 0.27801 0.0
C1334 C 0.81795 0.82949 0.26625 0.0
C1335 C 0.85488 0.79591 0.25993 0.0
H1336 H 0.72539 0.78259 0.30439 0.0
H1337 H 0.68689 0.79873 0.26996 0.0
H1338 H 0.738 0.79963 0.25223 0.0
H1339 H 0.70836 0.80463 0.24725 0.0
H1340 H 0.88171 0.80348 0.23764 0.0
H1341 H 0.91799 0.77947 0.26664 0.0
H1342 H 0.86825 0.78059 0.28683 0.0
H1343 H 0.89667 0.7724 0.28924 0.0
Tb1344 Tb 0.8193 0.29507 0.75233 0.0
C1345 C 0.80203 0.36005 0.80815 0.0
C1346 C 0.831 0.37776 0.82428 0.0
C1347 C 0.80772 0.39411 0.82224 0.0
C1348 C 0.81918 0.36041 0.81415 0.0
C1349 C 0.79597 0.37682 0.81241 0.0
C1350 C 0.8252 0.39457 0.82821 0.0
C1351 C 0.76667 0.35785 0.79855 0.0
N1352 N 0.79106 0.3431 0.79872 0.0
C1353 C 0.77326 0.34165 0.79481 0.0
C1354 C 0.77814 0.37561 0.80715 0.0
Tb1355 Tb 0.80253 0.31666 0.79401 0.0
N1356 N 0.82431 0.34385 0.80999 0.0
C1357 C 0.84138 0.34399 0.81607 0.0
C1358 C 0.84832 0.37777 0.83024 0.0
C1359 C 0.85349 0.36079 0.82615 0.0
H1360 H 0.76408 0.32786 0.7885 0.0
H1361 H 0.86695 0.36066 0.83054 0.0
H1362 H 0.83411 0.40797 0.83593 0.0
H1363 H 0.7527 0.35656 0.79492 0.0
H1364 H 0.84651 0.33169 0.8127 0.0
H1365 H 0.76557 0.23264 0.71964 0.0
H1366 H 0.85778 0.39079 0.83796 0.0
H1367 H 0.86311 0.30132 0.75442 0.0
H1368 H 0.77924 0.2669 0.73269 0.0
H1369 H 0.88402 0.28114 0.74998 0.0
H1370 H 0.80334 0.40713 0.82555 0.0
H1371 H 0.78366 0.20923 0.71835 0.0
H1372 H 0.81383 0.20332 0.72298 0.0
H1373 H 0.773 0.38814 0.81017 0.0
H1374 H 0.84624 0.21657 0.73118 0.0
N1375 N 0.80499 0.26331 0.73972 0.0
C1376 C 0.78746 0.25706 0.73238 0.0
C1377 C 0.7898 0.22435 0.72423 0.0
C1378 C 0.80799 0.23098 0.73046 0.0
C1379 C 0.77957 0.23752 0.72488 0.0
C1380 C 0.81529 0.2508 0.73807 0.0
H1381 H 0.87258 0.24565 0.74089 0.0
N1382 N 0.83985 0.27749 0.74875 0.0
C1383 C 0.86981 0.27447 0.74804 0.0
C1384 C 0.8334 0.25817 0.74271 0.0
C1385 C 0.85786 0.28587 0.7506 0.0
C1386 C 0.8633 0.25444 0.74296 0.0
C1387 C 0.84489 0.24606 0.73986 0.0
O1388 O 0.83474 0.31292 0.73649 0.0
O1389 O 0.81775 0.32071 0.77116 0.0
O1390 O 0.78904 0.32318 0.76926 0.0
O1391 O 0.79317 0.30004 0.74469 0.0
O1392 O 0.84215 0.31997 0.76266 0.0
O1393 O 0.81108 0.29101 0.72358 0.0
O1394 O 0.78067 0.31224 0.80943 0.0
O1395 O 0.80312 0.29115 0.77485 0.0
O1396 O 0.83305 0.28673 0.77528 0.0
O1397 O 0.82485 0.30436 0.80195 0.0
O1398 O 0.77906 0.29224 0.78387 0.0
O1399 O 0.80574 0.30882 0.82014 0.0
C1400 C 0.83365 0.3304 0.77242 0.0
C1401 C 0.83408 0.30069 0.70474 0.0
C1402 C 0.84704 0.31242 0.67821 0.0
C1403 C 0.83722 0.31447 0.69352 0.0
C1404 C 0.85368 0.29614 0.67417 0.0
C1405 C 0.84078 0.28452 0.70072 0.0
C1406 C 0.85057 0.28229 0.68544 0.0
C1407 C 0.78504 0.31324 0.75171 0.0
C1408 C 0.82465 0.30452 0.72106 0.0
C1409 C 0.83765 0.22615 0.73329 0.0
C1410 C 0.81921 0.21861 0.72862 0.0
C1411 C 0.78727 0.28143 0.77418 0.0
C1412 C 0.77881 0.28837 0.82721 0.0
C1413 C 0.78737 0.27478 0.8317 0.0
C1414 C 0.7779 0.25859 0.83832 0.0
C1415 C 0.7594 0.25566 0.83914 0.0
C1416 C 0.76038 0.28511 0.82822 0.0
C1417 C 0.75073 0.26868 0.83386 0.0
C1418 C 0.83464 0.29329 0.79365 0.0
C1419 C 0.78886 0.30647 0.82229 0.0
H1420 H 0.83173 0.32677 0.69664 0.0
H1421 H 0.86126 0.29416 0.66238 0.0
H1422 H 0.83853 0.27375 0.70934 0.0
H1423 H 0.85577 0.26982 0.68232 0.0
H1424 H 0.80148 0.27712 0.83047 0.0
H1425 H 0.75161 0.24377 0.8446 0.0
H1426 H 0.75346 0.29539 0.82485 0.0
H1427 H 0.73656 0.26638 0.83475 0.0
Tb1428 Tb 0.81023 0.80489 0.77606 0.0
C1429 C 0.73962 0.75964 0.75624 0.0
C1430 C 0.72836 0.74108 0.77928 0.0
C1431 C 0.70916 0.7565 0.76395 0.0
C1432 C 0.74235 0.74877 0.76909 0.0
C1433 C 0.72277 0.76313 0.7531 0.0
C1434 C 0.71198 0.74555 0.7771 0.0
C1435 C 0.73343 0.77789 0.72762 0.0
N1436 N 0.7532 0.76606 0.74621 0.0
C1437 C 0.74981 0.77399 0.7312 0.0
C1438 C 0.71995 0.7728 0.73886 0.0
Tb1439 Tb 0.77997 0.75934 0.75348 0.0
N1440 N 0.75826 0.74454 0.77058 0.0
C1441 C 0.75986 0.73026 0.78001 0.0
C1442 C 0.73093 0.72839 0.7907 0.0
C1443 C 0.74661 0.72259 0.79069 0.0
H1444 H 0.75918 0.77681 0.72126 0.0
H1445 H 0.7484 0.71197 0.79868 0.0
H1446 H 0.7012 0.74 0.78499 0.0
H1447 H 0.73112 0.78448 0.71592 0.0
H1448 H 0.77161 0.72493 0.77959 0.0
H1449 H 0.85347 0.81806 0.72178 0.0
H1450 H 0.72056 0.72224 0.79878 0.0
H1451 H 0.82087 0.81523 0.82195 0.0
H1452 H 0.82522 0.81134 0.73496 0.0
H1453 H 0.8474 0.82107 0.84445 0.0
H1454 H 0.69626 0.75929 0.7619 0.0
H1455 H 0.8815 0.82138 0.74122 0.0
H1456 H 0.8969 0.8228 0.77266 0.0
H1457 H 0.70723 0.77574 0.736 0.0
H1458 H 0.89516 0.82249 0.80606 0.0
N1459 N 0.83619 0.8096 0.76182 0.0
C1460 C 0.83692 0.81218 0.74376 0.0
C1461 C 0.86893 0.81815 0.74713 0.0
C1462 C 0.86832 0.81639 0.76579 0.0
C1463 C 0.85316 0.81628 0.73614 0.0
C1464 C 0.85158 0.81219 0.77281 0.0
H1465 H 0.87675 0.82191 0.83303 0.0
N1466 N 0.83447 0.81033 0.79788 0.0
C1467 C 0.8485 0.81833 0.82958 0.0
C1468 C 0.85064 0.81228 0.79152 0.0
C1469 C 0.83346 0.81481 0.81677 0.0
C1470 C 0.86502 0.81875 0.82309 0.0
C1471 C 0.86636 0.81642 0.80388 0.0
O1472 O 0.80655 0.82764 0.79629 0.0
O1473 O 0.78255 0.78838 0.76772 0.0
O1474 O 0.78752 0.77694 0.73236 0.0
O1475 O 0.79799 0.80835 0.74948 0.0
O1476 O 0.78993 0.80246 0.79521 0.0
O1477 O 0.81571 0.83256 0.76944 0.0
O1478 O 0.7788 0.74834 0.72456 0.0
O1479 O 0.80677 0.77779 0.7571 0.0
O1480 O 0.81267 0.78467 0.79416 0.0
O1481 O 0.78872 0.75754 0.78244 0.0
O1482 O 0.80373 0.74916 0.75773 0.0
O1483 O 0.77038 0.72948 0.74339 0.0
C1484 C 0.77681 0.79214 0.78329 0.0
C1485 C 0.8125 0.8602 0.79125 0.0
C1486 C 0.80037 0.88657 0.78653 0.0
C1487 C 0.80263 0.86825 0.78002 0.0
C1488 C 0.80882 0.89722 0.80412 0.0
C1489 C 0.8208 0.87074 0.80885 0.0
C1490 C 0.81917 0.88936 0.81513 0.0
C1491 C 0.79201 0.79586 0.73353 0.0
C1492 C 0.81164 0.83987 0.78562 0.0
C1493 C 0.88296 0.81939 0.79681 0.0
C1494 C 0.88395 0.81956 0.77781 0.0
C1495 C 0.81522 0.76547 0.7586 0.0
C1496 C 0.78489 0.71806 0.7182 0.0
C1497 C 0.79497 0.71015 0.72957 0.0
C1498 C 0.80566 0.69871 0.72177 0.0
C1499 C 0.80594 0.6948 0.70229 0.0
C1500 C 0.78538 0.71418 0.69878 0.0
C1501 C 0.79583 0.70253 0.69088 0.0
C1502 C 0.80171 0.76804 0.79554 0.0
C1503 C 0.77407 0.73055 0.72651 0.0
H1504 H 0.79561 0.85964 0.76679 0.0
H1505 H 0.80723 0.91144 0.80939 0.0
H1506 H 0.8282 0.86444 0.81782 0.0
H1507 H 0.82552 0.89749 0.82874 0.0
H1508 H 0.79438 0.71265 0.74454 0.0
H1509 H 0.81409 0.68596 0.69594 0.0
H1510 H 0.7777 0.72016 0.68977 0.0
H1511 H 0.79615 0.69955 0.67589 0.0
Tb1512 Tb 0.53846 0.53457 0.51807 0.0
C1513 C 0.58539 0.60423 0.55676 0.0
C1514 C 0.59651 0.62244 0.53349 0.0
C1515 C 0.58851 0.63883 0.56223 0.0
C1516 C 0.5912 0.60473 0.53952 0.0
C1517 C 0.58497 0.6215 0.56881 0.0
C1518 C 0.59427 0.6393 0.54452 0.0
C1519 C 0.58202 0.60432 0.59404 0.0
N1520 N 0.58276 0.58732 0.56267 0.0
C1521 C 0.58284 0.58776 0.58157 0.0
C1522 C 0.58245 0.62114 0.58749 0.0
Tb1523 Tb 0.5814 0.55993 0.53999 0.0
N1524 N 0.59353 0.5882 0.52959 0.0
C1525 C 0.60406 0.58936 0.51525 0.0
C1526 C 0.60481 0.62285 0.51713 0.0
C1527 C 0.60916 0.60635 0.50832 0.0
H1528 H 0.5835 0.57538 0.58738 0.0
H1529 H 0.61679 0.60681 0.49644 0.0
H1530 H 0.59788 0.65293 0.53994 0.0
H1531 H 0.58139 0.60416 0.60875 0.0
H1532 H 0.60888 0.57732 0.50915 0.0
H1533 H 0.52576 0.47772 0.55754 0.0
H1534 H 0.60898 0.63609 0.51194 0.0
H1535 H 0.52691 0.53256 0.4732 0.0
H1536 H 0.53213 0.51134 0.55312 0.0
H1537 H 0.51897 0.50787 0.444 0.0
H1538 H 0.58787 0.65213 0.57113 0.0
H1539 H 0.52212 0.45106 0.53028 0.0
H1540 H 0.51958 0.4403 0.49529 0.0
H1541 H 0.58216 0.63408 0.59722 0.0
H1542 H 0.51774 0.44857 0.46415 0.0
N1543 N 0.53254 0.50391 0.52369 0.0
C1544 C 0.53051 0.49986 0.5411 0.0
C1545 C 0.52491 0.4658 0.52825 0.0
C1546 C 0.52578 0.46995 0.51033 0.0
C1547 C 0.52688 0.4808 0.54367 0.0
C1548 C 0.52948 0.48939 0.50851 0.0
H1549 H 0.51713 0.47376 0.44486 0.0
N1550 N 0.53069 0.5128 0.49023 0.0
C1551 C 0.52182 0.5038 0.45714 0.0
C1552 C 0.5285 0.494 0.4911 0.0
C1553 C 0.52635 0.51775 0.47369 0.0
C1554 C 0.52084 0.48457 0.45767 0.0
C1555 C 0.52374 0.47937 0.47487 0.0
O1556 O 0.51867 0.54772 0.51067 0.0
O1557 O 0.55664 0.56327 0.52812 0.0
O1558 O 0.56363 0.55421 0.56276 0.0
O1559 O 0.53504 0.54532 0.54764 0.0
O1560 O 0.54336 0.55688 0.5015 0.0
O1561 O 0.51246 0.52406 0.52488 0.0
O1562 O 0.59617 0.55612 0.56351 0.0
O1563 O 0.56098 0.53257 0.53567 0.0
O1564 O 0.55664 0.52943 0.49623 0.0
O1565 O 0.58251 0.55357 0.50866 0.0
O1566 O 0.58577 0.53194 0.52871 0.0
O1567 O 0.60814 0.5604 0.53826 0.0
C1568 C 0.55428 0.57028 0.51365 0.0
C1569 C 0.48924 0.52835 0.50535 0.0
C1570 C 0.46065 0.53321 0.49583 0.0
C1571 C 0.47754 0.54002 0.50601 0.0
C1572 C 0.4556 0.51456 0.48468 0.0
C1573 C 0.48421 0.50977 0.4941 0.0
C1574 C 0.46743 0.50297 0.48372 0.0
C1575 C 0.54607 0.55112 0.56329 0.0
C1576 C 0.50627 0.53601 0.51713 0.0
C1577 C 0.52119 0.46003 0.47647 0.0
C1578 C 0.52223 0.45532 0.4942 0.0
C1579 C 0.57049 0.52117 0.53045 0.0
C1580 C 0.62783 0.56723 0.56547 0.0
C1581 C 0.6412 0.55781 0.56264 0.0
C1582 C 0.659 0.56718 0.56943 0.0
C1583 C 0.66304 0.58584 0.58057 0.0
C1584 C 0.63191 0.58594 0.57625 0.0
C1585 C 0.64949 0.59506 0.58408 0.0
C1586 C 0.57271 0.54028 0.4943 0.0
C1587 C 0.61046 0.55736 0.55505 0.0
H1588 H 0.48138 0.55426 0.51495 0.0
H1589 H 0.44255 0.50901 0.47676 0.0
H1590 H 0.49308 0.5005 0.4935 0.0
H1591 H 0.46351 0.48863 0.47509 0.0
H1592 H 0.6377 0.54323 0.55443 0.0
H1593 H 0.67666 0.59353 0.58604 0.0
H1594 H 0.62169 0.59351 0.57832 0.0
H1595 H 0.65273 0.60953 0.59241 0.0
Tb1596 Tb 0.07984 0.54892 0.03347 0.0
C1597 C 0.01354 0.51201 0.06176 0.0
C1598 C 1.0013 0.48537 0.03568 0.0
C1599 C 0.99517 0.4817 0.06723 0.0
C1600 C 0.01166 0.50441 0.04284 0.0
C1601 C 0.00483 0.50098 0.07412 0.0
C1602 C 0.99344 0.47389 0.04804 0.0
C1603 C 0.01379 0.52961 0.09857 0.0
N1604 N 0.0227 0.53078 0.0678 0.0
C1605 C 0.02203 0.54001 0.0857 0.0
C1606 C 0.00541 0.50993 0.09283 0.0
Tb1607 Tb 0.0357 0.54631 0.0455 0.0
N1608 N 0.01928 0.51601 0.03134 0.0
C1609 C 0.01626 0.5098 0.01238 0.0
C1610 C 0.99883 0.47862 0.01631 0.0
C1611 C 0.00615 0.49098 0.0046 0.0
H1612 H 0.02845 0.55526 0.09014 0.0
H1613 H 0.00406 0.48602 0.98958 0.0
H1614 H 0.98559 0.45915 0.04284 0.0
H1615 H 0.01381 0.53681 0.11285 0.0
H1616 H 0.02179 0.51924 0.00323 0.0
H1617 H 0.12103 0.609 0.08558 0.0
H1618 H 0.99101 0.46405 0.01024 0.0
H1619 H 0.08333 0.5417 0.98672 0.0
H1620 H 0.10549 0.57523 0.07319 0.0
H1621 H 0.09033 0.56174 0.96321 0.0
H1622 H 0.98855 0.4729 0.07653 0.0
H1623 H 0.1245 0.63274 0.06498 0.0
H1624 H 0.12077 0.63908 0.03259 0.0
H1625 H 0.99887 0.50195 0.10277 0.0
H1626 H 0.11213 0.62612 0.99896 0.0
N1627 N 0.09779 0.57954 0.04606 0.0
C1628 C 0.10582 0.5853 0.0641 0.0
C1629 C 0.11716 0.61787 0.0595 0.0
C1630 C 0.11059 0.61156 0.04062 0.0
C1631 C 0.11517 0.60454 0.07117 0.0
C1632 C 0.10105 0.59202 0.03423 0.0
H1633 H 0.1011 0.59721 0.97289 0.0
N1634 N 0.0885 0.5656 0.00988 0.0
C1635 C 0.09177 0.56849 0.97784 0.0
C1636 C 0.09606 0.58482 0.01544 0.0
C1637 C 0.08773 0.5572 0.99134 0.0
C1638 C 0.09779 0.58848 0.98335 0.0
C1639 C 0.10063 0.59684 0.00239 0.0
O1640 O 0.0915 0.53037 0.01601 0.0
O1641 O 0.05277 0.53004 0.03144 0.0
O1642 O 0.04976 0.53818 0.06803 0.0
O1643 O 0.07943 0.55125 0.06373 0.0
O1644 O 0.07339 0.52058 0.04094 0.0
O1645 O 0.10451 0.54531 0.04327 0.0
O1646 O 0.02145 0.56585 0.05672 0.0
O1647 O 0.06103 0.56556 0.04212 0.0
O1648 O 0.06094 0.54213 0.00814 0.0
O1649 O 0.03971 0.55661 0.01962 0.0
O1650 O 0.04921 0.57252 0.06577 0.0
O1651 O 0.0125 0.54739 0.02984 0.0
C1652 C 0.05651 0.51557 0.03644 0.0
C1653 C 0.12289 0.53544 0.02089 0.0
C1654 C 0.14958 0.52388 0.0166 0.0
C1655 C 0.13325 0.52284 0.02425 0.0
C1656 C 0.15544 0.5378 0.00573 0.0
C1657 C 0.12926 0.54949 0.01037 0.0
C1658 C 0.14541 0.55058 0.00279 0.0
C1659 C 0.0669 0.54406 0.0739 0.0
C1660 C 0.10536 0.53333 0.02809 0.0
C1661 C 0.10883 0.6166 0.00875 0.0
C1662 C 0.1138 0.62397 0.02788 0.0
C1663 C 0.06239 0.57862 0.05659 0.0
C1664 C 0.99057 0.55756 0.04688 0.0
C1665 C 0.98027 0.5693 0.04124 0.0
C1666 C 0.96247 0.56675 0.04541 0.0
C1667 C 0.95538 0.55253 0.05564 0.0
C1668 C 0.98296 0.54325 0.05665 0.0
C1669 C 0.96553 0.54085 0.06111 0.0
C1670 C 0.04832 0.55083 0.00581 0.0
C1671 C 0.00919 0.56052 0.04256 0.0
H1672 H 0.12846 0.51202 0.03248 0.0
H1673 H 0.16796 0.539 0.99975 0.0
H1674 H 0.12177 0.55955 0.00796 0.0
H1675 H 0.15019 0.56139 0.99458 0.0
H1676 H 0.98604 0.58016 0.03341 0.0
H1677 H 0.94196 0.55046 0.05957 0.0
H1678 H 0.99043 0.53393 0.06091 0.0
H1679 H 0.95985 0.5299 0.06885 0.0
C1680 C 0.02695 0.22571 0.9673 0.0
C1681 C 0.02789 0.22553 0.94804 0.0
C1682 C 0.02978 0.21028 0.9753 0.0
C1683 C 0.02964 0.15805 0.96171 0.0
H1684 H 0.05508 0.16544 0.01077 0.0
C1685 C 0.05098 0.09475 0.98394 0.0
C1686 C 0.0499 0.09162 1.00233 0.0
C1687 C 0.04913 0.11191 0.97912 0.0
C1688 C 0.04777 0.16303 0.99712 0.0
H1689 H 0.03289 0.2086 0.92238 0.0
H1690 H 0.03776 0.18223 0.93609 0.0
H1691 H 0.05 0.19335 0.99909 0.0
H1692 H 0.04614 0.10466 0.03024 0.0
H1693 H 0.04281 0.13497 0.02182 0.0
H1694 H 0.02719 0.12793 0.95961 0.0
C1695 C 0.03459 0.19409 0.94512 0.0
C1696 C 0.04484 0.17912 0.99037 0.0
C1697 C 0.03187 0.20944 0.93719 0.0
C1698 C 0.04732 0.10663 0.016 0.0
C1699 C 0.04535 0.12401 0.0111 0.0
C1700 C 0.03251 0.14209 0.96842 0.0
C1701 C 0.03349 0.19405 0.9643 0.0
C1702 C 0.03595 0.17696 0.97236 0.0
C1703 C 0.04573 0.12672 0.99238 0.0
C1704 C 0.04191 0.14419 0.98611 0.0
H1705 H 0.024 0.23777 0.97622 0.0
H1706 H 0.0287 0.21092 0.99008 0.0
H1707 H 0.02228 0.15545 0.94806 0.0
H1708 H 0.05296 0.08358 0.97302 0.0
H1709 H 0.05012 0.1134 0.96473 0.0
C1710 C 0.15414 0.83437 0.1402 0.0
C1711 C 0.13813 0.83201 0.14861 0.0
C1712 C 0.17 0.83363 0.14996 0.0
C1713 C 0.1912 0.83582 0.19818 0.0
H1714 H 0.22243 0.80952 0.17156 0.0
C1715 C 0.24674 0.81336 0.23774 0.0
C1716 C 0.26318 0.81457 0.23044 0.0
C1717 C 0.23225 0.8164 0.22754 0.0
C1718 C 0.21403 0.81715 0.17924 0.0
H1719 H 0.12667 0.82739 0.17426 0.0
H1720 H 0.15401 0.82607 0.19107 0.0
H1721 H 0.19624 0.81366 0.15456 0.0
H1722 H 0.27691 0.81917 0.20611 0.0
H1723 H 0.25167 0.82464 0.18825 0.0
H1724 H 0.20885 0.83919 0.22286 0.0
C1725 C 0.15448 0.82872 0.17699 0.0
C1726 C 0.19892 0.81956 0.16942 0.0
C1727 C 0.13866 0.82943 0.16725 0.0
C1728 C 0.26453 0.81836 0.21229 0.0
C1729 C 0.24998 0.8214 0.20201 0.0
C1730 C 0.20626 0.83341 0.20797 0.0
C1731 C 0.17041 0.83055 0.16847 0.0
C1732 C 0.18712 0.82879 0.17875 0.0
C1733 C 0.23359 0.82059 0.20952 0.0
C1734 C 0.21788 0.82386 0.19873 0.0
H1735 H 0.15434 0.83631 0.12587 0.0
H1736 H 0.18196 0.83541 0.14291 0.0
H1737 H 0.18277 0.84337 0.20591 0.0
H1738 H 0.24482 0.8094 0.25118 0.0
H1739 H 0.21981 0.815 0.23368 0.0
C1740 C 0.52346 0.84371 0.4464 0.0
C1741 C 0.53004 0.83145 0.45611 0.0
C1742 C 0.52439 0.86271 0.45488 0.0
C1743 C 0.5478 0.90262 0.49481 0.0
H1744 H 0.51243 0.92636 0.47742 0.0
C1745 C 0.55007 0.98433 0.52058 0.0
C1746 C 0.54941 0.9941 0.50573 0.0
C1747 C 0.54594 0.96402 0.51713 0.0
C1748 C 0.52241 0.91996 0.48249 0.0
H1749 H 0.54259 0.82999 0.48283 0.0
H1750 H 0.54386 0.86321 0.49791 0.0
H1751 H 0.50839 0.89184 0.46726 0.0
H1752 H 0.54381 0.99026 0.47578 0.0
H1753 H 0.53593 0.95504 0.46984 0.0
H1754 H 0.56166 0.93103 0.5102 0.0
C1755 C 0.5382 0.85806 0.48347 0.0
C1756 C 0.5202 0.9001 0.47653 0.0
C1757 C 0.53735 0.83889 0.47486 0.0
C1758 C 0.54415 0.98313 0.48752 0.0
C1759 C 0.53965 0.96294 0.48413 0.0
C1760 C 0.54987 0.92252 0.50102 0.0
C1761 C 0.53178 0.87033 0.47356 0.0
C1762 C 0.53313 0.89113 0.48207 0.0
C1763 C 0.54081 0.95307 0.4988 0.0
C1764 C 0.53744 0.93154 0.49451 0.0
H1765 H 0.51781 0.83878 0.43192 0.0
H1766 H 0.51969 0.87157 0.44645 0.0
H1767 H 0.55814 0.89647 0.4994 0.0
H1768 H 0.55446 0.99237 0.53473 0.0
H1769 H 0.54694 0.95687 0.52874 0.0
C1770 C 0.54172 0.3025 0.67217 0.0
C1771 C 0.54569 0.31211 0.65729 0.0
C1772 C 0.52536 0.30086 0.67955 0.0
C1773 C 0.48624 0.32142 0.68241 0.0
H1774 H 0.46521 0.27447 0.69976 0.0
C1775 C 0.41601 0.29267 0.71314 0.0
C1776 C 0.41984 0.2966 0.73275 0.0
C1777 C 0.42991 0.29523 0.70157 0.0
C1778 C 0.47083 0.28756 0.69478 0.0
H1779 H 0.53544 0.3277 0.63862 0.0
H1780 H 0.50674 0.32471 0.6514 0.0
H1781 H 0.49231 0.27717 0.68412 0.0
H1782 H 0.44134 0.30757 0.7554 0.0
H1783 H 0.46527 0.31166 0.73527 0.0
H1784 H 0.46466 0.33174 0.69348 0.0
C1785 C 0.51642 0.3186 0.65752 0.0
C1786 C 0.4865 0.28925 0.68601 0.0
C1787 C 0.53289 0.3203 0.65015 0.0
C1788 C 0.43782 0.30401 0.7404 0.0
C1789 C 0.45158 0.30649 0.72891 0.0
C1790 C 0.4705 0.31968 0.69119 0.0
C1791 C 0.51233 0.30866 0.67222 0.0
C1792 C 0.4947 0.30637 0.68005 0.0
C1793 C 0.44782 0.30186 0.70942 0.0
C1794 C 0.46282 0.30283 0.69768 0.0
H1795 H 0.55125 0.29608 0.67813 0.0
H1796 H 0.523 0.29352 0.69114 0.0
H1797 H 0.49214 0.33486 0.67817 0.0
H1798 H 0.40238 0.28688 0.70675 0.0
H1799 H 0.4267 0.29151 0.68653 0.0
C1800 C 0.03352 0.82361 0.61578 0.0
C1801 C 0.01935 0.81983 0.62673 0.0
C1802 C 0.03622 0.83912 0.60682 0.0
C1803 C 0.01414 0.86788 0.58497 0.0
H1804 H 0.0624 0.90001 0.58697 0.0
C1805 C 0.03863 0.90655 0.52556 0.0
C1806 C 0.05016 0.92521 0.53061 0.0
C1807 C 0.03377 0.89565 0.53922 0.0
C1808 C 0.04879 0.89142 0.58641 0.0
H1809 H 0.99683 0.82924 0.63695 0.0
H1810 H 1.00138 0.85651 0.6206 0.0
H1811 H 0.05543 0.87864 0.609 0.0
H1812 H 0.06625 0.94682 0.55367 0.0
H1813 H 0.05752 0.92803 0.57744 0.0
H1814 H 0.00761 0.88034 0.56201 0.0
C1815 C 0.01043 0.84741 0.61928 0.0
C1816 C 0.04483 0.87917 0.599 0.0
C1817 C 0.00788 0.83193 0.6286 0.0
C1818 C 0.05715 0.93255 0.54941 0.0
C1819 C 0.05223 0.92175 0.56302 0.0
C1820 C 0.01811 0.88017 0.57231 0.0
C1821 C 0.02472 0.85112 0.60843 0.0
C1822 C 0.02764 0.86687 0.59798 0.0
C1823 C 0.0404 0.90324 0.55811 0.0
C1824 C 0.0356 0.89165 0.57259 0.0
H1825 H 0.04264 0.8146 0.61415 0.0
H1826 H 0.04716 0.84152 0.5983 0.0
H1827 H 1.00081 0.85841 0.5839 0.0
H1828 H 0.03299 0.90061 0.51119 0.0
H1829 H 0.0249 0.88126 0.53498 0.0
C1830 C 0.54942 0.8411 0.85419 0.0
C1831 C 0.55061 0.82371 0.859 0.0
C1832 C 0.53338 0.84281 0.8464 0.0
C1833 C 0.48478 0.82031 0.8375 0.0
H1834 H 0.48945 0.84953 0.79782 0.0
C1835 C 0.42627 0.82254 0.7858 0.0
C1836 C 0.42554 0.84104 0.78345 0.0
C1837 C 0.44086 0.82011 0.79612 0.0
C1838 C 0.48797 0.84148 0.80897 0.0
H1839 H 0.53592 0.79467 0.86024 0.0
H1840 H 0.50767 0.79734 0.84569 0.0
H1841 H 0.51595 0.84517 0.81365 0.0
H1842 H 0.43957 0.87148 0.79034 0.0
H1843 H 0.46538 0.86707 0.80779 0.0
H1844 H 0.45656 0.81621 0.83217 0.0
C1845 C 0.51916 0.80977 0.84828 0.0
C1846 C 0.50313 0.83901 0.81811 0.0
C1847 C 0.53529 0.80817 0.85649 0.0
C1848 C 0.43982 0.85702 0.79159 0.0
C1849 C 0.45452 0.85453 0.80169 0.0
C1850 C 0.46952 0.82257 0.82812 0.0
C1851 C 0.51819 0.82703 0.8428 0.0
C1852 C 0.50177 0.82866 0.83267 0.0
C1853 C 0.45515 0.83606 0.80402 0.0
C1854 C 0.47107 0.83337 0.81394 0.0
H1855 H 0.56096 0.85349 0.85644 0.0
H1856 H 0.53298 0.85653 0.843 0.0
H1857 H 0.48329 0.81238 0.84873 0.0
H1858 H 0.41571 0.80985 0.77941 0.0
H1859 H 0.44119 0.8057 0.79751 0.0
C1860 C 0.48987 0.18968 0.13988 0.0
C1861 C 0.48707 0.2053 0.13255 0.0
C1862 C 0.48959 0.17244 0.1279 0.0
C1863 C 0.50323 0.16032 0.08236 0.0
H1864 H 0.49228 0.10847 0.09203 0.0
C1865 C 0.53209 0.10117 0.04262 0.0
C1866 C 0.53798 0.08961 0.05362 0.0
C1867 C 0.52236 0.11381 0.05003 0.0
C1868 C 0.49548 0.12291 0.0892 0.0
H1869 H 0.47914 0.21418 0.10727 0.0
H1870 H 0.47868 0.18407 0.08643 0.0
H1871 H 0.47859 0.13203 0.10896 0.0
H1872 H 0.53769 0.08177 0.08087 0.0
H1873 H 0.5219 0.10462 0.09415 0.0
H1874 H 0.52091 0.15169 0.06348 0.0
C1875 C 0.48148 0.18531 0.10136 0.0
C1876 C 0.48753 0.1363 0.09877 0.0
C1877 C 0.48172 0.20252 0.11332 0.0
C1878 C 0.53412 0.09109 0.07224 0.0
C1879 C 0.52454 0.10378 0.0797 0.0
C1880 C 0.51129 0.147 0.07292 0.0
C1881 C 0.48647 0.17059 0.10844 0.0
C1882 C 0.49172 0.15528 0.09581 0.0
C1883 C 0.5183 0.11507 0.06861 0.0
C1884 C 0.50793 0.12834 0.07668 0.0
H1885 H 0.49385 0.1913 0.15465 0.0
H1886 H 0.49347 0.1613 0.13376 0.0
H1887 H 0.50696 0.17495 0.08 0.0
H1888 H 0.53469 0.10019 0.0282 0.0
H1889 H 0.51766 0.12224 0.04109 0.0
C1890 C 0.15068 0.32829 0.34703 0.0
C1891 C 0.13538 0.3126 0.34289 0.0
C1892 C 0.16511 0.32856 0.33651 0.0
C1893 C 0.17987 0.30384 0.29352 0.0
H1894 H 0.22417 0.31418 0.32536 0.0
C1895 C 0.2506 0.28246 0.2938 0.0
C1896 C 0.25712 0.28806 0.27766 0.0
C1897 C 0.23513 0.28667 0.29974 0.0
C1898 C 0.21189 0.31126 0.3163 0.0
H1899 H 0.12269 0.28561 0.32367 0.0
H1900 H 0.14787 0.28592 0.30562 0.0
H1901 H 0.19822 0.3212 0.33882 0.0
H1902 H 0.25336 0.30311 0.25545 0.0
H1903 H 0.22589 0.31021 0.26566 0.0
H1904 H 0.19362 0.29321 0.27112 0.0
C1905 C 0.14874 0.29809 0.31684 0.0
C1906 C 0.19708 0.31554 0.32394 0.0
C1907 C 0.13435 0.29783 0.32733 0.0
C1908 C 0.24806 0.298 0.26753 0.0
C1909 C 0.2325 0.30217 0.27344 0.0
C1910 C 0.19478 0.29963 0.28583 0.0
C1911 C 0.1645 0.31315 0.32167 0.0
C1912 C 0.18078 0.31145 0.31275 0.0
C1913 C 0.22614 0.29689 0.28983 0.0
C1914 C 0.21076 0.30284 0.2973 0.0
H1915 H 0.1518 0.34001 0.35881 0.0
H1916 H 0.17698 0.34052 0.34038 0.0
H1917 H 0.16753 0.3007 0.28451 0.0
H1918 H 0.25772 0.27522 0.30203 0.0
H1919 H 0.2304 0.28229 0.31234 0.0
C1920 C 0.95867 0.07216 0.20031 0.0
C1921 C 0.96719 0.07046 0.21735 0.0
C1922 C 0.96698 0.07137 0.18347 0.0
C1923 C 0.01193 0.07439 0.16353 0.0
H1924 H 0.98229 0.05291 0.1164 0.0
C1925 C 0.042 0.07582 0.0902 0.0
C1926 C 0.03421 0.06093 0.07451 0.0
C1927 C 0.03431 0.07727 0.10748 0.0
C1928 C 0.99102 0.05889 0.1293 0.0
H1929 H 0.99193 0.06672 0.22909 0.0
H1930 H 0.00637 0.06562 0.20014 0.0
H1931 H 0.96875 0.05454 0.14559 0.0
H1932 H 0.0115 0.03596 0.06568 0.0
H1933 H 0.99835 0.03842 0.0951 0.0
H1934 H 0.03424 0.07857 0.14716 0.0
C1935 C 0.99309 0.06761 0.19974 0.0
C1936 C 0.98307 0.06006 0.14637 0.0
C1937 C 0.98467 0.06819 0.21659 0.0
C1938 C 0.01819 0.04774 0.07705 0.0
C1939 C 0.01045 0.04925 0.09422 0.0
C1940 C 0.01989 0.07337 0.14641 0.0
C1941 C 0.98442 0.069 0.18259 0.0
C1942 C 0.99325 0.06781 0.16404 0.0
C1943 C 0.01826 0.06402 0.11003 0.0
C1944 C 0.00969 0.0655 0.12874 0.0
H1945 H 0.94527 0.07387 0.19984 0.0
H1946 H 0.9596 0.07283 0.17106 0.0
H1947 H 0.02057 0.08065 0.17645 0.0
H1948 H 0.0541 0.08656 0.08916 0.0
H1949 H 0.04093 0.08911 0.11882 0.0
C1950 C 0.31395 0.69882 0.45931 0.0
C1951 C 0.30478 0.67928 0.45661 0.0
C1952 C 0.31498 0.70835 0.44436 0.0
C1953 C 0.30279 0.70167 0.39272 0.0
H1954 H 0.29445 0.752 0.40784 0.0
C1955 C 0.26739 0.73935 0.34514 0.0
C1956 C 0.27384 0.75945 0.34717 0.0
C1957 C 0.27509 0.7295 0.35654 0.0
C1958 C 0.29709 0.73813 0.40338 0.0
H1959 H 0.2901 0.654 0.43637 0.0
H1960 H 0.29103 0.67078 0.41027 0.0
H1961 H 0.30121 0.73481 0.43146 0.0
H1962 H 0.29393 0.78487 0.36208 0.0
H1963 H 0.30738 0.76763 0.38203 0.0
H1964 H 0.29747 0.70478 0.36447 0.0
C1965 C 0.29806 0.67872 0.42369 0.0
C1966 C 0.30108 0.72824 0.41695 0.0
C1967 C 0.29747 0.66906 0.43861 0.0
C1968 C 0.2887 0.76937 0.36017 0.0
C1969 C 0.29633 0.75954 0.37165 0.0
C1970 C 0.29855 0.71151 0.37909 0.0
C1971 C 0.30623 0.69868 0.42656 0.0
C1972 C 0.30382 0.70979 0.41185 0.0
C1973 C 0.28931 0.7396 0.37026 0.0
C1974 C 0.2955 0.72976 0.38433 0.0
H1975 H 0.31965 0.70691 0.47317 0.0
H1976 H 0.32188 0.72356 0.447 0.0
H1977 H 0.30501 0.6876 0.38826 0.0
H1978 H 0.2561 0.73131 0.33503 0.0
H1979 H 0.26935 0.71414 0.35525 0.0
C1980 C 0.66621 0.03293 0.68828 0.0
C1981 C 0.66089 0.02691 0.70474 0.0
C1982 C 0.65365 0.03043 0.67314 0.0
C1983 C 0.61353 0.00562 0.64631 0.0
H1984 H 0.60896 0.05592 0.64031 0.0
C1985 C 0.57028 0.01855 0.58468 0.0
C1986 C 0.57966 0.0332 0.57608 0.0
C1987 C 0.5775 0.01583 0.60161 0.0
C1988 C 0.61001 0.04178 0.64187 0.0
H1989 H 0.63857 0.01224 0.71781 0.0
H1990 H 0.61648 0.00774 0.69091 0.0
H1991 H 0.62702 0.05319 0.66755 0.0
H1992 H 0.60405 0.05615 0.57817 0.0
H1993 H 0.61658 0.05129 0.60742 0.0
H1994 H 0.5973 0.99436 0.62 0.0
C1995 C 0.63038 0.0145 0.69002 0.0
C1996 C 0.62024 0.04024 0.65742 0.0
C1997 C 0.64296 0.01719 0.70534 0.0
C1998 C 0.59642 0.04483 0.58448 0.0
C1999 C 0.60355 0.04216 0.60132 0.0
C2000 C 0.60331 0.00717 0.63059 0.0
C2001 C 0.63566 0.02165 0.67413 0.0
C2002 C 0.62245 0.02227 0.65942 0.0
C2003 C 0.59411 0.02778 0.61011 0.0
C2004 C 0.60202 0.02538 0.628 0.0
H2005 H 0.67993 0.04038 0.68737 0.0
H2006 H 0.65785 0.03603 0.6609 0.0
H2007 H 0.61524 0.99168 0.64772 0.0
H2008 H 0.55744 0.00918 0.57835 0.0
H2009 H 0.57004 1.0046 0.60814 0.0
C2010 C 0.31621 0.33797 0.96547 0.0
C2011 C 0.31206 0.35554 0.97167 0.0
C2012 C 0.31627 0.33092 0.94635 0.0
C2013 C 0.32542 0.34777 0.90363 0.0
H2014 H 0.29697 0.29783 0.87626 0.0
C2015 C 0.31348 0.33151 0.82392 0.0
C2016 C 0.31079 0.31273 0.81362 0.0
C2017 C 0.31559 0.33525 0.84338 0.0
C2018 C 0.30533 0.31165 0.88373 0.0
H2019 H 0.30443 0.37931 0.96267 0.0
H2020 H 0.30504 0.36726 0.92933 0.0
H2021 H 0.29597 0.30688 0.91001 0.0
H2022 H 0.30787 0.28293 0.81555 0.0
H2023 H 0.31222 0.28952 0.84991 0.0
H2024 H 0.33519 0.35258 0.87776 0.0
C2025 C 0.30804 0.35887 0.93928 0.0
C2026 C 0.30461 0.31686 0.90303 0.0
C2027 C 0.30758 0.36569 0.95834 0.0
C2028 C 0.31036 0.29763 0.8232 0.0
C2029 C 0.3126 0.3014 0.84286 0.0
C2030 C 0.32642 0.34245 0.88448 0.0
C2031 C 0.31259 0.34155 0.93313 0.0
C2032 C 0.31429 0.33519 0.91303 0.0
C2033 C 0.31504 0.32029 0.85322 0.0
C2034 C 0.31596 0.32456 0.8741 0.0
H2035 H 0.31971 0.32981 0.97541 0.0
H2036 H 0.31984 0.31755 0.94195 0.0
H2037 H 0.3333 0.36183 0.9111 0.0
H2038 H 0.31353 0.34334 0.81685 0.0
H2039 H 0.31695 0.34988 0.85068 0.0
C2040 C 0.99292 0.04815 0.32739 0.0
C2041 C 0.98069 0.05921 0.32541 0.0
C2042 C 1.00069 0.04726 0.34524 0.0
C2043 C 1.00268 0.06819 0.39861 0.0
H2044 H 0.02916 0.0308 0.40357 0.0
C2045 C 0.02166 0.05213 0.47194 0.0
C2046 C 0.03892 0.05037 0.47677 0.0
C2047 C 0.01559 0.05294 0.45357 0.0
C2048 C 0.02192 0.04148 0.40256 0.0
H2049 H 0.96711 0.07776 0.34163 0.0
H2050 H 0.97966 0.07579 0.37206 0.0
H2051 H 0.01668 0.03242 0.37275 0.0
H2052 H 0.06338 0.04844 0.46503 0.0
H2053 H 0.0525 0.0489 0.43265 0.0
H2054 H 0.00754 0.07665 0.42862 0.0
C2055 C 0.98405 0.06808 0.36004 0.0
C2056 C 0.0146 0.04252 0.38454 0.0
C2057 C 0.97655 0.06922 0.3422 0.0
C2058 C 0.04988 0.04932 0.46208 0.0
C2059 C 0.0436 0.04971 0.4434 0.0
C2060 C 0.00968 0.06685 0.41655 0.0
C2061 C 0.99646 0.05711 0.36227 0.0
C2062 C 0.00467 0.05592 0.3819 0.0
C2063 C 0.02635 0.05186 0.43878 0.0
C2064 C 0.01946 0.05347 0.41906 0.0
H2065 H 0.99662 0.04013 0.31502 0.0
H2066 H 0.01014 0.03875 0.3454 0.0
H2067 H 0.99577 0.07917 0.39815 0.0
H2068 H 0.01271 0.05314 0.48262 0.0
H2069 H 1.00223 0.05438 0.45095 0.0
C2070 C 0.30326 0.69927 0.55854 0.0
C2071 C 0.29869 0.6792 0.5572 0.0
C2072 C 0.30183 0.71144 0.57503 0.0
C2073 C 0.29943 0.71335 0.62529 0.0
H2074 H 0.28104 0.75758 0.62274 0.0
C2075 C 0.30853 0.78244 0.68213 0.0
C2076 C 0.29703 0.77604 0.69508 0.0
C2077 C 0.30611 0.77203 0.66378 0.0
C2078 C 0.28614 0.74524 0.62351 0.0
H2079 H 0.28937 0.65613 0.5722 0.0
H2080 H 0.28678 0.67738 0.60094 0.0
H2081 H 0.28243 0.73529 0.59383 0.0
H2082 H 0.27248 0.75536 0.69828 0.0
H2083 H 0.26835 0.73724 0.66625 0.0
H2084 H 0.3029 0.72324 0.65498 0.0
C2085 C 0.29162 0.68372 0.5893 0.0
C2086 C 0.28707 0.7326 0.60709 0.0
C2087 C 0.29311 0.67155 0.57283 0.0
C2088 C 0.28192 0.76035 0.68881 0.0
C2089 C 0.27943 0.75004 0.67049 0.0
C2090 C 0.29834 0.72585 0.64164 0.0
C2091 C 0.29577 0.70377 0.59048 0.0
C2092 C 0.29395 0.71667 0.60783 0.0
C2093 C 0.29192 0.75539 0.65816 0.0
C2094 C 0.29188 0.74192 0.64079 0.0
H2095 H 0.3076 0.7056 0.54673 0.0
H2096 H 0.30545 0.72686 0.57566 0.0
H2097 H 0.30498 0.70136 0.62631 0.0
H2098 H 0.31997 0.79468 0.68634 0.0
H2099 H 0.3159 0.77625 0.65434 0.0
C2100 C 0.66592 0.06996 0.81533 0.0
C2101 C 0.66999 0.05248 0.80888 0.0
C2102 C 0.66048 0.0739 0.83301 0.0
C2103 C 0.65501 0.05691 0.87789 0.0
H2104 H 0.61444 0.07846 0.8768 0.0
C2105 C 0.59847 0.04416 0.92486 0.0
C2106 C 0.58977 0.05869 0.92964 0.0
C2107 C 0.61279 0.04706 0.91418 0.0
C2108 C 0.62601 0.07288 0.87757 0.0
H2109 H 0.67245 0.02572 0.81601 0.0
H2110 H 0.66183 0.03206 0.84681 0.0
H2111 H 0.63073 0.07604 0.84984 0.0
H2112 H 0.59023 0.08825 0.92868 0.0
H2113 H 0.61525 0.09332 0.9099 0.0
H2114 H 0.64936 0.05278 0.90545 0.0
C2115 C 0.66332 0.04298 0.83836 0.0
C2116 C 0.6354 0.07146 0.86205 0.0
C2117 C 0.66922 0.03924 0.8207 0.0
C2118 C 0.59645 0.07666 0.92477 0.0
C2119 C 0.6108 0.07959 0.91414 0.0
C2120 C 0.64546 0.05819 0.89346 0.0
C2121 C 0.6585 0.0602 0.84449 0.0
C2122 C 0.64983 0.06319 0.86187 0.0
C2123 C 0.61863 0.06455 0.90812 0.0
C2124 C 0.63067 0.06589 0.89327 0.0
H2125 H 0.66687 0.08064 0.80663 0.0
H2126 H 0.65741 0.08754 0.8375 0.0
H2127 H 0.66621 0.05072 0.87828 0.0
H2128 H 0.59357 0.03014 0.9284 0.0
H2129 H 0.61844 0.03515 0.9096 0.0
C2130 C 0.3018 0.34338 0.07223 0.0
C2131 C 0.30121 0.36274 0.07479 0.0
C2132 C 0.29874 0.33318 0.08677 0.0
C2133 C 0.28 0.33456 0.13266 0.0
H2134 H 0.30985 0.3011 0.14108 0.0
C2135 C 0.28925 0.3117 0.2031 0.0
C2136 C 0.2893 0.2925 0.20313 0.0
C2137 C 0.28887 0.31837 0.18639 0.0
C2138 C 0.30122 0.31016 0.13875 0.0
H2139 H 0.29674 0.38642 0.09471 0.0
H2140 H 0.29171 0.36883 0.11998 0.0
H2141 H 0.31274 0.31646 0.11396 0.0
H2142 H 0.28886 0.26516 0.18556 0.0
H2143 H 0.28853 0.27699 0.15615 0.0
H2144 H 0.26891 0.32873 0.1578 0.0
C2145 C 0.29423 0.36135 0.10667 0.0
C2146 C 0.30286 0.31898 0.12318 0.0
C2147 C 0.29724 0.37152 0.09216 0.0
C2148 C 0.28877 0.28001 0.18597 0.0
C2149 C 0.28869 0.28681 0.16918 0.0
C2150 C 0.27847 0.32587 0.14827 0.0
C2151 C 0.29503 0.34206 0.10425 0.0
C2152 C 0.29245 0.33154 0.12007 0.0
C2153 C 0.28876 0.3061 0.16923 0.0
C2154 C 0.28924 0.31379 0.15166 0.0
H2155 H 0.30479 0.33611 0.05905 0.0
H2156 H 0.29925 0.31829 0.08426 0.0
H2157 H 0.27146 0.34376 0.13055 0.0
H2158 H 0.28954 0.32168 0.21607 0.0
H2159 H 0.28911 0.33333 0.18697 0.0
C2160 C 0.25858 0.96855 0.00545 0.0
C2161 C 0.27326 0.97308 0.01908 0.0
C2162 C 0.24581 0.979 0.0073 0.0
C2163 C 0.23971 0.02516 0.03267 0.0
H2164 H 0.18929 0.99932 0.02106 0.0
C2165 C 0.18484 0.06063 0.05717 0.0
C2166 C 0.17141 0.05981 0.04314 0.0
C2167 C 0.19704 0.04972 0.05365 0.0
C2168 C 0.20336 0.00667 0.02426 0.0
H2169 H 0.28596 0.99173 0.04547 0.0
H2170 H 0.26365 0.00941 0.04892 0.0
H2171 H 0.21116 0.98074 0.01531 0.0
H2172 H 0.16053 0.04719 0.01427 0.0
H2173 H 0.18157 0.02783 0.00838 0.0
H2174 H 0.23187 0.05094 0.04209 0.0
C2175 C 0.26215 0.99829 0.03653 0.0
C2176 C 0.21586 0.99611 0.02087 0.0
C2177 C 0.27491 0.98805 0.03459 0.0
C2178 C 0.17049 0.04788 0.02552 0.0
C2179 C 0.18252 0.0368 0.02209 0.0
C2180 C 0.22724 0.03562 0.03628 0.0
C2181 C 0.24752 0.99401 0.02288 0.0
C2182 C 0.23417 1.00523 0.02521 0.0
C2183 C 0.19591 0.03768 0.0361 0.0
C2184 C 0.20898 0.02646 0.03221 0.0
H2185 H 0.257 0.95705 0.99337 0.0
H2186 H 0.23473 0.97547 0.99648 0.0
H2187 H 0.25373 0.03271 0.03577 0.0
H2188 H 0.18573 0.06943 0.07096 0.0
H2189 H 0.20723 0.05048 0.0647 0.0
C2190 C 0.73683 0.66914 1.00066 0.0
C2191 C 0.75142 0.66129 0.99802 0.0
C2192 C 0.71968 0.65711 1.00008 0.0
C2193 C 0.68946 0.6098 0.98333 0.0
H2194 H 0.6693 0.6188 0.03022 0.0
C2195 C 0.62243 0.56034 0.99789 0.0
C2196 C 0.61211 0.5688 0.01017 0.0
C2197 C 0.63937 0.57097 0.99499 0.0
C2198 C 0.67445 0.61626 0.01685 0.0
H2199 H 0.75925 0.63462 0.9916 0.0
H2200 H 0.72901 0.61356 0.99009 0.0
H2201 H 0.69846 0.63869 0.02669 0.0
H2202 H 0.611 0.59566 0.02774 0.0
H2203 H 0.63959 0.61427 0.02183 0.0
H2204 H 0.66518 0.58784 0.97317 0.0
C2205 C 0.73103 0.62905 0.99282 0.0
C2206 C 0.69128 0.6276 0.01494 0.0
C2207 C 0.7483 0.6411 0.99376 0.0
C2208 C 0.61867 0.58842 0.01855 0.0
C2209 C 0.63529 0.59913 0.01529 0.0
C2210 C 0.67236 0.59865 0.98509 0.0
C2211 C 0.71668 0.637 0.99647 0.0
C2212 C 0.6989 0.62456 0.99817 0.0
C2213 C 0.64616 0.59048 0.00391 0.0
C2214 C 0.66455 0.60184 1.00186 0.0
H2215 H 0.73875 0.6846 0.004 0.0
H2216 H 0.70878 0.66354 0.00288 0.0
H2217 H 0.69514 0.60722 0.97026 0.0
H2218 H 0.61762 0.54545 0.99078 0.0
H2219 H 0.64726 0.56372 0.9861 0.0
C2220 C 0.71491 0.45074 0.27196 0.0
C2221 C 0.71707 0.46165 0.25767 0.0
C2222 C 0.72326 0.43552 0.27265 0.0
C2223 C 0.75792 0.41067 0.24964 0.0
H2224 H 0.74015 0.37341 0.28012 0.0
C2225 C 0.78546 0.34032 0.25042 0.0
C2226 C 0.78529 0.33274 0.26698 0.0
C2227 C 0.7779 0.35605 0.24871 0.0
C2228 C 0.74567 0.38367 0.27161 0.0
H2229 H 0.73031 0.46399 0.23269 0.0
H2230 H 0.74428 0.43772 0.23352 0.0
H2231 H 0.72613 0.39916 0.27844 0.0
H2232 H 0.77648 0.33661 0.29455 0.0
H2233 H 0.76371 0.36317 0.29172 0.0
H2234 H 0.77731 0.39463 0.24262 0.0
C2235 C 0.73636 0.44099 0.24466 0.0
C2236 C 0.73743 0.39889 0.27063 0.0
C2237 C 0.72809 0.45632 0.24406 0.0
C2238 C 0.77713 0.34171 0.28152 0.0
C2239 C 0.76951 0.35714 0.2798 0.0
C2240 C 0.7661 0.39528 0.25052 0.0
C2241 C 0.73426 0.42997 0.25899 0.0
C2242 C 0.74328 0.41309 0.25974 0.0
C2243 C 0.76942 0.36479 0.26332 0.0
C2244 C 0.76034 0.38134 0.26168 0.0
H2245 H 0.70676 0.45406 0.2829 0.0
H2246 H 0.72111 0.42828 0.2843 0.0
H2247 H 0.76346 0.42087 0.24112 0.0
H2248 H 0.79116 0.33389 0.23859 0.0
H2249 H 0.77831 0.36101 0.23563 0.0
C2250 C 0.87507 0.4426 0.50685 0.0
C2251 C 0.86323 0.45429 0.50854 0.0
C2252 C 0.89335 0.45091 0.50787 0.0
C2253 C 0.92751 0.49623 0.50723 0.0
H2254 H 0.95526 0.47756 0.54188 0.0
C2255 C 0.99848 0.53874 0.53944 0.0
C2256 C 0.01099 0.52802 0.53945 0.0
C2257 C 0.98045 0.52933 0.53467 0.0
C2258 C 0.94773 0.48277 0.532 0.0
H2259 H 0.8611 0.48367 0.51125 0.0
H2260 H 0.89299 0.49814 0.51332 0.0
H2261 H 0.9238 0.46127 0.5332 0.0
H2262 H 0.01494 0.49947 0.53655 0.0
H2263 H 0.98331 0.48279 0.52809 0.0
H2264 H 0.95138 0.51813 0.50655 0.0
C2265 C 0.88818 0.48259 0.51111 0.0
C2266 C 0.92975 0.4734 0.52695 0.0
C2267 C 0.86991 0.47429 0.51006 0.0
C2268 C 0.00537 0.50786 0.53595 0.0
C2269 C 0.98734 0.49841 0.53135 0.0
C2270 C 0.9455 0.50568 0.51237 0.0
C2271 C 0.90009 0.47103 0.51059 0.0
C2272 C 0.91945 0.48009 0.5146 0.0
C2273 C 0.97475 0.50907 0.53039 0.0
C2274 C 0.95574 0.49905 0.52484 0.0
H2275 H 0.8703 0.42711 0.50546 0.0
H2276 H 0.90225 0.44165 0.50708 0.0
H2277 H 0.9199 0.5016 0.49758 0.0
H2278 H 1.00266 0.55432 0.54293 0.0
H2279 H 0.97097 0.53788 0.53448 0.0
C2280 C 0.37313 0.10105 0.30887 0.0
C2281 C 0.39117 0.10487 0.306 0.0
C2282 C 0.36367 0.11448 0.30673 0.0
C2283 C 0.36727 0.16253 0.29361 0.0
H2284 H 0.32409 0.13332 0.26154 0.0
C2285 C 0.33505 0.19014 0.23453 0.0
C2286 C 0.31638 0.18603 0.23235 0.0
C2287 C 0.34364 0.18267 0.24758 0.0
C2288 C 0.33593 0.14176 0.2707 0.0
H2289 H 0.41407 0.12617 0.30054 0.0
H2290 H 0.39745 0.14933 0.29583 0.0
H2291 H 0.34002 0.11686 0.27945 0.0
H2292 H 0.29203 0.17103 0.24207 0.0
H2293 H 0.30701 0.15789 0.26475 0.0
H2294 H 0.36345 0.18729 0.28372 0.0
C2295 C 0.39056 0.13629 0.30022 0.0
C2296 C 0.34505 0.13235 0.28115 0.0
C2297 C 0.40013 0.12303 0.30289 0.0
C2298 C 0.30645 0.17444 0.2435 0.0
C2299 C 0.31501 0.1669 0.25643 0.0
C2300 C 0.35817 0.17194 0.28296 0.0
C2301 C 0.37198 0.13161 0.30096 0.0
C2302 C 0.36102 0.14251 0.2925 0.0
C2303 C 0.33367 0.17085 0.25854 0.0
C2304 C 0.34258 0.16154 0.27117 0.0
H2305 H 0.36605 0.08713 0.31146 0.0
H2306 H 0.34952 0.11072 0.3081 0.0
H2307 H 0.37941 0.17083 0.30234 0.0
H2308 H 0.34301 0.19926 0.22627 0.0
H2309 H 0.35804 0.18576 0.24878 0.0
C2310 C 0.36082 0.15359 0.5004 0.0
C2311 C 0.34903 0.15454 0.51414 0.0
C2312 C 0.3744 0.14432 0.50217 0.0
C2313 C 0.38624 0.10841 0.52727 0.0
H2314 H 0.43302 0.12587 0.51116 0.0
C2315 C 0.43565 0.06235 0.52748 0.0
C2316 C 0.45355 0.07171 0.53416 0.0
C2317 C 0.42374 0.07288 0.52347 0.0
C2318 C 0.42006 0.12088 0.51584 0.0
H2319 H 0.34284 0.14735 0.54094 0.0
H2320 H 0.36656 0.13188 0.54428 0.0
H2321 H 0.41094 0.14397 0.50783 0.0
H2322 H 0.47315 0.09949 0.54118 0.0
H2323 H 0.45223 0.11802 0.53443 0.0
H2324 H 0.39534 0.08579 0.53586 0.0
C2325 C 0.36506 0.13758 0.53178 0.0
C2326 C 0.40731 0.13114 0.51373 0.0
C2327 C 0.35145 0.14657 0.5299 0.0
C2328 C 0.45944 0.09185 0.53601 0.0
C2329 C 0.44744 0.10246 0.5321 0.0
C2330 C 0.39893 0.09828 0.52944 0.0
C2331 C 0.37655 0.13597 0.51781 0.0
C2332 C 0.39023 0.12507 0.51952 0.0
C2333 C 0.42933 0.09312 0.52617 0.0
C2334 C 0.416 0.10427 0.52371 0.0
H2335 H 0.35934 0.15966 0.48812 0.0
H2336 H 0.38291 0.14329 0.49108 0.0
H2337 H 0.3732 0.10303 0.53162 0.0
H2338 H 0.43076 0.04682 0.52552 0.0
H2339 H 0.41005 0.06509 0.51843 0.0
C2340 C 0.73119 0.57694 0.27577 0.0
C2341 C 0.71263 0.57127 0.27692 0.0
C2342 C 0.74034 0.59654 0.27623 0.0
C2343 C 0.73325 0.64214 0.2651 0.0
H2344 H 0.77556 0.66944 0.29897 0.0
C2345 C 0.76337 0.72537 0.26982 0.0
C2346 C 0.78117 0.73474 0.27734 0.0
C2347 C 0.75555 0.70571 0.27005 0.0
C2348 C 0.76397 0.66225 0.28905 0.0
H2349 H 0.68943 0.5825 0.27911 0.0
H2350 H 0.70504 0.61585 0.27922 0.0
H2351 H 0.76205 0.63536 0.29819 0.0
H2352 H 0.80414 0.73005 0.29187 0.0
H2353 H 0.79135 0.69605 0.29116 0.0
H2354 H 0.73526 0.66829 0.25521 0.0
C2355 C 0.71267 0.6053 0.27831 0.0
C2356 C 0.75611 0.64243 0.28872 0.0
C2357 C 0.70368 0.58598 0.27837 0.0
C2358 C 0.79065 0.72355 0.28539 0.0
C2359 C 0.783 0.70375 0.28527 0.0
C2360 C 0.74131 0.66178 0.26507 0.0
C2361 C 0.73117 0.61106 0.27724 0.0
C2362 C 0.74045 0.63202 0.2769 0.0
C2363 C 0.7652 0.69417 0.27752 0.0
C2364 C 0.75679 0.67257 0.27723 0.0
H2365 H 0.73867 0.56625 0.27455 0.0
H2366 H 0.75456 0.60026 0.27532 0.0
H2367 H 0.72135 0.63475 0.25559 0.0
H2368 H 0.75531 0.73325 0.26366 0.0
H2369 H 0.74174 0.69977 0.2644 0.0
C2370 C 0.9099 0.49903 0.80192 0.0
C2371 C 0.90006 0.5127 0.80243 0.0
C2372 C 0.9012 0.4795 0.79896 0.0
C2373 C 0.85854 0.4445 0.8 0.0
H2374 H 0.87844 0.41158 0.76454 0.0
C2375 C 0.8275 0.36233 0.77326 0.0
C2376 C 0.83961 0.35143 0.77562 0.0
C2377 C 0.83348 0.38236 0.77615 0.0
C2378 C 0.87279 0.42065 0.77447 0.0
H2379 H 0.87344 0.51683 0.8013 0.0
H2380 H 0.85819 0.48248 0.7959 0.0
H2381 H 0.89153 0.44633 0.77113 0.0
H2382 H 0.86734 0.35233 0.78159 0.0
H2383 H 0.87793 0.38743 0.78639 0.0
H2384 H 0.83965 0.41862 0.80307 0.0
C2385 C 0.87263 0.48695 0.79781 0.0
C2386 C 0.8803 0.44045 0.77831 0.0
C2387 C 0.88135 0.50656 0.80081 0.0
C2388 C 0.85781 0.3606 0.78001 0.0
C2389 C 0.86382 0.38055 0.78269 0.0
C2390 C 0.8509 0.42462 0.79599 0.0
C2391 C 0.88251 0.47327 0.79639 0.0
C2392 C 0.87354 0.4525 0.79146 0.0
C2393 C 0.85169 0.39155 0.78082 0.0
C2394 C 0.8583 0.41258 0.78357 0.0
H2395 H 0.92434 0.50333 0.80337 0.0
H2396 H 0.90912 0.46923 0.79839 0.0
H2397 H 0.8531 0.45352 0.81019 0.0
H2398 H 0.81346 0.35543 0.76925 0.0
H2399 H 0.82397 0.39063 0.77446 0.0
C2400 C 0.07622 0.88075 0.0923 0.0
C2401 C 0.08556 0.869 0.08204 0.0
C2402 C 0.07287 0.8968 0.08602 0.0
C2403 C 0.08623 0.92917 0.05085 0.0
H2404 H 0.0463 0.94796 0.06699 0.0
C2405 C 0.06637 0.99449 0.02559 0.0
C2406 C 0.06382 0.00857 0.04027 0.0
C2407 C 0.06798 0.97644 0.02893 0.0
C2408 C 0.05754 0.94295 0.06232 0.0
H2409 H 0.09838 0.86507 0.05671 0.0
H2410 H 0.09198 0.89229 0.04539 0.0
H2411 H 0.05088 0.91894 0.07598 0.0
H2412 H 0.0611 0.0146 0.06986 0.0
H2413 H 0.06323 0.98335 0.07544 0.0
H2414 H 0.0925 0.9532 0.03683 0.0
C2415 C 0.08764 0.88963 0.05868 0.0
C2416 C 0.06033 0.92624 0.06766 0.0
C2417 C 0.09123 0.87375 0.06513 0.0
C2418 C 0.06281 1.00404 0.05817 0.0
C2419 C 0.064 0.98603 0.06138 0.0
C2420 C 0.08323 0.94573 0.04524 0.0
C2421 C 0.07847 0.90165 0.06903 0.0
C2422 C 0.07493 0.91912 0.06235 0.0
C2423 C 0.06681 0.97195 0.04694 0.0
C2424 C 0.06901 0.9531 0.05115 0.0
H2425 H 0.07173 0.87776 0.10546 0.0
H2426 H 0.06614 0.90562 0.09484 0.0
H2427 H 0.09779 0.92467 0.04652 0.0
H2428 H 0.06755 0.99759 0.01172 0.0
H2429 H 0.07011 0.96599 0.01742 0.0
C2430 C 0.96114 0.27888 0.89837 0.0
C2431 C 0.97341 0.27012 0.88938 0.0
C2432 C 0.94586 0.28062 0.88833 0.0
C2433 C 0.91561 0.26092 0.84354 0.0
H2434 H 0.90123 0.30819 0.85614 0.0
C2435 C 0.85897 0.27635 0.79752 0.0
C2436 C 0.84882 0.28853 0.80553 0.0
C2437 C 0.87349 0.27345 0.80792 0.0
C2438 C 0.90473 0.2947 0.85253 0.0
H2439 H 0.97869 0.25614 0.8624 0.0
H2440 H 0.95199 0.25899 0.84495 0.0
H2441 H 0.92738 0.30448 0.87339 0.0
H2442 H 0.84567 0.30616 0.83161 0.0
H2443 H 0.87045 0.3007 0.84984 0.0
H2444 H 0.89286 0.25096 0.82288 0.0
C2445 C 0.95422 0.26451 0.85989 0.0
C2446 C 0.91993 0.29259 0.86248 0.0
C2447 C 0.96965 0.26294 0.86994 0.0
C2448 C 0.85321 0.29693 0.82469 0.0
C2449 C 0.86768 0.29391 0.83518 0.0
C2450 C 0.9003 0.26294 0.83369 0.0
C2451 C 0.94209 0.27353 0.86888 0.0
C2452 C 0.92571 0.2757 0.85815 0.0
C2453 C 0.87835 0.28238 0.82694 0.0
C2454 C 0.89455 0.27992 0.8379 0.0
H2455 H 0.96341 0.28463 0.91328 0.0
H2456 H 0.93686 0.28741 0.89593 0.0
H2457 H 0.91935 0.24755 0.83987 0.0
H2458 H 0.85588 0.26914 0.78302 0.0
H2459 H 0.88116 0.26454 0.80076 0.0
C2460 C 0.58994 0.2532 0.57157 0.0
C2461 C 0.5851 0.2593 0.58946 0.0
C2462 C 0.58785 0.23341 0.56425 0.0
C2463 C 0.56461 0.18402 0.57234 0.0
H2464 H 0.59972 0.1666 0.5436 0.0
C2465 C 0.57152 0.10718 0.56656 0.0
C2466 C 0.56976 0.09585 0.54852 0.0
C2467 C 0.57423 0.12717 0.5693 0.0
C2468 C 0.58973 0.17127 0.55147 0.0
H2469 H 0.57419 0.24892 0.61349 0.0
H2470 H 0.571 0.21527 0.60118 0.0
H2471 H 0.60217 0.2013 0.55242 0.0
H2472 H 0.56984 0.09693 0.51912 0.0
H2473 H 0.5753 0.13229 0.52401 0.0
H2474 H 0.55263 0.15417 0.5721 0.0
C2475 C 0.576 0.22545 0.59242 0.0
C2476 C 0.59107 0.19119 0.5565 0.0
C2477 C 0.57798 0.24501 0.59962 0.0
C2478 C 0.57148 0.10524 0.53323 0.0
C2479 C 0.57452 0.12547 0.53603 0.0
C2480 C 0.56345 0.1643 0.5676 0.0
C2481 C 0.58085 0.21918 0.5746 0.0
C2482 C 0.57871 0.19794 0.5674 0.0
C2483 C 0.5754 0.13659 0.5541 0.0
C2484 C 0.57613 0.15763 0.55739 0.0
H2485 H 0.59557 0.2637 0.56333 0.0
H2486 H 0.59166 0.22929 0.55044 0.0
H2487 H 0.55443 0.18834 0.58015 0.0
H2488 H 0.57018 0.10043 0.57863 0.0
H2489 H 0.57501 0.13528 0.5834 0.0
C2490 C 0.56992 0.77336 0.3715 0.0
C2491 C 0.57202 0.77691 0.39117 0.0
C2492 C 0.58469 0.77351 0.36133 0.0
C2493 C 0.63373 0.79286 0.36489 0.0
H2494 H 0.63046 0.75253 0.32153 0.0
C2495 C 0.69418 0.79126 0.32155 0.0
C2496 C 0.69026 0.78544 0.302 0.0
C2497 C 0.68046 0.78897 0.33336 0.0
C2498 C 0.63163 0.76412 0.33342 0.0
H2499 H 0.59156 0.78364 0.41547 0.0
H2500 H 0.61721 0.78424 0.39776 0.0
H2501 H 0.60516 0.75167 0.33964 0.0
H2502 H 0.66874 0.77156 0.27983 0.0
H2503 H 0.64514 0.76821 0.3 0.0
H2504 H 0.65997 0.80569 0.3584 0.0
C2505 C 0.60412 0.78122 0.39019 0.0
C2506 C 0.61705 0.76355 0.34388 0.0
C2507 C 0.58934 0.78075 0.40035 0.0
C2508 C 0.67235 0.77657 0.29475 0.0
C2509 C 0.65872 0.77439 0.30646 0.0
C2510 C 0.64827 0.79359 0.35427 0.0
C2511 C 0.60202 0.77755 0.37053 0.0
C2512 C 0.61781 0.77798 0.35968 0.0
C2513 C 0.66243 0.78075 0.32597 0.0
C2514 C 0.64742 0.77933 0.33821 0.0
H2515 H 0.55684 0.77036 0.36392 0.0
H2516 H 0.58257 0.77077 0.34621 0.0
H2517 H 0.63478 0.80429 0.37691 0.0
H2518 H 0.70777 0.79816 0.32768 0.0
H2519 H 0.68402 0.79379 0.3483 0.0
C2520 C 0.10548 0.28592 0.44351 0.0
C2521 C 0.10243 0.27994 0.42396 0.0
C2522 C 0.10348 0.27237 0.45502 0.0
C2523 C 0.099 0.22055 0.45522 0.0
H2524 H 0.07445 0.23109 0.49887 0.0
C2525 C 0.06941 0.16274 0.49777 0.0
C2526 C 0.07242 0.16833 0.51739 0.0
C2527 C 0.07394 0.17636 0.48646 0.0
C2528 C 0.08149 0.22803 0.48685 0.0
H2529 H 0.09563 0.255 0.40117 0.0
H2530 H 0.09184 0.23137 0.42123 0.0
H2531 H 0.08148 0.25481 0.47904 0.0
H2532 H 0.08268 0.19278 0.54039 0.0
H2533 H 0.09022 0.21657 0.52063 0.0
H2534 H 0.09862 0.19352 0.46293 0.0
C2535 C 0.09597 0.24654 0.4277 0.0
C2536 C 0.08558 0.24165 0.4755 0.0
C2537 C 0.09807 0.26011 0.41617 0.0
C2538 C 0.07991 0.18796 0.52538 0.0
C2539 C 0.0843 0.2016 0.51405 0.0
C2540 C 0.0948 0.20685 0.46654 0.0
C2541 C 0.09828 0.2525 0.44727 0.0
C2542 C 0.09441 0.23811 0.45955 0.0
C2543 C 0.08141 0.19594 0.49448 0.0
C2544 C 0.086 0.21046 0.48248 0.0
H2545 H 0.10904 0.30109 0.44998 0.0
H2546 H 0.10577 0.27748 0.47002 0.0
H2547 H 0.10599 0.21743 0.44318 0.0
H2548 H 0.06332 0.14783 0.4911 0.0
H2549 H 0.0713 0.17161 0.47142 0.0
C2550 C 0.57227 0.25614 0.16702 0.0
C2551 C 0.56343 0.26768 0.17817 0.0
C2552 C 0.58896 0.25471 0.17361 0.0
C2553 C 0.61719 0.2627 0.21859 0.0
H2554 H 0.6517 0.25003 0.18594 0.0
C2555 C 0.68731 0.25927 0.24504 0.0
C2556 C 0.69163 0.24207 0.23783 0.0
C2557 C 0.67207 0.26312 0.23749 0.0
C2558 C 0.64211 0.25351 0.19516 0.0
H2559 H 0.56547 0.2879 0.20423 0.0
H2560 H 0.5951 0.2865 0.21529 0.0
H2561 H 0.62524 0.25727 0.17282 0.0
H2562 H 0.6836 0.21548 0.2171 0.0
H2563 H 0.65691 0.22238 0.20366 0.0
H2564 H 0.63446 0.25948 0.24096 0.0
C2565 C 0.58887 0.27773 0.20187 0.0
C2566 C 0.62691 0.25759 0.18768 0.0
C2567 C 0.57198 0.27872 0.19549 0.0
C2568 C 0.68043 0.22875 0.22298 0.0
C2569 C 0.66532 0.23277 0.21521 0.0
C2570 C 0.63254 0.25902 0.22607 0.0
C2571 C 0.59733 0.26518 0.19133 0.0
C2572 C 0.61415 0.26207 0.19928 0.0
C2573 C 0.66105 0.24999 0.22242 0.0
C2574 C 0.64502 0.25422 0.21441 0.0
H2575 H 0.56585 0.24736 0.15365 0.0
H2576 H 0.59484 0.24471 0.16515 0.0
H2577 H 0.60754 0.26557 0.22796 0.0
H2578 H 0.69576 0.26974 0.2565 0.0
H2579 H 0.66903 0.27652 0.24323 0.0
C2580 C 0.62163 0.8858 0.94012 0.0
C2581 C 0.61541 0.87869 0.9211 0.0
C2582 C 0.61932 0.9034 0.94918 0.0
C2583 C 0.5856 0.92735 0.94809 0.0
H2584 H 0.61775 0.97171 0.98108 0.0
C2585 C 0.55864 0.98592 0.99026 0.0
C2586 C 0.56704 0.99451 0.00838 0.0
C2587 C 0.56631 0.97416 0.97805 0.0
C2588 C 0.60856 0.95929 0.9721 0.0
H2589 H 0.6037 0.88539 0.89623 0.0
H2590 H 0.59936 0.91573 0.91221 0.0
H2591 H 0.62978 0.94742 0.96266 0.0
H2592 H 0.59023 0.99759 0.02767 0.0
H2593 H 0.60277 0.9759 0.00719 0.0
H2594 H 0.56428 0.93806 0.95821 0.0
C2595 C 0.60591 0.90768 0.92005 0.0
C2596 C 0.61551 0.94556 0.96147 0.0
C2597 C 0.60833 0.89026 0.91098 0.0
C2598 C 0.58318 0.99093 0.01404 0.0
C2599 C 0.59061 0.97877 1.00204 0.0
C2600 C 0.57863 0.94076 0.95899 0.0
C2601 C 0.61072 0.91396 0.93932 0.0
C2602 C 0.60402 0.92947 0.9495 0.0
C2603 C 0.58233 0.97028 0.98384 0.0
C2604 C 0.58998 0.95682 0.97129 0.0
H2605 H 0.62728 0.8773 0.94823 0.0
H2606 H 0.62306 0.90805 0.96412 0.0
H2607 H 0.5765 0.91484 0.9391 0.0
H2608 H 0.54629 0.98855 0.98532 0.0
H2609 H 0.55971 0.96826 0.96402 0.0
C2610 C 0.95826 0.78886 0.69509 0.0
C2611 C 0.96997 0.78106 0.70457 0.0
C2612 C 0.94236 0.79039 0.70221 0.0
C2613 C 0.91732 0.788 0.74327 0.0
H2614 H 0.87722 0.75961 0.70659 0.0
C2615 C 0.84663 0.76483 0.76501 0.0
C2616 C 0.83289 0.76653 0.75282 0.0
C2617 C 0.86366 0.76661 0.75933 0.0
C2618 C 0.88817 0.76786 0.71698 0.0
H2619 H 0.97527 0.7706 0.72969 0.0
H2620 H 0.94762 0.77346 0.74217 0.0
H2621 H 0.90706 0.7669 0.69708 0.0
H2622 H 0.82513 0.76947 0.72486 0.0
H2623 H 0.8548 0.77333 0.71503 0.0
H2624 H 0.89857 0.7888 0.76325 0.0
C2625 C 0.9506 0.77823 0.72923 0.0
C2626 C 0.90528 0.77209 0.71149 0.0
C2627 C 0.96636 0.77648 0.72203 0.0
C2628 C 0.83584 0.76863 0.73456 0.0
C2629 C 0.85279 0.77053 0.72889 0.0
C2630 C 0.90017 0.78392 0.74876 0.0
C2631 C 0.93814 0.7844 0.71899 0.0
C2632 C 0.92 0.78209 0.72459 0.0
C2633 C 0.86703 0.76998 0.74132 0.0
C2634 C 0.88537 0.77378 0.73568 0.0
H2635 H 0.96077 0.79254 0.68162 0.0
H2636 H 0.93298 0.79538 0.69418 0.0
H2637 H 0.92851 0.79568 0.75364 0.0
H2638 H 0.8443 0.76266 0.77903 0.0
H2639 H 0.87417 0.76555 0.76909 0.0
C2640 C 0.14258 0.01724 0.83668 0.0
C2641 C 0.13894 0.02792 0.82327 0.0
C2642 C 0.13545 0.01865 0.85425 0.0
C2643 C 0.09906 0.035 0.88044 0.0
H2644 H 0.12673 0.03146 0.92478 0.0
C2645 C 0.06796 0.02995 0.95243 0.0
C2646 C 0.07835 0.03988 0.96952 0.0
C2647 C 0.07526 0.02861 0.93499 0.0
C2648 C 0.11869 0.03256 0.91266 0.0
H2649 H 0.12437 0.04858 0.81874 0.0
H2650 H 0.11185 0.05078 0.84877 0.0
H2651 H 0.13906 0.02892 0.89466 0.0
H2652 H 0.10539 0.05589 0.98071 0.0
H2653 H 0.11815 0.05299 0.95077 0.0
H2654 H 0.07861 0.03844 0.8984 0.0
C2655 C 0.12028 0.04117 0.84579 0.0
C2656 C 0.1258 0.03091 0.89508 0.0
C2657 C 0.12762 0.03995 0.82834 0.0
C2658 C 0.09665 0.04809 0.96818 0.0
C2659 C 0.10408 0.04635 0.95078 0.0
C2660 C 0.09182 0.03628 0.89793 0.0
C2661 C 0.12405 0.03064 0.85934 0.0
C2662 C 0.11624 0.03218 0.87844 0.0
C2663 C 0.09355 0.03672 0.93362 0.0
C2664 C 0.10144 0.03519 0.91459 0.0
H2665 H 0.15117 0.00779 0.83369 0.0
H2666 H 0.13875 0.01003 0.8638 0.0
H2667 H 0.09092 0.03595 0.86832 0.0
H2668 H 0.05395 0.02335 0.95238 0.0
H2669 H 0.06646 0.02088 0.92249 0.0
C2670 C 0.80331 0.38996 0.56317 0.0
C2671 C 0.80754 0.41003 0.56449 0.0
C2672 C 0.80899 0.3823 0.57776 0.0
C2673 C 0.82398 0.38867 0.62627 0.0
H2674 H 0.8543 0.35619 0.60812 0.0
C2675 C 0.85254 0.34655 0.6739 0.0
C2676 C 0.84911 0.32679 0.66603 0.0
C2677 C 0.85093 0.3597 0.66267 0.0
C2678 C 0.84588 0.3652 0.6134 0.0
H2679 H 0.81928 0.4378 0.58295 0.0
H2680 H 0.82893 0.42417 0.60874 0.0
H2681 H 0.84216 0.3733 0.58707 0.0
H2682 H 0.84251 0.30551 0.64017 0.0
H2683 H 0.83977 0.3284 0.62055 0.0
H2684 H 0.82693 0.37982 0.65236 0.0
C2685 C 0.82149 0.41453 0.5962 0.0
C2686 C 0.83897 0.37497 0.60139 0.0
C2687 C 0.81593 0.42227 0.58147 0.0
C2688 C 0.84537 0.32065 0.64659 0.0
C2689 C 0.84379 0.3338 0.63537 0.0
C2690 C 0.83077 0.37871 0.6383 0.0
C2691 C 0.81878 0.39454 0.59402 0.0
C2692 C 0.82757 0.3863 0.60758 0.0
C2693 C 0.84597 0.35334 0.64337 0.0
C2694 C 0.84136 0.36642 0.63178 0.0
H2695 H 0.79667 0.38013 0.55038 0.0
H2696 H 0.80652 0.3668 0.576 0.0
H2697 H 0.81525 0.39742 0.63127 0.0
H2698 H 0.85577 0.35171 0.68885 0.0
H2699 H 0.85299 0.37472 0.66917 0.0
C2700 C 0.49029 0.07911 0.34795 0.0
C2701 C 0.4724 0.07958 0.34715 0.0
C2702 C 0.49981 0.08022 0.365 0.0
C2703 C 0.49889 0.08938 0.41653 0.0
H2704 H 0.52585 0.0512 0.41307 0.0
C2705 C 0.52269 0.05897 0.4786 0.0
C2706 C 0.54075 0.05892 0.47995 0.0
C2707 C 0.51504 0.06402 0.46318 0.0
C2708 C 0.51853 0.06205 0.4142 0.0
H2709 H 0.45074 0.08292 0.36355 0.0
H2710 H 0.46725 0.08436 0.39342 0.0
H2711 H 0.51147 0.05633 0.38475 0.0
H2712 H 0.56498 0.06483 0.46649 0.0
H2713 H 0.55141 0.07272 0.43913 0.0
H2714 H 0.5055 0.09435 0.44624 0.0
C2715 C 0.47403 0.08343 0.38092 0.0
C2716 C 0.51037 0.06511 0.398 0.0
C2717 C 0.46456 0.08259 0.36383 0.0
C2718 C 0.55103 0.06437 0.46574 0.0
C2719 C 0.54329 0.06897 0.45012 0.0
C2720 C 0.50691 0.08612 0.43281 0.0
C2721 C 0.49153 0.08149 0.38156 0.0
C2722 C 0.50055 0.07889 0.39894 0.0
C2723 C 0.52522 0.06874 0.44871 0.0
C2724 C 0.51684 0.0725 0.4317 0.0
H2725 H 0.49671 0.07702 0.3353 0.0
H2726 H 0.51345 0.07927 0.3651 0.0
H2727 H 0.49148 0.10014 0.41771 0.0
H2728 H 0.51445 0.05519 0.48947 0.0
H2729 H 0.50105 0.06372 0.46233 0.0
C2730 C 0.81399 0.71999 0.08028 0.0
C2731 C 0.81009 0.72929 0.06594 0.0
C2732 C 0.81384 0.72818 0.09902 0.0
C2733 C 0.79572 0.76301 0.12998 0.0
H2734 H 0.82831 0.75401 0.16733 0.0
C2735 C 0.80265 0.7886 0.21287 0.0
C2736 C 0.8014 0.77293 0.2219 0.0
C2737 C 0.80287 0.78589 0.19335 0.0
C2738 C 0.81917 0.75671 0.15706 0.0
H2739 H 0.8033 0.75486 0.06027 0.0
H2740 H 0.80333 0.7694 0.09319 0.0
H2741 H 0.8319 0.74529 0.13436 0.0
H2742 H 0.79884 0.74226 0.21769 0.0
H2743 H 0.79947 0.73766 0.18394 0.0
H2744 H 0.78306 0.77448 0.1531 0.0
C2745 C 0.80628 0.75557 0.08981 0.0
C2746 C 0.82113 0.7516 0.13813 0.0
C2747 C 0.80642 0.74731 0.07094 0.0
C2748 C 0.79975 0.75455 0.21107 0.0
C2749 C 0.80016 0.75192 0.19178 0.0
C2750 C 0.79388 0.76836 0.14906 0.0
C2751 C 0.80988 0.74603 0.10411 0.0
C2752 C 0.80911 0.75407 0.12426 0.0
C2753 C 0.80223 0.7676 0.18276 0.0
C2754 C 0.80531 0.76472 0.16272 0.0
H2755 H 0.81679 0.70607 0.07706 0.0
H2756 H 0.81634 0.72016 0.10951 0.0
H2757 H 0.78616 0.76507 0.11973 0.0
H2758 H 0.80426 0.80298 0.22095 0.0
H2759 H 0.8045 0.79822 0.18668 0.0
C2760 C 0.15356 0.01019 0.69424 0.0
C2761 C 0.14652 0.0141 0.71149 0.0
C2762 C 0.14575 0.01305 0.6772 0.0
C2763 C 0.1105 0.03557 0.65678 0.0
H2764 H 0.1216 0.01001 0.60974 0.0
C2765 C 0.07664 0.03906 0.58113 0.0
C2766 C 0.08746 0.03932 0.56622 0.0
C2767 C 0.08294 0.03666 0.59919 0.0
C2768 C 0.11834 0.01755 0.62263 0.0
H2769 H 0.12501 0.0243 0.72328 0.0
H2770 H 0.11125 0.02866 0.69404 0.0
H2771 H 0.13356 1.0042 0.63885 0.0
H2772 H 0.11368 0.03724 0.55961 0.0
H2773 H 0.12424 0.03299 0.59005 0.0
H2774 H 0.09483 0.04852 0.6401 0.0
C2775 C 0.12314 0.02363 0.69351 0.0
C2776 C 0.12543 0.01422 0.63976 0.0
C2777 C 0.13104 0.02087 0.7106 0.0
C2778 C 0.10473 0.03721 0.5704 0.0
C2779 C 0.11086 0.03455 0.58811 0.0
C2780 C 0.10322 0.03874 0.63954 0.0
C2781 C 0.13028 0.01993 0.6762 0.0
C2782 C 0.12196 0.02326 0.65748 0.0
C2783 C 0.10015 0.03391 0.60303 0.0
C2784 C 0.10711 0.02999 0.62194 0.0
H2785 H 0.16552 1.00524 0.69388 0.0
H2786 H 0.15234 0.0102 0.66484 0.0
H2787 H 0.10729 0.04323 0.66962 0.0
H2788 H 0.06318 0.04027 0.57877 0.0
H2789 H 0.07403 0.03633 0.60999 0.0
C2790 C 0.80432 0.39353 0.44565 0.0
C2791 C 0.79937 0.38367 0.46007 0.0
C2792 C 0.8068 0.38346 0.42838 0.0
C2793 C 0.81568 0.33705 0.40743 0.0
H2794 H 0.80853 0.35466 0.36137 0.0
C2795 C 0.81478 0.29556 0.33148 0.0
C2796 C 0.82223 0.30699 0.31891 0.0
C2797 C 0.81458 0.30404 0.35014 0.0
C2798 C 0.81077 0.34972 0.3742 0.0
H2799 H 0.79188 0.35569 0.46767 0.0
H2800 H 0.79481 0.33782 0.43702 0.0
H2801 H 0.80003 0.37078 0.38997 0.0
H2802 H 0.83828 0.33539 0.31677 0.0
H2803 H 0.83798 0.35 0.3492 0.0
H2804 H 0.82576 0.31541 0.39113 0.0
C2805 C 0.79765 0.35337 0.43921 0.0
C2806 C 0.80591 0.35896 0.3906 0.0
C2807 C 0.79565 0.36352 0.45664 0.0
C2808 C 0.83173 0.32632 0.32588 0.0
C2809 C 0.83162 0.33473 0.34446 0.0
C2810 C 0.82025 0.32756 0.39087 0.0
C2811 C 0.80393 0.36329 0.42511 0.0
C2812 C 0.80838 0.35284 0.40747 0.0
C2813 C 0.82213 0.32393 0.35641 0.0
C2814 C 0.81796 0.33397 0.37419 0.0
H2815 H 0.80765 0.40914 0.44818 0.0
H2816 H 0.8119 0.39167 0.41801 0.0
H2817 H 0.81814 0.33217 0.42021 0.0
H2818 H 0.80817 0.2804 0.3267 0.0
H2819 H 0.8074 0.29536 0.35923 0.0
C2820 C 0.46131 0.07388 0.24284 0.0
C2821 C 0.44326 0.06608 0.24467 0.0
C2822 C 0.46816 0.06913 0.22602 0.0
C2823 C 0.45983 0.02801 0.1873 0.0
H2824 H 0.50242 0.05949 0.1722 0.0
C2825 C 0.50309 1.00142 0.13097 0.0
C2826 C 0.52138 0.00657 0.13724 0.0
C2827 C 0.49125 0.00855 0.14196 0.0
C2828 C 0.49049 0.05057 0.17626 0.0
H2829 H 0.41783 0.04873 0.22984 0.0
H2830 H 0.42982 0.0405 0.20025 0.0
H2831 H 0.48471 0.07474 0.19333 0.0
H2832 H 0.54162 0.02264 0.15994 0.0
H2833 H 0.52092 0.0352 0.17917 0.0
H2834 H 0.46588 1.00381 0.17031 0.0
C2835 C 0.43872 0.05004 0.21196 0.0
C2836 C 0.48034 0.05927 0.1883 0.0
C2837 C 0.43183 0.05489 0.22884 0.0
C2838 C 0.52754 0.01825 0.15497 0.0
C2839 C 0.51577 0.02563 0.1658 0.0
C2840 C 0.46988 0.01933 0.17504 0.0
C2841 C 0.45711 0.05644 0.21065 0.0
C2842 C 0.46531 0.048 0.19458 0.0
C2843 C 0.49763 0.02122 0.15918 0.0
C2844 C 0.48565 0.03048 0.17003 0.0
H2845 H 0.47041 0.08269 0.25476 0.0
H2846 H 0.4824 0.07425 0.22561 0.0
H2847 H 0.44843 0.01885 0.19198 0.0
H2848 H 0.49812 0.99256 0.11724 0.0
H2849 H 0.4773 1.00493 0.13663 0.0
C2850 C 0.8069 0.74403 0.95533 0.0
C2851 C 0.80956 0.72694 0.95972 0.0
C2852 C 0.80848 0.74767 0.93727 0.0
C2853 C 0.80318 0.72334 0.88838 0.0
H2854 H 0.82803 0.77378 0.8803 0.0
C2855 C 0.80442 0.74286 0.8142 0.0
C2856 C 0.80349 0.76164 0.81345 0.0
C2857 C 0.80674 0.73756 0.83156 0.0
C2858 C 0.82085 0.75965 0.88227 0.0
H2859 H 0.81614 0.70034 0.9486 0.0
H2860 H 0.81854 0.70657 0.91686 0.0
H2861 H 0.82958 0.76688 0.91163 0.0
H2862 H 0.80264 0.78893 0.83 0.0
H2863 H 0.80657 0.77993 0.85998 0.0
H2864 H 0.79384 0.71634 0.85915 0.0
C2865 C 0.81538 0.71719 0.9275 0.0
C2866 C 0.82184 0.75569 0.90026 0.0
C2867 C 0.81415 0.71371 0.9457 0.0
C2868 C 0.80421 0.7747 0.8302 0.0
C2869 C 0.8064 0.76945 0.84742 0.0
C2870 C 0.80201 0.72738 0.87037 0.0
C2871 C 0.81243 0.73416 0.92306 0.0
C2872 C 0.81278 0.73761 0.9036 0.0
C2873 C 0.80796 0.75091 0.84844 0.0
C2874 C 0.81053 0.74575 0.86713 0.0
H2875 H 0.80331 0.75449 0.96579 0.0
H2876 H 0.806 0.76081 0.93427 0.0
H2877 H 0.79596 0.7093 0.89055 0.0
H2878 H 0.80375 0.73247 0.80143 0.0
H2879 H 0.80787 0.72314 0.83175 0.0
C2880 C 0.83852 0.10191 0.0234 0.0
C2881 C 0.83604 0.11754 0.01592 0.0
C2882 C 0.85439 0.09668 0.02214 0.0
C2883 C 0.89097 0.09796 0.99374 0.0
H2884 H 0.90994 0.07845 0.03423 0.0
C2885 C 0.94745 0.05908 0.98846 0.0
C2886 C 0.94313 0.04145 0.99453 0.0
C2887 C 0.93664 0.07163 0.99157 0.0
C2888 C 0.90482 0.08394 0.02286 0.0
H2889 H 0.84824 0.14011 1.00139 0.0
H2890 H 0.87615 0.13077 0.99909 0.0
H2891 H 0.88745 0.0961 0.03971 0.0
H2892 H 0.92417 0.02289 0.00826 0.0
H2893 H 0.90512 0.04478 0.01358 0.0
H2894 H 0.90807 0.08528 0.97677 0.0
C2895 C 0.86572 0.12261 0.00588 0.0
C2896 C 0.892 0.09402 0.02598 0.0
C2897 C 0.84977 0.12789 0.00716 0.0
C2898 C 0.92761 0.03629 0.00326 0.0
C2899 C 0.91692 0.04892 0.00655 0.0
C2900 C 0.90392 0.08796 0.99065 0.0
C2901 C 0.86815 0.10697 0.01341 0.0
C2902 C 0.88438 0.10033 0.01122 0.0
C2903 C 0.92152 0.0668 1.00099 0.0
C2904 C 0.91032 0.08017 0.00498 0.0
H2905 H 0.82819 0.09365 0.03023 0.0
H2906 H 0.85574 0.08427 0.02768 0.0
H2907 H 0.88529 0.10266 0.98212 0.0
H2908 H 0.95943 0.06334 0.98174 0.0
H2909 H 0.94038 0.08533 0.98713 0.0
C2910 C 0.38025 0.42141 0.0312 0.0
C2911 C 0.36715 0.43001 0.0383 0.0
C2912 C 0.39801 0.43215 0.03245 0.0
C2913 C 0.42704 0.48237 0.0398 0.0
H2914 H 0.46436 0.45739 0.04795 0.0
C2915 C 0.50292 0.52235 0.0499 0.0
C2916 C 0.5133 0.51326 0.0382 0.0
C2917 C 0.48519 0.51281 0.05142 0.0
C2918 C 0.45409 0.46455 0.04563 0.0
H2919 H 0.36263 0.45687 0.05226 0.0
H2920 H 0.39374 0.47561 0.05468 0.0
H2921 H 0.43329 0.4399 0.0479 0.0
H2922 H 0.51325 0.48644 0.01972 0.0
H2923 H 0.48271 0.46977 0.02285 0.0
H2924 H 0.44806 0.50711 0.03772 0.0
C2925 C 0.39019 0.46053 0.04793 0.0
C2926 C 0.43624 0.4545 0.04549 0.0
C2927 C 0.37234 0.44975 0.04664 0.0
C2928 C 0.50571 0.49407 0.02874 0.0
C2929 C 0.48817 0.48442 0.03057 0.0
C2930 C 0.44496 0.49251 0.04014 0.0
C2931 C 0.40331 0.45185 0.04092 0.0
C2932 C 0.42241 0.46313 0.04226 0.0
C2933 C 0.4776 0.49376 0.04169 0.0
C2934 C 0.45866 0.4836 0.04278 0.0
H2935 H 0.37682 0.40628 0.02459 0.0
H2936 H 0.40757 0.42499 0.02652 0.0
H2937 H 0.41682 0.48946 0.03705 0.0
H2938 H 0.50837 0.53688 0.05776 0.0
H2939 H 0.47744 0.5203 0.0603 0.0
C2940 C 0.40121 0.63731 0.7701 0.0
C2941 C 0.39733 0.62065 0.7556 0.0
C2942 C 0.39317 0.65284 0.7696 0.0
C2943 C 0.36452 0.67305 0.73686 0.0
H2944 H 0.36287 0.70886 0.78216 0.0
C2945 C 0.33983 0.74298 0.73292 0.0
C2946 C 0.33274 0.75271 0.74793 0.0
C2947 C 0.34687 0.72705 0.73432 0.0
C2948 C 0.36296 0.69908 0.76921 0.0
H2949 H 0.38116 0.60819 0.72909 0.0
H2950 H 0.3672 0.63442 0.72829 0.0
H2951 H 0.37595 0.68207 0.78362 0.0
H2952 H 0.3284 0.75255 0.77685 0.0
H2953 H 0.34032 0.72476 0.77933 0.0
H2954 H 0.35119 0.68967 0.72247 0.0
C2955 C 0.37677 0.63595 0.74014 0.0
C2956 C 0.37084 0.68346 0.77002 0.0
C2957 C 0.38484 0.62047 0.74063 0.0
C2958 C 0.3333 0.74558 0.7647 0.0
C2959 C 0.34046 0.72951 0.76615 0.0
C2960 C 0.35667 0.68861 0.73605 0.0
C2961 C 0.38067 0.65278 0.75457 0.0
C2962 C 0.37195 0.66987 0.75385 0.0
C2963 C 0.34753 0.71968 0.75095 0.0
C2964 C 0.35567 0.70229 0.75216 0.0
H2965 H 0.41068 0.6385 0.78197 0.0
H2966 H 0.39713 0.66513 0.7811 0.0
H2967 H 0.36489 0.66361 0.72379 0.0
H2968 H 0.34009 0.74787 0.71978 0.0
H2969 H 0.35226 0.72084 0.72217 0.0
C2970 C 0.23069 0.5993 0.50041 0.0
C2971 C 0.23802 0.61779 0.49688 0.0
C2972 C 0.2136 0.59448 0.50601 0.0
C2973 C 0.17235 0.61075 0.5102 0.0
H2974 H 0.16655 0.5815 0.54984 0.0
C2975 C 0.10713 0.59579 0.5415 0.0
C2976 C 0.09912 0.57589 0.53762 0.0
C2977 C 0.12553 0.60269 0.5417 0.0
C2978 C 0.16814 0.58986 0.53893 0.0
H2979 H 0.23259 0.6451 0.49485 0.0
H2980 H 0.20312 0.63687 0.50491 0.0
H2981 H 0.19512 0.58888 0.53686 0.0
H2982 H 0.10375 0.54755 0.5317 0.0
H2983 H 0.13591 0.55957 0.53246 0.0
H2984 H 0.14541 0.61174 0.51231 0.0
C2985 C 0.21041 0.626 0.5033 0.0
C2986 C 0.18433 0.59384 0.53129 0.0
C2987 C 0.22737 0.63073 0.4975 0.0
C2988 C 0.10973 0.56297 0.53526 0.0
C2989 C 0.12812 0.56985 0.53566 0.0
C2990 C 0.15631 0.60702 0.51802 0.0
C2991 C 0.20359 0.60809 0.50827 0.0
C2992 C 0.1865 0.60405 0.5166 0.0
C2993 C 0.13601 0.58972 0.53787 0.0
C2994 C 0.15398 0.59631 0.53223 0.0
H2995 H 0.23851 0.58895 0.49991 0.0
H2996 H 0.20848 0.58032 0.50916 0.0
H2997 H 0.17345 0.61841 0.49877 0.0
H2998 H 0.09904 0.60591 0.54307 0.0
H2999 H 0.13139 0.61808 0.54345 0.0
C3000 C 0.72528 0.98471 0.72165 0.0
C3001 C 0.7186 0.9923 0.73787 0.0
C3002 C 0.72856 0.96665 0.71954 0.0
C3003 C 0.72415 0.92386 0.74179 0.0
H3004 H 0.77333 0.9303 0.73163 0.0
C3005 C 0.7745 0.9004 0.78413 0.0
C3006 C 0.78788 0.89356 0.77554 0.0
C3007 C 0.76206 0.90607 0.77359 0.0
C3008 C 0.75942 0.92789 0.73399 0.0
H3009 H 0.709 0.98662 0.76404 0.0
H3010 H 0.71557 0.9555 0.76089 0.0
H3011 H 0.75734 0.95228 0.72287 0.0
H3012 H 0.79864 0.88678 0.74928 0.0
H3013 H 0.77701 0.89716 0.73083 0.0
H3014 H 0.72698 0.9004 0.75443 0.0
C3015 C 0.71786 0.9632 0.74953 0.0
C3016 C 0.7502 0.94049 0.72893 0.0
C3017 C 0.71436 0.98116 0.75151 0.0
C3018 C 0.78847 0.89215 0.75619 0.0
C3019 C 0.77609 0.89795 0.74566 0.0
C3020 C 0.73346 0.91131 0.74698 0.0
C3021 C 0.72547 0.95601 0.73376 0.0
C3022 C 0.73284 0.93931 0.73379 0.0
C3023 C 0.76287 0.90507 0.75431 0.0
C3024 C 0.75148 0.91399 0.74407 0.0
H3025 H 0.72824 0.99283 0.71067 0.0
H3026 H 0.73416 0.96135 0.70712 0.0
H3027 H 0.71062 0.92234 0.74526 0.0
H3028 H 0.77357 0.90124 0.79896 0.0
H3029 H 0.7522 0.91188 0.78067 0.0
C3030 C 0.76195 0.92807 0.52258 0.0
C3031 C 0.7731 0.93433 0.53957 0.0
C3032 C 0.74734 0.93554 0.51964 0.0
C3033 C 0.717 0.96048 0.54461 0.0
H3034 H 0.70975 0.97709 0.49803 0.0
C3035 C 0.67021 0.0093 0.53491 0.0
C3036 C 0.66214 0.0081 0.51692 0.0
C3037 C 0.68216 0.99831 0.53771 0.0
C3038 C 0.71125 0.97221 0.511 0.0
H3039 H 0.77746 0.95325 0.56686 0.0
H3040 H 0.75208 0.96617 0.56173 0.0
H3041 H 0.7334 0.96164 0.50257 0.0
H3042 H 0.65941 0.99387 0.48793 0.0
H3043 H 0.67944 0.97397 0.4928 0.0
H3044 H 0.69479 0.97089 0.55304 0.0
C3045 C 0.75454 0.95543 0.55071 0.0
C3046 C 0.72494 0.96338 0.51362 0.0
C3047 C 0.7692 0.94811 0.55358 0.0
C3048 C 0.66553 0.99507 0.50193 0.0
C3049 C 0.6772 0.98385 0.50474 0.0
C3050 C 0.70316 0.96912 0.54192 0.0
C3051 C 0.74344 0.94929 0.53369 0.0
C3052 C 0.72814 0.95762 0.53053 0.0
C3053 C 0.68613 0.98569 0.52258 0.0
C3054 C 0.70018 0.97534 0.52514 0.0
H3055 H 0.76451 0.91742 0.51153 0.0
H3056 H 0.73899 0.93039 0.50642 0.0
H3057 H 0.71893 0.95596 0.55772 0.0
H3058 H 0.66796 0.01943 0.54666 0.0
H3059 H 0.68884 1.0004 0.55161 0.0
C3060 C 0.38512 0.50731 0.75945 0.0
C3061 C 0.40314 0.51439 0.76723 0.0
C3062 C 0.37556 0.48763 0.75813 0.0
C3063 C 0.38325 0.43833 0.75979 0.0
H3064 H 0.33284 0.4225 0.76501 0.0
C3065 C 0.3483 0.35933 0.76777 0.0
C3066 C 0.33045 0.35044 0.76004 0.0
C3067 C 0.35654 0.37899 0.76795 0.0
C3068 C 0.34691 0.4265 0.76331 0.0
H3069 H 0.42474 0.50537 0.77989 0.0
H3070 H 0.40848 0.47213 0.77773 0.0
H3071 H 0.34768 0.45661 0.7665 0.0
H3072 H 0.3078 0.35607 0.74578 0.0
H3073 H 0.32184 0.39015 0.74647 0.0
H3074 H 0.38259 0.40837 0.75667 0.0
C3075 C 0.40158 0.48146 0.77231 0.0
C3076 C 0.3555 0.44629 0.76415 0.0
C3077 C 0.41099 0.50094 0.77373 0.0
C3078 C 0.32132 0.36217 0.7523 0.0
C3079 C 0.3295 0.38194 0.75268 0.0
C3080 C 0.3747 0.41864 0.75901 0.0
C3081 C 0.38368 0.47417 0.76433 0.0
C3082 C 0.37396 0.45274 0.7626 0.0
C3083 C 0.34733 0.39086 0.76052 0.0
C3084 C 0.35635 0.4122 0.76089 0.0
H3085 H 0.37841 0.5169 0.7542 0.0
H3086 H 0.36187 0.48289 0.75182 0.0
H3087 H 0.39729 0.44218 0.75798 0.0
H3088 H 0.35604 0.35111 0.77387 0.0
H3089 H 0.37016 0.38498 0.77432 0.0
C3090 C 0.24868 0.60352 0.2679 0.0
C3091 C 0.23002 0.59793 0.26407 0.0
C3092 C 0.2582 0.62259 0.26857 0.0
C3093 C 0.25538 0.66328 0.24833 0.0
H3094 H 0.28652 0.6961 0.29142 0.0
C3095 C 0.26944 0.74472 0.26315 0.0
C3096 C 0.28654 0.75604 0.27047 0.0
C3097 C 0.26557 0.72474 0.26026 0.0
C3098 C 0.27823 0.68698 0.27909 0.0
H3099 H 0.20659 0.60789 0.25868 0.0
H3100 H 0.22328 0.64107 0.25952 0.0
H3101 H 0.27379 0.66191 0.29139 0.0
H3102 H 0.31258 0.75589 0.28238 0.0
H3103 H 0.30594 0.72072 0.27709 0.0
H3104 H 0.25936 0.68829 0.23617 0.0
C3105 C 0.23049 0.6307 0.26195 0.0
C3106 C 0.27092 0.66751 0.27915 0.0
C3107 C 0.22097 0.61179 0.2616 0.0
C3108 C 0.29953 0.74729 0.27587 0.0
C3109 C 0.2957 0.72725 0.27299 0.0
C3110 C 0.26278 0.68265 0.24819 0.0
C3111 C 0.24915 0.6361 0.26505 0.0
C3112 C 0.25898 0.65577 0.26403 0.0
C3113 C 0.27864 0.71583 0.26521 0.0
C3114 C 0.27375 0.6948 0.26385 0.0
H3115 H 0.25591 0.5931 0.27005 0.0
H3116 H 0.27261 0.62662 0.27114 0.0
H3117 H 0.24639 0.65429 0.23641 0.0
H3118 H 0.25892 0.75135 0.26016 0.0
H3119 H 0.25212 0.71632 0.25486 0.0
C3120 C 0.55147 0.7318 0.48139 0.0
C3121 C 0.54188 0.72973 0.46383 0.0
C3122 C 0.55322 0.71553 0.48842 0.0
C3123 C 0.56006 0.66915 0.4762 0.0
H3124 H 0.53507 0.65155 0.51669 0.0
C3125 C 0.56101 0.59508 0.49397 0.0
C3126 C 0.55723 0.59077 0.5115 0.0
C3127 C 0.56019 0.61275 0.48951 0.0
C3128 C 0.54252 0.6563 0.50561 0.0
H3129 H 0.52676 0.70866 0.43996 0.0
H3130 H 0.53046 0.68039 0.45192 0.0
H3131 H 0.5314 0.68061 0.50665 0.0
H3132 H 0.54903 0.60176 0.53804 0.0
H3133 H 0.5488 0.63323 0.53096 0.0
H3134 H 0.57198 0.64583 0.47548 0.0
C3135 C 0.53625 0.69464 0.4604 0.0
C3136 C 0.54022 0.67299 0.49974 0.0
C3137 C 0.53408 0.71087 0.45358 0.0
C3138 C 0.55265 0.60483 0.52462 0.0
C3139 C 0.55213 0.62281 0.52029 0.0
C3140 C 0.56273 0.6528 0.48233 0.0
C3141 C 0.54585 0.69675 0.4779 0.0
C3142 C 0.54875 0.67945 0.48476 0.0
C3143 C 0.5556 0.62705 0.50247 0.0
C3144 C 0.55376 0.64569 0.49695 0.0
H3145 H 0.55768 0.74604 0.4897 0.0
H3146 H 0.56074 0.71766 0.50192 0.0
H3147 H 0.567 0.67388 0.46477 0.0
H3148 H 0.56398 0.58434 0.48329 0.0
H3149 H 0.56246 0.61465 0.47546 0.0
C3150 C 0.64828 0.3331 0.67074 0.0
C3151 C 0.64616 0.32856 0.65104 0.0
C3152 C 0.66406 0.33287 0.68099 0.0
C3153 C 0.69991 0.30901 0.6796 0.0
H3154 H 0.72668 0.35234 0.71772 0.0
C3155 C 0.76469 0.30499 0.72125 0.0
C3156 C 0.77018 0.31625 0.7394 0.0
C3157 C 0.7504 0.30726 0.70994 0.0
C3158 C 0.7193 0.33982 0.70747 0.0
H3159 H 0.65922 0.32014 0.62681 0.0
H3160 H 0.68645 0.31913 0.64473 0.0
H3161 H 0.70034 0.35475 0.6998 0.0
H3162 H 0.76512 0.33963 0.75905 0.0
H3163 H 0.73965 0.34246 0.74053 0.0
H3164 H 0.71797 0.29354 0.68771 0.0
C3165 C 0.67597 0.3232 0.6522 0.0
C3166 C 0.70418 0.34136 0.697 0.0
C3167 C 0.6604 0.32394 0.64193 0.0
C3168 C 0.76107 0.33013 0.7456 0.0
C3169 C 0.7465 0.33207 0.73455 0.0
C3170 C 0.71475 0.30724 0.69039 0.0
C3171 C 0.67799 0.32755 0.67188 0.0
C3172 C 0.69429 0.32601 0.68289 0.0
C3173 C 0.74076 0.32065 0.71644 0.0
C3174 C 0.72485 0.32262 0.7046 0.0
H3175 H 0.63761 0.3366 0.67827 0.0
H3176 H 0.66512 0.33623 0.69612 0.0
H3177 H 0.69251 0.29681 0.66896 0.0
H3178 H 0.77143 0.2943 0.71566 0.0
H3179 H 0.7471 0.29847 0.69601 0.0
C3180 C 0.02002 0.33836 0.9814 0.0
C3181 C 0.02643 0.33291 0.96422 0.0
C3182 C 0.02235 0.35791 0.98944 0.0
C3183 C 0.02856 0.40594 0.97748 0.0
H3184 H 0.04619 0.42602 0.02972 0.0
C3185 C 0.04846 0.4884 0.00859 0.0
C3186 C 0.04814 0.49498 0.02779 0.0
C3187 C 0.04431 0.46857 1.00088 0.0
C3188 C 0.04087 0.42074 0.01519 0.0
H3189 H 0.04034 0.34401 0.94207 0.0
H3190 H 0.04407 0.37805 0.95588 0.0
H3191 H 0.04223 0.39202 0.01654 0.0
H3192 H 0.0434 0.48595 0.054 0.0
H3193 H 0.035 0.45142 0.04057 0.0
H3194 H 0.02658 0.43432 0.97609 0.0
C3195 C 0.03734 0.36716 0.96321 0.0
C3196 C 0.03874 0.40112 0.00759 0.0
C3197 C 0.03533 0.34761 0.95536 0.0
C3198 C 0.04334 0.48127 0.03907 0.0
C3199 C 0.03884 0.46141 0.03134 0.0
C3200 C 0.03035 0.42547 0.98514 0.0
C3201 C 0.03084 0.3726 0.98034 0.0
C3202 C 0.03274 0.39347 0.98857 0.0
C3203 C 0.0397 0.45464 0.01215 0.0
C3204 C 0.03674 0.43336 0.00413 0.0
H3205 H 0.01305 0.32748 0.98862 0.0
H3206 H 0.0171 0.36153 0.00259 0.0
H3207 H 0.02363 0.40051 0.96284 0.0
H3208 H 0.05273 0.49866 0.99967 0.0
H3209 H 0.04557 0.46431 0.98619 0.0
C3210 C 0.02465 0.8224 0.14949 0.0
C3211 C 0.03848 0.81572 0.15684 0.0
C3212 C 0.00854 0.82042 0.15764 0.0
C3213 C 0.98223 0.79269 0.18995 0.0
H3214 H 0.95628 0.83174 0.19373 0.0
C3215 C 0.93397 0.80399 0.24476 0.0
C3216 C 0.91579 0.7978 0.23766 0.0
C3217 C 0.94735 0.80666 0.23283 0.0
C3218 C 0.96329 0.82062 0.19252 0.0
H3219 H 0.04633 0.80234 0.17893 0.0
H3220 H 0.01883 0.79949 0.19337 0.0
H3221 H 0.98312 0.83553 0.17727 0.0
H3222 H 0.89765 0.79071 0.21222 0.0
H3223 H 0.92131 0.796 0.19132 0.0
H3224 H 0.96289 0.77835 0.20602 0.0
C3225 C 0.02001 0.80569 0.18097 0.0
C3226 C 0.97867 0.82274 0.18308 0.0
C3227 C 0.03596 0.80751 0.17277 0.0
C3228 C 0.91144 0.79551 0.21824 0.0
C3229 C 0.92496 0.79845 0.20625 0.0
C3230 C 0.96705 0.79073 0.19952 0.0
C3231 C 0.00589 0.81179 0.17339 0.0
C3232 C 0.98861 0.80899 0.182 0.0
C3233 C 0.94302 0.80365 0.21347 0.0
C3234 C 0.95758 0.80477 0.20113 0.0
H3235 H 0.02609 0.82871 0.13717 0.0
H3236 H 0.99802 0.82522 0.15128 0.0
H3237 H 0.98909 0.78147 0.18902 0.0
H3238 H 0.93795 0.80648 0.25962 0.0
H3239 H 0.96117 0.81082 0.23875 0.0
C3240 C 0.51195 0.30117 0.10035 0.0
C3241 C 0.51452 0.30548 0.11994 0.0
C3242 C 0.51577 0.31586 0.09027 0.0
C3243 C 0.5266 0.36867 0.09329 0.0
H3244 H 0.55207 0.35611 0.05083 0.0
C3245 C 0.56152 0.42471 0.05116 0.0
C3246 C 0.55777 0.41899 0.03159 0.0
C3247 C 0.55635 0.41144 0.06266 0.0
C3248 C 0.54488 0.35978 0.06256 0.0
H3249 H 0.52205 0.32845 0.14449 0.0
H3250 H 0.52931 0.35435 0.12677 0.0
H3251 H 0.54167 0.3322 0.0697 0.0
H3252 H 0.54586 0.39479 0.00882 0.0
H3253 H 0.53719 0.37153 0.0289 0.0
H3254 H 0.53015 0.39647 0.08611 0.0
C3255 C 0.52408 0.3396 0.11922 0.0
C3256 C 0.53883 0.34607 0.07333 0.0
C3257 C 0.51994 0.32483 0.12936 0.0
C3258 C 0.54918 0.3996 0.02379 0.0
C3259 C 0.54414 0.38631 0.03529 0.0
C3260 C 0.53279 0.38249 0.08252 0.0
C3261 C 0.52261 0.33517 0.09955 0.0
C3262 C 0.52936 0.35022 0.08863 0.0
C3263 C 0.54753 0.39214 0.05483 0.0
C3264 C 0.54177 0.37804 0.06691 0.0
H3265 H 0.5075 0.28635 0.09279 0.0
H3266 H 0.51393 0.31201 0.07514 0.0
H3267 H 0.51933 0.37228 0.10496 0.0
H3268 H 0.56843 0.43948 0.0576 0.0
H3269 H 0.55936 0.41622 0.07768 0.0
C3270 C 0.04437 0.34002 0.37677 0.0
C3271 C 0.04991 0.32338 0.37032 0.0
C3272 C 0.02864 0.34243 0.36859 0.0
C3273 C 0.98572 0.31654 0.34173 0.0
H3274 H 0.98931 0.36316 0.32224 0.0
C3275 C 0.92957 0.32385 0.29113 0.0
C3276 C 0.92606 0.34194 0.29259 0.0
C3277 C 0.9444 0.32185 0.30145 0.0
C3278 C 0.98795 0.3502 0.32787 0.0
H3279 H 0.04305 0.29592 0.35078 0.0
H3280 H 0.01534 0.29995 0.33682 0.0
H3281 H 0.01526 0.35916 0.33973 0.0
H3282 H 0.93519 0.37208 0.30615 0.0
H3283 H 0.96089 0.36859 0.32449 0.0
H3284 H 0.9584 0.30762 0.3302 0.0
C3285 C 0.02326 0.31117 0.34807 0.0
C3286 C 1.00284 0.34792 0.33784 0.0
C3287 C 0.03914 0.30892 0.35599 0.0
C3288 C 0.93771 0.35801 0.30456 0.0
C3289 C 0.95245 0.35599 0.31504 0.0
C3290 C 0.97075 0.31892 0.33198 0.0
C3291 C 0.01802 0.32807 0.35409 0.0
C3292 C 1.00191 0.33098 0.34466 0.0
C3293 C 0.95598 0.33787 0.31364 0.0
C3294 C 0.97172 0.33569 0.32471 0.0
H3295 H 0.05245 0.35144 0.38775 0.0
H3296 H 0.02481 0.35554 0.37352 0.0
H3297 H 0.98465 0.30343 0.34702 0.0
H3298 H 0.92093 0.31125 0.28183 0.0
H3299 H 0.94688 0.30776 0.29967 0.0
C3300 C 0.98571 0.70023 0.63721 0.0
C3301 C 0.98931 0.71712 0.62989 0.0
C3302 C 0.98688 0.68293 0.62636 0.0
C3303 C 0.99578 0.66019 0.57916 0.0
H3304 H 0.02604 0.63917 0.60878 0.0
C3305 C 0.04946 0.61099 0.56998 0.0
C3306 C 0.03987 0.59613 0.55536 0.0
C3307 C 0.04177 0.62541 0.57795 0.0
C3308 C 0.01777 0.64503 0.60028 0.0
H3309 H 0.99415 0.72854 0.60467 0.0
H3310 H 0.99669 0.69871 0.58604 0.0
H3311 H 0.01213 0.66296 0.62419 0.0
H3312 H 0.01512 0.58541 0.53682 0.0
H3313 H 1.00168 0.61002 0.55088 0.0
H3314 H 1.00233 0.64302 0.55514 0.0
C3315 C 0.99302 0.69863 0.60008 0.0
C3316 C 0.00943 0.65835 0.60915 0.0
C3317 C 0.99167 0.71584 0.61085 0.0
C3318 C 0.02285 0.59651 0.54822 0.0
C3319 C 0.01514 0.61076 0.55621 0.0
C3320 C 0.00428 0.64699 0.57026 0.0
C3321 C 0.99178 0.68234 0.60811 0.0
C3322 C 0.99845 0.66623 0.5987 0.0
C3323 C 0.02436 0.62517 0.57139 0.0
C3324 C 0.01549 0.63939 0.58073 0.0
H3325 H 0.98347 0.70066 0.65174 0.0
H3326 H 0.98523 0.67039 0.63271 0.0
H3327 H 0.98737 0.66593 0.5707 0.0
H3328 H 0.06286 0.61154 0.57521 0.0
H3329 H 0.04943 0.63668 0.5893 0.0
C3330 C 0.65469 0.83375 0.8533 0.0
C3331 C 0.64153 0.81664 0.85299 0.0
C3332 C 0.66696 0.83442 0.84025 0.0
C3333 C 0.6802 0.80586 0.79841 0.0
H3334 H 0.72728 0.82858 0.8255 0.0
C3335 C 0.75092 0.78884 0.80116 0.0
C3336 C 0.75906 0.79439 0.78578 0.0
C3337 C 0.73507 0.79322 0.80523 0.0
C3338 C 0.71421 0.82248 0.81768 0.0
H3339 H 0.6298 0.78722 0.83842 0.0
H3340 H 0.65222 0.78777 0.8163 0.0
H3341 H 0.7015 0.83449 0.83981 0.0
H3342 H 0.75786 0.80939 0.76291 0.0
H3343 H 0.7297 0.81702 0.77007 0.0
H3344 H 0.6934 0.79285 0.77676 0.0
C3345 C 0.65277 0.80091 0.82616 0.0
C3346 C 0.69941 0.82596 0.82576 0.0
C3347 C 0.64013 0.80044 0.83894 0.0
C3348 C 0.75133 0.80448 0.7745 0.0
C3349 C 0.73539 0.80887 0.77857 0.0
C3350 C 0.69515 0.80239 0.79028 0.0
C3351 C 0.66665 0.81776 0.82707 0.0
C3352 C 0.68218 0.81712 0.81654 0.0
C3353 C 0.7274 0.80349 0.79414 0.0
C3354 C 0.7121 0.8101 0.80028 0.0
H3355 H 0.65556 0.84656 0.86378 0.0
H3356 H 0.67717 0.84777 0.84099 0.0
H3357 H 0.6671 0.79909 0.79088 0.0
H3358 H 0.75699 0.78141 0.81017 0.0
H3359 H 0.72904 0.7891 0.81737 0.0
C3360 C 0.46132 0.57229 0.70573 0.0
C3361 C 0.4695 0.57136 0.72323 0.0
C3362 C 0.46987 0.57043 0.68911 0.0
C3363 C 0.51493 0.57186 0.67033 0.0
H3364 H 0.48584 0.54639 0.62362 0.0
C3365 C 0.54774 0.55558 0.59955 0.0
C3366 C 0.53799 0.5536 0.58203 0.0
C3367 C 0.53991 0.55791 0.61668 0.0
C3368 C 0.4944 0.55388 0.63631 0.0
H3369 H 0.49389 0.56786 0.73611 0.0
H3370 H 0.5088 0.56498 0.70751 0.0
H3371 H 0.47197 0.55041 0.65242 0.0
H3372 H 0.51173 0.55257 0.56971 0.0
H3373 H 0.49839 0.5568 0.59885 0.0
H3374 H 0.53737 0.57553 0.65421 0.0
C3375 C 0.49559 0.56717 0.70658 0.0
C3376 C 0.48627 0.55617 0.65318 0.0
C3377 C 0.48691 0.56879 0.72321 0.0
C3378 C 0.51996 0.55395 0.5826 0.0
C3379 C 0.51214 0.5563 0.59965 0.0
C3380 C 0.52309 0.5697 0.65341 0.0
C3381 C 0.48723 0.56771 0.68898 0.0
C3382 C 0.49626 0.56524 0.67071 0.0
C3383 C 0.52182 0.55831 0.61727 0.0
C3384 C 0.51307 0.56065 0.63582 0.0
H3385 H 0.44799 0.57416 0.70471 0.0
H3386 H 0.46277 0.57128 0.67626 0.0
H3387 H 0.52339 0.57914 0.68318 0.0
H3388 H 0.56147 0.555 0.60012 0.0
H3389 H 0.54812 0.55903 0.62948 0.0
C3390 C 0.80208 0.20133 0.96824 0.0
C3391 C 0.80549 0.1838 0.97019 0.0
C3392 C 0.80474 0.20808 0.95175 0.0
C3393 C 0.81836 0.22398 0.91896 0.0
H3394 H 0.79757 0.188 0.87266 0.0
C3395 C 0.80487 0.25422 0.85578 0.0
C3396 C 0.7875 0.24623 0.84655 0.0
C3397 C 0.81244 0.24412 0.86693 0.0
C3398 C 0.80348 0.19824 0.88544 0.0
H3399 H 0.81487 0.15983 0.95663 0.0
H3400 H 0.81964 0.17179 0.92762 0.0
H3401 H 0.80056 0.17597 0.90137 0.0
H3402 H 0.76565 0.22006 0.83985 0.0
H3403 H 0.77803 0.20336 0.86074 0.0
H3404 H 0.81983 0.24639 0.9038 0.0
C3405 C 0.81477 0.18017 0.93888 0.0
C3406 C 0.80541 0.19131 0.90185 0.0
C3407 C 0.81211 0.17339 0.95548 0.0
C3408 C 0.7787 0.22711 0.84738 0.0
C3409 C 0.78602 0.21728 0.8591 0.0
C3410 C 0.81622 0.23091 0.90271 0.0
C3411 C 0.81095 0.19751 0.93682 0.0
C3412 C 0.81222 0.20421 0.91889 0.0
C3413 C 0.80261 0.22611 0.86978 0.0
C3414 C 0.80818 0.21821 0.88584 0.0
H3415 H 0.79696 0.20969 0.97931 0.0
H3416 H 0.80133 0.2213 0.9505 0.0
H3417 H 0.82398 0.23424 0.93183 0.0
H3418 H 0.81229 0.26883 0.85562 0.0
H3419 H 0.82556 0.25108 0.87436 0.0
C3420 C 0.16981 0.53319 0.19048 0.0
C3421 C 0.16529 0.52462 0.20582 0.0
C3422 C 0.15713 0.53025 0.17531 0.0
C3423 C 0.10868 0.51879 0.16514 0.0
H3424 H 0.12138 0.52362 0.11544 0.0
C3425 C 0.06542 0.52313 0.0973 0.0
C3426 C 0.07284 0.54075 0.09202 0.0
C3427 C 0.07399 0.51804 0.11216 0.0
C3428 C 0.11765 0.522 0.12923 0.0
H3429 H 0.14468 0.50503 0.21687 0.0
H3430 H 0.1226 0.49923 0.18991 0.0
H3431 H 0.14264 0.5176 0.13788 0.0
H3432 H 0.09322 0.56793 0.09937 0.0
H3433 H 0.1084 0.55887 0.12506 0.0
H3434 H 0.08369 0.5235 0.15626 0.0
C3435 C 0.13571 0.50876 0.1899 0.0
C3436 C 0.12979 0.51868 0.14207 0.0
C3437 C 0.14832 0.51202 0.20526 0.0
C3438 C 0.08772 0.554 0.10282 0.0
C3439 C 0.09627 0.54891 0.11754 0.0
C3440 C 0.09641 0.52183 0.15214 0.0
C3441 C 0.13981 0.51837 0.17506 0.0
C3442 C 0.12571 0.51782 0.1604 0.0
C3443 C 0.08988 0.53061 0.12171 0.0
C3444 C 0.10114 0.52411 0.13439 0.0
H3445 H 0.18281 0.54305 0.19066 0.0
H3446 H 0.16067 0.53816 0.1643 0.0
H3447 H 0.10518 0.51841 0.1792 0.0
H3448 H 0.05386 0.51276 0.08912 0.0
H3449 H 0.06892 0.50388 0.11535 0.0
C3450 C 0.81661 0.83931 0.47236 0.0
C3451 C 0.81267 0.85692 0.47897 0.0
C3452 C 0.81598 0.83228 0.45312 0.0
C3453 C 0.8232 0.8493 0.40999 0.0
H3454 H 0.79512 0.79883 0.38348 0.0
C3455 C 0.80972 0.83214 0.33026 0.0
C3456 C 0.80731 0.81335 0.32006 0.0
C3457 C 0.812 0.83607 0.34973 0.0
C3458 C 0.80336 0.81281 0.39068 0.0
H3459 H 0.80467 0.88075 0.47053 0.0
H3460 H 0.80406 0.86873 0.43699 0.0
H3461 H 0.79511 0.80801 0.41738 0.0
H3462 H 0.80496 0.78372 0.32225 0.0
H3463 H 0.80967 0.79066 0.35661 0.0
H3464 H 0.83192 0.85413 0.38372 0.0
C3465 C 0.80745 0.86029 0.44672 0.0
C3466 C 0.80322 0.8181 0.41009 0.0
C3467 C 0.80769 0.86711 0.46591 0.0
C3468 C 0.80725 0.79843 0.3298 0.0
C3469 C 0.80969 0.80241 0.34947 0.0
C3470 C 0.82363 0.84391 0.39074 0.0
C3471 C 0.81181 0.84294 0.44013 0.0
C3472 C 0.81279 0.83659 0.41983 0.0
C3473 C 0.81194 0.82131 0.35972 0.0
C3474 C 0.81331 0.82581 0.38065 0.0
H3475 H 0.82049 0.83112 0.48207 0.0
H3476 H 0.81942 0.81889 0.44841 0.0
H3477 H 0.83101 0.86349 0.41723 0.0
H3478 H 0.80946 0.84383 0.32309 0.0
H3479 H 0.81318 0.85069 0.35692 0.0
C3480 C 0.49491 0.54934 0.8322 0.0
C3481 C 0.48114 0.55863 0.83075 0.0
C3482 C 0.50257 0.54767 0.84982 0.0
C3483 C 0.49298 0.54706 0.89982 0.0
H3484 H 0.54379 0.55583 0.91163 0.0
C3485 C 0.52123 0.54545 0.97587 0.0
C3486 C 0.5387 0.54431 0.98056 0.0
C3487 C 0.51493 0.54658 0.95768 0.0
C3488 C 0.5295 0.55298 0.9088 0.0
H3489 H 0.46479 0.57317 0.84763 0.0
H3490 H 0.4775 0.56966 0.8779 0.0
H3491 H 0.5319 0.55885 0.88094 0.0
H3492 H 0.56335 0.54385 0.96866 0.0
H3493 H 0.55229 0.54474 0.93671 0.0
H3494 H 0.4901 0.54025 0.92686 0.0
C3495 C 0.48267 0.56387 0.86537 0.0
C3496 C 0.52261 0.55484 0.89088 0.0
C3497 C 0.47535 0.56601 0.84782 0.0
C3498 C 0.54969 0.54428 0.96586 0.0
C3499 C 0.54325 0.54511 0.94733 0.0
C3500 C 0.49977 0.54478 0.91749 0.0
C3501 C 0.49651 0.55468 0.86689 0.0
C3502 C 0.50416 0.55218 0.88601 0.0
C3503 C 0.52561 0.54642 0.94266 0.0
C3504 C 0.51831 0.54798 0.9228 0.0
H3505 H 0.49987 0.54336 0.81962 0.0
H3506 H 0.51305 0.54039 0.85001 0.0
H3507 H 0.4787 0.54443 0.89685 0.0
H3508 H 0.51225 0.54584 0.9866 0.0
H3509 H 0.50156 0.54809 0.9558 0.0
C3510 C 0.79324 0.1729 0.08469 0.0
C3511 C 0.80326 0.18092 0.07133 0.0
C3512 C 0.79049 0.18477 0.10075 0.0
C3513 C 0.79128 0.23561 0.11841 0.0
H3514 H 0.79042 0.2203 0.16647 0.0
C3515 C 0.77911 0.26094 0.19972 0.0
C3516 C 0.79387 0.27713 0.20546 0.0
C3517 C 0.77618 0.25072 0.18141 0.0
C3518 C 0.79032 0.22459 0.15304 0.0
H3519 H 0.81942 0.20733 0.06491 0.0
H3520 H 0.81527 0.22797 0.09337 0.0
H3521 H 0.79538 0.1985 0.13933 0.0
H3522 H 0.815 0.29733 0.19575 0.0
H3523 H 0.81027 0.279 0.16366 0.0
H3524 H 0.78716 0.26223 0.13262 0.0
C3525 C 0.80893 0.21263 0.09107 0.0
C3526 C 0.79318 0.21213 0.13752 0.0
C3527 C 0.81151 0.2008 0.07492 0.0
C3528 C 0.80406 0.28448 0.19193 0.0
C3529 C 0.80118 0.27415 0.17352 0.0
C3530 C 0.7887 0.24822 0.13405 0.0
C3531 C 0.79791 0.20482 0.10383 0.0
C3532 C 0.79397 0.21763 0.1201 0.0
C3533 C 0.78788 0.25661 0.16852 0.0
C3534 C 0.78839 0.24283 0.15146 0.0
H3535 H 0.78664 0.15762 0.08225 0.0
H3536 H 0.7819 0.17831 0.1103 0.0
H3537 H 0.79135 0.24002 0.10504 0.0
H3538 H 0.77049 0.25529 0.2096 0.0
H3539 H 0.7656 0.23741 0.17767 0.0
C3540 C 0.17486 0.56759 0.31985 0.0
C3541 C 0.1728 0.54859 0.31048 0.0
C3542 C 0.16827 0.57124 0.33696 0.0
C3543 C 0.14783 0.54961 0.37518 0.0
H3544 H 0.11909 0.58563 0.37322 0.0
C3545 C 0.1028 0.56832 0.43219 0.0
C3546 C 0.08495 0.56499 0.42478 0.0
C3547 C 0.11622 0.56852 0.42036 0.0
C3548 C 0.12719 0.57569 0.37403 0.0
H3549 H 0.16328 0.51844 0.31171 0.0
H3550 H 0.15089 0.52474 0.34161 0.0
H3551 H 0.13867 0.58108 0.34917 0.0
H3552 H 0.06735 0.55966 0.39913 0.0
H3553 H 0.09084 0.56076 0.37868 0.0
H3554 H 0.13557 0.54374 0.39976 0.0
C3555 C 0.15803 0.53684 0.33595 0.0
C3556 C 0.13851 0.57317 0.36037 0.0
C3557 C 0.16498 0.5332 0.31887 0.0
C3558 C 0.08095 0.5626 0.40538 0.0
C3559 C 0.09438 0.56312 0.39363 0.0
C3560 C 0.13653 0.55225 0.38898 0.0
C3561 C 0.15907 0.55591 0.34478 0.0
C3562 C 0.1487 0.55985 0.36059 0.0
C3563 C 0.11205 0.56579 0.40099 0.0
C3564 C 0.12583 0.56498 0.38819 0.0
H3565 H 0.1811 0.57964 0.31361 0.0
H3566 H 0.16962 0.58607 0.34366 0.0
H3567 H 0.15561 0.53933 0.37571 0.0
H3568 H 0.10641 0.57061 0.44711 0.0
H3569 H 0.12983 0.57079 0.4263 0.0
C3570 C 0.80151 0.87872 0.60084 0.0
C3571 C 0.80468 0.86838 0.5838 0.0
C3572 C 0.79875 0.87004 0.61638 0.0
C3573 C 0.80655 0.82881 0.63584 0.0
H3574 H 0.77448 0.84261 0.67111 0.0
C3575 C 0.79078 0.79123 0.69855 0.0
C3576 C 0.79142 0.80337 0.71596 0.0
C3577 C 0.79132 0.7985 0.68208 0.0
C3578 C 0.78358 0.83871 0.66145 0.0
H3579 H 0.80702 0.84052 0.56975 0.0
H3580 H 0.80184 0.82525 0.59672 0.0
H3581 H 0.77702 0.85602 0.64283 0.0
H3582 H 0.79267 0.83263 0.72961 0.0
H3583 H 0.79338 0.84525 0.70081 0.0
H3584 H 0.81297 0.81138 0.65445 0.0
C3585 C 0.80184 0.84024 0.5982 0.0
C3586 C 0.78508 0.84643 0.64523 0.0
C3587 C 0.80468 0.84897 0.58264 0.0
C3588 C 0.79219 0.82288 0.71645 0.0
C3589 C 0.79251 0.8301 0.69993 0.0
C3590 C 0.80493 0.82097 0.65198 0.0
C3591 C 0.79898 0.8507 0.61536 0.0
C3592 C 0.79672 0.84174 0.63225 0.0
C3593 C 0.79229 0.81805 0.68256 0.0
C3594 C 0.79353 0.82593 0.66507 0.0
H3595 H 0.80147 0.89371 0.60234 0.0
H3596 H 0.79688 0.8787 0.62936 0.0
H3597 H 0.81588 0.82508 0.62641 0.0
H3598 H 0.79025 0.77615 0.69765 0.0
H3599 H 0.79095 0.78879 0.66892 0.0
C3600 C 0.7614 0.47175 0.51398 0.0
C3601 C 0.77762 0.47789 0.52558 0.0
C3602 C 0.7486 0.4821 0.51654 0.0
C3603 C 0.74269 0.52909 0.541 0.0
H3604 H 0.69339 0.4999 0.53886 0.0
C3605 C 0.68811 0.55925 0.57604 0.0
C3606 C 0.67309 0.55766 0.56365 0.0
C3607 C 0.70094 0.54972 0.57038 0.0
C3608 C 0.70713 0.50816 0.53945 0.0
H3609 H 0.79336 0.49988 0.54859 0.0
H3610 H 0.77108 0.51737 0.55339 0.0
H3611 H 0.71578 0.48303 0.52951 0.0
H3612 H 0.66024 0.54541 0.53531 0.0
H3613 H 0.68216 0.5282 0.52593 0.0
H3614 H 0.73403 0.55409 0.55172 0.0
C3615 C 0.76824 0.50494 0.54204 0.0
C3616 C 0.71991 0.49858 0.53392 0.0
C3617 C 0.78101 0.49477 0.53937 0.0
C3618 C 0.67132 0.54651 0.54546 0.0
C3619 C 0.6839 0.53673 0.53998 0.0
C3620 C 0.72998 0.53858 0.54685 0.0
C3621 C 0.75181 0.49866 0.53081 0.0
C3622 C 0.73789 0.50893 0.53484 0.0
C3623 C 0.69878 0.53827 0.55237 0.0
C3624 C 0.71217 0.52817 0.54626 0.0
H3625 H 0.75847 0.45883 0.50317 0.0
H3626 H 0.73616 0.47703 0.50748 0.0
H3627 H 0.75634 0.53756 0.54147 0.0
H3628 H 0.68981 0.56757 0.59016 0.0
H3629 H 0.71239 0.55102 0.58013 0.0
C3630 C 0.25055 0.13751 0.49105 0.0
C3631 C 0.25419 0.15775 0.49432 0.0
C3632 C 0.23308 0.12605 0.49049 0.0
C3633 C 0.19424 0.12536 0.51272 0.0
H3634 H 0.16482 0.09046 0.4696 0.0
C3635 C 0.12037 0.09119 0.51712 0.0
C3636 C 0.11226 0.07234 0.5072 0.0
C3637 C 0.13745 0.10099 0.51411 0.0
C3638 C 0.17291 0.09987 0.48188 0.0
H3639 H 0.24225 0.18173 0.49915 0.0
H3640 H 0.21195 0.16171 0.49875 0.0
H3641 H 0.19539 0.10803 0.46653 0.0
H3642 H 0.11555 0.04949 0.4855 0.0
H3643 H 0.14583 0.06602 0.4811 0.0
H3644 H 0.17245 0.11695 0.52841 0.0
C3645 C 0.22259 0.15479 0.49633 0.0
C3646 C 0.19037 0.10998 0.48004 0.0
C3647 C 0.23993 0.16621 0.49651 0.0
C3648 C 0.12153 0.06376 0.49376 0.0
C3649 C 0.13886 0.07342 0.49103 0.0
C3650 C 0.17701 0.11501 0.51468 0.0
C3651 C 0.21906 0.13467 0.49355 0.0
C3652 C 0.20103 0.123 0.4954 0.0
C3653 C 0.14718 0.09212 0.50137 0.0
C3654 C 0.16592 0.10236 0.49923 0.0
H3655 H 0.26124 0.13056 0.48927 0.0
H3656 H 0.2306 0.11052 0.4884 0.0
H3657 H 0.20234 0.1352 0.52479 0.0
H3658 H 0.11356 0.0985 0.52732 0.0
H3659 H 0.143 0.1156 0.52187 0.0
C3660 C 0.21458 0.95186 0.76415 0.0
C3661 C 0.21645 0.96305 0.75009 0.0
C3662 C 0.22299 0.93662 0.76433 0.0
C3663 C 0.25743 0.91222 0.74022 0.0
H3664 H 0.23986 0.87414 0.76991 0.0
C3665 C 0.2849 0.84144 0.73932 0.0
C3666 C 0.28478 0.83363 0.75575 0.0
C3667 C 0.27741 0.85731 0.73795 0.0
C3668 C 0.24533 0.88463 0.76161 0.0
H3669 H 0.22932 0.96592 0.72495 0.0
H3670 H 0.24343 0.9396 0.72491 0.0
H3671 H 0.22581 0.89997 0.769 0.0
H3672 H 0.27617 0.83726 0.78343 0.0
H3673 H 0.2636 0.86404 0.78117 0.0
H3674 H 0.2768 0.8963 0.73262 0.0
C3675 C 0.23565 0.94265 0.73625 0.0
C3676 C 0.23707 0.8999 0.7611 0.0
C3677 C 0.2273 0.958 0.73617 0.0
C3678 C 0.27678 0.84253 0.77049 0.0
C3679 C 0.26927 0.85809 0.76909 0.0
C3680 C 0.26563 0.89678 0.74063 0.0
C3681 C 0.2338 0.93134 0.75034 0.0
C3682 C 0.24286 0.91441 0.75052 0.0
C3683 C 0.26907 0.86594 0.75275 0.0
C3684 C 0.25996 0.88254 0.75151 0.0
H3685 H 0.20658 0.95496 0.77532 0.0
H3686 H 0.22106 0.92916 0.77584 0.0
H3687 H 0.26288 0.92267 0.73189 0.0
H3688 H 0.29048 0.83509 0.72737 0.0
H3689 H 0.27776 0.86246 0.72496 0.0
C3690 C 0.3739 0.94453 0.00369 0.0
C3691 C 0.36107 0.955 0.00423 0.0
C3692 C 0.39197 0.95418 0.00634 0.0
C3693 C 0.42515 1.00027 0.00808 0.0
H3694 H 0.4498 0.98366 0.04701 0.0
C3695 C 0.49788 0.03917 0.03892 0.0
C3696 C 0.50864 0.02668 0.04028 0.0
C3697 C 0.47943 0.03174 0.03504 0.0
C3698 C 0.44315 0.98837 0.03602 0.0
H3699 H 0.35702 0.98357 0.00614 0.0
H3700 H 0.38868 1.00038 0.01084 0.0
H3701 H 0.41867 0.96736 0.03645 0.0
H3702 H 0.50917 0.99733 0.04056 0.0
H3703 H 0.477 0.98415 0.0335 0.0
H3704 H 0.44974 0.0213 0.00767 0.0
C3705 C 0.38472 0.98477 0.00849 0.0
C3706 C 0.42538 0.979 0.02993 0.0
C3707 C 0.36662 0.97514 0.00591 0.0
C3708 C 0.50093 0.007 0.03898 0.0
C3709 C 0.48257 0.99957 0.03522 0.0
C3710 C 0.44304 0.00966 0.01415 0.0
C3711 C 0.39749 0.9744 0.00948 0.0
C3712 C 0.41631 0.98463 0.0157 0.0
C3713 C 0.47164 0.01182 0.03298 0.0
C3714 C 0.45228 1.00349 0.02791 0.0
H3715 H 0.37003 0.92899 1.00218 0.0
H3716 H 0.40164 0.94587 0.00668 0.0
H3717 H 0.41835 1.00494 0.99717 0.0
H3718 H 0.50375 0.05455 0.04055 0.0
H3719 H 0.4713 0.04153 0.03368 0.0
C3720 C 0.87061 0.60586 0.8084 0.0
C3721 C 0.8893 0.6108 0.8109 0.0
C3722 C 0.86179 0.61965 0.80567 0.0
C3723 C 0.85433 0.66252 0.80213 0.0
H3724 H 0.85537 0.65071 0.74833 0.0
C3725 C 0.82625 0.70253 0.75059 0.0
C3726 C 0.81624 0.69074 0.73414 0.0
C3727 C 0.83561 0.69482 0.76273 0.0
C3728 C 0.85491 0.65415 0.7633 0.0
H3729 H 0.91343 0.63421 0.81488 0.0
H3730 H 0.89791 0.65833 0.80935 0.0
H3731 H 0.87085 0.63534 0.76835 0.0
H3732 H 0.80787 0.66169 0.71762 0.0
H3733 H 0.82419 0.64815 0.7388 0.0
H3734 H 0.838 0.68108 0.79699 0.0
C3735 C 0.89015 0.64394 0.80995 0.0
C3736 C 0.86389 0.64552 0.77472 0.0
C3737 C 0.89899 0.63017 0.81303 0.0
C3738 C 0.81575 0.67113 0.73002 0.0
C3739 C 0.82505 0.66342 0.74217 0.0
C3740 C 0.84536 0.67133 0.79065 0.0
C3741 C 0.87162 0.63841 0.80518 0.0
C3742 C 0.86351 0.64949 0.79412 0.0
C3743 C 0.83512 0.67519 0.7586 0.0
C3744 C 0.84535 0.66694 0.77108 0.0
H3745 H 0.86292 0.59098 0.80683 0.0
H3746 H 0.84751 0.61512 0.80179 0.0
H3747 H 0.85382 0.66555 0.81711 0.0
H3748 H 0.82693 0.71776 0.754 0.0
H3749 H 0.84343 0.70425 0.77517 0.0
C3750 C 0.84262 0.6397 0.01739 0.0
C3751 C 0.84606 0.65865 0.01442 0.0
C3752 C 0.85646 0.63103 0.0192 0.0
C3753 C 0.90436 0.63512 0.01297 0.0
H3754 H 0.89865 0.60133 0.04874 0.0
C3755 C 0.95784 0.59856 0.04 0.0
C3756 C 0.95106 0.57862 0.03923 0.0
C3757 C 0.94645 0.60975 0.03585 0.0
C3758 C 0.90043 0.6107 0.03868 0.0
H3759 H 0.86667 0.68325 0.01044 0.0
H3760 H 0.89116 0.66831 0.01429 0.0
H3761 H 0.8763 0.61831 0.0439 0.0
H3762 H 0.92718 0.5547 0.03204 0.0
H3763 H 0.90745 0.57421 0.02543 0.0
H3764 H 0.92893 0.62758 0.00826 0.0
C3765 C 0.87765 0.65998 0.01484 0.0
C3766 C 0.88753 0.62035 0.03576 0.0
C3767 C 0.86364 0.66858 0.01266 0.0
C3768 C 0.93283 0.57007 0.03335 0.0
C3769 C 0.9215 0.58122 0.02945 0.0
C3770 C 0.91749 0.6256 0.01612 0.0
C3771 C 0.87426 0.64121 0.01857 0.0
C3772 C 0.889 0.63229 0.0225 0.0
C3773 C 0.92808 0.60121 0.03102 0.0
C3774 C 0.91538 0.61294 0.0287 0.0
H3775 H 0.82916 0.63158 0.01852 0.0
H3776 H 0.85316 0.61633 0.02136 0.0
H3777 H 0.90599 0.64419 0.00266 0.0
H3778 H 0.97178 0.60566 0.04451 0.0
H3779 H 0.95184 0.62516 0.03717 0.0
C3780 C 0.23106 0.07752 0.76951 0.0
C3781 C 0.21271 0.07245 0.77185 0.0
C3782 C 0.24054 0.09698 0.76994 0.0
C3783 C 0.23401 0.14326 0.76052 0.0
H3784 H 0.2781 0.16907 0.79213 0.0
C3785 C 0.26596 0.22595 0.76462 0.0
C3786 C 0.28408 0.23471 0.77121 0.0
C3787 C 0.25779 0.20644 0.76507 0.0
C3788 C 0.266 0.16229 0.78284 0.0
H3789 H 0.19026 0.08463 0.77626 0.0
H3790 H 0.20644 0.11779 0.77635 0.0
H3791 H 0.26394 0.13518 0.79156 0.0
H3792 H 0.30729 0.22915 0.78434 0.0
H3793 H 0.29385 0.19534 0.78389 0.0
H3794 H 0.23612 0.16958 0.75097 0.0
C3795 C 0.21364 0.10683 0.77449 0.0
C3796 C 0.25776 0.14259 0.78264 0.0
C3797 C 0.20433 0.08763 0.77456 0.0
C3798 C 0.29355 0.2231 0.77858 0.0
C3799 C 0.28552 0.20343 0.77862 0.0
C3800 C 0.24243 0.16276 0.76033 0.0
C3801 C 0.2319 0.11196 0.77214 0.0
C3802 C 0.24148 0.13276 0.77165 0.0
C3803 C 0.26738 0.19445 0.77179 0.0
C3804 C 0.25856 0.173 0.77168 0.0
H3805 H 0.2381 0.06645 0.7673 0.0
H3806 H 0.25457 0.10023 0.76803 0.0
H3807 H 0.22162 0.13628 0.75167 0.0
H3808 H 0.25792 0.23419 0.75905 0.0
H3809 H 0.24376 0.201 0.76019 0.0
C3810 C 0.41311 0.99264 0.29968 0.0
C3811 C 0.40348 0.00657 0.30114 0.0
C3812 C 0.40416 0.97308 0.29675 0.0
C3813 C 0.35968 0.93905 0.29662 0.0
H3814 H 0.37691 0.90615 0.25854 0.0
C3815 C 0.31749 0.86305 0.26053 0.0
C3816 C 0.32646 0.84867 0.25965 0.0
C3817 C 0.32705 0.88242 0.26592 0.0
C3818 C 0.37203 0.91514 0.26929 0.0
H3819 H 0.37703 0.01104 0.30192 0.0
H3820 H 0.36149 0.97711 0.29637 0.0
H3821 H 0.39385 0.93963 0.26946 0.0
H3822 H 0.35216 0.84258 0.26137 0.0
H3823 H 0.36901 0.87642 0.27087 0.0
H3824 H 0.3374 0.9148 0.29565 0.0
C3825 C 0.37592 0.98116 0.29768 0.0
C3826 C 0.38179 0.93427 0.27568 0.0
C3827 C 0.38485 1.00066 0.30074 0.0
C3828 C 0.34508 0.85366 0.26266 0.0
C3829 C 0.35466 0.87294 0.2679 0.0
C3830 C 0.34978 0.92001 0.29 0.0
C3831 C 0.38543 0.96712 0.29514 0.0
C3832 C 0.37572 0.94645 0.28941 0.0
C3833 C 0.34572 0.8875 0.26987 0.0
C3834 C 0.3559 0.90785 0.27637 0.0
H3835 H 0.4275 0.99677 0.30009 0.0
H3836 H 0.41189 0.9626 0.29525 0.0
H3837 H 0.35471 0.94798 0.30735 0.0
H3838 H 0.30312 0.85931 0.25746 0.0
H3839 H 0.31988 0.89339 0.26697 0.0
C3840 C 0.58532 0.37922 0.59747 0.0
C3841 C 0.59365 0.36692 0.58635 0.0
C3842 C 0.58202 0.3955 0.59155 0.0
C3843 C 0.5762 0.41623 0.54923 0.0
H3844 H 0.58752 0.46527 0.58403 0.0
C3845 C 0.57318 0.48706 0.52399 0.0
C3846 C 0.56995 0.50249 0.53649 0.0
C3847 C 0.57515 0.47036 0.53001 0.0
C3848 C 0.58388 0.45171 0.57407 0.0
H3849 H 0.60473 0.36227 0.55999 0.0
H3850 H 0.59857 0.39019 0.5495 0.0
H3851 H 0.59226 0.43692 0.59442 0.0
H3852 H 0.56716 0.51274 0.56547 0.0
H3853 H 0.56968 0.4835 0.5759 0.0
H3854 H 0.56733 0.43066 0.529 0.0
C3855 C 0.59469 0.38735 0.56291 0.0
C3856 C 0.58675 0.43533 0.5801 0.0
C3857 C 0.59831 0.37131 0.56899 0.0
C3858 C 0.56908 0.50089 0.55533 0.0
C3859 C 0.57087 0.48411 0.56135 0.0
C3860 C 0.57305 0.43252 0.54326 0.0
C3861 C 0.5866 0.39984 0.57414 0.0
C3862 C 0.5831 0.41731 0.56777 0.0
C3863 C 0.57414 0.46849 0.54887 0.0
C3864 C 0.57695 0.45072 0.55549 0.0
H3865 H 0.58154 0.37644 0.61092 0.0
H3866 H 0.57566 0.40459 0.60058 0.0
H3867 H 0.57296 0.40263 0.53932 0.0
H3868 H 0.57451 0.48807 0.50952 0.0
H3869 H 0.57806 0.45918 0.51984 0.0
C3870 C 0.47413 0.79824 0.36907 0.0
C3871 C 0.47524 0.78183 0.37611 0.0
C3872 C 0.45812 0.79923 0.36001 0.0
C3873 C 0.40854 0.77547 0.35179 0.0
H3874 H 0.4113 0.80636 0.3137 0.0
C3875 C 0.34512 0.79095 0.31715 0.0
C3876 C 0.34489 0.79303 0.29838 0.0
C3877 C 0.36057 0.78909 0.32688 0.0
C3878 C 0.41009 0.79741 0.32409 0.0
H3879 H 0.46007 0.75344 0.37887 0.0
H3880 H 0.43231 0.75477 0.3624 0.0
H3881 H 0.43838 0.80309 0.3289 0.0
H3882 H 0.36136 0.79608 0.2757 0.0
H3883 H 0.38746 0.79156 0.29183 0.0
H3884 H 0.38009 0.76914 0.34623 0.0
C3885 C 0.44374 0.7672 0.3643 0.0
C3886 C 0.42584 0.79581 0.33319 0.0
C3887 C 0.45978 0.76632 0.37364 0.0
C3888 C 0.36061 0.79353 0.28978 0.0
C3889 C 0.37591 0.79148 0.29934 0.0
C3890 C 0.39271 0.7769 0.34249 0.0
C3891 C 0.44258 0.78372 0.35733 0.0
C3892 C 0.42545 0.78491 0.34731 0.0
C3893 C 0.37631 0.78937 0.31813 0.0
C3894 C 0.39318 0.7879 0.32843 0.0
H3895 H 0.48563 0.81061 0.37089 0.0
H3896 H 0.45794 0.81245 0.35541 0.0
H3897 H 0.40745 0.76711 0.36267 0.0
H3898 H 0.33334 0.79077 0.32434 0.0
H3899 H 0.36024 0.78782 0.34137 0.0
C3900 C 0.0702 0.74841 0.09932 0.0
C3901 C 0.07769 0.76217 0.08876 0.0
C3902 C 0.06899 0.72883 0.09331 0.0
C3903 C 0.08696 0.69425 0.06064 0.0
H3904 H 0.04929 0.65701 0.07707 0.0
C3905 C 0.06769 0.60787 0.04147 0.0
C3906 C 0.06863 0.59982 0.0575 0.0
C3907 C 0.07028 0.62791 0.04312 0.0
C3908 C 0.05989 0.66723 0.07235 0.0
H3909 H 0.08948 0.76558 0.06307 0.0
H3910 H 0.0868 0.73108 0.05214 0.0
H3911 H 0.04936 0.69081 0.08278 0.0
H3912 H 0.07282 0.60647 0.08772 0.0
H3913 H 0.07684 0.64121 0.09059 0.0
H3914 H 0.09701 0.67003 0.0497 0.0
C3915 C 0.08217 0.73565 0.06542 0.0
C3916 C 0.06007 0.68675 0.07577 0.0
C3917 C 0.08354 0.75548 0.07158 0.0
C3918 C 0.07237 0.61227 0.07511 0.0
C3919 C 0.07461 0.63214 0.07676 0.0
C3920 C 0.08655 0.67453 0.05688 0.0
C3921 C 0.07495 0.72198 0.07628 0.0
C3922 C 0.07387 0.70077 0.07048 0.0
C3923 C 0.07328 0.64018 0.06084 0.0
C3924 C 0.07321 0.66088 0.06309 0.0
H3925 H 0.06562 0.75279 0.11269 0.0
H3926 H 0.06378 0.71916 0.10247 0.0
H3927 H 0.09789 0.70443 0.05638 0.0
H3928 H 0.06429 0.59862 0.02774 0.0
H3929 H 0.069 0.63367 0.03061 0.0
C3930 C 0.082 0.28621 0.87957 0.0
C3931 C 0.06972 0.26809 0.87813 0.0
C3932 C 0.09773 0.28801 0.87069 0.0
C3933 C 0.11849 0.26024 0.83366 0.0
H3934 H 0.16091 0.30207 0.85207 0.0
C3935 C 0.17571 0.27731 0.7877 0.0
C3936 C 0.19348 0.28571 0.79565 0.0
C3937 C 0.16165 0.27444 0.79882 0.0
C3938 C 0.14931 0.2901 0.84681 0.0
H3939 H 0.06489 0.23757 0.8668 0.0
H3940 H 0.09231 0.24045 0.85224 0.0
H3941 H 0.135 0.29866 0.86956 0.0
H3942 H 0.21026 0.29689 0.82198 0.0
H3943 H 0.1857 0.29128 0.8416 0.0
H3944 H 0.1329 0.25114 0.81143 0.0
C3945 C 0.08965 0.25353 0.85944 0.0
C3946 C 0.1342 0.28831 0.85674 0.0
C3947 C 0.07383 0.25181 0.86796 0.0
C3948 C 0.19679 0.29036 0.81531 0.0
C3949 C 0.18262 0.28737 0.82656 0.0
C3950 C 0.13359 0.26186 0.82394 0.0
C3951 C 0.10185 0.27168 0.86036 0.0
C3952 C 0.1184 0.27345 0.85024 0.0
C3953 C 0.16473 0.27955 0.81847 0.0
C3954 C 0.1492 0.27701 0.83008 0.0
H3955 H 0.07931 0.29907 0.88731 0.0
H3956 H 0.10647 0.30231 0.87168 0.0
H3957 H 0.10672 0.24871 0.8278 0.0
H3958 H 0.17254 0.27323 0.77266 0.0
H3959 H 0.14824 0.2687 0.79182 0.0
C3960 C 0.61766 0.77777 0.9464 0.0
C3961 C 0.60721 0.77811 0.93021 0.0
C3962 C 0.61249 0.76293 0.95619 0.0
C3963 C 0.58739 0.7132 0.95275 0.0
H3964 H 0.58471 0.72895 0.00578 0.0
C3965 C 0.56345 0.65798 1.00018 0.0
C3966 C 0.57184 0.6625 0.01858 0.0
C3967 C 0.56683 0.67154 0.98862 0.0
C3968 C 0.58564 0.72424 0.99106 0.0
H3969 H 0.58347 0.76282 0.91122 0.0
H3970 H 0.57462 0.7365 0.92827 0.0
H3971 H 0.59269 0.75328 0.98677 0.0
H3972 H 0.59082 0.68441 0.03907 0.0
H3973 H 0.59719 0.7078 0.01889 0.0
H3974 H 0.58098 0.68416 0.95711 0.0
C3975 C 0.58671 0.7479 0.93338 0.0
C3976 C 0.5901 0.73821 0.98017 0.0
C3977 C 0.59173 0.76298 0.92371 0.0
C3978 C 0.5839 0.68068 0.02507 0.0
C3979 C 0.58747 0.69411 0.01348 0.0
C3980 C 0.58318 0.69916 0.96373 0.0
C3981 C 0.59692 0.74794 0.94987 0.0
C3982 C 0.5912 0.73286 0.96097 0.0
C3983 C 0.57886 0.68984 0.99516 0.0
C3984 C 0.58246 0.70453 0.98311 0.0
H3985 H 0.62967 0.78919 0.95176 0.0
H3986 H 0.62067 0.76317 0.96878 0.0
H3987 H 0.58823 0.70874 0.93796 0.0
H3988 H 0.55402 0.64407 0.99485 0.0
H3989 H 0.55979 0.66778 0.9747 0.0
C3990 C 0.07498 0.77648 0.6743 0.0
C3991 C 0.06176 0.77577 0.68662 0.0
C3992 C 0.09157 0.77415 0.67996 0.0
C3993 C 0.11135 0.75133 0.71311 0.0
H3994 H 0.1565 0.77995 0.7003 0.0
C3995 C 0.17814 0.74333 0.74306 0.0
C3996 C 0.19156 0.74332 0.73112 0.0
C3997 C 0.16252 0.74771 0.73738 0.0
C3998 C 0.14396 0.77169 0.70379 0.0
H3999 H 0.05596 0.77339 0.71488 0.0
H4000 H 0.08501 0.76966 0.72483 0.0
H4001 H 0.12914 0.78812 0.69125 0.0
H4002 H 0.19913 0.74739 0.70379 0.0
H4003 H 0.17162 0.75466 0.69366 0.0
H4004 H 0.12599 0.73475 0.72544 0.0
C4005 C 0.08238 0.77154 0.71067 0.0
C4006 C 0.12833 0.77641 0.69866 0.0
C4007 C 0.0658 0.77379 0.70501 0.0
C4008 C 0.18901 0.74748 0.7133 0.0
C4009 C 0.17333 0.75173 0.70756 0.0
C4010 C 0.12691 0.74658 0.71817 0.0
C4011 C 0.09523 0.77114 0.69805 0.0
C4012 C 0.11191 0.76637 0.70342 0.0
C4013 C 0.15996 0.75199 0.71959 0.0
C4014 C 0.14341 0.75678 0.71369 0.0
H4015 H 0.07227 0.77797 0.66002 0.0
H4016 H 0.1012 0.77382 0.66991 0.0
H4017 H 0.09881 0.74302 0.71657 0.0
H4018 H 0.17993 0.74045 0.75697 0.0
H4019 H 0.1526 0.74812 0.74709 0.0
C4020 C 0.11945 0.39912 0.41681 0.0
C4021 C 0.12091 0.38599 0.42827 0.0
C4022 C 0.11893 0.4178 0.42484 0.0
C4023 C 0.1246 0.45475 0.4673 0.0
H4024 H 0.07464 0.45151 0.45577 0.0
C4025 C 0.0877 0.49792 0.51696 0.0
C4026 C 0.07282 0.50297 0.50983 0.0
C4027 C 0.09621 0.48651 0.50535 0.0
C4028 C 0.08874 0.45316 0.45889 0.0
H4029 H 0.12512 0.38247 0.4568 0.0
H4030 H 0.12507 0.4154 0.47081 0.0
H4031 H 0.08782 0.42864 0.43759 0.0
H4032 H 0.05547 0.5002 0.48459 0.0
H4033 H 0.07079 0.48143 0.46424 0.0
H4034 H 0.12566 0.47936 0.48854 0.0
C4035 C 0.12407 0.41125 0.45572 0.0
C4036 C 0.09628 0.43995 0.44842 0.0
C4037 C 0.12407 0.39243 0.44773 0.0
C4038 C 0.06679 0.4965 0.4907 0.0
C4039 C 0.07558 0.48554 0.47897 0.0
C4040 C 0.11718 0.46836 0.47751 0.0
C4041 C 0.1204 0.42365 0.44436 0.0
C4042 C 0.1141 0.44029 0.45286 0.0
C4043 C 0.09033 0.4802 0.48614 0.0
C4044 C 0.09896 0.46736 0.47385 0.0
H4045 H 0.11676 0.39436 0.40177 0.0
H4046 H 0.11599 0.42715 0.41585 0.0
H4047 H 0.13837 0.45518 0.47099 0.0
H4048 H 0.09284 0.50271 0.53149 0.0
H4049 H 0.10725 0.48243 0.5116 0.0
C4050 C 0.45595 0.27351 0.18787 0.0
C4051 C 0.46974 0.27097 0.19952 0.0
C4052 C 0.43956 0.27375 0.19444 0.0
C4053 C 0.41266 0.25717 0.23149 0.0
H4054 H 0.38083 0.28349 0.21147 0.0
C4055 C 0.34514 0.26132 0.25884 0.0
C4056 C 0.33108 0.25932 0.24519 0.0
C4057 C 0.36224 0.26208 0.25368 0.0
C4058 C 0.38957 0.27603 0.21717 0.0
H4059 H 0.47784 0.26831 0.22756 0.0
H4060 H 0.4496 0.26984 0.23939 0.0
H4061 H 0.41115 0.28922 0.20314 0.0
H4062 H 0.32287 0.25421 0.21553 0.0
H4063 H 0.35284 0.25563 0.20639 0.0
H4064 H 0.39107 0.24453 0.24601 0.0
C4065 C 0.45107 0.27074 0.22493 0.0
C4066 C 0.40695 0.27924 0.21232 0.0
C4067 C 0.46733 0.27009 0.21823 0.0
C4068 C 0.33382 0.25645 0.22625 0.0
C4069 C 0.35087 0.25723 0.22107 0.0
C4070 C 0.39539 0.25434 0.23668 0.0
C4071 C 0.43675 0.27184 0.21293 0.0
C4072 C 0.41868 0.26967 0.21923 0.0
C4073 C 0.36532 0.2606 0.23478 0.0
C4074 C 0.38365 0.26361 0.22943 0.0
H4075 H 0.45742 0.27408 0.17333 0.0
H4076 H 0.42886 0.27442 0.18468 0.0
H4077 H 0.4211 0.24916 0.23675 0.0
H4078 H 0.34303 0.26301 0.27349 0.0
H4079 H 0.37315 0.26465 0.2645 0.0
C4080 C 0.6299 0.53938 0.33412 0.0
C4081 C 0.63893 0.5253 0.3278 0.0
C4082 C 0.62252 0.54054 0.35152 0.0
C4083 C 0.60992 0.513 0.39127 0.0
H4084 H 0.60598 0.56244 0.41731 0.0
C4085 C 0.57427 0.52066 0.46139 0.0
C4086 C 0.57986 0.538 0.47501 0.0
C4087 C 0.58106 0.51873 0.44363 0.0
C4088 C 0.607 0.54841 0.41054 0.0
H4089 H 0.64686 0.5013 0.33582 0.0
H4090 H 0.63424 0.50327 0.36576 0.0
H4091 H 0.61848 0.55996 0.3876 0.0
H4092 H 0.59663 0.5672 0.47904 0.0
H4093 H 0.60862 0.56387 0.44913 0.0
H4094 H 0.5987 0.50156 0.41446 0.0
C4095 C 0.63261 0.51347 0.3572 0.0
C4096 C 0.61409 0.54691 0.39299 0.0
C4097 C 0.64005 0.51235 0.3398 0.0
C4098 C 0.59227 0.55336 0.46968 0.0
C4099 C 0.59899 0.55149 0.45198 0.0
C4100 C 0.60275 0.5145 0.40882 0.0
C4101 C 0.62368 0.52767 0.36367 0.0
C4102 C 0.61582 0.52917 0.38278 0.0
C4103 C 0.59366 0.53412 0.43837 0.0
C4104 C 0.60113 0.53228 0.41906 0.0
H4105 H 0.62856 0.54971 0.32559 0.0
H4106 H 0.61566 0.55157 0.35529 0.0
H4107 H 0.61061 0.49892 0.38425 0.0
H4108 H 0.56465 0.50839 0.46451 0.0
H4109 H 0.57613 0.50508 0.43389 0.0
C4110 C 0.29466 0.88544 0.05564 0.0
C4111 C 0.30122 0.90539 0.05682 0.0
C4112 C 0.29559 0.87754 0.07154 0.0
C4113 C 0.3047 0.88924 0.12327 0.0
H4114 H 0.32379 0.84472 0.11487 0.0
C4115 C 0.33979 0.86305 0.1815 0.0
C4116 C 0.33639 0.84302 0.18014 0.0
C4117 C 0.33268 0.87042 0.16737 0.0
C4118 C 0.31818 0.85694 0.11742 0.0
H4119 H 0.31295 0.93285 0.07572 0.0
H4120 H 0.31493 0.919 0.1034 0.0
H4121 H 0.31582 0.85794 0.08845 0.0
H4122 H 0.32252 0.81503 0.16325 0.0
H4123 H 0.30993 0.8279 0.13876 0.0
H4124 H 0.30767 0.88846 0.15243 0.0
C4125 C 0.30885 0.90949 0.09026 0.0
C4126 C 0.31357 0.8645 0.10228 0.0
C4127 C 0.3078 0.91741 0.07437 0.0
C4128 C 0.32528 0.83053 0.16474 0.0
C4129 C 0.3182 0.83788 0.15064 0.0
C4130 C 0.30939 0.88168 0.13848 0.0
C4131 C 0.30323 0.88942 0.08888 0.0
C4132 C 0.30686 0.88078 0.10502 0.0
C4133 C 0.32211 0.85788 0.15164 0.0
C4134 C 0.31625 0.8655 0.13567 0.0
H4135 H 0.28932 0.87583 0.04234 0.0
H4136 H 0.29081 0.86205 0.07013 0.0
H4137 H 0.29945 0.90172 0.12578 0.0
H4138 H 0.34813 0.873 0.19336 0.0
H4139 H 0.33599 0.8859 0.16843 0.0
C4140 C 0.97447 0.55245 0.85592 0.0
C4141 C 0.96811 0.56866 0.85527 0.0
C4142 C 0.98308 0.55059 0.87236 0.0
C4143 C 0.99094 0.56859 0.92316 0.0
H4144 H 0.03312 0.54989 0.9179 0.0
C4145 C 0.038 0.57109 0.98661 0.0
C4146 C 0.04301 0.55414 0.9875 0.0
C4147 C 0.02991 0.57331 0.97004 0.0
C4148 C 0.0213 0.55496 0.91955 0.0
H4149 H 0.96507 0.59532 0.87135 0.0
H4150 H 0.98098 0.59252 0.90025 0.0
H4151 H 0.01606 0.553 0.89021 0.0
H4152 H 0.0445 0.52662 0.97191 0.0
H4153 H 0.03 0.53036 0.94261 0.0
H4154 H 0.99629 0.57063 0.95256 0.0
C4155 C 0.97903 0.58111 0.88802 0.0
C4156 C 0.01151 0.55673 0.90373 0.0
C4157 C 0.97008 0.58281 0.87152 0.0
C4158 C 0.0408 0.53985 0.97137 0.0
C4159 C 0.0325 0.54199 0.95472 0.0
C4160 C 1.00078 0.56688 0.939 0.0
C4161 C 0.98582 0.56508 0.88846 0.0
C4162 C 0.99622 0.56353 0.90538 0.0
C4163 C 0.02652 0.55852 0.95413 0.0
C4164 C 0.01607 0.56011 0.93731 0.0
H4165 H 0.97263 0.54101 0.84371 0.0
H4166 H 0.98764 0.53779 0.87243 0.0
H4167 H 0.97907 0.57358 0.92482 0.0
H4168 H 0.03984 0.5824 0.99893 0.0
H4169 H 0.02587 0.58641 0.96982 0.0
C4170 C 0.31763 0.21881 0.57383 0.0
C4171 C 0.31339 0.22769 0.55927 0.0
C4172 C 0.31741 0.22717 0.5925 0.0
C4173 C 0.29889 0.26197 0.62321 0.0
H4174 H 0.33158 0.25337 0.66073 0.0
C4175 C 0.30614 0.28826 0.7062 0.0
C4176 C 0.30477 0.27265 0.71533 0.0
C4177 C 0.30631 0.28542 0.68665 0.0
C4178 C 0.32241 0.25598 0.65041 0.0
H4179 H 0.30591 0.25276 0.55321 0.0
H4180 H 0.3059 0.26767 0.58606 0.0
H4181 H 0.33517 0.24447 0.62779 0.0
H4182 H 0.30202 0.24195 0.71124 0.0
H4183 H 0.30259 0.23713 0.67748 0.0
H4184 H 0.28624 0.27359 0.64629 0.0
C4185 C 0.30915 0.25399 0.58287 0.0
C4186 C 0.32436 0.25074 0.63148 0.0
C4187 C 0.30933 0.24553 0.56403 0.0
C4188 C 0.303 0.25421 0.70456 0.0
C4189 C 0.30337 0.25145 0.68525 0.0
C4190 C 0.29708 0.26747 0.6423 0.0
C4191 C 0.31309 0.24483 0.59738 0.0
C4192 C 0.3123 0.25305 0.61754 0.0
C4193 C 0.30552 0.26705 0.67612 0.0
C4194 C 0.30855 0.264 0.65604 0.0
H4195 H 0.32073 0.20502 0.57084 0.0
H4196 H 0.32014 0.21938 0.60311 0.0
H4197 H 0.28929 0.26393 0.61293 0.0
H4198 H 0.30786 0.30269 0.71421 0.0
H4199 H 0.30802 0.2977 0.67991 0.0
C4200 C 0.63192 0.5183 0.21545 0.0
C4201 C 0.64744 0.51162 0.21651 0.0
C4202 C 0.62402 0.52082 0.19825 0.0
C4203 C 0.62631 0.51079 0.14453 0.0
H4204 H 0.59576 0.54509 0.14439 0.0
C4205 C 0.60563 0.53312 0.07477 0.0
C4206 C 0.58837 0.53522 0.07052 0.0
C4207 C 0.61172 0.53054 0.09253 0.0
C4208 C 0.60413 0.53529 0.14397 0.0
H4209 H 0.6665 0.50262 0.19909 0.0
H4210 H 0.65331 0.50716 0.16984 0.0
H4211 H 0.60826 0.54017 0.17406 0.0
H4212 H 0.56409 0.53633 0.08302 0.0
H4213 H 0.57489 0.53251 0.11432 0.0
H4214 H 0.62244 0.50619 0.11449 0.0
C4215 C 0.6467 0.51014 0.18217 0.0
C4216 C 0.61144 0.53235 0.1613 0.0
C4217 C 0.65451 0.50752 0.19932 0.0
C4218 C 0.57752 0.53505 0.08541 0.0
C4219 C 0.5838 0.53275 0.10352 0.0
C4220 C 0.61921 0.51389 0.12731 0.0
C4221 C 0.63121 0.51695 0.181 0.0
C4222 C 0.62288 0.52005 0.16217 0.0
C4223 C 0.60101 0.53002 0.10744 0.0
C4224 C 0.60798 0.52631 0.12644 0.0
H4225 H 0.62585 0.52185 0.22807 0.0
H4226 H 0.61211 0.52581 0.19865 0.0
H4227 H 0.63445 0.50076 0.14377 0.0
H4228 H 0.61462 0.53314 0.06403 0.0
H4229 H 0.6251 0.52898 0.09452 0.0
C4230 C 0.29291 0.86397 0.9477 0.0
C4231 C 0.29741 0.88415 0.95204 0.0
C4232 C 0.29421 0.85438 0.92981 0.0
C4233 C 0.30248 0.86153 0.88162 0.0
H4234 H 0.32155 0.81725 0.88071 0.0
C4235 C 0.32836 0.82863 0.81627 0.0
C4236 C 0.31913 0.8092 0.80931 0.0
C4237 C 0.32759 0.83721 0.83465 0.0
C4238 C 0.31622 0.82958 0.88083 0.0
H4239 H 0.30613 0.91029 0.94127 0.0
H4240 H 0.30919 0.89368 0.91017 0.0
H4241 H 0.31437 0.83357 0.91017 0.0
H4242 H 0.30449 0.78277 0.81698 0.0
H4243 H 0.30282 0.79796 0.84917 0.0
H4244 H 0.30491 0.85779 0.85231 0.0
C4245 C 0.30406 0.8851 0.92026 0.0
C4246 C 0.31191 0.83883 0.89761 0.0
C4247 C 0.30228 0.89465 0.93805 0.0
C4248 C 0.31103 0.79796 0.82173 0.0
C4249 C 0.31026 0.80658 0.84019 0.0
C4250 C 0.30707 0.85248 0.86493 0.0
C4251 C 0.30061 0.86486 0.91613 0.0
C4252 C 0.30485 0.85484 0.89818 0.0
C4253 C 0.31781 0.82647 0.84645 0.0
C4254 C 0.31391 0.83641 0.86441 0.0
H4255 H 0.28913 0.85565 0.95839 0.0
H4256 H 0.29088 0.83877 0.92694 0.0
H4257 H 0.29687 0.87362 0.88145 0.0
H4258 H 0.33536 0.83757 0.80731 0.0
H4259 H 0.33394 0.85248 0.8394 0.0
C4260 C 0.9687 0.58184 0.75608 0.0
C4261 C 0.95008 0.57565 0.75568 0.0
C4262 C 0.97695 0.57748 0.74008 0.0
C4263 C 0.9693 0.54008 0.69765 0.0
H4264 H 0.01446 0.57147 0.68763 0.0
C4265 C 0.01028 0.51597 0.63838 0.0
C4266 C 0.02869 0.51971 0.64349 0.0
C4267 C 0.99946 0.52311 0.65079 0.0
C4268 C 1.00189 0.56252 0.69033 0.0
H4269 H 0.9254 0.56136 0.7378 0.0
H4270 H 0.93984 0.55394 0.70971 0.0
H4271 H 0.99724 0.58549 0.71027 0.0
H4272 H 0.05014 0.53341 0.66569 0.0
H4273 H 0.03121 0.54587 0.68745 0.0
H4274 H 0.97409 0.51708 0.67774 0.0
C4275 C 0.94807 0.56188 0.72252 0.0
C4276 C 0.992 0.57055 0.70325 0.0
C4277 C 0.93979 0.56632 0.73856 0.0
C4278 C 0.03597 0.53016 0.66147 0.0
C4279 C 0.02519 0.5375 0.6738 0.0
C4280 C 0.97914 0.53209 0.68459 0.0
C4281 C 0.96677 0.56682 0.72328 0.0
C4282 C 0.97582 0.55929 0.70743 0.0
C4283 C 0.00689 0.53433 0.66846 0.0
C4284 C 0.99575 0.5431 0.68118 0.0
H4285 H 0.97702 0.58913 0.76902 0.0
H4286 H 0.99137 0.58141 0.74126 0.0
H4287 H 0.957 0.5309 0.70069 0.0
H4288 H 0.00434 0.50791 0.62459 0.0
H4289 H 0.9854 0.52045 0.64631 0.0
C4290 C 0.30694 0.24083 0.4483 0.0
C4291 C 0.31026 0.22389 0.45239 0.0
C4292 C 0.30814 0.2448 0.43031 0.0
C4293 C 0.30267 0.22154 0.38116 0.0
H4294 H 0.3282 0.2719 0.37349 0.0
C4295 C 0.30327 0.24055 0.30697 0.0
C4296 C 0.30356 0.2596 0.30585 0.0
C4297 C 0.3057 0.23549 0.32442 0.0
C4298 C 0.32074 0.25782 0.37531 0.0
H4299 H 0.31751 0.19785 0.44071 0.0
H4300 H 0.31914 0.20458 0.40906 0.0
H4301 H 0.32944 0.26469 0.4047 0.0
H4302 H 0.30561 0.28795 0.32214 0.0
H4303 H 0.30937 0.2793 0.35229 0.0
H4304 H 0.29323 0.21487 0.35201 0.0
C4305 C 0.31582 0.21487 0.41991 0.0
C4306 C 0.3216 0.25367 0.39326 0.0
C4307 C 0.31501 0.2111 0.43806 0.0
C4308 C 0.30598 0.27335 0.32249 0.0
C4309 C 0.30814 0.2683 0.33987 0.0
C4310 C 0.30153 0.22579 0.36321 0.0
C4311 C 0.31231 0.23173 0.41582 0.0
C4312 C 0.31242 0.23557 0.39645 0.0
C4313 C 0.30816 0.24932 0.3412 0.0
C4314 C 0.31034 0.24413 0.36003 0.0
H4315 H 0.30322 0.25096 0.45899 0.0
H4316 H 0.30526 0.25785 0.42757 0.0
H4317 H 0.29535 0.20748 0.3832 0.0
H4318 H 0.30146 0.22965 0.29434 0.0
H4319 H 0.30581 0.22078 0.3247 0.0
C4320 C 0.33651 0.59761 0.5167 0.0
C4321 C 0.33458 0.61346 0.50927 0.0
C4322 C 0.35278 0.59305 0.51733 0.0
C4323 C 0.39405 0.59899 0.49496 0.0
H4324 H 0.40783 0.57582 0.53527 0.0
C4325 C 0.45353 0.56464 0.49577 0.0
C4326 C 0.44815 0.54536 0.49789 0.0
C4327 C 0.44209 0.57651 0.49899 0.0
C4328 C 0.40419 0.58241 0.52402 0.0
H4329 H 0.3482 0.63718 0.49686 0.0
H4330 H 0.37681 0.62927 0.49809 0.0
H4331 H 0.38346 0.59116 0.53804 0.0
H4332 H 0.42695 0.5234 0.50532 0.0
H4333 H 0.40692 0.54419 0.51106 0.0
H4334 H 0.41471 0.58992 0.48088 0.0
C4335 C 0.36564 0.62023 0.50322 0.0
C4336 C 0.39023 0.59109 0.52553 0.0
C4337 C 0.34927 0.62473 0.50248 0.0
C4338 C 0.43124 0.53814 0.50335 0.0
C4339 C 0.41994 0.55007 0.50687 0.0
C4340 C 0.40819 0.59051 0.49356 0.0
C4341 C 0.36756 0.60435 0.51068 0.0
C4342 C 0.38449 0.59869 0.51065 0.0
C4343 C 0.42528 0.56933 0.50472 0.0
C4344 C 0.41284 0.58147 0.50774 0.0
H4345 H 0.32544 0.58864 0.52203 0.0
H4346 H 0.35366 0.58043 0.52274 0.0
H4347 H 0.38994 0.60468 0.48324 0.0
H4348 H 0.46659 0.5705 0.49164 0.0
H4349 H 0.44642 0.59132 0.49723 0.0
C4350 C 0.87368 0.95239 0.54784 0.0
C4351 C 0.86928 0.93218 0.5423 0.0
C4352 C 0.89116 0.96363 0.54776 0.0
C4353 C 0.93292 0.96121 0.52659 0.0
H4354 H 0.95433 0.00758 0.5639 0.0
C4355 C 0.99985 0.01146 0.51741 0.0
C4356 C 0.01226 0.02026 0.53316 0.0
C4357 C 0.98234 1.00195 0.51934 0.0
C4358 C 0.94864 0.99458 0.55345 0.0
H4359 H 0.88009 0.90797 0.5328 0.0
H4360 H 0.91037 0.92737 0.53299 0.0
H4361 H 0.92429 0.98825 0.56617 0.0
H4362 H 0.01591 0.02671 0.56341 0.0
H4363 H 0.98535 0.00932 0.56691 0.0
H4364 H 0.95728 0.96695 0.5142 0.0
C4365 C 0.9003 0.93468 0.53701 0.0
C4366 C 0.93128 0.98361 0.55462 0.0
C4367 C 0.88288 0.92349 0.53702 0.0
C4368 C 0.00662 0.01992 0.55102 0.0
C4369 C 0.98907 0.01004 0.55298 0.0
C4370 C 0.95023 0.97204 0.5255 0.0
C4371 C 0.90469 0.95492 0.54217 0.0
C4372 C 0.92318 0.96677 0.54117 0.0
C4373 C 0.97676 1.00062 0.53711 0.0
C4374 C 0.95834 0.98898 0.53881 0.0
H4375 H 0.86357 0.95959 0.55201 0.0
H4376 H 0.89396 0.97917 0.55167 0.0
H4377 H 0.92711 0.94853 0.51579 0.0
H4378 H 1.00361 0.01202 0.50348 0.0
H4379 H 0.97318 0.99558 0.50678 0.0
C4380 C 0.88386 0.11871 0.24024 0.0
C4381 C 0.89614 0.11805 0.25499 0.0
C4382 C 0.87573 0.13422 0.24073 0.0
C4383 C 0.87122 0.18157 0.27279 0.0
H4384 H 0.84645 0.18665 0.22742 0.0
C4385 C 0.83308 0.24367 0.27173 0.0
C4386 C 0.83166 0.2509 0.25513 0.0
C4387 C 0.84015 0.22743 0.27235 0.0
C4388 C 0.85342 0.18588 0.24037 0.0
H4389 H 0.90908 0.13432 0.28209 0.0
H4390 H 0.89553 0.16104 0.28295 0.0
H4391 H 0.86016 0.16049 0.22696 0.0
H4392 H 0.83718 0.24601 0.2263 0.0
H4393 H 0.84909 0.21852 0.22726 0.0
H4394 H 0.86468 0.20752 0.28595 0.0
C4395 C 0.89173 0.14947 0.2708 0.0
C4396 C 0.86131 0.17026 0.24019 0.0
C4397 C 0.8998 0.13388 0.27031 0.0
C4398 C 0.83766 0.24104 0.23937 0.0
C4399 C 0.84454 0.22489 0.23993 0.0
C4400 C 0.86333 0.19728 0.27294 0.0
C4401 C 0.87939 0.15028 0.256 0.0
C4402 C 0.87059 0.16747 0.25637 0.0
C4403 C 0.84617 0.21753 0.25641 0.0
C4404 C 0.85425 0.20004 0.25669 0.0
H4405 H 0.88043 0.10709 0.22808 0.0
H4406 H 0.86636 0.13325 0.22891 0.0
H4407 H 0.87778 0.18062 0.28588 0.0
H4408 H 0.82901 0.25077 0.28438 0.0
H4409 H 0.84083 0.22262 0.28546 0.0
C4410 C 0.73694 0.13109 0.03222 0.0
C4411 C 0.74153 0.12511 0.01434 0.0
C4412 C 0.72008 0.12312 0.03697 0.0
C4413 C 0.67952 0.08229 0.02052 0.0
H4414 H 0.65807 0.11438 0.05497 0.0
C4415 C 0.60706 0.05439 0.03259 0.0
C4416 C 0.59695 0.06779 0.03367 0.0
C4417 C 0.62558 0.06065 0.03484 0.0
C4418 C 0.66379 0.10525 0.0452 0.0
H4419 H 0.73258 0.10646 0.98725 0.0
H4420 H 0.70235 0.09351 0.99487 0.0
H4421 H 0.68811 0.12724 0.04795 0.0
H4422 H 0.59775 0.09795 0.03727 0.0
H4423 H 0.6301 0.10906 0.04001 0.0
H4424 H 0.65463 0.06105 0.01624 0.0
C4425 C 0.71194 0.10371 0.0056 0.0
C4426 C 0.6812 0.11252 0.04139 0.0
C4427 C 0.72909 0.11128 1.00107 0.0
C4428 C 0.60546 0.08749 0.0369 0.0
C4429 C 0.62399 0.09378 0.03864 0.0
C4430 C 0.66192 0.07526 0.02385 0.0
C4431 C 0.7073 0.10939 0.02371 0.0
C4432 C 0.68918 0.10125 0.02872 0.0
C4433 C 0.63428 0.08039 0.03722 0.0
C4434 C 0.6537 0.08681 0.03593 0.0
H4435 H 0.74664 0.14149 0.04276 0.0
H4436 H 0.71727 0.1275 0.05115 0.0
H4437 H 0.68537 0.07293 0.01117 0.0
H4438 H 0.6007 0.03905 0.02949 0.0
H4439 H 0.63299 0.04992 0.0341 0.0
C4440 C 0.21185 0.47967 0.26043 0.0
C4441 C 0.22179 0.49179 0.24973 0.0
C4442 C 0.21661 0.46313 0.2632 0.0
C4443 C 0.24732 0.43292 0.24861 0.0
H4444 H 0.25379 0.43282 0.30161 0.0
C4445 C 0.30598 0.41284 0.2811 0.0
C4446 C 0.30184 0.3981 0.29129 0.0
C4447 C 0.29294 0.42153 0.2761 0.0
C4448 C 0.25183 0.4325 0.28676 0.0
H4449 H 0.24367 0.49557 0.23253 0.0
H4450 H 0.25231 0.46733 0.23785 0.0
H4451 H 0.23446 0.45089 0.29039 0.0
H4452 H 0.28148 0.3816 0.30529 0.0
H4453 H 0.25875 0.39749 0.29714 0.0
H4454 H 0.26578 0.41567 0.24528 0.0
C4455 C 0.24066 0.4702 0.24384 0.0
C4456 C 0.24064 0.44266 0.28028 0.0
C4457 C 0.23585 0.48658 0.24098 0.0
C4458 C 0.28495 0.39318 0.29765 0.0
C4459 C 0.27196 0.40207 0.29286 0.0
C4460 C 0.25869 0.42302 0.25514 0.0
C4461 C 0.23141 0.45859 0.25539 0.0
C4462 C 0.23897 0.44371 0.26126 0.0
C4463 C 0.2757 0.41572 0.28142 0.0
C4464 C 0.26158 0.42347 0.27434 0.0
H4465 H 0.20072 0.4832 0.26704 0.0
H4466 H 0.20911 0.45428 0.27196 0.0
H4467 H 0.24591 0.43308 0.23382 0.0
H4468 H 0.31882 0.41656 0.27579 0.0
H4469 H 0.29611 0.43229 0.26749 0.0
C4470 C 0.26101 0.43148 0.02119 0.0
C4471 C 0.27163 0.43522 0.03835 0.0
C4472 C 0.2468 0.43984 0.0194 0.0
C4473 C 0.2288 0.47981 0.04321 0.0
H4474 H 0.1865 0.4528 0.00895 0.0
C4475 C 0.16684 0.50988 0.03809 0.0
C4476 C 0.16077 0.51075 0.01986 0.0
C4477 C 0.17916 0.49934 0.04104 0.0
C4478 C 0.19825 0.46054 0.01856 0.0
H4479 H 0.27533 0.45043 0.0672 0.0
H4480 H 0.25044 0.46446 0.06429 0.0
H4481 H 0.21034 0.4372 0.01276 0.0
H4482 H 0.16217 0.50053 0.99048 0.0
H4483 H 0.18325 0.48173 0.99558 0.0
H4484 H 0.21649 0.50301 0.04917 0.0
C4485 C 0.25328 0.45554 0.05198 0.0
C4486 C 0.21202 0.45165 0.02067 0.0
C4487 C 0.26757 0.44736 0.0537 0.0
C4488 C 0.16665 0.50016 0.00467 0.0
C4489 C 0.17867 0.48933 0.00761 0.0
C4490 C 0.21492 0.48856 0.04128 0.0
C4491 C 0.24269 0.45203 0.03478 0.0
C4492 C 0.22763 0.46122 0.0329 0.0
C4493 C 0.18539 0.48912 0.02582 0.0
C4494 C 0.19955 0.47914 0.02879 0.0
H4495 H 0.26375 0.42222 0.00906 0.0
H4496 H 0.23922 0.43695 0.00583 0.0
H4497 H 0.24064 0.48791 0.05251 0.0
H4498 H 0.1626 0.51798 0.05005 0.0
H4499 H 0.18397 0.49936 0.05524 0.0
C4500 C 0.90999 0.99861 0.27064 0.0
C4501 C 0.90209 0.01211 0.26433 0.0
C4502 C 0.90029 0.97939 0.27019 0.0
C4503 C 0.85361 0.94552 0.26525 0.0
H4504 H 0.87932 0.90633 0.25781 0.0
C4505 C 0.81775 0.86202 0.25724 0.0
C4506 C 0.82693 0.85035 0.26502 0.0
C4507 C 0.82617 0.88154 0.25672 0.0
C4508 C 0.87182 0.91697 0.26016 0.0
H4509 H 0.87697 0.01499 0.25266 0.0
H4510 H 0.85997 0.98147 0.25188 0.0
H4511 H 0.89457 0.93962 0.25746 0.0
H4512 H 0.85281 0.85087 0.27802 0.0
H4513 H 0.86733 0.88426 0.27693 0.0
H4514 H 0.83077 0.92259 0.26774 0.0
C4515 C 0.87392 0.98594 0.25733 0.0
C4516 C 0.88069 0.93638 0.25999 0.0
C4517 C 0.88375 1.00534 0.2577 0.0
C4518 C 0.84503 0.85904 0.27192 0.0
C4519 C 0.8535 0.87843 0.2712 0.0
C4520 C 0.84468 0.92601 0.26535 0.0
C4521 C 0.88203 0.97241 0.2634 0.0
C4522 C 0.87192 0.95125 0.26275 0.0
C4523 C 0.84429 0.89024 0.26366 0.0
C4524 C 0.85362 0.91127 0.26299 0.0
H4525 H 0.92397 1.00281 0.27596 0.0
H4526 H 0.90725 0.97003 0.27547 0.0
H4527 H 0.84617 0.9562 0.26761 0.0
H4528 H 0.80401 0.85607 0.25137 0.0
H4529 H 0.81847 0.88972 0.25051 0.0
C4530 C 0.71621 0.11313 0.75999 0.0
C4531 C 0.72634 0.09982 0.76054 0.0
C4532 C 0.72458 0.1325 0.7611 0.0
C4533 C 0.7645 0.17028 0.77839 0.0
H4534 H 0.74816 0.1949 0.7405 0.0
C4535 C 0.79406 0.25034 0.77602 0.0
C4536 C 0.78165 0.2605 0.77231 0.0
C4537 C 0.78864 0.2304 0.77413 0.0
C4538 C 0.75275 0.18822 0.75122 0.0
H4539 H 0.75312 0.09637 0.76341 0.0
H4540 H 0.76787 0.13071 0.76578 0.0
H4541 H 0.73647 0.1602 0.73811 0.0
H4542 H 0.75383 0.25838 0.76508 0.0
H4543 H 0.74417 0.22334 0.76194 0.0
H4544 H 0.78032 0.19841 0.79187 0.0
C4545 C 0.75344 0.12589 0.76422 0.0
C4546 C 0.74615 0.16844 0.7498 0.0
C4547 C 0.74503 0.10635 0.76283 0.0
C4548 C 0.76362 0.25066 0.7676 0.0
C4549 C 0.75817 0.2307 0.7657 0.0
C4550 C 0.77102 0.19014 0.7799 0.0
C4551 C 0.74322 0.13898 0.76301 0.0
C4552 C 0.75173 0.15942 0.76356 0.0
C4553 C 0.77069 0.22041 0.76876 0.0
C4554 C 0.76491 0.19929 0.7665 0.0
H4555 H 0.70177 0.10854 0.75825 0.0
H4556 H 0.71647 0.14246 0.76042 0.0
H4557 H 0.76886 0.16355 0.78919 0.0
H4558 H 0.80796 0.25772 0.78021 0.0
H4559 H 0.79854 0.22279 0.77655 0.0
loop_
_geom_bond_atom_site_label_1
_geom_bond_atom_site_label_2
_geom_bond_distance
_geom_bond_site_symmetry_2
_ccdc_geom_bond_type
O0 Cd1 2.223 . S
O0 C8 1.315 . S
Cd1 O0 2.223 . S
Cd1 O4 2.297 . S
Cd1 O5 2.439 . S
Cd1 O11 2.240 . S
Cd2 O3 2.240 . S
Cd2 O10 2.223 . S
Cd2 O12 2.297 . S
Cd2 O13 2.439 . S
O3 Cd2 2.240 . S
O3 C8 1.279 . S
O4 Cd1 2.297 . S
O4 C6 1.247 . S
O5 Cd1 2.439 . S
O5 C6 1.208 . S
C6 O4 1.247 . S
C6 O5 1.208 . S
C7 O12 1.247 . S
C7 O13 1.208 . S
C8 O0 1.315 . S
C8 O3 1.279 . S
C9 O10 1.315 . S
C9 O11 1.279 . S
O10 Cd2 2.223 . S
O10 C9 1.315 . S
O11 Cd1 2.240 . S
O11 C9 1.279 . S
O12 Cd2 2.297 . S
O12 C7 1.247 . S
O13 Cd2 2.439 . S
O13 C7 1.208 . S
O14 Cd15 2.240 . S
O14 C22 1.320 . S
Cd15 O14 2.240 . S
Cd15 O18 2.297 . S
Cd15 O19 2.439 . S
Cd15 O25 2.240 1_655 S
Cd16 O17 2.240 1_455 S
Cd16 O24 2.223 . S
Cd16 O26 2.297 . S
Cd16 O27 2.456 . S
O17 Cd16 2.240 1_655 S
O17 C22 1.279 . S
O18 Cd15 2.297 . S
O18 C20 1.247 . S
O19 Cd15 2.439 . S
O19 C20 1.208 . S
C20 O18 1.247 . S
C20 O19 1.208 . S
C21 O26 1.247 . S
C21 O27 1.228 . S
C22 O14 1.320 . S
C22 O17 1.279 . S
C23 O24 1.315 . S
C23 O25 1.279 . S
O24 Cd16 2.223 . S
O24 C23 1.315 . S
O25 Cd15 2.240 1_455 S
O25 C23 1.279 . S
O26 Cd16 2.297 . S
O26 C21 1.247 . S
O27 Cd16 2.456 . S
O27 C21 1.228 . S
O28 Cd29 2.223 . S
O28 C36 1.315 . S
Cd29 O28 2.223 . S
Cd29 O32 2.297 . S
Cd29 O33 2.439 . S
Cd29 O39 2.240 . S
Cd30 O31 2.240 . S
Cd30 O38 2.223 . S
Cd30 O40 2.297 . S
Cd30 O41 2.439 . S
O31 Cd30 2.240 . S
O31 C36 1.279 . S
O32 Cd29 2.297 . S
O32 C34 1.247 . S
O33 Cd29 2.439 . S
O33 C34 1.208 . S
C34 O32 1.247 . S
C34 O33 1.208 . S
C35 O40 1.247 . S
C35 O41 1.208 . S
C36 O28 1.315 . S
C36 O31 1.279 . S
C37 O38 1.315 . S
C37 O39 1.279 . S
O38 Cd30 2.223 . S
O38 C37 1.315 . S
O39 Cd29 2.240 . S
O39 C37 1.279 . S
O40 Cd30 2.297 . S
O40 C35 1.247 . S
O41 Cd30 2.439 . S
O41 C35 1.208 . S
O42 Cd43 2.223 . S
O42 C50 1.315 . S
Cd43 O42 2.223 . S
Cd43 O46 2.297 . S
Cd43 O47 2.439 . S
Cd43 O53 2.240 . S
Cd44 O45 2.240 . S
Cd44 O52 2.223 . S
Cd44 O54 2.297 . S
Cd44 O55 2.439 . S
O45 Cd44 2.240 . S
O45 C50 1.279 . S
O46 Cd43 2.297 . S
O46 C48 1.247 . S
O47 Cd43 2.439 . S
O47 C48 1.208 . S
C48 O46 1.247 . S
C48 O47 1.208 . S
C49 O54 1.247 . S
C49 O55 1.208 . S
C50 O42 1.315 . S
C50 O45 1.279 . S
C51 O52 1.315 . S
C51 O53 1.279 . S
O52 Cd44 2.223 . S
O52 C51 1.315 . S
O53 Cd43 2.240 . S
O53 C51 1.279 . S
O54 Cd44 2.297 . S
O54 C49 1.247 . S
O55 Cd44 2.439 . S
O55 C49 1.208 . S
O56 Cd57 2.223 . S
O56 C64 1.315 . S
Cd57 O56 2.223 . S
Cd57 O60 2.297 . S
Cd57 O61 2.439 . S
Cd57 O67 2.240 . S
Cd58 O59 2.240 . S
Cd58 O66 2.223 . S
Cd58 O68 2.297 . S
Cd58 O69 2.439 . S
O59 Cd58 2.240 . S
O59 C64 1.279 . S
O60 Cd57 2.297 . S
O60 C62 1.247 . S
O61 Cd57 2.439 . S
O61 C62 1.208 . S
C62 O60 1.247 . S
C62 O61 1.208 . S
C63 O68 1.247 . S
C63 O69 1.208 . S
C64 O56 1.315 . S
C64 O59 1.279 . S
C65 O66 1.315 . S
C65 O67 1.279 . S
O66 Cd58 2.223 . S
O66 C65 1.315 . S
O67 Cd57 2.240 . S
O67 C65 1.279 . S
O68 Cd58 2.297 . S
O68 C63 1.247 . S
O69 Cd58 2.439 . S
O69 C63 1.208 . S
O70 Cd71 2.223 . S
O70 C78 1.315 . S
Cd71 O70 2.223 . S
Cd71 O74 2.297 . S
Cd71 O75 2.439 . S
Cd71 O81 2.240 . S
Cd72 O73 2.240 . S
Cd72 O80 2.223 . S
Cd72 O82 2.297 . S
Cd72 O83 2.439 . S
O73 Cd72 2.240 . S
O73 C78 1.279 . S
O74 Cd71 2.297 . S
O74 C76 1.247 . S
O75 Cd71 2.439 . S
O75 C76 1.208 . S
C76 O74 1.247 . S
C76 O75 1.208 . S
C77 O82 1.247 . S
C77 O83 1.208 . S
C78 O70 1.315 . S
C78 O73 1.279 . S
C79 O80 1.315 . S
C79 O81 1.279 . S
O80 Cd72 2.223 . S
O80 C79 1.315 . S
O81 Cd71 2.240 . S
O81 C79 1.279 . S
O82 Cd72 2.297 . S
O82 C77 1.247 . S
O83 Cd72 2.439 . S
O83 C77 1.208 . S
O84 Cd85 2.223 . S
O84 C92 1.315 . S
Cd85 O84 2.223 . S
Cd85 O88 2.297 . S
Cd85 O89 2.439 . S
Cd85 O95 2.240 . S
Cd86 O87 2.240 . S
Cd86 O94 2.223 . S
Cd86 O96 2.297 . S
Cd86 O97 2.439 . S
O87 Cd86 2.240 . S
O87 C92 1.279 . S
O88 Cd85 2.297 . S
O88 C90 1.247 . S
O89 Cd85 2.439 . S
O89 C90 1.208 . S
C90 O88 1.247 . S
C90 O89 1.208 . S
C91 O96 1.247 . S
C91 O97 1.208 . S
C92 O84 1.315 . S
C92 O87 1.279 . S
C93 O94 1.315 . S
C93 O95 1.279 . S
O94 Cd86 2.223 . S
O94 C93 1.315 . S
O95 Cd85 2.240 . S
O95 C93 1.279 . S
O96 Cd86 2.297 . S
O96 C91 1.247 . S
O97 Cd86 2.439 . S
O97 C91 1.208 . S
O98 Cd99 2.223 . S
O98 C106 1.315 . S
Cd99 O98 2.223 . S
Cd99 O102 2.297 . S
Cd99 O103 2.439 . S
Cd99 O109 2.240 . S
Cd100 O101 2.240 . S
Cd100 O108 2.223 1_455 S
Cd100 O110 2.297 . S
Cd100 O111 2.439 . S
O101 Cd100 2.240 . S
O101 C106 1.279 . S
O102 Cd99 2.297 . S
O102 C104 1.247 . S
O103 Cd99 2.439 . S
O103 C104 1.208 . S
C104 O102 1.247 . S
C104 O103 1.208 . S
C105 O110 1.247 . S
C105 O111 1.208 . S
C106 O98 1.315 . S
C106 O101 1.279 . S
C107 O108 1.315 . S
C107 O109 1.279 1_655 S
O108 Cd100 2.223 1_655 S
O108 C107 1.315 . S
O109 Cd99 2.240 . S
O109 C107 1.279 1_455 S
O110 Cd100 2.297 . S
O110 C105 1.247 . S
O111 Cd100 2.439 . S
O111 C105 1.208 . S
O112 Cd113 2.223 . S
O112 C120 1.315 . S
Cd113 O112 2.223 . S
Cd113 O116 2.297 . S
Cd113 O117 2.439 . S
Cd113 O123 2.240 . S
Cd114 O115 2.240 . S
Cd114 O122 2.223 . S
Cd114 O124 2.297 . S
Cd114 O125 2.439 . S
O115 Cd114 2.240 . S
O115 C120 1.279 . S
O116 Cd113 2.297 . S
O116 C118 1.247 . S
O117 Cd113 2.439 . S
O117 C118 1.208 . S
C118 O116 1.247 . S
C118 O117 1.208 . S
C119 O124 1.247 . S
C119 O125 1.208 . S
C120 O112 1.315 . S
C120 O115 1.279 . S
C121 O122 1.315 . S
C121 O123 1.279 . S
O122 Cd114 2.223 . S
O122 C121 1.315 . S
O123 Cd113 2.240 . S
O123 C121 1.279 . S
O124 Cd114 2.297 . S
O124 C119 1.247 . S
O125 Cd114 2.439 . S
O125 C119 1.208 . S
O126 Cd127 2.223 . S
O126 C134 1.315 . S
Cd127 O126 2.223 . S
Cd127 O130 2.297 . S
Cd127 O131 2.439 . S
Cd127 O137 2.240 . S
Cd128 O129 2.240 . S
Cd128 O136 2.223 . S
Cd128 O138 2.297 . S
Cd128 O139 2.439 . S
O129 Cd128 2.240 . S
O129 C134 1.279 . S
O130 Cd127 2.297 . S
O130 C132 1.247 . S
O131 Cd127 2.439 . S
O131 C132 1.208 . S
C132 O130 1.247 . S
C132 O131 1.208 . S
C133 O138 1.247 . S
C133 O139 1.208 . S
C134 O126 1.315 . S
C134 O129 1.279 . S
C135 O136 1.315 . S
C135 O137 1.279 . S
O136 Cd128 2.223 . S
O136 C135 1.315 . S
O137 Cd127 2.240 . S
O137 C135 1.279 . S
O138 Cd128 2.297 . S
O138 C133 1.247 . S
O139 Cd128 2.439 . S
O139 C133 1.208 . S
O140 Cd141 2.223 1_545 S
O140 C148 1.315 1_545 S
Cd141 O140 2.223 1_565 S
Cd141 O144 2.297 . S
Cd141 O145 2.439 . S
Cd141 O151 2.240 1_565 S
Cd142 O143 2.240 1_545 S
Cd142 O150 2.223 . S
Cd142 O152 2.297 . S
Cd142 O153 2.439 1_545 S
O143 Cd142 2.240 1_565 S
O143 C148 1.279 . S
O144 Cd141 2.297 . S
O144 C146 1.247 . S
O145 Cd141 2.439 . S
O145 C146 1.208 . S
C146 O144 1.247 . S
C146 O145 1.208 . S
C147 O152 1.247 . S
C147 O153 1.208 1_545 S
C148 O140 1.315 1_565 S
C148 O143 1.279 . S
C149 O150 1.315 . S
C149 O151 1.279 . S
O150 Cd142 2.223 . S
O150 C149 1.315 . S
O151 Cd141 2.240 1_545 S
O151 C149 1.279 . S
O152 Cd142 2.297 . S
O152 C147 1.247 . S
O153 Cd142 2.439 1_565 S
O153 C147 1.208 1_565 S
O154 Cd155 2.223 . S
O154 C162 1.315 . S
Cd155 O154 2.223 . S
Cd155 O158 2.297 . S
Cd155 O159 2.439 . S
Cd155 O165 2.240 . S
Cd156 O157 2.240 1_556 S
Cd156 O164 2.223 1_556 S
Cd156 O166 2.297 . S
Cd156 O167 2.439 . S
O157 Cd156 2.240 1_554 S
O157 C162 1.279 . S
O158 Cd155 2.297 . S
O158 C160 1.247 . S
O159 Cd155 2.439 . S
O159 C160 1.208 . S
C160 O158 1.247 . S
C160 O159 1.208 . S
C161 O166 1.247 . S
C161 O167 1.208 . S
C162 O154 1.315 . S
C162 O157 1.279 . S
C163 O164 1.315 . S
C163 O165 1.279 . S
O164 Cd156 2.223 1_554 S
O164 C163 1.315 . S
O165 Cd155 2.240 . S
O165 C163 1.279 . S
O166 Cd156 2.297 . S
O166 C161 1.247 . S
O167 Cd156 2.439 . S
O167 C161 1.208 . S
O168 Cd169 2.223 . S
O168 C176 1.315 . S
Cd169 O168 2.223 . S
Cd169 O172 2.297 . S
Cd169 O173 2.439 . S
Cd169 O179 2.240 . S
Cd170 O171 2.240 . S
Cd170 O178 2.223 . S
Cd170 O180 2.297 1_554 S
Cd170 O181 2.439 1_554 S
O171 Cd170 2.240 . S
O171 C176 1.279 . S
O172 Cd169 2.297 . S
O172 C174 1.247 . S
O173 Cd169 2.439 . S
O173 C174 1.208 . S
C174 O172 1.247 . S
C174 O173 1.208 . S
C175 O180 1.247 . S
C175 O181 1.208 . S
C176 O168 1.315 . S
C176 O171 1.279 . S
C177 O178 1.315 . S
C177 O179 1.279 . S
O178 Cd170 2.223 . S
O178 C177 1.315 . S
O179 Cd169 2.240 . S
O179 C177 1.279 . S
O180 Cd170 2.297 1_556 S
O180 C175 1.247 . S
O181 Cd170 2.439 1_556 S
O181 C175 1.208 . S
O182 Cd183 2.223 . S
O182 C190 1.315 . S
Cd183 O182 2.223 . S
Cd183 O186 2.297 . S
Cd183 O187 2.439 . S
Cd183 O193 2.240 . S
Cd184 O185 2.240 . S
Cd184 O192 2.223 . S
Cd184 O194 2.297 1_554 S
Cd184 O195 2.439 1_554 S
O185 Cd184 2.240 . S
O185 C190 1.279 . S
O186 Cd183 2.297 . S
O186 C188 1.247 . S
O187 Cd183 2.439 . S
O187 C188 1.208 . S
C188 O186 1.247 . S
C188 O187 1.208 . S
C189 O194 1.247 . S
C189 O195 1.208 . S
C190 O182 1.315 . S
C190 O185 1.279 . S
C191 O192 1.315 . S
C191 O193 1.279 . S
O192 Cd184 2.223 . S
O192 C191 1.315 . S
O193 Cd183 2.240 . S
O193 C191 1.279 . S
O194 Cd184 2.297 1_556 S
O194 C189 1.247 . S
O195 Cd184 2.439 1_556 S
O195 C189 1.208 . S
O196 Cd197 2.223 . S
O196 C204 1.315 . S
Cd197 O196 2.223 . S
Cd197 O200 2.297 . S
Cd197 O201 2.439 . S
Cd197 O207 2.240 . S
Cd198 O199 2.240 . S
Cd198 O206 2.223 . S
Cd198 O208 2.297 . S
Cd198 O209 2.439 . S
O199 Cd198 2.240 . S
O199 C204 1.279 . S
O200 Cd197 2.297 . S
O200 C202 1.247 . S
O201 Cd197 2.439 . S
O201 C202 1.208 . S
C202 O200 1.247 . S
C202 O201 1.208 . S
C203 O208 1.247 . S
C203 O209 1.208 . S
C204 O196 1.315 . S
C204 O199 1.279 . S
C205 O206 1.315 . S
C205 O207 1.279 . S
O206 Cd198 2.223 . S
O206 C205 1.315 . S
O207 Cd197 2.240 . S
O207 C205 1.279 . S
O208 Cd198 2.297 . S
O208 C203 1.247 . S
O209 Cd198 2.439 . S
O209 C203 1.208 . S
O210 Cd211 2.223 . S
O210 C218 1.315 . S
Cd211 O210 2.223 . S
Cd211 O214 2.297 . S
Cd211 O215 2.439 . S
Cd211 O221 2.240 . S
Cd212 O213 2.240 . S
Cd212 O220 2.223 . S
Cd212 O222 2.297 . S
Cd212 O223 2.439 . S
O213 Cd212 2.240 . S
O213 C218 1.279 . S
O214 Cd211 2.297 . S
O214 C216 1.247 . S
O215 Cd211 2.439 . S
O215 C216 1.208 . S
C216 O214 1.247 . S
C216 O215 1.208 . S
C217 O222 1.247 . S
C217 O223 1.208 . S
C218 O210 1.315 . S
C218 O213 1.279 . S
C219 O220 1.315 . S
C219 O221 1.279 . S
O220 Cd212 2.223 . S
O220 C219 1.315 . S
O221 Cd211 2.240 . S
O221 C219 1.279 . S
O222 Cd212 2.297 . S
O222 C217 1.247 . S
O223 Cd212 2.439 . S
O223 C217 1.208 . S
O224 Cd225 2.223 . S
O224 C232 1.315 . S
Cd225 O224 2.223 . S
Cd225 O228 2.297 . S
Cd225 O229 2.439 . S
Cd225 O235 2.240 . S
Cd226 O227 2.240 . S
Cd226 O234 2.223 . S
Cd226 O236 2.297 . S
Cd226 O237 2.439 . S
O227 Cd226 2.240 . S
O227 C232 1.279 . S
O228 Cd225 2.297 . S
O228 C230 1.247 . S
O229 Cd225 2.439 . S
O229 C230 1.208 . S
C230 O228 1.247 . S
C230 O229 1.208 . S
C231 O236 1.247 . S
C231 O237 1.208 . S
C232 O224 1.315 . S
C232 O227 1.279 . S
C233 O234 1.315 . S
C233 O235 1.279 . S
O234 Cd226 2.223 . S
O234 C233 1.315 . S
O235 Cd225 2.240 . S
O235 C233 1.279 . S
O236 Cd226 2.297 . S
O236 C231 1.247 . S
O237 Cd226 2.439 . S
O237 C231 1.208 . S
O238 Cd239 2.223 . S
O238 C246 1.315 . S
Cd239 O238 2.223 . S
Cd239 O242 2.297 . S
Cd239 O243 2.439 . S
Cd239 O249 2.240 . S
Cd240 O241 2.240 . S
Cd240 O248 2.223 . S
Cd240 O250 2.297 . S
Cd240 O251 2.439 . S
O241 Cd240 2.240 . S
O241 C246 1.279 . S
O242 Cd239 2.297 . S
O242 C244 1.247 . S
O243 Cd239 2.439 . S
O243 C244 1.208 . S
C244 O242 1.247 . S
C244 O243 1.208 . S
C245 O250 1.247 . S
C245 O251 1.208 . S
C246 O238 1.315 . S
C246 O241 1.279 . S
C247 O248 1.315 . S
C247 O249 1.279 . S
O248 Cd240 2.223 . S
O248 C247 1.315 . S
O249 Cd239 2.240 . S
O249 C247 1.279 . S
O250 Cd240 2.297 . S
O250 C245 1.247 . S
O251 Cd240 2.439 . S
O251 C245 1.208 . S
O252 Cd253 2.223 . S
O252 C260 1.315 . S
Cd253 O252 2.223 . S
Cd253 O256 2.297 . S
Cd253 O257 2.439 . S
Cd253 O263 2.240 . S
Cd254 O255 2.240 . S
Cd254 O262 2.223 . S
Cd254 O264 2.297 . S
Cd254 O265 2.439 . S
O255 Cd254 2.240 . S
O255 C260 1.279 . S
O256 Cd253 2.297 . S
O256 C258 1.247 . S
O257 Cd253 2.439 . S
O257 C258 1.208 . S
C258 O256 1.247 . S
C258 O257 1.208 . S
C259 O264 1.247 . S
C259 O265 1.208 . S
C260 O252 1.315 . S
C260 O255 1.279 . S
C261 O262 1.315 . S
C261 O263 1.279 . S
O262 Cd254 2.223 . S
O262 C261 1.315 . S
O263 Cd253 2.240 . S
O263 C261 1.279 . S
O264 Cd254 2.297 . S
O264 C259 1.247 . S
O265 Cd254 2.439 . S
O265 C259 1.208 . S
O266 Cd267 2.223 . S
O266 C274 1.315 . S
Cd267 O266 2.223 . S
Cd267 O270 2.297 . S
Cd267 O271 2.439 . S
Cd267 O277 2.240 . S
Cd268 O269 2.240 . S
Cd268 O276 2.223 . S
Cd268 O278 2.297 . S
Cd268 O279 2.439 . S
O269 Cd268 2.240 . S
O269 C274 1.279 . S
O270 Cd267 2.297 . S
O270 C272 1.247 . S
O271 Cd267 2.439 . S
O271 C272 1.208 . S
C272 O270 1.247 . S
C272 O271 1.208 . S
C273 O278 1.247 . S
C273 O279 1.208 . S
C274 O266 1.315 . S
C274 O269 1.279 . S
C275 O276 1.315 . S
C275 O277 1.279 . S
O276 Cd268 2.223 . S
O276 C275 1.315 . S
O277 Cd267 2.240 . S
O277 C275 1.279 . S
O278 Cd268 2.297 . S
O278 C273 1.247 . S
O279 Cd268 2.439 . S
O279 C273 1.208 . S
O280 Cd281 2.223 . S
O280 C288 1.315 . S
Cd281 O280 2.223 . S
Cd281 O284 2.297 . S
Cd281 O285 2.439 1_554 S
Cd281 O291 2.240 1_554 S
Cd282 O283 2.240 1_556 S
Cd282 O290 2.223 1_556 S
Cd282 O292 2.297 . S
Cd282 O293 2.439 . S
O283 Cd282 2.240 1_554 S
O283 C288 1.279 . S
O284 Cd281 2.297 . S
O284 C286 1.247 . S
O285 Cd281 2.439 1_556 S
O285 C286 1.208 1_556 S
C286 O284 1.247 . S
C286 O285 1.208 1_554 S
C287 O292 1.247 . S
C287 O293 1.208 . S
C288 O280 1.315 . S
C288 O283 1.279 . S
C289 O290 1.315 1_556 S
C289 O291 1.302 . S
O290 Cd282 2.223 1_554 S
O290 C289 1.315 1_554 S
O291 Cd281 2.240 1_556 S
O291 C289 1.302 . S
O292 Cd282 2.297 . S
O292 C287 1.247 . S
O293 Cd282 2.439 . S
O293 C287 1.208 . S
O294 Cd295 2.223 . S
O294 C302 1.315 . S
Cd295 O294 2.223 . S
Cd295 O298 2.297 . S
Cd295 O299 2.439 . S
Cd295 O305 2.240 . S
Cd296 O297 2.240 . S
Cd296 O304 2.223 . S
Cd296 O306 2.297 . S
Cd296 O307 2.439 . S
O297 Cd296 2.240 . S
O297 C302 1.279 . S
O298 Cd295 2.297 . S
O298 C300 1.247 . S
O299 Cd295 2.439 . S
O299 C300 1.208 . S
C300 O298 1.247 . S
C300 O299 1.208 . S
C301 O306 1.247 . S
C301 O307 1.208 . S
C302 O294 1.315 . S
C302 O297 1.279 . S
C303 O304 1.315 . S
C303 O305 1.279 . S
O304 Cd296 2.223 . S
O304 C303 1.315 . S
O305 Cd295 2.240 . S
O305 C303 1.279 . S
O306 Cd296 2.297 . S
O306 C301 1.247 . S
O307 Cd296 2.439 . S
O307 C301 1.208 . S
O308 Cd309 2.223 . S
O308 C316 1.315 . S
Cd309 O308 2.223 . S
Cd309 O312 2.297 . S
Cd309 O313 2.439 . S
Cd309 O319 2.240 . S
Cd310 O311 2.240 . S
Cd310 O318 2.223 . S
Cd310 O320 2.297 . S
Cd310 O321 2.439 . S
O311 Cd310 2.240 . S
O311 C316 1.279 . S
O312 Cd309 2.297 . S
O312 C314 1.247 . S
O313 Cd309 2.439 . S
O313 C314 1.208 . S
C314 O312 1.247 . S
C314 O313 1.208 . S
C315 O320 1.247 . S
C315 O321 1.208 . S
C316 O308 1.315 . S
C316 O311 1.279 . S
C317 O318 1.315 . S
C317 O319 1.279 . S
O318 Cd310 2.223 . S
O318 C317 1.315 . S
O319 Cd309 2.240 . S
O319 C317 1.279 . S
O320 Cd310 2.297 . S
O320 C315 1.247 . S
O321 Cd310 2.439 . S
O321 C315 1.208 . S
O322 Cd323 2.223 . S
O322 C330 1.315 . S
Cd323 O322 2.223 . S
Cd323 O326 2.297 . S
Cd323 O327 2.439 . S
Cd323 O333 2.240 . S
Cd324 O325 2.240 . S
Cd324 O332 2.223 . S
Cd324 O334 2.297 . S
Cd324 O335 2.439 . S
O325 Cd324 2.240 . S
O325 C330 1.279 . S
O326 Cd323 2.297 . S
O326 C328 1.247 . S
O327 Cd323 2.439 . S
O327 C328 1.208 . S
C328 O326 1.247 . S
C328 O327 1.208 . S
C329 O334 1.247 . S
C329 O335 1.208 . S
C330 O322 1.315 . S
C330 O325 1.279 . S
C331 O332 1.315 . S
C331 O333 1.279 . S
O332 Cd324 2.223 . S
O332 C331 1.315 . S
O333 Cd323 2.240 . S
O333 C331 1.279 . S
O334 Cd324 2.297 . S
O334 C329 1.247 . S
O335 Cd324 2.439 . S
O335 C329 1.208 . S
Tb336 N367 2.660 . S
Tb336 N374 2.600 1_554 S
Tb336 O380 2.546 1_554 S
Tb336 O381 2.610 . S
Tb336 O383 2.320 . S
Tb336 O384 2.552 . S
Tb336 O385 2.464 . S
Tb336 O387 2.362 . S
Tb336 O388 2.421 1_554 S
Tb336 C400 2.833 1_455 S
C337 C340 1.432 . S
C337 C341 1.414 . S
C337 N344 1.359 . S
C338 C340 1.417 . S
C338 C342 1.432 . S
C338 C350 1.410 . S
C339 C341 1.444 . S
C339 C342 1.317 . S
C339 H362 0.929 . S
C340 C337 1.432 . S
C340 C338 1.417 . S
C340 N348 1.360 . S
C341 C337 1.414 . S
C341 C339 1.444 . S
C341 C346 1.385 . S
C342 C338 1.432 . S
C342 C339 1.317 . S
C342 H354 0.930 . S
C343 C345 1.392 . S
C343 C346 1.370 . S
C343 H355 0.931 . S
N344 C337 1.359 . S
N344 C345 1.327 . S
N344 Tb347 2.600 . S
C345 C343 1.392 . S
C345 N344 1.327 . S
C345 H352 0.930 . S
C346 C341 1.385 . S
C346 C343 1.370 . S
C346 H365 0.930 . S
Tb347 N344 2.600 . S
Tb347 N348 2.660 . S
Tb347 O381 2.362 . S
Tb347 O382 2.421 . S
Tb347 O386 2.546 . S
Tb347 O387 2.610 . S
Tb347 O389 2.320 . S
Tb347 O390 2.552 . S
Tb347 O391 2.413 . S
Tb347 C411 2.833 . S
N348 C340 1.360 . S
N348 Tb347 2.660 . S
N348 C349 1.305 . S
C349 N348 1.305 . S
C349 C351 1.407 1_554 S
C349 H356 0.930 1_554 S
C350 C338 1.410 . S
C350 C351 1.345 1_554 S
C350 H358 0.960 . S
C351 C349 1.407 1_556 S
C351 C350 1.345 1_556 S
C351 H353 0.930 . S
H352 C345 0.930 . S
H353 C351 0.930 . S
H354 C342 0.930 . S
H355 C343 0.931 . S
H356 C349 0.930 1_556 S
H357 C371 0.930 . S
H358 C350 0.960 . S
H359 C377 0.930 . S
H360 C368 0.930 . S
H361 C375 0.931 . S
H362 C339 0.929 . S
H363 C369 0.923 1_655 S
H364 C402 0.930 . S
H365 C346 0.930 . S
H366 C401 0.929 . S
N367 Tb336 2.660 . S
N367 C368 1.305 . S
N367 C372 1.360 1_545 S
C368 H360 0.930 . S
C368 N367 1.305 . S
C368 C371 1.407 1_545 S
C369 H363 0.923 1_455 S
C369 C370 1.413 1_455 S
C369 C371 1.352 . S
C370 C369 1.413 1_655 S
C370 C372 1.407 1_655 S
C370 C402 1.441 . S
C371 H357 0.930 . S
C371 C368 1.407 1_565 S
C371 C369 1.352 . S
C372 N367 1.360 1_565 S
C372 C370 1.407 1_455 S
C372 C376 1.432 1_554 S
H373 C378 0.930 . S
N374 Tb336 2.600 1_556 S
N374 C376 1.359 1_545 S
N374 C377 1.327 . S
C375 H361 0.931 . S
C375 C377 1.392 1_565 S
C375 C378 1.370 1_455 S
C376 C372 1.432 1_556 S
C376 N374 1.359 1_565 S
C376 C379 1.414 1_455 S
C377 H359 0.930 . S
C377 N374 1.327 . S
C377 C375 1.392 1_545 S
C378 H373 0.930 . S
C378 C375 1.370 1_655 S
C378 C379 1.385 . S
C379 C376 1.414 1_655 S
C379 C378 1.385 . S
C379 C401 1.444 . S
O380 Tb336 2.546 1_556 S
O380 C400 1.251 1_456 S
O381 Tb336 2.610 . S
O381 Tb347 2.362 . S
O381 C392 1.283 . S
O382 Tb347 2.421 . S
O382 C399 1.262 . S
O383 Tb336 2.320 . S
O383 C399 1.260 . S
O384 Tb336 2.552 . S
O384 C392 1.243 . S
O385 Tb336 2.464 . S
O385 C400 1.243 1_455 S
O386 Tb347 2.546 . S
O386 C411 1.251 . S
O387 Tb336 2.362 . S
O387 Tb347 2.610 . S
O387 C403 1.283 . S
O388 Tb336 2.421 1_556 S
O388 C410 1.262 . S
O389 Tb347 2.320 . S
O389 C410 1.260 1_554 S
O390 Tb347 2.552 . S
O390 C403 1.243 . S
O391 Tb347 2.413 . S
O391 C411 1.256 . S
C392 O381 1.283 . S
C392 O384 1.243 . S
C393 C395 1.382 1_556 S
C393 C397 1.393 . S
C393 C400 1.500 1_556 S
C394 C395 1.400 . S
C394 C396 1.384 1_554 S
C395 C393 1.382 1_554 S
C395 C394 1.400 . S
C395 H412 0.930 . S
C396 C394 1.384 1_556 S
C396 C398 1.392 . S
C396 H413 0.931 . S
C397 C393 1.393 . S
C397 C398 1.401 . S
C397 H414 0.930 . S
C398 C396 1.392 . S
C398 C397 1.401 . S
C398 H415 0.930 . S
C399 O382 1.262 . S
C399 O383 1.260 . S
C400 Tb336 2.833 1_655 S
C400 O380 1.251 1_654 S
C400 O385 1.243 1_655 S
C400 C393 1.500 1_554 S
C401 H366 0.929 . S
C401 C379 1.444 . S
C401 C402 1.317 1_556 S
C402 H364 0.930 . S
C402 C370 1.441 . S
C402 C401 1.317 1_554 S
C403 O387 1.283 . S
C403 O390 1.243 . S
C404 C405 1.382 . S
C404 C408 1.393 . S
C404 C411 1.500 . S
C405 C404 1.382 . S
C405 C406 1.400 . S
C405 H416 0.930 . S
C406 C405 1.400 . S
C406 C407 1.384 . S
C407 C406 1.384 . S
C407 C409 1.392 . S
C407 H417 0.931 . S
C408 C404 1.393 . S
C408 C409 1.401 . S
C408 H418 0.930 . S
C409 C407 1.392 . S
C409 C408 1.401 . S
C409 H419 0.930 . S
C410 O388 1.262 . S
C410 O389 1.260 1_556 S
C411 Tb347 2.833 . S
C411 O386 1.251 . S
C411 O391 1.256 . S
C411 C404 1.500 . S
H412 C395 0.930 . S
H413 C396 0.931 . S
H414 C397 0.930 . S
H415 C398 0.930 . S
H416 C405 0.930 . S
H417 C407 0.931 . S
H418 C408 0.930 . S
H419 C409 0.930 . S
Tb420 N451 2.660 . S
Tb420 N458 2.600 . S
Tb420 O464 2.546 . S
Tb420 O465 2.610 . S
Tb420 O467 2.320 . S
Tb420 O468 2.552 . S
Tb420 O469 2.413 . S
Tb420 O471 2.362 . S
Tb420 O472 2.421 . S
Tb420 C484 2.833 . S
C421 C424 1.432 . S
C421 C425 1.414 . S
C421 N428 1.359 . S
C422 C424 1.417 . S
C422 C426 1.432 . S
C422 C434 1.410 . S
C423 C425 1.444 . S
C423 C426 1.317 . S
C423 H446 0.929 . S
C424 C421 1.432 . S
C424 C422 1.417 . S
C424 N432 1.360 . S
C425 C421 1.414 . S
C425 C423 1.444 . S
C425 C430 1.385 . S
C426 C422 1.432 . S
C426 C423 1.317 . S
C426 H438 0.930 . S
C427 C429 1.392 . S
C427 C430 1.370 . S
C427 H439 0.931 . S
N428 C421 1.359 . S
N428 C429 1.327 . S
N428 Tb431 2.600 . S
C429 C427 1.392 . S
C429 N428 1.327 . S
C429 H436 0.930 . S
C430 C425 1.385 . S
C430 C427 1.370 . S
C430 H449 0.930 . S
Tb431 N428 2.600 . S
Tb431 N432 2.660 . S
Tb431 O465 2.362 . S
Tb431 O466 2.421 . S
Tb431 O470 2.546 . S
Tb431 O471 2.610 . S
Tb431 O473 2.320 . S
Tb431 O474 2.552 . S
Tb431 O475 2.413 . S
Tb431 C495 2.833 . S
N432 C424 1.360 . S
N432 Tb431 2.660 . S
N432 C433 1.305 . S
C433 N432 1.305 . S
C433 C435 1.407 . S
C433 H440 0.930 . S
C434 C422 1.410 . S
C434 C435 1.345 . S
C434 H442 0.930 . S
C435 C433 1.407 . S
C435 C434 1.345 . S
C435 H437 0.930 . S
H436 C429 0.930 . S
H437 C435 0.930 . S
H438 C426 0.930 . S
H439 C427 0.931 . S
H440 C433 0.930 . S
H441 C455 0.930 . S
H442 C434 0.930 . S
H443 C461 0.930 . S
H444 C452 0.930 . S
H445 C459 0.931 . S
H446 C423 0.929 . S
H447 C453 0.930 . S
H448 C486 0.930 . S
H449 C430 0.930 . S
H450 C485 0.929 . S
N451 Tb420 2.660 . S
N451 C452 1.305 . S
N451 C456 1.360 . S
C452 H444 0.930 . S
C452 N451 1.305 . S
C452 C455 1.407 . S
C453 H447 0.930 . S
C453 C454 1.410 . S
C453 C455 1.345 . S
C454 C453 1.410 . S
C454 C456 1.417 . S
C454 C486 1.432 . S
C455 H441 0.930 . S
C455 C452 1.407 . S
C455 C453 1.345 . S
C456 N451 1.360 . S
C456 C454 1.417 . S
C456 C460 1.432 . S
H457 C462 0.930 . S
N458 Tb420 2.600 . S
N458 C460 1.359 . S
N458 C461 1.327 . S
C459 H445 0.931 . S
C459 C461 1.392 . S
C459 C462 1.370 . S
C460 C456 1.432 . S
C460 N458 1.359 . S
C460 C463 1.414 . S
C461 H443 0.930 . S
C461 N458 1.327 . S
C461 C459 1.392 . S
C462 H457 0.930 . S
C462 C459 1.370 . S
C462 C463 1.385 . S
C463 C460 1.414 . S
C463 C462 1.385 . S
C463 C485 1.444 . S
O464 Tb420 2.546 . S
O464 C484 1.251 . S
O465 Tb420 2.610 . S
O465 Tb431 2.362 . S
O465 C476 1.283 . S
O466 Tb431 2.421 . S
O466 C483 1.262 . S
O467 Tb420 2.320 . S
O467 C483 1.260 . S
O468 Tb420 2.552 . S
O468 C476 1.243 . S
O469 Tb420 2.413 . S
O469 C484 1.256 . S
O470 Tb431 2.546 . S
O470 C495 1.251 . S
O471 Tb420 2.362 . S
O471 Tb431 2.610 . S
O471 C487 1.283 . S
O472 Tb420 2.421 . S
O472 C494 1.262 . S
O473 Tb431 2.320 . S
O473 C494 1.260 . S
O474 Tb431 2.552 . S
O474 C487 1.243 . S
O475 Tb431 2.413 . S
O475 C495 1.256 . S
C476 O465 1.283 . S
C476 O468 1.243 . S
C477 C479 1.382 . S
C477 C481 1.393 . S
C477 C484 1.500 . S
C478 C479 1.400 . S
C478 C480 1.384 . S
C479 C477 1.382 . S
C479 C478 1.400 . S
C479 H496 0.930 . S
C480 C478 1.384 . S
C480 C482 1.392 . S
C480 H497 0.931 . S
C481 C477 1.393 . S
C481 C482 1.401 . S
C481 H498 0.930 . S
C482 C480 1.392 . S
C482 C481 1.401 . S
C482 H499 0.930 . S
C483 O466 1.262 . S
C483 O467 1.260 . S
C484 Tb420 2.833 . S
C484 O464 1.251 . S
C484 O469 1.256 . S
C484 C477 1.500 . S
C485 H450 0.929 . S
C485 C463 1.444 . S
C485 C486 1.317 . S
C486 H448 0.930 . S
C486 C454 1.432 . S
C486 C485 1.317 . S
C487 O471 1.283 . S
C487 O474 1.243 . S
C488 C489 1.382 . S
C488 C492 1.393 . S
C488 C495 1.500 . S
C489 C488 1.382 . S
C489 C490 1.400 . S
C489 H500 0.930 . S
C490 C489 1.400 . S
C490 C491 1.384 . S
C491 C490 1.384 . S
C491 C493 1.392 . S
C491 H501 0.931 . S
C492 C488 1.393 . S
C492 C493 1.401 . S
C492 H502 0.930 . S
C493 C491 1.392 . S
C493 C492 1.401 . S
C493 H503 0.930 . S
C494 O472 1.262 . S
C494 O473 1.260 . S
C495 Tb431 2.833 . S
C495 O470 1.251 . S
C495 O475 1.256 . S
C495 C488 1.500 . S
H496 C479 0.930 . S
H497 C480 0.931 . S
H498 C481 0.930 . S
H499 C482 0.930 . S
H500 C489 0.930 . S
H501 C491 0.931 . S
H502 C492 0.930 . S
H503 C493 0.930 . S
Tb504 N535 2.660 . S
Tb504 N542 2.600 . S
Tb504 O548 2.546 . S
Tb504 O549 2.610 . S
Tb504 O551 2.320 . S
Tb504 O552 2.552 . S
Tb504 O553 2.413 . S
Tb504 O555 2.362 . S
Tb504 O556 2.421 . S
Tb504 C568 2.833 . S
C505 C508 1.432 . S
C505 C509 1.414 . S
C505 N512 1.359 1_565 S
C506 C508 1.417 . S
C506 C510 1.432 . S
C506 C518 1.410 . S
C507 C509 1.444 . S
C507 C510 1.317 . S
C507 H530 0.929 . S
C508 C505 1.432 . S
C508 C506 1.417 . S
C508 N516 1.360 1_565 S
C509 C505 1.414 . S
C509 C507 1.444 . S
C509 C514 1.385 . S
C510 C506 1.432 . S
C510 C507 1.317 . S
C510 H522 0.930 . S
C511 C513 1.392 . S
C511 C514 1.370 1_545 S
C511 H523 0.931 . S
N512 C505 1.359 1_545 S
N512 C513 1.327 . S
N512 Tb515 2.600 . S
C513 C511 1.392 . S
C513 N512 1.327 . S
C513 H520 0.930 . S
C514 C509 1.385 . S
C514 C511 1.370 1_565 S
C514 H533 0.930 . S
Tb515 N512 2.600 . S
Tb515 N516 2.660 . S
Tb515 O549 2.362 . S
Tb515 O550 2.421 . S
Tb515 O554 2.546 . S
Tb515 O555 2.610 . S
Tb515 O557 2.320 . S
Tb515 O558 2.552 . S
Tb515 O559 2.413 . S
Tb515 C579 2.833 . S
N516 C508 1.360 1_545 S
N516 Tb515 2.660 . S
N516 C517 1.305 1_545 S
C517 N516 1.305 1_565 S
C517 C519 1.407 . S
C517 H524 0.930 1_565 S
C518 C506 1.410 . S
C518 C519 1.345 . S
C518 H526 0.930 . S
C519 C517 1.407 . S
C519 C518 1.345 . S
C519 H521 0.930 . S
H520 C513 0.930 . S
H521 C519 0.930 . S
H522 C510 0.930 . S
H523 C511 0.931 . S
H524 C517 0.930 1_545 S
H525 C539 0.930 . S
H526 C518 0.930 . S
H527 C545 0.930 . S
H528 C536 0.930 . S
H529 C543 0.931 . S
H530 C507 0.929 . S
H531 C537 0.930 . S
H532 C570 0.930 . S
H533 C514 0.930 . S
H534 C569 0.929 . S
N535 Tb504 2.660 . S
N535 C536 1.305 . S
N535 C540 1.360 . S
C536 H528 0.930 . S
C536 N535 1.305 . S
C536 C539 1.407 . S
C537 H531 0.930 . S
C537 C538 1.410 . S
C537 C539 1.345 . S
C538 C537 1.410 . S
C538 C540 1.417 . S
C538 C570 1.432 . S
C539 H525 0.930 . S
C539 C536 1.407 . S
C539 C537 1.345 . S
C540 N535 1.360 . S
C540 C538 1.417 . S
C540 C544 1.432 . S
H541 C546 0.930 . S
N542 Tb504 2.600 . S
N542 C544 1.359 . S
N542 C545 1.327 . S
C543 H529 0.931 . S
C543 C545 1.392 . S
C543 C546 1.370 . S
C544 C540 1.432 . S
C544 N542 1.359 . S
C544 C547 1.414 . S
C545 H527 0.930 . S
C545 N542 1.327 . S
C545 C543 1.392 . S
C546 H541 0.930 . S
C546 C543 1.370 . S
C546 C547 1.385 . S
C547 C544 1.414 . S
C547 C546 1.385 . S
C547 C569 1.444 . S
O548 Tb504 2.546 . S
O548 C568 1.251 . S
O549 Tb504 2.610 . S
O549 Tb515 2.362 . S
O549 C560 1.283 . S
O550 Tb515 2.421 . S
O550 C567 1.262 . S
O551 Tb504 2.320 . S
O551 C567 1.260 . S
O552 Tb504 2.552 . S
O552 C560 1.243 . S
O553 Tb504 2.413 . S
O553 C568 1.256 . S
O554 Tb515 2.546 . S
O554 C579 1.251 . S
O555 Tb504 2.362 . S
O555 Tb515 2.610 . S
O555 C571 1.283 . S
O556 Tb504 2.421 . S
O556 C578 1.262 . S
O557 Tb515 2.320 . S
O557 C578 1.260 . S
O558 Tb515 2.552 . S
O558 C571 1.243 . S
O559 Tb515 2.413 . S
O559 C579 1.256 . S
C560 O549 1.283 . S
C560 O552 1.243 . S
C561 C563 1.382 . S
C561 C565 1.393 . S
C561 C568 1.500 . S
C562 C563 1.438 . S
C562 C564 1.391 . S
C563 C561 1.382 . S
C563 C562 1.438 . S
C563 H580 0.930 . S
C564 C562 1.391 . S
C564 C566 1.392 . S
C564 H581 0.931 1_545 S
C565 C561 1.393 . S
C565 C566 1.401 . S
C565 H582 0.930 . S
C566 C564 1.392 . S
C566 C565 1.401 . S
C566 H583 0.930 . S
C567 O550 1.262 . S
C567 O551 1.260 . S
C568 Tb504 2.833 . S
C568 O548 1.251 . S
C568 O553 1.256 . S
C568 C561 1.500 . S
C569 H534 0.929 . S
C569 C547 1.444 . S
C569 C570 1.317 . S
C570 H532 0.930 . S
C570 C538 1.432 . S
C570 C569 1.317 . S
C571 O555 1.283 . S
C571 O558 1.243 . S
C572 C573 1.382 . S
C572 C576 1.393 . S
C572 C579 1.500 . S
C573 C572 1.382 . S
C573 C574 1.400 . S
C573 H584 0.930 . S
C574 C573 1.400 . S
C574 C575 1.384 . S
C575 C574 1.384 . S
C575 C577 1.392 . S
C575 H585 0.931 . S
C576 C572 1.393 . S
C576 C577 1.401 . S
C576 H586 0.930 . S
C577 C575 1.392 . S
C577 C576 1.401 . S
C577 H587 0.930 . S
C578 O556 1.262 . S
C578 O557 1.260 . S
C579 Tb515 2.833 . S
C579 O554 1.251 . S
C579 O559 1.256 . S
C579 C572 1.500 . S
H580 C563 0.930 . S
H581 C564 0.931 1_565 S
H582 C565 0.930 . S
H583 C566 0.930 . S
H584 C573 0.930 . S
H585 C575 0.931 . S
H586 C576 0.930 . S
H587 C577 0.930 . S
Tb588 N619 2.660 . S
Tb588 N626 2.600 . S
Tb588 O632 2.546 . S
Tb588 O633 2.610 . S
Tb588 O635 2.320 . S
Tb588 O636 2.552 . S
Tb588 O637 2.413 . S
Tb588 O639 2.362 . S
Tb588 O640 2.421 . S
Tb588 C652 2.833 . S
C589 C592 1.432 . S
C589 C593 1.414 . S
C589 N596 1.359 . S
C590 C592 1.417 . S
C590 C594 1.432 . S
C590 C602 1.410 . S
C591 C593 1.444 . S
C591 C594 1.317 . S
C591 H614 0.929 . S
C592 C589 1.432 . S
C592 C590 1.417 . S
C592 N600 1.360 . S
C593 C589 1.414 . S
C593 C591 1.444 . S
C593 C598 1.385 . S
C594 C590 1.432 . S
C594 C591 1.317 . S
C594 H606 0.930 . S
C595 C597 1.392 . S
C595 C598 1.370 . S
C595 H607 0.931 . S
N596 C589 1.359 . S
N596 C597 1.327 . S
N596 Tb599 2.600 . S
C597 C595 1.392 . S
C597 N596 1.327 . S
C597 H604 0.930 . S
C598 C593 1.385 . S
C598 C595 1.370 . S
C598 H617 0.930 . S
Tb599 N596 2.600 . S
Tb599 N600 2.660 . S
Tb599 O633 2.362 . S
Tb599 O634 2.421 . S
Tb599 O638 2.546 . S
Tb599 O639 2.610 . S
Tb599 O641 2.320 . S
Tb599 O642 2.552 . S
Tb599 O643 2.413 . S
Tb599 C663 2.833 . S
N600 C592 1.360 . S
N600 Tb599 2.660 . S
N600 C601 1.305 . S
C601 N600 1.305 . S
C601 C603 1.407 . S
C601 H608 0.930 . S
C602 C590 1.410 . S
C602 C603 1.345 . S
C602 H610 0.930 . S
C603 C601 1.407 . S
C603 C602 1.345 . S
C603 H605 0.930 . S
H604 C597 0.930 . S
H605 C603 0.930 . S
H606 C594 0.930 . S
H607 C595 0.931 . S
H608 C601 0.930 . S
H609 C623 0.930 . S
H610 C602 0.930 . S
H611 C629 0.930 . S
H612 C620 0.930 . S
H613 C627 0.931 . S
H614 C591 0.929 . S
H615 C621 0.930 . S
H616 C654 0.930 . S
H617 C598 0.930 . S
H618 C653 0.929 . S
N619 Tb588 2.660 . S
N619 C620 1.305 . S
N619 C624 1.360 . S
C620 H612 0.930 . S
C620 N619 1.305 . S
C620 C623 1.407 . S
C621 H615 0.930 . S
C621 C622 1.410 . S
C621 C623 1.345 . S
C622 C621 1.410 . S
C622 C624 1.417 . S
C622 C654 1.432 . S
C623 H609 0.930 . S
C623 C620 1.407 . S
C623 C621 1.345 . S
C624 N619 1.360 . S
C624 C622 1.417 . S
C624 C628 1.432 . S
H625 C630 0.930 . S
N626 Tb588 2.600 . S
N626 C628 1.359 . S
N626 C629 1.327 . S
C627 H613 0.931 . S
C627 C629 1.392 . S
C627 C630 1.370 . S
C628 C624 1.432 . S
C628 N626 1.359 . S
C628 C631 1.414 . S
C629 H611 0.930 . S
C629 N626 1.327 . S
C629 C627 1.392 . S
C630 H625 0.930 . S
C630 C627 1.370 . S
C630 C631 1.385 . S
C631 C628 1.414 . S
C631 C630 1.385 . S
C631 C653 1.444 . S
O632 Tb588 2.546 . S
O632 C652 1.251 . S
O633 Tb588 2.610 . S
O633 Tb599 2.362 . S
O633 C644 1.283 . S
O634 Tb599 2.421 . S
O634 C651 1.262 . S
O635 Tb588 2.320 . S
O635 C651 1.260 . S
O636 Tb588 2.552 . S
O636 C644 1.243 . S
O637 Tb588 2.413 . S
O637 C652 1.256 . S
O638 Tb599 2.546 . S
O638 C663 1.251 . S
O639 Tb588 2.362 . S
O639 Tb599 2.610 . S
O639 C655 1.283 . S
O640 Tb588 2.421 . S
O640 C662 1.262 . S
O641 Tb599 2.320 . S
O641 C662 1.260 . S
O642 Tb599 2.552 . S
O642 C655 1.243 . S
O643 Tb599 2.413 . S
O643 C663 1.256 . S
C644 O633 1.283 . S
C644 O636 1.243 . S
C645 C647 1.382 . S
C645 C649 1.393 . S
C645 C652 1.500 . S
C646 C647 1.400 . S
C646 C648 1.384 . S
C647 C645 1.382 . S
C647 C646 1.400 . S
C647 H664 0.930 . S
C648 C646 1.384 . S
C648 C650 1.392 . S
C648 H665 0.931 . S
C649 C645 1.393 . S
C649 C650 1.401 . S
C649 H666 0.930 . S
C650 C648 1.392 . S
C650 C649 1.401 . S
C650 H667 0.930 . S
C651 O634 1.262 . S
C651 O635 1.260 . S
C652 Tb588 2.833 . S
C652 O632 1.251 . S
C652 O637 1.256 . S
C652 C645 1.500 . S
C653 H618 0.929 . S
C653 C631 1.444 . S
C653 C654 1.317 . S
C654 H616 0.930 . S
C654 C622 1.432 . S
C654 C653 1.317 . S
C655 O639 1.283 . S
C655 O642 1.243 . S
C656 C657 1.382 . S
C656 C660 1.393 . S
C656 C663 1.500 . S
C657 C656 1.382 . S
C657 C658 1.400 . S
C657 H668 0.930 . S
C658 C657 1.400 . S
C658 C659 1.384 . S
C659 C658 1.384 . S
C659 C661 1.392 . S
C659 H669 0.931 . S
C660 C656 1.393 . S
C660 C661 1.401 . S
C660 H670 0.930 . S
C661 C659 1.392 . S
C661 C660 1.401 . S
C661 H671 0.930 . S
C662 O640 1.262 . S
C662 O641 1.260 . S
C663 Tb599 2.833 . S
C663 O638 1.251 . S
C663 O643 1.256 . S
C663 C656 1.500 . S
H664 C647 0.930 . S
H665 C648 0.931 . S
H666 C649 0.930 . S
H667 C650 0.930 . S
H668 C657 0.930 . S
H669 C659 0.931 . S
H670 C660 0.930 . S
H671 C661 0.930 . S
Tb672 N703 2.660 . S
Tb672 N710 2.600 . S
Tb672 O716 2.546 . S
Tb672 O717 2.610 . S
Tb672 O719 2.320 . S
Tb672 O720 2.552 . S
Tb672 O721 2.413 . S
Tb672 O723 2.362 . S
Tb672 O724 2.421 . S
Tb672 C736 2.833 . S
C673 C676 1.432 . S
C673 C677 1.414 . S
C673 N680 1.359 1_565 S
C674 C676 1.417 . S
C674 C678 1.432 . S
C674 C686 1.410 . S
C675 C677 1.444 . S
C675 C678 1.317 . S
C675 H698 0.929 . S
C676 C673 1.432 . S
C676 C674 1.417 . S
C676 N684 1.360 . S
C677 C673 1.414 . S
C677 C675 1.444 . S
C677 C682 1.385 . S
C678 C674 1.432 . S
C678 C675 1.317 . S
C678 H690 0.930 . S
C679 C681 1.392 1_565 S
C679 C682 1.370 . S
C679 H691 0.931 . S
N680 C673 1.359 1_545 S
N680 C681 1.327 . S
N680 Tb683 2.600 . S
C681 C679 1.392 1_545 S
C681 N680 1.327 . S
C681 H688 0.930 . S
C682 C677 1.385 . S
C682 C679 1.370 . S
C682 H701 0.930 . S
Tb683 N680 2.600 . S
Tb683 N684 2.660 1_545 S
Tb683 O717 2.362 . S
Tb683 O718 2.421 . S
Tb683 O722 2.546 1_545 S
Tb683 O723 2.610 . S
Tb683 O725 2.320 . S
Tb683 O726 2.552 . S
Tb683 O727 2.413 1_545 S
Tb683 C747 2.833 1_545 S
N684 C676 1.360 . S
N684 Tb683 2.660 1_565 S
N684 C685 1.305 . S
C685 N684 1.305 . S
C685 C687 1.407 . S
C685 H692 0.930 1_565 S
C686 C674 1.410 . S
C686 C687 1.345 . S
C686 H694 0.930 . S
C687 C685 1.407 . S
C687 C686 1.345 . S
C687 H689 0.881 1_455 S
H688 C681 0.930 . S
H689 C687 0.881 1_655 S
H690 C678 0.930 . S
H691 C679 0.931 . S
H692 C685 0.930 1_545 S
H693 C707 0.930 . S
H694 C686 0.930 . S
H695 C713 0.930 . S
H696 C704 0.930 . S
H697 C711 0.931 . S
H698 C675 0.929 . S
H699 C705 0.930 . S
H700 C738 0.930 . S
H701 C682 0.930 . S
H702 C737 0.929 . S
N703 Tb672 2.660 . S
N703 C704 1.305 . S
N703 C708 1.360 . S
C704 H696 0.930 . S
C704 N703 1.305 . S
C704 C707 1.407 . S
C705 H699 0.930 . S
C705 C706 1.410 . S
C705 C707 1.345 . S
C706 C705 1.410 . S
C706 C708 1.417 . S
C706 C738 1.432 . S
C707 H693 0.930 . S
C707 C704 1.407 . S
C707 C705 1.345 . S
C708 N703 1.360 . S
C708 C706 1.417 . S
C708 C712 1.432 . S
H709 C714 0.930 . S
N710 Tb672 2.600 . S
N710 C712 1.359 . S
N710 C713 1.327 . S
C711 H697 0.931 . S
C711 C713 1.392 . S
C711 C714 1.370 . S
C712 C708 1.432 . S
C712 N710 1.359 . S
C712 C715 1.414 . S
C713 H695 0.930 . S
C713 N710 1.327 . S
C713 C711 1.392 . S
C714 H709 0.930 . S
C714 C711 1.370 . S
C714 C715 1.385 . S
C715 C712 1.414 . S
C715 C714 1.385 . S
C715 C737 1.444 . S
O716 Tb672 2.546 . S
O716 C736 1.251 . S
O717 Tb672 2.610 . S
O717 Tb683 2.362 . S
O717 C728 1.283 . S
O718 Tb683 2.421 . S
O718 C735 1.262 . S
O719 Tb672 2.320 . S
O719 C735 1.260 . S
O720 Tb672 2.552 . S
O720 C728 1.243 . S
O721 Tb672 2.413 . S
O721 C736 1.256 . S
O722 Tb683 2.546 1_565 S
O722 C747 1.251 . S
O723 Tb672 2.362 . S
O723 Tb683 2.610 . S
O723 C739 1.283 . S
O724 Tb672 2.421 . S
O724 C746 1.262 . S
O725 Tb683 2.320 . S
O725 C746 1.260 . S
O726 Tb683 2.552 . S
O726 C739 1.243 . S
O727 Tb683 2.413 1_565 S
O727 C747 1.256 . S
C728 O717 1.283 . S
C728 O720 1.243 . S
C729 C731 1.382 . S
C729 C733 1.393 . S
C729 C736 1.500 . S
C730 C731 1.400 . S
C730 C732 1.384 . S
C731 C729 1.382 . S
C731 C730 1.400 . S
C731 H748 0.930 . S
C732 C730 1.384 . S
C732 C734 1.392 . S
C732 H749 0.931 . S
C733 C729 1.393 . S
C733 C734 1.401 . S
C733 H750 0.930 . S
C734 C732 1.392 . S
C734 C733 1.401 . S
C734 H751 0.930 . S
C735 O718 1.262 . S
C735 O719 1.260 . S
C736 Tb672 2.833 . S
C736 O716 1.251 . S
C736 O721 1.256 . S
C736 C729 1.500 . S
C737 H702 0.929 . S
C737 C715 1.444 . S
C737 C738 1.317 . S
C738 H700 0.930 . S
C738 C706 1.432 . S
C738 C737 1.317 . S
C739 O723 1.283 . S
C739 O726 1.243 . S
C740 C741 1.382 . S
C740 C744 1.393 . S
C740 C747 1.500 . S
C741 C740 1.382 . S
C741 C742 1.400 . S
C741 H752 0.930 . S
C742 C741 1.400 . S
C742 C743 1.384 . S
C743 C742 1.384 . S
C743 C745 1.392 . S
C743 H753 0.931 . S
C744 C740 1.393 . S
C744 C745 1.401 . S
C744 H754 0.930 . S
C745 C743 1.392 . S
C745 C744 1.401 . S
C745 H755 0.930 . S
C746 O724 1.262 . S
C746 O725 1.260 . S
C747 Tb683 2.833 1_565 S
C747 O722 1.251 . S
C747 O727 1.256 . S
C747 C740 1.500 . S
H748 C731 0.930 . S
H749 C732 0.931 . S
H750 C733 0.930 . S
H751 C734 0.930 . S
H752 C741 0.930 . S
H753 C743 0.931 . S
H754 C744 0.930 . S
H755 C745 0.930 . S
Tb756 N787 2.660 . S
Tb756 N794 2.600 . S
Tb756 O800 2.546 . S
Tb756 O801 2.610 . S
Tb756 O803 2.320 . S
Tb756 O804 2.552 . S
Tb756 O805 2.413 . S
Tb756 O807 2.362 . S
Tb756 O808 2.421 . S
Tb756 C820 2.833 . S
C757 C760 1.432 . S
C757 C761 1.414 . S
C757 N764 1.359 . S
C758 C760 1.417 . S
C758 C762 1.432 . S
C758 C770 1.410 . S
C759 C761 1.444 . S
C759 C762 1.317 . S
C759 H782 0.929 . S
C760 C757 1.432 . S
C760 C758 1.417 . S
C760 N768 1.360 . S
C761 C757 1.414 . S
C761 C759 1.444 . S
C761 C766 1.385 . S
C762 C758 1.432 . S
C762 C759 1.317 . S
C762 H774 0.930 . S
C763 C765 1.392 . S
C763 C766 1.370 . S
C763 H775 0.931 . S
N764 C757 1.359 . S
N764 C765 1.327 . S
N764 Tb767 2.600 . S
C765 C763 1.392 . S
C765 N764 1.327 . S
C765 H772 0.930 . S
C766 C761 1.385 . S
C766 C763 1.370 . S
C766 H785 0.930 . S
Tb767 N764 2.600 . S
Tb767 N768 2.660 . S
Tb767 O801 2.362 . S
Tb767 O802 2.421 . S
Tb767 O806 2.546 . S
Tb767 O807 2.610 . S
Tb767 O809 2.320 . S
Tb767 O810 2.552 . S
Tb767 O811 2.413 . S
Tb767 C831 2.833 . S
N768 C760 1.360 . S
N768 Tb767 2.660 . S
N768 C769 1.305 . S
C769 N768 1.305 . S
C769 C771 1.407 . S
C769 H776 0.930 . S
C770 C758 1.410 . S
C770 C771 1.345 . S
C770 H778 0.930 . S
C771 C769 1.407 . S
C771 C770 1.345 . S
C771 H773 0.930 . S
H772 C765 0.930 . S
H773 C771 0.930 . S
H774 C762 0.930 . S
H775 C763 0.931 . S
H776 C769 0.930 . S
H777 C791 0.930 . S
H778 C770 0.930 . S
H779 C797 0.930 . S
H780 C788 0.930 . S
H781 C795 0.931 . S
H782 C759 0.929 . S
H783 C789 0.930 . S
H784 C822 0.930 . S
H785 C766 0.930 . S
H786 C821 0.929 . S
N787 Tb756 2.660 . S
N787 C788 1.305 . S
N787 C792 1.360 . S
C788 H780 0.930 . S
C788 N787 1.305 . S
C788 C791 1.407 . S
C789 H783 0.930 . S
C789 C790 1.410 . S
C789 C791 1.345 . S
C790 C789 1.410 . S
C790 C792 1.417 . S
C790 C822 1.432 . S
C791 H777 0.930 . S
C791 C788 1.407 . S
C791 C789 1.345 . S
C792 N787 1.360 . S
C792 C790 1.417 . S
C792 C796 1.432 . S
H793 C798 0.930 . S
N794 Tb756 2.600 . S
N794 C796 1.359 . S
N794 C797 1.327 . S
C795 H781 0.931 . S
C795 C797 1.392 . S
C795 C798 1.370 . S
C796 C792 1.432 . S
C796 N794 1.359 . S
C796 C799 1.414 . S
C797 H779 0.930 . S
C797 N794 1.327 . S
C797 C795 1.392 . S
C798 H793 0.930 . S
C798 C795 1.370 . S
C798 C799 1.385 . S
C799 C796 1.414 . S
C799 C798 1.385 . S
C799 C821 1.444 . S
O800 Tb756 2.546 . S
O800 C820 1.251 . S
O801 Tb756 2.610 . S
O801 Tb767 2.362 . S
O801 C812 1.283 . S
O802 Tb767 2.421 . S
O802 C819 1.262 . S
O803 Tb756 2.320 . S
O803 C819 1.260 . S
O804 Tb756 2.552 . S
O804 C812 1.243 . S
O805 Tb756 2.413 . S
O805 C820 1.256 . S
O806 Tb767 2.546 . S
O806 C831 1.251 . S
O807 Tb756 2.362 . S
O807 Tb767 2.610 . S
O807 C823 1.283 . S
O808 Tb756 2.421 . S
O808 C830 1.262 . S
O809 Tb767 2.320 . S
O809 C830 1.260 . S
O810 Tb767 2.552 . S
O810 C823 1.243 . S
O811 Tb767 2.413 . S
O811 C831 1.256 . S
C812 O801 1.283 . S
C812 O804 1.243 . S
C813 C815 1.382 . S
C813 C817 1.393 . S
C813 C820 1.500 . S
C814 C815 1.400 . S
C814 C816 1.384 . S
C815 C813 1.382 . S
C815 C814 1.400 . S
C815 H832 0.930 . S
C816 C814 1.384 . S
C816 C818 1.392 . S
C816 H833 0.931 . S
C817 C813 1.393 . S
C817 C818 1.401 . S
C817 H834 0.930 . S
C818 C816 1.392 . S
C818 C817 1.401 . S
C818 H835 0.930 . S
C819 O802 1.262 . S
C819 O803 1.260 . S
C820 Tb756 2.833 . S
C820 O800 1.251 . S
C820 O805 1.256 . S
C820 C813 1.500 . S
C821 H786 0.929 . S
C821 C799 1.444 . S
C821 C822 1.317 . S
C822 H784 0.930 . S
C822 C790 1.432 . S
C822 C821 1.317 . S
C823 O807 1.283 . S
C823 O810 1.243 . S
C824 C825 1.382 . S
C824 C828 1.393 . S
C824 C831 1.500 . S
C825 C824 1.382 . S
C825 C826 1.400 . S
C825 H836 0.930 . S
C826 C825 1.400 . S
C826 C827 1.384 . S
C827 C826 1.384 . S
C827 C829 1.392 . S
C827 H837 0.931 . S
C828 C824 1.393 . S
C828 C829 1.401 . S
C828 H838 0.930 . S
C829 C827 1.392 . S
C829 C828 1.401 . S
C829 H839 0.930 . S
C830 O808 1.262 . S
C830 O809 1.260 . S
C831 Tb767 2.833 . S
C831 O806 1.251 . S
C831 O811 1.256 . S
C831 C824 1.500 . S
H832 C815 0.930 . S
H833 C816 0.931 . S
H834 C817 0.930 . S
H835 C818 0.930 . S
H836 C825 0.930 . S
H837 C827 0.931 . S
H838 C828 0.930 . S
H839 C829 0.930 . S
Tb840 N871 2.660 . S
Tb840 N878 2.600 . S
Tb840 O884 2.546 . S
Tb840 O885 2.610 . S
Tb840 O887 2.320 . S
Tb840 O888 2.552 . S
Tb840 O889 2.413 . S
Tb840 O891 2.362 . S
Tb840 O892 2.421 . S
Tb840 C904 2.833 . S
C841 C844 1.432 . S
C841 C845 1.414 . S
C841 N848 1.359 . S
C842 C844 1.417 . S
C842 C846 1.432 . S
C842 C854 1.410 1_545 S
C843 C845 1.444 . S
C843 C846 1.317 . S
C843 H866 0.929 . S
C844 C841 1.432 . S
C844 C842 1.417 . S
C844 N852 1.360 . S
C845 C841 1.414 . S
C845 C843 1.444 . S
C845 C850 1.385 . S
C846 C842 1.432 . S
C846 C843 1.317 . S
C846 H858 0.930 . S
C847 C849 1.392 . S
C847 C850 1.370 . S
C847 H859 0.931 . S
N848 C841 1.359 . S
N848 C849 1.327 . S
N848 Tb851 2.600 1_556 S
C849 C847 1.392 . S
C849 N848 1.327 . S
C849 H856 0.926 . S
C850 C845 1.385 . S
C850 C847 1.370 . S
C850 H869 0.930 . S
Tb851 N848 2.600 1_554 S
Tb851 N852 2.660 1_554 S
Tb851 O885 2.362 . S
Tb851 O886 2.421 . S
Tb851 O890 2.546 1_554 S
Tb851 O891 2.610 . S
Tb851 O893 2.322 1_554 S
Tb851 O894 2.552 . S
Tb851 O895 2.413 1_554 S
Tb851 C915 2.833 1_554 S
N852 C844 1.360 . S
N852 Tb851 2.660 1_556 S
N852 C853 1.305 . S
C853 N852 1.305 . S
C853 C855 1.407 1_545 S
C853 H860 0.930 . S
C854 C842 1.410 1_565 S
C854 C855 1.345 . S
C854 H862 0.930 . S
C855 C853 1.407 1_565 S
C855 C854 1.345 . S
C855 H857 0.930 . S
H856 C849 0.926 . S
H857 C855 0.930 . S
H858 C846 0.930 . S
H859 C847 0.931 . S
H860 C853 0.930 . S
H861 C875 0.930 . S
H862 C854 0.930 . S
H863 C881 0.930 1_565 S
H864 C872 0.930 . S
H865 C879 0.931 . S
H866 C843 0.929 . S
H867 C873 0.930 . S
H868 C906 0.930 . S
H869 C850 0.930 . S
H870 C905 0.929 . S
N871 Tb840 2.660 . S
N871 C872 1.305 . S
N871 C876 1.360 . S
C872 H864 0.930 . S
C872 N871 1.305 . S
C872 C875 1.407 . S
C873 H867 0.930 . S
C873 C874 1.410 . S
C873 C875 1.345 . S
C874 C873 1.410 . S
C874 C876 1.417 . S
C874 C906 1.432 . S
C875 H861 0.930 . S
C875 C872 1.407 . S
C875 C873 1.345 . S
C876 N871 1.360 . S
C876 C874 1.417 . S
C876 C880 1.432 . S
H877 C882 0.907 1_565 S
N878 Tb840 2.600 . S
N878 C880 1.359 . S
N878 C881 1.327 . S
C879 H865 0.931 . S
C879 C881 1.392 1_565 S
C879 C882 1.370 1_565 S
C880 C876 1.432 . S
C880 N878 1.359 . S
C880 C883 1.414 . S
C881 H863 0.930 1_545 S
C881 N878 1.327 . S
C881 C879 1.392 1_545 S
C882 H877 0.907 1_545 S
C882 C879 1.370 1_545 S
C882 C883 1.385 . S
C883 C880 1.414 . S
C883 C882 1.385 . S
C883 C905 1.444 . S
O884 Tb840 2.546 . S
O884 C904 1.251 . S
O885 Tb840 2.610 . S
O885 Tb851 2.362 . S
O885 C896 1.283 . S
O886 Tb851 2.421 . S
O886 C903 1.262 . S
O887 Tb840 2.320 . S
O887 C903 1.260 . S
O888 Tb840 2.552 . S
O888 C896 1.243 . S
O889 Tb840 2.413 . S
O889 C904 1.256 . S
O890 Tb851 2.546 1_556 S
O890 C915 1.251 . S
O891 Tb840 2.362 . S
O891 Tb851 2.610 . S
O891 C907 1.283 . S
O892 Tb840 2.421 . S
O892 C914 1.262 . S
O893 Tb851 2.322 1_556 S
O893 C914 1.248 1_556 S
O894 Tb851 2.552 . S
O894 C907 1.243 . S
O895 Tb851 2.413 1_556 S
O895 C915 1.256 . S
C896 O885 1.283 . S
C896 O888 1.243 . S
C897 C899 1.382 . S
C897 C901 1.393 . S
C897 C904 1.500 . S
C898 C899 1.400 . S
C898 C900 1.384 . S
C899 C897 1.382 . S
C899 C898 1.400 . S
C899 H916 0.930 . S
C900 C898 1.384 . S
C900 C902 1.390 . S
C900 H917 0.931 . S
C901 C897 1.393 . S
C901 C902 1.401 . S
C901 H918 0.930 1_545 S
C902 C900 1.390 . S
C902 C901 1.401 . S
C902 H919 0.932 1_545 S
C903 O886 1.262 . S
C903 O887 1.260 . S
C904 Tb840 2.833 . S
C904 O884 1.251 . S
C904 O889 1.256 . S
C904 C897 1.500 . S
C905 H870 0.929 . S
C905 C883 1.444 . S
C905 C906 1.317 . S
C906 H868 0.930 . S
C906 C874 1.432 . S
C906 C905 1.317 . S
C907 O891 1.283 . S
C907 O894 1.243 . S
C908 C909 1.382 . S
C908 C912 1.393 . S
C908 C915 1.500 . S
C909 C908 1.382 . S
C909 C910 1.400 . S
C909 H920 0.930 . S
C910 C909 1.400 . S
C910 C911 1.384 . S
C911 C910 1.384 . S
C911 C913 1.392 . S
C911 H921 0.931 . S
C912 C908 1.393 . S
C912 C913 1.401 . S
C912 H922 0.930 . S
C913 C911 1.392 . S
C913 C912 1.401 . S
C913 H923 0.930 . S
C914 O892 1.262 . S
C914 O893 1.248 1_554 S
C915 Tb851 2.833 1_556 S
C915 O890 1.251 . S
C915 O895 1.256 . S
C915 C908 1.500 . S
H916 C899 0.930 . S
H917 C900 0.931 . S
H918 C901 0.930 1_565 S
H919 C902 0.932 1_565 S
H920 C909 0.930 . S
H921 C911 0.931 . S
H922 C912 0.930 . S
H923 C913 0.930 . S
Tb924 N955 2.660 . S
Tb924 N962 2.600 . S
Tb924 O968 2.546 . S
Tb924 O969 2.610 . S
Tb924 O971 2.320 . S
Tb924 O972 2.552 . S
Tb924 O973 2.413 . S
Tb924 O975 2.362 . S
Tb924 O976 2.421 . S
Tb924 C988 2.833 . S
C925 C928 1.432 . S
C925 C929 1.414 . S
C925 N932 1.359 . S
C926 C928 1.417 . S
C926 C930 1.432 . S
C926 C938 1.410 . S
C927 C929 1.444 . S
C927 C930 1.317 . S
C927 H950 0.929 . S
C928 C925 1.432 . S
C928 C926 1.417 . S
C928 N936 1.360 . S
C929 C925 1.414 . S
C929 C927 1.444 . S
C929 C934 1.385 . S
C930 C926 1.432 . S
C930 C927 1.317 . S
C930 H942 0.930 . S
C931 C933 1.392 . S
C931 C934 1.370 . S
C931 H943 0.931 . S
N932 C925 1.359 . S
N932 C933 1.327 . S
N932 Tb935 2.600 . S
C933 C931 1.392 . S
C933 N932 1.327 . S
C933 H940 0.930 . S
C934 C929 1.385 . S
C934 C931 1.370 . S
C934 H953 0.930 . S
Tb935 N932 2.600 . S
Tb935 N936 2.660 . S
Tb935 O969 2.362 . S
Tb935 O970 2.421 . S
Tb935 O974 2.546 . S
Tb935 O975 2.610 . S
Tb935 O977 2.320 . S
Tb935 O978 2.552 . S
Tb935 O979 2.413 . S
Tb935 C999 2.833 . S
N936 C928 1.360 . S
N936 Tb935 2.660 . S
N936 C937 1.305 . S
C937 N936 1.305 . S
C937 C939 1.407 . S
C937 H944 0.930 . S
C938 C926 1.410 . S
C938 C939 1.345 . S
C938 H946 0.930 . S
C939 C937 1.407 . S
C939 C938 1.345 . S
C939 H941 0.930 . S
H940 C933 0.930 . S
H941 C939 0.930 . S
H942 C930 0.930 . S
H943 C931 0.931 . S
H944 C937 0.930 . S
H945 C959 0.930 . S
H946 C938 0.930 . S
H947 C965 0.930 . S
H948 C956 0.930 . S
H949 C963 0.931 . S
H950 C927 0.929 . S
H951 C957 0.930 . S
H952 C990 0.930 . S
H953 C934 0.930 . S
H954 C989 0.929 . S
N955 Tb924 2.660 . S
N955 C956 1.305 . S
N955 C960 1.360 . S
C956 H948 0.930 . S
C956 N955 1.305 . S
C956 C959 1.407 . S
C957 H951 0.930 . S
C957 C958 1.410 . S
C957 C959 1.345 . S
C958 C957 1.410 . S
C958 C960 1.417 . S
C958 C990 1.432 . S
C959 H945 0.930 . S
C959 C956 1.407 . S
C959 C957 1.345 . S
C960 N955 1.360 . S
C960 C958 1.417 . S
C960 C964 1.432 . S
H961 C966 0.930 . S
N962 Tb924 2.600 . S
N962 C964 1.359 . S
N962 C965 1.327 . S
C963 H949 0.931 . S
C963 C965 1.392 . S
C963 C966 1.370 . S
C964 C960 1.432 . S
C964 N962 1.359 . S
C964 C967 1.414 . S
C965 H947 0.930 . S
C965 N962 1.327 . S
C965 C963 1.392 . S
C966 H961 0.930 . S
C966 C963 1.370 . S
C966 C967 1.385 . S
C967 C964 1.414 . S
C967 C966 1.385 . S
C967 C989 1.444 . S
O968 Tb924 2.546 . S
O968 C988 1.251 . S
O969 Tb924 2.610 . S
O969 Tb935 2.362 . S
O969 C980 1.283 . S
O970 Tb935 2.421 . S
O970 C987 1.262 . S
O971 Tb924 2.320 . S
O971 C987 1.260 . S
O972 Tb924 2.552 . S
O972 C980 1.243 . S
O973 Tb924 2.413 . S
O973 C988 1.256 . S
O974 Tb935 2.546 . S
O974 C999 1.251 . S
O975 Tb924 2.362 . S
O975 Tb935 2.610 . S
O975 C991 1.283 . S
O976 Tb924 2.421 . S
O976 C998 1.262 . S
O977 Tb935 2.320 . S
O977 C998 1.260 . S
O978 Tb935 2.552 . S
O978 C991 1.243 . S
O979 Tb935 2.413 . S
O979 C999 1.256 . S
C980 O969 1.283 . S
C980 O972 1.243 . S
C981 C983 1.382 . S
C981 C985 1.393 . S
C981 C988 1.500 . S
C982 C983 1.400 . S
C982 C984 1.384 . S
C983 C981 1.382 . S
C983 C982 1.400 . S
C983 H1000 0.930 . S
C984 C982 1.384 . S
C984 C986 1.392 . S
C984 H1001 0.931 . S
C985 C981 1.393 . S
C985 C986 1.401 . S
C985 H1002 0.930 . S
C986 C984 1.392 . S
C986 C985 1.401 . S
C986 H1003 0.930 . S
C987 O970 1.262 . S
C987 O971 1.260 . S
C988 Tb924 2.833 . S
C988 O968 1.251 . S
C988 O973 1.256 . S
C988 C981 1.500 . S
C989 H954 0.929 . S
C989 C967 1.444 . S
C989 C990 1.317 . S
C990 H952 0.930 . S
C990 C958 1.432 . S
C990 C989 1.317 . S
C991 O975 1.283 . S
C991 O978 1.243 . S
C992 C993 1.382 . S
C992 C996 1.393 . S
C992 C999 1.500 . S
C993 C992 1.382 . S
C993 C994 1.400 . S
C993 H1004 0.930 . S
C994 C993 1.400 . S
C994 C995 1.384 . S
C995 C994 1.384 . S
C995 C997 1.392 . S
C995 H1005 0.931 . S
C996 C992 1.393 . S
C996 C997 1.401 . S
C996 H1006 0.930 . S
C997 C995 1.392 . S
C997 C996 1.401 . S
C997 H1007 0.930 . S
C998 O976 1.262 . S
C998 O977 1.260 . S
C999 Tb935 2.833 . S
C999 O974 1.251 . S
C999 O979 1.256 . S
C999 C992 1.500 . S
H1000 C983 0.930 . S
H1001 C984 0.931 . S
H1002 C985 0.930 . S
H1003 C986 0.930 . S
H1004 C993 0.930 . S
H1005 C995 0.931 . S
H1006 C996 0.930 . S
H1007 C997 0.930 . S
Tb1008 N1039 2.660 . S
Tb1008 N1046 2.600 . S
Tb1008 O1052 2.546 . S
Tb1008 O1053 2.610 . S
Tb1008 O1055 2.320 . S
Tb1008 O1056 2.552 1_554 S
Tb1008 O1057 2.413 . S
Tb1008 O1059 2.362 . S
Tb1008 O1060 2.421 . S
Tb1008 C1072 2.833 . S
C1009 C1012 1.432 . S
C1009 C1013 1.414 . S
C1009 N1016 1.359 . S
C1010 C1012 1.417 . S
C1010 C1014 1.432 . S
C1010 C1022 1.410 . S
C1011 C1013 1.444 . S
C1011 C1014 1.317 . S
C1011 H1034 0.929 . S
C1012 C1009 1.432 . S
C1012 C1010 1.417 . S
C1012 N1020 1.360 . S
C1013 C1009 1.414 . S
C1013 C1011 1.444 . S
C1013 C1018 1.385 . S
C1014 C1010 1.432 . S
C1014 C1011 1.317 . S
C1014 H1026 0.930 . S
C1015 C1017 1.392 . S
C1015 C1018 1.370 . S
C1015 H1027 0.931 . S
N1016 C1009 1.359 . S
N1016 C1017 1.327 . S
N1016 Tb1019 2.600 1_556 S
C1017 C1015 1.392 . S
C1017 N1016 1.327 . S
C1017 H1024 0.930 . S
C1018 C1013 1.385 . S
C1018 C1015 1.370 . S
C1018 H1037 0.930 . S
Tb1019 N1016 2.600 1_554 S
Tb1019 N1020 2.660 1_554 S
Tb1019 O1053 2.362 . S
Tb1019 O1054 2.421 . S
Tb1019 O1058 2.546 . S
Tb1019 O1059 2.610 . S
Tb1019 O1061 2.320 . S
Tb1019 O1062 2.552 . S
Tb1019 O1063 2.413 . S
Tb1019 C1083 2.833 . S
N1020 C1012 1.360 . S
N1020 Tb1019 2.660 1_556 S
N1020 C1021 1.305 . S
C1021 N1020 1.305 . S
C1021 C1023 1.407 . S
C1021 H1028 0.930 . S
C1022 C1010 1.410 . S
C1022 C1023 1.345 . S
C1022 H1030 0.930 . S
C1023 C1021 1.407 . S
C1023 C1022 1.345 . S
C1023 H1025 0.930 . S
H1024 C1017 0.930 . S
H1025 C1023 0.930 . S
H1026 C1014 0.930 . S
H1027 C1015 0.931 . S
H1028 C1021 0.930 . S
H1029 C1043 0.930 . S
H1030 C1022 0.930 . S
H1031 C1049 0.930 . S
H1032 C1040 0.930 . S
H1033 C1047 0.931 . S
H1034 C1011 0.929 . S
H1035 C1041 0.930 . S
H1036 C1074 0.930 . S
H1037 C1018 0.930 . S
H1038 C1073 0.929 . S
N1039 Tb1008 2.660 . S
N1039 C1040 1.305 . S
N1039 C1044 1.360 . S
C1040 H1032 0.930 . S
C1040 N1039 1.305 . S
C1040 C1043 1.407 . S
C1041 H1035 0.930 . S
C1041 C1042 1.410 . S
C1041 C1043 1.345 . S
C1042 C1041 1.410 . S
C1042 C1044 1.417 . S
C1042 C1074 1.432 . S
C1043 H1029 0.930 . S
C1043 C1040 1.407 . S
C1043 C1041 1.345 . S
C1044 N1039 1.360 . S
C1044 C1042 1.417 . S
C1044 C1048 1.432 . S
H1045 C1050 0.930 . S
N1046 Tb1008 2.600 . S
N1046 C1048 1.359 . S
N1046 C1049 1.327 . S
C1047 H1033 0.931 . S
C1047 C1049 1.392 . S
C1047 C1050 1.370 . S
C1048 C1044 1.432 . S
C1048 N1046 1.359 . S
C1048 C1051 1.414 . S
C1049 H1031 0.930 . S
C1049 N1046 1.327 . S
C1049 C1047 1.392 . S
C1050 H1045 0.930 . S
C1050 C1047 1.370 . S
C1050 C1051 1.385 . S
C1051 C1048 1.414 . S
C1051 C1050 1.385 . S
C1051 C1073 1.444 . S
O1052 Tb1008 2.546 . S
O1052 C1072 1.251 . S
O1053 Tb1008 2.610 . S
O1053 Tb1019 2.362 . S
O1053 C1064 1.283 1_554 S
O1054 Tb1019 2.421 . S
O1054 C1071 1.262 . S
O1055 Tb1008 2.320 . S
O1055 C1071 1.260 . S
O1056 Tb1008 2.552 1_556 S
O1056 C1064 1.243 . S
O1057 Tb1008 2.413 . S
O1057 C1072 1.256 . S
O1058 Tb1019 2.546 . S
O1058 C1083 1.251 . S
O1059 Tb1008 2.362 . S
O1059 Tb1019 2.610 . S
O1059 C1075 1.283 . S
O1060 Tb1008 2.421 . S
O1060 C1082 1.262 . S
O1061 Tb1019 2.320 . S
O1061 C1082 1.260 . S
O1062 Tb1019 2.552 . S
O1062 C1075 1.243 . S
O1063 Tb1019 2.413 . S
O1063 C1083 1.256 . S
C1064 O1053 1.283 1_556 S
C1064 O1056 1.243 . S
C1065 C1067 1.382 . S
C1065 C1069 1.393 . S
C1065 C1072 1.500 . S
C1066 C1067 1.400 . S
C1066 C1068 1.384 . S
C1067 C1065 1.382 . S
C1067 C1066 1.400 . S
C1067 H1084 0.930 . S
C1068 C1066 1.384 . S
C1068 C1070 1.392 . S
C1068 H1085 0.931 . S
C1069 C1065 1.393 . S
C1069 C1070 1.401 . S
C1069 H1086 0.930 . S
C1070 C1068 1.392 . S
C1070 C1069 1.401 . S
C1070 H1087 0.930 . S
C1071 O1054 1.262 . S
C1071 O1055 1.260 . S
C1072 Tb1008 2.833 . S
C1072 O1052 1.251 . S
C1072 O1057 1.256 . S
C1072 C1065 1.500 . S
C1073 H1038 0.929 . S
C1073 C1051 1.444 . S
C1073 C1074 1.317 . S
C1074 H1036 0.930 . S
C1074 C1042 1.432 . S
C1074 C1073 1.317 . S
C1075 O1059 1.283 . S
C1075 O1062 1.243 . S
C1076 C1077 1.382 . S
C1076 C1080 1.393 . S
C1076 C1083 1.500 . S
C1077 C1076 1.382 . S
C1077 C1078 1.400 . S
C1077 H1088 0.930 . S
C1078 C1077 1.400 . S
C1078 C1079 1.384 . S
C1079 C1078 1.384 . S
C1079 C1081 1.392 . S
C1079 H1089 0.931 . S
C1080 C1076 1.393 . S
C1080 C1081 1.401 . S
C1080 H1090 0.930 . S
C1081 C1079 1.392 . S
C1081 C1080 1.401 . S
C1081 H1091 0.930 . S
C1082 O1060 1.262 . S
C1082 O1061 1.260 . S
C1083 Tb1019 2.833 . S
C1083 O1058 1.251 . S
C1083 O1063 1.256 . S
C1083 C1076 1.500 . S
H1084 C1067 0.930 . S
H1085 C1068 0.931 . S
H1086 C1069 0.930 . S
H1087 C1070 0.930 . S
H1088 C1077 0.930 . S
H1089 C1079 0.931 . S
H1090 C1080 0.930 . S
H1091 C1081 0.930 . S
Tb1092 N1123 2.660 . S
Tb1092 N1130 2.600 . S
Tb1092 O1136 2.546 . S
Tb1092 O1137 2.610 . S
Tb1092 O1139 2.320 . S
Tb1092 O1140 2.552 . S
Tb1092 O1141 2.413 . S
Tb1092 O1143 2.362 . S
Tb1092 O1144 2.421 . S
Tb1092 C1156 2.833 . S
C1093 C1096 1.432 . S
C1093 C1097 1.414 . S
C1093 N1100 1.359 . S
C1094 C1096 1.417 . S
C1094 C1098 1.432 . S
C1094 C1106 1.410 . S
C1095 C1097 1.444 . S
C1095 C1098 1.317 . S
C1095 H1118 0.929 . S
C1096 C1093 1.432 . S
C1096 C1094 1.417 . S
C1096 N1104 1.360 . S
C1097 C1093 1.414 . S
C1097 C1095 1.444 . S
C1097 C1102 1.385 . S
C1098 C1094 1.432 . S
C1098 C1095 1.317 . S
C1098 H1110 0.930 . S
C1099 C1101 1.392 . S
C1099 C1102 1.370 . S
C1099 H1111 0.931 . S
N1100 C1093 1.359 . S
N1100 C1101 1.327 . S
N1100 Tb1103 2.600 . S
C1101 C1099 1.392 . S
C1101 N1100 1.327 . S
C1101 H1108 0.930 . S
C1102 C1097 1.385 . S
C1102 C1099 1.370 . S
C1102 H1121 0.930 . S
Tb1103 N1100 2.600 . S
Tb1103 N1104 2.660 . S
Tb1103 O1137 2.362 . S
Tb1103 O1138 2.421 . S
Tb1103 O1142 2.546 . S
Tb1103 O1143 2.610 . S
Tb1103 O1145 2.320 . S
Tb1103 O1146 2.552 . S
Tb1103 O1147 2.413 . S
Tb1103 C1167 2.833 . S
N1104 C1096 1.360 . S
N1104 Tb1103 2.660 . S
N1104 C1105 1.305 . S
C1105 N1104 1.305 . S
C1105 C1107 1.407 . S
C1105 H1112 0.930 . S
C1106 C1094 1.410 . S
C1106 C1107 1.345 . S
C1106 H1114 0.930 . S
C1107 C1105 1.407 . S
C1107 C1106 1.345 . S
C1107 H1109 0.930 . S
H1108 C1101 0.930 . S
H1109 C1107 0.930 . S
H1110 C1098 0.930 . S
H1111 C1099 0.931 . S
H1112 C1105 0.930 . S
H1113 C1127 0.930 . S
H1114 C1106 0.930 . S
H1115 C1133 0.930 . S
H1116 C1124 0.930 . S
H1117 C1131 0.931 . S
H1118 C1095 0.929 . S
H1119 C1125 0.930 . S
H1120 C1158 0.930 . S
H1121 C1102 0.930 . S
H1122 C1157 0.929 . S
N1123 Tb1092 2.660 . S
N1123 C1124 1.305 . S
N1123 C1128 1.360 . S
C1124 H1116 0.930 . S
C1124 N1123 1.305 . S
C1124 C1127 1.407 . S
C1125 H1119 0.930 . S
C1125 C1126 1.410 . S
C1125 C1127 1.345 . S
C1126 C1125 1.410 . S
C1126 C1128 1.417 . S
C1126 C1158 1.432 . S
C1127 H1113 0.930 . S
C1127 C1124 1.407 . S
C1127 C1125 1.345 . S
C1128 N1123 1.360 . S
C1128 C1126 1.417 . S
C1128 C1132 1.432 . S
H1129 C1134 0.930 . S
N1130 Tb1092 2.600 . S
N1130 C1132 1.359 . S
N1130 C1133 1.327 . S
C1131 H1117 0.931 . S
C1131 C1133 1.392 . S
C1131 C1134 1.370 . S
C1132 C1128 1.432 . S
C1132 N1130 1.359 . S
C1132 C1135 1.414 . S
C1133 H1115 0.930 . S
C1133 N1130 1.327 . S
C1133 C1131 1.392 . S
C1134 H1129 0.930 . S
C1134 C1131 1.370 . S
C1134 C1135 1.385 . S
C1135 C1132 1.414 . S
C1135 C1134 1.385 . S
C1135 C1157 1.444 . S
O1136 Tb1092 2.546 . S
O1136 C1156 1.251 . S
O1137 Tb1092 2.610 . S
O1137 Tb1103 2.362 . S
O1137 C1148 1.283 . S
O1138 Tb1103 2.421 . S
O1138 C1155 1.262 . S
O1139 Tb1092 2.320 . S
O1139 C1155 1.260 . S
O1140 Tb1092 2.552 . S
O1140 C1148 1.243 . S
O1141 Tb1092 2.413 . S
O1141 C1156 1.256 . S
O1142 Tb1103 2.546 . S
O1142 C1167 1.251 . S
O1143 Tb1092 2.362 . S
O1143 Tb1103 2.610 . S
O1143 C1159 1.283 . S
O1144 Tb1092 2.421 . S
O1144 C1166 1.262 . S
O1145 Tb1103 2.320 . S
O1145 C1166 1.260 . S
O1146 Tb1103 2.552 . S
O1146 C1159 1.243 . S
O1147 Tb1103 2.413 . S
O1147 C1167 1.256 . S
C1148 O1137 1.283 . S
C1148 O1140 1.243 . S
C1149 C1151 1.382 . S
C1149 C1153 1.393 . S
C1149 C1156 1.500 . S
C1150 C1151 1.400 . S
C1150 C1152 1.384 . S
C1151 C1149 1.382 . S
C1151 C1150 1.400 . S
C1151 H1168 0.930 . S
C1152 C1150 1.384 . S
C1152 C1154 1.392 . S
C1152 H1169 0.931 . S
C1153 C1149 1.393 . S
C1153 C1154 1.401 . S
C1153 H1170 0.930 . S
C1154 C1152 1.392 . S
C1154 C1153 1.401 . S
C1154 H1171 0.930 . S
C1155 O1138 1.262 . S
C1155 O1139 1.260 . S
C1156 Tb1092 2.833 . S
C1156 O1136 1.251 . S
C1156 O1141 1.256 . S
C1156 C1149 1.500 . S
C1157 H1122 0.929 . S
C1157 C1135 1.444 . S
C1157 C1158 1.317 . S
C1158 H1120 0.930 . S
C1158 C1126 1.432 . S
C1158 C1157 1.317 . S
C1159 O1143 1.283 . S
C1159 O1146 1.243 . S
C1160 C1161 1.382 . S
C1160 C1164 1.393 . S
C1160 C1167 1.500 . S
C1161 C1160 1.382 . S
C1161 C1162 1.400 . S
C1161 H1172 0.930 . S
C1162 C1161 1.400 . S
C1162 C1163 1.384 . S
C1163 C1162 1.384 . S
C1163 C1165 1.392 . S
C1163 H1173 0.931 . S
C1164 C1160 1.393 . S
C1164 C1165 1.401 . S
C1164 H1174 0.930 . S
C1165 C1163 1.392 . S
C1165 C1164 1.401 . S
C1165 H1175 0.930 . S
C1166 O1144 1.262 . S
C1166 O1145 1.260 . S
C1167 Tb1103 2.833 . S
C1167 O1142 1.251 . S
C1167 O1147 1.256 . S
C1167 C1160 1.500 . S
H1168 C1151 0.930 . S
H1169 C1152 0.931 . S
H1170 C1153 0.930 . S
H1171 C1154 0.930 . S
H1172 C1161 0.930 . S
H1173 C1163 0.931 . S
H1174 C1164 0.930 . S
H1175 C1165 0.930 . S
Tb1176 N1207 2.660 . S
Tb1176 N1214 2.600 . S
Tb1176 O1220 2.546 . S
Tb1176 O1221 2.610 . S
Tb1176 O1223 2.320 . S
Tb1176 O1224 2.552 . S
Tb1176 O1225 2.413 . S
Tb1176 O1227 2.362 . S
Tb1176 O1228 2.421 . S
Tb1176 C1240 2.833 . S
C1177 C1180 1.432 . S
C1177 C1181 1.414 1_455 S
C1177 N1184 1.359 . S
C1178 C1180 1.417 1_655 S
C1178 C1182 1.432 . S
C1178 C1190 1.410 . S
C1179 C1181 1.444 . S
C1179 C1182 1.317 . S
C1179 H1202 0.929 . S
C1180 C1177 1.432 . S
C1180 C1178 1.417 1_455 S
C1180 N1188 1.360 . S
C1181 C1177 1.414 1_655 S
C1181 C1179 1.444 . S
C1181 C1186 1.379 . S
C1182 C1178 1.432 . S
C1182 C1179 1.317 . S
C1182 H1194 0.930 . S
C1183 C1185 1.392 . S
C1183 C1186 1.331 1_455 S
C1183 H1195 0.931 . S
N1184 C1177 1.359 . S
N1184 C1185 1.327 . S
N1184 Tb1187 2.600 . S
C1185 C1183 1.392 . S
C1185 N1184 1.327 . S
C1185 H1192 0.930 . S
C1186 C1181 1.379 . S
C1186 C1183 1.331 1_655 S
C1186 H1205 0.977 . S
Tb1187 N1184 2.600 . S
Tb1187 N1188 2.660 . S
Tb1187 O1221 2.362 . S
Tb1187 O1222 2.421 . S
Tb1187 O1226 2.546 . S
Tb1187 O1227 2.610 . S
Tb1187 O1229 2.320 . S
Tb1187 O1230 2.552 . S
Tb1187 O1231 2.413 . S
Tb1187 C1251 2.833 . S
N1188 C1180 1.360 . S
N1188 Tb1187 2.660 . S
N1188 C1189 1.305 . S
C1189 N1188 1.305 . S
C1189 C1191 1.407 . S
C1189 H1196 0.930 . S
C1190 C1178 1.410 . S
C1190 C1191 1.345 1_655 S
C1190 H1198 0.930 . S
C1191 C1189 1.407 . S
C1191 C1190 1.345 1_455 S
C1191 H1193 0.930 . S
H1192 C1185 0.930 . S
H1193 C1191 0.930 . S
H1194 C1182 0.930 . S
H1195 C1183 0.931 . S
H1196 C1189 0.930 . S
H1197 C1211 0.930 . S
H1198 C1190 0.930 . S
H1199 C1217 0.930 . S
H1200 C1208 0.930 . S
H1201 C1215 0.931 . S
H1202 C1179 0.929 . S
H1203 C1209 0.930 . S
H1204 C1242 0.930 . S
H1205 C1186 0.977 . S
H1206 C1241 0.929 . S
N1207 Tb1176 2.660 . S
N1207 C1208 1.305 . S
N1207 C1212 1.360 . S
C1208 H1200 0.930 . S
C1208 N1207 1.305 . S
C1208 C1211 1.407 . S
C1209 H1203 0.930 . S
C1209 C1210 1.410 . S
C1209 C1211 1.345 . S
C1210 C1209 1.410 . S
C1210 C1212 1.417 . S
C1210 C1242 1.432 . S
C1211 H1197 0.930 . S
C1211 C1208 1.407 . S
C1211 C1209 1.345 . S
C1212 N1207 1.360 . S
C1212 C1210 1.417 . S
C1212 C1216 1.432 . S
H1213 C1218 0.930 . S
N1214 Tb1176 2.600 . S
N1214 C1216 1.359 . S
N1214 C1217 1.327 . S
C1215 H1201 0.931 . S
C1215 C1217 1.392 . S
C1215 C1218 1.370 . S
C1216 C1212 1.432 . S
C1216 N1214 1.359 . S
C1216 C1219 1.414 . S
C1217 H1199 0.930 . S
C1217 N1214 1.327 . S
C1217 C1215 1.392 . S
C1218 H1213 0.930 . S
C1218 C1215 1.370 . S
C1218 C1219 1.385 . S
C1219 C1216 1.414 . S
C1219 C1218 1.385 . S
C1219 C1241 1.444 . S
O1220 Tb1176 2.546 . S
O1220 C1240 1.251 . S
O1221 Tb1176 2.610 . S
O1221 Tb1187 2.362 . S
O1221 C1232 1.283 . S
O1222 Tb1187 2.421 . S
O1222 C1239 1.262 . S
O1223 Tb1176 2.320 . S
O1223 C1239 1.260 . S
O1224 Tb1176 2.552 . S
O1224 C1232 1.243 . S
O1225 Tb1176 2.413 . S
O1225 C1240 1.256 . S
O1226 Tb1187 2.546 . S
O1226 C1251 1.251 . S
O1227 Tb1176 2.362 . S
O1227 Tb1187 2.610 . S
O1227 C1243 1.283 . S
O1228 Tb1176 2.421 . S
O1228 C1250 1.262 . S
O1229 Tb1187 2.320 . S
O1229 C1250 1.260 . S
O1230 Tb1187 2.552 . S
O1230 C1243 1.243 . S
O1231 Tb1187 2.413 . S
O1231 C1251 1.256 . S
C1232 O1221 1.283 . S
C1232 O1224 1.243 . S
C1233 C1235 1.382 . S
C1233 C1237 1.393 . S
C1233 C1240 1.500 . S
C1234 C1235 1.400 . S
C1234 C1236 1.384 . S
C1235 C1233 1.382 . S
C1235 C1234 1.400 . S
C1235 H1252 0.930 . S
C1236 C1234 1.384 . S
C1236 C1238 1.392 . S
C1236 H1253 0.931 . S
C1237 C1233 1.393 . S
C1237 C1238 1.401 . S
C1237 H1254 0.930 . S
C1238 C1236 1.392 . S
C1238 C1237 1.401 . S
C1238 H1255 0.930 . S
C1239 O1222 1.262 . S
C1239 O1223 1.260 . S
C1240 Tb1176 2.833 . S
C1240 O1220 1.251 . S
C1240 O1225 1.256 . S
C1240 C1233 1.500 . S
C1241 H1206 0.929 . S
C1241 C1219 1.444 . S
C1241 C1242 1.317 . S
C1242 H1204 0.930 . S
C1242 C1210 1.432 . S
C1242 C1241 1.317 . S
C1243 O1227 1.283 . S
C1243 O1230 1.243 . S
C1244 C1245 1.382 . S
C1244 C1248 1.393 . S
C1244 C1251 1.500 . S
C1245 C1244 1.382 . S
C1245 C1246 1.400 . S
C1245 H1256 0.930 . S
C1246 C1245 1.400 . S
C1246 C1247 1.384 . S
C1247 C1246 1.384 . S
C1247 C1249 1.392 . S
C1247 H1257 0.931 . S
C1248 C1244 1.393 . S
C1248 C1249 1.401 . S
C1248 H1258 0.930 . S
C1249 C1247 1.392 . S
C1249 C1248 1.401 . S
C1249 H1259 0.930 . S
C1250 O1228 1.262 . S
C1250 O1229 1.260 . S
C1251 Tb1187 2.833 . S
C1251 O1226 1.251 . S
C1251 O1231 1.256 . S
C1251 C1244 1.500 . S
H1252 C1235 0.930 . S
H1253 C1236 0.931 . S
H1254 C1237 0.930 . S
H1255 C1238 0.930 . S
H1256 C1245 0.930 . S
H1257 C1247 0.931 . S
H1258 C1248 0.930 . S
H1259 C1249 0.930 . S
Tb1260 N1291 2.660 . S
Tb1260 N1298 2.600 . S
Tb1260 O1304 2.546 . S
Tb1260 O1305 2.610 . S
Tb1260 O1307 2.320 . S
Tb1260 O1308 2.552 . S
Tb1260 O1309 2.413 . S
Tb1260 O1311 2.362 . S
Tb1260 O1312 2.421 . S
Tb1260 C1324 2.833 . S
C1261 C1264 1.432 . S
C1261 C1265 1.414 . S
C1261 N1268 1.359 . S
C1262 C1264 1.417 . S
C1262 C1266 1.432 . S
C1262 C1274 1.410 . S
C1263 C1265 1.444 . S
C1263 C1266 1.317 . S
C1263 H1286 0.929 . S
C1264 C1261 1.432 . S
C1264 C1262 1.417 . S
C1264 N1272 1.360 . S
C1265 C1261 1.414 . S
C1265 C1263 1.444 . S
C1265 C1270 1.385 . S
C1266 C1262 1.432 . S
C1266 C1263 1.317 . S
C1266 H1278 0.930 . S
C1267 C1269 1.392 . S
C1267 C1270 1.370 . S
C1267 H1279 0.931 . S
N1268 C1261 1.359 . S
N1268 C1269 1.327 . S
N1268 Tb1271 2.600 . S
C1269 C1267 1.392 . S
C1269 N1268 1.327 . S
C1269 H1276 0.930 . S
C1270 C1265 1.385 . S
C1270 C1267 1.370 . S
C1270 H1289 0.930 . S
Tb1271 N1268 2.600 . S
Tb1271 N1272 2.660 . S
Tb1271 O1305 2.362 . S
Tb1271 O1306 2.421 . S
Tb1271 O1310 2.546 . S
Tb1271 O1311 2.610 . S
Tb1271 O1313 2.320 . S
Tb1271 O1314 2.552 . S
Tb1271 O1315 2.413 . S
Tb1271 C1335 2.833 . S
N1272 C1264 1.360 . S
N1272 Tb1271 2.660 . S
N1272 C1273 1.305 . S
C1273 N1272 1.305 . S
C1273 C1275 1.407 . S
C1273 H1280 0.930 . S
C1274 C1262 1.410 . S
C1274 C1275 1.345 . S
C1274 H1282 0.930 . S
C1275 C1273 1.407 . S
C1275 C1274 1.345 . S
C1275 H1277 0.930 . S
H1276 C1269 0.930 . S
H1277 C1275 0.930 . S
H1278 C1266 0.930 . S
H1279 C1267 0.931 . S
H1280 C1273 0.930 . S
H1281 C1295 0.930 . S
H1282 C1274 0.930 . S
H1283 C1301 0.930 . S
H1284 C1292 0.930 . S
H1285 C1299 0.931 . S
H1286 C1263 0.929 . S
H1287 C1293 0.930 . S
H1288 C1326 0.930 . S
H1289 C1270 0.930 . S
H1290 C1325 0.929 . S
N1291 Tb1260 2.660 . S
N1291 C1292 1.305 . S
N1291 C1296 1.360 . S
C1292 H1284 0.930 . S
C1292 N1291 1.305 . S
C1292 C1295 1.407 . S
C1293 H1287 0.930 . S
C1293 C1294 1.410 . S
C1293 C1295 1.345 . S
C1294 C1293 1.410 . S
C1294 C1296 1.417 . S
C1294 C1326 1.432 . S
C1295 H1281 0.930 . S
C1295 C1292 1.407 . S
C1295 C1293 1.345 . S
C1296 N1291 1.360 . S
C1296 C1294 1.417 . S
C1296 C1300 1.432 . S
H1297 C1302 0.930 . S
N1298 Tb1260 2.600 . S
N1298 C1300 1.359 . S
N1298 C1301 1.327 . S
C1299 H1285 0.931 . S
C1299 C1301 1.392 . S
C1299 C1302 1.370 . S
C1300 C1296 1.432 . S
C1300 N1298 1.359 . S
C1300 C1303 1.414 . S
C1301 H1283 0.930 . S
C1301 N1298 1.327 . S
C1301 C1299 1.392 . S
C1302 H1297 0.930 . S
C1302 C1299 1.370 . S
C1302 C1303 1.385 . S
C1303 C1300 1.414 . S
C1303 C1302 1.385 . S
C1303 C1325 1.444 . S
O1304 Tb1260 2.546 . S
O1304 C1324 1.251 . S
O1305 Tb1260 2.610 . S
O1305 Tb1271 2.362 . S
O1305 C1316 1.283 . S
O1306 Tb1271 2.421 . S
O1306 C1323 1.262 . S
O1307 Tb1260 2.320 . S
O1307 C1323 1.260 . S
O1308 Tb1260 2.552 . S
O1308 C1316 1.243 . S
O1309 Tb1260 2.413 . S
O1309 C1324 1.256 . S
O1310 Tb1271 2.546 . S
O1310 C1335 1.251 . S
O1311 Tb1260 2.362 . S
O1311 Tb1271 2.610 . S
O1311 C1327 1.283 . S
O1312 Tb1260 2.421 . S
O1312 C1334 1.262 . S
O1313 Tb1271 2.320 . S
O1313 C1334 1.260 . S
O1314 Tb1271 2.552 . S
O1314 C1327 1.243 . S
O1315 Tb1271 2.413 . S
O1315 C1335 1.256 . S
C1316 O1305 1.283 . S
C1316 O1308 1.243 . S
C1317 C1319 1.382 . S
C1317 C1321 1.393 . S
C1317 C1324 1.500 . S
C1318 C1319 1.400 . S
C1318 C1320 1.384 . S
C1319 C1317 1.382 . S
C1319 C1318 1.400 . S
C1319 H1336 0.930 . S
C1320 C1318 1.384 . S
C1320 C1322 1.392 . S
C1320 H1337 0.931 . S
C1321 C1317 1.393 . S
C1321 C1322 1.401 . S
C1321 H1338 0.930 . S
C1322 C1320 1.392 . S
C1322 C1321 1.401 . S
C1322 H1339 0.930 . S
C1323 O1306 1.262 . S
C1323 O1307 1.260 . S
C1324 Tb1260 2.833 . S
C1324 O1304 1.251 . S
C1324 O1309 1.256 . S
C1324 C1317 1.500 . S
C1325 H1290 0.929 . S
C1325 C1303 1.444 . S
C1325 C1326 1.317 . S
C1326 H1288 0.930 . S
C1326 C1294 1.432 . S
C1326 C1325 1.317 . S
C1327 O1311 1.283 . S
C1327 O1314 1.243 . S
C1328 C1329 1.382 . S
C1328 C1332 1.393 . S
C1328 C1335 1.500 . S
C1329 C1328 1.382 . S
C1329 C1330 1.400 . S
C1329 H1340 0.930 . S
C1330 C1329 1.400 . S
C1330 C1331 1.384 . S
C1331 C1330 1.384 . S
C1331 C1333 1.392 . S
C1331 H1341 0.931 . S
C1332 C1328 1.393 . S
C1332 C1333 1.401 . S
C1332 H1342 0.930 . S
C1333 C1331 1.392 . S
C1333 C1332 1.401 . S
C1333 H1343 0.930 . S
C1334 O1312 1.262 . S
C1334 O1313 1.260 . S
C1335 Tb1271 2.833 . S
C1335 O1310 1.251 . S
C1335 O1315 1.256 . S
C1335 C1328 1.500 . S
H1336 C1319 0.930 . S
H1337 C1320 0.931 . S
H1338 C1321 0.930 . S
H1339 C1322 0.930 . S
H1340 C1329 0.930 . S
H1341 C1331 0.931 . S
H1342 C1332 0.930 . S
H1343 C1333 0.930 . S
Tb1344 N1375 2.660 . S
Tb1344 N1382 2.600 . S
Tb1344 O1388 2.546 . S
Tb1344 O1389 2.610 . S
Tb1344 O1391 2.320 . S
Tb1344 O1392 2.552 . S
Tb1344 O1393 2.413 . S
Tb1344 O1395 2.362 . S
Tb1344 O1396 2.421 . S
Tb1344 C1408 2.833 . S
C1345 C1348 1.432 . S
C1345 C1349 1.414 . S
C1345 N1352 1.359 . S
C1346 C1348 1.417 . S
C1346 C1350 1.432 . S
C1346 C1358 1.410 . S
C1347 C1349 1.444 . S
C1347 C1350 1.317 . S
C1347 H1370 0.929 . S
C1348 C1345 1.432 . S
C1348 C1346 1.417 . S
C1348 N1356 1.360 . S
C1349 C1345 1.414 . S
C1349 C1347 1.444 . S
C1349 C1354 1.385 . S
C1350 C1346 1.432 . S
C1350 C1347 1.317 . S
C1350 H1362 0.930 . S
C1351 C1353 1.392 . S
C1351 C1354 1.370 . S
C1351 H1363 0.931 . S
N1352 C1345 1.359 . S
N1352 C1353 1.327 . S
N1352 Tb1355 2.600 . S
C1353 C1351 1.392 . S
C1353 N1352 1.327 . S
C1353 H1360 0.930 . S
C1354 C1349 1.385 . S
C1354 C1351 1.370 . S
C1354 H1373 0.930 . S
Tb1355 N1352 2.600 . S
Tb1355 N1356 2.660 . S
Tb1355 O1389 2.362 . S
Tb1355 O1390 2.421 . S
Tb1355 O1394 2.546 . S
Tb1355 O1395 2.610 . S
Tb1355 O1397 2.320 . S
Tb1355 O1398 2.552 . S
Tb1355 O1399 2.413 . S
Tb1355 C1419 2.833 . S
N1356 C1348 1.360 . S
N1356 Tb1355 2.660 . S
N1356 C1357 1.305 . S
C1357 N1356 1.305 . S
C1357 C1359 1.407 . S
C1357 H1364 0.930 . S
C1358 C1346 1.410 . S
C1358 C1359 1.345 . S
C1358 H1366 0.930 . S
C1359 C1357 1.407 . S
C1359 C1358 1.345 . S
C1359 H1361 0.930 . S
H1360 C1353 0.930 . S
H1361 C1359 0.930 . S
H1362 C1350 0.930 . S
H1363 C1351 0.931 . S
H1364 C1357 0.930 . S
H1365 C1379 0.930 . S
H1366 C1358 0.930 . S
H1367 C1385 0.930 . S
H1368 C1376 0.930 . S
H1369 C1383 0.931 . S
H1370 C1347 0.929 . S
H1371 C1377 0.930 . S
H1372 C1410 0.930 . S
H1373 C1354 0.930 . S
H1374 C1409 0.929 . S
N1375 Tb1344 2.660 . S
N1375 C1376 1.305 . S
N1375 C1380 1.360 . S
C1376 H1368 0.930 . S
C1376 N1375 1.305 . S
C1376 C1379 1.407 . S
C1377 H1371 0.930 . S
C1377 C1378 1.410 . S
C1377 C1379 1.345 . S
C1378 C1377 1.410 . S
C1378 C1380 1.417 . S
C1378 C1410 1.432 . S
C1379 H1365 0.930 . S
C1379 C1376 1.407 . S
C1379 C1377 1.345 . S
C1380 N1375 1.360 . S
C1380 C1378 1.417 . S
C1380 C1384 1.432 . S
H1381 C1386 0.930 . S
N1382 Tb1344 2.600 . S
N1382 C1384 1.359 . S
N1382 C1385 1.327 . S
C1383 H1369 0.931 . S
C1383 C1385 1.392 . S
C1383 C1386 1.370 . S
C1384 C1380 1.432 . S
C1384 N1382 1.359 . S
C1384 C1387 1.414 . S
C1385 H1367 0.930 . S
C1385 N1382 1.327 . S
C1385 C1383 1.392 . S
C1386 H1381 0.930 . S
C1386 C1383 1.370 . S
C1386 C1387 1.385 . S
C1387 C1384 1.414 . S
C1387 C1386 1.385 . S
C1387 C1409 1.444 . S
O1388 Tb1344 2.546 . S
O1388 C1408 1.251 . S
O1389 Tb1344 2.610 . S
O1389 Tb1355 2.362 . S
O1389 C1400 1.283 . S
O1390 Tb1355 2.421 . S
O1390 C1407 1.262 . S
O1391 Tb1344 2.320 . S
O1391 C1407 1.260 . S
O1392 Tb1344 2.552 . S
O1392 C1400 1.243 . S
O1393 Tb1344 2.413 . S
O1393 C1408 1.256 . S
O1394 Tb1355 2.546 . S
O1394 C1419 1.251 . S
O1395 Tb1344 2.362 . S
O1395 Tb1355 2.610 . S
O1395 C1411 1.283 . S
O1396 Tb1344 2.421 . S
O1396 C1418 1.262 . S
O1397 Tb1355 2.320 . S
O1397 C1418 1.260 . S
O1398 Tb1355 2.552 . S
O1398 C1411 1.243 . S
O1399 Tb1355 2.413 . S
O1399 C1419 1.256 . S
C1400 O1389 1.283 . S
C1400 O1392 1.243 . S
C1401 C1403 1.382 . S
C1401 C1405 1.393 . S
C1401 C1408 1.500 . S
C1402 C1403 1.400 . S
C1402 C1404 1.384 . S
C1403 C1401 1.382 . S
C1403 C1402 1.400 . S
C1403 H1420 0.930 . S
C1404 C1402 1.384 . S
C1404 C1406 1.392 . S
C1404 H1421 0.931 . S
C1405 C1401 1.393 . S
C1405 C1406 1.401 . S
C1405 H1422 0.930 . S
C1406 C1404 1.392 . S
C1406 C1405 1.401 . S
C1406 H1423 0.930 . S
C1407 O1390 1.262 . S
C1407 O1391 1.260 . S
C1408 Tb1344 2.833 . S
C1408 O1388 1.251 . S
C1408 O1393 1.256 . S
C1408 C1401 1.500 . S
C1409 H1374 0.929 . S
C1409 C1387 1.444 . S
C1409 C1410 1.317 . S
C1410 H1372 0.930 . S
C1410 C1378 1.432 . S
C1410 C1409 1.317 . S
C1411 O1395 1.283 . S
C1411 O1398 1.243 . S
C1412 C1413 1.382 . S
C1412 C1416 1.393 . S
C1412 C1419 1.500 . S
C1413 C1412 1.382 . S
C1413 C1414 1.400 . S
C1413 H1424 0.930 . S
C1414 C1413 1.400 . S
C1414 C1415 1.384 . S
C1415 C1414 1.384 . S
C1415 C1417 1.392 . S
C1415 H1425 0.931 . S
C1416 C1412 1.393 . S
C1416 C1417 1.401 . S
C1416 H1426 0.930 . S
C1417 C1415 1.392 . S
C1417 C1416 1.401 . S
C1417 H1427 0.930 . S
C1418 O1396 1.262 . S
C1418 O1397 1.260 . S
C1419 Tb1355 2.833 . S
C1419 O1394 1.251 . S
C1419 O1399 1.256 . S
C1419 C1412 1.500 . S
H1420 C1403 0.930 . S
H1421 C1404 0.931 . S
H1422 C1405 0.930 . S
H1423 C1406 0.930 . S
H1424 C1413 0.930 . S
H1425 C1415 0.931 . S
H1426 C1416 0.930 . S
H1427 C1417 0.930 . S
Tb1428 N1459 2.660 . S
Tb1428 N1466 2.600 . S
Tb1428 O1472 2.546 . S
Tb1428 O1473 2.610 . S
Tb1428 O1475 2.320 . S
Tb1428 O1476 2.552 . S
Tb1428 O1477 2.413 . S
Tb1428 O1479 2.362 . S
Tb1428 O1480 2.421 . S
Tb1428 C1492 2.833 . S
C1429 C1432 1.432 . S
C1429 C1433 1.414 . S
C1429 N1436 1.359 . S
C1430 C1432 1.417 . S
C1430 C1434 1.432 . S
C1430 C1442 1.410 . S
C1431 C1433 1.444 . S
C1431 C1434 1.317 . S
C1431 H1454 0.929 . S
C1432 C1429 1.432 . S
C1432 C1430 1.417 . S
C1432 N1440 1.360 . S
C1433 C1429 1.414 . S
C1433 C1431 1.444 . S
C1433 C1438 1.385 . S
C1434 C1430 1.432 . S
C1434 C1431 1.317 . S
C1434 H1446 0.930 . S
C1435 C1437 1.392 . S
C1435 C1438 1.370 . S
C1435 H1447 0.931 . S
N1436 C1429 1.359 . S
N1436 C1437 1.327 . S
N1436 Tb1439 2.600 . S
C1437 C1435 1.392 . S
C1437 N1436 1.327 . S
C1437 H1444 0.930 . S
C1438 C1433 1.385 . S
C1438 C1435 1.370 . S
C1438 H1457 0.930 . S
Tb1439 N1436 2.600 . S
Tb1439 N1440 2.660 . S
Tb1439 O1473 2.362 . S
Tb1439 O1474 2.421 . S
Tb1439 O1478 2.546 . S
Tb1439 O1479 2.610 . S
Tb1439 O1481 2.320 . S
Tb1439 O1482 2.552 . S
Tb1439 O1483 2.413 . S
Tb1439 C1503 2.833 . S
N1440 C1432 1.360 . S
N1440 Tb1439 2.660 . S
N1440 C1441 1.305 . S
C1441 N1440 1.305 . S
C1441 C1443 1.407 . S
C1441 H1448 0.930 . S
C1442 C1430 1.410 . S
C1442 C1443 1.345 . S
C1442 H1450 0.930 . S
C1443 C1441 1.407 . S
C1443 C1442 1.345 . S
C1443 H1445 0.930 . S
H1444 C1437 0.930 . S
H1445 C1443 0.930 . S
H1446 C1434 0.930 . S
H1447 C1435 0.931 . S
H1448 C1441 0.930 . S
H1449 C1463 0.930 . S
H1450 C1442 0.930 . S
H1451 C1469 0.930 . S
H1452 C1460 0.930 . S
H1453 C1467 0.931 . S
H1454 C1431 0.929 . S
H1455 C1461 0.930 . S
H1456 C1494 0.930 . S
H1457 C1438 0.930 . S
H1458 C1493 0.929 . S
N1459 Tb1428 2.660 . S
N1459 C1460 1.305 . S
N1459 C1464 1.360 . S
C1460 H1452 0.930 . S
C1460 N1459 1.305 . S
C1460 C1463 1.407 . S
C1461 H1455 0.930 . S
C1461 C1462 1.410 . S
C1461 C1463 1.345 . S
C1462 C1461 1.410 . S
C1462 C1464 1.417 . S
C1462 C1494 1.432 . S
C1463 H1449 0.930 . S
C1463 C1460 1.407 . S
C1463 C1461 1.345 . S
C1464 N1459 1.360 . S
C1464 C1462 1.417 . S
C1464 C1468 1.432 . S
H1465 C1470 0.930 . S
N1466 Tb1428 2.600 . S
N1466 C1468 1.359 . S
N1466 C1469 1.327 . S
C1467 H1453 0.931 . S
C1467 C1469 1.392 . S
C1467 C1470 1.370 . S
C1468 C1464 1.432 . S
C1468 N1466 1.359 . S
C1468 C1471 1.414 . S
C1469 H1451 0.930 . S
C1469 N1466 1.327 . S
C1469 C1467 1.392 . S
C1470 H1465 0.930 . S
C1470 C1467 1.370 . S
C1470 C1471 1.385 . S
C1471 C1468 1.414 . S
C1471 C1470 1.385 . S
C1471 C1493 1.444 . S
O1472 Tb1428 2.546 . S
O1472 C1492 1.251 . S
O1473 Tb1428 2.610 . S
O1473 Tb1439 2.362 . S
O1473 C1484 1.283 . S
O1474 Tb1439 2.421 . S
O1474 C1491 1.262 . S
O1475 Tb1428 2.320 . S
O1475 C1491 1.260 . S
O1476 Tb1428 2.552 . S
O1476 C1484 1.243 . S
O1477 Tb1428 2.413 . S
O1477 C1492 1.256 . S
O1478 Tb1439 2.546 . S
O1478 C1503 1.251 . S
O1479 Tb1428 2.362 . S
O1479 Tb1439 2.610 . S
O1479 C1495 1.283 . S
O1480 Tb1428 2.421 . S
O1480 C1502 1.262 . S
O1481 Tb1439 2.320 . S
O1481 C1502 1.260 . S
O1482 Tb1439 2.552 . S
O1482 C1495 1.243 . S
O1483 Tb1439 2.413 . S
O1483 C1503 1.256 . S
C1484 O1473 1.283 . S
C1484 O1476 1.243 . S
C1485 C1487 1.382 . S
C1485 C1489 1.393 . S
C1485 C1492 1.500 . S
C1486 C1487 1.400 . S
C1486 C1488 1.384 . S
C1487 C1485 1.382 . S
C1487 C1486 1.400 . S
C1487 H1504 0.930 . S
C1488 C1486 1.384 . S
C1488 C1490 1.392 . S
C1488 H1505 0.931 . S
C1489 C1485 1.393 . S
C1489 C1490 1.401 . S
C1489 H1506 0.930 . S
C1490 C1488 1.392 . S
C1490 C1489 1.401 . S
C1490 H1507 0.930 . S
C1491 O1474 1.262 . S
C1491 O1475 1.260 . S
C1492 Tb1428 2.833 . S
C1492 O1472 1.251 . S
C1492 O1477 1.256 . S
C1492 C1485 1.500 . S
C1493 H1458 0.929 . S
C1493 C1471 1.444 . S
C1493 C1494 1.317 . S
C1494 H1456 0.930 . S
C1494 C1462 1.432 . S
C1494 C1493 1.317 . S
C1495 O1479 1.283 . S
C1495 O1482 1.243 . S
C1496 C1497 1.382 . S
C1496 C1500 1.393 . S
C1496 C1503 1.500 . S
C1497 C1496 1.382 . S
C1497 C1498 1.400 . S
C1497 H1508 0.930 . S
C1498 C1497 1.400 . S
C1498 C1499 1.384 . S
C1499 C1498 1.384 . S
C1499 C1501 1.392 . S
C1499 H1509 0.931 . S
C1500 C1496 1.393 . S
C1500 C1501 1.401 . S
C1500 H1510 0.930 . S
C1501 C1499 1.392 . S
C1501 C1500 1.401 . S
C1501 H1511 0.930 . S
C1502 O1480 1.262 . S
C1502 O1481 1.260 . S
C1503 Tb1439 2.833 . S
C1503 O1478 1.251 . S
C1503 O1483 1.256 . S
C1503 C1496 1.500 . S
H1504 C1487 0.930 . S
H1505 C1488 0.931 . S
H1506 C1489 0.930 . S
H1507 C1490 0.930 . S
H1508 C1497 0.930 . S
H1509 C1499 0.931 . S
H1510 C1500 0.930 . S
H1511 C1501 0.930 . S
Tb1512 N1543 2.660 . S
Tb1512 N1550 2.600 . S
Tb1512 O1556 2.546 . S
Tb1512 O1557 2.610 . S
Tb1512 O1559 2.320 . S
Tb1512 O1560 2.552 . S
Tb1512 O1561 2.413 . S
Tb1512 O1563 2.362 . S
Tb1512 O1564 2.421 . S
Tb1512 C1576 2.833 . S
C1513 C1516 1.432 . S
C1513 C1517 1.414 . S
C1513 N1520 1.359 . S
C1514 C1516 1.417 . S
C1514 C1518 1.432 . S
C1514 C1526 1.410 . S
C1515 C1517 1.444 . S
C1515 C1518 1.317 . S
C1515 H1538 0.929 . S
C1516 C1513 1.432 . S
C1516 C1514 1.417 . S
C1516 N1524 1.360 . S
C1517 C1513 1.414 . S
C1517 C1515 1.444 . S
C1517 C1522 1.385 . S
C1518 C1514 1.432 . S
C1518 C1515 1.317 . S
C1518 H1530 0.930 . S
C1519 C1521 1.392 . S
C1519 C1522 1.370 . S
C1519 H1531 0.931 . S
N1520 C1513 1.359 . S
N1520 C1521 1.327 . S
N1520 Tb1523 2.600 . S
C1521 C1519 1.392 . S
C1521 N1520 1.327 . S
C1521 H1528 0.930 . S
C1522 C1517 1.385 . S
C1522 C1519 1.370 . S
C1522 H1541 0.930 . S
Tb1523 N1520 2.600 . S
Tb1523 N1524 2.660 . S
Tb1523 O1557 2.362 . S
Tb1523 O1558 2.421 . S
Tb1523 O1562 2.546 . S
Tb1523 O1563 2.610 . S
Tb1523 O1565 2.320 . S
Tb1523 O1566 2.552 . S
Tb1523 O1567 2.413 . S
Tb1523 C1587 2.833 . S
N1524 C1516 1.360 . S
N1524 Tb1523 2.660 . S
N1524 C1525 1.305 . S
C1525 N1524 1.305 . S
C1525 C1527 1.407 . S
C1525 H1532 0.930 . S
C1526 C1514 1.410 . S
C1526 C1527 1.345 . S
C1526 H1534 0.930 . S
C1527 C1525 1.407 . S
C1527 C1526 1.345 . S
C1527 H1529 0.930 . S
H1528 C1521 0.930 . S
H1529 C1527 0.930 . S
H1530 C1518 0.930 . S
H1531 C1519 0.931 . S
H1532 C1525 0.930 . S
H1533 C1547 0.930 . S
H1534 C1526 0.930 . S
H1535 C1553 0.930 . S
H1536 C1544 0.930 . S
H1537 C1551 0.931 . S
H1538 C1515 0.929 . S
H1539 C1545 0.930 . S
H1540 C1578 0.930 . S
H1541 C1522 0.930 . S
H1542 C1577 0.929 . S
N1543 Tb1512 2.660 . S
N1543 C1544 1.305 . S
N1543 C1548 1.360 . S
C1544 H1536 0.930 . S
C1544 N1543 1.305 . S
C1544 C1547 1.407 . S
C1545 H1539 0.930 . S
C1545 C1546 1.410 . S
C1545 C1547 1.345 . S
C1546 C1545 1.410 . S
C1546 C1548 1.417 . S
C1546 C1578 1.432 . S
C1547 H1533 0.930 . S
C1547 C1544 1.407 . S
C1547 C1545 1.345 . S
C1548 N1543 1.360 . S
C1548 C1546 1.417 . S
C1548 C1552 1.432 . S
H1549 C1554 0.930 . S
N1550 Tb1512 2.600 . S
N1550 C1552 1.359 . S
N1550 C1553 1.327 . S
C1551 H1537 0.931 . S
C1551 C1553 1.392 . S
C1551 C1554 1.370 . S
C1552 C1548 1.432 . S
C1552 N1550 1.359 . S
C1552 C1555 1.414 . S
C1553 H1535 0.930 . S
C1553 N1550 1.327 . S
C1553 C1551 1.392 . S
C1554 H1549 0.930 . S
C1554 C1551 1.370 . S
C1554 C1555 1.385 . S
C1555 C1552 1.414 . S
C1555 C1554 1.385 . S
C1555 C1577 1.444 . S
O1556 Tb1512 2.546 . S
O1556 C1576 1.251 . S
O1557 Tb1512 2.610 . S
O1557 Tb1523 2.362 . S
O1557 C1568 1.283 . S
O1558 Tb1523 2.421 . S
O1558 C1575 1.262 . S
O1559 Tb1512 2.320 . S
O1559 C1575 1.260 . S
O1560 Tb1512 2.552 . S
O1560 C1568 1.243 . S
O1561 Tb1512 2.413 . S
O1561 C1576 1.256 . S
O1562 Tb1523 2.546 . S
O1562 C1587 1.251 . S
O1563 Tb1512 2.362 . S
O1563 Tb1523 2.610 . S
O1563 C1579 1.283 . S
O1564 Tb1512 2.421 . S
O1564 C1586 1.262 . S
O1565 Tb1523 2.320 . S
O1565 C1586 1.260 . S
O1566 Tb1523 2.552 . S
O1566 C1579 1.243 . S
O1567 Tb1523 2.413 . S
O1567 C1587 1.256 . S
C1568 O1557 1.283 . S
C1568 O1560 1.243 . S
C1569 C1571 1.382 . S
C1569 C1573 1.393 . S
C1569 C1576 1.500 . S
C1570 C1571 1.400 . S
C1570 C1572 1.384 . S
C1571 C1569 1.382 . S
C1571 C1570 1.400 . S
C1571 H1588 0.930 . S
C1572 C1570 1.384 . S
C1572 C1574 1.392 . S
C1572 H1589 0.931 . S
C1573 C1569 1.393 . S
C1573 C1574 1.401 . S
C1573 H1590 0.930 . S
C1574 C1572 1.392 . S
C1574 C1573 1.401 . S
C1574 H1591 0.930 . S
C1575 O1558 1.262 . S
C1575 O1559 1.260 . S
C1576 Tb1512 2.833 . S
C1576 O1556 1.251 . S
C1576 O1561 1.256 . S
C1576 C1569 1.500 . S
C1577 H1542 0.929 . S
C1577 C1555 1.444 . S
C1577 C1578 1.317 . S
C1578 H1540 0.930 . S
C1578 C1546 1.432 . S
C1578 C1577 1.317 . S
C1579 O1563 1.283 . S
C1579 O1566 1.243 . S
C1580 C1581 1.382 . S
C1580 C1584 1.393 . S
C1580 C1587 1.500 . S
C1581 C1580 1.382 . S
C1581 C1582 1.400 . S
C1581 H1592 0.930 . S
C1582 C1581 1.400 . S
C1582 C1583 1.384 . S
C1583 C1582 1.384 . S
C1583 C1585 1.392 . S
C1583 H1593 0.931 . S
C1584 C1580 1.393 . S
C1584 C1585 1.401 . S
C1584 H1594 0.930 . S
C1585 C1583 1.392 . S
C1585 C1584 1.401 . S
C1585 H1595 0.930 . S
C1586 O1564 1.262 . S
C1586 O1565 1.260 . S
C1587 Tb1523 2.833 . S
C1587 O1562 1.251 . S
C1587 O1567 1.256 . S
C1587 C1580 1.500 . S
H1588 C1571 0.930 . S
H1589 C1572 0.931 . S
H1590 C1573 0.930 . S
H1591 C1574 0.930 . S
H1592 C1581 0.930 . S
H1593 C1583 0.931 . S
H1594 C1584 0.930 . S
H1595 C1585 0.930 . S
Tb1596 N1627 2.660 . S
Tb1596 N1634 2.600 . S
Tb1596 O1640 2.546 . S
Tb1596 O1641 2.610 . S
Tb1596 O1643 2.320 . S
Tb1596 O1644 2.552 . S
Tb1596 O1645 2.413 . S
Tb1596 O1647 2.362 . S
Tb1596 O1648 2.421 . S
Tb1596 C1660 2.833 . S
C1597 C1600 1.432 1_455 S
C1597 C1601 1.414 1_455 S
C1597 N1604 1.359 . S
C1598 C1600 1.417 . S
C1598 C1602 1.432 . S
C1598 C1610 1.410 . S
C1599 C1601 1.444 . S
C1599 C1602 1.317 . S
C1599 H1622 0.929 . S
C1600 C1597 1.432 1_655 S
C1600 C1598 1.417 . S
C1600 N1608 1.360 1_655 S
C1601 C1597 1.414 1_655 S
C1601 C1599 1.444 . S
C1601 C1606 1.385 . S
C1602 C1598 1.432 . S
C1602 C1599 1.317 . S
C1602 H1614 0.930 . S
C1603 C1605 1.392 . S
C1603 C1606 1.370 1_455 S
C1603 H1615 0.931 . S
N1604 C1597 1.359 . S
N1604 C1605 1.327 . S
N1604 Tb1607 2.600 . S
C1605 C1603 1.392 . S
C1605 N1604 1.327 . S
C1605 H1612 0.930 . S
C1606 C1601 1.385 . S
C1606 C1603 1.370 1_655 S
C1606 H1625 0.930 . S
Tb1607 N1604 2.600 . S
Tb1607 N1608 2.660 . S
Tb1607 O1641 2.362 . S
Tb1607 O1642 2.421 . S
Tb1607 O1646 2.546 . S
Tb1607 O1647 2.610 . S
Tb1607 O1649 2.320 . S
Tb1607 O1650 2.552 . S
Tb1607 O1651 2.479 . S
Tb1607 C1671 2.781 1_455 S
N1608 C1600 1.360 1_455 S
N1608 Tb1607 2.660 . S
N1608 C1609 1.305 . S
C1609 N1608 1.305 . S
C1609 C1611 1.407 1_455 S
C1609 H1616 0.930 . S
C1610 C1598 1.410 . S
C1610 C1611 1.345 . S
C1610 H1618 0.930 . S
C1611 C1609 1.407 1_655 S
C1611 C1610 1.345 . S
C1611 H1613 0.930 1_554 S
H1612 C1605 0.930 . S
H1613 C1611 0.930 1_556 S
H1614 C1602 0.930 . S
H1615 C1603 0.931 . S
H1616 C1609 0.930 . S
H1617 C1631 0.930 . S
H1618 C1610 0.930 . S
H1619 C1637 0.930 . S
H1620 C1628 0.930 . S
H1621 C1635 0.931 . S
H1622 C1599 0.929 . S
H1623 C1629 0.930 . S
H1624 C1662 0.930 . S
H1625 C1606 0.930 . S
H1626 C1661 0.929 . S
N1627 Tb1596 2.660 . S
N1627 C1628 1.305 . S
N1627 C1632 1.360 . S
C1628 H1620 0.930 . S
C1628 N1627 1.305 . S
C1628 C1631 1.407 . S
C1629 H1623 0.930 . S
C1629 C1630 1.410 . S
C1629 C1631 1.345 . S
C1630 C1629 1.410 . S
C1630 C1632 1.417 . S
C1630 C1662 1.432 . S
C1631 H1617 0.930 . S
C1631 C1628 1.407 . S
C1631 C1629 1.345 . S
C1632 N1627 1.360 . S
C1632 C1630 1.417 . S
C1632 C1636 1.432 . S
H1633 C1638 0.930 . S
N1634 Tb1596 2.600 . S
N1634 C1636 1.359 . S
N1634 C1637 1.327 1_554 S
C1635 H1621 0.931 . S
C1635 C1637 1.392 . S
C1635 C1638 1.370 . S
C1636 C1632 1.432 . S
C1636 N1634 1.359 . S
C1636 C1639 1.414 . S
C1637 H1619 0.930 . S
C1637 N1634 1.327 1_556 S
C1637 C1635 1.392 . S
C1638 H1633 0.930 . S
C1638 C1635 1.370 . S
C1638 C1639 1.385 1_556 S
C1639 C1636 1.414 . S
C1639 C1638 1.385 1_554 S
C1639 C1661 1.444 . S
O1640 Tb1596 2.546 . S
O1640 C1660 1.251 . S
O1641 Tb1596 2.610 . S
O1641 Tb1607 2.362 . S
O1641 C1652 1.283 . S
O1642 Tb1607 2.421 . S
O1642 C1659 1.262 . S
O1643 Tb1596 2.320 . S
O1643 C1659 1.260 . S
O1644 Tb1596 2.552 . S
O1644 C1652 1.243 . S
O1645 Tb1596 2.413 . S
O1645 C1660 1.256 . S
O1646 Tb1607 2.546 . S
O1646 C1671 1.216 1_455 S
O1647 Tb1596 2.362 . S
O1647 Tb1607 2.610 . S
O1647 C1663 1.283 . S
O1648 Tb1596 2.421 . S
O1648 C1670 1.262 . S
O1649 Tb1607 2.320 . S
O1649 C1670 1.260 . S
O1650 Tb1607 2.552 . S
O1650 C1663 1.243 . S
O1651 Tb1607 2.479 . S
O1651 C1671 1.229 1_455 S
C1652 O1641 1.283 . S
C1652 O1644 1.243 . S
C1653 C1655 1.382 . S
C1653 C1657 1.393 1_554 S
C1653 C1660 1.500 . S
C1654 C1655 1.400 . S
C1654 C1656 1.384 . S
C1655 C1653 1.382 . S
C1655 C1654 1.400 . S
C1655 H1672 0.930 . S
C1656 C1654 1.384 . S
C1656 C1658 1.392 1_554 S
C1656 H1673 0.931 . S
C1657 C1653 1.393 1_556 S
C1657 C1658 1.401 . S
C1657 H1674 0.930 . S
C1658 C1656 1.392 1_556 S
C1658 C1657 1.401 . S
C1658 H1675 0.930 . S
C1659 O1642 1.262 . S
C1659 O1643 1.260 . S
C1660 Tb1596 2.833 . S
C1660 O1640 1.251 . S
C1660 O1645 1.256 . S
C1660 C1653 1.500 . S
C1661 H1626 0.929 . S
C1661 C1639 1.444 . S
C1661 C1662 1.317 . S
C1662 H1624 0.930 . S
C1662 C1630 1.432 . S
C1662 C1661 1.317 . S
C1663 O1647 1.283 . S
C1663 O1650 1.243 . S
C1664 C1665 1.382 . S
C1664 C1668 1.393 . S
C1664 C1671 1.551 . S
C1665 C1664 1.382 . S
C1665 C1666 1.400 . S
C1665 H1676 0.930 . S
C1666 C1665 1.400 . S
C1666 C1667 1.384 . S
C1667 C1666 1.384 . S
C1667 C1669 1.392 . S
C1667 H1677 0.931 . S
C1668 C1664 1.393 . S
C1668 C1669 1.401 . S
C1668 H1678 0.930 . S
C1669 C1667 1.392 . S
C1669 C1668 1.401 . S
C1669 H1679 0.930 . S
C1670 O1648 1.262 . S
C1670 O1649 1.260 . S
C1671 Tb1607 2.781 1_655 S
C1671 O1646 1.216 1_655 S
C1671 O1651 1.229 1_655 S
C1671 C1664 1.551 . S
H1672 C1655 0.930 . S
H1673 C1656 0.931 . S
H1674 C1657 0.930 . S
H1675 C1658 0.930 . S
H1676 C1665 0.930 . S
H1677 C1667 0.931 . S
H1678 C1668 0.930 . S
H1679 C1669 0.930 . S
C1680 C1681 1.349 . S
C1680 C1682 1.327 . S
C1680 H1705 0.950 . S
C1681 C1680 1.349 . S
C1681 C1697 1.349 . S
C1682 C1680 1.327 . S
C1682 C1701 1.429 . S
C1682 H1706 0.950 . S
C1683 C1700 1.574 . S
C1683 C1702 1.368 . S
C1683 H1707 0.949 . S
H1684 C1688 0.928 1_554 S
C1685 C1686 1.349 1_556 S
C1685 C1687 1.327 . S
C1685 H1708 0.950 . S
C1686 C1685 1.349 1_554 S
C1686 C1698 1.349 . S
C1687 C1685 1.327 . S
C1687 C1703 1.429 . S
C1687 H1709 0.950 . S
C1688 H1684 0.928 1_556 S
C1688 C1696 1.586 . S
C1688 C1704 1.380 . S
H1689 C1697 0.950 . S
H1690 C1695 0.950 . S
H1691 C1696 0.949 . S
H1692 C1698 0.950 . S
H1693 C1699 0.950 . S
H1694 C1700 0.949 . S
C1695 H1690 0.950 . S
C1695 C1697 1.327 . S
C1695 C1701 1.429 . S
C1696 C1688 1.586 . S
C1696 H1691 0.949 . S
C1696 C1702 1.368 . S
C1697 C1681 1.349 . S
C1697 H1689 0.950 . S
C1697 C1695 1.327 . S
C1698 C1686 1.349 . S
C1698 H1692 0.950 . S
C1698 C1699 1.327 . S
C1699 H1693 0.950 . S
C1699 C1698 1.327 . S
C1699 C1703 1.429 1_554 S
C1700 C1683 1.574 . S
C1700 H1694 0.949 . S
C1700 C1704 1.368 . S
C1701 C1682 1.429 . S
C1701 C1695 1.429 . S
C1701 C1702 1.523 . S
C1702 C1683 1.368 . S
C1702 C1696 1.368 . S
C1702 C1701 1.523 . S
C1703 C1687 1.429 . S
C1703 C1699 1.429 1_556 S
C1703 C1704 1.523 . S
C1704 C1688 1.380 . S
C1704 C1700 1.368 . S
C1704 C1703 1.523 . S
H1705 C1680 0.950 . S
H1706 C1682 0.950 . S
H1707 C1683 0.949 . S
H1708 C1685 0.950 . S
H1709 C1687 0.950 . S
C1710 C1711 1.349 . S
C1710 C1712 1.327 . S
C1710 H1735 0.950 . S
C1711 C1710 1.349 . S
C1711 C1727 1.349 . S
C1712 C1710 1.327 . S
C1712 C1731 1.429 . S
C1712 H1736 0.950 . S
C1713 C1730 1.574 . S
C1713 C1732 1.368 . S
C1713 H1737 0.949 . S
H1714 C1718 0.949 . S
C1715 C1716 1.349 . S
C1715 C1717 1.327 . S
C1715 H1738 0.950 . S
C1716 C1715 1.349 . S
C1716 C1728 1.349 . S
C1717 C1715 1.327 . S
C1717 C1733 1.429 . S
C1717 H1739 0.950 . S
C1718 H1714 0.949 . S
C1718 C1726 1.574 . S
C1718 C1734 1.368 . S
H1719 C1727 0.950 . S
H1720 C1725 0.950 . S
H1721 C1726 0.949 . S
H1722 C1728 0.950 . S
H1723 C1729 0.950 . S
H1724 C1730 0.949 . S
C1725 H1720 0.950 . S
C1725 C1727 1.327 . S
C1725 C1731 1.429 . S
C1726 C1718 1.574 . S
C1726 H1721 0.949 . S
C1726 C1732 1.368 . S
C1727 C1711 1.349 . S
C1727 H1719 0.950 . S
C1727 C1725 1.327 . S
C1728 C1716 1.349 . S
C1728 H1722 0.950 . S
C1728 C1729 1.327 . S
C1729 H1723 0.950 . S
C1729 C1728 1.327 . S
C1729 C1733 1.429 . S
C1730 C1713 1.574 . S
C1730 H1724 0.949 . S
C1730 C1734 1.368 . S
C1731 C1712 1.429 . S
C1731 C1725 1.429 . S
C1731 C1732 1.523 . S
C1732 C1713 1.368 . S
C1732 C1726 1.368 . S
C1732 C1731 1.523 . S
C1733 C1717 1.429 . S
C1733 C1729 1.429 . S
C1733 C1734 1.523 . S
C1734 C1718 1.368 . S
C1734 C1730 1.368 . S
C1734 C1733 1.523 . S
H1735 C1710 0.950 . S
H1736 C1712 0.950 . S
H1737 C1713 0.949 . S
H1738 C1715 0.950 . S
H1739 C1717 0.950 . S
C1740 C1741 1.349 . S
C1740 C1742 1.327 . S
C1740 H1765 0.950 . S
C1741 C1740 1.349 . S
C1741 C1757 1.349 . S
C1742 C1740 1.327 . S
C1742 C1761 1.429 . S
C1742 H1766 0.950 . S
C1743 C1760 1.574 . S
C1743 C1762 1.368 . S
C1743 H1767 0.949 . S
H1744 C1748 0.949 . S
C1745 C1746 1.349 . S
C1745 C1747 1.327 . S
C1745 H1768 0.950 . S
C1746 C1745 1.349 . S
C1746 C1758 1.349 . S
C1747 C1745 1.327 . S
C1747 C1763 1.429 . S
C1747 H1769 0.950 . S
C1748 H1744 0.949 . S
C1748 C1756 1.574 . S
C1748 C1764 1.368 . S
H1749 C1757 0.950 . S
H1750 C1755 0.950 . S
H1751 C1756 0.949 . S
H1752 C1758 0.950 . S
H1753 C1759 0.950 . S
H1754 C1760 0.949 . S
C1755 H1750 0.950 . S
C1755 C1757 1.327 . S
C1755 C1761 1.429 . S
C1756 C1748 1.574 . S
C1756 H1751 0.949 . S
C1756 C1762 1.368 . S
C1757 C1741 1.349 . S
C1757 H1749 0.950 . S
C1757 C1755 1.327 . S
C1758 C1746 1.349 . S
C1758 H1752 0.950 . S
C1758 C1759 1.327 . S
C1759 H1753 0.950 . S
C1759 C1758 1.327 . S
C1759 C1763 1.429 . S
C1760 C1743 1.574 . S
C1760 H1754 0.949 . S
C1760 C1764 1.368 . S
C1761 C1742 1.429 . S
C1761 C1755 1.429 . S
C1761 C1762 1.523 . S
C1762 C1743 1.368 . S
C1762 C1756 1.368 . S
C1762 C1761 1.523 . S
C1763 C1747 1.429 . S
C1763 C1759 1.429 . S
C1763 C1764 1.523 . S
C1764 C1748 1.368 . S
C1764 C1760 1.368 . S
C1764 C1763 1.523 . S
H1765 C1740 0.950 . S
H1766 C1742 0.950 . S
H1767 C1743 0.949 . S
H1768 C1745 0.950 . S
H1769 C1747 0.950 . S
C1770 C1771 1.349 . S
C1770 C1772 1.327 . S
C1770 H1795 0.950 . S
C1771 C1770 1.349 . S
C1771 C1787 1.349 . S
C1772 C1770 1.327 . S
C1772 C1791 1.429 . S
C1772 H1796 0.950 . S
C1773 C1790 1.574 . S
C1773 C1792 1.368 . S
C1773 H1797 0.949 . S
H1774 C1778 0.949 . S
C1775 C1776 1.349 . S
C1775 C1777 1.327 . S
C1775 H1798 0.950 . S
C1776 C1775 1.349 . S
C1776 C1788 1.349 . S
C1777 C1775 1.327 . S
C1777 C1793 1.429 . S
C1777 H1799 0.950 . S
C1778 H1774 0.949 . S
C1778 C1786 1.574 . S
C1778 C1794 1.368 . S
H1779 C1787 0.950 . S
H1780 C1785 0.950 . S
H1781 C1786 0.949 . S
H1782 C1788 0.950 . S
H1783 C1789 0.950 . S
H1784 C1790 0.949 . S
C1785 H1780 0.950 . S
C1785 C1787 1.327 . S
C1785 C1791 1.429 . S
C1786 C1778 1.574 . S
C1786 H1781 0.949 . S
C1786 C1792 1.368 . S
C1787 C1771 1.349 . S
C1787 H1779 0.950 . S
C1787 C1785 1.327 . S
C1788 C1776 1.349 . S
C1788 H1782 0.950 . S
C1788 C1789 1.327 . S
C1789 H1783 0.950 . S
C1789 C1788 1.327 . S
C1789 C1793 1.429 . S
C1790 C1773 1.574 . S
C1790 H1784 0.949 . S
C1790 C1794 1.368 . S
C1791 C1772 1.429 . S
C1791 C1785 1.429 . S
C1791 C1792 1.523 . S
C1792 C1773 1.368 . S
C1792 C1786 1.368 . S
C1792 C1791 1.523 . S
C1793 C1777 1.429 . S
C1793 C1789 1.429 . S
C1793 C1794 1.523 . S
C1794 C1778 1.368 . S
C1794 C1790 1.368 . S
C1794 C1793 1.523 . S
H1795 C1770 0.950 . S
H1796 C1772 0.950 . S
H1797 C1773 0.949 . S
H1798 C1775 0.950 . S
H1799 C1777 0.950 . S
C1800 C1801 1.349 . S
C1800 C1802 1.327 . S
C1800 H1825 0.950 . S
C1801 C1800 1.349 . S
C1801 C1817 1.349 . S
C1802 C1800 1.327 . S
C1802 C1821 1.429 . S
C1802 H1826 0.950 . S
C1803 C1820 1.574 . S
C1803 C1822 1.368 . S
C1803 H1827 0.949 . S
H1804 C1808 0.949 . S
C1805 C1806 1.349 . S
C1805 C1807 1.327 . S
C1805 H1828 0.950 . S
C1806 C1805 1.349 . S
C1806 C1818 1.349 . S
C1807 C1805 1.327 . S
C1807 C1823 1.429 . S
C1807 H1829 0.950 . S
C1808 H1804 0.949 . S
C1808 C1816 1.574 . S
C1808 C1824 1.368 . S
H1809 C1817 0.950 1_655 S
H1810 C1815 0.950 1_655 S
H1811 C1816 0.949 . S
H1812 C1818 0.950 . S
H1813 C1819 0.950 . S
H1814 C1820 0.949 . S
C1815 H1810 0.950 1_455 S
C1815 C1817 1.327 . S
C1815 C1821 1.429 . S
C1816 C1808 1.574 . S
C1816 H1811 0.949 . S
C1816 C1822 1.368 . S
C1817 C1801 1.349 . S
C1817 H1809 0.950 1_455 S
C1817 C1815 1.327 . S
C1818 C1806 1.349 . S
C1818 H1812 0.950 . S
C1818 C1819 1.327 . S
C1819 H1813 0.950 . S
C1819 C1818 1.327 . S
C1819 C1823 1.429 . S
C1820 C1803 1.574 . S
C1820 H1814 0.949 . S
C1820 C1824 1.368 . S
C1821 C1802 1.429 . S
C1821 C1815 1.429 . S
C1821 C1822 1.523 . S
C1822 C1803 1.368 . S
C1822 C1816 1.368 . S
C1822 C1821 1.523 . S
C1823 C1807 1.429 . S
C1823 C1819 1.429 . S
C1823 C1824 1.523 . S
C1824 C1808 1.368 . S
C1824 C1820 1.368 . S
C1824 C1823 1.523 . S
H1825 C1800 0.950 . S
H1826 C1802 0.950 . S
H1827 C1803 0.949 . S
H1828 C1805 0.950 . S
H1829 C1807 0.950 . S
C1830 C1831 1.349 . S
C1830 C1832 1.327 . S
C1830 H1855 0.950 . S
C1831 C1830 1.349 . S
C1831 C1847 1.349 . S
C1832 C1830 1.327 . S
C1832 C1851 1.429 . S
C1832 H1856 0.950 . S
C1833 C1850 1.574 . S
C1833 C1852 1.368 . S
C1833 H1857 0.949 . S
H1834 C1838 0.949 . S
C1835 C1836 1.349 . S
C1835 C1837 1.327 . S
C1835 H1858 0.950 . S
C1836 C1835 1.349 . S
C1836 C1848 1.349 . S
C1837 C1835 1.327 . S
C1837 C1853 1.429 . S
C1837 H1859 0.950 . S
C1838 H1834 0.949 . S
C1838 C1846 1.574 . S
C1838 C1854 1.368 . S
H1839 C1847 0.950 . S
H1840 C1845 0.950 . S
H1841 C1846 0.949 . S
H1842 C1848 0.950 . S
H1843 C1849 0.950 . S
H1844 C1850 0.949 . S
C1845 H1840 0.950 . S
C1845 C1847 1.327 . S
C1845 C1851 1.429 . S
C1846 C1838 1.574 . S
C1846 H1841 0.949 . S
C1846 C1852 1.368 . S
C1847 C1831 1.349 . S
C1847 H1839 0.950 . S
C1847 C1845 1.327 . S
C1848 C1836 1.349 . S
C1848 H1842 0.950 . S
C1848 C1849 1.327 . S
C1849 H1843 0.950 . S
C1849 C1848 1.327 . S
C1849 C1853 1.429 . S
C1850 C1833 1.574 . S
C1850 H1844 0.949 . S
C1850 C1854 1.368 . S
C1851 C1832 1.429 . S
C1851 C1845 1.429 . S
C1851 C1852 1.523 . S
C1852 C1833 1.368 . S
C1852 C1846 1.368 . S
C1852 C1851 1.523 . S
C1853 C1837 1.429 . S
C1853 C1849 1.429 . S
C1853 C1854 1.523 . S
C1854 C1838 1.368 . S
C1854 C1850 1.368 . S
C1854 C1853 1.523 . S
H1855 C1830 0.950 . S
H1856 C1832 0.950 . S
H1857 C1833 0.949 . S
H1858 C1835 0.950 . S
H1859 C1837 0.950 . S
C1860 C1861 1.349 . S
C1860 C1862 1.327 . S
C1860 H1885 0.950 . S
C1861 C1860 1.349 . S
C1861 C1877 1.349 . S
C1862 C1860 1.327 . S
C1862 C1881 1.429 . S
C1862 H1886 0.950 . S
C1863 C1880 1.574 . S
C1863 C1882 1.368 . S
C1863 H1887 0.949 . S
H1864 C1868 0.949 . S
C1865 C1866 1.349 . S
C1865 C1867 1.327 . S
C1865 H1888 0.950 . S
C1866 C1865 1.349 . S
C1866 C1878 1.349 . S
C1867 C1865 1.327 . S
C1867 C1883 1.429 . S
C1867 H1889 0.950 . S
C1868 H1864 0.949 . S
C1868 C1876 1.574 . S
C1868 C1884 1.368 . S
H1869 C1877 0.950 . S
H1870 C1875 0.950 . S
H1871 C1876 0.949 . S
H1872 C1878 0.950 . S
H1873 C1879 0.950 . S
H1874 C1880 0.949 . S
C1875 H1870 0.950 . S
C1875 C1877 1.327 . S
C1875 C1881 1.429 . S
C1876 C1868 1.574 . S
C1876 H1871 0.949 . S
C1876 C1882 1.368 . S
C1877 C1861 1.349 . S
C1877 H1869 0.950 . S
C1877 C1875 1.327 . S
C1878 C1866 1.349 . S
C1878 H1872 0.950 . S
C1878 C1879 1.327 . S
C1879 H1873 0.950 . S
C1879 C1878 1.327 . S
C1879 C1883 1.429 . S
C1880 C1863 1.574 . S
C1880 H1874 0.949 . S
C1880 C1884 1.368 . S
C1881 C1862 1.429 . S
C1881 C1875 1.429 . S
C1881 C1882 1.523 . S
C1882 C1863 1.368 . S
C1882 C1876 1.368 . S
C1882 C1881 1.523 . S
C1883 C1867 1.429 . S
C1883 C1879 1.429 . S
C1883 C1884 1.523 . S
C1884 C1868 1.368 . S
C1884 C1880 1.368 . S
C1884 C1883 1.523 . S
H1885 C1860 0.950 . S
H1886 C1862 0.950 . S
H1887 C1863 0.949 . S
H1888 C1865 0.950 . S
H1889 C1867 0.950 . S
C1890 C1891 1.349 . S
C1890 C1892 1.327 . S
C1890 H1915 0.950 . S
C1891 C1890 1.349 . S
C1891 C1907 1.349 . S
C1892 C1890 1.327 . S
C1892 C1911 1.429 . S
C1892 H1916 0.950 . S
C1893 C1910 1.574 . S
C1893 C1912 1.368 . S
C1893 H1917 0.949 . S
H1894 C1898 0.949 . S
C1895 C1896 1.349 . S
C1895 C1897 1.327 . S
C1895 H1918 0.950 . S
C1896 C1895 1.349 . S
C1896 C1908 1.349 . S
C1897 C1895 1.327 . S
C1897 C1913 1.429 . S
C1897 H1919 0.950 . S
C1898 H1894 0.949 . S
C1898 C1906 1.574 . S
C1898 C1914 1.368 . S
H1899 C1907 0.950 . S
H1900 C1905 0.950 . S
H1901 C1906 0.949 . S
H1902 C1908 0.950 . S
H1903 C1909 0.950 . S
H1904 C1910 0.949 . S
C1905 H1900 0.950 . S
C1905 C1907 1.327 . S
C1905 C1911 1.429 . S
C1906 C1898 1.574 . S
C1906 H1901 0.949 . S
C1906 C1912 1.368 . S
C1907 C1891 1.349 . S
C1907 H1899 0.950 . S
C1907 C1905 1.327 . S
C1908 C1896 1.349 . S
C1908 H1902 0.950 . S
C1908 C1909 1.327 . S
C1909 H1903 0.950 . S
C1909 C1908 1.327 . S
C1909 C1913 1.429 . S
C1910 C1893 1.574 . S
C1910 H1904 0.949 . S
C1910 C1914 1.368 . S
C1911 C1892 1.429 . S
C1911 C1905 1.429 . S
C1911 C1912 1.523 . S
C1912 C1893 1.368 . S
C1912 C1906 1.368 . S
C1912 C1911 1.523 . S
C1913 C1897 1.429 . S
C1913 C1909 1.429 . S
C1913 C1914 1.523 . S
C1914 C1898 1.368 . S
C1914 C1910 1.368 . S
C1914 C1913 1.523 . S
H1915 C1890 0.950 . S
H1916 C1892 0.950 . S
H1917 C1893 0.949 . S
H1918 C1895 0.950 . S
H1919 C1897 0.950 . S
C1920 C1921 1.349 . S
C1920 C1922 1.327 . S
C1920 H1945 0.950 . S
C1921 C1920 1.349 . S
C1921 C1937 1.349 . S
C1922 C1920 1.327 . S
C1922 C1941 1.429 . S
C1922 H1946 0.950 . S
C1923 C1940 1.574 . S
C1923 C1942 1.368 1_455 S
C1923 H1947 0.949 . S
H1924 C1928 0.949 . S
C1925 C1926 1.349 . S
C1925 C1927 1.327 . S
C1925 H1948 0.950 . S
C1926 C1925 1.349 . S
C1926 C1938 1.349 . S
C1927 C1925 1.327 . S
C1927 C1943 1.429 . S
C1927 H1949 0.950 . S
C1928 H1924 0.949 . S
C1928 C1936 1.574 . S
C1928 C1944 1.368 1_655 S
H1929 C1937 0.950 . S
H1930 C1935 0.950 . S
H1931 C1936 0.949 . S
H1932 C1938 0.950 . S
H1933 C1939 0.965 . S
H1934 C1940 0.949 . S
C1935 H1930 0.950 . S
C1935 C1937 1.327 . S
C1935 C1941 1.429 . S
C1936 C1928 1.574 . S
C1936 H1931 0.949 . S
C1936 C1942 1.368 . S
C1937 C1921 1.349 . S
C1937 H1929 0.950 . S
C1937 C1935 1.327 . S
C1938 C1926 1.349 . S
C1938 H1932 0.950 . S
C1938 C1939 1.327 . S
C1939 H1933 0.965 . S
C1939 C1938 1.327 . S
C1939 C1943 1.429 . S
C1940 C1923 1.574 . S
C1940 H1934 0.949 . S
C1940 C1944 1.368 . S
C1941 C1922 1.429 . S
C1941 C1935 1.429 . S
C1941 C1942 1.523 . S
C1942 C1923 1.368 1_655 S
C1942 C1936 1.368 . S
C1942 C1941 1.523 . S
C1943 C1927 1.429 . S
C1943 C1939 1.429 . S
C1943 C1944 1.523 . S
C1944 C1928 1.368 1_455 S
C1944 C1940 1.368 . S
C1944 C1943 1.523 . S
H1945 C1920 0.950 . S
H1946 C1922 0.950 . S
H1947 C1923 0.949 . S
H1948 C1925 0.950 . S
H1949 C1927 0.950 . S
C1950 C1951 1.349 . S
C1950 C1952 1.327 . S
C1950 H1975 0.950 . S
C1951 C1950 1.349 . S
C1951 C1967 1.349 . S
C1952 C1950 1.327 . S
C1952 C1971 1.429 . S
C1952 H1976 0.950 . S
C1953 C1970 1.574 . S
C1953 C1972 1.368 . S
C1953 H1977 0.949 . S
H1954 C1958 0.949 . S
C1955 C1956 1.349 . S
C1955 C1957 1.327 . S
C1955 H1978 0.950 . S
C1956 C1955 1.349 . S
C1956 C1968 1.349 . S
C1957 C1955 1.327 . S
C1957 C1973 1.429 . S
C1957 H1979 0.950 . S
C1958 H1954 0.949 . S
C1958 C1966 1.574 . S
C1958 C1974 1.368 . S
H1959 C1967 0.950 . S
H1960 C1965 0.950 . S
H1961 C1966 0.949 . S
H1962 C1968 0.950 . S
H1963 C1969 0.950 . S
H1964 C1970 0.949 . S
C1965 H1960 0.950 . S
C1965 C1967 1.327 . S
C1965 C1971 1.429 . S
C1966 C1958 1.574 . S
C1966 H1961 0.949 . S
C1966 C1972 1.368 . S
C1967 C1951 1.349 . S
C1967 H1959 0.950 . S
C1967 C1965 1.327 . S
C1968 C1956 1.349 . S
C1968 H1962 0.950 . S
C1968 C1969 1.327 . S
C1969 H1963 0.950 . S
C1969 C1968 1.327 . S
C1969 C1973 1.429 . S
C1970 C1953 1.574 . S
C1970 H1964 0.949 . S
C1970 C1974 1.368 . S
C1971 C1952 1.429 . S
C1971 C1965 1.429 . S
C1971 C1972 1.523 . S
C1972 C1953 1.368 . S
C1972 C1966 1.368 . S
C1972 C1971 1.523 . S
C1973 C1957 1.429 . S
C1973 C1969 1.429 . S
C1973 C1974 1.523 . S
C1974 C1958 1.368 . S
C1974 C1970 1.368 . S
C1974 C1973 1.523 . S
H1975 C1950 0.950 . S
H1976 C1952 0.950 . S
H1977 C1953 0.949 . S
H1978 C1955 0.950 . S
H1979 C1957 0.950 . S
C1980 C1981 1.349 . S
C1980 C1982 1.327 . S
C1980 H2005 0.950 . S
C1981 C1980 1.349 . S
C1981 C1997 1.349 . S
C1982 C1980 1.327 . S
C1982 C2001 1.429 . S
C1982 H2006 0.950 . S
C1983 C2000 1.574 . S
C1983 C2002 1.368 . S
C1983 H2007 0.949 . S
H1984 C1988 0.949 . S
C1985 C1986 1.349 . S
C1985 C1987 1.327 . S
C1985 H2008 0.950 . S
C1986 C1985 1.349 . S
C1986 C1998 1.349 . S
C1987 C1985 1.327 . S
C1987 C2003 1.429 . S
C1987 H2009 0.950 . S
C1988 H1984 0.949 . S
C1988 C1996 1.574 . S
C1988 C2004 1.368 . S
H1989 C1997 0.950 . S
H1990 C1995 0.950 . S
H1991 C1996 0.949 . S
H1992 C1998 0.950 . S
H1993 C1999 0.950 . S
H1994 C2000 0.949 . S
C1995 H1990 0.950 . S
C1995 C1997 1.327 . S
C1995 C2001 1.429 . S
C1996 C1988 1.574 . S
C1996 H1991 0.949 . S
C1996 C2002 1.368 . S
C1997 C1981 1.349 . S
C1997 H1989 0.950 . S
C1997 C1995 1.327 . S
C1998 C1986 1.349 . S
C1998 H1992 0.950 . S
C1998 C1999 1.327 . S
C1999 H1993 0.950 . S
C1999 C1998 1.327 . S
C1999 C2003 1.429 . S
C2000 C1983 1.574 . S
C2000 H1994 0.949 . S
C2000 C2004 1.368 . S
C2001 C1982 1.429 . S
C2001 C1995 1.429 . S
C2001 C2002 1.523 . S
C2002 C1983 1.368 . S
C2002 C1996 1.368 . S
C2002 C2001 1.523 . S
C2003 C1987 1.429 . S
C2003 C1999 1.429 . S
C2003 C2004 1.523 . S
C2004 C1988 1.368 . S
C2004 C2000 1.368 . S
C2004 C2003 1.523 . S
H2005 C1980 0.950 . S
H2006 C1982 0.950 . S
H2007 C1983 0.949 . S
H2008 C1985 0.950 . S
H2009 C1987 0.950 . S
C2010 C2011 1.349 . S
C2010 C2012 1.327 . S
C2010 H2035 0.950 . S
C2011 C2010 1.349 . S
C2011 C2027 1.349 . S
C2012 C2010 1.327 . S
C2012 C2031 1.429 . S
C2012 H2036 0.950 . S
C2013 C2030 1.574 . S
C2013 C2032 1.368 . S
C2013 H2037 0.949 . S
H2014 C2018 0.949 . S
C2015 C2016 1.349 . S
C2015 C2017 1.327 . S
C2015 H2038 0.950 . S
C2016 C2015 1.349 . S
C2016 C2028 1.349 . S
C2017 C2015 1.327 . S
C2017 C2033 1.429 . S
C2017 H2039 0.950 . S
C2018 H2014 0.949 . S
C2018 C2026 1.574 . S
C2018 C2034 1.368 . S
H2019 C2027 0.950 . S
H2020 C2025 0.950 . S
H2021 C2026 0.949 . S
H2022 C2028 0.950 . S
H2023 C2029 0.950 . S
H2024 C2030 0.949 . S
C2025 H2020 0.950 . S
C2025 C2027 1.327 . S
C2025 C2031 1.429 . S
C2026 C2018 1.574 . S
C2026 H2021 0.949 . S
C2026 C2032 1.368 . S
C2027 C2011 1.349 . S
C2027 H2019 0.950 . S
C2027 C2025 1.327 . S
C2028 C2016 1.349 . S
C2028 H2022 0.950 . S
C2028 C2029 1.327 . S
C2029 H2023 0.950 . S
C2029 C2028 1.327 . S
C2029 C2033 1.429 . S
C2030 C2013 1.574 . S
C2030 H2024 0.949 . S
C2030 C2034 1.368 . S
C2031 C2012 1.429 . S
C2031 C2025 1.429 . S
C2031 C2032 1.523 . S
C2032 C2013 1.368 . S
C2032 C2026 1.368 . S
C2032 C2031 1.523 . S
C2033 C2017 1.429 . S
C2033 C2029 1.429 . S
C2033 C2034 1.523 . S
C2034 C2018 1.368 . S
C2034 C2030 1.368 . S
C2034 C2033 1.523 . S
H2035 C2010 0.950 . S
H2036 C2012 0.950 . S
H2037 C2013 0.949 . S
H2038 C2015 0.950 . S
H2039 C2017 0.950 . S
C2040 C2041 1.349 . S
C2040 C2042 1.327 . S
C2040 H2065 0.950 . S
C2041 C2040 1.349 . S
C2041 C2057 1.349 . S
C2042 C2040 1.327 . S
C2042 C2061 1.429 . S
C2042 H2066 0.950 . S
C2043 C2060 1.574 . S
C2043 C2062 1.371 . S
C2043 H2067 0.949 . S
H2044 C2048 0.949 . S
C2045 C2046 1.349 . S
C2045 C2047 1.327 . S
C2045 H2068 0.950 . S
C2046 C2045 1.349 . S
C2046 C2058 1.349 . S
C2047 C2045 1.327 . S
C2047 C2063 1.429 . S
C2047 H2069 0.950 . S
C2048 H2044 0.949 . S
C2048 C2056 1.574 1_455 S
C2048 C2064 1.368 . S
H2049 C2057 0.950 . S
H2050 C2055 0.950 . S
H2051 C2056 0.949 . S
H2052 C2058 0.950 . S
H2053 C2059 0.950 . S
H2054 C2060 0.949 . S
C2055 H2050 0.950 . S
C2055 C2057 1.327 . S
C2055 C2061 1.429 . S
C2056 C2048 1.574 1_655 S
C2056 H2051 0.949 . S
C2056 C2062 1.370 1_655 S
C2057 C2041 1.349 . S
C2057 H2049 0.950 . S
C2057 C2055 1.327 . S
C2058 C2046 1.349 . S
C2058 H2052 0.950 . S
C2058 C2059 1.327 . S
C2059 H2053 0.950 . S
C2059 C2058 1.327 . S
C2059 C2063 1.429 . S
C2060 C2043 1.574 . S
C2060 H2054 0.949 . S
C2060 C2064 1.368 . S
C2061 C2042 1.429 . S
C2061 C2055 1.429 . S
C2061 C2062 1.518 1_655 S
C2062 C2043 1.371 . S
C2062 C2056 1.370 1_455 S
C2062 C2061 1.518 1_455 S
C2063 C2047 1.429 . S
C2063 C2059 1.429 . S
C2063 C2064 1.523 . S
C2064 C2048 1.368 . S
C2064 C2060 1.368 . S
C2064 C2063 1.523 . S
H2065 C2040 0.950 . S
H2066 C2042 0.950 . S
H2067 C2043 0.949 . S
H2068 C2045 0.950 . S
H2069 C2047 0.950 . S
C2070 C2071 1.349 . S
C2070 C2072 1.327 . S
C2070 H2095 0.950 . S
C2071 C2070 1.349 . S
C2071 C2087 1.349 . S
C2072 C2070 1.327 . S
C2072 C2091 1.429 . S
C2072 H2096 0.950 . S
C2073 C2090 1.574 . S
C2073 C2092 1.368 . S
C2073 H2097 0.949 . S
H2074 C2078 0.949 . S
C2075 C2076 1.349 . S
C2075 C2077 1.327 . S
C2075 H2098 0.950 . S
C2076 C2075 1.349 . S
C2076 C2088 1.349 . S
C2077 C2075 1.327 . S
C2077 C2093 1.429 . S
C2077 H2099 0.950 . S
C2078 H2074 0.949 . S
C2078 C2086 1.574 . S
C2078 C2094 1.368 . S
H2079 C2087 0.950 . S
H2080 C2085 0.950 . S
H2081 C2086 0.949 . S
H2082 C2088 0.950 . S
H2083 C2089 0.950 . S
H2084 C2090 0.949 . S
C2085 H2080 0.950 . S
C2085 C2087 1.327 . S
C2085 C2091 1.429 . S
C2086 C2078 1.574 . S
C2086 H2081 0.949 . S
C2086 C2092 1.368 . S
C2087 C2071 1.349 . S
C2087 H2079 0.950 . S
C2087 C2085 1.327 . S
C2088 C2076 1.349 . S
C2088 H2082 0.950 . S
C2088 C2089 1.327 . S
C2089 H2083 0.950 . S
C2089 C2088 1.327 . S
C2089 C2093 1.429 . S
C2090 C2073 1.574 . S
C2090 H2084 0.949 . S
C2090 C2094 1.368 . S
C2091 C2072 1.429 . S
C2091 C2085 1.429 . S
C2091 C2092 1.523 . S
C2092 C2073 1.368 . S
C2092 C2086 1.368 . S
C2092 C2091 1.523 . S
C2093 C2077 1.429 . S
C2093 C2089 1.429 . S
C2093 C2094 1.523 . S
C2094 C2078 1.368 . S
C2094 C2090 1.368 . S
C2094 C2093 1.523 . S
H2095 C2070 0.950 . S
H2096 C2072 0.950 . S
H2097 C2073 0.949 . S
H2098 C2075 0.950 . S
H2099 C2077 0.950 . S
C2100 C2101 1.349 . S
C2100 C2102 1.327 . S
C2100 H2125 0.950 . S
C2101 C2100 1.349 . S
C2101 C2117 1.349 . S
C2102 C2100 1.327 . S
C2102 C2121 1.429 . S
C2102 H2126 0.950 . S
C2103 C2120 1.574 . S
C2103 C2122 1.368 . S
C2103 H2127 0.949 . S
H2104 C2108 0.949 . S
C2105 C2106 1.349 . S
C2105 C2107 1.327 . S
C2105 H2128 0.950 . S
C2106 C2105 1.349 . S
C2106 C2118 1.349 . S
C2107 C2105 1.327 . S
C2107 C2123 1.429 . S
C2107 H2129 0.950 . S
C2108 H2104 0.949 . S
C2108 C2116 1.574 . S
C2108 C2124 1.368 . S
H2109 C2117 0.950 . S
H2110 C2115 0.950 . S
H2111 C2116 0.949 . S
H2112 C2118 0.950 . S
H2113 C2119 0.950 . S
H2114 C2120 0.949 . S
C2115 H2110 0.950 . S
C2115 C2117 1.327 . S
C2115 C2121 1.429 . S
C2116 C2108 1.574 . S
C2116 H2111 0.949 . S
C2116 C2122 1.368 . S
C2117 C2101 1.349 . S
C2117 H2109 0.950 . S
C2117 C2115 1.327 . S
C2118 C2106 1.349 . S
C2118 H2112 0.950 . S
C2118 C2119 1.327 . S
C2119 H2113 0.950 . S
C2119 C2118 1.327 . S
C2119 C2123 1.429 . S
C2120 C2103 1.574 . S
C2120 H2114 0.949 . S
C2120 C2124 1.368 . S
C2121 C2102 1.429 . S
C2121 C2115 1.429 . S
C2121 C2122 1.523 . S
C2122 C2103 1.368 . S
C2122 C2116 1.368 . S
C2122 C2121 1.523 . S
C2123 C2107 1.429 . S
C2123 C2119 1.429 . S
C2123 C2124 1.523 . S
C2124 C2108 1.368 . S
C2124 C2120 1.368 . S
C2124 C2123 1.523 . S
H2125 C2100 0.950 . S
H2126 C2102 0.950 . S
H2127 C2103 0.949 . S
H2128 C2105 0.950 . S
H2129 C2107 0.950 . S
C2130 C2131 1.349 . S
C2130 C2132 1.327 . S
C2130 H2155 0.950 . S
C2131 C2130 1.349 . S
C2131 C2147 1.349 . S
C2132 C2130 1.327 . S
C2132 C2151 1.429 . S
C2132 H2156 0.950 . S
C2133 C2150 1.574 . S
C2133 C2152 1.368 . S
C2133 H2157 0.949 . S
H2134 C2138 0.949 . S
C2135 C2136 1.349 . S
C2135 C2137 1.327 . S
C2135 H2158 0.950 . S
C2136 C2135 1.349 . S
C2136 C2148 1.349 . S
C2137 C2135 1.327 . S
C2137 C2153 1.429 . S
C2137 H2159 0.950 . S
C2138 H2134 0.949 . S
C2138 C2146 1.574 . S
C2138 C2154 1.368 . S
H2139 C2147 0.950 . S
H2140 C2145 0.950 . S
H2141 C2146 0.949 . S
H2142 C2148 0.950 . S
H2143 C2149 0.950 . S
H2144 C2150 0.949 . S
C2145 H2140 0.950 . S
C2145 C2147 1.327 . S
C2145 C2151 1.429 . S
C2146 C2138 1.574 . S
C2146 H2141 0.949 . S
C2146 C2152 1.368 . S
C2147 C2131 1.349 . S
C2147 H2139 0.950 . S
C2147 C2145 1.327 . S
C2148 C2136 1.349 . S
C2148 H2142 0.950 . S
C2148 C2149 1.327 . S
C2149 H2143 0.950 . S
C2149 C2148 1.327 . S
C2149 C2153 1.429 . S
C2150 C2133 1.574 . S
C2150 H2144 0.949 . S
C2150 C2154 1.368 . S
C2151 C2132 1.429 . S
C2151 C2145 1.429 . S
C2151 C2152 1.523 . S
C2152 C2133 1.368 . S
C2152 C2146 1.368 . S
C2152 C2151 1.523 . S
C2153 C2137 1.429 . S
C2153 C2149 1.429 . S
C2153 C2154 1.523 . S
C2154 C2138 1.368 . S
C2154 C2150 1.368 . S
C2154 C2153 1.523 . S
H2155 C2130 0.950 . S
H2156 C2132 0.950 . S
H2157 C2133 0.949 . S
H2158 C2135 0.950 . S
H2159 C2137 0.950 . S
C2160 C2161 1.344 . S
C2160 C2162 1.327 . S
C2160 H2185 0.955 1_554 S
C2161 C2160 1.344 . S
C2161 C2177 1.349 . S
C2162 C2160 1.327 . S
C2162 C2181 1.429 . S
C2162 H2186 0.950 1_554 S
C2163 C2180 1.554 1_565 S
C2163 C2182 1.368 . S
C2163 H2187 0.949 . S
H2164 C2168 0.949 1_556 S
C2165 C2166 1.349 . S
C2165 C2167 1.327 . S
C2165 H2188 0.950 . S
C2166 C2165 1.349 . S
C2166 C2178 1.349 . S
C2167 C2165 1.327 . S
C2167 C2183 1.429 . S
C2167 H2189 0.950 . S
C2168 H2164 0.949 1_554 S
C2168 C2176 1.574 . S
C2168 C2184 1.368 . S
H2169 C2177 0.950 . S
H2170 C2175 0.950 . S
H2171 C2176 0.949 1_556 S
H2172 C2178 0.950 . S
H2173 C2179 1.001 1_565 S
H2174 C2180 0.966 . S
C2175 H2170 0.950 . S
C2175 C2177 1.327 . S
C2175 C2181 1.429 . S
C2176 C2168 1.574 . S
C2176 H2171 0.949 1_554 S
C2176 C2182 1.368 . S
C2177 C2161 1.349 . S
C2177 H2169 0.950 . S
C2177 C2175 1.327 . S
C2178 C2166 1.349 . S
C2178 H2172 0.950 . S
C2178 C2179 1.327 . S
C2179 H2173 1.001 1_545 S
C2179 C2178 1.327 . S
C2179 C2183 1.429 . S
C2180 C2163 1.554 1_545 S
C2180 H2174 0.966 . S
C2180 C2184 1.371 1_545 S
C2181 C2162 1.429 . S
C2181 C2175 1.429 . S
C2181 C2182 1.523 . S
C2182 C2163 1.368 . S
C2182 C2176 1.368 . S
C2182 C2181 1.523 . S
C2183 C2167 1.429 . S
C2183 C2179 1.429 . S
C2183 C2184 1.523 1_545 S
C2184 C2168 1.368 . S
C2184 C2180 1.371 1_565 S
C2184 C2183 1.523 1_565 S
H2185 C2160 0.955 1_556 S
H2186 C2162 0.950 1_556 S
H2187 C2163 0.949 . S
H2188 C2165 0.950 . S
H2189 C2167 0.950 . S
C2190 C2191 1.380 . S
C2190 C2192 1.327 . S
C2190 H2215 0.950 . S
C2191 C2190 1.380 . S
C2191 C2207 1.328 1_554 S
C2192 C2190 1.327 . S
C2192 C2211 1.429 . S
C2192 H2216 0.950 . S
C2193 C2210 1.574 . S
C2193 C2212 1.368 1_556 S
C2193 H2217 0.949 . S
H2194 C2198 0.949 . S
C2195 C2196 1.349 1_556 S
C2195 C2197 1.327 . S
C2195 H2218 0.950 . S
C2196 C2195 1.349 1_554 S
C2196 C2208 1.349 . S
C2197 C2195 1.327 . S
C2197 C2213 1.429 1_556 S
C2197 H2219 0.950 . S
C2198 H2194 0.949 . S
C2198 C2206 1.574 . S
C2198 C2214 1.368 . S
H2199 C2207 0.950 . S
H2200 C2205 0.950 . S
H2201 C2206 0.949 . S
H2202 C2208 0.950 . S
H2203 C2209 0.950 . S
H2204 C2210 0.949 . S
C2205 H2200 0.950 . S
C2205 C2207 1.327 . S
C2205 C2211 1.429 1_556 S
C2206 C2198 1.574 . S
C2206 H2201 0.949 . S
C2206 C2212 1.368 . S
C2207 C2191 1.328 1_556 S
C2207 H2199 0.950 . S
C2207 C2205 1.327 . S
C2208 C2196 1.349 . S
C2208 H2202 0.950 . S
C2208 C2209 1.327 . S
C2209 H2203 0.950 . S
C2209 C2208 1.327 . S
C2209 C2213 1.429 . S
C2210 C2193 1.574 . S
C2210 H2204 0.949 . S
C2210 C2214 1.368 1_556 S
C2211 C2192 1.429 . S
C2211 C2205 1.429 1_554 S
C2211 C2212 1.523 . S
C2212 C2193 1.368 1_554 S
C2212 C2206 1.368 . S
C2212 C2211 1.523 . S
C2213 C2197 1.429 1_554 S
C2213 C2209 1.429 . S
C2213 C2214 1.523 . S
C2214 C2198 1.368 . S
C2214 C2210 1.368 1_554 S
C2214 C2213 1.523 . S
H2215 C2190 0.950 . S
H2216 C2192 0.950 . S
H2217 C2193 0.949 . S
H2218 C2195 0.950 . S
H2219 C2197 0.950 . S
C2220 C2221 1.349 . S
C2220 C2222 1.327 . S
C2220 H2245 0.950 . S
C2221 C2220 1.349 . S
C2221 C2237 1.349 . S
C2222 C2220 1.327 . S
C2222 C2241 1.429 . S
C2222 H2246 0.950 . S
C2223 C2240 1.574 . S
C2223 C2242 1.368 . S
C2223 H2247 0.949 . S
H2224 C2228 0.949 . S
C2225 C2226 1.349 . S
C2225 C2227 1.327 . S
C2225 H2248 0.950 . S
C2226 C2225 1.349 . S
C2226 C2238 1.349 . S
C2227 C2225 1.327 . S
C2227 C2243 1.429 . S
C2227 H2249 0.950 . S
C2228 H2224 0.949 . S
C2228 C2236 1.574 . S
C2228 C2244 1.368 . S
H2229 C2237 0.950 . S
H2230 C2235 0.950 . S
H2231 C2236 0.949 . S
H2232 C2238 0.950 . S
H2233 C2239 0.950 . S
H2234 C2240 0.949 . S
C2235 H2230 0.950 . S
C2235 C2237 1.327 . S
C2235 C2241 1.429 . S
C2236 C2228 1.574 . S
C2236 H2231 0.949 . S
C2236 C2242 1.368 . S
C2237 C2221 1.349 . S
C2237 H2229 0.950 . S
C2237 C2235 1.327 . S
C2238 C2226 1.349 . S
C2238 H2232 0.950 . S
C2238 C2239 1.327 . S
C2239 H2233 0.950 . S
C2239 C2238 1.327 . S
C2239 C2243 1.429 . S
C2240 C2223 1.574 . S
C2240 H2234 0.949 . S
C2240 C2244 1.368 . S
C2241 C2222 1.429 . S
C2241 C2235 1.429 . S
C2241 C2242 1.523 . S
C2242 C2223 1.368 . S
C2242 C2236 1.368 . S
C2242 C2241 1.523 . S
C2243 C2227 1.429 . S
C2243 C2239 1.429 . S
C2243 C2244 1.523 . S
C2244 C2228 1.368 . S
C2244 C2240 1.368 . S
C2244 C2243 1.523 . S
H2245 C2220 0.950 . S
H2246 C2222 0.950 . S
H2247 C2223 0.949 . S
H2248 C2225 0.950 . S
H2249 C2227 0.950 . S
C2250 C2251 1.349 . S
C2250 C2252 1.327 . S
C2250 H2275 0.950 . S
C2251 C2250 1.349 . S
C2251 C2267 1.349 . S
C2252 C2250 1.327 . S
C2252 C2271 1.429 . S
C2252 H2276 0.950 . S
C2253 C2270 1.574 . S
C2253 C2272 1.368 . S
C2253 H2277 0.949 . S
H2254 C2258 0.949 . S
C2255 C2256 1.395 . S
C2255 C2257 1.271 1_455 S
C2255 H2278 0.964 . S
C2256 C2255 1.395 . S
C2256 C2268 1.349 . S
C2257 C2255 1.271 1_655 S
C2257 C2273 1.429 . S
C2257 H2279 0.950 . S
C2258 H2254 0.949 . S
C2258 C2266 1.574 . S
C2258 C2274 1.368 . S
H2259 C2267 0.950 . S
H2260 C2265 0.950 . S
H2261 C2266 0.949 . S
H2262 C2268 0.950 . S
H2263 C2269 0.950 . S
H2264 C2270 0.949 . S
C2265 H2260 0.950 . S
C2265 C2267 1.327 . S
C2265 C2271 1.429 . S
C2266 C2258 1.574 . S
C2266 H2261 0.949 . S
C2266 C2272 1.368 . S
C2267 C2251 1.349 . S
C2267 H2259 0.950 . S
C2267 C2265 1.327 . S
C2268 C2256 1.349 . S
C2268 H2262 0.950 . S
C2268 C2269 1.327 1_455 S
C2269 H2263 0.950 . S
C2269 C2268 1.327 1_655 S
C2269 C2273 1.429 . S
C2270 C2253 1.574 . S
C2270 H2264 0.949 . S
C2270 C2274 1.368 . S
C2271 C2252 1.429 . S
C2271 C2265 1.429 . S
C2271 C2272 1.523 . S
C2272 C2253 1.368 . S
C2272 C2266 1.368 . S
C2272 C2271 1.523 . S
C2273 C2257 1.429 . S
C2273 C2269 1.429 . S
C2273 C2274 1.523 . S
C2274 C2258 1.368 . S
C2274 C2270 1.368 . S
C2274 C2273 1.523 . S
H2275 C2250 0.950 . S
H2276 C2252 0.950 . S
H2277 C2253 0.949 . S
H2278 C2255 0.964 . S
H2279 C2257 0.950 . S
C2280 C2281 1.349 . S
C2280 C2282 1.327 . S
C2280 H2305 0.950 . S
C2281 C2280 1.349 . S
C2281 C2297 1.349 . S
C2282 C2280 1.327 . S
C2282 C2301 1.429 . S
C2282 H2306 0.950 . S
C2283 C2300 1.574 . S
C2283 C2302 1.368 . S
C2283 H2307 0.949 . S
H2284 C2288 0.949 . S
C2285 C2286 1.349 . S
C2285 C2287 1.327 . S
C2285 H2308 0.950 . S
C2286 C2285 1.349 . S
C2286 C2298 1.349 . S
C2287 C2285 1.327 . S
C2287 C2303 1.429 . S
C2287 H2309 0.950 . S
C2288 H2284 0.949 . S
C2288 C2296 1.574 . S
C2288 C2304 1.368 . S
H2289 C2297 0.950 . S
H2290 C2295 0.950 . S
H2291 C2296 0.949 . S
H2292 C2298 0.950 . S
H2293 C2299 0.950 . S
H2294 C2300 0.949 . S
C2295 H2290 0.950 . S
C2295 C2297 1.327 . S
C2295 C2301 1.429 . S
C2296 C2288 1.574 . S
C2296 H2291 0.949 . S
C2296 C2302 1.368 . S
C2297 C2281 1.349 . S
C2297 H2289 0.950 . S
C2297 C2295 1.327 . S
C2298 C2286 1.349 . S
C2298 H2292 0.950 . S
C2298 C2299 1.327 . S
C2299 H2293 0.950 . S
C2299 C2298 1.327 . S
C2299 C2303 1.429 . S
C2300 C2283 1.574 . S
C2300 H2294 0.949 . S
C2300 C2304 1.368 . S
C2301 C2282 1.429 . S
C2301 C2295 1.429 . S
C2301 C2302 1.523 . S
C2302 C2283 1.368 . S
C2302 C2296 1.368 . S
C2302 C2301 1.523 . S
C2303 C2287 1.429 . S
C2303 C2299 1.429 . S
C2303 C2304 1.523 . S
C2304 C2288 1.368 . S
C2304 C2300 1.368 . S
C2304 C2303 1.523 . S
H2305 C2280 0.950 . S
H2306 C2282 0.950 . S
H2307 C2283 0.949 . S
H2308 C2285 0.950 . S
H2309 C2287 0.950 . S
C2310 C2311 1.349 . S
C2310 C2312 1.327 . S
C2310 H2335 0.950 . S
C2311 C2310 1.349 . S
C2311 C2327 1.349 . S
C2312 C2310 1.327 . S
C2312 C2331 1.429 . S
C2312 H2336 0.950 . S
C2313 C2330 1.574 . S
C2313 C2332 1.368 . S
C2313 H2337 0.949 . S
H2314 C2318 0.949 . S
C2315 C2316 1.349 . S
C2315 C2317 1.327 . S
C2315 H2338 0.950 . S
C2316 C2315 1.349 . S
C2316 C2328 1.349 . S
C2317 C2315 1.327 . S
C2317 C2333 1.429 . S
C2317 H2339 0.950 . S
C2318 H2314 0.949 . S
C2318 C2326 1.574 . S
C2318 C2334 1.368 . S
H2319 C2327 0.950 . S
H2320 C2325 0.950 . S
H2321 C2326 0.949 . S
H2322 C2328 0.950 . S
H2323 C2329 0.950 . S
H2324 C2330 0.949 . S
C2325 H2320 0.950 . S
C2325 C2327 1.327 . S
C2325 C2331 1.429 . S
C2326 C2318 1.574 . S
C2326 H2321 0.949 . S
C2326 C2332 1.368 . S
C2327 C2311 1.349 . S
C2327 H2319 0.950 . S
C2327 C2325 1.327 . S
C2328 C2316 1.349 . S
C2328 H2322 0.950 . S
C2328 C2329 1.327 . S
C2329 H2323 0.950 . S
C2329 C2328 1.327 . S
C2329 C2333 1.429 . S
C2330 C2313 1.574 . S
C2330 H2324 0.949 . S
C2330 C2334 1.368 . S
C2331 C2312 1.429 . S
C2331 C2325 1.429 . S
C2331 C2332 1.523 . S
C2332 C2313 1.368 . S
C2332 C2326 1.368 . S
C2332 C2331 1.523 . S
C2333 C2317 1.429 . S
C2333 C2329 1.429 . S
C2333 C2334 1.523 . S
C2334 C2318 1.368 . S
C2334 C2330 1.368 . S
C2334 C2333 1.523 . S
H2335 C2310 0.950 . S
H2336 C2312 0.950 . S
H2337 C2313 0.949 . S
H2338 C2315 0.950 . S
H2339 C2317 0.950 . S
C2340 C2341 1.349 . S
C2340 C2342 1.327 . S
C2340 H2365 0.950 . S
C2341 C2340 1.349 . S
C2341 C2357 1.349 . S
C2342 C2340 1.327 . S
C2342 C2361 1.429 . S
C2342 H2366 0.950 . S
C2343 C2360 1.574 . S
C2343 C2362 1.368 . S
C2343 H2367 0.949 . S
H2344 C2348 0.949 . S
C2345 C2346 1.349 . S
C2345 C2347 1.327 . S
C2345 H2368 0.950 . S
C2346 C2345 1.349 . S
C2346 C2358 1.349 . S
C2347 C2345 1.327 . S
C2347 C2363 1.429 . S
C2347 H2369 0.950 . S
C2348 H2344 0.949 . S
C2348 C2356 1.574 . S
C2348 C2364 1.368 . S
H2349 C2357 0.950 . S
H2350 C2355 0.950 . S
H2351 C2356 0.949 . S
H2352 C2358 0.950 . S
H2353 C2359 0.950 . S
H2354 C2360 0.949 . S
C2355 H2350 0.950 . S
C2355 C2357 1.327 . S
C2355 C2361 1.429 . S
C2356 C2348 1.574 . S
C2356 H2351 0.949 . S
C2356 C2362 1.368 . S
C2357 C2341 1.349 . S
C2357 H2349 0.950 . S
C2357 C2355 1.327 . S
C2358 C2346 1.349 . S
C2358 H2352 0.950 . S
C2358 C2359 1.327 . S
C2359 H2353 0.950 . S
C2359 C2358 1.327 . S
C2359 C2363 1.429 . S
C2360 C2343 1.574 . S
C2360 H2354 0.949 . S
C2360 C2364 1.368 . S
C2361 C2342 1.429 . S
C2361 C2355 1.429 . S
C2361 C2362 1.523 . S
C2362 C2343 1.368 . S
C2362 C2356 1.368 . S
C2362 C2361 1.523 . S
C2363 C2347 1.429 . S
C2363 C2359 1.429 . S
C2363 C2364 1.523 . S
C2364 C2348 1.368 . S
C2364 C2360 1.368 . S
C2364 C2363 1.523 . S
H2365 C2340 0.950 . S
H2366 C2342 0.950 . S
H2367 C2343 0.949 . S
H2368 C2345 0.950 . S
H2369 C2347 0.950 . S
C2370 C2371 1.349 . S
C2370 C2372 1.327 . S
C2370 H2395 0.950 . S
C2371 C2370 1.349 . S
C2371 C2387 1.349 . S
C2372 C2370 1.327 . S
C2372 C2391 1.429 . S
C2372 H2396 0.950 . S
C2373 C2390 1.574 . S
C2373 C2392 1.368 . S
C2373 H2397 0.949 . S
H2374 C2378 0.949 . S
C2375 C2376 1.349 . S
C2375 C2377 1.327 . S
C2375 H2398 0.950 . S
C2376 C2375 1.349 . S
C2376 C2388 1.349 . S
C2377 C2375 1.327 . S
C2377 C2393 1.429 . S
C2377 H2399 0.950 . S
C2378 H2374 0.949 . S
C2378 C2386 1.574 . S
C2378 C2394 1.368 . S
H2379 C2387 0.950 . S
H2380 C2385 0.950 . S
H2381 C2386 0.949 . S
H2382 C2388 0.950 . S
H2383 C2389 0.950 . S
H2384 C2390 0.949 . S
C2385 H2380 0.950 . S
C2385 C2387 1.327 . S
C2385 C2391 1.429 . S
C2386 C2378 1.574 . S
C2386 H2381 0.949 . S
C2386 C2392 1.368 . S
C2387 C2371 1.349 . S
C2387 H2379 0.950 . S
C2387 C2385 1.327 . S
C2388 C2376 1.349 . S
C2388 H2382 0.950 . S
C2388 C2389 1.327 . S
C2389 H2383 0.950 . S
C2389 C2388 1.327 . S
C2389 C2393 1.429 . S
C2390 C2373 1.574 . S
C2390 H2384 0.949 . S
C2390 C2394 1.368 . S
C2391 C2372 1.429 . S
C2391 C2385 1.429 . S
C2391 C2392 1.523 . S
C2392 C2373 1.368 . S
C2392 C2386 1.368 . S
C2392 C2391 1.523 . S
C2393 C2377 1.429 . S
C2393 C2389 1.429 . S
C2393 C2394 1.523 . S
C2394 C2378 1.368 . S
C2394 C2390 1.368 . S
C2394 C2393 1.523 . S
H2395 C2370 0.950 . S
H2396 C2372 0.950 . S
H2397 C2373 0.949 . S
H2398 C2375 0.950 . S
H2399 C2377 0.950 . S
C2400 C2401 1.349 . S
C2400 C2402 1.327 . S
C2400 H2425 0.950 . S
C2401 C2400 1.349 . S
C2401 C2417 1.349 . S
C2402 C2400 1.327 . S
C2402 C2421 1.429 . S
C2402 H2426 0.950 . S
C2403 C2420 1.574 . S
C2403 C2422 1.368 . S
C2403 H2427 0.949 . S
H2404 C2408 0.949 . S
C2405 C2406 1.349 . S
C2405 C2407 1.327 . S
C2405 H2428 0.950 . S
C2406 C2405 1.349 . S
C2406 C2418 1.349 . S
C2407 C2405 1.327 . S
C2407 C2423 1.429 . S
C2407 H2429 0.950 . S
C2408 H2404 0.949 . S
C2408 C2416 1.574 . S
C2408 C2424 1.368 . S
H2409 C2417 0.950 . S
H2410 C2415 0.950 . S
H2411 C2416 0.949 . S
H2412 C2418 0.950 . S
H2413 C2419 0.950 . S
H2414 C2420 0.949 . S
C2415 H2410 0.950 . S
C2415 C2417 1.327 . S
C2415 C2421 1.429 . S
C2416 C2408 1.574 . S
C2416 H2411 0.949 . S
C2416 C2422 1.368 . S
C2417 C2401 1.349 . S
C2417 H2409 0.950 . S
C2417 C2415 1.327 . S
C2418 C2406 1.349 . S
C2418 H2412 0.950 . S
C2418 C2419 1.327 . S
C2419 H2413 0.950 . S
C2419 C2418 1.327 . S
C2419 C2423 1.429 . S
C2420 C2403 1.574 . S
C2420 H2414 0.949 . S
C2420 C2424 1.368 . S
C2421 C2402 1.429 . S
C2421 C2415 1.429 . S
C2421 C2422 1.523 . S
C2422 C2403 1.368 . S
C2422 C2416 1.368 . S
C2422 C2421 1.523 . S
C2423 C2407 1.429 . S
C2423 C2419 1.429 . S
C2423 C2424 1.523 . S
C2424 C2408 1.368 . S
C2424 C2420 1.368 . S
C2424 C2423 1.523 . S
H2425 C2400 0.950 . S
H2426 C2402 0.950 . S
H2427 C2403 0.949 . S
H2428 C2405 0.950 . S
H2429 C2407 0.950 . S
C2430 C2431 1.349 . S
C2430 C2432 1.327 . S
C2430 H2455 0.950 . S
C2431 C2430 1.349 . S
C2431 C2447 1.349 . S
C2432 C2430 1.327 . S
C2432 C2451 1.429 . S
C2432 H2456 0.950 . S
C2433 C2450 1.574 . S
C2433 C2452 1.368 . S
C2433 H2457 0.949 . S
H2434 C2438 0.949 . S
C2435 C2436 1.349 . S
C2435 C2437 1.327 . S
C2435 H2458 0.950 . S
C2436 C2435 1.349 . S
C2436 C2448 1.349 . S
C2437 C2435 1.327 . S
C2437 C2453 1.429 . S
C2437 H2459 0.950 . S
C2438 H2434 0.949 . S
C2438 C2446 1.574 . S
C2438 C2454 1.368 . S
H2439 C2447 0.950 . S
H2440 C2445 0.950 . S
H2441 C2446 0.949 . S
H2442 C2448 0.950 . S
H2443 C2449 0.950 . S
H2444 C2450 0.949 . S
C2445 H2440 0.950 . S
C2445 C2447 1.327 . S
C2445 C2451 1.429 . S
C2446 C2438 1.574 . S
C2446 H2441 0.949 . S
C2446 C2452 1.368 . S
C2447 C2431 1.349 . S
C2447 H2439 0.950 . S
C2447 C2445 1.327 . S
C2448 C2436 1.349 . S
C2448 H2442 0.950 . S
C2448 C2449 1.327 . S
C2449 H2443 0.950 . S
C2449 C2448 1.327 . S
C2449 C2453 1.429 . S
C2450 C2433 1.574 . S
C2450 H2444 0.949 . S
C2450 C2454 1.368 . S
C2451 C2432 1.429 . S
C2451 C2445 1.429 . S
C2451 C2452 1.523 . S
C2452 C2433 1.368 . S
C2452 C2446 1.368 . S
C2452 C2451 1.523 . S
C2453 C2437 1.429 . S
C2453 C2449 1.429 . S
C2453 C2454 1.523 . S
C2454 C2438 1.368 . S
C2454 C2450 1.368 . S
C2454 C2453 1.523 . S
H2455 C2430 0.950 . S
H2456 C2432 0.950 . S
H2457 C2433 0.949 . S
H2458 C2435 0.950 . S
H2459 C2437 0.950 . S
C2460 C2461 1.349 . S
C2460 C2462 1.327 . S
C2460 H2485 0.950 . S
C2461 C2460 1.349 . S
C2461 C2477 1.349 . S
C2462 C2460 1.327 . S
C2462 C2481 1.429 . S
C2462 H2486 0.950 . S
C2463 C2480 1.574 . S
C2463 C2482 1.368 . S
C2463 H2487 0.949 . S
H2464 C2468 0.949 . S
C2465 C2466 1.349 . S
C2465 C2467 1.327 . S
C2465 H2488 0.950 . S
C2466 C2465 1.349 . S
C2466 C2478 1.349 . S
C2467 C2465 1.327 . S
C2467 C2483 1.429 . S
C2467 H2489 0.950 . S
C2468 H2464 0.949 . S
C2468 C2476 1.574 . S
C2468 C2484 1.368 . S
H2469 C2477 0.950 . S
H2470 C2475 0.950 . S
H2471 C2476 0.949 . S
H2472 C2478 0.950 . S
H2473 C2479 0.950 . S
H2474 C2480 0.949 . S
C2475 H2470 0.950 . S
C2475 C2477 1.327 . S
C2475 C2481 1.429 . S
C2476 C2468 1.574 . S
C2476 H2471 0.949 . S
C2476 C2482 1.368 . S
C2477 C2461 1.349 . S
C2477 H2469 0.950 . S
C2477 C2475 1.327 . S
C2478 C2466 1.349 . S
C2478 H2472 0.950 . S
C2478 C2479 1.327 . S
C2479 H2473 0.950 . S
C2479 C2478 1.327 . S
C2479 C2483 1.429 . S
C2480 C2463 1.574 . S
C2480 H2474 0.949 . S
C2480 C2484 1.368 . S
C2481 C2462 1.429 . S
C2481 C2475 1.429 . S
C2481 C2482 1.523 . S
C2482 C2463 1.368 . S
C2482 C2476 1.368 . S
C2482 C2481 1.523 . S
C2483 C2467 1.429 . S
C2483 C2479 1.429 . S
C2483 C2484 1.523 . S
C2484 C2468 1.368 . S
C2484 C2480 1.368 . S
C2484 C2483 1.523 . S
H2485 C2460 0.950 . S
H2486 C2462 0.950 . S
H2487 C2463 0.949 . S
H2488 C2465 0.950 . S
H2489 C2467 0.950 . S
C2490 C2491 1.349 . S
C2490 C2492 1.327 . S
C2490 H2515 0.950 . S
C2491 C2490 1.349 . S
C2491 C2507 1.349 . S
C2492 C2490 1.327 . S
C2492 C2511 1.429 . S
C2492 H2516 0.950 . S
C2493 C2510 1.574 . S
C2493 C2512 1.368 . S
C2493 H2517 0.949 . S
H2494 C2498 0.949 . S
C2495 C2496 1.349 . S
C2495 C2497 1.327 . S
C2495 H2518 0.950 . S
C2496 C2495 1.349 . S
C2496 C2508 1.349 . S
C2497 C2495 1.327 . S
C2497 C2513 1.429 . S
C2497 H2519 0.950 . S
C2498 H2494 0.949 . S
C2498 C2506 1.574 . S
C2498 C2514 1.368 . S
H2499 C2507 0.950 . S
H2500 C2505 0.950 . S
H2501 C2506 0.949 . S
H2502 C2508 0.950 . S
H2503 C2509 0.950 . S
H2504 C2510 0.949 . S
C2505 H2500 0.950 . S
C2505 C2507 1.327 . S
C2505 C2511 1.429 . S
C2506 C2498 1.574 . S
C2506 H2501 0.949 . S
C2506 C2512 1.368 . S
C2507 C2491 1.349 . S
C2507 H2499 0.950 . S
C2507 C2505 1.327 . S
C2508 C2496 1.349 . S
C2508 H2502 0.950 . S
C2508 C2509 1.327 . S
C2509 H2503 0.950 . S
C2509 C2508 1.327 . S
C2509 C2513 1.429 . S
C2510 C2493 1.574 . S
C2510 H2504 0.949 . S
C2510 C2514 1.368 . S
C2511 C2492 1.429 . S
C2511 C2505 1.429 . S
C2511 C2512 1.523 . S
C2512 C2493 1.368 . S
C2512 C2506 1.368 . S
C2512 C2511 1.523 . S
C2513 C2497 1.429 . S
C2513 C2509 1.429 . S
C2513 C2514 1.523 . S
C2514 C2498 1.368 . S
C2514 C2510 1.368 . S
C2514 C2513 1.523 . S
H2515 C2490 0.950 . S
H2516 C2492 0.950 . S
H2517 C2493 0.949 . S
H2518 C2495 0.950 . S
H2519 C2497 0.950 . S
C2520 C2521 1.349 . S
C2520 C2522 1.327 . S
C2520 H2545 0.950 . S
C2521 C2520 1.349 . S
C2521 C2537 1.349 . S
C2522 C2520 1.327 . S
C2522 C2541 1.429 . S
C2522 H2546 0.950 . S
C2523 C2540 1.574 . S
C2523 C2542 1.368 . S
C2523 H2547 0.949 . S
H2524 C2528 0.949 . S
C2525 C2526 1.349 . S
C2525 C2527 1.327 . S
C2525 H2548 0.950 . S
C2526 C2525 1.349 . S
C2526 C2538 1.349 . S
C2527 C2525 1.327 . S
C2527 C2543 1.429 . S
C2527 H2549 0.950 . S
C2528 H2524 0.949 . S
C2528 C2536 1.574 . S
C2528 C2544 1.368 . S
H2529 C2537 0.950 . S
H2530 C2535 0.950 . S
H2531 C2536 0.949 . S
H2532 C2538 0.950 . S
H2533 C2539 0.950 . S
H2534 C2540 0.949 . S
C2535 H2530 0.950 . S
C2535 C2537 1.327 . S
C2535 C2541 1.429 . S
C2536 C2528 1.574 . S
C2536 H2531 0.949 . S
C2536 C2542 1.368 . S
C2537 C2521 1.349 . S
C2537 H2529 0.950 . S
C2537 C2535 1.327 . S
C2538 C2526 1.349 . S
C2538 H2532 0.950 . S
C2538 C2539 1.327 . S
C2539 H2533 0.950 . S
C2539 C2538 1.327 . S
C2539 C2543 1.429 . S
C2540 C2523 1.574 . S
C2540 H2534 0.949 . S
C2540 C2544 1.368 . S
C2541 C2522 1.429 . S
C2541 C2535 1.429 . S
C2541 C2542 1.523 . S
C2542 C2523 1.368 . S
C2542 C2536 1.368 . S
C2542 C2541 1.523 . S
C2543 C2527 1.429 . S
C2543 C2539 1.429 . S
C2543 C2544 1.523 . S
C2544 C2528 1.368 . S
C2544 C2540 1.368 . S
C2544 C2543 1.523 . S
H2545 C2520 0.950 . S
H2546 C2522 0.950 . S
H2547 C2523 0.949 . S
H2548 C2525 0.950 . S
H2549 C2527 0.950 . S
C2550 C2551 1.349 . S
C2550 C2552 1.327 . S
C2550 H2575 0.950 . S
C2551 C2550 1.349 . S
C2551 C2567 1.349 . S
C2552 C2550 1.327 . S
C2552 C2571 1.429 . S
C2552 H2576 0.950 . S
C2553 C2570 1.574 . S
C2553 C2572 1.368 . S
C2553 H2577 0.949 . S
H2554 C2558 0.949 . S
C2555 C2556 1.349 . S
C2555 C2557 1.327 . S
C2555 H2578 0.950 . S
C2556 C2555 1.349 . S
C2556 C2568 1.349 . S
C2557 C2555 1.327 . S
C2557 C2573 1.429 . S
C2557 H2579 0.950 . S
C2558 H2554 0.949 . S
C2558 C2566 1.574 . S
C2558 C2574 1.368 . S
H2559 C2567 0.950 . S
H2560 C2565 0.950 . S
H2561 C2566 0.949 . S
H2562 C2568 0.950 . S
H2563 C2569 0.950 . S
H2564 C2570 0.949 . S
C2565 H2560 0.950 . S
C2565 C2567 1.327 . S
C2565 C2571 1.429 . S
C2566 C2558 1.574 . S
C2566 H2561 0.949 . S
C2566 C2572 1.368 . S
C2567 C2551 1.349 . S
C2567 H2559 0.950 . S
C2567 C2565 1.327 . S
C2568 C2556 1.349 . S
C2568 H2562 0.950 . S
C2568 C2569 1.327 . S
C2569 H2563 0.950 . S
C2569 C2568 1.327 . S
C2569 C2573 1.429 . S
C2570 C2553 1.574 . S
C2570 H2564 0.949 . S
C2570 C2574 1.368 . S
C2571 C2552 1.429 . S
C2571 C2565 1.429 . S
C2571 C2572 1.523 . S
C2572 C2553 1.368 . S
C2572 C2566 1.368 . S
C2572 C2571 1.523 . S
C2573 C2557 1.429 . S
C2573 C2569 1.429 . S
C2573 C2574 1.523 . S
C2574 C2558 1.368 . S
C2574 C2570 1.368 . S
C2574 C2573 1.523 . S
H2575 C2550 0.950 . S
H2576 C2552 0.950 . S
H2577 C2553 0.949 . S
H2578 C2555 0.950 . S
H2579 C2557 0.950 . S
C2580 C2581 1.349 . S
C2580 C2582 1.327 . S
C2580 H2605 0.950 . S
C2581 C2580 1.349 . S
C2581 C2597 1.349 . S
C2582 C2580 1.327 . S
C2582 C2601 1.429 . S
C2582 H2606 0.950 . S
C2583 C2600 1.574 . S
C2583 C2602 1.368 . S
C2583 H2607 0.949 . S
H2584 C2588 0.949 . S
C2585 C2586 1.353 1_556 S
C2585 C2587 1.327 . S
C2585 H2608 0.950 . S
C2586 C2585 1.353 1_554 S
C2586 C2598 1.375 . S
C2587 C2585 1.327 . S
C2587 C2603 1.429 . S
C2587 H2609 0.950 . S
C2588 H2584 0.949 . S
C2588 C2596 1.574 . S
C2588 C2604 1.368 . S
H2589 C2597 0.950 . S
H2590 C2595 0.950 . S
H2591 C2596 0.949 . S
H2592 C2598 0.950 . S
H2593 C2599 0.950 1_554 S
H2594 C2600 0.949 . S
C2595 H2590 0.950 . S
C2595 C2597 1.327 . S
C2595 C2601 1.429 . S
C2596 C2588 1.574 . S
C2596 H2591 0.949 . S
C2596 C2602 1.368 . S
C2597 C2581 1.349 . S
C2597 H2589 0.950 . S
C2597 C2595 1.327 . S
C2598 C2586 1.375 . S
C2598 H2592 0.950 . S
C2598 C2599 1.327 1_554 S
C2599 H2593 0.950 1_556 S
C2599 C2598 1.327 1_556 S
C2599 C2603 1.429 . S
C2600 C2583 1.574 . S
C2600 H2594 0.949 . S
C2600 C2604 1.368 . S
C2601 C2582 1.429 . S
C2601 C2595 1.429 . S
C2601 C2602 1.523 . S
C2602 C2583 1.368 . S
C2602 C2596 1.368 . S
C2602 C2601 1.523 . S
C2603 C2587 1.429 . S
C2603 C2599 1.429 . S
C2603 C2604 1.523 . S
C2604 C2588 1.368 . S
C2604 C2600 1.368 . S
C2604 C2603 1.523 . S
H2605 C2580 0.950 . S
H2606 C2582 0.950 . S
H2607 C2583 0.949 . S
H2608 C2585 0.950 . S
H2609 C2587 0.950 . S
C2610 C2611 1.349 . S
C2610 C2612 1.327 . S
C2610 H2635 0.950 . S
C2611 C2610 1.349 . S
C2611 C2627 1.349 . S
C2612 C2610 1.327 . S
C2612 C2631 1.429 . S
C2612 H2636 0.950 . S
C2613 C2630 1.574 . S
C2613 C2632 1.368 . S
C2613 H2637 0.949 . S
H2614 C2618 0.949 . S
C2615 C2616 1.349 . S
C2615 C2617 1.327 . S
C2615 H2638 0.950 . S
C2616 C2615 1.349 . S
C2616 C2628 1.349 . S
C2617 C2615 1.327 . S
C2617 C2633 1.429 . S
C2617 H2639 0.950 . S
C2618 H2614 0.949 . S
C2618 C2626 1.574 . S
C2618 C2634 1.368 . S
H2619 C2627 0.950 . S
H2620 C2625 0.950 . S
H2621 C2626 0.949 . S
H2622 C2628 0.950 . S
H2623 C2629 0.950 . S
H2624 C2630 0.949 . S
C2625 H2620 0.950 . S
C2625 C2627 1.327 . S
C2625 C2631 1.429 . S
C2626 C2618 1.574 . S
C2626 H2621 0.949 . S
C2626 C2632 1.368 . S
C2627 C2611 1.349 . S
C2627 H2619 0.950 . S
C2627 C2625 1.327 . S
C2628 C2616 1.349 . S
C2628 H2622 0.950 . S
C2628 C2629 1.327 . S
C2629 H2623 0.950 . S
C2629 C2628 1.327 . S
C2629 C2633 1.429 . S
C2630 C2613 1.574 . S
C2630 H2624 0.949 . S
C2630 C2634 1.368 . S
C2631 C2612 1.429 . S
C2631 C2625 1.429 . S
C2631 C2632 1.523 . S
C2632 C2613 1.368 . S
C2632 C2626 1.368 . S
C2632 C2631 1.523 . S
C2633 C2617 1.429 . S
C2633 C2629 1.429 . S
C2633 C2634 1.523 . S
C2634 C2618 1.368 . S
C2634 C2630 1.368 . S
C2634 C2633 1.523 . S
H2635 C2610 0.950 . S
H2636 C2612 0.950 . S
H2637 C2613 0.949 . S
H2638 C2615 0.950 . S
H2639 C2617 0.950 . S
C2640 C2641 1.341 1_565 S
C2640 C2642 1.327 1_565 S
C2640 H2665 0.958 . S
C2641 C2640 1.341 1_545 S
C2641 C2657 1.349 . S
C2642 C2640 1.327 1_545 S
C2642 C2661 1.429 . S
C2642 H2666 0.950 1_545 S
C2643 C2660 1.574 . S
C2643 C2662 1.368 . S
C2643 H2667 0.949 . S
H2644 C2648 0.949 . S
C2645 C2646 1.349 . S
C2645 C2647 1.327 . S
C2645 H2668 0.950 . S
C2646 C2645 1.349 . S
C2646 C2658 1.349 . S
C2647 C2645 1.327 . S
C2647 C2663 1.429 . S
C2647 H2669 0.950 . S
C2648 H2644 0.949 . S
C2648 C2656 1.574 . S
C2648 C2664 1.368 . S
H2649 C2657 0.950 . S
H2650 C2655 0.950 . S
H2651 C2656 0.949 1_565 S
H2652 C2658 0.950 . S
H2653 C2659 0.950 . S
H2654 C2660 0.949 . S
C2655 H2650 0.950 . S
C2655 C2657 1.327 . S
C2655 C2661 1.429 . S
C2656 C2648 1.574 . S
C2656 H2651 0.949 1_545 S
C2656 C2662 1.368 . S
C2657 C2641 1.349 . S
C2657 H2649 0.950 . S
C2657 C2655 1.327 . S
C2658 C2646 1.349 . S
C2658 H2652 0.950 . S
C2658 C2659 1.327 . S
C2659 H2653 0.950 . S
C2659 C2658 1.327 . S
C2659 C2663 1.429 . S
C2660 C2643 1.574 . S
C2660 H2654 0.949 . S
C2660 C2664 1.368 . S
C2661 C2642 1.429 . S
C2661 C2655 1.429 . S
C2661 C2662 1.523 . S
C2662 C2643 1.368 . S
C2662 C2656 1.368 . S
C2662 C2661 1.523 . S
C2663 C2647 1.429 . S
C2663 C2659 1.429 . S
C2663 C2664 1.523 . S
C2664 C2648 1.368 . S
C2664 C2660 1.368 . S
C2664 C2663 1.523 . S
H2665 C2640 0.958 . S
H2666 C2642 0.950 1_565 S
H2667 C2643 0.949 . S
H2668 C2645 0.950 . S
H2669 C2647 0.950 . S
C2670 C2671 1.349 . S
C2670 C2672 1.327 . S
C2670 H2695 0.950 . S
C2671 C2670 1.349 . S
C2671 C2687 1.349 . S
C2672 C2670 1.327 . S
C2672 C2691 1.429 . S
C2672 H2696 0.950 . S
C2673 C2690 1.574 . S
C2673 C2692 1.368 . S
C2673 H2697 0.949 . S
H2674 C2678 0.949 . S
C2675 C2676 1.349 . S
C2675 C2677 1.327 . S
C2675 H2698 0.950 . S
C2676 C2675 1.349 . S
C2676 C2688 1.349 . S
C2677 C2675 1.327 . S
C2677 C2693 1.429 . S
C2677 H2699 0.950 . S
C2678 H2674 0.949 . S
C2678 C2686 1.574 . S
C2678 C2694 1.368 . S
H2679 C2687 0.950 . S
H2680 C2685 0.950 . S
H2681 C2686 0.949 . S
H2682 C2688 0.950 . S
H2683 C2689 0.950 . S
H2684 C2690 0.949 . S
C2685 H2680 0.950 . S
C2685 C2687 1.327 . S
C2685 C2691 1.429 . S
C2686 C2678 1.574 . S
C2686 H2681 0.949 . S
C2686 C2692 1.368 . S
C2687 C2671 1.349 . S
C2687 H2679 0.950 . S
C2687 C2685 1.327 . S
C2688 C2676 1.349 . S
C2688 H2682 0.950 . S
C2688 C2689 1.327 . S
C2689 H2683 0.950 . S
C2689 C2688 1.327 . S
C2689 C2693 1.429 . S
C2690 C2673 1.574 . S
C2690 H2684 0.949 . S
C2690 C2694 1.368 . S
C2691 C2672 1.429 . S
C2691 C2685 1.429 . S
C2691 C2692 1.523 . S
C2692 C2673 1.368 . S
C2692 C2686 1.368 . S
C2692 C2691 1.523 . S
C2693 C2677 1.429 . S
C2693 C2689 1.429 . S
C2693 C2694 1.523 . S
C2694 C2678 1.368 . S
C2694 C2690 1.368 . S
C2694 C2693 1.523 . S
H2695 C2670 0.950 . S
H2696 C2672 0.950 . S
H2697 C2673 0.949 . S
H2698 C2675 0.950 . S
H2699 C2677 0.950 . S
C2700 C2701 1.349 . S
C2700 C2702 1.327 . S
C2700 H2725 0.950 . S
C2701 C2700 1.349 . S
C2701 C2717 1.349 . S
C2702 C2700 1.327 . S
C2702 C2721 1.429 . S
C2702 H2726 0.950 . S
C2703 C2720 1.574 . S
C2703 C2722 1.368 . S
C2703 H2727 0.949 . S
H2704 C2708 0.949 . S
C2705 C2706 1.349 . S
C2705 C2707 1.327 . S
C2705 H2728 0.950 . S
C2706 C2705 1.349 . S
C2706 C2718 1.349 . S
C2707 C2705 1.327 . S
C2707 C2723 1.429 . S
C2707 H2729 0.950 . S
C2708 H2704 0.949 . S
C2708 C2716 1.574 . S
C2708 C2724 1.368 . S
H2709 C2717 0.950 . S
H2710 C2715 0.950 . S
H2711 C2716 0.949 . S
H2712 C2718 0.950 . S
H2713 C2719 0.950 . S
H2714 C2720 0.949 . S
C2715 H2710 0.950 . S
C2715 C2717 1.327 . S
C2715 C2721 1.429 . S
C2716 C2708 1.574 . S
C2716 H2711 0.949 . S
C2716 C2722 1.368 . S
C2717 C2701 1.349 . S
C2717 H2709 0.950 . S
C2717 C2715 1.327 . S
C2718 C2706 1.349 . S
C2718 H2712 0.950 . S
C2718 C2719 1.327 . S
C2719 H2713 0.950 . S
C2719 C2718 1.327 . S
C2719 C2723 1.429 . S
C2720 C2703 1.574 . S
C2720 H2714 0.949 . S
C2720 C2724 1.368 . S
C2721 C2702 1.429 . S
C2721 C2715 1.429 . S
C2721 C2722 1.523 . S
C2722 C2703 1.368 . S
C2722 C2716 1.368 . S
C2722 C2721 1.523 . S
C2723 C2707 1.429 . S
C2723 C2719 1.429 . S
C2723 C2724 1.523 . S
C2724 C2708 1.368 . S
C2724 C2720 1.368 . S
C2724 C2723 1.523 . S
H2725 C2700 0.950 . S
H2726 C2702 0.950 . S
H2727 C2703 0.949 . S
H2728 C2705 0.950 . S
H2729 C2707 0.950 . S
C2730 C2731 1.349 . S
C2730 C2732 1.327 . S
C2730 H2755 0.950 . S
C2731 C2730 1.349 . S
C2731 C2747 1.349 . S
C2732 C2730 1.327 . S
C2732 C2751 1.429 . S
C2732 H2756 0.950 . S
C2733 C2750 1.574 . S
C2733 C2752 1.368 . S
C2733 H2757 0.949 . S
H2734 C2738 0.949 . S
C2735 C2736 1.349 . S
C2735 C2737 1.327 . S
C2735 H2758 0.950 . S
C2736 C2735 1.349 . S
C2736 C2748 1.349 . S
C2737 C2735 1.327 . S
C2737 C2753 1.429 . S
C2737 H2759 0.950 . S
C2738 H2734 0.949 . S
C2738 C2746 1.574 . S
C2738 C2754 1.368 . S
H2739 C2747 0.950 . S
H2740 C2745 0.950 . S
H2741 C2746 0.949 . S
H2742 C2748 0.950 . S
H2743 C2749 0.950 . S
H2744 C2750 0.949 . S
C2745 H2740 0.950 . S
C2745 C2747 1.327 . S
C2745 C2751 1.429 . S
C2746 C2738 1.574 . S
C2746 H2741 0.949 . S
C2746 C2752 1.368 . S
C2747 C2731 1.349 . S
C2747 H2739 0.950 . S
C2747 C2745 1.327 . S
C2748 C2736 1.349 . S
C2748 H2742 0.950 . S
C2748 C2749 1.327 . S
C2749 H2743 0.950 . S
C2749 C2748 1.327 . S
C2749 C2753 1.429 . S
C2750 C2733 1.574 . S
C2750 H2744 0.949 . S
C2750 C2754 1.368 . S
C2751 C2732 1.429 . S
C2751 C2745 1.429 . S
C2751 C2752 1.523 . S
C2752 C2733 1.368 . S
C2752 C2746 1.368 . S
C2752 C2751 1.523 . S
C2753 C2737 1.429 . S
C2753 C2749 1.429 . S
C2753 C2754 1.523 . S
C2754 C2738 1.368 . S
C2754 C2750 1.368 . S
C2754 C2753 1.523 . S
H2755 C2730 0.950 . S
H2756 C2732 0.950 . S
H2757 C2733 0.949 . S
H2758 C2735 0.950 . S
H2759 C2737 0.950 . S
C2760 C2761 1.349 1_565 S
C2760 C2762 1.327 . S
C2760 H2785 0.950 . S
C2761 C2760 1.349 1_545 S
C2761 C2777 1.349 . S
C2762 C2760 1.327 . S
C2762 C2781 1.429 1_565 S
C2762 H2786 0.950 . S
C2763 C2780 1.574 . S
C2763 C2782 1.368 . S
C2763 H2787 0.949 . S
H2764 C2768 0.949 1_565 S
C2765 C2766 1.349 . S
C2765 C2767 1.327 . S
C2765 H2788 0.950 . S
C2766 C2765 1.349 . S
C2766 C2778 1.349 . S
C2767 C2765 1.327 . S
C2767 C2783 1.429 . S
C2767 H2789 0.950 . S
C2768 H2764 0.949 1_545 S
C2768 C2776 1.574 1_545 S
C2768 C2784 1.368 . S
H2769 C2777 0.950 . S
H2770 C2775 0.950 . S
H2771 C2776 0.949 . S
H2772 C2778 0.950 . S
H2773 C2779 0.950 1_565 S
H2774 C2780 0.949 . S
C2775 H2770 0.950 . S
C2775 C2777 1.327 . S
C2775 C2781 1.429 . S
C2776 C2768 1.574 1_565 S
C2776 H2771 0.949 . S
C2776 C2782 1.368 1_565 S
C2777 C2761 1.349 . S
C2777 H2769 0.950 . S
C2777 C2775 1.327 . S
C2778 C2766 1.349 . S
C2778 H2772 0.950 . S
C2778 C2779 1.327 . S
C2779 H2773 0.950 1_545 S
C2779 C2778 1.327 . S
C2779 C2783 1.429 . S
C2780 C2763 1.574 . S
C2780 H2774 0.949 . S
C2780 C2784 1.368 . S
C2781 C2762 1.429 1_545 S
C2781 C2775 1.429 . S
C2781 C2782 1.523 . S
C2782 C2763 1.368 . S
C2782 C2776 1.368 1_545 S
C2782 C2781 1.523 . S
C2783 C2767 1.429 . S
C2783 C2779 1.429 . S
C2783 C2784 1.523 . S
C2784 C2768 1.368 . S
C2784 C2780 1.368 . S
C2784 C2783 1.523 . S
H2785 C2760 0.950 . S
H2786 C2762 0.950 . S
H2787 C2763 0.949 . S
H2788 C2765 0.950 . S
H2789 C2767 0.950 . S
C2790 C2791 1.349 . S
C2790 C2792 1.327 . S
C2790 H2815 0.950 . S
C2791 C2790 1.349 . S
C2791 C2807 1.349 . S
C2792 C2790 1.327 . S
C2792 C2811 1.429 . S
C2792 H2816 0.950 . S
C2793 C2810 1.574 . S
C2793 C2812 1.368 . S
C2793 H2817 0.949 . S
H2794 C2798 0.949 . S
C2795 C2796 1.349 . S
C2795 C2797 1.327 . S
C2795 H2818 0.950 . S
C2796 C2795 1.349 . S
C2796 C2808 1.349 . S
C2797 C2795 1.327 . S
C2797 C2813 1.429 . S
C2797 H2819 0.950 . S
C2798 H2794 0.949 . S
C2798 C2806 1.574 . S
C2798 C2814 1.368 . S
H2799 C2807 0.950 . S
H2800 C2805 0.950 . S
H2801 C2806 0.949 . S
H2802 C2808 0.950 . S
H2803 C2809 0.950 . S
H2804 C2810 0.949 . S
C2805 H2800 0.950 . S
C2805 C2807 1.327 . S
C2805 C2811 1.429 . S
C2806 C2798 1.574 . S
C2806 H2801 0.949 . S
C2806 C2812 1.368 . S
C2807 C2791 1.349 . S
C2807 H2799 0.950 . S
C2807 C2805 1.327 . S
C2808 C2796 1.349 . S
C2808 H2802 0.950 . S
C2808 C2809 1.327 . S
C2809 H2803 0.950 . S
C2809 C2808 1.327 . S
C2809 C2813 1.429 . S
C2810 C2793 1.574 . S
C2810 H2804 0.949 . S
C2810 C2814 1.368 . S
C2811 C2792 1.429 . S
C2811 C2805 1.429 . S
C2811 C2812 1.523 . S
C2812 C2793 1.368 . S
C2812 C2806 1.368 . S
C2812 C2811 1.523 . S
C2813 C2797 1.429 . S
C2813 C2809 1.429 . S
C2813 C2814 1.523 . S
C2814 C2798 1.368 . S
C2814 C2810 1.368 . S
C2814 C2813 1.523 . S
H2815 C2790 0.950 . S
H2816 C2792 0.950 . S
H2817 C2793 0.949 . S
H2818 C2795 0.950 . S
H2819 C2797 0.950 . S
C2820 C2821 1.349 . S
C2820 C2822 1.327 . S
C2820 H2845 0.950 . S
C2821 C2820 1.349 . S
C2821 C2837 1.349 . S
C2822 C2820 1.327 . S
C2822 C2841 1.429 . S
C2822 H2846 0.950 . S
C2823 C2840 1.574 . S
C2823 C2842 1.368 . S
C2823 H2847 0.949 . S
H2824 C2828 0.949 . S
C2825 C2826 1.349 . S
C2825 C2827 1.327 . S
C2825 H2848 0.950 . S
C2826 C2825 1.349 . S
C2826 C2838 1.349 . S
C2827 C2825 1.327 . S
C2827 C2843 1.429 . S
C2827 H2849 0.950 . S
C2828 H2824 0.949 . S
C2828 C2836 1.574 . S
C2828 C2844 1.368 . S
H2829 C2837 0.950 . S
H2830 C2835 0.950 . S
H2831 C2836 0.949 . S
H2832 C2838 0.950 . S
H2833 C2839 0.950 . S
H2834 C2840 0.949 . S
C2835 H2830 0.950 . S
C2835 C2837 1.327 . S
C2835 C2841 1.429 . S
C2836 C2828 1.574 . S
C2836 H2831 0.949 . S
C2836 C2842 1.368 . S
C2837 C2821 1.349 . S
C2837 H2829 0.950 . S
C2837 C2835 1.327 . S
C2838 C2826 1.349 . S
C2838 H2832 0.950 . S
C2838 C2839 1.327 . S
C2839 H2833 0.950 . S
C2839 C2838 1.327 . S
C2839 C2843 1.429 . S
C2840 C2823 1.574 . S
C2840 H2834 0.949 . S
C2840 C2844 1.368 . S
C2841 C2822 1.429 . S
C2841 C2835 1.429 . S
C2841 C2842 1.523 . S
C2842 C2823 1.368 . S
C2842 C2836 1.368 . S
C2842 C2841 1.523 . S
C2843 C2827 1.429 . S
C2843 C2839 1.429 . S
C2843 C2844 1.523 . S
C2844 C2828 1.368 . S
C2844 C2840 1.368 . S
C2844 C2843 1.523 . S
H2845 C2820 0.950 . S
H2846 C2822 0.950 . S
H2847 C2823 0.949 . S
H2848 C2825 0.950 . S
H2849 C2827 0.950 . S
C2850 C2851 1.349 . S
C2850 C2852 1.327 . S
C2850 H2875 0.950 . S
C2851 C2850 1.349 . S
C2851 C2867 1.349 . S
C2852 C2850 1.327 . S
C2852 C2871 1.429 . S
C2852 H2876 0.950 . S
C2853 C2870 1.574 . S
C2853 C2872 1.368 . S
C2853 H2877 0.949 . S
H2854 C2858 0.949 . S
C2855 C2856 1.349 . S
C2855 C2857 1.327 . S
C2855 H2878 0.950 . S
C2856 C2855 1.349 . S
C2856 C2868 1.349 . S
C2857 C2855 1.327 . S
C2857 C2873 1.429 . S
C2857 H2879 0.950 . S
C2858 H2854 0.949 . S
C2858 C2866 1.574 . S
C2858 C2874 1.368 . S
H2859 C2867 0.950 . S
H2860 C2865 0.950 . S
H2861 C2866 0.949 . S
H2862 C2868 0.950 . S
H2863 C2869 0.950 . S
H2864 C2870 0.949 . S
C2865 H2860 0.950 . S
C2865 C2867 1.327 . S
C2865 C2871 1.429 . S
C2866 C2858 1.574 . S
C2866 H2861 0.949 . S
C2866 C2872 1.368 . S
C2867 C2851 1.349 . S
C2867 H2859 0.950 . S
C2867 C2865 1.327 . S
C2868 C2856 1.349 . S
C2868 H2862 0.950 . S
C2868 C2869 1.327 . S
C2869 H2863 0.950 . S
C2869 C2868 1.327 . S
C2869 C2873 1.429 . S
C2870 C2853 1.574 . S
C2870 H2864 0.949 . S
C2870 C2874 1.368 . S
C2871 C2852 1.429 . S
C2871 C2865 1.429 . S
C2871 C2872 1.523 . S
C2872 C2853 1.368 . S
C2872 C2866 1.368 . S
C2872 C2871 1.523 . S
C2873 C2857 1.429 . S
C2873 C2869 1.429 . S
C2873 C2874 1.523 . S
C2874 C2858 1.368 . S
C2874 C2870 1.368 . S
C2874 C2873 1.523 . S
H2875 C2850 0.950 . S
H2876 C2852 0.950 . S
H2877 C2853 0.949 . S
H2878 C2855 0.950 . S
H2879 C2857 0.950 . S
C2880 C2881 1.349 . S
C2880 C2882 1.327 . S
C2880 H2905 0.950 . S
C2881 C2880 1.349 . S
C2881 C2897 1.349 . S
C2882 C2880 1.327 . S
C2882 C2901 1.429 . S
C2882 H2906 0.950 . S
C2883 C2900 1.574 . S
C2883 C2902 1.368 . S
C2883 H2907 0.949 1_554 S
H2884 C2888 0.949 . S
C2885 C2886 1.344 . S
C2885 C2887 1.327 . S
C2885 H2908 0.955 1_554 S
C2886 C2885 1.344 . S
C2886 C2898 1.349 . S
C2887 C2885 1.327 . S
C2887 C2903 1.469 . S
C2887 H2909 0.910 1_554 S
C2888 H2884 0.949 . S
C2888 C2896 1.574 . S
C2888 C2904 1.368 . S
H2889 C2897 0.950 1_556 S
H2890 C2895 0.950 1_556 S
H2891 C2896 0.949 . S
H2892 C2898 0.950 . S
H2893 C2899 0.950 . S
H2894 C2900 0.949 1_556 S
C2895 H2890 0.950 1_554 S
C2895 C2897 1.327 . S
C2895 C2901 1.429 . S
C2896 C2888 1.574 . S
C2896 H2891 0.949 . S
C2896 C2902 1.368 . S
C2897 C2881 1.349 . S
C2897 H2889 0.950 1_554 S
C2897 C2895 1.327 . S
C2898 C2886 1.349 . S
C2898 H2892 0.950 . S
C2898 C2899 1.327 . S
C2899 H2893 0.950 . S
C2899 C2898 1.327 . S
C2899 C2903 1.429 . S
C2900 C2883 1.574 . S
C2900 H2894 0.949 1_554 S
C2900 C2904 1.368 . S
C2901 C2882 1.429 . S
C2901 C2895 1.429 . S
C2901 C2902 1.523 . S
C2902 C2883 1.368 . S
C2902 C2896 1.368 . S
C2902 C2901 1.523 . S
C2903 C2887 1.469 . S
C2903 C2899 1.429 . S
C2903 C2904 1.523 . S
C2904 C2888 1.368 . S
C2904 C2900 1.368 . S
C2904 C2903 1.523 . S
H2905 C2880 0.950 . S
H2906 C2882 0.950 . S
H2907 C2883 0.949 1_556 S
H2908 C2885 0.955 1_556 S
H2909 C2887 0.910 1_556 S
C2910 C2911 1.349 . S
C2910 C2912 1.327 . S
C2910 H2935 0.950 . S
C2911 C2910 1.349 . S
C2911 C2927 1.349 . S
C2912 C2910 1.327 . S
C2912 C2931 1.429 . S
C2912 H2936 0.950 . S
C2913 C2930 1.574 . S
C2913 C2932 1.368 . S
C2913 H2937 0.949 . S
H2914 C2918 0.949 . S
C2915 C2916 1.349 . S
C2915 C2917 1.327 . S
C2915 H2938 0.950 . S
C2916 C2915 1.349 . S
C2916 C2928 1.349 . S
C2917 C2915 1.327 . S
C2917 C2933 1.429 . S
C2917 H2939 0.950 . S
C2918 H2914 0.949 . S
C2918 C2926 1.574 . S
C2918 C2934 1.368 . S
H2919 C2927 0.950 . S
H2920 C2925 0.950 . S
H2921 C2926 0.949 . S
H2922 C2928 0.950 . S
H2923 C2929 0.950 . S
H2924 C2930 0.949 . S
C2925 H2920 0.950 . S
C2925 C2927 1.327 . S
C2925 C2931 1.429 . S
C2926 C2918 1.574 . S
C2926 H2921 0.949 . S
C2926 C2932 1.368 . S
C2927 C2911 1.349 . S
C2927 H2919 0.950 . S
C2927 C2925 1.327 . S
C2928 C2916 1.349 . S
C2928 H2922 0.950 . S
C2928 C2929 1.327 . S
C2929 H2923 0.950 . S
C2929 C2928 1.327 . S
C2929 C2933 1.429 . S
C2930 C2913 1.574 . S
C2930 H2924 0.949 . S
C2930 C2934 1.368 . S
C2931 C2912 1.429 . S
C2931 C2925 1.429 . S
C2931 C2932 1.523 . S
C2932 C2913 1.368 . S
C2932 C2926 1.368 . S
C2932 C2931 1.523 . S
C2933 C2917 1.429 . S
C2933 C2929 1.429 . S
C2933 C2934 1.523 . S
C2934 C2918 1.368 . S
C2934 C2930 1.368 . S
C2934 C2933 1.523 . S
H2935 C2910 0.950 . S
H2936 C2912 0.950 . S
H2937 C2913 0.949 . S
H2938 C2915 0.950 . S
H2939 C2917 0.950 . S
C2940 C2941 1.349 . S
C2940 C2942 1.327 . S
C2940 H2965 0.950 . S
C2941 C2940 1.349 . S
C2941 C2957 1.349 . S
C2942 C2940 1.327 . S
C2942 C2961 1.429 . S
C2942 H2966 0.950 . S
C2943 C2960 1.574 . S
C2943 C2962 1.368 . S
C2943 H2967 0.949 . S
H2944 C2948 0.949 . S
C2945 C2946 1.349 . S
C2945 C2947 1.327 . S
C2945 H2968 0.950 . S
C2946 C2945 1.349 . S
C2946 C2958 1.349 . S
C2947 C2945 1.327 . S
C2947 C2963 1.429 . S
C2947 H2969 0.950 . S
C2948 H2944 0.949 . S
C2948 C2956 1.574 . S
C2948 C2964 1.368 . S
H2949 C2957 0.950 . S
H2950 C2955 0.950 . S
H2951 C2956 0.949 . S
H2952 C2958 0.950 . S
H2953 C2959 0.950 . S
H2954 C2960 0.949 . S
C2955 H2950 0.950 . S
C2955 C2957 1.327 . S
C2955 C2961 1.429 . S
C2956 C2948 1.574 . S
C2956 H2951 0.949 . S
C2956 C2962 1.368 . S
C2957 C2941 1.349 . S
C2957 H2949 0.950 . S
C2957 C2955 1.327 . S
C2958 C2946 1.349 . S
C2958 H2952 0.950 . S
C2958 C2959 1.327 . S
C2959 H2953 0.950 . S
C2959 C2958 1.327 . S
C2959 C2963 1.429 . S
C2960 C2943 1.574 . S
C2960 H2954 0.949 . S
C2960 C2964 1.368 . S
C2961 C2942 1.429 . S
C2961 C2955 1.429 . S
C2961 C2962 1.523 . S
C2962 C2943 1.368 . S
C2962 C2956 1.368 . S
C2962 C2961 1.523 . S
C2963 C2947 1.429 . S
C2963 C2959 1.429 . S
C2963 C2964 1.523 . S
C2964 C2948 1.368 . S
C2964 C2960 1.368 . S
C2964 C2963 1.523 . S
H2965 C2940 0.950 . S
H2966 C2942 0.950 . S
H2967 C2943 0.949 . S
H2968 C2945 0.950 . S
H2969 C2947 0.950 . S
C2970 C2971 1.349 . S
C2970 C2972 1.327 . S
C2970 H2995 0.950 . S
C2971 C2970 1.349 . S
C2971 C2987 1.349 . S
C2972 C2970 1.327 . S
C2972 C2991 1.429 . S
C2972 H2996 0.950 . S
C2973 C2990 1.574 . S
C2973 C2992 1.368 . S
C2973 H2997 0.949 . S
H2974 C2978 0.949 . S
C2975 C2976 1.349 . S
C2975 C2977 1.327 . S
C2975 H2998 0.950 . S
C2976 C2975 1.349 . S
C2976 C2988 1.349 . S
C2977 C2975 1.327 . S
C2977 C2993 1.429 . S
C2977 H2999 0.950 . S
C2978 H2974 0.949 . S
C2978 C2986 1.574 . S
C2978 C2994 1.368 . S
H2979 C2987 0.950 . S
H2980 C2985 0.950 . S
H2981 C2986 0.949 . S
H2982 C2988 0.950 . S
H2983 C2989 0.950 . S
H2984 C2990 0.949 . S
C2985 H2980 0.950 . S
C2985 C2987 1.327 . S
C2985 C2991 1.429 . S
C2986 C2978 1.574 . S
C2986 H2981 0.949 . S
C2986 C2992 1.368 . S
C2987 C2971 1.349 . S
C2987 H2979 0.950 . S
C2987 C2985 1.327 . S
C2988 C2976 1.349 . S
C2988 H2982 0.950 . S
C2988 C2989 1.327 . S
C2989 H2983 0.950 . S
C2989 C2988 1.327 . S
C2989 C2993 1.429 . S
C2990 C2973 1.574 . S
C2990 H2984 0.949 . S
C2990 C2994 1.368 . S
C2991 C2972 1.429 . S
C2991 C2985 1.429 . S
C2991 C2992 1.523 . S
C2992 C2973 1.368 . S
C2992 C2986 1.368 . S
C2992 C2991 1.523 . S
C2993 C2977 1.429 . S
C2993 C2989 1.429 . S
C2993 C2994 1.523 . S
C2994 C2978 1.368 . S
C2994 C2990 1.368 . S
C2994 C2993 1.523 . S
H2995 C2970 0.950 . S
H2996 C2972 0.950 . S
H2997 C2973 0.949 . S
H2998 C2975 0.950 . S
H2999 C2977 0.950 . S
C3000 C3001 1.344 1_565 S
C3000 C3002 1.327 . S
C3000 H3025 0.950 1_565 S
C3001 C3000 1.344 1_545 S
C3001 C3017 1.338 1_545 S
C3002 C3000 1.327 . S
C3002 C3021 1.429 . S
C3002 H3026 0.950 . S
C3003 C3020 1.574 . S
C3003 C3022 1.368 . S
C3003 H3027 0.949 . S
H3004 C3008 0.949 . S
C3005 C3006 1.349 . S
C3005 C3007 1.327 . S
C3005 H3028 0.950 . S
C3006 C3005 1.349 . S
C3006 C3018 1.349 . S
C3007 C3005 1.327 . S
C3007 C3023 1.429 . S
C3007 H3029 0.950 . S
C3008 H3004 0.949 . S
C3008 C3016 1.574 . S
C3008 C3024 1.368 . S
H3009 C3017 0.950 . S
H3010 C3015 0.950 . S
H3011 C3016 0.949 . S
H3012 C3018 0.950 . S
H3013 C3019 0.950 . S
H3014 C3020 0.949 . S
C3015 H3010 0.950 . S
C3015 C3017 1.327 . S
C3015 C3021 1.429 . S
C3016 C3008 1.574 . S
C3016 H3011 0.949 . S
C3016 C3022 1.368 . S
C3017 C3001 1.338 1_565 S
C3017 H3009 0.950 . S
C3017 C3015 1.327 . S
C3018 C3006 1.349 . S
C3018 H3012 0.950 . S
C3018 C3019 1.327 . S
C3019 H3013 0.950 . S
C3019 C3018 1.327 . S
C3019 C3023 1.429 . S
C3020 C3003 1.574 . S
C3020 H3014 0.949 . S
C3020 C3024 1.368 . S
C3021 C3002 1.429 . S
C3021 C3015 1.429 . S
C3021 C3022 1.523 . S
C3022 C3003 1.368 . S
C3022 C3016 1.368 . S
C3022 C3021 1.523 . S
C3023 C3007 1.429 . S
C3023 C3019 1.429 . S
C3023 C3024 1.523 . S
C3024 C3008 1.368 . S
C3024 C3020 1.368 . S
C3024 C3023 1.523 . S
H3025 C3000 0.950 1_545 S
H3026 C3002 0.950 . S
H3027 C3003 0.949 . S
H3028 C3005 0.950 . S
H3029 C3007 0.950 . S
C3030 C3031 1.349 . S
C3030 C3032 1.327 . S
C3030 H3055 0.950 . S
C3031 C3030 1.349 . S
C3031 C3047 1.349 . S
C3032 C3030 1.327 . S
C3032 C3051 1.429 . S
C3032 H3056 0.950 . S
C3033 C3050 1.574 . S
C3033 C3052 1.368 . S
C3033 H3057 0.949 . S
H3034 C3038 0.949 . S
C3035 C3036 1.349 . S
C3035 C3037 1.327 . S
C3035 H3058 0.950 1_565 S
C3036 C3035 1.349 . S
C3036 C3048 1.349 . S
C3037 C3035 1.327 . S
C3037 C3053 1.429 . S
C3037 H3059 0.950 . S
C3038 H3034 0.949 . S
C3038 C3046 1.574 . S
C3038 C3054 1.368 . S
H3039 C3047 0.950 . S
H3040 C3045 0.950 . S
H3041 C3046 0.949 . S
H3042 C3048 0.950 . S
H3043 C3049 0.950 . S
H3044 C3050 0.949 . S
C3045 H3040 0.950 . S
C3045 C3047 1.327 . S
C3045 C3051 1.429 . S
C3046 C3038 1.574 . S
C3046 H3041 0.949 . S
C3046 C3052 1.368 . S
C3047 C3031 1.349 . S
C3047 H3039 0.950 . S
C3047 C3045 1.327 . S
C3048 C3036 1.349 . S
C3048 H3042 0.950 . S
C3048 C3049 1.327 . S
C3049 H3043 0.950 . S
C3049 C3048 1.327 . S
C3049 C3053 1.429 . S
C3050 C3033 1.574 . S
C3050 H3044 0.949 . S
C3050 C3054 1.368 . S
C3051 C3032 1.429 . S
C3051 C3045 1.429 . S
C3051 C3052 1.523 . S
C3052 C3033 1.368 . S
C3052 C3046 1.368 . S
C3052 C3051 1.523 . S
C3053 C3037 1.429 . S
C3053 C3049 1.429 . S
C3053 C3054 1.523 . S
C3054 C3038 1.368 . S
C3054 C3050 1.368 . S
C3054 C3053 1.523 . S
H3055 C3030 0.950 . S
H3056 C3032 0.950 . S
H3057 C3033 0.949 . S
H3058 C3035 0.950 1_545 S
H3059 C3037 0.950 . S
C3060 C3061 1.349 . S
C3060 C3062 1.327 . S
C3060 H3085 0.950 . S
C3061 C3060 1.349 . S
C3061 C3077 1.349 . S
C3062 C3060 1.327 . S
C3062 C3081 1.429 . S
C3062 H3086 0.950 . S
C3063 C3080 1.574 . S
C3063 C3082 1.368 . S
C3063 H3087 0.949 . S
H3064 C3068 0.949 . S
C3065 C3066 1.349 . S
C3065 C3067 1.327 . S
C3065 H3088 0.950 . S
C3066 C3065 1.349 . S
C3066 C3078 1.349 . S
C3067 C3065 1.327 . S
C3067 C3083 1.429 . S
C3067 H3089 0.950 . S
C3068 H3064 0.949 . S
C3068 C3076 1.574 . S
C3068 C3084 1.368 . S
H3069 C3077 0.950 . S
H3070 C3075 0.950 . S
H3071 C3076 0.949 . S
H3072 C3078 0.950 . S
H3073 C3079 0.950 . S
H3074 C3080 0.949 . S
C3075 H3070 0.950 . S
C3075 C3077 1.327 . S
C3075 C3081 1.429 . S
C3076 C3068 1.574 . S
C3076 H3071 0.949 . S
C3076 C3082 1.368 . S
C3077 C3061 1.349 . S
C3077 H3069 0.950 . S
C3077 C3075 1.327 . S
C3078 C3066 1.349 . S
C3078 H3072 0.950 . S
C3078 C3079 1.327 . S
C3079 H3073 0.950 . S
C3079 C3078 1.327 . S
C3079 C3083 1.429 . S
C3080 C3063 1.574 . S
C3080 H3074 0.949 . S
C3080 C3084 1.368 . S
C3081 C3062 1.429 . S
C3081 C3075 1.429 . S
C3081 C3082 1.523 . S
C3082 C3063 1.368 . S
C3082 C3076 1.368 . S
C3082 C3081 1.523 . S
C3083 C3067 1.429 . S
C3083 C3079 1.429 . S
C3083 C3084 1.523 . S
C3084 C3068 1.368 . S
C3084 C3080 1.368 . S
C3084 C3083 1.523 . S
H3085 C3060 0.950 . S
H3086 C3062 0.950 . S
H3087 C3063 0.949 . S
H3088 C3065 0.950 . S
H3089 C3067 0.950 . S
C3090 C3091 1.349 . S
C3090 C3092 1.327 . S
C3090 H3115 0.950 . S
C3091 C3090 1.349 . S
C3091 C3107 1.349 . S
C3092 C3090 1.327 . S
C3092 C3111 1.429 . S
C3092 H3116 0.950 . S
C3093 C3110 1.574 . S
C3093 C3112 1.368 . S
C3093 H3117 0.949 . S
H3094 C3098 0.949 . S
C3095 C3096 1.349 . S
C3095 C3097 1.327 . S
C3095 H3118 0.950 . S
C3096 C3095 1.349 . S
C3096 C3108 1.349 . S
C3097 C3095 1.327 . S
C3097 C3113 1.429 . S
C3097 H3119 0.950 . S
C3098 H3094 0.949 . S
C3098 C3106 1.574 . S
C3098 C3114 1.368 . S
H3099 C3107 0.950 . S
H3100 C3105 0.950 . S
H3101 C3106 0.949 . S
H3102 C3108 0.950 . S
H3103 C3109 0.950 . S
H3104 C3110 0.949 . S
C3105 H3100 0.950 . S
C3105 C3107 1.327 . S
C3105 C3111 1.429 . S
C3106 C3098 1.574 . S
C3106 H3101 0.949 . S
C3106 C3112 1.368 . S
C3107 C3091 1.349 . S
C3107 H3099 0.950 . S
C3107 C3105 1.327 . S
C3108 C3096 1.349 . S
C3108 H3102 0.950 . S
C3108 C3109 1.327 . S
C3109 H3103 0.950 . S
C3109 C3108 1.327 . S
C3109 C3113 1.429 . S
C3110 C3093 1.574 . S
C3110 H3104 0.949 . S
C3110 C3114 1.368 . S
C3111 C3092 1.429 . S
C3111 C3105 1.429 . S
C3111 C3112 1.523 . S
C3112 C3093 1.368 . S
C3112 C3106 1.368 . S
C3112 C3111 1.523 . S
C3113 C3097 1.429 . S
C3113 C3109 1.429 . S
C3113 C3114 1.523 . S
C3114 C3098 1.368 . S
C3114 C3110 1.368 . S
C3114 C3113 1.523 . S
H3115 C3090 0.950 . S
H3116 C3092 0.950 . S
H3117 C3093 0.949 . S
H3118 C3095 0.950 . S
H3119 C3097 0.950 . S
C3120 C3121 1.349 . S
C3120 C3122 1.327 . S
C3120 H3145 0.950 . S
C3121 C3120 1.349 . S
C3121 C3137 1.349 . S
C3122 C3120 1.327 . S
C3122 C3141 1.429 . S
C3122 H3146 0.950 . S
C3123 C3140 1.574 . S
C3123 C3142 1.368 . S
C3123 H3147 0.949 . S
H3124 C3128 0.949 . S
C3125 C3126 1.349 . S
C3125 C3127 1.327 . S
C3125 H3148 0.950 . S
C3126 C3125 1.349 . S
C3126 C3138 1.349 . S
C3127 C3125 1.327 . S
C3127 C3143 1.429 . S
C3127 H3149 0.950 . S
C3128 H3124 0.949 . S
C3128 C3136 1.574 . S
C3128 C3144 1.368 . S
H3129 C3137 0.950 . S
H3130 C3135 0.950 . S
H3131 C3136 0.949 . S
H3132 C3138 0.950 . S
H3133 C3139 0.950 . S
H3134 C3140 0.949 . S
C3135 H3130 0.950 . S
C3135 C3137 1.327 . S
C3135 C3141 1.429 . S
C3136 C3128 1.574 . S
C3136 H3131 0.949 . S
C3136 C3142 1.368 . S
C3137 C3121 1.349 . S
C3137 H3129 0.950 . S
C3137 C3135 1.327 . S
C3138 C3126 1.349 . S
C3138 H3132 0.950 . S
C3138 C3139 1.327 . S
C3139 H3133 0.950 . S
C3139 C3138 1.327 . S
C3139 C3143 1.429 . S
C3140 C3123 1.574 . S
C3140 H3134 0.949 . S
C3140 C3144 1.368 . S
C3141 C3122 1.429 . S
C3141 C3135 1.429 . S
C3141 C3142 1.523 . S
C3142 C3123 1.368 . S
C3142 C3136 1.368 . S
C3142 C3141 1.523 . S
C3143 C3127 1.429 . S
C3143 C3139 1.429 . S
C3143 C3144 1.523 . S
C3144 C3128 1.368 . S
C3144 C3140 1.368 . S
C3144 C3143 1.523 . S
H3145 C3120 0.950 . S
H3146 C3122 0.950 . S
H3147 C3123 0.949 . S
H3148 C3125 0.950 . S
H3149 C3127 0.950 . S
C3150 C3151 1.349 . S
C3150 C3152 1.327 . S
C3150 H3175 0.950 . S
C3151 C3150 1.349 . S
C3151 C3167 1.349 . S
C3152 C3150 1.327 . S
C3152 C3171 1.429 . S
C3152 H3176 0.950 . S
C3153 C3170 1.574 . S
C3153 C3172 1.368 . S
C3153 H3177 0.949 . S
H3154 C3158 0.949 . S
C3155 C3156 1.349 . S
C3155 C3157 1.327 . S
C3155 H3178 0.950 . S
C3156 C3155 1.349 . S
C3156 C3168 1.349 . S
C3157 C3155 1.327 . S
C3157 C3173 1.429 . S
C3157 H3179 0.950 . S
C3158 H3154 0.949 . S
C3158 C3166 1.574 . S
C3158 C3174 1.368 . S
H3159 C3167 0.950 . S
H3160 C3165 0.950 . S
H3161 C3166 0.949 . S
H3162 C3168 0.950 . S
H3163 C3169 0.950 . S
H3164 C3170 0.949 . S
C3165 H3160 0.950 . S
C3165 C3167 1.327 . S
C3165 C3171 1.429 . S
C3166 C3158 1.574 . S
C3166 H3161 0.949 . S
C3166 C3172 1.368 . S
C3167 C3151 1.349 . S
C3167 H3159 0.950 . S
C3167 C3165 1.327 . S
C3168 C3156 1.349 . S
C3168 H3162 0.950 . S
C3168 C3169 1.327 . S
C3169 H3163 0.950 . S
C3169 C3168 1.327 . S
C3169 C3173 1.429 . S
C3170 C3153 1.574 . S
C3170 H3164 0.949 . S
C3170 C3174 1.368 . S
C3171 C3152 1.429 . S
C3171 C3165 1.429 . S
C3171 C3172 1.523 . S
C3172 C3153 1.368 . S
C3172 C3166 1.368 . S
C3172 C3171 1.523 . S
C3173 C3157 1.429 . S
C3173 C3169 1.429 . S
C3173 C3174 1.523 . S
C3174 C3158 1.368 . S
C3174 C3170 1.368 . S
C3174 C3173 1.523 . S
H3175 C3150 0.950 . S
H3176 C3152 0.950 . S
H3177 C3153 0.949 . S
H3178 C3155 0.950 . S
H3179 C3157 0.950 . S
C3180 C3181 1.349 . S
C3180 C3182 1.327 . S
C3180 H3205 0.950 . S
C3181 C3180 1.349 . S
C3181 C3197 1.349 . S
C3182 C3180 1.327 . S
C3182 C3201 1.429 . S
C3182 H3206 0.916 1_556 S
C3183 C3200 1.574 . S
C3183 C3202 1.368 . S
C3183 H3207 0.949 . S
H3184 C3188 0.949 . S
C3185 C3186 1.349 . S
C3185 C3187 1.327 . S
C3185 H3208 0.950 . S
C3186 C3185 1.349 . S
C3186 C3198 1.349 . S
C3187 C3185 1.327 . S
C3187 C3203 1.429 . S
C3187 H3209 0.950 1_554 S
C3188 H3184 0.949 . S
C3188 C3196 1.574 . S
C3188 C3204 1.368 . S
H3189 C3197 0.950 . S
H3190 C3195 0.950 . S
H3191 C3196 0.949 . S
H3192 C3198 0.950 . S
H3193 C3199 0.950 . S
H3194 C3200 0.949 . S
C3195 H3190 0.950 . S
C3195 C3197 1.327 . S
C3195 C3201 1.429 . S
C3196 C3188 1.574 . S
C3196 H3191 0.949 . S
C3196 C3202 1.368 1_554 S
C3197 C3181 1.349 . S
C3197 H3189 0.950 . S
C3197 C3195 1.327 . S
C3198 C3186 1.349 . S
C3198 H3192 0.950 . S
C3198 C3199 1.327 . S
C3199 H3193 0.950 . S
C3199 C3198 1.327 . S
C3199 C3203 1.429 . S
C3200 C3183 1.574 . S
C3200 H3194 0.949 . S
C3200 C3204 1.368 1_556 S
C3201 C3182 1.429 . S
C3201 C3195 1.429 . S
C3201 C3202 1.523 . S
C3202 C3183 1.368 . S
C3202 C3196 1.368 1_556 S
C3202 C3201 1.523 . S
C3203 C3187 1.429 . S
C3203 C3199 1.429 . S
C3203 C3204 1.523 . S
C3204 C3188 1.368 . S
C3204 C3200 1.368 1_554 S
C3204 C3203 1.523 . S
H3205 C3180 0.950 . S
H3206 C3182 0.916 1_554 S
H3207 C3183 0.949 . S
H3208 C3185 0.950 . S
H3209 C3187 0.950 1_556 S
C3210 C3211 1.349 . S
C3210 C3212 1.327 1_455 S
C3210 H3235 0.950 . S
C3211 C3210 1.349 . S
C3211 C3227 1.349 . S
C3212 C3210 1.327 1_655 S
C3212 C3231 1.429 . S
C3212 H3236 0.950 . S
C3213 C3230 1.574 . S
C3213 C3232 1.368 . S
C3213 H3237 0.949 . S
H3214 C3218 0.949 . S
C3215 C3216 1.349 . S
C3215 C3217 1.327 . S
C3215 H3238 0.950 . S
C3216 C3215 1.349 . S
C3216 C3228 1.349 . S
C3217 C3215 1.327 . S
C3217 C3233 1.429 . S
C3217 H3239 0.950 . S
C3218 H3214 0.949 . S
C3218 C3226 1.574 . S
C3218 C3234 1.368 . S
H3219 C3227 0.950 . S
H3220 C3225 0.950 . S
H3221 C3226 0.949 . S
H3222 C3228 0.950 . S
H3223 C3229 0.950 . S
H3224 C3230 0.949 . S
C3225 H3220 0.950 . S
C3225 C3227 1.327 . S
C3225 C3231 1.429 1_455 S
C3226 C3218 1.574 . S
C3226 H3221 0.949 . S
C3226 C3232 1.368 . S
C3227 C3211 1.349 . S
C3227 H3219 0.950 . S
C3227 C3225 1.327 . S
C3228 C3216 1.349 . S
C3228 H3222 0.950 . S
C3228 C3229 1.327 . S
C3229 H3223 0.950 . S
C3229 C3228 1.327 . S
C3229 C3233 1.429 . S
C3230 C3213 1.574 . S
C3230 H3224 0.949 . S
C3230 C3234 1.368 . S
C3231 C3212 1.429 . S
C3231 C3225 1.429 1_655 S
C3231 C3232 1.523 . S
C3232 C3213 1.368 . S
C3232 C3226 1.368 . S
C3232 C3231 1.523 . S
C3233 C3217 1.429 . S
C3233 C3229 1.429 . S
C3233 C3234 1.523 . S
C3234 C3218 1.368 . S
C3234 C3230 1.368 . S
C3234 C3233 1.523 . S
H3235 C3210 0.950 . S
H3236 C3212 0.950 . S
H3237 C3213 0.949 . S
H3238 C3215 0.950 . S
H3239 C3217 0.950 . S
C3240 C3241 1.349 . S
C3240 C3242 1.327 . S
C3240 H3265 0.950 . S
C3241 C3240 1.349 . S
C3241 C3257 1.349 . S
C3242 C3240 1.327 . S
C3242 C3261 1.429 . S
C3242 H3266 0.950 . S
C3243 C3260 1.574 . S
C3243 C3262 1.368 . S
C3243 H3267 0.949 . S
H3244 C3248 0.949 . S
C3245 C3246 1.349 . S
C3245 C3247 1.327 . S
C3245 H3268 0.950 . S
C3246 C3245 1.349 . S
C3246 C3258 1.349 . S
C3247 C3245 1.327 . S
C3247 C3263 1.429 . S
C3247 H3269 0.950 . S
C3248 H3244 0.949 . S
C3248 C3256 1.574 . S
C3248 C3264 1.368 . S
H3249 C3257 0.950 . S
H3250 C3255 0.950 . S
H3251 C3256 0.949 . S
H3252 C3258 0.950 . S
H3253 C3259 0.950 . S
H3254 C3260 0.949 . S
C3255 H3250 0.950 . S
C3255 C3257 1.327 . S
C3255 C3261 1.429 . S
C3256 C3248 1.574 . S
C3256 H3251 0.949 . S
C3256 C3262 1.368 . S
C3257 C3241 1.349 . S
C3257 H3249 0.950 . S
C3257 C3255 1.327 . S
C3258 C3246 1.349 . S
C3258 H3252 0.950 . S
C3258 C3259 1.327 . S
C3259 H3253 0.950 . S
C3259 C3258 1.327 . S
C3259 C3263 1.429 . S
C3260 C3243 1.574 . S
C3260 H3254 0.949 . S
C3260 C3264 1.368 . S
C3261 C3242 1.429 . S
C3261 C3255 1.429 . S
C3261 C3262 1.523 . S
C3262 C3243 1.368 . S
C3262 C3256 1.368 . S
C3262 C3261 1.523 . S
C3263 C3247 1.429 . S
C3263 C3259 1.429 . S
C3263 C3264 1.523 . S
C3264 C3248 1.368 . S
C3264 C3260 1.368 . S
C3264 C3263 1.523 . S
H3265 C3240 0.950 . S
H3266 C3242 0.950 . S
H3267 C3243 0.949 . S
H3268 C3245 0.950 . S
H3269 C3247 0.950 . S
C3270 C3271 1.349 . S
C3270 C3272 1.327 . S
C3270 H3295 0.950 . S
C3271 C3270 1.349 . S
C3271 C3287 1.349 . S
C3272 C3270 1.327 . S
C3272 C3291 1.429 . S
C3272 H3296 0.950 . S
C3273 C3290 1.574 . S
C3273 C3292 1.368 1_655 S
C3273 H3297 0.949 . S
H3274 C3278 0.949 . S
C3275 C3276 1.349 . S
C3275 C3277 1.327 . S
C3275 H3298 0.950 . S
C3276 C3275 1.349 . S
C3276 C3288 1.349 . S
C3277 C3275 1.327 . S
C3277 C3293 1.429 . S
C3277 H3299 0.950 . S
C3278 H3274 0.949 . S
C3278 C3286 1.574 1_655 S
C3278 C3294 1.368 . S
H3279 C3287 0.950 . S
H3280 C3285 0.950 . S
H3281 C3286 0.949 . S
H3282 C3288 0.950 . S
H3283 C3289 0.950 . S
H3284 C3290 0.949 . S
C3285 H3280 0.950 . S
C3285 C3287 1.327 . S
C3285 C3291 1.429 . S
C3286 C3278 1.574 1_455 S
C3286 H3281 0.949 . S
C3286 C3292 1.368 . S
C3287 C3271 1.349 . S
C3287 H3279 0.950 . S
C3287 C3285 1.327 . S
C3288 C3276 1.349 . S
C3288 H3282 0.950 . S
C3288 C3289 1.327 . S
C3289 H3283 0.950 . S
C3289 C3288 1.327 . S
C3289 C3293 1.429 . S
C3290 C3273 1.574 . S
C3290 H3284 0.949 . S
C3290 C3294 1.368 . S
C3291 C3272 1.429 . S
C3291 C3285 1.429 . S
C3291 C3292 1.523 . S
C3292 C3273 1.368 1_455 S
C3292 C3286 1.368 . S
C3292 C3291 1.523 . S
C3293 C3277 1.429 . S
C3293 C3289 1.429 . S
C3293 C3294 1.523 . S
C3294 C3278 1.368 . S
C3294 C3290 1.368 . S
C3294 C3293 1.523 . S
H3295 C3270 0.950 . S
H3296 C3272 0.950 . S
H3297 C3273 0.949 . S
H3298 C3275 0.950 . S
H3299 C3277 0.950 . S
C3300 C3301 1.349 . S
C3300 C3302 1.327 . S
C3300 H3325 0.950 . S
C3301 C3300 1.349 . S
C3301 C3317 1.349 1_655 S
C3302 C3300 1.327 . S
C3302 C3321 1.429 1_655 S
C3302 H3326 0.950 . S
C3303 C3320 1.574 . S
C3303 C3322 1.368 . S
C3303 H3327 0.949 . S
H3304 C3308 0.949 1_655 S
C3305 C3306 1.349 . S
C3305 C3307 1.327 . S
C3305 H3328 0.950 . S
C3306 C3305 1.349 . S
C3306 C3318 1.349 . S
C3307 C3305 1.327 . S
C3307 C3323 1.429 . S
C3307 H3329 0.950 . S
C3308 H3304 0.949 1_455 S
C3308 C3316 1.562 1_455 S
C3308 C3324 1.368 . S
H3309 C3317 0.950 . S
H3310 C3315 0.950 . S
H3311 C3316 0.969 . S
H3312 C3318 0.950 . S
H3313 C3319 0.950 . S
H3314 C3320 0.949 . S
C3315 H3310 0.950 . S
C3315 C3317 1.327 . S
C3315 C3321 1.429 . S
C3316 C3308 1.562 1_655 S
C3316 H3311 0.969 . S
C3316 C3322 1.358 1_655 S
C3317 C3301 1.349 1_455 S
C3317 H3309 0.950 . S
C3317 C3315 1.327 . S
C3318 C3306 1.349 . S
C3318 H3312 0.950 . S
C3318 C3319 1.327 . S
C3319 H3313 0.950 . S
C3319 C3318 1.327 . S
C3319 C3323 1.429 . S
C3320 C3303 1.574 . S
C3320 H3314 0.949 . S
C3320 C3324 1.368 . S
C3321 C3302 1.429 1_455 S
C3321 C3315 1.429 . S
C3321 C3322 1.523 . S
C3322 C3303 1.368 . S
C3322 C3316 1.358 1_455 S
C3322 C3321 1.523 . S
C3323 C3307 1.429 . S
C3323 C3319 1.429 . S
C3323 C3324 1.523 . S
C3324 C3308 1.368 . S
C3324 C3320 1.368 . S
C3324 C3323 1.523 . S
H3325 C3300 0.950 . S
H3326 C3302 0.950 . S
H3327 C3303 0.949 . S
H3328 C3305 0.950 . S
H3329 C3307 0.950 . S
C3330 C3331 1.349 . S
C3330 C3332 1.327 . S
C3330 H3355 0.950 . S
C3331 C3330 1.349 . S
C3331 C3347 1.349 . S
C3332 C3330 1.327 . S
C3332 C3351 1.429 . S
C3332 H3356 0.950 . S
C3333 C3350 1.574 . S
C3333 C3352 1.368 . S
C3333 H3357 0.949 . S
H3334 C3338 0.949 . S
C3335 C3336 1.349 . S
C3335 C3337 1.327 . S
C3335 H3358 0.950 . S
C3336 C3335 1.349 . S
C3336 C3348 1.349 . S
C3337 C3335 1.327 . S
C3337 C3353 1.429 . S
C3337 H3359 0.950 . S
C3338 H3334 0.949 . S
C3338 C3346 1.574 . S
C3338 C3354 1.368 . S
H3339 C3347 0.950 . S
H3340 C3345 0.950 . S
H3341 C3346 0.949 . S
H3342 C3348 0.950 . S
H3343 C3349 0.950 . S
H3344 C3350 0.949 . S
C3345 H3340 0.950 . S
C3345 C3347 1.327 . S
C3345 C3351 1.429 . S
C3346 C3338 1.574 . S
C3346 H3341 0.949 . S
C3346 C3352 1.368 . S
C3347 C3331 1.349 . S
C3347 H3339 0.950 . S
C3347 C3345 1.327 . S
C3348 C3336 1.349 . S
C3348 H3342 0.950 . S
C3348 C3349 1.327 . S
C3349 H3343 0.950 . S
C3349 C3348 1.327 . S
C3349 C3353 1.429 . S
C3350 C3333 1.574 . S
C3350 H3344 0.949 . S
C3350 C3354 1.368 . S
C3351 C3332 1.429 . S
C3351 C3345 1.429 . S
C3351 C3352 1.523 . S
C3352 C3333 1.368 . S
C3352 C3346 1.368 . S
C3352 C3351 1.523 . S
C3353 C3337 1.429 . S
C3353 C3349 1.429 . S
C3353 C3354 1.523 . S
C3354 C3338 1.368 . S
C3354 C3350 1.368 . S
C3354 C3353 1.523 . S
H3355 C3330 0.950 . S
H3356 C3332 0.950 . S
H3357 C3333 0.949 . S
H3358 C3335 0.950 . S
H3359 C3337 0.950 . S
C3360 C3361 1.349 . S
C3360 C3362 1.327 . S
C3360 H3385 0.950 . S
C3361 C3360 1.349 . S
C3361 C3377 1.349 . S
C3362 C3360 1.327 . S
C3362 C3381 1.429 . S
C3362 H3386 0.950 . S
C3363 C3380 1.574 . S
C3363 C3382 1.368 . S
C3363 H3387 0.949 . S
H3364 C3368 0.949 . S
C3365 C3366 1.349 . S
C3365 C3367 1.327 . S
C3365 H3388 0.950 . S
C3366 C3365 1.349 . S
C3366 C3378 1.349 . S
C3367 C3365 1.327 . S
C3367 C3383 1.429 . S
C3367 H3389 0.950 . S
C3368 H3364 0.949 . S
C3368 C3376 1.574 . S
C3368 C3384 1.368 . S
H3369 C3377 0.950 . S
H3370 C3375 0.950 . S
H3371 C3376 0.949 . S
H3372 C3378 0.950 . S
H3373 C3379 0.950 . S
H3374 C3380 0.949 . S
C3375 H3370 0.950 . S
C3375 C3377 1.327 . S
C3375 C3381 1.429 . S
C3376 C3368 1.574 . S
C3376 H3371 0.949 . S
C3376 C3382 1.368 . S
C3377 C3361 1.349 . S
C3377 H3369 0.950 . S
C3377 C3375 1.327 . S
C3378 C3366 1.349 . S
C3378 H3372 0.950 . S
C3378 C3379 1.327 . S
C3379 H3373 0.950 . S
C3379 C3378 1.327 . S
C3379 C3383 1.429 . S
C3380 C3363 1.574 . S
C3380 H3374 0.949 . S
C3380 C3384 1.368 . S
C3381 C3362 1.429 . S
C3381 C3375 1.429 . S
C3381 C3382 1.523 . S
C3382 C3363 1.368 . S
C3382 C3376 1.368 . S
C3382 C3381 1.523 . S
C3383 C3367 1.429 . S
C3383 C3379 1.429 . S
C3383 C3384 1.523 . S
C3384 C3368 1.368 . S
C3384 C3380 1.368 . S
C3384 C3383 1.523 . S
H3385 C3360 0.950 . S
H3386 C3362 0.950 . S
H3387 C3363 0.949 . S
H3388 C3365 0.950 . S
H3389 C3367 0.950 . S
C3390 C3391 1.349 . S
C3390 C3392 1.327 . S
C3390 H3415 0.950 . S
C3391 C3390 1.349 . S
C3391 C3407 1.349 . S
C3392 C3390 1.327 . S
C3392 C3411 1.429 . S
C3392 H3416 0.950 . S
C3393 C3410 1.574 . S
C3393 C3412 1.368 . S
C3393 H3417 0.949 . S
H3394 C3398 0.949 . S
C3395 C3396 1.349 . S
C3395 C3397 1.327 . S
C3395 H3418 0.950 . S
C3396 C3395 1.349 . S
C3396 C3408 1.349 . S
C3397 C3395 1.327 . S
C3397 C3413 1.429 . S
C3397 H3419 0.950 . S
C3398 H3394 0.949 . S
C3398 C3406 1.574 . S
C3398 C3414 1.368 . S
H3399 C3407 0.950 . S
H3400 C3405 0.950 . S
H3401 C3406 0.949 . S
H3402 C3408 0.950 . S
H3403 C3409 0.950 . S
H3404 C3410 0.949 . S
C3405 H3400 0.950 . S
C3405 C3407 1.327 . S
C3405 C3411 1.429 . S
C3406 C3398 1.574 . S
C3406 H3401 0.949 . S
C3406 C3412 1.368 . S
C3407 C3391 1.349 . S
C3407 H3399 0.950 . S
C3407 C3405 1.327 . S
C3408 C3396 1.349 . S
C3408 H3402 0.950 . S
C3408 C3409 1.327 . S
C3409 H3403 0.950 . S
C3409 C3408 1.327 . S
C3409 C3413 1.429 . S
C3410 C3393 1.574 . S
C3410 H3404 0.949 . S
C3410 C3414 1.368 . S
C3411 C3392 1.429 . S
C3411 C3405 1.429 . S
C3411 C3412 1.523 . S
C3412 C3393 1.368 . S
C3412 C3406 1.368 . S
C3412 C3411 1.523 . S
C3413 C3397 1.429 . S
C3413 C3409 1.429 . S
C3413 C3414 1.523 . S
C3414 C3398 1.368 . S
C3414 C3410 1.368 . S
C3414 C3413 1.523 . S
H3415 C3390 0.950 . S
H3416 C3392 0.950 . S
H3417 C3393 0.949 . S
H3418 C3395 0.950 . S
H3419 C3397 0.950 . S
C3420 C3421 1.349 . S
C3420 C3422 1.327 . S
C3420 H3445 0.950 . S
C3421 C3420 1.349 . S
C3421 C3437 1.349 . S
C3422 C3420 1.327 . S
C3422 C3441 1.429 . S
C3422 H3446 0.950 . S
C3423 C3440 1.574 . S
C3423 C3442 1.368 . S
C3423 H3447 0.949 . S
H3424 C3428 0.949 . S
C3425 C3426 1.349 . S
C3425 C3427 1.327 . S
C3425 H3448 0.950 . S
C3426 C3425 1.349 . S
C3426 C3438 1.349 . S
C3427 C3425 1.327 . S
C3427 C3443 1.429 . S
C3427 H3449 0.950 . S
C3428 H3424 0.949 . S
C3428 C3436 1.574 . S
C3428 C3444 1.368 . S
H3429 C3437 0.950 . S
H3430 C3435 0.950 . S
H3431 C3436 0.949 . S
H3432 C3438 0.950 . S
H3433 C3439 0.950 . S
H3434 C3440 0.949 . S
C3435 H3430 0.950 . S
C3435 C3437 1.327 . S
C3435 C3441 1.429 . S
C3436 C3428 1.574 . S
C3436 H3431 0.949 . S
C3436 C3442 1.368 . S
C3437 C3421 1.349 . S
C3437 H3429 0.950 . S
C3437 C3435 1.327 . S
C3438 C3426 1.349 . S
C3438 H3432 0.950 . S
C3438 C3439 1.327 . S
C3439 H3433 0.950 . S
C3439 C3438 1.327 . S
C3439 C3443 1.429 . S
C3440 C3423 1.574 . S
C3440 H3434 0.949 . S
C3440 C3444 1.368 . S
C3441 C3422 1.429 . S
C3441 C3435 1.429 . S
C3441 C3442 1.523 . S
C3442 C3423 1.368 . S
C3442 C3436 1.368 . S
C3442 C3441 1.523 . S
C3443 C3427 1.429 . S
C3443 C3439 1.429 . S
C3443 C3444 1.523 . S
C3444 C3428 1.368 . S
C3444 C3440 1.368 . S
C3444 C3443 1.523 . S
H3445 C3420 0.950 . S
H3446 C3422 0.950 . S
H3447 C3423 0.949 . S
H3448 C3425 0.950 . S
H3449 C3427 0.950 . S
C3450 C3451 1.349 . S
C3450 C3452 1.327 . S
C3450 H3475 0.950 . S
C3451 C3450 1.349 . S
C3451 C3467 1.349 . S
C3452 C3450 1.327 . S
C3452 C3471 1.429 . S
C3452 H3476 0.950 . S
C3453 C3470 1.574 . S
C3453 C3472 1.368 . S
C3453 H3477 0.949 . S
H3454 C3458 0.949 . S
C3455 C3456 1.349 . S
C3455 C3457 1.327 . S
C3455 H3478 0.950 . S
C3456 C3455 1.349 . S
C3456 C3468 1.349 . S
C3457 C3455 1.327 . S
C3457 C3473 1.429 . S
C3457 H3479 0.950 . S
C3458 H3454 0.949 . S
C3458 C3466 1.574 . S
C3458 C3474 1.368 . S
H3459 C3467 0.950 . S
H3460 C3465 0.950 . S
H3461 C3466 0.949 . S
H3462 C3468 0.950 . S
H3463 C3469 0.950 . S
H3464 C3470 0.949 . S
C3465 H3460 0.950 . S
C3465 C3467 1.327 . S
C3465 C3471 1.429 . S
C3466 C3458 1.574 . S
C3466 H3461 0.949 . S
C3466 C3472 1.368 . S
C3467 C3451 1.349 . S
C3467 H3459 0.950 . S
C3467 C3465 1.327 . S
C3468 C3456 1.349 . S
C3468 H3462 0.950 . S
C3468 C3469 1.327 . S
C3469 H3463 0.950 . S
C3469 C3468 1.327 . S
C3469 C3473 1.429 . S
C3470 C3453 1.574 . S
C3470 H3464 0.949 . S
C3470 C3474 1.368 . S
C3471 C3452 1.429 . S
C3471 C3465 1.429 . S
C3471 C3472 1.523 . S
C3472 C3453 1.368 . S
C3472 C3466 1.368 . S
C3472 C3471 1.523 . S
C3473 C3457 1.429 . S
C3473 C3469 1.429 . S
C3473 C3474 1.523 . S
C3474 C3458 1.368 . S
C3474 C3470 1.368 . S
C3474 C3473 1.523 . S
H3475 C3450 0.950 . S
H3476 C3452 0.950 . S
H3477 C3453 0.949 . S
H3478 C3455 0.950 . S
H3479 C3457 0.950 . S
C3480 C3481 1.349 . S
C3480 C3482 1.327 . S
C3480 H3505 0.950 . S
C3481 C3480 1.349 . S
C3481 C3497 1.349 . S
C3482 C3480 1.327 . S
C3482 C3501 1.429 . S
C3482 H3506 0.950 . S
C3483 C3500 1.574 . S
C3483 C3502 1.368 . S
C3483 H3507 0.949 . S
H3484 C3488 0.949 . S
C3485 C3486 1.349 . S
C3485 C3487 1.327 . S
C3485 H3508 0.950 . S
C3486 C3485 1.349 . S
C3486 C3498 1.349 . S
C3487 C3485 1.327 . S
C3487 C3503 1.429 . S
C3487 H3509 0.950 . S
C3488 H3484 0.949 . S
C3488 C3496 1.574 . S
C3488 C3504 1.368 . S
H3489 C3497 0.950 . S
H3490 C3495 0.950 . S
H3491 C3496 0.949 . S
H3492 C3498 0.950 . S
H3493 C3499 0.950 . S
H3494 C3500 0.949 . S
C3495 H3490 0.950 . S
C3495 C3497 1.327 . S
C3495 C3501 1.429 . S
C3496 C3488 1.574 . S
C3496 H3491 0.949 . S
C3496 C3502 1.368 . S
C3497 C3481 1.349 . S
C3497 H3489 0.950 . S
C3497 C3495 1.327 . S
C3498 C3486 1.349 . S
C3498 H3492 0.950 . S
C3498 C3499 1.327 . S
C3499 H3493 0.950 . S
C3499 C3498 1.327 . S
C3499 C3503 1.429 . S
C3500 C3483 1.574 . S
C3500 H3494 0.949 . S
C3500 C3504 1.368 . S
C3501 C3482 1.429 . S
C3501 C3495 1.429 . S
C3501 C3502 1.523 . S
C3502 C3483 1.368 . S
C3502 C3496 1.368 . S
C3502 C3501 1.523 . S
C3503 C3487 1.429 . S
C3503 C3499 1.429 . S
C3503 C3504 1.523 . S
C3504 C3488 1.368 . S
C3504 C3500 1.368 . S
C3504 C3503 1.523 . S
H3505 C3480 0.950 . S
H3506 C3482 0.950 . S
H3507 C3483 0.949 . S
H3508 C3485 0.950 . S
H3509 C3487 0.950 . S
C3510 C3511 1.349 . S
C3510 C3512 1.327 . S
C3510 H3535 0.950 . S
C3511 C3510 1.349 . S
C3511 C3527 1.349 . S
C3512 C3510 1.327 . S
C3512 C3531 1.429 . S
C3512 H3536 0.950 . S
C3513 C3530 1.574 . S
C3513 C3532 1.368 . S
C3513 H3537 0.949 . S
H3514 C3518 0.949 . S
C3515 C3516 1.349 . S
C3515 C3517 1.327 . S
C3515 H3538 0.950 . S
C3516 C3515 1.349 . S
C3516 C3528 1.349 . S
C3517 C3515 1.327 . S
C3517 C3533 1.429 . S
C3517 H3539 0.950 . S
C3518 H3514 0.949 . S
C3518 C3526 1.574 . S
C3518 C3534 1.368 . S
H3519 C3527 0.950 . S
H3520 C3525 0.950 . S
H3521 C3526 0.949 . S
H3522 C3528 0.950 . S
H3523 C3529 0.950 . S
H3524 C3530 0.949 . S
C3525 H3520 0.950 . S
C3525 C3527 1.327 . S
C3525 C3531 1.429 . S
C3526 C3518 1.574 . S
C3526 H3521 0.949 . S
C3526 C3532 1.368 . S
C3527 C3511 1.349 . S
C3527 H3519 0.950 . S
C3527 C3525 1.327 . S
C3528 C3516 1.349 . S
C3528 H3522 0.950 . S
C3528 C3529 1.327 . S
C3529 H3523 0.950 . S
C3529 C3528 1.327 . S
C3529 C3533 1.429 . S
C3530 C3513 1.574 . S
C3530 H3524 0.949 . S
C3530 C3534 1.368 . S
C3531 C3512 1.429 . S
C3531 C3525 1.429 . S
C3531 C3532 1.523 . S
C3532 C3513 1.368 . S
C3532 C3526 1.368 . S
C3532 C3531 1.523 . S
C3533 C3517 1.429 . S
C3533 C3529 1.429 . S
C3533 C3534 1.523 . S
C3534 C3518 1.368 . S
C3534 C3530 1.368 . S
C3534 C3533 1.523 . S
H3535 C3510 0.950 . S
H3536 C3512 0.950 . S
H3537 C3513 0.949 . S
H3538 C3515 0.950 . S
H3539 C3517 0.950 . S
C3540 C3541 1.349 . S
C3540 C3542 1.327 . S
C3540 H3565 0.950 . S
C3541 C3540 1.349 . S
C3541 C3557 1.349 . S
C3542 C3540 1.327 . S
C3542 C3561 1.429 . S
C3542 H3566 0.950 . S
C3543 C3560 1.574 . S
C3543 C3562 1.368 . S
C3543 H3567 0.949 . S
H3544 C3548 0.949 . S
C3545 C3546 1.349 . S
C3545 C3547 1.327 . S
C3545 H3568 0.950 . S
C3546 C3545 1.349 . S
C3546 C3558 1.349 . S
C3547 C3545 1.327 . S
C3547 C3563 1.429 . S
C3547 H3569 0.950 . S
C3548 H3544 0.949 . S
C3548 C3556 1.574 . S
C3548 C3564 1.368 . S
H3549 C3557 0.950 . S
H3550 C3555 0.950 . S
H3551 C3556 0.949 . S
H3552 C3558 0.950 . S
H3553 C3559 0.950 . S
H3554 C3560 0.949 . S
C3555 H3550 0.950 . S
C3555 C3557 1.327 . S
C3555 C3561 1.429 . S
C3556 C3548 1.574 . S
C3556 H3551 0.949 . S
C3556 C3562 1.368 . S
C3557 C3541 1.349 . S
C3557 H3549 0.950 . S
C3557 C3555 1.327 . S
C3558 C3546 1.349 . S
C3558 H3552 0.950 . S
C3558 C3559 1.327 . S
C3559 H3553 0.950 . S
C3559 C3558 1.327 . S
C3559 C3563 1.429 . S
C3560 C3543 1.574 . S
C3560 H3554 0.949 . S
C3560 C3564 1.368 . S
C3561 C3542 1.429 . S
C3561 C3555 1.429 . S
C3561 C3562 1.523 . S
C3562 C3543 1.368 . S
C3562 C3556 1.368 . S
C3562 C3561 1.523 . S
C3563 C3547 1.429 . S
C3563 C3559 1.429 . S
C3563 C3564 1.523 . S
C3564 C3548 1.368 . S
C3564 C3560 1.368 . S
C3564 C3563 1.523 . S
H3565 C3540 0.950 . S
H3566 C3542 0.950 . S
H3567 C3543 0.949 . S
H3568 C3545 0.950 . S
H3569 C3547 0.950 . S
C3570 C3571 1.349 . S
C3570 C3572 1.327 . S
C3570 H3595 0.950 . S
C3571 C3570 1.349 . S
C3571 C3587 1.349 . S
C3572 C3570 1.327 . S
C3572 C3591 1.429 . S
C3572 H3596 0.950 . S
C3573 C3590 1.574 . S
C3573 C3592 1.368 . S
C3573 H3597 0.949 . S
H3574 C3578 0.949 . S
C3575 C3576 1.349 . S
C3575 C3577 1.327 . S
C3575 H3598 0.950 . S
C3576 C3575 1.349 . S
C3576 C3588 1.349 . S
C3577 C3575 1.327 . S
C3577 C3593 1.429 . S
C3577 H3599 0.950 . S
C3578 H3574 0.949 . S
C3578 C3586 1.574 . S
C3578 C3594 1.368 . S
H3579 C3587 0.950 . S
H3580 C3585 0.950 . S
H3581 C3586 0.949 . S
H3582 C3588 0.950 . S
H3583 C3589 0.950 . S
H3584 C3590 0.949 . S
C3585 H3580 0.950 . S
C3585 C3587 1.327 . S
C3585 C3591 1.429 . S
C3586 C3578 1.574 . S
C3586 H3581 0.949 . S
C3586 C3592 1.368 . S
C3587 C3571 1.349 . S
C3587 H3579 0.950 . S
C3587 C3585 1.327 . S
C3588 C3576 1.349 . S
C3588 H3582 0.950 . S
C3588 C3589 1.327 . S
C3589 H3583 0.950 . S
C3589 C3588 1.327 . S
C3589 C3593 1.429 . S
C3590 C3573 1.574 . S
C3590 H3584 0.949 . S
C3590 C3594 1.368 . S
C3591 C3572 1.429 . S
C3591 C3585 1.429 . S
C3591 C3592 1.523 . S
C3592 C3573 1.368 . S
C3592 C3586 1.368 . S
C3592 C3591 1.523 . S
C3593 C3577 1.429 . S
C3593 C3589 1.429 . S
C3593 C3594 1.523 . S
C3594 C3578 1.368 . S
C3594 C3590 1.368 . S
C3594 C3593 1.523 . S
H3595 C3570 0.950 . S
H3596 C3572 0.950 . S
H3597 C3573 0.949 . S
H3598 C3575 0.950 . S
H3599 C3577 0.950 . S
C3600 C3601 1.349 . S
C3600 C3602 1.327 . S
C3600 H3625 0.950 . S
C3601 C3600 1.349 . S
C3601 C3617 1.349 . S
C3602 C3600 1.327 . S
C3602 C3621 1.429 . S
C3602 H3626 0.950 . S
C3603 C3620 1.574 . S
C3603 C3622 1.368 . S
C3603 H3627 0.949 . S
H3604 C3608 0.949 . S
C3605 C3606 1.349 . S
C3605 C3607 1.327 . S
C3605 H3628 0.950 . S
C3606 C3605 1.349 . S
C3606 C3618 1.349 . S
C3607 C3605 1.327 . S
C3607 C3623 1.429 . S
C3607 H3629 0.950 . S
C3608 H3604 0.949 . S
C3608 C3616 1.574 . S
C3608 C3624 1.368 . S
H3609 C3617 0.950 . S
H3610 C3615 0.950 . S
H3611 C3616 0.949 . S
H3612 C3618 0.950 . S
H3613 C3619 0.950 . S
H3614 C3620 0.949 . S
C3615 H3610 0.950 . S
C3615 C3617 1.327 . S
C3615 C3621 1.429 . S
C3616 C3608 1.574 . S
C3616 H3611 0.949 . S
C3616 C3622 1.368 . S
C3617 C3601 1.349 . S
C3617 H3609 0.950 . S
C3617 C3615 1.327 . S
C3618 C3606 1.349 . S
C3618 H3612 0.950 . S
C3618 C3619 1.327 . S
C3619 H3613 0.950 . S
C3619 C3618 1.327 . S
C3619 C3623 1.429 . S
C3620 C3603 1.574 . S
C3620 H3614 0.949 . S
C3620 C3624 1.368 . S
C3621 C3602 1.429 . S
C3621 C3615 1.429 . S
C3621 C3622 1.523 . S
C3622 C3603 1.368 . S
C3622 C3616 1.368 . S
C3622 C3621 1.523 . S
C3623 C3607 1.429 . S
C3623 C3619 1.429 . S
C3623 C3624 1.523 . S
C3624 C3608 1.368 . S
C3624 C3620 1.368 . S
C3624 C3623 1.523 . S
H3625 C3600 0.950 . S
H3626 C3602 0.950 . S
H3627 C3603 0.949 . S
H3628 C3605 0.950 . S
H3629 C3607 0.950 . S
C3630 C3631 1.349 . S
C3630 C3632 1.327 . S
C3630 H3655 0.950 . S
C3631 C3630 1.349 . S
C3631 C3647 1.349 . S
C3632 C3630 1.327 . S
C3632 C3651 1.429 . S
C3632 H3656 0.950 . S
C3633 C3650 1.574 . S
C3633 C3652 1.368 . S
C3633 H3657 0.949 . S
H3634 C3638 0.949 . S
C3635 C3636 1.349 . S
C3635 C3637 1.327 . S
C3635 H3658 0.950 . S
C3636 C3635 1.349 . S
C3636 C3648 1.349 . S
C3637 C3635 1.327 . S
C3637 C3653 1.429 . S
C3637 H3659 0.950 . S
C3638 H3634 0.949 . S
C3638 C3646 1.574 . S
C3638 C3654 1.368 . S
H3639 C3647 0.950 . S
H3640 C3645 0.950 . S
H3641 C3646 0.949 . S
H3642 C3648 0.950 . S
H3643 C3649 0.950 . S
H3644 C3650 0.949 . S
C3645 H3640 0.950 . S
C3645 C3647 1.327 . S
C3645 C3651 1.429 . S
C3646 C3638 1.574 . S
C3646 H3641 0.949 . S
C3646 C3652 1.368 . S
C3647 C3631 1.349 . S
C3647 H3639 0.950 . S
C3647 C3645 1.327 . S
C3648 C3636 1.349 . S
C3648 H3642 0.950 . S
C3648 C3649 1.327 . S
C3649 H3643 0.950 . S
C3649 C3648 1.327 . S
C3649 C3653 1.429 . S
C3650 C3633 1.574 . S
C3650 H3644 0.949 . S
C3650 C3654 1.368 . S
C3651 C3632 1.429 . S
C3651 C3645 1.429 . S
C3651 C3652 1.523 . S
C3652 C3633 1.368 . S
C3652 C3646 1.368 . S
C3652 C3651 1.523 . S
C3653 C3637 1.429 . S
C3653 C3649 1.429 . S
C3653 C3654 1.523 . S
C3654 C3638 1.368 . S
C3654 C3650 1.368 . S
C3654 C3653 1.523 . S
H3655 C3630 0.950 . S
H3656 C3632 0.950 . S
H3657 C3633 0.949 . S
H3658 C3635 0.950 . S
H3659 C3637 0.950 . S
C3660 C3661 1.349 . S
C3660 C3662 1.327 . S
C3660 H3685 0.950 . S
C3661 C3660 1.349 . S
C3661 C3677 1.349 . S
C3662 C3660 1.327 . S
C3662 C3681 1.429 . S
C3662 H3686 0.950 . S
C3663 C3680 1.574 . S
C3663 C3682 1.368 . S
C3663 H3687 0.949 . S
H3664 C3668 0.949 . S
C3665 C3666 1.349 . S
C3665 C3667 1.327 . S
C3665 H3688 0.950 . S
C3666 C3665 1.349 . S
C3666 C3678 1.349 . S
C3667 C3665 1.327 . S
C3667 C3683 1.429 . S
C3667 H3689 0.950 . S
C3668 H3664 0.949 . S
C3668 C3676 1.574 . S
C3668 C3684 1.368 . S
H3669 C3677 0.950 . S
H3670 C3675 0.950 . S
H3671 C3676 0.949 . S
H3672 C3678 0.950 . S
H3673 C3679 0.950 . S
H3674 C3680 0.949 . S
C3675 H3670 0.950 . S
C3675 C3677 1.327 . S
C3675 C3681 1.429 . S
C3676 C3668 1.574 . S
C3676 H3671 0.949 . S
C3676 C3682 1.368 . S
C3677 C3661 1.349 . S
C3677 H3669 0.950 . S
C3677 C3675 1.327 . S
C3678 C3666 1.349 . S
C3678 H3672 0.950 . S
C3678 C3679 1.327 . S
C3679 H3673 0.950 . S
C3679 C3678 1.327 . S
C3679 C3683 1.429 . S
C3680 C3663 1.574 . S
C3680 H3674 0.949 . S
C3680 C3684 1.368 . S
C3681 C3662 1.429 . S
C3681 C3675 1.429 . S
C3681 C3682 1.523 . S
C3682 C3663 1.368 . S
C3682 C3676 1.368 . S
C3682 C3681 1.523 . S
C3683 C3667 1.429 . S
C3683 C3679 1.429 . S
C3683 C3684 1.523 . S
C3684 C3668 1.368 . S
C3684 C3680 1.368 . S
C3684 C3683 1.523 . S
H3685 C3660 0.950 . S
H3686 C3662 0.950 . S
H3687 C3663 0.949 . S
H3688 C3665 0.950 . S
H3689 C3667 0.950 . S
C3690 C3691 1.349 . S
C3690 C3692 1.327 . S
C3690 H3715 0.950 . S
C3691 C3690 1.349 . S
C3691 C3707 1.390 . S
C3692 C3690 1.327 . S
C3692 C3711 1.429 . S
C3692 H3716 0.950 . S
C3693 C3710 1.584 . S
C3693 C3712 1.368 . S
C3693 H3717 0.949 1_554 S
H3694 C3698 0.949 . S
C3695 C3696 1.349 . S
C3695 C3697 1.327 . S
C3695 H3718 0.950 . S
C3696 C3695 1.349 . S
C3696 C3708 1.349 . S
C3697 C3695 1.327 . S
C3697 C3713 1.429 . S
C3697 H3719 0.950 . S
C3698 H3694 0.949 . S
C3698 C3706 1.574 . S
C3698 C3714 1.368 . S
H3699 C3707 0.914 1_556 S
H3700 C3705 0.950 1_556 S
H3701 C3706 0.949 . S
H3702 C3708 0.950 . S
H3703 C3709 0.950 1_565 S
H3704 C3710 0.877 1_546 S
C3705 H3700 0.950 1_554 S
C3705 C3707 1.323 . S
C3705 C3711 1.429 . S
C3706 C3698 1.574 . S
C3706 H3701 0.949 . S
C3706 C3712 1.368 . S
C3707 C3691 1.390 . S
C3707 H3699 0.914 1_554 S
C3707 C3705 1.323 . S
C3708 C3696 1.349 . S
C3708 H3702 0.950 . S
C3708 C3709 1.327 . S
C3709 H3703 0.950 1_545 S
C3709 C3708 1.327 . S
C3709 C3713 1.429 . S
C3710 C3693 1.584 . S
C3710 H3704 0.877 1_564 S
C3710 C3714 1.387 . S
C3711 C3692 1.429 . S
C3711 C3705 1.429 . S
C3711 C3712 1.523 . S
C3712 C3693 1.368 . S
C3712 C3706 1.368 . S
C3712 C3711 1.523 . S
C3713 C3697 1.429 . S
C3713 C3709 1.429 . S
C3713 C3714 1.523 1_545 S
C3714 C3698 1.368 . S
C3714 C3710 1.387 . S
C3714 C3713 1.523 1_565 S
H3715 C3690 0.950 . S
H3716 C3692 0.950 . S
H3717 C3693 0.949 1_556 S
H3718 C3695 0.950 . S
H3719 C3697 0.950 . S
C3720 C3721 1.349 . S
C3720 C3722 1.327 . S
C3720 H3745 0.950 . S
C3721 C3720 1.349 . S
C3721 C3737 1.349 . S
C3722 C3720 1.327 . S
C3722 C3741 1.429 . S
C3722 H3746 0.950 . S
C3723 C3740 1.574 . S
C3723 C3742 1.368 . S
C3723 H3747 0.949 . S
H3724 C3728 0.949 . S
C3725 C3726 1.349 . S
C3725 C3727 1.327 . S
C3725 H3748 0.950 . S
C3726 C3725 1.349 . S
C3726 C3738 1.349 . S
C3727 C3725 1.327 . S
C3727 C3743 1.429 . S
C3727 H3749 0.950 . S
C3728 H3724 0.949 . S
C3728 C3736 1.574 . S
C3728 C3744 1.368 . S
H3729 C3737 0.950 . S
H3730 C3735 0.950 . S
H3731 C3736 0.949 . S
H3732 C3738 0.950 . S
H3733 C3739 0.950 . S
H3734 C3740 0.949 . S
C3735 H3730 0.950 . S
C3735 C3737 1.327 . S
C3735 C3741 1.429 . S
C3736 C3728 1.574 . S
C3736 H3731 0.949 . S
C3736 C3742 1.368 . S
C3737 C3721 1.349 . S
C3737 H3729 0.950 . S
C3737 C3735 1.327 . S
C3738 C3726 1.349 . S
C3738 H3732 0.950 . S
C3738 C3739 1.327 . S
C3739 H3733 0.950 . S
C3739 C3738 1.327 . S
C3739 C3743 1.429 . S
C3740 C3723 1.574 . S
C3740 H3734 0.949 . S
C3740 C3744 1.368 . S
C3741 C3722 1.429 . S
C3741 C3735 1.429 . S
C3741 C3742 1.523 . S
C3742 C3723 1.368 . S
C3742 C3736 1.368 . S
C3742 C3741 1.523 . S
C3743 C3727 1.429 . S
C3743 C3739 1.429 . S
C3743 C3744 1.523 . S
C3744 C3728 1.368 . S
C3744 C3740 1.368 . S
C3744 C3743 1.523 . S
H3745 C3720 0.950 . S
H3746 C3722 0.950 . S
H3747 C3723 0.949 . S
H3748 C3725 0.950 . S
H3749 C3727 0.950 . S
C3750 C3751 1.349 . S
C3750 C3752 1.327 . S
C3750 H3775 0.950 . S
C3751 C3750 1.349 . S
C3751 C3767 1.349 . S
C3752 C3750 1.327 . S
C3752 C3771 1.429 . S
C3752 H3776 0.950 . S
C3753 C3770 1.574 . S
C3753 C3772 1.368 . S
C3753 H3777 0.949 . S
H3754 C3758 0.949 . S
C3755 C3756 1.349 . S
C3755 C3757 1.327 . S
C3755 H3778 0.950 . S
C3756 C3755 1.349 . S
C3756 C3768 1.349 . S
C3757 C3755 1.327 . S
C3757 C3773 1.429 . S
C3757 H3779 0.950 . S
C3758 H3754 0.949 . S
C3758 C3766 1.574 . S
C3758 C3774 1.368 . S
H3759 C3767 0.950 . S
H3760 C3765 0.950 . S
H3761 C3766 0.949 . S
H3762 C3768 0.950 . S
H3763 C3769 0.950 . S
H3764 C3770 0.949 . S
C3765 H3760 0.950 . S
C3765 C3767 1.327 . S
C3765 C3771 1.429 . S
C3766 C3758 1.574 . S
C3766 H3761 0.949 . S
C3766 C3772 1.368 . S
C3767 C3751 1.349 . S
C3767 H3759 0.950 . S
C3767 C3765 1.327 . S
C3768 C3756 1.349 . S
C3768 H3762 0.950 . S
C3768 C3769 1.327 . S
C3769 H3763 0.950 . S
C3769 C3768 1.327 . S
C3769 C3773 1.429 . S
C3770 C3753 1.574 . S
C3770 H3764 0.949 . S
C3770 C3774 1.368 . S
C3771 C3752 1.429 . S
C3771 C3765 1.429 . S
C3771 C3772 1.523 . S
C3772 C3753 1.368 . S
C3772 C3766 1.368 . S
C3772 C3771 1.523 . S
C3773 C3757 1.429 . S
C3773 C3769 1.429 . S
C3773 C3774 1.523 . S
C3774 C3758 1.368 . S
C3774 C3770 1.368 . S
C3774 C3773 1.523 . S
H3775 C3750 0.950 . S
H3776 C3752 0.950 . S
H3777 C3753 0.949 . S
H3778 C3755 0.950 . S
H3779 C3757 0.950 . S
C3780 C3781 1.349 . S
C3780 C3782 1.327 . S
C3780 H3805 0.950 . S
C3781 C3780 1.349 . S
C3781 C3797 1.349 . S
C3782 C3780 1.327 . S
C3782 C3801 1.429 . S
C3782 H3806 0.950 . S
C3783 C3800 1.574 . S
C3783 C3802 1.368 . S
C3783 H3807 0.949 . S
H3784 C3788 0.949 . S
C3785 C3786 1.349 . S
C3785 C3787 1.327 . S
C3785 H3808 0.950 . S
C3786 C3785 1.349 . S
C3786 C3798 1.349 . S
C3787 C3785 1.327 . S
C3787 C3803 1.429 . S
C3787 H3809 0.950 . S
C3788 H3784 0.949 . S
C3788 C3796 1.574 . S
C3788 C3804 1.368 . S
H3789 C3797 0.950 . S
H3790 C3795 0.950 . S
H3791 C3796 0.949 . S
H3792 C3798 0.950 . S
H3793 C3799 0.950 . S
H3794 C3800 0.949 . S
C3795 H3790 0.950 . S
C3795 C3797 1.327 . S
C3795 C3801 1.429 . S
C3796 C3788 1.574 . S
C3796 H3791 0.949 . S
C3796 C3802 1.368 . S
C3797 C3781 1.349 . S
C3797 H3789 0.950 . S
C3797 C3795 1.327 . S
C3798 C3786 1.349 . S
C3798 H3792 0.950 . S
C3798 C3799 1.327 . S
C3799 H3793 0.950 . S
C3799 C3798 1.327 . S
C3799 C3803 1.429 . S
C3800 C3783 1.574 . S
C3800 H3794 0.949 . S
C3800 C3804 1.368 . S
C3801 C3782 1.429 . S
C3801 C3795 1.429 . S
C3801 C3802 1.523 . S
C3802 C3783 1.368 . S
C3802 C3796 1.368 . S
C3802 C3801 1.523 . S
C3803 C3787 1.429 . S
C3803 C3799 1.429 . S
C3803 C3804 1.523 . S
C3804 C3788 1.368 . S
C3804 C3800 1.368 . S
C3804 C3803 1.523 . S
H3805 C3780 0.950 . S
H3806 C3782 0.950 . S
H3807 C3783 0.949 . S
H3808 C3785 0.950 . S
H3809 C3787 0.950 . S
C3810 C3811 1.349 . S
C3810 C3812 1.327 . S
C3810 H3835 0.950 . S
C3811 C3810 1.349 . S
C3811 C3827 1.349 . S
C3812 C3810 1.327 . S
C3812 C3831 1.429 . S
C3812 H3836 0.950 . S
C3813 C3830 1.574 . S
C3813 C3832 1.368 . S
C3813 H3837 0.949 . S
H3814 C3818 0.949 . S
C3815 C3816 1.349 . S
C3815 C3817 1.327 . S
C3815 H3838 0.950 . S
C3816 C3815 1.349 . S
C3816 C3828 1.349 . S
C3817 C3815 1.327 . S
C3817 C3833 1.429 . S
C3817 H3839 0.950 . S
C3818 H3814 0.949 . S
C3818 C3826 1.574 . S
C3818 C3834 1.368 . S
H3819 C3827 0.950 . S
H3820 C3825 0.950 . S
H3821 C3826 0.949 . S
H3822 C3828 0.950 . S
H3823 C3829 0.950 . S
H3824 C3830 0.949 . S
C3825 H3820 0.950 . S
C3825 C3827 1.327 . S
C3825 C3831 1.429 . S
C3826 C3818 1.574 . S
C3826 H3821 0.949 . S
C3826 C3832 1.368 . S
C3827 C3811 1.349 . S
C3827 H3819 0.950 . S
C3827 C3825 1.327 . S
C3828 C3816 1.349 . S
C3828 H3822 0.950 . S
C3828 C3829 1.327 . S
C3829 H3823 0.950 . S
C3829 C3828 1.327 . S
C3829 C3833 1.429 . S
C3830 C3813 1.574 . S
C3830 H3824 0.949 . S
C3830 C3834 1.368 . S
C3831 C3812 1.429 . S
C3831 C3825 1.429 . S
C3831 C3832 1.523 . S
C3832 C3813 1.368 . S
C3832 C3826 1.368 . S
C3832 C3831 1.523 . S
C3833 C3817 1.429 . S
C3833 C3829 1.429 . S
C3833 C3834 1.523 . S
C3834 C3818 1.368 . S
C3834 C3830 1.368 . S
C3834 C3833 1.523 . S
H3835 C3810 0.950 . S
H3836 C3812 0.950 . S
H3837 C3813 0.949 . S
H3838 C3815 0.950 . S
H3839 C3817 0.950 . S
C3840 C3841 1.349 . S
C3840 C3842 1.327 . S
C3840 H3865 0.950 . S
C3841 C3840 1.349 . S
C3841 C3857 1.349 . S
C3842 C3840 1.327 . S
C3842 C3861 1.429 . S
C3842 H3866 0.950 . S
C3843 C3860 1.574 . S
C3843 C3862 1.368 . S
C3843 H3867 0.949 . S
H3844 C3848 0.949 . S
C3845 C3846 1.349 . S
C3845 C3847 1.327 . S
C3845 H3868 0.950 . S
C3846 C3845 1.349 . S
C3846 C3858 1.349 . S
C3847 C3845 1.327 . S
C3847 C3863 1.429 . S
C3847 H3869 0.950 . S
C3848 H3844 0.949 . S
C3848 C3856 1.574 . S
C3848 C3864 1.368 . S
H3849 C3857 0.950 . S
H3850 C3855 0.950 . S
H3851 C3856 0.949 . S
H3852 C3858 0.950 . S
H3853 C3859 0.950 . S
H3854 C3860 0.949 . S
C3855 H3850 0.950 . S
C3855 C3857 1.327 . S
C3855 C3861 1.429 . S
C3856 C3848 1.574 . S
C3856 H3851 0.949 . S
C3856 C3862 1.368 . S
C3857 C3841 1.349 . S
C3857 H3849 0.950 . S
C3857 C3855 1.327 . S
C3858 C3846 1.349 . S
C3858 H3852 0.950 . S
C3858 C3859 1.327 . S
C3859 H3853 0.950 . S
C3859 C3858 1.327 . S
C3859 C3863 1.429 . S
C3860 C3843 1.574 . S
C3860 H3854 0.949 . S
C3860 C3864 1.368 . S
C3861 C3842 1.429 . S
C3861 C3855 1.429 . S
C3861 C3862 1.523 . S
C3862 C3843 1.368 . S
C3862 C3856 1.368 . S
C3862 C3861 1.523 . S
C3863 C3847 1.429 . S
C3863 C3859 1.429 . S
C3863 C3864 1.523 . S
C3864 C3848 1.368 . S
C3864 C3860 1.368 . S
C3864 C3863 1.523 . S
H3865 C3840 0.950 . S
H3866 C3842 0.950 . S
H3867 C3843 0.949 . S
H3868 C3845 0.950 . S
H3869 C3847 0.950 . S
C3870 C3871 1.349 . S
C3870 C3872 1.327 . S
C3870 H3895 0.950 . S
C3871 C3870 1.349 . S
C3871 C3887 1.349 . S
C3872 C3870 1.327 . S
C3872 C3891 1.429 . S
C3872 H3896 0.950 . S
C3873 C3890 1.574 . S
C3873 C3892 1.368 . S
C3873 H3897 0.949 . S
H3874 C3878 0.949 . S
C3875 C3876 1.349 . S
C3875 C3877 1.327 . S
C3875 H3898 0.950 . S
C3876 C3875 1.349 . S
C3876 C3888 1.349 . S
C3877 C3875 1.327 . S
C3877 C3893 1.429 . S
C3877 H3899 0.950 . S
C3878 H3874 0.949 . S
C3878 C3886 1.574 . S
C3878 C3894 1.368 . S
H3879 C3887 0.950 . S
H3880 C3885 0.950 . S
H3881 C3886 0.949 . S
H3882 C3888 0.950 . S
H3883 C3889 0.950 . S
H3884 C3890 0.949 . S
C3885 H3880 0.950 . S
C3885 C3887 1.327 . S
C3885 C3891 1.429 . S
C3886 C3878 1.574 . S
C3886 H3881 0.949 . S
C3886 C3892 1.368 . S
C3887 C3871 1.349 . S
C3887 H3879 0.950 . S
C3887 C3885 1.327 . S
C3888 C3876 1.349 . S
C3888 H3882 0.950 . S
C3888 C3889 1.327 . S
C3889 H3883 0.950 . S
C3889 C3888 1.327 . S
C3889 C3893 1.429 . S
C3890 C3873 1.574 . S
C3890 H3884 0.949 . S
C3890 C3894 1.368 . S
C3891 C3872 1.429 . S
C3891 C3885 1.429 . S
C3891 C3892 1.523 . S
C3892 C3873 1.368 . S
C3892 C3886 1.368 . S
C3892 C3891 1.523 . S
C3893 C3877 1.429 . S
C3893 C3889 1.429 . S
C3893 C3894 1.523 . S
C3894 C3878 1.368 . S
C3894 C3890 1.368 . S
C3894 C3893 1.523 . S
H3895 C3870 0.950 . S
H3896 C3872 0.950 . S
H3897 C3873 0.949 . S
H3898 C3875 0.950 . S
H3899 C3877 0.950 . S
C3900 C3901 1.349 . S
C3900 C3902 1.327 . S
C3900 H3925 0.950 . S
C3901 C3900 1.349 . S
C3901 C3917 1.349 . S
C3902 C3900 1.327 . S
C3902 C3921 1.429 . S
C3902 H3926 0.950 . S
C3903 C3920 1.574 . S
C3903 C3922 1.368 . S
C3903 H3927 0.949 . S
H3904 C3908 0.949 . S
C3905 C3906 1.349 . S
C3905 C3907 1.327 . S
C3905 H3928 0.950 . S
C3906 C3905 1.349 . S
C3906 C3918 1.349 . S
C3907 C3905 1.327 . S
C3907 C3923 1.429 . S
C3907 H3929 0.950 . S
C3908 H3904 0.949 . S
C3908 C3916 1.574 . S
C3908 C3924 1.368 . S
H3909 C3917 0.950 . S
H3910 C3915 0.950 . S
H3911 C3916 0.949 . S
H3912 C3918 0.950 . S
H3913 C3919 0.950 . S
H3914 C3920 0.949 . S
C3915 H3910 0.950 . S
C3915 C3917 1.327 . S
C3915 C3921 1.429 . S
C3916 C3908 1.574 . S
C3916 H3911 0.949 . S
C3916 C3922 1.368 . S
C3917 C3901 1.349 . S
C3917 H3909 0.950 . S
C3917 C3915 1.327 . S
C3918 C3906 1.349 . S
C3918 H3912 0.950 . S
C3918 C3919 1.327 . S
C3919 H3913 0.950 . S
C3919 C3918 1.327 . S
C3919 C3923 1.429 . S
C3920 C3903 1.574 . S
C3920 H3914 0.949 . S
C3920 C3924 1.368 . S
C3921 C3902 1.429 . S
C3921 C3915 1.429 . S
C3921 C3922 1.523 . S
C3922 C3903 1.368 . S
C3922 C3916 1.368 . S
C3922 C3921 1.523 . S
C3923 C3907 1.429 . S
C3923 C3919 1.429 . S
C3923 C3924 1.523 . S
C3924 C3908 1.368 . S
C3924 C3920 1.368 . S
C3924 C3923 1.523 . S
H3925 C3900 0.950 . S
H3926 C3902 0.950 . S
H3927 C3903 0.949 . S
H3928 C3905 0.950 . S
H3929 C3907 0.950 . S
C3930 C3931 1.349 . S
C3930 C3932 1.327 . S
C3930 H3955 0.950 . S
C3931 C3930 1.349 . S
C3931 C3947 1.349 . S
C3932 C3930 1.327 . S
C3932 C3951 1.429 . S
C3932 H3956 0.950 . S
C3933 C3950 1.574 . S
C3933 C3952 1.368 . S
C3933 H3957 0.949 . S
H3934 C3938 0.949 . S
C3935 C3936 1.349 . S
C3935 C3937 1.327 . S
C3935 H3958 0.950 . S
C3936 C3935 1.349 . S
C3936 C3948 1.349 . S
C3937 C3935 1.327 . S
C3937 C3953 1.429 . S
C3937 H3959 0.950 . S
C3938 H3934 0.949 . S
C3938 C3946 1.574 . S
C3938 C3954 1.368 . S
H3939 C3947 0.950 . S
H3940 C3945 0.950 . S
H3941 C3946 0.949 . S
H3942 C3948 0.950 . S
H3943 C3949 0.950 . S
H3944 C3950 0.949 . S
C3945 H3940 0.950 . S
C3945 C3947 1.327 . S
C3945 C3951 1.429 . S
C3946 C3938 1.574 . S
C3946 H3941 0.949 . S
C3946 C3952 1.368 . S
C3947 C3931 1.349 . S
C3947 H3939 0.950 . S
C3947 C3945 1.327 . S
C3948 C3936 1.349 . S
C3948 H3942 0.950 . S
C3948 C3949 1.327 . S
C3949 H3943 0.950 . S
C3949 C3948 1.327 . S
C3949 C3953 1.429 . S
C3950 C3933 1.574 . S
C3950 H3944 0.949 . S
C3950 C3954 1.368 . S
C3951 C3932 1.429 . S
C3951 C3945 1.429 . S
C3951 C3952 1.523 . S
C3952 C3933 1.368 . S
C3952 C3946 1.368 . S
C3952 C3951 1.523 . S
C3953 C3937 1.429 . S
C3953 C3949 1.429 . S
C3953 C3954 1.523 . S
C3954 C3938 1.368 . S
C3954 C3950 1.368 . S
C3954 C3953 1.523 . S
H3955 C3930 0.950 . S
H3956 C3932 0.950 . S
H3957 C3933 0.949 . S
H3958 C3935 0.950 . S
H3959 C3937 0.950 . S
C3960 C3961 1.349 . S
C3960 C3962 1.327 . S
C3960 H3985 0.950 . S
C3961 C3960 1.349 . S
C3961 C3977 1.349 . S
C3962 C3960 1.327 . S
C3962 C3981 1.429 . S
C3962 H3986 0.950 . S
C3963 C3980 1.574 . S
C3963 C3982 1.368 . S
C3963 H3987 0.949 . S
H3964 C3968 0.949 . S
C3965 C3966 1.349 . S
C3965 C3967 1.327 . S
C3965 H3988 0.950 . S
C3966 C3965 1.349 . S
C3966 C3978 1.342 1_556 S
C3967 C3965 1.327 . S
C3967 C3983 1.429 . S
C3967 H3989 0.950 . S
C3968 H3964 0.949 . S
C3968 C3976 1.574 . S
C3968 C3984 1.368 . S
H3969 C3977 0.950 . S
H3970 C3975 0.950 . S
H3971 C3976 0.949 . S
H3972 C3978 0.978 . S
H3973 C3979 0.950 . S
H3974 C3980 0.949 . S
C3975 H3970 0.950 . S
C3975 C3977 1.327 . S
C3975 C3981 1.429 . S
C3976 C3968 1.574 . S
C3976 H3971 0.949 . S
C3976 C3982 1.368 . S
C3977 C3961 1.349 . S
C3977 H3969 0.950 . S
C3977 C3975 1.327 . S
C3978 C3966 1.342 1_554 S
C3978 H3972 0.978 . S
C3978 C3979 1.307 1_554 S
C3979 H3973 0.950 . S
C3979 C3978 1.307 1_556 S
C3979 C3983 1.429 . S
C3980 C3963 1.574 . S
C3980 H3974 0.949 . S
C3980 C3984 1.368 . S
C3981 C3962 1.429 . S
C3981 C3975 1.429 . S
C3981 C3982 1.523 . S
C3982 C3963 1.368 . S
C3982 C3976 1.368 . S
C3982 C3981 1.523 . S
C3983 C3967 1.429 . S
C3983 C3979 1.429 . S
C3983 C3984 1.523 . S
C3984 C3968 1.368 . S
C3984 C3980 1.368 . S
C3984 C3983 1.523 . S
H3985 C3960 0.950 . S
H3986 C3962 0.950 . S
H3987 C3963 0.949 . S
H3988 C3965 0.950 . S
H3989 C3967 0.950 . S
C3990 C3991 1.349 . S
C3990 C3992 1.327 . S
C3990 H4015 0.950 . S
C3991 C3990 1.349 . S
C3991 C4007 1.349 . S
C3992 C3990 1.327 . S
C3992 C4011 1.429 . S
C3992 H4016 0.950 . S
C3993 C4010 1.574 . S
C3993 C4012 1.368 . S
C3993 H4017 0.949 . S
H3994 C3998 0.949 . S
C3995 C3996 1.349 . S
C3995 C3997 1.327 . S
C3995 H4018 0.950 . S
C3996 C3995 1.349 . S
C3996 C4008 1.349 . S
C3997 C3995 1.327 . S
C3997 C4013 1.429 . S
C3997 H4019 0.950 . S
C3998 H3994 0.949 . S
C3998 C4006 1.574 . S
C3998 C4014 1.368 . S
H3999 C4007 0.950 . S
H4000 C4005 0.950 . S
H4001 C4006 0.949 . S
H4002 C4008 0.950 . S
H4003 C4009 0.950 . S
H4004 C4010 0.949 . S
C4005 H4000 0.950 . S
C4005 C4007 1.327 . S
C4005 C4011 1.429 . S
C4006 C3998 1.574 . S
C4006 H4001 0.949 . S
C4006 C4012 1.368 . S
C4007 C3991 1.349 . S
C4007 H3999 0.950 . S
C4007 C4005 1.327 . S
C4008 C3996 1.349 . S
C4008 H4002 0.950 . S
C4008 C4009 1.327 . S
C4009 H4003 0.950 . S
C4009 C4008 1.327 . S
C4009 C4013 1.429 . S
C4010 C3993 1.574 . S
C4010 H4004 0.949 . S
C4010 C4014 1.368 . S
C4011 C3992 1.429 . S
C4011 C4005 1.429 . S
C4011 C4012 1.523 . S
C4012 C3993 1.368 . S
C4012 C4006 1.368 . S
C4012 C4011 1.523 . S
C4013 C3997 1.429 . S
C4013 C4009 1.429 . S
C4013 C4014 1.523 . S
C4014 C3998 1.368 . S
C4014 C4010 1.368 . S
C4014 C4013 1.523 . S
H4015 C3990 0.950 . S
H4016 C3992 0.950 . S
H4017 C3993 0.949 . S
H4018 C3995 0.950 . S
H4019 C3997 0.950 . S
C4020 C4021 1.349 . S
C4020 C4022 1.327 . S
C4020 H4045 0.950 . S
C4021 C4020 1.349 . S
C4021 C4037 1.349 . S
C4022 C4020 1.327 . S
C4022 C4041 1.429 . S
C4022 H4046 0.950 . S
C4023 C4040 1.574 . S
C4023 C4042 1.368 . S
C4023 H4047 0.949 . S
H4024 C4028 0.949 . S
C4025 C4026 1.349 . S
C4025 C4027 1.327 . S
C4025 H4048 0.950 . S
C4026 C4025 1.349 . S
C4026 C4038 1.349 . S
C4027 C4025 1.327 . S
C4027 C4043 1.429 . S
C4027 H4049 0.950 . S
C4028 H4024 0.949 . S
C4028 C4036 1.574 . S
C4028 C4044 1.368 . S
H4029 C4037 0.950 . S
H4030 C4035 0.950 . S
H4031 C4036 0.949 . S
H4032 C4038 0.950 . S
H4033 C4039 0.950 . S
H4034 C4040 0.949 . S
C4035 H4030 0.950 . S
C4035 C4037 1.327 . S
C4035 C4041 1.429 . S
C4036 C4028 1.574 . S
C4036 H4031 0.949 . S
C4036 C4042 1.368 . S
C4037 C4021 1.349 . S
C4037 H4029 0.950 . S
C4037 C4035 1.327 . S
C4038 C4026 1.349 . S
C4038 H4032 0.950 . S
C4038 C4039 1.327 . S
C4039 H4033 0.950 . S
C4039 C4038 1.327 . S
C4039 C4043 1.429 . S
C4040 C4023 1.574 . S
C4040 H4034 0.949 . S
C4040 C4044 1.368 . S
C4041 C4022 1.429 . S
C4041 C4035 1.429 . S
C4041 C4042 1.523 . S
C4042 C4023 1.368 . S
C4042 C4036 1.368 . S
C4042 C4041 1.523 . S
C4043 C4027 1.429 . S
C4043 C4039 1.429 . S
C4043 C4044 1.523 . S
C4044 C4028 1.368 . S
C4044 C4040 1.368 . S
C4044 C4043 1.523 . S
H4045 C4020 0.950 . S
H4046 C4022 0.950 . S
H4047 C4023 0.949 . S
H4048 C4025 0.950 . S
H4049 C4027 0.950 . S
C4050 C4051 1.349 . S
C4050 C4052 1.327 . S
C4050 H4075 0.950 . S
C4051 C4050 1.349 . S
C4051 C4067 1.349 . S
C4052 C4050 1.327 . S
C4052 C4071 1.429 . S
C4052 H4076 0.950 . S
C4053 C4070 1.574 . S
C4053 C4072 1.368 . S
C4053 H4077 0.949 . S
H4054 C4058 0.949 . S
C4055 C4056 1.349 . S
C4055 C4057 1.327 . S
C4055 H4078 0.950 . S
C4056 C4055 1.349 . S
C4056 C4068 1.349 . S
C4057 C4055 1.327 . S
C4057 C4073 1.429 . S
C4057 H4079 0.950 . S
C4058 H4054 0.949 . S
C4058 C4066 1.574 . S
C4058 C4074 1.368 . S
H4059 C4067 0.950 . S
H4060 C4065 0.950 . S
H4061 C4066 0.949 . S
H4062 C4068 0.950 . S
H4063 C4069 0.950 . S
H4064 C4070 0.949 . S
C4065 H4060 0.950 . S
C4065 C4067 1.327 . S
C4065 C4071 1.429 . S
C4066 C4058 1.574 . S
C4066 H4061 0.949 . S
C4066 C4072 1.368 . S
C4067 C4051 1.349 . S
C4067 H4059 0.950 . S
C4067 C4065 1.327 . S
C4068 C4056 1.349 . S
C4068 H4062 0.950 . S
C4068 C4069 1.327 . S
C4069 H4063 0.950 . S
C4069 C4068 1.327 . S
C4069 C4073 1.429 . S
C4070 C4053 1.574 . S
C4070 H4064 0.949 . S
C4070 C4074 1.368 . S
C4071 C4052 1.429 . S
C4071 C4065 1.429 . S
C4071 C4072 1.523 . S
C4072 C4053 1.368 . S
C4072 C4066 1.368 . S
C4072 C4071 1.523 . S
C4073 C4057 1.429 . S
C4073 C4069 1.429 . S
C4073 C4074 1.523 . S
C4074 C4058 1.368 . S
C4074 C4070 1.368 . S
C4074 C4073 1.523 . S
H4075 C4050 0.950 . S
H4076 C4052 0.950 . S
H4077 C4053 0.949 . S
H4078 C4055 0.950 . S
H4079 C4057 0.950 . S
C4080 C4081 1.349 . S
C4080 C4082 1.327 . S
C4080 H4105 0.950 . S
C4081 C4080 1.349 . S
C4081 C4097 1.349 . S
C4082 C4080 1.327 . S
C4082 C4101 1.429 . S
C4082 H4106 0.950 . S
C4083 C4100 1.574 . S
C4083 C4102 1.368 . S
C4083 H4107 0.949 . S
H4084 C4088 0.949 . S
C4085 C4086 1.349 . S
C4085 C4087 1.327 . S
C4085 H4108 0.950 . S
C4086 C4085 1.349 . S
C4086 C4098 1.349 . S
C4087 C4085 1.327 . S
C4087 C4103 1.429 . S
C4087 H4109 0.950 . S
C4088 H4084 0.949 . S
C4088 C4096 1.574 . S
C4088 C4104 1.368 . S
H4089 C4097 0.950 . S
H4090 C4095 0.950 . S
H4091 C4096 0.949 . S
H4092 C4098 0.950 . S
H4093 C4099 0.950 . S
H4094 C4100 0.949 . S
C4095 H4090 0.950 . S
C4095 C4097 1.327 . S
C4095 C4101 1.429 . S
C4096 C4088 1.574 . S
C4096 H4091 0.949 . S
C4096 C4102 1.368 . S
C4097 C4081 1.349 . S
C4097 H4089 0.950 . S
C4097 C4095 1.327 . S
C4098 C4086 1.349 . S
C4098 H4092 0.950 . S
C4098 C4099 1.327 . S
C4099 H4093 0.950 . S
C4099 C4098 1.327 . S
C4099 C4103 1.429 . S
C4100 C4083 1.574 . S
C4100 H4094 0.949 . S
C4100 C4104 1.368 . S
C4101 C4082 1.429 . S
C4101 C4095 1.429 . S
C4101 C4102 1.523 . S
C4102 C4083 1.368 . S
C4102 C4096 1.368 . S
C4102 C4101 1.523 . S
C4103 C4087 1.429 . S
C4103 C4099 1.429 . S
C4103 C4104 1.523 . S
C4104 C4088 1.368 . S
C4104 C4100 1.368 . S
C4104 C4103 1.523 . S
H4105 C4080 0.950 . S
H4106 C4082 0.950 . S
H4107 C4083 0.949 . S
H4108 C4085 0.950 . S
H4109 C4087 0.950 . S
C4110 C4111 1.349 . S
C4110 C4112 1.327 . S
C4110 H4135 0.950 . S
C4111 C4110 1.349 . S
C4111 C4127 1.349 . S
C4112 C4110 1.327 . S
C4112 C4131 1.429 . S
C4112 H4136 0.950 . S
C4113 C4130 1.574 . S
C4113 C4132 1.368 . S
C4113 H4137 0.949 . S
H4114 C4118 0.949 . S
C4115 C4116 1.349 . S
C4115 C4117 1.327 . S
C4115 H4138 0.950 . S
C4116 C4115 1.349 . S
C4116 C4128 1.349 . S
C4117 C4115 1.327 . S
C4117 C4133 1.429 . S
C4117 H4139 0.950 . S
C4118 H4114 0.949 . S
C4118 C4126 1.574 . S
C4118 C4134 1.368 . S
H4119 C4127 0.950 . S
H4120 C4125 0.950 . S
H4121 C4126 0.949 . S
H4122 C4128 0.950 . S
H4123 C4129 0.950 . S
H4124 C4130 0.949 . S
C4125 H4120 0.950 . S
C4125 C4127 1.327 . S
C4125 C4131 1.429 . S
C4126 C4118 1.574 . S
C4126 H4121 0.949 . S
C4126 C4132 1.368 . S
C4127 C4111 1.349 . S
C4127 H4119 0.950 . S
C4127 C4125 1.327 . S
C4128 C4116 1.349 . S
C4128 H4122 0.950 . S
C4128 C4129 1.327 . S
C4129 H4123 0.950 . S
C4129 C4128 1.327 . S
C4129 C4133 1.429 . S
C4130 C4113 1.574 . S
C4130 H4124 0.949 . S
C4130 C4134 1.368 . S
C4131 C4112 1.429 . S
C4131 C4125 1.429 . S
C4131 C4132 1.523 . S
C4132 C4113 1.368 . S
C4132 C4126 1.368 . S
C4132 C4131 1.523 . S
C4133 C4117 1.429 . S
C4133 C4129 1.429 . S
C4133 C4134 1.523 . S
C4134 C4118 1.368 . S
C4134 C4130 1.368 . S
C4134 C4133 1.523 . S
H4135 C4110 0.950 . S
H4136 C4112 0.950 . S
H4137 C4113 0.949 . S
H4138 C4115 0.950 . S
H4139 C4117 0.950 . S
C4140 C4141 1.349 . S
C4140 C4142 1.327 . S
C4140 H4165 0.950 . S
C4141 C4140 1.349 . S
C4141 C4157 1.349 . S
C4142 C4140 1.327 . S
C4142 C4161 1.429 . S
C4142 H4166 0.950 . S
C4143 C4160 1.574 . S
C4143 C4162 1.368 . S
C4143 H4167 0.949 . S
H4144 C4148 0.949 1_455 S
C4145 C4146 1.349 . S
C4145 C4147 1.327 . S
C4145 H4168 0.950 1_556 S
C4146 C4145 1.349 . S
C4146 C4158 1.349 . S
C4147 C4145 1.327 . S
C4147 C4163 1.429 . S
C4147 H4169 0.950 . S
C4148 H4144 0.949 1_655 S
C4148 C4156 1.574 . S
C4148 C4164 1.368 . S
H4149 C4157 0.950 . S
H4150 C4155 0.950 . S
H4151 C4156 0.949 . S
H4152 C4158 0.950 . S
H4153 C4159 0.950 . S
H4154 C4160 0.949 . S
C4155 H4150 0.950 . S
C4155 C4157 1.327 . S
C4155 C4161 1.429 . S
C4156 C4148 1.574 . S
C4156 H4151 0.949 . S
C4156 C4162 1.368 . S
C4157 C4141 1.349 . S
C4157 H4149 0.950 . S
C4157 C4155 1.327 . S
C4158 C4146 1.349 . S
C4158 H4152 0.950 . S
C4158 C4159 1.327 . S
C4159 H4153 0.950 . S
C4159 C4158 1.327 . S
C4159 C4163 1.429 . S
C4160 C4143 1.574 . S
C4160 H4154 0.949 . S
C4160 C4164 1.368 . S
C4161 C4142 1.429 . S
C4161 C4155 1.429 . S
C4161 C4162 1.523 . S
C4162 C4143 1.368 . S
C4162 C4156 1.368 . S
C4162 C4161 1.523 . S
C4163 C4147 1.429 . S
C4163 C4159 1.429 . S
C4163 C4164 1.523 1_455 S
C4164 C4148 1.368 . S
C4164 C4160 1.368 . S
C4164 C4163 1.523 1_655 S
H4165 C4140 0.950 . S
H4166 C4142 0.950 . S
H4167 C4143 0.949 . S
H4168 C4145 0.950 1_554 S
H4169 C4147 0.950 . S
C4170 C4171 1.349 . S
C4170 C4172 1.327 . S
C4170 H4195 0.950 . S
C4171 C4170 1.349 . S
C4171 C4187 1.349 . S
C4172 C4170 1.327 . S
C4172 C4191 1.429 . S
C4172 H4196 0.950 . S
C4173 C4190 1.574 . S
C4173 C4192 1.368 . S
C4173 H4197 0.949 . S
H4174 C4178 0.949 . S
C4175 C4176 1.349 . S
C4175 C4177 1.327 . S
C4175 H4198 0.950 . S
C4176 C4175 1.349 . S
C4176 C4188 1.349 . S
C4177 C4175 1.327 . S
C4177 C4193 1.429 . S
C4177 H4199 0.950 . S
C4178 H4174 0.949 . S
C4178 C4186 1.574 . S
C4178 C4194 1.368 . S
H4179 C4187 0.950 . S
H4180 C4185 0.950 . S
H4181 C4186 0.949 . S
H4182 C4188 0.950 . S
H4183 C4189 0.950 . S
H4184 C4190 0.949 . S
C4185 H4180 0.950 . S
C4185 C4187 1.327 . S
C4185 C4191 1.429 . S
C4186 C4178 1.574 . S
C4186 H4181 0.949 . S
C4186 C4192 1.368 . S
C4187 C4171 1.349 . S
C4187 H4179 0.950 . S
C4187 C4185 1.327 . S
C4188 C4176 1.349 . S
C4188 H4182 0.950 . S
C4188 C4189 1.327 . S
C4189 H4183 0.950 . S
C4189 C4188 1.327 . S
C4189 C4193 1.429 . S
C4190 C4173 1.574 . S
C4190 H4184 0.949 . S
C4190 C4194 1.368 . S
C4191 C4172 1.429 . S
C4191 C4185 1.429 . S
C4191 C4192 1.523 . S
C4192 C4173 1.368 . S
C4192 C4186 1.368 . S
C4192 C4191 1.523 . S
C4193 C4177 1.429 . S
C4193 C4189 1.429 . S
C4193 C4194 1.523 . S
C4194 C4178 1.368 . S
C4194 C4190 1.368 . S
C4194 C4193 1.523 . S
H4195 C4170 0.950 . S
H4196 C4172 0.950 . S
H4197 C4173 0.949 . S
H4198 C4175 0.950 . S
H4199 C4177 0.950 . S
C4200 C4201 1.349 . S
C4200 C4202 1.327 . S
C4200 H4225 0.950 . S
C4201 C4200 1.349 . S
C4201 C4217 1.349 . S
C4202 C4200 1.327 . S
C4202 C4221 1.429 . S
C4202 H4226 0.950 . S
C4203 C4220 1.574 . S
C4203 C4222 1.368 . S
C4203 H4227 0.949 . S
H4204 C4208 0.949 . S
C4205 C4206 1.349 . S
C4205 C4207 1.327 . S
C4205 H4228 0.950 . S
C4206 C4205 1.349 . S
C4206 C4218 1.349 . S
C4207 C4205 1.327 . S
C4207 C4223 1.429 . S
C4207 H4229 0.950 . S
C4208 H4204 0.949 . S
C4208 C4216 1.574 . S
C4208 C4224 1.368 . S
H4209 C4217 0.950 . S
H4210 C4215 0.950 . S
H4211 C4216 0.949 . S
H4212 C4218 0.950 . S
H4213 C4219 0.950 . S
H4214 C4220 0.949 . S
C4215 H4210 0.950 . S
C4215 C4217 1.327 . S
C4215 C4221 1.429 . S
C4216 C4208 1.574 . S
C4216 H4211 0.949 . S
C4216 C4222 1.368 . S
C4217 C4201 1.349 . S
C4217 H4209 0.950 . S
C4217 C4215 1.327 . S
C4218 C4206 1.349 . S
C4218 H4212 0.950 . S
C4218 C4219 1.327 . S
C4219 H4213 0.950 . S
C4219 C4218 1.327 . S
C4219 C4223 1.429 . S
C4220 C4203 1.574 . S
C4220 H4214 0.949 . S
C4220 C4224 1.368 . S
C4221 C4202 1.429 . S
C4221 C4215 1.429 . S
C4221 C4222 1.523 . S
C4222 C4203 1.368 . S
C4222 C4216 1.368 . S
C4222 C4221 1.523 . S
C4223 C4207 1.429 . S
C4223 C4219 1.429 . S
C4223 C4224 1.523 . S
C4224 C4208 1.368 . S
C4224 C4220 1.368 . S
C4224 C4223 1.523 . S
H4225 C4200 0.950 . S
H4226 C4202 0.950 . S
H4227 C4203 0.949 . S
H4228 C4205 0.950 . S
H4229 C4207 0.950 . S
C4230 C4231 1.349 . S
C4230 C4232 1.327 . S
C4230 H4255 0.950 . S
C4231 C4230 1.349 . S
C4231 C4247 1.349 . S
C4232 C4230 1.327 . S
C4232 C4251 1.429 . S
C4232 H4256 0.950 . S
C4233 C4250 1.574 . S
C4233 C4252 1.368 . S
C4233 H4257 0.949 . S
H4234 C4238 0.949 . S
C4235 C4236 1.349 . S
C4235 C4237 1.327 . S
C4235 H4258 0.950 . S
C4236 C4235 1.349 . S
C4236 C4248 1.349 . S
C4237 C4235 1.327 . S
C4237 C4253 1.429 . S
C4237 H4259 0.950 . S
C4238 H4234 0.949 . S
C4238 C4246 1.574 . S
C4238 C4254 1.368 . S
H4239 C4247 0.950 . S
H4240 C4245 0.950 . S
H4241 C4246 0.949 . S
H4242 C4248 0.950 . S
H4243 C4249 0.950 . S
H4244 C4250 0.949 . S
C4245 H4240 0.950 . S
C4245 C4247 1.327 . S
C4245 C4251 1.429 . S
C4246 C4238 1.574 . S
C4246 H4241 0.949 . S
C4246 C4252 1.368 . S
C4247 C4231 1.349 . S
C4247 H4239 0.950 . S
C4247 C4245 1.327 . S
C4248 C4236 1.349 . S
C4248 H4242 0.950 . S
C4248 C4249 1.327 . S
C4249 H4243 0.950 . S
C4249 C4248 1.327 . S
C4249 C4253 1.429 . S
C4250 C4233 1.574 . S
C4250 H4244 0.949 . S
C4250 C4254 1.368 . S
C4251 C4232 1.429 . S
C4251 C4245 1.429 . S
C4251 C4252 1.523 . S
C4252 C4233 1.368 . S
C4252 C4246 1.368 . S
C4252 C4251 1.523 . S
C4253 C4237 1.429 . S
C4253 C4249 1.429 . S
C4253 C4254 1.523 . S
C4254 C4238 1.368 . S
C4254 C4250 1.368 . S
C4254 C4253 1.523 . S
H4255 C4230 0.950 . S
H4256 C4232 0.950 . S
H4257 C4233 0.949 . S
H4258 C4235 0.950 . S
H4259 C4237 0.950 . S
C4260 C4261 1.349 . S
C4260 C4262 1.327 . S
C4260 H4285 0.950 . S
C4261 C4260 1.349 . S
C4261 C4277 1.349 . S
C4262 C4260 1.327 . S
C4262 C4281 1.429 . S
C4262 H4286 0.950 . S
C4263 C4280 1.574 . S
C4263 C4282 1.368 . S
C4263 H4287 0.949 . S
H4264 C4268 0.949 . S
C4265 C4266 1.349 1_655 S
C4265 C4267 1.327 . S
C4265 H4288 0.950 . S
C4266 C4265 1.349 1_455 S
C4266 C4278 1.349 . S
C4267 C4265 1.327 . S
C4267 C4283 1.429 . S
C4267 H4289 0.950 . S
C4268 H4264 0.949 . S
C4268 C4276 1.574 . S
C4268 C4284 1.368 . S
H4269 C4277 0.950 . S
H4270 C4275 0.950 . S
H4271 C4276 0.949 . S
H4272 C4278 0.950 . S
H4273 C4279 0.950 . S
H4274 C4280 0.949 . S
C4275 H4270 0.950 . S
C4275 C4277 1.327 . S
C4275 C4281 1.429 . S
C4276 C4268 1.574 . S
C4276 H4271 0.949 . S
C4276 C4282 1.368 . S
C4277 C4261 1.349 . S
C4277 H4269 0.950 . S
C4277 C4275 1.327 . S
C4278 C4266 1.349 . S
C4278 H4272 0.950 . S
C4278 C4279 1.327 . S
C4279 H4273 0.950 . S
C4279 C4278 1.327 . S
C4279 C4283 1.429 1_455 S
C4280 C4263 1.574 . S
C4280 H4274 0.949 . S
C4280 C4284 1.368 . S
C4281 C4262 1.429 . S
C4281 C4275 1.429 . S
C4281 C4282 1.523 . S
C4282 C4263 1.368 . S
C4282 C4276 1.368 . S
C4282 C4281 1.523 . S
C4283 C4267 1.429 . S
C4283 C4279 1.429 1_655 S
C4283 C4284 1.523 . S
C4284 C4268 1.368 . S
C4284 C4280 1.368 . S
C4284 C4283 1.523 . S
H4285 C4260 0.950 . S
H4286 C4262 0.950 . S
H4287 C4263 0.949 . S
H4288 C4265 0.950 . S
H4289 C4267 0.950 . S
C4290 C4291 1.349 . S
C4290 C4292 1.327 . S
C4290 H4315 0.950 . S
C4291 C4290 1.349 . S
C4291 C4307 1.349 . S
C4292 C4290 1.327 . S
C4292 C4311 1.429 . S
C4292 H4316 0.950 . S
C4293 C4310 1.574 . S
C4293 C4312 1.368 . S
C4293 H4317 0.949 . S
H4294 C4298 0.949 . S
C4295 C4296 1.349 . S
C4295 C4297 1.327 . S
C4295 H4318 0.950 . S
C4296 C4295 1.349 . S
C4296 C4308 1.349 . S
C4297 C4295 1.327 . S
C4297 C4313 1.429 . S
C4297 H4319 0.950 . S
C4298 H4294 0.949 . S
C4298 C4306 1.574 . S
C4298 C4314 1.368 . S
H4299 C4307 0.950 . S
H4300 C4305 0.950 . S
H4301 C4306 0.949 . S
H4302 C4308 0.950 . S
H4303 C4309 0.950 . S
H4304 C4310 0.949 . S
C4305 H4300 0.950 . S
C4305 C4307 1.327 . S
C4305 C4311 1.429 . S
C4306 C4298 1.574 . S
C4306 H4301 0.949 . S
C4306 C4312 1.368 . S
C4307 C4291 1.349 . S
C4307 H4299 0.950 . S
C4307 C4305 1.327 . S
C4308 C4296 1.349 . S
C4308 H4302 0.950 . S
C4308 C4309 1.327 . S
C4309 H4303 0.950 . S
C4309 C4308 1.327 . S
C4309 C4313 1.429 . S
C4310 C4293 1.574 . S
C4310 H4304 0.949 . S
C4310 C4314 1.368 . S
C4311 C4292 1.429 . S
C4311 C4305 1.429 . S
C4311 C4312 1.523 . S
C4312 C4293 1.368 . S
C4312 C4306 1.368 . S
C4312 C4311 1.523 . S
C4313 C4297 1.429 . S
C4313 C4309 1.429 . S
C4313 C4314 1.523 . S
C4314 C4298 1.368 . S
C4314 C4310 1.368 . S
C4314 C4313 1.523 . S
H4315 C4290 0.950 . S
H4316 C4292 0.950 . S
H4317 C4293 0.949 . S
H4318 C4295 0.950 . S
H4319 C4297 0.950 . S
C4320 C4321 1.349 . S
C4320 C4322 1.327 . S
C4320 H4345 0.950 . S
C4321 C4320 1.349 . S
C4321 C4337 1.349 . S
C4322 C4320 1.327 . S
C4322 C4341 1.429 . S
C4322 H4346 0.950 . S
C4323 C4340 1.574 . S
C4323 C4342 1.368 . S
C4323 H4347 0.949 . S
H4324 C4328 0.949 . S
C4325 C4326 1.349 . S
C4325 C4327 1.327 . S
C4325 H4348 0.950 . S
C4326 C4325 1.349 . S
C4326 C4338 1.349 . S
C4327 C4325 1.327 . S
C4327 C4343 1.429 . S
C4327 H4349 0.950 . S
C4328 H4324 0.949 . S
C4328 C4336 1.574 . S
C4328 C4344 1.368 . S
H4329 C4337 0.950 . S
H4330 C4335 0.950 . S
H4331 C4336 0.949 . S
H4332 C4338 0.950 . S
H4333 C4339 0.950 . S
H4334 C4340 0.949 . S
C4335 H4330 0.950 . S
C4335 C4337 1.327 . S
C4335 C4341 1.429 . S
C4336 C4328 1.574 . S
C4336 H4331 0.949 . S
C4336 C4342 1.368 . S
C4337 C4321 1.349 . S
C4337 H4329 0.950 . S
C4337 C4335 1.327 . S
C4338 C4326 1.349 . S
C4338 H4332 0.950 . S
C4338 C4339 1.327 . S
C4339 H4333 0.950 . S
C4339 C4338 1.327 . S
C4339 C4343 1.429 . S
C4340 C4323 1.574 . S
C4340 H4334 0.949 . S
C4340 C4344 1.368 . S
C4341 C4322 1.429 . S
C4341 C4335 1.429 . S
C4341 C4342 1.523 . S
C4342 C4323 1.368 . S
C4342 C4336 1.368 . S
C4342 C4341 1.523 . S
C4343 C4327 1.429 . S
C4343 C4339 1.429 . S
C4343 C4344 1.523 . S
C4344 C4328 1.368 . S
C4344 C4340 1.368 . S
C4344 C4343 1.523 . S
H4345 C4320 0.950 . S
H4346 C4322 0.950 . S
H4347 C4323 0.949 . S
H4348 C4325 0.950 . S
H4349 C4327 0.950 . S
C4350 C4351 1.349 . S
C4350 C4352 1.327 . S
C4350 H4375 0.950 . S
C4351 C4350 1.349 . S
C4351 C4367 1.349 . S
C4352 C4350 1.327 . S
C4352 C4371 1.429 . S
C4352 H4376 0.950 . S
C4353 C4370 1.574 . S
C4353 C4372 1.368 . S
C4353 H4377 0.949 . S
H4354 C4358 0.949 . S
C4355 C4356 1.380 1_565 S
C4355 C4357 1.342 . S
C4355 H4378 0.941 1_565 S
C4356 C4355 1.380 1_545 S
C4356 C4368 1.371 . S
C4357 C4355 1.342 . S
C4357 C4373 1.429 . S
C4357 H4379 0.950 . S
C4358 H4354 0.949 . S
C4358 C4366 1.574 . S
C4358 C4374 1.368 . S
H4359 C4367 0.950 . S
H4360 C4365 0.950 . S
H4361 C4366 0.949 . S
H4362 C4368 0.950 1_455 S
H4363 C4369 0.950 . S
H4364 C4370 0.949 . S
C4365 H4360 0.950 . S
C4365 C4367 1.327 . S
C4365 C4371 1.429 . S
C4366 C4358 1.574 . S
C4366 H4361 0.949 . S
C4366 C4372 1.368 . S
C4367 C4351 1.349 . S
C4367 H4359 0.950 . S
C4367 C4365 1.327 . S
C4368 C4356 1.371 . S
C4368 H4362 0.950 1_655 S
C4368 C4369 1.327 1_545 S
C4369 H4363 0.950 . S
C4369 C4368 1.327 1_565 S
C4369 C4373 1.429 . S
C4370 C4353 1.574 . S
C4370 H4364 0.949 . S
C4370 C4374 1.368 . S
C4371 C4352 1.429 . S
C4371 C4365 1.429 . S
C4371 C4372 1.523 . S
C4372 C4353 1.368 . S
C4372 C4366 1.368 . S
C4372 C4371 1.523 . S
C4373 C4357 1.429 . S
C4373 C4369 1.429 . S
C4373 C4374 1.523 . S
C4374 C4358 1.368 . S
C4374 C4370 1.368 . S
C4374 C4373 1.523 . S
H4375 C4350 0.950 . S
H4376 C4352 0.950 . S
H4377 C4353 0.949 . S
H4378 C4355 0.941 1_545 S
H4379 C4357 0.950 . S
C4380 C4381 1.349 . S
C4380 C4382 1.327 . S
C4380 H4405 0.950 . S
C4381 C4380 1.349 . S
C4381 C4397 1.349 . S
C4382 C4380 1.327 . S
C4382 C4401 1.429 . S
C4382 H4406 0.950 . S
C4383 C4400 1.574 . S
C4383 C4402 1.368 . S
C4383 H4407 0.949 . S
H4384 C4388 0.949 . S
C4385 C4386 1.349 . S
C4385 C4387 1.327 . S
C4385 H4408 0.950 . S
C4386 C4385 1.349 . S
C4386 C4398 1.349 . S
C4387 C4385 1.327 . S
C4387 C4403 1.429 . S
C4387 H4409 0.950 . S
C4388 H4384 0.949 . S
C4388 C4396 1.574 . S
C4388 C4404 1.368 . S
H4389 C4397 0.950 . S
H4390 C4395 0.950 . S
H4391 C4396 0.949 . S
H4392 C4398 0.950 . S
H4393 C4399 0.950 . S
H4394 C4400 0.949 . S
C4395 H4390 0.950 . S
C4395 C4397 1.327 . S
C4395 C4401 1.429 . S
C4396 C4388 1.574 . S
C4396 H4391 0.949 . S
C4396 C4402 1.368 . S
C4397 C4381 1.349 . S
C4397 H4389 0.950 . S
C4397 C4395 1.327 . S
C4398 C4386 1.349 . S
C4398 H4392 0.950 . S
C4398 C4399 1.327 . S
C4399 H4393 0.950 . S
C4399 C4398 1.327 . S
C4399 C4403 1.429 . S
C4400 C4383 1.574 . S
C4400 H4394 0.949 . S
C4400 C4404 1.368 . S
C4401 C4382 1.429 . S
C4401 C4395 1.429 . S
C4401 C4402 1.523 . S
C4402 C4383 1.368 . S
C4402 C4396 1.368 . S
C4402 C4401 1.523 . S
C4403 C4387 1.429 . S
C4403 C4399 1.429 . S
C4403 C4404 1.523 . S
C4404 C4388 1.368 . S
C4404 C4400 1.368 . S
C4404 C4403 1.523 . S
H4405 C4380 0.950 . S
H4406 C4382 0.950 . S
H4407 C4383 0.949 . S
H4408 C4385 0.950 . S
H4409 C4387 0.950 . S
C4410 C4411 1.349 . S
C4410 C4412 1.327 . S
C4410 H4435 0.950 . S
C4411 C4410 1.349 . S
C4411 C4427 1.349 . S
C4412 C4410 1.327 . S
C4412 C4431 1.429 . S
C4412 H4436 0.950 . S
C4413 C4430 1.574 . S
C4413 C4432 1.368 . S
C4413 H4437 0.955 . S
H4414 C4418 0.949 . S
C4415 C4416 1.349 . S
C4415 C4417 1.327 . S
C4415 H4438 0.950 . S
C4416 C4415 1.349 . S
C4416 C4428 1.349 . S
C4417 C4415 1.327 . S
C4417 C4433 1.429 . S
C4417 H4439 0.950 . S
C4418 H4414 0.949 . S
C4418 C4426 1.574 . S
C4418 C4434 1.368 . S
H4419 C4427 0.950 1_556 S
H4420 C4425 0.924 1_556 S
H4421 C4426 0.949 . S
H4422 C4428 0.950 . S
H4423 C4429 0.950 . S
H4424 C4430 0.949 . S
C4425 H4420 0.924 1_554 S
C4425 C4427 1.327 . S
C4425 C4431 1.429 . S
C4426 C4418 1.574 . S
C4426 H4421 0.949 . S
C4426 C4432 1.368 . S
C4427 C4411 1.349 . S
C4427 H4419 0.950 1_554 S
C4427 C4425 1.327 . S
C4428 C4416 1.349 . S
C4428 H4422 0.950 . S
C4428 C4429 1.327 . S
C4429 H4423 0.950 . S
C4429 C4428 1.327 . S
C4429 C4433 1.429 . S
C4430 C4413 1.574 . S
C4430 H4424 0.949 . S
C4430 C4434 1.368 . S
C4431 C4412 1.429 . S
C4431 C4425 1.429 . S
C4431 C4432 1.523 . S
C4432 C4413 1.368 . S
C4432 C4426 1.368 . S
C4432 C4431 1.523 . S
C4433 C4417 1.429 . S
C4433 C4429 1.429 . S
C4433 C4434 1.523 . S
C4434 C4418 1.368 . S
C4434 C4430 1.368 . S
C4434 C4433 1.523 . S
H4435 C4410 0.950 . S
H4436 C4412 0.950 . S
H4437 C4413 0.955 . S
H4438 C4415 0.950 . S
H4439 C4417 0.950 . S
C4440 C4441 1.349 . S
C4440 C4442 1.327 . S
C4440 H4465 0.950 . S
C4441 C4440 1.349 . S
C4441 C4457 1.349 . S
C4442 C4440 1.327 . S
C4442 C4461 1.429 . S
C4442 H4466 0.950 . S
C4443 C4460 1.574 . S
C4443 C4462 1.368 . S
C4443 H4467 0.949 . S
H4444 C4448 0.949 . S
C4445 C4446 1.349 . S
C4445 C4447 1.327 . S
C4445 H4468 0.950 . S
C4446 C4445 1.349 . S
C4446 C4458 1.349 . S
C4447 C4445 1.327 . S
C4447 C4463 1.429 . S
C4447 H4469 0.950 . S
C4448 H4444 0.949 . S
C4448 C4456 1.574 . S
C4448 C4464 1.368 . S
H4449 C4457 0.950 . S
H4450 C4455 0.950 . S
H4451 C4456 0.949 . S
H4452 C4458 0.950 . S
H4453 C4459 0.950 . S
H4454 C4460 0.949 . S
C4455 H4450 0.950 . S
C4455 C4457 1.327 . S
C4455 C4461 1.429 . S
C4456 C4448 1.574 . S
C4456 H4451 0.949 . S
C4456 C4462 1.368 . S
C4457 C4441 1.349 . S
C4457 H4449 0.950 . S
C4457 C4455 1.327 . S
C4458 C4446 1.349 . S
C4458 H4452 0.950 . S
C4458 C4459 1.327 . S
C4459 H4453 0.950 . S
C4459 C4458 1.327 . S
C4459 C4463 1.429 . S
C4460 C4443 1.574 . S
C4460 H4454 0.949 . S
C4460 C4464 1.368 . S
C4461 C4442 1.429 . S
C4461 C4455 1.429 . S
C4461 C4462 1.523 . S
C4462 C4443 1.368 . S
C4462 C4456 1.368 . S
C4462 C4461 1.523 . S
C4463 C4447 1.429 . S
C4463 C4459 1.429 . S
C4463 C4464 1.523 . S
C4464 C4448 1.368 . S
C4464 C4460 1.368 . S
C4464 C4463 1.523 . S
H4465 C4440 0.950 . S
H4466 C4442 0.950 . S
H4467 C4443 0.949 . S
H4468 C4445 0.950 . S
H4469 C4447 0.950 . S
C4470 C4471 1.349 . S
C4470 C4472 1.327 . S
C4470 H4495 0.950 . S
C4471 C4470 1.349 . S
C4471 C4487 1.349 . S
C4472 C4470 1.327 . S
C4472 C4491 1.429 . S
C4472 H4496 0.950 . S
C4473 C4490 1.574 . S
C4473 C4492 1.368 . S
C4473 H4497 0.949 . S
H4474 C4478 0.949 . S
C4475 C4476 1.349 . S
C4475 C4477 1.327 . S
C4475 H4498 0.950 . S
C4476 C4475 1.349 . S
C4476 C4488 1.349 . S
C4477 C4475 1.327 . S
C4477 C4493 1.429 . S
C4477 H4499 0.950 . S
C4478 H4474 0.949 . S
C4478 C4486 1.574 . S
C4478 C4494 1.368 . S
H4479 C4487 0.950 . S
H4480 C4485 0.950 . S
H4481 C4486 0.949 . S
H4482 C4488 0.950 . S
H4483 C4489 0.950 . S
H4484 C4490 0.949 . S
C4485 H4480 0.950 . S
C4485 C4487 1.327 . S
C4485 C4491 1.429 . S
C4486 C4478 1.574 . S
C4486 H4481 0.949 . S
C4486 C4492 1.368 . S
C4487 C4471 1.349 . S
C4487 H4479 0.950 . S
C4487 C4485 1.327 . S
C4488 C4476 1.349 . S
C4488 H4482 0.950 . S
C4488 C4489 1.327 . S
C4489 H4483 0.950 . S
C4489 C4488 1.327 . S
C4489 C4493 1.429 . S
C4490 C4473 1.574 . S
C4490 H4484 0.949 . S
C4490 C4494 1.368 . S
C4491 C4472 1.429 . S
C4491 C4485 1.429 . S
C4491 C4492 1.523 . S
C4492 C4473 1.368 . S
C4492 C4486 1.368 . S
C4492 C4491 1.523 . S
C4493 C4477 1.429 . S
C4493 C4489 1.429 . S
C4493 C4494 1.523 . S
C4494 C4478 1.368 . S
C4494 C4490 1.368 . S
C4494 C4493 1.523 . S
H4495 C4470 0.950 . S
H4496 C4472 0.950 . S
H4497 C4473 0.949 . S
H4498 C4475 0.950 . S
H4499 C4477 0.950 . S
C4500 C4501 1.349 1_565 S
C4500 C4502 1.327 . S
C4500 H4525 0.950 . S
C4501 C4500 1.349 1_545 S
C4501 C4517 1.349 1_545 S
C4502 C4500 1.327 . S
C4502 C4521 1.429 . S
C4502 H4526 0.950 . S
C4503 C4520 1.574 . S
C4503 C4522 1.368 . S
C4503 H4527 0.949 . S
H4504 C4508 0.949 . S
C4505 C4506 1.349 . S
C4505 C4507 1.327 . S
C4505 H4528 0.950 . S
C4506 C4505 1.349 . S
C4506 C4518 1.349 . S
C4507 C4505 1.327 . S
C4507 C4523 1.429 . S
C4507 H4529 0.950 . S
C4508 H4504 0.949 . S
C4508 C4516 1.574 . S
C4508 C4524 1.368 . S
H4509 C4517 0.950 1_545 S
H4510 C4515 0.950 . S
H4511 C4516 0.949 . S
H4512 C4518 0.950 . S
H4513 C4519 0.950 . S
H4514 C4520 0.949 . S
C4515 H4510 0.950 . S
C4515 C4517 1.327 . S
C4515 C4521 1.429 . S
C4516 C4508 1.574 . S
C4516 H4511 0.949 . S
C4516 C4522 1.368 . S
C4517 C4501 1.349 1_565 S
C4517 H4509 0.950 1_565 S
C4517 C4515 1.327 . S
C4518 C4506 1.349 . S
C4518 H4512 0.950 . S
C4518 C4519 1.327 . S
C4519 H4513 0.950 . S
C4519 C4518 1.327 . S
C4519 C4523 1.429 . S
C4520 C4503 1.574 . S
C4520 H4514 0.949 . S
C4520 C4524 1.368 . S
C4521 C4502 1.429 . S
C4521 C4515 1.429 . S
C4521 C4522 1.523 . S
C4522 C4503 1.368 . S
C4522 C4516 1.368 . S
C4522 C4521 1.523 . S
C4523 C4507 1.429 . S
C4523 C4519 1.429 . S
C4523 C4524 1.523 . S
C4524 C4508 1.368 . S
C4524 C4520 1.368 . S
C4524 C4523 1.523 . S
H4525 C4500 0.950 . S
H4526 C4502 0.950 . S
H4527 C4503 0.949 . S
H4528 C4505 0.950 . S
H4529 C4507 0.950 . S
C4530 C4531 1.349 . S
C4530 C4532 1.327 . S
C4530 H4555 0.950 . S
C4531 C4530 1.349 . S
C4531 C4547 1.349 . S
C4532 C4530 1.327 . S
C4532 C4551 1.429 . S
C4532 H4556 0.950 . S
C4533 C4550 1.574 . S
C4533 C4552 1.368 . S
C4533 H4557 0.949 . S
H4534 C4538 0.949 . S
C4535 C4536 1.349 . S
C4535 C4537 1.327 . S
C4535 H4558 0.950 . S
C4536 C4535 1.349 . S
C4536 C4548 1.349 . S
C4537 C4535 1.327 . S
C4537 C4553 1.429 . S
C4537 H4559 0.950 . S
C4538 H4534 0.949 . S
C4538 C4546 1.574 . S
C4538 C4554 1.368 . S
H4539 C4547 0.950 . S
H4540 C4545 0.950 . S
H4541 C4546 0.949 . S
H4542 C4548 0.950 . S
H4543 C4549 0.950 . S
H4544 C4550 0.949 . S
C4545 H4540 0.950 . S
C4545 C4547 1.327 . S
C4545 C4551 1.429 . S
C4546 C4538 1.574 . S
C4546 H4541 0.949 . S
C4546 C4552 1.368 . S
C4547 C4531 1.349 . S
C4547 H4539 0.950 . S
C4547 C4545 1.327 . S
C4548 C4536 1.349 . S
C4548 H4542 0.950 . S
C4548 C4549 1.327 . S
C4549 H4543 0.950 . S
C4549 C4548 1.327 . S
C4549 C4553 1.429 . S
C4550 C4533 1.574 . S
C4550 H4544 0.949 . S
C4550 C4554 1.368 . S
C4551 C4532 1.429 . S
C4551 C4545 1.429 . S
C4551 C4552 1.523 . S
C4552 C4533 1.368 . S
C4552 C4546 1.368 . S
C4552 C4551 1.523 . S
C4553 C4537 1.429 . S
C4553 C4549 1.429 . S
C4553 C4554 1.523 . S
C4554 C4538 1.368 . S
C4554 C4550 1.368 . S
C4554 C4553 1.523 . S
H4555 C4530 0.950 . S
H4556 C4532 0.950 . S
H4557 C4533 0.949 . S
H4558 C4535 0.950 . S
H4559 C4537 0.950 . S
C1681 C106 1.941 . S
C1686 C392 1.813 . S
C1711 C65 2.198 . S
C1716 C483 2.121 . S
C1741 C79 1.771 . S
C1746 C560 1.662 1_565 S
C1776 C658 1.334 . S
C1771 C90 1.419 . S
C1801 C21 1.322 . S
C1806 C742 1.299 . S
C1836 C814 0.868 . S
C1831 C35 0.889 . S
C1866 C903 0.648 . S
C1861 C50 0.641 . S
C1891 C6 1.346 . S
C1896 C980 1.241 . S
C1926 C399 2.138 . S
C1921 C232 2.246 . S
C1951 C245 0.615 . S
C1956 C490 0.631 . S
C1986 C567 1.220 . S
C1981 C274 1.276 . S
C2016 C644 1.463 . S
C2011 C175 1.552 . S
C2041 C231 1.754 . S
C2046 C728 1.668 . S
C2076 C830 0.993 . S
C2071 C246 1.067 . S
C2106 C910 0.659 . S
C2101 C273 0.622 . S
C2136 C987 1.454 . S
C2131 C176 1.564 . S
C2166 C406 1.467 . S
C2161 C160 1.524 . S
C2191 C289 1.982 1_554 S
C2196 C1071 1.927 . S
C2226 C1159 2.200 . S
C2221 C328 2.313 . S
C2256 C1232 0.595 . S
C2251 C317 0.533 . S
C2281 C118 0.814 . S
C2286 C994 0.834 . S
C2311 C132 1.409 . S
C2316 C574 1.417 . S
C2341 C331 2.416 . S
C2346 C1323 2.335 . S
C2376 C1400 0.944 . S
C2371 C303 0.989 . S
C2406 C403 1.430 1_565 S
C2401 C63 1.543 . S
C2436 C1418 2.571 . S
C2431 C107 2.576 . S
C2461 C92 1.587 . S
C2466 C571 1.533 . S
C2491 C78 2.081 . S
C2496 C1318 1.899 . S
C2526 C730 1.806 . S
C2521 C8 1.920 . S
C2551 C51 1.203 . S
C2556 C1162 1.108 . S
C2586 C914 1.105 1_565 S
C2581 C37 1.105 . S
C2616 C1495 1.156 . S
C2611 C20 1.252 . S
C2646 C410 2.008 . S
C2641 C147 2.065 . S
C2676 C1402 0.757 . S
C2671 C316 0.760 . S
C2701 C119 1.142 . S
C2706 C578 1.154 . S
C2731 C288 1.741 . S
C2736 C1327 1.651 . S
C2761 C148 2.263 1_545 S
C2766 C739 2.085 . S
C2796 C1155 1.068 . S
C2791 C315 1.114 . S
C2821 C120 0.931 . S
C2826 C898 0.888 . S
C2851 C287 1.466 . S
C2856 C1502 1.394 . S
C2881 C188 1.391 . S
C2886 C394 1.306 . S
C2911 C177 2.353 . S
C2916 C1082 2.295 . S
C2941 C258 2.461 . S
C2946 C812 2.363 . S
C2971 C247 0.535 . S
C2976 C1243 0.602 . S
C3006 C1486 0.594 . S
C3001 C272 0.598 . S
C3031 C216 1.288 . S
C3036 C562 1.215 1_565 S
C3066 C662 2.583 . S
C3061 C261 2.654 . S
C3096 C487 0.878 . S
C3091 C205 0.913 . S
C3121 C76 1.533 . S
C3126 C1568 1.436 . S
C3156 C1407 2.204 . S
C3151 C93 2.284 . S
C3181 C105 1.371 . S
C3186 C1652 1.275 . S
C3211 C62 1.459 . S
C3216 C1330 1.374 . S
C3241 C49 1.296 . S
C3246 C1078 1.276 . S
C3276 C1150 1.212 . S
C3271 C9 1.287 . S
C3306 C1239 0.583 . S
C3301 C22 0.571 . S
C3336 C1484 1.584 . S
C3331 C36 1.758 . S
C3366 C1575 2.046 . S
C3361 C260 2.148 . S
C3391 C189 0.524 . S
C3396 C1414 0.577 . S
C3426 C1659 1.132 . S
C3421 C204 1.180 . S
C3456 C1316 1.301 . S
C3451 C217 1.377 . S
C3486 C1064 1.936 . S
C3481 C259 2.032 . S
C3511 C190 1.165 . S
C3516 C1166 1.089 . S
C3546 C1246 0.737 . S
C3541 C203 0.734 . S
C3571 C218 1.671 . S
C3576 C1491 1.552 . S
C3606 C1582 1.427 . S
C3601 C314 1.471 . S
C3631 C135 2.108 . S
C3636 C735 2.027 . S
C3666 C823 2.075 . S
C3661 C146 2.203 . S
C3696 C896 0.607 . S
C3691 C163 0.563 . S
C3726 C1498 0.832 . S
C3721 C300 0.816 . S
C3751 C286 1.362 . S
C3756 C1666 1.393 . S
C3786 C651 2.237 . S
C3781 C149 2.311 . S
C3816 C476 0.883 . S
C3811 C121 0.921 1_565 S
C3841 C91 1.517 . S
C3846 C1579 1.412 . S
C3876 C494 2.156 . S
C3871 C77 2.101 . S
C3901 C64 1.555 . S
C3906 C1663 1.517 . S
C3931 C104 1.676 . S
C3936 C646 1.581 . S
C3961 C34 1.490 . S
C3966 C1066 1.450 1_556 S
C3996 C826 1.081 . S
C3991 C23 1.191 . S
C4021 C7 0.791 . S
C4026 C1250 0.802 . S
C4051 C48 1.217 . S
C4056 C991 1.133 . S
C4086 C1586 1.985 . S
C4081 C329 2.044 . S
C4111 C162 0.790 . S
C4116 C478 0.779 . S
C4146 C1670 1.155 1_556 S
C4141 C301 1.145 . S
C4171 C134 1.767 . S
C4176 C655 1.680 . S
C4201 C330 2.234 . S
C4206 C1075 2.066 . S
C4236 C819 1.077 . S
C4231 C161 1.118 . S
C4261 C302 0.965 . S
C4266 C1234 0.914 . S
C4296 C998 1.390 . S
C4291 C133 1.463 . S
C4326 C1570 1.510 . S
C4321 C244 1.612 . S
C4356 C746 2.183 1_655 S
C4351 C219 2.280 . S
C4381 C230 2.104 . S
C4386 C1148 1.999 . S
C4416 C907 0.596 . S
C4411 C191 0.518 . S
C4441 C202 0.764 . S
C4446 C982 0.763 . S
C4471 C174 1.526 . S
C4476 C1654 1.477 . S
C4506 C1334 2.548 . S
C4501 C233 2.609 . S
C4536 C1411 0.867 . S
C4531 C275 0.902 . S
