# Generated by pormake.
# Topology myd, (4,6)-cn, num edge types: 1
# Building blocks:
#     Node 0, Type 0, BuildingBlock: KOZSID_clean_sbu_0, # of connection points: 4
#     Node 1, Type 0, BuildingBlock: KOZSID_clean_sbu_0, # of connection points: 4
#     Node 2, Type 0, BuildingBlock: KOZSID_clean_sbu_0, # of connection points: 4
#     Node 3, Type 0, BuildingBlock: KOZSID_clean_sbu_0, # of connection points: 4
#     Node 4, Type 0, BuildingBlock: KOZSID_clean_sbu_0, # of connection points: 4
#     Node 5, Type 0, BuildingBlock: KOZSID_clean_sbu_0, # of connection points: 4
#     Node 6, Type 0, BuildingBlock: KOZSID_clean_sbu_0, # of connection points: 4
#     Node 7, Type 0, BuildingBlock: KOZSID_clean_sbu_0, # of connection points: 4
#     Node 8, Type 0, BuildingBlock: KOZSID_clean_sbu_0, # of connection points: 4
#     Node 9, Type 0, BuildingBlock: KOZSID_clean_sbu_0, # of connection points: 4
#     Node 10, Type 0, BuildingBlock: KOZSID_clean_sbu_0, # of connection points: 4
#     Node 11, Type 0, BuildingBlock: KOZSID_clean_sbu_0, # of connection points: 4
#     Node 12, Type 1, BuildingBlock: JUFBIX_clean_sbu_0, # of connection points: 6
#     Node 13, Type 1, BuildingBlock: JUFBIX_clean_sbu_0, # of connection points: 6
#     Node 14, Type 1, BuildingBlock: JUFBIX_clean_sbu_0, # of connection points: 6
#     Node 15, Type 1, BuildingBlock: JUFBIX_clean_sbu_0, # of connection points: 6
#     Node 16, Type 1, BuildingBlock: JUFBIX_clean_sbu_0, # of connection points: 6
#     Node 17, Type 1, BuildingBlock: JUFBIX_clean_sbu_0, # of connection points: 6
#     Node 18, Type 1, BuildingBlock: JUFBIX_clean_sbu_0, # of connection points: 6
#     Node 19, Type 1, BuildingBlock: JUFBIX_clean_sbu_0, # of connection points: 6
#     Edge 20, Type (0, 1), BuildingBlock: ZUJKAS_clean_linker_0, # of connection points: 2
#     Edge 21, Type (0, 1), BuildingBlock: ZUJKAS_clean_linker_0, # of connection points: 2
#     Edge 22, Type (0, 1), BuildingBlock: ZUJKAS_clean_linker_0, # of connection points: 2
#     Edge 23, Type (0, 1), BuildingBlock: ZUJKAS_clean_linker_0, # of connection points: 2
#     Edge 24, Type (0, 1), BuildingBlock: ZUJKAS_clean_linker_0, # of connection points: 2
#     Edge 25, Type (0, 1), BuildingBlock: ZUJKAS_clean_linker_0, # of connection points: 2
#     Edge 26, Type (0, 1), BuildingBlock: ZUJKAS_clean_linker_0, # of connection points: 2
#     Edge 27, Type (0, 1), BuildingBlock: ZUJKAS_clean_linker_0, # of connection points: 2
#     Edge 28, Type (0, 1), BuildingBlock: ZUJKAS_clean_linker_0, # of connection points: 2
#     Edge 29, Type (0, 1), BuildingBlock: ZUJKAS_clean_linker_0, # of connection points: 2
#     Edge 30, Type (0, 1), BuildingBlock: ZUJKAS_clean_linker_0, # of connection points: 2
#     Edge 31, Type (0, 1), BuildingBlock: ZUJKAS_clean_linker_0, # of connection points: 2
#     Edge 32, Type (0, 1), BuildingBlock: ZUJKAS_clean_linker_0, # of connection points: 2
#     Edge 33, Type (0, 1), BuildingBlock: ZUJKAS_clean_linker_0, # of connection points: 2
#     Edge 34, Type (0, 1), BuildingBlock: ZUJKAS_clean_linker_0, # of connection points: 2
#     Edge 35, Type (0, 1), BuildingBlock: ZUJKAS_clean_linker_0, # of connection points: 2
#     Edge 36, Type (0, 1), BuildingBlock: ZUJKAS_clean_linker_0, # of connection points: 2
#     Edge 37, Type (0, 1), BuildingBlock: ZUJKAS_clean_linker_0, # of connection points: 2
#     Edge 38, Type (0, 1), BuildingBlock: ZUJKAS_clean_linker_0, # of connection points: 2
#     Edge 39, Type (0, 1), BuildingBlock: ZUJKAS_clean_linker_0, # of connection points: 2
#     Edge 40, Type (0, 1), BuildingBlock: ZUJKAS_clean_linker_0, # of connection points: 2
#     Edge 41, Type (0, 1), BuildingBlock: ZUJKAS_clean_linker_0, # of connection points: 2
#     Edge 42, Type (0, 1), BuildingBlock: ZUJKAS_clean_linker_0, # of connection points: 2
#     Edge 43, Type (0, 1), BuildingBlock: ZUJKAS_clean_linker_0, # of connection points: 2
#     Edge 44, Type (0, 1), BuildingBlock: ZUJKAS_clean_linker_0, # of connection points: 2
#     Edge 45, Type (0, 1), BuildingBlock: ZUJKAS_clean_linker_0, # of connection points: 2
#     Edge 46, Type (0, 1), BuildingBlock: ZUJKAS_clean_linker_0, # of connection points: 2
#     Edge 47, Type (0, 1), BuildingBlock: ZUJKAS_clean_linker_0, # of connection points: 2
#     Edge 48, Type (0, 1), BuildingBlock: ZUJKAS_clean_linker_0, # of connection points: 2
#     Edge 49, Type (0, 1), BuildingBlock: ZUJKAS_clean_linker_0, # of connection points: 2
#     Edge 50, Type (0, 1), BuildingBlock: ZUJKAS_clean_linker_0, # of connection points: 2
#     Edge 51, Type (0, 1), BuildingBlock: ZUJKAS_clean_linker_0, # of connection points: 2
#     Edge 52, Type (0, 1), BuildingBlock: ZUJKAS_clean_linker_0, # of connection points: 2
#     Edge 53, Type (0, 1), BuildingBlock: ZUJKAS_clean_linker_0, # of connection points: 2
#     Edge 54, Type (0, 1), BuildingBlock: ZUJKAS_clean_linker_0, # of connection points: 2
#     Edge 55, Type (0, 1), BuildingBlock: ZUJKAS_clean_linker_0, # of connection points: 2
#     Edge 56, Type (0, 1), BuildingBlock: ZUJKAS_clean_linker_0, # of connection points: 2
#     Edge 57, Type (0, 1), BuildingBlock: ZUJKAS_clean_linker_0, # of connection points: 2
#     Edge 58, Type (0, 1), BuildingBlock: ZUJKAS_clean_linker_0, # of connection points: 2
#     Edge 59, Type (0, 1), BuildingBlock: ZUJKAS_clean_linker_0, # of connection points: 2
#     Edge 60, Type (0, 1), BuildingBlock: ZUJKAS_clean_linker_0, # of connection points: 2
#     Edge 61, Type (0, 1), BuildingBlock: ZUJKAS_clean_linker_0, # of connection points: 2
#     Edge 62, Type (0, 1), BuildingBlock: ZUJKAS_clean_linker_0, # of connection points: 2
#     Edge 63, Type (0, 1), BuildingBlock: ZUJKAS_clean_linker_0, # of connection points: 2
#     Edge 64, Type (0, 1), BuildingBlock: ZUJKAS_clean_linker_0, # of connection points: 2
#     Edge 65, Type (0, 1), BuildingBlock: ZUJKAS_clean_linker_0, # of connection points: 2
#     Edge 66, Type (0, 1), BuildingBlock: ZUJKAS_clean_linker_0, # of connection points: 2
#     Edge 67, Type (0, 1), BuildingBlock: ZUJKAS_clean_linker_0, # of connection points: 2
# Relax obj value: 0.218
# Max RMSD: 0.216
# Mean RMSD: 0.147
data_MOF--net-myd--node1-KOZSID_clean_sbu_0--node2-JUFBIX_clean_sbu_0--edge1-ZUJKAS_clean_linker_0
_symmetry_space_group_name_H-M    P1
_symmetry_Int_Tables_number       1
_symmetry_cell_setting            triclinic
loop_
_symmetry_equiv_pos_as_xyz
'x, y, z'
_cell_length_a     63.091292
_cell_length_b     65.880758
_cell_length_c     65.176507
_cell_angle_alpha  91.780437
_cell_angle_beta   88.217535
_cell_angle_gamma 92.886798
loop_
_atom_site_label
_atom_site_type_symbol
_atom_site_fract_x
_atom_site_fract_y
_atom_site_fract_z
_atom_type_partial_charge
C0 C 0.99733 0.26572 0.33918 0.0
C1 C 0.97711 0.27038 0.34614 0.0
C2 C 0.96347 0.25565 0.33812 0.0
C3 C 0.97608 0.24291 0.3267 0.0
N4 N 0.99702 0.24827 0.32746 0.0
Co5 Co 0.02074 0.23579 0.31099 0.0
N6 N 1.0004 0.21786 0.29471 0.0
C7 C 0.9791 0.21585 0.29783 0.0
C8 C 0.96931 0.20228 0.28438 0.0
C9 C 0.98528 0.19523 0.2719 0.0
C10 C 1.004 0.20501 0.27842 0.0
N11 N 0.04453 0.22386 0.29424 0.0
C12 C 0.04403 0.21063 0.27784 0.0
C13 C 0.06436 0.20695 0.27031 0.0
C14 C 0.07815 0.21807 0.28246 0.0
C15 C 0.06556 0.228 0.29658 0.0
N16 N 0.04095 0.25387 0.32725 0.0
C17 C 0.06237 0.25374 0.32659 0.0
C18 C 0.07192 0.26908 0.33827 0.0
C19 C 0.05565 0.28 0.34638 0.0
C20 C 0.03707 0.27066 0.33911 0.0
N21 N 0.02233 0.21354 0.33119 0.0
C22 C 0.02443 0.17657 0.35214 0.0
C23 C 0.04285 0.18792 0.34632 0.0
C24 C 0.04144 0.20625 0.33621 0.0
C25 C 1.00498 0.18501 0.34885 0.0
C26 C 1.00433 0.20338 0.33868 0.0
N27 N 0.01912 0.25736 0.2908 0.0
C28 C 0.0361 0.2834 0.26979 0.0
C29 C 0.01645 0.28864 0.26279 0.0
C30 C 0.99821 0.27783 0.2699 0.0
C31 C 0.9999 0.26231 0.28372 0.0
C32 C 0.03707 0.26785 0.28377 0.0
H33 H 0.98546 0.25452 0.28856 0.0
H34 H 0.05244 0.2646 0.28885 0.0
H35 H 0.05612 0.21391 0.33224 0.0
H36 H 0.98896 0.20865 0.33661 0.0
C37 C 0.96865 0.22783 0.31271 0.0
C38 C 0.01622 0.27901 0.34272 0.0
C39 C 0.02478 0.20135 0.2688 0.0
C40 C 0.07295 0.24173 0.31189 0.0
H41 H 0.97259 0.28355 0.35528 0.0
H42 H 0.94631 0.25507 0.33934 0.0
H43 H 0.95251 0.19822 0.28355 0.0
H44 H 0.98336 0.18418 0.25938 0.0
H45 H 0.06881 0.19735 0.25728 0.0
H46 H 0.0953 0.21901 0.28099 0.0
H47 H 0.08875 0.2728 0.33951 0.0
H48 H 0.05728 0.2938 0.35577 0.0
H49 H 0.05839 0.18258 0.34929 0.0
H50 H 0.99016 0.17711 0.3533 0.0
H51 H 0.05063 0.29148 0.26478 0.0
H52 H 0.98267 0.28117 0.26465 0.0
C53 C 0.99228 0.70877 0.14751 0.0
C54 C 0.9713 0.70639 0.14166 0.0
C55 C 0.95989 0.71878 0.15446 0.0
C56 C 0.97451 0.72811 0.16719 0.0
N57 N 0.99465 0.72272 0.16308 0.0
Co58 Co 0.02091 0.733 0.17742 0.0
N59 N 1.00391 0.75003 0.19726 0.0
C60 C 0.98253 0.75103 0.19847 0.0
C61 C 0.97555 0.76472 0.2131 0.0
C62 C 0.99353 0.77321 0.22154 0.0
C63 C 0.01053 0.76411 0.21156 0.0
N64 N 0.04721 0.74363 0.19149 0.0
C65 C 0.04968 0.75853 0.20612 0.0
C66 C 0.07081 0.762 0.2111 0.0
C67 C 0.0822 0.74918 0.19877 0.0
C68 C 0.06742 0.73864 0.18709 0.0
N69 N 0.03783 0.71569 0.15774 0.0
C70 C 0.05914 0.714 0.1572 0.0
C71 C 0.0661 0.6998 0.14313 0.0
C72 C 0.04818 0.69167 0.1343 0.0
C73 C 0.0312 0.70157 0.14341 0.0
N74 N 0.02408 0.75626 0.15858 0.0
C75 C 0.02976 0.79275 0.13685 0.0
C76 C 0.04654 0.77991 0.13887 0.0
C77 C 0.04335 0.76184 0.14959 0.0
C78 C 0.00987 0.78641 0.14508 0.0
C79 C 0.00739 0.76828 0.15563 0.0
N80 N 0.01778 0.70991 0.19658 0.0
C81 C 0.03323 0.68427 0.21659 0.0
C82 C 0.01344 0.67862 0.2255 0.0
C83 C 0.9958 0.68855 0.21916 0.0
C84 C 0.99828 0.70392 0.20483 0.0
C85 C 0.03501 0.69975 0.20228 0.0
H86 H 0.98417 0.7108 0.20075 0.0
H87 H 0.05055 0.70334 0.19619 0.0
H88 H 0.05682 0.75285 0.15081 0.0
H89 H 0.99192 0.76465 0.16181 0.0
C90 C 0.96966 0.74089 0.184 0.0
C91 C 0.00901 0.6963 0.13887 0.0
C92 C 0.03266 0.77034 0.21508 0.0
C93 C 0.07207 0.72492 0.17107 0.0
H94 H 0.96484 0.69625 0.12979 0.0
H95 H 0.94288 0.72032 0.15485 0.0
H96 H 0.95938 0.76879 0.21649 0.0
H97 H 0.99403 0.7853 0.23315 0.0
H98 H 0.07735 0.77303 0.22215 0.0
H99 H 0.09928 0.74811 0.19796 0.0
H100 H 0.08222 0.69536 0.14017 0.0
H101 H 0.04781 0.6794 0.12291 0.0
H102 H 0.06216 0.78384 0.13237 0.0
H103 H 0.99632 0.79575 0.1441 0.0
H104 H 0.04744 0.67714 0.22097 0.0
H105 H 0.98001 0.68446 0.22518 0.0
C106 C 0.33892 0.99476 0.26358 0.0
C107 C 0.34701 0.97568 0.265 0.0
C108 C 0.34157 0.96493 0.24736 0.0
C109 C 0.33041 0.97796 0.23621 0.0
N110 N 0.32864 0.99619 0.24577 0.0
Co111 Co 0.3126 0.019 0.23616 0.0
N112 N 0.29541 1.00074 0.21766 0.0
C113 C 0.30057 0.98198 0.21108 0.0
C114 C 0.28629 0.97313 0.19765 0.0
C115 C 0.27141 0.98731 0.19541 0.0
C116 C 0.27741 1.00412 0.20769 0.0
N117 N 0.29669 0.04203 0.22678 0.0
C118 C 0.27843 0.04202 0.21633 0.0
C119 C 0.27294 0.0618 0.21302 0.0
C120 C 0.28867 0.07448 0.22107 0.0
C121 C 0.30277 0.06187 0.22903 0.0
N122 N 0.32993 0.037 0.25464 0.0
C123 C 0.33306 0.05726 0.25346 0.0
C124 C 0.34518 0.06552 0.2691 0.0
C125 C 0.34978 0.0494 0.28083 0.0
C126 C 0.34012 0.03222 0.27167 0.0
N127 N 0.33357 0.02344 0.21354 0.0
C128 C 0.36261 0.02937 0.1803 0.0
C129 C 0.3407 0.02987 0.17773 0.0
C130 C 0.3266 0.02696 0.19437 0.0
C131 C 0.36969 0.02568 0.20003 0.0
C132 C 0.35492 0.02281 0.21644 0.0
N133 N 0.29162 0.01454 0.25847 0.0
C134 C 0.27063 0.02747 0.28699 0.0
C135 C 0.26218 0.00784 0.29102 0.0
C136 C 0.26883 0.99168 0.27828 0.0
C137 C 0.28354 0.99533 0.2622 0.0
C138 C 0.2852 0.03049 0.27064 0.0
H139 H 0.2884 0.98256 0.25279 0.0
H140 H 0.2914 0.04575 0.26793 0.0
H141 H 0.30996 0.02746 0.19152 0.0
H142 H 0.36073 0.02008 0.23148 0.0
C143 C 0.31739 0.97236 0.21973 0.0
C144 C 0.34141 0.01148 0.27892 0.0
C145 C 0.26734 0.0238 0.20728 0.0
C146 C 0.32027 0.06806 0.2409 0.0
H147 H 0.35555 0.96996 0.27756 0.0
H148 H 0.3442 0.94909 0.24378 0.0
H149 H 0.28648 0.95807 0.19054 0.0
H150 H 0.25803 0.98565 0.1854 0.0
H151 H 0.25925 0.06659 0.20519 0.0
H152 H 0.28946 0.09094 0.22144 0.0
H153 H 0.34903 0.08146 0.2724 0.0
H154 H 0.35888 0.0502 0.29467 0.0
H155 H 0.3343 0.03218 0.1628 0.0
H156 H 0.38648 0.02524 0.20285 0.0
H157 H 0.26624 0.04044 0.29651 0.0
H158 H 0.26251 0.97628 0.28046 0.0
C159 C 0.67231 0.47133 0.25469 0.0
C160 C 0.66604 0.45129 0.24995 0.0
C161 C 0.67714 0.4395 0.26224 0.0
C162 C 0.68959 0.45296 0.27361 0.0
N163 N 0.68672 0.47266 0.26974 0.0
Co164 Co 0.70338 0.49715 0.28084 0.0
N165 N 0.72257 0.47976 0.29583 0.0
C166 C 0.72092 0.45928 0.29719 0.0
C167 C 0.73591 0.45164 0.30918 0.0
C168 C 0.74777 0.46822 0.31604 0.0
C169 C 0.73934 0.48509 0.30771 0.0
N170 N 0.72037 0.52167 0.29125 0.0
C171 C 0.73769 0.52302 0.30307 0.0
C172 C 0.74501 0.54308 0.30626 0.0
C173 C 0.73165 0.55484 0.29635 0.0
C174 C 0.71709 0.54137 0.28759 0.0
N175 N 0.68395 0.5145 0.26617 0.0
C176 C 0.68359 0.535 0.26703 0.0
C177 C 0.66874 0.54252 0.25475 0.0
C178 C 0.6594 0.52583 0.24514 0.0
C179 C 0.66923 0.50909 0.2521 0.0
N180 N 0.68421 0.49832 0.30604 0.0
C181 C 0.6597 0.49999 0.34349 0.0
C182 C 0.667 0.51771 0.33363 0.0
C183 C 0.67895 0.51654 0.31513 0.0
C184 C 0.66452 0.48143 0.33387 0.0
C185 C 0.67661 0.48095 0.31544 0.0
N186 N 0.7225 0.49597 0.25591 0.0
C187 C 0.74038 0.51212 0.22674 0.0
C188 C 0.74918 0.49384 0.22007 0.0
C189 C 0.74419 0.47667 0.23179 0.0
C190 C 0.73107 0.47807 0.24947 0.0
C191 C 0.7272 0.51283 0.24449 0.0
H192 H 0.72793 0.46441 0.25765 0.0
H193 H 0.72093 0.52719 0.24872 0.0
H194 H 0.68395 0.53068 0.30869 0.0
H195 H 0.67967 0.46625 0.30924 0.0
C196 C 0.70552 0.4476 0.28654 0.0
C197 C 0.66542 0.48859 0.24359 0.0
C198 C 0.74744 0.50587 0.312 0.0
C199 C 0.69959 0.54675 0.27671 0.0
H200 H 0.65518 0.44568 0.23833 0.0
H201 H 0.67693 0.42306 0.26215 0.0
H202 H 0.73797 0.43588 0.31254 0.0
H203 H 0.76104 0.46794 0.32614 0.0
H204 H 0.75849 0.54866 0.31504 0.0
H205 H 0.73229 0.57127 0.29583 0.0
H206 H 0.66598 0.5583 0.2521 0.0
H207 H 0.64743 0.52596 0.2336 0.0
H208 H 0.66397 0.53257 0.34032 0.0
H209 H 0.65891 0.46717 0.34043 0.0
H210 H 0.74383 0.52597 0.2185 0.0
H211 H 0.75013 0.46201 0.22726 0.0
C212 C 0.30005 0.38755 0.99204 0.0
C213 C 0.30704 0.39448 0.973 0.0
C214 C 0.29294 0.3865 0.95906 0.0
C215 C 0.27824 0.37517 0.97037 0.0
N216 N 0.28174 0.37592 0.99074 0.0
Co217 Co 0.26593 0.3598 0.01246 0.0
N218 N 0.2479 0.34482 0.99163 0.0
C219 C 0.24726 0.3487 0.97141 0.0
C220 C 0.2325 0.33665 0.96111 0.0
C221 C 0.22301 0.32448 0.97566 0.0
C222 C 0.23263 0.32978 0.99406 0.0
N223 N 0.25119 0.34292 0.03417 0.0
C224 C 0.23633 0.32745 0.0325 0.0
C225 C 0.23098 0.31925 0.05147 0.0
C226 C 0.24267 0.33014 0.06565 0.0
C227 C 0.25457 0.34416 0.05457 0.0
N228 N 0.28346 0.37542 0.03329 0.0
C229 C 0.28115 0.37461 0.05393 0.0
C230 C 0.29607 0.38645 0.06424 0.0
C231 C 0.30893 0.39501 0.0493 0.0
C232 C 0.30103 0.38792 0.03063 0.0
N233 N 0.24339 0.38022 0.01551 0.0
C234 C 0.20427 0.3998 0.01671 0.0
C235 C 0.21204 0.39141 0.03429 0.0
C236 C 0.23158 0.38214 0.03345 0.0
C237 C 0.21761 0.40004 0.99914 0.0
C238 C 0.23697 0.39047 0.99895 0.0
N239 N 0.28764 0.33909 0.00923 0.0
C240 C 0.31201 0.31664 0.02382 0.0
C241 C 0.3156 0.30704 1.00465 0.0
C242 C 0.30557 0.31433 0.98775 0.0
C243 C 0.29192 0.33032 0.99032 0.0
C244 C 0.29801 0.33251 0.02578 0.0
H245 H 0.28474 0.33522 0.97682 0.0
H246 H 0.29547 0.33906 0.04083 0.0
H247 H 0.23633 0.376 0.0474 0.0
H248 H 0.24609 0.39114 0.98496 0.0
C249 C 0.26176 0.36269 0.96231 0.0
C250 C 0.31167 0.39188 0.01083 0.0
C251 C 0.22644 0.32041 0.01347 0.0
C252 C 0.26798 0.35953 0.06293 0.0
H253 H 0.32115 0.40394 0.96954 0.0
H254 H 0.29375 0.38814 0.94258 0.0
H255 H 0.2292 0.33657 0.94491 0.0
H256 H 0.21038 0.31304 0.97305 0.0
H257 H 0.21959 0.30686 0.05477 0.0
H258 H 0.24228 0.32827 0.0821 0.0
H259 H 0.29834 0.38749 0.08064 0.0
H260 H 0.32309 0.40453 0.05198 0.0
H261 H 0.20273 0.39109 0.04852 0.0
H262 H 0.213 0.40725 0.98537 0.0
H263 H 0.31947 0.31156 0.03737 0.0
H264 H 0.30823 0.30772 0.97251 0.0
C265 C 0.22674 0.6627 0.47989 0.0
C266 C 0.22521 0.65528 0.4598 0.0
C267 C 0.24048 0.66568 0.4485 0.0
C268 C 0.2505 0.67873 0.46229 0.0
N269 N 0.24276 0.67711 0.4818 0.0
Co270 Co 0.25241 0.69349 0.50658 0.0
N271 N 0.27281 0.71073 0.48949 0.0
C272 C 0.27639 0.70904 0.46894 0.0
C273 C 0.2913 0.72299 0.4615 0.0
C274 C 0.29764 0.73432 0.47828 0.0
C275 C 0.28615 0.7266 0.49506 0.0
N276 N 0.26213 0.70971 0.53142 0.0
C277 C 0.27671 0.72548 0.53307 0.0
C278 C 0.2787 0.73235 0.55331 0.0
C279 C 0.26505 0.7204 0.56489 0.0
C280 C 0.25549 0.70702 0.55113 0.0
N281 N 0.23168 0.67642 0.52356 0.0
C282 C 0.22845 0.67776 0.54417 0.0
C283 C 0.21235 0.66495 0.5514 0.0
C284 C 0.20456 0.65499 0.53438 0.0
C285 C 0.21651 0.66225 0.51767 0.0
N286 N 0.27528 0.67408 0.51076 0.0
C287 C 0.31128 0.6513 0.51785 0.0
C288 C 0.29637 0.65537 0.5336 0.0
C289 C 0.27867 0.66661 0.52975 0.0
C290 C 0.30716 0.65793 0.49826 0.0
C291 C 0.28921 0.66899 0.49506 0.0
N292 N 0.22996 0.71313 0.50248 0.0
C293 C 0.20336 0.73555 0.51632 0.0
C294 C 0.19995 0.74297 0.49685 0.0
C295 C 0.21156 0.73475 0.48021 0.0
C296 C 0.22629 0.72 0.48332 0.0
C297 C 0.21821 0.72073 0.51875 0.0
H298 H 0.23474 0.71454 0.47002 0.0
H299 H 0.22004 0.71572 0.53398 0.0
H300 H 0.26823 0.66944 0.54254 0.0
H301 H 0.28721 0.67355 0.47978 0.0
C302 C 0.26582 0.6939 0.45711 0.0
C303 C 0.21216 0.65602 0.49644 0.0
C304 C 0.28885 0.73456 0.51599 0.0
C305 C 0.23987 0.69213 0.55617 0.0
H306 H 0.2139 0.64384 0.45387 0.0
H307 H 0.24345 0.66438 0.43208 0.0
H308 H 0.297 0.72462 0.44577 0.0
H309 H 0.30954 0.74674 0.4782 0.0
H310 H 0.28891 0.74478 0.55912 0.0
H311 H 0.26231 0.72144 0.58135 0.0
H312 H 0.2065 0.66351 0.5671 0.0
H313 H 0.1912 0.64403 0.53431 0.0
H314 H 0.29868 0.65053 0.54907 0.0
H315 H 0.31782 0.6547 0.48536 0.0
H316 H 0.19453 0.74105 0.52969 0.0
H317 H 0.20972 0.74 0.46481 0.0
C318 C 0.78108 0.86831 0.48552 0.0
C319 C 0.78309 0.87513 0.4656 0.0
C320 C 0.76564 0.86709 0.45541 0.0
C321 C 0.75405 0.85574 0.46957 0.0
N322 N 0.76317 0.8563 0.48794 0.0
Co323 Co 0.75343 0.84073 0.51221 0.0
N324 N 0.73672 0.82086 0.49524 0.0
C325 C 0.73006 0.82389 0.47619 0.0
C326 C 0.71825 0.8075 0.46843 0.0
C327 C 0.71732 0.79346 0.48364 0.0
C328 C 0.72871 0.80209 0.4999 0.0
N329 N 0.7441 0.82536 0.53671 0.0
C330 C 0.73587 0.80609 0.53795 0.0
C331 C 0.73165 0.80119 0.55831 0.0
C332 C 0.73705 0.81822 0.57004 0.0
C333 C 0.74438 0.83251 0.5563 0.0
N334 N 0.77002 0.86079 0.52902 0.0
C335 C 0.76727 0.86479 0.54924 0.0
C336 C 0.78192 0.87923 0.5565 0.0
C337 C 0.79463 0.88443 0.53975 0.0
C338 C 0.78699 0.87279 0.52326 0.0
N339 N 0.72812 0.85707 0.51559 0.0
C340 C 0.69048 0.87846 0.51824 0.0
C341 C 0.69029 0.85769 0.52208 0.0
C342 C 0.70903 0.84737 0.52057 0.0
C343 C 0.71009 0.88842 0.51311 0.0
C344 C 0.72878 0.87749 0.5121 0.0
N345 N 0.77811 0.82386 0.50861 0.0
C346 C 0.80516 0.80444 0.52292 0.0
C347 C 0.80938 0.79501 0.50368 0.0
C348 C 0.79818 0.80113 0.48688 0.0
C349 C 0.7828 0.81555 0.48964 0.0
C350 C 0.78953 0.81884 0.52504 0.0
H351 H 0.77411 0.81939 0.47645 0.0
H352 H 0.78625 0.82548 0.54007 0.0
H353 H 0.70785 0.83129 0.52309 0.0
H354 H 0.7437 0.88545 0.50825 0.0
C355 C 0.73809 0.84073 0.46509 0.0
C356 C 0.79574 0.87355 0.50222 0.0
C357 C 0.72979 0.79302 0.52017 0.0
C358 C 0.75463 0.85136 0.56128 0.0
H359 H 0.79587 0.88453 0.45893 0.0
H360 H 0.76264 0.86824 0.43924 0.0
H361 H 0.71165 0.80567 0.45332 0.0
H362 H 0.70898 0.7787 0.48294 0.0
H363 H 0.72505 0.78693 0.56408 0.0
H364 H 0.73634 0.81975 0.58663 0.0
H365 H 0.78404 0.88435 0.57227 0.0
H366 H 0.80816 0.89521 0.5397 0.0
H367 H 0.67556 0.84924 0.52576 0.0
H368 H 0.711 0.90452 0.51009 0.0
H369 H 0.81366 0.80056 0.53632 0.0
H370 H 0.80058 0.79426 0.47174 0.0
C371 C 0.50268 0.77618 0.85552 0.0
C372 C 0.48326 0.78142 0.8641 0.0
C373 C 0.46886 0.76616 0.85864 0.0
C374 C 0.48028 0.75252 0.84709 0.0
N375 N 0.50123 0.75784 0.84536 0.0
Co376 Co 0.52317 0.74396 0.82779 0.0
N377 N 0.50125 0.72462 0.8153 0.0
C378 C 0.48038 0.72289 0.82074 0.0
C379 C 0.46916 0.70846 0.80933 0.0
C380 C 0.48371 0.7005 0.79581 0.0
C381 C 0.50312 0.71049 0.7998 0.0
N382 N 0.54512 0.73074 0.80972 0.0
C383 C 0.54288 0.71625 0.79456 0.0
C384 C 0.5624 0.71151 0.78572 0.0
C385 C 0.57743 0.72361 0.79542 0.0
C386 C 0.56633 0.73497 0.80962 0.0
N387 N 0.545 0.76329 0.84046 0.0
C388 C 0.5663 0.76302 0.83764 0.0
C389 C 0.57708 0.77913 0.84711 0.0
C390 C 0.56173 0.79065 0.85606 0.0
C391 C 0.54238 0.78085 0.85156 0.0
N392 N 0.52724 0.72359 0.84945 0.0
C393 C 0.5318 0.68805 0.87214 0.0
C394 C 0.54947 0.69888 0.86377 0.0
C395 C 0.54688 0.71652 0.85284 0.0
C396 C 0.51204 0.69649 0.87058 0.0
C397 C 0.5102 0.71421 0.85955 0.0
N398 N 0.51907 0.76358 0.80611 0.0
C399 C 0.53335 0.78743 0.78122 0.0
C400 C 0.51298 0.79053 0.77448 0.0
C401 C 0.49573 0.78017 0.78405 0.0
C402 C 0.49909 0.76695 0.79979 0.0
C403 C 0.53604 0.77387 0.79691 0.0
H404 H 0.48532 0.75957 0.80663 0.0
H405 H 0.55194 0.77179 0.80131 0.0
H406 H 0.56104 0.72379 0.84687 0.0
H407 H 0.49467 0.71956 0.85895 0.0
C408 C 0.47148 0.73621 0.83538 0.0
C409 C 0.52189 0.78951 0.85659 0.0
C410 C 0.52275 0.70639 0.78818 0.0
C411 C 0.57529 0.74986 0.82294 0.0
H412 H 0.47977 0.7952 0.87275 0.0
H413 H 0.45189 0.76567 0.86171 0.0
H414 H 0.45229 0.70458 0.81034 0.0
H415 H 0.48031 0.68887 0.78413 0.0
H416 H 0.5655 0.70042 0.77354 0.0
H417 H 0.59441 0.72412 0.79241 0.0
H418 H 0.59398 0.78286 0.84631 0.0
H419 H 0.56447 0.80512 0.86407 0.0
H420 H 0.56532 0.69362 0.86534 0.0
H421 H 0.49779 0.68905 0.87709 0.0
H422 H 0.54717 0.79511 0.77416 0.0
H423 H 0.47964 0.78238 0.77956 0.0
C424 C 0.5368 0.26538 0.66309 0.0
C425 C 0.55663 0.27043 0.65433 0.0
C426 C 0.57006 0.25638 0.66055 0.0
C427 C 0.5578 0.2437 0.67285 0.0
N428 N 0.53718 0.24841 0.67438 0.0
Co429 Co 0.5146 0.23596 0.69319 0.0
N430 N 0.53529 0.21813 0.70572 0.0
C431 C 0.55588 0.2163 0.69988 0.0
C432 C 0.56604 0.20251 0.71089 0.0
C433 C 0.55101 0.19496 0.72452 0.0
C434 C 0.53246 0.20461 0.72102 0.0
N435 N 0.49218 0.2243 0.71261 0.0
C436 C 0.49356 0.21079 0.72779 0.0
C437 C 0.4741 0.20713 0.73787 0.0
C438 C 0.45992 0.21871 0.72876 0.0
C439 C 0.47146 0.22878 0.71372 0.0
N440 N 0.49386 0.2534 0.6803 0.0
C441 C 0.4726 0.253 0.68374 0.0
C442 C 0.46273 0.26741 0.67326 0.0
C443 C 0.47871 0.27794 0.66292 0.0
C444 C 0.49746 0.26937 0.66782 0.0
N445 N 0.50794 0.2138 0.67246 0.0
C446 C 0.49868 0.18133 0.64427 0.0
C447 C 0.48258 0.19024 0.65602 0.0
C448 C 0.4875 0.20628 0.66983 0.0
C449 C 0.51945 0.18922 0.64654 0.0
C450 C 0.52367 0.20528 0.66056 0.0
N451 N 0.52123 0.25807 0.71347 0.0
C452 C 0.51047 0.2884 0.73177 0.0
C453 C 0.53156 0.294 0.73591 0.0
C454 C 0.54727 0.28071 0.72981 0.0
C455 C 0.54178 0.26288 0.71868 0.0
C456 C 0.50565 0.27031 0.72085 0.0
H457 H 0.55446 0.25355 0.71387 0.0
H458 H 0.48929 0.26681 0.71801 0.0
H459 H 0.47441 0.21216 0.67826 0.0
H460 H 0.53985 0.2103 0.66158 0.0
C461 C 0.56554 0.22863 0.68483 0.0
C462 C 0.51841 0.27787 0.66159 0.0
C463 C 0.51268 0.20052 0.73278 0.0
C464 C 0.46313 0.24176 0.69974 0.0
H465 H 0.56121 0.28337 0.64509 0.0
H466 H 0.587 0.25613 0.65741 0.0
H467 H 0.58248 0.19862 0.70937 0.0
H468 H 0.55346 0.18369 0.73583 0.0
H469 H 0.47046 0.19693 0.75033 0.0
H470 H 0.44313 0.21948 0.73248 0.0
H471 H 0.44611 0.2708 0.67417 0.0
H472 H 0.47691 0.29105 0.65364 0.0
H473 H 0.46615 0.18489 0.65459 0.0
H474 H 0.53255 0.18272 0.63793 0.0
H475 H 0.49774 0.29797 0.73684 0.0
H476 H 0.5638 0.28436 0.73298 0.0
C477 C 0.84095 0.4961 0.76456 0.0
C478 C 0.85189 0.47829 0.76369 0.0
C479 C 0.8439 0.4666 0.74754 0.0
C480 C 0.82918 0.4782 0.73897 0.0
N481 N 0.8277 0.49635 0.74866 0.0
Co482 Co 0.81144 0.51893 0.73931 0.0
N483 N 0.79163 0.50008 0.72427 0.0
C484 C 0.79567 0.48088 0.71819 0.0
C485 C 0.77943 0.47158 0.70729 0.0
C486 C 0.7645 0.48595 0.70619 0.0
C487 C 0.77252 0.50337 0.71641 0.0
N488 N 0.79543 0.54179 0.73 0.0
C489 C 0.776 0.54175 0.72169 0.0
C490 C 0.77141 0.56129 0.71639 0.0
C491 C 0.78879 0.57375 0.72116 0.0
C492 C 0.803 0.56125 0.72916 0.0
N493 N 0.83147 0.53747 0.75426 0.0
C494 C 0.83639 0.55687 0.74967 0.0
C495 C 0.8529 0.56514 0.76096 0.0
C496 C 0.8584 0.54989 0.77348 0.0
C497 C 0.84433 0.5334 0.7697 0.0
N498 N 0.8298 0.52077 0.71442 0.0
C499 C 0.85525 0.52171 0.67825 0.0
C500 C 0.83323 0.52323 0.67765 0.0
C501 C 0.82089 0.52279 0.69577 0.0
C502 C 0.86435 0.52013 0.69748 0.0
C503 C 0.85136 0.51962 0.71535 0.0
N504 N 0.79318 0.51702 0.76392 0.0
C505 C 0.77617 0.53287 0.79337 0.0
C506 C 0.76775 0.51391 0.79979 0.0
C507 C 0.77239 0.49658 0.78776 0.0
C508 C 0.78515 0.49845 0.76999 0.0
C509 C 0.78877 0.53409 0.77538 0.0
H510 H 0.78857 0.48484 0.76113 0.0
H511 H 0.7951 0.54884 0.77079 0.0
H512 H 0.80403 0.52394 0.69455 0.0
H513 H 0.85873 0.51808 0.7299 0.0
C514 C 0.81394 0.47168 0.72459 0.0
C515 C 0.84429 0.51337 0.77932 0.0
C516 C 0.76301 0.52335 0.7159 0.0
C517 C 0.82269 0.56735 0.73762 0.0
H518 H 0.86433 0.47417 0.77359 0.0
H519 H 0.84791 0.45128 0.74304 0.0
H520 H 0.77846 0.45617 0.701 0.0
H521 H 0.74974 0.48405 0.69815 0.0
H522 H 0.75731 0.56593 0.70912 0.0
H523 H 0.79075 0.58998 0.7191 0.0
H524 H 0.85974 0.58053 0.7606 0.0
H525 H 0.87139 0.55081 0.78397 0.0
H526 H 0.82549 0.52492 0.66324 0.0
H527 H 0.88131 0.51889 0.6987 0.0
H528 H 0.77325 0.54667 0.80224 0.0
H529 H 0.76596 0.48164 0.79181 0.0
C530 C 0.18029 0.01992 0.79856 0.0
C531 C 0.17363 0.03932 0.80337 0.0
C532 C 0.18172 0.05164 0.78831 0.0
C533 C 0.19299 0.03923 0.77526 0.0
N534 N 0.19234 0.01959 0.78085 0.0
Co535 Co 0.2086 0.99705 0.7673 0.0
N536 N 0.22242 0.01574 0.74643 0.0
C537 C 0.2188 0.03565 0.74446 0.0
C538 C 0.22964 0.0444 0.7282 0.0
C539 C 0.24074 0.02916 0.71906 0.0
C540 C 0.23614 0.01191 0.7304 0.0
N541 N 0.22528 0.97462 0.75417 0.0
C542 C 0.23912 0.97469 0.73772 0.0
C543 C 0.24735 0.95572 0.73408 0.0
C544 C 0.23816 0.94315 0.74842 0.0
C545 C 0.22499 0.95511 0.76008 0.0
N546 N 0.19447 0.97829 0.78788 0.0
C547 C 0.19653 0.958 0.78869 0.0
C548 C 0.18513 0.94912 0.80456 0.0
C549 C 0.17545 0.9647 0.81473 0.0
C550 C 0.18166 0.98231 0.80454 0.0
N551 N 0.18523 0.99056 0.74798 0.0
C552 C 0.15732 0.98172 0.71554 0.0
C553 C 0.1662 0.96615 0.72594 0.0
C554 C 0.17986 0.97086 0.74207 0.0
C555 C 0.16146 1.00171 0.72265 0.0
C556 C 0.1752 1.00572 0.73883 0.0
N557 N 0.23195 1.00356 0.78644 0.0
C558 C 0.25538 0.99335 0.81247 0.0
C559 C 0.26328 0.01339 0.81547 0.0
C560 C 0.25553 0.02833 0.80336 0.0
C561 C 0.24004 0.02312 0.78906 0.0
C562 C 0.23989 0.9888 0.79795 0.0
H563 H 0.23477 0.03522 0.78038 0.0
H564 H 0.23441 0.97328 0.79647 0.0
H565 H 0.1863 0.95829 0.74912 0.0
H566 H 0.17794 0.02129 0.74317 0.0
C567 C 0.20527 0.04574 0.75827 0.0
C568 C 0.17559 1.00253 0.81177 0.0
C569 C 0.24474 0.99215 0.72491 0.0
C570 C 0.21116 0.94817 0.77581 0.0
H571 H 0.16437 0.04427 0.81666 0.0
H572 H 0.18015 0.06787 0.78735 0.0
H573 H 0.22936 0.05998 0.72344 0.0
H574 H 0.25087 0.03057 0.70543 0.0
H575 H 0.25866 0.95134 0.72214 0.0
H576 H 0.24049 0.92711 0.74992 0.0
H577 H 0.1846 0.93332 0.80874 0.0
H578 H 0.16541 0.96334 0.82843 0.0
H579 H 0.16297 0.95036 0.72143 0.0
H580 H 0.15494 0.01437 0.7152 0.0
H581 H 0.26081 0.98123 0.82154 0.0
H582 H 0.26149 0.044 0.80476 0.0
C583 C 0.7422 0.17415 0.97333 0.0
C584 C 0.73881 0.16915 0.95281 0.0
C585 C 0.75345 0.18047 0.94165 0.0
C586 C 0.76484 0.19176 0.95591 0.0
N587 N 0.75864 0.18809 0.97556 0.0
Co588 Co 0.76972 0.20236 1.00103 0.0
N589 N 0.78925 0.22094 0.98449 0.0
C590 C 0.79215 0.22059 0.96382 0.0
C591 C 0.80702 0.23484 0.9569 0.0
C592 C 0.81413 0.24487 0.97416 0.0
C593 C 0.80305 0.23617 0.99069 0.0
N594 N 0.78039 0.21677 0.02653 0.0
C595 C 0.79478 0.23261 0.02874 0.0
C596 C 0.79728 0.23827 0.04927 0.0
C597 C 0.78421 0.2254 0.06043 0.0
C598 C 0.77442 0.21275 0.04616 0.0
N599 N 0.75031 0.1836 0.01751 0.0
C600 C 0.74876 0.18263 0.0382 0.0
C601 C 0.73365 0.16856 0.04507 0.0
C602 C 0.72473 0.16026 0.02774 0.0
C603 C 0.73492 0.16987 0.01127 0.0
N604 N 0.79313 0.18298 1.0022 0.0
C605 C 0.83136 0.16238 1.00483 0.0
C606 C 0.81825 0.16572 0.0222 0.0
C607 C 0.79937 0.17588 0.02054 0.0
C608 C 0.82414 0.16821 0.98594 0.0
C609 C 0.80508 0.17812 0.98495 0.0
N610 N 0.7469 0.22211 0.99994 0.0
C611 C 0.71997 0.24223 0.01694 0.0
C612 C 0.71763 0.25326 0.99922 0.0
C613 C 0.72955 0.24778 0.98165 0.0
C614 C 0.74378 0.2322 0.98229 0.0
C615 C 0.73462 0.22687 0.01699 0.0
H616 H 0.75233 0.22877 0.96836 0.0
H617 H 0.73603 0.21927 0.03108 0.0
H618 H 0.79044 0.17832 0.03444 0.0
H619 H 0.80067 0.18214 0.97007 0.0
C620 C 0.7804 0.20691 0.95132 0.0
C621 C 0.72868 0.16614 0.99009 0.0
C622 C 0.8065 0.24267 0.01198 0.0
C623 C 0.75997 0.19667 0.05074 0.0
H624 H 0.72665 0.15881 0.94651 0.0
H625 H 0.7551 0.18095 0.92509 0.0
H626 H 0.8121 0.23758 0.94117 0.0
H627 H 0.8262 0.25713 0.97454 0.0
H628 H 0.80756 0.2504 0.05555 0.0
H629 H 0.78218 0.22521 0.07697 0.0
H630 H 0.72904 0.16535 0.06082 0.0
H631 H 0.71177 0.14887 0.02728 0.0
H632 H 0.82293 0.16129 0.0372 0.0
H633 H 0.83328 0.16535 0.9719 0.0
H634 H 0.71105 0.24583 0.03094 0.0
H635 H 0.72794 0.2555 0.96739 0.0
Co636 Co 0.06245 0.05328 0.05092 0.0
C637 C 0.06148 0.08545 0.08088 0.0
Co638 Co 0.07943 0.08201 0.04222 0.0
C639 C 0.05341 0.01086 0.06097 0.0
C640 C 0.02636 0.029 0.06557 0.0
N641 N 0.04693 0.02999 0.05922 0.0
N642 N 0.03766 0.998 0.06807 0.0
C643 C 0.02062 0.00941 0.07091 0.0
H644 H 0.06939 0.00647 0.05714 0.0
H645 H 0.01625 0.04179 0.06661 0.0
C646 C 0.08091 0.05059 0.01178 0.0
N647 N 0.09548 0.10469 0.0336 0.0
C648 C 0.09245 0.12484 0.03572 0.0
C649 C 0.1139 0.10345 0.02264 0.0
N650 N 0.10813 0.13602 0.02614 0.0
C651 C 0.12161 0.12258 0.01796 0.0
C652 C 0.10401 0.05514 0.06307 0.0
O653 O 0.07041 0.03975 0.02484 0.0
O654 O 0.0858 0.06895 0.01667 0.0
O655 O 0.10442 0.07197 0.05395 0.0
O656 O 0.08696 0.04405 0.0632 0.0
O657 O 0.0729 0.09499 0.06759 0.0
H658 H 0.12135 0.08944 0.01833 0.0
H659 H 0.07899 0.13114 0.04391 0.0
O660 O 0.05493 0.06716 0.07674 0.0
O661 O 0.03772 0.06306 0.03895 0.0
O662 O 0.05419 0.09204 0.03114 0.0
C663 C 0.03717 0.08076 0.03172 0.0
H664 H 1.00524 1.00412 0.07701 0.0
H665 H 0.13628 0.12638 0.00957 0.0
Co666 Co 0.95209 0.45719 0.06679 0.0
C667 C 0.95775 0.49757 0.05411 0.0
Co668 Co 0.94249 0.46287 0.03507 0.0
C669 C 0.9685 0.43879 0.10212 0.0
C670 C 0.95512 0.46736 0.10979 0.0
N671 N 0.95915 0.45445 0.09385 0.0
N672 N 0.97032 0.4413 0.12264 0.0
C673 C 0.96194 0.45931 0.12751 0.0
H674 H 0.97324 0.42548 0.09332 0.0
H675 H 0.94739 0.48155 0.10864 0.0
C676 C 0.93652 0.42241 0.04773 0.0
N677 N 0.93554 0.46465 0.00729 0.0
C678 C 0.92194 0.47568 0.99692 0.0
C679 C 0.94343 0.45164 0.99292 0.0
N680 N 0.92105 0.46968 0.97682 0.0
C681 C 0.93464 0.45465 0.97441 0.0
C682 C 0.98565 0.45297 0.03973 0.0
O683 O 0.94392 0.42908 0.06466 0.0
O684 O 0.93504 0.4346 0.03321 0.0
O685 O 0.97213 0.45761 0.02665 0.0
O686 O 0.97974 0.45174 0.0584 0.0
O687 O 0.94974 0.49112 0.03731 0.0
H688 H 0.95445 0.44009 0.99584 0.0
H689 H 0.9123 0.48721 1.00408 0.0
O690 O 0.96014 0.48534 0.06849 0.0
O691 O 0.92437 0.46255 0.0755 0.0
O692 O 0.91336 0.46804 0.0446 0.0
C693 C 0.90951 0.46671 0.06393 0.0
H694 H 0.96071 0.46615 0.14279 0.0
H695 H 0.93779 0.44621 0.96021 0.0
Co696 Co 0.05676 0.94995 0.45891 0.0
C697 C 0.08838 0.95061 0.42726 0.0
Co698 Co 0.04788 0.93426 0.4299 0.0
C699 C 0.06654 0.95802 0.50176 0.0
C700 C 0.07261 0.984 0.48314 0.0
N701 N 0.06538 0.96438 0.48233 0.0
N702 N 0.07409 0.97297 0.51464 0.0
C703 C 0.07787 0.98933 0.50294 0.0
H704 H 0.06199 0.94272 0.50636 0.0
H705 H 0.07434 0.99374 0.47008 0.0
C706 C 0.0156 0.93376 0.46066 0.0
N707 N 0.03896 0.91974 0.40673 0.0
C708 C 0.04452 0.922 0.38671 0.0
C709 C 0.02526 0.90334 0.40701 0.0
N710 N 0.03459 0.90775 0.37457 0.0
C711 C 0.02248 0.89604 0.38734 0.0
C712 C 0.06705 0.90952 0.45764 0.0
O713 O 0.02937 0.94291 0.47202 0.0
O714 O 0.02089 0.92913 0.44228 0.0
O715 O 0.05791 0.9097 0.44051 0.0
O716 O 0.06819 0.9258 0.46864 0.0
O717 O 0.07469 0.93962 0.41761 0.0
H718 H 0.01815 0.89672 0.42072 0.0
H719 H 0.05579 0.93366 0.38119 0.0
O720 O 0.08385 0.95698 0.44547 0.0
O721 O 0.04565 0.97396 0.44877 0.0
O722 O 0.03842 0.95899 0.41917 0.0
C723 C 0.03907 0.97501 0.43062 0.0
H724 H 0.08463 1.00393 0.50818 0.0
H725 H 0.01305 0.88253 0.38289 0.0
Co726 Co 0.96498 0.57274 0.4462 0.0
C727 C 0.00732 0.56321 0.45345 0.0
Co728 Co 0.97289 0.54048 0.43948 0.0
C729 C 0.94347 0.61029 0.45701 0.0
C730 C 0.97563 0.61552 0.44634 0.0
N731 N 0.96088 0.60053 0.45026 0.0
N732 N 0.9468 0.63082 0.45741 0.0
C733 C 0.96714 0.63399 0.45077 0.0
H734 H 0.92858 0.60243 0.4612 0.0
H735 H 0.99159 0.6132 0.4405 0.0
C736 C 0.93082 0.55029 0.43185 0.0
N737 N 0.976 0.51208 0.43561 0.0
C738 C 0.98848 0.50004 0.42349 0.0
C739 C 0.96282 0.49873 0.4457 0.0
N740 N 0.98368 0.47989 0.42617 0.0
C741 C 0.96753 0.47926 0.44013 0.0
C742 C 0.95754 0.55029 0.48019 0.0
O743 O 0.93663 0.56818 0.43787 0.0
O744 O 0.94405 0.53635 0.43177 0.0
O745 O 0.96455 0.53635 0.46817 0.0
O746 O 0.95637 0.56806 0.47349 0.0
O747 O 1.00186 0.54523 0.44709 0.0
H748 H 0.95001 0.50283 0.45618 0.0
H749 H 1.00071 0.50589 0.41293 0.0
O750 O 0.99359 0.57675 0.45437 0.0
O751 O 0.97344 0.57736 0.41877 0.0
O752 O 0.98096 0.54572 0.41112 0.0
C753 C 0.97957 0.56407 0.40565 0.0
H754 H 0.97555 0.64861 0.44929 0.0
H755 H 0.95918 0.46559 0.44551 0.0
Co756 Co 0.44211 0.94751 0.56716 0.0
C757 C 0.45254 0.98717 0.55407 0.0
Co758 Co 0.43351 0.95375 0.5353 0.0
C759 C 0.45605 0.92764 0.60277 0.0
C760 C 0.44749 0.95815 0.60983 0.0
N761 N 0.44882 0.94427 0.59426 0.0
N762 N 0.45934 0.93058 0.62304 0.0
C763 C 0.454 0.9498 0.62753 0.0
H764 H 0.45904 0.91369 0.59418 0.0
H765 H 0.44199 0.97332 0.60843 0.0
C766 C 0.42257 0.91417 0.54854 0.0
N767 N 0.42734 0.95615 0.50732 0.0
C768 C 0.41753 0.96978 0.49606 0.0
C769 C 0.43381 0.94206 0.49332 0.0
N770 N 0.4181 0.96467 0.47567 0.0
C771 C 0.42829 0.94722 0.47411 0.0
C772 C 0.47496 0.9393 0.54009 0.0
O773 O 0.43007 0.92047 0.56558 0.0
O774 O 0.42317 0.92613 0.5336 0.0
O775 O 0.46237 0.94585 0.52712 0.0
O776 O 0.4687 0.93824 0.5587 0.0
O777 O 0.44371 0.98137 0.53744 0.0
H778 H 0.44218 0.92874 0.49684 0.0
H779 H 0.41058 0.98332 0.50256 0.0
O780 O 0.45385 0.97459 0.56835 0.0
O781 O 0.41569 0.95689 0.5759 0.0
O782 O 0.40511 0.96171 0.54464 0.0
C783 C 0.40151 0.96222 0.56411 0.0
H784 H 0.45433 0.95716 0.6426 0.0
H785 H 0.43141 0.93866 0.45998 0.0
Co786 Co 0.54064 0.54194 0.57973 0.0
C787 C 0.54013 0.57656 0.60683 0.0
Co788 Co 0.5551 0.57052 0.5674 0.0
C789 C 0.5355 0.49958 0.59267 0.0
C790 C 0.50968 0.51781 0.60236 0.0
N791 N 0.52826 0.51854 0.59157 0.0
N792 N 0.5222 0.48718 0.60392 0.0
C793 C 0.50594 0.49869 0.60994 0.0
H794 H 0.55052 0.49516 0.58587 0.0
H795 H 0.4996 0.53052 0.60484 0.0
C796 C 0.55641 0.53699 0.53976 0.0
N797 N 0.56709 0.59351 0.55505 0.0
C798 C 0.58405 0.60581 0.56012 0.0
C799 C 0.56141 0.59983 0.53659 0.0
N800 N 0.58923 0.61927 0.54533 0.0
C801 C 0.57494 0.6156 0.53061 0.0
C802 C 0.5837 0.54809 0.58787 0.0
O803 O 0.54726 0.52681 0.55417 0.0
O804 O 0.5608 0.55577 0.54289 0.0
O805 O 0.5821 0.5641 0.57766 0.0
O806 O 0.56747 0.53601 0.59013 0.0
O807 O 0.54947 0.58539 0.59178 0.0
H808 H 0.54874 0.59286 0.52759 0.0
H809 H 0.59302 0.60428 0.57383 0.0
O810 O 0.53469 0.55766 0.60495 0.0
O811 O 0.51344 0.54841 0.5695 0.0
O812 O 0.52793 0.57678 0.55781 0.0
C813 C 0.51152 0.56509 0.56054 0.0
H814 H 0.49222 0.49364 0.61915 0.0
H815 H 0.57456 0.62354 0.51634 0.0
Co816 Co 0.5745 0.46449 0.9818 0.0
C817 C 0.60463 0.4654 0.94929 0.0
Co818 Co 0.56411 0.44856 0.95336 0.0
C819 C 0.58445 0.47242 0.02455 0.0
C820 C 0.59284 0.49769 1.00557 0.0
N821 N 0.58382 0.4787 1.00505 0.0
N822 N 0.59358 0.48674 0.03724 0.0
C823 C 0.59882 0.50266 0.02525 0.0
H824 H 0.57848 0.45754 0.02923 0.0
H825 H 0.5954 0.50713 0.99234 0.0
C826 C 0.53347 0.44733 0.98507 0.0
N827 N 0.55499 0.43409 0.93034 0.0
C828 C 0.55944 0.43736 0.91027 0.0
C829 C 0.54421 0.41587 0.93068 0.0
N830 N 0.55204 0.42174 0.89826 0.0
C831 C 0.54251 0.40819 0.91098 0.0
C832 C 0.5849 0.424 0.97992 0.0
O833 O 0.5474 0.45742 0.9955 0.0
O834 O 0.53786 0.44231 0.96657 0.0
O835 O 0.57517 0.42431 0.96317 0.0
O836 O 0.58637 0.44018 0.99106 0.0
O837 O 0.59032 0.45472 0.94018 0.0
H838 H 0.5389 0.40816 0.94447 0.0
H839 H 0.56898 0.45027 0.90469 0.0
O840 O 0.60114 0.47158 0.96774 0.0
O841 O 0.56308 0.48857 0.97217 0.0
O842 O 0.55345 0.47315 0.94341 0.0
C843 C 0.55502 0.48935 0.95458 0.0
H844 H 0.6071 0.51668 0.03011 0.0
H845 H 0.53558 0.39345 0.90635 0.0
Co846 Co 0.47562 0.08701 0.9532 0.0
C847 C 0.51877 0.07793 0.95772 0.0
Co848 Co 0.48405 0.05517 0.94495 0.0
C849 C 0.45343 0.12352 0.96571 0.0
C850 C 0.48558 0.13006 0.95563 0.0
N851 N 0.47117 0.11452 0.95863 0.0
N852 N 0.45631 0.144 0.96734 0.0
C853 C 0.47657 0.1481 0.96104 0.0
H854 H 0.43869 0.11522 0.96962 0.0
H855 H 0.50158 0.12843 0.94956 0.0
C856 C 0.44126 0.06442 0.93987 0.0
N857 N 0.48714 0.02686 0.93975 0.0
C858 C 0.49818 0.0152 0.92592 0.0
C859 C 0.47413 0.01326 0.94973 0.0
N860 N 0.49226 0.9951 0.92712 0.0
C861 C 0.47723 0.99404 0.94214 0.0
C862 C 0.47056 0.06321 0.98666 0.0
O863 O 0.44679 0.08223 0.94632 0.0
O864 O 0.45496 0.05094 0.93857 0.0
O865 O 0.47723 0.04984 0.97378 0.0
O866 O 0.46874 0.08119 0.98075 0.0
O867 O 0.51332 0.05999 0.95125 0.0
H868 H 0.46213 0.01706 0.96121 0.0
H869 H 0.50941 0.02135 0.91456 0.0
O870 O 0.50477 0.09119 0.95979 0.0
O871 O 0.48229 0.0928 0.92562 0.0
O872 O 0.49058 0.0617 0.91641 0.0
C873 C 0.48817 0.08016 0.91173 0.0
H874 H 0.48418 0.16313 0.95986 0.0
H875 H 0.46855 0.98027 0.94684 0.0
H876 H 0.05192 0.14691 0.341 0.0
H877 H 0.05283 0.11259 0.35402 0.0
H878 H 1.00014 0.12458 0.39557 0.0
H879 H 0.99921 0.15905 0.38277 0.0
H880 H 0.05907 0.09966 0.39301 0.0
H881 H 0.97989 0.07157 0.36652 0.0
H882 H 0.99294 0.09481 0.35761 0.0
H883 H 0.97945 0.09439 0.38231 0.0
C884 C 0.04064 0.14239 0.35308 0.0
C885 C 0.02546 0.15586 0.36078 0.0
C886 C 0.04109 0.12266 0.36041 0.0
C887 C 0.02632 0.11581 0.37553 0.0
C888 C 0.01138 0.12929 0.38353 0.0
H889 H 0.03836 0.01144 0.45181 0.0
H890 H 0.03448 0.04511 0.43821 0.0
C891 C 0.0109 0.14905 0.37621 0.0
C892 C 0.02692 0.09474 0.38318 0.0
H893 H 0.99751 0.04998 0.38831 0.0
C894 C 0.04561 0.08881 0.39194 0.0
C895 C 0.00948 0.08042 0.38152 0.0
C896 C 0.98936 0.08549 0.37131 0.0
C897 C 0.04721 0.06916 0.39943 0.0
C898 C 0.02953 0.05507 0.39843 0.0
C899 C 0.01098 0.06084 0.38928 0.0
C900 C 0.03012 0.03434 0.40686 0.0
C901 C 0.06797 0.06356 0.4081 0.0
C902 C 0.02807 0.01691 0.39395 0.0
C903 C 0.03016 0.99749 0.40172 0.0
C904 C 0.03423 0.99514 0.42261 0.0
C905 C 0.03536 0.01261 0.43563 0.0
C906 C 0.03327 0.03194 0.42785 0.0
H907 H 0.08138 0.07396 0.40296 0.0
H908 H 0.06678 0.06465 0.42512 0.0
H909 H 0.07167 0.04773 0.40351 0.0
H910 H 0.0255 0.01837 0.37771 0.0
H911 H 0.02922 0.9844 0.39126 0.0
H912 H 0.02191 0.31314 0.32018 0.0
H913 H 0.01982 0.34886 0.33208 0.0
H914 H 1.00457 0.32915 0.3935 0.0
H915 H 1.00674 0.2935 0.38157 0.0
H916 H 0.98549 0.36906 0.35142 0.0
H917 H 0.05465 0.37068 0.4019 0.0
H918 H 0.04981 0.35085 0.38262 0.0
H919 H 0.0354 0.35027 0.40685 0.0
C920 C 0.01811 0.31653 0.33621 0.0
C921 C 0.01443 0.30065 0.34997 0.0
C922 C 0.01691 0.33691 0.343 0.0
C923 C 0.01231 0.34182 0.36377 0.0
C924 C 0.0085 0.32586 0.37749 0.0
H925 H 0.98953 0.4442 0.44371 0.0
H926 H 0.99819 0.41213 0.42664 0.0
C927 C 0.00959 0.30549 0.37067 0.0
C928 C 0.01119 0.36353 0.37109 0.0
H929 H 0.03217 0.39861 0.40564 0.0
C930 C 0.99584 0.37562 0.36311 0.0
C931 C 0.02475 0.37219 0.38629 0.0
C932 C 0.04223 0.36042 0.39481 0.0
C933 C 0.99301 0.39568 0.37059 0.0
C934 C 1.00623 0.40418 0.3862 0.0
C935 C 0.02201 0.39225 0.39369 0.0
C936 C 1.00265 0.42453 0.39638 0.0
C937 C 0.97518 0.40721 0.3624 0.0
C938 C 1.00295 0.44263 0.38532 0.0
C939 C 0.99789 0.46121 0.39519 0.0
C940 C 0.99245 0.46201 0.41629 0.0
C941 C 0.99333 0.44409 0.4274 0.0
C942 C 0.99836 0.42569 0.41763 0.0
H943 H 0.96367 0.39705 0.3539 0.0
H944 H 0.96648 0.41519 0.37506 0.0
H945 H 0.98187 0.41878 0.35167 0.0
H946 H 1.00672 0.44235 0.369 0.0
H947 H 0.99732 0.4747 0.38619 0.0
H948 H 1.00259 0.8115 0.1122 0.0
H949 H 1.00636 0.84593 0.09917 0.0
H950 H 0.06784 0.8543 0.12606 0.0
H951 H 0.06403 0.82005 0.13965 0.0
H952 H 0.01333 0.88227 0.12566 0.0
H953 H 0.07694 0.87355 0.06541 0.0
H954 H 0.06082 0.85217 0.07483 0.0
H955 H 0.08155 0.8636 0.0902 0.0
C956 C 0.01695 0.82061 0.11537 0.0
C957 C 0.03296 0.81294 0.1271 0.0
C958 C 0.01912 0.84026 0.10779 0.0
C959 C 0.03743 0.85262 0.11152 0.0
C960 C 0.05371 0.8449 0.12273 0.0
H961 H 0.07174 0.97895 0.08124 0.0
H962 H 0.0724 0.94355 0.09181 0.0
C963 C 0.05152 0.82526 0.13043 0.0
C964 C 0.03879 0.874 0.10482 0.0
H965 H 0.06506 0.90665 0.0719 0.0
C966 C 0.02461 0.88761 0.11388 0.0
C967 C 0.0537 0.88097 0.08966 0.0
C968 C 0.06908 0.86685 0.07929 0.0
C969 C 0.02493 0.90802 0.10822 0.0
C970 C 0.03944 0.91492 0.0926 0.0
C971 C 0.05387 0.90136 0.08377 0.0
C972 C 0.03951 0.93603 0.08506 0.0
C973 C 0.00998 0.92208 0.11936 0.0
C974 C 0.02104 0.94342 0.07715 0.0
C975 C 0.0206 0.9636 0.07123 0.0
C976 C 0.03874 0.97681 0.07276 0.0
C977 C 0.05754 0.96915 0.0798 0.0
C978 C 0.05791 0.94894 0.08591 0.0
H979 H 1.00489 0.91632 0.13467 0.0
H980 H 0.01744 0.9376 0.12147 0.0
H981 H 0.99553 0.92313 0.11024 0.0
H982 H 1.00683 0.9336 0.07573 0.0
H983 H 1.00602 0.9689 0.06547 0.0
H984 H 0.01892 0.68461 0.0991 0.0
H985 H 0.01028 0.65169 0.08205 0.0
H986 H 0.97478 0.6324 0.13637 0.0
H987 H 0.98518 0.6645 0.15395 0.0
H988 H 0.99683 0.60377 0.12416 0.0
H989 H 0.95878 0.63002 0.05519 0.0
H990 H 0.98548 0.64042 0.05675 0.0
H991 H 0.96592 0.64712 0.07625 0.0
C992 C 0.00946 0.67318 0.10737 0.0
C993 C 1.003 0.67684 0.12789 0.0
C994 C 1.00417 0.65453 0.09751 0.0
C995 C 0.99152 0.63959 0.10773 0.0
C996 C 0.98458 0.64359 0.1281 0.0
H997 H 0.93322 0.52998 0.05069 0.0
H998 H 0.94174 0.56504 0.06279 0.0
C999 C 0.99043 0.66194 0.13813 0.0
C1000 C 0.98656 0.6193 0.09787 0.0
H1001 H 0.96811 0.59519 0.0543 0.0
C1002 C 0.99035 0.60197 0.10894 0.0
C1003 C 0.97782 0.6168 0.07812 0.0
C1004 C 0.97155 0.6346 0.06601 0.0
C1005 C 0.98569 0.58233 0.10096 0.0
C1006 C 0.97821 0.5798 0.08072 0.0
C1007 C 0.97424 0.59709 0.06964 0.0
C1008 C 0.97385 0.55931 0.07113 0.0
C1009 C 0.98819 0.5646 0.1147 0.0
C1010 C 0.9893 0.54467 0.07093 0.0
C1011 C 0.98421 0.52462 0.06465 0.0
C1012 C 0.96393 0.51912 0.05753 0.0
C1013 C 0.949 0.53403 0.05605 0.0
C1014 C 0.95387 0.55399 0.06298 0.0
H1015 H 0.987 0.56933 0.1312 0.0
H1016 H 0.97595 0.55223 0.11181 0.0
H1017 H 1.00412 0.5585 0.11184 0.0
H1018 H 1.00508 0.54855 0.07634 0.0
H1019 H 0.99598 0.51331 0.06574 0.0
H1020 H 0.35982 0.05625 0.14937 0.0
H1021 H 0.38168 0.05898 0.11794 0.0
H1022 H 0.42161 0.01307 0.13869 0.0
H1023 H 0.39935 0.00974 0.17017 0.0
H1024 H 0.44284 0.05174 0.11997 0.0
H1025 H 0.38188 0.01105 0.07214 0.0
H1026 H 0.37241 0.03074 0.0893 0.0
H1027 H 0.38265 0.00839 0.09962 0.0
C1028 C 0.37316 0.0466 0.1473 0.0
C1029 C 0.37756 0.03252 0.16226 0.0
C1030 C 0.38571 0.04827 0.12932 0.0
C1031 C 0.40308 0.03603 0.12584 0.0
C1032 C 0.40819 0.02259 0.14105 0.0
H1033 H 0.46437 0.02524 1.00292 0.0
H1034 H 0.45035 0.01692 0.03739 0.0
C1035 C 0.39552 0.0208 0.15908 0.0
C1036 C 0.41539 0.03712 0.10603 0.0
H1037 H 0.41049 0.02834 0.05438 0.0
C1038 C 0.4359 0.04642 0.10564 0.0
C1039 C 0.40639 0.03 0.08736 0.0
C1040 C 0.38468 0.01932 0.087 0.0
C1041 C 0.44727 0.04955 0.08697 0.0
C1042 C 0.43784 0.04331 0.06821 0.0
C1043 C 0.4177 0.03321 0.06871 0.0
C1044 C 0.44794 0.04822 0.04787 0.0
C1045 C 0.46923 0.05968 0.08744 0.0
C1046 C 0.45124 0.06856 0.04226 0.0
C1047 C 0.45909 0.07335 0.02259 0.0
C1048 C 0.46388 0.0579 0.00801 0.0
C1049 C 0.46098 0.03751 0.01378 0.0
C1050 C 0.45293 0.03273 0.03347 0.0
H1051 H 0.47644 0.05837 0.10265 0.0
H1052 H 0.47985 0.05296 0.07542 0.0
H1053 H 0.46823 0.07609 0.08442 0.0
H1054 H 0.44715 0.08078 0.05293 0.0
H1055 H 0.46105 0.08921 0.01871 0.0
H1056 H 0.68477 0.49995 0.20785 0.0
H1057 H 0.67035 0.49741 0.1733 0.0
H1058 H 0.61262 0.46831 0.19786 0.0
H1059 H 0.62684 0.47153 0.23257 0.0
H1060 H 0.65737 0.46468 0.14979 0.0
H1061 H 0.59009 0.51436 0.16658 0.0
H1062 H 0.61148 0.51238 0.18403 0.0
H1063 H 0.59047 0.49292 0.18289 0.0
C1064 C 0.66902 0.493 0.20577 0.0
C1065 C 0.6569 0.4858 0.22267 0.0
C1066 C 0.66081 0.49152 0.1861 0.0
C1067 C 0.6403 0.48289 0.18302 0.0
C1068 C 0.62831 0.47536 0.19992 0.0
H1069 H 0.59698 0.45212 0.05851 0.0
H1070 H 0.60663 0.44976 0.09434 0.0
C1071 C 0.63648 0.47698 0.21965 0.0
C1072 C 0.63158 0.48195 0.16209 0.0
H1073 H 0.59161 0.49838 0.13361 0.0
C1074 C 0.64295 0.47198 0.14625 0.0
C1075 C 0.6129 0.49171 0.15747 0.0
C1076 C 0.6006 0.50361 0.17357 0.0
C1077 C 0.63629 0.47166 0.12587 0.0
C1078 C 0.61743 0.48114 0.1213 0.0
C1079 C 0.60594 0.49094 0.13718 0.0
C1080 C 0.61011 0.48229 0.09994 0.0
C1081 C 0.64998 0.46185 0.10935 0.0
C1082 C 0.60793 0.50134 0.09142 0.0
C1083 C 0.60202 0.50275 0.07107 0.0
C1084 C 0.5982 0.48513 0.05869 0.0
C1085 C 0.59973 0.46602 0.0675 0.0
C1086 C 0.60552 0.46463 0.08795 0.0
H1087 H 0.66633 0.45988 0.11458 0.0
H1088 H 0.64288 0.44658 0.10522 0.0
H1089 H 0.65101 0.47102 0.09531 0.0
H1090 H 0.6112 0.51518 0.10042 0.0
H1091 H 0.60056 0.51771 0.06504 0.0
H1092 H 0.3797 0.99944 0.29162 0.0
H1093 H 0.39054 0.99471 0.32698 0.0
H1094 H 0.32911 0.0125 0.34981 0.0
H1095 H 0.31819 0.01688 0.31437 0.0
H1096 H 0.39297 0.02297 0.35969 0.0
H1097 H 0.33552 0.9592 0.37899 0.0
H1098 H 0.3409 0.96691 0.35293 0.0
H1099 H 0.32399 0.98145 0.36978 0.0
C1100 C 0.36845 1.00201 0.30421 0.0
C1101 C 0.34796 0.00806 0.30031 0.0
C1102 C 0.37467 0.99945 0.32441 0.0
C1103 C 0.36055 1.00289 0.34115 0.0
C1104 C 0.34015 0.00927 0.33722 0.0
H1105 H 0.38036 0.98273 0.4731 0.0
H1106 H 0.36517 0.99505 0.44157 0.0
C1107 C 0.33395 0.01186 0.317 0.0
C1108 C 0.36744 1.00021 0.36262 0.0
H1109 H 0.35759 0.972 0.40545 0.0
C1110 C 0.38516 0.01187 0.3697 0.0
C1111 C 0.35718 0.98589 0.37587 0.0
C1112 C 0.33844 0.9725 0.36903 0.0
C1113 C 0.39303 0.00942 0.38941 0.0
C1114 C 0.38322 0.99462 0.4024 0.0
C1115 C 0.3651 0.9834 0.39559 0.0
C1116 C 0.39276 0.98914 0.42211 0.0
C1117 C 0.41183 0.02277 0.39613 0.0
C1118 C 0.41332 0.98192 0.4218 0.0
C1119 C 0.4219 0.97498 0.43965 0.0
C1120 C 0.41018 0.97496 0.45839 0.0
C1121 C 0.38985 0.98281 0.45897 0.0
C1122 C 0.38113 0.98968 0.44093 0.0
H1123 H 0.41283 0.03736 0.38798 0.0
H1124 H 0.41105 0.02613 0.41293 0.0
H1125 H 0.42664 0.01484 0.39238 0.0
H1126 H 0.42252 0.98093 0.40753 0.0
H1127 H 0.4376 0.96905 0.43871 0.0
H1128 H 0.66072 0.47424 0.37603 0.0
H1129 H 0.64059 0.47564 0.40865 0.0
H1130 H 0.61158 0.52973 0.39009 0.0
H1131 H 0.63073 0.52787 0.35705 0.0
H1132 H 0.64099 0.50342 0.43922 0.0
H1133 H 0.55987 0.49717 0.40925 0.0
H1134 H 0.58302 0.49229 0.39325 0.0
H1135 H 0.5753 0.51797 0.39834 0.0
C1136 C 0.64975 0.48623 0.37863 0.0
C1137 C 0.64735 0.50084 0.36361 0.0
C1138 C 0.63834 0.4871 0.39746 0.0
C1139 C 0.62416 0.50255 0.40184 0.0
C1140 C 0.62194 0.51731 0.38701 0.0
H1141 H 0.55805 0.55594 0.50357 0.0
H1142 H 0.57327 0.54436 0.47071 0.0
C1143 C 0.63323 0.5164 0.36814 0.0
C1144 C 0.61235 0.50373 0.42214 0.0
H1145 H 0.56293 0.50928 0.44424 0.0
C1146 C 0.62388 0.50436 0.4403 0.0
C1147 C 0.58995 0.50482 0.42372 0.0
C1148 C 0.5763 0.50281 0.4051 0.0
C1149 C 0.61384 0.50706 0.45977 0.0
C1150 C 0.59159 0.50902 0.46124 0.0
C1151 C 0.57997 0.50775 0.44317 0.0
C1152 C 0.58052 0.5147 0.48105 0.0
C1153 C 0.62721 0.50878 0.47859 0.0
C1154 C 0.57882 0.50164 0.49782 0.0
C1155 C 0.56977 0.5082 0.5168 0.0
C1156 C 0.56253 0.528 0.51931 0.0
C1157 C 0.56354 0.54061 0.50221 0.0
C1158 C 0.57226 0.53402 0.48336 0.0
H1159 H 0.64448 0.5096 0.47462 0.0
H1160 H 0.62333 0.52251 0.48801 0.0
H1161 H 0.62368 0.49531 0.48815 0.0
H1162 H 0.58488 0.48656 0.49635 0.0
H1163 H 0.56937 0.49819 0.52969 0.0
H1164 H 0.17639 0.3974 0.98492 0.0
H1165 H 0.13964 0.40752 0.98519 0.0
H1166 H 0.14461 0.42843 0.0482 0.0
H1167 H 0.18162 0.41903 0.04798 0.0
H1168 H 0.10851 0.39929 0.03814 0.0
H1169 H 0.11504 0.46617 0.98775 0.0
H1170 H 0.12792 0.44356 0.97902 0.0
H1171 H 0.13749 0.45765 1.00111 0.0
C1172 C 0.16994 0.40461 0.99874 0.0
C1173 C 0.18221 0.40735 0.01644 0.0
C1174 C 0.14881 0.41031 0.99885 0.0
C1175 C 0.13938 0.41885 0.01666 0.0
C1176 C 0.15156 0.42188 0.03426 0.0
H1177 H 0.01848 0.45242 0.06553 0.0
H1178 H 0.05493 0.44395 0.05787 0.0
C1179 C 0.17274 0.41634 0.03413 0.0
C1180 C 0.11647 0.42348 0.01743 0.0
H1181 H 0.08079 0.45619 1.00049 0.0
C1182 C 0.10245 0.4117 0.02986 0.0
C1183 C 0.10849 0.43943 0.00634 0.0
C1184 C 0.12294 0.45257 0.99285 0.0
C1185 C 0.08076 0.4156 0.03177 0.0
C1186 C 0.07287 0.43215 0.02144 0.0
C1187 C 0.08678 0.44356 0.00846 0.0
C1188 C 0.05072 0.43865 0.02532 0.0
C1189 C 0.06647 0.40182 0.04483 0.0
C1190 C 0.03622 0.43952 0.00939 0.0
C1191 C 0.01509 0.44467 0.01371 0.0
C1192 C 0.00817 0.44902 0.03405 0.0
C1193 C 0.02304 0.44884 0.04972 0.0
C1194 C 0.04398 0.44389 0.04539 0.0
H1195 H 0.07297 0.38653 0.04585 0.0
H1196 H 0.06526 0.40849 0.06064 0.0
H1197 H 0.05026 0.4 0.03864 0.0
H1198 H 0.0411 0.43575 0.99371 0.0
H1199 H 1.00409 0.44474 1.00129 0.0
H1200 H 0.17787 0.66826 0.4768 0.0
H1201 H 0.14473 0.64851 0.46946 0.0
H1202 H 0.16911 0.59636 0.49747 0.0
H1203 H 0.20231 0.61613 0.50473 0.0
H1204 H 0.13843 0.61026 0.44663 0.0
H1205 H 0.11146 0.60582 0.52856 0.0
H1206 H 0.13202 0.62393 0.51996 0.0
H1207 H 0.13776 0.59772 0.52234 0.0
C1208 C 0.17609 0.65256 0.4813 0.0
C1209 C 0.1924 0.64372 0.49152 0.0
C1210 C 0.15725 0.6413 0.47709 0.0
C1211 C 0.15436 0.62104 0.48314 0.0
C1212 C 0.17088 0.61204 0.49295 0.0
H1213 H 0.04352 0.54197 0.44609 0.0
H1214 H 0.08025 0.55359 0.45349 0.0
C1215 C 0.18979 0.62329 0.49706 0.0
C1216 C 0.13387 0.60957 0.47945 0.0
H1217 H 0.08918 0.58977 0.50397 0.0
C1218 C 0.12773 0.60557 0.45914 0.0
C1219 C 0.1199 0.60362 0.49583 0.0
C1220 C 0.12544 0.60806 0.51793 0.0
C1221 C 0.10785 0.59605 0.45477 0.0
C1222 C 0.0938 0.59029 0.47115 0.0
C1223 C 0.10008 0.59401 0.49146 0.0
C1224 C 0.07172 0.58236 0.46753 0.0
C1225 C 0.10164 0.59294 0.43269 0.0
C1226 C 0.05478 0.59444 0.47339 0.0
C1227 C 0.03393 0.58792 0.46917 0.0
C1228 C 0.02947 0.56902 0.45914 0.0
C1229 C 0.04641 0.55659 0.45384 0.0
C1230 C 0.0674 0.56325 0.45795 0.0
H1231 H 0.11307 0.60081 0.42193 0.0
H1232 H 0.10104 0.57645 0.4286 0.0
H1233 H 0.08559 0.59859 0.43053 0.0
H1234 H 0.05774 0.60921 0.48083 0.0
H1235 H 0.02131 0.59787 0.47358 0.0
H1236 H 0.81327 0.90717 0.48273 0.0
H1237 H 0.85111 0.91711 0.47812 0.0
H1238 H 0.86732 0.86485 0.51156 0.0
H1239 H 0.82959 0.8544 0.51522 0.0
H1240 H 0.88145 0.92717 0.50555 0.0
H1241 H 0.90425 0.85833 0.46072 0.0
H1242 H 0.87692 0.86409 0.46582 0.0
H1243 H 0.89184 0.85273 0.48516 0.0
C1244 C 0.82497 0.8975 0.4885 0.0
C1245 C 0.81859 0.8796 0.49862 0.0
C1246 C 0.84657 0.90335 0.48617 0.0
C1247 C 0.86219 0.89152 0.4941 0.0
C1248 C 0.85571 0.87394 0.50477 0.0
H1249 H 0.99783 0.93504 0.50023 0.0
H1250 H 0.96099 0.92496 0.51067 0.0
C1251 C 0.83415 0.86802 0.50693 0.0
C1252 C 0.88519 0.8976 0.49126 0.0
H1253 H 0.93222 0.88111 0.47127 0.0
C1254 C 0.89257 0.9171 0.49806 0.0
C1255 C 0.89974 0.88452 0.4814 0.0
C1256 C 0.89279 0.86384 0.47268 0.0
C1257 C 0.91395 0.92392 0.49507 0.0
C1258 C 0.92851 0.91075 0.48538 0.0
C1259 C 0.92116 0.89116 0.47889 0.0
C1260 C 0.95083 0.91749 0.47976 0.0
C1261 C 0.92058 0.9454 0.50162 0.0
C1262 C 0.95751 0.91643 0.45907 0.0
C1263 C 0.9784 0.92187 0.45318 0.0
C1264 C 0.99336 0.92864 0.4678 0.0
C1265 C 0.98671 0.92998 0.48859 0.0
C1266 C 0.96562 0.92432 0.49454 0.0
H1267 H 0.90669 0.95486 0.50478 0.0
H1268 H 0.9297 0.94514 0.51589 0.0
H1269 H 0.93096 0.95275 0.48963 0.0
H1270 H 0.94649 0.91131 0.44734 0.0
H1271 H 0.98278 0.92073 0.437 0.0
H1272 H 0.35153 0.66032 0.50255 0.0
H1273 H 0.38432 0.64382 0.50951 0.0
H1274 H 0.3495 0.6025 0.54966 0.0
H1275 H 0.31648 0.61875 0.54254 0.0
H1276 H 0.40257 0.63987 0.54883 0.0
H1277 H 0.38431 0.56453 0.51096 0.0
H1278 H 0.37006 0.5868 0.50564 0.0
H1279 H 0.36449 0.57352 0.52898 0.0
C1280 C 0.35072 0.64753 0.51264 0.0
C1281 C 0.33123 0.64083 0.52187 0.0
C1282 C 0.36956 0.63818 0.5167 0.0
C1283 C 0.36941 0.62174 0.52992 0.0
C1284 C 0.35002 0.61495 0.53917 0.0
H1285 H 0.47187 0.5484 0.57095 0.0
H1286 H 0.43729 0.56173 0.56383 0.0
C1287 C 0.33115 0.6244 0.53522 0.0
C1288 C 0.3897 0.61228 0.53454 0.0
H1289 H 0.41634 0.56836 0.52887 0.0
C1290 C 0.40559 0.62424 0.54444 0.0
C1291 C 0.3936 0.59183 0.52899 0.0
C1292 C 0.37733 0.57838 0.51792 0.0
C1293 C 0.42515 0.61633 0.54905 0.0
C1294 C 0.42931 0.596 0.54306 0.0
C1295 C 0.41328 0.58394 0.53339 0.0
C1296 C 0.45029 0.58717 0.54646 0.0
C1297 C 0.44098 0.62979 0.56072 0.0
C1298 C 0.46917 0.59657 0.53855 0.0
C1299 C 0.48893 0.58906 0.54269 0.0
C1300 C 0.49036 0.57173 0.55459 0.0
C1301 C 0.4714 0.56176 0.56174 0.0
C1302 C 0.45159 0.5694 0.5577 0.0
H1303 H 0.43311 0.64213 0.56957 0.0
H1304 H 0.44985 0.62091 0.57151 0.0
H1305 H 0.45254 0.63703 0.54967 0.0
H1306 H 0.46866 0.6099 0.52931 0.0
H1307 H 0.50314 0.59703 0.53675 0.0
H1308 H 0.50987 0.67209 0.90576 0.0
H1309 H 0.51247 0.63839 0.92006 0.0
H1310 H 0.56076 0.62433 0.87433 0.0
H1311 H 0.55808 0.65777 0.85974 0.0
H1312 H 0.50605 0.59955 0.90093 0.0
H1313 H 0.58828 0.61133 0.9283 0.0
H1314 H 0.5727 0.6321 0.92115 0.0
H1315 H 0.58549 0.61667 0.90169 0.0
C1316 C 0.52101 0.66184 0.89866 0.0
C1317 C 0.53387 0.66784 0.88162 0.0
C1318 C 0.52252 0.64257 0.90692 0.0
C1319 C 0.537 0.62888 0.89845 0.0
C1320 C 0.54978 0.63475 0.88142 0.0
H1321 H 0.54107 0.49795 0.91632 0.0
H1322 H 0.53542 0.53153 0.90281 0.0
C1323 C 0.54827 0.65398 0.87314 0.0
C1324 C 0.53857 0.60838 0.9072 0.0
H1325 H 0.57304 0.57769 0.9292 0.0
C1326 C 0.52067 0.59478 0.90717 0.0
C1327 C 0.55759 0.60219 0.91554 0.0
C1328 C 0.57708 0.61637 0.91689 0.0
C1329 C 0.52139 0.5751 0.91492 0.0
C1330 C 0.54058 0.56874 0.92275 0.0
C1331 C 0.55837 0.58246 0.92305 0.0
C1332 C 0.54254 0.54813 0.93115 0.0
C1333 C 0.50149 0.56142 0.91499 0.0
C1334 C 0.54851 0.54619 0.95154 0.0
C1335 C 0.55179 0.52706 0.95928 0.0
C1336 C 0.54932 0.50932 0.94677 0.0
C1337 C 0.54294 0.51123 0.92644 0.0
C1338 C 0.53964 0.53044 0.9187 0.0
H1339 H 0.48705 0.57013 0.91331 0.0
H1340 H 0.50243 0.55027 0.90192 0.0
H1341 H 0.49978 0.55284 0.9294 0.0
H1342 H 0.55089 0.55957 0.96145 0.0
H1343 H 0.55675 0.52624 0.97498 0.0
H1344 H 0.53272 0.80839 0.89312 0.0
H1345 H 0.53029 0.84451 0.90319 0.0
H1346 H 0.50525 0.85619 0.84411 0.0
H1347 H 0.50792 0.82006 0.83401 0.0
H1348 H 0.53658 0.88604 0.85701 0.0
H1349 H 0.47486 0.87209 0.91818 0.0
H1350 H 0.49834 0.85813 0.92056 0.0
H1351 H 0.48157 0.85292 0.89903 0.0
C1352 C 0.52675 0.81873 0.88232 0.0
C1353 C 0.52054 0.8115 0.86279 0.0
C1354 C 0.52528 0.83934 0.88808 0.0
C1355 C 0.5174 0.85315 0.8745 0.0
C1356 C 0.51139 0.84592 0.85489 0.0
H1357 H 0.46563 0.96908 0.90708 0.0
H1358 H 0.47343 0.93549 0.89263 0.0
C1359 C 0.51282 0.82528 0.84914 0.0
C1360 C 0.51504 0.875 0.88087 0.0
H1361 H 0.4892 0.90577 0.9156 0.0
C1362 C 0.52624 0.89036 0.86984 0.0
C1363 C 0.5014 0.88075 0.89749 0.0
C1364 C 0.48819 0.86516 0.90942 0.0
C1365 C 0.52427 0.91118 0.87506 0.0
C1366 C 0.51083 0.91689 0.89185 0.0
C1367 C 0.49962 0.9015 0.90281 0.0
C1368 C 0.50714 0.93862 0.89784 0.0
C1369 C 0.53616 0.92693 0.86225 0.0
C1370 C 0.52357 0.95207 0.90502 0.0
C1371 C 0.51908 0.97154 0.91315 0.0
C1372 C 0.49809 0.9778 0.91435 0.0
C1373 C 0.48196 0.9647 0.9062 0.0
C1374 C 0.4864 0.94543 0.89807 0.0
H1375 H 0.5421 0.92035 0.84739 0.0
H1376 H 0.52588 0.93961 0.85912 0.0
H1377 H 0.55001 0.93334 0.87081 0.0
H1378 H 0.53967 0.94715 0.90534 0.0
H1379 H 0.53172 0.98113 0.91972 0.0
H1380 H 0.53004 0.29196 0.6235 0.0
H1381 H 0.53389 0.32747 0.61294 0.0
H1382 H 0.51434 0.34752 0.67397 0.0
H1383 H 0.51141 0.3121 0.68468 0.0
H1384 H 0.5058 0.35581 0.61101 0.0
H1385 H 0.56653 0.38362 0.66595 0.0
H1386 H 0.55961 0.35692 0.66193 0.0
H1387 H 0.54346 0.37241 0.67874 0.0
C1388 C 0.52695 0.30403 0.63469 0.0
C1389 C 0.5209 0.29939 0.655 0.0
C1390 C 0.52902 0.3243 0.62865 0.0
C1391 C 0.52492 0.34033 0.64276 0.0
C1392 C 0.5183 0.33558 0.66294 0.0
H1393 H 0.50813 0.46881 0.63869 0.0
H1394 H 0.51026 0.43305 0.64688 0.0
C1395 C 0.51643 0.31534 0.66902 0.0
C1396 C 0.52676 0.3619 0.63617 0.0
H1397 H 0.54849 0.40912 0.64888 0.0
C1398 C 0.51536 0.36739 0.61915 0.0
C1399 C 0.5393 0.37712 0.64669 0.0
C1400 C 0.55309 0.3722 0.6642 0.0
C1401 C 0.51557 0.38765 0.61286 0.0
C1402 C 0.52757 0.4029 0.62377 0.0
C1403 C 0.53926 0.39742 0.64054 0.0
C1404 C 0.52717 0.42478 0.61875 0.0
C1405 C 0.50238 0.39278 0.59499 0.0
C1406 C 0.53632 0.43218 0.60032 0.0
C1407 C 0.53518 0.45276 0.59559 0.0
C1408 C 0.5247 0.46626 0.60913 0.0
C1409 C 0.51598 0.4588 0.62774 0.0
C1410 C 0.5173 0.43836 0.63253 0.0
H1411 H 0.49153 0.37984 0.59013 0.0
H1412 H 0.49281 0.40611 0.59902 0.0
H1413 H 0.51306 0.39687 0.58174 0.0
H1414 H 0.54422 0.42201 0.58955 0.0
H1415 H 0.54199 0.45799 0.58113 0.0
H1416 H 0.51556 0.17348 0.60565 0.0
H1417 H 0.50861 0.14332 0.58345 0.0
H1418 H 0.46446 0.11877 0.62921 0.0
H1419 H 0.47134 0.14868 0.65144 0.0
H1420 H 0.51553 0.10378 0.5916 0.0
H1421 H 0.43046 0.11158 0.57735 0.0
H1422 H 0.44721 0.1323 0.58753 0.0
H1423 H 0.43573 0.11319 0.60425 0.0
C1424 C 0.50432 0.16167 0.61095 0.0
C1425 C 0.49392 0.16354 0.63028 0.0
C1426 C 0.50029 0.14452 0.5982 0.0
C1427 C 0.48571 0.12899 0.6045 0.0
C1428 C 0.4753 0.13083 0.62377 0.0
H1429 H 0.47512 1.00269 0.58631 0.0
H1430 H 0.48492 0.03816 0.59431 0.0
C1431 C 0.47929 0.14794 0.63648 0.0
C1432 C 0.48235 0.11015 0.59173 0.0
H1433 H 0.44341 0.07781 0.57251 0.0
C1434 C 0.49982 0.09827 0.58708 0.0
C1435 C 0.46194 0.10314 0.58545 0.0
C1436 C 0.44281 0.11584 0.58871 0.0
C1437 C 0.49717 0.07894 0.57758 0.0
C1438 C 0.47649 0.0712 0.57294 0.0
C1439 C 0.45924 0.08365 0.57629 0.0
C1440 C 0.47212 0.0496 0.56675 0.0
C1441 C 0.51649 0.06679 0.57305 0.0
C1442 C 0.46142 0.04421 0.54865 0.0
C1443 C 0.45565 0.0238 0.54402 0.0
C1444 C 0.46029 0.00853 0.55758 0.0
C1445 C 0.47135 0.01402 0.57548 0.0
C1446 C 0.47713 0.03432 0.58003 0.0
H1447 H 0.53095 0.0769 0.57079 0.0
H1448 H 0.5191 0.0571 0.58627 0.0
H1449 H 0.51445 0.0568 0.55914 0.0
H1450 H 0.45723 0.05582 0.5383 0.0
H1451 H 0.44705 0.02006 0.53017 0.0
H1452 H 0.84637 0.50179 0.64187 0.0
H1453 H 0.86612 0.50411 0.60913 0.0
H1454 H 0.9134 0.54433 0.63756 0.0
H1455 H 0.89368 0.54202 0.67049 0.0
H1456 H 0.87416 0.53827 0.58762 0.0
H1457 H 0.95008 0.50465 0.60528 0.0
H1458 H 0.92657 0.50175 0.62164 0.0
H1459 H 0.94288 0.52491 0.62279 0.0
C1460 C 0.86103 0.51107 0.64121 0.0
C1461 C 0.86837 0.52183 0.65881 0.0
C1462 C 0.87236 0.5123 0.62248 0.0
C1463 C 0.89137 0.52424 0.62086 0.0
C1464 C 0.89903 0.53466 0.63849 0.0
H1465 H 0.94367 0.57733 0.50957 0.0
H1466 H 0.92858 0.57023 0.54365 0.0
C1467 C 0.88771 0.53337 0.65731 0.0
C1468 C 0.90217 0.52692 0.6004 0.0
H1469 H 0.94924 0.52191 0.57365 0.0
C1470 C 0.89055 0.53458 0.58458 0.0
C1471 C 0.92348 0.5219 0.5963 0.0
C1472 C 0.93645 0.51266 0.61232 0.0
C1473 C 0.89972 0.53775 0.56496 0.0
C1474 C 0.92127 0.53348 0.56107 0.0
C1475 C 0.9328 0.52537 0.57671 0.0
C1476 C 0.93203 0.53775 0.54093 0.0
C1477 C 0.88617 0.54548 0.54848 0.0
C1478 C 0.93975 0.52193 0.52829 0.0
C1479 C 0.94854 0.52595 0.5087 0.0
C1480 C 0.94984 0.5459 0.50146 0.0
C1481 C 0.94278 0.56176 0.51452 0.0
C1482 C 0.93405 0.55773 0.53402 0.0
H1483 H 0.86896 0.54281 0.55218 0.0
H1484 H 0.88943 0.5621 0.54714 0.0
H1485 H 0.88985 0.53805 0.53335 0.0
H1486 H 0.93844 0.5064 0.53336 0.0
H1487 H 0.95386 0.5134 0.49907 0.0
H1488 H 0.12164 0.99982 0.7034 0.0
H1489 H 0.10449 0.99542 0.67021 0.0
H1490 H 0.1481 0.94958 0.65164 0.0
H1491 H 0.16568 0.95411 0.68451 0.0
H1492 H 0.13911 0.99433 0.62738 0.0
H1493 H 0.07569 0.9339 0.64133 0.0
H1494 H 0.08274 0.95243 0.66132 0.0
H1495 H 0.10097 0.93349 0.65358 0.0
C1496 C 0.12751 0.9887 0.69232 0.0
C1497 C 0.1451 0.97738 0.69661 0.0
C1498 C 0.11759 0.98612 0.67346 0.0
C1499 C 0.12502 0.97212 0.65864 0.0
C1500 C 0.14206 0.96031 0.66304 0.0
H1501 H 0.08678 0.94007 0.53413 0.0
H1502 H 0.09829 0.93923 0.5697 0.0
C1503 C 0.152 0.96287 0.68188 0.0
C1504 C 0.11636 0.97124 0.63784 0.0
H1505 H 0.07834 0.94753 0.6082 0.0
C1506 C 0.1258 0.98415 0.62314 0.0
C1507 C 0.09922 0.95774 0.63246 0.0
C1508 C 0.08893 0.94351 0.6479 0.0
C1509 C 0.11847 0.98399 0.60304 0.0
C1510 C 0.10091 0.97085 0.59769 0.0
C1511 C 0.09166 0.9577 0.61239 0.0
C1512 C 0.09204 0.9707 0.57689 0.0
C1513 C 0.12984 0.99765 0.58764 0.0
C1514 C 0.08406 0.98844 0.56941 0.0
C1515 C 0.0776 0.98897 0.54915 0.0
C1516 C 0.07873 0.97168 0.53604 0.0
C1517 C 0.08565 0.95359 0.54389 0.0
C1518 C 0.09229 0.95311 0.56417 0.0
H1519 H 0.14612 1.00242 0.59248 0.0
H1520 H 0.13097 0.98997 0.57226 0.0
H1521 H 0.12086 0.01158 0.58623 0.0
H1522 H 0.08324 1.00203 0.57913 0.0
H1523 H 0.07193 1.00299 0.54365 0.0
H1524 H 0.84207 0.47772 0.80194 0.0
H1525 H 0.8525 0.47328 0.83678 0.0
H1526 H 0.86023 0.53813 0.84603 0.0
H1527 H 0.8497 0.5429 0.81123 0.0
H1528 H 0.89261 0.48638 0.85252 0.0
H1529 H 0.82628 0.52017 0.89755 0.0
H1530 H 0.82439 0.51306 0.87065 0.0
H1531 H 0.83875 0.53614 0.87834 0.0
C1532 C 0.84695 0.4912 0.81069 0.0
C1533 C 0.84769 0.5107 0.80212 0.0
C1534 C 0.8524 0.48855 0.83107 0.0
C1535 C 0.85781 0.50531 0.84396 0.0
C1536 C 0.85657 0.52485 0.83632 0.0
H1537 H 0.91361 0.50856 0.9671 0.0
H1538 H 0.89714 0.5191 0.93546 0.0
C1539 C 0.85115 0.52751 0.81588 0.0
C1540 C 0.86581 0.50215 0.8649 0.0
H1541 H 0.85541 0.51008 0.91637 0.0
C1542 C 0.88444 0.49158 0.86645 0.0
C1543 C 0.85531 0.50911 0.88314 0.0
C1544 C 0.83498 0.52012 0.88247 0.0
C1545 C 0.89279 0.48768 0.8856 0.0
C1546 C 0.88203 0.49413 0.90387 0.0
C1547 C 0.86364 0.50512 0.90239 0.0
C1548 C 0.88919 0.4884 0.92443 0.0
C1549 C 0.91318 0.47669 0.88608 0.0
C1550 C 0.88934 0.4678 0.92919 0.0
C1551 C 0.89869 0.46186 0.94705 0.0
C1552 C 0.90795 0.47636 0.96078 0.0
C1553 C 0.90649 0.4971 0.95684 0.0
C1554 C 0.89718 0.50309 0.93874 0.0
H1555 H 0.92239 0.47782 0.87131 0.0
H1556 H 0.92333 0.48287 0.89866 0.0
H1557 H 0.9094 0.46034 0.88879 0.0
H1558 H 0.88291 0.4562 0.91865 0.0
H1559 H 0.89937 0.44579 0.94982 0.0
H1560 H 0.13521 0.01429 0.82133 0.0
H1561 H 0.11865 0.01981 0.85555 0.0
H1562 H 0.17539 1.00115 0.88338 0.0
H1563 H 0.19218 0.99643 0.84918 0.0
H1564 H 0.10853 0.99563 0.88736 0.0
H1565 H 0.16833 0.05491 0.91261 0.0
H1566 H 0.16712 0.04561 0.88635 0.0
H1567 H 0.17974 0.0313 0.9052 0.0
C1568 C 0.14416 0.01157 0.8348 0.0
C1569 C 0.16512 1.00533 0.83262 0.0
C1570 C 0.13466 0.01458 0.85437 0.0
C1571 C 0.14585 0.01133 0.87223 0.0
C1572 C 0.16655 1.00435 0.86998 0.0
H1573 H 0.08517 0.01068 0.99759 0.0
H1574 H 0.10042 0.99936 0.96413 0.0
C1575 C 0.17611 1.00152 0.85042 0.0
C1576 C 0.13597 0.01551 0.8931 0.0
H1577 H 0.14318 0.04333 0.93777 0.0
C1578 C 0.11612 0.00606 0.89839 0.0
C1579 C 0.14567 0.02928 0.90754 0.0
C1580 C 0.16627 0.04102 0.90261 0.0
C1581 C 0.10577 0.01002 0.91753 0.0
C1582 C 0.11566 0.02353 0.93208 0.0
C1583 C 0.13558 0.03283 0.92681 0.0
C1584 C 0.10515 0.02965 0.95218 0.0
C1585 C 0.084 1.00023 0.92168 0.0
C1586 C 0.10275 0.05036 0.95685 0.0
C1587 C 0.09436 0.05679 0.97591 0.0
C1588 C 0.08794 0.04274 0.99103 0.0
C1589 C 0.08976 0.0219 0.98628 0.0
C1590 C 0.09843 0.01542 0.96708 0.0
H1591 H 0.0765 0.99441 0.90732 0.0
H1592 H 0.08538 0.98719 0.93184 0.0
H1593 H 0.07337 0.01116 0.92953 0.0
H1594 H 0.10764 0.0617 0.94574 0.0
H1595 H 0.09314 0.07297 0.97887 0.0
H1596 H 0.6747 0.90412 0.49046 0.0
H1597 H 0.63917 0.91808 0.49106 0.0
H1598 H 0.62444 0.89002 0.54898 0.0
H1599 H 0.65968 0.87622 0.54852 0.0
H1600 H 0.5988 0.89474 0.49321 0.0
H1601 H 0.60745 0.94933 0.55911 0.0
H1602 H 0.62999 0.93924 0.5452 0.0
H1603 H 0.61574 0.92436 0.56428 0.0
C1604 C 0.664 0.90129 0.5035 0.0
C1605 C 0.67006 0.88908 0.51946 0.0
C1606 C 0.64365 0.90913 0.50374 0.0
C1607 C 0.62912 0.90523 0.52013 0.0
C1608 C 0.63538 0.89348 0.53628 0.0
H1609 H 0.50204 0.91982 0.56352 0.0
H1610 H 0.53901 0.91273 0.55618 0.0
C1611 C 0.65554 0.88551 0.53595 0.0
C1612 C 0.60709 0.9126 0.52024 0.0
H1613 H 0.57201 0.93998 0.54938 0.0
C1614 C 0.59298 0.9049 0.50528 0.0
C1615 C 0.59947 0.92585 0.53598 0.0
C1616 C 0.61398 0.93535 0.55196 0.0
C1617 C 0.57126 0.90919 0.50632 0.0
C1618 C 0.56347 0.92184 0.52255 0.0
C1619 C 0.57784 0.93019 0.53698 0.0
C1620 C 0.54035 0.92543 0.52594 0.0
C1621 C 0.55665 0.89931 0.49064 0.0
C1622 C 0.52843 0.9348 0.5113 0.0
C1623 C 0.50695 0.93881 0.51543 0.0
C1624 C 0.49707 0.9337 0.53437 0.0
C1625 C 0.50903 0.92406 0.54878 0.0
C1626 C 0.5303 0.92001 0.54463 0.0
H1627 H 0.56415 0.88666 0.48192 0.0
H1628 H 0.54167 0.89331 0.49811 0.0
H1629 H 0.55257 0.91081 0.47951 0.0
H1630 H 0.53584 0.93948 0.49689 0.0
H1631 H 0.4983 0.94639 0.50405 0.0
H1632 H 0.72129 0.12752 0.97436 0.0
H1633 H 0.68668 0.10995 0.96771 0.0
H1634 H 0.65496 0.16298 0.99048 0.0
H1635 H 0.68949 0.18053 0.99687 0.0
H1636 H 0.65202 0.10108 0.9952 0.0
H1637 H 0.62924 0.15159 0.93401 0.0
H1638 H 0.65613 0.15103 0.9426 0.0
H1639 H 0.63679 0.16506 0.95722 0.0
C1640 C 0.70686 0.13537 0.97776 0.0
C1641 C 0.70789 0.1554 0.98582 0.0
C1642 C 0.68716 0.12535 0.97405 0.0
C1643 C 0.66823 0.13527 0.97828 0.0
C1644 C 0.66934 0.15518 0.98669 0.0
H1645 H 0.53386 0.11394 0.97453 0.0
H1646 H 0.57064 0.12566 0.97926 0.0
C1647 C 0.689 0.16516 0.99041 0.0
C1648 C 0.64727 0.12485 0.97414 0.0
H1649 H 0.60172 0.12962 0.9481 0.0
C1650 C 0.64109 0.10715 0.98474 0.0
C1651 C 0.63307 0.13273 0.96039 0.0
C1652 C 0.63918 0.15103 0.94774 0.0
C1653 C 0.62071 0.0977 0.98265 0.0
C1654 C 0.60628 0.106 0.96939 0.0
C1655 C 0.61274 0.12332 0.95834 0.0
C1656 C 0.58397 0.09783 0.96759 0.0
C1657 C 0.61447 0.07941 0.99525 0.0
C1658 C 0.57912 0.07813 0.95958 0.0
C1659 C 0.55792 0.07127 0.95687 0.0
C1660 C 0.54123 0.08408 0.962 0.0
C1661 C 0.54624 0.10364 0.97035 0.0
C1662 C 0.56731 0.11041 0.97306 0.0
H1663 H 0.62579 0.07738 0.00767 0.0
H1664 H 0.59831 0.08076 1.00225 0.0
H1665 H 0.61425 0.06555 0.98513 0.0
H1666 H 0.59173 0.06825 0.95495 0.0
H1667 H 0.55463 0.05619 0.95029 0.0
H1668 H 0.32945 0.42918 0.02237 0.0
H1669 H 0.3673 0.44034 0.0209 0.0
H1670 H 0.38278 0.38184 0.9947 0.0
H1671 H 0.34504 0.3706 0.99644 0.0
H1672 H 0.40377 0.41984 0.03911 0.0
H1673 H 0.40909 0.42577 0.95424 0.0
H1674 H 0.38415 0.426 0.96862 0.0
H1675 H 0.39681 0.40247 0.96357 0.0
C1676 C 0.34102 0.41873 0.01642 0.0
C1677 C 0.33448 0.399 0.00968 0.0
C1678 C 0.36257 0.42509 0.01559 0.0
C1679 C 0.37784 0.41193 0.00767 0.0
C1680 C 0.37125 0.39227 1.00077 0.0
H1681 H 0.51005 0.41315 0.97563 0.0
H1682 H 0.47261 0.40551 0.98367 0.0
C1683 C 0.34975 0.38587 1.00175 0.0
C1684 C 0.40067 0.41871 0.00631 0.0
H1685 H 0.44144 0.42823 0.97177 0.0
C1686 C 0.41205 0.42185 0.02442 0.0
C1687 C 0.41135 0.4214 0.98714 0.0
C1688 C 0.39976 0.41891 0.96724 0.0
C1689 C 0.43407 0.42674 0.02382 0.0
C1690 C 0.44487 0.42896 1.00458 0.0
C1691 C 0.43325 0.42642 0.98653 0.0
C1692 C 0.46835 0.43274 1.00245 0.0
C1693 C 0.4457 0.42868 0.0437 0.0
C1694 C 0.47881 0.45033 0.01089 0.0
C1695 C 0.50054 0.4546 0.00654 0.0
C1696 C 0.51197 0.44151 0.9934 0.0
C1697 C 0.50165 0.42357 0.98575 0.0
C1698 C 0.48019 0.41921 0.99028 0.0
H1699 H 0.43622 0.42181 0.0566 0.0
H1700 H 0.46113 0.42129 0.04224 0.0
H1701 H 0.44895 0.44502 0.04764 0.0
H1702 H 0.46999 0.46121 0.02004 0.0
H1703 H 0.50803 0.46866 0.01242 0.0
H1704 H 0.84228 0.13035 0.02791 0.0
H1705 H 0.87751 0.11663 0.03081 0.0
H1706 H 0.90389 0.16074 0.98847 0.0
H1707 H 0.86882 0.17457 0.98548 0.0
H1708 H 0.90674 0.10264 0.99366 0.0
H1709 H 0.94016 0.16556 0.04376 0.0
H1710 H 0.91196 0.15938 0.04288 0.0
H1711 H 0.92536 0.17209 0.02191 0.0
C1712 C 0.85558 0.13718 0.01926 0.0
C1713 C 0.85264 0.15356 0.00642 0.0
C1714 C 0.87569 0.12926 0.02087 0.0
C1715 C 0.89336 0.13772 0.00994 0.0
C1716 C 0.89051 0.15402 0.99711 0.0
H1717 H 0.02949 0.11726 0.01446 0.0
H1718 H 0.99494 0.13072 0.00753 0.0
C1719 C 0.87039 0.16181 0.99531 0.0
C1720 C 0.91477 0.12952 0.01188 0.0
H1721 H 0.96312 0.13993 0.03315 0.0
C1722 C 0.91909 0.11075 1.0023 0.0
C1723 C 0.93093 0.14025 0.02293 0.0
C1724 C 0.92701 0.16041 0.03359 0.0
C1725 C 0.93917 0.10245 1.00339 0.0
C1726 C 0.95526 0.11291 0.01492 0.0
C1727 C 0.95092 0.13183 0.02432 0.0
C1728 C 0.97641 0.10426 0.018 0.0
C1729 C 0.94303 0.08279 0.9917 0.0
C1730 C 0.97769 0.08491 0.02621 0.0
C1731 C 0.99741 0.07709 0.02992 0.0
C1732 C 0.01645 0.08855 0.02587 0.0
C1733 C 0.0152 0.10794 0.01763 0.0
C1734 C 0.99541 0.11569 0.01374 0.0
H1735 H 0.93235 0.08056 0.9785 0.0
H1736 H 0.95972 0.0823 0.98585 0.0
H1737 H 0.93969 0.06988 1.00205 0.0
H1738 H 0.96339 0.07597 0.03026 0.0
H1739 H 0.99765 0.06222 0.03652 0.0
H1740 H 0.01325 0.20842 0.22978 0.0
H1741 H 0.0175 0.18635 0.19897 0.0
H1742 H 0.04435 0.14117 0.23555 0.0
H1743 H 0.04022 0.16336 0.2663 0.0
H1744 H 0.06826 0.14909 0.20052 0.0
H1745 H 0.98385 0.13464 0.18115 0.0
H1746 H 0.99145 0.16118 0.18405 0.0
H1747 H 0.99187 0.14509 0.20581 0.0
C1748 C 0.01986 0.19368 0.23118 0.0
C1749 C 0.02645 0.18753 0.2503 0.0
C1750 C 0.02217 0.18103 0.21364 0.0
C1751 C 0.03099 0.16194 0.21494 0.0
C1752 C 0.03742 0.15576 0.23414 0.0
H1753 H 0.03681 0.07062 0.11331 0.0
H1754 H 0.02919 0.08792 0.1465 0.0
C1755 C 0.03507 0.16839 0.25168 0.0
C1756 C 0.03457 0.14892 0.19613 0.0
H1757 H 0.00963 0.12555 0.15524 0.0
C1758 C 0.0554 0.14382 0.19072 0.0
C1759 C 0.01779 0.14177 0.18344 0.0
C1760 C 0.99495 0.14576 0.18897 0.0
C1761 C 0.05999 0.13239 0.17269 0.0
C1762 C 0.04335 0.12608 0.15949 0.0
C1763 C 0.02241 0.13055 0.16523 0.0
C1764 C 0.04756 0.11555 0.13932 0.0
C1765 C 0.08266 0.12715 0.16792 0.0
C1766 C 0.06009 0.12542 0.12412 0.0
C1767 C 0.06442 0.11564 0.10523 0.0
C1768 C 0.05628 0.09571 0.10097 0.0
C1769 C 0.04342 0.08591 0.11609 0.0
C1770 C 0.03902 0.09579 0.13505 0.0
H1771 H 0.0923 0.12802 0.18194 0.0
H1772 H 0.08342 0.11164 0.16086 0.0
H1773 H 0.08995 0.13814 0.15689 0.0
H1774 H 0.06651 0.14079 0.12687 0.0
H1775 H 0.07427 0.12375 0.09396 0.0
H1776 H 0.98833 0.3188 0.2645 0.0
H1777 H 0.98454 0.34536 0.23961 0.0
H1778 H 0.03717 0.32282 0.2034 0.0
H1779 H 0.04094 0.296 0.22815 0.0
H1780 H 0.01788 0.37582 0.22519 0.0
H1781 H 0.98541 0.32348 0.16376 0.0
H1782 H 0.98493 0.31665 0.19041 0.0
H1783 H 0.00938 0.31674 0.17562 0.0
C1784 C 0.99904 0.31945 0.25119 0.0
C1785 C 0.01483 0.30525 0.24818 0.0
C1786 C 0.99694 0.33468 0.23709 0.0
C1787 C 0.01045 0.33588 0.21965 0.0
C1788 C 0.02649 0.32199 0.21672 0.0
H1789 H 1.00001 0.41359 0.11434 0.0
H1790 H 0.01224 0.38856 0.13774 0.0
C1791 C 0.0287 0.3068 0.23092 0.0
C1792 C 0.00745 0.35157 0.20444 0.0
H1793 H 0.98877 0.35828 0.15668 0.0
C1794 C 0.01165 0.37204 0.21015 0.0
C1795 C 0.99946 0.34648 0.18483 0.0
C1796 C 0.99437 0.32467 0.17819 0.0
C1797 C 0.00783 0.38765 0.19678 0.0
C1798 C 0.99908 0.38262 0.17744 0.0
C1799 C 0.99544 0.36209 0.17153 0.0
C1800 C 0.99251 0.39839 0.16355 0.0
C1801 C 0.01329 0.40936 0.20349 0.0
C1802 C 0.97725 0.41208 0.17025 0.0
C1803 C 0.97026 0.42636 0.15694 0.0
C1804 C 0.97819 0.42708 0.13657 0.0
C1805 C 0.99347 0.41331 0.12988 0.0
C1806 C 1.00054 0.39907 0.14325 0.0
H1807 H 0.02577 0.41022 0.21519 0.0
H1808 H 0.01887 0.41865 0.19027 0.0
H1809 H 0.99893 0.41613 0.21052 0.0
H1810 H 0.97037 0.41144 0.18566 0.0
H1811 H 0.95818 0.43645 0.16246 0.0
H1812 H 0.02786 0.77532 0.25637 0.0
H1813 H 0.03539 0.8063 0.2772 0.0
H1814 H 0.05779 0.83757 0.22285 0.0
H1815 H 0.04964 0.80657 0.20191 0.0
H1816 H 0.07328 0.82884 0.28242 0.0
H1817 H 0.01281 0.8747 0.24729 0.0
H1818 H 0.01326 0.84751 0.24321 0.0
H1819 H 0.03262 0.86394 0.23038 0.0
C1820 C 0.03433 0.78887 0.24897 0.0
C1821 C 0.03792 0.78887 0.22767 0.0
C1822 C 0.03871 0.80648 0.2608 0.0
C1823 C 0.0469 0.82429 0.25151 0.0
C1824 C 0.05112 0.82411 0.23024 0.0
H1825 H 0.07105 0.91422 0.35188 0.0
H1826 H 0.07828 0.90009 0.3172 0.0
C1827 C 0.04658 0.80647 0.21836 0.0
C1828 C 0.05045 0.84294 0.26442 0.0
H1829 H 0.029 0.88839 0.27677 0.0
C1830 C 0.06398 0.84211 0.28101 0.0
C1831 C 0.03835 0.86021 0.26235 0.0
C1832 C 0.02332 0.86175 0.24494 0.0
C1833 C 0.06436 0.85724 0.2966 0.0
C1834 C 0.05123 0.87393 0.29522 0.0
C1835 C 0.0391 0.87562 0.2777 0.0
C1836 C 0.0464 0.88702 0.31348 0.0
C1837 C 0.07736 0.85424 0.31525 0.0
C1838 C 0.02577 0.88569 0.32213 0.0
C1839 C 0.02158 0.89396 0.34164 0.0
C1840 C 0.03795 0.90363 0.35296 0.0
C1841 C 0.05817 0.90672 0.34353 0.0
C1842 C 0.06235 0.8985 0.32383 0.0
H1843 H 0.0844 0.83911 0.31496 0.0
H1844 H 0.09053 0.86603 0.31588 0.0
H1845 H 0.06742 0.85577 0.32952 0.0
H1846 H 0.01315 0.87704 0.31437 0.0
H1847 H 1.00575 0.8918 0.34836 0.0
H1848 H 0.98786 0.67887 0.26024 0.0
H1849 H 0.98421 0.6535 0.28678 0.0
H1850 H 0.03033 0.61747 0.25429 0.0
H1851 H 0.03398 0.64279 0.22745 0.0
H1852 H 0.97173 0.61205 0.28315 0.0
H1853 H 0.05358 0.62309 0.31254 0.0
H1854 H 0.04242 0.64111 0.29613 0.0
H1855 H 0.05139 0.61747 0.28549 0.0
C1856 C 0.99711 0.66548 0.25856 0.0
C1857 C 0.01122 0.66293 0.24162 0.0
C1858 C 0.99508 0.65101 0.27384 0.0
C1859 C 0.00715 0.63366 0.27268 0.0
C1860 C 0.02113 0.63091 0.25574 0.0
H1861 H 1.00188 0.54479 0.37382 0.0
H1862 H 0.00956 0.55774 0.33902 0.0
C1863 C 0.0232 0.64543 0.2404 0.0
C1864 C 1.00476 0.61858 0.28926 0.0
H1865 H 0.03016 0.6001 0.32986 0.0
C1866 C 0.98461 0.6092 0.29315 0.0
C1867 C 0.0216 0.61472 0.30227 0.0
C1868 C 0.04346 0.62468 0.29909 0.0
C1869 C 0.98063 0.59683 0.31015 0.0
C1870 C 0.99714 0.59388 0.32377 0.0
C1871 C 0.01758 0.60228 0.3193 0.0
C1872 C 0.99253 0.58522 0.34431 0.0
C1873 C 0.95853 0.58763 0.31391 0.0
C1874 C 0.98063 0.59641 0.35871 0.0
C1875 C 0.97645 0.58925 0.37836 0.0
C1876 C 0.98399 0.57059 0.38424 0.0
C1877 C 0.9958 0.55916 0.36975 0.0
C1878 C 1.00022 0.56655 0.34993 0.0
H1879 H 0.94942 0.58644 0.29957 0.0
H1880 H 0.95904 0.57227 0.3204 0.0
H1881 H 0.94989 0.59744 0.32514 0.0
H1882 H 0.97473 0.61093 0.35479 0.0
H1883 H 0.96722 0.59848 0.389 0.0
H1884 H 0.22561 0.01029 0.20965 0.0
H1885 H 0.19829 0.01358 0.18395 0.0
H1886 H 0.24405 0.04643 0.14531 0.0
H1887 H 0.27137 0.04247 0.17057 0.0
H1888 H 0.18153 0.04659 0.16895 0.0
H1889 H 0.22096 1.00469 0.10477 0.0
H1890 H 0.22993 1.00435 0.13077 0.0
H1891 H 0.23753 0.02539 0.11468 0.0
C1892 C 0.22972 0.01816 0.19562 0.0
C1893 C 0.25046 0.02631 0.19212 0.0
C1894 C 0.21417 0.02004 0.18095 0.0
C1895 C 0.21913 0.02997 0.16247 0.0
C1896 C 0.23987 0.03827 0.15914 0.0
H1897 H 0.14303 0.07527 0.0664 0.0
H1898 H 0.17116 0.06829 0.09 0.0
C1899 C 0.25542 0.03624 0.17369 0.0
C1900 C 0.20255 0.03219 0.14694 0.0
H1901 H 0.1917 0.02417 0.09607 0.0
C1902 C 0.18372 0.04152 0.15307 0.0
C1903 C 0.20527 0.02553 0.12615 0.0
C1904 C 0.22442 0.01424 0.11873 0.0
C1905 C 0.16789 0.04477 0.13896 0.0
C1906 C 0.1709 0.03857 0.11817 0.0
C1907 C 0.18954 0.02907 0.112 0.0
C1908 C 0.15466 0.04178 0.10272 0.0
C1909 C 0.14809 0.05508 0.14623 0.0
C1910 C 0.13632 0.0289 0.10172 0.0
C1911 C 0.1203 0.03272 0.08816 0.0
C1912 C 0.12224 0.04962 0.07538 0.0
C1913 C 0.14099 0.06212 0.07597 0.0
C1914 C 0.15708 0.05819 0.08947 0.0
H1915 H 0.14894 0.06061 0.16248 0.0
H1916 H 0.14544 0.06815 0.13642 0.0
H1917 H 0.13415 0.04421 0.1448 0.0
H1918 H 0.1342 0.01612 0.11178 0.0
H1919 H 0.10608 0.02278 0.08818 0.0
H1920 H 0.78382 0.47042 0.21319 0.0
H1921 H 0.80636 0.46755 0.18222 0.0
H1922 H 0.77034 0.51181 0.15309 0.0
H1923 H 0.74714 0.51437 0.18383 0.0
H1924 H 0.79192 0.45689 0.14003 0.0
H1925 H 0.83457 0.53282 0.1467 0.0
H1926 H 0.82141 0.52089 0.16855 0.0
H1927 H 0.80603 0.53162 0.14931 0.0
C1928 C 0.78042 0.47943 0.20019 0.0
C1929 C 0.76344 0.49259 0.20119 0.0
C1930 C 0.79349 0.47785 0.18249 0.0
C1931 C 0.79018 0.48955 0.16534 0.0
C1932 C 0.7734 0.50281 0.16621 0.0
H1933 H 0.87848 0.49372 0.05593 0.0
H1934 H 0.84629 0.49988 0.07744 0.0
C1935 C 0.76018 0.5043 0.1839 0.0
C1936 C 0.80413 0.48741 0.14654 0.0
H1937 H 0.84519 0.51101 0.11948 0.0
C1938 C 0.8034 0.46881 0.1354 0.0
C1939 C 0.81895 0.50304 0.14029 0.0
C1940 C 0.8205 0.52324 0.15181 0.0
C1941 C 0.81747 0.4652 0.11864 0.0
C1942 C 0.83314 0.48039 0.1131 0.0
C1943 C 0.83321 0.49935 0.12363 0.0
C1944 C 0.8512 0.47588 0.09852 0.0
C1945 C 0.81556 0.44496 0.1072 0.0
C1946 C 0.86456 0.46035 0.10304 0.0
C1947 C 0.88268 0.45688 0.0909 0.0
C1948 C 0.88815 0.46886 0.07384 0.0
C1949 C 0.8745 0.48405 0.06876 0.0
C1950 C 0.85624 0.48766 0.08116 0.0
H1951 H 0.79899 0.43843 0.108 0.0
H1952 H 0.82064 0.44633 0.09082 0.0
H1953 H 0.82579 0.43413 0.11439 0.0
H1954 H 0.86143 0.45132 0.1165 0.0
H1955 H 0.8929 0.44511 0.09532 0.0
H1956 H 0.22988 0.03199 0.30411 0.0
H1957 H 0.20293 0.02531 0.33106 0.0
H1958 H 0.2304 0.96829 0.34265 0.0
H1959 H 0.25814 0.97538 0.31658 0.0
H1960 H 0.17347 0.99568 0.33152 0.0
H1961 H 0.22153 0.98966 0.40035 0.0
H1962 H 0.23248 0.99989 0.3767 0.0
H1963 H 0.22997 0.97281 0.37991 0.0
C1964 C 0.23057 0.01827 0.31273 0.0
C1965 C 0.24626 1.00424 0.3081 0.0
C1966 C 0.21502 0.0144 0.32807 0.0
C1967 C 0.21476 0.99643 0.33914 0.0
C1968 C 0.23051 0.98249 0.33471 0.0
H1969 H 0.10503 0.93397 0.39202 0.0
H1970 H 0.13627 0.94603 0.37216 0.0
C1971 C 0.24618 0.98642 0.31949 0.0
C1972 C 0.19704 0.99149 0.35403 0.0
H1973 H 0.18565 0.97538 0.4027 0.0
C1974 C 0.17617 0.99148 0.34715 0.0
C1975 C 0.20045 0.98629 0.37456 0.0
C1976 C 0.22232 0.98737 0.38339 0.0
C1977 C 0.15874 0.98572 0.35992 0.0
C1978 C 0.16225 0.97925 0.37998 0.0
C1979 C 0.18301 0.98003 0.38721 0.0
C1980 C 0.14453 0.97096 0.39327 0.0
C1981 C 0.13669 0.98664 0.35174 0.0
C1982 C 0.13941 0.98033 0.41232 0.0
C1983 C 0.1216 0.97328 0.42394 0.0
C1984 C 0.10867 0.95676 0.41662 0.0
C1985 C 0.11449 0.94689 0.398 0.0
C1986 C 0.13229 0.95382 0.38655 0.0
H1987 H 0.13632 0.99752 0.33908 0.0
H1988 H 0.13146 0.97139 0.34554 0.0
H1989 H 0.12515 0.9912 0.36404 0.0
H1990 H 0.14878 0.99348 0.41788 0.0
H1991 H 0.11753 0.98119 0.43822 0.0
H1992 H 0.74496 0.5208 0.35126 0.0
H1993 H 0.77444 0.52918 0.37437 0.0
H1994 H 0.8188 0.50799 0.32773 0.0
H1995 H 0.78932 0.49983 0.3046 0.0
H1996 H 0.80538 0.5041 0.3892 0.0
H1997 H 0.84143 0.56635 0.34216 0.0
H1998 H 0.81479 0.55582 0.33851 0.0
H1999 H 0.83719 0.54263 0.32819 0.0
C2000 C 0.76105 0.5179 0.3461 0.0
C2001 C 0.76509 0.50978 0.32629 0.0
C2002 C 0.7778 0.52266 0.35922 0.0
C2003 C 0.79879 0.51947 0.35262 0.0
C2004 C 0.80274 0.51089 0.33296 0.0
H2005 H 0.91372 0.5136 0.41835 0.0
H2006 H 0.88013 0.50684 0.40128 0.0
C2007 C 0.78599 0.50613 0.31985 0.0
C2008 C 0.81658 0.52521 0.36624 0.0
H2009 H 0.86203 0.55534 0.36931 0.0
C2010 C 0.81771 0.5154 0.38495 0.0
C2011 C 0.8324 0.54021 0.3608 0.0
C2012 C 0.83136 0.55203 0.34142 0.0
C2013 C 0.83471 0.5197 0.39807 0.0
C2014 C 0.85106 0.53399 0.39214 0.0
C2015 C 0.84953 0.54429 0.37376 0.0
C2016 C 0.87043 0.53786 0.40423 0.0
C2017 C 0.83498 0.50894 0.41815 0.0
C2018 C 0.8762 0.5576 0.41147 0.0
C2019 C 0.89551 0.56157 0.42116 0.0
C2020 C 0.90944 0.54587 0.4236 0.0
C2021 C 0.90334 0.52603 0.41677 0.0
C2022 C 0.88406 0.52209 0.40712 0.0
H2023 H 0.81879 0.50336 0.42316 0.0
H2024 H 0.84497 0.49559 0.41619 0.0
H2025 H 0.84175 0.5191 0.43045 0.0
H2026 H 0.86593 0.57 0.40927 0.0
H2027 H 0.89976 0.57702 0.4262 0.0
H2028 H 0.23005 0.28095 1.00148 0.0
H2029 H 0.20322 0.25287 1.00532 0.0
H2030 H 0.15867 0.2948 0.03142 0.0
H2031 H 0.18555 0.32292 0.02745 0.0
H2032 H 0.18317 0.2421 0.04441 0.0
H2033 H 0.12527 0.26128 0.98607 0.0
H2034 H 0.1525 0.2712 0.98531 0.0
H2035 H 0.13394 0.28114 1.00395 0.0
C2036 C 0.2144 0.2841 0.00774 0.0
C2037 C 0.20965 0.30389 0.01411 0.0
C2038 C 0.19917 0.26815 0.00999 0.0
C2039 C 0.17896 0.27183 0.01854 0.0
C2040 C 0.17407 0.29173 0.02456 0.0
H2041 H 0.1011 0.16371 0.0569 0.0
H2042 H 0.11372 0.19971 0.05724 0.0
C2043 C 0.18935 0.30769 0.02233 0.0
C2044 C 0.16353 0.25454 0.02203 0.0
H2045 H 0.11778 0.23135 1.00432 0.0
C2046 C 0.1687 0.23984 0.03589 0.0
C2047 C 0.14471 0.25178 0.01087 0.0
C2048 C 0.13869 0.26707 0.9956 0.0
C2049 C 0.15598 0.22195 0.03829 0.0
C2050 C 0.13745 0.21885 0.02668 0.0
C2051 C 0.13185 0.23393 0.01337 0.0
C2052 C 0.12581 0.19879 0.02579 0.0
C2053 C 0.16313 0.20598 0.05233 0.0
C2054 C 0.12746 0.18679 0.00773 0.0
C2055 C 0.12031 0.16644 0.00755 0.0
C2056 C 0.11126 0.15773 0.02537 0.0
C2057 C 0.108 0.17014 0.04298 0.0
C2058 C 0.11531 0.19059 0.04321 0.0
H2059 H 0.17934 0.20964 0.05803 0.0
H2060 H 0.15199 0.2048 0.0658 0.0
H2061 H 0.16302 0.19089 0.04424 0.0
H2062 H 0.13545 0.19284 0.99411 0.0
H2063 H 0.12273 0.15721 0.99372 0.0
H2064 H 0.19282 0.77655 0.52177 0.0
H2065 H 0.1685 0.80361 0.51664 0.0
H2066 H 0.14893 0.77423 0.45984 0.0
H2067 H 0.1727 0.74679 0.46514 0.0
H2068 H 0.1684 0.83025 0.48468 0.0
H2069 H 0.09208 0.78479 0.48847 0.0
H2070 H 0.11659 0.77532 0.49696 0.0
H2071 H 0.11103 0.77505 0.47005 0.0
C2072 C 0.18309 0.77561 0.50835 0.0
C2073 C 0.18473 0.75933 0.49394 0.0
C2074 C 0.16928 0.79122 0.50536 0.0
C2075 C 0.1566 0.79088 0.48799 0.0
C2076 C 0.15819 0.77469 0.47357 0.0
H2077 H 0.07027 0.87322 0.43622 0.0
H2078 H 0.09152 0.84462 0.44439 0.0
C2079 C 0.17203 0.7591 0.47651 0.0
C2080 C 0.14237 0.80786 0.48459 0.0
H2081 H 0.09071 0.81864 0.47708 0.0
C2082 C 0.15139 0.82772 0.48318 0.0
C2083 C 0.12015 0.80461 0.48254 0.0
C2084 C 0.10931 0.78383 0.48476 0.0
C2085 C 0.13897 0.84428 0.47931 0.0
C2086 C 0.11675 0.84104 0.47721 0.0
C2087 C 0.1077 0.82119 0.4787 0.0
C2088 C 0.10276 0.858 0.47303 0.0
C2089 C 0.14989 0.86502 0.47688 0.0
C2090 C 0.1014 0.87487 0.48667 0.0
C2091 C 0.08925 0.89129 0.48204 0.0
C2092 C 0.07801 0.89118 0.4637 0.0
C2093 C 0.0787 0.87389 0.45047 0.0
C2094 C 0.09089 0.85749 0.45511 0.0
H2095 H 0.16719 0.86401 0.47354 0.0
H2096 H 0.1429 0.87327 0.46433 0.0
H2097 H 0.14788 0.87409 0.49137 0.0
H2098 H 0.10997 0.87545 0.50084 0.0
H2099 H 0.08903 0.90427 0.49265 0.0
H2100 H 0.81631 0.76457 0.53037 0.0
H2101 H 0.83924 0.73585 0.52488 0.0
H2102 H 0.85896 0.75805 0.46546 0.0
H2103 H 0.83672 0.78716 0.471 0.0
H2104 H 0.84263 0.71373 0.46834 0.0
H2105 H 0.90736 0.73799 0.52135 0.0
H2106 H 0.88027 0.73996 0.53051 0.0
H2107 H 0.89054 0.75601 0.51044 0.0
C2108 C 0.82584 0.76363 0.5163 0.0
C2109 C 0.82454 0.77827 0.50112 0.0
C2110 C 0.83883 0.74709 0.51314 0.0
C2111 C 0.85076 0.7448 0.49475 0.0
C2112 C 0.84979 0.75947 0.47972 0.0
H2113 H 0.95019 0.67107 0.44857 0.0
H2114 H 0.92604 0.69729 0.45909 0.0
C2115 C 0.83696 0.77608 0.4829 0.0
C2116 C 0.86389 0.72688 0.49086 0.0
H2117 H 0.91048 0.70666 0.50333 0.0
C2118 C 0.85737 0.71206 0.47611 0.0
C2119 C 0.88314 0.72482 0.50096 0.0
C2120 C 0.89094 0.74053 0.51665 0.0
C2121 C 0.86972 0.6953 0.47108 0.0
C2122 C 0.88909 0.69337 0.481 0.0
C2123 C 0.89553 0.70811 0.49587 0.0
C2124 C 0.90365 0.67701 0.47501 0.0
C2125 C 0.86237 0.68006 0.45475 0.0
C2126 C 0.89912 0.65677 0.48051 0.0
C2127 C 0.91315 0.64157 0.47474 0.0
C2128 C 0.93198 0.6463 0.46326 0.0
C2129 C 0.93621 0.66667 0.4577 0.0
C2130 C 0.92231 0.6818 0.46361 0.0
H2131 H 0.84793 0.68471 0.44716 0.0
H2132 H 0.87518 0.67803 0.4429 0.0
H2133 H 0.85876 0.6651 0.46178 0.0
H2134 H 0.88482 0.65278 0.48941 0.0
H2135 H 0.90933 0.62622 0.47951 0.0
H2136 H 0.28414 0.7743 0.50818 0.0
H2137 H 0.30931 0.80324 0.51507 0.0
H2138 H 0.35279 0.76263 0.54004 0.0
H2139 H 0.32766 0.73368 0.53292 0.0
H2140 H 0.32587 0.81657 0.55328 0.0
H2141 H 0.38949 0.79451 0.49722 0.0
H2142 H 0.36273 0.7835 0.49639 0.0
H2143 H 0.38064 0.77533 0.515 0.0
C2144 C 0.29914 0.77167 0.51504 0.0
C2145 C 0.30416 0.75195 0.51999 0.0
C2146 C 0.31344 0.78811 0.51901 0.0
C2147 C 0.33299 0.78503 0.52786 0.0
C2148 C 0.33795 0.76528 0.5329 0.0
H2149 H 0.41408 0.88588 0.57816 0.0
H2150 H 0.39378 0.85329 0.57437 0.0
C2151 C 0.32363 0.74883 0.52894 0.0
C2152 C 0.34798 0.8026 0.53209 0.0
H2153 H 0.39679 0.82359 0.51845 0.0
C2154 C 0.34143 0.81808 0.54577 0.0
C2155 C 0.36819 0.80454 0.52213 0.0
C2156 C 0.3757 0.7887 0.50673 0.0
C2157 C 0.35448 0.83559 0.54963 0.0
C2158 C 0.37473 0.83751 0.53973 0.0
C2159 C 0.38135 0.82195 0.52618 0.0
C2160 C 0.38849 0.8563 0.54198 0.0
C2161 C 0.3462 0.85221 0.5637 0.0
C2162 C 0.39285 0.86839 0.52489 0.0
C2163 C 0.40446 0.8869 0.52697 0.0
C2164 C 0.41204 0.89366 0.54619 0.0
C2165 C 0.40838 0.88114 0.56317 0.0
C2166 C 0.39669 0.86259 0.56106 0.0
H2167 H 0.32884 0.85011 0.56687 0.0
H2168 H 0.35433 0.85214 0.57855 0.0
H2169 H 0.34953 0.86735 0.55694 0.0
H2170 H 0.38674 0.86377 0.51001 0.0
H2171 H 0.40708 0.89609 0.51354 0.0
H2172 H 0.53059 0.71474 0.74793 0.0
H2173 H 0.532 0.69062 0.71844 0.0
H2174 H 0.51636 0.64098 0.7587 0.0
H2175 H 0.51505 0.66514 0.78821 0.0
H2176 H 0.55917 0.65691 0.71402 0.0
H2177 H 0.47374 0.63187 0.71146 0.0
H2178 H 0.48284 0.65498 0.7248 0.0
H2179 H 0.48598 0.63077 0.73593 0.0
C2180 C 0.52728 0.69868 0.75037 0.0
C2181 C 0.52252 0.69175 0.77022 0.0
C2182 C 0.5281 0.68493 0.73358 0.0
C2183 C 0.52401 0.664 0.7363 0.0
C2184 C 0.51918 0.65707 0.75616 0.0
H2185 H 0.52539 0.56265 0.64446 0.0
H2186 H 0.52149 0.58263 0.67677 0.0
C2187 C 0.51848 0.67083 0.77299 0.0
C2188 C 0.52578 0.64947 0.71844 0.0
H2189 H 0.49711 0.61593 0.68774 0.0
C2190 C 0.5456 0.64793 0.7083 0.0
C2191 C 0.50813 0.63757 0.71113 0.0
C2192 C 0.4864 0.63888 0.72124 0.0
C2193 C 0.54825 0.63496 0.69097 0.0
C2194 C 0.53046 0.62356 0.68319 0.0
C2195 C 0.51072 0.62469 0.69364 0.0
C2196 C 0.53192 0.61133 0.6636 0.0
C2197 C 0.57018 0.63349 0.68127 0.0
C2198 C 0.53851 0.62085 0.64536 0.0
C2199 C 0.54081 0.60953 0.62702 0.0
C2200 C 0.53635 0.58837 0.62633 0.0
C2201 C 0.52903 0.57889 0.64446 0.0
C2202 C 0.5268 0.59029 0.66293 0.0
H2203 H 0.58271 0.6378 0.69243 0.0
H2204 H 0.57276 0.61786 0.67514 0.0
H2205 H 0.57204 0.6441 0.66838 0.0
H2206 H 0.54201 0.63712 0.64532 0.0
H2207 H 0.54626 0.61744 0.61337 0.0
H2208 H 0.48761 0.78346 0.74166 0.0
H2209 H 0.48067 0.80679 0.71447 0.0
H2210 H 0.52318 0.85237 0.74214 0.0
H2211 H 0.53046 0.82892 0.76921 0.0
H2212 H 0.46294 0.84296 0.71847 0.0
H2213 H 0.54355 0.85359 0.68288 0.0
H2214 H 0.53667 0.8337 0.70068 0.0
H2215 H 0.54274 0.85927 0.70998 0.0
C2216 C 0.49556 0.79843 0.74187 0.0
C2217 C 0.50959 0.8044 0.75753 0.0
C2218 C 0.49163 0.81171 0.72631 0.0
C2219 C 0.50162 0.83123 0.7261 0.0
C2220 C 0.51571 0.83721 0.74168 0.0
H2221 H 0.4819 0.93865 0.65725 0.0
H2222 H 0.49256 0.91408 0.68196 0.0
C2223 C 0.5198 0.82384 0.75718 0.0
C2224 C 0.49628 0.84565 0.71023 0.0
H2225 H 0.51766 0.87617 0.67268 0.0
C2226 C 0.4749 0.85009 0.70836 0.0
C2227 C 0.51191 0.85496 0.69705 0.0
C2228 C 0.53497 0.85001 0.69757 0.0
C2229 C 0.46876 0.86381 0.6939 0.0
C2230 C 0.48439 0.87326 0.68094 0.0
C2231 C 0.50576 0.86888 0.68273 0.0
C2232 C 0.47875 0.8879 0.66553 0.0
C2233 C 0.44564 0.86841 0.69276 0.0
C2234 C 0.46772 0.88119 0.64804 0.0
C2235 C 0.46163 0.89516 0.63391 0.0
C2236 C 0.46639 0.91608 0.63711 0.0
C2237 C 0.47776 0.92267 0.65452 0.0
C2238 C 0.48398 0.90867 0.66855 0.0
H2239 H 0.43604 0.86235 0.706 0.0
H2240 H 0.44386 0.88507 0.69228 0.0
H2241 H 0.43912 0.86141 0.67843 0.0
H2242 H 0.46365 0.86516 0.64544 0.0
H2243 H 0.45275 0.88963 0.62076 0.0
H2244 H 0.55765 0.30058 0.76819 0.0
H2245 H 0.56477 0.33248 0.78748 0.0
H2246 H 0.5255 0.36356 0.74678 0.0
H2247 H 0.51799 0.33149 0.72763 0.0
H2248 H 0.58193 0.37087 0.77695 0.0
H2249 H 0.49691 0.37374 0.80267 0.0
H2250 H 0.50725 0.35144 0.79004 0.0
H2251 H 0.50257 0.3734 0.77548 0.0
C2252 C 0.55073 0.31426 0.76324 0.0
C2253 C 0.53704 0.31356 0.74665 0.0
C2254 C 0.55483 0.33247 0.77421 0.0
C2255 C 0.54542 0.35031 0.76871 0.0
C2256 C 0.53256 0.34988 0.75152 0.0
H2257 H 0.5396 0.44382 0.8671 0.0
H2258 H 0.54098 0.43337 0.8304 0.0
C2259 C 0.52826 0.33159 0.74065 0.0
C2260 C 0.548 0.36873 0.78212 0.0
H2261 H 0.52129 0.39583 0.81912 0.0
C2262 C 0.56863 0.37669 0.78585 0.0
C2263 C 0.53057 0.37649 0.79353 0.0
C2264 C 0.50807 0.36832 0.7904 0.0
C2265 C 0.57245 0.39101 0.80184 0.0
C2266 C 0.55524 0.39732 0.81442 0.0
C2267 C 0.53445 0.39092 0.8094 0.0
C2268 C 0.55847 0.40653 0.83511 0.0
C2269 C 0.59499 0.39837 0.8059 0.0
C2270 C 0.56807 0.39507 0.8497 0.0
C2271 C 0.56695 0.40082 0.87041 0.0
C2272 C 0.55639 0.41819 0.87684 0.0
C2273 C 0.54796 0.43046 0.86224 0.0
C2274 C 0.54878 0.42453 0.84141 0.0
H2275 H 0.60483 0.39849 0.79146 0.0
H2276 H 0.59564 0.41389 0.8131 0.0
H2277 H 0.60206 0.38788 0.81647 0.0
H2278 H 0.57514 0.38087 0.84527 0.0
H2279 H 0.57344 0.3912 0.88158 0.0
H2280 H 0.50952 0.15912 0.72867 0.0
H2281 H 0.50729 0.13416 0.7561 0.0
H2282 H 0.5116 0.18305 0.80157 0.0
H2283 H 0.51385 0.20794 0.77412 0.0
H2284 H 0.5383 0.1495 0.80847 0.0
H2285 H 0.45437 0.12405 0.79471 0.0
H2286 H 0.47241 0.12339 0.77281 0.0
H2287 H 0.4662 0.14738 0.78471 0.0
C2288 C 0.51001 0.16443 0.74455 0.0
C2289 C 0.51178 0.18536 0.74939 0.0
C2290 C 0.50868 0.15022 0.76019 0.0
C2291 C 0.5091 0.15671 0.78093 0.0
C2292 C 0.51124 0.17766 0.78571 0.0
H2293 H 0.46941 0.11188 0.89595 0.0
H2294 H 0.4757 0.12709 0.86268 0.0
C2295 C 0.51247 0.19186 0.77008 0.0
C2296 C 0.50692 0.14181 0.79774 0.0
H2297 H 0.47126 0.10872 0.82146 0.0
C2298 C 0.52376 0.14037 0.81116 0.0
C2299 C 0.48789 0.12996 0.80131 0.0
C2300 C 0.46907 0.13127 0.78776 0.0
C2301 C 0.52189 0.12776 0.82827 0.0
C2302 C 0.5027 0.11624 0.83207 0.0
C2303 C 0.48606 0.11732 0.81838 0.0
C2304 C 0.49845 0.10553 0.85171 0.0
C2305 C 0.54004 0.12756 0.84278 0.0
C2306 C 0.50887 0.08795 0.85658 0.0
C2307 C 0.50514 0.07895 0.8758 0.0
C2308 C 0.49116 0.08762 0.89046 0.0
C2309 C 0.48046 0.10488 0.88516 0.0
C2310 C 0.48397 0.11361 0.86607 0.0
H2311 H 0.55317 0.13869 0.83863 0.0
H2312 H 0.53435 0.13107 0.85873 0.0
H2313 H 0.54641 0.11215 0.84251 0.0
H2314 H 0.52001 0.08135 0.84563 0.0
H2315 H 0.51363 0.0657 0.87942 0.0
H2316 H 0.72142 0.52773 0.72761 0.0
H2317 H 0.69114 0.53128 0.70521 0.0
H2318 H 0.73333 0.52816 0.65195 0.0
H2319 H 0.76338 0.52434 0.67431 0.0
H2320 H 0.68395 0.56061 0.67711 0.0
H2321 H 0.68728 0.48502 0.6377 0.0
H2322 H 0.70151 0.49149 0.66079 0.0
H2323 H 0.71196 0.49977 0.63629 0.0
C2324 C 0.72407 0.52769 0.71111 0.0
C2325 C 0.74454 0.52553 0.70258 0.0
C2326 C 0.70685 0.52976 0.69833 0.0
C2327 C 0.70986 0.52962 0.67684 0.0
C2328 C 0.73047 0.52782 0.66841 0.0
H2329 H 0.62054 0.57217 0.58923 0.0
H2330 H 0.65148 0.56768 0.61015 0.0
C2331 C 0.74763 0.52575 0.68115 0.0
C2332 C 0.69157 0.53172 0.66322 0.0
H2333 H 0.66466 0.5084 0.62351 0.0
C2334 C 0.67969 0.54917 0.66543 0.0
C2335 C 0.68582 0.51669 0.64811 0.0
C2336 C 0.69716 0.49709 0.64566 0.0
C2337 C 0.66249 0.55214 0.65278 0.0
C2338 C 0.6572 0.53742 0.63721 0.0
C2339 C 0.66886 0.51982 0.63523 0.0
C2340 C 0.63908 0.53962 0.62339 0.0
C2341 C 0.64986 0.57082 0.65653 0.0
C2342 C 0.62219 0.52491 0.62311 0.0
C2343 C 0.60459 0.52731 0.611 0.0
C2344 C 0.60349 0.54446 0.59878 0.0
C2345 C 0.6208 0.5588 0.59848 0.0
C2346 C 0.63843 0.55636 0.6106 0.0
H2347 H 0.65239 0.57771 0.67209 0.0
H2348 H 0.65497 0.58235 0.6451 0.0
H2349 H 0.63262 0.56716 0.65483 0.0
H2350 H 0.62235 0.51179 0.63271 0.0
H2351 H 0.5916 0.51593 0.61163 0.0
H2352 H 0.28535 0.00788 0.71902 0.0
H2353 H 0.30908 1.00376 0.68872 0.0
H2354 H 0.26045 0.96634 0.65883 0.0
H2355 H 0.23661 0.97081 0.68903 0.0
H2356 H 0.32468 0.96909 0.67162 0.0
H2357 H 0.27757 1.00573 0.61392 0.0
H2358 H 0.27191 0.00833 0.64117 0.0
H2359 H 0.26341 0.98554 0.62723 0.0
C2360 C 0.27972 0.99894 0.70588 0.0
C2361 C 0.25913 0.98977 0.7063 0.0
C2362 C 0.29327 0.99655 0.68857 0.0
C2363 C 0.28653 0.985 0.67122 0.0
C2364 C 0.26594 0.97572 0.67172 0.0
H2365 H 0.36024 0.94703 0.5599 0.0
H2366 H 0.33052 0.95272 0.58464 0.0
C2367 C 0.25237 0.97813 0.68904 0.0
C2368 C 0.30144 0.98202 0.65311 0.0
H2369 H 0.30831 0.98944 0.6014 0.0
C2370 C 0.32104 0.97358 0.6563 0.0
C2371 C 0.29677 0.9877 0.63297 0.0
C2372 C 0.27636 0.9975 0.62856 0.0
C2373 C 0.336 0.97072 0.64011 0.0
C2374 C 0.33152 0.97674 0.62007 0.0
C2375 C 0.31177 0.98481 0.61671 0.0
C2376 C 0.34778 0.97563 0.6029 0.0
C2377 C 0.35653 0.96116 0.6446 0.0
C2378 C 0.36694 0.9873 0.60428 0.0
C2379 C 0.38373 0.98415 0.5902 0.0
C2380 C 0.38174 0.96946 0.57416 0.0
C2381 C 0.36206 0.95879 0.57179 0.0
C2382 C 0.34516 0.96189 0.58606 0.0
H2383 H 0.3553 0.95269 0.6591 0.0
H2384 H 0.3613 0.95058 0.63187 0.0
H2385 H 0.36929 0.97327 0.64622 0.0
H2386 H 0.36931 0.99817 0.61692 0.0
H2387 H 0.3988 0.99239 0.59259 0.0
H2388 H 0.76616 0.48393 0.82819 0.0
H2389 H 0.74049 0.47908 0.85665 0.0
H2390 H 0.71279 0.53553 0.84329 0.0
H2391 H 0.7376 0.53996 0.81408 0.0
H2392 H 0.73003 0.5009 0.89181 0.0
H2393 H 0.66257 0.49512 0.83878 0.0
H2394 H 0.68984 0.49513 0.8297 0.0
H2395 H 0.6782 0.5186 0.83758 0.0
C2396 C 0.75452 0.49527 0.83118 0.0
C2397 C 0.75372 0.51214 0.81853 0.0
C2398 C 0.74001 0.49258 0.84763 0.0
C2399 C 0.72445 0.50674 0.85185 0.0
C2400 C 0.72437 0.52419 0.84004 0.0
H2401 H 0.63336 0.49725 0.95729 0.0
H2402 H 0.6637 0.5086 0.93522 0.0
C2403 C 0.73876 0.52681 0.82346 0.0
C2404 C 0.70759 0.50248 0.86775 0.0
H2405 H 0.65413 0.49319 0.87407 0.0
C2406 C 0.7134 0.4993 0.888 0.0
C2407 C 0.68593 0.50018 0.86266 0.0
C2408 C 0.67871 0.50224 0.84098 0.0
C2409 C 0.69816 0.4936 0.90324 0.0
C2410 C 0.67653 0.49138 0.89812 0.0
C2411 C 0.67072 0.49498 0.87798 0.0
C2412 C 0.65966 0.48387 0.91278 0.0
C2413 C 0.7054 0.48927 0.92443 0.0
C2414 C 0.64738 0.46624 0.90755 0.0
C2415 C 0.63 0.45995 0.91988 0.0
C2416 C 0.62454 0.47108 0.93785 0.0
C2417 C 0.63731 0.4883 0.94361 0.0
C2418 C 0.65467 0.49475 0.93105 0.0
H2419 H 0.72278 0.4873 0.9246 0.0
H2420 H 0.70169 0.5022 0.93503 0.0
H2421 H 0.697 0.47536 0.9304 0.0
H2422 H 0.65096 0.45757 0.89358 0.0
H2423 H 0.62057 0.44654 0.91508 0.0
H2424 H 0.29779 0.99206 0.82437 0.0
H2425 H 0.32519 1.00138 0.84912 0.0
H2426 H 0.29374 0.05643 0.8656 0.0
H2427 H 0.26581 0.04687 0.84145 0.0
H2428 H 0.35187 0.03583 0.84804 0.0
H2429 H 0.30498 0.03362 0.92161 0.0
H2430 H 0.2952 0.0221 0.89801 0.0
H2431 H 0.29458 0.04912 0.90248 0.0
C2432 C 0.29646 0.00595 0.83354 0.0
C2433 C 0.2796 0.01871 0.83094 0.0
C2434 C 0.31219 0.01131 0.84759 0.0
C2435 C 0.31135 0.02946 0.85936 0.0
C2436 C 0.29448 0.04217 0.85695 0.0
H2437 H 0.40971 0.09066 0.93383 0.0
H2438 H 0.37651 0.08291 0.91582 0.0
C2439 C 0.2787 0.03681 0.84293 0.0
C2440 C 0.32887 0.03564 0.87317 0.0
H2441 H 0.34075 0.0466 0.92325 0.0
C2442 C 0.34942 0.03816 0.86448 0.0
C2443 C 0.32559 0.03877 0.8946 0.0
C2444 C 0.30394 0.03561 0.90481 0.0
C2445 C 0.36682 0.04366 0.87664 0.0
C2446 C 0.36357 0.04658 0.89805 0.0
C2447 C 0.34304 0.04439 0.90678 0.0
C2448 C 0.38173 0.05086 0.91149 0.0
C2449 C 0.38863 0.04621 0.86661 0.0
C2450 C 0.39514 0.03524 0.91546 0.0
C2451 C 0.414 0.03956 0.92567 0.0
C2452 C 0.41979 0.05961 0.93206 0.0
C2453 C 0.4057 0.07507 0.92907 0.0
C2454 C 0.38676 0.0707 0.91882 0.0
H2455 H 0.38799 0.04661 0.84961 0.0
H2456 H 0.39693 0.06043 0.87238 0.0
H2457 H 0.39821 0.0333 0.8706 0.0
H2458 H 0.3914 0.01983 0.90995 0.0
H2459 H 0.42441 0.02727 0.92785 0.0
H2460 H 0.7422 0.75436 0.51256 0.0
H2461 H 0.72078 0.72247 0.51772 0.0
H2462 H 0.66851 0.75699 0.54128 0.0
H2463 H 0.68969 0.78867 0.53576 0.0
H2464 H 0.69991 0.70664 0.55413 0.0
H2465 H 0.6433 0.72217 0.49375 0.0
H2466 H 0.6686 0.73598 0.49606 0.0
H2467 H 0.64647 0.74243 0.51264 0.0
C2468 C 0.72615 0.75497 0.51889 0.0
C2469 C 0.71747 0.77372 0.52388 0.0
C2470 C 0.714 0.73687 0.52188 0.0
C2471 C 0.69304 0.73745 0.52971 0.0
C2472 C 0.68456 0.75625 0.53499 0.0
H2473 H 0.6054 0.64264 0.57656 0.0
H2474 H 0.6329 0.67027 0.57355 0.0
C2475 C 0.69663 0.77426 0.53193 0.0
C2476 C 0.67965 0.71852 0.53187 0.0
H2477 H 0.63343 0.69509 0.51586 0.0
C2478 C 0.68544 0.70397 0.54569 0.0
C2479 C 0.66095 0.71505 0.52064 0.0
C2480 C 0.65452 0.72963 0.50479 0.0
C2481 C 0.67266 0.68618 0.5489 0.0
C2482 C 0.65353 0.68312 0.53823 0.0
C2483 C 0.64803 0.69753 0.52415 0.0
C2484 C 0.63896 0.66499 0.54096 0.0
C2485 C 0.67987 0.67076 0.56347 0.0
C2486 C 0.6333 0.65288 0.52373 0.0
C2487 C 0.61749 0.63744 0.5254 0.0
C2488 C 0.60704 0.63372 0.54435 0.0
C2489 C 0.61335 0.64518 0.56184 0.0
C2490 C 0.62909 0.66086 0.56012 0.0
H2491 H 0.69721 0.67263 0.566 0.0
H2492 H 0.67147 0.67281 0.57854 0.0
H2493 H 0.67614 0.65502 0.55761 0.0
H2494 H 0.64074 0.65576 0.50882 0.0
H2495 H 0.61315 0.6286 0.51176 0.0
H2496 H 0.72594 0.29055 0.98264 0.0
H2497 H 0.70264 0.31902 0.98183 0.0
H2498 H 0.65338 0.2838 0.01398 0.0
H2499 H 0.67691 0.2554 0.01528 0.0
H2500 H 0.66662 0.32243 0.964 0.0
H2501 H 0.65232 0.33559 0.04747 0.0
H2502 H 0.67228 0.31904 0.03735 0.0
H2503 H 0.64486 0.3101 0.03915 0.0
C2504 C 0.71015 0.28886 0.98957 0.0
C2505 C 0.70332 0.27066 0.99904 0.0
C2506 C 0.69683 0.30521 0.98916 0.0
C2507 C 0.67627 0.30382 0.99812 0.0
C2508 C 0.66933 0.28559 0.00747 0.0
H2509 H 0.57916 0.3855 0.96347 0.0
H2510 H 0.60018 0.35609 0.96892 0.0
C2511 C 0.68278 0.26928 0.00811 0.0
C2512 C 0.66196 0.32116 0.99681 0.0
H2513 H 0.63064 0.35312 0.02528 0.0
C2514 C 0.65883 0.32915 0.97745 0.0
C2515 C 0.65195 0.33025 0.01433 0.0
C2516 C 0.65567 0.32346 0.03576 0.0
C2517 C 0.64597 0.34571 0.97507 0.0
C2518 C 0.63525 0.35425 0.99247 0.0
C2519 C 0.63855 0.34645 0.01188 0.0
C2520 C 0.62098 0.37156 0.99079 0.0
C2521 C 0.64457 0.35422 0.95394 0.0
C2522 C 0.62471 0.3898 1.0022 0.0
C2523 C 0.61236 0.40659 0.99943 0.0
C2524 C 0.59605 0.40552 0.98512 0.0
C2525 C 0.59173 0.38695 0.97445 0.0
C2526 C 0.60389 0.37013 0.97741 0.0
H2527 H 0.65839 0.35025 0.94389 0.0
H2528 H 0.63003 0.34767 0.94661 0.0
H2529 H 0.64379 0.37103 0.95473 0.0
H2530 H 0.63766 0.3913 0.01275 0.0
H2531 H 0.61614 0.42065 0.0079 0.0
H2532 H 0.35462 0.30231 0.02098 0.0
H2533 H 0.37755 0.2735 0.01565 0.0
H2534 H 0.33018 0.24266 0.97805 0.0
H2535 H 0.30748 0.2715 0.98296 0.0
H2536 H 0.37255 0.23383 0.02469 0.0
H2537 H 0.38144 0.24011 0.94024 0.0
H2538 H 0.36988 0.2596 0.95639 0.0
H2539 H 0.35423 0.23715 0.94886 0.0
C2540 C 0.3491 0.28936 0.01161 0.0
C2541 C 0.32934 0.28931 1.00218 0.0
C2542 C 0.36223 0.27291 0.00854 0.0
C2543 C 0.35584 0.25605 0.99604 0.0
C2544 C 0.33581 0.25572 0.9872 0.0
H2545 H 0.41385 0.14144 0.96132 0.0
H2546 H 0.3885 0.16787 0.96948 0.0
C2547 C 0.3228 0.27221 0.99008 0.0
C2548 C 0.37004 0.23878 0.99236 0.0
H2549 H 0.39439 0.21049 0.95443 0.0
C2550 C 0.37737 0.2288 0.00933 0.0
C2551 C 0.37642 0.23217 0.9723 0.0
C2552 C 0.37027 0.24294 0.95342 0.0
C2553 C 0.39065 0.21231 0.00676 0.0
C2554 C 0.39681 0.20564 0.98673 0.0
C2555 C 0.38944 0.21551 0.96977 0.0
C2556 C 0.41174 0.18908 0.98302 0.0
C2557 C 0.39789 0.20198 0.02546 0.0
C2558 C 0.43315 0.19224 0.98797 0.0
C2559 C 0.44762 0.17727 0.98321 0.0
C2560 C 0.44098 0.15875 0.9735 0.0
C2561 C 0.4194 0.15543 0.96899 0.0
C2562 C 0.40494 0.17055 0.97354 0.0
H2563 H 0.38846 0.2062 0.03949 0.0
H2564 H 0.39669 0.1852 0.02312 0.0
H2565 H 0.41479 0.20656 0.02802 0.0
H2566 H 0.43877 0.20649 0.9951 0.0
H2567 H 0.46408 0.18022 0.98704 0.0
H2568 H 0.80233 0.28286 1.00626 0.0
H2569 H 0.82802 0.31106 0.01422 0.0
H2570 H 0.87107 0.26848 0.03655 0.0
H2571 H 0.84542 0.24026 0.02829 0.0
H2572 H 0.84494 0.3222 0.05265 0.0
H2573 H 0.9079 0.30184 0.9951 0.0
H2574 H 0.88103 0.29116 0.99402 0.0
H2575 H 0.89891 0.28206 0.01215 0.0
C2576 C 0.81735 0.27964 0.01277 0.0
C2577 C 0.82211 0.2596 0.01664 0.0
C2578 C 0.83194 0.29565 0.01734 0.0
C2579 C 0.85151 0.2918 0.02577 0.0
C2580 C 0.85621 0.27172 0.02974 0.0
H2581 H 0.93133 0.39333 0.07699 0.0
H2582 H 0.91304 0.35972 0.07318 0.0
C2583 C 0.8416 0.25569 0.02514 0.0
C2584 C 0.86674 0.30895 0.03065 0.0
H2585 H 0.91529 0.33042 0.01689 0.0
C2586 C 0.86041 0.32395 0.04498 0.0
C2587 C 0.88682 0.31117 0.02049 0.0
C2588 C 0.8941 0.29582 1.00445 0.0
C2589 C 0.87344 0.34138 0.04914 0.0
C2590 C 0.89349 0.34366 0.03891 0.0
C2591 C 0.90001 0.32846 0.02487 0.0
C2592 C 0.90684 0.36269 0.04097 0.0
C2593 C 0.86526 0.35762 0.06375 0.0
C2594 C 0.91016 0.37503 0.02392 0.0
C2595 C 0.92063 0.3941 0.026 0.0
C2596 C 0.92804 0.40118 0.04519 0.0
C2597 C 0.9257 0.38834 0.06204 0.0
C2598 C 0.91517 0.3692 0.05992 0.0
H2599 H 0.84801 0.35519 0.06736 0.0
H2600 H 0.87384 0.35744 0.07834 0.0
H2601 H 0.8681 0.37291 0.0572 0.0
H2602 H 0.90392 0.37024 0.00915 0.0
H2603 H 0.92231 0.40353 0.01267 0.0
loop_
_geom_bond_atom_site_label_1
_geom_bond_atom_site_label_2
_geom_bond_distance
_geom_bond_site_symmetry_2
_ccdc_geom_bond_type
C0 C1 1.443 . S
C0 N4 1.376 . S
C0 C38 1.389 1_655 S
C1 C0 1.443 . S
C1 C2 1.340 . S
C1 H41 0.951 . S
C2 C1 1.340 . S
C2 C3 1.439 . S
C2 H42 0.950 . S
C3 C2 1.439 . S
C3 N4 1.374 . S
C3 C37 1.395 . S
N4 C0 1.376 . S
N4 C3 1.374 . S
N4 Co5 2.008 1_655 S
Co5 N4 2.008 1_455 S
Co5 N6 1.995 . S
Co5 N11 2.008 . S
Co5 N16 1.995 . S
Co5 N21 2.282 . S
Co5 N27 2.282 . S
N6 Co5 1.995 . S
N6 C7 1.376 1_455 S
N6 C10 1.383 . S
C7 N6 1.376 1_655 S
C7 C8 1.446 . S
C7 C37 1.391 . S
C8 C7 1.446 . S
C8 C9 1.339 . S
C8 H43 0.949 . S
C9 C8 1.339 . S
C9 C10 1.439 1_655 S
C9 H44 0.950 . S
C10 N6 1.383 . S
C10 C9 1.439 1_455 S
C10 C39 1.392 . S
N11 Co5 2.008 . S
N11 C12 1.376 . S
N11 C15 1.374 . S
C12 N11 1.376 . S
C12 C13 1.443 . S
C12 C39 1.389 . S
C13 C12 1.443 . S
C13 C14 1.340 . S
C13 H45 0.951 . S
C14 C13 1.340 . S
C14 C15 1.439 . S
C14 H46 0.950 . S
C15 N11 1.374 . S
C15 C14 1.439 . S
C15 C40 1.395 . S
N16 Co5 1.995 . S
N16 C17 1.376 . S
N16 C20 1.383 . S
C17 N16 1.376 . S
C17 C18 1.446 . S
C17 C40 1.391 . S
C18 C17 1.446 . S
C18 C19 1.339 . S
C18 H47 0.949 . S
C19 C18 1.339 . S
C19 C20 1.439 . S
C19 H48 0.950 . S
C20 N16 1.383 . S
C20 C19 1.439 . S
C20 C38 1.392 . S
N21 Co5 2.282 . S
N21 C24 1.332 . S
N21 C26 1.332 . S
C22 C23 1.386 . S
C22 C25 1.388 . S
C23 C22 1.386 . S
C23 C24 1.382 . S
C23 H49 0.950 . S
C24 N21 1.332 . S
C24 C23 1.382 . S
C24 H35 0.952 . S
C25 C22 1.388 . S
C25 C26 1.382 . S
C25 H50 0.950 . S
C26 N21 1.332 . S
C26 C25 1.382 . S
C26 H36 0.948 . S
N27 Co5 2.282 . S
N27 C31 1.332 . S
N27 C32 1.332 . S
C28 C29 1.388 . S
C28 C32 1.382 . S
C28 H51 0.950 . S
C29 C28 1.388 . S
C29 C30 1.386 1_455 S
C30 C29 1.386 1_655 S
C30 C31 1.382 1_655 S
C30 H52 0.950 . S
C31 N27 1.332 . S
C31 C30 1.382 1_455 S
C31 H33 0.952 1_455 S
C32 N27 1.332 . S
C32 C28 1.382 . S
C32 H34 0.948 . S
H33 C31 0.952 1_655 S
H34 C32 0.948 . S
H35 C24 0.952 . S
H36 C26 0.948 . S
C37 C3 1.395 . S
C37 C7 1.391 . S
C38 C0 1.389 1_455 S
C38 C20 1.392 . S
C39 C10 1.392 . S
C39 C12 1.389 . S
C40 C15 1.395 . S
C40 C17 1.391 . S
H41 C1 0.951 . S
H42 C2 0.950 . S
H43 C8 0.949 . S
H44 C9 0.950 . S
H45 C13 0.951 . S
H46 C14 0.950 . S
H47 C18 0.949 . S
H48 C19 0.950 . S
H49 C23 0.950 . S
H50 C25 0.950 . S
H51 C28 0.950 . S
H52 C30 0.950 . S
C53 C54 1.443 . S
C53 N57 1.376 . S
C53 C91 1.389 1_655 S
C54 C53 1.443 . S
C54 C55 1.340 . S
C54 H94 0.951 . S
C55 C54 1.340 . S
C55 C56 1.439 . S
C55 H95 0.950 . S
C56 C55 1.439 . S
C56 N57 1.374 . S
C56 C90 1.395 . S
N57 C53 1.376 . S
N57 C56 1.374 . S
N57 Co58 2.008 1_655 S
Co58 N57 2.008 1_455 S
Co58 N59 1.995 1_455 S
Co58 N64 2.008 . S
Co58 N69 1.995 . S
Co58 N74 2.282 . S
Co58 N80 2.282 . S
N59 Co58 1.995 1_655 S
N59 C60 1.376 . S
N59 C63 1.383 . S
C60 N59 1.376 . S
C60 C61 1.446 . S
C60 C90 1.391 . S
C61 C60 1.446 . S
C61 C62 1.339 . S
C61 H96 0.949 . S
C62 C61 1.339 . S
C62 C63 1.439 . S
C62 H97 0.950 . S
C63 N59 1.383 . S
C63 C62 1.439 . S
C63 C92 1.392 1_655 S
N64 Co58 2.008 . S
N64 C65 1.376 . S
N64 C68 1.374 . S
C65 N64 1.376 . S
C65 C66 1.443 . S
C65 C92 1.389 . S
C66 C65 1.443 . S
C66 C67 1.340 . S
C66 H98 0.951 . S
C67 C66 1.340 . S
C67 C68 1.439 . S
C67 H99 0.950 . S
C68 N64 1.374 . S
C68 C67 1.439 . S
C68 C93 1.395 . S
N69 Co58 1.995 . S
N69 C70 1.376 . S
N69 C73 1.383 . S
C70 N69 1.376 . S
C70 C71 1.446 . S
C70 C93 1.391 . S
C71 C70 1.446 . S
C71 C72 1.339 . S
C71 H100 0.949 . S
C72 C71 1.339 . S
C72 C73 1.439 . S
C72 H101 0.950 . S
C73 N69 1.383 . S
C73 C72 1.439 . S
C73 C91 1.392 . S
N74 Co58 2.282 . S
N74 C77 1.332 . S
N74 C79 1.367 . S
C75 C76 1.386 . S
C75 C78 1.388 . S
C76 C75 1.386 . S
C76 C77 1.382 . S
C76 H102 0.950 . S
C77 N74 1.332 . S
C77 C76 1.382 . S
C77 H88 0.952 . S
C78 C75 1.388 . S
C78 C79 1.388 . S
C78 H103 0.950 1_455 S
C79 N74 1.367 . S
C79 C78 1.388 . S
C79 H89 0.906 1_455 S
N80 Co58 2.282 . S
N80 C84 1.332 1_455 S
N80 C85 1.332 . S
C81 C82 1.388 1_455 S
C81 C85 1.382 . S
C81 H104 0.950 . S
C82 C81 1.388 1_655 S
C82 C83 1.386 . S
C83 C82 1.386 . S
C83 C84 1.382 . S
C83 H105 0.950 . S
C84 N80 1.332 1_655 S
C84 C83 1.382 . S
C84 H86 0.952 . S
C85 N80 1.332 . S
C85 C81 1.382 . S
C85 H87 0.948 . S
H86 C84 0.952 . S
H87 C85 0.948 . S
H88 C77 0.952 . S
H89 C79 0.906 1_655 S
C90 C56 1.395 . S
C90 C60 1.391 . S
C91 C53 1.389 1_455 S
C91 C73 1.392 . S
C92 C63 1.392 1_455 S
C92 C65 1.389 . S
C93 C68 1.395 . S
C93 C70 1.391 . S
H94 C54 0.951 . S
H95 C55 0.950 . S
H96 C61 0.949 . S
H97 C62 0.950 . S
H98 C66 0.951 . S
H99 C67 0.950 . S
H100 C71 0.949 . S
H101 C72 0.950 . S
H102 C76 0.950 . S
H103 C78 0.950 1_655 S
H104 C81 0.950 . S
H105 C83 0.950 . S
C106 C107 1.443 . S
C106 N110 1.376 . S
C106 C144 1.389 1_565 S
C107 C106 1.443 . S
C107 C108 1.340 . S
C107 H147 0.951 . S
C108 C107 1.340 . S
C108 C109 1.439 . S
C108 H148 0.950 . S
C109 C108 1.439 . S
C109 N110 1.374 . S
C109 C143 1.395 . S
N110 C106 1.376 . S
N110 C109 1.374 . S
N110 Co111 2.008 1_565 S
Co111 N110 2.008 1_545 S
Co111 N112 1.995 1_545 S
Co111 N117 2.008 . S
Co111 N122 1.995 . S
Co111 N127 2.282 . S
Co111 N133 2.282 . S
N112 Co111 1.995 1_565 S
N112 C113 1.376 . S
N112 C116 1.383 1_565 S
C113 N112 1.376 . S
C113 C114 1.446 . S
C113 C143 1.391 . S
C114 C113 1.446 . S
C114 C115 1.339 . S
C114 H149 0.949 . S
C115 C114 1.339 . S
C115 C116 1.439 1_565 S
C115 H150 0.950 . S
C116 N112 1.383 1_545 S
C116 C115 1.439 1_545 S
C116 C145 1.392 . S
N117 Co111 2.008 . S
N117 C118 1.376 . S
N117 C121 1.374 . S
C118 N117 1.376 . S
C118 C119 1.443 . S
C118 C145 1.389 . S
C119 C118 1.443 . S
C119 C120 1.340 . S
C119 H151 0.951 . S
C120 C119 1.340 . S
C120 C121 1.439 . S
C120 H152 0.950 . S
C121 N117 1.374 . S
C121 C120 1.439 . S
C121 C146 1.395 . S
N122 Co111 1.995 . S
N122 C123 1.376 . S
N122 C126 1.383 . S
C123 N122 1.376 . S
C123 C124 1.446 . S
C123 C146 1.391 . S
C124 C123 1.446 . S
C124 C125 1.339 . S
C124 H153 0.949 . S
C125 C124 1.339 . S
C125 C126 1.439 . S
C125 H154 0.950 . S
C126 N122 1.383 . S
C126 C125 1.439 . S
C126 C144 1.392 . S
N127 Co111 2.282 . S
N127 C130 1.332 . S
N127 C132 1.332 . S
C128 C129 1.386 . S
C128 C131 1.388 . S
C129 C128 1.386 . S
C129 C130 1.382 . S
C129 H155 0.950 . S
C130 N127 1.332 . S
C130 C129 1.382 . S
C130 H141 0.952 . S
C131 C128 1.388 . S
C131 C132 1.382 . S
C131 H156 0.961 . S
C132 N127 1.332 . S
C132 C131 1.382 . S
C132 H142 0.948 1_545 S
N133 Co111 2.282 . S
N133 C137 1.332 1_545 S
N133 C138 1.332 . S
C134 C135 1.388 1_545 S
C134 C138 1.382 . S
C134 H157 0.950 . S
C135 C134 1.388 1_565 S
C135 C136 1.386 . S
C136 C135 1.386 . S
C136 C137 1.382 . S
C136 H158 0.950 . S
C137 N133 1.332 1_565 S
C137 C136 1.382 . S
C137 H139 0.952 . S
C138 N133 1.332 . S
C138 C134 1.382 . S
C138 H140 0.948 . S
H139 C137 0.952 . S
H140 C138 0.948 . S
H141 C130 0.952 . S
H142 C132 0.948 1_565 S
C143 C109 1.395 . S
C143 C113 1.391 . S
C144 C106 1.389 1_545 S
C144 C126 1.392 . S
C145 C116 1.392 . S
C145 C118 1.389 . S
C146 C121 1.395 . S
C146 C123 1.391 . S
H147 C107 0.951 . S
H148 C108 0.950 . S
H149 C114 0.949 . S
H150 C115 0.950 . S
H151 C119 0.951 . S
H152 C120 0.950 . S
H153 C124 0.949 . S
H154 C125 0.950 . S
H155 C129 0.950 . S
H156 C131 0.961 . S
H157 C134 0.950 . S
H158 C136 0.950 . S
C159 C160 1.443 . S
C159 N163 1.376 . S
C159 C197 1.389 . S
C160 C159 1.443 . S
C160 C161 1.340 . S
C160 H200 0.951 . S
C161 C160 1.340 . S
C161 C162 1.439 . S
C161 H201 0.950 . S
C162 C161 1.439 . S
C162 N163 1.374 . S
C162 C196 1.395 . S
N163 C159 1.376 . S
N163 C162 1.374 . S
N163 Co164 2.008 . S
Co164 N163 2.008 . S
Co164 N165 1.995 . S
Co164 N170 2.008 . S
Co164 N175 1.995 . S
Co164 N180 2.282 . S
Co164 N186 2.282 . S
N165 Co164 1.995 . S
N165 C166 1.376 . S
N165 C169 1.383 . S
C166 N165 1.376 . S
C166 C167 1.446 . S
C166 C196 1.391 . S
C167 C166 1.446 . S
C167 C168 1.339 . S
C167 H202 0.949 . S
C168 C167 1.339 . S
C168 C169 1.439 . S
C168 H203 0.950 . S
C169 N165 1.383 . S
C169 C168 1.439 . S
C169 C198 1.392 . S
N170 Co164 2.008 . S
N170 C171 1.376 . S
N170 C174 1.374 . S
C171 N170 1.376 . S
C171 C172 1.443 . S
C171 C198 1.389 . S
C172 C171 1.443 . S
C172 C173 1.340 . S
C172 H204 0.951 . S
C173 C172 1.340 . S
C173 C174 1.439 . S
C173 H205 0.950 . S
C174 N170 1.374 . S
C174 C173 1.439 . S
C174 C199 1.395 . S
N175 Co164 1.995 . S
N175 C176 1.376 . S
N175 C179 1.383 . S
C176 N175 1.376 . S
C176 C177 1.446 . S
C176 C199 1.391 . S
C177 C176 1.446 . S
C177 C178 1.339 . S
C177 H206 0.949 . S
C178 C177 1.339 . S
C178 C179 1.439 . S
C178 H207 0.950 . S
C179 N175 1.383 . S
C179 C178 1.439 . S
C179 C197 1.392 . S
N180 Co164 2.282 . S
N180 C183 1.332 . S
N180 C185 1.332 . S
C181 C182 1.386 . S
C181 C184 1.388 . S
C182 C181 1.386 . S
C182 C183 1.382 . S
C182 H208 0.950 . S
C183 N180 1.332 . S
C183 C182 1.382 . S
C183 H194 0.952 . S
C184 C181 1.388 . S
C184 C185 1.382 . S
C184 H209 0.950 . S
C185 N180 1.332 . S
C185 C184 1.382 . S
C185 H195 0.948 . S
N186 Co164 2.282 . S
N186 C190 1.332 . S
N186 C191 1.332 . S
C187 C188 1.388 . S
C187 C191 1.382 . S
C187 H210 0.950 . S
C188 C187 1.388 . S
C188 C189 1.386 . S
C189 C188 1.386 . S
C189 C190 1.382 . S
C189 H211 0.950 . S
C190 N186 1.332 . S
C190 C189 1.382 . S
C190 H192 0.952 . S
C191 N186 1.332 . S
C191 C187 1.382 . S
C191 H193 0.948 . S
H192 C190 0.952 . S
H193 C191 0.948 . S
H194 C183 0.952 . S
H195 C185 0.948 . S
C196 C162 1.395 . S
C196 C166 1.391 . S
C197 C159 1.389 . S
C197 C179 1.392 . S
C198 C169 1.392 . S
C198 C171 1.389 . S
C199 C174 1.395 . S
C199 C176 1.391 . S
H200 C160 0.951 . S
H201 C161 0.950 . S
H202 C167 0.949 . S
H203 C168 0.950 . S
H204 C172 0.951 . S
H205 C173 0.950 . S
H206 C177 0.949 . S
H207 C178 0.950 . S
H208 C182 0.950 . S
H209 C184 0.950 . S
H210 C187 0.950 . S
H211 C189 0.950 . S
C212 C213 1.443 . S
C212 N216 1.376 . S
C212 C250 1.389 1_556 S
C213 C212 1.443 . S
C213 C214 1.340 . S
C213 H253 0.951 . S
C214 C213 1.340 . S
C214 C215 1.439 . S
C214 H254 0.950 . S
C215 C214 1.439 . S
C215 N216 1.374 . S
C215 C249 1.395 . S
N216 C212 1.376 . S
N216 C215 1.374 . S
N216 Co217 2.008 1_556 S
Co217 N216 2.008 1_554 S
Co217 N218 1.995 1_554 S
Co217 N223 2.008 . S
Co217 N228 1.995 . S
Co217 N233 2.282 . S
Co217 N239 2.282 . S
N218 Co217 1.995 1_556 S
N218 C219 1.376 . S
N218 C222 1.383 1_556 S
C219 N218 1.376 . S
C219 C220 1.446 . S
C219 C249 1.391 . S
C220 C219 1.446 . S
C220 C221 1.339 . S
C220 H255 0.949 . S
C221 C220 1.339 . S
C221 C222 1.439 1_556 S
C221 H256 0.950 . S
C222 N218 1.383 1_554 S
C222 C221 1.439 1_554 S
C222 C251 1.392 . S
N223 Co217 2.008 . S
N223 C224 1.376 . S
N223 C227 1.374 . S
C224 N223 1.376 . S
C224 C225 1.443 . S
C224 C251 1.389 . S
C225 C224 1.443 . S
C225 C226 1.340 . S
C225 H257 0.951 . S
C226 C225 1.340 . S
C226 C227 1.439 . S
C226 H258 0.950 . S
C227 N223 1.374 . S
C227 C226 1.439 . S
C227 C252 1.395 . S
N228 Co217 1.995 . S
N228 C229 1.376 . S
N228 C232 1.383 . S
C229 N228 1.376 . S
C229 C230 1.446 . S
C229 C252 1.391 . S
C230 C229 1.446 . S
C230 C231 1.339 . S
C230 H259 0.949 . S
C231 C230 1.339 . S
C231 C232 1.439 . S
C231 H260 0.950 . S
C232 N228 1.383 . S
C232 C231 1.439 . S
C232 C250 1.392 . S
N233 Co217 2.282 . S
N233 C236 1.332 . S
N233 C238 1.332 . S
C234 C235 1.386 . S
C234 C237 1.388 . S
C235 C234 1.386 . S
C235 C236 1.382 . S
C235 H261 0.950 . S
C236 N233 1.332 . S
C236 C235 1.382 . S
C236 H247 0.952 . S
C237 C234 1.388 . S
C237 C238 1.382 . S
C237 H262 0.950 1_554 S
C238 N233 1.332 . S
C238 C237 1.382 . S
C238 H248 0.948 1_554 S
N239 Co217 2.282 . S
N239 C243 1.332 1_554 S
N239 C244 1.332 . S
C240 C241 1.388 1_554 S
C240 C244 1.382 . S
C240 H263 0.950 . S
C241 C240 1.388 1_556 S
C241 C242 1.386 . S
C242 C241 1.386 . S
C242 C243 1.382 . S
C242 H264 0.950 . S
C243 N239 1.332 1_556 S
C243 C242 1.382 . S
C243 H245 0.952 . S
C244 N239 1.332 . S
C244 C240 1.382 . S
C244 H246 0.948 . S
H245 C243 0.952 . S
H246 C244 0.948 . S
H247 C236 0.952 . S
H248 C238 0.948 1_556 S
C249 C215 1.395 . S
C249 C219 1.391 . S
C250 C212 1.389 1_554 S
C250 C232 1.392 . S
C251 C222 1.392 . S
C251 C224 1.389 . S
C252 C227 1.395 . S
C252 C229 1.391 . S
H253 C213 0.951 . S
H254 C214 0.950 . S
H255 C220 0.949 . S
H256 C221 0.950 . S
H257 C225 0.951 . S
H258 C226 0.950 . S
H259 C230 0.949 . S
H260 C231 0.950 . S
H261 C235 0.950 . S
H262 C237 0.950 1_556 S
H263 C240 0.950 . S
H264 C242 0.950 . S
C265 C266 1.443 . S
C265 N269 1.376 . S
C265 C303 1.389 . S
C266 C265 1.443 . S
C266 C267 1.340 . S
C266 H306 0.951 . S
C267 C266 1.340 . S
C267 C268 1.439 . S
C267 H307 0.950 . S
C268 C267 1.439 . S
C268 N269 1.374 . S
C268 C302 1.395 . S
N269 C265 1.376 . S
N269 C268 1.374 . S
N269 Co270 2.008 . S
Co270 N269 2.008 . S
Co270 N271 1.995 . S
Co270 N276 2.008 . S
Co270 N281 1.995 . S
Co270 N286 2.282 . S
Co270 N292 2.282 . S
N271 Co270 1.995 . S
N271 C272 1.376 . S
N271 C275 1.383 . S
C272 N271 1.376 . S
C272 C273 1.446 . S
C272 C302 1.391 . S
C273 C272 1.446 . S
C273 C274 1.339 . S
C273 H308 0.949 . S
C274 C273 1.339 . S
C274 C275 1.439 . S
C274 H309 0.950 . S
C275 N271 1.383 . S
C275 C274 1.439 . S
C275 C304 1.392 . S
N276 Co270 2.008 . S
N276 C277 1.376 . S
N276 C280 1.374 . S
C277 N276 1.376 . S
C277 C278 1.443 . S
C277 C304 1.389 . S
C278 C277 1.443 . S
C278 C279 1.340 . S
C278 H310 0.951 . S
C279 C278 1.340 . S
C279 C280 1.439 . S
C279 H311 0.950 . S
C280 N276 1.374 . S
C280 C279 1.439 . S
C280 C305 1.395 . S
N281 Co270 1.995 . S
N281 C282 1.376 . S
N281 C285 1.383 . S
C282 N281 1.376 . S
C282 C283 1.446 . S
C282 C305 1.391 . S
C283 C282 1.446 . S
C283 C284 1.339 . S
C283 H312 0.949 . S
C284 C283 1.339 . S
C284 C285 1.439 . S
C284 H313 0.950 . S
C285 N281 1.383 . S
C285 C284 1.439 . S
C285 C303 1.392 . S
N286 Co270 2.282 . S
N286 C289 1.332 . S
N286 C291 1.332 . S
C287 C288 1.386 . S
C287 C290 1.388 . S
C288 C287 1.386 . S
C288 C289 1.382 . S
C288 H314 0.950 . S
C289 N286 1.332 . S
C289 C288 1.382 . S
C289 H300 0.952 . S
C290 C287 1.388 . S
C290 C291 1.382 . S
C290 H315 0.950 . S
C291 N286 1.332 . S
C291 C290 1.382 . S
C291 H301 0.948 . S
N292 Co270 2.282 . S
N292 C296 1.332 . S
N292 C297 1.332 . S
C293 C294 1.388 . S
C293 C297 1.382 . S
C293 H316 0.950 . S
C294 C293 1.388 . S
C294 C295 1.386 . S
C295 C294 1.386 . S
C295 C296 1.382 . S
C295 H317 0.950 . S
C296 N292 1.332 . S
C296 C295 1.382 . S
C296 H298 0.952 . S
C297 N292 1.332 . S
C297 C293 1.382 . S
C297 H299 0.948 . S
H298 C296 0.952 . S
H299 C297 0.948 . S
H300 C289 0.952 . S
H301 C291 0.948 . S
C302 C268 1.395 . S
C302 C272 1.391 . S
C303 C265 1.389 . S
C303 C285 1.392 . S
C304 C275 1.392 . S
C304 C277 1.389 . S
C305 C280 1.395 . S
C305 C282 1.391 . S
H306 C266 0.951 . S
H307 C267 0.950 . S
H308 C273 0.949 . S
H309 C274 0.950 . S
H310 C278 0.951 . S
H311 C279 0.950 . S
H312 C283 0.949 . S
H313 C284 0.950 . S
H314 C288 0.950 . S
H315 C290 0.950 . S
H316 C293 0.950 . S
H317 C295 0.950 . S
C318 C319 1.443 . S
C318 N322 1.376 . S
C318 C356 1.389 . S
C319 C318 1.443 . S
C319 C320 1.340 . S
C319 H359 0.951 . S
C320 C319 1.340 . S
C320 C321 1.439 . S
C320 H360 0.950 . S
C321 C320 1.439 . S
C321 N322 1.374 . S
C321 C355 1.395 . S
N322 C318 1.376 . S
N322 C321 1.374 . S
N322 Co323 2.008 . S
Co323 N322 2.008 . S
Co323 N324 1.995 . S
Co323 N329 2.008 . S
Co323 N334 1.995 . S
Co323 N339 2.282 . S
Co323 N345 2.282 . S
N324 Co323 1.995 . S
N324 C325 1.376 . S
N324 C328 1.383 . S
C325 N324 1.376 . S
C325 C326 1.446 . S
C325 C355 1.391 . S
C326 C325 1.446 . S
C326 C327 1.339 . S
C326 H361 0.949 . S
C327 C326 1.339 . S
C327 C328 1.439 . S
C327 H362 0.950 . S
C328 N324 1.383 . S
C328 C327 1.439 . S
C328 C357 1.392 . S
N329 Co323 2.008 . S
N329 C330 1.376 . S
N329 C333 1.374 . S
C330 N329 1.376 . S
C330 C331 1.443 . S
C330 C357 1.389 . S
C331 C330 1.443 . S
C331 C332 1.340 . S
C331 H363 0.951 . S
C332 C331 1.340 . S
C332 C333 1.439 . S
C332 H364 0.950 . S
C333 N329 1.374 . S
C333 C332 1.439 . S
C333 C358 1.395 . S
N334 Co323 1.995 . S
N334 C335 1.376 . S
N334 C338 1.383 . S
C335 N334 1.376 . S
C335 C336 1.446 . S
C335 C358 1.391 . S
C336 C335 1.446 . S
C336 C337 1.339 . S
C336 H365 0.949 . S
C337 C336 1.339 . S
C337 C338 1.439 . S
C337 H366 0.950 . S
C338 N334 1.383 . S
C338 C337 1.439 . S
C338 C356 1.392 . S
N339 Co323 2.282 . S
N339 C342 1.332 . S
N339 C344 1.332 . S
C340 C341 1.386 . S
C340 C343 1.388 . S
C341 C340 1.386 . S
C341 C342 1.382 . S
C341 H367 0.950 . S
C342 N339 1.332 . S
C342 C341 1.382 . S
C342 H353 0.952 . S
C343 C340 1.388 . S
C343 C344 1.382 . S
C343 H368 0.950 . S
C344 N339 1.332 . S
C344 C343 1.382 . S
C344 H354 0.948 . S
N345 Co323 2.282 . S
N345 C349 1.332 . S
N345 C350 1.332 . S
C346 C347 1.388 . S
C346 C350 1.382 . S
C346 H369 0.950 . S
C347 C346 1.388 . S
C347 C348 1.386 . S
C348 C347 1.386 . S
C348 C349 1.382 . S
C348 H370 0.950 . S
C349 N345 1.332 . S
C349 C348 1.382 . S
C349 H351 0.952 . S
C350 N345 1.332 . S
C350 C346 1.382 . S
C350 H352 0.948 . S
H351 C349 0.952 . S
H352 C350 0.948 . S
H353 C342 0.952 . S
H354 C344 0.948 . S
C355 C321 1.395 . S
C355 C325 1.391 . S
C356 C318 1.389 . S
C356 C338 1.392 . S
C357 C328 1.392 . S
C357 C330 1.389 . S
C358 C333 1.395 . S
C358 C335 1.391 . S
H359 C319 0.951 . S
H360 C320 0.950 . S
H361 C326 0.949 . S
H362 C327 0.950 . S
H363 C331 0.951 . S
H364 C332 0.950 . S
H365 C336 0.949 . S
H366 C337 0.950 . S
H367 C341 0.950 . S
H368 C343 0.950 . S
H369 C346 0.950 . S
H370 C348 0.950 . S
C371 C372 1.443 . S
C371 N375 1.376 . S
C371 C409 1.389 . S
C372 C371 1.443 . S
C372 C373 1.340 . S
C372 H412 0.951 . S
C373 C372 1.340 . S
C373 C374 1.439 . S
C373 H413 0.950 . S
C374 C373 1.439 . S
C374 N375 1.374 . S
C374 C408 1.395 . S
N375 C371 1.376 . S
N375 C374 1.374 . S
N375 Co376 2.008 . S
Co376 N375 2.008 . S
Co376 N377 1.995 . S
Co376 N382 2.008 . S
Co376 N387 1.995 . S
Co376 N392 2.282 . S
Co376 N398 2.282 . S
N377 Co376 1.995 . S
N377 C378 1.376 . S
N377 C381 1.383 . S
C378 N377 1.376 . S
C378 C379 1.446 . S
C378 C408 1.391 . S
C379 C378 1.446 . S
C379 C380 1.339 . S
C379 H414 0.949 . S
C380 C379 1.339 . S
C380 C381 1.439 . S
C380 H415 0.950 . S
C381 N377 1.383 . S
C381 C380 1.439 . S
C381 C410 1.392 . S
N382 Co376 2.008 . S
N382 C383 1.376 . S
N382 C386 1.374 . S
C383 N382 1.376 . S
C383 C384 1.443 . S
C383 C410 1.389 . S
C384 C383 1.443 . S
C384 C385 1.340 . S
C384 H416 0.951 . S
C385 C384 1.340 . S
C385 C386 1.439 . S
C385 H417 0.950 . S
C386 N382 1.374 . S
C386 C385 1.439 . S
C386 C411 1.395 . S
N387 Co376 1.995 . S
N387 C388 1.376 . S
N387 C391 1.383 . S
C388 N387 1.376 . S
C388 C389 1.446 . S
C388 C411 1.391 . S
C389 C388 1.446 . S
C389 C390 1.339 . S
C389 H418 0.949 . S
C390 C389 1.339 . S
C390 C391 1.439 . S
C390 H419 0.950 . S
C391 N387 1.383 . S
C391 C390 1.439 . S
C391 C409 1.392 . S
N392 Co376 2.282 . S
N392 C395 1.332 . S
N392 C397 1.332 . S
C393 C394 1.386 . S
C393 C396 1.388 . S
C394 C393 1.386 . S
C394 C395 1.382 . S
C394 H420 0.950 . S
C395 N392 1.332 . S
C395 C394 1.382 . S
C395 H406 0.952 . S
C396 C393 1.388 . S
C396 C397 1.382 . S
C396 H421 0.950 . S
C397 N392 1.332 . S
C397 C396 1.382 . S
C397 H407 0.948 . S
N398 Co376 2.282 . S
N398 C402 1.332 . S
N398 C403 1.332 . S
C399 C400 1.388 . S
C399 C403 1.382 . S
C399 H422 0.950 . S
C400 C399 1.388 . S
C400 C401 1.386 . S
C401 C400 1.386 . S
C401 C402 1.382 . S
C401 H423 0.950 . S
C402 N398 1.332 . S
C402 C401 1.382 . S
C402 H404 0.952 . S
C403 N398 1.332 . S
C403 C399 1.382 . S
C403 H405 0.948 . S
H404 C402 0.952 . S
H405 C403 0.948 . S
H406 C395 0.952 . S
H407 C397 0.948 . S
C408 C374 1.395 . S
C408 C378 1.391 . S
C409 C371 1.389 . S
C409 C391 1.392 . S
C410 C381 1.392 . S
C410 C383 1.389 . S
C411 C386 1.395 . S
C411 C388 1.391 . S
H412 C372 0.951 . S
H413 C373 0.950 . S
H414 C379 0.949 . S
H415 C380 0.950 . S
H416 C384 0.951 . S
H417 C385 0.950 . S
H418 C389 0.949 . S
H419 C390 0.950 . S
H420 C394 0.950 . S
H421 C396 0.950 . S
H422 C399 0.950 . S
H423 C401 0.950 . S
C424 C425 1.443 . S
C424 N428 1.376 . S
C424 C462 1.389 . S
C425 C424 1.443 . S
C425 C426 1.340 . S
C425 H465 0.951 . S
C426 C425 1.340 . S
C426 C427 1.439 . S
C426 H466 0.950 . S
C427 C426 1.439 . S
C427 N428 1.374 . S
C427 C461 1.395 . S
N428 C424 1.376 . S
N428 C427 1.374 . S
N428 Co429 2.008 . S
Co429 N428 2.008 . S
Co429 N430 1.995 . S
Co429 N435 2.008 . S
Co429 N440 1.995 . S
Co429 N445 2.282 . S
Co429 N451 2.282 . S
N430 Co429 1.995 . S
N430 C431 1.376 . S
N430 C434 1.383 . S
C431 N430 1.376 . S
C431 C432 1.446 . S
C431 C461 1.391 . S
C432 C431 1.446 . S
C432 C433 1.339 . S
C432 H467 0.949 . S
C433 C432 1.339 . S
C433 C434 1.439 . S
C433 H468 0.950 . S
C434 N430 1.383 . S
C434 C433 1.439 . S
C434 C463 1.392 . S
N435 Co429 2.008 . S
N435 C436 1.376 . S
N435 C439 1.374 . S
C436 N435 1.376 . S
C436 C437 1.443 . S
C436 C463 1.389 . S
C437 C436 1.443 . S
C437 C438 1.340 . S
C437 H469 0.951 . S
C438 C437 1.340 . S
C438 C439 1.439 . S
C438 H470 0.950 . S
C439 N435 1.374 . S
C439 C438 1.439 . S
C439 C464 1.395 . S
N440 Co429 1.995 . S
N440 C441 1.376 . S
N440 C444 1.383 . S
C441 N440 1.376 . S
C441 C442 1.446 . S
C441 C464 1.391 . S
C442 C441 1.446 . S
C442 C443 1.339 . S
C442 H471 0.949 . S
C443 C442 1.339 . S
C443 C444 1.439 . S
C443 H472 0.950 . S
C444 N440 1.383 . S
C444 C443 1.439 . S
C444 C462 1.392 . S
N445 Co429 2.282 . S
N445 C448 1.332 . S
N445 C450 1.332 . S
C446 C447 1.386 . S
C446 C449 1.388 . S
C447 C446 1.386 . S
C447 C448 1.382 . S
C447 H473 0.950 . S
C448 N445 1.332 . S
C448 C447 1.382 . S
C448 H459 0.952 . S
C449 C446 1.388 . S
C449 C450 1.382 . S
C449 H474 0.950 . S
C450 N445 1.332 . S
C450 C449 1.382 . S
C450 H460 0.948 . S
N451 Co429 2.282 . S
N451 C455 1.332 . S
N451 C456 1.332 . S
C452 C453 1.388 . S
C452 C456 1.382 . S
C452 H475 0.950 . S
C453 C452 1.388 . S
C453 C454 1.386 . S
C454 C453 1.386 . S
C454 C455 1.382 . S
C454 H476 0.950 . S
C455 N451 1.332 . S
C455 C454 1.382 . S
C455 H457 0.952 . S
C456 N451 1.332 . S
C456 C452 1.382 . S
C456 H458 0.948 . S
H457 C455 0.952 . S
H458 C456 0.948 . S
H459 C448 0.952 . S
H460 C450 0.948 . S
C461 C427 1.395 . S
C461 C431 1.391 . S
C462 C424 1.389 . S
C462 C444 1.392 . S
C463 C434 1.392 . S
C463 C436 1.389 . S
C464 C439 1.395 . S
C464 C441 1.391 . S
H465 C425 0.951 . S
H466 C426 0.950 . S
H467 C432 0.949 . S
H468 C433 0.950 . S
H469 C437 0.951 . S
H470 C438 0.950 . S
H471 C442 0.949 . S
H472 C443 0.950 . S
H473 C447 0.950 . S
H474 C449 0.950 . S
H475 C452 0.950 . S
H476 C454 0.950 . S
C477 C478 1.443 . S
C477 N481 1.376 . S
C477 C515 1.389 . S
C478 C477 1.443 . S
C478 C479 1.340 . S
C478 H518 0.951 . S
C479 C478 1.340 . S
C479 C480 1.439 . S
C479 H519 0.950 . S
C480 C479 1.439 . S
C480 N481 1.374 . S
C480 C514 1.395 . S
N481 C477 1.376 . S
N481 C480 1.374 . S
N481 Co482 2.008 . S
Co482 N481 2.008 . S
Co482 N483 1.995 . S
Co482 N488 2.008 . S
Co482 N493 1.995 . S
Co482 N498 2.282 . S
Co482 N504 2.282 . S
N483 Co482 1.995 . S
N483 C484 1.376 . S
N483 C487 1.383 . S
C484 N483 1.376 . S
C484 C485 1.446 . S
C484 C514 1.391 . S
C485 C484 1.446 . S
C485 C486 1.339 . S
C485 H520 0.949 . S
C486 C485 1.339 . S
C486 C487 1.439 . S
C486 H521 0.950 . S
C487 N483 1.383 . S
C487 C486 1.439 . S
C487 C516 1.392 . S
N488 Co482 2.008 . S
N488 C489 1.376 . S
N488 C492 1.374 . S
C489 N488 1.376 . S
C489 C490 1.443 . S
C489 C516 1.389 . S
C490 C489 1.443 . S
C490 C491 1.340 . S
C490 H522 0.951 . S
C491 C490 1.340 . S
C491 C492 1.439 . S
C491 H523 0.950 . S
C492 N488 1.374 . S
C492 C491 1.439 . S
C492 C517 1.395 . S
N493 Co482 1.995 . S
N493 C494 1.376 . S
N493 C497 1.383 . S
C494 N493 1.376 . S
C494 C495 1.446 . S
C494 C517 1.391 . S
C495 C494 1.446 . S
C495 C496 1.339 . S
C495 H524 0.949 . S
C496 C495 1.339 . S
C496 C497 1.439 . S
C496 H525 0.950 . S
C497 N493 1.383 . S
C497 C496 1.439 . S
C497 C515 1.392 . S
N498 Co482 2.282 . S
N498 C501 1.332 . S
N498 C503 1.332 . S
C499 C500 1.386 . S
C499 C502 1.388 . S
C500 C499 1.386 . S
C500 C501 1.382 . S
C500 H526 0.950 . S
C501 N498 1.332 . S
C501 C500 1.382 . S
C501 H512 0.952 . S
C502 C499 1.388 . S
C502 C503 1.382 . S
C502 H527 0.950 . S
C503 N498 1.332 . S
C503 C502 1.382 . S
C503 H513 0.948 . S
N504 Co482 2.282 . S
N504 C508 1.332 . S
N504 C509 1.332 . S
C505 C506 1.388 . S
C505 C509 1.382 . S
C505 H528 0.950 . S
C506 C505 1.388 . S
C506 C507 1.386 . S
C507 C506 1.386 . S
C507 C508 1.382 . S
C507 H529 0.950 . S
C508 N504 1.332 . S
C508 C507 1.382 . S
C508 H510 0.952 . S
C509 N504 1.332 . S
C509 C505 1.382 . S
C509 H511 0.948 . S
H510 C508 0.952 . S
H511 C509 0.948 . S
H512 C501 0.952 . S
H513 C503 0.948 . S
C514 C480 1.395 . S
C514 C484 1.391 . S
C515 C477 1.389 . S
C515 C497 1.392 . S
C516 C487 1.392 . S
C516 C489 1.389 . S
C517 C492 1.395 . S
C517 C494 1.391 . S
H518 C478 0.951 . S
H519 C479 0.950 . S
H520 C485 0.949 . S
H521 C486 0.950 . S
H522 C490 0.951 . S
H523 C491 0.950 . S
H524 C495 0.949 . S
H525 C496 0.950 . S
H526 C500 0.950 . S
H527 C502 0.950 . S
H528 C505 0.950 . S
H529 C507 0.950 . S
C530 C531 1.443 . S
C530 N534 1.376 . S
C530 C568 1.389 . S
C531 C530 1.443 . S
C531 C532 1.340 . S
C531 H571 0.951 . S
C532 C531 1.340 . S
C532 C533 1.439 . S
C532 H572 0.950 . S
C533 C532 1.439 . S
C533 N534 1.374 . S
C533 C567 1.395 . S
N534 C530 1.376 . S
N534 C533 1.374 . S
N534 Co535 2.008 . S
Co535 N534 2.008 . S
Co535 N536 1.995 . S
Co535 N541 2.008 1_545 S
Co535 N546 1.995 1_545 S
Co535 N551 2.282 . S
Co535 N557 2.282 . S
N536 Co535 1.995 . S
N536 C537 1.376 . S
N536 C540 1.383 . S
C537 N536 1.376 . S
C537 C538 1.446 . S
C537 C567 1.391 . S
C538 C537 1.446 . S
C538 C539 1.339 . S
C538 H573 0.949 . S
C539 C538 1.339 . S
C539 C540 1.439 . S
C539 H574 0.950 . S
C540 N536 1.383 . S
C540 C539 1.439 . S
C540 C569 1.392 1_545 S
N541 Co535 2.008 1_565 S
N541 C542 1.376 . S
N541 C545 1.374 . S
C542 N541 1.376 . S
C542 C543 1.443 . S
C542 C569 1.389 . S
C543 C542 1.443 . S
C543 C544 1.340 . S
C543 H575 0.951 . S
C544 C543 1.340 . S
C544 C545 1.439 . S
C544 H576 0.950 . S
C545 N541 1.374 . S
C545 C544 1.439 . S
C545 C570 1.395 . S
N546 Co535 1.995 1_565 S
N546 C547 1.376 . S
N546 C550 1.374 1_565 S
C547 N546 1.376 . S
C547 C548 1.446 . S
C547 C570 1.391 . S
C548 C547 1.446 . S
C548 C549 1.339 . S
C548 H577 0.949 . S
C549 C548 1.339 . S
C549 C550 1.420 1_565 S
C549 H578 0.950 . S
C550 N546 1.374 1_545 S
C550 C549 1.420 1_545 S
C550 C568 1.416 . S
N551 Co535 2.282 . S
N551 C554 1.332 1_545 S
N551 C556 1.332 . S
C552 C553 1.386 . S
C552 C555 1.388 1_565 S
C553 C552 1.386 . S
C553 C554 1.382 . S
C553 H579 0.950 . S
C554 N551 1.332 1_565 S
C554 C553 1.382 . S
C554 H565 0.952 . S
C555 C552 1.388 1_545 S
C555 C556 1.382 . S
C555 H580 0.950 . S
C556 N551 1.332 . S
C556 C555 1.382 . S
C556 H566 0.948 . S
N557 Co535 2.282 . S
N557 C561 1.332 . S
N557 C562 1.332 . S
C558 C559 1.388 . S
C558 C562 1.382 . S
C558 H581 0.950 1_545 S
C559 C558 1.388 . S
C559 C560 1.386 . S
C560 C559 1.386 . S
C560 C561 1.382 . S
C560 H582 0.950 . S
C561 N557 1.332 . S
C561 C560 1.382 . S
C561 H563 0.952 . S
C562 N557 1.332 . S
C562 C558 1.382 . S
C562 H564 0.948 1_545 S
H563 C561 0.952 . S
H564 C562 0.948 1_565 S
H565 C554 0.952 . S
H566 C556 0.948 . S
C567 C533 1.395 . S
C567 C537 1.391 . S
C568 C530 1.389 . S
C568 C550 1.416 . S
C569 C540 1.392 1_565 S
C569 C542 1.389 . S
C570 C545 1.395 . S
C570 C547 1.391 . S
H571 C531 0.951 . S
H572 C532 0.950 . S
H573 C538 0.949 . S
H574 C539 0.950 . S
H575 C543 0.951 . S
H576 C544 0.950 . S
H577 C548 0.949 . S
H578 C549 0.950 . S
H579 C553 0.950 . S
H580 C555 0.950 . S
H581 C558 0.950 1_565 S
H582 C560 0.950 . S
C583 C584 1.443 . S
C583 N587 1.376 . S
C583 C621 1.361 1_556 S
C584 C583 1.443 . S
C584 C585 1.340 . S
C584 H624 0.951 . S
C585 C584 1.340 . S
C585 C586 1.439 . S
C585 H625 0.950 . S
C586 C585 1.439 . S
C586 N587 1.374 . S
C586 C620 1.395 . S
N587 C583 1.376 . S
N587 C586 1.374 . S
N587 Co588 2.008 1_556 S
Co588 N587 2.008 1_554 S
Co588 N589 1.995 1_554 S
Co588 N594 2.008 . S
Co588 N599 1.995 . S
Co588 N604 2.282 . S
Co588 N610 2.282 . S
N589 Co588 1.995 1_556 S
N589 C590 1.376 . S
N589 C593 1.383 1_556 S
C590 N589 1.376 . S
C590 C591 1.446 . S
C590 C620 1.391 . S
C591 C590 1.446 . S
C591 C592 1.339 . S
C591 H626 0.949 . S
C592 C591 1.339 . S
C592 C593 1.439 1_556 S
C592 H627 0.950 . S
C593 N589 1.383 1_554 S
C593 C592 1.439 1_554 S
C593 C622 1.392 . S
N594 Co588 2.008 . S
N594 C595 1.376 . S
N594 C598 1.374 . S
C595 N594 1.376 . S
C595 C596 1.443 . S
C595 C622 1.389 . S
C596 C595 1.443 . S
C596 C597 1.340 . S
C596 H628 0.951 . S
C597 C596 1.340 . S
C597 C598 1.439 . S
C597 H629 0.950 . S
C598 N594 1.374 . S
C598 C597 1.439 . S
C598 C623 1.395 . S
N599 Co588 1.995 . S
N599 C600 1.376 . S
N599 C603 1.383 . S
C600 N599 1.376 . S
C600 C601 1.446 . S
C600 C623 1.391 . S
C601 C600 1.446 . S
C601 C602 1.339 . S
C601 H630 0.949 . S
C602 C601 1.339 . S
C602 C603 1.439 . S
C602 H631 0.950 . S
C603 N599 1.383 . S
C603 C602 1.439 . S
C603 C621 1.427 . S
N604 Co588 2.282 . S
N604 C607 1.332 . S
N604 C609 1.369 . S
C605 C606 1.386 . S
C605 C608 1.388 . S
C606 C605 1.386 . S
C606 C607 1.382 . S
C606 H632 0.950 . S
C607 N604 1.332 . S
C607 C606 1.382 . S
C607 H618 0.952 . S
C608 C605 1.388 . S
C608 C609 1.395 . S
C608 H633 0.950 1_554 S
C609 N604 1.369 . S
C609 C608 1.395 . S
C609 H619 0.898 1_554 S
N610 Co588 2.282 . S
N610 C614 1.332 1_554 S
N610 C615 1.332 . S
C611 C612 1.359 1_554 S
C611 C615 1.382 . S
C611 H634 0.950 . S
C612 C611 1.359 1_556 S
C612 C613 1.407 . S
C613 C612 1.407 . S
C613 C614 1.382 . S
C613 H635 0.950 . S
C614 N610 1.332 1_556 S
C614 C613 1.382 . S
C614 H616 0.952 . S
C615 N610 1.332 . S
C615 C611 1.382 . S
C615 H617 0.948 . S
H616 C614 0.952 . S
H617 C615 0.948 . S
H618 C607 0.952 . S
H619 C609 0.898 1_556 S
C620 C586 1.395 . S
C620 C590 1.391 . S
C621 C583 1.361 1_554 S
C621 C603 1.427 . S
C622 C593 1.392 . S
C622 C595 1.389 . S
C623 C598 1.395 . S
C623 C600 1.391 . S
H624 C584 0.951 . S
H625 C585 0.950 . S
H626 C591 0.949 . S
H627 C592 0.950 . S
H628 C596 0.951 . S
H629 C597 0.950 . S
H630 C601 0.949 . S
H631 C602 0.950 . S
H632 C606 0.950 . S
H633 C608 0.950 1_556 S
H634 C611 0.950 . S
H635 C613 0.950 . S
Co636 N641 2.057 . S
Co636 O653 2.021 . S
Co636 O656 2.062 . S
Co636 O660 2.117 . S
Co636 O661 2.020 . S
C637 O657 1.259 . S
C637 O660 1.258 . S
Co638 N647 2.057 . S
Co638 O654 2.117 . S
Co638 O655 2.020 . S
Co638 O657 2.021 . S
Co638 O662 2.062 . S
C639 N641 1.316 . S
C639 N642 1.347 1_545 S
C639 H644 0.931 1_545 S
C640 N641 1.375 . S
C640 C643 1.403 . S
C640 H645 0.930 . S
N641 Co636 2.057 . S
N641 C639 1.316 . S
N641 C640 1.375 . S
N642 C639 1.347 1_565 S
N642 C643 1.343 1_565 S
C643 C640 1.403 . S
C643 N642 1.343 1_545 S
C643 H664 0.914 1_545 S
H644 C639 0.931 1_565 S
H645 C640 0.930 . S
C646 O653 1.259 . S
C646 O654 1.258 . S
N647 Co638 2.057 . S
N647 C648 1.316 . S
N647 C649 1.375 . S
C648 N647 1.316 . S
C648 N650 1.347 . S
C648 H659 0.931 . S
C649 N647 1.375 . S
C649 C651 1.350 . S
C649 H658 0.930 . S
N650 C648 1.347 . S
N650 C651 1.373 . S
C651 C649 1.350 . S
C651 N650 1.373 . S
C651 H665 0.931 1_554 S
C652 O655 1.256 . S
C652 O656 1.255 . S
O653 Co636 2.021 . S
O653 C646 1.259 . S
O654 Co638 2.117 . S
O654 C646 1.258 . S
O655 Co638 2.020 . S
O655 C652 1.256 . S
O656 Co636 2.062 . S
O656 C652 1.255 . S
O657 C637 1.259 . S
O657 Co638 2.021 . S
H658 C649 0.930 . S
H659 C648 0.931 . S
O660 Co636 2.117 . S
O660 C637 1.258 . S
O661 Co636 2.020 . S
O661 C663 1.256 . S
O662 Co638 2.062 . S
O662 C663 1.255 . S
C663 O661 1.256 . S
C663 O662 1.255 . S
H664 C643 0.914 1_565 S
H665 C651 0.931 1_556 S
Co666 N671 2.057 . S
Co666 O683 2.021 . S
Co666 O686 2.062 . S
Co666 O690 2.117 . S
Co666 O691 2.020 . S
C667 O687 1.259 . S
C667 O690 1.258 . S
Co668 N677 2.057 . S
Co668 O684 2.117 . S
Co668 O685 2.020 . S
Co668 O687 2.021 . S
Co668 O692 2.062 . S
C669 N671 1.316 . S
C669 N672 1.347 . S
C669 H674 0.931 . S
C670 N671 1.375 . S
C670 C673 1.350 . S
C670 H675 0.930 . S
N671 Co666 2.057 . S
N671 C669 1.316 . S
N671 C670 1.375 . S
N672 C669 1.347 . S
N672 C673 1.373 . S
C673 C670 1.350 . S
C673 N672 1.373 . S
C673 H694 0.931 . S
H674 C669 0.931 . S
H675 C670 0.930 . S
C676 O683 1.259 . S
C676 O684 1.258 . S
N677 Co668 2.057 . S
N677 C678 1.316 1_554 S
N677 C679 1.375 1_554 S
C678 N677 1.316 1_556 S
C678 N680 1.347 . S
C678 H689 0.931 1_556 S
C679 N677 1.375 1_556 S
C679 C681 1.350 . S
C679 H688 0.930 . S
N680 C678 1.347 . S
N680 C681 1.373 . S
C681 C679 1.350 . S
C681 N680 1.373 . S
C681 H695 0.931 . S
C682 O685 1.256 . S
C682 O686 1.255 . S
O683 Co666 2.021 . S
O683 C676 1.259 . S
O684 Co668 2.117 . S
O684 C676 1.258 . S
O685 Co668 2.020 . S
O685 C682 1.256 . S
O686 Co666 2.062 . S
O686 C682 1.255 . S
O687 C667 1.259 . S
O687 Co668 2.021 . S
H688 C679 0.930 . S
H689 C678 0.931 1_554 S
O690 Co666 2.117 . S
O690 C667 1.258 . S
O691 Co666 2.020 . S
O691 C693 1.256 . S
O692 Co668 2.062 . S
O692 C693 1.255 . S
C693 O691 1.256 . S
C693 O692 1.255 . S
H694 C673 0.931 . S
H695 C681 0.931 . S
Co696 N701 2.057 . S
Co696 O713 2.021 . S
Co696 O716 2.062 . S
Co696 O720 2.117 . S
Co696 O721 2.020 . S
C697 O717 1.259 . S
C697 O720 1.258 . S
Co698 N707 2.057 . S
Co698 O714 2.117 . S
Co698 O715 2.020 . S
Co698 O717 2.021 . S
Co698 O722 2.062 . S
C699 N701 1.316 . S
C699 N702 1.347 . S
C699 H704 0.931 . S
C700 N701 1.375 . S
C700 C703 1.350 . S
C700 H705 0.930 . S
N701 Co696 2.057 . S
N701 C699 1.316 . S
N701 C700 1.375 . S
N702 C699 1.347 . S
N702 C703 1.373 . S
C703 C700 1.350 . S
C703 N702 1.373 . S
C703 H724 0.931 . S
H704 C699 0.931 . S
H705 C700 0.930 . S
C706 O713 1.259 . S
C706 O714 1.258 . S
N707 Co698 2.057 . S
N707 C708 1.316 . S
N707 C709 1.375 . S
C708 N707 1.316 . S
C708 N710 1.347 . S
C708 H719 0.931 . S
C709 N707 1.375 . S
C709 C711 1.350 . S
C709 H718 0.948 . S
N710 C708 1.347 . S
N710 C711 1.373 . S
C711 C709 1.350 . S
C711 N710 1.373 . S
C711 H725 0.931 1_455 S
C712 O715 1.256 . S
C712 O716 1.255 . S
O713 Co696 2.021 . S
O713 C706 1.259 . S
O714 Co698 2.117 . S
O714 C706 1.258 . S
O715 Co698 2.020 . S
O715 C712 1.256 . S
O716 Co696 2.062 . S
O716 C712 1.255 . S
O717 C697 1.259 . S
O717 Co698 2.021 . S
H718 C709 0.948 . S
H719 C708 0.931 . S
O720 Co696 2.117 . S
O720 C697 1.258 . S
O721 Co696 2.020 . S
O721 C723 1.256 . S
O722 Co698 2.062 . S
O722 C723 1.255 . S
C723 O721 1.256 . S
C723 O722 1.255 . S
H724 C703 0.931 . S
H725 C711 0.931 1_655 S
Co726 N731 2.057 . S
Co726 O743 2.021 . S
Co726 O746 2.062 . S
Co726 O750 2.117 . S
Co726 O751 2.020 . S
C727 O747 1.259 . S
C727 O750 1.258 . S
Co728 N737 2.057 . S
Co728 O744 2.117 . S
Co728 O745 2.020 . S
Co728 O747 2.021 . S
Co728 O752 2.062 . S
C729 N731 1.316 . S
C729 N732 1.347 . S
C729 H734 0.931 . S
C730 N731 1.375 . S
C730 C733 1.350 . S
C730 H735 0.930 . S
N731 Co726 2.057 . S
N731 C729 1.316 . S
N731 C730 1.375 . S
N732 C729 1.347 . S
N732 C733 1.373 . S
C733 C730 1.350 . S
C733 N732 1.373 . S
C733 H754 0.931 . S
H734 C729 0.931 . S
H735 C730 0.930 . S
C736 O743 1.259 . S
C736 O744 1.258 . S
N737 Co728 2.057 . S
N737 C738 1.316 . S
N737 C739 1.375 . S
C738 N737 1.316 . S
C738 N740 1.347 . S
C738 H749 0.931 . S
C739 N737 1.375 . S
C739 C741 1.350 . S
C739 H748 0.930 . S
N740 C738 1.347 . S
N740 C741 1.373 . S
C741 C739 1.350 . S
C741 N740 1.373 . S
C741 H755 0.931 . S
C742 O745 1.256 . S
C742 O746 1.255 . S
O743 Co726 2.021 . S
O743 C736 1.259 . S
O744 Co728 2.117 . S
O744 C736 1.258 . S
O745 Co728 2.020 . S
O745 C742 1.256 . S
O746 Co726 2.062 . S
O746 C742 1.255 . S
O747 C727 1.259 . S
O747 Co728 2.021 . S
H748 C739 0.930 . S
H749 C738 0.931 . S
O750 Co726 2.117 . S
O750 C727 1.258 . S
O751 Co726 2.020 . S
O751 C753 1.256 . S
O752 Co728 2.062 . S
O752 C753 1.255 . S
C753 O751 1.256 . S
C753 O752 1.255 . S
H754 C733 0.931 . S
H755 C741 0.931 . S
Co756 N761 2.057 . S
Co756 O773 2.021 . S
Co756 O776 2.062 . S
Co756 O780 2.117 . S
Co756 O781 2.020 . S
C757 O777 1.259 . S
C757 O780 1.258 . S
Co758 N767 2.057 . S
Co758 O774 2.117 . S
Co758 O775 2.020 . S
Co758 O777 2.021 . S
Co758 O782 2.062 . S
C759 N761 1.316 . S
C759 N762 1.347 . S
C759 H764 0.931 . S
C760 N761 1.375 . S
C760 C763 1.350 . S
C760 H765 0.930 . S
N761 Co756 2.057 . S
N761 C759 1.316 . S
N761 C760 1.375 . S
N762 C759 1.347 . S
N762 C763 1.373 . S
C763 C760 1.350 . S
C763 N762 1.373 . S
C763 H784 0.931 . S
H764 C759 0.931 . S
H765 C760 0.930 . S
C766 O773 1.259 . S
C766 O774 1.258 . S
N767 Co758 2.057 . S
N767 C768 1.316 . S
N767 C769 1.375 . S
C768 N767 1.316 . S
C768 N770 1.347 . S
C768 H779 0.931 . S
C769 N767 1.375 . S
C769 C771 1.350 . S
C769 H778 0.930 . S
N770 C768 1.347 . S
N770 C771 1.373 . S
C771 C769 1.350 . S
C771 N770 1.373 . S
C771 H785 0.931 . S
C772 O775 1.256 . S
C772 O776 1.255 . S
O773 Co756 2.021 . S
O773 C766 1.259 . S
O774 Co758 2.117 . S
O774 C766 1.258 . S
O775 Co758 2.020 . S
O775 C772 1.256 . S
O776 Co756 2.062 . S
O776 C772 1.255 . S
O777 C757 1.259 . S
O777 Co758 2.021 . S
H778 C769 0.930 . S
H779 C768 0.931 . S
O780 Co756 2.117 . S
O780 C757 1.258 . S
O781 Co756 2.020 . S
O781 C783 1.256 . S
O782 Co758 2.062 . S
O782 C783 1.255 . S
C783 O781 1.256 . S
C783 O782 1.255 . S
H784 C763 0.931 . S
H785 C771 0.931 . S
Co786 N791 2.057 . S
Co786 O803 2.021 . S
Co786 O806 2.062 . S
Co786 O810 2.117 . S
Co786 O811 2.020 . S
C787 O807 1.259 . S
C787 O810 1.258 . S
Co788 N797 2.057 . S
Co788 O804 2.117 . S
Co788 O805 2.020 . S
Co788 O807 2.021 . S
Co788 O812 2.062 . S
C789 N791 1.316 . S
C789 N792 1.347 . S
C789 H794 0.931 . S
C790 N791 1.375 . S
C790 C793 1.350 . S
C790 H795 0.930 . S
N791 Co786 2.057 . S
N791 C789 1.316 . S
N791 C790 1.375 . S
N792 C789 1.347 . S
N792 C793 1.373 . S
C793 C790 1.350 . S
C793 N792 1.373 . S
C793 H814 0.931 . S
H794 C789 0.931 . S
H795 C790 0.930 . S
C796 O803 1.259 . S
C796 O804 1.258 . S
N797 Co788 2.057 . S
N797 C798 1.316 . S
N797 C799 1.375 . S
C798 N797 1.316 . S
C798 N800 1.347 . S
C798 H809 0.931 . S
C799 N797 1.375 . S
C799 C801 1.350 . S
C799 H808 0.930 . S
N800 C798 1.347 . S
N800 C801 1.373 . S
C801 C799 1.350 . S
C801 N800 1.373 . S
C801 H815 0.931 . S
C802 O805 1.256 . S
C802 O806 1.255 . S
O803 Co786 2.021 . S
O803 C796 1.259 . S
O804 Co788 2.117 . S
O804 C796 1.258 . S
O805 Co788 2.020 . S
O805 C802 1.256 . S
O806 Co786 2.062 . S
O806 C802 1.255 . S
O807 C787 1.259 . S
O807 Co788 2.021 . S
H808 C799 0.930 . S
H809 C798 0.931 . S
O810 Co786 2.117 . S
O810 C787 1.258 . S
O811 Co786 2.020 . S
O811 C813 1.256 . S
O812 Co788 2.062 . S
O812 C813 1.255 . S
C813 O811 1.256 . S
C813 O812 1.255 . S
H814 C793 0.931 . S
H815 C801 0.931 . S
Co816 N821 2.057 . S
Co816 O833 2.021 . S
Co816 O836 2.062 . S
Co816 O840 2.117 . S
Co816 O841 2.020 . S
C817 O837 1.259 . S
C817 O840 1.258 . S
Co818 N827 2.057 . S
Co818 O834 2.117 . S
Co818 O835 2.020 . S
Co818 O837 2.021 . S
Co818 O842 2.062 . S
C819 N821 1.316 1_554 S
C819 N822 1.347 . S
C819 H824 0.931 . S
C820 N821 1.375 . S
C820 C823 1.350 1_556 S
C820 H825 0.930 . S
N821 Co816 2.057 . S
N821 C819 1.316 1_556 S
N821 C820 1.375 . S
N822 C819 1.347 . S
N822 C823 1.373 . S
C823 C820 1.350 1_554 S
C823 N822 1.373 . S
C823 H844 0.931 . S
H824 C819 0.931 . S
H825 C820 0.930 . S
C826 O833 1.259 . S
C826 O834 1.258 . S
N827 Co818 2.057 . S
N827 C828 1.316 . S
N827 C829 1.375 . S
C828 N827 1.316 . S
C828 N830 1.347 . S
C828 H839 0.931 . S
C829 N827 1.375 . S
C829 C831 1.350 . S
C829 H838 0.930 . S
N830 C828 1.347 . S
N830 C831 1.373 . S
C831 C829 1.350 . S
C831 N830 1.373 . S
C831 H845 0.931 . S
C832 O835 1.256 . S
C832 O836 1.255 . S
O833 Co816 2.021 . S
O833 C826 1.259 . S
O834 Co818 2.117 . S
O834 C826 1.258 . S
O835 Co818 2.020 . S
O835 C832 1.256 . S
O836 Co816 2.062 . S
O836 C832 1.255 . S
O837 C817 1.259 . S
O837 Co818 2.021 . S
H838 C829 0.930 . S
H839 C828 0.931 . S
O840 Co816 2.117 . S
O840 C817 1.258 . S
O841 Co816 2.020 . S
O841 C843 1.256 . S
O842 Co818 2.062 . S
O842 C843 1.255 . S
C843 O841 1.256 . S
C843 O842 1.255 . S
H844 C823 0.931 . S
H845 C831 0.931 . S
Co846 N851 2.057 . S
Co846 O863 2.021 . S
Co846 O866 2.062 . S
Co846 O870 2.117 . S
Co846 O871 2.020 . S
C847 O867 1.259 . S
C847 O870 1.258 . S
Co848 N857 2.057 . S
Co848 O864 2.117 . S
Co848 O865 2.020 . S
Co848 O867 2.021 . S
Co848 O872 2.062 . S
C849 N851 1.316 . S
C849 N852 1.347 . S
C849 H854 0.931 . S
C850 N851 1.375 . S
C850 C853 1.350 . S
C850 H855 0.930 . S
N851 Co846 2.057 . S
N851 C849 1.316 . S
N851 C850 1.375 . S
N852 C849 1.347 . S
N852 C853 1.373 . S
C853 C850 1.350 . S
C853 N852 1.373 . S
C853 H874 0.931 . S
H854 C849 0.931 . S
H855 C850 0.930 . S
C856 O863 1.259 . S
C856 O864 1.258 . S
N857 Co848 2.057 . S
N857 C858 1.316 . S
N857 C859 1.375 . S
C858 N857 1.316 . S
C858 N860 1.347 1_545 S
C858 H869 0.931 . S
C859 N857 1.375 . S
C859 C861 1.350 1_545 S
C859 H868 0.930 . S
N860 C858 1.347 1_565 S
N860 C861 1.373 . S
C861 C859 1.350 1_565 S
C861 N860 1.373 . S
C861 H875 0.931 . S
C862 O865 1.256 . S
C862 O866 1.255 . S
O863 Co846 2.021 . S
O863 C856 1.259 . S
O864 Co848 2.117 . S
O864 C856 1.258 . S
O865 Co848 2.020 . S
O865 C862 1.256 . S
O866 Co846 2.062 . S
O866 C862 1.255 . S
O867 C847 1.259 . S
O867 Co848 2.021 . S
H868 C859 0.930 . S
H869 C858 0.931 . S
O870 Co846 2.117 . S
O870 C847 1.258 . S
O871 Co846 2.020 . S
O871 C873 1.256 . S
O872 Co848 2.062 . S
O872 C873 1.255 . S
C873 O871 1.256 . S
C873 O872 1.255 . S
H874 C853 0.931 . S
H875 C861 0.931 . S
H876 C884 0.929 . S
H877 C886 0.930 . S
H878 C888 0.930 . S
H879 C891 0.929 . S
H880 C894 0.930 . S
H881 C896 0.960 1_655 S
H882 C896 0.960 . S
H883 C896 0.960 1_655 S
C884 H876 0.929 . S
C884 C885 1.377 . S
C884 C886 1.384 . S
C885 C884 1.377 . S
C885 C891 1.390 . S
C886 H877 0.930 . S
C886 C884 1.384 . S
C886 C887 1.372 . S
C887 C886 1.372 . S
C887 C888 1.400 . S
C887 C892 1.490 . S
C888 H878 0.930 . S
C888 C887 1.400 . S
C888 C891 1.386 . S
H889 C905 0.923 1_565 S
H890 C906 0.931 . S
C891 H879 0.929 . S
C891 C885 1.390 . S
C891 C888 1.386 . S
C892 C887 1.490 . S
C892 C894 1.395 . S
C892 C895 1.403 . S
H893 C899 0.930 . S
C894 H880 0.930 . S
C894 C892 1.395 . S
C894 C897 1.403 . S
C895 C892 1.403 . S
C895 C896 1.524 . S
C895 C899 1.400 . S
C896 H881 0.960 1_455 S
C896 H882 0.960 . S
C896 H883 0.960 1_455 S
C896 C895 1.524 . S
C897 C894 1.403 . S
C897 C898 1.392 . S
C897 C901 1.495 . S
C898 C897 1.392 . S
C898 C899 1.385 . S
C898 C900 1.478 . S
C899 H893 0.930 . S
C899 C895 1.400 . S
C899 C898 1.385 . S
C900 C898 1.478 . S
C900 C902 1.381 . S
C900 C906 1.383 . S
C901 C897 1.495 . S
C901 H907 0.959 . S
C901 H908 0.961 . S
C901 H909 0.960 . S
C902 C900 1.381 . S
C902 C903 1.394 1_545 S
C902 H910 0.930 . S
C903 C902 1.394 1_565 S
C903 C904 1.383 . S
C903 H911 0.929 . S
C904 C903 1.383 . S
C904 C905 1.360 1_565 S
C905 H889 0.923 1_545 S
C905 C904 1.360 1_545 S
C905 C906 1.403 . S
C906 H890 0.931 . S
C906 C900 1.383 . S
C906 C905 1.403 . S
H907 C901 0.959 . S
H908 C901 0.961 . S
H909 C901 0.960 . S
H910 C902 0.930 . S
H911 C903 0.929 . S
H912 C920 0.929 . S
H913 C922 0.930 . S
H914 C924 0.930 . S
H915 C927 0.929 . S
H916 C930 0.930 . S
H917 C932 0.960 . S
H918 C932 0.960 1_455 S
H919 C932 0.960 . S
C920 H912 0.929 . S
C920 C921 1.377 . S
C920 C922 1.384 . S
C921 C920 1.377 . S
C921 C927 1.390 1_455 S
C922 H913 0.930 . S
C922 C920 1.384 . S
C922 C923 1.372 . S
C923 C922 1.372 . S
C923 C924 1.400 1_455 S
C923 C928 1.490 . S
C924 H914 0.930 . S
C924 C923 1.400 1_655 S
C924 C927 1.386 . S
H925 C941 0.930 . S
H926 C942 0.931 . S
C927 H915 0.929 . S
C927 C921 1.390 1_655 S
C927 C924 1.386 . S
C928 C923 1.490 . S
C928 C930 1.395 . S
C928 C931 1.396 1_455 S
H929 C935 0.930 . S
C930 H916 0.930 . S
C930 C928 1.395 . S
C930 C933 1.403 . S
C931 C928 1.396 1_655 S
C931 C932 1.527 . S
C931 C935 1.403 . S
C932 H917 0.960 . S
C932 H918 0.960 1_655 S
C932 H919 0.960 . S
C932 C931 1.527 . S
C933 C930 1.403 . S
C933 C934 1.392 . S
C933 C937 1.495 . S
C934 C933 1.392 . S
C934 C935 1.385 1_455 S
C934 C936 1.478 1_455 S
C935 H929 0.930 . S
C935 C931 1.403 . S
C935 C934 1.385 1_655 S
C936 C934 1.478 1_655 S
C936 C938 1.385 1_655 S
C936 C942 1.378 . S
C937 C933 1.495 . S
C937 H943 0.959 . S
C937 H944 0.961 . S
C937 H945 0.960 . S
C938 C936 1.385 1_455 S
C938 C939 1.394 . S
C938 H946 0.930 . S
C939 C938 1.394 . S
C939 C940 1.383 1_455 S
C939 H947 0.929 . S
C940 C939 1.383 1_655 S
C940 C941 1.377 . S
C941 H925 0.930 . S
C941 C940 1.377 . S
C941 C942 1.379 . S
C942 H926 0.931 . S
C942 C936 1.378 . S
C942 C941 1.379 . S
H943 C937 0.959 . S
H944 C937 0.961 . S
H945 C937 0.960 . S
H946 C938 0.930 . S
H947 C939 0.929 . S
H948 C956 0.929 . S
H949 C958 0.930 . S
H950 C960 0.930 . S
H951 C963 0.929 . S
H952 C966 0.930 1_655 S
H953 C968 0.960 . S
H954 C968 0.960 . S
H955 C968 0.960 . S
C956 H948 0.929 . S
C956 C957 1.377 . S
C956 C958 1.384 . S
C957 C956 1.377 . S
C957 C963 1.390 . S
C958 H949 0.930 . S
C958 C956 1.384 . S
C958 C959 1.372 . S
C959 C958 1.372 . S
C959 C960 1.400 . S
C959 C964 1.490 . S
C960 H950 0.930 . S
C960 C959 1.400 . S
C960 C963 1.386 . S
H961 C977 0.930 . S
H962 C978 0.931 . S
C963 H951 0.929 . S
C963 C957 1.390 . S
C963 C960 1.386 . S
C964 C959 1.490 . S
C964 C966 1.395 . S
C964 C967 1.403 . S
H965 C971 0.930 . S
C966 H952 0.930 1_455 S
C966 C964 1.395 . S
C966 C969 1.403 . S
C967 C964 1.403 . S
C967 C968 1.524 . S
C967 C971 1.400 . S
C968 H953 0.960 . S
C968 H954 0.960 . S
C968 H955 0.960 . S
C968 C967 1.524 . S
C969 C966 1.403 . S
C969 C970 1.392 . S
C969 C973 1.495 1_455 S
C970 C969 1.392 . S
C970 C971 1.385 . S
C970 C972 1.478 . S
C971 H965 0.930 . S
C971 C967 1.400 . S
C971 C970 1.385 . S
C972 C970 1.478 . S
C972 C974 1.381 . S
C972 C978 1.383 . S
C973 C969 1.495 1_655 S
C973 H979 0.959 . S
C973 H980 0.961 . S
C973 H981 0.960 . S
C974 C972 1.381 . S
C974 C975 1.394 . S
C974 H982 0.930 . S
C975 C974 1.394 . S
C975 C976 1.383 . S
C975 H983 0.929 . S
C976 C975 1.383 . S
C976 C977 1.377 . S
C977 H961 0.930 . S
C977 C976 1.377 . S
C977 C978 1.379 . S
C978 H962 0.931 . S
C978 C972 1.383 . S
C978 C977 1.379 . S
H979 C973 0.959 . S
H980 C973 0.961 . S
H981 C973 0.960 . S
H982 C974 0.930 . S
H983 C975 0.929 . S
H984 C992 0.929 . S
H985 C994 0.930 . S
H986 C996 0.930 . S
H987 C999 0.929 . S
H988 C1002 0.959 . S
H989 C1004 0.960 . S
H990 C1004 0.960 . S
H991 C1004 0.960 . S
C992 H984 0.929 . S
C992 C993 1.377 1_455 S
C992 C994 1.384 . S
C993 C992 1.377 1_655 S
C993 C999 1.390 . S
C994 H985 0.930 . S
C994 C992 1.384 . S
C994 C995 1.372 1_455 S
C995 C994 1.372 1_655 S
C995 C996 1.400 . S
C995 C1000 1.490 . S
C996 H986 0.930 . S
C996 C995 1.400 . S
C996 C999 1.386 . S
H997 C1013 0.930 . S
H998 C1014 0.931 . S
C999 H987 0.929 . S
C999 C993 1.390 . S
C999 C996 1.386 . S
C1000 C995 1.490 . S
C1000 C1002 1.370 1_655 S
C1000 C1003 1.403 . S
H1001 C1007 0.930 . S
C1002 H988 0.959 . S
C1002 C1000 1.370 1_455 S
C1002 C1005 1.402 1_455 S
C1003 C1000 1.403 . S
C1003 C1004 1.524 . S
C1003 C1007 1.400 . S
C1004 H989 0.960 . S
C1004 H990 0.960 . S
C1004 H991 0.960 . S
C1004 C1003 1.524 . S
C1005 C1002 1.402 1_655 S
C1005 C1006 1.392 . S
C1005 C1009 1.495 1_655 S
C1006 C1005 1.392 . S
C1006 C1007 1.385 . S
C1006 C1008 1.478 . S
C1007 H1001 0.930 . S
C1007 C1003 1.400 . S
C1007 C1006 1.385 . S
C1008 C1006 1.478 . S
C1008 C1010 1.381 . S
C1008 C1014 1.383 . S
C1009 C1005 1.495 1_455 S
C1009 H1015 0.959 . S
C1009 H1016 0.961 . S
C1009 H1017 0.960 . S
C1010 C1008 1.381 . S
C1010 C1011 1.394 . S
C1010 H1018 0.930 1_655 S
C1011 C1010 1.394 . S
C1011 C1012 1.383 . S
C1011 H1019 0.907 1_655 S
C1012 C1011 1.383 . S
C1012 C1013 1.377 . S
C1013 H997 0.930 . S
C1013 C1012 1.377 . S
C1013 C1014 1.379 . S
C1014 H998 0.931 . S
C1014 C1008 1.383 . S
C1014 C1013 1.379 . S
H1015 C1009 0.959 . S
H1016 C1009 0.961 . S
H1017 C1009 0.960 . S
H1018 C1010 0.930 1_455 S
H1019 C1011 0.907 1_455 S
H1020 C1028 0.929 . S
H1021 C1030 0.930 . S
H1022 C1032 0.930 . S
H1023 C1035 0.929 . S
H1024 C1038 0.930 . S
H1025 C1040 0.960 . S
H1026 C1040 0.960 . S
H1027 C1040 0.960 . S
C1028 H1020 0.929 . S
C1028 C1029 1.377 . S
C1028 C1030 1.384 . S
C1029 C1028 1.377 . S
C1029 C1035 1.390 . S
C1030 H1021 0.930 . S
C1030 C1028 1.384 . S
C1030 C1031 1.372 . S
C1031 C1030 1.372 . S
C1031 C1032 1.400 . S
C1031 C1036 1.490 . S
C1032 H1022 0.930 . S
C1032 C1031 1.400 . S
C1032 C1035 1.386 . S
H1033 C1049 0.927 . S
H1034 C1050 0.931 . S
C1035 H1023 0.929 . S
C1035 C1029 1.390 . S
C1035 C1032 1.386 . S
C1036 C1031 1.490 . S
C1036 C1038 1.395 . S
C1036 C1039 1.403 . S
H1037 C1043 0.930 . S
C1038 H1024 0.930 . S
C1038 C1036 1.395 . S
C1038 C1041 1.403 . S
C1039 C1036 1.403 . S
C1039 C1040 1.524 . S
C1039 C1043 1.400 . S
C1040 H1025 0.960 . S
C1040 H1026 0.960 . S
C1040 H1027 0.960 . S
C1040 C1039 1.524 . S
C1041 C1038 1.403 . S
C1041 C1042 1.392 . S
C1041 C1045 1.495 . S
C1042 C1041 1.392 . S
C1042 C1043 1.385 . S
C1042 C1044 1.478 . S
C1043 H1037 0.930 . S
C1043 C1039 1.400 . S
C1043 C1042 1.385 . S
C1044 C1042 1.478 . S
C1044 C1046 1.381 . S
C1044 C1050 1.383 . S
C1045 C1041 1.495 . S
C1045 H1051 0.959 . S
C1045 H1052 0.961 . S
C1045 H1053 0.960 . S
C1046 C1044 1.381 . S
C1046 C1047 1.394 . S
C1046 H1054 0.930 . S
C1047 C1046 1.394 . S
C1047 C1048 1.383 1_554 S
C1047 H1055 0.929 . S
C1048 C1047 1.383 1_556 S
C1048 C1049 1.376 . S
C1049 H1033 0.927 . S
C1049 C1048 1.376 . S
C1049 C1050 1.383 1_556 S
C1050 H1034 0.931 . S
C1050 C1044 1.383 . S
C1050 C1049 1.383 1_554 S
H1051 C1045 0.959 . S
H1052 C1045 0.961 . S
H1053 C1045 0.960 . S
H1054 C1046 0.930 . S
H1055 C1047 0.929 . S
H1056 C1064 0.929 . S
H1057 C1066 0.930 . S
H1058 C1068 0.930 . S
H1059 C1071 0.929 . S
H1060 C1074 0.930 . S
H1061 C1076 0.960 . S
H1062 C1076 0.960 . S
H1063 C1076 0.960 . S
C1064 H1056 0.929 . S
C1064 C1065 1.377 . S
C1064 C1066 1.384 . S
C1065 C1064 1.377 . S
C1065 C1071 1.390 . S
C1066 H1057 0.930 . S
C1066 C1064 1.384 . S
C1066 C1067 1.372 . S
C1067 C1066 1.372 . S
C1067 C1068 1.400 . S
C1067 C1072 1.490 . S
C1068 H1058 0.930 . S
C1068 C1067 1.400 . S
C1068 C1071 1.386 . S
H1069 C1085 0.930 . S
H1070 C1086 0.931 . S
C1071 H1059 0.929 . S
C1071 C1065 1.390 . S
C1071 C1068 1.386 . S
C1072 C1067 1.490 . S
C1072 C1074 1.395 . S
C1072 C1075 1.403 . S
H1073 C1079 0.930 . S
C1074 H1060 0.930 . S
C1074 C1072 1.395 . S
C1074 C1077 1.403 . S
C1075 C1072 1.403 . S
C1075 C1076 1.524 . S
C1075 C1079 1.400 . S
C1076 H1061 0.960 . S
C1076 H1062 0.960 . S
C1076 H1063 0.960 . S
C1076 C1075 1.524 . S
C1077 C1074 1.403 . S
C1077 C1078 1.392 . S
C1077 C1081 1.495 . S
C1078 C1077 1.392 . S
C1078 C1079 1.385 . S
C1078 C1080 1.478 . S
C1079 H1073 0.930 . S
C1079 C1075 1.400 . S
C1079 C1078 1.385 . S
C1080 C1078 1.478 . S
C1080 C1082 1.381 . S
C1080 C1086 1.383 . S
C1081 C1077 1.495 . S
C1081 H1087 0.959 . S
C1081 H1088 0.961 . S
C1081 H1089 0.960 . S
C1082 C1080 1.381 . S
C1082 C1083 1.394 . S
C1082 H1090 0.930 . S
C1083 C1082 1.394 . S
C1083 C1084 1.383 . S
C1083 H1091 0.929 . S
C1084 C1083 1.383 . S
C1084 C1085 1.377 . S
C1085 H1069 0.930 . S
C1085 C1084 1.377 . S
C1085 C1086 1.379 . S
C1086 H1070 0.931 . S
C1086 C1080 1.383 . S
C1086 C1085 1.379 . S
H1087 C1081 0.959 . S
H1088 C1081 0.961 . S
H1089 C1081 0.960 . S
H1090 C1082 0.930 . S
H1091 C1083 0.929 . S
H1092 C1100 0.929 . S
H1093 C1102 0.930 . S
H1094 C1104 0.943 . S
H1095 C1107 0.929 . S
H1096 C1110 0.930 . S
H1097 C1112 0.960 . S
H1098 C1112 0.960 . S
H1099 C1112 0.960 . S
C1100 H1092 0.929 . S
C1100 C1101 1.377 . S
C1100 C1102 1.384 . S
C1101 C1100 1.377 . S
C1101 C1107 1.390 1_565 S
C1102 H1093 0.930 . S
C1102 C1100 1.384 . S
C1102 C1103 1.372 . S
C1103 C1102 1.372 . S
C1103 C1104 1.381 1_565 S
C1103 C1108 1.490 . S
C1104 H1094 0.943 . S
C1104 C1103 1.381 1_545 S
C1104 C1107 1.394 . S
H1105 C1121 0.930 . S
H1106 C1122 0.931 1_545 S
C1107 H1095 0.929 . S
C1107 C1101 1.390 1_545 S
C1107 C1104 1.394 . S
C1108 C1103 1.490 . S
C1108 C1110 1.395 1_565 S
C1108 C1111 1.403 . S
H1109 C1115 0.930 . S
C1110 H1096 0.930 . S
C1110 C1108 1.395 1_545 S
C1110 C1113 1.403 . S
C1111 C1108 1.403 . S
C1111 C1112 1.524 . S
C1111 C1115 1.400 . S
C1112 H1097 0.960 . S
C1112 H1098 0.960 . S
C1112 H1099 0.960 . S
C1112 C1111 1.524 . S
C1113 C1110 1.403 . S
C1113 C1114 1.392 1_545 S
C1113 C1117 1.495 . S
C1114 C1113 1.392 1_565 S
C1114 C1115 1.385 . S
C1114 C1116 1.478 . S
C1115 H1109 0.930 . S
C1115 C1111 1.400 . S
C1115 C1114 1.385 . S
C1116 C1114 1.478 . S
C1116 C1118 1.381 . S
C1116 C1122 1.383 . S
C1117 C1113 1.495 . S
C1117 H1123 0.959 . S
C1117 H1124 0.961 . S
C1117 H1125 0.960 . S
C1118 C1116 1.381 . S
C1118 C1119 1.394 . S
C1118 H1126 0.930 . S
C1119 C1118 1.394 . S
C1119 C1120 1.383 . S
C1119 H1127 0.929 . S
C1120 C1119 1.383 . S
C1120 C1121 1.377 . S
C1121 H1105 0.930 . S
C1121 C1120 1.377 . S
C1121 C1122 1.379 . S
C1122 H1106 0.931 1_565 S
C1122 C1116 1.383 . S
C1122 C1121 1.379 . S
H1123 C1117 0.959 . S
H1124 C1117 0.961 . S
H1125 C1117 0.960 . S
H1126 C1118 0.930 . S
H1127 C1119 0.929 . S
H1128 C1136 0.929 . S
H1129 C1138 0.930 . S
H1130 C1140 0.930 . S
H1131 C1143 0.929 . S
H1132 C1146 0.930 . S
H1133 C1148 0.960 . S
H1134 C1148 0.960 . S
H1135 C1148 0.960 . S
C1136 H1128 0.929 . S
C1136 C1137 1.377 . S
C1136 C1138 1.384 . S
C1137 C1136 1.377 . S
C1137 C1143 1.390 . S
C1138 H1129 0.930 . S
C1138 C1136 1.384 . S
C1138 C1139 1.372 . S
C1139 C1138 1.372 . S
C1139 C1140 1.400 . S
C1139 C1144 1.490 . S
C1140 H1130 0.930 . S
C1140 C1139 1.400 . S
C1140 C1143 1.386 . S
H1141 C1157 0.930 . S
H1142 C1158 0.931 . S
C1143 H1131 0.929 . S
C1143 C1137 1.390 . S
C1143 C1140 1.386 . S
C1144 C1139 1.490 . S
C1144 C1146 1.395 . S
C1144 C1147 1.403 . S
H1145 C1151 0.930 . S
C1146 H1132 0.930 . S
C1146 C1144 1.395 . S
C1146 C1149 1.403 . S
C1147 C1144 1.403 . S
C1147 C1148 1.524 . S
C1147 C1151 1.400 . S
C1148 H1133 0.960 . S
C1148 H1134 0.960 . S
C1148 H1135 0.960 . S
C1148 C1147 1.524 . S
C1149 C1146 1.403 . S
C1149 C1150 1.392 . S
C1149 C1153 1.495 . S
C1150 C1149 1.392 . S
C1150 C1151 1.385 . S
C1150 C1152 1.478 . S
C1151 H1145 0.930 . S
C1151 C1147 1.400 . S
C1151 C1150 1.385 . S
C1152 C1150 1.478 . S
C1152 C1154 1.381 . S
C1152 C1158 1.383 . S
C1153 C1149 1.495 . S
C1153 H1159 0.959 . S
C1153 H1160 0.961 . S
C1153 H1161 0.960 . S
C1154 C1152 1.381 . S
C1154 C1155 1.394 . S
C1154 H1162 0.930 . S
C1155 C1154 1.394 . S
C1155 C1156 1.383 . S
C1155 H1163 0.929 . S
C1156 C1155 1.383 . S
C1156 C1157 1.377 . S
C1157 H1141 0.930 . S
C1157 C1156 1.377 . S
C1157 C1158 1.379 . S
C1158 H1142 0.931 . S
C1158 C1152 1.383 . S
C1158 C1157 1.379 . S
H1159 C1153 0.959 . S
H1160 C1153 0.961 . S
H1161 C1153 0.960 . S
H1162 C1154 0.930 . S
H1163 C1155 0.929 . S
H1164 C1172 0.929 . S
H1165 C1174 0.930 . S
H1166 C1176 0.930 . S
H1167 C1179 0.929 . S
H1168 C1182 0.930 . S
H1169 C1184 0.960 . S
H1170 C1184 0.960 . S
H1171 C1184 0.960 1_554 S
C1172 H1164 0.929 . S
C1172 C1173 1.377 . S
C1172 C1174 1.384 . S
C1173 C1172 1.377 . S
C1173 C1179 1.390 . S
C1174 H1165 0.930 . S
C1174 C1172 1.384 . S
C1174 C1175 1.372 . S
C1175 C1174 1.372 . S
C1175 C1176 1.400 . S
C1175 C1180 1.490 . S
C1176 H1166 0.930 . S
C1176 C1175 1.400 . S
C1176 C1179 1.386 . S
H1177 C1193 0.930 . S
H1178 C1194 0.931 . S
C1179 H1167 0.929 . S
C1179 C1173 1.390 . S
C1179 C1176 1.386 . S
C1180 C1175 1.490 . S
C1180 C1182 1.395 . S
C1180 C1183 1.403 . S
H1181 C1187 0.930 . S
C1182 H1168 0.930 . S
C1182 C1180 1.395 . S
C1182 C1185 1.403 . S
C1183 C1180 1.403 . S
C1183 C1184 1.524 1_554 S
C1183 C1187 1.400 . S
C1184 H1169 0.960 . S
C1184 H1170 0.960 . S
C1184 H1171 0.960 1_556 S
C1184 C1183 1.524 1_556 S
C1185 C1182 1.403 . S
C1185 C1186 1.392 . S
C1185 C1189 1.495 . S
C1186 C1185 1.392 . S
C1186 C1187 1.385 . S
C1186 C1188 1.478 . S
C1187 H1181 0.930 . S
C1187 C1183 1.400 . S
C1187 C1186 1.385 . S
C1188 C1186 1.478 . S
C1188 C1190 1.381 . S
C1188 C1194 1.383 . S
C1189 C1185 1.495 . S
C1189 H1195 0.959 . S
C1189 H1196 0.961 . S
C1189 H1197 0.960 . S
C1190 C1188 1.381 . S
C1190 C1191 1.394 . S
C1190 H1198 0.930 . S
C1191 C1190 1.394 . S
C1191 C1192 1.383 . S
C1191 H1199 0.932 1_455 S
C1192 C1191 1.383 . S
C1192 C1193 1.377 . S
C1193 H1177 0.930 . S
C1193 C1192 1.377 . S
C1193 C1194 1.379 . S
C1194 H1178 0.931 . S
C1194 C1188 1.383 . S
C1194 C1193 1.379 . S
H1195 C1189 0.959 . S
H1196 C1189 0.961 . S
H1197 C1189 0.960 . S
H1198 C1190 0.930 . S
H1199 C1191 0.932 1_655 S
H1200 C1208 0.929 . S
H1201 C1210 0.930 . S
H1202 C1212 0.930 . S
H1203 C1215 0.929 . S
H1204 C1218 0.930 . S
H1205 C1220 0.960 . S
H1206 C1220 0.960 . S
H1207 C1220 0.960 . S
C1208 H1200 0.929 . S
C1208 C1209 1.377 . S
C1208 C1210 1.384 . S
C1209 C1208 1.377 . S
C1209 C1215 1.390 . S
C1210 H1201 0.930 . S
C1210 C1208 1.384 . S
C1210 C1211 1.372 . S
C1211 C1210 1.372 . S
C1211 C1212 1.400 . S
C1211 C1216 1.490 . S
C1212 H1202 0.930 . S
C1212 C1211 1.400 . S
C1212 C1215 1.386 . S
H1213 C1229 0.930 . S
H1214 C1230 0.931 . S
C1215 H1203 0.929 . S
C1215 C1209 1.390 . S
C1215 C1212 1.386 . S
C1216 C1211 1.490 . S
C1216 C1218 1.395 . S
C1216 C1219 1.403 . S
H1217 C1223 0.930 . S
C1218 H1204 0.930 . S
C1218 C1216 1.395 . S
C1218 C1221 1.403 . S
C1219 C1216 1.403 . S
C1219 C1220 1.524 . S
C1219 C1223 1.400 . S
C1220 H1205 0.960 . S
C1220 H1206 0.960 . S
C1220 H1207 0.960 . S
C1220 C1219 1.524 . S
C1221 C1218 1.403 . S
C1221 C1222 1.392 . S
C1221 C1225 1.495 . S
C1222 C1221 1.392 . S
C1222 C1223 1.385 . S
C1222 C1224 1.478 . S
C1223 H1217 0.930 . S
C1223 C1219 1.400 . S
C1223 C1222 1.385 . S
C1224 C1222 1.478 . S
C1224 C1226 1.381 . S
C1224 C1230 1.383 . S
C1225 C1221 1.495 . S
C1225 H1231 0.959 . S
C1225 H1232 0.961 . S
C1225 H1233 0.960 . S
C1226 C1224 1.381 . S
C1226 C1227 1.394 . S
C1226 H1234 0.930 . S
C1227 C1226 1.394 . S
C1227 C1228 1.383 . S
C1227 H1235 0.929 . S
C1228 C1227 1.383 . S
C1228 C1229 1.377 . S
C1229 H1213 0.930 . S
C1229 C1228 1.377 . S
C1229 C1230 1.379 . S
C1230 H1214 0.931 . S
C1230 C1224 1.383 . S
C1230 C1229 1.379 . S
H1231 C1225 0.959 . S
H1232 C1225 0.961 . S
H1233 C1225 0.960 . S
H1234 C1226 0.930 . S
H1235 C1227 0.929 . S
H1236 C1244 0.929 . S
H1237 C1246 0.930 . S
H1238 C1248 0.930 . S
H1239 C1251 0.929 . S
H1240 C1254 0.930 . S
H1241 C1256 0.960 . S
H1242 C1256 0.960 . S
H1243 C1256 0.960 . S
C1244 H1236 0.929 . S
C1244 C1245 1.377 . S
C1244 C1246 1.384 . S
C1245 C1244 1.377 . S
C1245 C1251 1.390 . S
C1246 H1237 0.930 . S
C1246 C1244 1.384 . S
C1246 C1247 1.372 . S
C1247 C1246 1.372 . S
C1247 C1248 1.400 . S
C1247 C1252 1.490 . S
C1248 H1238 0.930 . S
C1248 C1247 1.400 . S
C1248 C1251 1.386 . S
H1249 C1265 0.930 . S
H1250 C1266 0.931 . S
C1251 H1239 0.929 . S
C1251 C1245 1.390 . S
C1251 C1248 1.386 . S
C1252 C1247 1.490 . S
C1252 C1254 1.395 . S
C1252 C1255 1.403 . S
H1253 C1259 0.930 . S
C1254 H1240 0.930 . S
C1254 C1252 1.395 . S
C1254 C1257 1.403 . S
C1255 C1252 1.403 . S
C1255 C1256 1.524 . S
C1255 C1259 1.400 . S
C1256 H1241 0.960 . S
C1256 H1242 0.960 . S
C1256 H1243 0.960 . S
C1256 C1255 1.524 . S
C1257 C1254 1.403 . S
C1257 C1258 1.392 . S
C1257 C1261 1.495 . S
C1258 C1257 1.392 . S
C1258 C1259 1.385 . S
C1258 C1260 1.478 . S
C1259 H1253 0.930 . S
C1259 C1255 1.400 . S
C1259 C1258 1.385 . S
C1260 C1258 1.478 . S
C1260 C1262 1.381 . S
C1260 C1266 1.383 . S
C1261 C1257 1.495 . S
C1261 H1267 0.959 . S
C1261 H1268 0.961 . S
C1261 H1269 0.960 . S
C1262 C1260 1.381 . S
C1262 C1263 1.394 . S
C1262 H1270 0.930 . S
C1263 C1262 1.394 . S
C1263 C1264 1.383 . S
C1263 H1271 0.929 . S
C1264 C1263 1.383 . S
C1264 C1265 1.377 . S
C1265 H1249 0.930 . S
C1265 C1264 1.377 . S
C1265 C1266 1.379 . S
C1266 H1250 0.931 . S
C1266 C1260 1.383 . S
C1266 C1265 1.379 . S
H1267 C1261 0.959 . S
H1268 C1261 0.961 . S
H1269 C1261 0.960 . S
H1270 C1262 0.930 . S
H1271 C1263 0.929 . S
H1272 C1280 0.929 . S
H1273 C1282 0.930 . S
H1274 C1284 0.930 . S
H1275 C1287 0.929 . S
H1276 C1290 0.930 . S
H1277 C1292 0.960 . S
H1278 C1292 0.960 . S
H1279 C1292 0.960 . S
C1280 H1272 0.929 . S
C1280 C1281 1.377 . S
C1280 C1282 1.384 . S
C1281 C1280 1.377 . S
C1281 C1287 1.390 . S
C1282 H1273 0.930 . S
C1282 C1280 1.384 . S
C1282 C1283 1.372 . S
C1283 C1282 1.372 . S
C1283 C1284 1.400 . S
C1283 C1288 1.490 . S
C1284 H1274 0.930 . S
C1284 C1283 1.400 . S
C1284 C1287 1.386 . S
H1285 C1301 0.930 . S
H1286 C1302 0.931 . S
C1287 H1275 0.929 . S
C1287 C1281 1.390 . S
C1287 C1284 1.386 . S
C1288 C1283 1.490 . S
C1288 C1290 1.395 . S
C1288 C1291 1.403 . S
H1289 C1295 0.930 . S
C1290 H1276 0.930 . S
C1290 C1288 1.395 . S
C1290 C1293 1.403 . S
C1291 C1288 1.403 . S
C1291 C1292 1.524 . S
C1291 C1295 1.400 . S
C1292 H1277 0.960 . S
C1292 H1278 0.960 . S
C1292 H1279 0.960 . S
C1292 C1291 1.524 . S
C1293 C1290 1.403 . S
C1293 C1294 1.392 . S
C1293 C1297 1.495 . S
C1294 C1293 1.392 . S
C1294 C1295 1.385 . S
C1294 C1296 1.478 . S
C1295 H1289 0.930 . S
C1295 C1291 1.400 . S
C1295 C1294 1.385 . S
C1296 C1294 1.478 . S
C1296 C1298 1.381 . S
C1296 C1302 1.383 . S
C1297 C1293 1.495 . S
C1297 H1303 0.959 . S
C1297 H1304 0.961 . S
C1297 H1305 0.960 . S
C1298 C1296 1.381 . S
C1298 C1299 1.394 . S
C1298 H1306 0.930 . S
C1299 C1298 1.394 . S
C1299 C1300 1.383 . S
C1299 H1307 0.929 . S
C1300 C1299 1.383 . S
C1300 C1301 1.377 . S
C1301 H1285 0.930 . S
C1301 C1300 1.377 . S
C1301 C1302 1.379 . S
C1302 H1286 0.931 . S
C1302 C1296 1.383 . S
C1302 C1301 1.379 . S
H1303 C1297 0.959 . S
H1304 C1297 0.961 . S
H1305 C1297 0.960 . S
H1306 C1298 0.930 . S
H1307 C1299 0.929 . S
H1308 C1316 0.929 . S
H1309 C1318 0.930 . S
H1310 C1320 0.930 . S
H1311 C1323 0.929 . S
H1312 C1326 0.930 . S
H1313 C1328 0.960 . S
H1314 C1328 0.960 . S
H1315 C1328 0.960 . S
C1316 H1308 0.929 . S
C1316 C1317 1.377 . S
C1316 C1318 1.384 . S
C1317 C1316 1.377 . S
C1317 C1323 1.390 . S
C1318 H1309 0.930 . S
C1318 C1316 1.384 . S
C1318 C1319 1.372 . S
C1319 C1318 1.372 . S
C1319 C1320 1.400 . S
C1319 C1324 1.490 . S
C1320 H1310 0.930 . S
C1320 C1319 1.400 . S
C1320 C1323 1.386 . S
H1321 C1337 0.930 . S
H1322 C1338 0.931 . S
C1323 H1311 0.929 . S
C1323 C1317 1.390 . S
C1323 C1320 1.386 . S
C1324 C1319 1.490 . S
C1324 C1326 1.395 . S
C1324 C1327 1.403 . S
H1325 C1331 0.930 . S
C1326 H1312 0.930 . S
C1326 C1324 1.395 . S
C1326 C1329 1.403 . S
C1327 C1324 1.403 . S
C1327 C1328 1.524 . S
C1327 C1331 1.400 . S
C1328 H1313 0.960 . S
C1328 H1314 0.960 . S
C1328 H1315 0.960 . S
C1328 C1327 1.524 . S
C1329 C1326 1.403 . S
C1329 C1330 1.392 . S
C1329 C1333 1.495 . S
C1330 C1329 1.392 . S
C1330 C1331 1.385 . S
C1330 C1332 1.478 . S
C1331 H1325 0.930 . S
C1331 C1327 1.400 . S
C1331 C1330 1.385 . S
C1332 C1330 1.478 . S
C1332 C1334 1.381 . S
C1332 C1338 1.383 . S
C1333 C1329 1.495 . S
C1333 H1339 0.959 . S
C1333 H1340 0.961 . S
C1333 H1341 0.960 . S
C1334 C1332 1.381 . S
C1334 C1335 1.394 . S
C1334 H1342 0.930 . S
C1335 C1334 1.394 . S
C1335 C1336 1.383 . S
C1335 H1343 0.929 . S
C1336 C1335 1.383 . S
C1336 C1337 1.377 . S
C1337 H1321 0.930 . S
C1337 C1336 1.377 . S
C1337 C1338 1.379 . S
C1338 H1322 0.931 . S
C1338 C1332 1.383 . S
C1338 C1337 1.379 . S
H1339 C1333 0.959 . S
H1340 C1333 0.961 . S
H1341 C1333 0.960 . S
H1342 C1334 0.930 . S
H1343 C1335 0.929 . S
H1344 C1352 0.929 . S
H1345 C1354 0.930 . S
H1346 C1356 0.930 . S
H1347 C1359 0.929 . S
H1348 C1362 0.930 . S
H1349 C1364 0.960 . S
H1350 C1364 0.960 . S
H1351 C1364 0.960 . S
C1352 H1344 0.929 . S
C1352 C1353 1.377 . S
C1352 C1354 1.384 . S
C1353 C1352 1.377 . S
C1353 C1359 1.390 . S
C1354 H1345 0.930 . S
C1354 C1352 1.384 . S
C1354 C1355 1.372 . S
C1355 C1354 1.372 . S
C1355 C1356 1.400 . S
C1355 C1360 1.490 . S
C1356 H1346 0.930 . S
C1356 C1355 1.400 . S
C1356 C1359 1.386 . S
H1357 C1373 0.930 . S
H1358 C1374 0.931 . S
C1359 H1347 0.929 . S
C1359 C1353 1.390 . S
C1359 C1356 1.386 . S
C1360 C1355 1.490 . S
C1360 C1362 1.395 . S
C1360 C1363 1.403 . S
H1361 C1367 0.930 . S
C1362 H1348 0.930 . S
C1362 C1360 1.395 . S
C1362 C1365 1.403 . S
C1363 C1360 1.403 . S
C1363 C1364 1.524 . S
C1363 C1367 1.400 . S
C1364 H1349 0.960 . S
C1364 H1350 0.960 . S
C1364 H1351 0.960 . S
C1364 C1363 1.524 . S
C1365 C1362 1.403 . S
C1365 C1366 1.392 . S
C1365 C1369 1.495 . S
C1366 C1365 1.392 . S
C1366 C1367 1.385 . S
C1366 C1368 1.478 . S
C1367 H1361 0.930 . S
C1367 C1363 1.400 . S
C1367 C1366 1.385 . S
C1368 C1366 1.478 . S
C1368 C1370 1.381 . S
C1368 C1374 1.383 . S
C1369 C1365 1.495 . S
C1369 H1375 0.959 . S
C1369 H1376 0.961 . S
C1369 H1377 0.960 . S
C1370 C1368 1.381 . S
C1370 C1371 1.394 . S
C1370 H1378 0.930 . S
C1371 C1370 1.394 . S
C1371 C1372 1.383 . S
C1371 H1379 0.929 . S
C1372 C1371 1.383 . S
C1372 C1373 1.377 . S
C1373 H1357 0.930 . S
C1373 C1372 1.377 . S
C1373 C1374 1.379 . S
C1374 H1358 0.931 . S
C1374 C1368 1.383 . S
C1374 C1373 1.379 . S
H1375 C1369 0.959 . S
H1376 C1369 0.961 . S
H1377 C1369 0.960 . S
H1378 C1370 0.930 . S
H1379 C1371 0.929 . S
H1380 C1388 0.929 . S
H1381 C1390 0.930 . S
H1382 C1392 0.930 . S
H1383 C1395 0.929 . S
H1384 C1398 0.930 . S
H1385 C1400 0.960 . S
H1386 C1400 0.960 . S
H1387 C1400 0.960 . S
C1388 H1380 0.929 . S
C1388 C1389 1.377 . S
C1388 C1390 1.384 . S
C1389 C1388 1.377 . S
C1389 C1395 1.390 . S
C1390 H1381 0.930 . S
C1390 C1388 1.384 . S
C1390 C1391 1.372 . S
C1391 C1390 1.372 . S
C1391 C1392 1.400 . S
C1391 C1396 1.490 . S
C1392 H1382 0.930 . S
C1392 C1391 1.400 . S
C1392 C1395 1.386 . S
H1393 C1409 0.930 . S
H1394 C1410 0.931 . S
C1395 H1383 0.929 . S
C1395 C1389 1.390 . S
C1395 C1392 1.386 . S
C1396 C1391 1.490 . S
C1396 C1398 1.395 . S
C1396 C1399 1.403 . S
H1397 C1403 0.930 . S
C1398 H1384 0.930 . S
C1398 C1396 1.395 . S
C1398 C1401 1.403 . S
C1399 C1396 1.403 . S
C1399 C1400 1.524 . S
C1399 C1403 1.400 . S
C1400 H1385 0.960 . S
C1400 H1386 0.960 . S
C1400 H1387 0.960 . S
C1400 C1399 1.524 . S
C1401 C1398 1.403 . S
C1401 C1402 1.392 . S
C1401 C1405 1.495 . S
C1402 C1401 1.392 . S
C1402 C1403 1.385 . S
C1402 C1404 1.478 . S
C1403 H1397 0.930 . S
C1403 C1399 1.400 . S
C1403 C1402 1.385 . S
C1404 C1402 1.478 . S
C1404 C1406 1.381 . S
C1404 C1410 1.383 . S
C1405 C1401 1.495 . S
C1405 H1411 0.959 . S
C1405 H1412 0.961 . S
C1405 H1413 0.960 . S
C1406 C1404 1.381 . S
C1406 C1407 1.394 . S
C1406 H1414 0.930 . S
C1407 C1406 1.394 . S
C1407 C1408 1.383 . S
C1407 H1415 0.929 . S
C1408 C1407 1.383 . S
C1408 C1409 1.377 . S
C1409 H1393 0.930 . S
C1409 C1408 1.377 . S
C1409 C1410 1.379 . S
C1410 H1394 0.931 . S
C1410 C1404 1.383 . S
C1410 C1409 1.379 . S
H1411 C1405 0.959 . S
H1412 C1405 0.961 . S
H1413 C1405 0.960 . S
H1414 C1406 0.930 . S
H1415 C1407 0.929 . S
H1416 C1424 0.929 . S
H1417 C1426 0.930 . S
H1418 C1428 0.930 . S
H1419 C1431 0.929 . S
H1420 C1434 0.930 . S
H1421 C1436 0.960 . S
H1422 C1436 0.960 . S
H1423 C1436 0.960 . S
C1424 H1416 0.929 . S
C1424 C1425 1.377 . S
C1424 C1426 1.384 . S
C1425 C1424 1.377 . S
C1425 C1431 1.390 . S
C1426 H1417 0.930 . S
C1426 C1424 1.384 . S
C1426 C1427 1.372 . S
C1427 C1426 1.372 . S
C1427 C1428 1.400 . S
C1427 C1432 1.490 . S
C1428 H1418 0.930 . S
C1428 C1427 1.400 . S
C1428 C1431 1.386 . S
H1429 C1445 0.930 . S
H1430 C1446 0.931 . S
C1431 H1419 0.929 . S
C1431 C1425 1.390 . S
C1431 C1428 1.386 . S
C1432 C1427 1.490 . S
C1432 C1434 1.395 . S
C1432 C1435 1.403 . S
H1433 C1439 0.930 . S
C1434 H1420 0.930 . S
C1434 C1432 1.395 . S
C1434 C1437 1.403 . S
C1435 C1432 1.403 . S
C1435 C1436 1.524 . S
C1435 C1439 1.400 . S
C1436 H1421 0.960 . S
C1436 H1422 0.960 . S
C1436 H1423 0.960 . S
C1436 C1435 1.524 . S
C1437 C1434 1.403 . S
C1437 C1438 1.392 . S
C1437 C1441 1.495 . S
C1438 C1437 1.392 . S
C1438 C1439 1.385 . S
C1438 C1440 1.478 . S
C1439 H1433 0.930 . S
C1439 C1435 1.400 . S
C1439 C1438 1.385 . S
C1440 C1438 1.478 . S
C1440 C1442 1.381 . S
C1440 C1446 1.383 . S
C1441 C1437 1.495 . S
C1441 H1447 0.959 . S
C1441 H1448 0.961 . S
C1441 H1449 0.960 . S
C1442 C1440 1.381 . S
C1442 C1443 1.394 . S
C1442 H1450 0.930 . S
C1443 C1442 1.394 . S
C1443 C1444 1.383 1_545 S
C1443 H1451 0.929 1_545 S
C1444 C1443 1.383 1_565 S
C1444 C1445 1.377 . S
C1445 H1429 0.930 . S
C1445 C1444 1.377 . S
C1445 C1446 1.379 1_565 S
C1446 H1430 0.931 . S
C1446 C1440 1.383 . S
C1446 C1445 1.379 1_545 S
H1447 C1441 0.959 . S
H1448 C1441 0.961 . S
H1449 C1441 0.960 . S
H1450 C1442 0.930 . S
H1451 C1443 0.929 1_565 S
H1452 C1460 0.929 . S
H1453 C1462 0.930 . S
H1454 C1464 0.930 . S
H1455 C1467 0.929 . S
H1456 C1470 0.930 . S
H1457 C1472 0.960 . S
H1458 C1472 0.960 . S
H1459 C1472 0.960 . S
C1460 H1452 0.929 . S
C1460 C1461 1.377 . S
C1460 C1462 1.384 . S
C1461 C1460 1.377 . S
C1461 C1467 1.390 . S
C1462 H1453 0.930 . S
C1462 C1460 1.384 . S
C1462 C1463 1.372 . S
C1463 C1462 1.372 . S
C1463 C1464 1.400 . S
C1463 C1468 1.490 . S
C1464 H1454 0.930 . S
C1464 C1463 1.400 . S
C1464 C1467 1.386 . S
H1465 C1481 0.930 . S
H1466 C1482 0.931 . S
C1467 H1455 0.929 . S
C1467 C1461 1.390 . S
C1467 C1464 1.386 . S
C1468 C1463 1.490 . S
C1468 C1470 1.395 . S
C1468 C1471 1.403 . S
H1469 C1475 0.930 . S
C1470 H1456 0.930 . S
C1470 C1468 1.395 . S
C1470 C1473 1.403 . S
C1471 C1468 1.403 . S
C1471 C1472 1.524 . S
C1471 C1475 1.400 . S
C1472 H1457 0.960 . S
C1472 H1458 0.960 . S
C1472 H1459 0.960 . S
C1472 C1471 1.524 . S
C1473 C1470 1.403 . S
C1473 C1474 1.392 . S
C1473 C1477 1.495 . S
C1474 C1473 1.392 . S
C1474 C1475 1.385 . S
C1474 C1476 1.478 . S
C1475 H1469 0.930 . S
C1475 C1471 1.400 . S
C1475 C1474 1.385 . S
C1476 C1474 1.478 . S
C1476 C1478 1.381 . S
C1476 C1482 1.383 . S
C1477 C1473 1.495 . S
C1477 H1483 0.959 . S
C1477 H1484 0.961 . S
C1477 H1485 0.960 . S
C1478 C1476 1.381 . S
C1478 C1479 1.394 . S
C1478 H1486 0.930 . S
C1479 C1478 1.394 . S
C1479 C1480 1.383 . S
C1479 H1487 0.929 . S
C1480 C1479 1.383 . S
C1480 C1481 1.377 . S
C1481 H1465 0.930 . S
C1481 C1480 1.377 . S
C1481 C1482 1.379 . S
C1482 H1466 0.931 . S
C1482 C1476 1.383 . S
C1482 C1481 1.379 . S
H1483 C1477 0.959 . S
H1484 C1477 0.961 . S
H1485 C1477 0.960 . S
H1486 C1478 0.930 . S
H1487 C1479 0.929 . S
H1488 C1496 0.929 . S
H1489 C1498 0.930 . S
H1490 C1500 0.930 . S
H1491 C1503 0.929 . S
H1492 C1506 0.951 . S
H1493 C1508 0.960 . S
H1494 C1508 0.960 . S
H1495 C1508 0.960 . S
C1496 H1488 0.929 . S
C1496 C1497 1.377 1_545 S
C1496 C1498 1.384 . S
C1497 C1496 1.377 1_565 S
C1497 C1503 1.390 . S
C1498 H1489 0.930 . S
C1498 C1496 1.384 . S
C1498 C1499 1.372 1_545 S
C1499 C1498 1.372 1_565 S
C1499 C1500 1.400 . S
C1499 C1504 1.490 . S
C1500 H1490 0.930 . S
C1500 C1499 1.400 . S
C1500 C1503 1.386 . S
H1501 C1517 0.930 . S
H1502 C1518 0.931 . S
C1503 H1491 0.929 . S
C1503 C1497 1.390 . S
C1503 C1500 1.386 . S
C1504 C1499 1.490 . S
C1504 C1506 1.374 1_565 S
C1504 C1507 1.403 . S
H1505 C1511 0.930 . S
C1506 H1492 0.951 . S
C1506 C1504 1.374 1_545 S
C1506 C1509 1.405 1_545 S
C1507 C1504 1.403 . S
C1507 C1508 1.524 . S
C1507 C1511 1.400 . S
C1508 H1493 0.960 . S
C1508 H1494 0.960 . S
C1508 H1495 0.960 . S
C1508 C1507 1.524 . S
C1509 C1506 1.405 1_565 S
C1509 C1510 1.406 . S
C1509 C1513 1.482 1_565 S
C1510 C1509 1.406 . S
C1510 C1511 1.385 . S
C1510 C1512 1.478 . S
C1511 H1505 0.930 . S
C1511 C1507 1.400 . S
C1511 C1510 1.385 . S
C1512 C1510 1.478 . S
C1512 C1514 1.381 . S
C1512 C1518 1.383 . S
C1513 C1509 1.482 1_545 S
C1513 H1519 0.959 . S
C1513 H1520 0.961 . S
C1513 H1521 0.960 . S
C1514 C1512 1.381 . S
C1514 C1515 1.394 . S
C1514 H1522 0.930 1_565 S
C1515 C1514 1.394 . S
C1515 C1516 1.383 . S
C1515 H1523 0.929 . S
C1516 C1515 1.383 . S
C1516 C1517 1.377 . S
C1517 H1501 0.930 . S
C1517 C1516 1.377 . S
C1517 C1518 1.379 . S
C1518 H1502 0.931 . S
C1518 C1512 1.383 . S
C1518 C1517 1.379 . S
H1519 C1513 0.959 . S
H1520 C1513 0.961 . S
H1521 C1513 0.960 . S
H1522 C1514 0.930 1_545 S
H1523 C1515 0.929 . S
H1524 C1532 0.929 . S
H1525 C1534 0.930 . S
H1526 C1536 0.930 . S
H1527 C1539 0.929 . S
H1528 C1542 0.930 . S
H1529 C1544 0.960 . S
H1530 C1544 0.960 . S
H1531 C1544 0.960 . S
C1532 H1524 0.929 . S
C1532 C1533 1.377 . S
C1532 C1534 1.384 . S
C1533 C1532 1.377 . S
C1533 C1539 1.390 . S
C1534 H1525 0.930 . S
C1534 C1532 1.384 . S
C1534 C1535 1.372 . S
C1535 C1534 1.372 . S
C1535 C1536 1.400 . S
C1535 C1540 1.490 . S
C1536 H1526 0.930 . S
C1536 C1535 1.400 . S
C1536 C1539 1.386 . S
H1537 C1553 0.930 . S
H1538 C1554 0.931 . S
C1539 H1527 0.929 . S
C1539 C1533 1.390 . S
C1539 C1536 1.386 . S
C1540 C1535 1.490 . S
C1540 C1542 1.395 . S
C1540 C1543 1.403 . S
H1541 C1547 0.930 . S
C1542 H1528 0.930 . S
C1542 C1540 1.395 . S
C1542 C1545 1.403 . S
C1543 C1540 1.403 . S
C1543 C1544 1.524 . S
C1543 C1547 1.400 . S
C1544 H1529 0.960 . S
C1544 H1530 0.960 . S
C1544 H1531 0.960 . S
C1544 C1543 1.524 . S
C1545 C1542 1.403 . S
C1545 C1546 1.392 . S
C1545 C1549 1.495 . S
C1546 C1545 1.392 . S
C1546 C1547 1.385 . S
C1546 C1548 1.478 . S
C1547 H1541 0.930 . S
C1547 C1543 1.400 . S
C1547 C1546 1.385 . S
C1548 C1546 1.478 . S
C1548 C1550 1.381 . S
C1548 C1554 1.383 . S
C1549 C1545 1.495 . S
C1549 H1555 0.959 . S
C1549 H1556 0.961 . S
C1549 H1557 0.960 . S
C1550 C1548 1.381 . S
C1550 C1551 1.394 . S
C1550 H1558 0.930 . S
C1551 C1550 1.394 . S
C1551 C1552 1.383 . S
C1551 H1559 0.929 . S
C1552 C1551 1.383 . S
C1552 C1553 1.377 . S
C1553 H1537 0.930 . S
C1553 C1552 1.377 . S
C1553 C1554 1.379 . S
C1554 H1538 0.931 . S
C1554 C1548 1.383 . S
C1554 C1553 1.379 . S
H1555 C1549 0.959 . S
H1556 C1549 0.961 . S
H1557 C1549 0.960 . S
H1558 C1550 0.930 . S
H1559 C1551 0.929 . S
H1560 C1568 0.929 . S
H1561 C1570 0.930 . S
H1562 C1572 0.930 . S
H1563 C1575 0.929 . S
H1564 C1578 0.930 . S
H1565 C1580 0.960 . S
H1566 C1580 0.960 . S
H1567 C1580 0.960 . S
C1568 H1560 0.929 . S
C1568 C1569 1.377 . S
C1568 C1570 1.384 . S
C1569 C1568 1.377 . S
C1569 C1575 1.390 . S
C1570 H1561 0.930 . S
C1570 C1568 1.384 . S
C1570 C1571 1.372 . S
C1571 C1570 1.372 . S
C1571 C1572 1.400 . S
C1571 C1576 1.490 . S
C1572 H1562 0.930 . S
C1572 C1571 1.400 . S
C1572 C1575 1.386 . S
H1573 C1589 0.930 . S
H1574 C1590 0.931 . S
C1575 H1563 0.929 . S
C1575 C1569 1.390 . S
C1575 C1572 1.386 . S
C1576 C1571 1.490 . S
C1576 C1578 1.395 . S
C1576 C1579 1.403 . S
H1577 C1583 0.930 . S
C1578 H1564 0.930 . S
C1578 C1576 1.395 . S
C1578 C1581 1.403 . S
C1579 C1576 1.403 . S
C1579 C1580 1.524 . S
C1579 C1583 1.400 . S
C1580 H1565 0.960 . S
C1580 H1566 0.960 . S
C1580 H1567 0.960 . S
C1580 C1579 1.524 . S
C1581 C1578 1.403 . S
C1581 C1582 1.392 . S
C1581 C1585 1.495 . S
C1582 C1581 1.392 . S
C1582 C1583 1.385 . S
C1582 C1584 1.478 . S
C1583 H1577 0.930 . S
C1583 C1579 1.400 . S
C1583 C1582 1.385 . S
C1584 C1582 1.478 . S
C1584 C1586 1.381 . S
C1584 C1590 1.383 . S
C1585 C1581 1.495 . S
C1585 H1591 0.959 . S
C1585 H1592 0.961 . S
C1585 H1593 0.960 . S
C1586 C1584 1.381 . S
C1586 C1587 1.394 . S
C1586 H1594 0.930 . S
C1587 C1586 1.394 . S
C1587 C1588 1.383 . S
C1587 H1595 0.929 . S
C1588 C1587 1.383 . S
C1588 C1589 1.377 . S
C1589 H1573 0.930 . S
C1589 C1588 1.377 . S
C1589 C1590 1.379 . S
C1590 H1574 0.931 . S
C1590 C1584 1.383 . S
C1590 C1589 1.379 . S
H1591 C1585 0.959 . S
H1592 C1585 0.961 . S
H1593 C1585 0.960 . S
H1594 C1586 0.930 . S
H1595 C1587 0.929 . S
H1596 C1604 0.929 . S
H1597 C1606 0.930 . S
H1598 C1608 0.930 . S
H1599 C1611 0.929 . S
H1600 C1614 0.930 . S
H1601 C1616 0.960 . S
H1602 C1616 0.960 . S
H1603 C1616 0.960 . S
C1604 H1596 0.929 . S
C1604 C1605 1.377 . S
C1604 C1606 1.384 . S
C1605 C1604 1.377 . S
C1605 C1611 1.390 . S
C1606 H1597 0.930 . S
C1606 C1604 1.384 . S
C1606 C1607 1.372 . S
C1607 C1606 1.372 . S
C1607 C1608 1.400 . S
C1607 C1612 1.490 . S
C1608 H1598 0.930 . S
C1608 C1607 1.400 . S
C1608 C1611 1.386 . S
H1609 C1625 0.930 . S
H1610 C1626 0.931 . S
C1611 H1599 0.929 . S
C1611 C1605 1.390 . S
C1611 C1608 1.386 . S
C1612 C1607 1.490 . S
C1612 C1614 1.395 . S
C1612 C1615 1.403 . S
H1613 C1619 0.930 . S
C1614 H1600 0.930 . S
C1614 C1612 1.395 . S
C1614 C1617 1.403 . S
C1615 C1612 1.403 . S
C1615 C1616 1.524 . S
C1615 C1619 1.400 . S
C1616 H1601 0.960 . S
C1616 H1602 0.960 . S
C1616 H1603 0.960 . S
C1616 C1615 1.524 . S
C1617 C1614 1.403 . S
C1617 C1618 1.392 . S
C1617 C1621 1.495 . S
C1618 C1617 1.392 . S
C1618 C1619 1.385 . S
C1618 C1620 1.478 . S
C1619 H1613 0.930 . S
C1619 C1615 1.400 . S
C1619 C1618 1.385 . S
C1620 C1618 1.478 . S
C1620 C1622 1.381 . S
C1620 C1626 1.383 . S
C1621 C1617 1.495 . S
C1621 H1627 0.959 . S
C1621 H1628 0.961 . S
C1621 H1629 0.960 . S
C1622 C1620 1.381 . S
C1622 C1623 1.394 . S
C1622 H1630 0.930 . S
C1623 C1622 1.394 . S
C1623 C1624 1.383 . S
C1623 H1631 0.929 . S
C1624 C1623 1.383 . S
C1624 C1625 1.377 . S
C1625 H1609 0.930 . S
C1625 C1624 1.377 . S
C1625 C1626 1.379 . S
C1626 H1610 0.931 . S
C1626 C1620 1.383 . S
C1626 C1625 1.379 . S
H1627 C1621 0.959 . S
H1628 C1621 0.961 . S
H1629 C1621 0.960 . S
H1630 C1622 0.930 . S
H1631 C1623 0.929 . S
H1632 C1640 0.929 . S
H1633 C1642 0.930 . S
H1634 C1644 0.930 . S
H1635 C1647 0.929 . S
H1636 C1650 0.930 . S
H1637 C1652 0.970 . S
H1638 C1652 0.938 1_556 S
H1639 C1652 0.996 . S
C1640 H1632 0.929 . S
C1640 C1641 1.377 . S
C1640 C1642 1.384 . S
C1641 C1640 1.377 . S
C1641 C1647 1.390 1_556 S
C1642 H1633 0.930 . S
C1642 C1640 1.384 . S
C1642 C1643 1.372 . S
C1643 C1642 1.372 . S
C1643 C1644 1.400 1_556 S
C1643 C1648 1.490 . S
C1644 H1634 0.930 . S
C1644 C1643 1.400 1_554 S
C1644 C1647 1.386 . S
H1645 C1661 0.930 . S
H1646 C1662 0.931 . S
C1647 H1635 0.929 . S
C1647 C1641 1.390 1_554 S
C1647 C1644 1.386 . S
C1648 C1643 1.490 . S
C1648 C1650 1.395 . S
C1648 C1651 1.403 . S
H1649 C1655 0.930 . S
C1650 H1636 0.930 . S
C1650 C1648 1.395 . S
C1650 C1653 1.403 . S
C1651 C1648 1.403 . S
C1651 C1652 1.501 1_556 S
C1651 C1655 1.400 . S
C1652 H1637 0.970 . S
C1652 H1638 0.938 1_554 S
C1652 H1639 0.996 . S
C1652 C1651 1.501 1_554 S
C1653 C1650 1.403 . S
C1653 C1654 1.392 . S
C1653 C1657 1.495 . S
C1654 C1653 1.392 . S
C1654 C1655 1.385 . S
C1654 C1656 1.478 . S
C1655 H1649 0.930 . S
C1655 C1651 1.400 . S
C1655 C1654 1.385 . S
C1656 C1654 1.478 . S
C1656 C1658 1.381 . S
C1656 C1662 1.383 . S
C1657 C1653 1.495 . S
C1657 H1663 0.959 . S
C1657 H1664 0.961 . S
C1657 H1665 0.960 . S
C1658 C1656 1.381 . S
C1658 C1659 1.394 . S
C1658 H1666 0.930 . S
C1659 C1658 1.394 . S
C1659 C1660 1.383 . S
C1659 H1667 0.929 . S
C1660 C1659 1.383 . S
C1660 C1661 1.377 . S
C1661 H1645 0.930 . S
C1661 C1660 1.377 . S
C1661 C1662 1.379 . S
C1662 H1646 0.931 . S
C1662 C1656 1.383 . S
C1662 C1661 1.379 . S
H1663 C1657 0.959 . S
H1664 C1657 0.961 . S
H1665 C1657 0.960 . S
H1666 C1658 0.930 . S
H1667 C1659 0.929 . S
H1668 C1676 0.929 . S
H1669 C1678 0.930 . S
H1670 C1680 0.930 . S
H1671 C1683 0.929 1_554 S
H1672 C1686 0.930 . S
H1673 C1688 0.960 . S
H1674 C1688 0.960 . S
H1675 C1688 0.960 . S
C1676 H1668 0.929 . S
C1676 C1677 1.379 . S
C1676 C1678 1.384 . S
C1677 C1676 1.379 . S
C1677 C1683 1.390 . S
C1678 H1669 0.930 . S
C1678 C1676 1.384 . S
C1678 C1679 1.372 . S
C1679 C1678 1.372 . S
C1679 C1680 1.400 . S
C1679 C1684 1.490 . S
C1680 H1670 0.930 . S
C1680 C1679 1.400 . S
C1680 C1683 1.386 . S
H1681 C1697 0.930 . S
H1682 C1698 0.931 . S
C1683 H1671 0.929 1_556 S
C1683 C1677 1.390 . S
C1683 C1680 1.386 . S
C1684 C1679 1.490 . S
C1684 C1686 1.395 1_556 S
C1684 C1687 1.403 . S
H1685 C1691 0.930 . S
C1686 H1672 0.930 . S
C1686 C1684 1.395 1_554 S
C1686 C1689 1.403 . S
C1687 C1684 1.403 . S
C1687 C1688 1.524 . S
C1687 C1691 1.400 . S
C1688 H1673 0.960 . S
C1688 H1674 0.960 . S
C1688 H1675 0.960 . S
C1688 C1687 1.524 . S
C1689 C1686 1.403 . S
C1689 C1690 1.392 1_554 S
C1689 C1693 1.495 . S
C1690 C1689 1.392 1_556 S
C1690 C1691 1.385 . S
C1690 C1692 1.478 . S
C1691 H1685 0.930 . S
C1691 C1687 1.400 . S
C1691 C1690 1.385 . S
C1692 C1690 1.478 . S
C1692 C1694 1.381 . S
C1692 C1698 1.383 . S
C1693 C1689 1.495 . S
C1693 H1699 0.959 . S
C1693 H1700 0.961 . S
C1693 H1701 0.960 . S
C1694 C1692 1.381 . S
C1694 C1695 1.394 . S
C1694 H1702 0.930 . S
C1695 C1694 1.394 . S
C1695 C1696 1.383 . S
C1695 H1703 0.929 . S
C1696 C1695 1.383 . S
C1696 C1697 1.377 . S
C1697 H1681 0.930 . S
C1697 C1696 1.377 . S
C1697 C1698 1.379 . S
C1698 H1682 0.931 . S
C1698 C1692 1.383 . S
C1698 C1697 1.379 . S
H1699 C1693 0.959 . S
H1700 C1693 0.961 . S
H1701 C1693 0.960 . S
H1702 C1694 0.930 . S
H1703 C1695 0.929 . S
H1704 C1712 0.929 . S
H1705 C1714 0.930 . S
H1706 C1716 0.930 . S
H1707 C1719 0.929 . S
H1708 C1722 0.930 . S
H1709 C1724 0.960 . S
H1710 C1724 0.960 . S
H1711 C1724 0.960 . S
C1712 H1704 0.929 . S
C1712 C1713 1.377 . S
C1712 C1714 1.384 . S
C1713 C1712 1.377 . S
C1713 C1719 1.390 . S
C1714 H1705 0.930 . S
C1714 C1712 1.384 . S
C1714 C1715 1.372 . S
C1715 C1714 1.372 . S
C1715 C1716 1.400 . S
C1715 C1720 1.490 . S
C1716 H1706 0.930 . S
C1716 C1715 1.400 . S
C1716 C1719 1.386 . S
H1717 C1733 0.948 . S
H1718 C1734 0.931 . S
C1719 H1707 0.929 . S
C1719 C1713 1.390 . S
C1719 C1716 1.386 . S
C1720 C1715 1.490 . S
C1720 C1722 1.395 . S
C1720 C1723 1.403 . S
H1721 C1727 0.930 . S
C1722 H1708 0.930 . S
C1722 C1720 1.395 . S
C1722 C1725 1.403 . S
C1723 C1720 1.403 . S
C1723 C1724 1.524 . S
C1723 C1727 1.400 . S
C1724 H1709 0.960 . S
C1724 H1710 0.960 . S
C1724 H1711 0.960 . S
C1724 C1723 1.524 . S
C1725 C1722 1.403 . S
C1725 C1726 1.392 . S
C1725 C1729 1.495 . S
C1726 C1725 1.392 . S
C1726 C1727 1.385 . S
C1726 C1728 1.478 . S
C1727 H1721 0.930 . S
C1727 C1723 1.400 . S
C1727 C1726 1.385 . S
C1728 C1726 1.478 . S
C1728 C1730 1.381 . S
C1728 C1734 1.383 . S
C1729 C1725 1.495 . S
C1729 H1735 0.959 . S
C1729 H1736 0.961 1_554 S
C1729 H1737 0.960 . S
C1730 C1728 1.381 . S
C1730 C1731 1.394 . S
C1730 H1738 0.930 . S
C1731 C1730 1.394 . S
C1731 C1732 1.383 1_655 S
C1731 H1739 0.929 . S
C1732 C1731 1.383 1_455 S
C1732 C1733 1.384 . S
C1733 H1717 0.948 . S
C1733 C1732 1.384 . S
C1733 C1734 1.354 1_455 S
C1734 H1718 0.931 . S
C1734 C1728 1.383 . S
C1734 C1733 1.354 1_655 S
H1735 C1729 0.959 . S
H1736 C1729 0.961 1_556 S
H1737 C1729 0.960 . S
H1738 C1730 0.930 . S
H1739 C1731 0.929 . S
H1740 C1748 0.929 . S
H1741 C1750 0.930 . S
H1742 C1752 0.930 . S
H1743 C1755 0.929 . S
H1744 C1758 0.930 . S
H1745 C1760 0.960 . S
H1746 C1760 0.960 . S
H1747 C1760 0.960 . S
C1748 H1740 0.929 . S
C1748 C1749 1.377 . S
C1748 C1750 1.384 . S
C1749 C1748 1.377 . S
C1749 C1755 1.390 . S
C1750 H1741 0.930 . S
C1750 C1748 1.384 . S
C1750 C1751 1.372 . S
C1751 C1750 1.372 . S
C1751 C1752 1.400 . S
C1751 C1756 1.490 . S
C1752 H1742 0.930 . S
C1752 C1751 1.400 . S
C1752 C1755 1.386 . S
H1753 C1769 0.930 . S
H1754 C1770 0.931 . S
C1755 H1743 0.929 . S
C1755 C1749 1.390 . S
C1755 C1752 1.386 . S
C1756 C1751 1.490 . S
C1756 C1758 1.395 . S
C1756 C1759 1.403 . S
H1757 C1763 0.930 . S
C1758 H1744 0.930 . S
C1758 C1756 1.395 . S
C1758 C1761 1.403 . S
C1759 C1756 1.403 . S
C1759 C1760 1.524 . S
C1759 C1763 1.400 . S
C1760 H1745 0.960 . S
C1760 H1746 0.960 . S
C1760 H1747 0.960 . S
C1760 C1759 1.524 . S
C1761 C1758 1.403 . S
C1761 C1762 1.392 . S
C1761 C1765 1.495 . S
C1762 C1761 1.392 . S
C1762 C1763 1.385 . S
C1762 C1764 1.478 . S
C1763 H1757 0.930 . S
C1763 C1759 1.400 . S
C1763 C1762 1.385 . S
C1764 C1762 1.478 . S
C1764 C1766 1.381 . S
C1764 C1770 1.383 . S
C1765 C1761 1.495 . S
C1765 H1771 0.959 . S
C1765 H1772 0.961 . S
C1765 H1773 0.960 . S
C1766 C1764 1.381 . S
C1766 C1767 1.394 . S
C1766 H1774 0.930 . S
C1767 C1766 1.394 . S
C1767 C1768 1.383 . S
C1767 H1775 0.929 . S
C1768 C1767 1.383 . S
C1768 C1769 1.377 . S
C1769 H1753 0.930 . S
C1769 C1768 1.377 . S
C1769 C1770 1.379 . S
C1770 H1754 0.931 . S
C1770 C1764 1.383 . S
C1770 C1769 1.379 . S
H1771 C1765 0.959 . S
H1772 C1765 0.961 . S
H1773 C1765 0.960 . S
H1774 C1766 0.930 . S
H1775 C1767 0.929 . S
H1776 C1784 0.943 . S
H1777 C1786 0.930 . S
H1778 C1788 0.930 . S
H1779 C1791 0.929 . S
H1780 C1794 0.930 . S
H1781 C1796 0.960 . S
H1782 C1796 0.960 . S
H1783 C1796 0.960 . S
C1784 H1776 0.943 . S
C1784 C1785 1.356 1_655 S
C1784 C1786 1.393 . S
C1785 C1784 1.356 1_455 S
C1785 C1791 1.390 . S
C1786 H1777 0.930 . S
C1786 C1784 1.393 . S
C1786 C1787 1.372 1_655 S
C1787 C1786 1.372 1_455 S
C1787 C1788 1.400 . S
C1787 C1792 1.490 1_455 S
C1788 H1778 0.930 . S
C1788 C1787 1.400 . S
C1788 C1791 1.386 . S
H1789 C1805 0.929 1_455 S
H1790 C1806 0.931 1_455 S
C1791 H1779 0.929 . S
C1791 C1785 1.390 . S
C1791 C1788 1.386 . S
C1792 C1787 1.490 1_655 S
C1792 C1794 1.395 1_655 S
C1792 C1795 1.403 . S
H1793 C1799 0.930 . S
C1794 H1780 0.930 . S
C1794 C1792 1.395 1_455 S
C1794 C1797 1.403 . S
C1795 C1792 1.403 . S
C1795 C1796 1.524 . S
C1795 C1799 1.400 . S
C1796 H1781 0.960 . S
C1796 H1782 0.960 . S
C1796 H1783 0.960 . S
C1796 C1795 1.524 . S
C1797 C1794 1.403 . S
C1797 C1798 1.392 1_455 S
C1797 C1801 1.495 . S
C1798 C1797 1.392 1_655 S
C1798 C1799 1.385 . S
C1798 C1800 1.478 . S
C1799 H1793 0.930 . S
C1799 C1795 1.400 . S
C1799 C1798 1.385 . S
C1800 C1798 1.478 . S
C1800 C1802 1.381 . S
C1800 C1806 1.383 . S
C1801 C1797 1.495 . S
C1801 H1807 0.959 . S
C1801 H1808 0.961 . S
C1801 H1809 0.960 . S
C1802 C1800 1.381 . S
C1802 C1803 1.394 . S
C1802 H1810 0.930 . S
C1803 C1802 1.394 . S
C1803 C1804 1.383 . S
C1803 H1811 0.929 . S
C1804 C1803 1.383 . S
C1804 C1805 1.377 . S
C1805 H1789 0.929 1_655 S
C1805 C1804 1.377 . S
C1805 C1806 1.379 . S
C1806 H1790 0.931 1_655 S
C1806 C1800 1.383 . S
C1806 C1805 1.379 . S
H1807 C1801 0.959 . S
H1808 C1801 0.961 . S
H1809 C1801 0.960 . S
H1810 C1802 0.930 . S
H1811 C1803 0.929 . S
H1812 C1820 0.929 1_655 S
H1813 C1822 0.930 1_655 S
H1814 C1824 0.930 . S
H1815 C1827 0.929 . S
H1816 C1830 0.930 . S
H1817 C1832 0.960 . S
H1818 C1832 0.985 . S
H1819 C1832 0.960 . S
C1820 H1812 0.929 1_455 S
C1820 C1821 1.377 . S
C1820 C1822 1.384 . S
C1821 C1820 1.377 . S
C1821 C1827 1.390 . S
C1822 H1813 0.930 1_455 S
C1822 C1820 1.384 . S
C1822 C1823 1.372 . S
C1823 C1822 1.372 . S
C1823 C1824 1.400 . S
C1823 C1828 1.490 . S
C1824 H1814 0.930 . S
C1824 C1823 1.400 . S
C1824 C1827 1.386 . S
H1825 C1841 0.930 . S
H1826 C1842 0.931 . S
C1827 H1815 0.929 . S
C1827 C1821 1.390 . S
C1827 C1824 1.386 . S
C1828 C1823 1.490 . S
C1828 C1830 1.395 . S
C1828 C1831 1.403 . S
H1829 C1835 0.930 . S
C1830 H1816 0.930 . S
C1830 C1828 1.395 . S
C1830 C1833 1.403 . S
C1831 C1828 1.403 . S
C1831 C1832 1.524 . S
C1831 C1835 1.400 . S
C1832 H1817 0.960 . S
C1832 H1818 0.985 . S
C1832 H1819 0.960 . S
C1832 C1831 1.524 . S
C1833 C1830 1.403 . S
C1833 C1834 1.392 . S
C1833 C1837 1.495 . S
C1834 C1833 1.392 . S
C1834 C1835 1.385 . S
C1834 C1836 1.478 . S
C1835 H1829 0.930 . S
C1835 C1831 1.400 . S
C1835 C1834 1.385 . S
C1836 C1834 1.478 . S
C1836 C1838 1.381 . S
C1836 C1842 1.383 . S
C1837 C1833 1.495 . S
C1837 H1843 0.959 . S
C1837 H1844 0.961 . S
C1837 H1845 0.960 . S
C1838 C1836 1.381 . S
C1838 C1839 1.394 . S
C1838 H1846 0.930 1_455 S
C1839 C1838 1.394 . S
C1839 C1840 1.383 . S
C1839 H1847 0.929 1_455 S
C1840 C1839 1.383 . S
C1840 C1841 1.377 . S
C1841 H1825 0.930 . S
C1841 C1840 1.377 . S
C1841 C1842 1.379 . S
C1842 H1826 0.931 . S
C1842 C1836 1.383 . S
C1842 C1841 1.379 . S
H1843 C1837 0.959 . S
H1844 C1837 0.961 . S
H1845 C1837 0.960 . S
H1846 C1838 0.930 1_655 S
H1847 C1839 0.929 1_655 S
H1848 C1856 0.929 . S
H1849 C1858 0.930 . S
H1850 C1860 0.930 . S
H1851 C1863 0.929 . S
H1852 C1866 0.930 . S
H1853 C1868 0.960 . S
H1854 C1868 0.960 . S
H1855 C1868 0.960 . S
C1856 H1848 0.929 . S
C1856 C1857 1.377 . S
C1856 C1858 1.384 . S
C1857 C1856 1.377 . S
C1857 C1863 1.390 1_655 S
C1858 H1849 0.930 . S
C1858 C1856 1.384 . S
C1858 C1859 1.372 . S
C1859 C1858 1.372 . S
C1859 C1860 1.400 1_655 S
C1859 C1864 1.490 . S
C1860 H1850 0.930 . S
C1860 C1859 1.400 1_455 S
C1860 C1863 1.386 . S
H1861 C1877 0.930 . S
H1862 C1878 0.931 . S
C1863 H1851 0.929 . S
C1863 C1857 1.390 1_455 S
C1863 C1860 1.386 . S
C1864 C1859 1.490 . S
C1864 C1866 1.395 . S
C1864 C1867 1.421 . S
H1865 C1871 0.930 1_455 S
C1866 H1852 0.930 . S
C1866 C1864 1.395 . S
C1866 C1869 1.403 . S
C1867 C1864 1.421 . S
C1867 C1868 1.503 1_655 S
C1867 C1871 1.404 . S
C1868 H1853 0.960 . S
C1868 H1854 0.960 . S
C1868 H1855 0.960 . S
C1868 C1867 1.503 1_455 S
C1869 C1866 1.403 . S
C1869 C1870 1.392 . S
C1869 C1873 1.495 . S
C1870 C1869 1.392 . S
C1870 C1871 1.385 . S
C1870 C1872 1.478 . S
C1871 H1865 0.930 1_655 S
C1871 C1867 1.404 . S
C1871 C1870 1.385 . S
C1872 C1870 1.478 . S
C1872 C1874 1.381 . S
C1872 C1878 1.383 . S
C1873 C1869 1.495 . S
C1873 H1879 0.959 . S
C1873 H1880 0.961 . S
C1873 H1881 0.960 . S
C1874 C1872 1.381 . S
C1874 C1875 1.394 . S
C1874 H1882 0.930 . S
C1875 C1874 1.394 . S
C1875 C1876 1.383 . S
C1875 H1883 0.929 . S
C1876 C1875 1.383 . S
C1876 C1877 1.377 . S
C1877 H1861 0.930 . S
C1877 C1876 1.377 . S
C1877 C1878 1.379 . S
C1878 H1862 0.931 . S
C1878 C1872 1.383 . S
C1878 C1877 1.379 . S
H1879 C1873 0.959 . S
H1880 C1873 0.961 . S
H1881 C1873 0.960 . S
H1882 C1874 0.930 . S
H1883 C1875 0.929 . S
H1884 C1892 0.929 . S
H1885 C1894 0.930 . S
H1886 C1896 0.930 . S
H1887 C1899 0.929 . S
H1888 C1902 0.930 . S
H1889 C1904 0.960 . S
H1890 C1904 0.960 . S
H1891 C1904 0.960 . S
C1892 H1884 0.929 . S
C1892 C1893 1.377 . S
C1892 C1894 1.384 . S
C1893 C1892 1.377 . S
C1893 C1899 1.390 . S
C1894 H1885 0.930 . S
C1894 C1892 1.384 . S
C1894 C1895 1.372 . S
C1895 C1894 1.372 . S
C1895 C1896 1.400 . S
C1895 C1900 1.490 . S
C1896 H1886 0.930 . S
C1896 C1895 1.400 . S
C1896 C1899 1.386 . S
H1897 C1913 0.930 . S
H1898 C1914 0.931 . S
C1899 H1887 0.929 . S
C1899 C1893 1.390 . S
C1899 C1896 1.386 . S
C1900 C1895 1.490 . S
C1900 C1902 1.395 . S
C1900 C1903 1.403 . S
H1901 C1907 0.930 . S
C1902 H1888 0.930 . S
C1902 C1900 1.395 . S
C1902 C1905 1.403 . S
C1903 C1900 1.403 . S
C1903 C1904 1.524 . S
C1903 C1907 1.400 . S
C1904 H1889 0.960 . S
C1904 H1890 0.960 . S
C1904 H1891 0.960 . S
C1904 C1903 1.524 . S
C1905 C1902 1.403 . S
C1905 C1906 1.392 . S
C1905 C1909 1.495 . S
C1906 C1905 1.392 . S
C1906 C1907 1.385 . S
C1906 C1908 1.478 . S
C1907 H1901 0.930 . S
C1907 C1903 1.400 . S
C1907 C1906 1.385 . S
C1908 C1906 1.478 . S
C1908 C1910 1.381 . S
C1908 C1914 1.383 . S
C1909 C1905 1.495 . S
C1909 H1915 0.959 . S
C1909 H1916 0.961 . S
C1909 H1917 0.960 . S
C1910 C1908 1.381 . S
C1910 C1911 1.394 . S
C1910 H1918 0.930 . S
C1911 C1910 1.394 . S
C1911 C1912 1.383 . S
C1911 H1919 0.929 . S
C1912 C1911 1.383 . S
C1912 C1913 1.377 . S
C1913 H1897 0.930 . S
C1913 C1912 1.377 . S
C1913 C1914 1.379 . S
C1914 H1898 0.931 . S
C1914 C1908 1.383 . S
C1914 C1913 1.379 . S
H1915 C1909 0.959 . S
H1916 C1909 0.961 . S
H1917 C1909 0.960 . S
H1918 C1910 0.930 . S
H1919 C1911 0.929 . S
H1920 C1928 0.929 . S
H1921 C1930 0.930 . S
H1922 C1932 0.930 . S
H1923 C1935 0.929 . S
H1924 C1938 0.930 . S
H1925 C1940 0.960 . S
H1926 C1940 0.960 . S
H1927 C1940 0.960 . S
C1928 H1920 0.929 . S
C1928 C1929 1.377 . S
C1928 C1930 1.384 . S
C1929 C1928 1.377 . S
C1929 C1935 1.390 . S
C1930 H1921 0.930 . S
C1930 C1928 1.384 . S
C1930 C1931 1.372 . S
C1931 C1930 1.372 . S
C1931 C1932 1.400 . S
C1931 C1936 1.490 . S
C1932 H1922 0.930 . S
C1932 C1931 1.400 . S
C1932 C1935 1.386 . S
H1933 C1949 0.930 . S
H1934 C1950 0.931 . S
C1935 H1923 0.929 . S
C1935 C1929 1.390 . S
C1935 C1932 1.386 . S
C1936 C1931 1.490 . S
C1936 C1938 1.395 . S
C1936 C1939 1.403 . S
H1937 C1943 0.930 . S
C1938 H1924 0.930 . S
C1938 C1936 1.395 . S
C1938 C1941 1.403 . S
C1939 C1936 1.403 . S
C1939 C1940 1.524 . S
C1939 C1943 1.400 . S
C1940 H1925 0.960 . S
C1940 H1926 0.960 . S
C1940 H1927 0.960 . S
C1940 C1939 1.524 . S
C1941 C1938 1.403 . S
C1941 C1942 1.392 . S
C1941 C1945 1.495 . S
C1942 C1941 1.392 . S
C1942 C1943 1.385 . S
C1942 C1944 1.478 . S
C1943 H1937 0.930 . S
C1943 C1939 1.400 . S
C1943 C1942 1.385 . S
C1944 C1942 1.478 . S
C1944 C1946 1.381 . S
C1944 C1950 1.383 . S
C1945 C1941 1.495 . S
C1945 H1951 0.959 . S
C1945 H1952 0.961 . S
C1945 H1953 0.960 . S
C1946 C1944 1.381 . S
C1946 C1947 1.394 . S
C1946 H1954 0.930 . S
C1947 C1946 1.394 . S
C1947 C1948 1.383 . S
C1947 H1955 0.929 . S
C1948 C1947 1.383 . S
C1948 C1949 1.377 . S
C1949 H1933 0.930 . S
C1949 C1948 1.377 . S
C1949 C1950 1.379 . S
C1950 H1934 0.931 . S
C1950 C1944 1.383 . S
C1950 C1949 1.379 . S
H1951 C1945 0.959 . S
H1952 C1945 0.961 . S
H1953 C1945 0.960 . S
H1954 C1946 0.930 . S
H1955 C1947 0.929 . S
H1956 C1964 0.929 . S
H1957 C1966 0.930 . S
H1958 C1968 0.930 . S
H1959 C1971 0.929 . S
H1960 C1974 0.930 . S
H1961 C1976 0.960 . S
H1962 C1976 0.960 . S
H1963 C1976 0.960 . S
C1964 H1956 0.929 . S
C1964 C1965 1.377 1_545 S
C1964 C1966 1.384 . S
C1965 C1964 1.377 1_565 S
C1965 C1971 1.390 . S
C1966 H1957 0.930 . S
C1966 C1964 1.384 . S
C1966 C1967 1.372 1_545 S
C1967 C1966 1.372 1_565 S
C1967 C1968 1.400 . S
C1967 C1972 1.490 . S
C1968 H1958 0.930 . S
C1968 C1967 1.400 . S
C1968 C1971 1.386 . S
H1969 C1985 0.930 . S
H1970 C1986 0.931 . S
C1971 H1959 0.929 . S
C1971 C1965 1.390 . S
C1971 C1968 1.386 . S
C1972 C1967 1.490 . S
C1972 C1974 1.395 . S
C1972 C1975 1.403 . S
H1973 C1979 0.930 . S
C1974 H1960 0.930 . S
C1974 C1972 1.395 . S
C1974 C1977 1.403 . S
C1975 C1972 1.403 . S
C1975 C1976 1.524 . S
C1975 C1979 1.400 . S
C1976 H1961 0.960 . S
C1976 H1962 0.960 . S
C1976 H1963 0.960 . S
C1976 C1975 1.524 . S
C1977 C1974 1.403 . S
C1977 C1978 1.392 . S
C1977 C1981 1.495 . S
C1978 C1977 1.392 . S
C1978 C1979 1.385 . S
C1978 C1980 1.478 . S
C1979 H1973 0.930 . S
C1979 C1975 1.400 . S
C1979 C1978 1.385 . S
C1980 C1978 1.478 . S
C1980 C1982 1.381 . S
C1980 C1986 1.383 . S
C1981 C1977 1.495 . S
C1981 H1987 0.959 . S
C1981 H1988 0.961 . S
C1981 H1989 0.960 . S
C1982 C1980 1.381 . S
C1982 C1983 1.394 . S
C1982 H1990 0.930 . S
C1983 C1982 1.394 . S
C1983 C1984 1.383 . S
C1983 H1991 0.929 . S
C1984 C1983 1.383 . S
C1984 C1985 1.377 . S
C1985 H1969 0.930 . S
C1985 C1984 1.377 . S
C1985 C1986 1.379 . S
C1986 H1970 0.931 . S
C1986 C1980 1.383 . S
C1986 C1985 1.379 . S
H1987 C1981 0.959 . S
H1988 C1981 0.961 . S
H1989 C1981 0.960 . S
H1990 C1982 0.930 . S
H1991 C1983 0.929 . S
H1992 C2000 0.929 . S
H1993 C2002 0.930 . S
H1994 C2004 0.930 . S
H1995 C2007 0.929 . S
H1996 C2010 0.930 . S
H1997 C2012 0.960 . S
H1998 C2012 0.960 . S
H1999 C2012 0.960 . S
C2000 H1992 0.929 . S
C2000 C2001 1.377 . S
C2000 C2002 1.384 . S
C2001 C2000 1.377 . S
C2001 C2007 1.390 . S
C2002 H1993 0.930 . S
C2002 C2000 1.384 . S
C2002 C2003 1.372 . S
C2003 C2002 1.372 . S
C2003 C2004 1.400 . S
C2003 C2008 1.490 . S
C2004 H1994 0.930 . S
C2004 C2003 1.400 . S
C2004 C2007 1.386 . S
H2005 C2021 0.930 . S
H2006 C2022 0.931 . S
C2007 H1995 0.929 . S
C2007 C2001 1.390 . S
C2007 C2004 1.386 . S
C2008 C2003 1.490 . S
C2008 C2010 1.395 . S
C2008 C2011 1.403 . S
H2009 C2015 0.930 . S
C2010 H1996 0.930 . S
C2010 C2008 1.395 . S
C2010 C2013 1.403 . S
C2011 C2008 1.403 . S
C2011 C2012 1.524 . S
C2011 C2015 1.400 . S
C2012 H1997 0.960 . S
C2012 H1998 0.960 . S
C2012 H1999 0.960 . S
C2012 C2011 1.524 . S
C2013 C2010 1.403 . S
C2013 C2014 1.392 . S
C2013 C2017 1.495 . S
C2014 C2013 1.392 . S
C2014 C2015 1.385 . S
C2014 C2016 1.478 . S
C2015 H2009 0.930 . S
C2015 C2011 1.400 . S
C2015 C2014 1.385 . S
C2016 C2014 1.478 . S
C2016 C2018 1.381 . S
C2016 C2022 1.383 . S
C2017 C2013 1.495 . S
C2017 H2023 0.959 . S
C2017 H2024 0.961 . S
C2017 H2025 0.960 . S
C2018 C2016 1.381 . S
C2018 C2019 1.394 . S
C2018 H2026 0.930 . S
C2019 C2018 1.394 . S
C2019 C2020 1.383 . S
C2019 H2027 0.929 . S
C2020 C2019 1.383 . S
C2020 C2021 1.377 . S
C2021 H2005 0.930 . S
C2021 C2020 1.377 . S
C2021 C2022 1.379 . S
C2022 H2006 0.931 . S
C2022 C2016 1.383 . S
C2022 C2021 1.379 . S
H2023 C2017 0.959 . S
H2024 C2017 0.961 . S
H2025 C2017 0.960 . S
H2026 C2018 0.930 . S
H2027 C2019 0.929 . S
H2028 C2036 0.929 1_556 S
H2029 C2038 0.930 1_556 S
H2030 C2040 0.930 . S
H2031 C2043 0.929 . S
H2032 C2046 0.930 . S
H2033 C2048 0.960 . S
H2034 C2048 0.960 . S
H2035 C2048 0.960 . S
C2036 H2028 0.929 1_554 S
C2036 C2037 1.377 . S
C2036 C2038 1.384 . S
C2037 C2036 1.377 . S
C2037 C2043 1.390 . S
C2038 H2029 0.930 1_554 S
C2038 C2036 1.384 . S
C2038 C2039 1.372 . S
C2039 C2038 1.372 . S
C2039 C2040 1.400 . S
C2039 C2044 1.490 . S
C2040 H2030 0.930 . S
C2040 C2039 1.400 . S
C2040 C2043 1.386 . S
H2041 C2057 0.930 . S
H2042 C2058 0.931 . S
C2043 H2031 0.929 . S
C2043 C2037 1.390 . S
C2043 C2040 1.386 . S
C2044 C2039 1.490 . S
C2044 C2046 1.395 . S
C2044 C2047 1.403 . S
H2045 C2051 0.930 . S
C2046 H2032 0.930 . S
C2046 C2044 1.395 . S
C2046 C2049 1.403 . S
C2047 C2044 1.403 . S
C2047 C2048 1.524 . S
C2047 C2051 1.400 . S
C2048 H2033 0.960 . S
C2048 H2034 0.960 . S
C2048 H2035 0.960 . S
C2048 C2047 1.524 . S
C2049 C2046 1.403 . S
C2049 C2050 1.392 . S
C2049 C2053 1.495 . S
C2050 C2049 1.392 . S
C2050 C2051 1.385 . S
C2050 C2052 1.478 . S
C2051 H2045 0.930 . S
C2051 C2047 1.400 . S
C2051 C2050 1.385 . S
C2052 C2050 1.478 . S
C2052 C2054 1.381 . S
C2052 C2058 1.383 . S
C2053 C2049 1.495 . S
C2053 H2059 0.957 1_554 S
C2053 H2060 0.961 . S
C2053 H2061 0.960 1_554 S
C2054 C2052 1.381 . S
C2054 C2055 1.394 . S
C2054 H2062 0.930 1_554 S
C2055 C2054 1.394 . S
C2055 C2056 1.383 . S
C2055 H2063 0.929 1_554 S
C2056 C2055 1.383 . S
C2056 C2057 1.377 . S
C2057 H2041 0.930 . S
C2057 C2056 1.377 . S
C2057 C2058 1.379 . S
C2058 H2042 0.931 . S
C2058 C2052 1.383 . S
C2058 C2057 1.379 . S
H2059 C2053 0.957 1_556 S
H2060 C2053 0.961 . S
H2061 C2053 0.960 1_556 S
H2062 C2054 0.930 1_556 S
H2063 C2055 0.929 1_556 S
H2064 C2072 0.929 . S
H2065 C2074 0.930 . S
H2066 C2076 0.930 . S
H2067 C2079 0.929 . S
H2068 C2082 0.930 . S
H2069 C2084 0.960 . S
H2070 C2084 0.960 . S
H2071 C2084 0.960 . S
C2072 H2064 0.929 . S
C2072 C2073 1.377 . S
C2072 C2074 1.384 . S
C2073 C2072 1.377 . S
C2073 C2079 1.390 . S
C2074 H2065 0.930 . S
C2074 C2072 1.384 . S
C2074 C2075 1.372 . S
C2075 C2074 1.372 . S
C2075 C2076 1.400 . S
C2075 C2080 1.490 . S
C2076 H2066 0.930 . S
C2076 C2075 1.400 . S
C2076 C2079 1.386 . S
H2077 C2093 0.930 . S
H2078 C2094 0.931 . S
C2079 H2067 0.929 . S
C2079 C2073 1.390 . S
C2079 C2076 1.386 . S
C2080 C2075 1.490 . S
C2080 C2082 1.395 . S
C2080 C2083 1.403 . S
H2081 C2087 0.930 . S
C2082 H2068 0.930 . S
C2082 C2080 1.395 . S
C2082 C2085 1.403 . S
C2083 C2080 1.403 . S
C2083 C2084 1.524 . S
C2083 C2087 1.400 . S
C2084 H2069 0.960 . S
C2084 H2070 0.960 . S
C2084 H2071 0.960 . S
C2084 C2083 1.524 . S
C2085 C2082 1.403 . S
C2085 C2086 1.392 . S
C2085 C2089 1.495 . S
C2086 C2085 1.392 . S
C2086 C2087 1.385 . S
C2086 C2088 1.478 . S
C2087 H2081 0.930 . S
C2087 C2083 1.400 . S
C2087 C2086 1.385 . S
C2088 C2086 1.478 . S
C2088 C2090 1.381 . S
C2088 C2094 1.383 . S
C2089 C2085 1.495 . S
C2089 H2095 0.959 . S
C2089 H2096 0.961 . S
C2089 H2097 0.960 . S
C2090 C2088 1.381 . S
C2090 C2091 1.394 . S
C2090 H2098 0.930 . S
C2091 C2090 1.394 . S
C2091 C2092 1.383 . S
C2091 H2099 0.929 . S
C2092 C2091 1.383 . S
C2092 C2093 1.377 . S
C2093 H2077 0.930 . S
C2093 C2092 1.377 . S
C2093 C2094 1.379 . S
C2094 H2078 0.931 . S
C2094 C2088 1.383 . S
C2094 C2093 1.379 . S
H2095 C2089 0.959 . S
H2096 C2089 0.961 . S
H2097 C2089 0.960 . S
H2098 C2090 0.930 . S
H2099 C2091 0.929 . S
H2100 C2108 0.929 . S
H2101 C2110 0.930 . S
H2102 C2112 0.930 . S
H2103 C2115 0.929 . S
H2104 C2118 0.930 . S
H2105 C2120 0.960 . S
H2106 C2120 0.960 . S
H2107 C2120 0.960 . S
C2108 H2100 0.929 . S
C2108 C2109 1.377 . S
C2108 C2110 1.384 . S
C2109 C2108 1.377 . S
C2109 C2115 1.390 . S
C2110 H2101 0.930 . S
C2110 C2108 1.384 . S
C2110 C2111 1.372 . S
C2111 C2110 1.372 . S
C2111 C2112 1.400 . S
C2111 C2116 1.490 . S
C2112 H2102 0.930 . S
C2112 C2111 1.400 . S
C2112 C2115 1.386 . S
H2113 C2129 0.930 . S
H2114 C2130 0.931 . S
C2115 H2103 0.929 . S
C2115 C2109 1.390 . S
C2115 C2112 1.386 . S
C2116 C2111 1.490 . S
C2116 C2118 1.395 . S
C2116 C2119 1.403 . S
H2117 C2123 0.930 . S
C2118 H2104 0.930 . S
C2118 C2116 1.395 . S
C2118 C2121 1.403 . S
C2119 C2116 1.403 . S
C2119 C2120 1.524 . S
C2119 C2123 1.400 . S
C2120 H2105 0.960 . S
C2120 H2106 0.960 . S
C2120 H2107 0.960 . S
C2120 C2119 1.524 . S
C2121 C2118 1.403 . S
C2121 C2122 1.392 . S
C2121 C2125 1.495 . S
C2122 C2121 1.392 . S
C2122 C2123 1.385 . S
C2122 C2124 1.478 . S
C2123 H2117 0.930 . S
C2123 C2119 1.400 . S
C2123 C2122 1.385 . S
C2124 C2122 1.478 . S
C2124 C2126 1.381 . S
C2124 C2130 1.383 . S
C2125 C2121 1.495 . S
C2125 H2131 0.959 . S
C2125 H2132 0.961 . S
C2125 H2133 0.960 . S
C2126 C2124 1.381 . S
C2126 C2127 1.394 . S
C2126 H2134 0.930 . S
C2127 C2126 1.394 . S
C2127 C2128 1.383 . S
C2127 H2135 0.929 . S
C2128 C2127 1.383 . S
C2128 C2129 1.377 . S
C2129 H2113 0.930 . S
C2129 C2128 1.377 . S
C2129 C2130 1.379 . S
C2130 H2114 0.931 . S
C2130 C2124 1.383 . S
C2130 C2129 1.379 . S
H2131 C2125 0.959 . S
H2132 C2125 0.961 . S
H2133 C2125 0.960 . S
H2134 C2126 0.930 . S
H2135 C2127 0.929 . S
H2136 C2144 0.929 . S
H2137 C2146 0.930 . S
H2138 C2148 0.930 . S
H2139 C2151 0.929 . S
H2140 C2154 0.930 . S
H2141 C2156 0.960 . S
H2142 C2156 0.960 . S
H2143 C2156 0.960 . S
C2144 H2136 0.929 . S
C2144 C2145 1.377 . S
C2144 C2146 1.384 . S
C2145 C2144 1.377 . S
C2145 C2151 1.390 . S
C2146 H2137 0.930 . S
C2146 C2144 1.384 . S
C2146 C2147 1.372 . S
C2147 C2146 1.372 . S
C2147 C2148 1.400 . S
C2147 C2152 1.490 . S
C2148 H2138 0.930 . S
C2148 C2147 1.400 . S
C2148 C2151 1.386 . S
H2149 C2165 0.930 . S
H2150 C2166 0.931 . S
C2151 H2139 0.929 . S
C2151 C2145 1.390 . S
C2151 C2148 1.386 . S
C2152 C2147 1.490 . S
C2152 C2154 1.395 . S
C2152 C2155 1.403 . S
H2153 C2159 0.930 . S
C2154 H2140 0.930 . S
C2154 C2152 1.395 . S
C2154 C2157 1.403 . S
C2155 C2152 1.403 . S
C2155 C2156 1.524 . S
C2155 C2159 1.400 . S
C2156 H2141 0.960 . S
C2156 H2142 0.960 . S
C2156 H2143 0.960 . S
C2156 C2155 1.524 . S
C2157 C2154 1.403 . S
C2157 C2158 1.392 . S
C2157 C2161 1.495 . S
C2158 C2157 1.392 . S
C2158 C2159 1.385 . S
C2158 C2160 1.478 . S
C2159 H2153 0.930 . S
C2159 C2155 1.400 . S
C2159 C2158 1.385 . S
C2160 C2158 1.478 . S
C2160 C2162 1.381 . S
C2160 C2166 1.383 . S
C2161 C2157 1.495 . S
C2161 H2167 0.959 . S
C2161 H2168 0.961 . S
C2161 H2169 0.960 . S
C2162 C2160 1.381 . S
C2162 C2163 1.394 . S
C2162 H2170 0.930 . S
C2163 C2162 1.394 . S
C2163 C2164 1.383 . S
C2163 H2171 0.929 . S
C2164 C2163 1.383 . S
C2164 C2165 1.377 . S
C2165 H2149 0.930 . S
C2165 C2164 1.377 . S
C2165 C2166 1.379 . S
C2166 H2150 0.931 . S
C2166 C2160 1.383 . S
C2166 C2165 1.379 . S
H2167 C2161 0.959 . S
H2168 C2161 0.961 . S
H2169 C2161 0.960 . S
H2170 C2162 0.930 . S
H2171 C2163 0.929 . S
H2172 C2180 0.929 . S
H2173 C2182 0.930 . S
H2174 C2184 0.930 . S
H2175 C2187 0.929 . S
H2176 C2190 0.930 . S
H2177 C2192 0.960 . S
H2178 C2192 0.960 . S
H2179 C2192 0.960 . S
C2180 H2172 0.929 . S
C2180 C2181 1.377 . S
C2180 C2182 1.384 . S
C2181 C2180 1.377 . S
C2181 C2187 1.390 . S
C2182 H2173 0.930 . S
C2182 C2180 1.384 . S
C2182 C2183 1.372 . S
C2183 C2182 1.372 . S
C2183 C2184 1.400 . S
C2183 C2188 1.490 . S
C2184 H2174 0.930 . S
C2184 C2183 1.400 . S
C2184 C2187 1.386 . S
H2185 C2201 0.930 . S
H2186 C2202 0.931 . S
C2187 H2175 0.929 . S
C2187 C2181 1.390 . S
C2187 C2184 1.386 . S
C2188 C2183 1.490 . S
C2188 C2190 1.395 . S
C2188 C2191 1.403 . S
H2189 C2195 0.930 . S
C2190 H2176 0.930 . S
C2190 C2188 1.395 . S
C2190 C2193 1.403 . S
C2191 C2188 1.403 . S
C2191 C2192 1.524 . S
C2191 C2195 1.400 . S
C2192 H2177 0.960 . S
C2192 H2178 0.960 . S
C2192 H2179 0.960 . S
C2192 C2191 1.524 . S
C2193 C2190 1.403 . S
C2193 C2194 1.392 . S
C2193 C2197 1.495 . S
C2194 C2193 1.392 . S
C2194 C2195 1.385 . S
C2194 C2196 1.478 . S
C2195 H2189 0.930 . S
C2195 C2191 1.400 . S
C2195 C2194 1.385 . S
C2196 C2194 1.478 . S
C2196 C2198 1.381 . S
C2196 C2202 1.383 . S
C2197 C2193 1.495 . S
C2197 H2203 0.959 . S
C2197 H2204 0.961 . S
C2197 H2205 0.960 . S
C2198 C2196 1.381 . S
C2198 C2199 1.394 . S
C2198 H2206 0.930 . S
C2199 C2198 1.394 . S
C2199 C2200 1.383 . S
C2199 H2207 0.929 . S
C2200 C2199 1.383 . S
C2200 C2201 1.377 . S
C2201 H2185 0.930 . S
C2201 C2200 1.377 . S
C2201 C2202 1.379 . S
C2202 H2186 0.931 . S
C2202 C2196 1.383 . S
C2202 C2201 1.379 . S
H2203 C2197 0.959 . S
H2204 C2197 0.961 . S
H2205 C2197 0.960 . S
H2206 C2198 0.930 . S
H2207 C2199 0.929 . S
H2208 C2216 0.929 . S
H2209 C2218 0.930 . S
H2210 C2220 0.930 . S
H2211 C2223 0.929 . S
H2212 C2226 0.930 . S
H2213 C2228 0.960 . S
H2214 C2228 0.960 . S
H2215 C2228 0.960 . S
C2216 H2208 0.929 . S
C2216 C2217 1.377 . S
C2216 C2218 1.384 . S
C2217 C2216 1.377 . S
C2217 C2223 1.390 . S
C2218 H2209 0.930 . S
C2218 C2216 1.384 . S
C2218 C2219 1.372 . S
C2219 C2218 1.372 . S
C2219 C2220 1.400 . S
C2219 C2224 1.490 . S
C2220 H2210 0.930 . S
C2220 C2219 1.400 . S
C2220 C2223 1.386 . S
H2221 C2237 0.930 . S
H2222 C2238 0.931 . S
C2223 H2211 0.929 . S
C2223 C2217 1.390 . S
C2223 C2220 1.386 . S
C2224 C2219 1.490 . S
C2224 C2226 1.395 . S
C2224 C2227 1.403 . S
H2225 C2231 0.930 . S
C2226 H2212 0.930 . S
C2226 C2224 1.395 . S
C2226 C2229 1.403 . S
C2227 C2224 1.403 . S
C2227 C2228 1.524 . S
C2227 C2231 1.400 . S
C2228 H2213 0.960 . S
C2228 H2214 0.960 . S
C2228 H2215 0.960 . S
C2228 C2227 1.524 . S
C2229 C2226 1.403 . S
C2229 C2230 1.392 . S
C2229 C2233 1.495 . S
C2230 C2229 1.392 . S
C2230 C2231 1.385 . S
C2230 C2232 1.478 . S
C2231 H2225 0.930 . S
C2231 C2227 1.400 . S
C2231 C2230 1.385 . S
C2232 C2230 1.478 . S
C2232 C2234 1.381 . S
C2232 C2238 1.383 . S
C2233 C2229 1.495 . S
C2233 H2239 0.959 . S
C2233 H2240 0.961 . S
C2233 H2241 0.960 . S
C2234 C2232 1.381 . S
C2234 C2235 1.394 . S
C2234 H2242 0.930 . S
C2235 C2234 1.394 . S
C2235 C2236 1.383 . S
C2235 H2243 0.929 . S
C2236 C2235 1.383 . S
C2236 C2237 1.377 . S
C2237 H2221 0.930 . S
C2237 C2236 1.377 . S
C2237 C2238 1.379 . S
C2238 H2222 0.931 . S
C2238 C2232 1.383 . S
C2238 C2237 1.379 . S
H2239 C2233 0.959 . S
H2240 C2233 0.961 . S
H2241 C2233 0.960 . S
H2242 C2234 0.930 . S
H2243 C2235 0.929 . S
H2244 C2252 0.929 . S
H2245 C2254 0.930 . S
H2246 C2256 0.930 . S
H2247 C2259 0.929 . S
H2248 C2262 0.930 . S
H2249 C2264 0.960 . S
H2250 C2264 0.960 . S
H2251 C2264 0.960 . S
C2252 H2244 0.929 . S
C2252 C2253 1.377 . S
C2252 C2254 1.384 . S
C2253 C2252 1.377 . S
C2253 C2259 1.390 . S
C2254 H2245 0.930 . S
C2254 C2252 1.384 . S
C2254 C2255 1.372 . S
C2255 C2254 1.372 . S
C2255 C2256 1.400 . S
C2255 C2260 1.490 . S
C2256 H2246 0.930 . S
C2256 C2255 1.400 . S
C2256 C2259 1.386 . S
H2257 C2273 0.930 . S
H2258 C2274 0.931 . S
C2259 H2247 0.929 . S
C2259 C2253 1.390 . S
C2259 C2256 1.386 . S
C2260 C2255 1.490 . S
C2260 C2262 1.395 . S
C2260 C2263 1.403 . S
H2261 C2267 0.930 . S
C2262 H2248 0.930 . S
C2262 C2260 1.395 . S
C2262 C2265 1.403 . S
C2263 C2260 1.403 . S
C2263 C2264 1.524 . S
C2263 C2267 1.400 . S
C2264 H2249 0.960 . S
C2264 H2250 0.960 . S
C2264 H2251 0.960 . S
C2264 C2263 1.524 . S
C2265 C2262 1.403 . S
C2265 C2266 1.392 . S
C2265 C2269 1.495 . S
C2266 C2265 1.392 . S
C2266 C2267 1.385 . S
C2266 C2268 1.478 . S
C2267 H2261 0.930 . S
C2267 C2263 1.400 . S
C2267 C2266 1.385 . S
C2268 C2266 1.478 . S
C2268 C2270 1.381 . S
C2268 C2274 1.383 . S
C2269 C2265 1.495 . S
C2269 H2275 0.959 . S
C2269 H2276 0.961 . S
C2269 H2277 0.960 . S
C2270 C2268 1.381 . S
C2270 C2271 1.394 . S
C2270 H2278 0.930 . S
C2271 C2270 1.394 . S
C2271 C2272 1.383 . S
C2271 H2279 0.929 . S
C2272 C2271 1.383 . S
C2272 C2273 1.377 . S
C2273 H2257 0.930 . S
C2273 C2272 1.377 . S
C2273 C2274 1.379 . S
C2274 H2258 0.931 . S
C2274 C2268 1.383 . S
C2274 C2273 1.379 . S
H2275 C2269 0.959 . S
H2276 C2269 0.961 . S
H2277 C2269 0.960 . S
H2278 C2270 0.930 . S
H2279 C2271 0.929 . S
H2280 C2288 0.929 . S
H2281 C2290 0.930 . S
H2282 C2292 0.930 . S
H2283 C2295 0.929 . S
H2284 C2298 0.930 . S
H2285 C2300 0.960 . S
H2286 C2300 0.960 . S
H2287 C2300 0.960 . S
C2288 H2280 0.929 . S
C2288 C2289 1.377 . S
C2288 C2290 1.384 . S
C2289 C2288 1.377 . S
C2289 C2295 1.390 . S
C2290 H2281 0.930 . S
C2290 C2288 1.384 . S
C2290 C2291 1.372 . S
C2291 C2290 1.372 . S
C2291 C2292 1.400 . S
C2291 C2296 1.490 . S
C2292 H2282 0.930 . S
C2292 C2291 1.400 . S
C2292 C2295 1.386 . S
H2293 C2309 0.930 . S
H2294 C2310 0.931 . S
C2295 H2283 0.929 . S
C2295 C2289 1.390 . S
C2295 C2292 1.386 . S
C2296 C2291 1.490 . S
C2296 C2298 1.395 . S
C2296 C2299 1.403 . S
H2297 C2303 0.930 . S
C2298 H2284 0.930 . S
C2298 C2296 1.395 . S
C2298 C2301 1.403 . S
C2299 C2296 1.403 . S
C2299 C2300 1.524 . S
C2299 C2303 1.400 . S
C2300 H2285 0.960 . S
C2300 H2286 0.960 . S
C2300 H2287 0.960 . S
C2300 C2299 1.524 . S
C2301 C2298 1.403 . S
C2301 C2302 1.392 . S
C2301 C2305 1.495 . S
C2302 C2301 1.392 . S
C2302 C2303 1.385 . S
C2302 C2304 1.478 . S
C2303 H2297 0.930 . S
C2303 C2299 1.400 . S
C2303 C2302 1.385 . S
C2304 C2302 1.478 . S
C2304 C2306 1.381 . S
C2304 C2310 1.383 . S
C2305 C2301 1.495 . S
C2305 H2311 0.959 . S
C2305 H2312 0.961 . S
C2305 H2313 0.960 . S
C2306 C2304 1.381 . S
C2306 C2307 1.394 . S
C2306 H2314 0.930 . S
C2307 C2306 1.394 . S
C2307 C2308 1.383 . S
C2307 H2315 0.929 . S
C2308 C2307 1.383 . S
C2308 C2309 1.377 . S
C2309 H2293 0.930 . S
C2309 C2308 1.377 . S
C2309 C2310 1.379 . S
C2310 H2294 0.931 . S
C2310 C2304 1.383 . S
C2310 C2309 1.379 . S
H2311 C2305 0.959 . S
H2312 C2305 0.961 . S
H2313 C2305 0.960 . S
H2314 C2306 0.930 . S
H2315 C2307 0.929 . S
H2316 C2324 0.929 . S
H2317 C2326 0.930 . S
H2318 C2328 0.930 . S
H2319 C2331 0.929 . S
H2320 C2334 0.930 . S
H2321 C2336 0.960 . S
H2322 C2336 0.960 . S
H2323 C2336 0.960 . S
C2324 H2316 0.929 . S
C2324 C2325 1.377 . S
C2324 C2326 1.384 . S
C2325 C2324 1.377 . S
C2325 C2331 1.390 . S
C2326 H2317 0.930 . S
C2326 C2324 1.384 . S
C2326 C2327 1.372 . S
C2327 C2326 1.372 . S
C2327 C2328 1.400 . S
C2327 C2332 1.490 . S
C2328 H2318 0.930 . S
C2328 C2327 1.400 . S
C2328 C2331 1.386 . S
H2329 C2345 0.930 . S
H2330 C2346 0.931 . S
C2331 H2319 0.929 . S
C2331 C2325 1.390 . S
C2331 C2328 1.386 . S
C2332 C2327 1.490 . S
C2332 C2334 1.395 . S
C2332 C2335 1.403 . S
H2333 C2339 0.930 . S
C2334 H2320 0.930 . S
C2334 C2332 1.395 . S
C2334 C2337 1.403 . S
C2335 C2332 1.403 . S
C2335 C2336 1.524 . S
C2335 C2339 1.400 . S
C2336 H2321 0.960 . S
C2336 H2322 0.960 . S
C2336 H2323 0.960 . S
C2336 C2335 1.524 . S
C2337 C2334 1.403 . S
C2337 C2338 1.392 . S
C2337 C2341 1.495 . S
C2338 C2337 1.392 . S
C2338 C2339 1.385 . S
C2338 C2340 1.478 . S
C2339 H2333 0.930 . S
C2339 C2335 1.400 . S
C2339 C2338 1.385 . S
C2340 C2338 1.478 . S
C2340 C2342 1.381 . S
C2340 C2346 1.383 . S
C2341 C2337 1.495 . S
C2341 H2347 0.959 . S
C2341 H2348 0.961 . S
C2341 H2349 0.960 . S
C2342 C2340 1.381 . S
C2342 C2343 1.394 . S
C2342 H2350 0.930 . S
C2343 C2342 1.394 . S
C2343 C2344 1.383 . S
C2343 H2351 0.929 . S
C2344 C2343 1.383 . S
C2344 C2345 1.377 . S
C2345 H2329 0.930 . S
C2345 C2344 1.377 . S
C2345 C2346 1.379 . S
C2346 H2330 0.931 . S
C2346 C2340 1.383 . S
C2346 C2345 1.379 . S
H2347 C2341 0.959 . S
H2348 C2341 0.961 . S
H2349 C2341 0.960 . S
H2350 C2342 0.930 . S
H2351 C2343 0.929 . S
H2352 C2360 0.929 . S
H2353 C2362 0.930 . S
H2354 C2364 0.930 . S
H2355 C2367 0.929 . S
H2356 C2370 0.930 . S
H2357 C2372 0.960 . S
H2358 C2372 0.960 . S
H2359 C2372 0.960 . S
C2360 H2352 0.929 . S
C2360 C2361 1.377 1_545 S
C2360 C2362 1.384 . S
C2361 C2360 1.377 1_565 S
C2361 C2367 1.390 . S
C2362 H2353 0.930 . S
C2362 C2360 1.384 . S
C2362 C2363 1.372 1_545 S
C2363 C2362 1.372 1_565 S
C2363 C2364 1.400 . S
C2363 C2368 1.490 . S
C2364 H2354 0.930 . S
C2364 C2363 1.400 . S
C2364 C2367 1.386 . S
H2365 C2381 0.930 . S
H2366 C2382 0.931 . S
C2367 H2355 0.929 . S
C2367 C2361 1.390 . S
C2367 C2364 1.386 . S
C2368 C2363 1.490 . S
C2368 C2370 1.395 . S
C2368 C2371 1.403 . S
H2369 C2375 0.930 . S
C2370 H2356 0.930 . S
C2370 C2368 1.395 . S
C2370 C2373 1.403 . S
C2371 C2368 1.403 . S
C2371 C2372 1.524 . S
C2371 C2375 1.400 . S
C2372 H2357 0.960 . S
C2372 H2358 0.960 . S
C2372 H2359 0.960 . S
C2372 C2371 1.524 . S
C2373 C2370 1.403 . S
C2373 C2374 1.392 . S
C2373 C2377 1.495 . S
C2374 C2373 1.392 . S
C2374 C2375 1.385 . S
C2374 C2376 1.478 . S
C2375 H2369 0.930 . S
C2375 C2371 1.400 . S
C2375 C2374 1.385 . S
C2376 C2374 1.478 . S
C2376 C2378 1.381 . S
C2376 C2382 1.383 . S
C2377 C2373 1.495 . S
C2377 H2383 0.959 . S
C2377 H2384 0.961 . S
C2377 H2385 0.960 . S
C2378 C2376 1.381 . S
C2378 C2379 1.394 . S
C2378 H2386 0.930 . S
C2379 C2378 1.394 . S
C2379 C2380 1.383 . S
C2379 H2387 0.929 . S
C2380 C2379 1.383 . S
C2380 C2381 1.377 . S
C2381 H2365 0.930 . S
C2381 C2380 1.377 . S
C2381 C2382 1.379 . S
C2382 H2366 0.931 . S
C2382 C2376 1.383 . S
C2382 C2381 1.379 . S
H2383 C2377 0.959 . S
H2384 C2377 0.961 . S
H2385 C2377 0.960 . S
H2386 C2378 0.930 . S
H2387 C2379 0.929 . S
H2388 C2396 0.929 . S
H2389 C2398 0.930 . S
H2390 C2400 0.930 . S
H2391 C2403 0.929 . S
H2392 C2406 0.930 . S
H2393 C2408 0.960 . S
H2394 C2408 0.960 . S
H2395 C2408 0.960 . S
C2396 H2388 0.929 . S
C2396 C2397 1.377 . S
C2396 C2398 1.384 . S
C2397 C2396 1.377 . S
C2397 C2403 1.390 . S
C2398 H2389 0.930 . S
C2398 C2396 1.384 . S
C2398 C2399 1.372 . S
C2399 C2398 1.372 . S
C2399 C2400 1.400 . S
C2399 C2404 1.490 . S
C2400 H2390 0.930 . S
C2400 C2399 1.400 . S
C2400 C2403 1.386 . S
H2401 C2417 0.930 . S
H2402 C2418 0.931 . S
C2403 H2391 0.929 . S
C2403 C2397 1.390 . S
C2403 C2400 1.386 . S
C2404 C2399 1.490 . S
C2404 C2406 1.395 . S
C2404 C2407 1.403 . S
H2405 C2411 0.930 . S
C2406 H2392 0.930 . S
C2406 C2404 1.395 . S
C2406 C2409 1.403 . S
C2407 C2404 1.403 . S
C2407 C2408 1.524 . S
C2407 C2411 1.400 . S
C2408 H2393 0.960 . S
C2408 H2394 0.960 . S
C2408 H2395 0.960 . S
C2408 C2407 1.524 . S
C2409 C2406 1.403 . S
C2409 C2410 1.392 . S
C2409 C2413 1.495 . S
C2410 C2409 1.392 . S
C2410 C2411 1.385 . S
C2410 C2412 1.478 . S
C2411 H2405 0.930 . S
C2411 C2407 1.400 . S
C2411 C2410 1.385 . S
C2412 C2410 1.478 . S
C2412 C2414 1.381 . S
C2412 C2418 1.383 . S
C2413 C2409 1.495 . S
C2413 H2419 0.959 . S
C2413 H2420 0.961 . S
C2413 H2421 0.960 . S
C2414 C2412 1.381 . S
C2414 C2415 1.394 . S
C2414 H2422 0.930 . S
C2415 C2414 1.394 . S
C2415 C2416 1.383 . S
C2415 H2423 0.929 . S
C2416 C2415 1.383 . S
C2416 C2417 1.377 . S
C2417 H2401 0.930 . S
C2417 C2416 1.377 . S
C2417 C2418 1.379 . S
C2418 H2402 0.931 . S
C2418 C2412 1.383 . S
C2418 C2417 1.379 . S
H2419 C2413 0.959 . S
H2420 C2413 0.961 . S
H2421 C2413 0.960 . S
H2422 C2414 0.930 . S
H2423 C2415 0.929 . S
H2424 C2432 0.929 . S
H2425 C2434 0.930 . S
H2426 C2436 0.930 . S
H2427 C2439 0.929 . S
H2428 C2442 0.930 . S
H2429 C2444 0.960 . S
H2430 C2444 0.960 . S
H2431 C2444 0.960 . S
C2432 H2424 0.929 . S
C2432 C2433 1.377 . S
C2432 C2434 1.384 . S
C2433 C2432 1.377 . S
C2433 C2439 1.390 . S
C2434 H2425 0.930 . S
C2434 C2432 1.384 . S
C2434 C2435 1.372 . S
C2435 C2434 1.372 . S
C2435 C2436 1.400 . S
C2435 C2440 1.490 . S
C2436 H2426 0.930 . S
C2436 C2435 1.400 . S
C2436 C2439 1.386 . S
H2437 C2453 0.930 . S
H2438 C2454 0.931 . S
C2439 H2427 0.929 . S
C2439 C2433 1.390 . S
C2439 C2436 1.386 . S
C2440 C2435 1.490 . S
C2440 C2442 1.395 . S
C2440 C2443 1.403 . S
H2441 C2447 0.930 . S
C2442 H2428 0.930 . S
C2442 C2440 1.395 . S
C2442 C2445 1.403 . S
C2443 C2440 1.403 . S
C2443 C2444 1.524 . S
C2443 C2447 1.400 . S
C2444 H2429 0.960 . S
C2444 H2430 0.960 . S
C2444 H2431 0.960 . S
C2444 C2443 1.524 . S
C2445 C2442 1.403 . S
C2445 C2446 1.392 . S
C2445 C2449 1.495 . S
C2446 C2445 1.392 . S
C2446 C2447 1.385 . S
C2446 C2448 1.478 . S
C2447 H2441 0.930 . S
C2447 C2443 1.400 . S
C2447 C2446 1.385 . S
C2448 C2446 1.478 . S
C2448 C2450 1.381 . S
C2448 C2454 1.383 . S
C2449 C2445 1.495 . S
C2449 H2455 0.959 . S
C2449 H2456 0.961 . S
C2449 H2457 0.960 . S
C2450 C2448 1.381 . S
C2450 C2451 1.394 . S
C2450 H2458 0.930 . S
C2451 C2450 1.394 . S
C2451 C2452 1.383 . S
C2451 H2459 0.929 . S
C2452 C2451 1.383 . S
C2452 C2453 1.377 . S
C2453 H2437 0.930 . S
C2453 C2452 1.377 . S
C2453 C2454 1.379 . S
C2454 H2438 0.931 . S
C2454 C2448 1.383 . S
C2454 C2453 1.379 . S
H2455 C2449 0.959 . S
H2456 C2449 0.961 . S
H2457 C2449 0.960 . S
H2458 C2450 0.930 . S
H2459 C2451 0.929 . S
H2460 C2468 0.929 . S
H2461 C2470 0.930 . S
H2462 C2472 0.930 . S
H2463 C2475 0.929 . S
H2464 C2478 0.930 . S
H2465 C2480 0.960 . S
H2466 C2480 0.960 . S
H2467 C2480 0.960 . S
C2468 H2460 0.929 . S
C2468 C2469 1.377 . S
C2468 C2470 1.384 . S
C2469 C2468 1.377 . S
C2469 C2475 1.390 . S
C2470 H2461 0.930 . S
C2470 C2468 1.384 . S
C2470 C2471 1.372 . S
C2471 C2470 1.372 . S
C2471 C2472 1.400 . S
C2471 C2476 1.490 . S
C2472 H2462 0.930 . S
C2472 C2471 1.400 . S
C2472 C2475 1.386 . S
H2473 C2489 0.930 . S
H2474 C2490 0.931 . S
C2475 H2463 0.929 . S
C2475 C2469 1.390 . S
C2475 C2472 1.386 . S
C2476 C2471 1.490 . S
C2476 C2478 1.395 . S
C2476 C2479 1.403 . S
H2477 C2483 0.930 . S
C2478 H2464 0.930 . S
C2478 C2476 1.395 . S
C2478 C2481 1.403 . S
C2479 C2476 1.403 . S
C2479 C2480 1.524 . S
C2479 C2483 1.400 . S
C2480 H2465 0.960 . S
C2480 H2466 0.960 . S
C2480 H2467 0.960 . S
C2480 C2479 1.524 . S
C2481 C2478 1.403 . S
C2481 C2482 1.392 . S
C2481 C2485 1.495 . S
C2482 C2481 1.392 . S
C2482 C2483 1.385 . S
C2482 C2484 1.478 . S
C2483 H2477 0.930 . S
C2483 C2479 1.400 . S
C2483 C2482 1.385 . S
C2484 C2482 1.478 . S
C2484 C2486 1.381 . S
C2484 C2490 1.383 . S
C2485 C2481 1.495 . S
C2485 H2491 0.959 . S
C2485 H2492 0.961 . S
C2485 H2493 0.960 . S
C2486 C2484 1.381 . S
C2486 C2487 1.394 . S
C2486 H2494 0.930 . S
C2487 C2486 1.394 . S
C2487 C2488 1.383 . S
C2487 H2495 0.929 . S
C2488 C2487 1.383 . S
C2488 C2489 1.377 . S
C2489 H2473 0.930 . S
C2489 C2488 1.377 . S
C2489 C2490 1.379 . S
C2490 H2474 0.931 . S
C2490 C2484 1.383 . S
C2490 C2489 1.379 . S
H2491 C2485 0.959 . S
H2492 C2485 0.961 . S
H2493 C2485 0.960 . S
H2494 C2486 0.930 . S
H2495 C2487 0.929 . S
H2496 C2504 0.929 . S
H2497 C2506 0.930 . S
H2498 C2508 0.930 . S
H2499 C2511 0.929 . S
H2500 C2514 0.930 . S
H2501 C2516 0.960 . S
H2502 C2516 0.960 . S
H2503 C2516 0.960 . S
C2504 H2496 0.929 . S
C2504 C2505 1.377 . S
C2504 C2506 1.384 . S
C2505 C2504 1.377 . S
C2505 C2511 1.390 . S
C2506 H2497 0.930 . S
C2506 C2504 1.384 . S
C2506 C2507 1.372 . S
C2507 C2506 1.372 . S
C2507 C2508 1.400 . S
C2507 C2512 1.490 . S
C2508 H2498 0.930 . S
C2508 C2507 1.400 . S
C2508 C2511 1.386 . S
H2509 C2525 0.930 . S
H2510 C2526 0.931 . S
C2511 H2499 0.929 . S
C2511 C2505 1.390 . S
C2511 C2508 1.386 . S
C2512 C2507 1.490 . S
C2512 C2514 1.395 . S
C2512 C2515 1.388 1_556 S
H2513 C2519 0.930 1_554 S
C2514 H2500 0.930 . S
C2514 C2512 1.395 . S
C2514 C2517 1.403 . S
C2515 C2512 1.388 1_554 S
C2515 C2516 1.545 . S
C2515 C2519 1.394 1_554 S
C2516 H2501 0.960 . S
C2516 H2502 0.960 . S
C2516 H2503 0.960 . S
C2516 C2515 1.545 . S
C2517 C2514 1.403 . S
C2517 C2518 1.392 . S
C2517 C2521 1.495 . S
C2518 C2517 1.392 . S
C2518 C2519 1.385 . S
C2518 C2520 1.478 . S
C2519 H2513 0.930 1_556 S
C2519 C2515 1.394 1_556 S
C2519 C2518 1.385 . S
C2520 C2518 1.478 . S
C2520 C2522 1.381 . S
C2520 C2526 1.383 . S
C2521 C2517 1.495 . S
C2521 H2527 0.959 . S
C2521 H2528 0.961 . S
C2521 H2529 0.960 . S
C2522 C2520 1.381 . S
C2522 C2523 1.394 . S
C2522 H2530 0.930 . S
C2523 C2522 1.394 . S
C2523 C2524 1.383 . S
C2523 H2531 0.929 . S
C2524 C2523 1.383 . S
C2524 C2525 1.377 . S
C2525 H2509 0.930 . S
C2525 C2524 1.377 . S
C2525 C2526 1.379 . S
C2526 H2510 0.931 . S
C2526 C2520 1.383 . S
C2526 C2525 1.379 . S
H2527 C2521 0.959 . S
H2528 C2521 0.961 . S
H2529 C2521 0.960 . S
H2530 C2522 0.930 . S
H2531 C2523 0.929 . S
H2532 C2540 0.929 . S
H2533 C2542 0.930 . S
H2534 C2544 0.930 . S
H2535 C2547 0.929 . S
H2536 C2550 0.930 . S
H2537 C2552 0.960 . S
H2538 C2552 0.960 . S
H2539 C2552 0.960 . S
C2540 H2532 0.929 . S
C2540 C2541 1.377 1_554 S
C2540 C2542 1.384 . S
C2541 C2540 1.377 1_556 S
C2541 C2547 1.390 . S
C2542 H2533 0.930 . S
C2542 C2540 1.384 . S
C2542 C2543 1.372 1_554 S
C2543 C2542 1.372 1_556 S
C2543 C2544 1.400 . S
C2543 C2548 1.490 . S
C2544 H2534 0.930 . S
C2544 C2543 1.400 . S
C2544 C2547 1.386 . S
H2545 C2561 0.930 . S
H2546 C2562 0.931 . S
C2547 H2535 0.929 . S
C2547 C2541 1.390 . S
C2547 C2544 1.386 . S
C2548 C2543 1.490 . S
C2548 C2550 1.395 1_556 S
C2548 C2551 1.403 . S
H2549 C2555 0.930 . S
C2550 H2536 0.930 . S
C2550 C2548 1.395 1_554 S
C2550 C2553 1.403 . S
C2551 C2548 1.403 . S
C2551 C2552 1.524 . S
C2551 C2555 1.400 . S
C2552 H2537 0.960 . S
C2552 H2538 0.960 . S
C2552 H2539 0.960 . S
C2552 C2551 1.524 . S
C2553 C2550 1.403 . S
C2553 C2554 1.392 1_554 S
C2553 C2557 1.495 . S
C2554 C2553 1.392 1_556 S
C2554 C2555 1.385 . S
C2554 C2556 1.478 . S
C2555 H2549 0.930 . S
C2555 C2551 1.400 . S
C2555 C2554 1.385 . S
C2556 C2554 1.478 . S
C2556 C2558 1.381 . S
C2556 C2562 1.383 . S
C2557 C2553 1.495 . S
C2557 H2563 0.959 . S
C2557 H2564 0.961 . S
C2557 H2565 0.960 . S
C2558 C2556 1.381 . S
C2558 C2559 1.394 . S
C2558 H2566 0.930 . S
C2559 C2558 1.394 . S
C2559 C2560 1.383 . S
C2559 H2567 0.929 . S
C2560 C2559 1.383 . S
C2560 C2561 1.377 . S
C2561 H2545 0.930 . S
C2561 C2560 1.377 . S
C2561 C2562 1.379 . S
C2562 H2546 0.931 . S
C2562 C2556 1.383 . S
C2562 C2561 1.379 . S
H2563 C2557 0.959 . S
H2564 C2557 0.961 . S
H2565 C2557 0.960 . S
H2566 C2558 0.930 . S
H2567 C2559 0.929 . S
H2568 C2576 0.929 . S
H2569 C2578 0.930 . S
H2570 C2580 0.930 . S
H2571 C2583 0.929 . S
H2572 C2586 0.930 . S
H2573 C2588 0.960 . S
H2574 C2588 0.960 . S
H2575 C2588 0.960 . S
C2576 H2568 0.929 . S
C2576 C2577 1.377 . S
C2576 C2578 1.384 . S
C2577 C2576 1.377 . S
C2577 C2583 1.390 . S
C2578 H2569 0.930 . S
C2578 C2576 1.384 . S
C2578 C2579 1.372 . S
C2579 C2578 1.372 . S
C2579 C2580 1.400 . S
C2579 C2584 1.490 . S
C2580 H2570 0.930 . S
C2580 C2579 1.400 . S
C2580 C2583 1.386 . S
H2581 C2597 0.930 . S
H2582 C2598 0.931 . S
C2583 H2571 0.929 . S
C2583 C2577 1.390 . S
C2583 C2580 1.386 . S
C2584 C2579 1.490 . S
C2584 C2586 1.395 . S
C2584 C2587 1.403 . S
H2585 C2591 0.930 . S
C2586 H2572 0.930 . S
C2586 C2584 1.395 . S
C2586 C2589 1.403 . S
C2587 C2584 1.403 . S
C2587 C2588 1.524 1_554 S
C2587 C2591 1.400 . S
C2588 H2573 0.960 . S
C2588 H2574 0.960 . S
C2588 H2575 0.960 . S
C2588 C2587 1.524 1_556 S
C2589 C2586 1.403 . S
C2589 C2590 1.392 . S
C2589 C2593 1.495 . S
C2590 C2589 1.392 . S
C2590 C2591 1.385 . S
C2590 C2592 1.478 . S
C2591 H2585 0.930 . S
C2591 C2587 1.400 . S
C2591 C2590 1.385 . S
C2592 C2590 1.478 . S
C2592 C2594 1.381 . S
C2592 C2598 1.383 . S
C2593 C2589 1.495 . S
C2593 H2599 0.959 . S
C2593 H2600 0.961 . S
C2593 H2601 0.960 . S
C2594 C2592 1.381 . S
C2594 C2595 1.394 . S
C2594 H2602 0.930 . S
C2595 C2594 1.394 . S
C2595 C2596 1.383 . S
C2595 H2603 0.929 . S
C2596 C2595 1.383 . S
C2596 C2597 1.377 . S
C2597 H2581 0.930 . S
C2597 C2596 1.377 . S
C2597 C2598 1.379 . S
C2598 H2582 0.931 . S
C2598 C2592 1.383 . S
C2598 C2597 1.379 . S
H2599 C2593 0.959 . S
H2600 C2593 0.961 . S
H2601 C2593 0.960 . S
H2602 C2594 0.930 . S
H2603 C2595 0.929 . S
C885 C22 1.707 . S
C904 C723 1.662 . S
C940 N740 1.831 . S
C921 C38 1.944 . S
C976 N642 1.639 . S
C957 C75 1.634 . S
C993 C91 1.325 1_655 S
C1012 C667 1.331 . S
C1029 C128 1.831 . S
C1048 C862 1.834 . S
C1065 C197 1.453 . S
C1084 N822 1.423 . S
C1120 N770 1.760 . S
C1101 C144 1.877 1_565 S
C1137 C181 1.719 . S
C1156 C796 1.715 . S
C1192 C682 1.677 1_455 S
C1173 C234 1.691 . S
C1228 C727 1.887 1_455 S
C1209 C303 1.896 . S
C1245 C356 1.842 . S
C1264 C706 1.850 1_655 S
C1281 C287 1.965 . S
C1300 C813 1.947 . S
C1336 C843 1.636 . S
C1317 C393 1.640 . S
C1372 N860 1.840 . S
C1353 C409 1.966 . S
C1389 C462 1.763 . S
C1408 N792 1.780 . S
C1444 C757 1.281 . S
C1425 C446 1.270 . S
C1461 C499 1.783 . S
C1480 C742 1.769 . S
C1497 C552 1.393 . S
C1516 N702 1.373 . S
C1552 N680 1.602 . S
C1533 C515 1.756 . S
C1569 C568 1.962 . S
C1588 C646 1.961 1_556 S
C1624 C772 1.771 . S
C1605 C340 1.772 . S
C1660 C847 1.839 . S
C1641 C621 1.838 1_556 S
C1677 C250 1.720 1_556 S
C1696 C826 1.728 . S
C1713 C605 1.907 . S
C1732 C663 1.890 . S
C1768 C637 1.185 . S
C1749 C39 1.186 . S
C1785 C29 0.636 . S
C1804 N672 0.627 . S
C1840 N710 1.058 . S
C1821 C92 1.156 . S
C1876 C753 1.560 . S
C1857 C82 1.530 . S
C1893 C145 1.516 . S
C1912 C652 1.506 . S
C1929 C188 1.363 . S
C1948 C693 1.363 . S
C1984 C697 0.969 . S
C1965 C135 0.985 . S
C2001 C198 1.471 . S
C2020 C736 1.477 . S
C2037 C251 0.923 . S
C2056 N650 0.857 . S
C2092 C712 1.592 . S
C2073 C294 1.582 . S
C2109 C347 1.018 . S
C2128 N732 1.027 . S
C2145 C304 1.413 . S
C2164 C766 1.404 . S
C2200 C787 1.189 . S
C2181 C410 1.218 . S
C2217 C400 0.657 . S
C2236 N762 0.655 . S
C2253 C453 0.840 . S
C2272 N830 0.826 . S
C2289 C463 1.843 . S
C2308 C873 1.859 . S
C2325 C516 1.505 . S
C2344 C802 1.503 . S
C2380 C783 1.684 . S
C2361 C569 1.714 . S
C2397 C506 0.879 . S
C2416 C817 0.896 . S
C2452 C856 1.253 . S
C2433 C559 1.255 . S
C2488 N800 0.811 . S
C2469 C357 0.860 . S
C2524 C832 1.552 . S
C2505 C612 1.556 . S
C2560 N852 1.003 . S
C2541 C241 0.992 . S
C2577 C622 1.309 . S
C2596 C676 1.286 . S
