# Generated by pormake.
# Topology ocu, (6,8)-cn, num edge types: 1
# Building blocks:
#     Node 0, Type 0, BuildingBlock: CUWYAW_clean_sbu_0, # of connection points: 6
#     Node 1, Type 0, BuildingBlock: CUWYAW_clean_sbu_0, # of connection points: 6
#     Node 2, Type 0, BuildingBlock: CUWYAW_clean_sbu_0, # of connection points: 6
#     Node 3, Type 0, BuildingBlock: CUWYAW_clean_sbu_0, # of connection points: 6
#     Node 4, Type 0, BuildingBlock: CUWYAW_clean_sbu_0, # of connection points: 6
#     Node 5, Type 0, BuildingBlock: CUWYAW_clean_sbu_0, # of connection points: 6
#     Node 6, Type 0, BuildingBlock: CUWYAW_clean_sbu_0, # of connection points: 6
#     Node 7, Type 0, BuildingBlock: CUWYAW_clean_sbu_0, # of connection points: 6
#     Node 8, Type 1, BuildingBlock: GIZVER_clean_sbu_0, # of connection points: 8
#     Node 9, Type 1, BuildingBlock: GIZVER_clean_sbu_0, # of connection points: 8
#     Node 10, Type 1, BuildingBlock: GIZVER_clean_sbu_0, # of connection points: 8
#     Node 11, Type 1, BuildingBlock: GIZVER_clean_sbu_0, # of connection points: 8
#     Node 12, Type 1, BuildingBlock: GIZVER_clean_sbu_0, # of connection points: 8
#     Node 13, Type 1, BuildingBlock: GIZVER_clean_sbu_0, # of connection points: 8
#     Edge 14, Type (0, 1), BuildingBlock: EZIPEK_clean_linker_0, # of connection points: 2
#     Edge 15, Type (0, 1), BuildingBlock: EZIPEK_clean_linker_0, # of connection points: 2
#     Edge 16, Type (0, 1), BuildingBlock: EZIPEK_clean_linker_0, # of connection points: 2
#     Edge 17, Type (0, 1), BuildingBlock: EZIPEK_clean_linker_0, # of connection points: 2
#     Edge 18, Type (0, 1), BuildingBlock: EZIPEK_clean_linker_0, # of connection points: 2
#     Edge 19, Type (0, 1), BuildingBlock: EZIPEK_clean_linker_0, # of connection points: 2
#     Edge 20, Type (0, 1), BuildingBlock: EZIPEK_clean_linker_0, # of connection points: 2
#     Edge 21, Type (0, 1), BuildingBlock: EZIPEK_clean_linker_0, # of connection points: 2
#     Edge 22, Type (0, 1), BuildingBlock: EZIPEK_clean_linker_0, # of connection points: 2
#     Edge 23, Type (0, 1), BuildingBlock: EZIPEK_clean_linker_0, # of connection points: 2
#     Edge 24, Type (0, 1), BuildingBlock: EZIPEK_clean_linker_0, # of connection points: 2
#     Edge 25, Type (0, 1), BuildingBlock: EZIPEK_clean_linker_0, # of connection points: 2
#     Edge 26, Type (0, 1), BuildingBlock: EZIPEK_clean_linker_0, # of connection points: 2
#     Edge 27, Type (0, 1), BuildingBlock: EZIPEK_clean_linker_0, # of connection points: 2
#     Edge 28, Type (0, 1), BuildingBlock: EZIPEK_clean_linker_0, # of connection points: 2
#     Edge 29, Type (0, 1), BuildingBlock: EZIPEK_clean_linker_0, # of connection points: 2
#     Edge 30, Type (0, 1), BuildingBlock: EZIPEK_clean_linker_0, # of connection points: 2
#     Edge 31, Type (0, 1), BuildingBlock: EZIPEK_clean_linker_0, # of connection points: 2
#     Edge 32, Type (0, 1), BuildingBlock: EZIPEK_clean_linker_0, # of connection points: 2
#     Edge 33, Type (0, 1), BuildingBlock: EZIPEK_clean_linker_0, # of connection points: 2
#     Edge 34, Type (0, 1), BuildingBlock: EZIPEK_clean_linker_0, # of connection points: 2
#     Edge 35, Type (0, 1), BuildingBlock: EZIPEK_clean_linker_0, # of connection points: 2
#     Edge 36, Type (0, 1), BuildingBlock: EZIPEK_clean_linker_0, # of connection points: 2
#     Edge 37, Type (0, 1), BuildingBlock: EZIPEK_clean_linker_0, # of connection points: 2
#     Edge 38, Type (0, 1), BuildingBlock: EZIPEK_clean_linker_0, # of connection points: 2
#     Edge 39, Type (0, 1), BuildingBlock: EZIPEK_clean_linker_0, # of connection points: 2
#     Edge 40, Type (0, 1), BuildingBlock: EZIPEK_clean_linker_0, # of connection points: 2
#     Edge 41, Type (0, 1), BuildingBlock: EZIPEK_clean_linker_0, # of connection points: 2
#     Edge 42, Type (0, 1), BuildingBlock: EZIPEK_clean_linker_0, # of connection points: 2
#     Edge 43, Type (0, 1), BuildingBlock: EZIPEK_clean_linker_0, # of connection points: 2
#     Edge 44, Type (0, 1), BuildingBlock: EZIPEK_clean_linker_0, # of connection points: 2
#     Edge 45, Type (0, 1), BuildingBlock: EZIPEK_clean_linker_0, # of connection points: 2
#     Edge 46, Type (0, 1), BuildingBlock: EZIPEK_clean_linker_0, # of connection points: 2
#     Edge 47, Type (0, 1), BuildingBlock: EZIPEK_clean_linker_0, # of connection points: 2
#     Edge 48, Type (0, 1), BuildingBlock: EZIPEK_clean_linker_0, # of connection points: 2
#     Edge 49, Type (0, 1), BuildingBlock: EZIPEK_clean_linker_0, # of connection points: 2
#     Edge 50, Type (0, 1), BuildingBlock: EZIPEK_clean_linker_0, # of connection points: 2
#     Edge 51, Type (0, 1), BuildingBlock: EZIPEK_clean_linker_0, # of connection points: 2
#     Edge 52, Type (0, 1), BuildingBlock: EZIPEK_clean_linker_0, # of connection points: 2
#     Edge 53, Type (0, 1), BuildingBlock: EZIPEK_clean_linker_0, # of connection points: 2
#     Edge 54, Type (0, 1), BuildingBlock: EZIPEK_clean_linker_0, # of connection points: 2
#     Edge 55, Type (0, 1), BuildingBlock: EZIPEK_clean_linker_0, # of connection points: 2
#     Edge 56, Type (0, 1), BuildingBlock: EZIPEK_clean_linker_0, # of connection points: 2
#     Edge 57, Type (0, 1), BuildingBlock: EZIPEK_clean_linker_0, # of connection points: 2
#     Edge 58, Type (0, 1), BuildingBlock: EZIPEK_clean_linker_0, # of connection points: 2
#     Edge 59, Type (0, 1), BuildingBlock: EZIPEK_clean_linker_0, # of connection points: 2
#     Edge 60, Type (0, 1), BuildingBlock: EZIPEK_clean_linker_0, # of connection points: 2
#     Edge 61, Type (0, 1), BuildingBlock: EZIPEK_clean_linker_0, # of connection points: 2
# Relax obj value: 0.241
# Max RMSD: 0.252
# Mean RMSD: 0.168
data_MOF--net-ocu--node1-CUWYAW_clean_sbu_0--node2-GIZVER_clean_sbu_0--edge1-EZIPEK_clean_linker_0
_symmetry_space_group_name_H-M    P1
_symmetry_Int_Tables_number       1
_symmetry_cell_setting            triclinic
loop_
_symmetry_equiv_pos_as_xyz
'x, y, z'
_cell_length_a     34.382853
_cell_length_b     35.731997
_cell_length_c     25.223265
_cell_angle_alpha  81.727459
_cell_angle_beta   106.36564
_cell_angle_gamma 112.83751
loop_
_atom_site_label
_atom_site_type_symbol
_atom_site_fract_x
_atom_site_fract_y
_atom_site_fract_z
_atom_type_partial_charge
C0 C 0.37113 0.37177 0.42583 0.0
Eu1 Eu 0.33915 0.32831 0.33735 0.0
C2 C 0.35756 0.39895 0.44851 0.0
C3 C 0.33715 0.42367 0.4131 0.0
C4 C 0.31745 0.44384 0.43382 0.0
C5 C 0.31797 0.43958 0.49009 0.0
C6 C 0.3408 0.41712 0.52626 0.0
C7 C 0.36038 0.39669 0.50542 0.0
C8 C 0.38464 0.36212 0.25338 0.0
C9 C 0.25417 0.35379 0.26219 0.0
C10 C 0.26063 0.2411 0.17486 0.0
Eu11 Eu 0.29272 0.2861 0.26143 0.0
C12 C 0.28225 0.2253 0.14641 0.0
C13 C 0.25892 0.19062 0.11479 0.0
C14 C 0.28126 0.17275 0.09439 0.0
C15 C 0.32699 0.18885 0.10725 0.0
C16 C 0.34991 0.22415 0.13763 0.0
C17 C 0.32768 0.24254 0.15631 0.0
C18 C 0.24895 0.25195 0.34763 0.0
C19 C 0.37642 0.25967 0.33181 0.0
O20 O 0.34536 0.33387 0.4247 0.0
O21 O 0.38346 0.38396 0.3801 0.0
O22 O 0.40058 0.35082 0.30329 0.0
O23 O 0.343 0.35058 0.24789 0.0
O24 O 0.28609 0.35964 0.30847 0.0
O25 O 0.24987 0.32495 0.23165 0.0
O26 O 0.27178 0.28043 0.17183 0.0
O27 O 0.26075 0.22653 0.22513 0.0
O28 O 0.23279 0.26405 0.29841 0.0
O29 O 0.29024 0.26351 0.35122 0.0
O30 O 0.34821 0.25872 0.28318 0.0
O31 O 0.37714 0.28436 0.36655 0.0
H32 H 0.33464 0.42594 0.36907 0.0
H33 H 0.29985 0.46107 0.4055 0.0
H34 H 0.34124 0.41354 0.5698 0.0
H35 H 0.37584 0.37758 0.53322 0.0
H36 H 0.22378 0.17696 0.10706 0.0
H37 H 0.26318 0.14587 0.07019 0.0
H38 H 0.38518 0.23732 0.1473 0.0
H39 H 0.34612 0.26963 0.17992 0.0
C40 C 0.83951 0.3387 0.18991 0.0
Eu41 Eu 0.82464 0.31134 0.28497 0.0
C42 C 0.83522 0.37795 0.16942 0.0
C43 C 0.8157 0.38577 0.11426 0.0
C44 C 0.81569 0.42526 0.09832 0.0
C45 C 0.84029 0.45657 0.13628 0.0
C46 C 0.84041 0.44386 0.19143 0.0
C47 C 0.84559 0.40707 0.20833 0.0
C48 C 0.75331 0.24403 0.29331 0.0
C49 C 0.75563 0.35594 0.28177 0.0
C50 C 0.79298 0.31209 0.47851 0.0
Eu51 Eu 0.80609 0.31521 0.3803 0.0
C52 C 0.81513 0.29965 0.53329 0.0
C53 C 0.78611 0.27735 0.56584 0.0
C54 C 0.77076 0.23492 0.56449 0.0
C55 C 0.78681 0.21761 0.53284 0.0
C56 C 0.82801 0.24082 0.52302 0.0
C57 C 0.84469 0.2825 0.52987 0.0
C58 C 0.87545 0.38339 0.36329 0.0
C59 C 0.86961 0.26281 0.38169 0.0
O60 O 0.8712 0.34054 0.23401 0.0
O61 O 0.80321 0.30957 0.1946 0.0
O62 O 0.78755 0.24394 0.28108 0.0
O63 O 0.76035 0.27965 0.30622 0.0
O64 O 0.78725 0.35567 0.26246 0.0
O65 O 0.75134 0.33604 0.32906 0.0
O66 O 0.77224 0.28306 0.4432 0.0
O67 O 0.81525 0.34528 0.45546 0.0
O68 O 0.83954 0.38325 0.37003 0.0
O69 O 0.87025 0.3469 0.35841 0.0
O70 O 0.84448 0.27045 0.40739 0.0
O71 O 0.86991 0.27789 0.33074 0.0
H72 H 0.80287 0.3627 0.08381 0.0
H73 H 0.805 0.4328 0.05497 0.0
H74 H 0.85038 0.46559 0.223 0.0
H75 H 0.85762 0.40159 0.25186 0.0
H76 H 0.76666 0.29101 0.57735 0.0
H77 H 0.7405 0.21762 0.57574 0.0
H78 H 0.84394 0.22857 0.5025 0.0
H79 H 0.87332 0.30029 0.51535 0.0
C80 C 0.84074 0.74019 0.44869 0.0
Eu81 Eu 0.81899 0.77725 0.35677 0.0
C82 C 0.88394 0.73741 0.46338 0.0
C83 C 0.88801 0.69955 0.47787 0.0
C84 C 0.92301 0.69292 0.46881 0.0
C85 C 0.95356 0.72382 0.44416 0.0
C86 C 0.95147 0.7625 0.43395 0.0
C87 C 0.91751 0.76954 0.4448 0.0
C88 C 0.74979 0.75246 0.26862 0.0
C89 C 0.87072 0.75757 0.27098 0.0
C90 C 0.82984 0.86612 0.16126 0.0
Eu91 Eu 0.83306 0.83219 0.25923 0.0
C92 C 0.83513 0.9077 0.14189 0.0
C93 C 0.85878 0.93868 0.18015 0.0
C94 C 0.84194 0.96798 0.18241 0.0
C95 C 0.80224 0.966 0.14584 0.0
C96 C 0.785 0.94103 0.10059 0.0
C97 C 0.80203 0.91228 0.09773 0.0
C98 C 0.89947 0.87016 0.34715 0.0
C99 C 0.78078 0.8533 0.34257 0.0
O100 O 0.84089 0.77695 0.44703 0.0
O101 O 0.81458 0.72036 0.40475 0.0
O102 O 0.74675 0.75065 0.31932 0.0
O103 O 0.78964 0.7671 0.26727 0.0
O104 O 0.85882 0.7492 0.31931 0.0
O105 O 0.86308 0.78854 0.24004 0.0
O106 O 0.79522 0.84727 0.18091 0.0
O107 O 0.86477 0.86062 0.19258 0.0
O108 O 0.89504 0.88465 0.29689 0.0
O109 O 0.86907 0.83612 0.34745 0.0
O110 O 0.79217 0.86046 0.29376 0.0
O111 O 0.78826 0.82198 0.37438 0.0
H112 H 0.86223 0.6742 0.49108 0.0
H113 H 0.92433 0.66276 0.47676 0.0
H114 H 0.97455 0.78651 0.41454 0.0
H115 H 0.9151 0.79904 0.43261 0.0
H116 H 0.88536 0.93619 0.21388 0.0
H117 H 0.85568 0.98731 0.21758 0.0
H118 H 0.75405 0.9387 0.07346 0.0
H119 H 0.78377 0.88891 0.0676 0.0
C120 C 0.24929 0.87848 0.28228 0.0
Eu121 Eu 0.29326 0.83287 0.28841 0.0
C122 C 0.21176 0.87377 0.30154 0.0
C123 C 0.18929 0.9001 0.28033 0.0
C124 C 0.16719 0.90837 0.31294 0.0
C125 C 0.16957 0.89129 0.36695 0.0
C126 C 0.18537 0.85974 0.38351 0.0
C127 C 0.20589 0.85057 0.35032 0.0
C128 C 0.25999 0.76802 0.22156 0.0
C129 C 0.26633 0.75217 0.37714 0.0
C130 C 0.3896 0.74395 0.30764 0.0
Eu131 Eu 0.34757 0.7885 0.31695 0.0
C132 C 0.38025 0.70434 0.28689 0.0
C133 C 0.4156 0.69329 0.28966 0.0
C134 C 0.41189 0.66603 0.25255 0.0
C135 C 0.37283 0.64966 0.21228 0.0
C136 C 0.33565 0.65617 0.21464 0.0
C137 C 0.33943 0.68375 0.25177 0.0
C138 C 0.3824 0.85563 0.3811 0.0
C139 C 0.37401 0.87028 0.23043 0.0
O140 O 0.2839 0.87994 0.32193 0.0
O141 O 0.24242 0.85588 0.24196 0.0
O142 O 0.26549 0.80521 0.20409 0.0
O143 O 0.27714 0.76814 0.27294 0.0
O144 O 0.26343 0.78842 0.35895 0.0
O145 O 0.29569 0.74339 0.36171 0.0
O146 O 0.38003 0.74531 0.35384 0.0
O147 O 0.37933 0.76961 0.26931 0.0
O148 O 0.38368 0.82006 0.3992 0.0
O149 O 0.36326 0.8532 0.33061 0.0
O150 O 0.37928 0.8354 0.25066 0.0
O151 O 0.34205 0.87717 0.2411 0.0
H152 H 0.1932 0.91773 0.24217 0.0
H153 H 0.15416 0.93229 0.29957 0.0
H154 H 0.18695 0.84592 0.42486 0.0
H155 H 0.22299 0.83016 0.36717 0.0
H156 H 0.4473 0.70898 0.31628 0.0
H157 H 0.44082 0.66107 0.25148 0.0
H158 H 0.30524 0.64366 0.18392 0.0
H159 H 0.31182 0.69215 0.24902 0.0
C160 C 0.38488 0.85351 0.70418 0.0
Eu161 Eu 0.34251 0.81884 0.7792 0.0
C162 C 0.43118 0.87601 0.70841 0.0
C163 C 0.46319 0.86179 0.74264 0.0
C164 C 0.50733 0.88504 0.74775 0.0
C165 C 0.5195 0.92269 0.71921 0.0
C166 C 0.48731 0.93726 0.68675 0.0
C167 C 0.44355 0.91402 0.68122 0.0
C168 C 0.28066 0.74275 0.76295 0.0
C169 C 0.26213 0.85179 0.76321 0.0
C170 C 0.25859 0.76268 0.93044 0.0
Eu171 Eu 0.30194 0.79981 0.85749 0.0
C172 C 0.21695 0.72927 0.91742 0.0
C173 C 0.19152 0.71416 0.95557 0.0
C174 C 0.15203 0.68176 0.94161 0.0
C175 C 0.13821 0.66426 0.8898 0.0
C176 C 0.16341 0.67965 0.8514 0.0
C177 C 0.20256 0.71234 0.86511 0.0
C178 C 0.37116 0.87197 0.87972 0.0
C179 C 0.38048 0.76575 0.87507 0.0
O180 O 0.37324 0.81476 0.71687 0.0
O181 O 0.36608 0.87121 0.72499 0.0
O182 O 0.31981 0.75345 0.75841 0.0
O183 O 0.27448 0.77301 0.77452 0.0
O184 O 0.301 0.86047 0.75427 0.0
O185 O 0.24988 0.8206 0.79741 0.0
O186 O 0.25826 0.79753 0.90707 0.0
O187 O 0.29079 0.75447 0.92449 0.0
O188 O 0.3319 0.86604 0.8806 0.0
O189 O 0.37192 0.84047 0.86446 0.0
O190 O 0.34119 0.75731 0.88184 0.0
O191 O 0.39333 0.79631 0.83978 0.0
H192 H 0.45416 0.83281 0.7652 0.0
H193 H 0.53174 0.87329 0.7725 0.0
H194 H 0.49604 0.966 0.66353 0.0
H195 H 0.41932 0.92566 0.65546 0.0
H196 H 0.20215 0.72723 0.99576 0.0
H197 H 0.13222 0.67 0.97123 0.0
H198 H 0.15293 0.66639 0.81137 0.0
H199 H 0.22189 0.72428 0.8351 0.0
C200 C 0.37331 0.2933 0.65881 0.0
Eu201 Eu 0.35748 0.30948 0.74775 0.0
C202 C 0.39354 0.2685 0.64043 0.0
C203 C 0.42736 0.25738 0.67616 0.0
C204 C 0.44647 0.23505 0.65699 0.0
C205 C 0.43225 0.22313 0.6017 0.0
C206 C 0.39816 0.23391 0.56624 0.0
C207 C 0.37915 0.25625 0.58535 0.0
C208 C 0.40977 0.36206 0.83051 0.0
C209 C 0.37826 0.25645 0.8585 0.0
C210 C 0.29812 0.32519 0.93132 0.0
Eu211 Eu 0.3151 0.30907 0.84366 0.0
C212 C 0.27754 0.35013 0.94806 0.0
C213 C 0.23298 0.34372 0.92766 0.0
C214 C 0.21456 0.36686 0.94607 0.0
C215 C 0.24023 0.39705 0.98499 0.0
C216 C 0.28481 0.40384 0.00483 0.0
C217 C 0.30318 0.38065 0.98662 0.0
C218 C 0.2614 0.25915 0.75983 0.0
C219 C 0.29878 0.36583 0.7347 0.0
O220 O 0.33692 0.27375 0.67399 0.0
O221 O 0.399 0.32424 0.68987 0.0
O222 O 0.42417 0.34579 0.80098 0.0
O223 O 0.36931 0.35332 0.81073 0.0
O224 O 0.38021 0.26482 0.80654 0.0
O225 O 0.35551 0.26916 0.88162 0.0
O226 O 0.33385 0.34545 0.91538 0.0
O227 O 0.27345 0.29309 0.90191 0.0
O228 O 0.24858 0.27676 0.78943 0.0
O229 O 0.30159 0.26526 0.77966 0.0
O230 O 0.2968 0.35682 0.78663 0.0
O231 O 0.31884 0.35095 0.70995 0.0
H232 H 0.43924 0.26621 0.71879 0.0
H233 H 0.47274 0.22738 0.68528 0.0
H234 H 0.38659 0.22544 0.52346 0.0
H235 H 0.35335 0.2644 0.55671 0.0
H236 H 0.21221 0.32056 0.89802 0.0
H237 H 0.18001 0.36073 0.93059 0.0
H238 H 0.3052 0.42648 0.03534 0.0
H239 H 0.33754 0.38623 1.00336 0.0
C240 C 0.74852 0.34076 0.76361 0.0
Eu241 Eu 0.80427 0.30374 0.78556 0.0
C242 C 0.73717 0.36351 0.79852 0.0
C243 C 0.69654 0.34679 0.8119 0.0
C244 C 0.68611 0.36685 0.84671 0.0
C245 C 0.71613 0.40403 0.86913 0.0
C246 C 0.75662 0.42102 0.85568 0.0
C247 C 0.76691 0.40117 0.82044 0.0
C248 C 0.79094 0.23666 0.72414 0.0
C249 C 0.76952 0.23581 0.87778 0.0
C250 C 0.91074 0.22846 0.8716 0.0
Eu251 Eu 0.85881 0.26916 0.84067 0.0
C252 C 0.90683 0.18964 0.85431 0.0
C253 C 0.94493 0.18283 0.85782 0.0
C254 C 0.94481 0.15721 0.8209 0.0
C255 C 0.90669 0.13898 0.78009 0.0
C256 C 0.86719 0.14037 0.78301 0.0
C257 C 0.86726 0.16588 0.81999 0.0
C258 C 0.87107 0.33163 0.90607 0.0
C259 C 0.89659 0.34558 0.75278 0.0
O260 O 0.78692 0.35705 0.75341 0.0
O261 O 0.738 0.30186 0.77458 0.0
O262 O 0.79064 0.27222 0.70417 0.0
O263 O 0.79759 0.23798 0.77629 0.0
O264 O 0.77184 0.27251 0.85736 0.0
O265 O 0.79857 0.22321 0.86922 0.0
O266 O 0.91342 0.25638 0.83196 0.0
O267 O 0.88374 0.22748 0.89951 0.0
O268 O 0.87041 0.29555 0.92263 0.0
O269 O 0.86503 0.33315 0.85352 0.0
O270 O 0.90177 0.31299 0.78211 0.0
O271 O 0.86002 0.35083 0.74967 0.0
H272 H 0.67286 0.31796 0.79569 0.0
H273 H 0.65463 0.35327 0.85637 0.0
H274 H 0.78016 0.44979 0.87223 0.0
H275 H 0.79823 0.41535 0.81058 0.0
H276 H 0.97569 0.20105 0.884 0.0
H277 H 0.97554 0.15627 0.81912 0.0
H278 H 0.8374 0.12585 0.75249 0.0
H279 H 0.83751 0.17087 0.81679 0.0
C280 C 0.84242 0.88793 0.92411 0.0
Eu281 Eu 0.84166 0.84064 0.85351 0.0
C282 C 0.8324 0.92446 0.92439 0.0
C283 C 0.84437 0.94337 0.97454 0.0
C284 C 0.82275 0.96763 0.9816 0.0
C285 C 0.78817 0.97215 0.93917 0.0
C286 C 0.78062 0.95832 0.88656 0.0
C287 C 0.80273 0.93458 0.8792 0.0
C288 C 0.89893 0.87094 0.7833 0.0
C289 C 0.77803 0.85801 0.738 0.0
C290 C 0.80178 0.73486 0.7045 0.0
Eu291 Eu 0.81216 0.78537 0.77802 0.0
C292 C 0.82718 0.71636 0.68614 0.0
C293 C 0.85737 0.70188 0.72411 0.0
C294 C 0.88022 0.68368 0.70532 0.0
C295 C 0.87339 0.67992 0.64845 0.0
C296 C 0.84373 0.69486 0.61052 0.0
C297 C 0.82077 0.71291 0.62928 0.0
C298 C 0.75494 0.75644 0.84926 0.0
C299 C 0.88125 0.77199 0.88717 0.0
O300 O 0.8089 0.85616 0.90365 0.0
O301 O 0.87741 0.89165 0.90962 0.0
O302 O 0.91007 0.87172 0.8371 0.0
O303 O 0.85746 0.85169 0.76905 0.0
O304 O 0.79704 0.86788 0.78965 0.0
O305 O 0.77808 0.82484 0.72145 0.0
O306 O 0.81189 0.77378 0.69503 0.0
O307 O 0.79379 0.72349 0.75294 0.0
O308 O 0.74383 0.75994 0.79555 0.0
O309 O 0.7968 0.77376 0.86277 0.0
O310 O 0.87005 0.76968 0.83293 0.0
O311 O 0.86985 0.79638 0.90852 0.0
H312 H 0.86744 0.93637 0.00979 0.0
H313 H 0.83016 0.9796 0.02178 0.0
H314 H 0.75432 0.96187 0.85311 0.0
H315 H 0.79327 0.92089 0.83986 0.0
H316 H 0.86311 0.70441 0.76816 0.0
H317 H 0.90312 0.67237 0.7351 0.0
H318 H 0.83808 0.6922 0.56655 0.0
H319 H 0.79775 0.72399 0.59934 0.0
Co320 Co 0.10786 0.98848 0.55705 0.0
Co321 Co 0.11705 0.99794 0.65476 0.0
Co322 Co 0.0722 0.06171 0.56509 0.0
O323 O 0.11873 1.03607 0.59393 0.0
H324 H 0.14773 0.05602 0.59611 0.0
O325 O 1.02545 0.08666 0.53543 0.0
Co326 Co 1.0196 0.12242 0.57975 0.0
Co327 Co 1.02976 0.13077 0.48442 0.0
H328 H 0.99763 0.06526 0.52255 0.0
O329 O 0.16845 0.99091 0.70173 0.0
O330 O 0.12421 0.95436 0.62833 0.0
O331 O 0.0616 0.97831 0.67534 0.0
O332 O 1.03039 1.01956 0.61828 0.0
O333 O 0.1061 0.10196 0.62534 0.0
O334 O 1.00926 0.14964 0.62315 0.0
O335 O 0.96171 0.09715 0.56996 0.0
O336 O 0.08065 0.15208 0.59805 0.0
O337 O 0.11357 0.10354 0.51146 0.0
O338 O 0.08695 0.15128 0.46477 0.0
O339 O 1.01166 0.16506 0.51636 0.0
O340 O 0.9787 0.13717 0.43382 0.0
C341 C 0.14066 0.96898 0.5222 0.0
C342 C 1.02736 0.98308 0.5142 0.0
C343 C 1.02889 0.98921 0.65652 0.0
C344 C 0.15846 0.96066 0.67112 0.0
C345 C 0.97047 0.12212 0.60824 0.0
C346 C 0.11101 0.13943 0.62436 0.0
C347 C 0.11709 0.13642 0.47737 0.0
C348 C 0.98171 0.1618 0.4693 0.0
O349 O 0.09995 0.94871 0.52016 0.0
O350 O 0.16153 1.00256 0.54894 0.0
O351 O 1.03909 1.02145 0.50459 0.0
O352 O 1.04888 0.96919 0.55647 0.0
Co353 Co 0.61389 1.01047 0.04496 0.0
Co354 Co 0.60314 1.00821 0.14027 0.0
Co355 Co 0.56674 0.07139 0.0598 0.0
O356 O 0.61109 0.04792 0.08679 0.0
H357 H 0.63942 0.06889 0.09868 0.0
O358 O 0.52319 0.09713 0.03171 0.0
Co359 Co 0.51257 0.13226 0.07155 0.0
Co360 Co 0.53712 0.14056 0.98309 0.0
H361 H 0.49573 0.07745 0.01347 0.0
O362 O 0.64998 1.01273 0.19557 0.0
O363 O 0.62539 0.97825 0.1152 0.0
O364 O 0.5466 0.98092 0.15106 0.0
O365 O 0.52161 1.02903 0.10539 0.0
O366 O 0.5993 0.10816 0.12368 0.0
O367 O 0.49709 0.16197 0.10609 0.0
O368 O 0.45458 0.11254 0.04575 0.0
O369 O 0.57259 0.15724 0.10655 0.0
O370 O 0.61199 0.11044 0.01416 0.0
O371 O 0.59543 0.16343 0.97125 0.0
O372 O 0.51746 0.17375 0.00763 0.0
O373 O 0.49242 0.14296 0.92518 0.0
C374 C 0.66119 1.00383 0.01755 0.0
C375 C 0.52574 0.99618 1.00094 0.0
C376 C 0.516 0.9944 0.1346 0.0
C377 C 0.65554 0.99322 0.1602 0.0
C378 C 0.45881 0.1403 0.07754 0.0
C379 C 0.60197 0.14338 0.13275 0.0
C380 C 0.62142 0.14441 0.98462 0.0
C381 C 0.49116 0.16726 0.95786 0.0
O382 O 0.62136 0.97784 0.00577 0.0
O383 O 0.6715 1.03387 0.04909 0.0
O384 O 0.53487 1.03441 0.99607 0.0
O385 O 0.55284 0.98146 0.03255 0.0
Co386 Co 0.09296 0.48644 0.07735 0.0
Co387 Co 0.09033 0.48888 0.17858 0.0
Co388 Co 1.03865 0.55213 0.10812 0.0
O389 O 0.08942 0.52949 0.11726 0.0
H390 H 0.11727 0.55172 0.12363 0.0
O391 O 0.99006 0.5777 0.10834 0.0
Co392 Co 0.99598 0.63311 0.14184 0.0
Co393 Co 0.97618 0.60879 0.04524 0.0
H394 H 0.96226 0.55615 0.1065 0.0
O395 O 0.14297 0.48108 0.22404 0.0
O396 O 0.10037 0.44803 0.14781 0.0
O397 O 1.03431 0.47079 0.2024 0.0
O398 O 1.03951 0.53401 0.18661 0.0
O399 O 0.08588 0.60552 0.13468 0.0
O400 O 0.99712 0.68044 0.17422 0.0
O401 O 0.93819 0.62725 0.15314 0.0
O402 O 1.05679 0.65093 0.14259 0.0
O403 O 1.04086 0.56879 0.02886 0.0
O404 O 0.9982 0.60367 0.98694 0.0
O405 O 0.98433 0.66009 0.06562 0.0
O406 O 0.92245 0.61428 0.01726 0.0
C407 C 0.13984 0.4714 0.05648 0.0
C408 C 0.99488 0.46639 0.0549 0.0
C409 C 1.01812 0.4979 0.20043 0.0
C410 C 0.13482 0.453 0.19063 0.0
C411 C 0.95628 0.66325 0.17559 0.0
C412 C 0.08925 0.64149 0.14257 0.0
C413 C 1.0224 0.58487 0.98544 0.0
C414 C 0.94645 0.65186 0.02957 0.0
O415 O 0.09846 0.45124 0.03906 0.0
O416 O 0.15246 0.50319 0.08644 0.0
O417 O 0.99175 0.4967 0.07518 0.0
O418 O 1.03155 0.46398 0.05847 0.0
Co419 Co 0.6127 0.48693 0.03978 0.0
Co420 Co 0.61273 0.49407 0.13596 0.0
Co421 Co 0.57173 0.559 0.05081 0.0
O422 O 0.61782 0.53288 0.0778 0.0
H423 H 0.64692 0.55324 0.08419 0.0
O424 O 0.52551 0.58439 0.02196 0.0
Co425 Co 0.51492 0.61777 0.0657 0.0
Co426 Co 0.53367 0.6301 0.97363 0.0
H427 H 0.49818 0.56355 0.00566 0.0
O428 O 0.6624 0.48958 0.18543 0.0
O429 O 0.62198 0.45114 0.11206 0.0
O430 O 0.55729 0.47383 0.15695 0.0
O431 O 0.52669 0.51459 0.09927 0.0
O432 O 0.60456 0.59754 0.11406 0.0
O433 O 0.49991 0.64362 0.10642 0.0
O434 O 0.4562 0.59484 0.04563 0.0
O435 O 0.57522 0.64526 0.09422 0.0
O436 O 0.61559 0.60277 1.00206 0.0
O437 O 0.59195 0.65302 0.95942 0.0
O438 O 0.51477 0.66297 0.00485 0.0
O439 O 0.48602 0.63816 0.91965 0.0
C440 C 0.65243 0.47119 0.00707 0.0
C441 C 0.53098 0.48302 0.99045 0.0
C442 C 0.5241 0.48378 0.13694 0.0
C443 C 0.65155 0.45653 0.1599 0.0
C444 C 0.46114 0.61918 0.08295 0.0
C445 C 0.60676 0.63375 0.11842 0.0
C446 C 0.62127 0.63745 0.97179 0.0
C447 C 0.48773 0.66161 0.95579 0.0
O448 O 0.61155 0.44854 1.00098 0.0
O449 O 0.66968 0.50252 0.03865 0.0
O450 O 0.5406 0.52149 0.98699 0.0
O451 O 0.55168 0.46655 0.03062 0.0
Co452 Co 0.17802 0.51848 0.62551 0.0
Co453 Co 0.15056 0.52643 0.51892 0.0
Co454 Co 0.08959 0.54826 0.57635 0.0
O455 O 0.12228 0.51346 0.57593 0.0
H456 H 0.1029 0.48531 0.57362 0.0
O457 O 1.05829 0.58367 0.57984 0.0
Co458 Co 1.01858 0.59949 0.52325 0.0
Co459 Co 1.01568 0.5659 0.61625 0.0
H460 H 0.07847 0.60817 0.59827 0.0
O461 O 0.15802 0.48685 0.48985 0.0
O462 O 0.20386 0.5274 0.56076 0.0
O463 O 0.16225 0.57781 0.48081 0.0
O464 O 0.12734 0.59767 0.52689 0.0
O465 O 1.04661 0.52081 0.50813 0.0
O466 O 0.98676 0.61807 0.46806 0.0
O467 O 1.05578 0.62171 0.48034 0.0
O468 O 0.99534 0.5482 0.48887 0.0
O469 O 1.05208 0.49839 0.62541 0.0
O470 O 0.99824 0.51153 0.64315 0.0
O471 O 0.97361 0.57972 0.56635 0.0
O472 O 1.00899 0.60275 0.65275 0.0
C473 C 0.20956 0.47866 0.65828 0.0
C474 C 0.1726 0.59366 0.64788 0.0
C475 C 0.15311 0.60589 0.49293 0.0
C476 C 0.19552 0.50012 0.52541 0.0
C477 C 1.02352 0.63282 0.4535 0.0
C478 C 1.00896 0.52109 0.48237 0.0
C479 C 1.01743 0.4872 0.64591 0.0
C480 C 0.97793 0.60008 0.60814 0.0
O481 O 0.22815 0.51667 0.67132 0.0
O482 O 0.17 0.46593 0.62686 0.0
O483 O 0.13208 0.57542 0.64458 0.0
O484 O 0.19382 0.57656 0.63222 0.0
Co485 Co 0.70386 1.01948 0.5199 0.0
Co486 Co 0.66019 1.00267 0.41969 0.0
Co487 Co 0.61665 0.06038 0.47779 0.0
O488 O 0.64328 1.01523 0.4825 0.0
H489 H 0.6235 0.98974 0.49405 0.0
O490 O 0.5874 0.10551 0.46844 0.0
Co491 Co 0.52435 0.10692 0.42908 0.0
Co492 Co 0.56445 0.10357 0.53044 0.0
H493 H 0.60903 0.13223 0.46492 0.0
O494 O 0.65869 0.95657 0.38349 0.0
O495 O 0.70818 0.98238 0.46052 0.0
O496 O 0.67819 0.05602 0.38019 0.0
O497 O 0.63228 0.07644 0.4044 0.0
O498 O 0.55754 1.0204 0.44057 0.0
O499 O 0.47005 0.11346 0.39299 0.0
O500 O 0.53185 0.16426 0.41797 0.0
O501 O 0.50481 0.04681 0.43109 0.0
O502 O 0.60441 0.03751 0.55073 0.0
O503 O 0.56274 0.05855 0.58292 0.0
O504 O 0.5099 0.10688 0.50091 0.0
O505 O 0.56708 0.15043 0.5582 0.0
C506 C 0.72845 0.98189 0.58493 0.0
C507 C 0.70002 0.09358 0.5684 0.0
C508 C 0.67023 0.08366 0.39716 0.0
C509 C 0.69536 0.95834 0.41763 0.0
C510 C 0.48969 0.15293 0.39482 0.0
C511 C 0.51734 1.01678 0.43229 0.0
C512 C 0.58364 1.03559 0.58599 0.0
C513 C 0.52605 0.13803 0.53304 0.0
O514 O 0.75516 1.01415 0.56508 0.0
O515 O 0.68732 0.97477 0.56658 0.0
O516 O 0.67471 0.10068 0.52238 0.0
O517 O 0.7068 0.0595 0.57507 0.0
C518 C 0.17869 0.18711 0.357 0.0
C519 C 0.21923 0.21752 0.38349 0.0
C520 C 0.19884 0.18431 0.47365 0.0
C521 C 0.15539 0.15907 0.4464 0.0
N522 N 0.10485 0.14022 0.358 0.0
N523 N 0.26526 0.2442 0.47129 0.0
C524 C 0.14594 0.16196 0.387 0.0
C525 C 0.22855 0.21535 0.44311 0.0
N526 N 0.1722 0.17967 0.30298 0.0
N527 N 0.21239 0.17826 0.52931 0.0
H528 H 0.2875 0.26599 0.45142 0.0
H529 H 0.27192 0.24828 0.51342 0.0
H530 H 0.19224 0.15622 0.55174 0.0
H531 H 0.24428 0.19221 0.55207 0.0
H532 H 0.14595 0.15569 0.28226 0.0
H533 H 0.19599 0.19368 0.28103 0.0
H534 H 0.09331 0.14507 0.31573 0.0
H535 H 0.0815 0.11878 0.37678 0.0
C536 C 0.87965 0.1944 0.41965 0.0
C537 C 0.89834 0.23737 0.41006 0.0
C538 C 0.97197 0.23153 0.44233 0.0
C539 C 0.95332 0.18859 0.4526 0.0
N540 N 0.88864 0.13023 0.45678 0.0
N541 N 0.96332 0.29736 0.42257 0.0
C542 C 0.90686 0.17049 0.44259 0.0
C543 C 0.94483 0.25589 0.42439 0.0
N544 N 0.83538 0.17609 0.40537 0.0
N545 N 1.01582 0.24902 0.44707 0.0
H546 H 0.9449 0.31584 0.40995 0.0
H547 H 0.99637 0.31357 0.43794 0.0
H548 H 1.03653 0.23277 0.46046 0.0
H549 H 1.03138 0.2788 0.43406 0.0
H550 H 0.81877 0.14486 0.40284 0.0
H551 H 0.81503 0.19269 0.39386 0.0
H552 H 0.85576 0.115 0.45533 0.0
H553 H 0.90711 0.11218 0.47361 0.0
C554 C 0.97672 0.91411 0.39029 0.0
C555 C 0.93317 0.89389 0.39536 0.0
C556 C 0.95119 0.93371 0.47728 0.0
C557 C 0.99431 0.95425 0.47138 0.0
N558 N 1.04594 0.9702 0.41612 0.0
N559 N 0.88238 0.87775 0.45218 0.0
C560 C 1.00654 0.94604 0.42627 0.0
C561 C 0.92139 0.90172 0.44137 0.0
N562 N 0.99027 0.90098 0.35291 0.0
N563 N 0.9379 0.94663 0.51516 0.0
H564 H 0.86079 0.85335 0.42852 0.0
H565 H 0.87345 0.87891 0.48787 0.0
H566 H 0.9586 0.97041 0.54121 0.0
H567 H 0.90571 0.93653 0.51772 0.0
H568 H 1.02256 0.91115 0.35072 0.0
H569 H 0.96992 0.87651 0.32783 0.0
H570 H 1.0552 0.96889 0.38075 0.0
H571 H 0.06822 0.99421 0.44087 0.0
C572 C 0.13975 0.88979 0.44625 0.0
C573 C 0.16621 0.91222 0.41024 0.0
C574 C 0.18691 0.97434 0.45791 0.0
C575 C 0.16129 0.95118 0.49487 0.0
N576 N 0.13055 0.88527 0.5383 0.0
N577 N 0.22917 0.97163 0.39797 0.0
C578 C 0.14403 0.90819 0.49407 0.0
C579 C 0.19436 0.95329 0.42089 0.0
N580 N 0.10945 0.85181 0.43392 0.0
N581 N 0.2024 1.01582 0.45561 0.0
H582 H 0.23808 0.95643 0.37391 0.0
H583 H 0.25227 1.00044 0.40863 0.0
H584 H 0.19934 1.03322 0.48273 0.0
H585 H 0.21647 1.03303 0.42413 0.0
H586 H 0.08676 0.83633 0.45713 0.0
H587 H 0.10404 0.83782 0.39756 0.0
H588 H 0.12025 0.85364 0.54059 0.0
H589 H 0.13422 0.89837 0.57465 0.0
C590 C 0.23241 0.89684 0.68361 0.0
C591 C 0.23378 0.87823 0.73796 0.0
C592 C 0.17902 0.90726 0.74261 0.0
C593 C 0.1824 0.93018 0.69174 0.0
N594 N 0.22465 0.95448 0.62383 0.0
N595 N 0.21482 0.87664 0.82395 0.0
C596 C 0.21246 0.92695 0.66499 0.0
C597 C 0.20854 0.88622 0.76857 0.0
N598 N 0.24888 0.88511 0.64838 0.0
N599 N 0.14729 0.90529 0.76664 0.0
H600 H 0.23853 0.86518 0.84618 0.0
H601 H 0.20054 0.8851 0.84922 0.0
H602 H 0.12542 0.92003 0.74939 0.0
H603 H 0.14004 0.88586 0.80044 0.0
H604 H 0.2452 0.89495 0.60692 0.0
H605 H 0.26139 0.86199 0.65857 0.0
H606 H 0.24887 0.95583 0.60557 0.0
H607 H 0.21466 0.97912 0.61351 0.0
C608 C 0.20748 0.18749 0.74667 0.0
C609 C 0.22923 0.22566 0.72273 0.0
C610 C 0.17626 0.20585 0.63291 0.0
C611 C 0.15222 0.16891 0.65807 0.0
N612 N 0.14109 0.12811 0.74148 0.0
N613 N 0.2357 0.27149 0.64344 0.0
C614 C 0.16714 0.16037 0.71551 0.0
C615 C 0.21409 0.2347 0.66579 0.0
N616 N 0.22547 0.17722 0.79957 0.0
N617 N 0.16339 0.21309 0.57722 0.0
H618 H 0.26569 0.29096 0.66483 0.0
H619 H 0.22395 0.2834 0.60493 0.0
H620 H 0.13579 0.19341 0.55172 0.0
H621 H 0.18127 0.23716 0.55488 0.0
H622 H 0.21423 0.14824 0.81771 0.0
H623 H 0.25422 0.19684 0.82382 0.0
H624 H 0.14778 0.12272 0.78414 0.0
H625 H 0.11033 0.10877 0.7213 0.0
C626 C 0.90398 0.09103 0.71407 0.0
C627 C 0.91121 0.13088 0.72677 0.0
C628 C 0.93405 0.15757 0.64131 0.0
C629 C 0.93744 0.1203 0.63628 0.0
N630 N 0.92145 0.04929 0.66344 0.0
N631 N 0.93402 0.2031 0.70293 0.0
C632 C 0.92005 0.08591 0.6704 0.0
C633 C 0.92574 0.1644 0.68998 0.0
N634 N 0.88277 0.05858 0.74445 0.0
N635 N 0.93961 0.18658 0.59959 0.0
H636 H 0.92659 0.2098 0.73688 0.0
H637 H 0.94996 0.22885 0.68101 0.0
H638 H 0.94579 0.18166 0.56351 0.0
H639 H 0.93355 0.21314 0.59832 0.0
H640 H 0.87305 1.02846 0.73458 0.0
H641 H 0.87176 0.06199 0.77737 0.0
H642 H 0.91346 1.0242 0.69043 0.0
H643 H 0.93168 0.04403 0.63107 0.0
C644 C 0.94027 0.88955 0.70407 0.0
C645 C 0.92743 0.90261 0.74515 0.0
C646 C 0.97567 0.97442 0.72209 0.0
C647 C 0.98792 0.96151 0.68005 0.0
N648 N 0.97487 0.90499 0.62718 0.0
N649 N 0.92722 0.96021 0.7838 0.0
C650 C 0.96791 0.91852 0.67024 0.0
C651 C 0.94365 0.94589 0.75123 0.0
N652 N 0.92764 0.84868 0.69888 0.0
N653 N 0.99614 1.01411 0.73615 0.0
H654 H 0.90376 0.94104 0.80419 0.0
H655 H 0.93363 0.99091 0.78666 0.0
H656 H 1.01761 1.0355 0.71474 0.0
H657 H 0.99365 1.02536 0.7704 0.0
H658 H 0.93983 0.83591 0.67587 0.0
H659 H 0.90687 0.82704 0.72093 0.0
H660 H 0.95783 0.87592 0.61211 0.0
H661 H 0.99509 0.92419 0.60301 0.0
C662 C 0.38054 0.19509 0.05567 0.0
C663 C 0.35241 0.17036 0.08874 0.0
C664 C 0.38782 0.12075 0.10296 0.0
C665 C 0.42077 0.14939 0.07871 0.0
N666 N 0.4529 0.21812 0.04284 0.0
N667 N 0.33192 0.1113 0.14978 0.0
C668 C 0.41838 0.18774 0.05782 0.0
C669 C 0.35612 0.13316 0.11333 0.0
N670 N 0.37147 0.22624 0.02326 0.0
N671 N 0.38772 0.08241 0.118 0.0
H672 H 0.30867 0.11947 0.15907 0.0
H673 H 0.33718 0.08672 0.17403 0.0
H674 H 0.41195 0.07295 0.11439 0.0
H675 H 0.36195 0.05919 0.13055 0.0
H676 H 0.38953 0.24368 0.99545 0.0
H677 H 0.34327 0.23181 0.02035 0.0
H678 H 0.45409 0.24787 0.03363 0.0
H679 H 0.48191 0.21485 0.04413 0.0
C680 C 0.90759 0.46173 0.11625 0.0
C681 C 0.88564 0.48289 0.1315 0.0
C682 C 0.95423 0.51659 0.19989 0.0
C683 C 0.97033 0.48715 0.19114 0.0
N684 N 0.9479 0.41954 0.15905 0.0
N685 N 0.89159 0.53738 0.18231 0.0
C686 C 0.94227 0.45545 0.15569 0.0
C687 C 0.91078 0.51354 0.17087 0.0
N688 N 0.89444 0.44533 0.06607 0.0
N689 N 0.98041 0.54714 0.23526 0.0
H690 H 0.86038 0.53547 0.15958 0.0
H691 H 0.90548 0.55735 0.21458 0.0
H692 H 1.01068 0.54791 0.25994 0.0
H693 H 0.97255 0.57171 0.23952 0.0
H694 H 0.87139 0.45196 0.03324 0.0
H695 H 0.87139 0.45196 0.03324 0.0
H696 H 0.92514 0.3957 0.13419 0.0
H697 H 0.9706 0.41201 0.19135 0.0
C698 C 0.76941 1.01601 0.15139 0.0
C699 C 0.77136 0.97698 0.16421 0.0
C700 C 0.70026 0.95044 0.18561 0.0
C701 C 0.69757 0.98904 0.17046 0.0
N702 N 0.73375 0.06144 0.15638 0.0
N703 N 0.74549 0.9101 0.20753 0.0
C704 C 0.73375 1.02294 0.15957 0.0
C705 C 0.73906 0.94526 0.18646 0.0
N706 N 0.80014 0.04553 0.12846 0.0
N707 N 0.66525 0.91865 0.19746 0.0
H708 H 0.77367 0.90535 0.20854 0.0
H709 H 0.72496 0.8872 0.22843 0.0
H710 H 0.63724 0.92223 0.20047 0.0
H711 H 0.663 0.88852 0.20198 0.0
H712 H 0.79733 0.07299 0.11146 0.0
H713 H 0.82739 0.04148 0.1236 0.0
H714 H 0.76087 0.08742 0.15338 0.0
H715 H 0.70785 0.06769 0.16137 0.0
C716 C 0.18033 0.73152 0.2189 0.0
C717 C 0.21677 0.73546 0.19941 0.0
C718 C 0.16878 0.67937 0.13709 0.0
C719 C 0.13404 0.67276 0.16206 0.0
N720 N 0.11353 0.68522 0.24002 0.0
N721 N 0.24697 0.70976 0.14421 0.0
C722 C 0.14172 0.69683 0.20658 0.0
C723 C 0.21142 0.7082 0.15985 0.0
N724 N 0.1819 0.76114 0.24877 0.0
N725 N 0.1608 0.65971 0.09036 0.0
H726 H 0.27802 0.73124 0.15894 0.0
H727 H 0.24628 0.68809 0.12005 0.0
H728 H 0.12988 0.64027 0.0708 0.0
H729 H 0.18394 0.66543 0.06809 0.0
H730 H 0.15401 0.7628 0.25542 0.0
H731 H 0.2102 0.78543 0.26341 0.0
H732 H 0.1185 0.70131 0.27402 0.0
H733 H 0.08816 0.65702 0.23831 0.0
C734 C 0.44937 0.92074 0.88959 0.0
C735 C 0.41084 0.90486 0.90936 0.0
C736 C 0.44488 0.95705 0.97853 0.0
C737 C 0.48532 0.96843 0.96499 0.0
N738 N 0.52702 0.95963 0.90864 0.0
N739 N 0.37908 0.90082 0.98553 0.0
C740 C 0.48788 0.94965 0.92094 0.0
C741 C 0.41037 0.92108 0.95731 0.0
N742 N 0.44889 0.90981 0.83971 0.0
N743 N 0.43897 0.98056 0.01124 0.0
H744 H 0.35625 0.87174 0.97622 0.0
H745 H 0.37984 0.91033 0.02314 0.0
H746 H 0.4625 1.00848 0.02419 0.0
H747 H 0.40891 0.97481 0.01907 0.0
H748 H 0.47433 0.92404 0.82039 0.0
H749 H 0.42153 0.8892 0.81515 0.0
H750 H 0.53216 0.94284 0.88257 0.0
H751 H 0.55487 0.98361 0.92663 0.0
C752 C 0.19453 0.39768 0.04691 0.0
C753 C 0.21944 0.4188 0.00844 0.0
C754 C 0.20121 0.47867 0.01284 0.0
C755 C 0.171 0.45519 0.04475 0.0
N756 N 0.13481 0.38913 0.08517 0.0
N757 N 0.24528 0.47895 0.95198 0.0
C758 C 0.16668 0.41389 0.05996 0.0
C759 C 0.22287 0.45941 0.9911 0.0
N760 N 0.19822 0.36228 0.07228 0.0
N761 N 0.20859 0.51911 1.00224 0.0
H762 H 0.26187 0.46602 0.93601 0.0
H763 H 0.24519 0.5067 0.93266 0.0
H764 H 0.19188 0.53373 0.01473 0.0
H765 H 0.23332 0.53887 0.98436 0.0
H766 H 0.18511 0.34811 0.10575 0.0
H767 H 0.21819 0.34933 0.06382 0.0
H768 H 0.12651 0.35774 0.08997 0.0
H769 H 0.11455 0.39904 0.09835 0.0
C770 C 0.70506 0.16933 0.89351 0.0
C771 C 0.73441 0.2096 0.90955 0.0
C772 C 0.69534 0.20185 0.9833 0.0
C773 C 0.66363 0.16351 0.96381 0.0
N774 N 0.63757 0.11167 0.89789 0.0
N775 N 0.75601 0.26404 0.97073 0.0
C776 C 0.66884 0.14735 0.91874 0.0
C777 C 0.72893 0.22563 0.95476 0.0
N778 N 0.71118 0.15202 0.85311 0.0
N779 N 0.69427 0.21494 0.03103 0.0
H780 H 0.78341 0.28069 0.95575 0.0
H781 H 0.75062 0.28024 0.99727 0.0
H782 H 0.67112 0.1981 0.05316 0.0
H783 H 0.71818 0.24027 0.05161 0.0
H784 H 0.6954 0.12145 0.84406 0.0
H785 H 0.73374 0.16776 0.82989 0.0
H786 H 0.63538 0.09994 0.86128 0.0
H787 H 0.61204 0.09442 0.91612 0.0
C788 C 0.94375 0.74728 0.93489 0.0
C789 C 0.89915 0.74202 0.9241 0.0
C790 C 0.88856 0.68278 0.9902 0.0
C791 C 0.93192 0.68527 0.99682 0.0
N792 N 0.99812 0.71599 0.96516 0.0
N793 N 0.82704 0.69798 0.93183 0.0
C794 C 0.959 0.71669 0.9667 0.0
C795 C 0.87106 0.70798 0.9493 0.0
N796 N 0.97178 0.78169 0.91509 0.0
N797 N 0.86397 0.65666 0.02374 0.0
H798 H 0.81281 0.71353 0.89922 0.0
H799 H 0.80461 0.67142 0.9447 0.0
H800 H 0.87539 0.63762 0.05383 0.0
H801 H 0.83406 0.65676 0.02535 0.0
H802 H 1.00547 0.78963 0.92648 0.0
H803 H 0.9615 0.80389 0.89059 0.0
H804 H 1.01696 0.73529 0.93924 0.0
H805 H 1.00996 0.69364 0.98554 0.0
C806 C 0.17712 0.36074 0.23854 0.0
C807 C 0.22331 0.37927 0.24386 0.0
C808 C 0.21115 0.44533 0.2126 0.0
C809 C 0.16466 0.42654 0.20498 0.0
N810 N 0.10398 0.36383 0.20678 0.0
N811 N 0.28207 0.43941 0.22647 0.0
C812 C 0.14807 0.38348 0.21672 0.0
C813 C 0.23945 0.4217 0.22852 0.0
N814 N 0.16089 0.32131 0.25718 0.0
N815 N 0.22888 0.48654 0.2047 0.0
H816 H 0.30334 0.42373 0.23809 0.0
H817 H 0.29562 0.46831 0.20929 0.0
H818 H 0.21011 0.50439 0.18853 0.0
H819 H 0.2621 0.50345 0.2166 0.0
H820 H 0.12909 0.30642 0.26105 0.0
H821 H 0.18044 0.30419 0.2733 0.0
H822 H 0.08854 0.33238 0.20724 0.0
H823 H 0.0823 0.37908 0.19405 0.0
C824 C 1.05844 0.63728 0.86311 0.0
C825 C 0.09728 0.62924 0.87803 0.0
C826 C 0.06446 0.56888 0.9312 0.0
C827 C 1.034 0.58596 0.93258 0.0
N828 N 0.98467 0.61616 0.87363 0.0
N829 N 0.13299 0.58141 0.90913 0.0
C830 C 1.0248 0.61336 0.8891 0.0
C831 C 0.09804 0.59192 0.90469 0.0
N832 N 1.05613 0.67002 0.82902 0.0
N833 N 0.06091 0.53147 0.95534 0.0
H834 H 0.15735 0.5986 0.88888 0.0
H835 H 0.1379 0.55646 0.93262 0.0
H836 H 1.03409 0.51402 0.97111 0.0
H837 H 0.08144 0.51655 0.95475 0.0
H838 H 1.03053 0.68037 0.8211 0.0
H839 H 0.08096 0.68712 0.80947 0.0
H840 H 0.97551 0.63468 0.84067 0.0
H841 H 0.95924 0.59628 0.89049 0.0
C842 C 0.45129 0.2548 0.9102 0.0
C843 C 0.40559 0.23372 0.89208 0.0
C844 C 0.41551 0.1688 0.92173 0.0
C845 C 0.46149 0.18994 0.93595 0.0
N846 N 0.52352 0.25203 0.93503 0.0
N847 N 0.34372 0.17106 0.87739 0.0
C848 C 0.47948 0.23269 0.92815 0.0
C849 C 0.3875 0.19079 0.89754 0.0
N850 N 0.46782 0.29619 0.91103 0.0
N851 N 0.39862 0.12775 0.93181 0.0
H852 H 0.32234 0.18646 0.86173 0.0
H853 H 0.32866 0.13975 0.87369 0.0
H854 H 0.41778 0.11005 0.94507 0.0
H855 H 0.36578 0.11125 0.92955 0.0
H856 H 0.49991 0.31325 0.93015 0.0
H857 H 0.44841 0.31339 0.89676 0.0
H858 H 0.53823 0.28241 0.92356 0.0
H859 H 0.54542 0.23699 0.94767 0.0
C860 C 0.90405 0.40966 0.9283 0.0
C861 C 0.89522 0.36778 0.94577 0.0
C862 C 0.94769 0.39121 0.03587 0.0
C863 C 0.95602 0.43303 0.02011 0.0
N864 N 0.93567 0.48125 0.95226 0.0
N865 N 0.89288 0.3237 0.02818 0.0
C866 C 0.932 0.44191 0.96659 0.0
C867 C 0.91232 0.36005 1.00306 0.0
N868 N 0.88542 0.41894 0.87534 0.0
N869 N 0.97364 0.38042 0.08233 0.0
H870 H 0.86307 0.3024 0.00896 0.0
H871 H 0.90243 0.31782 0.07061 0.0
H872 H 0.99859 0.40134 0.10964 0.0
H873 H 0.97161 0.35043 0.09181 0.0
H874 H 0.89469 0.448 0.85698 0.0
H875 H 0.86093 0.39718 0.84897 0.0
H876 H 0.91649 0.49006 0.91681 0.0
H877 H 0.95572 0.5051 0.97828 0.0
C878 C 0.71879 0.9488 0.96892 0.0
C879 C 0.7541 0.98155 0.95391 0.0
C880 C 0.72581 1.02981 0.97427 0.0
C881 C 0.69447 0.99719 0.99701 0.0
N882 N 0.66985 0.92675 0.029 0.0
N883 N 0.79421 0.0535 0.94724 0.0
C884 C 0.69286 0.95688 0.99722 0.0
C885 C 0.75861 1.02221 0.95824 0.0
N886 N 0.71109 0.90965 0.95875 0.0
N887 N 0.72293 0.06738 0.96495 0.0
H888 H 0.81767 0.0489 0.93302 0.0
H889 H 0.80179 0.08359 0.95561 0.0
H890 H 0.69816 0.07379 0.97316 0.0
H891 H 0.74239 0.09112 0.94372 0.0
H892 H 0.68284 0.88543 0.96322 0.0
H893 H 0.73099 0.90149 0.94201 0.0
H894 H 0.67092 0.89767 0.03471 0.0
H895 H 0.65472 0.93205 0.05608 0.0
C896 C 0.93824 0.74469 0.25491 0.0
C897 C 0.89222 0.73174 0.24912 0.0
C898 C 0.88607 0.67382 0.19396 0.0
C899 C 0.93286 0.6853 0.20266 0.0
N900 N 1.00104 0.72668 0.26193 0.0
N901 N 0.82342 0.67833 0.21833 0.0
C902 C 0.95799 0.71962 0.2384 0.0
C903 C 0.86683 0.69471 0.22008 0.0
N904 N 0.96416 0.78146 0.27736 0.0
N905 N 0.85876 0.64311 0.15946 0.0
H906 H 0.80836 0.69272 0.23462 0.0
H907 H 0.80315 0.64924 0.20515 0.0
H908 H 0.86913 0.62439 0.14375 0.0
H909 H 0.82565 0.63743 0.1438 0.0
H910 H 0.99688 0.79563 0.2769 0.0
H911 H 0.95198 0.79924 0.29242 0.0
H912 H 1.02019 0.74809 0.29189 0.0
H913 H 1.01602 0.70699 0.25917 0.0
C914 C 0.42494 0.94578 0.21523 0.0
C915 C 0.4067 0.90377 0.20071 0.0
C916 C 0.45494 0.92352 0.13559 0.0
C917 C 0.47275 0.9656 0.14928 0.0
N918 N 0.46666 1.01697 0.19446 0.0
N919 N 0.39718 0.85674 0.13475 0.0
C920 C 0.45478 0.97669 0.18626 0.0
C921 C 0.41982 0.89399 0.15741 0.0
N922 N 0.41622 0.95621 0.25944 0.0
N923 N 0.47217 0.91113 0.10189 0.0
H924 H 0.37093 0.83492 0.14818 0.0
H925 H 0.40122 0.84897 0.09894 0.0
H926 H 0.49459 0.93131 0.08097 0.0
H927 H 0.46578 0.88075 0.09666 0.0
H928 H 0.43159 0.98489 0.27603 0.0
H929 H 0.39695 0.93536 0.28365 0.0
H930 H 0.45161 1.02805 0.21559 0.0
H931 H 0.48891 0.03974 0.17551 0.0
C932 C 0.67891 0.23177 0.22695 0.0
C933 C 0.70922 0.21579 0.26277 0.0
C934 C 0.66167 0.14916 0.22326 0.0
C935 C 0.63911 0.16808 0.17792 0.0
N936 N 0.63849 0.23289 0.13248 0.0
N937 N 0.72902 0.15694 0.29277 0.0
C938 C 0.65118 0.21101 0.17842 0.0
C939 C 0.70079 0.17383 0.25962 0.0
N940 N 0.67464 0.26545 0.2398 0.0
N941 N 0.64455 0.10835 0.23491 0.0
H942 H 0.75525 0.17291 0.32375 0.0
H943 H 0.72691 0.12768 0.28787 0.0
H944 H 0.6131 0.0898 0.21579 0.0
H945 H 0.65884 0.09409 0.26945 0.0
H946 H 0.65133 0.27672 0.21514 0.0
H947 H 0.68847 0.27709 0.27909 0.0
H948 H 0.64897 0.26452 0.13177 0.0
H949 H 0.62332 0.22067 0.09356 0.0
C950 C 0.72779 0.72586 0.94195 0.0
C951 C 0.72483 0.72229 0.88458 0.0
C952 C 0.65783 0.65863 0.88782 0.0
C953 C 0.66137 0.66154 0.94519 0.0
N954 N 0.70738 0.69477 0.0286 0.0
N955 N 0.69362 0.67376 0.81236 0.0
C956 C 0.6988 0.69427 0.97248 0.0
C957 C 0.69155 0.68544 0.86038 0.0
N958 N 0.75746 0.76038 0.96749 0.0
N959 N 0.62144 0.63007 0.85836 0.0
H960 H 0.71949 0.68896 0.7941 0.0
H961 H 0.67325 0.64587 0.79507 0.0
H962 H 0.59787 0.60856 0.87681 0.0
H963 H 0.61345 0.62942 0.81538 0.0
H964 H 0.75845 0.76786 0.00636 0.0
H965 H 0.77934 0.78304 0.94805 0.0
H966 H 0.7356 0.71482 0.05296 0.0
H967 H 0.68793 0.67207 0.05117 0.0
C968 C 0.39047 0.69845 0.92189 0.0
C969 C 0.40893 0.74021 0.90404 0.0
C970 C 0.48097 0.73163 0.92784 0.0
C971 C 0.46099 0.68909 0.9388 0.0
N972 N 0.39451 0.63121 0.93607 0.0
N973 N 0.47571 0.79865 0.91215 0.0
C974 C 0.41513 0.67242 0.93238 0.0
C975 C 0.45539 0.7573 0.91275 0.0
N976 N 0.35114 0.68401 0.93502 0.0
N977 N 0.52439 0.74733 0.92941 0.0
H978 H 0.45917 0.81827 0.90865 0.0
H979 H 0.50933 0.81372 0.92238 0.0
H980 H 0.54399 0.72993 0.94112 0.0
H981 H 0.54048 0.7766 0.91523 0.0
H982 H 0.33806 0.65502 0.9523 0.0
H983 H 0.3351 0.70241 0.93877 0.0
H984 H 0.36074 0.61684 0.92469 0.0
H985 H 0.41102 0.61111 0.94561 0.0
C986 C 0.46854 0.43195 0.85141 0.0
C987 C 0.43869 0.39546 0.86994 0.0
C988 C 0.46179 0.42405 0.96147 0.0
C989 C 0.49653 0.45667 0.94622 0.0
N990 N 0.53613 0.4899 0.8767 0.0
N991 N 0.41759 0.35386 0.94914 0.0
C992 C 0.5007 0.46042 0.89098 0.0
C993 C 0.43801 0.39077 0.92667 0.0
N994 N 0.46573 0.43988 0.79613 0.0
N995 N 0.45056 0.42517 0.00878 0.0
H996 H 0.40051 0.32847 0.92564 0.0
H997 H 0.42062 0.34821 0.99158 0.0
H998 H 0.46589 0.45039 0.03354 0.0
H999 H 0.42303 0.4033 0.01946 0.0
H1000 H 0.48387 0.46763 0.77998 0.0
H1001 H 0.4423 0.42018 0.76609 0.0
H1002 H 0.54338 0.49114 0.83892 0.0
H1003 H 0.56008 0.51134 0.90416 0.0
C1004 C 0.68616 0.45524 0.88299 0.0
C1005 C 0.70473 0.42543 0.906 0.0
C1006 C 0.70123 0.43647 0.99844 0.0
C1007 C 0.6774 0.46182 0.97444 0.0
N1008 N 0.64611 0.4955 0.89408 0.0
N1009 N 0.72716 0.38505 0.98491 0.0
C1010 C 0.66995 0.47156 0.91675 0.0
C1011 C 0.71167 0.41541 0.96369 0.0
N1012 N 0.68419 0.46804 0.82886 0.0
N1013 N 0.71436 0.43322 0.05464 0.0
H1014 H 0.73688 0.37024 0.96125 0.0
H1015 H 0.72781 0.37272 0.02498 0.0
H1016 H 0.7097 0.45074 0.08027 0.0
H1017 H 0.73219 0.4156 0.07583 0.0
H1018 H 0.67538 0.49262 0.81092 0.0
H1019 H 0.69426 0.45577 0.80244 0.0
H1020 H 0.63441 0.49964 0.85173 0.0
H1021 H 0.63641 0.51011 0.91805 0.0
C1022 C 0.71814 0.4065 0.27749 0.0
C1023 C 0.72562 0.3787 0.25018 0.0
C1024 C 0.67523 0.39369 0.16379 0.0
C1025 C 0.67112 0.42433 0.19039 0.0
N1026 N 0.66977 0.44018 0.2796 0.0
N1027 N 0.71216 0.34742 0.16482 0.0
C1028 C 0.68736 0.42519 0.24928 0.0
C1029 C 0.70432 0.37279 0.19266 0.0
N1030 N 0.74222 0.4172 0.32998 0.0
N1031 N 0.6484 0.38128 0.11305 0.0
H1032 H 0.7288 0.32831 0.18429 0.0
H1033 H 0.70387 0.34647 0.1219 0.0
H1034 H 0.62463 0.39277 0.09182 0.0
H1035 H 0.646 0.35615 0.09419 0.0
H1036 H 0.7419 0.44089 0.34943 0.0
H1037 H 0.76597 0.40564 0.35193 0.0
H1038 H 0.67721 0.43833 0.32267 0.0
H1039 H 0.64268 0.4483 0.26209 0.0
C1040 C 0.69263 0.73503 0.17774 0.0
C1041 C 0.71559 0.72208 0.22818 0.0
C1042 C 0.66635 0.65121 0.20877 0.0
C1043 C 0.64604 0.66357 0.15544 0.0
N1044 N 0.64874 0.71769 0.08485 0.0
N1045 N 0.73124 0.66657 0.28438 0.0
C1046 C 0.66181 0.70566 0.13866 0.0
C1047 C 0.70468 0.67977 0.24128 0.0
N1048 N 0.69907 0.77532 0.16774 0.0
N1049 N 0.64769 0.6132 0.23061 0.0
H1050 H 0.75999 0.68633 0.30841 0.0
H1051 H 0.72717 0.63601 0.29226 0.0
H1052 H 0.61793 0.59214 0.2109 0.0
H1053 H 0.65914 0.6043 0.27133 0.0
H1054 H 0.68001 0.7862 0.13424 0.0
H1055 H 0.72068 0.7974 0.19588 0.0
H1056 H 0.66235 0.74725 0.06948 0.0
H1057 H 0.62837 0.69738 0.05398 0.0
C1058 C 0.38937 0.66339 0.12076 0.0
C1059 C 0.3753 0.63423 0.1623 0.0
C1060 C 0.399 0.58769 0.12878 0.0
C1061 C 0.42347 0.62093 0.09863 0.0
N1062 N 0.44185 0.69106 0.06551 0.0
N1063 N 0.36152 0.5669 0.20295 0.0
C1064 C 0.41777 0.65871 0.09334 0.0
C1065 C 0.37757 0.59537 0.16447 0.0
N1066 N 0.37714 0.69635 0.1094 0.0
N1067 N 0.39745 0.54942 0.12478 0.0
H1068 H 0.34416 0.57173 0.22757 0.0
H1069 H 0.36653 0.5395 0.21164 0.0
H1070 H 0.4135 0.54295 0.09998 0.0
H1071 H 0.37722 0.52361 0.14214 0.0
H1072 H 0.3833 0.71678 0.07613 0.0
H1073 H 0.35671 0.70078 0.12949 0.0
H1074 H 0.44284 0.72054 0.06575 0.0
H1075 H 0.46334 0.68903 0.04519 0.0
C1076 C 0.44102 0.38175 0.19142 0.0
C1077 C 0.41502 0.39383 0.21601 0.0
C1078 C 0.45721 0.4664 0.18448 0.0
C1079 C 0.4816 0.45377 0.15747 0.0
N1080 N 0.48721 0.39529 0.12758 0.0
N1081 N 0.39815 0.44994 0.2313 0.0
C1082 C 0.47047 0.41025 0.15907 0.0
C1083 C 0.42298 0.43685 0.21046 0.0
N1084 N 0.43887 0.34244 0.2004 0.0
N1085 N 0.46846 0.50713 0.18829 0.0
H1086 H 0.37585 0.43039 0.25299 0.0
H1087 H 0.39786 0.47925 0.22488 0.0
H1088 H 0.49168 0.52863 0.16937 0.0
H1089 H 0.45688 0.51969 0.21235 0.0
H1090 H 0.46066 0.33221 0.19119 0.0
H1091 H 0.41733 0.32054 0.22122 0.0
H1092 H 0.47683 0.36453 0.12043 0.0
H1093 H 0.508 0.41378 0.10334 0.0
C1094 C 0.93815 0.68318 0.61759 0.0
C1095 C 0.89713 0.65975 0.62897 0.0
C1096 C 0.90582 0.59673 0.61687 0.0
C1097 C 0.94716 0.62012 0.6065 0.0
N1098 N 0.99898 0.68463 0.58506 0.0
N1099 N 0.83745 0.59557 0.62796 0.0
C1100 C 0.96213 0.66316 0.60308 0.0
C1101 C 0.87949 0.61689 0.62472 0.0
N1102 N 0.95455 0.72443 0.62216 0.0
N1103 N 0.89284 0.55532 0.62216 0.0
H1104 H 0.8176 0.6093 0.63487 0.0
H1105 H 0.82103 0.56491 0.61959 0.0
H1106 H 0.91065 0.53949 0.61499 0.0
H1107 H 0.86573 0.53666 0.63654 0.0
H1108 H 0.9861 0.74308 0.62025 0.0
H1109 H 0.9371 0.74014 0.63059 0.0
H1110 H 1.01016 0.71591 0.57733 0.0
H1111 H 1.01657 0.67056 0.57319 0.0
C1112 C 0.58294 0.98524 0.72815 0.0
C1113 C 0.56427 0.94441 0.71327 0.0
C1114 C 0.57405 0.96347 0.62116 0.0
C1115 C 0.58399 1.00486 0.63174 0.0
N1116 N 0.61115 0.05589 0.70073 0.0
N1117 N 0.56443 0.89536 0.65823 0.0
C1118 C 0.59351 1.01611 0.68718 0.0
C1119 C 0.57034 0.93445 0.66524 0.0
N1120 N 0.5864 0.99501 0.77977 0.0
N1121 N 0.5631 0.94952 0.5695 0.0
H1122 H 0.55988 0.87334 0.6903 0.0
H1123 H 0.56646 0.88621 0.62191 0.0
H1124 H 0.55948 0.96699 0.53297 0.0
H1125 H 0.55948 0.96699 0.53297 0.0
H1126 H 0.57777 0.9729 0.81071 0.0
H1127 H 0.57777 0.9729 0.81071 0.0
H1128 H 0.61765 0.06463 0.74105 0.0
H1129 H 0.62082 0.07961 0.67227 0.0
C1130 C 0.23081 0.38044 0.7001 0.0
C1131 C 0.27603 0.39332 0.70445 0.0
C1132 C 0.27752 0.46187 0.67204 0.0
C1133 C 0.23363 0.45018 0.67606 0.0
N1134 N 0.17255 0.39971 0.70695 0.0
N1135 N 0.34407 0.44741 0.70024 0.0
C1136 C 0.21127 0.40974 0.69335 0.0
C1137 C 0.29987 0.43433 0.69167 0.0
N1138 N 0.20635 0.33994 0.70217 0.0
N1139 N 0.29755 0.49846 0.64777 0.0
H1140 H 0.36123 0.42785 0.71278 0.0
H1141 H 0.36397 0.47796 0.69848 0.0
H1142 H 0.28271 0.51941 0.63137 0.0
H1143 H 0.32757 0.50642 0.63872 0.0
H1144 H 0.17248 0.32859 0.69411 0.0
H1145 H 0.21966 0.31778 0.70558 0.0
H1146 H 0.15707 0.37153 0.72471 0.0
H1147 H 0.15855 0.42087 0.707 0.0
C1148 C 0.72136 0.17885 0.67214 0.0
C1149 C 0.76762 0.197 0.68976 0.0
C1150 C 0.76937 0.14154 0.63945 0.0
C1151 C 0.72334 0.12738 0.61392 0.0
N1152 N 0.65726 0.13944 0.60505 0.0
N1153 N 0.83516 0.19799 0.67955 0.0
C1154 C 0.70009 0.14798 0.6304 0.0
C1155 C 0.79126 0.17859 0.67084 0.0
N1156 N 0.69703 0.19077 0.69572 0.0
N1157 N 0.79316 0.11994 0.6343 0.0
H1158 H 0.85252 0.22381 0.70305 0.0
H1159 H 0.85307 0.19069 0.65841 0.0
H1160 H 0.78038 0.0943 0.6109 0.0
H1161 H 0.82564 0.12661 0.65548 0.0
H1162 H 0.66357 0.17568 0.69057 0.0
H1163 H 0.711 0.21327 0.72486 0.0
H1164 H 0.64081 0.15749 0.60894 0.0
H1165 H 0.639 0.11613 0.57787 0.0
C1166 C 0.94837 0.4427 0.36844 0.0
C1167 C 0.91721 0.41362 0.39469 0.0
C1168 C 0.94639 0.45475 0.47623 0.0
C1169 C 0.97739 0.48477 0.45058 0.0
N1170 N 1.01322 0.50495 0.37601 0.0
N1171 N 0.90398 0.3833 0.48157 0.0
C1172 C 0.9803 0.47788 0.39777 0.0
C1173 C 0.9215 0.41713 0.45112 0.0
N1174 N 0.94773 0.43607 0.31633 0.0
N1175 N 0.94006 0.46203 0.52423 0.0
H1176 H 0.89147 0.3549 0.46454 0.0
H1177 H 0.90691 0.38295 0.52385 0.0
H1178 H 0.95701 0.48948 0.54389 0.0
H1179 H 0.91499 0.44208 0.54155 0.0
H1180 H 0.96789 0.4566 0.29307 0.0
H1181 H 0.9274 0.4088 0.29721 0.0
H1182 H 1.01974 0.50056 0.34004 0.0
H1183 H 1.03558 0.53146 0.39567 0.0
C1184 C 0.72882 0.86514 0.39737 0.0
C1185 C 0.75974 0.88109 0.36308 0.0
C1186 C 0.74876 0.94814 0.3651 0.0
C1187 C 0.72168 0.93315 0.40389 0.0
N1188 N 0.69284 0.87595 0.4625 0.0
N1189 N 0.80508 0.94414 0.32678 0.0
C1190 C 0.71419 0.89131 0.42153 0.0
C1191 C 0.77096 0.92434 0.35044 0.0
N1192 N 0.71031 0.82398 0.40427 0.0
N1193 N 0.75307 0.98567 0.34064 0.0
H1194 H 0.82366 0.9297 0.31835 0.0
H1195 H 0.81803 0.97563 0.3212 0.0
H1196 H 0.73974 1.00436 0.3514 0.0
H1197 H 0.76681 0.99675 0.30695 0.0
H1198 H 0.68473 0.80971 0.42333 0.0
H1199 H 0.71661 0.80383 0.38497 0.0
H1200 H 0.6903 0.84785 0.48269 0.0
H1201 H 0.68152 0.89325 0.47997 0.0
C1202 C 0.25428 0.69809 0.46024 0.0
C1203 C 0.23639 0.71983 0.4136 0.0
C1204 C 0.16244 0.66952 0.42289 0.0
C1205 C 0.17996 0.64927 0.4711 0.0
N1206 N 0.24482 0.65109 0.54052 0.0
N1207 N 0.17048 0.73269 0.36858 0.0
C1208 C 0.22658 0.66583 0.4909 0.0
C1209 C 0.18966 0.70752 0.40051 0.0
N1210 N 0.29841 0.7085 0.47638 0.0
N1211 N 0.1197 0.6517 0.39615 0.0
H1212 H 0.18829 0.76099 0.35394 0.0
H1213 H 0.13764 0.7276 0.36319 0.0
H1214 H 0.09934 0.62415 0.41014 0.0
H1215 H 0.10561 0.66288 0.3583 0.0
H1216 H 0.31367 0.69064 0.50356 0.0
H1217 H 0.31996 0.73463 0.46126 0.0
H1218 H 0.27745 0.66388 0.56136 0.0
H1219 H 0.22615 0.62821 0.56348 0.0
C1220 C 0.39014 0.19154 0.33294 0.0
C1221 C 0.40675 0.23345 0.34648 0.0
C1222 C 0.48031 0.22565 0.38483 0.0
C1223 C 0.46295 0.18287 0.37379 0.0
N1224 N 0.40399 0.13438 0.31153 0.0
N1225 N 0.46978 0.28883 0.39061 0.0
C1226 C 0.4185 0.16848 0.341 0.0
C1227 C 0.45235 0.24969 0.37416 0.0
N1228 N 0.34614 0.17223 0.31475 0.0
N1229 N 0.52447 0.24525 0.39935 0.0
H1230 H 0.45362 0.30911 0.37779 0.0
H1231 H 0.49952 0.30076 0.41926 0.0
H1232 H 0.54632 0.23156 0.4004 0.0
H1233 H 0.53999 0.27653 0.40288 0.0
H1234 H 0.33123 0.14088 0.31064 0.0
H1235 H 0.32406 0.18656 0.30992 0.0
H1236 H 0.37398 0.12439 0.28276 0.0
H1237 H 0.4244 0.12008 0.30828 0.0
C1238 C 0.78245 0.90415 0.65093 0.0
C1239 C 0.76392 0.88851 0.69728 0.0
C1240 C 0.72893 0.9396 0.67503 0.0
C1241 C 0.7435 0.95195 0.6255 0.0
N1242 N 0.7774 0.93957 0.5614 0.0
N1243 N 0.71411 0.88788 0.74839 0.0
C1244 C 0.76847 0.93252 0.6122 0.0
C1245 C 0.73571 0.9054 0.70792 0.0
N1246 N 0.81527 0.8938 0.64494 0.0
N1247 N 0.7099 0.96151 0.69181 0.0
H1248 H 0.71762 0.86254 0.77247 0.0
H1249 H 0.68978 0.89596 0.75469 0.0
H1250 H 0.70537 0.98713 0.6697 0.0
H1251 H 0.70255 0.95682 0.73013 0.0
H1252 H 0.83368 0.9084 0.61633 0.0
H1253 H 0.82714 0.87349 0.67153 0.0
H1254 H 0.79034 0.9223 0.54677 0.0
H1255 H 0.76838 0.9601 0.53171 0.0
C1256 C 0.71856 0.18401 0.45844 0.0
C1257 C 0.75759 0.18252 0.49739 0.0
C1258 C 0.74566 0.11817 0.45936 0.0
C1259 C 0.70674 0.12018 0.42173 0.0
N1260 N 0.66709 0.16179 0.37119 0.0
N1261 N 0.81175 0.15124 0.52802 0.0
C1262 C 0.69712 0.15546 0.4167 0.0
C1263 C 0.77228 0.15066 0.49537 0.0
N1264 N 0.70011 0.21124 0.46101 0.0
N1265 N 0.75662 0.0848 0.46313 0.0
H1266 H 0.82992 0.1709 0.5603 0.0
H1267 H 0.82748 0.13296 0.52243 0.0
H1268 H 0.74444 0.06363 0.43278 0.0
H1269 H 0.77908 0.07828 0.49671 0.0
H1270 H 0.66821 0.20763 0.43962 0.0
H1271 H 0.71374 0.23608 0.48563 0.0
H1272 H 0.66246 0.18937 0.36156 0.0
H1273 H 0.65045 0.14105 0.33977 0.0
C1274 C 1.02878 0.72653 0.45041 0.0
C1275 C 0.98384 0.71362 0.42275 0.0
C1276 C 0.99258 0.66494 0.37281 0.0
C1277 C 1.03029 0.66798 0.41451 0.0
N1278 N 0.09652 0.71502 0.46609 0.0
N1279 N 0.92416 0.67551 0.35008 0.0
C1280 C 1.05319 0.70469 0.4421 0.0
C1281 C 0.9664 0.68532 0.37984 0.0
N1282 N 1.04652 0.75609 0.48833 0.0
N1283 N 0.97952 0.6379 0.3326 0.0
H1284 H 0.90462 0.69062 0.35407 0.0
H1285 H 0.90838 0.65214 0.32236 0.0
H1286 H 0.99871 0.62157 0.33131 0.0
H1287 H 0.95202 0.63365 0.29986 0.0
H1288 H 0.07796 0.76384 0.51367 0.0
H1289 H 1.02919 0.77217 0.49598 0.0
H1290 H 0.11626 0.74257 0.48464 0.0
H1291 H 0.11276 0.6962 0.46406 0.0
C1292 C 0.4555 0.90934 0.37623 0.0
C1293 C 0.41967 0.8943 0.40108 0.0
C1294 C 0.45127 0.95732 0.45276 0.0
C1295 C 0.48312 0.97475 0.42126 0.0
N1296 N 0.50984 0.96866 0.34524 0.0
N1297 N 0.3814 0.90553 0.45995 0.0
C1298 C 0.48387 0.95096 0.38115 0.0
C1299 C 0.41703 0.91876 0.43859 0.0
N1300 N 0.46273 0.88372 0.3481 0.0
N1301 N 0.45482 0.97656 0.49792 0.0
H1302 H 0.35681 0.87696 0.45213 0.0
H1303 H 0.375 0.92381 0.48245 0.0
H1304 H 0.47998 1.00393 0.5108 0.0
H1305 H 0.43538 0.96344 0.52574 0.0
H1306 H 0.49048 0.8919 0.33339 0.0
H1307 H 0.44335 0.85294 0.34462 0.0
H1308 H 0.50853 0.95391 0.31167 0.0
H1309 H 0.52907 0.9995 0.34486 0.0
C1310 C 0.30192 0.49694 0.51283 0.0
C1311 C 0.28986 0.45464 0.50884 0.0
C1312 C 0.2196 0.44218 0.52711 0.0
C1313 C 0.2293 0.48479 0.52353 0.0
N1314 N 0.27727 0.55285 0.50473 0.0
N1315 N 0.23568 0.38666 0.50603 0.0
C1316 C 0.26999 0.51234 0.51468 0.0
C1317 C 0.2485 0.42707 0.51503 0.0
N1318 N 0.34399 0.52227 0.51512 0.0
N1319 N 0.18299 0.41603 0.5426 0.0
H1320 H 0.25578 0.37396 0.49747 0.0
H1321 H 0.20392 0.36606 0.50286 0.0
H1322 H 0.15948 0.42523 0.54899 0.0
H1323 H 0.17755 0.38549 0.55343 0.0
H1324 H 0.35593 0.55294 0.52365 0.0
H1325 H 0.36802 0.51167 0.51375 0.0
H1326 H 0.30449 0.57353 0.49221 0.0
H1327 H 0.2544 0.56547 0.50395 0.0
C1328 C 0.48987 0.22313 0.55661 0.0
C1329 C 0.4542 0.20085 0.58048 0.0
C1330 C 0.46181 0.13675 0.56703 0.0
C1331 C 0.49833 0.15904 0.54422 0.0
N1332 N 0.54928 0.22422 0.52155 0.0
N1333 N 0.40085 0.13637 0.59871 0.0
C1334 C 0.51264 0.20244 0.5399 0.0
C1335 C 0.43865 0.15762 0.58271 0.0
N1336 N 0.50093 0.26425 0.54788 0.0
N1337 N 0.45132 0.09588 0.57807 0.0
H1338 H 0.38395 0.15044 0.61202 0.0
H1339 H 0.38434 0.10518 0.59495 0.0
H1340 H 0.4675 0.07939 0.56858 0.0
H1341 H 0.42888 0.07853 0.60074 0.0
H1342 H 0.52266 0.28218 0.52458 0.0
H1343 H 0.48607 0.28054 0.56089 0.0
H1344 H 0.56573 0.25541 0.52528 0.0
H1345 H 0.56455 0.21103 0.50381 0.0
C1346 C 0.96034 0.41603 0.75644 0.0
C1347 C 0.93385 0.37894 0.72857 0.0
C1348 C 0.97406 0.40817 0.65303 0.0
C1349 C 0.99738 0.44651 0.67859 0.0
N1350 N 1.02023 0.48231 0.76201 0.0
N1351 N 0.91717 0.33979 0.64989 0.0
C1352 C 0.99243 0.44876 0.7325 0.0
C1353 C 0.94187 0.37497 0.6771 0.0
N1354 N 0.95418 0.42034 0.80608 0.0
N1355 N 0.98349 0.40329 0.60604 0.0
H1356 H 0.89441 0.31549 0.66631 0.0
H1357 H 0.9179 0.33489 0.61064 0.0
H1358 H 1.00616 0.42672 0.58837 0.0
H1359 H 0.97187 0.37578 0.58697 0.0
H1360 H 0.96738 0.4475 0.82641 0.0
H1361 H 0.93429 0.39644 0.82665 0.0
H1362 H 1.02206 0.486 0.80288 0.0
H1363 H 1.04469 0.50547 0.74678 0.0
C1364 C 0.22289 0.70694 0.68167 0.0
C1365 C 0.2464 0.70516 0.73726 0.0
C1366 C 0.22064 0.63059 0.7347 0.0
C1367 C 0.19671 0.63213 0.67909 0.0
N1368 N 0.16512 0.67159 0.60631 0.0
N1369 N 0.26319 0.66373 0.81888 0.0
C1370 C 0.19485 0.67023 0.65456 0.0
C1371 C 0.24372 0.6668 0.76431 0.0
N1372 N 0.22886 0.74366 0.65351 0.0
N1373 N 0.22074 0.59425 0.76045 0.0
H1374 H 0.27935 0.68846 0.84446 0.0
H1375 H 0.27935 0.68846 0.84446 0.0
H1376 H 0.20347 0.56652 0.74124 0.0
H1377 H 0.23814 0.59202 0.80127 0.0
H1378 H 0.21761 0.74657 0.6108 0.0
H1379 H 0.24782 0.77143 0.67197 0.0
H1380 H 0.15898 0.69772 0.58944 0.0
H1381 H 0.14283 0.64566 0.58682 0.0
loop_
_geom_bond_atom_site_label_1
_geom_bond_atom_site_label_2
_geom_bond_distance
_geom_bond_site_symmetry_2
_ccdc_geom_bond_type
C0 Eu1 2.835 . S
C0 C2 1.500 . S
C0 O20 1.257 . S
C0 O21 1.260 . S
Eu1 C0 2.835 . S
Eu1 O20 2.473 . S
Eu1 O21 2.480 . S
Eu1 O22 2.430 . S
Eu1 O23 2.670 . S
Eu1 O24 2.394 . S
Eu1 O29 2.355 . S
Eu1 O31 2.374 . S
C2 C0 1.500 . S
C2 C3 1.377 . S
C2 C7 1.377 . S
C3 C2 1.377 . S
C3 C4 1.395 . S
C3 H32 0.931 . S
C4 C3 1.395 . S
C4 C5 1.383 . S
C4 H33 0.931 . S
C5 C4 1.383 . S
C5 C6 1.394 . S
C6 C5 1.394 . S
C6 C7 1.378 . S
C6 H34 0.931 . S
C7 C2 1.377 . S
C7 C6 1.378 . S
C7 H35 0.931 . S
C8 O22 1.259 . S
C8 O23 1.270 . S
C9 O24 1.251 . S
C9 O25 1.251 . S
C10 Eu11 2.835 . S
C10 C12 1.500 . S
C10 O26 1.257 . S
C10 O27 1.260 . S
Eu11 C10 2.835 . S
Eu11 O23 2.355 . S
Eu11 O25 2.374 . S
Eu11 O26 2.473 . S
Eu11 O27 2.480 . S
Eu11 O28 2.430 . S
Eu11 O29 2.670 . S
Eu11 O30 2.394 . S
C12 C10 1.500 . S
C12 C13 1.377 . S
C12 C17 1.377 . S
C13 C12 1.377 . S
C13 C14 1.395 . S
C13 H36 0.931 . S
C14 C13 1.395 . S
C14 C15 1.383 . S
C14 H37 0.931 . S
C15 C14 1.383 . S
C15 C16 1.394 . S
C16 C15 1.394 . S
C16 C17 1.378 . S
C16 H38 0.931 . S
C17 C12 1.377 . S
C17 C16 1.378 . S
C17 H39 0.931 . S
C18 O28 1.259 . S
C18 O29 1.270 . S
C19 O30 1.251 . S
C19 O31 1.251 . S
O20 C0 1.257 . S
O20 Eu1 2.473 . S
O21 C0 1.260 . S
O21 Eu1 2.480 . S
O22 Eu1 2.430 . S
O22 C8 1.259 . S
O23 Eu1 2.670 . S
O23 C8 1.270 . S
O23 Eu11 2.355 . S
O24 Eu1 2.394 . S
O24 C9 1.251 . S
O25 C9 1.251 . S
O25 Eu11 2.374 . S
O26 C10 1.257 . S
O26 Eu11 2.473 . S
O27 C10 1.260 . S
O27 Eu11 2.480 . S
O28 Eu11 2.430 . S
O28 C18 1.259 . S
O29 Eu1 2.355 . S
O29 Eu11 2.670 . S
O29 C18 1.270 . S
O30 Eu11 2.394 . S
O30 C19 1.251 . S
O31 Eu1 2.374 . S
O31 C19 1.251 . S
H32 C3 0.931 . S
H33 C4 0.931 . S
H34 C6 0.931 . S
H35 C7 0.931 . S
H36 C13 0.931 . S
H37 C14 0.931 . S
H38 C16 0.931 . S
H39 C17 0.931 . S
C40 Eu41 2.835 . S
C40 C42 1.500 . S
C40 O60 1.257 . S
C40 O61 1.260 . S
Eu41 C40 2.835 . S
Eu41 O60 2.473 . S
Eu41 O61 2.480 . S
Eu41 O62 2.430 . S
Eu41 O63 2.670 . S
Eu41 O64 2.394 . S
Eu41 O69 2.355 . S
Eu41 O71 2.374 . S
C42 C40 1.500 . S
C42 C43 1.377 . S
C42 C47 1.377 . S
C43 C42 1.377 . S
C43 C44 1.395 . S
C43 H72 0.931 . S
C44 C43 1.395 . S
C44 C45 1.383 . S
C44 H73 0.931 . S
C45 C44 1.383 . S
C45 C46 1.394 . S
C46 C45 1.394 . S
C46 C47 1.378 . S
C46 H74 0.931 . S
C47 C42 1.377 . S
C47 C46 1.378 . S
C47 H75 0.931 . S
C48 O62 1.259 . S
C48 O63 1.270 . S
C49 O64 1.251 . S
C49 O65 1.251 . S
C50 Eu51 2.835 . S
C50 C52 1.500 . S
C50 O66 1.257 . S
C50 O67 1.260 . S
Eu51 C50 2.835 . S
Eu51 O63 2.355 . S
Eu51 O65 2.374 . S
Eu51 O66 2.473 . S
Eu51 O67 2.480 . S
Eu51 O68 2.430 . S
Eu51 O69 2.670 . S
Eu51 O70 2.394 . S
C52 C50 1.500 . S
C52 C53 1.377 . S
C52 C57 1.377 . S
C53 C52 1.377 . S
C53 C54 1.395 . S
C53 H76 0.931 . S
C54 C53 1.395 . S
C54 C55 1.383 . S
C54 H77 0.931 . S
C55 C54 1.383 . S
C55 C56 1.394 . S
C56 C55 1.394 . S
C56 C57 1.378 . S
C56 H78 0.931 . S
C57 C52 1.377 . S
C57 C56 1.378 . S
C57 H79 0.931 . S
C58 O68 1.259 . S
C58 O69 1.270 . S
C59 O70 1.251 . S
C59 O71 1.251 . S
O60 C40 1.257 . S
O60 Eu41 2.473 . S
O61 C40 1.260 . S
O61 Eu41 2.480 . S
O62 Eu41 2.430 . S
O62 C48 1.259 . S
O63 Eu41 2.670 . S
O63 C48 1.270 . S
O63 Eu51 2.355 . S
O64 Eu41 2.394 . S
O64 C49 1.251 . S
O65 C49 1.251 . S
O65 Eu51 2.374 . S
O66 C50 1.257 . S
O66 Eu51 2.473 . S
O67 C50 1.260 . S
O67 Eu51 2.480 . S
O68 Eu51 2.430 . S
O68 C58 1.259 . S
O69 Eu41 2.355 . S
O69 Eu51 2.670 . S
O69 C58 1.270 . S
O70 Eu51 2.394 . S
O70 C59 1.251 . S
O71 Eu41 2.374 . S
O71 C59 1.251 . S
H72 C43 0.931 . S
H73 C44 0.931 . S
H74 C46 0.931 . S
H75 C47 0.931 . S
H76 C53 0.931 . S
H77 C54 0.931 . S
H78 C56 0.931 . S
H79 C57 0.931 . S
C80 Eu81 2.835 . S
C80 C82 1.500 . S
C80 O100 1.257 . S
C80 O101 1.260 . S
Eu81 C80 2.835 . S
Eu81 O100 2.473 . S
Eu81 O101 2.480 . S
Eu81 O102 2.430 . S
Eu81 O103 2.670 . S
Eu81 O104 2.394 . S
Eu81 O109 2.355 . S
Eu81 O111 2.374 . S
C82 C80 1.500 . S
C82 C83 1.377 . S
C82 C87 1.377 . S
C83 C82 1.377 . S
C83 C84 1.395 . S
C83 H112 0.931 . S
C84 C83 1.395 . S
C84 C85 1.383 . S
C84 H113 0.931 . S
C85 C84 1.383 . S
C85 C86 1.394 . S
C86 C85 1.394 . S
C86 C87 1.378 . S
C86 H114 0.931 . S
C87 C82 1.377 . S
C87 C86 1.378 . S
C87 H115 0.931 . S
C88 O102 1.259 . S
C88 O103 1.270 . S
C89 O104 1.251 . S
C89 O105 1.251 . S
C90 Eu91 2.835 . S
C90 C92 1.500 . S
C90 O106 1.257 . S
C90 O107 1.260 . S
Eu91 C90 2.835 . S
Eu91 O103 2.355 . S
Eu91 O105 2.374 . S
Eu91 O106 2.473 . S
Eu91 O107 2.480 . S
Eu91 O108 2.430 . S
Eu91 O109 2.670 . S
Eu91 O110 2.394 . S
C92 C90 1.500 . S
C92 C93 1.377 . S
C92 C97 1.377 . S
C93 C92 1.377 . S
C93 C94 1.395 . S
C93 H116 0.931 . S
C94 C93 1.395 . S
C94 C95 1.383 . S
C94 H117 0.931 . S
C95 C94 1.383 . S
C95 C96 1.394 . S
C96 C95 1.394 . S
C96 C97 1.378 . S
C96 H118 0.931 . S
C97 C92 1.377 . S
C97 C96 1.378 . S
C97 H119 0.931 . S
C98 O108 1.259 . S
C98 O109 1.270 . S
C99 O110 1.251 . S
C99 O111 1.251 . S
O100 C80 1.257 . S
O100 Eu81 2.473 . S
O101 C80 1.260 . S
O101 Eu81 2.480 . S
O102 Eu81 2.430 . S
O102 C88 1.259 . S
O103 Eu81 2.670 . S
O103 C88 1.270 . S
O103 Eu91 2.355 . S
O104 Eu81 2.394 . S
O104 C89 1.251 . S
O105 C89 1.251 . S
O105 Eu91 2.374 . S
O106 C90 1.257 . S
O106 Eu91 2.473 . S
O107 C90 1.260 . S
O107 Eu91 2.480 . S
O108 Eu91 2.430 . S
O108 C98 1.259 . S
O109 Eu81 2.355 . S
O109 Eu91 2.670 . S
O109 C98 1.270 . S
O110 Eu91 2.394 . S
O110 C99 1.251 . S
O111 Eu81 2.374 . S
O111 C99 1.251 . S
H112 C83 0.931 . S
H113 C84 0.931 . S
H114 C86 0.931 . S
H115 C87 0.931 . S
H116 C93 0.931 . S
H117 C94 0.931 . S
H118 C96 0.931 . S
H119 C97 0.931 . S
C120 Eu121 2.835 . S
C120 C122 1.500 . S
C120 O140 1.257 . S
C120 O141 1.260 . S
Eu121 C120 2.835 . S
Eu121 O140 2.473 . S
Eu121 O141 2.480 . S
Eu121 O142 2.430 . S
Eu121 O143 2.670 . S
Eu121 O144 2.394 . S
Eu121 O149 2.355 . S
Eu121 O151 2.374 . S
C122 C120 1.500 . S
C122 C123 1.377 . S
C122 C127 1.377 . S
C123 C122 1.377 . S
C123 C124 1.395 . S
C123 H152 0.931 . S
C124 C123 1.395 . S
C124 C125 1.383 . S
C124 H153 0.931 . S
C125 C124 1.383 . S
C125 C126 1.394 . S
C126 C125 1.394 . S
C126 C127 1.378 . S
C126 H154 0.931 . S
C127 C122 1.377 . S
C127 C126 1.378 . S
C127 H155 0.931 . S
C128 O142 1.259 . S
C128 O143 1.270 . S
C129 O144 1.251 . S
C129 O145 1.251 . S
C130 Eu131 2.835 . S
C130 C132 1.500 . S
C130 O146 1.257 . S
C130 O147 1.260 . S
Eu131 C130 2.835 . S
Eu131 O143 2.355 . S
Eu131 O145 2.374 . S
Eu131 O146 2.473 . S
Eu131 O147 2.480 . S
Eu131 O148 2.430 . S
Eu131 O149 2.670 . S
Eu131 O150 2.394 . S
C132 C130 1.500 . S
C132 C133 1.377 . S
C132 C137 1.377 . S
C133 C132 1.377 . S
C133 C134 1.395 . S
C133 H156 0.931 . S
C134 C133 1.395 . S
C134 C135 1.383 . S
C134 H157 0.931 . S
C135 C134 1.383 . S
C135 C136 1.394 . S
C136 C135 1.394 . S
C136 C137 1.378 . S
C136 H158 0.931 . S
C137 C132 1.377 . S
C137 C136 1.378 . S
C137 H159 0.931 . S
C138 O148 1.259 . S
C138 O149 1.270 . S
C139 O150 1.251 . S
C139 O151 1.251 . S
O140 C120 1.257 . S
O140 Eu121 2.473 . S
O141 C120 1.260 . S
O141 Eu121 2.480 . S
O142 Eu121 2.430 . S
O142 C128 1.259 . S
O143 Eu121 2.670 . S
O143 C128 1.270 . S
O143 Eu131 2.355 . S
O144 Eu121 2.394 . S
O144 C129 1.251 . S
O145 C129 1.251 . S
O145 Eu131 2.374 . S
O146 C130 1.257 . S
O146 Eu131 2.473 . S
O147 C130 1.260 . S
O147 Eu131 2.480 . S
O148 Eu131 2.430 . S
O148 C138 1.259 . S
O149 Eu121 2.355 . S
O149 Eu131 2.670 . S
O149 C138 1.270 . S
O150 Eu131 2.394 . S
O150 C139 1.251 . S
O151 Eu121 2.374 . S
O151 C139 1.251 . S
H152 C123 0.931 . S
H153 C124 0.931 . S
H154 C126 0.931 . S
H155 C127 0.931 . S
H156 C133 0.931 . S
H157 C134 0.931 . S
H158 C136 0.931 . S
H159 C137 0.931 . S
C160 Eu161 2.835 . S
C160 C162 1.500 . S
C160 O180 1.257 . S
C160 O181 1.260 . S
Eu161 C160 2.835 . S
Eu161 O180 2.473 . S
Eu161 O181 2.480 . S
Eu161 O182 2.430 . S
Eu161 O183 2.670 . S
Eu161 O184 2.394 . S
Eu161 O189 2.355 . S
Eu161 O191 2.374 . S
C162 C160 1.500 . S
C162 C163 1.377 . S
C162 C167 1.377 . S
C163 C162 1.377 . S
C163 C164 1.395 . S
C163 H192 0.931 . S
C164 C163 1.395 . S
C164 C165 1.383 . S
C164 H193 0.931 . S
C165 C164 1.383 . S
C165 C166 1.394 . S
C166 C165 1.394 . S
C166 C167 1.378 . S
C166 H194 0.931 . S
C167 C162 1.377 . S
C167 C166 1.378 . S
C167 H195 0.931 . S
C168 O182 1.259 . S
C168 O183 1.270 . S
C169 O184 1.251 . S
C169 O185 1.251 . S
C170 Eu171 2.835 . S
C170 C172 1.500 . S
C170 O186 1.257 . S
C170 O187 1.260 . S
Eu171 C170 2.835 . S
Eu171 O183 2.355 . S
Eu171 O185 2.374 . S
Eu171 O186 2.473 . S
Eu171 O187 2.480 . S
Eu171 O188 2.430 . S
Eu171 O189 2.670 . S
Eu171 O190 2.394 . S
C172 C170 1.500 . S
C172 C173 1.377 1_556 S
C172 C177 1.377 . S
C173 C172 1.377 1_554 S
C173 C174 1.395 . S
C173 H196 0.931 . S
C174 C173 1.395 . S
C174 C175 1.383 . S
C174 H197 0.931 . S
C175 C174 1.383 . S
C175 C176 1.394 1_554 S
C176 C175 1.394 1_556 S
C176 C177 1.378 . S
C176 H198 0.931 . S
C177 C172 1.377 . S
C177 C176 1.378 . S
C177 H199 0.931 . S
C178 O188 1.259 . S
C178 O189 1.270 . S
C179 O190 1.251 . S
C179 O191 1.251 . S
O180 C160 1.257 . S
O180 Eu161 2.473 . S
O181 C160 1.260 . S
O181 Eu161 2.480 . S
O182 Eu161 2.430 . S
O182 C168 1.259 . S
O183 Eu161 2.670 . S
O183 C168 1.270 . S
O183 Eu171 2.355 . S
O184 Eu161 2.394 . S
O184 C169 1.251 . S
O185 C169 1.251 . S
O185 Eu171 2.374 . S
O186 C170 1.257 . S
O186 Eu171 2.473 . S
O187 C170 1.260 . S
O187 Eu171 2.480 . S
O188 Eu171 2.430 . S
O188 C178 1.259 . S
O189 Eu161 2.355 . S
O189 Eu171 2.670 . S
O189 C178 1.270 . S
O190 Eu171 2.394 . S
O190 C179 1.251 . S
O191 Eu161 2.374 . S
O191 C179 1.251 . S
H192 C163 0.931 . S
H193 C164 0.931 . S
H194 C166 0.931 . S
H195 C167 0.931 . S
H196 C173 0.931 . S
H197 C174 0.931 . S
H198 C176 0.931 . S
H199 C177 0.931 . S
C200 Eu201 2.835 . S
C200 C202 1.500 . S
C200 O220 1.257 . S
C200 O221 1.260 . S
Eu201 C200 2.835 . S
Eu201 O220 2.473 . S
Eu201 O221 2.480 . S
Eu201 O222 2.430 . S
Eu201 O223 2.670 . S
Eu201 O224 2.394 . S
Eu201 O229 2.355 . S
Eu201 O231 2.374 . S
C202 C200 1.500 . S
C202 C203 1.377 . S
C202 C207 1.377 . S
C203 C202 1.377 . S
C203 C204 1.395 . S
C203 H232 0.931 . S
C204 C203 1.395 . S
C204 C205 1.383 . S
C204 H233 0.931 . S
C205 C204 1.383 . S
C205 C206 1.394 . S
C206 C205 1.394 . S
C206 C207 1.378 . S
C206 H234 0.931 . S
C207 C202 1.377 . S
C207 C206 1.378 . S
C207 H235 0.931 . S
C208 O222 1.259 . S
C208 O223 1.270 . S
C209 O224 1.251 . S
C209 O225 1.251 . S
C210 Eu211 2.835 . S
C210 C212 1.500 . S
C210 O226 1.257 . S
C210 O227 1.260 . S
Eu211 C210 2.835 . S
Eu211 O223 2.355 . S
Eu211 O225 2.374 . S
Eu211 O226 2.473 . S
Eu211 O227 2.480 . S
Eu211 O228 2.430 . S
Eu211 O229 2.670 . S
Eu211 O230 2.394 . S
C212 C210 1.500 . S
C212 C213 1.377 . S
C212 C217 1.377 . S
C213 C212 1.377 . S
C213 C214 1.395 . S
C213 H236 0.931 . S
C214 C213 1.395 . S
C214 C215 1.383 . S
C214 H237 0.931 . S
C215 C214 1.383 . S
C215 C216 1.394 . S
C216 C215 1.394 . S
C216 C217 1.378 . S
C216 H238 0.931 . S
C217 C212 1.377 . S
C217 C216 1.378 . S
C217 H239 0.931 . S
C218 O228 1.259 . S
C218 O229 1.270 . S
C219 O230 1.251 . S
C219 O231 1.251 . S
O220 C200 1.257 . S
O220 Eu201 2.473 . S
O221 C200 1.260 . S
O221 Eu201 2.480 . S
O222 Eu201 2.430 . S
O222 C208 1.259 . S
O223 Eu201 2.670 . S
O223 C208 1.270 . S
O223 Eu211 2.355 . S
O224 Eu201 2.394 . S
O224 C209 1.251 . S
O225 C209 1.251 . S
O225 Eu211 2.374 . S
O226 C210 1.257 . S
O226 Eu211 2.473 . S
O227 C210 1.260 . S
O227 Eu211 2.480 . S
O228 Eu211 2.430 . S
O228 C218 1.259 . S
O229 Eu201 2.355 . S
O229 Eu211 2.670 . S
O229 C218 1.270 . S
O230 Eu211 2.394 . S
O230 C219 1.251 . S
O231 Eu201 2.374 . S
O231 C219 1.251 . S
H232 C203 0.931 . S
H233 C204 0.931 . S
H234 C206 0.931 . S
H235 C207 0.931 . S
H236 C213 0.931 . S
H237 C214 0.931 . S
H238 C216 0.931 . S
H239 C217 0.931 . S
C240 Eu241 2.835 . S
C240 C242 1.500 . S
C240 O260 1.257 . S
C240 O261 1.260 . S
Eu241 C240 2.835 . S
Eu241 O260 2.473 . S
Eu241 O261 2.480 . S
Eu241 O262 2.430 . S
Eu241 O263 2.670 . S
Eu241 O264 2.394 . S
Eu241 O269 2.355 . S
Eu241 O271 2.374 . S
C242 C240 1.500 . S
C242 C243 1.377 . S
C242 C247 1.377 . S
C243 C242 1.377 . S
C243 C244 1.395 . S
C243 H272 0.931 . S
C244 C243 1.395 . S
C244 C245 1.383 . S
C244 H273 0.931 . S
C245 C244 1.383 . S
C245 C246 1.394 . S
C246 C245 1.394 . S
C246 C247 1.378 . S
C246 H274 0.931 . S
C247 C242 1.377 . S
C247 C246 1.378 . S
C247 H275 0.931 . S
C248 O262 1.259 . S
C248 O263 1.270 . S
C249 O264 1.251 . S
C249 O265 1.251 . S
C250 Eu251 2.835 . S
C250 C252 1.500 . S
C250 O266 1.257 . S
C250 O267 1.260 . S
Eu251 C250 2.835 . S
Eu251 O263 2.355 . S
Eu251 O265 2.374 . S
Eu251 O266 2.473 . S
Eu251 O267 2.480 . S
Eu251 O268 2.430 . S
Eu251 O269 2.670 . S
Eu251 O270 2.394 . S
C252 C250 1.500 . S
C252 C253 1.377 . S
C252 C257 1.377 . S
C253 C252 1.377 . S
C253 C254 1.395 . S
C253 H276 0.931 . S
C254 C253 1.395 . S
C254 C255 1.383 . S
C254 H277 0.931 . S
C255 C254 1.383 . S
C255 C256 1.394 . S
C256 C255 1.394 . S
C256 C257 1.378 . S
C256 H278 0.931 . S
C257 C252 1.377 . S
C257 C256 1.378 . S
C257 H279 0.931 . S
C258 O268 1.259 . S
C258 O269 1.270 . S
C259 O270 1.251 . S
C259 O271 1.251 . S
O260 C240 1.257 . S
O260 Eu241 2.473 . S
O261 C240 1.260 . S
O261 Eu241 2.480 . S
O262 Eu241 2.430 . S
O262 C248 1.259 . S
O263 Eu241 2.670 . S
O263 C248 1.270 . S
O263 Eu251 2.355 . S
O264 Eu241 2.394 . S
O264 C249 1.251 . S
O265 C249 1.251 . S
O265 Eu251 2.374 . S
O266 C250 1.257 . S
O266 Eu251 2.473 . S
O267 C250 1.260 . S
O267 Eu251 2.480 . S
O268 Eu251 2.430 . S
O268 C258 1.259 . S
O269 Eu241 2.355 . S
O269 Eu251 2.670 . S
O269 C258 1.270 . S
O270 Eu251 2.394 . S
O270 C259 1.251 . S
O271 Eu241 2.374 . S
O271 C259 1.251 . S
H272 C243 0.931 . S
H273 C244 0.931 . S
H274 C246 0.931 . S
H275 C247 0.931 . S
H276 C253 0.931 . S
H277 C254 0.931 . S
H278 C256 0.931 . S
H279 C257 0.931 . S
C280 Eu281 2.835 . S
C280 C282 1.500 . S
C280 O300 1.257 . S
C280 O301 1.260 . S
Eu281 C280 2.835 . S
Eu281 O300 2.473 . S
Eu281 O301 2.480 . S
Eu281 O302 2.430 . S
Eu281 O303 2.670 . S
Eu281 O304 2.394 . S
Eu281 O309 2.355 . S
Eu281 O311 2.374 . S
C282 C280 1.500 . S
C282 C283 1.377 . S
C282 C287 1.377 . S
C283 C282 1.377 . S
C283 C284 1.395 . S
C283 H312 0.931 . S
C284 C283 1.395 . S
C284 C285 1.383 . S
C284 H313 0.931 . S
C285 C284 1.383 . S
C285 C286 1.394 . S
C286 C285 1.394 . S
C286 C287 1.378 . S
C286 H314 0.931 . S
C287 C282 1.377 . S
C287 C286 1.378 . S
C287 H315 0.931 . S
C288 O302 1.259 . S
C288 O303 1.270 . S
C289 O304 1.251 . S
C289 O305 1.251 . S
C290 Eu291 2.835 . S
C290 C292 1.500 . S
C290 O306 1.257 . S
C290 O307 1.260 . S
Eu291 C290 2.835 . S
Eu291 O303 2.355 . S
Eu291 O305 2.374 . S
Eu291 O306 2.473 . S
Eu291 O307 2.480 . S
Eu291 O308 2.430 . S
Eu291 O309 2.670 . S
Eu291 O310 2.394 . S
C292 C290 1.500 . S
C292 C293 1.377 . S
C292 C297 1.377 . S
C293 C292 1.377 . S
C293 C294 1.395 . S
C293 H316 0.931 . S
C294 C293 1.395 . S
C294 C295 1.383 . S
C294 H317 0.931 . S
C295 C294 1.383 . S
C295 C296 1.394 . S
C296 C295 1.394 . S
C296 C297 1.378 . S
C296 H318 0.931 . S
C297 C292 1.377 . S
C297 C296 1.378 . S
C297 H319 0.931 . S
C298 O308 1.259 . S
C298 O309 1.270 . S
C299 O310 1.251 . S
C299 O311 1.251 . S
O300 C280 1.257 . S
O300 Eu281 2.473 . S
O301 C280 1.260 . S
O301 Eu281 2.480 . S
O302 Eu281 2.430 . S
O302 C288 1.259 . S
O303 Eu281 2.670 . S
O303 C288 1.270 . S
O303 Eu291 2.355 . S
O304 Eu281 2.394 . S
O304 C289 1.251 . S
O305 C289 1.251 . S
O305 Eu291 2.374 . S
O306 C290 1.257 . S
O306 Eu291 2.473 . S
O307 C290 1.260 . S
O307 Eu291 2.480 . S
O308 Eu291 2.430 . S
O308 C298 1.259 . S
O309 Eu281 2.355 . S
O309 Eu291 2.670 . S
O309 C298 1.270 . S
O310 Eu291 2.394 . S
O310 C299 1.251 . S
O311 Eu281 2.374 . S
O311 C299 1.251 . S
H312 C283 0.931 . S
H313 C284 0.931 . S
H314 C286 0.931 . S
H315 C287 0.931 . S
H316 C293 0.931 . S
H317 C294 0.931 . S
H318 C296 0.931 . S
H319 C297 0.931 . S
Co320 O323 2.042 . S
Co320 O330 2.264 . S
Co320 O349 2.286 . S
Co320 O350 2.069 . S
Co320 O352 2.015 1_455 S
Co321 O323 2.122 . S
Co321 O329 2.073 . S
Co321 O330 2.327 . S
Co321 O331 1.976 1_455 S
Co322 O323 2.087 1_545 S
Co322 O325 2.087 1_455 S
Co322 O332 2.111 1_445 S
Co322 O333 2.143 . S
Co322 O337 2.111 . S
Co322 O351 2.143 1_445 S
O323 Co320 2.042 . S
O323 Co321 2.122 . S
O323 Co322 2.087 1_565 S
O323 H324 0.980 1_565 S
H324 O323 0.980 1_545 S
O325 Co322 2.087 1_655 S
O325 Co326 2.042 . S
O325 Co327 2.122 . S
O325 H328 0.980 . S
Co326 O325 2.042 . S
Co326 O334 2.286 . S
Co326 O335 2.069 . S
Co326 O336 2.015 1_655 S
Co326 O339 2.264 . S
Co327 O325 2.122 . S
Co327 O338 1.976 1_655 S
Co327 O339 2.327 . S
Co327 O340 2.073 . S
H328 O325 0.980 . S
O329 Co321 2.073 . S
O329 C344 1.245 . S
O330 Co320 2.264 . S
O330 Co321 2.327 . S
O330 C344 1.257 . S
O331 Co321 1.976 1_655 S
O331 C343 1.251 . S
O332 Co322 2.111 1_665 S
O332 C343 1.274 . S
O333 Co322 2.143 . S
O333 C346 1.246 . S
O334 Co326 2.286 . S
O334 C345 1.259 . S
O335 Co326 2.069 . S
O335 C345 1.289 . S
O336 Co326 2.015 1_455 S
O336 C346 1.257 . S
O337 Co322 2.111 . S
O337 C347 1.274 . S
O338 Co327 1.976 1_455 S
O338 C347 1.251 . S
O339 Co326 2.264 . S
O339 Co327 2.327 . S
O339 C348 1.257 . S
O340 Co327 2.073 . S
O340 C348 1.245 . S
C341 O349 1.259 . S
C341 O350 1.289 . S
C342 O351 1.246 . S
C342 O352 1.257 . S
C343 O331 1.251 . S
C343 O332 1.274 . S
C344 O329 1.245 . S
C344 O330 1.257 . S
C345 O334 1.259 . S
C345 O335 1.289 . S
C346 O333 1.246 . S
C346 O336 1.257 . S
C347 O337 1.274 . S
C347 O338 1.251 . S
C348 O339 1.257 . S
C348 O340 1.245 . S
O349 Co320 2.286 . S
O349 C341 1.259 . S
O350 Co320 2.069 . S
O350 C341 1.289 . S
O351 Co322 2.143 1_665 S
O351 C342 1.246 . S
O352 Co320 2.015 1_655 S
O352 C342 1.257 . S
Co353 O356 2.042 1_566 S
Co353 O363 2.264 1_556 S
Co353 O382 2.286 . S
Co353 O383 2.069 . S
Co353 O385 2.015 . S
Co354 O356 2.122 1_565 S
Co354 O362 2.073 . S
Co354 O363 2.327 . S
Co354 O364 1.976 . S
Co355 O356 2.087 . S
Co355 O358 2.087 1_554 S
Co355 O365 2.111 . S
Co355 O366 2.143 . S
Co355 O370 2.111 1_554 S
Co355 O384 2.143 1_544 S
O356 Co353 2.042 1_544 S
O356 Co354 2.122 1_545 S
O356 Co355 2.087 . S
O356 H357 0.980 . S
H357 O356 0.980 . S
O358 Co355 2.087 1_556 S
O358 Co359 2.042 1_556 S
O358 Co360 2.122 . S
O358 H361 0.980 . S
Co359 O358 2.042 1_554 S
Co359 O367 2.286 . S
Co359 O368 2.069 . S
Co359 O369 2.015 . S
Co359 O372 2.264 1_554 S
Co360 O358 2.122 . S
Co360 O371 1.976 . S
Co360 O372 2.327 . S
Co360 O373 2.073 . S
H361 O358 0.980 . S
O362 Co354 2.073 . S
O362 C377 1.245 . S
O363 Co353 2.264 1_554 S
O363 Co354 2.327 . S
O363 C377 1.257 . S
O364 Co354 1.976 . S
O364 C376 1.251 . S
O365 Co355 2.111 . S
O365 C376 1.274 1_545 S
O366 Co355 2.143 . S
O366 C379 1.246 . S
O367 Co359 2.286 . S
O367 C378 1.259 . S
O368 Co359 2.069 . S
O368 C378 1.289 . S
O369 Co359 2.015 . S
O369 C379 1.257 . S
O370 Co355 2.111 1_556 S
O370 C380 1.274 . S
O371 Co360 1.976 . S
O371 C380 1.251 . S
O372 Co359 2.264 1_556 S
O372 Co360 2.327 . S
O372 C381 1.257 . S
O373 Co360 2.073 . S
O373 C381 1.245 . S
C374 O382 1.259 . S
C374 O383 1.289 . S
C375 O384 1.246 . S
C375 O385 1.257 . S
C376 O364 1.251 . S
C376 O365 1.274 1_565 S
C377 O362 1.245 . S
C377 O363 1.257 . S
C378 O367 1.259 . S
C378 O368 1.289 . S
C379 O366 1.246 . S
C379 O369 1.257 . S
C380 O370 1.274 . S
C380 O371 1.251 . S
C381 O372 1.257 . S
C381 O373 1.245 . S
O382 Co353 2.286 . S
O382 C374 1.259 . S
O383 Co353 2.069 . S
O383 C374 1.289 . S
O384 Co355 2.143 1_566 S
O384 C375 1.246 . S
O385 Co353 2.015 . S
O385 C375 1.257 . S
Co386 O389 2.042 . S
Co386 O396 2.264 . S
Co386 O415 2.286 . S
Co386 O416 2.069 . S
Co386 O418 2.015 1_455 S
Co387 O389 2.122 . S
Co387 O395 2.073 . S
Co387 O396 2.327 . S
Co387 O397 1.976 1_455 S
Co388 O389 2.087 . S
Co388 O391 2.087 1_455 S
Co388 O398 2.111 1_455 S
Co388 O399 2.143 . S
Co388 O403 2.111 . S
Co388 O417 2.143 1_455 S
O389 Co386 2.042 . S
O389 Co387 2.122 . S
O389 Co388 2.087 . S
O389 H390 0.980 . S
H390 O389 0.980 . S
O391 Co388 2.087 1_655 S
O391 Co392 2.042 . S
O391 Co393 2.122 1_554 S
O391 H394 0.980 . S
Co392 O391 2.042 . S
Co392 O400 2.286 . S
Co392 O401 2.069 . S
Co392 O402 2.015 1_655 S
Co392 O405 2.264 . S
Co393 O391 2.122 1_556 S
Co393 O404 1.976 1_655 S
Co393 O405 2.327 1_556 S
Co393 O406 2.073 . S
H394 O391 0.980 . S
O395 Co387 2.073 . S
O395 C410 1.245 . S
O396 Co386 2.264 . S
O396 Co387 2.327 . S
O396 C410 1.257 . S
O397 Co387 1.976 1_655 S
O397 C409 1.251 . S
O398 Co388 2.111 1_655 S
O398 C409 1.274 . S
O399 Co388 2.143 . S
O399 C412 1.246 . S
O400 Co392 2.286 . S
O400 C411 1.259 . S
O401 Co392 2.069 . S
O401 C411 1.289 . S
O402 Co392 2.015 1_455 S
O402 C412 1.257 . S
O403 Co388 2.111 . S
O403 C413 1.274 . S
O404 Co393 1.976 1_455 S
O404 C413 1.251 1_556 S
O405 Co392 2.264 . S
O405 Co393 2.327 1_554 S
O405 C414 1.257 1_554 S
O406 Co393 2.073 . S
O406 C414 1.245 . S
C407 O415 1.259 . S
C407 O416 1.289 . S
C408 O417 1.246 . S
C408 O418 1.257 . S
C409 O397 1.251 . S
C409 O398 1.274 . S
C410 O395 1.245 . S
C410 O396 1.257 . S
C411 O400 1.259 . S
C411 O401 1.289 . S
C412 O399 1.246 . S
C412 O402 1.257 . S
C413 O403 1.274 . S
C413 O404 1.251 1_554 S
C414 O405 1.257 1_556 S
C414 O406 1.245 . S
O415 Co386 2.286 . S
O415 C407 1.259 . S
O416 Co386 2.069 . S
O416 C407 1.289 . S
O417 Co388 2.143 1_655 S
O417 C408 1.246 . S
O418 Co386 2.015 1_655 S
O418 C408 1.257 . S
Co419 O422 2.042 . S
Co419 O429 2.264 . S
Co419 O448 2.286 1_554 S
Co419 O449 2.069 . S
Co419 O451 2.015 . S
Co420 O422 2.122 . S
Co420 O428 2.073 . S
Co420 O429 2.327 . S
Co420 O430 1.976 . S
Co421 O422 2.087 . S
Co421 O424 2.087 . S
Co421 O431 2.111 . S
Co421 O432 2.143 . S
Co421 O436 2.111 1_554 S
Co421 O450 2.143 1_554 S
O422 Co419 2.042 . S
O422 Co420 2.122 . S
O422 Co421 2.087 . S
O422 H423 0.980 . S
H423 O422 0.980 . S
O424 Co421 2.087 . S
O424 Co425 2.042 . S
O424 Co426 2.122 1_554 S
O424 H427 0.980 . S
Co425 O424 2.042 . S
Co425 O433 2.286 . S
Co425 O434 2.069 . S
Co425 O435 2.015 . S
Co425 O438 2.264 1_554 S
Co426 O424 2.122 1_556 S
Co426 O437 1.976 . S
Co426 O438 2.327 . S
Co426 O439 2.073 . S
H427 O424 0.980 . S
O428 Co420 2.073 . S
O428 C443 1.245 . S
O429 Co419 2.264 . S
O429 Co420 2.327 . S
O429 C443 1.257 . S
O430 Co420 1.976 . S
O430 C442 1.251 . S
O431 Co421 2.111 . S
O431 C442 1.274 . S
O432 Co421 2.143 . S
O432 C445 1.246 . S
O433 Co425 2.286 . S
O433 C444 1.259 . S
O434 Co425 2.069 . S
O434 C444 1.289 . S
O435 Co425 2.015 . S
O435 C445 1.257 . S
O436 Co421 2.111 1_556 S
O436 C446 1.274 . S
O437 Co426 1.976 . S
O437 C446 1.251 . S
O438 Co425 2.264 1_556 S
O438 Co426 2.327 . S
O438 C447 1.257 . S
O439 Co426 2.073 . S
O439 C447 1.245 . S
C440 O448 1.259 . S
C440 O449 1.289 1_556 S
C441 O450 1.246 . S
C441 O451 1.257 1_556 S
C442 O430 1.251 . S
C442 O431 1.274 . S
C443 O428 1.245 . S
C443 O429 1.257 . S
C444 O433 1.259 . S
C444 O434 1.289 . S
C445 O432 1.246 . S
C445 O435 1.257 . S
C446 O436 1.274 . S
C446 O437 1.251 . S
C447 O438 1.257 . S
C447 O439 1.245 . S
O448 Co419 2.286 1_556 S
O448 C440 1.259 . S
O449 Co419 2.069 . S
O449 C440 1.289 1_554 S
O450 Co421 2.143 1_556 S
O450 C441 1.246 . S
O451 Co419 2.015 . S
O451 C441 1.257 1_554 S
Co452 O455 2.042 . S
Co452 O462 2.264 . S
Co452 O481 2.286 . S
Co452 O482 2.069 . S
Co452 O484 2.015 . S
Co453 O455 2.122 . S
Co453 O461 2.073 . S
Co453 O462 2.327 . S
Co453 O463 1.976 . S
Co454 O455 2.087 . S
Co454 O457 2.087 . S
Co454 O464 2.111 . S
Co454 O465 2.143 1_455 S
Co454 O469 2.111 . S
Co454 O483 2.143 . S
O455 Co452 2.042 . S
O455 Co453 2.122 . S
O455 Co454 2.087 . S
O455 H456 0.980 . S
H456 O455 0.980 . S
O457 Co454 2.087 . S
O457 Co458 2.042 1_455 S
O457 Co459 2.122 . S
O457 H460 0.980 . S
Co458 O457 2.042 1_655 S
Co458 O466 2.286 . S
Co458 O467 2.069 . S
Co458 O468 2.015 . S
Co458 O471 2.264 . S
Co459 O457 2.122 . S
Co459 O470 1.976 1_455 S
Co459 O471 2.327 1_455 S
Co459 O472 2.073 1_455 S
H460 O457 0.980 . S
O461 Co453 2.073 . S
O461 C476 1.245 . S
O462 Co452 2.264 . S
O462 Co453 2.327 . S
O462 C476 1.257 . S
O463 Co453 1.976 . S
O463 C475 1.251 . S
O464 Co454 2.111 . S
O464 C475 1.274 . S
O465 Co454 2.143 1_655 S
O465 C478 1.246 . S
O466 Co458 2.286 . S
O466 C477 1.259 . S
O467 Co458 2.069 . S
O467 C477 1.289 . S
O468 Co458 2.015 . S
O468 C478 1.257 . S
O469 Co454 2.111 . S
O469 C479 1.274 1_455 S
O470 Co459 1.976 1_655 S
O470 C479 1.251 . S
O471 Co458 2.264 . S
O471 Co459 2.327 1_655 S
O471 C480 1.257 . S
O472 Co459 2.073 1_655 S
O472 C480 1.245 . S
C473 O481 1.259 . S
C473 O482 1.289 . S
C474 O483 1.246 . S
C474 O484 1.257 . S
C475 O463 1.251 . S
C475 O464 1.274 . S
C476 O461 1.245 . S
C476 O462 1.257 . S
C477 O466 1.259 . S
C477 O467 1.289 . S
C478 O465 1.246 . S
C478 O468 1.257 . S
C479 O469 1.274 1_655 S
C479 O470 1.251 . S
C480 O471 1.257 . S
C480 O472 1.245 . S
O481 Co452 2.286 . S
O481 C473 1.259 . S
O482 Co452 2.069 . S
O482 C473 1.289 . S
O483 Co454 2.143 . S
O483 C474 1.246 . S
O484 Co452 2.015 . S
O484 C474 1.257 . S
Co485 O488 2.042 . S
Co485 O495 2.264 . S
Co485 O514 2.286 . S
Co485 O515 2.069 . S
Co485 O517 2.015 1_565 S
Co486 O488 2.122 . S
Co486 O494 2.073 . S
Co486 O495 2.327 . S
Co486 O496 1.976 1_565 S
Co487 O488 2.087 1_545 S
Co487 O490 2.087 . S
Co487 O497 2.111 . S
Co487 O498 2.143 1_545 S
Co487 O502 2.111 1_545 S
Co487 O516 2.143 . S
O488 Co485 2.042 . S
O488 Co486 2.122 . S
O488 Co487 2.087 1_565 S
O488 H489 0.980 . S
H489 O488 0.980 . S
O490 Co487 2.087 . S
O490 Co491 2.042 . S
O490 Co492 2.122 . S
O490 H493 0.980 . S
Co491 O490 2.042 . S
Co491 O499 2.286 . S
Co491 O500 2.069 . S
Co491 O501 2.015 1_545 S
Co491 O504 2.264 . S
Co492 O490 2.122 . S
Co492 O503 1.976 1_545 S
Co492 O504 2.327 . S
Co492 O505 2.073 . S
H493 O490 0.980 . S
O494 Co486 2.073 . S
O494 C509 1.245 . S
O495 Co485 2.264 . S
O495 Co486 2.327 . S
O495 C509 1.257 . S
O496 Co486 1.976 1_545 S
O496 C508 1.251 . S
O497 Co487 2.111 . S
O497 C508 1.274 . S
O498 Co487 2.143 1_565 S
O498 C511 1.246 . S
O499 Co491 2.286 . S
O499 C510 1.259 . S
O500 Co491 2.069 . S
O500 C510 1.289 . S
O501 Co491 2.015 1_565 S
O501 C511 1.257 . S
O502 Co487 2.111 1_565 S
O502 C512 1.274 . S
O503 Co492 1.976 1_565 S
O503 C512 1.251 . S
O504 Co491 2.264 . S
O504 Co492 2.327 . S
O504 C513 1.257 . S
O505 Co492 2.073 . S
O505 C513 1.245 . S
C506 O514 1.259 . S
C506 O515 1.289 . S
C507 O516 1.246 . S
C507 O517 1.257 . S
C508 O496 1.251 . S
C508 O497 1.274 . S
C509 O494 1.245 . S
C509 O495 1.257 . S
C510 O499 1.259 . S
C510 O500 1.289 . S
C511 O498 1.246 . S
C511 O501 1.257 . S
C512 O502 1.274 . S
C512 O503 1.251 . S
C513 O504 1.257 . S
C513 O505 1.245 . S
O514 Co485 2.286 . S
O514 C506 1.259 . S
O515 Co485 2.069 . S
O515 C506 1.289 . S
O516 Co487 2.143 . S
O516 C507 1.246 . S
O517 Co485 2.015 1_545 S
O517 C507 1.257 . S
C518 C519 1.363 . S
C518 C524 1.379 . S
C518 N526 1.356 . S
C519 C518 1.363 . S
C519 C525 1.363 . S
C520 C521 1.363 . S
C520 C525 1.379 . S
C520 N527 1.356 . S
C521 C520 1.363 . S
C521 C524 1.363 . S
N522 C524 1.356 . S
N522 H534 0.984 . S
N522 H535 0.985 . S
N523 C525 1.356 . S
N523 H528 0.984 . S
N523 H529 0.985 . S
C524 C518 1.379 . S
C524 C521 1.363 . S
C524 N522 1.356 . S
C525 C519 1.363 . S
C525 C520 1.379 . S
C525 N523 1.356 . S
N526 C518 1.356 . S
N526 H532 0.984 . S
N526 H533 0.984 . S
N527 C520 1.356 . S
N527 H530 0.984 . S
N527 H531 0.985 . S
H528 N523 0.984 . S
H529 N523 0.985 . S
H530 N527 0.984 . S
H531 N527 0.985 . S
H532 N526 0.984 . S
H533 N526 0.984 . S
H534 N522 0.984 . S
H535 N522 0.985 . S
C536 C537 1.363 . S
C536 C542 1.379 . S
C536 N544 1.356 . S
C537 C536 1.363 . S
C537 C543 1.363 . S
C538 C539 1.363 . S
C538 C543 1.379 . S
C538 N545 1.356 . S
C539 C538 1.363 . S
C539 C542 1.363 . S
N540 C542 1.356 . S
N540 H552 0.984 . S
N540 H553 0.985 . S
N541 C543 1.356 . S
N541 H546 0.984 . S
N541 H547 0.985 . S
C542 C536 1.379 . S
C542 C539 1.363 . S
C542 N540 1.356 . S
C543 C537 1.363 . S
C543 C538 1.379 . S
C543 N541 1.356 . S
N544 C536 1.356 . S
N544 H550 0.984 . S
N544 H551 0.984 . S
N545 C538 1.356 . S
N545 H548 0.984 . S
N545 H549 0.985 . S
H546 N541 0.984 . S
H547 N541 0.985 . S
H548 N545 0.984 . S
H549 N545 0.985 . S
H550 N544 0.984 . S
H551 N544 0.984 . S
H552 N540 0.984 . S
H553 N540 0.985 . S
C554 C555 1.363 . S
C554 C560 1.379 . S
C554 N562 1.356 . S
C555 C554 1.363 . S
C555 C561 1.363 . S
C556 C557 1.363 . S
C556 C561 1.379 . S
C556 N563 1.356 . S
C557 C556 1.363 . S
C557 C560 1.363 . S
N558 C560 1.356 . S
N558 H570 0.984 . S
N558 H571 0.985 . S
N559 C561 1.356 . S
N559 H564 0.984 . S
N559 H565 0.985 . S
C560 C554 1.379 . S
C560 C557 1.363 . S
C560 N558 1.356 . S
C561 C555 1.363 . S
C561 C556 1.379 . S
C561 N559 1.356 . S
N562 C554 1.356 . S
N562 H568 0.984 . S
N562 H569 0.984 . S
N563 C556 1.356 . S
N563 H566 0.984 . S
N563 H567 0.985 . S
H564 N559 0.984 . S
H565 N559 0.985 . S
H566 N563 0.984 . S
H567 N563 0.985 . S
H568 N562 0.984 . S
H569 N562 0.984 . S
H570 N558 0.984 . S
H571 N558 0.985 . S
C572 C573 1.363 . S
C572 C578 1.379 . S
C572 N580 1.356 . S
C573 C572 1.363 . S
C573 C579 1.363 . S
C574 C575 1.363 . S
C574 C579 1.379 . S
C574 N581 1.356 . S
C575 C574 1.363 . S
C575 C578 1.363 . S
N576 C578 1.356 . S
N576 H588 0.984 . S
N576 H589 0.985 . S
N577 C579 1.356 . S
N577 H582 0.984 . S
N577 H583 0.985 . S
C578 C572 1.379 . S
C578 C575 1.363 . S
C578 N576 1.356 . S
C579 C573 1.363 . S
C579 C574 1.379 . S
C579 N577 1.356 . S
N580 C572 1.356 . S
N580 H586 0.984 . S
N580 H587 0.984 . S
N581 C574 1.356 . S
N581 H584 0.984 . S
N581 H585 0.985 . S
H582 N577 0.984 . S
H583 N577 0.985 . S
H584 N581 0.984 . S
H585 N581 0.985 . S
H586 N580 0.984 . S
H587 N580 0.984 . S
H588 N576 0.984 . S
H589 N576 0.985 . S
C590 C591 1.363 . S
C590 C596 1.379 . S
C590 N598 1.356 . S
C591 C590 1.363 . S
C591 C597 1.363 . S
C592 C593 1.363 . S
C592 C597 1.379 . S
C592 N599 1.356 . S
C593 C592 1.363 . S
C593 C596 1.363 . S
N594 C596 1.356 . S
N594 H606 0.984 . S
N594 H607 0.985 . S
N595 C597 1.356 . S
N595 H600 0.984 . S
N595 H601 0.985 . S
C596 C590 1.379 . S
C596 C593 1.363 . S
C596 N594 1.356 . S
C597 C591 1.363 . S
C597 C592 1.379 . S
C597 N595 1.356 . S
N598 C590 1.356 . S
N598 H604 0.984 . S
N598 H605 0.984 . S
N599 C592 1.356 . S
N599 H602 0.984 . S
N599 H603 0.985 . S
H600 N595 0.984 . S
H601 N595 0.985 . S
H602 N599 0.984 . S
H603 N599 0.985 . S
H604 N598 0.984 . S
H605 N598 0.984 . S
H606 N594 0.984 . S
H607 N594 0.985 . S
C608 C609 1.363 . S
C608 C614 1.379 . S
C608 N616 1.356 . S
C609 C608 1.363 . S
C609 C615 1.363 . S
C610 C611 1.363 . S
C610 C615 1.379 . S
C610 N617 1.356 . S
C611 C610 1.363 . S
C611 C614 1.363 . S
N612 C614 1.356 . S
N612 H624 0.984 . S
N612 H625 0.985 . S
N613 C615 1.356 . S
N613 H618 0.984 . S
N613 H619 0.985 . S
C614 C608 1.379 . S
C614 C611 1.363 . S
C614 N612 1.356 . S
C615 C609 1.363 . S
C615 C610 1.379 . S
C615 N613 1.356 . S
N616 C608 1.356 . S
N616 H622 0.984 . S
N616 H623 0.984 . S
N617 C610 1.356 . S
N617 H620 0.984 . S
N617 H621 0.985 . S
H618 N613 0.984 . S
H619 N613 0.985 . S
H620 N617 0.984 . S
H621 N617 0.985 . S
H622 N616 0.984 . S
H623 N616 0.984 . S
H624 N612 0.984 . S
H625 N612 0.985 . S
C626 C627 1.363 . S
C626 C632 1.379 . S
C626 N634 1.362 . S
C627 C626 1.363 . S
C627 C633 1.363 . S
C628 C629 1.363 . S
C628 C633 1.379 . S
C628 N635 1.356 . S
C629 C628 1.363 . S
C629 C632 1.363 . S
N630 C632 1.356 . S
N630 H642 0.984 1_655 S
N630 H643 0.985 . S
N631 C633 1.356 . S
N631 H636 0.984 . S
N631 H637 0.985 . S
C632 C626 1.379 . S
C632 C629 1.363 . S
C632 N630 1.356 . S
C633 C627 1.363 . S
C633 C628 1.379 . S
C633 N631 1.356 . S
N634 C626 1.362 . S
N634 H640 0.969 1_655 S
N634 H641 0.995 . S
N635 C628 1.356 . S
N635 H638 0.984 . S
N635 H639 0.985 . S
H636 N631 0.984 . S
H637 N631 0.985 . S
H638 N635 0.984 . S
H639 N635 0.985 . S
H640 N634 0.969 1_455 S
H641 N634 0.995 . S
H642 N630 0.984 1_455 S
H643 N630 0.985 . S
C644 C645 1.363 . S
C644 C650 1.379 . S
C644 N652 1.356 . S
C645 C644 1.363 . S
C645 C651 1.363 . S
C646 C647 1.363 . S
C646 C651 1.379 . S
C646 N653 1.356 . S
C647 C646 1.363 . S
C647 C650 1.363 . S
N648 C650 1.356 . S
N648 H660 0.984 . S
N648 H661 0.985 . S
N649 C651 1.356 . S
N649 H654 0.984 . S
N649 H655 0.985 . S
C650 C644 1.379 . S
C650 C647 1.363 . S
C650 N648 1.356 . S
C651 C645 1.363 . S
C651 C646 1.379 . S
C651 N649 1.356 . S
N652 C644 1.356 . S
N652 H658 0.984 . S
N652 H659 0.984 . S
N653 C646 1.356 . S
N653 H656 0.984 . S
N653 H657 0.985 . S
H654 N649 0.984 . S
H655 N649 0.985 . S
H656 N653 0.984 . S
H657 N653 0.985 . S
H658 N652 0.984 . S
H659 N652 0.984 . S
H660 N648 0.984 . S
H661 N648 0.985 . S
C662 C663 1.363 . S
C662 C668 1.379 . S
C662 N670 1.356 . S
C663 C662 1.363 . S
C663 C669 1.363 . S
C664 C665 1.363 . S
C664 C669 1.379 . S
C664 N671 1.356 . S
C665 C664 1.363 . S
C665 C668 1.363 . S
N666 C668 1.356 . S
N666 H678 0.984 . S
N666 H679 0.985 . S
N667 C669 1.356 . S
N667 H672 0.984 . S
N667 H673 0.985 . S
C668 C662 1.379 . S
C668 C665 1.363 . S
C668 N666 1.356 . S
C669 C663 1.363 . S
C669 C664 1.379 . S
C669 N667 1.356 . S
N670 C662 1.356 . S
N670 H676 0.984 . S
N670 H677 0.984 . S
N671 C664 1.356 . S
N671 H674 0.984 . S
N671 H675 0.985 . S
H672 N667 0.984 . S
H673 N667 0.985 . S
H674 N671 0.984 . S
H675 N671 0.985 . S
H676 N670 0.984 . S
H677 N670 0.984 . S
H678 N666 0.984 . S
H679 N666 0.985 . S
C680 C681 1.363 . S
C680 C686 1.379 . S
C680 N688 1.356 . S
C681 C680 1.363 . S
C681 C687 1.363 . S
C682 C683 1.363 . S
C682 C687 1.379 . S
C682 N689 1.356 . S
C683 C682 1.363 . S
C683 C686 1.363 . S
N684 C686 1.356 . S
N684 H696 0.984 . S
N684 H697 0.985 . S
N685 C687 1.356 . S
N685 H690 0.984 . S
N685 H691 0.985 . S
C686 C680 1.379 . S
C686 C683 1.363 . S
C686 N684 1.356 . S
C687 C681 1.363 . S
C687 C682 1.379 . S
C687 N685 1.356 . S
N688 C680 1.356 . S
N688 H694 0.984 . S
N688 H695 0.984 . S
N689 C682 1.356 . S
N689 H692 0.984 1_655 S
N689 H693 0.985 . S
H690 N685 0.984 . S
H691 N685 0.985 . S
H692 N689 0.984 1_455 S
H693 N689 0.985 . S
H694 N688 0.984 . S
H695 N688 0.984 . S
H696 N684 0.984 . S
H697 N684 0.985 . S
C698 C699 1.363 . S
C698 C704 1.379 . S
C698 N706 1.356 . S
C699 C698 1.363 . S
C699 C705 1.363 . S
C700 C701 1.363 . S
C700 C705 1.379 . S
C700 N707 1.356 . S
C701 C700 1.363 . S
C701 C704 1.363 . S
N702 C704 1.356 . S
N702 H714 0.984 1_554 S
N702 H715 0.985 . S
N703 C705 1.356 . S
N703 H708 0.984 . S
N703 H709 0.985 . S
C704 C698 1.379 . S
C704 C701 1.363 . S
C704 N702 1.356 . S
C705 C699 1.363 . S
C705 C700 1.379 . S
C705 N703 1.356 . S
N706 C698 1.356 . S
N706 H712 0.984 1_554 S
N706 H713 0.984 . S
N707 C700 1.356 . S
N707 H710 0.984 . S
N707 H711 0.985 . S
H708 N703 0.984 . S
H709 N703 0.985 . S
H710 N707 0.984 . S
H711 N707 0.985 . S
H712 N706 0.984 1_556 S
H713 N706 0.984 . S
H714 N702 0.984 1_556 S
H715 N702 0.985 . S
C716 C717 1.363 . S
C716 C722 1.379 . S
C716 N724 1.356 . S
C717 C716 1.363 . S
C717 C723 1.363 . S
C718 C719 1.363 . S
C718 C723 1.379 . S
C718 N725 1.356 . S
C719 C718 1.363 . S
C719 C722 1.363 . S
N720 C722 1.356 . S
N720 H732 0.984 . S
N720 H733 0.985 . S
N721 C723 1.356 . S
N721 H726 0.984 . S
N721 H727 0.985 . S
C722 C716 1.379 . S
C722 C719 1.363 . S
C722 N720 1.356 . S
C723 C717 1.363 . S
C723 C718 1.379 . S
C723 N721 1.356 . S
N724 C716 1.356 . S
N724 H730 0.984 . S
N724 H731 0.984 . S
N725 C718 1.356 . S
N725 H728 0.984 . S
N725 H729 0.985 . S
H726 N721 0.984 . S
H727 N721 0.985 . S
H728 N725 0.984 . S
H729 N725 0.985 . S
H730 N724 0.984 . S
H731 N724 0.984 . S
H732 N720 0.984 . S
H733 N720 0.985 . S
C734 C735 1.363 . S
C734 C740 1.379 . S
C734 N742 1.356 . S
C735 C734 1.363 . S
C735 C741 1.363 . S
C736 C737 1.363 . S
C736 C741 1.379 . S
C736 N743 1.356 . S
C737 C736 1.363 . S
C737 C740 1.363 . S
N738 C740 1.356 . S
N738 H750 0.984 . S
N738 H751 0.985 . S
N739 C741 1.356 . S
N739 H744 0.984 . S
N739 H745 0.985 . S
C740 C734 1.379 . S
C740 C737 1.363 . S
C740 N738 1.356 . S
C741 C735 1.363 . S
C741 C736 1.379 . S
C741 N739 1.356 . S
N742 C734 1.356 . S
N742 H748 0.984 . S
N742 H749 0.984 . S
N743 C736 1.356 . S
N743 H746 0.984 . S
N743 H747 0.985 1_556 S
H744 N739 0.984 . S
H745 N739 0.985 . S
H746 N743 0.984 . S
H747 N743 0.985 1_554 S
H748 N742 0.984 . S
H749 N742 0.984 . S
H750 N738 0.984 . S
H751 N738 0.985 . S
C752 C753 1.363 1_554 S
C752 C758 1.379 . S
C752 N760 1.356 . S
C753 C752 1.363 1_556 S
C753 C759 1.363 . S
C754 C755 1.363 1_556 S
C754 C759 1.379 . S
C754 N761 1.356 . S
C755 C754 1.363 1_554 S
C755 C758 1.363 . S
N756 C758 1.356 . S
N756 H768 0.984 . S
N756 H769 0.985 . S
N757 C759 1.356 . S
N757 H762 0.984 . S
N757 H763 0.985 . S
C758 C752 1.379 . S
C758 C755 1.363 . S
C758 N756 1.356 . S
C759 C753 1.363 . S
C759 C754 1.379 . S
C759 N757 1.356 . S
N760 C752 1.356 . S
N760 H766 0.984 . S
N760 H767 0.984 . S
N761 C754 1.356 . S
N761 H764 0.984 . S
N761 H765 0.985 . S
H762 N757 0.984 . S
H763 N757 0.985 . S
H764 N761 0.984 . S
H765 N761 0.985 . S
H766 N760 0.984 . S
H767 N760 0.984 . S
H768 N756 0.984 . S
H769 N756 0.985 . S
C770 C771 1.363 . S
C770 C776 1.379 . S
C770 N778 1.356 . S
C771 C770 1.363 . S
C771 C777 1.363 . S
C772 C773 1.363 . S
C772 C777 1.379 . S
C772 N779 1.356 1_556 S
C773 C772 1.363 . S
C773 C776 1.363 . S
N774 C776 1.356 . S
N774 H786 0.984 . S
N774 H787 0.985 . S
N775 C777 1.356 . S
N775 H780 0.984 . S
N775 H781 0.985 1_556 S
C776 C770 1.379 . S
C776 C773 1.363 . S
C776 N774 1.356 . S
C777 C771 1.363 . S
C777 C772 1.379 . S
C777 N775 1.356 . S
N778 C770 1.356 . S
N778 H784 0.984 . S
N778 H785 0.984 . S
N779 C772 1.356 1_554 S
N779 H782 0.984 . S
N779 H783 0.985 . S
H780 N775 0.984 . S
H781 N775 0.985 1_554 S
H782 N779 0.984 . S
H783 N779 0.985 . S
H784 N778 0.984 . S
H785 N778 0.984 . S
H786 N774 0.984 . S
H787 N774 0.985 . S
C788 C789 1.363 . S
C788 C794 1.379 . S
C788 N796 1.356 . S
C789 C788 1.363 . S
C789 C795 1.363 . S
C790 C791 1.363 . S
C790 C795 1.379 . S
C790 N797 1.356 . S
C791 C790 1.363 . S
C791 C794 1.363 . S
N792 C794 1.351 1_554 S
N792 H804 0.985 . S
N792 H805 0.989 . S
N793 C795 1.356 . S
N793 H798 0.984 . S
N793 H799 0.985 . S
C794 C788 1.379 . S
C794 C791 1.363 . S
C794 N792 1.351 1_556 S
C795 C789 1.363 . S
C795 C790 1.379 . S
C795 N793 1.356 . S
N796 C788 1.356 . S
N796 H802 0.984 . S
N796 H803 0.984 . S
N797 C790 1.356 . S
N797 H800 0.984 . S
N797 H801 0.985 . S
H798 N793 0.984 . S
H799 N793 0.985 . S
H800 N797 0.984 . S
H801 N797 0.985 . S
H802 N796 0.984 . S
H803 N796 0.984 . S
H804 N792 0.985 . S
H805 N792 0.989 . S
C806 C807 1.363 . S
C806 C812 1.379 . S
C806 N814 1.356 . S
C807 C806 1.363 . S
C807 C813 1.363 . S
C808 C809 1.363 . S
C808 C813 1.379 . S
C808 N815 1.356 . S
C809 C808 1.363 . S
C809 C812 1.363 . S
N810 C812 1.356 . S
N810 H822 0.984 . S
N810 H823 0.985 . S
N811 C813 1.356 . S
N811 H816 0.984 . S
N811 H817 0.985 . S
C812 C806 1.379 . S
C812 C809 1.363 . S
C812 N810 1.356 . S
C813 C807 1.363 . S
C813 C808 1.379 . S
C813 N811 1.356 . S
N814 C806 1.356 . S
N814 H820 0.984 . S
N814 H821 0.984 . S
N815 C808 1.356 . S
N815 H818 0.984 . S
N815 H819 0.985 . S
H816 N811 0.984 . S
H817 N811 0.985 . S
H818 N815 0.984 . S
H819 N815 0.985 . S
H820 N814 0.984 . S
H821 N814 0.984 . S
H822 N810 0.984 . S
H823 N810 0.985 . S
C824 C825 1.363 . S
C824 C830 1.379 1_554 S
C824 N832 1.356 1_554 S
C825 C824 1.363 . S
C825 C831 1.363 . S
C826 C827 1.363 . S
C826 C831 1.379 . S
C826 N833 1.356 . S
C827 C826 1.363 . S
C827 C830 1.363 1_554 S
N828 C830 1.356 . S
N828 H840 0.984 . S
N828 H841 0.985 . S
N829 C831 1.356 . S
N829 H834 0.984 . S
N829 H835 0.985 . S
C830 C824 1.379 1_556 S
C830 C827 1.363 1_556 S
C830 N828 1.356 . S
C831 C825 1.363 . S
C831 C826 1.379 . S
C831 N829 1.356 . S
N832 C824 1.356 1_556 S
N832 H838 0.984 . S
N832 H839 0.984 1_556 S
N833 C826 1.356 . S
N833 H836 0.984 . S
N833 H837 0.985 . S
H834 N829 0.984 . S
H835 N829 0.985 . S
H836 N833 0.984 . S
H837 N833 0.985 . S
H838 N832 0.984 . S
H839 N832 0.984 1_554 S
H840 N828 0.984 . S
H841 N828 0.985 . S
C842 C843 1.363 . S
C842 C848 1.379 . S
C842 N850 1.356 . S
C843 C842 1.363 . S
C843 C849 1.363 . S
C844 C845 1.363 . S
C844 C849 1.379 . S
C844 N851 1.356 . S
C845 C844 1.363 . S
C845 C848 1.363 . S
N846 C848 1.356 . S
N846 H858 0.984 . S
N846 H859 0.985 . S
N847 C849 1.356 . S
N847 H852 0.984 . S
N847 H853 0.985 . S
C848 C842 1.379 . S
C848 C845 1.363 . S
C848 N846 1.356 . S
C849 C843 1.363 . S
C849 C844 1.379 . S
C849 N847 1.356 . S
N850 C842 1.356 . S
N850 H856 0.984 . S
N850 H857 0.984 . S
N851 C844 1.356 . S
N851 H854 0.984 . S
N851 H855 0.985 . S
H852 N847 0.984 . S
H853 N847 0.985 . S
H854 N851 0.984 . S
H855 N851 0.985 . S
H856 N850 0.984 . S
H857 N850 0.984 . S
H858 N846 0.984 . S
H859 N846 0.985 . S
C860 C861 1.363 . S
C860 C866 1.379 . S
C860 N868 1.356 . S
C861 C860 1.363 . S
C861 C867 1.363 . S
C862 C863 1.363 1_554 S
C862 C867 1.379 1_554 S
C862 N869 1.356 . S
C863 C862 1.363 1_556 S
C863 C866 1.363 . S
N864 C866 1.356 . S
N864 H876 0.984 . S
N864 H877 0.985 . S
N865 C867 1.356 1_554 S
N865 H870 0.984 1_554 S
N865 H871 0.985 . S
C866 C860 1.379 . S
C866 C863 1.363 . S
C866 N864 1.356 . S
C867 C861 1.363 . S
C867 C862 1.379 1_556 S
C867 N865 1.356 1_556 S
N868 C860 1.356 . S
N868 H874 0.984 . S
N868 H875 0.984 . S
N869 C862 1.356 . S
N869 H872 0.984 . S
N869 H873 0.985 . S
H870 N865 0.984 1_556 S
H871 N865 0.985 . S
H872 N869 0.984 . S
H873 N869 0.985 . S
H874 N868 0.984 . S
H875 N868 0.984 . S
H876 N864 0.984 . S
H877 N864 0.985 . S
C878 C879 1.363 . S
C878 C884 1.379 . S
C878 N886 1.356 . S
C879 C878 1.363 . S
C879 C885 1.363 . S
C880 C881 1.363 . S
C880 C885 1.379 . S
C880 N887 1.356 . S
C881 C880 1.363 . S
C881 C884 1.363 . S
N882 C884 1.356 . S
N882 H894 0.984 1_556 S
N882 H895 0.985 . S
N883 C885 1.356 . S
N883 H888 0.984 . S
N883 H889 0.985 . S
C884 C878 1.379 . S
C884 C881 1.363 . S
C884 N882 1.356 . S
C885 C879 1.363 . S
C885 C880 1.379 . S
C885 N883 1.356 . S
N886 C878 1.356 . S
N886 H892 0.984 1_556 S
N886 H893 0.984 . S
N887 C880 1.356 . S
N887 H890 0.984 . S
N887 H891 0.985 . S
H888 N883 0.984 . S
H889 N883 0.985 . S
H890 N887 0.984 . S
H891 N887 0.985 . S
H892 N886 0.984 1_554 S
H893 N886 0.984 . S
H894 N882 0.984 1_554 S
H895 N882 0.985 . S
C896 C897 1.363 . S
C896 C902 1.379 . S
C896 N904 1.356 . S
C897 C896 1.363 . S
C897 C903 1.363 . S
C898 C899 1.363 . S
C898 C903 1.379 . S
C898 N905 1.356 . S
C899 C898 1.363 . S
C899 C902 1.363 . S
N900 C902 1.356 . S
N900 H912 0.984 . S
N900 H913 0.985 . S
N901 C903 1.356 . S
N901 H906 0.984 . S
N901 H907 0.985 . S
C902 C896 1.379 . S
C902 C899 1.363 . S
C902 N900 1.356 . S
C903 C897 1.363 . S
C903 C898 1.379 . S
C903 N901 1.356 . S
N904 C896 1.356 . S
N904 H910 0.984 . S
N904 H911 0.984 . S
N905 C898 1.356 . S
N905 H908 0.984 . S
N905 H909 0.985 . S
H906 N901 0.984 . S
H907 N901 0.985 . S
H908 N905 0.984 . S
H909 N905 0.985 . S
H910 N904 0.984 . S
H911 N904 0.984 . S
H912 N900 0.984 . S
H913 N900 0.985 . S
C914 C915 1.363 . S
C914 C920 1.379 . S
C914 N922 1.356 . S
C915 C914 1.363 . S
C915 C921 1.363 . S
C916 C917 1.363 . S
C916 C921 1.379 . S
C916 N923 1.356 . S
C917 C916 1.363 . S
C917 C920 1.363 . S
N918 C920 1.356 . S
N918 H930 0.984 . S
N918 H931 0.985 . S
N919 C921 1.356 . S
N919 H924 0.984 . S
N919 H925 0.985 . S
C920 C914 1.379 . S
C920 C917 1.363 . S
C920 N918 1.356 . S
C921 C915 1.363 . S
C921 C916 1.379 . S
C921 N919 1.356 . S
N922 C914 1.356 . S
N922 H928 0.984 . S
N922 H929 0.984 . S
N923 C916 1.356 . S
N923 H926 0.984 . S
N923 H927 0.985 . S
H924 N919 0.984 . S
H925 N919 0.985 . S
H926 N923 0.984 . S
H927 N923 0.985 . S
H928 N922 0.984 . S
H929 N922 0.984 . S
H930 N918 0.984 . S
H931 N918 0.985 . S
C932 C933 1.363 . S
C932 C938 1.379 . S
C932 N940 1.356 . S
C933 C932 1.363 . S
C933 C939 1.363 . S
C934 C935 1.363 . S
C934 C939 1.379 . S
C934 N941 1.356 . S
C935 C934 1.363 . S
C935 C938 1.363 . S
N936 C938 1.356 . S
N936 H948 0.984 . S
N936 H949 0.985 . S
N937 C939 1.356 . S
N937 H942 0.984 . S
N937 H943 0.985 . S
C938 C932 1.379 . S
C938 C935 1.363 . S
C938 N936 1.356 . S
C939 C933 1.363 . S
C939 C934 1.379 . S
C939 N937 1.356 . S
N940 C932 1.356 . S
N940 H946 0.984 . S
N940 H947 0.984 . S
N941 C934 1.356 . S
N941 H944 0.984 . S
N941 H945 0.985 . S
H942 N937 0.984 . S
H943 N937 0.985 . S
H944 N941 0.984 . S
H945 N941 0.985 . S
H946 N940 0.984 . S
H947 N940 0.984 . S
H948 N936 0.984 . S
H949 N936 0.985 . S
C950 C951 1.363 . S
C950 C956 1.379 . S
C950 N958 1.356 . S
C951 C950 1.363 . S
C951 C957 1.363 . S
C952 C953 1.363 . S
C952 C957 1.379 . S
C952 N959 1.356 . S
C953 C952 1.363 . S
C953 C956 1.363 . S
N954 C956 1.356 1_554 S
N954 H966 0.984 . S
N954 H967 0.985 . S
N955 C957 1.356 . S
N955 H960 0.984 . S
N955 H961 0.985 . S
C956 C950 1.379 . S
C956 C953 1.363 . S
C956 N954 1.356 1_556 S
C957 C951 1.363 . S
C957 C952 1.379 . S
C957 N955 1.356 . S
N958 C950 1.356 . S
N958 H964 0.984 . S
N958 H965 0.984 . S
N959 C952 1.356 . S
N959 H962 0.984 . S
N959 H963 0.985 . S
H960 N955 0.984 . S
H961 N955 0.985 . S
H962 N959 0.984 . S
H963 N959 0.985 . S
H964 N958 0.984 . S
H965 N958 0.984 . S
H966 N954 0.984 . S
H967 N954 0.985 . S
C968 C969 1.363 . S
C968 C974 1.379 . S
C968 N976 1.356 . S
C969 C968 1.363 . S
C969 C975 1.363 . S
C970 C971 1.363 . S
C970 C975 1.379 . S
C970 N977 1.356 . S
C971 C970 1.363 . S
C971 C974 1.363 . S
N972 C974 1.356 . S
N972 H984 0.984 . S
N972 H985 0.985 . S
N973 C975 1.356 . S
N973 H978 0.984 . S
N973 H979 0.985 . S
C974 C968 1.379 . S
C974 C971 1.363 . S
C974 N972 1.356 . S
C975 C969 1.363 . S
C975 C970 1.379 . S
C975 N973 1.356 . S
N976 C968 1.356 . S
N976 H982 0.984 . S
N976 H983 0.984 . S
N977 C970 1.356 . S
N977 H980 0.984 . S
N977 H981 0.985 . S
H978 N973 0.984 . S
H979 N973 0.985 . S
H980 N977 0.984 . S
H981 N977 0.985 . S
H982 N976 0.984 . S
H983 N976 0.984 . S
H984 N972 0.984 . S
H985 N972 0.985 . S
C986 C987 1.363 . S
C986 C992 1.379 . S
C986 N994 1.356 . S
C987 C986 1.363 . S
C987 C993 1.363 . S
C988 C989 1.363 . S
C988 C993 1.379 . S
C988 N995 1.356 1_556 S
C989 C988 1.363 . S
C989 C992 1.363 . S
N990 C992 1.356 . S
N990 H1002 0.984 . S
N990 H1003 0.985 . S
N991 C993 1.356 . S
N991 H996 0.984 . S
N991 H997 0.985 . S
C992 C986 1.379 . S
C992 C989 1.363 . S
C992 N990 1.356 . S
C993 C987 1.363 . S
C993 C988 1.379 . S
C993 N991 1.356 . S
N994 C986 1.356 . S
N994 H1000 0.984 . S
N994 H1001 0.984 . S
N995 C988 1.356 1_554 S
N995 H998 0.984 . S
N995 H999 0.985 . S
H996 N991 0.984 . S
H997 N991 0.985 . S
H998 N995 0.984 . S
H999 N995 0.985 . S
H1000 N994 0.984 . S
H1001 N994 0.984 . S
H1002 N990 0.984 . S
H1003 N990 0.985 . S
C1004 C1005 1.363 . S
C1004 C1010 1.379 . S
C1004 N1012 1.356 . S
C1005 C1004 1.363 . S
C1005 C1011 1.363 . S
C1006 C1007 1.363 . S
C1006 C1011 1.379 . S
C1006 N1013 1.356 1_556 S
C1007 C1006 1.363 . S
C1007 C1010 1.363 . S
N1008 C1010 1.356 . S
N1008 H1020 0.984 . S
N1008 H1021 0.985 . S
N1009 C1011 1.356 . S
N1009 H1014 0.984 . S
N1009 H1015 0.985 . S
C1010 C1004 1.379 . S
C1010 C1007 1.363 . S
C1010 N1008 1.356 . S
C1011 C1005 1.363 . S
C1011 C1006 1.379 . S
C1011 N1009 1.356 . S
N1012 C1004 1.356 . S
N1012 H1018 0.984 . S
N1012 H1019 0.984 . S
N1013 C1006 1.356 1_554 S
N1013 H1016 0.984 . S
N1013 H1017 0.985 . S
H1014 N1009 0.984 . S
H1015 N1009 0.985 . S
H1016 N1013 0.984 . S
H1017 N1013 0.985 . S
H1018 N1012 0.984 . S
H1019 N1012 0.984 . S
H1020 N1008 0.984 . S
H1021 N1008 0.985 . S
C1022 C1023 1.363 . S
C1022 C1028 1.379 . S
C1022 N1030 1.356 . S
C1023 C1022 1.363 . S
C1023 C1029 1.363 . S
C1024 C1025 1.363 . S
C1024 C1029 1.379 . S
C1024 N1031 1.356 . S
C1025 C1024 1.363 . S
C1025 C1028 1.363 . S
N1026 C1028 1.356 . S
N1026 H1038 0.984 . S
N1026 H1039 0.985 . S
N1027 C1029 1.356 . S
N1027 H1032 0.984 . S
N1027 H1033 0.985 . S
C1028 C1022 1.379 . S
C1028 C1025 1.363 . S
C1028 N1026 1.356 . S
C1029 C1023 1.363 . S
C1029 C1024 1.379 . S
C1029 N1027 1.356 . S
N1030 C1022 1.356 . S
N1030 H1036 0.984 . S
N1030 H1037 0.984 . S
N1031 C1024 1.356 . S
N1031 H1034 0.984 . S
N1031 H1035 0.985 . S
H1032 N1027 0.984 . S
H1033 N1027 0.985 . S
H1034 N1031 0.984 . S
H1035 N1031 0.985 . S
H1036 N1030 0.984 . S
H1037 N1030 0.984 . S
H1038 N1026 0.984 . S
H1039 N1026 0.985 . S
C1040 C1041 1.363 . S
C1040 C1046 1.379 . S
C1040 N1048 1.356 . S
C1041 C1040 1.363 . S
C1041 C1047 1.363 . S
C1042 C1043 1.363 . S
C1042 C1047 1.379 . S
C1042 N1049 1.356 . S
C1043 C1042 1.363 . S
C1043 C1046 1.363 . S
N1044 C1046 1.356 . S
N1044 H1056 0.984 . S
N1044 H1057 0.985 . S
N1045 C1047 1.356 . S
N1045 H1050 0.984 . S
N1045 H1051 0.985 . S
C1046 C1040 1.379 . S
C1046 C1043 1.363 . S
C1046 N1044 1.356 . S
C1047 C1041 1.363 . S
C1047 C1042 1.379 . S
C1047 N1045 1.356 . S
N1048 C1040 1.356 . S
N1048 H1054 0.984 . S
N1048 H1055 0.984 . S
N1049 C1042 1.356 . S
N1049 H1052 0.984 . S
N1049 H1053 0.985 . S
H1050 N1045 0.984 . S
H1051 N1045 0.985 . S
H1052 N1049 0.984 . S
H1053 N1049 0.985 . S
H1054 N1048 0.984 . S
H1055 N1048 0.984 . S
H1056 N1044 0.984 . S
H1057 N1044 0.985 . S
C1058 C1059 1.363 . S
C1058 C1064 1.379 . S
C1058 N1066 1.356 . S
C1059 C1058 1.363 . S
C1059 C1065 1.363 . S
C1060 C1061 1.363 . S
C1060 C1065 1.379 . S
C1060 N1067 1.356 . S
C1061 C1060 1.363 . S
C1061 C1064 1.363 . S
N1062 C1064 1.356 . S
N1062 H1074 0.984 . S
N1062 H1075 0.985 . S
N1063 C1065 1.356 . S
N1063 H1068 0.984 . S
N1063 H1069 0.985 . S
C1064 C1058 1.379 . S
C1064 C1061 1.363 . S
C1064 N1062 1.356 . S
C1065 C1059 1.363 . S
C1065 C1060 1.379 . S
C1065 N1063 1.356 . S
N1066 C1058 1.356 . S
N1066 H1072 0.984 . S
N1066 H1073 0.984 . S
N1067 C1060 1.356 . S
N1067 H1070 0.984 . S
N1067 H1071 0.985 . S
H1068 N1063 0.984 . S
H1069 N1063 0.985 . S
H1070 N1067 0.984 . S
H1071 N1067 0.985 . S
H1072 N1066 0.984 . S
H1073 N1066 0.984 . S
H1074 N1062 0.984 . S
H1075 N1062 0.985 . S
C1076 C1077 1.363 . S
C1076 C1082 1.379 . S
C1076 N1084 1.356 . S
C1077 C1076 1.363 . S
C1077 C1083 1.363 . S
C1078 C1079 1.363 . S
C1078 C1083 1.379 . S
C1078 N1085 1.356 . S
C1079 C1078 1.363 . S
C1079 C1082 1.363 . S
N1080 C1082 1.356 . S
N1080 H1092 0.984 . S
N1080 H1093 0.985 . S
N1081 C1083 1.356 . S
N1081 H1086 0.984 . S
N1081 H1087 0.985 . S
C1082 C1076 1.379 . S
C1082 C1079 1.363 . S
C1082 N1080 1.356 . S
C1083 C1077 1.363 . S
C1083 C1078 1.379 . S
C1083 N1081 1.356 . S
N1084 C1076 1.356 . S
N1084 H1090 0.984 . S
N1084 H1091 0.984 . S
N1085 C1078 1.356 . S
N1085 H1088 0.984 . S
N1085 H1089 0.985 . S
H1086 N1081 0.984 . S
H1087 N1081 0.985 . S
H1088 N1085 0.984 . S
H1089 N1085 0.985 . S
H1090 N1084 0.984 . S
H1091 N1084 0.984 . S
H1092 N1080 0.984 . S
H1093 N1080 0.985 . S
C1094 C1095 1.363 . S
C1094 C1100 1.379 . S
C1094 N1102 1.356 . S
C1095 C1094 1.363 . S
C1095 C1101 1.363 . S
C1096 C1097 1.363 . S
C1096 C1101 1.379 . S
C1096 N1103 1.356 . S
C1097 C1096 1.363 . S
C1097 C1100 1.363 . S
N1098 C1100 1.356 . S
N1098 H1110 0.984 . S
N1098 H1111 0.985 . S
N1099 C1101 1.356 . S
N1099 H1104 0.984 . S
N1099 H1105 0.985 . S
C1100 C1094 1.379 . S
C1100 C1097 1.363 . S
C1100 N1098 1.356 . S
C1101 C1095 1.363 . S
C1101 C1096 1.379 . S
C1101 N1099 1.356 . S
N1102 C1094 1.356 . S
N1102 H1108 0.984 . S
N1102 H1109 0.984 . S
N1103 C1096 1.356 . S
N1103 H1106 0.984 . S
N1103 H1107 0.985 . S
H1104 N1099 0.984 . S
H1105 N1099 0.985 . S
H1106 N1103 0.984 . S
H1107 N1103 0.985 . S
H1108 N1102 0.984 . S
H1109 N1102 0.984 . S
H1110 N1098 0.984 . S
H1111 N1098 0.985 . S
C1112 C1113 1.363 . S
C1112 C1118 1.379 . S
C1112 N1120 1.356 . S
C1113 C1112 1.363 . S
C1113 C1119 1.363 . S
C1114 C1115 1.363 . S
C1114 C1119 1.379 . S
C1114 N1121 1.356 . S
C1115 C1114 1.363 . S
C1115 C1118 1.363 . S
N1116 C1118 1.356 . S
N1116 H1128 0.984 . S
N1116 H1129 0.985 . S
N1117 C1119 1.356 . S
N1117 H1122 0.984 . S
N1117 H1123 0.985 1_565 S
C1118 C1112 1.379 . S
C1118 C1115 1.363 . S
C1118 N1116 1.356 . S
C1119 C1113 1.363 . S
C1119 C1114 1.379 . S
C1119 N1117 1.356 . S
N1120 C1112 1.356 . S
N1120 H1126 0.984 . S
N1120 H1127 0.984 . S
N1121 C1114 1.356 . S
N1121 H1124 0.984 . S
N1121 H1125 0.985 1_565 S
H1122 N1117 0.984 . S
H1123 N1117 0.985 1_545 S
H1124 N1121 0.984 . S
H1125 N1121 0.985 1_545 S
H1126 N1120 0.984 . S
H1127 N1120 0.984 . S
H1128 N1116 0.984 . S
H1129 N1116 0.985 . S
C1130 C1131 1.363 . S
C1130 C1136 1.379 . S
C1130 N1138 1.356 . S
C1131 C1130 1.363 . S
C1131 C1137 1.363 . S
C1132 C1133 1.363 . S
C1132 C1137 1.379 . S
C1132 N1139 1.356 . S
C1133 C1132 1.363 . S
C1133 C1136 1.363 . S
N1134 C1136 1.356 . S
N1134 H1146 0.984 . S
N1134 H1147 0.985 . S
N1135 C1137 1.356 . S
N1135 H1140 0.984 . S
N1135 H1141 0.985 . S
C1136 C1130 1.379 . S
C1136 C1133 1.363 . S
C1136 N1134 1.356 . S
C1137 C1131 1.363 . S
C1137 C1132 1.379 . S
C1137 N1135 1.356 . S
N1138 C1130 1.356 . S
N1138 H1144 0.984 . S
N1138 H1145 0.984 . S
N1139 C1132 1.356 . S
N1139 H1142 0.984 . S
N1139 H1143 0.985 . S
H1140 N1135 0.984 . S
H1141 N1135 0.985 . S
H1142 N1139 0.984 . S
H1143 N1139 0.985 . S
H1144 N1138 0.984 . S
H1145 N1138 0.984 . S
H1146 N1134 0.984 . S
H1147 N1134 0.985 . S
C1148 C1149 1.363 . S
C1148 C1154 1.379 . S
C1148 N1156 1.356 . S
C1149 C1148 1.363 . S
C1149 C1155 1.363 . S
C1150 C1151 1.363 . S
C1150 C1155 1.379 . S
C1150 N1157 1.356 . S
C1151 C1150 1.363 . S
C1151 C1154 1.363 . S
N1152 C1154 1.356 . S
N1152 H1164 0.984 . S
N1152 H1165 0.985 . S
N1153 C1155 1.356 . S
N1153 H1158 0.984 . S
N1153 H1159 0.985 . S
C1154 C1148 1.379 . S
C1154 C1151 1.363 . S
C1154 N1152 1.356 . S
C1155 C1149 1.363 . S
C1155 C1150 1.379 . S
C1155 N1153 1.356 . S
N1156 C1148 1.356 . S
N1156 H1162 0.984 . S
N1156 H1163 0.984 . S
N1157 C1150 1.356 . S
N1157 H1160 0.984 . S
N1157 H1161 0.985 . S
H1158 N1153 0.984 . S
H1159 N1153 0.985 . S
H1160 N1157 0.984 . S
H1161 N1157 0.985 . S
H1162 N1156 0.984 . S
H1163 N1156 0.984 . S
H1164 N1152 0.984 . S
H1165 N1152 0.985 . S
C1166 C1167 1.363 . S
C1166 C1172 1.379 . S
C1166 N1174 1.356 . S
C1167 C1166 1.363 . S
C1167 C1173 1.363 . S
C1168 C1169 1.363 . S
C1168 C1173 1.379 . S
C1168 N1175 1.356 . S
C1169 C1168 1.363 . S
C1169 C1172 1.363 . S
N1170 C1172 1.356 . S
N1170 H1182 0.984 . S
N1170 H1183 0.985 . S
N1171 C1173 1.356 . S
N1171 H1176 0.984 . S
N1171 H1177 0.985 . S
C1172 C1166 1.379 . S
C1172 C1169 1.363 . S
C1172 N1170 1.356 . S
C1173 C1167 1.363 . S
C1173 C1168 1.379 . S
C1173 N1171 1.356 . S
N1174 C1166 1.356 . S
N1174 H1180 0.984 . S
N1174 H1181 0.984 . S
N1175 C1168 1.356 . S
N1175 H1178 0.984 . S
N1175 H1179 0.985 . S
H1176 N1171 0.984 . S
H1177 N1171 0.985 . S
H1178 N1175 0.984 . S
H1179 N1175 0.985 . S
H1180 N1174 0.984 . S
H1181 N1174 0.984 . S
H1182 N1170 0.984 . S
H1183 N1170 0.985 . S
C1184 C1185 1.363 . S
C1184 C1190 1.379 . S
C1184 N1192 1.356 . S
C1185 C1184 1.363 . S
C1185 C1191 1.363 . S
C1186 C1187 1.363 . S
C1186 C1191 1.379 . S
C1186 N1193 1.356 . S
C1187 C1186 1.363 . S
C1187 C1190 1.363 . S
N1188 C1190 1.356 . S
N1188 H1200 0.984 . S
N1188 H1201 0.985 . S
N1189 C1191 1.356 . S
N1189 H1194 0.984 . S
N1189 H1195 0.985 . S
C1190 C1184 1.379 . S
C1190 C1187 1.363 . S
C1190 N1188 1.356 . S
C1191 C1185 1.363 . S
C1191 C1186 1.379 . S
C1191 N1189 1.356 . S
N1192 C1184 1.356 . S
N1192 H1198 0.984 . S
N1192 H1199 0.984 . S
N1193 C1186 1.356 . S
N1193 H1196 0.984 . S
N1193 H1197 0.985 . S
H1194 N1189 0.984 . S
H1195 N1189 0.985 . S
H1196 N1193 0.984 . S
H1197 N1193 0.985 . S
H1198 N1192 0.984 . S
H1199 N1192 0.984 . S
H1200 N1188 0.984 . S
H1201 N1188 0.985 . S
C1202 C1203 1.363 . S
C1202 C1208 1.379 . S
C1202 N1210 1.356 . S
C1203 C1202 1.363 . S
C1203 C1209 1.363 . S
C1204 C1205 1.363 . S
C1204 C1209 1.379 . S
C1204 N1211 1.356 . S
C1205 C1204 1.363 . S
C1205 C1208 1.363 . S
N1206 C1208 1.356 . S
N1206 H1218 0.984 . S
N1206 H1219 0.985 . S
N1207 C1209 1.356 . S
N1207 H1212 0.984 . S
N1207 H1213 0.985 . S
C1208 C1202 1.379 . S
C1208 C1205 1.363 . S
C1208 N1206 1.356 . S
C1209 C1203 1.363 . S
C1209 C1204 1.379 . S
C1209 N1207 1.356 . S
N1210 C1202 1.356 . S
N1210 H1216 0.984 . S
N1210 H1217 0.984 . S
N1211 C1204 1.356 . S
N1211 H1214 0.984 . S
N1211 H1215 0.985 . S
H1212 N1207 0.984 . S
H1213 N1207 0.985 . S
H1214 N1211 0.984 . S
H1215 N1211 0.985 . S
H1216 N1210 0.984 . S
H1217 N1210 0.984 . S
H1218 N1206 0.984 . S
H1219 N1206 0.985 . S
C1220 C1221 1.363 . S
C1220 C1226 1.379 . S
C1220 N1228 1.356 . S
C1221 C1220 1.363 . S
C1221 C1227 1.363 . S
C1222 C1223 1.363 . S
C1222 C1227 1.379 . S
C1222 N1229 1.356 . S
C1223 C1222 1.363 . S
C1223 C1226 1.363 . S
N1224 C1226 1.356 . S
N1224 H1236 0.984 . S
N1224 H1237 0.985 . S
N1225 C1227 1.356 . S
N1225 H1230 0.984 . S
N1225 H1231 0.985 . S
C1226 C1220 1.379 . S
C1226 C1223 1.363 . S
C1226 N1224 1.356 . S
C1227 C1221 1.363 . S
C1227 C1222 1.379 . S
C1227 N1225 1.356 . S
N1228 C1220 1.356 . S
N1228 H1234 0.984 . S
N1228 H1235 0.984 . S
N1229 C1222 1.356 . S
N1229 H1232 0.984 . S
N1229 H1233 0.985 . S
H1230 N1225 0.984 . S
H1231 N1225 0.985 . S
H1232 N1229 0.984 . S
H1233 N1229 0.985 . S
H1234 N1228 0.984 . S
H1235 N1228 0.984 . S
H1236 N1224 0.984 . S
H1237 N1224 0.985 . S
C1238 C1239 1.363 . S
C1238 C1244 1.379 . S
C1238 N1246 1.356 . S
C1239 C1238 1.363 . S
C1239 C1245 1.363 . S
C1240 C1241 1.363 . S
C1240 C1245 1.379 . S
C1240 N1247 1.356 . S
C1241 C1240 1.363 . S
C1241 C1244 1.363 . S
N1242 C1244 1.356 . S
N1242 H1254 0.984 . S
N1242 H1255 0.985 . S
N1243 C1245 1.356 . S
N1243 H1248 0.984 . S
N1243 H1249 0.985 . S
C1244 C1238 1.379 . S
C1244 C1241 1.363 . S
C1244 N1242 1.356 . S
C1245 C1239 1.363 . S
C1245 C1240 1.379 . S
C1245 N1243 1.356 . S
N1246 C1238 1.356 . S
N1246 H1252 0.984 . S
N1246 H1253 0.984 . S
N1247 C1240 1.356 . S
N1247 H1250 0.984 . S
N1247 H1251 0.985 . S
H1248 N1243 0.984 . S
H1249 N1243 0.985 . S
H1250 N1247 0.984 . S
H1251 N1247 0.985 . S
H1252 N1246 0.984 . S
H1253 N1246 0.984 . S
H1254 N1242 0.984 . S
H1255 N1242 0.985 . S
C1256 C1257 1.363 . S
C1256 C1262 1.379 . S
C1256 N1264 1.356 . S
C1257 C1256 1.363 . S
C1257 C1263 1.363 . S
C1258 C1259 1.363 . S
C1258 C1263 1.379 . S
C1258 N1265 1.356 . S
C1259 C1258 1.363 . S
C1259 C1262 1.363 . S
N1260 C1262 1.356 . S
N1260 H1272 0.984 . S
N1260 H1273 0.985 . S
N1261 C1263 1.356 . S
N1261 H1266 0.984 . S
N1261 H1267 0.985 . S
C1262 C1256 1.379 . S
C1262 C1259 1.363 . S
C1262 N1260 1.356 . S
C1263 C1257 1.363 . S
C1263 C1258 1.379 . S
C1263 N1261 1.356 . S
N1264 C1256 1.356 . S
N1264 H1270 0.984 . S
N1264 H1271 0.984 . S
N1265 C1258 1.356 . S
N1265 H1268 0.984 . S
N1265 H1269 0.985 . S
H1266 N1261 0.984 . S
H1267 N1261 0.985 . S
H1268 N1265 0.984 . S
H1269 N1265 0.985 . S
H1270 N1264 0.984 . S
H1271 N1264 0.984 . S
H1272 N1260 0.984 . S
H1273 N1260 0.985 . S
C1274 C1275 1.363 . S
C1274 C1280 1.379 . S
C1274 N1282 1.356 . S
C1275 C1274 1.363 . S
C1275 C1281 1.363 . S
C1276 C1277 1.363 . S
C1276 C1281 1.379 . S
C1276 N1283 1.356 . S
C1277 C1276 1.363 . S
C1277 C1280 1.363 . S
N1278 C1280 1.356 . S
N1278 H1290 0.984 . S
N1278 H1291 0.985 . S
N1279 C1281 1.356 . S
N1279 H1284 0.984 . S
N1279 H1285 0.985 . S
C1280 C1274 1.379 . S
C1280 C1277 1.363 . S
C1280 N1278 1.356 . S
C1281 C1275 1.363 . S
C1281 C1276 1.379 . S
C1281 N1279 1.356 . S
N1282 C1274 1.356 . S
N1282 H1288 0.984 . S
N1282 H1289 0.984 . S
N1283 C1276 1.356 . S
N1283 H1286 0.984 . S
N1283 H1287 0.985 . S
H1284 N1279 0.984 . S
H1285 N1279 0.985 . S
H1286 N1283 0.984 . S
H1287 N1283 0.985 . S
H1288 N1282 0.984 . S
H1289 N1282 0.984 . S
H1290 N1278 0.984 . S
H1291 N1278 0.985 . S
C1292 C1293 1.363 . S
C1292 C1298 1.379 . S
C1292 N1300 1.356 . S
C1293 C1292 1.363 . S
C1293 C1299 1.363 . S
C1294 C1295 1.363 . S
C1294 C1299 1.379 . S
C1294 N1301 1.356 . S
C1295 C1294 1.363 . S
C1295 C1298 1.363 . S
N1296 C1298 1.356 . S
N1296 H1308 0.984 . S
N1296 H1309 0.985 . S
N1297 C1299 1.356 . S
N1297 H1302 0.984 . S
N1297 H1303 0.985 . S
C1298 C1292 1.379 . S
C1298 C1295 1.363 . S
C1298 N1296 1.356 . S
C1299 C1293 1.363 . S
C1299 C1294 1.379 . S
C1299 N1297 1.356 . S
N1300 C1292 1.356 . S
N1300 H1306 0.984 . S
N1300 H1307 0.984 . S
N1301 C1294 1.356 . S
N1301 H1304 0.984 . S
N1301 H1305 0.985 . S
H1302 N1297 0.984 . S
H1303 N1297 0.985 . S
H1304 N1301 0.984 . S
H1305 N1301 0.985 . S
H1306 N1300 0.984 . S
H1307 N1300 0.984 . S
H1308 N1296 0.984 . S
H1309 N1296 0.985 . S
C1310 C1311 1.363 . S
C1310 C1316 1.379 . S
C1310 N1318 1.356 . S
C1311 C1310 1.363 . S
C1311 C1317 1.363 . S
C1312 C1313 1.363 . S
C1312 C1317 1.379 . S
C1312 N1319 1.356 . S
C1313 C1312 1.363 . S
C1313 C1316 1.363 . S
N1314 C1316 1.356 . S
N1314 H1326 0.984 . S
N1314 H1327 0.985 . S
N1315 C1317 1.356 . S
N1315 H1320 0.984 . S
N1315 H1321 0.985 . S
C1316 C1310 1.379 . S
C1316 C1313 1.363 . S
C1316 N1314 1.356 . S
C1317 C1311 1.363 . S
C1317 C1312 1.379 . S
C1317 N1315 1.356 . S
N1318 C1310 1.356 . S
N1318 H1324 0.984 . S
N1318 H1325 0.984 . S
N1319 C1312 1.356 . S
N1319 H1322 0.984 . S
N1319 H1323 0.985 . S
H1320 N1315 0.984 . S
H1321 N1315 0.985 . S
H1322 N1319 0.984 . S
H1323 N1319 0.985 . S
H1324 N1318 0.984 . S
H1325 N1318 0.984 . S
H1326 N1314 0.984 . S
H1327 N1314 0.985 . S
C1328 C1329 1.363 . S
C1328 C1334 1.379 . S
C1328 N1336 1.356 . S
C1329 C1328 1.363 . S
C1329 C1335 1.363 . S
C1330 C1331 1.363 . S
C1330 C1335 1.379 . S
C1330 N1337 1.356 . S
C1331 C1330 1.363 . S
C1331 C1334 1.363 . S
N1332 C1334 1.356 . S
N1332 H1344 0.984 . S
N1332 H1345 0.985 . S
N1333 C1335 1.356 . S
N1333 H1338 0.984 . S
N1333 H1339 0.985 . S
C1334 C1328 1.379 . S
C1334 C1331 1.363 . S
C1334 N1332 1.356 . S
C1335 C1329 1.363 . S
C1335 C1330 1.379 . S
C1335 N1333 1.356 . S
N1336 C1328 1.356 . S
N1336 H1342 0.984 . S
N1336 H1343 0.984 . S
N1337 C1330 1.356 . S
N1337 H1340 0.984 . S
N1337 H1341 0.985 . S
H1338 N1333 0.984 . S
H1339 N1333 0.985 . S
H1340 N1337 0.984 . S
H1341 N1337 0.985 . S
H1342 N1336 0.984 . S
H1343 N1336 0.984 . S
H1344 N1332 0.984 . S
H1345 N1332 0.985 . S
C1346 C1347 1.363 . S
C1346 C1352 1.379 . S
C1346 N1354 1.356 . S
C1347 C1346 1.363 . S
C1347 C1353 1.363 . S
C1348 C1349 1.363 . S
C1348 C1353 1.379 . S
C1348 N1355 1.356 . S
C1349 C1348 1.363 . S
C1349 C1352 1.363 . S
N1350 C1352 1.356 . S
N1350 H1362 0.984 . S
N1350 H1363 0.985 . S
N1351 C1353 1.356 . S
N1351 H1356 0.984 . S
N1351 H1357 0.985 . S
C1352 C1346 1.379 . S
C1352 C1349 1.363 . S
C1352 N1350 1.356 . S
C1353 C1347 1.363 . S
C1353 C1348 1.379 . S
C1353 N1351 1.356 . S
N1354 C1346 1.356 . S
N1354 H1360 0.984 . S
N1354 H1361 0.984 . S
N1355 C1348 1.356 . S
N1355 H1358 0.984 . S
N1355 H1359 0.985 . S
H1356 N1351 0.984 . S
H1357 N1351 0.985 . S
H1358 N1355 0.984 . S
H1359 N1355 0.985 . S
H1360 N1354 0.984 . S
H1361 N1354 0.984 . S
H1362 N1350 0.984 . S
H1363 N1350 0.985 . S
C1364 C1365 1.363 . S
C1364 C1370 1.379 . S
C1364 N1372 1.356 . S
C1365 C1364 1.363 . S
C1365 C1371 1.363 . S
C1366 C1367 1.363 . S
C1366 C1371 1.379 . S
C1366 N1373 1.356 . S
C1367 C1366 1.363 . S
C1367 C1370 1.363 . S
N1368 C1370 1.356 . S
N1368 H1380 0.984 . S
N1368 H1381 0.985 . S
N1369 C1371 1.356 . S
N1369 H1374 0.984 . S
N1369 H1375 0.985 . S
C1370 C1364 1.379 . S
C1370 C1367 1.363 . S
C1370 N1368 1.356 . S
C1371 C1365 1.363 . S
C1371 C1366 1.379 . S
C1371 N1369 1.356 . S
N1372 C1364 1.356 . S
N1372 H1378 0.984 . S
N1372 H1379 0.984 . S
N1373 C1366 1.356 . S
N1373 H1376 0.984 . S
N1373 H1377 0.985 . S
H1374 N1369 0.984 . S
H1375 N1369 0.985 . S
H1376 N1373 0.984 . S
H1377 N1373 0.985 . S
H1378 N1372 0.984 . S
H1379 N1372 0.984 . S
H1380 N1368 0.984 . S
H1381 N1368 0.985 . S
C521 C347 2.476 . S
C519 C18 2.603 . S
C539 C348 2.645 . S
C537 C59 2.653 . S
C557 C342 1.438 . S
C555 C98 1.481 . S
C573 C125 0.612 . S
C575 C341 0.622 . S
C591 C169 2.595 . S
C593 C344 2.597 . S
C611 C346 1.266 . S
C609 C218 1.316 . S
C627 C255 1.033 . S
C629 C345 1.025 . S
C645 C288 2.581 . S
C647 C343 2.449 . S
C665 C378 1.045 . S
C663 C15 1.014 . S
C681 C45 0.801 . S
C683 C409 0.599 . S
C701 C377 0.233 . S
C699 C95 0.344 . S
C719 C412 1.139 . S
C717 C128 1.132 . S
C735 C178 1.395 . S
C737 C375 1.322 . S
C755 C407 1.486 . S
C753 C215 1.495 . S
C771 C249 2.267 . S
C773 C380 2.365 . S
C789 C299 2.045 . S
C791 C414 1.982 . S
C807 C9 2.748 . S
C809 C410 2.732 . S
C825 C175 0.852 . S
C827 C413 1.014 . S
C845 C381 1.538 . S
C843 C209 1.543 . S
C863 C408 1.592 1_556 S
C861 C258 1.739 . S
C879 C285 1.471 . S
C881 C374 1.540 . S
C897 C89 3.117 . S
C899 C411 3.135 . S
C917 C376 2.544 . S
C915 C139 2.611 . S
C933 C48 1.889 . S
C935 C379 1.868 . S
C951 C298 2.604 . S
C953 C446 2.458 . S
C969 C179 2.262 . S
C971 C447 2.252 . S
C989 C441 1.450 . S
C987 C208 1.504 . S
C1007 C440 1.021 . S
C1005 C245 1.032 . S
C1023 C49 2.347 . S
C1025 C443 2.337 . S
C1043 C445 1.332 . S
C1041 C88 1.373 . S
C1059 C135 0.857 . S
C1061 C444 0.856 . S
C1077 C8 2.609 . S
C1079 C442 2.444 . S
C1095 C295 1.434 . S
C1097 C480 1.433 . S
C1115 C512 0.753 . S
C1113 C165 0.751 . S
C1131 C219 1.739 . S
C1133 C473 1.726 . S
C1149 C248 2.056 . S
C1151 C507 2.047 . S
C1169 C478 1.701 . S
C1167 C58 1.719 . S
C1185 C99 3.301 . S
C1187 C509 3.263 . S
C1205 C475 2.757 . S
C1203 C129 2.799 . S
C1223 C510 2.746 . S
C1221 C19 2.660 . S
C1241 C506 2.058 . S
C1239 C289 1.949 . S
C1257 C55 0.926 . S
C1259 C508 0.746 . S
C1275 C85 0.415 . S
C1277 C477 0.300 . S
C1295 C511 1.415 . S
C1293 C138 1.407 . S
C1311 C5 0.907 . S
C1313 C476 0.863 . S
C1329 C205 1.658 . S
C1331 C513 1.609 . S
C1349 C479 2.346 . S
C1347 C259 2.372 . S
C1367 C474 1.389 . S
C1365 C168 1.296 . S
