# Generated by pormake.
# Topology iac, (4,6)-cn, num edge types: 1
# Building blocks:
#     Node 0, Type 0, BuildingBlock: CEKHIL_clean_sbu_0, # of connection points: 4
#     Node 1, Type 0, BuildingBlock: CEKHIL_clean_sbu_0, # of connection points: 4
#     Node 2, Type 0, BuildingBlock: CEKHIL_clean_sbu_0, # of connection points: 4
#     Node 3, Type 0, BuildingBlock: CEKHIL_clean_sbu_0, # of connection points: 4
#     Node 4, Type 0, BuildingBlock: CEKHIL_clean_sbu_0, # of connection points: 4
#     Node 5, Type 0, BuildingBlock: CEKHIL_clean_sbu_0, # of connection points: 4
#     Node 6, Type 0, BuildingBlock: CEKHIL_clean_sbu_0, # of connection points: 4
#     Node 7, Type 0, BuildingBlock: CEKHIL_clean_sbu_0, # of connection points: 4
#     Node 8, Type 0, BuildingBlock: CEKHIL_clean_sbu_0, # of connection points: 4
#     Node 9, Type 0, BuildingBlock: CEKHIL_clean_sbu_0, # of connection points: 4
#     Node 10, Type 0, BuildingBlock: CEKHIL_clean_sbu_0, # of connection points: 4
#     Node 11, Type 0, BuildingBlock: CEKHIL_clean_sbu_0, # of connection points: 4
#     Node 12, Type 0, BuildingBlock: CEKHIL_clean_sbu_0, # of connection points: 4
#     Node 13, Type 0, BuildingBlock: CEKHIL_clean_sbu_0, # of connection points: 4
#     Node 14, Type 0, BuildingBlock: CEKHIL_clean_sbu_0, # of connection points: 4
#     Node 15, Type 0, BuildingBlock: CEKHIL_clean_sbu_0, # of connection points: 4
#     Node 16, Type 0, BuildingBlock: CEKHIL_clean_sbu_0, # of connection points: 4
#     Node 17, Type 0, BuildingBlock: CEKHIL_clean_sbu_0, # of connection points: 4
#     Node 18, Type 0, BuildingBlock: CEKHIL_clean_sbu_0, # of connection points: 4
#     Node 19, Type 0, BuildingBlock: CEKHIL_clean_sbu_0, # of connection points: 4
#     Node 20, Type 0, BuildingBlock: CEKHIL_clean_sbu_0, # of connection points: 4
#     Node 21, Type 0, BuildingBlock: CEKHIL_clean_sbu_0, # of connection points: 4
#     Node 22, Type 0, BuildingBlock: CEKHIL_clean_sbu_0, # of connection points: 4
#     Node 23, Type 0, BuildingBlock: CEKHIL_clean_sbu_0, # of connection points: 4
#     Node 24, Type 1, BuildingBlock: JUFBIX_clean_sbu_0, # of connection points: 6
#     Node 25, Type 1, BuildingBlock: JUFBIX_clean_sbu_0, # of connection points: 6
#     Node 26, Type 1, BuildingBlock: JUFBIX_clean_sbu_0, # of connection points: 6
#     Node 27, Type 1, BuildingBlock: JUFBIX_clean_sbu_0, # of connection points: 6
#     Node 28, Type 1, BuildingBlock: JUFBIX_clean_sbu_0, # of connection points: 6
#     Node 29, Type 1, BuildingBlock: JUFBIX_clean_sbu_0, # of connection points: 6
#     Node 30, Type 1, BuildingBlock: JUFBIX_clean_sbu_0, # of connection points: 6
#     Node 31, Type 1, BuildingBlock: JUFBIX_clean_sbu_0, # of connection points: 6
#     Node 32, Type 1, BuildingBlock: JUFBIX_clean_sbu_0, # of connection points: 6
#     Node 33, Type 1, BuildingBlock: JUFBIX_clean_sbu_0, # of connection points: 6
#     Node 34, Type 1, BuildingBlock: JUFBIX_clean_sbu_0, # of connection points: 6
#     Node 35, Type 1, BuildingBlock: JUFBIX_clean_sbu_0, # of connection points: 6
#     Node 36, Type 1, BuildingBlock: JUFBIX_clean_sbu_0, # of connection points: 6
#     Node 37, Type 1, BuildingBlock: JUFBIX_clean_sbu_0, # of connection points: 6
#     Node 38, Type 1, BuildingBlock: JUFBIX_clean_sbu_0, # of connection points: 6
#     Node 39, Type 1, BuildingBlock: JUFBIX_clean_sbu_0, # of connection points: 6
#     Edge 40, Type (0, 1), BuildingBlock: AJUNOK_clean_linker_0, # of connection points: 2
#     Edge 41, Type (0, 1), BuildingBlock: AJUNOK_clean_linker_0, # of connection points: 2
#     Edge 42, Type (0, 1), BuildingBlock: AJUNOK_clean_linker_0, # of connection points: 2
#     Edge 43, Type (0, 1), BuildingBlock: AJUNOK_clean_linker_0, # of connection points: 2
#     Edge 44, Type (0, 1), BuildingBlock: AJUNOK_clean_linker_0, # of connection points: 2
#     Edge 45, Type (0, 1), BuildingBlock: AJUNOK_clean_linker_0, # of connection points: 2
#     Edge 46, Type (0, 1), BuildingBlock: AJUNOK_clean_linker_0, # of connection points: 2
#     Edge 47, Type (0, 1), BuildingBlock: AJUNOK_clean_linker_0, # of connection points: 2
#     Edge 48, Type (0, 1), BuildingBlock: AJUNOK_clean_linker_0, # of connection points: 2
#     Edge 49, Type (0, 1), BuildingBlock: AJUNOK_clean_linker_0, # of connection points: 2
#     Edge 50, Type (0, 1), BuildingBlock: AJUNOK_clean_linker_0, # of connection points: 2
#     Edge 51, Type (0, 1), BuildingBlock: AJUNOK_clean_linker_0, # of connection points: 2
#     Edge 52, Type (0, 1), BuildingBlock: AJUNOK_clean_linker_0, # of connection points: 2
#     Edge 53, Type (0, 1), BuildingBlock: AJUNOK_clean_linker_0, # of connection points: 2
#     Edge 54, Type (0, 1), BuildingBlock: AJUNOK_clean_linker_0, # of connection points: 2
#     Edge 55, Type (0, 1), BuildingBlock: AJUNOK_clean_linker_0, # of connection points: 2
#     Edge 56, Type (0, 1), BuildingBlock: AJUNOK_clean_linker_0, # of connection points: 2
#     Edge 57, Type (0, 1), BuildingBlock: AJUNOK_clean_linker_0, # of connection points: 2
#     Edge 58, Type (0, 1), BuildingBlock: AJUNOK_clean_linker_0, # of connection points: 2
#     Edge 59, Type (0, 1), BuildingBlock: AJUNOK_clean_linker_0, # of connection points: 2
#     Edge 60, Type (0, 1), BuildingBlock: AJUNOK_clean_linker_0, # of connection points: 2
#     Edge 61, Type (0, 1), BuildingBlock: AJUNOK_clean_linker_0, # of connection points: 2
#     Edge 62, Type (0, 1), BuildingBlock: AJUNOK_clean_linker_0, # of connection points: 2
#     Edge 63, Type (0, 1), BuildingBlock: AJUNOK_clean_linker_0, # of connection points: 2
#     Edge 64, Type (0, 1), BuildingBlock: AJUNOK_clean_linker_0, # of connection points: 2
#     Edge 65, Type (0, 1), BuildingBlock: AJUNOK_clean_linker_0, # of connection points: 2
#     Edge 66, Type (0, 1), BuildingBlock: AJUNOK_clean_linker_0, # of connection points: 2
#     Edge 67, Type (0, 1), BuildingBlock: AJUNOK_clean_linker_0, # of connection points: 2
#     Edge 68, Type (0, 1), BuildingBlock: AJUNOK_clean_linker_0, # of connection points: 2
#     Edge 69, Type (0, 1), BuildingBlock: AJUNOK_clean_linker_0, # of connection points: 2
#     Edge 70, Type (0, 1), BuildingBlock: AJUNOK_clean_linker_0, # of connection points: 2
#     Edge 71, Type (0, 1), BuildingBlock: AJUNOK_clean_linker_0, # of connection points: 2
#     Edge 72, Type (0, 1), BuildingBlock: AJUNOK_clean_linker_0, # of connection points: 2
#     Edge 73, Type (0, 1), BuildingBlock: AJUNOK_clean_linker_0, # of connection points: 2
#     Edge 74, Type (0, 1), BuildingBlock: AJUNOK_clean_linker_0, # of connection points: 2
#     Edge 75, Type (0, 1), BuildingBlock: AJUNOK_clean_linker_0, # of connection points: 2
#     Edge 76, Type (0, 1), BuildingBlock: AJUNOK_clean_linker_0, # of connection points: 2
#     Edge 77, Type (0, 1), BuildingBlock: AJUNOK_clean_linker_0, # of connection points: 2
#     Edge 78, Type (0, 1), BuildingBlock: AJUNOK_clean_linker_0, # of connection points: 2
#     Edge 79, Type (0, 1), BuildingBlock: AJUNOK_clean_linker_0, # of connection points: 2
#     Edge 80, Type (0, 1), BuildingBlock: AJUNOK_clean_linker_0, # of connection points: 2
#     Edge 81, Type (0, 1), BuildingBlock: AJUNOK_clean_linker_0, # of connection points: 2
#     Edge 82, Type (0, 1), BuildingBlock: AJUNOK_clean_linker_0, # of connection points: 2
#     Edge 83, Type (0, 1), BuildingBlock: AJUNOK_clean_linker_0, # of connection points: 2
#     Edge 84, Type (0, 1), BuildingBlock: AJUNOK_clean_linker_0, # of connection points: 2
#     Edge 85, Type (0, 1), BuildingBlock: AJUNOK_clean_linker_0, # of connection points: 2
#     Edge 86, Type (0, 1), BuildingBlock: AJUNOK_clean_linker_0, # of connection points: 2
#     Edge 87, Type (0, 1), BuildingBlock: AJUNOK_clean_linker_0, # of connection points: 2
#     Edge 88, Type (0, 1), BuildingBlock: AJUNOK_clean_linker_0, # of connection points: 2
#     Edge 89, Type (0, 1), BuildingBlock: AJUNOK_clean_linker_0, # of connection points: 2
#     Edge 90, Type (0, 1), BuildingBlock: AJUNOK_clean_linker_0, # of connection points: 2
#     Edge 91, Type (0, 1), BuildingBlock: AJUNOK_clean_linker_0, # of connection points: 2
#     Edge 92, Type (0, 1), BuildingBlock: AJUNOK_clean_linker_0, # of connection points: 2
#     Edge 93, Type (0, 1), BuildingBlock: AJUNOK_clean_linker_0, # of connection points: 2
#     Edge 94, Type (0, 1), BuildingBlock: AJUNOK_clean_linker_0, # of connection points: 2
#     Edge 95, Type (0, 1), BuildingBlock: AJUNOK_clean_linker_0, # of connection points: 2
#     Edge 96, Type (0, 1), BuildingBlock: AJUNOK_clean_linker_0, # of connection points: 2
#     Edge 97, Type (0, 1), BuildingBlock: AJUNOK_clean_linker_0, # of connection points: 2
#     Edge 98, Type (0, 1), BuildingBlock: AJUNOK_clean_linker_0, # of connection points: 2
#     Edge 99, Type (0, 1), BuildingBlock: AJUNOK_clean_linker_0, # of connection points: 2
#     Edge 100, Type (0, 1), BuildingBlock: AJUNOK_clean_linker_0, # of connection points: 2
#     Edge 101, Type (0, 1), BuildingBlock: AJUNOK_clean_linker_0, # of connection points: 2
#     Edge 102, Type (0, 1), BuildingBlock: AJUNOK_clean_linker_0, # of connection points: 2
#     Edge 103, Type (0, 1), BuildingBlock: AJUNOK_clean_linker_0, # of connection points: 2
#     Edge 104, Type (0, 1), BuildingBlock: AJUNOK_clean_linker_0, # of connection points: 2
#     Edge 105, Type (0, 1), BuildingBlock: AJUNOK_clean_linker_0, # of connection points: 2
#     Edge 106, Type (0, 1), BuildingBlock: AJUNOK_clean_linker_0, # of connection points: 2
#     Edge 107, Type (0, 1), BuildingBlock: AJUNOK_clean_linker_0, # of connection points: 2
#     Edge 108, Type (0, 1), BuildingBlock: AJUNOK_clean_linker_0, # of connection points: 2
#     Edge 109, Type (0, 1), BuildingBlock: AJUNOK_clean_linker_0, # of connection points: 2
#     Edge 110, Type (0, 1), BuildingBlock: AJUNOK_clean_linker_0, # of connection points: 2
#     Edge 111, Type (0, 1), BuildingBlock: AJUNOK_clean_linker_0, # of connection points: 2
#     Edge 112, Type (0, 1), BuildingBlock: AJUNOK_clean_linker_0, # of connection points: 2
#     Edge 113, Type (0, 1), BuildingBlock: AJUNOK_clean_linker_0, # of connection points: 2
#     Edge 114, Type (0, 1), BuildingBlock: AJUNOK_clean_linker_0, # of connection points: 2
#     Edge 115, Type (0, 1), BuildingBlock: AJUNOK_clean_linker_0, # of connection points: 2
#     Edge 116, Type (0, 1), BuildingBlock: AJUNOK_clean_linker_0, # of connection points: 2
#     Edge 117, Type (0, 1), BuildingBlock: AJUNOK_clean_linker_0, # of connection points: 2
#     Edge 118, Type (0, 1), BuildingBlock: AJUNOK_clean_linker_0, # of connection points: 2
#     Edge 119, Type (0, 1), BuildingBlock: AJUNOK_clean_linker_0, # of connection points: 2
#     Edge 120, Type (0, 1), BuildingBlock: AJUNOK_clean_linker_0, # of connection points: 2
#     Edge 121, Type (0, 1), BuildingBlock: AJUNOK_clean_linker_0, # of connection points: 2
#     Edge 122, Type (0, 1), BuildingBlock: AJUNOK_clean_linker_0, # of connection points: 2
#     Edge 123, Type (0, 1), BuildingBlock: AJUNOK_clean_linker_0, # of connection points: 2
#     Edge 124, Type (0, 1), BuildingBlock: AJUNOK_clean_linker_0, # of connection points: 2
#     Edge 125, Type (0, 1), BuildingBlock: AJUNOK_clean_linker_0, # of connection points: 2
#     Edge 126, Type (0, 1), BuildingBlock: AJUNOK_clean_linker_0, # of connection points: 2
#     Edge 127, Type (0, 1), BuildingBlock: AJUNOK_clean_linker_0, # of connection points: 2
#     Edge 128, Type (0, 1), BuildingBlock: AJUNOK_clean_linker_0, # of connection points: 2
#     Edge 129, Type (0, 1), BuildingBlock: AJUNOK_clean_linker_0, # of connection points: 2
#     Edge 130, Type (0, 1), BuildingBlock: AJUNOK_clean_linker_0, # of connection points: 2
#     Edge 131, Type (0, 1), BuildingBlock: AJUNOK_clean_linker_0, # of connection points: 2
#     Edge 132, Type (0, 1), BuildingBlock: AJUNOK_clean_linker_0, # of connection points: 2
#     Edge 133, Type (0, 1), BuildingBlock: AJUNOK_clean_linker_0, # of connection points: 2
#     Edge 134, Type (0, 1), BuildingBlock: AJUNOK_clean_linker_0, # of connection points: 2
#     Edge 135, Type (0, 1), BuildingBlock: AJUNOK_clean_linker_0, # of connection points: 2
# Relax obj value: 0.254
# Max RMSD: 0.245
# Mean RMSD: 0.116
data_MOF--net-iac--node1-CEKHIL_clean_sbu_0--node2-JUFBIX_clean_sbu_0--edge1-AJUNOK_clean_linker_0
_symmetry_space_group_name_H-M    P1
_symmetry_Int_Tables_number       1
_symmetry_cell_setting            triclinic
loop_
_symmetry_equiv_pos_as_xyz
'x, y, z'
_cell_length_a     40.514426
_cell_length_b     41.074253
_cell_length_c     40.481876
_cell_angle_alpha  88.994252
_cell_angle_beta   87.747285
_cell_angle_gamma 88.268681
loop_
_atom_site_label
_atom_site_type_symbol
_atom_site_fract_x
_atom_site_fract_y
_atom_site_fract_z
_atom_type_partial_charge
Co0 Co 0.04548 0.29748 0.16417 0.0
O1 O 0.99719 0.30085 0.1576 0.0
O2 O 0.01843 0.28531 0.20411 0.0
C3 C 0.05606 0.3495 0.13859 0.0
O4 O 0.0925 0.29392 0.18617 0.0
Co5 Co 0.09839 0.29378 0.11404 0.0
O6 O 0.13163 0.30363 0.14758 0.0
C7 C 0.05943 0.23451 0.12116 0.0
C8 C 0.99181 0.29167 0.18814 0.0
C9 C 0.12327 0.29966 0.17796 0.0
O10 O 0.0466 0.24834 0.14781 0.0
O11 O 0.07969 0.25024 0.10227 0.0
O12 O 0.04614 0.34596 0.16933 0.0
O13 O 0.0588 0.32177 0.12342 0.0
Co14 Co 0.07636 0.79465 0.42631 0.0
O15 O 0.12363 0.79714 0.42951 0.0
O16 O 0.09682 0.79055 0.38342 0.0
C17 C 0.06171 0.83702 0.4583 0.0
O18 O 0.02955 0.79321 0.41158 0.0
Co19 Co 0.02698 0.78156 0.48522 0.0
O20 O 0.99352 0.79942 0.45459 0.0
C21 C 0.06907 0.728 0.45723 0.0
C22 C 0.12466 0.79401 0.39752 0.0
C23 C 1.0005 0.79995 0.42364 0.0
O24 O 0.07905 0.74617 0.43303 0.0
O25 O 0.05048 0.73803 0.48147 0.0
O26 O 0.07178 0.84171 0.42774 0.0
O27 O 0.06396 0.80737 0.46938 0.0
Co28 Co 0.54436 0.79818 0.66226 0.0
O29 O 0.49619 0.80108 0.65509 0.0
O30 O 0.51691 0.78524 0.70175 0.0
C31 C 0.55484 0.85049 0.63757 0.0
O32 O 0.59134 0.79487 0.68439 0.0
Co33 Co 0.59745 0.79542 0.61197 0.0
O34 O 0.63059 0.80437 0.64581 0.0
C35 C 0.55919 0.73575 0.61887 0.0
C36 C 0.49045 0.79143 0.68543 0.0
C37 C 0.62218 0.80039 0.67619 0.0
O38 O 0.54619 0.74929 0.64556 0.0
O39 O 0.57922 0.75176 0.60001 0.0
O40 O 0.54448 0.8465 0.66811 0.0
O41 O 0.55778 0.82305 0.62192 0.0
Co42 Co 0.57465 0.28929 0.9316 0.0
O43 O 0.62233 0.28682 0.93373 0.0
O44 O 0.59396 0.28458 0.88815 0.0
C45 C 0.56534 0.33188 0.96544 0.0
O46 O 0.52758 0.29264 0.91731 0.0
Co47 Co 0.52389 0.28004 0.98966 0.0
O48 O 0.49197 0.30195 0.96006 0.0
C49 C 0.55544 0.22244 0.95672 0.0
C50 C 0.62242 0.28447 0.90165 0.0
C51 C 0.49882 0.30073 0.92919 0.0
O52 O 0.57216 0.24069 0.93666 0.0
O53 O 0.53589 0.2333 0.97987 0.0
O54 O 0.57512 0.33638 0.93476 0.0
O55 O 0.56412 0.30185 0.97548 0.0
Co56 Co 0.1566 0.033 0.32679 0.0
O57 O 0.15655 0.9889 0.3122 0.0
O58 O 0.19921 0.02184 0.30746 0.0
C59 C 0.13206 0.02577 0.37612 0.0
O60 O 0.16661 0.07849 0.33933 0.0
Co61 Co 0.09207 0.07403 0.3406 0.0
O62 O 0.12158 0.10869 0.35461 0.0
C63 C 0.11088 0.05031 0.27448 0.0
C64 C 0.18691 0.99369 0.30203 0.0
C65 C 0.15276 0.10459 0.35073 0.0
O66 O 0.14088 0.04795 0.28312 0.0
O67 O 0.08677 0.05695 0.29487 0.0
O68 O 0.16355 0.01906 0.37199 0.0
O69 O 0.11612 0.03322 0.34993 0.0
Co70 Co 0.26549 0.90941 0.54834 0.0
O71 O 0.21872 0.90514 0.55327 0.0
O72 O 0.24709 0.947 0.56986 0.0
C73 C 0.27265 0.89498 0.49585 0.0
O74 O 0.31269 0.92312 0.54596 0.0
Co75 Co 0.31194 0.84905 0.53562 0.0
O76 O 0.34554 0.88253 0.52549 0.0
C77 C 0.2778 0.85791 0.59998 0.0
C78 C 0.21877 0.93347 0.56712 0.0
C79 C 0.34032 0.91215 0.53358 0.0
O80 O 0.27116 0.88756 0.59205 0.0
O81 O 0.29106 0.83719 0.57989 0.0
O82 O 0.26169 0.92416 0.50304 0.0
O83 O 0.27398 0.87438 0.52037 0.0
Co84 Co 0.42718 0.07481 0.78258 0.0
O85 O 0.42941 0.1213 0.78347 0.0
O86 O 0.38655 0.09382 0.76765 0.0
C87 C 0.44757 0.06304 0.83185 0.0
O88 O 0.41501 0.02768 0.77999 0.0
Co89 Co 0.49069 0.03006 0.78397 0.0
O90 O 0.45865 0.99482 0.7916 0.0
C91 C 0.47687 0.07184 0.72652 0.0
C92 C 0.39968 0.12175 0.7724 0.0
C93 C 0.42798 0.99956 0.78672 0.0
O94 O 0.44651 0.07508 0.73638 0.0
O95 O 0.49918 0.05796 0.74379 0.0
O96 O 0.41674 0.07257 0.82995 0.0
O97 O 0.46535 0.06527 0.80489 0.0
Co98 Co 0.30261 0.17017 0.03361 0.0
O99 O 0.35087 0.17804 0.03108 0.0
O100 O 0.33025 0.13099 0.04383 0.0
C101 C 0.2919 0.197 0.98215 0.0
O102 O 0.25581 0.14741 0.03654 0.0
Co103 Co 0.24828 0.21859 0.03852 0.0
O104 O 0.21583 0.18467 0.02831 0.0
C105 C 0.28835 0.21121 0.09767 0.0
C106 C 0.35675 0.1476 0.03868 0.0
C107 C 0.22483 0.15487 0.03144 0.0
O108 O 0.30084 0.18487 0.08368 0.0
O109 O 0.26816 0.22985 0.08204 0.0
O110 O 0.30247 0.16688 0.98431 0.0
O111 O 0.28867 0.21073 0.01085 0.0
Co112 Co 0.76573 0.41889 0.0599 0.0
O113 O 0.71893 0.42108 0.06805 0.0
O114 O 0.7536 0.4605 0.07771 0.0
C115 C 0.76694 0.39804 0.0094 0.0
O116 O 0.81431 0.4266 0.05315 0.0
Co117 Co 0.80502 0.3533 0.04996 0.0
O118 O 0.84113 0.38179 0.03351 0.0
C119 C 0.77345 0.37022 0.11415 0.0
C120 C 0.72351 0.45046 0.07817 0.0
C121 C 0.83957 0.41219 0.03928 0.0
O122 O 0.77149 0.40024 0.10521 0.0
O123 O 0.78296 0.34726 0.09472 0.0
O124 O 0.76057 0.429 0.01332 0.0
O125 O 0.76787 0.38056 0.03616 0.0
Co126 Co 0.92139 0.57647 0.27842 0.0
O127 O 0.92382 0.62264 0.27533 0.0
O128 O 0.87963 0.59439 0.26468 0.0
C129 C 0.94485 0.56953 0.32664 0.0
O130 O 0.9101 0.52876 0.28082 0.0
Co131 Co 0.98673 0.53393 0.28011 0.0
O132 O 0.9558 0.49911 0.29343 0.0
C133 C 0.96821 0.57075 0.22057 0.0
C134 C 0.8935 0.6225 0.26621 0.0
C135 C 0.92471 0.50201 0.28987 0.0
O136 O 0.93814 0.57338 0.23148 0.0
O137 O 0.99183 0.55932 0.23779 0.0
O138 O 0.91363 0.57793 0.32625 0.0
O139 O 0.9609 0.56987 0.29863 0.0
Co140 Co 0.80464 0.66995 0.53245 0.0
O141 O 0.85303 0.67764 0.52951 0.0
O142 O 0.83229 0.63051 0.54172 0.0
C143 C 0.7931 0.69718 0.48144 0.0
O144 O 0.75786 0.64733 0.5356 0.0
Co145 Co 0.75024 0.71879 0.53814 0.0
O146 O 0.71794 0.68487 0.52799 0.0
C147 C 0.79048 0.71037 0.59707 0.0
C148 C 0.85882 0.64701 0.53634 0.0
C149 C 0.72692 0.65502 0.53068 0.0
O150 O 0.8033 0.68435 0.58267 0.0
O151 O 0.77 0.72903 0.58187 0.0
O152 O 0.80387 0.6671 0.48313 0.0
O153 O 0.79038 0.71066 0.51028 0.0
Co154 Co 0.65941 0.5266 0.82838 0.0
O155 O 0.66071 0.48222 0.81473 0.0
O156 O 0.7014 0.51724 0.80715 0.0
C157 C 0.63827 0.51857 0.87898 0.0
O158 O 0.66841 0.57262 0.83974 0.0
Co159 Co 0.59486 0.56568 0.84699 0.0
O160 O 0.6243 0.60047 0.86088 0.0
C161 C 0.60982 0.54396 0.77904 0.0
C162 C 0.69064 0.48808 0.80386 0.0
C163 C 0.65508 0.59787 0.8534 0.0
O164 O 0.64036 0.54025 0.78568 0.0
O165 O 0.58712 0.55094 0.80087 0.0
O166 O 0.66975 0.5134 0.87297 0.0
O167 O 0.6204 0.5253 0.85393 0.0
Co168 Co 0.05497 0.80134 0.91287 0.0
O169 O 0.10347 0.80204 0.91871 0.0
O170 O 0.08184 0.78824 0.87296 0.0
C171 C 0.04614 0.85429 0.93725 0.0
O172 O 1.00785 0.7992 0.89088 0.0
Co173 Co 1.00187 0.80138 0.96179 0.0
O174 O 0.96672 0.80129 0.92879 0.0
C175 C 0.03693 0.7382 0.95516 0.0
C176 C 0.10868 0.79339 0.88819 0.0
C177 C 0.97625 0.79929 0.89865 0.0
O178 O 0.05359 0.7523 0.93076 0.0
O179 O 0.01515 0.75459 0.97207 0.0
O180 O 0.05476 0.84994 0.90636 0.0
O181 O 0.04223 0.82669 0.95318 0.0
Co182 Co 0.01662 0.33834 0.6549 0.0
O183 O 0.97077 0.33627 0.64531 0.0
O184 O 0.99355 0.31597 0.69041 0.0
C185 C 0.01885 0.39119 0.64154 0.0
O186 O 0.06206 0.3359 0.67391 0.0
Co187 Co 0.06925 0.35837 0.601 0.0
O188 O 0.10155 0.34707 0.63514 0.0
C189 C 0.04852 0.28979 0.6075 0.0
C190 C 0.96694 0.3226 0.67426 0.0
C191 C 0.09246 0.33721 0.66398 0.0
O192 O 0.02796 0.29666 0.63158 0.0
O193 O 0.06488 0.31121 0.591 0.0
O194 O 1.00877 0.38241 0.67105 0.0
O195 O 0.02625 0.36827 0.62097 0.0
Co196 Co 0.55632 0.30226 0.4145 0.0
O197 O 0.60472 0.30297 0.42104 0.0
O198 O 0.58355 0.2886 0.37519 0.0
C199 C 0.5474 0.35513 0.43835 0.0
O200 O 0.50945 0.29995 0.39189 0.0
Co201 Co 0.50229 0.30296 0.46262 0.0
O202 O 0.4677 0.30317 0.42905 0.0
C203 C 0.53798 0.23993 0.45745 0.0
C204 C 0.61021 0.29371 0.39076 0.0
C205 C 0.47771 0.30061 0.3991 0.0
O206 O 0.55481 0.25363 0.43298 0.0
O207 O 0.5158 0.25642 0.47373 0.0
O208 O 0.5563 0.35069 0.40753 0.0
O209 O 0.54307 0.32769 0.4544 0.0
Co210 Co 0.50928 0.84383 0.15127 0.0
O211 O 0.46565 0.84621 0.13398 0.0
O212 O 0.48158 0.81475 0.17588 0.0
C213 C 0.51463 0.89781 0.15224 0.0
O214 O 0.54998 0.8348 0.17728 0.0
Co215 Co 0.57147 0.87176 0.11571 0.0
O216 O 0.59367 0.86235 0.15771 0.0
C217 C 0.54861 0.80634 0.09881 0.0
C218 C 0.45783 0.82591 0.15782 0.0
C219 C 0.57997 0.84329 0.17885 0.0
O220 O 0.52425 0.80861 0.12007 0.0
O221 O 0.56887 0.82919 0.09255 0.0
O222 O 0.49861 0.88318 0.17627 0.0
O223 O 0.5254 0.88 0.12795 0.0
Co224 Co 0.90654 0.09283 0.78655 0.0
O225 O 0.91492 0.13792 0.78508 0.0
O226 O 0.8764 0.11399 0.75719 0.0
C227 C 0.90677 0.08843 0.8411 0.0
O228 O 0.89107 0.04728 0.78288 0.0
Co229 Co 0.95875 0.04419 0.81716 0.0
O230 O 0.92306 0.01272 0.81256 0.0
C231 C 0.96944 0.0719 0.75019 0.0
C232 C 0.88977 0.14068 0.76629 0.0
C233 C 0.89828 0.01906 0.79483 0.0
O234 O 0.93999 0.08433 0.75023 0.0
O235 O 0.98263 0.05823 0.77529 0.0
O236 O 0.87991 0.09886 0.82751 0.0
O237 O 0.93247 0.08377 0.82189 0.0
Co238 Co 0.83962 0.17725 0.50879 0.0
O239 O 0.88376 0.18948 0.5184 0.0
O240 O 0.85818 0.14579 0.53814 0.0
C241 C 0.84706 0.18759 0.45513 0.0
O242 O 0.79655 0.15484 0.50575 0.0
Co243 Co 0.78574 0.21885 0.47447 0.0
O244 O 0.75731 0.18038 0.477 0.0
C245 C 0.79724 0.22572 0.54625 0.0
C246 C 0.88482 0.1625 0.53575 0.0
C247 C 0.76759 0.15641 0.49439 0.0
O248 O 0.8199 0.20313 0.54605 0.0
O249 O 0.7823 0.23594 0.52061 0.0
O250 O 0.85672 0.1594 0.46697 0.0
O251 O 0.83267 0.20785 0.47528 0.0
Co252 Co 0.66079 0.01329 0.30994 0.0
O253 O 0.65356 0.96825 0.3034 0.0
O254 O 0.69967 0.99364 0.28919 0.0
C255 C 0.64147 1.01149 0.36218 0.0
O256 O 0.67781 0.05858 0.31343 0.0
Co257 Co 0.60319 0.06206 0.33028 0.0
O258 O 0.63739 0.09558 0.32597 0.0
C259 C 0.61481 0.0426 0.26052 0.0
C260 C 0.6843 0.96638 0.29317 0.0
C261 C 0.66733 0.08795 0.31805 0.0
O262 O 0.64159 0.02642 0.26678 0.0
O263 O 0.59494 0.05482 0.28266 0.0
O264 O 0.67202 1.00306 0.3552 0.0
O265 O 0.62357 0.01973 0.33764 0.0
Co266 Co 0.79125 0.9228 0.0282 0.0
O267 O 0.74274 0.9173 0.02669 0.0
O268 O 0.76467 0.9625 0.0403 0.0
C269 C 0.8006 0.89788 0.97558 0.0
O270 O 0.83885 0.9438 0.03105 0.0
Co271 Co 0.84433 0.87332 0.0283 0.0
O272 O 0.87941 0.90601 0.03013 0.0
C273 C 0.80665 0.8802 0.09139 0.0
C274 C 0.73776 0.94763 0.0345 0.0
C275 C 0.87029 0.93579 0.03197 0.0
O276 O 0.79142 0.90523 0.07766 0.0
O277 O 0.82804 0.863 0.07485 0.0
O278 O 0.7925 0.92853 0.97899 0.0
O279 O 0.80394 0.88283 1.00386 0.0
Co280 Co 0.33252 0.67518 0.00562 0.0
O281 O 0.37679 0.6852 0.01586 0.0
O282 O 0.3515 0.63971 0.03049 0.0
C283 C 0.3409 0.69167 0.95345 0.0
O284 O 0.28826 0.65507 1.00019 0.0
Co285 Co 0.28149 0.72419 0.97496 0.0
O286 O 0.25049 0.688 0.97681 0.0
C287 C 0.2904 0.71937 0.04792 0.0
C288 C 0.37854 0.65601 0.02862 0.0
C289 C 0.25878 0.66131 0.99104 0.0
O290 O 0.31338 0.6971 0.04589 0.0
O291 O 0.27659 0.73321 0.02328 0.0
O292 O 0.34895 0.66187 0.96176 0.0
O293 O 0.32712 0.70971 0.97594 0.0
Co294 Co 0.16404 0.51077 0.81368 0.0
O295 O 0.15853 0.46594 0.8043 0.0
O296 O 0.20272 0.49459 0.7902 0.0
C297 C 0.14692 0.50483 0.86606 0.0
O298 O 0.17961 0.5562 0.81952 0.0
Co299 Co 0.10633 0.5566 0.83951 0.0
O300 O 0.13902 0.5916 0.83555 0.0
C301 C 0.11526 0.54187 0.76818 0.0
C302 C 0.18894 0.46643 0.79293 0.0
C303 C 0.1688 0.585 0.82622 0.0
O304 O 0.1425 0.52568 0.77236 0.0
O305 O 0.09642 0.55281 0.79182 0.0
O306 O 0.17758 0.49819 0.85771 0.0
O307 O 0.12772 0.51411 0.84288 0.0
Co308 Co 0.29394 0.42375 0.52901 0.0
O309 O 0.24516 0.4195 0.52794 0.0
O310 O 0.26863 0.46355 0.54267 0.0
C311 C 0.30244 0.4002 0.47554 0.0
O312 O 0.34163 0.44419 0.53161 0.0
Co313 Co 0.34646 0.37435 0.52757 0.0
O314 O 0.3821 0.40645 0.52926 0.0
C315 C 0.31034 0.38032 0.59158 0.0
C316 C 0.24121 0.44964 0.53692 0.0
C317 C 0.37306 0.43617 0.53176 0.0
O318 O 0.2944 0.40508 0.57816 0.0
O319 O 0.3319 0.36375 0.5746 0.0
O320 O 0.29472 0.43079 0.48004 0.0
O321 O 0.30589 0.38418 0.5033 0.0
Co322 Co 0.40337 0.59611 0.2869 0.0
O323 O 0.40647 0.64176 0.29074 0.0
O324 O 0.36944 0.61707 0.26155 0.0
C325 C 0.40715 0.58556 0.34051 0.0
O326 O 0.39322 0.54941 0.27863 0.0
Co327 Co 0.4636 0.55199 0.30865 0.0
O328 O 0.43285 0.51663 0.30038 0.0
C329 C 0.46657 0.58863 0.24582 0.0
C330 C 0.38044 0.64391 0.27314 0.0
C331 C 0.40568 0.52127 0.28593 0.0
O332 O 0.43549 0.59573 0.24825 0.0
O333 O 0.48302 0.57518 0.26897 0.0
O334 O 0.37859 0.59439 0.32944 0.0
O335 O 0.43205 0.58638 0.31982 0.0
Co336 Co 0.04243 0.05504 0.01289 0.0
C337 C 0.03955 0.09892 0.06822 0.0
Co338 Co 0.05531 0.03037 0.05804 0.0
C339 C 1.00346 0.06742 0.95883 0.0
C340 C 0.03516 0.10725 0.96548 0.0
N341 N 0.02936 0.07648 0.9757 0.0
N342 N 0.99133 0.09172 0.93992 0.0
C343 C 1.01177 0.11671 0.94316 0.0
H344 H 0.99196 0.04417 0.96249 0.0
H345 H 0.05342 0.12261 0.97551 0.0
C346 C 0.05784 0.98655 1.00243 0.0
N347 N 0.06718 1.00915 0.09571 0.0
C348 C 0.08377 0.02215 0.12002 0.0
C349 C 0.05749 0.9799 0.10753 0.0
N350 N 0.08428 1.00258 0.14689 0.0
C351 C 0.06771 0.97595 0.13938 0.0
C352 C 0.9876 0.02123 0.04443 0.0
O353 O 0.0503 0.01331 0.9873 0.0
O354 O 0.06419 0.98909 0.03301 0.0
O355 O 1.00937 0.0148 0.06571 0.0
O356 O 0.99599 0.041 0.02128 0.0
O357 O 0.04616 0.07216 0.08371 0.0
H358 H 0.04207 0.96362 0.09472 0.0
H359 H 0.09278 0.04672 0.11914 0.0
O360 O 0.03452 0.09631 0.03746 0.0
O361 O 0.08821 0.06964 1.00464 0.0
O362 O 0.10171 0.04571 0.05075 0.0
C363 C 0.10981 0.06474 0.02655 0.0
H364 H 1.00961 0.14035 0.93114 0.0
H365 H 0.06169 0.95619 0.1564 0.0
Co366 Co 0.30121 0.83091 0.28744 0.0
C367 C 0.3073 0.76638 0.27536 0.0
Co368 Co 0.26923 0.81675 0.24823 0.0
C369 C 0.31419 0.86375 0.34543 0.0
C370 C 0.35564 0.83294 0.33115 0.0
N371 N 0.32597 0.84426 0.3212 0.0
N372 N 0.33467 0.86448 0.37063 0.0
C373 C 0.36083 0.84502 0.36201 0.0
H374 H 0.28936 0.87435 0.34624 0.0
H375 H 0.37108 0.81501 0.31815 0.0
C376 C 0.26277 0.88132 0.26061 0.0
N377 N 0.24537 0.80257 0.2143 0.0
C378 C 0.25945 0.78202 0.19226 0.0
C379 C 0.21539 0.81049 0.20261 0.0
N380 N 0.24037 0.77724 0.16676 0.0
C381 C 0.21228 0.79485 0.17291 0.0
C382 C 0.23814 0.81264 0.30886 0.0
O383 O 0.28508 0.87403 0.28085 0.0
O384 O 0.25222 0.85936 0.24244 0.0
O385 O 0.23429 0.80805 0.27836 0.0
O386 O 0.26545 0.82299 0.31801 0.0
O387 O 0.28602 0.77385 0.25436 0.0
H388 H 0.19788 0.82774 0.21389 0.0
H389 H 0.28442 0.77214 0.19379 0.0
O390 O 0.31713 0.78825 0.29392 0.0
O391 O 0.33672 0.83787 0.25751 0.0
O392 O 0.30495 0.82519 0.21747 0.0
C393 C 0.33293 0.83297 0.22713 0.0
H394 H 0.38082 0.8381 0.37791 0.0
H395 H 0.19212 0.79793 0.15625 0.0
Co396 Co 0.52893 0.03914 0.53321 0.0
C397 C 0.54965 0.10298 0.51366 0.0
Co398 Co 0.57699 0.04863 0.55241 0.0
C399 C 0.46655 1.00944 0.53089 0.0
C400 C 0.47624 0.03987 0.48835 0.0
N401 N 0.48851 0.03027 0.51758 0.0
N402 N 0.44126 1.00538 0.51101 0.0
C403 C 0.44703 0.02453 0.48422 0.0
H404 H 0.46952 0.99664 0.55423 0.0
H405 H 0.48856 0.05567 0.47044 0.0
C406 C 0.55608 0.98461 0.57196 0.0
N407 N 0.61851 0.05772 0.56539 0.0
C408 C 0.64022 0.0729 0.54492 0.0
C409 C 0.635 0.05106 0.59308 0.0
N410 N 0.66957 0.07645 0.55836 0.0
C411 C 0.66661 0.06266 0.58883 0.0
C412 C 0.52645 0.0675 0.59444 0.0
O413 O 0.53248 0.99401 0.55355 0.0
O414 O 0.5788 1.00512 0.57585 0.0
O415 O 0.55763 0.06739 0.59013 0.0
O416 O 0.50899 0.0552 0.57272 0.0
O417 O 0.57483 0.09243 0.52908 0.0
H418 H 0.62485 0.03844 0.61467 0.0
H419 H 0.63447 0.08147 0.52033 0.0
O420 O 0.5255 0.08375 0.51303 0.0
O421 O 0.54861 0.0234 0.49389 0.0
O422 O 0.59661 0.02989 0.51479 0.0
C423 C 0.57978 0.02097 0.49124 0.0
H424 H 0.43224 0.02591 0.46252 0.0
H425 H 0.68584 0.06066 0.6066 0.0
Co426 Co 0.31707 0.30618 0.79462 0.0
C427 C 0.29957 0.322 0.72886 0.0
Co428 Co 0.27168 0.28249 0.78307 0.0
C429 C 0.37809 0.30973 0.82552 0.0
C430 C 0.36552 0.35519 0.80185 0.0
N431 N 0.35561 0.32427 0.80621 0.0
N432 N 0.40134 0.33036 0.83386 0.0
C433 C 0.39363 0.35912 0.81929 0.0
H434 H 0.37641 0.28496 0.8349 0.0
H435 H 0.35237 0.37395 0.78814 0.0
C436 C 0.28915 0.26677 0.84916 0.0
N437 N 0.23208 0.26614 0.77107 0.0
C438 C 0.20816 0.28556 0.75848 0.0
C439 C 0.22186 0.23553 0.76705 0.0
N440 N 0.1836 0.2687 0.74673 0.0
C441 C 0.192 0.23706 0.75149 0.0
C442 C 0.32627 0.24403 0.7696 0.0
O443 O 0.31134 0.28717 0.84053 0.0
O444 O 0.26817 0.26043 0.82744 0.0
O445 O 0.29518 0.24553 0.76663 0.0
O446 O 0.34046 0.26813 0.78139 0.0
O447 O 0.27533 0.30452 0.73852 0.0
H448 H 0.23606 0.21366 0.77305 0.0
H449 H 0.20993 0.31168 0.75523 0.0
O450 O 0.32255 0.32498 0.74926 0.0
O451 O 0.29409 0.34431 0.80725 0.0
O452 O 0.24841 0.31954 0.79952 0.0
C453 C 0.26297 0.34521 0.80637 0.0
H454 H 0.40687 0.38139 0.82178 0.0
H455 H 0.1785 0.21674 0.74284 0.0
Co456 Co 0.03669 0.02934 0.56109 0.0
C457 C 0.03376 0.04987 0.62399 0.0
Co458 Co 0.06858 0.07079 0.56777 0.0
C459 C 0.02479 0.96984 0.53177 0.0
C460 C 0.98581 0.98017 0.56749 0.0
N461 N 0.01357 0.99251 0.5533 0.0
N462 N 1.0055 0.94397 0.5317 0.0
C463 C 0.98091 0.94988 0.55433 0.0
H464 H 0.04781 0.9714 0.51737 0.0
H465 H 0.97076 0.99193 0.58674 0.0
C466 C 0.07185 0.0503 0.50456 0.0
N467 N 0.09204 0.10717 0.57485 0.0
C468 C 0.07886 0.13346 0.59022 0.0
C469 C 0.1215 0.11655 0.56192 0.0
N470 N 0.09829 0.15925 0.58686 0.0
C471 C 0.12525 0.14894 0.569 0.0
C472 C 0.10122 0.01352 0.57788 0.0
O473 O 0.0501 0.03125 0.51598 0.0
O474 O 0.08388 0.07069 0.52345 0.0
O475 O 0.10477 0.04406 0.57895 0.0
O476 O 0.0737 1.0027 0.57012 0.0
O477 O 0.0536 0.07071 0.61221 0.0
H478 H 0.13789 0.10164 0.54634 0.0
H479 H 0.05393 0.13458 0.6009 0.0
O480 O 0.02344 0.028 0.60562 0.0
O481 O 0.99981 0.05576 0.55278 0.0
O482 O 0.03153 0.0978 0.55661 0.0
C483 C 1.00329 0.08632 0.55265 0.0
H484 H 0.96133 0.9334 0.5611 0.0
H485 H 0.14509 0.1642 0.55999 0.0
Co486 Co 0.30357 0.80885 0.79344 0.0
C487 C 0.24094 0.78797 0.81631 0.0
Co488 Co 0.29346 0.76159 0.77279 0.0
C489 C 0.33271 0.87068 0.79395 0.0
C490 C 0.30813 0.85998 0.84049 0.0
N491 N 0.31398 0.84838 0.80975 0.0
N492 N 0.33943 0.89533 0.81371 0.0
C493 C 0.32373 0.88912 0.84294 0.0
H494 H 0.34206 0.86849 0.76864 0.0
H495 H 0.29467 0.84738 0.8602 0.0
C496 C 0.35613 0.78316 0.75052 0.0
N497 N 0.28223 0.72156 0.75793 0.0
C498 C 0.27009 0.69863 0.77876 0.0
C499 C 0.27619 0.71109 0.7274 0.0
N500 N 0.25617 0.67462 0.76285 0.0
C501 C 0.25955 0.68224 0.73043 0.0
C502 C 0.27325 0.81256 0.73373 0.0
O503 O 0.34616 0.80683 0.76861 0.0
O504 O 0.33692 0.75916 0.74833 0.0
O505 O 0.27466 0.78185 0.73667 0.0
O506 O 0.28408 0.82978 0.7565 0.0
O507 O 0.2498 0.76432 0.79755 0.0
H508 H 0.28099 0.72477 0.70474 0.0
H509 H 0.26814 0.70117 0.80536 0.0
O510 O 0.26113 0.81096 0.81833 0.0
O511 O 0.32342 0.78779 0.82992 0.0
O512 O 0.31277 0.74113 0.80847 0.0
C513 C 0.32505 0.7569 0.83113 0.0
H514 H 0.32486 0.90376 0.86483 0.0
H515 H 0.24893 0.66908 0.71069 0.0
Co516 Co 0.53955 0.03514 0.01997 0.0
C517 C 0.60676 0.01989 0.03343 0.0
Co518 Co 0.55868 0.06877 0.05507 0.0
C519 C 0.5006 0.01893 0.96761 0.0
C520 C 0.53076 0.97754 0.98086 0.0
N521 N 0.52268 1.00844 0.9895 0.0
N522 N 0.4947 0.99634 0.94533 0.0
C523 C 0.51395 0.97023 0.95303 0.0
H524 H 0.49151 0.04395 0.96577 0.0
H525 H 0.54921 0.96221 0.99257 0.0
C526 C 0.49119 0.08323 0.04167 0.0
N527 N 0.57521 0.0951 0.08595 0.0
C528 C 0.59447 0.08303 0.10972 0.0
C529 C 0.56514 0.12497 0.09618 0.0
N530 N 0.59576 0.10318 0.13518 0.0
C531 C 0.57739 0.12977 0.12698 0.0
C532 C 0.5666 0.09142 0.99211 0.0
O533 O 0.49625 0.05765 0.02474 0.0
O534 O 0.51548 0.09337 0.05744 0.0
O535 O 0.57334 0.09685 0.02172 0.0
O536 O 0.55199 0.06552 0.9854 0.0
O537 O 0.60151 0.04433 0.05211 0.0
H538 H 0.54705 0.14045 0.0841 0.0
H539 H 0.6029 0.05779 0.11099 0.0
O540 O 0.58301 0.01187 0.01571 0.0
O541 O 0.52659 1.00619 0.05369 0.0
O542 O 0.54371 0.04041 0.08971 0.0
C543 C 0.53019 0.01397 0.08345 0.0
H544 H 0.51749 0.94865 0.93819 0.0
H545 H 0.57004 0.14925 0.14364 0.0
Co546 Co 0.29327 0.27603 0.30245 0.0
C547 C 0.36155 0.29078 0.31099 0.0
Co548 Co 0.30719 0.32008 0.27608 0.0
C549 C 0.25651 0.21972 0.3225 0.0
C550 C 0.29259 0.23194 0.35706 0.0
N551 N 0.28161 0.23974 0.32678 0.0
N552 N 0.2513 0.19998 0.34902 0.0
C553 C 0.27402 0.20746 0.37079 0.0
H554 H 0.24143 0.22049 0.30099 0.0
H555 H 0.31122 0.24486 0.36947 0.0
C556 C 0.23909 0.3051 0.26747 0.0
N557 N 0.31843 0.3576 0.25391 0.0
C558 C 0.33952 0.37864 0.2657 0.0
C559 C 0.30392 0.37363 0.22871 0.0
N560 N 0.33774 0.40782 0.25031 0.0
C561 C 0.31583 0.40472 0.22644 0.0
C562 C 0.30976 0.26458 0.23356 0.0
O563 O 0.24656 0.28234 0.28809 0.0
O564 O 0.2613 0.32595 0.261 0.0
O565 O 0.31627 0.2948 0.23545 0.0
O566 O 0.30155 0.24992 0.26087 0.0
O567 O 0.35371 0.31401 0.29114 0.0
H568 H 0.28444 0.36422 0.21442 0.0
H569 H 0.3549 0.37293 0.28629 0.0
O570 O 0.33957 0.26953 0.31673 0.0
O571 O 0.28509 0.30193 0.34357 0.0
O572 O 0.2978 0.34627 0.31691 0.0
C573 C 0.29049 0.33235 0.34459 0.0
H574 H 0.27577 0.19743 0.39558 0.0
H575 H 0.30751 0.42404 0.20996 0.0
Co576 Co 0.54131 0.53435 0.06284 0.0
C577 C 0.53227 0.56614 0.12076 0.0
Co578 Co 0.56758 0.58058 0.06312 0.0
C579 C 0.54024 0.46828 0.04612 0.0
C580 C 0.49404 0.48164 0.07022 0.0
N581 N 0.524 0.49322 0.06142 0.0
N582 N 0.52172 0.44188 0.04423 0.0
C583 C 0.49257 0.44985 0.05959 0.0
H584 H 0.56497 0.46986 0.03516 0.0
H585 H 0.47412 0.49582 0.08204 0.0
C586 C 0.57706 0.54891 0.0051 0.0
N587 N 0.58565 0.62104 0.06257 0.0
C588 C 0.56972 0.64848 0.07276 0.0
C589 C 0.61371 0.631 0.04708 0.0
N590 N 0.58596 0.67542 0.06324 0.0
C591 C 0.61397 0.66449 0.04747 0.0
C592 C 0.60651 0.53095 0.08395 0.0
O593 O 0.55739 0.5291 0.01887 0.0
O594 O 0.58444 0.57425 0.02006 0.0
O595 O 0.60639 0.56155 0.07926 0.0
O596 O 0.58077 0.5154 0.0784 0.0
O597 O 0.55093 0.5867 0.10646 0.0
H598 H 0.63194 0.61511 0.03488 0.0
H599 H 0.54625 0.6484 0.08639 0.0
O600 O 0.52519 0.5402 0.10626 0.0
O601 O 0.50201 0.55357 0.04794 0.0
O602 O 0.52813 0.59962 0.04697 0.0
C603 C 0.50195 0.58417 0.04308 0.0
H604 H 0.47123 0.43459 0.06125 0.0
H605 H 0.6327 0.6796 0.03588 0.0
Co606 Co 0.8074 0.30906 0.30223 0.0
C607 C 0.74444 0.28795 0.32328 0.0
Co608 Co 0.79616 0.26401 0.27756 0.0
C609 C 0.83714 0.37 0.30621 0.0
C610 C 0.81396 0.35715 0.35283 0.0
N611 N 0.81919 0.34682 0.32153 0.0
N612 N 0.84387 0.39405 0.32664 0.0
C613 C 0.82911 0.38653 0.35601 0.0
H614 H 0.84551 0.36917 0.2805 0.0
H615 H 0.8007 0.34385 0.37218 0.0
C616 C 0.85878 0.28549 0.25619 0.0
N617 N 0.7834 0.22609 0.25905 0.0
C618 C 0.77123 0.20145 0.27765 0.0
C619 C 0.77601 0.21922 0.22775 0.0
N620 N 0.75612 0.17977 0.25963 0.0
C621 C 0.75865 0.19076 0.22813 0.0
C622 C 0.77575 0.31906 0.24414 0.0
O623 O 0.84974 0.3079 0.27634 0.0
O624 O 0.83889 0.26237 0.25242 0.0
O625 O 0.77719 0.28825 0.24374 0.0
O626 O 0.78771 0.33377 0.268 0.0
O627 O 0.75325 0.26581 0.30274 0.0
H628 H 0.78032 0.23518 0.20658 0.0
H629 H 0.77011 0.20121 0.30442 0.0
O630 O 0.76506 0.31015 0.32783 0.0
O631 O 0.82741 0.28429 0.33632 0.0
O632 O 0.81548 0.23973 0.31124 0.0
C633 C 0.82848 0.25341 0.33493 0.0
H634 H 0.83023 0.40064 0.37826 0.0
H635 H 0.74696 0.1802 0.20742 0.0
Co636 Co 0.04732 0.54077 0.51525 0.0
C637 C 0.11138 0.52352 0.53574 0.0
Co638 Co 0.05981 0.56944 0.55729 0.0
C639 C 0.02157 0.5311 0.45377 0.0
C640 C 0.03062 0.4848 0.47719 0.0
N641 N 0.03458 0.51715 0.48056 0.0
N642 N 1.00946 0.50913 0.43395 0.0
C643 C 0.01474 0.47977 0.4482 0.0
H644 H 0.01933 0.55717 0.44958 0.0
H645 H 0.03744 0.46632 0.49524 0.0
C646 C 0.99493 0.58539 0.53687 0.0
N647 N 0.07194 0.59273 0.59234 0.0
C648 C 0.08888 0.57951 0.61722 0.0
C649 C 0.06251 0.6229 0.60231 0.0
N650 N 0.08988 0.59965 0.64271 0.0
C651 C 0.07312 0.62701 0.63386 0.0
C652 C 0.07709 0.59852 0.49802 0.0
O653 O 1.0037 0.56343 0.51617 0.0
O654 O 0.01614 0.59293 0.55775 0.0
O655 O 0.07733 0.60103 0.52909 0.0
O656 O 0.06472 0.57363 0.48576 0.0
O657 O 0.1033 0.54574 0.55649 0.0
H658 H 0.0468 0.63965 0.5887 0.0
H659 H 0.09716 0.55419 0.61826 0.0
O660 O 0.09031 0.51729 0.51429 0.0
O661 O 0.03024 0.50921 0.54406 0.0
O662 O 0.04223 0.53766 0.58677 0.0
C663 C 0.03004 0.51256 0.57504 0.0
H664 H 1.00718 0.4568 0.4387 0.0
H665 H 0.06678 0.64719 0.64999 0.0
Co666 Co 0.81326 0.80679 0.29443 0.0
C667 C 0.7961 0.82208 0.22848 0.0
Co668 Co 0.76798 0.78276 0.28293 0.0
C669 C 0.87417 0.81005 0.32605 0.0
C670 C 0.86499 0.85299 0.29669 0.0
N671 N 0.85266 0.82371 0.30508 0.0
N672 N 0.89924 0.82969 0.33147 0.0
C673 C 0.89382 0.85675 0.31298 0.0
H674 H 0.87121 0.78635 0.33773 0.0
H675 H 0.85315 0.87089 0.2808 0.0
C676 C 0.78614 0.76757 0.34919 0.0
N677 N 0.7273 0.76779 0.27277 0.0
C678 C 0.70625 0.78669 0.25553 0.0
C679 C 0.70933 0.74243 0.28384 0.0
N680 N 0.67575 0.77493 0.25564 0.0
C681 C 0.67739 0.74674 0.27319 0.0
C682 C 0.8206 0.74401 0.26852 0.0
O683 O 0.80821 0.78786 0.3402 0.0
O684 O 0.76482 0.76132 0.3278 0.0
O685 O 0.78943 0.74536 0.26664 0.0
O686 O 0.83533 0.7679 0.28026 0.0
O687 O 0.77206 0.80414 0.23771 0.0
H688 H 0.71824 0.72319 0.30007 0.0
H689 H 0.71277 0.80983 0.24436 0.0
O690 O 0.81837 0.82563 0.24943 0.0
O691 O 0.79125 0.84568 0.30772 0.0
O692 O 0.74599 0.82036 0.29906 0.0
C693 C 0.76006 0.84599 0.30682 0.0
H694 H 0.90876 0.87818 0.31242 0.0
H695 H 0.65678 0.73133 0.27939 0.0
Co696 Co 0.80334 0.32119 0.80203 0.0
C697 C 0.81259 0.25815 0.78378 0.0
Co698 Co 0.77532 0.30931 0.7589 0.0
C699 C 0.81055 0.35102 0.86292 0.0
C700 C 0.85334 0.32096 0.85128 0.0
N701 N 0.82437 0.33195 0.83928 0.0
N702 N 0.82928 0.35211 0.88936 0.0
C703 C 0.85617 0.33302 0.8826 0.0
H704 H 0.78589 0.36187 0.86194 0.0
H705 H 0.8703 0.30393 0.83893 0.0
C706 C 0.76756 0.37301 0.77551 0.0
N707 N 0.75452 0.29901 0.7213 0.0
C708 C 0.76825 0.27886 0.6986 0.0
C709 C 0.72858 0.31365 0.70661 0.0
N710 N 0.75334 0.28143 0.66961 0.0
C711 C 0.72782 0.30284 0.67463 0.0
C712 C 0.73909 0.30051 0.81631 0.0
O713 O 0.78671 0.36436 0.79824 0.0
O714 O 0.75933 0.35231 0.75487 0.0
O715 O 0.73757 0.29883 0.78511 0.0
O716 O 0.76556 0.30972 0.82854 0.0
O717 O 0.7914 0.26622 0.76285 0.0
H718 H 0.71283 0.33265 0.71749 0.0
H719 H 0.78993 0.2637 0.70291 0.0
O720 O 0.82041 0.27845 0.80512 0.0
O721 O 0.84064 0.33183 0.77633 0.0
O722 O 0.81398 0.31943 0.73248 0.0
C723 C 0.84042 0.32785 0.7454 0.0
H724 H 0.87536 0.32687 0.89971 0.0
H725 H 0.71126 0.31173 0.65591 0.0
Co726 Co 0.79097 0.7741 0.80212 0.0
C727 C 0.85942 0.7895 0.81142 0.0
Co728 Co 0.80523 0.81858 0.7768 0.0
C729 C 0.75257 0.71879 0.82368 0.0
C730 C 0.79291 0.72729 0.85462 0.0
N731 N 0.77925 0.73732 0.82612 0.0
N732 N 0.74933 0.69786 0.8495 0.0
C733 C 0.77486 0.70267 0.86877 0.0
H734 H 0.73547 0.72095 0.80382 0.0
H735 H 0.81344 0.73844 0.86567 0.0
C736 C 0.73724 0.80361 0.76702 0.0
N737 N 0.81617 0.85629 0.75529 0.0
C738 C 0.834 0.87886 0.76925 0.0
C739 C 0.80404 0.87087 0.72801 0.0
N740 N 0.8323 0.90754 0.75302 0.0
C741 C 0.81411 0.90267 0.7265 0.0
C742 C 0.80877 0.76377 0.73336 0.0
O743 O 0.74419 0.78064 0.78759 0.0
O744 O 0.75974 0.82421 0.76094 0.0
O745 O 0.81546 0.79385 0.73618 0.0
O746 O 0.79957 0.74866 0.7601 0.0
O747 O 0.85139 0.8132 0.79227 0.0
H748 H 0.7873 0.85985 0.71161 0.0
H749 H 0.84681 0.87464 0.79194 0.0
O750 O 0.83766 0.76781 0.8164 0.0
O751 O 0.7826 0.79909 0.84353 0.0
O752 O 0.79484 0.84411 0.81791 0.0
C753 C 0.7878 0.8295 0.84526 0.0
H754 H 0.77936 0.69005 0.89195 0.0
H755 H 0.80708 0.92117 0.70853 0.0
Co756 Co 0.54462 0.55521 0.51253 0.0
C757 C 0.54106 0.59987 0.56683 0.0
Co758 Co 0.55747 0.5313 0.55802 0.0
C759 C 0.50838 0.56392 0.45657 0.0
C760 C 0.53679 0.60615 0.46353 0.0
N761 N 0.5323 0.57542 0.47461 0.0
N762 N 0.49648 0.58641 0.43552 0.0
C763 C 0.51453 0.61306 0.43933 0.0
H764 H 0.49754 0.54055 0.46144 0.0
H765 H 0.55294 0.6232 0.47429 0.0
C766 C 0.56046 0.48679 0.50327 0.0
N767 N 0.5685 0.51068 0.59635 0.0
C768 C 0.58226 0.52425 0.62218 0.0
C769 C 0.55968 0.48075 0.60704 0.0
N770 N 0.58156 0.50438 0.64884 0.0
C771 C 0.56762 0.47684 0.63958 0.0
C772 C 0.48982 0.52193 0.54382 0.0
O773 O 0.55262 0.51327 0.48797 0.0
O774 O 0.56699 0.48965 0.53376 0.0
O775 O 0.51156 0.51562 0.56516 0.0
O776 O 0.49817 0.54166 0.52064 0.0
O777 O 0.54758 0.57336 0.58277 0.0
H778 H 0.54631 0.46381 0.59285 0.0
H779 H 0.59029 0.54916 0.6223 0.0
O780 O 0.53654 0.59691 0.53602 0.0
O781 O 0.59027 0.56925 0.50439 0.0
O782 O 0.6039 0.54688 0.55122 0.0
C783 C 0.61186 0.56525 0.52642 0.0
H784 H 0.51065 0.63636 0.42697 0.0
H785 H 0.56206 0.45621 0.65564 0.0
Co786 Co 0.02901 0.53592 0.0297 0.0
C787 C 0.04771 0.60029 0.00997 0.0
Co788 Co 0.07482 0.5479 0.05228 0.0
C789 C 0.96864 0.50338 0.02509 0.0
C790 C 0.9796 0.5318 0.98141 0.0
N791 N 0.9905 0.52428 0.01176 0.0
N792 N 0.9447 0.49731 1.00423 0.0
C793 C 0.9512 0.51521 0.97672 0.0
H794 H 0.97043 0.4924 0.04949 0.0
H795 H 0.99212 0.54738 0.96345 0.0
C796 C 0.0557 0.48345 0.07192 0.0
N797 N 0.11475 0.56002 0.06748 0.0
C798 C 0.13695 0.57384 0.04648 0.0
C799 C 0.12828 0.56093 0.09739 0.0
N800 N 0.16353 0.58354 0.0616 0.0
C801 C 0.15859 0.57574 0.0938 0.0
C802 C 0.02054 0.56578 0.08984 0.0
O803 O 0.03329 0.49178 0.0517 0.0
O804 O 0.07713 0.50496 0.07732 0.0
O805 O 0.05184 0.56702 0.088 0.0
O806 O 1.00559 0.5522 0.06707 0.0
O807 O 0.07213 0.59114 0.02731 0.0
H808 H 0.11638 0.55269 0.12029 0.0
H809 H 0.13312 0.57818 0.02043 0.0
O810 O 0.02485 0.57975 0.00785 0.0
O811 O 0.052 0.5197 0.99254 0.0
O812 O 0.09786 0.52848 0.01666 0.0
C813 C 0.0832 0.5179 0.99238 0.0
H814 H 0.93715 0.51534 0.95451 0.0
H815 H 0.17479 0.58168 0.11331 0.0
C816 C 0.04874 0.19322 0.07585 0.0
C817 C 0.05089 0.19973 0.11004 0.0
C818 C 0.04387 0.16148 0.06335 0.0
C819 C 0.04154 0.1332 0.08388 0.0
H820 H 0.05112 0.21314 0.05811 0.0
H821 H 0.04291 0.15906 0.03682 0.0
S822 S 0.04629 0.13512 0.17561 0.0
N823 N 0.04999 0.1738 0.16441 0.0
N824 N 0.04218 0.11471 0.14124 0.0
C825 C 0.04362 0.13915 0.11828 0.0
C826 C 0.04785 0.17189 0.13115 0.0
C827 C 0.15513 0.78692 0.34385 0.0
C828 C 0.15546 0.79608 0.37712 0.0
C829 C 0.18225 0.79184 0.32232 0.0
C830 C 0.2109 0.80614 0.33313 0.0
H831 H 0.13344 0.7764 0.33402 0.0
H832 H 0.18041 0.78478 0.29681 0.0
S833 S 0.22506 0.833 0.41847 0.0
N834 N 0.18726 0.81893 0.42043 0.0
N835 N 0.23864 0.82819 0.37982 0.0
C836 C 0.21212 0.81444 0.36669 0.0
C837 C 0.18431 0.80936 0.38874 0.0
C838 C 0.5453 0.89071 0.58821 0.0
C839 C 0.55659 0.88456 0.62057 0.0
C840 C 0.54483 0.92257 0.57309 0.0
C841 C 0.55679 0.95035 0.58871 0.0
H842 H 0.53584 0.87077 0.57461 0.0
H843 H 0.53525 0.92535 0.54857 0.0
S844 S 0.5897 0.94835 0.67329 0.0
N845 N 0.57972 0.91019 0.66762 0.0
N846 N 0.58059 0.96854 0.63901 0.0
C847 C 0.56871 0.94438 0.62078 0.0
C848 C 0.56814 0.9122 0.63661 0.0
C849 C 0.45217 0.33535 0.90872 0.0
C850 C 0.47292 0.30747 0.90559 0.0
C851 C 0.42938 0.34341 0.88451 0.0
C852 C 0.42639 0.32343 0.85703 0.0
H853 H 0.4541 0.35131 0.92954 0.0
H854 H 0.41356 0.36496 0.88751 0.0
S855 S 0.47419 0.24736 0.83822 0.0
N856 N 0.48878 0.25972 0.87325 0.0
N857 N 0.44536 0.27466 0.82823 0.0
C858 C 0.44664 0.29534 0.85395 0.0
C859 C 0.4701 0.28741 0.87816 0.0
C860 C 0.03705 0.8931 0.46166 0.0
C861 C 0.04423 0.86305 0.47732 0.0
C862 C 0.02198 0.91881 0.47925 0.0
C863 C 0.01329 0.91537 0.51301 0.0
H864 H 0.04383 0.89717 0.43579 0.0
H865 H 0.01825 0.94211 0.46678 0.0
S866 S 0.02568 0.8418 0.56553 0.0
N867 N 0.0405 0.83108 0.52858 0.0
N868 N 1.01207 0.87991 0.56146 0.0
C869 C 0.01903 0.88524 0.52875 0.0
C870 C 0.03459 0.85895 0.51094 0.0
C871 C 0.44592 0.76117 0.71964 0.0
C872 C 0.45573 0.78892 0.70092 0.0
C873 C 0.41353 0.75874 0.7344 0.0
C874 C 0.38964 0.78444 0.73226 0.0
H875 H 0.46338 0.74095 0.7227 0.0
H876 H 0.4075 0.7369 0.74846 0.0
S877 S 0.40262 0.86285 0.68711 0.0
N878 N 0.43814 0.84254 0.68116 0.0
N879 N 0.37875 0.8388 0.71006 0.0
C880 C 0.39934 0.8124 0.71397 0.0
C881 C 0.43181 0.81441 0.69806 0.0
C882 C 0.59126 0.17254 0.95977 0.0
C883 C 0.56003 0.187 0.9545 0.0
C884 C 0.59445 0.13924 0.96758 0.0
C885 C 0.56664 0.11951 0.96934 0.0
H886 H 0.6127 0.18753 0.96115 0.0
H887 H 0.61812 0.12958 0.9754 0.0
S888 S 0.48058 0.1451 0.95165 0.0
N889 N 0.50166 0.17882 0.94744 0.0
N890 N 0.50786 0.11592 0.96069 0.0
C891 C 0.53608 0.13304 0.96004 0.0
C892 C 0.53267 0.16703 0.95312 0.0
C893 C 0.17815 0.3218 0.19639 0.0
C894 C 0.15058 0.30197 0.20344 0.0
C895 C 0.20522 0.32354 0.21767 0.0
C896 C 0.20729 0.30506 0.24745 0.0
H897 H 0.17904 0.33627 0.17376 0.0
H898 H 0.22537 0.33902 0.20997 0.0
S899 S 0.14226 0.24866 0.2784 0.0
N900 N 0.12743 0.26353 0.24359 0.0
N901 N 0.1782 0.26586 0.28261 0.0
C902 C 0.17983 0.28515 0.25507 0.0
C903 C 0.15175 0.2839 0.23357 0.0
C904 C 0.07402 0.02501 0.23548 0.0
C905 C 0.10388 0.04029 0.24094 0.0
C906 C 0.06834 1.01139 0.20497 0.0
C907 C 0.09214 0.01299 0.17895 0.0
H908 H 0.05523 0.02282 0.25511 0.0
H909 H 0.0449 1.00019 0.2014 0.0
S910 S 0.17379 0.0508 0.18005 0.0
N911 N 0.15738 0.05648 0.21758 0.0
N912 N 0.14612 0.03108 0.15991 0.0
C913 C 0.12185 0.02842 0.18384 0.0
C914 C 0.12786 0.04203 0.21495 0.0
C915 C 0.3063 0.85804 0.45889 0.0
C916 C 0.28961 0.88823 0.46377 0.0
C917 C 0.32338 0.85125 0.42904 0.0
C918 C 0.32405 0.87429 0.40307 0.0
H919 H 0.30584 0.83929 0.47801 0.0
H920 H 0.33464 0.82723 0.42558 0.0
S921 S 0.28574 0.95718 0.40329 0.0
N922 N 0.27603 0.94183 0.44026 0.0
N923 N 0.30793 0.92845 0.38397 0.0
C924 C 0.30827 0.90473 0.40779 0.0
C925 C 0.29102 0.91182 0.43816 0.0
C926 C 0.46584 0.07107 0.66694 0.0
C927 C 0.48613 0.08018 0.69228 0.0
C928 C 0.47824 0.06975 0.63431 0.0
C929 C 0.51118 0.07767 0.62628 0.0
H930 H 0.44132 0.06218 0.67269 0.0
H931 H 0.4627 0.06008 0.61586 0.0
S932 S 0.57077 0.11155 0.68298 0.0
N933 N 0.538 0.10322 0.70682 0.0
N934 N 0.56137 0.10144 0.64527 0.0
C935 C 0.53016 0.09079 0.65089 0.0
C936 C 0.5176 0.09183 0.68407 0.0
C937 C 0.2784 0.20107 0.92009 0.0
C938 C 0.28995 0.21572 0.94878 0.0
C939 C 0.27725 0.21776 0.88876 0.0
C940 C 0.2887 0.24985 0.88363 0.0
H941 H 0.26988 0.17634 0.92186 0.0
H942 H 0.268 0.20493 0.86806 0.0
S943 S 0.32265 0.29937 0.94982 0.0
N944 N 0.31313 0.26496 0.96916 0.0
N945 N 0.31261 0.29515 0.911 0.0
C946 C 0.30072 0.26458 0.91203 0.0
C947 C 0.30089 0.24798 0.94414 0.0
C948 C 0.13434 0.04557 0.43333 0.0
C949 C 0.11658 0.03094 0.40882 0.0
C950 C 0.11912 0.05312 0.46391 0.0
C951 C 0.08592 0.04564 0.47101 0.0
H952 H 0.15992 0.05179 0.42864 0.0
H953 H 0.13372 0.0641 0.48237 0.0
S954 S 0.02917 1.00682 0.41485 0.0
N955 N 0.06437 1.00939 0.39312 0.0
N956 N 0.03583 0.0227 0.4511 0.0
C957 C 0.06799 0.03087 0.44664 0.0
C958 C 0.08334 0.02374 0.41535 0.0
C959 C 0.28006 0.86854 0.65983 0.0
C960 C 0.27135 0.84803 0.63439 0.0
C961 C 0.27762 0.85812 0.69284 0.0
C962 C 0.266 0.82703 0.70126 0.0
H963 H 0.29062 0.89199 0.65408 0.0
H964 H 0.28703 0.8736 0.71149 0.0
S965 S 0.23269 0.76777 0.6438 0.0
N966 N 0.24597 0.79782 0.61964 0.0
N967 N 0.24007 0.77844 0.68188 0.0
C968 C 0.25394 0.80783 0.67613 0.0
C969 C 0.25711 0.81821 0.64255 0.0
C970 C 0.43743 0.03347 0.88551 0.0
C971 C 0.45961 0.04361 0.86005 0.0
C972 C 0.44861 0.01483 0.91233 0.0
C973 C 0.48201 1.00519 0.91406 0.0
H974 H 0.41149 0.0406 0.88518 0.0
H975 H 0.43149 1.00928 0.93273 0.0
S976 S 0.55006 0.02532 0.85443 0.0
N977 N 0.5168 0.04272 0.83872 0.0
N978 N 0.53704 1.00675 0.88878 0.0
C979 C 0.50411 0.01402 0.88832 0.0
C980 C 0.4931 0.03357 0.86143 0.0
C981 C 0.30021 0.25609 0.13849 0.0
C982 C 0.29739 0.22238 0.13248 0.0
C983 C 0.30548 0.26871 0.17037 0.0
C984 C 0.30757 0.24874 0.19919 0.0
H985 H 0.29802 0.27334 0.11809 0.0
H986 H 0.30687 0.29488 0.17248 0.0
S987 S 0.30156 0.1584 0.19853 0.0
N988 N 0.29769 0.16903 0.15925 0.0
N989 N 0.30627 0.19248 0.21876 0.0
C990 C 0.30494 0.21482 0.19372 0.0
C991 C 0.3003 0.20182 0.16081 0.0
C992 C 0.17095 0.13508 0.00816 0.0
C993 C 0.19795 0.12913 0.02896 0.0
C994 C 0.14403 0.11365 0.00656 0.0
C995 C 0.14154 0.08487 0.02623 0.0
H996 H 0.17037 0.15697 0.99286 0.0
H997 H 0.12427 0.12047 0.99033 0.0
S998 S 0.20491 0.0572 0.08567 0.0
N999 N 0.22007 0.09119 0.06968 0.0
N1000 N 0.16956 0.05197 0.06771 0.0
C1001 C 0.16843 0.07841 0.04716 0.0
C1002 C 0.19637 0.10001 0.04821 0.0
C1003 C 0.66436 0.45882 0.09411 0.0
C1004 C 0.6953 0.47224 0.08698 0.0
C1005 C 0.63583 0.47861 0.09612 0.0
C1006 C 0.63725 0.51248 0.09069 0.0
H1007 H 0.6619 0.43268 0.09658 0.0
H1008 H 0.61232 0.46693 0.09992 0.0
S1009 S 0.71306 0.55997 0.07605 0.0
N1010 N 0.72645 0.52167 0.07848 0.0
N1011 N 0.67256 0.55903 0.0819 0.0
C1012 C 0.66838 0.52652 0.08646 0.0
C1013 C 0.69754 0.50631 0.08462 0.0
C1014 C 0.87274 0.47908 0.31393 0.0
C1015 C 0.90425 0.47394 0.29863 0.0
C1016 C 0.8534 0.45278 0.32409 0.0
C1017 C 0.86478 0.4207 0.31865 0.0
H1018 H 0.86319 0.50357 0.31856 0.0
H1019 H 0.82918 0.45745 0.33559 0.0
S1020 S 0.94544 0.39406 0.2804 0.0
N1021 N 0.94612 0.43425 0.27928 0.0
N1022 N 0.90934 0.38488 0.29792 0.0
C1023 C 0.89617 0.41518 0.30358 0.0
C1024 C 0.91606 0.44183 0.2937 0.0
C1025 C 0.92103 0.64797 0.54749 0.0
C1026 C 0.8935 0.63126 0.53656 0.0
C1027 C 0.95331 0.6331 0.54816 0.0
C1028 C 0.96017 0.60106 0.53684 0.0
H1029 H 0.91753 0.67267 0.55615 0.0
H1030 H 0.97322 0.64711 0.55717 0.0
S1031 S 0.89739 0.5469 0.50444 0.0
N1032 N 0.87598 0.58053 0.51397 0.0
N1033 N 0.93589 0.55354 0.51378 0.0
C1034 C 0.93292 0.58439 0.52532 0.0
C1035 C 0.9 0.59914 0.52557 0.0
C1036 C 0.16861 0.16231 0.34414 0.0
C1037 C 0.17487 0.13102 0.35731 0.0
C1038 C 0.19352 0.18522 0.34239 0.0
C1039 C 0.22515 0.17751 0.35403 0.0
H1040 H 0.14518 0.16836 0.33319 0.0
H1041 H 0.18836 0.20881 0.33109 0.0
S1042 S 0.25238 0.09991 0.39389 0.0
N1043 N 0.21361 0.09433 0.38482 0.0
N1044 N 0.2605 0.13735 0.38125 0.0
C1045 C 0.23089 0.14703 0.36918 0.0
C1046 C 0.20566 0.12376 0.37089 0.0
C1047 C 0.39925 0.9276 0.53305 0.0
C1048 C 0.36619 0.93573 0.52681 0.0
C1049 C 0.42373 0.95063 0.52791 0.0
C1050 C 0.41589 0.98211 0.51575 0.0
H1051 H 0.40607 0.90362 0.54258 0.0
H1052 H 0.44902 0.94374 0.53319 0.0
S1053 S 0.33328 0.01448 0.49363 0.0
N1054 N 0.32695 0.97676 0.50659 0.0
N1055 N 0.37325 0.01991 0.49676 0.0
C1056 C 0.3831 0.99019 0.50863 0.0
C1057 C 0.35813 0.96699 0.51425 0.0
C1058 C 0.84049 0.65416 0.26196 0.0
C1059 C 0.87519 0.65332 0.26021 0.0
C1060 C 0.82272 0.68386 0.26236 0.0
C1061 C 0.83916 0.71357 0.26107 0.0
H1062 H 0.827 0.63186 0.26494 0.0
H1063 H 0.79607 0.68346 0.26573 0.0
S1064 S 0.92942 0.7243 0.2493 0.0
N1065 N 0.92514 0.68449 0.25197 0.0
N1066 N 0.89165 0.74036 0.25292 0.0
C1067 C 0.87368 0.71299 0.25642 0.0
C1068 C 0.89175 0.6828 0.25594 0.0
C1069 C 0.69894 0.43612 0.77436 0.0
C1070 C 0.71242 0.46186 0.79112 0.0
C1071 C 0.71808 0.40826 0.76674 0.0
C1072 C 0.75096 0.4051 0.77649 0.0
H1073 H 0.67313 0.43702 0.76819 0.0
H1074 H 0.70632 0.38823 0.75525 0.0
S1075 S 0.79849 0.46705 0.81811 0.0
N1076 N 0.76125 0.48393 0.8146 0.0
N1077 N 0.79708 0.43091 0.80107 0.0
C1078 C 0.76527 0.43145 0.79151 0.0
C1079 C 0.74598 0.4601 0.79864 0.0
C1080 C 0.05125 0.91767 0.93596 0.0
C1081 C 0.04868 0.88791 0.95434 0.0
C1082 C 0.05438 0.9488 0.95114 0.0
C1083 C 0.056 0.95256 0.98589 0.0
H1084 H 0.05061 0.91706 0.90927 0.0
H1085 H 0.05566 0.97023 0.93524 0.0
S1086 S 0.05019 0.8831 0.04625 0.0
N1087 N 0.04759 0.8654 0.01017 0.0
N1088 N 0.05415 0.92234 0.03803 0.0
C1089 C 0.0536 0.92295 1.00451 0.0
C1090 C 0.04982 0.89139 0.9891 0.0
C1091 C 0.93142 0.31553 0.72498 0.0
C1092 C 0.93384 0.32072 0.69061 0.0
C1093 C 0.90119 0.3191 0.7424 0.0
C1094 C 0.87197 0.32716 0.72609 0.0
H1095 H 0.95321 0.30977 0.73888 0.0
H1096 H 0.90077 0.31522 0.76894 0.0
S1097 S 0.86461 0.34333 0.63632 0.0
N1098 N 0.90428 0.3346 0.64072 0.0
N1099 N 0.84706 0.34024 0.67371 0.0
C1100 C 0.87373 0.33176 0.69165 0.0
C1101 C 0.90475 0.3287 0.67385 0.0
C1102 C 0.51469 0.18538 0.47774 0.0
C1103 C 0.54264 0.20381 0.46799 0.0
C1104 C 0.51724 0.15317 0.49137 0.0
C1105 C 0.54799 0.13729 0.49732 0.0
H1106 H 0.49019 0.19615 0.47506 0.0
H1107 H 0.49461 0.14093 0.49817 0.0
S1108 S 0.62947 0.17384 0.47661 0.0
N1109 N 0.6026 0.20252 0.46507 0.0
N1110 N 0.60748 0.14324 0.49144 0.0
C1111 C 0.57628 0.1553 0.48757 0.0
C1112 C 0.57363 0.18793 0.47283 0.0
C1113 C 0.62397 0.84276 0.2198 0.0
C1114 C 0.60069 0.82593 0.20271 0.0
C1115 C 0.64688 0.82587 0.23904 0.0
C1116 C 0.64793 0.7915 0.24113 0.0
H1117 H 0.62498 0.86906 0.21767 0.0
H1118 H 0.66477 0.83991 0.25134 0.0
S1119 S 0.59146 0.73635 0.20113 0.0
N1120 N 0.57871 0.77332 0.18988 0.0
N1121 N 0.62283 0.74147 0.22517 0.0
C1122 C 0.62382 0.77449 0.22518 0.0
C1123 C 0.60002 0.79176 0.20605 0.0
C1124 C 0.07633 0.24713 0.57238 0.0
C1125 C 0.05818 0.25538 0.60161 0.0
C1126 C 0.09061 0.21602 0.56821 0.0
C1127 C 0.08721 0.19204 0.59308 0.0
H1128 H 0.07993 0.26497 0.55264 0.0
H1129 H 0.10375 0.21043 0.5451 0.0
S1130 S 0.04333 0.20083 0.67457 0.0
N1131 N 0.03825 0.23672 0.65616 0.0
N1132 N 0.06524 0.17819 0.64796 0.0
C1133 C 0.0692 0.19974 0.62234 0.0
C1134 C 0.05455 0.23136 0.62666 0.0
C1135 C 0.67117 0.30897 0.38508 0.0
C1136 C 0.64468 0.29072 0.37425 0.0
C1137 C 0.70294 0.30803 0.3687 0.0
C1138 C 0.71036 0.2882 0.34095 0.0
H1139 H 0.66716 0.32482 0.40604 0.0
H1140 H 0.72192 0.32304 0.378 0.0
S1141 S 0.65052 0.23407 0.30344 0.0
N1142 N 0.62881 0.25149 0.33405 0.0
N1143 N 0.6879 0.2489 0.3043 0.0
C1144 C 0.68426 0.26922 0.3304 0.0
C1145 C 0.65178 0.2707 0.34666 0.0
C1146 C 0.488 0.94417 0.12508 0.0
C1147 C 0.51203 0.93284 0.14685 0.0
C1148 C 0.49254 0.97274 0.1066 0.0
C1149 C 0.52093 0.99095 0.10991 0.0
H1150 H 0.46751 0.92903 0.11958 0.0
H1151 H 0.47512 0.9792 0.08774 0.0
S1152 S 0.58751 0.97475 0.16865 0.0
N1153 N 0.56264 0.94378 0.17423 0.0
N1154 N 0.57059 0.99872 0.14038 0.0
C1155 C 0.54293 0.98211 0.13471 0.0
C1156 C 0.53863 0.95253 0.15302 0.0
C1157 C 0.94399 0.81589 0.84605 0.0
C1158 C 0.94946 0.79444 0.87324 0.0
C1159 C 0.91587 0.81363 0.82576 0.0
C1160 C 0.89169 0.78939 0.83089 0.0
H1161 H 0.96082 0.83555 0.84118 0.0
H1162 H 0.9127 0.83167 0.80623 0.0
S1163 S 0.89532 0.72578 0.89755 0.0
N1164 N 0.92818 0.74751 0.90324 0.0
N1165 N 0.87734 0.74242 0.86522 0.0
C1166 C 0.89781 0.76715 0.85731 0.0
C1167 C 0.92588 0.76991 0.87827 0.0
C1168 C 0.9263 0.0587 0.88833 0.0
C1169 C 0.91112 0.08731 0.87635 0.0
C1170 C 0.9516 0.06025 0.9104 0.0
C1171 C 0.96153 0.09042 0.92203 0.0
H1172 H 0.92222 0.0356 0.87683 0.0
H1173 H 0.96524 0.0379 0.91584 0.0
S1174 S 0.92006 0.17073 0.90685 0.0
N1175 N 0.90128 0.14534 0.88313 0.0
N1176 N 0.94762 0.14836 0.92686 0.0
C1177 C 0.94231 0.11849 0.9146 0.0
C1178 C 0.91684 0.1168 0.89158 0.0
C1179 C 0.75311 0.2471 0.58468 0.0
C1180 C 0.7868 0.24 0.57784 0.0
C1181 C 0.74239 0.26051 0.61481 0.0
C1182 C 0.76504 0.26763 0.63885 0.0
H1183 H 0.73486 0.24172 0.56684 0.0
H1184 H 0.71617 0.265 0.6195 0.0
S1185 S 0.85655 0.25564 0.63107 0.0
N1186 N 0.84288 0.24158 0.5964 0.0
N1187 N 0.82333 0.26854 0.65243 0.0
C1188 C 0.79906 0.26123 0.63178 0.0
C1189 C 0.80978 0.24693 0.6014 0.0
C1190 C 0.59242 1.01083 0.39997 0.0
C1191 C 0.627 1.01042 0.39572 0.0
C1192 C 0.57731 0.01186 0.43134 0.0
C1193 C 0.5963 0.01288 0.45952 0.0
H1194 H 0.57676 1.01101 0.37887 0.0
H1195 H 0.55056 0.01346 0.43329 0.0
S1196 S 0.68793 1.00857 0.46168 0.0
N1197 N 0.67999 1.0082 0.422 0.0
N1198 N 0.65155 1.01031 0.48153 0.0
C1199 C 0.631 1.01056 0.45575 0.0
C1200 C 0.6464 1.00933 0.42365 0.0
C1201 C 0.77255 0.85616 0.141 0.0
C1202 C 0.80178 0.87046 0.12797 0.0
C1203 C 0.77075 0.84088 0.17309 0.0
C1204 C 0.79802 0.83903 0.19417 0.0
H1205 H 0.75121 0.85558 0.12576 0.0
H1206 H 0.74773 0.83005 0.18126 0.0
S1207 S 0.8803 0.87312 0.17227 0.0
N1208 N 0.85856 0.88159 0.13939 0.0
N1209 N 0.85517 0.85415 0.19876 0.0
C1210 C 0.82707 0.85394 0.18153 0.0
C1211 C 0.82895 0.86909 0.14891 0.0
C1212 C 0.97004 0.05255 0.69336 0.0
C1213 C 0.9866 0.06776 0.71836 0.0
C1214 C 0.98619 0.04549 0.6633 0.0
C1215 C 0.01913 0.05413 0.65714 0.0
H1216 H 0.94459 0.0455 0.69733 0.0
H1217 H 0.97246 0.03399 0.64448 0.0
S1218 S 0.07297 0.0947 0.71484 0.0
N1219 N 0.03743 0.09085 0.73579 0.0
N1220 N 0.06782 0.07879 0.67826 0.0
C1221 C 0.03595 0.06953 0.68194 0.0
C1222 C 0.01964 0.07602 0.71292 0.0
C1223 C 0.83676 0.18364 0.39581 0.0
C1224 C 0.85323 0.19824 0.42112 0.0
C1225 C 0.83112 0.20093 0.36641 0.0
C1226 C 0.84151 0.23328 0.36201 0.0
H1227 H 0.82546 0.16027 0.39995 0.0
H1228 H 0.8162 0.18983 0.34831 0.0
S1229 S 0.89209 0.27876 0.41875 0.0
N1230 N 0.88473 0.24394 0.43829 0.0
N1231 N 0.87405 0.27665 0.38301 0.0
C1232 C 0.86121 0.24648 0.38579 0.0
C1233 C 0.86712 0.2288 0.41545 0.0
C1234 C 0.63685 0.06469 0.20711 0.0
C1235 C 0.60966 0.05393 0.2266 0.0
C1236 C 0.63213 0.08254 0.17785 0.0
C1237 C 0.60021 0.09045 0.16765 0.0
H1238 H 0.66184 0.0604 0.21511 0.0
H1239 H 0.65341 0.09007 0.16292 0.0
S1240 S 0.52132 0.06398 0.20709 0.0
N1241 N 0.54995 0.04973 0.23192 0.0
N1242 N 0.54132 0.08332 0.1767 0.0
C1243 C 0.57296 0.07879 0.18615 0.0
C1244 C 0.57765 0.06047 0.21569 0.0
C1245 C 0.79024 0.89701 0.91266 0.0
C1246 C 0.79782 0.88002 0.94242 0.0
C1247 C 0.78655 0.8809 0.88197 0.0
C1248 C 0.78966 0.84659 0.8789 0.0
H1249 H 0.78708 0.92327 0.91296 0.0
H1250 H 0.78096 0.89563 0.86036 0.0
S1251 S 0.81008 0.78991 0.9485 0.0
N1252 N 0.80881 0.82609 0.96576 0.0
N1253 N 0.8016 0.7964 0.90933 0.0
C1254 C 0.79711 0.8293 0.90848 0.0
C1255 C 0.80124 0.8457 0.93961 0.0
C1256 C 0.92411 0.95218 0.05772 0.0
C1257 C 0.8975 0.96055 0.03708 0.0
C1258 C 0.95169 0.97246 0.06117 0.0
C1259 C 0.95519 1.00235 0.04361 0.0
H1260 H 0.92388 0.92922 0.07129 0.0
H1261 H 0.97118 0.96383 0.07697 0.0
S1262 S 0.89328 0.03623 0.98548 0.0
N1263 N 0.87691 1.00181 0.99889 0.0
N1264 N 0.92854 0.03902 1.00429 0.0
C1265 C 0.92865 1.01124 0.02297 0.0
C1266 C 0.90008 0.99079 0.02003 0.0
C1267 C 0.41152 0.6086 0.0497 0.0
C1268 C 0.41068 0.63965 0.03453 0.0
C1269 C 0.44107 0.59031 0.05134 0.0
C1270 C 0.47084 0.60247 0.03794 0.0
H1271 H 0.38909 0.59808 0.06 0.0
H1272 H 0.44065 0.5667 0.06372 0.0
S1273 S 0.48193 0.68155 0.99398 0.0
N1274 N 0.44224 0.68134 1.00487 0.0
N1275 N 0.49781 0.64684 0.00823 0.0
C1276 C 0.47048 0.63345 0.02275 0.0
C1277 C 0.44039 0.65211 0.02104 0.0
C1278 C 0.17895 0.63255 0.78968 0.0
C1279 C 0.1901 0.61135 0.81481 0.0
C1280 C 0.20099 0.65236 0.77174 0.0
C1281 C 0.23464 0.65179 0.77875 0.0
H1282 H 0.15339 0.6326 0.78272 0.0
H1283 H 0.19173 0.66846 0.75253 0.0
S1284 S 0.27567 0.60204 0.84321 0.0
N1285 N 0.23663 0.59142 0.84619 0.0
N1286 N 0.27785 0.6299 0.81331 0.0
C1287 C 0.24582 0.63158 0.8045 0.0
C1288 C 0.22359 0.611 0.82233 0.0
C1289 C 0.18089 0.45739 0.52039 0.0
C1290 C 0.2078 0.46799 0.53823 0.0
C1291 C 0.15031 0.47537 0.51951 0.0
C1292 C 0.14455 0.50477 0.53688 0.0
H1293 H 0.18362 0.43523 0.50632 0.0
H1294 H 0.1309 0.46594 0.50507 0.0
S1295 S 0.20615 0.54289 0.58871 0.0
N1296 N 0.2259 0.51004 0.57429 0.0
N1297 N 0.16898 0.54291 0.57337 0.0
C1298 C 0.17107 0.51528 0.55535 0.0
C1299 C 0.20236 0.49727 0.55581 0.0
C1300 C 0.87533 0.98663 0.751 0.0
C1301 C 0.87871 0.9922 0.78481 0.0
C1302 C 0.85898 0.95939 0.74062 0.0
C1303 C 0.84532 0.93737 0.76384 0.0
H1304 H 0.88651 1.00272 0.73253 0.0
H1305 H 0.85816 0.9548 0.71441 0.0
S1306 S 0.84274 0.94529 0.85527 0.0
N1307 N 0.86471 0.97618 0.84134 0.0
N1308 N 0.83208 0.92583 0.82216 0.0
C1309 C 0.84667 0.94418 0.79779 0.0
C1310 C 0.86396 0.97143 0.80823 0.0
C1311 C 0.72375 0.11498 0.49198 0.0
C1312 C 0.74363 0.13456 0.51034 0.0
C1313 C 0.70081 0.09466 0.50807 0.0
C1314 C 0.69652 0.09387 0.54293 0.0
H1315 H 0.72601 0.11531 0.46523 0.0
H1316 H 0.68592 0.07983 0.49302 0.0
S1317 S 0.74189 0.14256 0.60158 0.0
N1318 N 0.75771 0.15264 0.56477 0.0
N1319 N 0.71373 0.11549 0.59483 0.0
C1320 C 0.71651 0.11342 0.56138 0.0
C1321 C 0.74016 0.13363 0.54507 0.0
C1322 C 0.19289 0.40615 0.79427 0.0
C1323 C 0.20895 0.43599 0.79236 0.0
C1324 C 0.21036 0.37707 0.80058 0.0
C1325 C 0.24459 0.37668 0.80528 0.0
H1326 H 0.16643 0.40528 0.79156 0.0
H1327 H 0.19685 0.35468 0.80141 0.0
S1328 S 0.29831 0.44848 0.803 0.0
N1329 N 0.26107 0.46359 0.79566 0.0
N1330 N 0.29395 0.40887 0.80776 0.0
C1331 C 0.26101 0.40641 0.80345 0.0
C1332 C 0.24323 0.43604 0.79668 0.0
C1333 C 0.36916 0.69935 0.29378 0.0
C1334 C 0.3617 0.67494 0.27157 0.0
C1335 C 0.35042 0.72817 0.29573 0.0
C1336 C 0.3237 0.734 0.2752 0.0
H1337 H 0.38941 0.69615 0.31034 0.0
H1338 H 0.35748 0.74625 0.31308 0.0
S1339 S 0.29401 0.67785 0.21253 0.0
N1340 N 0.3258 0.65812 0.22867 0.0
N1341 N 0.29044 0.7129 0.23188 0.0
C1342 C 0.31579 0.70976 0.25283 0.0
C1343 C 0.33489 0.68011 0.25105 0.0
C1344 C 0.54982 0.69412 0.57365 0.0
C1345 C 0.55118 0.7009 0.60784 0.0
C1346 C 0.54533 0.66227 0.56135 0.0
C1347 C 0.5426 0.63424 0.58214 0.0
H1348 H 0.55251 0.71389 0.55578 0.0
H1349 H 0.54498 0.65958 0.5348 0.0
S1350 S 0.54519 0.63699 0.67398 0.0
N1351 N 0.54908 0.67557 0.66249 0.0
N1352 N 0.54194 0.61624 0.63969 0.0
C1353 C 0.54387 0.64047 0.61653 0.0
C1354 C 0.54773 0.6733 0.62918 0.0
C1355 C 0.68232 0.29622 0.89301 0.0
C1356 C 0.65314 0.28429 0.88077 0.0
C1357 C 0.71032 0.30056 0.87214 0.0
C1358 C 0.71015 0.29306 0.8383 0.0
H1359 H 0.68316 0.3035 0.91855 0.0
H1360 H 0.73189 0.31082 0.88249 0.0
S1361 S 0.64119 0.25686 0.79521 0.0
N1362 N 0.62672 0.26199 0.8335 0.0
N1363 N 0.67924 0.27015 0.79435 0.0
C1364 C 0.68165 0.27949 0.8262 0.0
C1365 C 0.65318 0.27509 0.84743 0.0
C1366 C 0.06915 0.41124 0.136 0.0
C1367 C 0.05702 0.38329 0.1208 0.0
C1368 C 0.06951 0.44281 0.12015 0.0
C1369 C 0.05658 0.44898 0.08844 0.0
H1370 H 0.07884 0.40869 0.16049 0.0
H1371 H 0.07941 0.4628 0.13333 0.0
S1372 S 0.02045 0.38508 0.03785 0.0
N1373 N 0.03157 0.3649 0.07148 0.0
N1374 N 0.03064 0.42325 0.04297 0.0
C1375 C 0.04392 0.42131 0.07325 0.0
C1376 C 0.04456 0.38904 0.08892 0.0
C1377 C 0.94133 0.80246 0.40837 0.0
C1378 C 0.9746 0.80867 0.40024 0.0
C1379 C 0.91677 0.80958 0.38577 0.0
C1380 C 0.92462 0.82364 0.35461 0.0
H1381 H 0.93431 0.79146 0.43203 0.0
H1382 H 0.89141 0.80418 0.3927 0.0
S1383 S 1.00759 0.84601 0.32189 0.0
N1384 N 0.01393 0.83075 0.35918 0.0
N1385 N 0.96746 0.84402 0.31691 0.0
C1386 C 0.95755 0.83064 0.34646 0.0
C1387 C 0.98264 0.82313 0.36923 0.0
C1388 C 0.55624 0.39147 0.97405 0.0
C1389 C 0.553 0.35939 0.9862 0.0
C1390 C 0.5453 0.41815 0.99293 0.0
C1391 C 0.53032 0.41387 0.02457 0.0
H1392 H 0.56767 0.39614 0.94986 0.0
H1393 H 0.54864 0.44244 0.98274 0.0
S1394 S 0.5155 0.33537 0.06798 0.0
N1395 N 0.53351 0.32501 0.03222 0.0
N1396 N 0.51247 0.37557 0.06731 0.0
C1397 C 0.52628 0.38212 0.0369 0.0
C1398 C 0.53782 0.35478 0.01786 0.0
C1399 C 0.9462 0.26122 0.22036 0.0
C1400 C 0.95738 0.28997 0.20436 0.0
C1401 C 0.91415 0.25951 0.23597 0.0
C1402 C 0.89208 0.28683 0.23754 0.0
H1403 H 0.96229 0.23968 0.22058 0.0
H1404 H 0.90696 0.23677 0.24772 0.0
S1405 S 0.90914 0.36819 0.20022 0.0
N1406 N 0.94303 0.3463 0.19094 0.0
N1407 N 0.88432 0.34368 0.22151 0.0
C1408 C 0.90317 0.31577 0.22197 0.0
C1409 C 0.93525 0.31718 0.20513 0.0
C1410 C 0.06031 0.67054 0.44356 0.0
C1411 C 0.07969 0.69376 0.45804 0.0
C1412 C 0.06298 0.63764 0.45317 0.0
C1413 C 0.08472 0.62755 0.47784 0.0
H1414 H 0.04099 0.67826 0.42712 0.0
H1415 H 0.04534 0.62095 0.44411 0.0
S1416 S 0.14517 0.67839 0.51794 0.0
N1417 N 0.12461 0.70408 0.4939 0.0
N1418 N 0.12978 0.64225 0.51209 0.0
C1419 C 0.1069 0.65003 0.48933 0.0
C1420 C 0.10419 0.68333 0.47953 0.0
C1421 C 0.6796 0.81776 0.69289 0.0
C1422 C 0.64965 0.80211 0.70162 0.0
C1423 C 0.70649 0.81897 0.71444 0.0
C1424 C 0.70595 0.80404 0.74627 0.0
H1425 H 0.68256 0.82934 0.66876 0.0
H1426 H 0.72852 0.8311 0.70544 0.0
S1427 S 0.6336 0.76043 0.78262 0.0
N1428 N 0.62121 0.77219 0.74578 0.0
N1429 N 0.67163 0.77335 0.78545 0.0
C1430 C 0.67612 0.78842 0.7556 0.0
C1431 C 0.64825 0.78782 0.73375 0.0
C1432 C 0.62411 0.5399 0.71908 0.0
C1433 C 0.60067 0.53645 0.74538 0.0
C1434 C 0.61772 0.52914 0.68753 0.0
C1435 C 0.58806 0.51402 0.68153 0.0
H1436 H 0.6477 0.55069 0.72296 0.0
H1437 H 0.63618 0.53219 0.66773 0.0
S1438 S 0.51799 0.50053 0.74119 0.0
N1439 N 0.54605 0.51793 0.76293 0.0
N1440 N 0.53431 0.49759 0.70331 0.0
C1441 C 0.56416 0.51093 0.70726 0.0
C1442 C 0.57037 0.52229 0.73931 0.0
C1443 C 0.79148 0.40762 0.95281 0.0
C1444 C 0.78202 0.38565 0.97826 0.0
C1445 C 0.80853 0.39662 0.92425 0.0
C1446 C 0.81718 0.36355 0.92065 0.0
H1447 H 0.78587 0.43347 0.95494 0.0
H1448 H 0.81464 0.41388 0.90458 0.0
S1449 S 0.79632 0.29588 0.97838 0.0
N1450 N 0.78097 0.32886 0.99682 0.0
N1451 N 0.8139 0.30874 0.94325 0.0
C1452 C 0.80786 0.34135 0.9456 0.0
C1453 C 0.78998 0.35229 0.97439 0.0
C1454 C 1.00745 0.59092 0.17768 0.0
C1455 C 0.97632 0.57839 0.1859 0.0
C1456 C 0.02033 0.58984 0.14535 0.0
C1457 C 1.00258 0.57581 0.12037 0.0
H1458 H 0.0229 0.59954 0.19676 0.0
H1459 H 0.04537 0.59774 0.14058 0.0
S1460 S 0.91683 0.54634 0.12834 0.0
N1461 N 0.92563 0.55684 0.16612 0.0
N1462 N 0.94986 0.55459 0.10485 0.0
C1463 C 0.96975 0.56688 0.12756 0.0
C1464 C 0.95656 0.5682 0.16061 0.0
C1465 C 0.77678 0.70182 0.42021 0.0
C1466 C 0.78995 0.71607 0.44834 0.0
C1467 C 0.77456 0.7187 0.38907 0.0
C1468 C 0.78647 0.75057 0.38357 0.0
H1469 H 0.76783 0.67726 0.42229 0.0
H1470 H 0.76416 0.70617 0.36877 0.0
S1471 S 0.82453 0.79896 0.44823 0.0
N1472 N 0.81511 0.76465 0.46782 0.0
N1473 N 0.81261 0.7952 0.40996 0.0
C1474 C 0.80006 0.76489 0.41142 0.0
C1475 C 0.80134 0.74812 0.44336 0.0
C1476 C 0.59133 0.51633 0.91945 0.0
C1477 C 0.62449 0.52368 0.91233 0.0
C1478 C 0.57609 0.5244 0.94982 0.0
C1479 C 0.59336 0.54091 0.97341 0.0
H1480 H 0.577 0.50454 0.9013 0.0
H1481 H 0.55047 0.51833 0.95458 0.0
S1482 S 0.68102 0.56457 0.96701 0.0
N1483 N 0.67456 0.54722 0.93144 0.0
N1484 N 0.64563 0.56304 0.98856 0.0
C1485 C 0.62669 0.54798 0.9668 0.0
C1486 C 0.64241 0.53912 0.93616 0.0
C1487 C 0.78028 0.37929 0.17383 0.0
C1488 C 0.76639 0.3616 0.14876 0.0
C1489 C 0.7802 0.36699 0.20626 0.0
C1490 C 0.76601 0.33688 0.21422 0.0
H1491 H 0.79358 0.40126 0.16787 0.0
H1492 H 0.7938 0.3797 0.22434 0.0
S1493 S 0.71889 0.28623 0.15876 0.0
N1494 N 0.73289 0.31614 0.13482 0.0
N1495 N 0.73193 0.29329 0.19602 0.0
C1496 C 0.74847 0.32125 0.19011 0.0
C1497 C 0.74897 0.33352 0.15716 0.0
C1498 C 0.9947 0.55182 0.35519 0.0
C1499 C 0.96004 0.55303 0.3547 0.0
C1500 C 1.0109 0.53455 0.37984 0.0
C1501 C 0.99306 0.51777 0.40463 0.0
H1502 H 1.0095 0.56478 0.33668 0.0
H1503 H 0.03755 0.53554 0.38061 0.0
S1504 S 0.9023 0.51148 0.41363 0.0
N1505 N 0.90831 0.53447 0.38013 0.0
N1506 N 0.93941 0.50227 0.4273 0.0
C1507 C 0.95854 0.51779 0.40406 0.0
C1508 C 0.94181 0.53553 0.37891 0.0
C1509 C 0.79715 0.70213 0.66095 0.0
C1510 C 0.79992 0.7216 0.63167 0.0
C1511 C 0.80085 0.71519 0.69335 0.0
C1512 C 0.80807 0.74841 0.69856 0.0
H1513 H 0.79064 0.67689 0.65902 0.0
H1514 H 0.79727 0.69913 0.7146 0.0
S1515 S 0.81942 0.8096 0.63021 0.0
N1516 N 0.81128 0.77593 0.61083 0.0
N1517 N 0.81884 0.79974 0.66991 0.0
C1518 C 0.8119 0.76761 0.66922 0.0
C1519 C 0.80767 0.75451 0.63661 0.0
C1520 C 0.69678 0.60186 0.54888 0.0
C1521 C 0.70009 0.62946 0.52755 0.0
C1522 C 0.66914 0.58083 0.54802 0.0
C1523 C 0.64349 0.58556 0.52523 0.0
H1524 H 0.715 0.59715 0.56737 0.0
H1525 H 0.66762 0.56094 0.56587 0.0
S1526 S 0.64104 0.65301 0.46251 0.0
N1527 N 0.67514 0.65922 0.48219 0.0
N1528 N 0.62498 0.62016 0.47987 0.0
C1529 C 0.64735 0.61245 0.50311 0.0
C1530 C 0.67493 0.63406 0.50445 0.0
C1531 C 0.18923 0.98396 0.58556 0.0
C1532 C 0.18791 0.95121 0.57634 0.0
C1533 C 0.16061 1.00354 0.58817 0.0
C1534 C 0.12969 0.99098 0.58178 0.0
H1535 H 0.21268 0.99517 0.58902 0.0
H1536 H 0.16305 0.02908 0.59355 0.0
S1537 S 0.11232 0.90503 0.56307 0.0
N1538 N 0.15287 0.90576 0.56542 0.0
N1539 N 0.09879 0.94256 0.57057 0.0
C1540 C 0.12766 0.95748 0.57557 0.0
C1541 C 0.1569 0.93755 0.57276 0.0
C1542 C 0.37382 0.97854 0.80639 0.0
C1543 C 0.40553 0.97237 0.79194 0.0
C1544 C 0.3524 0.95316 0.8137 0.0
C1545 C 0.36173 0.92097 0.80615 0.0
H1546 H 0.36577 1.00309 0.81285 0.0
H1547 H 0.32829 0.95867 0.82508 0.0
S1548 S 0.44175 0.89181 0.76816 0.0
N1549 N 0.44522 0.93168 0.77046 0.0
N1550 N 0.40451 0.88389 0.78374 0.0
C1551 C 0.39316 0.9144 0.79142 0.0
C1552 C 0.41522 0.94016 0.78447 0.0
C1553 C 0.39636 0.0979 0.03921 0.0
C1554 C 0.39148 0.13213 0.04035 0.0
C1555 C 0.42828 0.08263 0.0397 0.0
C1556 C 0.45732 0.10053 0.04234 0.0
H1557 H 0.37525 0.08258 0.03732 0.0
H1558 H 0.43017 0.05634 0.0382 0.0
S1559 S 0.45925 0.19079 0.04558 0.0
N1560 N 0.41951 0.18344 0.04343 0.0
N1561 N 0.47874 0.15486 0.04556 0.0
C1562 C 0.45291 0.13473 0.04384 0.0
C1563 C 0.4204 0.1504 0.04251 0.0
C1564 C 0.71109 0.61729 0.86237 0.0
C1565 C 0.67725 0.62479 0.85873 0.0
C1566 C 0.73436 0.64159 0.8606 0.0
C1567 C 0.72463 0.67409 0.85487 0.0
H1568 H 0.71987 0.59226 0.86529 0.0
H1569 H 0.76031 0.63481 0.86214 0.0
S1570 S 0.63899 0.70735 0.85052 0.0
N1571 N 0.6348 0.66756 0.85404 0.0
N1572 N 0.67912 0.71352 0.85044 0.0
C1573 C 0.69085 0.68237 0.85367 0.0
C1574 C 0.66695 0.65759 0.85586 0.0
C1575 C 0.89962 0.42332 0.03337 0.0
C1576 C 0.86673 0.43275 0.02785 0.0
C1577 C 0.92522 0.44444 0.025 0.0
C1578 C 0.91858 0.47509 0.01023 0.0
H1579 H 0.90545 0.40012 0.04523 0.0
H1580 H 0.95035 0.43696 0.03033 0.0
S1581 S 0.83679 0.5097 0.9883 0.0
N1582 N 0.82891 0.47372 0.00514 0.0
N1583 N 0.87725 0.51316 0.98914 0.0
C1584 C 0.88597 0.48411 1.00335 0.0
C1585 C 0.85993 0.46295 0.01228 0.0
C1586 C 0.39677 0.18223 0.77242 0.0
C1587 C 0.38135 0.15278 0.76675 0.0
C1588 C 0.37916 0.21191 0.77108 0.0
C1589 C 0.34538 0.21331 0.76411 0.0
H1590 H 0.42239 0.18241 0.7791 0.0
H1591 H 0.39191 0.23373 0.77705 0.0
S1592 S 0.29461 0.14346 0.74287 0.0
N1593 N 0.33126 0.127 0.75047 0.0
N1594 N 0.29804 0.18297 0.74798 0.0
C1595 C 0.33019 0.18426 0.75616 0.0
C1596 C 0.3482 0.15393 0.75752 0.0
C1597 C 0.24098 0.96526 0.29138 0.0
C1598 C 0.20701 0.96786 0.28593 0.0
C1599 C 0.25975 0.93817 0.28051 0.0
C1600 C 0.24521 0.91311 0.26339 0.0
H1601 H 0.25272 0.98324 0.30588 0.0
H1602 H 0.28538 0.936 0.28717 0.0
S1603 S 0.1583 0.91201 0.23758 0.0
N1604 N 0.16039 0.94585 0.25872 0.0
N1605 N 0.19573 0.89497 0.23764 0.0
C1606 C 0.21189 0.91706 0.25512 0.0
C1607 C 0.19269 0.94442 0.26669 0.0
C1608 C 0.55245 0.41833 0.43704 0.0
C1609 C 0.55032 0.38857 0.45541 0.0
C1610 C 0.55598 0.44932 0.45222 0.0
C1611 C 0.55851 0.45287 0.48689 0.0
H1612 H 0.55109 0.41782 0.4104 0.0
H1613 H 0.55678 0.47083 0.43639 0.0
S1614 S 0.55439 0.38326 0.54712 0.0
N1615 N 0.55075 0.36573 0.51109 0.0
N1616 N 0.55814 0.42253 0.53894 0.0
C1617 C 0.55663 0.42326 0.50549 0.0
C1618 C 0.5524 0.39183 0.4901 0.0
C1619 C 0.39887 0.84524 0.15998 0.0
C1620 C 0.4232 0.82185 0.16914 0.0
C1621 C 0.36859 0.84811 0.1779 0.0
C1622 C 0.36221 0.82786 0.20546 0.0
H1623 H 0.40408 0.86292 0.14044 0.0
H1624 H 0.351 0.86732 0.17137 0.0
S1625 S 0.41431 0.75853 0.2351 0.0
N1626 N 0.43618 0.77467 0.20402 0.0
N1627 N 0.37976 0.78079 0.23808 0.0
C1628 C 0.38492 0.80266 0.21296 0.0
C1629 C 0.41533 0.79938 0.19457 0.0
C1630 C 0.07143 0.68646 0.9731 0.0
C1631 C 0.04092 0.70164 0.9646 0.0
C1632 C 0.07355 0.65412 0.98723 0.0
C1633 C 0.04543 0.63463 0.9934 0.0
H1634 H 0.09381 0.7001 0.96999 0.0
H1635 H 0.0976 0.6443 0.99353 0.0
S1636 S 0.95969 0.66175 0.97421 0.0
N1637 N 0.98198 0.69337 0.963 0.0
N1638 N 0.98601 0.63373 0.98807 0.0
C1639 C 0.01505 0.64926 0.98396 0.0
C1640 C 1.01282 0.68218 0.97017 0.0
C1641 C 0.11355 0.3225 0.71958 0.0
C1642 C 0.11714 0.32098 0.68494 0.0
C1643 C 0.13464 0.30418 0.73986 0.0
C1644 C 0.15903 0.2829 0.72615 0.0
H1645 H 0.09449 0.33809 0.73103 0.0
H1646 H 0.13221 0.3068 0.76642 0.0
S1647 S 0.17819 0.26927 0.63734 0.0
N1648 N 0.147 0.29612 0.63793 0.0
N1649 N 0.18609 0.26141 0.67645 0.0
C1650 C 0.16268 0.28084 0.69176 0.0
C1651 C 0.14183 0.29995 0.67103 0.0
C1652 C 0.59018 0.76474 0.07923 0.0
C1653 C 0.55678 0.77418 0.08469 0.0
C1654 C 0.59938 0.73266 0.07147 0.0
C1655 C 0.57555 0.70884 0.06853 0.0
H1656 H 0.60958 0.78179 0.08273 0.0
H1657 H 0.62545 0.72623 0.06915 0.0
S1658 S 0.48436 0.72266 0.07531 0.0
N1659 N 0.49961 0.75827 0.08365 0.0
N1660 N 0.51666 0.69812 0.06759 0.0
C1661 C 0.54186 0.71851 0.07186 0.0
C1662 C 0.53255 0.75115 0.08029 0.0
C1663 C 0.14885 0.77321 0.84171 0.0
C1664 C 0.14298 0.79117 0.87103 0.0
C1665 C 0.18033 0.77171 0.82473 0.0
C1666 C 0.20763 0.78884 0.83549 0.0
H1667 H 0.12889 0.75999 0.83173 0.0
H1668 H 0.18306 0.75743 0.8025 0.0
S1669 S 0.20614 0.83949 0.91087 0.0
N1670 N 0.16817 0.82602 0.91017 0.0
N1671 N 0.22617 0.82415 0.87813 0.0
C1672 C 0.20207 0.8069 0.86475 0.0
C1673 C 0.17027 0.8078 0.88244 0.0
C1674 C 0.03278 0.44954 0.64327 0.0
C1675 C 0.01527 0.42458 0.62946 0.0
C1676 C 0.03512 0.47976 0.62691 0.0
C1677 C 0.0199 0.48537 0.59656 0.0
H1678 H 0.04663 0.44493 0.66532 0.0
H1679 H 0.05096 0.49776 0.63671 0.0
S1680 S 0.96503 0.42968 0.55499 0.0
N1681 N 0.97818 0.40868 0.58729 0.0
N1682 N 0.98205 0.46559 0.55675 0.0
C1683 C 0.99943 0.46161 0.58468 0.0
C1684 C 0.99731 0.43102 0.60111 0.0
C1685 C 0.44609 0.31702 0.34599 0.0
C1686 C 0.45124 0.29566 0.37335 0.0
C1687 C 0.41811 0.3148 0.32547 0.0
C1688 C 0.39375 0.29074 0.33058 0.0
H1689 H 0.46304 0.33657 0.34117 0.0
H1690 H 0.41517 0.33275 0.30582 0.0
S1691 S 0.39637 0.22758 0.39773 0.0
N1692 N 0.42939 0.24906 0.40347 0.0
N1693 N 0.37871 0.24416 0.36519 0.0
C1694 C 0.3995 0.26864 0.35721 0.0
C1695 C 0.42746 0.27131 0.37833 0.0
C1696 C 0.4197 0.61022 0.39179 0.0
C1697 C 0.41362 0.58149 0.37521 0.0
C1698 C 0.44618 0.61142 0.41274 0.0
C1699 C 0.46683 0.58379 0.41774 0.0
H1700 H 0.40704 0.63286 0.38502 0.0
H1701 H 0.45164 0.6345 0.42348 0.0
S1702 S 0.45443 0.50073 0.38635 0.0
N1703 N 0.42441 0.52351 0.37081 0.0
N1704 N 0.47543 0.52547 0.40872 0.0
C1705 C 0.45782 0.55387 0.40478 0.0
C1706 C 0.43041 0.55274 0.38421 0.0
C1707 C 0.29826 0.75048 0.09788 0.0
C1708 C 0.27854 0.73032 0.08015 0.0
C1709 C 0.28517 0.76629 0.12576 0.0
C1710 C 0.25213 0.76202 0.13692 0.0
H1711 H 0.32342 0.75509 0.08938 0.0
H1712 H 0.30092 0.78246 0.13838 0.0
S1713 S 0.19138 0.70996 0.0994 0.0
N1714 N 0.22504 0.706 0.07521 0.0
N1715 N 0.20062 0.73512 0.12886 0.0
C1716 C 0.2324 0.74139 0.11961 0.0
C1717 C 0.24565 0.72555 0.09091 0.0
C1718 C 0.10026 0.49469 0.9046 0.0
C1719 C 0.13371 0.50194 0.89978 0.0
C1720 C 0.08467 0.4973 0.93559 0.0
C1721 C 0.10203 0.50763 0.96263 0.0
H1722 H 0.0856 0.48829 0.88397 0.0
H1723 H 0.0584 0.49305 0.93783 0.0
S1724 S 0.19161 0.52454 0.96339 0.0
N1725 N 0.18494 0.51587 0.92458 0.0
N1726 N 0.15565 0.52093 0.98357 0.0
C1727 C 0.13635 0.51209 0.95871 0.0
C1728 C 0.15225 0.50924 0.92696 0.0
C1729 C 0.33369 0.36217 0.64695 0.0
C1730 C 0.30561 0.36977 0.62806 0.0
C1731 C 0.33143 0.34776 0.6792 0.0
C1732 C 0.30097 0.33879 0.69449 0.0
H1733 H 0.35806 0.36709 0.63642 0.0
H1734 H 0.3541 0.34272 0.6919 0.0
S1735 S 0.21935 0.35299 0.65652 0.0
N1736 N 0.24585 0.36737 0.6282 0.0
N1737 N 0.24156 0.33958 0.68762 0.0
C1738 C 0.27254 0.34639 0.67603 0.0
C1739 C 0.27483 0.36192 0.64339 0.0
C1740 C 0.46577 0.57497 0.18713 0.0
C1741 C 0.48248 0.5888 0.21292 0.0
C1742 C 0.48237 0.56743 0.15736 0.0
C1743 C 0.51592 0.57419 0.15233 0.0
H1744 H 0.4402 0.5682 0.19061 0.0
H1745 H 0.46891 0.55611 0.13822 0.0
S1746 S 0.56981 0.61314 0.21097 0.0
N1747 N 0.53371 0.61053 0.23118 0.0
N1748 N 0.5648 0.59761 0.17419 0.0
C1749 C 0.53248 0.58967 0.17716 0.0
C1750 C 0.51576 0.59664 0.20783 0.0
C1751 C 0.33699 0.68852 0.89286 0.0
C1752 C 0.34631 0.70545 0.92045 0.0
C1753 C 0.33262 0.70511 0.86289 0.0
C1754 C 0.33742 0.73899 0.85999 0.0
H1755 H 0.33037 0.66318 0.89513 0.0
H1756 H 0.3232 0.69166 0.84268 0.0
S1757 S 0.36984 0.79184 0.92371 0.0
N1758 N 0.3661 0.75586 0.94207 0.0
N1759 N 0.35785 0.78721 0.88562 0.0
C1760 C 0.35039 0.75515 0.88653 0.0
C1761 C 0.35484 0.73825 0.91692 0.0
C1762 C 0.1341 0.56102 0.7124 0.0
C1763 C 0.10788 0.55374 0.73488 0.0
C1764 C 0.12819 0.57777 0.68281 0.0
C1765 C 0.09609 0.58807 0.67518 0.0
H1766 H 0.15942 0.55458 0.71806 0.0
H1767 H 0.14866 0.58249 0.66555 0.0
S1768 S 0.01875 0.57163 0.7233 0.0
N1769 N 0.04834 0.55571 0.74601 0.0
N1770 N 0.03761 0.58747 0.69015 0.0
C1771 C 0.06964 0.58024 0.69681 0.0
C1772 C 0.07546 0.56295 0.72674 0.0
C1773 C 0.30239 0.34912 0.43851 0.0
C1774 C 0.29956 0.38347 0.44171 0.0
C1775 C 0.2986 0.33311 0.40779 0.0
C1776 C 0.29198 0.35026 0.37787 0.0
H1777 H 0.30753 0.33419 0.46012 0.0
H1778 H 0.30151 0.30682 0.40745 0.0
S1779 S 0.28028 0.44035 0.37185 0.0
N1780 N 0.28823 0.43379 0.41116 0.0
N1781 N 0.28176 0.40422 0.35446 0.0
C1782 C 0.28893 0.38457 0.3807 0.0
C1783 C 0.29247 0.40087 0.41204 0.0
C1784 C 0.42623 0.45323 0.55815 0.0
C1785 C 0.40015 0.46094 0.5367 0.0
C1786 C 0.45369 0.47366 0.5615 0.0
C1787 C 0.45755 0.50297 0.543 0.0
H1788 H 0.42566 0.4307 0.57244 0.0
H1789 H 0.47281 0.4656 0.578 0.0
S1790 S 0.39728 0.53459 0.48208 0.0
N1791 N 0.38055 0.50069 0.49645 0.0
N1792 N 0.43199 0.53816 0.50166 0.0
C1793 C 0.43156 0.51111 0.52143 0.0
C1794 C 0.40313 0.49055 0.51859 0.0
C1795 C 0.94615 0.15704 0.53093 0.0
C1796 C 0.91615 0.14772 0.54652 0.0
C1797 C 0.9749 0.13755 0.53378 0.0
C1798 C 0.97414 0.10811 0.55188 0.0
H1799 H 0.94701 0.17833 0.51477 0.0
H1800 H 0.99732 0.14467 0.52045 0.0
S1801 S 0.90397 0.07679 0.60329 0.0
N1802 N 0.88904 0.11017 0.5853 0.0
N1803 N 0.9429 0.07325 0.58993 0.0
C1804 C 0.94514 0.1 0.56978 0.0
C1805 C 0.91614 0.11999 0.56736 0.0
C1806 C 0.67842 0.13744 0.28418 0.0
C1807 C 0.68967 0.11368 0.3069 0.0
C1808 C 0.70056 0.15816 0.26758 0.0
C1809 C 0.73442 0.15599 0.27358 0.0
H1810 H 0.65259 0.13914 0.27818 0.0
H1811 H 0.69117 0.17635 0.25037 0.0
S1812 S 0.77592 0.09941 0.33196 0.0
N1813 N 0.73662 0.08971 0.33505 0.0
N1814 N 0.77804 0.1297 0.30462 0.0
C1815 C 0.74579 0.13306 0.29687 0.0
C1816 C 0.72344 0.1116 0.31333 0.0
C1817 C 0.69884 0.99643 0.04828 0.0
C1818 C 0.70378 0.96503 0.03477 0.0
C1819 C 0.66783 0.01364 0.04783 0.0
C1820 C 0.63987 1.00084 0.03325 0.0
H1821 H 0.71921 1.00798 0.0595 0.0
H1822 H 0.66591 0.03748 0.05886 0.0
S1823 S 0.63885 0.91954 0.99422 0.0
N1824 N 0.67709 0.92188 0.00651 0.0
N1825 N 0.61978 0.95404 0.00507 0.0
C1826 C 0.64447 0.96947 0.01957 0.0
C1827 C 0.67594 0.95173 0.02048 0.0
C1828 C 0.37837 0.48857 0.24472 0.0
C1829 C 0.38745 0.49285 0.2774 0.0
C1830 C 0.36182 0.46077 0.23604 0.0
C1831 C 0.3534 0.43689 0.25996 0.0
H1832 H 0.38485 0.50637 0.22567 0.0
H1833 H 0.35619 0.45762 0.2104 0.0
S1834 S 0.36816 0.44013 0.35008 0.0
N1835 N 0.38543 0.47296 0.33407 0.0
N1836 N 0.35225 0.42179 0.31872 0.0
C1837 C 0.36108 0.44204 0.29318 0.0
C1838 C 0.37869 0.46981 0.30166 0.0
C1839 C 0.24141 0.60865 0.01723 0.0
C1840 C 0.23274 0.64013 0.00524 0.0
C1841 C 0.2192 0.59064 0.03712 0.0
C1842 C 0.18785 0.60368 0.04595 0.0
H1843 H 0.26579 0.59807 0.01173 0.0
H1844 H 0.2263 0.56626 0.04527 0.0
S1845 S 0.15242 0.68418 0.0215 0.0
N1846 N 0.18982 0.68304 1.00379 0.0
N1847 N 0.14858 0.64894 0.04131 0.0
C1848 C 0.1786 0.63467 0.03396 0.0
C1849 C 0.20087 0.65292 0.01348 0.0
C1850 C 0.73745 0.93432 0.2907 0.0
C1851 C 0.70275 0.9349 0.29425 0.0
C1852 C 0.7561 0.90582 0.29694 0.0
C1853 C 0.7407 0.87684 0.30685 0.0
H1854 H 0.75045 0.95615 0.28354 0.0
H1855 H 0.78269 0.90631 0.29298 0.0
S1856 S 0.65069 0.86544 0.32082 0.0
N1857 N 0.65376 0.90386 0.30881 0.0
N1858 N 0.68893 0.85046 0.3208 0.0
C1859 C 0.70608 0.87707 0.31076 0.0
C1860 C 0.68707 0.906 0.30425 0.0
C1861 C 0.83831 0.17332 0.75757 0.0
C1862 C 0.87227 0.17228 0.76363 0.0
C1863 C 0.81886 0.2012 0.76461 0.0
C1864 C 0.83273 0.22851 0.77838 0.0
H1865 H 0.82628 0.15199 0.74906 0.0
H1866 H 0.79268 0.20109 0.76006 0.0
S1867 S 0.92144 0.24017 0.79274 0.0
N1868 N 0.91979 0.2026 0.77928 0.0
N1869 N 0.88298 0.25458 0.7935 0.0
C1870 C 0.86696 0.2285 0.78252 0.0
C1871 C 0.88684 0.2005 0.77469 0.0
loop_
_geom_bond_atom_site_label_1
_geom_bond_atom_site_label_2
_geom_bond_distance
_geom_bond_site_symmetry_2
_ccdc_geom_bond_type
Co0 O1 2.216 1_455 S
Co0 O2 2.091 1_455 S
Co0 O4 2.004 . S
Co0 O10 2.021 . S
Co0 O12 2.137 . S
Co0 O13 2.244 . S
O1 Co0 2.216 1_655 S
O1 C8 1.247 . S
O2 Co0 2.091 1_655 S
O2 C8 1.261 . S
C3 O12 1.247 . S
C3 O13 1.272 . S
O4 Co0 2.004 . S
O4 C9 1.259 . S
Co5 O6 2.061 . S
Co5 O11 2.052 . S
Co5 O13 2.135 . S
O6 Co5 2.061 . S
O6 C9 1.235 . S
C7 O10 1.238 . S
C7 O11 1.241 . S
C8 O1 1.247 . S
C8 O2 1.261 . S
C9 O4 1.259 . S
C9 O6 1.235 . S
O10 Co0 2.021 . S
O10 C7 1.238 . S
O11 Co5 2.052 . S
O11 C7 1.241 . S
O12 Co0 2.137 . S
O12 C3 1.247 . S
O13 Co0 2.244 . S
O13 C3 1.272 . S
O13 Co5 2.135 . S
Co14 O15 2.216 . S
Co14 O16 2.091 . S
Co14 O18 2.004 . S
Co14 O24 2.021 . S
Co14 O26 2.137 . S
Co14 O27 2.244 . S
O15 Co14 2.216 . S
O15 C22 1.247 . S
O16 Co14 2.091 . S
O16 C22 1.261 . S
C17 O26 1.247 . S
C17 O27 1.272 . S
O18 Co14 2.004 . S
O18 C23 1.259 . S
Co19 O20 2.061 1_455 S
Co19 O25 2.052 . S
Co19 O27 2.135 . S
O20 Co19 2.061 1_655 S
O20 C23 1.235 1_655 S
C21 O24 1.238 . S
C21 O25 1.241 . S
C22 O15 1.247 . S
C22 O16 1.261 . S
C23 O18 1.259 . S
C23 O20 1.235 1_455 S
O24 Co14 2.021 . S
O24 C21 1.238 . S
O25 Co19 2.052 . S
O25 C21 1.241 . S
O26 Co14 2.137 . S
O26 C17 1.247 . S
O27 Co14 2.244 . S
O27 C17 1.272 . S
O27 Co19 2.135 . S
Co28 O29 2.216 . S
Co28 O30 2.091 . S
Co28 O32 2.004 . S
Co28 O38 2.021 . S
Co28 O40 2.137 . S
Co28 O41 2.244 . S
O29 Co28 2.216 . S
O29 C36 1.247 . S
O30 Co28 2.091 . S
O30 C36 1.261 . S
C31 O40 1.247 . S
C31 O41 1.272 . S
O32 Co28 2.004 . S
O32 C37 1.259 . S
Co33 O34 2.061 . S
Co33 O39 2.052 . S
Co33 O41 2.135 . S
O34 Co33 2.061 . S
O34 C37 1.235 . S
C35 O38 1.238 . S
C35 O39 1.241 . S
C36 O29 1.247 . S
C36 O30 1.261 . S
C37 O32 1.259 . S
C37 O34 1.235 . S
O38 Co28 2.021 . S
O38 C35 1.238 . S
O39 Co33 2.052 . S
O39 C35 1.241 . S
O40 Co28 2.137 . S
O40 C31 1.247 . S
O41 Co28 2.244 . S
O41 C31 1.272 . S
O41 Co33 2.135 . S
Co42 O43 2.216 . S
Co42 O44 2.091 . S
Co42 O46 2.004 . S
Co42 O52 2.021 . S
Co42 O54 2.137 . S
Co42 O55 2.244 . S
O43 Co42 2.216 . S
O43 C50 1.247 . S
O44 Co42 2.091 . S
O44 C50 1.261 . S
C45 O54 1.247 . S
C45 O55 1.272 . S
O46 Co42 2.004 . S
O46 C51 1.259 . S
Co47 O48 2.061 . S
Co47 O53 2.052 . S
Co47 O55 2.135 . S
O48 Co47 2.061 . S
O48 C51 1.235 . S
C49 O52 1.238 . S
C49 O53 1.241 . S
C50 O43 1.247 . S
C50 O44 1.261 . S
C51 O46 1.259 . S
C51 O48 1.235 . S
O52 Co42 2.021 . S
O52 C49 1.238 . S
O53 Co47 2.052 . S
O53 C49 1.241 . S
O54 Co42 2.137 . S
O54 C45 1.247 . S
O55 Co42 2.244 . S
O55 C45 1.272 . S
O55 Co47 2.135 . S
Co56 O57 2.229 . S
Co56 O58 2.099 . S
Co56 O60 1.993 1_565 S
Co56 O66 2.020 1_565 S
Co56 O68 2.138 . S
Co56 O69 2.240 1_565 S
O57 Co56 2.229 . S
O57 C64 1.247 . S
O58 Co56 2.099 . S
O58 C64 1.261 . S
C59 O68 1.247 1_545 S
C59 O69 1.272 . S
O60 Co56 1.993 1_545 S
O60 C65 1.259 . S
Co61 O62 2.061 . S
Co61 O67 2.052 . S
Co61 O69 2.135 . S
O62 Co61 2.061 . S
O62 C65 1.235 . S
C63 O66 1.238 . S
C63 O67 1.241 . S
C64 O57 1.247 . S
C64 O58 1.261 . S
C65 O60 1.259 . S
C65 O62 1.235 . S
O66 Co56 2.020 1_545 S
O66 C63 1.238 . S
O67 Co61 2.052 . S
O67 C63 1.241 . S
O68 Co56 2.138 . S
O68 C59 1.247 1_565 S
O69 Co56 2.240 1_545 S
O69 C59 1.272 . S
O69 Co61 2.135 . S
Co70 O71 2.216 . S
Co70 O72 2.091 . S
Co70 O74 2.004 . S
Co70 O80 2.021 . S
Co70 O82 2.137 . S
Co70 O83 2.244 . S
O71 Co70 2.216 . S
O71 C78 1.247 . S
O72 Co70 2.091 . S
O72 C78 1.261 . S
C73 O82 1.247 . S
C73 O83 1.272 . S
O74 Co70 2.004 . S
O74 C79 1.259 . S
Co75 O76 2.061 . S
Co75 O81 2.052 . S
Co75 O83 2.135 . S
O76 Co75 2.061 . S
O76 C79 1.235 . S
C77 O80 1.238 . S
C77 O81 1.241 . S
C78 O71 1.247 . S
C78 O72 1.261 . S
C79 O74 1.259 . S
C79 O76 1.235 . S
O80 Co70 2.021 . S
O80 C77 1.238 . S
O81 Co75 2.052 . S
O81 C77 1.241 . S
O82 Co70 2.137 . S
O82 C73 1.247 . S
O83 Co70 2.244 . S
O83 C73 1.272 . S
O83 Co75 2.135 . S
Co84 O85 2.216 . S
Co84 O86 2.091 . S
Co84 O88 2.004 . S
Co84 O94 2.021 . S
Co84 O96 2.137 . S
Co84 O97 2.244 . S
O85 Co84 2.216 . S
O85 C92 1.247 . S
O86 Co84 2.091 . S
O86 C92 1.261 . S
C87 O96 1.247 . S
C87 O97 1.272 . S
O88 Co84 2.004 . S
O88 C93 1.259 . S
Co89 O90 2.061 . S
Co89 O95 2.052 . S
Co89 O97 2.135 . S
O90 Co89 2.061 . S
O90 C93 1.235 . S
C91 O94 1.238 . S
C91 O95 1.241 . S
C92 O85 1.247 . S
C92 O86 1.261 . S
C93 O88 1.259 . S
C93 O90 1.235 . S
O94 Co84 2.021 . S
O94 C91 1.238 . S
O95 Co89 2.052 . S
O95 C91 1.241 . S
O96 Co84 2.137 . S
O96 C87 1.247 . S
O97 Co84 2.244 . S
O97 C87 1.272 . S
O97 Co89 2.135 . S
Co98 O99 2.216 . S
Co98 O100 2.091 . S
Co98 O102 2.004 . S
Co98 O108 2.021 . S
Co98 O110 2.137 1_554 S
Co98 O111 2.244 . S
O99 Co98 2.216 . S
O99 C106 1.247 . S
O100 Co98 2.091 . S
O100 C106 1.261 . S
C101 O110 1.247 . S
C101 O111 1.272 1_556 S
O102 Co98 2.004 . S
O102 C107 1.259 . S
Co103 O104 2.061 . S
Co103 O109 2.052 . S
Co103 O111 2.135 . S
O104 Co103 2.061 . S
O104 C107 1.235 . S
C105 O108 1.238 . S
C105 O109 1.241 . S
C106 O99 1.247 . S
C106 O100 1.261 . S
C107 O102 1.259 . S
C107 O104 1.235 . S
O108 Co98 2.021 . S
O108 C105 1.238 . S
O109 Co103 2.052 . S
O109 C105 1.241 . S
O110 Co98 2.137 1_556 S
O110 C101 1.247 . S
O111 Co98 2.244 . S
O111 C101 1.272 1_554 S
O111 Co103 2.135 . S
Co112 O113 2.216 . S
Co112 O114 2.091 . S
Co112 O116 2.004 . S
Co112 O122 2.021 . S
Co112 O124 2.137 . S
Co112 O125 2.244 . S
O113 Co112 2.216 . S
O113 C120 1.247 . S
O114 Co112 2.091 . S
O114 C120 1.261 . S
C115 O124 1.247 . S
C115 O125 1.272 . S
O116 Co112 2.004 . S
O116 C121 1.259 . S
Co117 O118 2.061 . S
Co117 O123 2.052 . S
Co117 O125 2.135 . S
O118 Co117 2.061 . S
O118 C121 1.235 . S
C119 O122 1.238 . S
C119 O123 1.241 . S
C120 O113 1.247 . S
C120 O114 1.261 . S
C121 O116 1.259 . S
C121 O118 1.235 . S
O122 Co112 2.021 . S
O122 C119 1.238 . S
O123 Co117 2.052 . S
O123 C119 1.241 . S
O124 Co112 2.137 . S
O124 C115 1.247 . S
O125 Co112 2.244 . S
O125 C115 1.272 . S
O125 Co117 2.135 . S
Co126 O127 2.216 . S
Co126 O128 2.091 . S
Co126 O130 2.004 . S
Co126 O136 2.021 . S
Co126 O138 2.137 . S
Co126 O139 2.244 . S
O127 Co126 2.216 . S
O127 C134 1.247 . S
O128 Co126 2.091 . S
O128 C134 1.261 . S
C129 O138 1.247 . S
C129 O139 1.272 . S
O130 Co126 2.004 . S
O130 C135 1.259 . S
Co131 O132 2.061 . S
Co131 O137 2.052 . S
Co131 O139 2.135 . S
O132 Co131 2.061 . S
O132 C135 1.235 . S
C133 O136 1.238 . S
C133 O137 1.241 . S
C134 O127 1.247 . S
C134 O128 1.261 . S
C135 O130 1.259 . S
C135 O132 1.235 . S
O136 Co126 2.021 . S
O136 C133 1.238 . S
O137 Co131 2.052 . S
O137 C133 1.241 . S
O138 Co126 2.137 . S
O138 C129 1.247 . S
O139 Co126 2.244 . S
O139 C129 1.272 . S
O139 Co131 2.135 . S
Co140 O141 2.216 . S
Co140 O142 2.091 . S
Co140 O144 2.004 . S
Co140 O150 2.021 . S
Co140 O152 2.137 . S
Co140 O153 2.244 . S
O141 Co140 2.216 . S
O141 C148 1.247 . S
O142 Co140 2.091 . S
O142 C148 1.261 . S
C143 O152 1.247 . S
C143 O153 1.272 . S
O144 Co140 2.004 . S
O144 C149 1.259 . S
Co145 O146 2.061 . S
Co145 O151 2.052 . S
Co145 O153 2.135 . S
O146 Co145 2.061 . S
O146 C149 1.235 . S
C147 O150 1.238 . S
C147 O151 1.241 . S
C148 O141 1.247 . S
C148 O142 1.261 . S
C149 O144 1.259 . S
C149 O146 1.235 . S
O150 Co140 2.021 . S
O150 C147 1.238 . S
O151 Co145 2.052 . S
O151 C147 1.241 . S
O152 Co140 2.137 . S
O152 C143 1.247 . S
O153 Co140 2.244 . S
O153 C143 1.272 . S
O153 Co145 2.135 . S
Co154 O155 2.216 . S
Co154 O156 2.091 . S
Co154 O158 2.004 . S
Co154 O164 2.021 . S
Co154 O166 2.137 . S
Co154 O167 2.244 . S
O155 Co154 2.216 . S
O155 C162 1.247 . S
O156 Co154 2.091 . S
O156 C162 1.261 . S
C157 O166 1.247 . S
C157 O167 1.272 . S
O158 Co154 2.004 . S
O158 C163 1.259 . S
Co159 O160 2.061 . S
Co159 O165 2.052 . S
Co159 O167 2.135 . S
O160 Co159 2.061 . S
O160 C163 1.235 . S
C161 O164 1.238 . S
C161 O165 1.241 . S
C162 O155 1.247 . S
C162 O156 1.261 . S
C163 O158 1.259 . S
C163 O160 1.235 . S
O164 Co154 2.021 . S
O164 C161 1.238 . S
O165 Co159 2.052 . S
O165 C161 1.241 . S
O166 Co154 2.137 . S
O166 C157 1.247 . S
O167 Co154 2.244 . S
O167 C157 1.272 . S
O167 Co159 2.135 . S
Co168 O169 2.216 . S
Co168 O170 2.091 . S
Co168 O172 2.004 1_455 S
Co168 O178 2.021 . S
Co168 O180 2.137 . S
Co168 O181 2.244 . S
O169 Co168 2.216 . S
O169 C176 1.247 . S
O170 Co168 2.091 . S
O170 C176 1.261 . S
C171 O180 1.247 . S
C171 O181 1.272 . S
O172 Co168 2.004 1_655 S
O172 C177 1.259 . S
Co173 O174 2.061 . S
Co173 O179 2.052 1_655 S
Co173 O181 2.135 1_655 S
O174 Co173 2.061 . S
O174 C177 1.235 . S
C175 O178 1.238 . S
C175 O179 1.241 . S
C176 O169 1.247 . S
C176 O170 1.261 . S
C177 O172 1.259 . S
C177 O174 1.235 . S
O178 Co168 2.021 . S
O178 C175 1.238 . S
O179 Co173 2.052 1_455 S
O179 C175 1.241 . S
O180 Co168 2.137 . S
O180 C171 1.247 . S
O181 Co168 2.244 . S
O181 C171 1.272 . S
O181 Co173 2.135 1_455 S
Co182 O183 2.216 . S
Co182 O184 2.091 . S
Co182 O186 2.004 1_655 S
Co182 O192 2.021 . S
Co182 O194 2.137 . S
Co182 O195 2.244 1_655 S
O183 Co182 2.216 . S
O183 C190 1.247 . S
O184 Co182 2.091 . S
O184 C190 1.261 . S
C185 O194 1.236 1_455 S
C185 O195 1.281 . S
O186 Co182 2.004 1_455 S
O186 C191 1.259 . S
Co187 O188 2.061 . S
Co187 O193 2.052 . S
Co187 O195 2.135 . S
O188 Co187 2.061 . S
O188 C191 1.235 . S
C189 O192 1.238 1_455 S
C189 O193 1.241 . S
C190 O183 1.247 . S
C190 O184 1.261 . S
C191 O186 1.259 . S
C191 O188 1.235 . S
O192 Co182 2.021 . S
O192 C189 1.238 1_655 S
O193 Co187 2.052 . S
O193 C189 1.241 . S
O194 Co182 2.137 . S
O194 C185 1.236 1_655 S
O195 Co182 2.244 1_455 S
O195 C185 1.281 . S
O195 Co187 2.135 . S
Co196 O197 2.216 . S
Co196 O198 2.091 . S
Co196 O200 2.004 . S
Co196 O206 2.021 . S
Co196 O208 2.137 . S
Co196 O209 2.244 . S
O197 Co196 2.216 . S
O197 C204 1.247 . S
O198 Co196 2.091 . S
O198 C204 1.261 . S
C199 O208 1.247 . S
C199 O209 1.272 . S
O200 Co196 2.004 . S
O200 C205 1.259 . S
Co201 O202 2.061 . S
Co201 O207 2.052 . S
Co201 O209 2.135 . S
O202 Co201 2.061 . S
O202 C205 1.235 . S
C203 O206 1.238 . S
C203 O207 1.241 . S
C204 O197 1.247 . S
C204 O198 1.261 . S
C205 O200 1.259 . S
C205 O202 1.235 . S
O206 Co196 2.021 . S
O206 C203 1.238 . S
O207 Co201 2.052 . S
O207 C203 1.241 . S
O208 Co196 2.137 . S
O208 C199 1.247 . S
O209 Co196 2.244 . S
O209 C199 1.272 . S
O209 Co201 2.135 . S
Co210 O211 2.216 . S
Co210 O212 2.091 . S
Co210 O214 2.004 . S
Co210 O220 2.021 . S
Co210 O222 2.137 . S
Co210 O223 2.244 . S
O211 Co210 2.216 . S
O211 C218 1.247 . S
O212 Co210 2.091 . S
O212 C218 1.261 . S
C213 O222 1.247 . S
C213 O223 1.272 . S
O214 Co210 2.004 . S
O214 C219 1.259 . S
Co215 O216 2.061 . S
Co215 O221 2.052 . S
Co215 O223 2.135 . S
O216 Co215 2.061 . S
O216 C219 1.235 . S
C217 O220 1.238 . S
C217 O221 1.241 . S
C218 O211 1.247 . S
C218 O212 1.261 . S
C219 O214 1.259 . S
C219 O216 1.235 . S
O220 Co210 2.021 . S
O220 C217 1.238 . S
O221 Co215 2.052 . S
O221 C217 1.241 . S
O222 Co210 2.137 . S
O222 C213 1.247 . S
O223 Co210 2.244 . S
O223 C213 1.272 . S
O223 Co215 2.135 . S
Co224 O225 2.216 . S
Co224 O226 2.091 . S
Co224 O228 2.004 . S
Co224 O234 2.021 . S
Co224 O236 2.137 . S
Co224 O237 2.244 . S
O225 Co224 2.216 . S
O225 C232 1.247 . S
O226 Co224 2.091 . S
O226 C232 1.261 . S
C227 O236 1.247 . S
C227 O237 1.272 . S
O228 Co224 2.004 . S
O228 C233 1.259 . S
Co229 O230 2.061 . S
Co229 O235 2.052 . S
Co229 O237 2.135 . S
O230 Co229 2.061 . S
O230 C233 1.235 . S
C231 O234 1.238 . S
C231 O235 1.241 . S
C232 O225 1.247 . S
C232 O226 1.261 . S
C233 O228 1.259 . S
C233 O230 1.235 . S
O234 Co224 2.021 . S
O234 C231 1.238 . S
O235 Co229 2.052 . S
O235 C231 1.241 . S
O236 Co224 2.137 . S
O236 C227 1.247 . S
O237 Co224 2.244 . S
O237 C227 1.272 . S
O237 Co229 2.135 . S
Co238 O239 2.216 . S
Co238 O240 2.091 . S
Co238 O242 2.004 . S
Co238 O248 2.021 . S
Co238 O250 2.137 . S
Co238 O251 2.244 . S
O239 Co238 2.216 . S
O239 C246 1.247 . S
O240 Co238 2.091 . S
O240 C246 1.261 . S
C241 O250 1.247 . S
C241 O251 1.272 . S
O242 Co238 2.004 . S
O242 C247 1.259 . S
Co243 O244 2.061 . S
Co243 O249 2.052 . S
Co243 O251 2.135 . S
O244 Co243 2.061 . S
O244 C247 1.235 . S
C245 O248 1.238 . S
C245 O249 1.241 . S
C246 O239 1.247 . S
C246 O240 1.261 . S
C247 O242 1.259 . S
C247 O244 1.235 . S
O248 Co238 2.021 . S
O248 C245 1.238 . S
O249 Co243 2.052 . S
O249 C245 1.241 . S
O250 Co238 2.137 . S
O250 C241 1.247 . S
O251 Co238 2.244 . S
O251 C241 1.272 . S
O251 Co243 2.135 . S
Co252 O253 2.202 1_545 S
Co252 O254 2.082 1_545 S
Co252 O256 2.017 . S
Co252 O262 2.022 . S
Co252 O264 2.137 1_545 S
Co252 O265 2.248 . S
O253 Co252 2.202 1_565 S
O253 C260 1.247 . S
O254 Co252 2.082 1_565 S
O254 C260 1.261 . S
C255 O264 1.247 1_545 S
C255 O265 1.272 . S
O256 Co252 2.017 . S
O256 C261 1.259 . S
Co257 O258 2.061 . S
Co257 O263 2.052 . S
Co257 O265 2.135 . S
O258 Co257 2.061 . S
O258 C261 1.235 . S
C259 O262 1.238 . S
C259 O263 1.241 . S
C260 O253 1.247 . S
C260 O254 1.261 . S
C261 O256 1.259 . S
C261 O258 1.235 . S
O262 Co252 2.022 . S
O262 C259 1.238 . S
O263 Co257 2.052 . S
O263 C259 1.241 . S
O264 Co252 2.137 1_565 S
O264 C255 1.247 1_565 S
O265 Co252 2.248 . S
O265 C255 1.272 . S
O265 Co257 2.135 . S
Co266 O267 2.216 . S
Co266 O268 2.091 . S
Co266 O270 2.004 . S
Co266 O276 2.021 . S
Co266 O278 2.137 1_554 S
Co266 O279 2.244 . S
O267 Co266 2.216 . S
O267 C274 1.247 . S
O268 Co266 2.091 . S
O268 C274 1.261 . S
C269 O278 1.247 . S
C269 O279 1.272 1_556 S
O270 Co266 2.004 . S
O270 C275 1.259 . S
Co271 O272 2.061 . S
Co271 O277 2.052 . S
Co271 O279 2.135 . S
O272 Co271 2.061 . S
O272 C275 1.235 . S
C273 O276 1.238 . S
C273 O277 1.241 . S
C274 O267 1.247 . S
C274 O268 1.261 . S
C275 O270 1.259 . S
C275 O272 1.235 . S
O276 Co266 2.021 . S
O276 C273 1.238 . S
O277 Co271 2.052 . S
O277 C273 1.241 . S
O278 Co266 2.137 1_556 S
O278 C269 1.247 . S
O279 Co266 2.244 . S
O279 C269 1.272 1_554 S
O279 Co271 2.135 . S
Co280 O281 2.216 . S
Co280 O282 2.091 1_556 S
Co280 O284 2.004 . S
Co280 O290 2.021 1_556 S
Co280 O292 2.137 . S
Co280 O293 2.244 . S
O281 Co280 2.216 . S
O281 C288 1.247 . S
O282 Co280 2.091 1_554 S
O282 C288 1.261 1_554 S
C283 O292 1.247 . S
C283 O293 1.272 . S
O284 Co280 2.004 . S
O284 C289 1.259 1_556 S
Co285 O286 2.061 1_556 S
Co285 O291 2.049 1_556 S
Co285 O293 2.136 . S
O286 Co285 2.061 1_554 S
O286 C289 1.235 . S
C287 O290 1.238 . S
C287 O291 1.241 . S
C288 O281 1.247 . S
C288 O282 1.261 1_556 S
C289 O284 1.259 1_554 S
C289 O286 1.235 . S
O290 Co280 2.021 1_554 S
O290 C287 1.238 . S
O291 Co285 2.049 1_554 S
O291 C287 1.241 . S
O292 Co280 2.137 . S
O292 C283 1.247 . S
O293 Co280 2.244 . S
O293 C283 1.272 . S
O293 Co285 2.136 . S
Co294 O295 2.216 . S
Co294 O296 2.091 . S
Co294 O298 2.004 . S
Co294 O304 2.021 . S
Co294 O306 2.137 . S
Co294 O307 2.244 . S
O295 Co294 2.216 . S
O295 C302 1.247 . S
O296 Co294 2.091 . S
O296 C302 1.261 . S
C297 O306 1.247 . S
C297 O307 1.272 . S
O298 Co294 2.004 . S
O298 C303 1.259 . S
Co299 O300 2.061 . S
Co299 O305 2.052 . S
Co299 O307 2.135 . S
O300 Co299 2.061 . S
O300 C303 1.235 . S
C301 O304 1.238 . S
C301 O305 1.241 . S
C302 O295 1.247 . S
C302 O296 1.261 . S
C303 O298 1.259 . S
C303 O300 1.235 . S
O304 Co294 2.021 . S
O304 C301 1.238 . S
O305 Co299 2.052 . S
O305 C301 1.241 . S
O306 Co294 2.137 . S
O306 C297 1.247 . S
O307 Co294 2.244 . S
O307 C297 1.272 . S
O307 Co299 2.135 . S
Co308 O309 2.216 . S
Co308 O310 2.091 . S
Co308 O312 2.004 . S
Co308 O318 2.021 . S
Co308 O320 2.137 . S
Co308 O321 2.244 . S
O309 Co308 2.216 . S
O309 C316 1.247 . S
O310 Co308 2.091 . S
O310 C316 1.261 . S
C311 O320 1.247 . S
C311 O321 1.272 . S
O312 Co308 2.004 . S
O312 C317 1.259 . S
Co313 O314 2.061 . S
Co313 O319 2.052 . S
Co313 O321 2.135 . S
O314 Co313 2.061 . S
O314 C317 1.235 . S
C315 O318 1.238 . S
C315 O319 1.241 . S
C316 O309 1.247 . S
C316 O310 1.261 . S
C317 O312 1.259 . S
C317 O314 1.235 . S
O318 Co308 2.021 . S
O318 C315 1.238 . S
O319 Co313 2.052 . S
O319 C315 1.241 . S
O320 Co308 2.137 . S
O320 C311 1.247 . S
O321 Co308 2.244 . S
O321 C311 1.272 . S
O321 Co313 2.135 . S
Co322 O323 2.216 . S
Co322 O324 2.091 . S
Co322 O326 2.004 . S
Co322 O332 2.021 . S
Co322 O334 2.137 . S
Co322 O335 2.244 . S
O323 Co322 2.216 . S
O323 C330 1.247 . S
O324 Co322 2.091 . S
O324 C330 1.261 . S
C325 O334 1.247 . S
C325 O335 1.272 . S
O326 Co322 2.004 . S
O326 C331 1.259 . S
Co327 O328 2.061 . S
Co327 O333 2.052 . S
Co327 O335 2.135 . S
O328 Co327 2.061 . S
O328 C331 1.235 . S
C329 O332 1.238 . S
C329 O333 1.241 . S
C330 O323 1.247 . S
C330 O324 1.261 . S
C331 O326 1.259 . S
C331 O328 1.235 . S
O332 Co322 2.021 . S
O332 C329 1.238 . S
O333 Co327 2.052 . S
O333 C329 1.241 . S
O334 Co322 2.137 . S
O334 C325 1.247 . S
O335 Co322 2.244 . S
O335 C325 1.272 . S
O335 Co327 2.135 . S
Co336 N341 2.057 1_554 S
Co336 O353 2.021 1_554 S
Co336 O356 2.062 1_455 S
Co336 O360 2.117 . S
Co336 O361 2.020 . S
C337 O357 1.259 . S
C337 O360 1.258 . S
Co338 N347 2.057 . S
Co338 O354 2.117 1_545 S
Co338 O355 2.020 1_455 S
Co338 O357 2.021 . S
Co338 O362 2.062 . S
C339 N341 1.322 . S
C339 N342 1.338 1_455 S
C339 H344 0.934 . S
C340 N341 1.375 1_655 S
C340 C343 1.350 . S
C340 H345 0.932 . S
N341 Co336 2.057 1_556 S
N341 C339 1.322 . S
N341 C340 1.375 1_455 S
N342 C339 1.338 1_655 S
N342 C343 1.373 . S
C343 C340 1.350 . S
C343 N342 1.373 . S
C343 H364 0.931 . S
H344 C339 0.934 . S
H345 C340 0.932 . S
C346 O353 1.259 1_564 S
C346 O354 1.258 . S
N347 Co338 2.057 . S
N347 C348 1.316 . S
N347 C349 1.375 1_545 S
C348 N347 1.316 . S
C348 N350 1.347 1_545 S
C348 H359 0.931 . S
C349 N347 1.375 1_565 S
C349 C351 1.350 . S
C349 H358 0.930 . S
N350 C348 1.347 1_565 S
N350 C351 1.373 . S
C351 C349 1.350 . S
C351 N350 1.373 . S
C351 H365 0.931 . S
C352 O355 1.256 . S
C352 O356 1.255 . S
O353 Co336 2.021 1_556 S
O353 C346 1.259 1_546 S
O354 Co338 2.117 1_565 S
O354 C346 1.258 . S
O355 Co338 2.020 1_655 S
O355 C352 1.256 . S
O356 Co336 2.062 1_655 S
O356 C352 1.255 . S
O357 C337 1.259 . S
O357 Co338 2.021 . S
H358 C349 0.930 . S
H359 C348 0.931 . S
O360 Co336 2.117 . S
O360 C337 1.258 . S
O361 Co336 2.020 . S
O361 C363 1.256 . S
O362 Co338 2.062 . S
O362 C363 1.255 . S
C363 O361 1.256 . S
C363 O362 1.255 . S
H364 C343 0.931 . S
H365 C351 0.931 . S
Co366 N371 2.057 . S
Co366 O383 2.021 . S
Co366 O386 2.062 . S
Co366 O390 2.117 . S
Co366 O391 2.020 . S
C367 O387 1.259 . S
C367 O390 1.258 . S
Co368 N377 2.057 . S
Co368 O384 2.117 . S
Co368 O385 2.020 . S
Co368 O387 2.021 . S
Co368 O392 2.062 . S
C369 N371 1.316 . S
C369 N372 1.347 . S
C369 H374 0.931 . S
C370 N371 1.375 . S
C370 C373 1.350 . S
C370 H375 0.930 . S
N371 Co366 2.057 . S
N371 C369 1.316 . S
N371 C370 1.375 . S
N372 C369 1.347 . S
N372 C373 1.373 . S
C373 C370 1.350 . S
C373 N372 1.373 . S
C373 H394 0.931 . S
H374 C369 0.931 . S
H375 C370 0.930 . S
C376 O383 1.259 . S
C376 O384 1.258 . S
N377 Co368 2.057 . S
N377 C378 1.316 . S
N377 C379 1.375 . S
C378 N377 1.316 . S
C378 N380 1.347 . S
C378 H389 0.931 . S
C379 N377 1.375 . S
C379 C381 1.350 . S
C379 H388 0.930 . S
N380 C378 1.347 . S
N380 C381 1.373 . S
C381 C379 1.350 . S
C381 N380 1.373 . S
C381 H395 0.931 . S
C382 O385 1.256 . S
C382 O386 1.255 . S
O383 Co366 2.021 . S
O383 C376 1.259 . S
O384 Co368 2.117 . S
O384 C376 1.258 . S
O385 Co368 2.020 . S
O385 C382 1.256 . S
O386 Co366 2.062 . S
O386 C382 1.255 . S
O387 C367 1.259 . S
O387 Co368 2.021 . S
H388 C379 0.930 . S
H389 C378 0.931 . S
O390 Co366 2.117 . S
O390 C367 1.258 . S
O391 Co366 2.020 . S
O391 C393 1.256 . S
O392 Co368 2.062 . S
O392 C393 1.255 . S
C393 O391 1.256 . S
C393 O392 1.255 . S
H394 C373 0.931 . S
H395 C381 0.931 . S
Co396 N401 2.057 . S
Co396 O413 2.021 1_545 S
Co396 O416 2.062 . S
Co396 O420 2.117 . S
Co396 O421 2.020 . S
C397 O417 1.259 . S
C397 O420 1.258 . S
Co398 N407 2.057 . S
Co398 O414 2.117 . S
Co398 O415 2.020 . S
Co398 O417 2.021 . S
Co398 O422 2.062 . S
C399 N401 1.316 1_565 S
C399 N402 1.347 1_565 S
C399 H404 0.931 . S
C400 N401 1.375 . S
C400 C403 1.350 . S
C400 H405 0.930 . S
N401 Co396 2.057 . S
N401 C399 1.316 1_545 S
N401 C400 1.375 . S
N402 C399 1.347 1_545 S
N402 C403 1.373 . S
C403 C400 1.350 . S
C403 N402 1.373 . S
C403 H424 0.931 . S
H404 C399 0.931 . S
H405 C400 0.930 . S
C406 O413 1.259 . S
C406 O414 1.258 1_565 S
N407 Co398 2.057 . S
N407 C408 1.316 . S
N407 C409 1.375 . S
C408 N407 1.316 . S
C408 N410 1.347 . S
C408 H419 0.931 . S
C409 N407 1.375 . S
C409 C411 1.350 . S
C409 H418 0.930 . S
N410 C408 1.347 . S
N410 C411 1.373 . S
C411 C409 1.350 . S
C411 N410 1.373 . S
C411 H425 0.931 . S
C412 O415 1.256 . S
C412 O416 1.255 . S
O413 Co396 2.021 1_565 S
O413 C406 1.259 . S
O414 Co398 2.117 . S
O414 C406 1.258 1_545 S
O415 Co398 2.020 . S
O415 C412 1.256 . S
O416 Co396 2.062 . S
O416 C412 1.255 . S
O417 C397 1.259 . S
O417 Co398 2.021 . S
H418 C409 0.930 . S
H419 C408 0.931 . S
O420 Co396 2.117 . S
O420 C397 1.258 . S
O421 Co396 2.020 . S
O421 C423 1.256 . S
O422 Co398 2.062 . S
O422 C423 1.255 . S
C423 O421 1.256 . S
C423 O422 1.255 . S
H424 C403 0.931 . S
H425 C411 0.931 . S
Co426 N431 2.057 . S
Co426 O443 2.021 . S
Co426 O446 2.062 . S
Co426 O450 2.117 . S
Co426 O451 2.020 . S
C427 O447 1.259 . S
C427 O450 1.258 . S
Co428 N437 2.057 . S
Co428 O444 2.117 . S
Co428 O445 2.020 . S
Co428 O447 2.021 . S
Co428 O452 2.062 . S
C429 N431 1.316 . S
C429 N432 1.347 . S
C429 H434 0.931 . S
C430 N431 1.375 . S
C430 C433 1.350 . S
C430 H435 0.930 . S
N431 Co426 2.057 . S
N431 C429 1.316 . S
N431 C430 1.375 . S
N432 C429 1.347 . S
N432 C433 1.373 . S
C433 C430 1.350 . S
C433 N432 1.373 . S
C433 H454 0.931 . S
H434 C429 0.931 . S
H435 C430 0.930 . S
C436 O443 1.259 . S
C436 O444 1.258 . S
N437 Co428 2.057 . S
N437 C438 1.316 . S
N437 C439 1.375 . S
C438 N437 1.316 . S
C438 N440 1.347 . S
C438 H449 0.931 . S
C439 N437 1.375 . S
C439 C441 1.350 . S
C439 H448 0.930 . S
N440 C438 1.347 . S
N440 C441 1.373 . S
C441 C439 1.350 . S
C441 N440 1.373 . S
C441 H455 0.931 . S
C442 O445 1.256 . S
C442 O446 1.255 . S
O443 Co426 2.021 . S
O443 C436 1.259 . S
O444 Co428 2.117 . S
O444 C436 1.258 . S
O445 Co428 2.020 . S
O445 C442 1.256 . S
O446 Co426 2.062 . S
O446 C442 1.255 . S
O447 C427 1.259 . S
O447 Co428 2.021 . S
H448 C439 0.930 . S
H449 C438 0.931 . S
O450 Co426 2.117 . S
O450 C427 1.258 . S
O451 Co426 2.020 . S
O451 C453 1.256 . S
O452 Co428 2.062 . S
O452 C453 1.255 . S
C453 O451 1.256 . S
C453 O452 1.255 . S
H454 C433 0.931 . S
H455 C441 0.931 . S
Co456 N461 2.057 1_545 S
Co456 O473 2.021 . S
Co456 O476 2.062 1_545 S
Co456 O480 2.117 . S
Co456 O481 2.020 1_455 S
C457 O477 1.259 . S
C457 O480 1.258 . S
Co458 N467 2.057 . S
Co458 O474 2.117 . S
Co458 O475 2.020 . S
Co458 O477 2.021 . S
Co458 O482 2.062 1_455 S
C459 N461 1.316 . S
C459 N462 1.347 . S
C459 H464 0.931 . S
C460 N461 1.375 1_655 S
C460 C463 1.350 . S
C460 H465 0.930 . S
N461 Co456 2.057 1_565 S
N461 C459 1.316 . S
N461 C460 1.375 1_455 S
N462 C459 1.347 . S
N462 C463 1.373 1_455 S
C463 C460 1.350 . S
C463 N462 1.373 1_655 S
C463 H484 0.931 . S
H464 C459 0.931 . S
H465 C460 0.930 . S
C466 O473 1.259 . S
C466 O474 1.258 . S
N467 Co458 2.057 . S
N467 C468 1.316 . S
N467 C469 1.375 . S
C468 N467 1.316 . S
C468 N470 1.347 . S
C468 H479 0.931 . S
C469 N467 1.375 . S
C469 C471 1.350 . S
C469 H478 0.930 . S
N470 C468 1.347 . S
N470 C471 1.373 . S
C471 C469 1.350 . S
C471 N470 1.373 . S
C471 H485 0.931 . S
C472 O475 1.256 . S
C472 O476 1.255 1_545 S
O473 Co456 2.021 . S
O473 C466 1.259 . S
O474 Co458 2.117 . S
O474 C466 1.258 . S
O475 Co458 2.020 . S
O475 C472 1.256 . S
O476 Co456 2.062 1_565 S
O476 C472 1.255 1_565 S
O477 C457 1.259 . S
O477 Co458 2.021 . S
H478 C469 0.930 . S
H479 C468 0.931 . S
O480 Co456 2.117 . S
O480 C457 1.258 . S
O481 Co456 2.020 1_655 S
O481 C483 1.256 . S
O482 Co458 2.062 1_655 S
O482 C483 1.255 . S
C483 O481 1.256 . S
C483 O482 1.255 . S
H484 C463 0.931 . S
H485 C471 0.931 . S
Co486 N491 2.057 . S
Co486 O503 2.021 . S
Co486 O506 2.062 . S
Co486 O510 2.117 . S
Co486 O511 2.020 . S
C487 O507 1.259 . S
C487 O510 1.258 . S
Co488 N497 2.057 . S
Co488 O504 2.117 . S
Co488 O505 2.020 . S
Co488 O507 2.021 . S
Co488 O512 2.062 . S
C489 N491 1.316 . S
C489 N492 1.347 . S
C489 H494 0.931 . S
C490 N491 1.375 . S
C490 C493 1.350 . S
C490 H495 0.930 . S
N491 Co486 2.057 . S
N491 C489 1.316 . S
N491 C490 1.375 . S
N492 C489 1.347 . S
N492 C493 1.373 . S
C493 C490 1.350 . S
C493 N492 1.373 . S
C493 H514 0.931 . S
H494 C489 0.931 . S
H495 C490 0.930 . S
C496 O503 1.259 . S
C496 O504 1.258 . S
N497 Co488 2.057 . S
N497 C498 1.316 . S
N497 C499 1.375 . S
C498 N497 1.316 . S
C498 N500 1.347 . S
C498 H509 0.931 . S
C499 N497 1.375 . S
C499 C501 1.350 . S
C499 H508 0.930 . S
N500 C498 1.347 . S
N500 C501 1.373 . S
C501 C499 1.350 . S
C501 N500 1.373 . S
C501 H515 0.931 . S
C502 O505 1.256 . S
C502 O506 1.255 . S
O503 Co486 2.021 . S
O503 C496 1.259 . S
O504 Co488 2.117 . S
O504 C496 1.258 . S
O505 Co488 2.020 . S
O505 C502 1.256 . S
O506 Co486 2.062 . S
O506 C502 1.255 . S
O507 C487 1.259 . S
O507 Co488 2.021 . S
H508 C499 0.930 . S
H509 C498 0.931 . S
O510 Co486 2.117 . S
O510 C487 1.258 . S
O511 Co486 2.020 . S
O511 C513 1.256 . S
O512 Co488 2.062 . S
O512 C513 1.255 . S
C513 O511 1.256 . S
C513 O512 1.255 . S
H514 C493 0.931 . S
H515 C501 0.931 . S
Co516 N521 2.057 1_554 S
Co516 O533 2.021 . S
Co516 O536 2.062 1_554 S
Co516 O540 2.117 . S
Co516 O541 2.020 1_545 S
C517 O537 1.259 . S
C517 O540 1.258 . S
Co518 N527 2.057 . S
Co518 O534 2.117 . S
Co518 O535 2.020 . S
Co518 O537 2.021 . S
Co518 O542 2.081 . S
C519 N521 1.316 . S
C519 N522 1.347 . S
C519 H524 0.931 . S
C520 N521 1.375 . S
C520 C523 1.350 . S
C520 H525 0.930 1_545 S
N521 Co516 2.057 1_556 S
N521 C519 1.316 . S
N521 C520 1.375 . S
N522 C519 1.347 . S
N522 C523 1.373 . S
C523 C520 1.350 . S
C523 N522 1.373 . S
C523 H544 0.931 1_545 S
H524 C519 0.931 . S
H525 C520 0.930 1_565 S
C526 O533 1.259 . S
C526 O534 1.258 . S
N527 Co518 2.057 . S
N527 C528 1.316 . S
N527 C529 1.375 . S
C528 N527 1.316 . S
C528 N530 1.347 . S
C528 H539 0.931 . S
C529 N527 1.375 . S
C529 C531 1.350 . S
C529 H538 0.930 . S
N530 C528 1.347 . S
N530 C531 1.373 . S
C531 C529 1.350 . S
C531 N530 1.373 . S
C531 H545 0.931 . S
C532 O535 1.256 . S
C532 O536 1.255 1_554 S
O533 Co516 2.021 . S
O533 C526 1.259 . S
O534 Co518 2.117 . S
O534 C526 1.258 . S
O535 Co518 2.020 . S
O535 C532 1.256 . S
O536 Co516 2.062 1_556 S
O536 C532 1.255 1_556 S
O537 C517 1.259 . S
O537 Co518 2.021 . S
H538 C529 0.930 . S
H539 C528 0.931 . S
O540 Co516 2.117 . S
O540 C517 1.258 . S
O541 Co516 2.020 1_565 S
O541 C543 1.256 . S
O542 Co518 2.081 . S
O542 C543 1.242 1_545 S
C543 O541 1.256 . S
C543 O542 1.242 1_565 S
H544 C523 0.931 1_565 S
H545 C531 0.931 . S
Co546 N551 2.057 . S
Co546 O563 2.021 . S
Co546 O566 2.062 . S
Co546 O570 2.117 . S
Co546 O571 2.020 . S
C547 O567 1.259 . S
C547 O570 1.258 . S
Co548 N557 2.057 . S
Co548 O564 2.117 . S
Co548 O565 2.020 . S
Co548 O567 2.021 . S
Co548 O572 2.062 . S
C549 N551 1.316 . S
C549 N552 1.347 . S
C549 H554 0.931 . S
C550 N551 1.375 . S
C550 C553 1.350 . S
C550 H555 0.930 . S
N551 Co546 2.057 . S
N551 C549 1.316 . S
N551 C550 1.375 . S
N552 C549 1.347 . S
N552 C553 1.373 . S
C553 C550 1.350 . S
C553 N552 1.373 . S
C553 H574 0.931 . S
H554 C549 0.931 . S
H555 C550 0.930 . S
C556 O563 1.259 . S
C556 O564 1.258 . S
N557 Co548 2.057 . S
N557 C558 1.316 . S
N557 C559 1.375 . S
C558 N557 1.316 . S
C558 N560 1.347 . S
C558 H569 0.931 . S
C559 N557 1.375 . S
C559 C561 1.350 . S
C559 H568 0.930 . S
N560 C558 1.347 . S
N560 C561 1.373 . S
C561 C559 1.350 . S
C561 N560 1.373 . S
C561 H575 0.931 . S
C562 O565 1.256 . S
C562 O566 1.255 . S
O563 Co546 2.021 . S
O563 C556 1.259 . S
O564 Co548 2.117 . S
O564 C556 1.258 . S
O565 Co548 2.020 . S
O565 C562 1.256 . S
O566 Co546 2.062 . S
O566 C562 1.255 . S
O567 C547 1.259 . S
O567 Co548 2.021 . S
H568 C559 0.930 . S
H569 C558 0.931 . S
O570 Co546 2.117 . S
O570 C547 1.258 . S
O571 Co546 2.020 . S
O571 C573 1.256 . S
O572 Co548 2.062 . S
O572 C573 1.255 . S
C573 O571 1.256 . S
C573 O572 1.255 . S
H574 C553 0.931 . S
H575 C561 0.931 . S
Co576 N581 2.057 . S
Co576 O593 2.021 1_554 S
Co576 O596 2.062 . S
Co576 O600 2.117 . S
Co576 O601 2.020 . S
C577 O597 1.259 . S
C577 O600 1.258 . S
Co578 N587 2.057 . S
Co578 O594 2.119 . S
Co578 O595 2.020 . S
Co578 O597 2.021 . S
Co578 O602 2.062 . S
C579 N581 1.316 1_556 S
C579 N582 1.347 1_556 S
C579 H584 0.931 . S
C580 N581 1.375 . S
C580 C583 1.350 . S
C580 H585 0.930 . S
N581 Co576 2.057 . S
N581 C579 1.316 1_554 S
N581 C580 1.375 . S
N582 C579 1.347 1_554 S
N582 C583 1.373 . S
C583 C580 1.350 . S
C583 N582 1.373 . S
C583 H604 0.931 . S
H584 C579 0.931 . S
H585 C580 0.930 . S
C586 O593 1.259 . S
C586 O594 1.256 1_556 S
N587 Co578 2.057 . S
N587 C588 1.316 . S
N587 C589 1.375 . S
C588 N587 1.316 . S
C588 N590 1.347 . S
C588 H599 0.931 . S
C589 N587 1.375 . S
C589 C591 1.350 . S
C589 H598 0.930 . S
N590 C588 1.347 . S
N590 C591 1.373 . S
C591 C589 1.350 . S
C591 N590 1.373 . S
C591 H605 0.931 . S
C592 O595 1.256 . S
C592 O596 1.255 . S
O593 Co576 2.021 1_556 S
O593 C586 1.259 . S
O594 Co578 2.119 . S
O594 C586 1.256 1_554 S
O595 Co578 2.020 . S
O595 C592 1.256 . S
O596 Co576 2.062 . S
O596 C592 1.255 . S
O597 C577 1.259 . S
O597 Co578 2.021 . S
H598 C589 0.930 . S
H599 C588 0.931 . S
O600 Co576 2.117 . S
O600 C577 1.258 . S
O601 Co576 2.020 . S
O601 C603 1.256 . S
O602 Co578 2.062 . S
O602 C603 1.255 . S
C603 O601 1.256 . S
C603 O602 1.255 . S
H604 C583 0.931 . S
H605 C591 0.931 . S
Co606 N611 2.057 . S
Co606 O623 2.021 . S
Co606 O626 2.062 . S
Co606 O630 2.117 . S
Co606 O631 2.020 . S
C607 O627 1.259 . S
C607 O630 1.258 . S
Co608 N617 2.057 . S
Co608 O624 2.117 . S
Co608 O625 2.020 . S
Co608 O627 2.021 . S
Co608 O632 2.062 . S
C609 N611 1.316 . S
C609 N612 1.347 . S
C609 H614 0.931 . S
C610 N611 1.375 . S
C610 C613 1.350 . S
C610 H615 0.930 . S
N611 Co606 2.057 . S
N611 C609 1.316 . S
N611 C610 1.375 . S
N612 C609 1.347 . S
N612 C613 1.373 . S
C613 C610 1.350 . S
C613 N612 1.373 . S
C613 H634 0.931 . S
H614 C609 0.931 . S
H615 C610 0.930 . S
C616 O623 1.259 . S
C616 O624 1.258 . S
N617 Co608 2.057 . S
N617 C618 1.316 . S
N617 C619 1.375 . S
C618 N617 1.316 . S
C618 N620 1.347 . S
C618 H629 0.931 . S
C619 N617 1.375 . S
C619 C621 1.350 . S
C619 H628 0.930 . S
N620 C618 1.347 . S
N620 C621 1.373 . S
C621 C619 1.350 . S
C621 N620 1.373 . S
C621 H635 0.931 . S
C622 O625 1.256 . S
C622 O626 1.255 . S
O623 Co606 2.021 . S
O623 C616 1.259 . S
O624 Co608 2.117 . S
O624 C616 1.258 . S
O625 Co608 2.020 . S
O625 C622 1.256 . S
O626 Co606 2.062 . S
O626 C622 1.255 . S
O627 C607 1.259 . S
O627 Co608 2.021 . S
H628 C619 0.930 . S
H629 C618 0.931 . S
O630 Co606 2.117 . S
O630 C607 1.258 . S
O631 Co606 2.020 . S
O631 C633 1.256 . S
O632 Co608 2.062 . S
O632 C633 1.255 . S
C633 O631 1.256 . S
C633 O632 1.255 . S
H634 C613 0.931 . S
H635 C621 0.931 . S
Co636 N641 2.057 . S
Co636 O653 2.021 1_455 S
Co636 O656 2.062 . S
Co636 O660 2.117 . S
Co636 O661 2.020 . S
C637 O657 1.259 . S
C637 O660 1.258 . S
Co638 N647 2.057 . S
Co638 O654 2.117 1_455 S
Co638 O655 2.020 . S
Co638 O657 2.021 . S
Co638 O662 2.062 . S
C639 N641 1.316 1_655 S
C639 N642 1.347 . S
C639 H644 0.931 . S
C640 N641 1.375 . S
C640 C643 1.350 . S
C640 H645 0.930 . S
N641 Co636 2.057 . S
N641 C639 1.316 1_455 S
N641 C640 1.375 . S
N642 C639 1.347 . S
N642 C643 1.373 1_655 S
C643 C640 1.350 . S
C643 N642 1.373 1_455 S
C643 H664 0.931 . S
H644 C639 0.931 . S
H645 C640 0.930 . S
C646 O653 1.259 . S
C646 O654 1.258 . S
N647 Co638 2.057 . S
N647 C648 1.316 . S
N647 C649 1.375 . S
C648 N647 1.316 . S
C648 N650 1.347 . S
C648 H659 0.931 . S
C649 N647 1.375 . S
C649 C651 1.350 . S
C649 H658 0.930 . S
N650 C648 1.347 . S
N650 C651 1.373 . S
C651 C649 1.350 . S
C651 N650 1.373 . S
C651 H665 0.931 . S
C652 O655 1.256 . S
C652 O656 1.255 . S
O653 Co636 2.021 1_655 S
O653 C646 1.259 . S
O654 Co638 2.117 1_655 S
O654 C646 1.258 . S
O655 Co638 2.020 . S
O655 C652 1.256 . S
O656 Co636 2.062 . S
O656 C652 1.255 . S
O657 C637 1.259 . S
O657 Co638 2.021 . S
H658 C649 0.930 . S
H659 C648 0.931 . S
O660 Co636 2.117 . S
O660 C637 1.258 . S
O661 Co636 2.020 . S
O661 C663 1.256 . S
O662 Co638 2.062 . S
O662 C663 1.255 . S
C663 O661 1.256 . S
C663 O662 1.255 . S
H664 C643 0.931 . S
H665 C651 0.931 . S
Co666 N671 2.057 . S
Co666 O683 2.021 . S
Co666 O686 2.062 . S
Co666 O690 2.117 . S
Co666 O691 2.020 . S
C667 O687 1.259 . S
C667 O690 1.258 . S
Co668 N677 2.057 . S
Co668 O684 2.117 . S
Co668 O685 2.020 . S
Co668 O687 2.021 . S
Co668 O692 2.062 . S
C669 N671 1.316 . S
C669 N672 1.347 . S
C669 H674 0.931 . S
C670 N671 1.375 . S
C670 C673 1.350 . S
C670 H675 0.930 . S
N671 Co666 2.057 . S
N671 C669 1.316 . S
N671 C670 1.375 . S
N672 C669 1.347 . S
N672 C673 1.373 . S
C673 C670 1.350 . S
C673 N672 1.373 . S
C673 H694 0.931 . S
H674 C669 0.931 . S
H675 C670 0.930 . S
C676 O683 1.259 . S
C676 O684 1.258 . S
N677 Co668 2.057 . S
N677 C678 1.316 . S
N677 C679 1.375 . S
C678 N677 1.316 . S
C678 N680 1.347 . S
C678 H689 0.931 . S
C679 N677 1.375 . S
C679 C681 1.350 . S
C679 H688 0.930 . S
N680 C678 1.347 . S
N680 C681 1.373 . S
C681 C679 1.350 . S
C681 N680 1.373 . S
C681 H695 0.931 . S
C682 O685 1.256 . S
C682 O686 1.255 . S
O683 Co666 2.021 . S
O683 C676 1.259 . S
O684 Co668 2.117 . S
O684 C676 1.258 . S
O685 Co668 2.020 . S
O685 C682 1.256 . S
O686 Co666 2.062 . S
O686 C682 1.255 . S
O687 C667 1.259 . S
O687 Co668 2.021 . S
H688 C679 0.930 . S
H689 C678 0.931 . S
O690 Co666 2.117 . S
O690 C667 1.258 . S
O691 Co666 2.020 . S
O691 C693 1.256 . S
O692 Co668 2.062 . S
O692 C693 1.255 . S
C693 O691 1.256 . S
C693 O692 1.255 . S
H694 C673 0.931 . S
H695 C681 0.931 . S
Co696 N701 2.057 . S
Co696 O713 2.021 . S
Co696 O716 2.062 . S
Co696 O720 2.117 . S
Co696 O721 2.020 . S
C697 O717 1.259 . S
C697 O720 1.258 . S
Co698 N707 2.057 . S
Co698 O714 2.117 . S
Co698 O715 2.020 . S
Co698 O717 2.021 . S
Co698 O722 2.062 . S
C699 N701 1.316 . S
C699 N702 1.347 . S
C699 H704 0.931 . S
C700 N701 1.375 . S
C700 C703 1.350 . S
C700 H705 0.930 . S
N701 Co696 2.057 . S
N701 C699 1.316 . S
N701 C700 1.375 . S
N702 C699 1.347 . S
N702 C703 1.373 . S
C703 C700 1.350 . S
C703 N702 1.373 . S
C703 H724 0.931 . S
H704 C699 0.931 . S
H705 C700 0.930 . S
C706 O713 1.259 . S
C706 O714 1.258 . S
N707 Co698 2.057 . S
N707 C708 1.316 . S
N707 C709 1.375 . S
C708 N707 1.316 . S
C708 N710 1.347 . S
C708 H719 0.931 . S
C709 N707 1.375 . S
C709 C711 1.350 . S
C709 H718 0.930 . S
N710 C708 1.347 . S
N710 C711 1.373 . S
C711 C709 1.350 . S
C711 N710 1.373 . S
C711 H725 0.931 . S
C712 O715 1.256 . S
C712 O716 1.255 . S
O713 Co696 2.021 . S
O713 C706 1.259 . S
O714 Co698 2.117 . S
O714 C706 1.258 . S
O715 Co698 2.020 . S
O715 C712 1.256 . S
O716 Co696 2.062 . S
O716 C712 1.255 . S
O717 C697 1.259 . S
O717 Co698 2.021 . S
H718 C709 0.930 . S
H719 C708 0.931 . S
O720 Co696 2.117 . S
O720 C697 1.258 . S
O721 Co696 2.020 . S
O721 C723 1.256 . S
O722 Co698 2.062 . S
O722 C723 1.255 . S
C723 O721 1.256 . S
C723 O722 1.255 . S
H724 C703 0.931 . S
H725 C711 0.931 . S
Co726 N731 2.057 . S
Co726 O743 2.021 . S
Co726 O746 2.062 . S
Co726 O750 2.117 . S
Co726 O751 2.020 . S
C727 O747 1.259 . S
C727 O750 1.258 . S
Co728 N737 2.057 . S
Co728 O744 2.117 . S
Co728 O745 2.020 . S
Co728 O747 2.021 . S
Co728 O752 2.062 . S
C729 N731 1.316 . S
C729 N732 1.347 . S
C729 H734 0.931 . S
C730 N731 1.375 . S
C730 C733 1.350 . S
C730 H735 0.930 . S
N731 Co726 2.057 . S
N731 C729 1.316 . S
N731 C730 1.375 . S
N732 C729 1.347 . S
N732 C733 1.373 . S
C733 C730 1.350 . S
C733 N732 1.373 . S
C733 H754 0.931 . S
H734 C729 0.931 . S
H735 C730 0.930 . S
C736 O743 1.259 . S
C736 O744 1.258 . S
N737 Co728 2.057 . S
N737 C738 1.316 . S
N737 C739 1.375 . S
C738 N737 1.316 . S
C738 N740 1.347 . S
C738 H749 0.931 . S
C739 N737 1.375 . S
C739 C741 1.350 . S
C739 H748 0.930 . S
N740 C738 1.347 . S
N740 C741 1.373 . S
C741 C739 1.350 . S
C741 N740 1.373 . S
C741 H755 0.931 . S
C742 O745 1.256 . S
C742 O746 1.255 . S
O743 Co726 2.021 . S
O743 C736 1.259 . S
O744 Co728 2.117 . S
O744 C736 1.258 . S
O745 Co728 2.020 . S
O745 C742 1.256 . S
O746 Co726 2.062 . S
O746 C742 1.255 . S
O747 C727 1.259 . S
O747 Co728 2.021 . S
H748 C739 0.930 . S
H749 C738 0.931 . S
O750 Co726 2.117 . S
O750 C727 1.258 . S
O751 Co726 2.020 . S
O751 C753 1.256 . S
O752 Co728 2.062 . S
O752 C753 1.255 . S
C753 O751 1.256 . S
C753 O752 1.255 . S
H754 C733 0.931 . S
H755 C741 0.931 . S
Co756 N761 2.057 . S
Co756 O773 2.021 . S
Co756 O776 2.062 . S
Co756 O780 2.117 . S
Co756 O781 2.020 . S
C757 O777 1.259 . S
C757 O780 1.258 . S
Co758 N767 2.057 . S
Co758 O774 2.117 . S
Co758 O775 2.020 . S
Co758 O777 2.021 . S
Co758 O782 2.062 . S
C759 N761 1.316 . S
C759 N762 1.347 . S
C759 H764 0.931 . S
C760 N761 1.375 . S
C760 C763 1.350 . S
C760 H765 0.930 . S
N761 Co756 2.057 . S
N761 C759 1.316 . S
N761 C760 1.375 . S
N762 C759 1.347 . S
N762 C763 1.373 . S
C763 C760 1.350 . S
C763 N762 1.373 . S
C763 H784 0.931 . S
H764 C759 0.931 . S
H765 C760 0.930 . S
C766 O773 1.259 . S
C766 O774 1.258 . S
N767 Co758 2.057 . S
N767 C768 1.316 . S
N767 C769 1.375 . S
C768 N767 1.316 . S
C768 N770 1.347 . S
C768 H779 0.931 . S
C769 N767 1.375 . S
C769 C771 1.350 . S
C769 H778 0.930 . S
N770 C768 1.347 . S
N770 C771 1.373 . S
C771 C769 1.350 . S
C771 N770 1.373 . S
C771 H785 0.931 . S
C772 O775 1.256 . S
C772 O776 1.255 . S
O773 Co756 2.021 . S
O773 C766 1.259 . S
O774 Co758 2.117 . S
O774 C766 1.258 . S
O775 Co758 2.020 . S
O775 C772 1.256 . S
O776 Co756 2.062 . S
O776 C772 1.255 . S
O777 C757 1.259 . S
O777 Co758 2.021 . S
H778 C769 0.930 . S
H779 C768 0.931 . S
O780 Co756 2.117 . S
O780 C757 1.258 . S
O781 Co756 2.020 . S
O781 C783 1.256 . S
O782 Co758 2.062 . S
O782 C783 1.255 . S
C783 O781 1.256 . S
C783 O782 1.255 . S
H784 C763 0.931 . S
H785 C771 0.931 . S
Co786 N791 2.057 1_455 S
Co786 O803 2.021 . S
Co786 O806 2.062 1_455 S
Co786 O810 2.117 . S
Co786 O811 2.020 1_554 S
C787 O807 1.259 . S
C787 O810 1.258 . S
Co788 N797 2.057 . S
Co788 O804 2.117 . S
Co788 O805 2.020 . S
Co788 O807 2.021 . S
Co788 O812 2.062 1_554 S
C789 N791 1.316 . S
C789 N792 1.347 . S
C789 H794 0.931 . S
C790 N791 1.375 1_556 S
C790 C793 1.350 . S
C790 H795 0.930 . S
N791 Co786 2.057 1_655 S
N791 C789 1.316 . S
N791 C790 1.375 1_554 S
N792 C789 1.347 . S
N792 C793 1.373 1_554 S
C793 C790 1.350 . S
C793 N792 1.373 1_556 S
C793 H814 0.931 . S
H794 C789 0.931 . S
H795 C790 0.930 . S
C796 O803 1.259 . S
C796 O804 1.258 . S
N797 Co788 2.057 . S
N797 C798 1.316 . S
N797 C799 1.375 . S
C798 N797 1.316 . S
C798 N800 1.347 . S
C798 H809 0.931 . S
C799 N797 1.375 . S
C799 C801 1.350 . S
C799 H808 0.930 . S
N800 C798 1.347 . S
N800 C801 1.373 . S
C801 C799 1.350 . S
C801 N800 1.373 . S
C801 H815 0.931 . S
C802 O805 1.256 . S
C802 O806 1.255 1_455 S
O803 Co786 2.021 . S
O803 C796 1.259 . S
O804 Co788 2.117 . S
O804 C796 1.258 . S
O805 Co788 2.020 . S
O805 C802 1.256 . S
O806 Co786 2.062 1_655 S
O806 C802 1.255 1_655 S
O807 C787 1.259 . S
O807 Co788 2.021 . S
H808 C799 0.930 . S
H809 C798 0.931 . S
O810 Co786 2.117 . S
O810 C787 1.258 . S
O811 Co786 2.020 1_556 S
O811 C813 1.256 . S
O812 Co788 2.062 1_556 S
O812 C813 1.255 . S
C813 O811 1.256 . S
C813 O812 1.255 . S
H814 C793 0.931 . S
H815 C801 0.931 . S
C816 C817 1.369 . S
C816 C818 1.419 . S
C816 H820 0.930 . S
C817 C816 1.369 . S
C817 C826 1.429 . S
C818 C816 1.419 . S
C818 C819 1.363 . S
C818 H821 0.929 . S
C819 C818 1.363 . S
C819 C825 1.428 . S
H820 C816 0.930 . S
H821 C818 0.929 . S
S822 N823 1.613 . S
S822 N824 1.610 . S
N823 S822 1.613 . S
N823 C826 1.350 . S
N824 S822 1.610 . S
N824 C825 1.351 . S
C825 C819 1.428 . S
C825 N824 1.351 . S
C825 C826 1.434 . S
C826 C817 1.429 . S
C826 N823 1.350 . S
C826 C825 1.434 . S
C827 C828 1.369 . S
C827 C829 1.419 . S
C827 H831 0.930 . S
C828 C827 1.369 . S
C828 C837 1.429 . S
C829 C827 1.419 . S
C829 C830 1.363 . S
C829 H832 0.929 . S
C830 C829 1.363 . S
C830 C836 1.428 . S
H831 C827 0.930 . S
H832 C829 0.929 . S
S833 N834 1.613 . S
S833 N835 1.610 . S
N834 S833 1.613 . S
N834 C837 1.350 . S
N835 S833 1.610 . S
N835 C836 1.351 . S
C836 C830 1.428 . S
C836 N835 1.351 . S
C836 C837 1.434 . S
C837 C828 1.429 . S
C837 N834 1.350 . S
C837 C836 1.434 . S
C838 C839 1.369 . S
C838 C840 1.419 . S
C838 H842 0.930 . S
C839 C838 1.369 . S
C839 C848 1.429 . S
C840 C838 1.419 . S
C840 C841 1.363 . S
C840 H843 0.929 . S
C841 C840 1.363 . S
C841 C847 1.428 . S
H842 C838 0.930 . S
H843 C840 0.929 . S
S844 N845 1.613 . S
S844 N846 1.610 . S
N845 S844 1.613 . S
N845 C848 1.350 . S
N846 S844 1.610 . S
N846 C847 1.351 . S
C847 C841 1.428 . S
C847 N846 1.351 . S
C847 C848 1.434 . S
C848 C839 1.429 . S
C848 N845 1.350 . S
C848 C847 1.434 . S
C849 C850 1.369 . S
C849 C851 1.419 . S
C849 H853 0.930 . S
C850 C849 1.369 . S
C850 C859 1.429 . S
C851 C849 1.419 . S
C851 C852 1.363 . S
C851 H854 0.929 . S
C852 C851 1.363 . S
C852 C858 1.428 . S
H853 C849 0.930 . S
H854 C851 0.929 . S
S855 N856 1.613 . S
S855 N857 1.610 . S
N856 S855 1.613 . S
N856 C859 1.350 . S
N857 S855 1.610 . S
N857 C858 1.351 . S
C858 C852 1.428 . S
C858 N857 1.351 . S
C858 C859 1.434 . S
C859 C850 1.429 . S
C859 N856 1.350 . S
C859 C858 1.434 . S
C860 C861 1.369 . S
C860 C862 1.419 . S
C860 H864 0.930 . S
C861 C860 1.369 . S
C861 C870 1.429 . S
C862 C860 1.419 . S
C862 C863 1.363 . S
C862 H865 0.929 1_455 S
C863 C862 1.363 . S
C863 C869 1.428 . S
H864 C860 0.930 . S
H865 C862 0.929 1_655 S
S866 N867 1.613 . S
S866 N868 1.610 . S
N867 S866 1.613 . S
N867 C870 1.350 . S
N868 S866 1.610 . S
N868 C869 1.351 . S
C869 C863 1.428 . S
C869 N868 1.351 . S
C869 C870 1.434 . S
C870 C861 1.429 . S
C870 N867 1.350 . S
C870 C869 1.434 . S
C871 C872 1.369 . S
C871 C873 1.419 . S
C871 H875 0.930 . S
C872 C871 1.369 . S
C872 C881 1.429 . S
C873 C871 1.419 . S
C873 C874 1.363 . S
C873 H876 0.929 . S
C874 C873 1.363 . S
C874 C880 1.428 . S
H875 C871 0.930 . S
H876 C873 0.929 . S
S877 N878 1.613 . S
S877 N879 1.610 . S
N878 S877 1.613 . S
N878 C881 1.350 . S
N879 S877 1.610 . S
N879 C880 1.351 . S
C880 C874 1.428 . S
C880 N879 1.351 . S
C880 C881 1.434 . S
C881 C872 1.429 . S
C881 N878 1.350 . S
C881 C880 1.434 . S
C882 C883 1.369 . S
C882 C884 1.419 1_556 S
C882 H886 0.930 . S
C883 C882 1.369 . S
C883 C892 1.429 . S
C884 C882 1.419 1_554 S
C884 C885 1.363 1_554 S
C884 H887 0.929 . S
C885 C884 1.363 1_556 S
C885 C891 1.428 . S
H886 C882 0.930 . S
H887 C884 0.929 . S
S888 N889 1.613 . S
S888 N890 1.610 . S
N889 S888 1.613 . S
N889 C892 1.350 . S
N890 S888 1.610 . S
N890 C891 1.351 . S
C891 C885 1.428 . S
C891 N890 1.351 . S
C891 C892 1.434 . S
C892 C883 1.429 . S
C892 N889 1.350 . S
C892 C891 1.434 . S
C893 C894 1.369 . S
C893 C895 1.419 . S
C893 H897 0.930 . S
C894 C893 1.369 . S
C894 C903 1.429 . S
C895 C893 1.419 . S
C895 C896 1.363 . S
C895 H898 0.929 . S
C896 C895 1.363 . S
C896 C902 1.428 . S
H897 C893 0.930 . S
H898 C895 0.929 . S
S899 N900 1.613 . S
S899 N901 1.610 . S
N900 S899 1.613 . S
N900 C903 1.350 . S
N901 S899 1.610 . S
N901 C902 1.351 . S
C902 C896 1.428 . S
C902 N901 1.351 . S
C902 C903 1.434 . S
C903 C894 1.429 . S
C903 N900 1.350 . S
C903 C902 1.434 . S
C904 C905 1.369 1_565 S
C904 C906 1.419 . S
C904 H908 0.930 . S
C905 C904 1.369 1_545 S
C905 C914 1.429 . S
C906 C904 1.419 . S
C906 C907 1.363 1_565 S
C906 H909 0.929 . S
C907 C906 1.363 1_545 S
C907 C913 1.428 . S
H908 C904 0.930 . S
H909 C906 0.929 . S
S910 N911 1.613 . S
S910 N912 1.610 . S
N911 S910 1.613 . S
N911 C914 1.350 . S
N912 S910 1.610 . S
N912 C913 1.351 . S
C913 C907 1.428 . S
C913 N912 1.351 . S
C913 C914 1.434 . S
C914 C905 1.429 . S
C914 N911 1.350 . S
C914 C913 1.434 . S
C915 C916 1.369 . S
C915 C917 1.419 . S
C915 H919 0.930 . S
C916 C915 1.369 . S
C916 C925 1.429 . S
C917 C915 1.419 . S
C917 C918 1.363 . S
C917 H920 0.929 . S
C918 C917 1.363 . S
C918 C924 1.428 . S
H919 C915 0.930 . S
H920 C917 0.929 . S
S921 N922 1.613 . S
S921 N923 1.610 . S
N922 S921 1.613 . S
N922 C925 1.350 . S
N923 S921 1.610 . S
N923 C924 1.351 . S
C924 C918 1.428 . S
C924 N923 1.351 . S
C924 C925 1.434 . S
C925 C916 1.429 . S
C925 N922 1.350 . S
C925 C924 1.434 . S
C926 C927 1.369 . S
C926 C928 1.419 . S
C926 H930 0.930 . S
C927 C926 1.369 . S
C927 C936 1.429 . S
C928 C926 1.419 . S
C928 C929 1.363 . S
C928 H931 0.929 . S
C929 C928 1.363 . S
C929 C935 1.428 . S
H930 C926 0.930 . S
H931 C928 0.929 . S
S932 N933 1.613 . S
S932 N934 1.610 . S
N933 S932 1.613 . S
N933 C936 1.350 . S
N934 S932 1.610 . S
N934 C935 1.351 . S
C935 C929 1.428 . S
C935 N934 1.351 . S
C935 C936 1.434 . S
C936 C927 1.429 . S
C936 N933 1.350 . S
C936 C935 1.434 . S
C937 C938 1.369 . S
C937 C939 1.419 . S
C937 H941 0.930 . S
C938 C937 1.369 . S
C938 C947 1.429 . S
C939 C937 1.419 . S
C939 C940 1.363 . S
C939 H942 0.929 . S
C940 C939 1.363 . S
C940 C946 1.428 . S
H941 C937 0.930 . S
H942 C939 0.929 . S
S943 N944 1.613 . S
S943 N945 1.610 . S
N944 S943 1.613 . S
N944 C947 1.350 . S
N945 S943 1.610 . S
N945 C946 1.351 . S
C946 C940 1.428 . S
C946 N945 1.351 . S
C946 C947 1.434 . S
C947 C938 1.429 . S
C947 N944 1.350 . S
C947 C946 1.434 . S
C948 C949 1.369 . S
C948 C950 1.419 . S
C948 H952 0.930 . S
C949 C948 1.369 . S
C949 C958 1.429 . S
C950 C948 1.419 . S
C950 C951 1.363 . S
C950 H953 0.929 . S
C951 C950 1.363 . S
C951 C957 1.428 . S
H952 C948 0.930 . S
H953 C950 0.929 . S
S954 N955 1.613 . S
S954 N956 1.610 . S
N955 S954 1.613 . S
N955 C958 1.350 . S
N956 S954 1.610 . S
N956 C957 1.351 . S
C957 C951 1.428 . S
C957 N956 1.351 . S
C957 C958 1.434 . S
C958 C949 1.429 . S
C958 N955 1.350 . S
C958 C957 1.434 . S
C959 C960 1.369 . S
C959 C961 1.419 . S
C959 H963 0.930 . S
C960 C959 1.369 . S
C960 C969 1.429 . S
C961 C959 1.419 . S
C961 C962 1.363 . S
C961 H964 0.929 . S
C962 C961 1.363 . S
C962 C968 1.428 . S
H963 C959 0.930 . S
H964 C961 0.929 . S
S965 N966 1.613 . S
S965 N967 1.610 . S
N966 S965 1.613 . S
N966 C969 1.350 . S
N967 S965 1.610 . S
N967 C968 1.351 . S
C968 C962 1.428 . S
C968 N967 1.351 . S
C968 C969 1.434 . S
C969 C960 1.429 . S
C969 N966 1.350 . S
C969 C968 1.434 . S
C970 C971 1.369 . S
C970 C972 1.419 . S
C970 H974 0.930 . S
C971 C970 1.369 . S
C971 C980 1.429 . S
C972 C970 1.419 . S
C972 C973 1.363 . S
C972 H975 0.929 . S
C973 C972 1.363 . S
C973 C979 1.428 . S
H974 C970 0.930 . S
H975 C972 0.929 . S
S976 N977 1.613 . S
S976 N978 1.610 . S
N977 S976 1.613 . S
N977 C980 1.350 . S
N978 S976 1.610 . S
N978 C979 1.351 . S
C979 C973 1.428 . S
C979 N978 1.351 . S
C979 C980 1.434 . S
C980 C971 1.429 . S
C980 N977 1.350 . S
C980 C979 1.434 . S
C981 C982 1.369 . S
C981 C983 1.419 . S
C981 H985 0.930 . S
C982 C981 1.369 . S
C982 C991 1.429 . S
C983 C981 1.419 . S
C983 C984 1.363 . S
C983 H986 0.929 . S
C984 C983 1.363 . S
C984 C990 1.428 . S
H985 C981 0.930 . S
H986 C983 0.929 . S
S987 N988 1.613 . S
S987 N989 1.610 . S
N988 S987 1.613 . S
N988 C991 1.350 . S
N989 S987 1.610 . S
N989 C990 1.351 . S
C990 C984 1.428 . S
C990 N989 1.351 . S
C990 C991 1.434 . S
C991 C982 1.429 . S
C991 N988 1.350 . S
C991 C990 1.434 . S
C992 C993 1.369 . S
C992 C994 1.419 . S
C992 H996 0.930 1_554 S
C993 C992 1.369 . S
C993 C1002 1.429 . S
C994 C992 1.419 . S
C994 C995 1.363 . S
C994 H997 0.929 1_554 S
C995 C994 1.363 . S
C995 C1001 1.428 . S
H996 C992 0.930 1_556 S
H997 C994 0.929 1_556 S
S998 N999 1.613 . S
S998 N1000 1.610 . S
N999 S998 1.613 . S
N999 C1002 1.350 . S
N1000 S998 1.610 . S
N1000 C1001 1.351 . S
C1001 C995 1.428 . S
C1001 N1000 1.351 . S
C1001 C1002 1.434 . S
C1002 C993 1.429 . S
C1002 N999 1.350 . S
C1002 C1001 1.434 . S
C1003 C1004 1.369 . S
C1003 C1005 1.419 . S
C1003 H1007 0.930 . S
C1004 C1003 1.369 . S
C1004 C1013 1.429 . S
C1005 C1003 1.419 . S
C1005 C1006 1.363 . S
C1005 H1008 0.929 . S
C1006 C1005 1.363 . S
C1006 C1012 1.428 . S
H1007 C1003 0.930 . S
H1008 C1005 0.929 . S
S1009 N1010 1.613 . S
S1009 N1011 1.610 . S
N1010 S1009 1.613 . S
N1010 C1013 1.350 . S
N1011 S1009 1.610 . S
N1011 C1012 1.351 . S
C1012 C1006 1.428 . S
C1012 N1011 1.351 . S
C1012 C1013 1.434 . S
C1013 C1004 1.429 . S
C1013 N1010 1.350 . S
C1013 C1012 1.434 . S
C1014 C1015 1.369 . S
C1014 C1016 1.419 . S
C1014 H1018 0.930 . S
C1015 C1014 1.369 . S
C1015 C1024 1.429 . S
C1016 C1014 1.419 . S
C1016 C1017 1.363 . S
C1016 H1019 0.929 . S
C1017 C1016 1.363 . S
C1017 C1023 1.428 . S
H1018 C1014 0.930 . S
H1019 C1016 0.929 . S
S1020 N1021 1.613 . S
S1020 N1022 1.610 . S
N1021 S1020 1.613 . S
N1021 C1024 1.350 . S
N1022 S1020 1.610 . S
N1022 C1023 1.351 . S
C1023 C1017 1.428 . S
C1023 N1022 1.351 . S
C1023 C1024 1.434 . S
C1024 C1015 1.429 . S
C1024 N1021 1.350 . S
C1024 C1023 1.434 . S
C1025 C1026 1.369 . S
C1025 C1027 1.419 . S
C1025 H1029 0.930 . S
C1026 C1025 1.369 . S
C1026 C1035 1.429 . S
C1027 C1025 1.419 . S
C1027 C1028 1.363 . S
C1027 H1030 0.929 . S
C1028 C1027 1.363 . S
C1028 C1034 1.428 . S
H1029 C1025 0.930 . S
H1030 C1027 0.929 . S
S1031 N1032 1.613 . S
S1031 N1033 1.610 . S
N1032 S1031 1.613 . S
N1032 C1035 1.350 . S
N1033 S1031 1.610 . S
N1033 C1034 1.351 . S
C1034 C1028 1.428 . S
C1034 N1033 1.351 . S
C1034 C1035 1.434 . S
C1035 C1026 1.429 . S
C1035 N1032 1.350 . S
C1035 C1034 1.434 . S
C1036 C1037 1.369 . S
C1036 C1038 1.419 . S
C1036 H1040 0.930 . S
C1037 C1036 1.369 . S
C1037 C1046 1.429 . S
C1038 C1036 1.419 . S
C1038 C1039 1.363 . S
C1038 H1041 0.929 . S
C1039 C1038 1.363 . S
C1039 C1045 1.428 . S
H1040 C1036 0.930 . S
H1041 C1038 0.929 . S
S1042 N1043 1.613 . S
S1042 N1044 1.610 . S
N1043 S1042 1.613 . S
N1043 C1046 1.350 . S
N1044 S1042 1.610 . S
N1044 C1045 1.351 . S
C1045 C1039 1.428 . S
C1045 N1044 1.351 . S
C1045 C1046 1.434 . S
C1046 C1037 1.429 . S
C1046 N1043 1.350 . S
C1046 C1045 1.434 . S
C1047 C1048 1.369 . S
C1047 C1049 1.419 . S
C1047 H1051 0.930 . S
C1048 C1047 1.369 . S
C1048 C1057 1.429 . S
C1049 C1047 1.419 . S
C1049 C1050 1.363 . S
C1049 H1052 0.929 . S
C1050 C1049 1.363 . S
C1050 C1056 1.428 . S
H1051 C1047 0.930 . S
H1052 C1049 0.929 . S
S1053 N1054 1.613 1_545 S
S1053 N1055 1.610 . S
N1054 S1053 1.613 1_565 S
N1054 C1057 1.350 . S
N1055 S1053 1.610 . S
N1055 C1056 1.351 1_545 S
C1056 C1050 1.428 . S
C1056 N1055 1.351 1_565 S
C1056 C1057 1.434 . S
C1057 C1048 1.429 . S
C1057 N1054 1.350 . S
C1057 C1056 1.434 . S
C1058 C1059 1.369 . S
C1058 C1060 1.419 . S
C1058 H1062 0.930 . S
C1059 C1058 1.369 . S
C1059 C1068 1.429 . S
C1060 C1058 1.419 . S
C1060 C1061 1.363 . S
C1060 H1063 0.929 . S
C1061 C1060 1.363 . S
C1061 C1067 1.428 . S
H1062 C1058 0.930 . S
H1063 C1060 0.929 . S
S1064 N1065 1.613 . S
S1064 N1066 1.610 . S
N1065 S1064 1.613 . S
N1065 C1068 1.350 . S
N1066 S1064 1.610 . S
N1066 C1067 1.351 . S
C1067 C1061 1.428 . S
C1067 N1066 1.351 . S
C1067 C1068 1.434 . S
C1068 C1059 1.429 . S
C1068 N1065 1.350 . S
C1068 C1067 1.434 . S
C1069 C1070 1.369 . S
C1069 C1071 1.419 . S
C1069 H1073 0.930 . S
C1070 C1069 1.369 . S
C1070 C1079 1.429 . S
C1071 C1069 1.419 . S
C1071 C1072 1.363 . S
C1071 H1074 0.929 . S
C1072 C1071 1.363 . S
C1072 C1078 1.428 . S
H1073 C1069 0.930 . S
H1074 C1071 0.929 . S
S1075 N1076 1.613 . S
S1075 N1077 1.610 . S
N1076 S1075 1.613 . S
N1076 C1079 1.350 . S
N1077 S1075 1.610 . S
N1077 C1078 1.351 . S
C1078 C1072 1.428 . S
C1078 N1077 1.351 . S
C1078 C1079 1.434 . S
C1079 C1070 1.429 . S
C1079 N1076 1.350 . S
C1079 C1078 1.434 . S
C1080 C1081 1.369 . S
C1080 C1082 1.419 . S
C1080 H1084 0.930 . S
C1081 C1080 1.369 . S
C1081 C1090 1.429 . S
C1082 C1080 1.419 . S
C1082 C1083 1.363 . S
C1082 H1085 0.929 . S
C1083 C1082 1.363 . S
C1083 C1089 1.428 1_556 S
H1084 C1080 0.930 . S
H1085 C1082 0.929 . S
S1086 N1087 1.613 . S
S1086 N1088 1.610 . S
N1087 S1086 1.613 . S
N1087 C1090 1.350 1_554 S
N1088 S1086 1.610 . S
N1088 C1089 1.351 . S
C1089 C1083 1.428 1_554 S
C1089 N1088 1.351 . S
C1089 C1090 1.434 1_554 S
C1090 C1081 1.429 . S
C1090 N1087 1.350 1_556 S
C1090 C1089 1.434 1_556 S
C1091 C1092 1.369 . S
C1091 C1093 1.419 . S
C1091 H1095 0.930 . S
C1092 C1091 1.369 . S
C1092 C1101 1.429 . S
C1093 C1091 1.419 . S
C1093 C1094 1.363 . S
C1093 H1096 0.929 . S
C1094 C1093 1.363 . S
C1094 C1100 1.428 . S
H1095 C1091 0.930 . S
H1096 C1093 0.929 . S
S1097 N1098 1.613 . S
S1097 N1099 1.610 . S
N1098 S1097 1.613 . S
N1098 C1101 1.350 . S
N1099 S1097 1.610 . S
N1099 C1100 1.351 . S
C1100 C1094 1.428 . S
C1100 N1099 1.351 . S
C1100 C1101 1.434 . S
C1101 C1092 1.429 . S
C1101 N1098 1.350 . S
C1101 C1100 1.434 . S
C1102 C1103 1.369 . S
C1102 C1104 1.419 . S
C1102 H1106 0.930 . S
C1103 C1102 1.369 . S
C1103 C1112 1.429 . S
C1104 C1102 1.419 . S
C1104 C1105 1.363 . S
C1104 H1107 0.929 . S
C1105 C1104 1.363 . S
C1105 C1111 1.428 . S
H1106 C1102 0.930 . S
H1107 C1104 0.929 . S
S1108 N1109 1.613 . S
S1108 N1110 1.610 . S
N1109 S1108 1.613 . S
N1109 C1112 1.350 . S
N1110 S1108 1.610 . S
N1110 C1111 1.351 . S
C1111 C1105 1.428 . S
C1111 N1110 1.351 . S
C1111 C1112 1.434 . S
C1112 C1103 1.429 . S
C1112 N1109 1.350 . S
C1112 C1111 1.434 . S
C1113 C1114 1.369 . S
C1113 C1115 1.419 . S
C1113 H1117 0.930 . S
C1114 C1113 1.369 . S
C1114 C1123 1.429 . S
C1115 C1113 1.419 . S
C1115 C1116 1.363 . S
C1115 H1118 0.929 . S
C1116 C1115 1.363 . S
C1116 C1122 1.428 . S
H1117 C1113 0.930 . S
H1118 C1115 0.929 . S
S1119 N1120 1.613 . S
S1119 N1121 1.610 . S
N1120 S1119 1.613 . S
N1120 C1123 1.350 . S
N1121 S1119 1.610 . S
N1121 C1122 1.351 . S
C1122 C1116 1.428 . S
C1122 N1121 1.351 . S
C1122 C1123 1.434 . S
C1123 C1114 1.429 . S
C1123 N1120 1.350 . S
C1123 C1122 1.434 . S
C1124 C1125 1.369 . S
C1124 C1126 1.419 . S
C1124 H1128 0.930 1_455 S
C1125 C1124 1.369 . S
C1125 C1134 1.429 . S
C1126 C1124 1.419 . S
C1126 C1127 1.363 . S
C1126 H1129 0.929 . S
C1127 C1126 1.363 . S
C1127 C1133 1.428 . S
H1128 C1124 0.930 1_655 S
H1129 C1126 0.929 . S
S1130 N1131 1.613 . S
S1130 N1132 1.610 . S
N1131 S1130 1.613 . S
N1131 C1134 1.350 . S
N1132 S1130 1.610 . S
N1132 C1133 1.351 . S
C1133 C1127 1.428 . S
C1133 N1132 1.351 . S
C1133 C1134 1.434 . S
C1134 C1125 1.429 . S
C1134 N1131 1.350 . S
C1134 C1133 1.434 . S
C1135 C1136 1.369 . S
C1135 C1137 1.419 . S
C1135 H1139 0.930 . S
C1136 C1135 1.369 . S
C1136 C1145 1.429 . S
C1137 C1135 1.419 . S
C1137 C1138 1.363 . S
C1137 H1140 0.929 . S
C1138 C1137 1.363 . S
C1138 C1144 1.428 . S
H1139 C1135 0.930 . S
H1140 C1137 0.929 . S
S1141 N1142 1.613 . S
S1141 N1143 1.610 . S
N1142 S1141 1.613 . S
N1142 C1145 1.350 . S
N1143 S1141 1.610 . S
N1143 C1144 1.351 . S
C1144 C1138 1.428 . S
C1144 N1143 1.351 . S
C1144 C1145 1.434 . S
C1145 C1136 1.429 . S
C1145 N1142 1.350 . S
C1145 C1144 1.434 . S
C1146 C1147 1.369 . S
C1146 C1148 1.419 . S
C1146 H1150 0.930 . S
C1147 C1146 1.369 . S
C1147 C1156 1.429 . S
C1148 C1146 1.419 . S
C1148 C1149 1.363 . S
C1148 H1151 0.929 . S
C1149 C1148 1.363 . S
C1149 C1155 1.428 . S
H1150 C1146 0.930 . S
H1151 C1148 0.929 . S
S1152 N1153 1.613 . S
S1152 N1154 1.610 . S
N1153 S1152 1.613 . S
N1153 C1156 1.350 . S
N1154 S1152 1.610 . S
N1154 C1155 1.351 . S
C1155 C1149 1.428 . S
C1155 N1154 1.351 . S
C1155 C1156 1.434 . S
C1156 C1147 1.429 . S
C1156 N1153 1.350 . S
C1156 C1155 1.434 . S
C1157 C1158 1.369 . S
C1157 C1159 1.419 . S
C1157 H1161 0.930 . S
C1158 C1157 1.369 . S
C1158 C1167 1.429 . S
C1159 C1157 1.419 . S
C1159 C1160 1.363 . S
C1159 H1162 0.929 . S
C1160 C1159 1.363 . S
C1160 C1166 1.428 . S
H1161 C1157 0.930 . S
H1162 C1159 0.929 . S
S1163 N1164 1.613 . S
S1163 N1165 1.610 . S
N1164 S1163 1.613 . S
N1164 C1167 1.350 . S
N1165 S1163 1.610 . S
N1165 C1166 1.351 . S
C1166 C1160 1.428 . S
C1166 N1165 1.351 . S
C1166 C1167 1.434 . S
C1167 C1158 1.429 . S
C1167 N1164 1.350 . S
C1167 C1166 1.434 . S
C1168 C1169 1.369 . S
C1168 C1170 1.419 . S
C1168 H1172 0.930 . S
C1169 C1168 1.369 . S
C1169 C1178 1.429 . S
C1170 C1168 1.419 . S
C1170 C1171 1.363 . S
C1170 H1173 0.929 1_655 S
C1171 C1170 1.363 . S
C1171 C1177 1.428 . S
H1172 C1168 0.930 . S
H1173 C1170 0.929 1_455 S
S1174 N1175 1.613 . S
S1174 N1176 1.610 . S
N1175 S1174 1.613 . S
N1175 C1178 1.350 . S
N1176 S1174 1.610 . S
N1176 C1177 1.351 . S
C1177 C1171 1.428 . S
C1177 N1176 1.351 . S
C1177 C1178 1.434 . S
C1178 C1169 1.429 . S
C1178 N1175 1.350 . S
C1178 C1177 1.434 . S
C1179 C1180 1.369 . S
C1179 C1181 1.419 . S
C1179 H1183 0.930 . S
C1180 C1179 1.369 . S
C1180 C1189 1.429 . S
C1181 C1179 1.419 . S
C1181 C1182 1.363 . S
C1181 H1184 0.929 . S
C1182 C1181 1.363 . S
C1182 C1188 1.428 . S
H1183 C1179 0.930 . S
H1184 C1181 0.929 . S
S1185 N1186 1.613 . S
S1185 N1187 1.610 . S
N1186 S1185 1.613 . S
N1186 C1189 1.350 . S
N1187 S1185 1.610 . S
N1187 C1188 1.351 . S
C1188 C1182 1.428 . S
C1188 N1187 1.351 . S
C1188 C1189 1.434 . S
C1189 C1180 1.429 . S
C1189 N1186 1.350 . S
C1189 C1188 1.434 . S
C1190 C1191 1.369 . S
C1190 C1192 1.419 . S
C1190 H1194 0.930 . S
C1191 C1190 1.369 . S
C1191 C1200 1.429 . S
C1192 C1190 1.419 . S
C1192 C1193 1.363 . S
C1192 H1195 0.929 . S
C1193 C1192 1.363 . S
C1193 C1199 1.428 . S
H1194 C1190 0.930 . S
H1195 C1192 0.929 . S
S1196 N1197 1.613 . S
S1196 N1198 1.610 . S
N1197 S1196 1.613 . S
N1197 C1200 1.350 . S
N1198 S1196 1.610 . S
N1198 C1199 1.351 . S
C1199 C1193 1.428 . S
C1199 N1198 1.351 . S
C1199 C1200 1.434 . S
C1200 C1191 1.429 . S
C1200 N1197 1.350 . S
C1200 C1199 1.434 . S
C1201 C1202 1.369 . S
C1201 C1203 1.419 . S
C1201 H1205 0.930 . S
C1202 C1201 1.369 . S
C1202 C1211 1.429 . S
C1203 C1201 1.419 . S
C1203 C1204 1.363 . S
C1203 H1206 0.929 . S
C1204 C1203 1.363 . S
C1204 C1210 1.428 . S
H1205 C1201 0.930 . S
H1206 C1203 0.929 . S
S1207 N1208 1.613 . S
S1207 N1209 1.610 . S
N1208 S1207 1.613 . S
N1208 C1211 1.350 . S
N1209 S1207 1.610 . S
N1209 C1210 1.351 . S
C1210 C1204 1.428 . S
C1210 N1209 1.351 . S
C1210 C1211 1.434 . S
C1211 C1202 1.429 . S
C1211 N1208 1.350 . S
C1211 C1210 1.434 . S
C1212 C1213 1.369 . S
C1212 C1214 1.419 . S
C1212 H1216 0.930 . S
C1213 C1212 1.369 . S
C1213 C1222 1.429 . S
C1214 C1212 1.419 . S
C1214 C1215 1.363 . S
C1214 H1217 0.929 . S
C1215 C1214 1.363 . S
C1215 C1221 1.428 . S
H1216 C1212 0.930 . S
H1217 C1214 0.929 . S
S1218 N1219 1.613 1_455 S
S1218 N1220 1.610 . S
N1219 S1218 1.613 1_655 S
N1219 C1222 1.350 . S
N1220 S1218 1.610 . S
N1220 C1221 1.351 1_455 S
C1221 C1215 1.428 . S
C1221 N1220 1.351 1_655 S
C1221 C1222 1.434 . S
C1222 C1213 1.429 . S
C1222 N1219 1.350 . S
C1222 C1221 1.434 . S
C1223 C1224 1.369 . S
C1223 C1225 1.419 . S
C1223 H1227 0.930 . S
C1224 C1223 1.369 . S
C1224 C1233 1.429 . S
C1225 C1223 1.419 . S
C1225 C1226 1.363 . S
C1225 H1228 0.929 . S
C1226 C1225 1.363 . S
C1226 C1232 1.428 . S
H1227 C1223 0.930 . S
H1228 C1225 0.929 . S
S1229 N1230 1.613 . S
S1229 N1231 1.610 . S
N1230 S1229 1.613 . S
N1230 C1233 1.350 . S
N1231 S1229 1.610 . S
N1231 C1232 1.351 . S
C1232 C1226 1.428 . S
C1232 N1231 1.351 . S
C1232 C1233 1.434 . S
C1233 C1224 1.429 . S
C1233 N1230 1.350 . S
C1233 C1232 1.434 . S
C1234 C1235 1.369 . S
C1234 C1236 1.419 . S
C1234 H1238 0.930 . S
C1235 C1234 1.369 . S
C1235 C1244 1.429 1_545 S
C1236 C1234 1.419 . S
C1236 C1237 1.363 . S
C1236 H1239 0.929 . S
C1237 C1236 1.363 . S
C1237 C1243 1.428 . S
H1238 C1234 0.930 . S
H1239 C1236 0.929 . S
S1240 N1241 1.613 . S
S1240 N1242 1.610 . S
N1241 S1240 1.613 . S
N1241 C1244 1.350 . S
N1242 S1240 1.610 . S
N1242 C1243 1.351 1_565 S
C1243 C1237 1.428 . S
C1243 N1242 1.351 1_545 S
C1243 C1244 1.434 1_545 S
C1244 C1235 1.429 1_565 S
C1244 N1241 1.350 . S
C1244 C1243 1.434 1_565 S
C1245 C1246 1.369 . S
C1245 C1247 1.419 . S
C1245 H1249 0.930 . S
C1246 C1245 1.369 . S
C1246 C1255 1.429 . S
C1247 C1245 1.419 . S
C1247 C1248 1.363 . S
C1247 H1250 0.929 . S
C1248 C1247 1.363 . S
C1248 C1254 1.428 . S
H1249 C1245 0.930 . S
H1250 C1247 0.929 . S
S1251 N1252 1.613 . S
S1251 N1253 1.610 . S
N1252 S1251 1.613 . S
N1252 C1255 1.350 . S
N1253 S1251 1.610 . S
N1253 C1254 1.351 . S
C1254 C1248 1.428 . S
C1254 N1253 1.351 . S
C1254 C1255 1.434 . S
C1255 C1246 1.429 . S
C1255 N1252 1.350 . S
C1255 C1254 1.434 . S
C1256 C1257 1.369 . S
C1256 C1258 1.419 . S
C1256 H1260 0.930 . S
C1257 C1256 1.369 . S
C1257 C1266 1.429 . S
C1258 C1256 1.419 . S
C1258 C1259 1.361 1_565 S
C1258 H1261 0.929 . S
C1259 C1258 1.361 1_545 S
C1259 C1265 1.429 . S
H1260 C1256 0.930 . S
H1261 C1258 0.929 . S
S1262 N1263 1.613 . S
S1262 N1264 1.610 . S
N1263 S1262 1.613 . S
N1263 C1266 1.350 1_545 S
N1264 S1262 1.610 . S
N1264 C1265 1.351 . S
C1265 C1259 1.429 . S
C1265 N1264 1.351 . S
C1265 C1266 1.434 1_545 S
C1266 C1257 1.429 . S
C1266 N1263 1.350 1_565 S
C1266 C1265 1.434 1_565 S
C1267 C1268 1.393 . S
C1267 C1269 1.419 . S
C1267 H1271 0.930 . S
C1268 C1267 1.393 . S
C1268 C1277 1.409 1_554 S
C1269 C1267 1.419 . S
C1269 C1270 1.363 . S
C1269 H1272 0.929 . S
C1270 C1269 1.363 . S
C1270 C1276 1.428 1_554 S
H1271 C1267 0.930 . S
H1272 C1269 0.929 . S
S1273 N1274 1.613 . S
S1273 N1275 1.610 . S
N1274 S1273 1.613 . S
N1274 C1277 1.350 . S
N1275 S1273 1.610 . S
N1275 C1276 1.351 . S
C1276 C1270 1.428 1_556 S
C1276 N1275 1.351 . S
C1276 C1277 1.434 . S
C1277 C1268 1.409 1_556 S
C1277 N1274 1.350 . S
C1277 C1276 1.434 . S
C1278 C1279 1.369 . S
C1278 C1280 1.419 . S
C1278 H1282 0.930 . S
C1279 C1278 1.369 . S
C1279 C1288 1.429 . S
C1280 C1278 1.419 . S
C1280 C1281 1.363 . S
C1280 H1283 0.929 . S
C1281 C1280 1.363 . S
C1281 C1287 1.428 . S
H1282 C1278 0.930 . S
H1283 C1280 0.929 . S
S1284 N1285 1.613 . S
S1284 N1286 1.610 . S
N1285 S1284 1.613 . S
N1285 C1288 1.350 . S
N1286 S1284 1.610 . S
N1286 C1287 1.351 . S
C1287 C1281 1.428 . S
C1287 N1286 1.351 . S
C1287 C1288 1.434 . S
C1288 C1279 1.429 . S
C1288 N1285 1.350 . S
C1288 C1287 1.434 . S
C1289 C1290 1.369 . S
C1289 C1291 1.419 . S
C1289 H1293 0.930 . S
C1290 C1289 1.369 . S
C1290 C1299 1.429 . S
C1291 C1289 1.419 . S
C1291 C1292 1.363 . S
C1291 H1294 0.929 . S
C1292 C1291 1.363 . S
C1292 C1298 1.428 . S
H1293 C1289 0.930 . S
H1294 C1291 0.929 . S
S1295 N1296 1.613 . S
S1295 N1297 1.610 . S
N1296 S1295 1.613 . S
N1296 C1299 1.350 . S
N1297 S1295 1.610 . S
N1297 C1298 1.351 . S
C1298 C1292 1.428 . S
C1298 N1297 1.351 . S
C1298 C1299 1.434 . S
C1299 C1290 1.429 . S
C1299 N1296 1.350 . S
C1299 C1298 1.434 . S
C1300 C1301 1.369 . S
C1300 C1302 1.419 . S
C1300 H1304 0.930 . S
C1301 C1300 1.369 . S
C1301 C1310 1.429 . S
C1302 C1300 1.419 . S
C1302 C1303 1.363 . S
C1302 H1305 0.929 . S
C1303 C1302 1.363 . S
C1303 C1309 1.428 . S
H1304 C1300 0.930 . S
H1305 C1302 0.929 . S
S1306 N1307 1.613 . S
S1306 N1308 1.610 . S
N1307 S1306 1.613 . S
N1307 C1310 1.350 . S
N1308 S1306 1.610 . S
N1308 C1309 1.351 . S
C1309 C1303 1.428 . S
C1309 N1308 1.351 . S
C1309 C1310 1.434 . S
C1310 C1301 1.429 . S
C1310 N1307 1.350 . S
C1310 C1309 1.434 . S
C1311 C1312 1.369 . S
C1311 C1313 1.419 . S
C1311 H1315 0.930 . S
C1312 C1311 1.369 . S
C1312 C1321 1.429 . S
C1313 C1311 1.419 . S
C1313 C1314 1.363 . S
C1313 H1316 0.929 . S
C1314 C1313 1.363 . S
C1314 C1320 1.428 . S
H1315 C1311 0.930 . S
H1316 C1313 0.929 . S
S1317 N1318 1.613 . S
S1317 N1319 1.610 . S
N1318 S1317 1.613 . S
N1318 C1321 1.350 . S
N1319 S1317 1.610 . S
N1319 C1320 1.351 . S
C1320 C1314 1.428 . S
C1320 N1319 1.351 . S
C1320 C1321 1.434 . S
C1321 C1312 1.429 . S
C1321 N1318 1.350 . S
C1321 C1320 1.434 . S
C1322 C1323 1.369 . S
C1322 C1324 1.419 . S
C1322 H1326 0.930 . S
C1323 C1322 1.369 . S
C1323 C1332 1.429 . S
C1324 C1322 1.419 . S
C1324 C1325 1.363 . S
C1324 H1327 0.929 . S
C1325 C1324 1.363 . S
C1325 C1331 1.428 . S
H1326 C1322 0.930 . S
H1327 C1324 0.929 . S
S1328 N1329 1.613 . S
S1328 N1330 1.610 . S
N1329 S1328 1.613 . S
N1329 C1332 1.350 . S
N1330 S1328 1.610 . S
N1330 C1331 1.351 . S
C1331 C1325 1.428 . S
C1331 N1330 1.351 . S
C1331 C1332 1.434 . S
C1332 C1323 1.429 . S
C1332 N1329 1.350 . S
C1332 C1331 1.434 . S
C1333 C1334 1.369 . S
C1333 C1335 1.419 . S
C1333 H1337 0.930 . S
C1334 C1333 1.369 . S
C1334 C1343 1.429 . S
C1335 C1333 1.419 . S
C1335 C1336 1.363 . S
C1335 H1338 0.929 . S
C1336 C1335 1.363 . S
C1336 C1342 1.428 . S
H1337 C1333 0.930 . S
H1338 C1335 0.929 . S
S1339 N1340 1.613 . S
S1339 N1341 1.610 . S
N1340 S1339 1.613 . S
N1340 C1343 1.350 . S
N1341 S1339 1.610 . S
N1341 C1342 1.351 . S
C1342 C1336 1.428 . S
C1342 N1341 1.351 . S
C1342 C1343 1.434 . S
C1343 C1334 1.429 . S
C1343 N1340 1.350 . S
C1343 C1342 1.434 . S
C1344 C1345 1.369 . S
C1344 C1346 1.419 . S
C1344 H1348 0.930 . S
C1345 C1344 1.369 . S
C1345 C1354 1.429 . S
C1346 C1344 1.419 . S
C1346 C1347 1.363 . S
C1346 H1349 0.929 . S
C1347 C1346 1.363 . S
C1347 C1353 1.428 . S
H1348 C1344 0.930 . S
H1349 C1346 0.929 . S
S1350 N1351 1.613 . S
S1350 N1352 1.610 . S
N1351 S1350 1.613 . S
N1351 C1354 1.350 . S
N1352 S1350 1.610 . S
N1352 C1353 1.351 . S
C1353 C1347 1.428 . S
C1353 N1352 1.351 . S
C1353 C1354 1.434 . S
C1354 C1345 1.429 . S
C1354 N1351 1.350 . S
C1354 C1353 1.434 . S
C1355 C1356 1.369 . S
C1355 C1357 1.419 . S
C1355 H1359 0.930 . S
C1356 C1355 1.369 . S
C1356 C1365 1.429 . S
C1357 C1355 1.419 . S
C1357 C1358 1.363 . S
C1357 H1360 0.929 . S
C1358 C1357 1.363 . S
C1358 C1364 1.428 . S
H1359 C1355 0.930 . S
H1360 C1357 0.929 . S
S1361 N1362 1.613 . S
S1361 N1363 1.610 . S
N1362 S1361 1.613 . S
N1362 C1365 1.350 . S
N1363 S1361 1.610 . S
N1363 C1364 1.351 . S
C1364 C1358 1.428 . S
C1364 N1363 1.351 . S
C1364 C1365 1.434 . S
C1365 C1356 1.429 . S
C1365 N1362 1.350 . S
C1365 C1364 1.434 . S
C1366 C1367 1.369 . S
C1366 C1368 1.419 . S
C1366 H1370 0.930 . S
C1367 C1366 1.369 . S
C1367 C1376 1.429 . S
C1368 C1366 1.419 . S
C1368 C1369 1.363 . S
C1368 H1371 0.929 . S
C1369 C1368 1.363 . S
C1369 C1375 1.428 . S
H1370 C1366 0.930 . S
H1371 C1368 0.929 . S
S1372 N1373 1.622 . S
S1372 N1374 1.624 . S
N1373 S1372 1.622 . S
N1373 C1376 1.350 . S
N1374 S1372 1.624 . S
N1374 C1375 1.351 . S
C1375 C1369 1.428 . S
C1375 N1374 1.351 . S
C1375 C1376 1.434 . S
C1376 C1367 1.429 . S
C1376 N1373 1.350 . S
C1376 C1375 1.434 . S
C1377 C1378 1.369 . S
C1377 C1379 1.419 . S
C1377 H1381 0.930 . S
C1378 C1377 1.369 . S
C1378 C1387 1.429 . S
C1379 C1377 1.419 . S
C1379 C1380 1.363 . S
C1379 H1382 0.929 . S
C1380 C1379 1.363 . S
C1380 C1386 1.428 . S
H1381 C1377 0.930 . S
H1382 C1379 0.929 . S
S1383 N1384 1.613 1_655 S
S1383 N1385 1.610 . S
N1384 S1383 1.613 1_455 S
N1384 C1387 1.350 1_455 S
N1385 S1383 1.610 . S
N1385 C1386 1.351 . S
C1386 C1380 1.428 . S
C1386 N1385 1.351 . S
C1386 C1387 1.434 . S
C1387 C1378 1.429 . S
C1387 N1384 1.350 1_655 S
C1387 C1386 1.434 . S
C1388 C1389 1.369 . S
C1388 C1390 1.419 . S
C1388 H1392 0.930 . S
C1389 C1388 1.369 . S
C1389 C1398 1.429 . S
C1390 C1388 1.419 . S
C1390 C1391 1.363 . S
C1390 H1393 0.929 . S
C1391 C1390 1.363 . S
C1391 C1397 1.433 . S
H1392 C1388 0.930 . S
H1393 C1390 0.929 . S
S1394 N1395 1.613 1_554 S
S1394 N1396 1.610 . S
N1395 S1394 1.613 1_556 S
N1395 C1398 1.350 . S
N1396 S1394 1.610 . S
N1396 C1397 1.337 1_554 S
C1397 C1391 1.433 . S
C1397 N1396 1.337 1_556 S
C1397 C1398 1.444 . S
C1398 C1389 1.429 . S
C1398 N1395 1.350 . S
C1398 C1397 1.444 . S
C1399 C1400 1.369 . S
C1399 C1401 1.419 . S
C1399 H1403 0.930 . S
C1400 C1399 1.369 . S
C1400 C1409 1.429 . S
C1401 C1399 1.419 . S
C1401 C1402 1.363 . S
C1401 H1404 0.929 . S
C1402 C1401 1.363 . S
C1402 C1408 1.428 . S
H1403 C1399 0.930 . S
H1404 C1401 0.929 . S
S1405 N1406 1.613 . S
S1405 N1407 1.610 . S
N1406 S1405 1.613 . S
N1406 C1409 1.350 . S
N1407 S1405 1.610 . S
N1407 C1408 1.351 . S
C1408 C1402 1.428 . S
C1408 N1407 1.351 . S
C1408 C1409 1.434 . S
C1409 C1400 1.429 . S
C1409 N1406 1.350 . S
C1409 C1408 1.434 . S
C1410 C1411 1.369 . S
C1410 C1412 1.419 . S
C1410 H1414 0.930 . S
C1411 C1410 1.369 . S
C1411 C1420 1.429 . S
C1412 C1410 1.419 . S
C1412 C1413 1.363 . S
C1412 H1415 0.929 . S
C1413 C1412 1.363 . S
C1413 C1419 1.428 . S
H1414 C1410 0.930 . S
H1415 C1412 0.929 . S
S1416 N1417 1.613 . S
S1416 N1418 1.610 . S
N1417 S1416 1.613 . S
N1417 C1420 1.350 . S
N1418 S1416 1.610 . S
N1418 C1419 1.351 . S
C1419 C1413 1.428 . S
C1419 N1418 1.351 . S
C1419 C1420 1.434 . S
C1420 C1411 1.429 . S
C1420 N1417 1.350 . S
C1420 C1419 1.434 . S
C1421 C1422 1.369 . S
C1421 C1423 1.419 . S
C1421 H1425 0.930 . S
C1422 C1421 1.369 . S
C1422 C1431 1.429 . S
C1423 C1421 1.419 . S
C1423 C1424 1.363 . S
C1423 H1426 0.929 . S
C1424 C1423 1.363 . S
C1424 C1430 1.428 . S
H1425 C1421 0.930 . S
H1426 C1423 0.929 . S
S1427 N1428 1.613 . S
S1427 N1429 1.610 . S
N1428 S1427 1.613 . S
N1428 C1431 1.350 . S
N1429 S1427 1.610 . S
N1429 C1430 1.351 . S
C1430 C1424 1.428 . S
C1430 N1429 1.351 . S
C1430 C1431 1.434 . S
C1431 C1422 1.429 . S
C1431 N1428 1.350 . S
C1431 C1430 1.434 . S
C1432 C1433 1.369 . S
C1432 C1434 1.419 . S
C1432 H1436 0.930 . S
C1433 C1432 1.369 . S
C1433 C1442 1.429 . S
C1434 C1432 1.419 . S
C1434 C1435 1.363 . S
C1434 H1437 0.929 . S
C1435 C1434 1.363 . S
C1435 C1441 1.428 . S
H1436 C1432 0.930 . S
H1437 C1434 0.929 . S
S1438 N1439 1.613 . S
S1438 N1440 1.610 . S
N1439 S1438 1.613 . S
N1439 C1442 1.350 . S
N1440 S1438 1.610 . S
N1440 C1441 1.351 . S
C1441 C1435 1.428 . S
C1441 N1440 1.351 . S
C1441 C1442 1.434 . S
C1442 C1433 1.429 . S
C1442 N1439 1.350 . S
C1442 C1441 1.434 . S
C1443 C1444 1.369 . S
C1443 C1445 1.419 . S
C1443 H1447 0.930 . S
C1444 C1443 1.369 . S
C1444 C1453 1.429 . S
C1445 C1443 1.419 . S
C1445 C1446 1.363 . S
C1445 H1448 0.929 . S
C1446 C1445 1.363 . S
C1446 C1452 1.428 . S
H1447 C1443 0.930 . S
H1448 C1445 0.929 . S
S1449 N1450 1.613 . S
S1449 N1451 1.610 . S
N1450 S1449 1.613 . S
N1450 C1453 1.350 . S
N1451 S1449 1.610 . S
N1451 C1452 1.351 . S
C1452 C1446 1.428 . S
C1452 N1451 1.351 . S
C1452 C1453 1.434 . S
C1453 C1444 1.429 . S
C1453 N1450 1.350 . S
C1453 C1452 1.434 . S
C1454 C1455 1.369 . S
C1454 C1456 1.419 1_655 S
C1454 H1458 0.930 . S
C1455 C1454 1.369 . S
C1455 C1464 1.429 . S
C1456 C1454 1.419 1_455 S
C1456 C1457 1.363 1_455 S
C1456 H1459 0.929 . S
C1457 C1456 1.363 1_655 S
C1457 C1463 1.428 . S
H1458 C1454 0.930 . S
H1459 C1456 0.929 . S
S1460 N1461 1.613 . S
S1460 N1462 1.610 . S
N1461 S1460 1.613 . S
N1461 C1464 1.350 . S
N1462 S1460 1.610 . S
N1462 C1463 1.351 . S
C1463 C1457 1.428 . S
C1463 N1462 1.351 . S
C1463 C1464 1.434 . S
C1464 C1455 1.429 . S
C1464 N1461 1.350 . S
C1464 C1463 1.434 . S
C1465 C1466 1.369 . S
C1465 C1467 1.419 . S
C1465 H1469 0.930 . S
C1466 C1465 1.369 . S
C1466 C1475 1.429 . S
C1467 C1465 1.419 . S
C1467 C1468 1.363 . S
C1467 H1470 0.929 . S
C1468 C1467 1.363 . S
C1468 C1474 1.428 . S
H1469 C1465 0.930 . S
H1470 C1467 0.929 . S
S1471 N1472 1.613 . S
S1471 N1473 1.610 . S
N1472 S1471 1.613 . S
N1472 C1475 1.350 . S
N1473 S1471 1.610 . S
N1473 C1474 1.351 . S
C1474 C1468 1.428 . S
C1474 N1473 1.351 . S
C1474 C1475 1.434 . S
C1475 C1466 1.429 . S
C1475 N1472 1.350 . S
C1475 C1474 1.434 . S
C1476 C1477 1.369 . S
C1476 C1478 1.419 . S
C1476 H1480 0.930 . S
C1477 C1476 1.369 . S
C1477 C1486 1.429 . S
C1478 C1476 1.419 . S
C1478 C1479 1.363 . S
C1478 H1481 0.929 . S
C1479 C1478 1.363 . S
C1479 C1485 1.428 . S
H1480 C1476 0.930 . S
H1481 C1478 0.929 . S
S1482 N1483 1.613 . S
S1482 N1484 1.610 . S
N1483 S1482 1.613 . S
N1483 C1486 1.350 . S
N1484 S1482 1.610 . S
N1484 C1485 1.351 . S
C1485 C1479 1.428 . S
C1485 N1484 1.351 . S
C1485 C1486 1.434 . S
C1486 C1477 1.429 . S
C1486 N1483 1.350 . S
C1486 C1485 1.434 . S
C1487 C1488 1.369 . S
C1487 C1489 1.419 . S
C1487 H1491 0.930 . S
C1488 C1487 1.369 . S
C1488 C1497 1.429 . S
C1489 C1487 1.419 . S
C1489 C1490 1.363 . S
C1489 H1492 0.929 . S
C1490 C1489 1.363 . S
C1490 C1496 1.428 . S
H1491 C1487 0.930 . S
H1492 C1489 0.929 . S
S1493 N1494 1.613 . S
S1493 N1495 1.610 . S
N1494 S1493 1.613 . S
N1494 C1497 1.350 . S
N1495 S1493 1.610 . S
N1495 C1496 1.351 . S
C1496 C1490 1.428 . S
C1496 N1495 1.351 . S
C1496 C1497 1.434 . S
C1497 C1488 1.429 . S
C1497 N1494 1.350 . S
C1497 C1496 1.434 . S
C1498 C1499 1.369 . S
C1498 C1500 1.419 . S
C1498 H1502 0.930 . S
C1499 C1498 1.369 . S
C1499 C1508 1.429 . S
C1500 C1498 1.419 . S
C1500 C1501 1.363 . S
C1500 H1503 0.929 1_655 S
C1501 C1500 1.363 . S
C1501 C1507 1.428 . S
H1502 C1498 0.930 . S
H1503 C1500 0.929 1_455 S
S1504 N1505 1.613 . S
S1504 N1506 1.610 . S
N1505 S1504 1.613 . S
N1505 C1508 1.350 . S
N1506 S1504 1.610 . S
N1506 C1507 1.351 . S
C1507 C1501 1.428 . S
C1507 N1506 1.351 . S
C1507 C1508 1.434 . S
C1508 C1499 1.429 . S
C1508 N1505 1.350 . S
C1508 C1507 1.434 . S
C1509 C1510 1.369 . S
C1509 C1511 1.419 . S
C1509 H1513 0.930 . S
C1510 C1509 1.369 . S
C1510 C1519 1.429 . S
C1511 C1509 1.419 . S
C1511 C1512 1.363 . S
C1511 H1514 0.929 . S
C1512 C1511 1.363 . S
C1512 C1518 1.428 . S
H1513 C1509 0.930 . S
H1514 C1511 0.929 . S
S1515 N1516 1.613 . S
S1515 N1517 1.610 . S
N1516 S1515 1.613 . S
N1516 C1519 1.350 . S
N1517 S1515 1.610 . S
N1517 C1518 1.351 . S
C1518 C1512 1.428 . S
C1518 N1517 1.351 . S
C1518 C1519 1.434 . S
C1519 C1510 1.429 . S
C1519 N1516 1.350 . S
C1519 C1518 1.434 . S
C1520 C1521 1.369 . S
C1520 C1522 1.419 . S
C1520 H1524 0.930 . S
C1521 C1520 1.369 . S
C1521 C1530 1.429 . S
C1522 C1520 1.419 . S
C1522 C1523 1.363 . S
C1522 H1525 0.929 . S
C1523 C1522 1.363 . S
C1523 C1529 1.428 . S
H1524 C1520 0.930 . S
H1525 C1522 0.929 . S
S1526 N1527 1.613 . S
S1526 N1528 1.610 . S
N1527 S1526 1.613 . S
N1527 C1530 1.350 . S
N1528 S1526 1.610 . S
N1528 C1529 1.351 . S
C1529 C1523 1.428 . S
C1529 N1528 1.351 . S
C1529 C1530 1.434 . S
C1530 C1521 1.429 . S
C1530 N1527 1.350 . S
C1530 C1529 1.434 . S
C1531 C1532 1.369 . S
C1531 C1533 1.419 1_565 S
C1531 H1535 0.930 . S
C1532 C1531 1.369 . S
C1532 C1541 1.429 . S
C1533 C1531 1.419 1_545 S
C1533 C1534 1.367 . S
C1533 H1536 0.929 . S
C1534 C1533 1.367 . S
C1534 C1540 1.415 1_545 S
H1535 C1531 0.930 . S
H1536 C1533 0.929 . S
S1537 N1538 1.613 . S
S1537 N1539 1.610 . S
N1538 S1537 1.613 . S
N1538 C1541 1.350 . S
N1539 S1537 1.610 . S
N1539 C1540 1.351 . S
C1540 C1534 1.415 1_565 S
C1540 N1539 1.351 . S
C1540 C1541 1.434 . S
C1541 C1532 1.429 . S
C1541 N1538 1.350 . S
C1541 C1540 1.434 . S
C1542 C1543 1.369 . S
C1542 C1544 1.419 . S
C1542 H1546 0.930 1_565 S
C1543 C1542 1.369 . S
C1543 C1552 1.429 . S
C1544 C1542 1.419 . S
C1544 C1545 1.363 . S
C1544 H1547 0.929 . S
C1545 C1544 1.363 . S
C1545 C1551 1.428 . S
H1546 C1542 0.930 1_545 S
H1547 C1544 0.929 . S
S1548 N1549 1.613 . S
S1548 N1550 1.610 . S
N1549 S1548 1.613 . S
N1549 C1552 1.350 . S
N1550 S1548 1.610 . S
N1550 C1551 1.351 . S
C1551 C1545 1.428 . S
C1551 N1550 1.351 . S
C1551 C1552 1.434 . S
C1552 C1543 1.429 . S
C1552 N1549 1.350 . S
C1552 C1551 1.434 . S
C1553 C1554 1.369 . S
C1553 C1555 1.419 . S
C1553 H1557 0.930 1_554 S
C1554 C1553 1.369 . S
C1554 C1563 1.429 . S
C1555 C1553 1.419 . S
C1555 C1556 1.363 . S
C1555 H1558 0.929 . S
C1556 C1555 1.363 . S
C1556 C1562 1.428 . S
H1557 C1553 0.930 1_556 S
H1558 C1555 0.929 . S
S1559 N1560 1.613 . S
S1559 N1561 1.610 . S
N1560 S1559 1.613 . S
N1560 C1563 1.350 . S
N1561 S1559 1.610 . S
N1561 C1562 1.351 . S
C1562 C1556 1.428 . S
C1562 N1561 1.351 . S
C1562 C1563 1.434 . S
C1563 C1554 1.429 . S
C1563 N1560 1.350 . S
C1563 C1562 1.434 . S
C1564 C1565 1.369 . S
C1564 C1566 1.419 . S
C1564 H1568 0.930 . S
C1565 C1564 1.369 . S
C1565 C1574 1.429 . S
C1566 C1564 1.419 . S
C1566 C1567 1.363 . S
C1566 H1569 0.929 . S
C1567 C1566 1.363 . S
C1567 C1573 1.428 . S
H1568 C1564 0.930 . S
H1569 C1566 0.929 . S
S1570 N1571 1.613 . S
S1570 N1572 1.610 . S
N1571 S1570 1.613 . S
N1571 C1574 1.350 . S
N1572 S1570 1.610 . S
N1572 C1573 1.351 . S
C1573 C1567 1.428 . S
C1573 N1572 1.351 . S
C1573 C1574 1.434 . S
C1574 C1565 1.429 . S
C1574 N1571 1.350 . S
C1574 C1573 1.434 . S
C1575 C1576 1.369 . S
C1575 C1577 1.419 . S
C1575 H1579 0.930 . S
C1576 C1575 1.369 . S
C1576 C1585 1.429 . S
C1577 C1575 1.419 . S
C1577 C1578 1.363 . S
C1577 H1580 0.929 . S
C1578 C1577 1.363 . S
C1578 C1584 1.428 . S
H1579 C1575 0.930 . S
H1580 C1577 0.929 . S
S1581 N1582 1.613 1_556 S
S1581 N1583 1.610 . S
N1582 S1581 1.613 1_554 S
N1582 C1585 1.350 . S
N1583 S1581 1.610 . S
N1583 C1584 1.351 1_556 S
C1584 C1578 1.428 . S
C1584 N1583 1.351 1_554 S
C1584 C1585 1.434 . S
C1585 C1576 1.429 . S
C1585 N1582 1.350 . S
C1585 C1584 1.434 . S
C1586 C1587 1.369 . S
C1586 C1588 1.419 . S
C1586 H1590 0.930 . S
C1587 C1586 1.369 . S
C1587 C1596 1.429 . S
C1588 C1586 1.419 . S
C1588 C1589 1.363 . S
C1588 H1591 0.929 . S
C1589 C1588 1.363 . S
C1589 C1595 1.428 . S
H1590 C1586 0.930 . S
H1591 C1588 0.929 . S
S1592 N1593 1.613 . S
S1592 N1594 1.610 . S
N1593 S1592 1.613 . S
N1593 C1596 1.350 . S
N1594 S1592 1.610 . S
N1594 C1595 1.351 . S
C1595 C1589 1.428 . S
C1595 N1594 1.351 . S
C1595 C1596 1.434 . S
C1596 C1587 1.429 . S
C1596 N1593 1.350 . S
C1596 C1595 1.434 . S
C1597 C1598 1.369 . S
C1597 C1599 1.419 . S
C1597 H1601 0.930 . S
C1598 C1597 1.369 . S
C1598 C1607 1.429 . S
C1599 C1597 1.419 . S
C1599 C1600 1.363 . S
C1599 H1602 0.929 . S
C1600 C1599 1.363 . S
C1600 C1606 1.428 . S
H1601 C1597 0.930 . S
H1602 C1599 0.929 . S
S1603 N1604 1.613 . S
S1603 N1605 1.610 . S
N1604 S1603 1.613 . S
N1604 C1607 1.350 . S
N1605 S1603 1.610 . S
N1605 C1606 1.351 . S
C1606 C1600 1.428 . S
C1606 N1605 1.351 . S
C1606 C1607 1.434 . S
C1607 C1598 1.429 . S
C1607 N1604 1.350 . S
C1607 C1606 1.434 . S
C1608 C1609 1.369 . S
C1608 C1610 1.419 . S
C1608 H1612 0.930 . S
C1609 C1608 1.369 . S
C1609 C1618 1.429 . S
C1610 C1608 1.419 . S
C1610 C1611 1.363 . S
C1610 H1613 0.929 . S
C1611 C1610 1.363 . S
C1611 C1617 1.428 . S
H1612 C1608 0.930 . S
H1613 C1610 0.929 . S
S1614 N1615 1.613 . S
S1614 N1616 1.610 . S
N1615 S1614 1.613 . S
N1615 C1618 1.350 . S
N1616 S1614 1.610 . S
N1616 C1617 1.351 . S
C1617 C1611 1.428 . S
C1617 N1616 1.351 . S
C1617 C1618 1.434 . S
C1618 C1609 1.429 . S
C1618 N1615 1.350 . S
C1618 C1617 1.434 . S
C1619 C1620 1.369 . S
C1619 C1621 1.419 . S
C1619 H1623 0.930 . S
C1620 C1619 1.369 . S
C1620 C1629 1.429 . S
C1621 C1619 1.419 . S
C1621 C1622 1.363 . S
C1621 H1624 0.929 . S
C1622 C1621 1.363 . S
C1622 C1628 1.428 . S
H1623 C1619 0.930 . S
H1624 C1621 0.929 . S
S1625 N1626 1.613 . S
S1625 N1627 1.610 . S
N1626 S1625 1.613 . S
N1626 C1629 1.350 . S
N1627 S1625 1.610 . S
N1627 C1628 1.351 . S
C1628 C1622 1.428 . S
C1628 N1627 1.351 . S
C1628 C1629 1.434 . S
C1629 C1620 1.429 . S
C1629 N1626 1.350 . S
C1629 C1628 1.434 . S
C1630 C1631 1.369 . S
C1630 C1632 1.419 . S
C1630 H1634 0.930 . S
C1631 C1630 1.369 . S
C1631 C1640 1.429 1_455 S
C1632 C1630 1.419 . S
C1632 C1633 1.363 . S
C1632 H1635 0.929 . S
C1633 C1632 1.363 . S
C1633 C1639 1.428 1_455 S
H1634 C1630 0.930 . S
H1635 C1632 0.929 . S
S1636 N1637 1.613 . S
S1636 N1638 1.610 . S
N1637 S1636 1.613 . S
N1637 C1640 1.350 . S
N1638 S1636 1.610 . S
N1638 C1639 1.351 . S
C1639 C1633 1.428 1_655 S
C1639 N1638 1.351 . S
C1639 C1640 1.434 . S
C1640 C1631 1.429 1_655 S
C1640 N1637 1.350 . S
C1640 C1639 1.434 . S
C1641 C1642 1.369 . S
C1641 C1643 1.419 . S
C1641 H1645 0.930 . S
C1642 C1641 1.369 . S
C1642 C1651 1.429 . S
C1643 C1641 1.419 . S
C1643 C1644 1.363 . S
C1643 H1646 0.929 . S
C1644 C1643 1.363 . S
C1644 C1650 1.428 . S
H1645 C1641 0.930 . S
H1646 C1643 0.929 . S
S1647 N1648 1.613 . S
S1647 N1649 1.610 . S
N1648 S1647 1.613 . S
N1648 C1651 1.350 . S
N1649 S1647 1.610 . S
N1649 C1650 1.351 . S
C1650 C1644 1.428 . S
C1650 N1649 1.351 . S
C1650 C1651 1.434 . S
C1651 C1642 1.429 . S
C1651 N1648 1.350 . S
C1651 C1650 1.434 . S
C1652 C1653 1.369 . S
C1652 C1654 1.419 . S
C1652 H1656 0.930 . S
C1653 C1652 1.369 . S
C1653 C1662 1.429 . S
C1654 C1652 1.419 . S
C1654 C1655 1.363 . S
C1654 H1657 0.929 . S
C1655 C1654 1.363 . S
C1655 C1661 1.428 . S
H1656 C1652 0.930 . S
H1657 C1654 0.929 . S
S1658 N1659 1.613 . S
S1658 N1660 1.610 . S
N1659 S1658 1.613 . S
N1659 C1662 1.350 . S
N1660 S1658 1.610 . S
N1660 C1661 1.351 . S
C1661 C1655 1.428 . S
C1661 N1660 1.351 . S
C1661 C1662 1.434 . S
C1662 C1653 1.429 . S
C1662 N1659 1.350 . S
C1662 C1661 1.434 . S
C1663 C1664 1.369 . S
C1663 C1665 1.419 . S
C1663 H1667 0.930 . S
C1664 C1663 1.369 . S
C1664 C1673 1.429 . S
C1665 C1663 1.419 . S
C1665 C1666 1.363 . S
C1665 H1668 0.929 . S
C1666 C1665 1.363 . S
C1666 C1672 1.428 . S
H1667 C1663 0.930 . S
H1668 C1665 0.929 . S
S1669 N1670 1.613 . S
S1669 N1671 1.610 . S
N1670 S1669 1.613 . S
N1670 C1673 1.350 . S
N1671 S1669 1.610 . S
N1671 C1672 1.351 . S
C1672 C1666 1.428 . S
C1672 N1671 1.351 . S
C1672 C1673 1.434 . S
C1673 C1664 1.429 . S
C1673 N1670 1.350 . S
C1673 C1672 1.434 . S
C1674 C1675 1.369 1_655 S
C1674 C1676 1.419 . S
C1674 H1678 0.930 . S
C1675 C1674 1.369 1_455 S
C1675 C1684 1.429 . S
C1676 C1674 1.419 . S
C1676 C1677 1.363 1_655 S
C1676 H1679 0.929 . S
C1677 C1676 1.363 1_455 S
C1677 C1683 1.428 . S
H1678 C1674 0.930 . S
H1679 C1676 0.929 . S
S1680 N1681 1.613 . S
S1680 N1682 1.610 . S
N1681 S1680 1.613 . S
N1681 C1684 1.350 . S
N1682 S1680 1.610 . S
N1682 C1683 1.351 . S
C1683 C1677 1.428 . S
C1683 N1682 1.351 . S
C1683 C1684 1.434 . S
C1684 C1675 1.429 . S
C1684 N1681 1.350 . S
C1684 C1683 1.434 . S
C1685 C1686 1.369 . S
C1685 C1687 1.419 . S
C1685 H1689 0.930 . S
C1686 C1685 1.369 . S
C1686 C1695 1.429 . S
C1687 C1685 1.419 . S
C1687 C1688 1.363 . S
C1687 H1690 0.929 . S
C1688 C1687 1.363 . S
C1688 C1694 1.428 . S
H1689 C1685 0.930 . S
H1690 C1687 0.929 . S
S1691 N1692 1.613 . S
S1691 N1693 1.610 . S
N1692 S1691 1.613 . S
N1692 C1695 1.350 . S
N1693 S1691 1.610 . S
N1693 C1694 1.351 . S
C1694 C1688 1.428 . S
C1694 N1693 1.351 . S
C1694 C1695 1.434 . S
C1695 C1686 1.429 . S
C1695 N1692 1.350 . S
C1695 C1694 1.434 . S
C1696 C1697 1.369 . S
C1696 C1698 1.419 . S
C1696 H1700 0.930 . S
C1697 C1696 1.369 . S
C1697 C1706 1.429 . S
C1698 C1696 1.419 . S
C1698 C1699 1.363 . S
C1698 H1701 0.929 . S
C1699 C1698 1.363 . S
C1699 C1705 1.428 . S
H1700 C1696 0.930 . S
H1701 C1698 0.929 . S
S1702 N1703 1.613 . S
S1702 N1704 1.610 . S
N1703 S1702 1.613 . S
N1703 C1706 1.350 . S
N1704 S1702 1.610 . S
N1704 C1705 1.351 . S
C1705 C1699 1.428 . S
C1705 N1704 1.351 . S
C1705 C1706 1.434 . S
C1706 C1697 1.429 . S
C1706 N1703 1.350 . S
C1706 C1705 1.434 . S
C1707 C1708 1.369 . S
C1707 C1709 1.419 . S
C1707 H1711 0.930 . S
C1708 C1707 1.369 . S
C1708 C1717 1.429 . S
C1709 C1707 1.419 . S
C1709 C1710 1.363 . S
C1709 H1712 0.929 . S
C1710 C1709 1.363 . S
C1710 C1716 1.428 . S
H1711 C1707 0.930 . S
H1712 C1709 0.929 . S
S1713 N1714 1.613 . S
S1713 N1715 1.610 . S
N1714 S1713 1.613 . S
N1714 C1717 1.350 . S
N1715 S1713 1.610 . S
N1715 C1716 1.351 . S
C1716 C1710 1.428 . S
C1716 N1715 1.351 . S
C1716 C1717 1.434 . S
C1717 C1708 1.429 . S
C1717 N1714 1.350 . S
C1717 C1716 1.434 . S
C1718 C1719 1.369 . S
C1718 C1720 1.419 . S
C1718 H1722 0.930 . S
C1719 C1718 1.369 . S
C1719 C1728 1.429 . S
C1720 C1718 1.419 . S
C1720 C1721 1.363 . S
C1720 H1723 0.929 . S
C1721 C1720 1.363 . S
C1721 C1727 1.428 . S
H1722 C1718 0.930 . S
H1723 C1720 0.929 . S
S1724 N1725 1.613 . S
S1724 N1726 1.610 . S
N1725 S1724 1.613 . S
N1725 C1728 1.350 . S
N1726 S1724 1.610 . S
N1726 C1727 1.351 . S
C1727 C1721 1.428 . S
C1727 N1726 1.351 . S
C1727 C1728 1.434 . S
C1728 C1719 1.429 . S
C1728 N1725 1.350 . S
C1728 C1727 1.434 . S
C1729 C1730 1.369 . S
C1729 C1731 1.419 . S
C1729 H1733 0.930 . S
C1730 C1729 1.369 . S
C1730 C1739 1.429 . S
C1731 C1729 1.419 . S
C1731 C1732 1.363 . S
C1731 H1734 0.929 . S
C1732 C1731 1.363 . S
C1732 C1738 1.428 . S
H1733 C1729 0.930 . S
H1734 C1731 0.929 . S
S1735 N1736 1.613 . S
S1735 N1737 1.610 . S
N1736 S1735 1.613 . S
N1736 C1739 1.350 . S
N1737 S1735 1.610 . S
N1737 C1738 1.351 . S
C1738 C1732 1.428 . S
C1738 N1737 1.351 . S
C1738 C1739 1.434 . S
C1739 C1730 1.429 . S
C1739 N1736 1.350 . S
C1739 C1738 1.434 . S
C1740 C1741 1.369 . S
C1740 C1742 1.419 . S
C1740 H1744 0.930 . S
C1741 C1740 1.369 . S
C1741 C1750 1.429 . S
C1742 C1740 1.419 . S
C1742 C1743 1.363 . S
C1742 H1745 0.929 . S
C1743 C1742 1.363 . S
C1743 C1749 1.428 . S
H1744 C1740 0.930 . S
H1745 C1742 0.929 . S
S1746 N1747 1.613 . S
S1746 N1748 1.610 . S
N1747 S1746 1.613 . S
N1747 C1750 1.350 . S
N1748 S1746 1.610 . S
N1748 C1749 1.351 . S
C1749 C1743 1.428 . S
C1749 N1748 1.351 . S
C1749 C1750 1.434 . S
C1750 C1741 1.429 . S
C1750 N1747 1.350 . S
C1750 C1749 1.434 . S
C1751 C1752 1.369 . S
C1751 C1753 1.419 . S
C1751 H1755 0.930 . S
C1752 C1751 1.369 . S
C1752 C1761 1.429 . S
C1753 C1751 1.419 . S
C1753 C1754 1.363 . S
C1753 H1756 0.929 . S
C1754 C1753 1.363 . S
C1754 C1760 1.428 . S
H1755 C1751 0.930 . S
H1756 C1753 0.929 . S
S1757 N1758 1.613 . S
S1757 N1759 1.610 . S
N1758 S1757 1.613 . S
N1758 C1761 1.350 . S
N1759 S1757 1.610 . S
N1759 C1760 1.351 . S
C1760 C1754 1.428 . S
C1760 N1759 1.351 . S
C1760 C1761 1.434 . S
C1761 C1752 1.429 . S
C1761 N1758 1.350 . S
C1761 C1760 1.434 . S
C1762 C1763 1.369 . S
C1762 C1764 1.419 . S
C1762 H1766 0.930 . S
C1763 C1762 1.369 . S
C1763 C1772 1.429 . S
C1764 C1762 1.419 . S
C1764 C1765 1.363 . S
C1764 H1767 0.929 . S
C1765 C1764 1.363 . S
C1765 C1771 1.428 . S
H1766 C1762 0.930 . S
H1767 C1764 0.929 . S
S1768 N1769 1.613 . S
S1768 N1770 1.610 . S
N1769 S1768 1.613 . S
N1769 C1772 1.350 . S
N1770 S1768 1.610 . S
N1770 C1771 1.351 . S
C1771 C1765 1.428 . S
C1771 N1770 1.351 . S
C1771 C1772 1.434 . S
C1772 C1763 1.429 . S
C1772 N1769 1.350 . S
C1772 C1771 1.434 . S
C1773 C1774 1.369 . S
C1773 C1775 1.419 . S
C1773 H1777 0.930 . S
C1774 C1773 1.369 . S
C1774 C1783 1.429 . S
C1775 C1773 1.419 . S
C1775 C1776 1.363 . S
C1775 H1778 0.929 . S
C1776 C1775 1.363 . S
C1776 C1782 1.428 . S
H1777 C1773 0.930 . S
H1778 C1775 0.929 . S
S1779 N1780 1.613 . S
S1779 N1781 1.610 . S
N1780 S1779 1.613 . S
N1780 C1783 1.350 . S
N1781 S1779 1.610 . S
N1781 C1782 1.351 . S
C1782 C1776 1.428 . S
C1782 N1781 1.351 . S
C1782 C1783 1.434 . S
C1783 C1774 1.429 . S
C1783 N1780 1.350 . S
C1783 C1782 1.434 . S
C1784 C1785 1.369 . S
C1784 C1786 1.419 . S
C1784 H1788 0.930 . S
C1785 C1784 1.369 . S
C1785 C1794 1.429 . S
C1786 C1784 1.419 . S
C1786 C1787 1.363 . S
C1786 H1789 0.929 . S
C1787 C1786 1.363 . S
C1787 C1793 1.428 . S
H1788 C1784 0.930 . S
H1789 C1786 0.929 . S
S1790 N1791 1.613 . S
S1790 N1792 1.610 . S
N1791 S1790 1.613 . S
N1791 C1794 1.350 . S
N1792 S1790 1.610 . S
N1792 C1793 1.351 . S
C1793 C1787 1.428 . S
C1793 N1792 1.351 . S
C1793 C1794 1.434 . S
C1794 C1785 1.429 . S
C1794 N1791 1.350 . S
C1794 C1793 1.434 . S
C1795 C1796 1.369 . S
C1795 C1797 1.419 . S
C1795 H1799 0.930 . S
C1796 C1795 1.369 . S
C1796 C1805 1.429 . S
C1797 C1795 1.419 . S
C1797 C1798 1.363 . S
C1797 H1800 0.929 . S
C1798 C1797 1.363 . S
C1798 C1804 1.428 . S
H1799 C1795 0.930 . S
H1800 C1797 0.929 . S
S1801 N1802 1.613 . S
S1801 N1803 1.610 . S
N1802 S1801 1.613 . S
N1802 C1805 1.350 . S
N1803 S1801 1.610 . S
N1803 C1804 1.351 . S
C1804 C1798 1.428 . S
C1804 N1803 1.351 . S
C1804 C1805 1.434 . S
C1805 C1796 1.429 . S
C1805 N1802 1.350 . S
C1805 C1804 1.434 . S
C1806 C1807 1.369 . S
C1806 C1808 1.419 . S
C1806 H1810 0.930 . S
C1807 C1806 1.369 . S
C1807 C1816 1.429 . S
C1808 C1806 1.419 . S
C1808 C1809 1.363 . S
C1808 H1811 0.929 . S
C1809 C1808 1.363 . S
C1809 C1815 1.428 . S
H1810 C1806 0.930 . S
H1811 C1808 0.929 . S
S1812 N1813 1.613 . S
S1812 N1814 1.610 . S
N1813 S1812 1.613 . S
N1813 C1816 1.350 . S
N1814 S1812 1.610 . S
N1814 C1815 1.351 . S
C1815 C1809 1.428 . S
C1815 N1814 1.351 . S
C1815 C1816 1.434 . S
C1816 C1807 1.429 . S
C1816 N1813 1.350 . S
C1816 C1815 1.434 . S
C1817 C1818 1.369 . S
C1817 C1819 1.419 1_565 S
C1817 H1821 0.930 1_565 S
C1818 C1817 1.369 . S
C1818 C1827 1.429 . S
C1819 C1817 1.419 1_545 S
C1819 C1820 1.363 1_545 S
C1819 H1822 0.929 . S
C1820 C1819 1.363 1_565 S
C1820 C1826 1.428 . S
H1821 C1817 0.930 1_545 S
H1822 C1819 0.929 . S
S1823 N1824 1.613 . S
S1823 N1825 1.610 . S
N1824 S1823 1.613 . S
N1824 C1827 1.350 . S
N1825 S1823 1.610 . S
N1825 C1826 1.351 . S
C1826 C1820 1.428 . S
C1826 N1825 1.351 . S
C1826 C1827 1.434 . S
C1827 C1818 1.429 . S
C1827 N1824 1.350 . S
C1827 C1826 1.434 . S
C1828 C1829 1.369 . S
C1828 C1830 1.419 . S
C1828 H1832 0.930 . S
C1829 C1828 1.369 . S
C1829 C1838 1.429 . S
C1830 C1828 1.419 . S
C1830 C1831 1.363 . S
C1830 H1833 0.929 . S
C1831 C1830 1.363 . S
C1831 C1837 1.428 . S
H1832 C1828 0.930 . S
H1833 C1830 0.929 . S
S1834 N1835 1.613 . S
S1834 N1836 1.610 . S
N1835 S1834 1.613 . S
N1835 C1838 1.350 . S
N1836 S1834 1.610 . S
N1836 C1837 1.351 . S
C1837 C1831 1.428 . S
C1837 N1836 1.351 . S
C1837 C1838 1.434 . S
C1838 C1829 1.429 . S
C1838 N1835 1.350 . S
C1838 C1837 1.434 . S
C1839 C1840 1.369 . S
C1839 C1841 1.419 . S
C1839 H1843 0.930 . S
C1840 C1839 1.369 . S
C1840 C1849 1.429 . S
C1841 C1839 1.419 . S
C1841 C1842 1.363 . S
C1841 H1844 0.929 . S
C1842 C1841 1.363 . S
C1842 C1848 1.428 . S
H1843 C1839 0.930 . S
H1844 C1841 0.929 . S
S1845 N1846 1.613 . S
S1845 N1847 1.610 . S
N1846 S1845 1.613 . S
N1846 C1849 1.350 . S
N1847 S1845 1.610 . S
N1847 C1848 1.351 . S
C1848 C1842 1.428 . S
C1848 N1847 1.351 . S
C1848 C1849 1.434 . S
C1849 C1840 1.429 . S
C1849 N1846 1.350 . S
C1849 C1848 1.434 . S
C1850 C1851 1.369 . S
C1850 C1852 1.419 . S
C1850 H1854 0.930 . S
C1851 C1850 1.369 . S
C1851 C1860 1.429 . S
C1852 C1850 1.419 . S
C1852 C1853 1.363 . S
C1852 H1855 0.929 . S
C1853 C1852 1.363 . S
C1853 C1859 1.428 . S
H1854 C1850 0.930 . S
H1855 C1852 0.929 . S
S1856 N1857 1.613 . S
S1856 N1858 1.610 . S
N1857 S1856 1.613 . S
N1857 C1860 1.350 . S
N1858 S1856 1.610 . S
N1858 C1859 1.351 . S
C1859 C1853 1.428 . S
C1859 N1858 1.351 . S
C1859 C1860 1.434 . S
C1860 C1851 1.429 . S
C1860 N1857 1.350 . S
C1860 C1859 1.434 . S
C1861 C1862 1.369 . S
C1861 C1863 1.419 . S
C1861 H1865 0.930 . S
C1862 C1861 1.369 . S
C1862 C1871 1.429 . S
C1863 C1861 1.419 . S
C1863 C1864 1.363 . S
C1863 H1866 0.929 . S
C1864 C1863 1.363 . S
C1864 C1870 1.428 . S
H1865 C1861 0.930 . S
H1866 C1863 0.929 . S
S1867 N1868 1.613 . S
S1867 N1869 1.610 . S
N1868 S1867 1.613 . S
N1868 C1871 1.350 . S
N1869 S1867 1.610 . S
N1869 C1870 1.351 . S
C1870 C1864 1.428 . S
C1870 N1869 1.351 . S
C1870 C1871 1.434 . S
C1871 C1862 1.429 . S
C1871 N1868 1.350 . S
C1871 C1870 1.434 . S
C819 C337 1.912 . S
C817 C7 1.946 . S
C828 C22 1.112 . S
C830 C382 1.113 . S
C839 C31 1.828 . S
C841 C406 1.796 . S
C852 N432 1.255 . S
C850 C51 1.228 . S
C861 C17 1.310 . S
C863 N462 1.324 . S
C874 C496 1.644 . S
C872 C36 1.682 . S
C885 C532 1.299 1_556 S
C883 C49 1.261 . S
C894 C9 1.897 . S
C896 C556 1.855 . S
C905 C63 1.086 . S
C907 N350 1.102 1_545 S
C916 C73 1.305 . S
C918 N372 1.327 . S
C929 C412 1.162 . S
C927 C91 1.112 . S
C940 C436 1.830 . S
C938 C101 1.868 . S
C949 C59 1.348 . S
C951 C466 1.302 . S
C962 C502 1.236 . S
C960 C77 1.175 . S
C973 N522 1.270 . S
C971 C87 1.254 . S
C984 C562 1.837 . S
C982 C105 1.852 . S
C995 C363 1.795 . S
C993 C107 1.827 . S
C1006 C592 1.130 . S
C1004 C120 1.121 . S
C1015 C135 1.258 . S
C1017 N612 1.294 . S
C1028 C646 1.651 . S
C1026 C148 1.685 . S
C1037 C65 1.052 . S
C1039 N552 1.056 . S
C1050 N402 1.281 1_565 S
C1048 C79 1.242 . S
C1059 C134 1.157 . S
C1061 C682 1.159 . S
C1072 C706 1.152 . S
C1070 C162 1.189 . S
C1081 C171 1.913 . S
C1083 C346 1.883 1_556 S
C1094 C723 1.077 . S
C1092 C190 1.083 . S
C1103 C203 1.756 . S
C1105 C397 1.765 . S
C1114 C219 1.212 . S
C1116 N680 1.238 . S
C1127 N470 1.305 . S
C1125 C189 1.193 . S
C1138 C607 1.617 . S
C1136 C204 1.649 . S
C1149 C543 1.257 . S
C1147 C213 1.268 . S
C1160 C727 1.829 . S
C1158 C177 1.874 . S
C1171 N342 1.083 . S
C1169 C227 1.081 . S
C1180 C245 1.198 . S
C1182 N710 1.304 . S
C1193 C423 1.119 . S
C1191 C255 1.133 . S
C1202 C273 1.776 . S
C1204 C667 1.799 . S
C1213 C231 1.228 . S
C1215 C457 1.264 1_655 S
C1224 C241 1.201 . S
C1226 C633 1.196 . S
C1237 N530 1.255 . S
C1235 C259 1.161 . S
C1246 C269 1.829 . S
C1248 C753 1.805 . S
C1257 C275 1.806 . S
C1259 C352 1.770 . S
C1268 C288 1.090 1_554 S
C1270 C603 1.095 . S
C1279 C303 1.259 . S
C1281 N500 1.273 . S
C1290 C316 1.648 . S
C1292 C637 1.621 . S
C1303 N740 1.040 . S
C1301 C233 1.038 1_565 S
C1314 N410 1.264 . S
C1312 C247 1.237 . S
C1325 C453 1.131 . S
C1323 C302 1.124 . S
C1336 C367 1.118 . S
C1334 C330 1.150 . S
C1345 C35 1.943 . S
C1347 C757 1.913 . S
C1358 C712 1.115 . S
C1356 C50 1.111 . S
C1369 C796 1.793 . S
C1367 C3 1.830 . S
C1378 C23 1.225 1_655 S
C1380 N672 1.257 . S
C1389 C45 1.305 . S
C1391 N582 1.327 1_556 S
C1402 C616 1.643 . S
C1400 C8 1.681 . S
C1413 C652 1.303 . S
C1411 C21 1.256 . S
C1424 C736 1.858 . S
C1422 C37 1.895 . S
C1435 N770 1.103 . S
C1433 C161 1.083 . S
C1444 C115 1.311 1_556 S
C1446 N702 1.324 . S
C1455 C133 1.119 . S
C1457 C802 1.158 1_655 S
C1468 C676 1.827 . S
C1466 C143 1.868 . S
C1479 C586 1.299 . S
C1477 C157 1.351 . S
C1488 C119 1.186 . S
C1490 C622 1.235 . S
C1501 N642 1.272 . S
C1499 C129 1.250 . S
C1510 C147 1.850 . S
C1512 C742 1.838 . S
C1523 C783 1.792 . S
C1521 C149 1.827 . S
C1534 C472 1.132 . S
C1532 C78 1.119 . S
C1545 N492 1.293 . S
C1543 C93 1.261 1_565 S
C1554 C106 1.686 . S
C1556 C526 1.652 . S
C1567 N732 1.057 . S
C1565 C163 1.052 . S
C1576 C121 1.241 . S
C1578 N792 1.281 . S
C1589 C442 1.164 . S
C1587 C92 1.152 . S
C1600 C376 1.157 . S
C1598 C64 1.189 . S
C1609 C199 1.913 . S
C1611 C766 1.883 . S
C1622 C393 1.080 . S
C1620 C218 1.076 . S
C1633 C787 1.768 1_556 S
C1631 C175 1.754 . S
C1642 C191 1.214 . S
C1644 N440 1.236 . S
C1653 C217 1.205 . S
C1655 N590 1.302 . S
C1664 C176 1.647 . S
C1666 C487 1.620 . S
C1675 C185 1.272 . S
C1677 C663 1.258 . S
C1686 C205 1.874 . S
C1688 C547 1.829 . S
C1699 N762 1.086 . S
C1697 C325 1.085 . S
C1708 C287 1.183 . S
C1710 N380 1.305 . S
C1721 C813 1.118 . S
C1719 C297 1.132 . S
C1730 C315 1.783 . S
C1732 C427 1.797 . S
C1741 C329 1.224 . S
C1743 C577 1.267 . S
C1754 C513 1.195 . S
C1752 C283 1.204 . S
C1763 C301 1.161 . S
C1765 N650 1.255 . S
C1776 C573 1.806 . S
C1774 C311 1.827 . S
C1787 C772 1.766 . S
C1785 C317 1.806 . S
C1798 C483 1.094 . S
C1796 C246 1.089 . S
C1807 C261 1.258 . S
C1809 N620 1.273 . S
C1820 C517 1.621 1_565 S
C1818 C274 1.650 . S
C1831 N560 1.041 . S
C1829 C331 1.037 . S
C1840 C289 1.239 . S
C1842 N800 1.260 . S
C1853 C693 1.129 . S
C1851 C260 1.129 . S
C1864 C697 1.127 . S
C1862 C232 1.142 . S
