# Generated by pormake.
# Topology zzz, (3,6)-cn, num edge types: 1
# Building blocks:
#     Node 0, Type 0, BuildingBlock: WUSLED_clean_sbu_0, # of connection points: 3
#     Node 1, Type 0, BuildingBlock: WUSLED_clean_sbu_0, # of connection points: 3
#     Node 2, Type 0, BuildingBlock: WUSLED_clean_sbu_0, # of connection points: 3
#     Node 3, Type 0, BuildingBlock: WUSLED_clean_sbu_0, # of connection points: 3
#     Node 4, Type 0, BuildingBlock: WUSLED_clean_sbu_0, # of connection points: 3
#     Node 5, Type 0, BuildingBlock: WUSLED_clean_sbu_0, # of connection points: 3
#     Node 6, Type 0, BuildingBlock: WUSLED_clean_sbu_0, # of connection points: 3
#     Node 7, Type 0, BuildingBlock: WUSLED_clean_sbu_0, # of connection points: 3
#     Node 8, Type 1, BuildingBlock: KUMJIN_clean_sbu_1, # of connection points: 6
#     Node 9, Type 1, BuildingBlock: KUMJIN_clean_sbu_1, # of connection points: 6
#     Node 10, Type 1, BuildingBlock: KUMJIN_clean_sbu_1, # of connection points: 6
#     Node 11, Type 1, BuildingBlock: KUMJIN_clean_sbu_1, # of connection points: 6
#     Edge 12, Type (0, 1), BuildingBlock: AJUNOK_clean_linker_0, # of connection points: 2
#     Edge 13, Type (0, 1), BuildingBlock: AJUNOK_clean_linker_0, # of connection points: 2
#     Edge 14, Type (0, 1), BuildingBlock: AJUNOK_clean_linker_0, # of connection points: 2
#     Edge 15, Type (0, 1), BuildingBlock: AJUNOK_clean_linker_0, # of connection points: 2
#     Edge 16, Type (0, 1), BuildingBlock: AJUNOK_clean_linker_0, # of connection points: 2
#     Edge 17, Type (0, 1), BuildingBlock: AJUNOK_clean_linker_0, # of connection points: 2
#     Edge 18, Type (0, 1), BuildingBlock: AJUNOK_clean_linker_0, # of connection points: 2
#     Edge 19, Type (0, 1), BuildingBlock: AJUNOK_clean_linker_0, # of connection points: 2
#     Edge 20, Type (0, 1), BuildingBlock: AJUNOK_clean_linker_0, # of connection points: 2
#     Edge 21, Type (0, 1), BuildingBlock: AJUNOK_clean_linker_0, # of connection points: 2
#     Edge 22, Type (0, 1), BuildingBlock: AJUNOK_clean_linker_0, # of connection points: 2
#     Edge 23, Type (0, 1), BuildingBlock: AJUNOK_clean_linker_0, # of connection points: 2
#     Edge 24, Type (0, 1), BuildingBlock: AJUNOK_clean_linker_0, # of connection points: 2
#     Edge 25, Type (0, 1), BuildingBlock: AJUNOK_clean_linker_0, # of connection points: 2
#     Edge 26, Type (0, 1), BuildingBlock: AJUNOK_clean_linker_0, # of connection points: 2
#     Edge 27, Type (0, 1), BuildingBlock: AJUNOK_clean_linker_0, # of connection points: 2
#     Edge 28, Type (0, 1), BuildingBlock: AJUNOK_clean_linker_0, # of connection points: 2
#     Edge 29, Type (0, 1), BuildingBlock: AJUNOK_clean_linker_0, # of connection points: 2
#     Edge 30, Type (0, 1), BuildingBlock: AJUNOK_clean_linker_0, # of connection points: 2
#     Edge 31, Type (0, 1), BuildingBlock: AJUNOK_clean_linker_0, # of connection points: 2
#     Edge 32, Type (0, 1), BuildingBlock: AJUNOK_clean_linker_0, # of connection points: 2
#     Edge 33, Type (0, 1), BuildingBlock: AJUNOK_clean_linker_0, # of connection points: 2
#     Edge 34, Type (0, 1), BuildingBlock: AJUNOK_clean_linker_0, # of connection points: 2
#     Edge 35, Type (0, 1), BuildingBlock: AJUNOK_clean_linker_0, # of connection points: 2
# Relax obj value: 0.318
# Max RMSD: 0.197
# Mean RMSD: 0.176
data_MOF--net-zzz--node1-WUSLED_clean_sbu_0--node2-KUMJIN_clean_sbu_1--edge1-AJUNOK_clean_linker_0
_symmetry_space_group_name_H-M    P1
_symmetry_Int_Tables_number       1
_symmetry_cell_setting            triclinic
loop_
_symmetry_equiv_pos_as_xyz
'x, y, z'
_cell_length_a     48.59489
_cell_length_b     48.615222
_cell_length_c     18.021935
_cell_angle_alpha  89.869913
_cell_angle_beta   90.123658
_cell_angle_gamma 90.444429
loop_
_atom_site_label
_atom_site_type_symbol
_atom_site_fract_x
_atom_site_fract_y
_atom_site_fract_z
_atom_type_partial_charge
C0 C 0.80611 0.53433 0.40361 0.0
C1 C 0.82736 0.51725 0.37752 0.0
C2 C 0.85958 0.53269 0.47594 0.0
C3 C 0.85341 0.51641 0.41288 0.0
C4 C 0.8382 0.54959 0.50243 0.0
C5 C 0.81208 0.55036 0.4671 0.0
U6 U 0.74664 0.54819 0.25514 0.0
O7 O 0.71384 0.5192 0.21961 0.0
O8 O 0.70251 0.55908 0.265 0.0
C9 C 0.69385 0.53676 0.23046 0.0
C10 C 0.77708 0.53302 0.37144 0.0
C11 C 0.6736 0.54007 0.16725 0.0
C12 C 0.63228 0.52367 0.10092 0.0
C13 C 0.65111 0.52178 0.16059 0.0
C14 C 0.65755 0.56258 0.05262 0.0
C15 C 0.63518 0.54393 0.04505 0.0
C16 C 0.67648 0.56059 0.11235 0.0
C17 C 0.80067 0.57958 0.1263 0.0
C18 C 0.82978 0.57999 1.01787 0.0
C19 C 0.8467 0.5612 0.13382 0.0
C20 C 0.82217 0.56847 0.16857 0.0
C21 C 0.84953 0.56459 0.05662 0.0
C22 C 0.80545 0.58753 0.05281 0.0
C23 C 0.77223 0.5739 0.14733 0.0
O24 O 0.76249 0.55573 0.36935 0.0
O25 O 0.77261 0.5175 0.3128 0.0
O26 O 0.76632 0.54752 0.14673 0.0
O27 O 0.76219 0.58688 0.20502 0.0
H28 H 0.82375 0.50396 0.33031 0.0
H29 H 0.86856 0.50233 0.39142 0.0
H30 H 0.84168 0.56244 0.55058 0.0
H31 H 0.79629 0.56332 0.49047 0.0
H32 H 0.61562 0.5088 0.09789 0.0
H33 H 0.64817 0.50568 0.20154 0.0
H34 H 0.66038 0.57905 1.01284 0.0
H35 H 0.69344 0.57513 0.11546 0.0
H36 H 0.83116 0.58282 0.95838 0.0
H37 H 0.86182 0.5497 0.16513 0.0
H38 H 0.8187 0.56213 0.22551 0.0
H39 H 0.78896 0.59603 0.0195 0.0
C40 C 0.01453 0.80939 0.39912 0.0
C41 C 0.01378 0.83456 0.35982 0.0
C42 C 0.01538 0.86163 0.47581 0.0
C43 C 0.01372 0.86019 0.39757 0.0
C44 C 0.0164 0.8365 0.51483 0.0
C45 C 0.01575 0.81096 0.47729 0.0
U46 U 0.99834 0.74905 0.25233 0.0
O47 O 0.99257 0.70388 0.26758 0.0
O48 O 0.02871 0.71969 0.20918 0.0
C49 C 0.01383 0.69782 0.22557 0.0
C50 C 0.01644 0.78142 0.36187 0.0
C51 C 1.00961 0.67713 0.16387 0.0
C52 C 1.00359 0.62914 0.12279 0.0
C53 C 1.00531 0.64902 0.17994 0.0
C54 C 1.0101 0.66488 0.03146 0.0
C55 C 1.00616 0.63664 0.04728 0.0
C56 C 1.0117 0.68472 0.08847 0.0
C57 C 0.95667 0.79832 0.1347 0.0
C58 C 0.94978 0.82751 0.02748 0.0
C59 C 0.9763 0.84399 0.1325 0.0
C60 C 0.96998 0.81999 0.17117 0.0
C61 C 0.96801 0.84712 0.05795 0.0
C62 C 0.94453 0.80291 0.0653 0.0
C63 C 0.96492 0.77039 0.15363 0.0
O64 O 0.99556 0.76418 0.36851 0.0
O65 O 0.0283 0.77965 0.29646 0.0
O66 O 0.95614 0.76 0.21677 0.0
O67 O 0.99131 0.76667 0.14279 0.0
H68 H 0.01373 0.83457 0.29984 0.0
H69 H 1.01308 0.879 0.36533 0.0
H70 H 0.01762 0.83658 0.57484 0.0
H71 H 0.01676 0.79222 0.5098 0.0
H72 H 1.00113 0.60772 0.13814 0.0
H73 H 1.00388 0.64226 0.23714 0.0
H74 H 1.01205 0.67174 0.97448 0.0
H75 H 0.01503 0.70606 0.07333 0.0
H76 H 0.94237 0.82963 0.97104 0.0
H77 H 0.99072 0.85806 0.15834 0.0
H78 H 0.97935 0.81658 0.22487 0.0
H79 H 0.93403 0.78633 0.03647 0.0
C80 C 0.73894 1.0149 0.42261 0.0
C81 C 0.7159 1.00384 0.3852 0.0
C82 C 0.68536 1.01348 0.49143 0.0
C83 C 0.6896 1.00314 0.41898 0.0
C84 C 0.70857 0.02454 0.52844 0.0
C85 C 0.73481 0.02517 0.49473 0.0
U86 U 0.79005 1.00324 0.25883 0.0
O87 O 0.81836 0.03271 0.20336 0.0
O88 O 0.83491 0.9953 0.25311 0.0
C89 C 0.84034 0.01755 0.21389 0.0
C90 C 0.7669 0.01732 0.38664 0.0
C91 C 0.86059 0.01524 0.15084 0.0
C92 C 0.90702 0.02489 0.1025 0.0
C93 C 0.88743 0.02584 0.16014 0.0
C94 C 0.87361 1.0025 0.02365 0.0
C95 C 0.90064 1.01311 0.03297 0.0
C96 C 0.85394 1.00348 0.08164 0.0
C97 C 0.75384 0.96702 0.09087 0.0
C98 C 0.74649 0.98907 0.97206 0.0
C99 C 0.7131 0.95644 0.01937 0.0
C100 C 0.73049 0.95058 0.07888 0.0
C101 C 0.71943 0.97855 0.97185 0.0
C102 C 0.7637 0.98355 0.0325 0.0
C103 C 0.75801 0.97604 0.16762 0.0
O104 O 0.78115 0.99465 0.37761 0.0
O105 O 0.76856 0.0336 0.32854 0.0
O106 O 0.75731 1.0028 0.1768 0.0
O107 O 0.77602 0.96354 0.21021 0.0
H108 H 0.71815 0.99604 0.3293 0.0
H109 H 0.67242 0.99502 0.38737 0.0
H110 H 0.70653 0.03262 0.58407 0.0
H111 H 0.75197 0.03401 0.52513 0.0
H112 H 0.92706 0.03407 0.11217 0.0
H113 H 0.89327 0.03526 0.21234 0.0
H114 H 0.86765 0.99323 0.9714 0.0
H115 H 0.83351 0.99512 0.07226 0.0
H116 H 0.75237 1.00525 0.93366 0.0
H117 H 0.69275 0.94717 0.01923 0.0
H118 H 0.7229 0.93712 0.12244 0.0
H119 H 0.78211 0.99596 0.03982 0.0
C120 C 0.52625 0.73615 0.39666 0.0
C121 C 0.51793 0.71148 0.36165 0.0
C122 C 0.5263 0.68407 0.47542 0.0
C123 C 0.51809 0.68599 0.40011 0.0
C124 C 0.53519 0.70873 0.5096 0.0
C125 C 0.53505 0.73416 0.47117 0.0
U126 U 0.53872 0.79519 0.24533 0.0
O127 O 0.54534 0.84027 0.25535 0.0
O128 O 0.50789 0.82461 0.20295 0.0
C129 C 0.52309 0.84644 0.21706 0.0
C130 C 0.52322 0.76426 0.36049 0.0
C131 C 0.52578 0.86718 0.15492 0.0
C132 C 0.50816 0.90817 0.09054 0.0
C133 C 0.5069 0.88894 0.14938 0.0
C134 C 0.5476 0.88477 0.04108 0.0
C135 C 0.52835 0.90639 0.03451 0.0
C136 C 0.54624 0.86544 0.09993 0.0
C137 C 0.57711 0.74313 0.1291 0.0
C138 C 0.57735 0.71103 0.02692 0.0
C139 C 0.5619 0.69616 0.14838 0.0
C140 C 0.56832 0.72208 0.17706 0.0
C141 C 0.56383 0.69144 0.07157 0.0
C142 C 0.58403 0.73682 0.0558 0.0
C143 C 0.5693 0.77145 0.14482 0.0
O144 O 0.54445 0.78125 0.36196 0.0
O145 O 0.50923 0.76616 0.29807 0.0
O146 O 0.54271 0.77515 0.1379 0.0
O147 O 0.5798 0.78326 0.20413 0.0
H148 H 0.51079 0.71188 0.3047 0.0
H149 H 0.51109 0.66777 0.37102 0.0
H150 H 0.54249 0.70847 0.56636 0.0
H151 H 0.54145 0.75254 0.50056 0.0
H152 H 0.49285 0.92422 0.08826 0.0
H153 H 0.49083 0.89096 0.19054 0.0
H154 H 0.56405 0.88285 1.0011 0.0
H155 H 0.5612 0.84906 0.1023 0.0
H156 H 0.57906 0.70813 0.96755 0.0
H157 H 0.55184 0.68123 0.18414 0.0
H158 H 0.56281 0.72668 0.23391 0.0
H159 H 0.59075 0.75291 1.01808 0.0
C160 C 0.22951 0.51252 0.96788 0.0
C161 C 0.2134 0.48825 0.96632 0.0
C162 C 0.17591 0.51137 0.89717 0.0
C163 C 0.187 0.48775 0.9322 0.0
C164 C 0.19231 0.53549 0.89894 0.0
C165 C 0.21841 0.53603 0.93356 0.0
U166 U 0.29132 0.49661 0.10873 0.0
O167 O 0.31968 0.52846 0.15092 0.0
O168 O 0.33679 0.49247 0.09615 0.0
C169 C 0.342 0.51428 0.13739 0.0
C170 C 0.2582 0.51426 1.00084 0.0
C171 C 0.36215 0.51166 0.20126 0.0
C172 C 0.40932 0.50438 0.24761 0.0
C173 C 0.38976 0.50408 0.18917 0.0
C174 C 0.37424 0.51941 0.33234 0.0
C175 C 0.40205 0.5127 0.31997 0.0
C176 C 0.35471 0.51888 0.27434 0.0
C177 C 0.24281 0.45391 0.22831 0.0
C178 C 0.21398 0.45733 0.33663 0.0
C179 C 0.19593 0.46944 0.21561 0.0
C180 C 0.22068 0.46162 0.18308 0.0
C181 C 0.19365 0.47021 0.29341 0.0
C182 C 0.23834 0.44876 0.30373 0.0
C183 C 0.27042 0.46304 0.20806 0.0
O184 O 0.26117 0.5267 0.06511 0.0
O185 O 0.27476 0.49308 0.99413 0.0
O186 O 0.28087 0.45427 0.14526 0.0
O187 O 0.27362 0.48959 0.21795 0.0
H188 H 0.2212 0.46959 0.99123 0.0
H189 H 0.17519 0.46881 0.93423 0.0
H190 H 0.18518 0.55411 0.87232 0.0
H191 H 0.23021 0.55503 0.9326 0.0
H192 H 0.43042 0.49896 0.23552 0.0
H193 H 0.39641 0.4985 0.13393 0.0
H194 H 0.3675 0.52528 0.38727 0.0
H195 H 0.33376 0.52471 0.28678 0.0
H196 H 0.21311 0.45753 0.39662 0.0
H197 H 0.18025 0.47859 0.18081 0.0
H198 H 0.22382 0.46567 0.12464 0.0
H199 H 0.25528 0.4427 0.3393 0.0
C200 C 0.02905 0.23277 0.97433 0.0
C201 C 0.0175 0.20878 1.00644 0.0
C202 C 0.02782 0.18079 0.8956 0.0
C203 C 0.01699 0.18336 0.96804 0.0
C204 C 0.04028 0.20453 0.86471 0.0
C205 C 0.04069 0.22998 0.90295 0.0
U206 U 0.0452 0.29539 0.11224 0.0
O207 O 0.01435 0.32143 0.16703 0.0
O208 O 0.04561 0.34084 0.09713 0.0
C209 C 0.02551 0.34472 0.14486 0.0
C210 C 0.02562 0.26104 1.00933 0.0
C211 C 0.0292 0.36656 0.20354 0.0
C212 C 0.01764 0.41252 0.25024 0.0
C213 C 0.01717 0.39256 0.19346 0.0
C214 C 0.04315 0.38155 0.32867 0.0
C215 C 0.03025 0.40729 0.31943 0.0
C216 C 0.04247 0.36142 0.27186 0.0
C217 C 0.0949 0.2486 0.20985 0.0
C218 C 0.09553 0.21765 0.31466 0.0
C219 C 0.07714 0.20228 0.19674 0.0
C220 C 0.08472 0.22735 0.1646 0.0
C221 C 0.07948 0.19885 0.27393 0.0
C222 C 0.10344 0.24252 0.28226 0.0
C223 C 0.08443 0.27628 0.19739 0.0
O224 O 0.01595 0.26258 0.07737 0.0
O225 O 0.04435 0.28014 0.99602 0.0
O226 O 0.08949 0.2881 0.1331 0.0
O227 O 0.05862 0.27814 0.21774 0.0
H228 H 1.00814 0.20972 0.06084 0.0
H229 H 1.00785 0.16566 0.99527 0.0
H230 H 0.0489 0.20374 0.8094 0.0
H231 H 0.04943 0.2478 0.8753 0.0
H232 H 1.00787 0.43212 0.24007 0.0
H233 H 1.00675 0.39729 0.14183 0.0
H234 H 0.05303 0.37661 0.38089 0.0
H235 H 0.05181 0.34161 0.28195 0.0
H236 H 0.09814 0.21524 0.37404 0.0
H237 H 0.06562 0.18754 0.16376 0.0
H238 H 0.07823 0.2316 0.10818 0.0
H239 H 0.11159 0.25864 0.31773 0.0
C240 C 0.30561 0.03469 0.94267 0.0
C241 C 0.32843 0.04587 0.98083 0.0
C242 C 0.35995 0.03457 0.87792 0.0
C243 C 0.35504 0.04596 0.94891 0.0
C244 C 0.3368 0.02414 0.83923 0.0
C245 C 0.31022 0.02416 0.87105 0.0
U246 U 0.25242 0.04984 0.09928 0.0
O247 O 0.22834 0.02014 0.16655 0.0
O248 O 0.20675 0.05208 0.10451 0.0
C249 C 0.20457 0.03203 0.15348 0.0
C250 C 0.27766 0.03165 0.97845 0.0
C251 C 0.18477 0.03549 0.21785 0.0
C252 C 0.13767 0.04449 0.26239 0.0
C253 C 0.15765 0.04468 0.20526 0.0
C254 C 0.17131 0.02644 0.34747 0.0
C255 C 0.1439 0.03472 0.33429 0.0
C256 C 0.1913 0.02673 0.29048 0.0
C257 C 0.28077 0.09579 0.25591 0.0
C258 C 0.28155 0.07306 0.37533 0.0
C259 C 0.31957 0.10207 0.33759 0.0
C260 C 0.30488 0.11007 0.27476 0.0
C261 C 0.30954 0.08031 0.3818 0.0
C262 C 0.26708 0.08064 0.31135 0.0
C263 C 0.28025 0.08513 0.18005 0.0
O264 O 0.2772 0.01853 0.04221 0.0
O265 O 0.26112 0.05301 0.97826 0.0
O266 O 0.26068 0.09291 0.13433 0.0
O267 O 0.28545 0.05872 0.17703 0.0
H268 H 0.32576 0.05421 0.03601 0.0
H269 H 0.37179 0.05508 0.9802 0.0
H270 H 0.33929 1.01515 0.78478 0.0
H271 H 0.29325 0.01525 0.84005 0.0
H272 H 0.11697 0.05107 0.24935 0.0
H273 H 0.15156 0.05129 0.15022 0.0
H274 H 0.17737 0.01943 0.40213 0.0
H275 H 0.21178 0.01944 0.30319 0.0
H276 H 0.27261 0.05765 0.4117 0.0
H277 H 0.34066 0.10921 0.3427 0.0
H278 H 0.31528 0.12276 0.23379 0.0
H279 H 0.24785 0.07017 0.29892 0.0
C280 C 0.51263 0.30999 0.95246 0.0
C281 C 0.49152 0.32929 0.96374 0.0
C282 C 0.5136 0.36312 0.87914 0.0
C283 C 0.49217 0.35547 0.9285 0.0
C284 C 0.53372 0.34294 0.86502 0.0
C285 C 0.53343 0.31723 0.90161 0.0
U286 U 0.49563 0.24974 0.09972 0.0
O287 O 0.52723 0.22313 0.14949 0.0
O288 O 0.49335 0.20413 0.08808 0.0
C289 C 0.51441 0.20007 0.13291 0.0
C290 C 0.51407 0.28221 0.9907 0.0
C291 C 0.51114 0.17952 0.19553 0.0
C292 C 0.51076 0.13152 0.2395 0.0
C293 C 0.51124 0.15104 0.18114 0.0
C294 C 0.50987 0.16832 0.32882 0.0
C295 C 0.51014 0.13972 0.31468 0.0
C296 C 0.51026 0.1878 0.27048 0.0
C297 C 0.44881 0.29719 0.20788 0.0
C298 C 0.43975 0.32584 0.31422 0.0
C299 C 0.46521 0.3442 0.20965 0.0
C300 C 0.4611 0.31961 0.17169 0.0
C301 C 0.45723 0.34617 0.28425 0.0
C302 C 0.43566 0.3012 0.276 0.0
C303 C 0.45937 0.26982 0.19216 0.0
O304 O 0.5252 0.28101 0.0572 0.0
O305 O 0.49342 0.26473 0.98317 0.0
O306 O 0.48578 0.26805 0.20647 0.0
O307 O 0.45228 0.25822 0.12908 0.0
H308 H 0.47441 0.32421 0.99937 0.0
H309 H 0.47592 0.36987 0.94075 0.0
H310 H 0.54978 0.34673 0.82477 0.0
H311 H 0.54964 0.30274 0.88956 0.0
H312 H 0.51088 0.10987 0.22553 0.0
H313 H 0.51217 0.14379 0.12441 0.0
H314 H 0.51014 0.17581 0.38532 0.0
H315 H 0.51046 0.20947 0.28428 0.0
H316 H 0.43305 0.32716 0.3714 0.0
H317 H 0.47877 0.35947 0.18503 0.0
H318 H 0.47191 0.31655 0.1202 0.0
H319 H 0.42603 0.28405 0.3047 0.0
Eu320 Eu 0.99179 0.03464 0.60672 0.0
C321 C 0.09856 0.05619 0.79314 0.0
N322 N 0.09339 0.03722 0.73933 0.0
C323 C 0.13912 0.04341 0.69158 0.0
C324 C 0.12427 0.06985 0.79726 0.0
C325 C 0.11345 0.03026 0.68996 0.0
C326 C 0.14453 0.06337 0.74524 0.0
C327 C 0.08285 0.08176 0.90059 0.0
C328 C 0.07812 0.06201 0.84456 0.0
C329 C 0.10842 0.09529 0.90474 0.0
C330 C 0.12906 0.08935 0.85327 0.0
Eu331 Eu 0.04994 1.01485 0.7453 0.0
N332 N 0.05332 0.04903 0.83842 0.0
C333 C 0.06162 0.08756 0.95036 0.0
C334 C 0.03265 0.05452 0.88713 0.0
C335 C 0.03639 0.0739 0.94347 0.0
H336 H 0.1102 1.01385 0.65088 0.0
H337 H 0.01974 0.07844 0.98117 0.0
H338 H 0.92895 0.04651 0.67586 0.0
H339 H 0.02036 0.97525 0.36156 0.0
H340 H 1.01298 0.0447 0.8813 0.0
H341 H 0.06441 0.10269 0.99383 0.0
H342 H 0.02791 1.00655 0.46667 0.0
H343 H 0.15487 0.0378 0.65215 0.0
H344 H 0.11241 0.11048 0.94743 0.0
H345 H 0.1487 0.09996 0.85728 0.0
H346 H 0.88143 0.02854 0.66286 0.0
H347 H 0.16453 0.07337 0.74668 0.0
H348 H 0.97412 0.95533 0.33907 0.0
N349 N 0.94553 0.01954 0.59557 0.0
C350 C 0.93994 1.00142 0.54014 0.0
C351 C 0.89775 0.02039 0.62876 0.0
C352 C 0.9129 0.99156 0.52804 0.0
C353 C 0.92476 0.02992 0.63766 0.0
C354 C 0.89183 1.00085 0.57426 0.0
N355 N 0.98697 1.00327 0.50683 0.0
C356 C 1.00788 0.99757 0.45891 0.0
C357 C 0.95571 0.97583 0.43305 0.0
C358 C 0.96109 0.99359 0.49335 0.0
C359 C 0.97741 0.96892 0.38588 0.0
C360 C 1.00356 0.98002 0.39858 0.0
H361 H 0.87082 0.99375 0.5668 0.0
H362 H 0.887 0.96551 0.45929 0.0
H363 H 0.92448 0.95178 0.37604 0.0
O364 O 1.00286 0.06335 0.51917 0.0
O365 O 0.99696 0.98757 0.61446 0.0
O366 O 0.03987 0.97928 0.66505 0.0
O367 O 0.96136 0.06313 0.56222 0.0
O368 O 0.03715 0.04312 0.5726 0.0
O369 O 0.06163 1.00827 0.62484 0.0
O370 O 0.04963 0.99198 0.84877 0.0
O371 O 0.04393 0.06098 0.71796 0.0
O372 O 0.99758 0.06446 0.70396 0.0
O373 O 0.08488 0.98912 0.77666 0.0
O374 O 1.00609 1.00502 0.78821 0.0
O375 O 0.97561 0.03343 0.72665 0.0
C376 C 0.01778 0.97092 0.62806 0.0
C377 C 0.97923 0.10537 0.51655 0.0
C378 C 0.99901 0.1469 0.46366 0.0
C379 C 0.98017 0.16283 0.50353 0.0
C380 C 0.96045 0.12133 0.55685 0.0
C381 C 0.96101 0.15001 0.55025 0.0
C382 C 0.99838 0.11835 0.47031 0.0
C383 C 0.05843 0.02637 0.57149 0.0
C384 C 0.97889 0.07522 0.51854 0.0
C385 C 0.90762 0.97334 0.46926 0.0
C386 C 0.92894 0.96557 0.42174 0.0
C387 C 0.02116 0.0753 0.72554 0.0
C388 C 0.07209 0.9491 0.84351 0.0
C389 C 0.04912 0.90755 0.88831 0.0
C390 C 0.07159 0.89189 0.8642 0.0
C391 C 0.09456 0.93324 0.82066 0.0
C392 C 0.0493 0.93599 0.87615 0.0
C393 C 0.09413 0.90472 0.83032 0.0
C394 C 0.9819 0.01734 0.78354 0.0
C395 C 0.07255 0.97926 0.83498 0.0
H396 H 0.98038 0.18505 0.49871 0.0
H397 H 0.94532 0.11176 0.59283 0.0
H398 H 0.9465 0.16228 0.58108 0.0
H399 H 1.01262 0.10614 0.43805 0.0
H400 H 0.07198 0.86984 0.87293 0.0
H401 H 0.11242 0.94287 0.79542 0.0
H402 H 0.03159 0.94791 0.89264 0.0
H403 H 0.11146 0.89258 0.8124 0.0
Eu404 Eu 0.53203 0.05514 0.73694 0.0
C405 C 0.51525 0.93153 0.58143 0.0
N406 N 0.5242 0.95584 0.55252 0.0
C407 C 0.5505 0.93186 0.46098 0.0
C408 C 0.52417 0.90628 0.55178 0.0
C409 C 0.54127 0.95637 0.49239 0.0
C410 C 0.54222 0.90671 0.49139 0.0
C411 C 0.48565 0.90687 0.66766 0.0
C412 C 0.49613 0.93184 0.63861 0.0
C413 C 0.49502 0.88174 0.6395 0.0
C414 C 0.51425 0.88144 0.58178 0.0
Eu415 Eu 0.50631 0.99616 0.60671 0.0
N416 N 0.48733 0.95647 0.66481 0.0
C417 C 0.4658 0.90787 0.72366 0.0
C418 C 0.46691 0.95743 0.71676 0.0
C419 C 0.45624 0.93327 0.74787 0.0
H420 H 0.54732 0.97581 0.46782 0.0
H421 H 0.44046 0.93428 0.79006 0.0
H422 H 0.47929 0.07311 0.8502 0.0
H423 H 0.58679 0.11649 0.52918 0.0
H424 H 0.45884 0.9767 0.73501 0.0
H425 H 0.45735 0.88916 0.74757 0.0
H426 H 0.57537 0.07479 0.60102 0.0
H427 H 0.56396 0.93238 0.41322 0.0
H428 H 0.48729 0.86241 0.66143 0.0
H429 H 0.52097 0.86188 0.55989 0.0
H430 H 0.45025 0.11329 0.87314 0.0
H431 H 0.54941 0.88775 0.46686 0.0
H432 H 0.56037 0.15912 0.54894 0.0
N433 N 0.50219 0.09223 0.76321 0.0
C434 C 0.50741 0.11604 0.72566 0.0
C435 C 0.46605 0.11425 0.83094 0.0
C436 C 0.49168 0.13982 0.73875 0.0
C437 C 0.48225 0.09126 0.81658 0.0
C438 C 0.47068 0.1386 0.79165 0.0
N439 N 0.54322 0.09347 0.66149 0.0
C440 C 0.56417 0.09332 0.61125 0.0
C441 C 0.53434 0.14109 0.63381 0.0
C442 C 0.52864 0.11676 0.67401 0.0
C443 C 0.5555 0.1409 0.58123 0.0
C444 C 0.57048 0.1169 0.56996 0.0
H445 H 0.45818 0.15644 0.80331 0.0
H446 H 0.48556 0.18253 0.70858 0.0
H447 H 0.52278 0.18358 0.61645 0.0
O448 O 0.57303 0.06613 0.77562 0.0
O449 O 0.50814 0.06498 0.62897 0.0
O450 O 0.52569 0.03343 0.55067 0.0
O451 O 0.53795 0.07477 0.84487 0.0
O452 O 0.56812 0.03295 0.68071 0.0
O453 O 0.55229 1.005 0.5849 0.0
O454 O 0.46792 1.01235 0.56132 0.0
O455 O 0.5209 0.97832 0.7177 0.0
O456 O 0.52887 1.01407 0.80049 0.0
O457 O 0.49029 0.98006 0.50198 0.0
O458 O 0.47375 0.0211 0.67126 0.0
O459 O 0.49379 0.03355 0.78117 0.0
C460 C 0.51505 0.0578 0.56101 0.0
C461 C 0.57921 0.06206 0.90532 0.0
C462 C 0.61829 0.03755 0.95689 0.0
C463 C 0.60745 0.04086 0.02842 0.0
C464 C 0.56862 0.06535 0.97729 0.0
C465 C 0.58264 0.05462 0.03841 0.0
C466 C 0.6041 0.04796 0.8956 0.0
C467 C 0.57258 0.01691 0.62277 0.0
C468 C 0.56465 0.07382 0.84096 0.0
C469 C 0.49745 0.1641 0.69916 0.0
C470 C 0.51868 0.16472 0.6468 0.0
C471 C 0.52679 0.9875 0.78485 0.0
C472 C 0.44823 0.99616 0.44491 0.0
C473 C 0.40337 1.01055 0.39981 0.0
C474 C 0.40918 0.99833 0.33084 0.0
C475 C 0.45347 0.98354 0.37646 0.0
C476 C 0.42311 1.00943 0.45648 0.0
C477 C 0.43398 0.98469 0.31967 0.0
C478 C 0.47168 0.02806 0.74179 0.0
C479 C 0.46915 0.99622 0.50355 0.0
H480 H 0.61833 0.03299 0.07642 0.0
H481 H 0.54958 0.07629 0.98633 0.0
H482 H 0.5744 0.05721 0.09368 0.0
H483 H 0.61289 0.04556 0.84076 0.0
H484 H 0.3948 0.99976 0.28503 0.0
H485 H 0.47278 0.97321 0.36639 0.0
H486 H 0.41889 0.01892 0.5096 0.0
H487 H 0.43827 0.97534 0.26652 0.0
Eu488 Eu 0.54787 0.51051 0.61717 0.0
C489 C 0.43946 0.4937 0.79297 0.0
N490 N 0.44577 0.51045 0.73459 0.0
C491 C 0.40082 0.50276 0.68263 0.0
C492 C 0.41359 0.48033 0.79709 0.0
C493 C 0.42656 0.51573 0.68104 0.0
C494 C 0.39433 0.4849 0.74072 0.0
C495 C 0.45311 0.47159 0.9084 0.0
C496 C 0.45893 0.48968 0.84887 0.0
C497 C 0.42729 0.45858 0.91273 0.0
C498 C 0.40759 0.46298 0.85738 0.0
Eu499 Eu 0.48819 0.53444 0.74433 0.0
N500 N 0.48396 0.50232 0.84326 0.0
C501 C 0.47365 0.46655 0.96106 0.0
C502 C 0.5043 0.49664 0.8932 0.0
C503 C 0.49947 0.47884 0.95278 0.0
H504 H 0.43039 0.53076 0.63844 0.0
H505 H 0.5158 0.47436 0.99184 0.0
H506 H 0.6085 0.4995 0.70067 0.0
H507 H 0.5303 0.5468 0.33371 0.0
H508 H 0.52465 0.50464 0.8856 0.0
H509 H 0.47002 0.45267 1.0072 0.0
H510 H 0.51901 0.52271 0.45021 0.0
H511 H 0.38578 0.50701 0.6398 0.0
H512 H 0.42246 0.44481 0.95832 0.0
H513 H 0.38778 0.4527 0.86147 0.0
H514 H 0.65746 0.51243 0.68421 0.0
H515 H 0.37424 0.47508 0.74211 0.0
H516 H 0.57585 0.56915 0.31858 0.0
N517 N 0.59484 0.5231 0.60844 0.0
C518 C 0.60222 0.5384 0.54841 0.0
C519 C 0.64206 0.5203 0.64642 0.0
C520 C 0.62986 0.54649 0.53731 0.0
C521 C 0.61435 0.5132 0.65592 0.0
C522 C 0.64975 0.53767 0.58815 0.0
N523 N 0.55691 0.53299 0.50298 0.0
C524 C 0.53867 0.53288 0.44509 0.0
C525 C 0.59023 0.55704 0.42765 0.0
C526 C 0.58267 0.54348 0.494 0.0
C527 C 0.57082 0.55896 0.37039 0.0
C528 C 0.5451 0.54633 0.37864 0.0
H529 H 0.67124 0.54317 0.58108 0.0
H530 H 0.65811 0.56832 0.46472 0.0
H531 H 0.62334 0.57768 0.36881 0.0
O532 O 0.53341 0.47094 0.57783 0.0
O533 O 0.53231 0.55332 0.58661 0.0
O534 O 0.51475 0.57012 0.69577 0.0
O535 O 0.57748 0.48104 0.57078 0.0
O536 O 0.50374 0.50359 0.57252 0.0
O537 O 0.47866 0.53877 0.62117 0.0
O538 O 0.47359 0.55383 0.84519 0.0
O539 O 0.49447 0.48798 0.72187 0.0
O540 O 0.54074 0.48789 0.7258 0.0
O541 O 0.45548 0.56509 0.74002 0.0
O542 O 0.52919 0.54332 0.80365 0.0
O543 O 0.56456 0.52551 0.73118 0.0
C544 C 0.52433 0.57417 0.62764 0.0
C545 C 0.56237 0.43653 0.52352 0.0
C546 C 0.54399 0.39932 0.44874 0.0
C547 C 0.56979 0.38646 0.45026 0.0
C548 C 0.58825 0.42394 0.52406 0.0
C549 C 0.59184 0.39882 0.48785 0.0
C550 C 0.54037 0.42403 0.4864 0.0
C551 C 0.48276 0.52062 0.56856 0.0
C552 C 0.55798 0.46323 0.55818 0.0
C553 C 0.63705 0.56165 0.47368 0.0
C554 C 0.61725 0.56695 0.41901 0.0
C555 C 0.51744 0.47472 0.73662 0.0
C556 C 0.45816 0.59946 0.83161 0.0
C557 C 0.48046 0.63721 0.89713 0.0
C558 C 0.45914 0.65476 0.87464 0.0
C559 C 0.4371 0.61722 0.80906 0.0
C560 C 0.4799 0.60962 0.87528 0.0
C561 C 0.43767 0.6448 0.83041 0.0
C562 C 0.55553 0.53783 0.79235 0.0
C563 C 0.4569 0.57032 0.81066 0.0
H564 H 0.57291 0.36716 0.42172 0.0
H565 H 0.60555 0.43346 0.55235 0.0
H566 H 0.61177 0.38902 0.48846 0.0
H567 H 0.52031 0.43368 0.48615 0.0
H568 H 0.45924 0.67621 0.89083 0.0
H569 H 0.42018 0.6097 0.77532 0.0
H570 H 0.49613 0.59602 0.89369 0.0
H571 H 0.42138 0.65844 0.81295 0.0
Eu572 Eu 0.03538 0.55098 0.62269 0.0
C573 C 0.0461 0.44452 0.79623 0.0
N574 N 0.03058 0.45037 0.73525 0.0
C575 C 0.04296 0.40734 0.68023 0.0
C576 C 0.06162 0.4201 0.79969 0.0
C577 C 0.02795 0.43172 0.67909 0.0
C578 C 0.06008 0.40161 0.74041 0.0
C579 C 0.06348 0.45769 0.91778 0.0
C580 C 0.04672 0.46307 0.85532 0.0
C581 C 0.07921 0.43361 0.92053 0.0
C582 C 0.07815 0.41482 0.86196 0.0
Eu583 Eu 1.00475 0.49123 0.74121 0.0
N584 N 0.03127 0.48639 0.85154 0.0
C585 C 0.06391 0.47661 0.97605 0.0
C586 C 0.03086 0.50426 0.90993 0.0
C587 C 0.0474 0.49987 0.97226 0.0
H588 H 0.01375 0.43504 0.63403 0.0
H589 H 0.04715 0.51433 1.01785 0.0
H590 H 0.01842 0.6096 0.71952 0.0
H591 H 0.02806 0.53428 0.32438 0.0
H592 H 0.01759 0.52174 0.91028 0.0
H593 H 0.07659 0.47324 0.02471 0.0
H594 H 0.04397 0.52532 0.45205 0.0
H595 H 0.04101 0.39279 0.63511 0.0
H596 H 0.09215 0.42924 0.96808 0.0
H597 H 0.09027 0.39624 0.86527 0.0
H598 H 0.98929 0.64972 0.70309 0.0
H599 H 0.07165 0.38265 0.74114 0.0
H600 H 0.99747 0.57362 0.29863 0.0
N601 N 1.00993 0.5926 0.61282 0.0
C602 C 0.99905 0.59788 0.54454 0.0
C603 C 0.99141 0.63506 0.65839 0.0
C604 C 0.98305 0.62159 0.53169 0.0
C605 C 1.00748 0.61161 0.66819 0.0
C606 C 0.97874 0.63984 0.59025 0.0
N607 N 0.02139 0.55826 0.49898 0.0
C608 C 0.03006 0.54209 0.44199 0.0
C609 C 0.99599 0.58657 0.41345 0.0
C610 C 1.00533 0.58053 0.48588 0.0
C611 C 1.00415 0.56959 0.35501 0.0
C612 C 0.02136 0.54733 0.36934 0.0
H613 H 0.96661 0.65825 0.58258 0.0
H614 H 0.96025 0.64494 0.44978 0.0
H615 H 0.97165 0.61431 0.34623 0.0
O616 O 0.07826 0.5449 0.59841 0.0
O617 O 0.99287 0.53528 0.58418 0.0
O618 O 0.97304 0.52189 0.69353 0.0
O619 O 0.06166 0.58624 0.5909 0.0
O620 O 0.04288 0.50693 0.57846 0.0
O621 O 1.00442 0.4832 0.61659 0.0
O622 O 0.98183 0.4721 0.83114 0.0
O623 O 0.0519 0.49519 0.72485 0.0
O624 O 0.0559 0.54111 0.73309 0.0
O625 O 0.97252 0.46072 0.71802 0.0
O626 O 0.9954 0.53262 0.79782 0.0
O627 O 0.02568 0.56344 0.74239 0.0
C628 C 0.9706 0.52958 0.62333 0.0
C629 C 0.10435 0.5771 0.52919 0.0
C630 C 0.13914 0.55914 0.446 0.0
C631 C 0.15361 0.58427 0.45095 0.0
C632 C 0.11886 0.60208 0.53355 0.0
C633 C 0.14319 0.60578 0.49352 0.0
C634 C 0.11385 0.5563 0.48237 0.0
C635 C 0.02469 0.48683 0.56921 0.0
C636 C 0.08333 0.5708 0.58493 0.0
C637 C 0.9727 0.62694 0.46034 0.0
C638 C 0.97923 0.60954 0.40133 0.0
C639 C 0.06636 0.51683 0.74575 0.0
C640 C 0.9358 0.46101 0.8028 0.0
C641 C 0.89805 0.48404 0.86437 0.0
C642 C 0.87977 0.46383 0.83765 0.0
C643 C 0.91739 0.44103 0.77584 0.0
C644 C 0.92593 0.48275 0.84605 0.0
C645 C 0.88942 0.44256 0.79293 0.0
C646 C 1.00856 0.5566 0.79655 0.0
C647 C 0.96528 0.45863 0.78726 0.0
H648 H 0.17328 0.58702 0.42369 0.0
H649 H 0.11205 0.61822 0.57042 0.0
H650 H 0.15459 0.62492 0.49805 0.0
H651 H 0.10226 0.53725 0.47755 0.0
H652 H 0.85811 0.46449 0.85159 0.0
H653 H 0.92469 0.42416 0.74218 0.0
H654 H 0.94 0.49823 0.86759 0.0
H655 H 0.87528 0.42705 0.77233 0.0
C656 C 0.10288 0.05369 0.4078 0.0
C657 C 0.12184 0.0323 0.39427 0.0
C658 C 0.08246 0.05168 0.46405 0.0
C659 C 0.07975 0.0281 0.5097 0.0
H660 H 0.10409 0.07244 0.37536 0.0
H661 H 0.06888 0.06896 0.47233 0.0
S662 S 0.12161 0.9647 0.49124 0.0
N663 N 0.13463 0.98576 0.42825 0.0
N664 N 0.09664 0.98184 0.53177 0.0
C665 C 0.09796 1.00623 0.49488 0.0
C666 C 0.1188 1.00837 0.43817 0.0
C667 C 0.52746 0.09516 0.37422 0.0
C668 C 0.51045 0.11863 0.37756 0.0
C669 C 0.52851 0.07554 0.43253 0.0
C670 C 0.51263 0.07826 0.49762 0.0
H671 H 0.54058 0.0921 0.32652 0.0
H672 H 0.54235 0.05832 0.427 0.0
S673 S 0.46241 0.13407 0.53218 0.0
N674 N 0.47578 0.14201 0.45068 0.0
N675 N 0.47777 0.10555 0.55893 0.0
C676 C 0.49503 0.10122 0.501 0.0
C677 C 0.49398 0.12121 0.44173 0.0
C678 C 0.44215 0.49395 0.39741 0.0
C679 C 0.42326 0.51521 0.38187 0.0
C680 C 0.46136 0.49585 0.45676 0.0
C681 C 0.46285 0.51919 0.50343 0.0
H682 H 0.44172 0.47538 0.36433 0.0
H683 H 0.47493 0.47865 0.46665 0.0
S684 S 0.42057 0.58215 0.48068 0.0
N685 N 0.4091 0.56133 0.41513 0.0
N686 N 0.44499 0.56512 0.52437 0.0
C687 C 0.44476 0.54098 0.48649 0.0
C688 C 0.42511 0.53893 0.4267 0.0
C689 C 0.05272 0.43671 0.42141 0.0
C690 C 0.02889 0.42816 0.38214 0.0
C691 C 0.05155 0.4563 0.47978 0.0
C692 C 0.02637 0.46768 0.50327 0.0
H693 H 0.07254 0.42835 0.40645 0.0
H694 H 0.07043 0.46201 0.50805 0.0
S695 S 0.95791 0.4522 0.42053 0.0
N696 N 0.97934 0.4332 0.37192 0.0
N697 N 0.97707 0.4687 0.48202 0.0
C698 C 1.00247 0.45915 0.46488 0.0
C699 C 1.00373 0.43984 0.40449 0.0
C700 C 0.91398 0.01971 0.89694 0.0
C701 C 0.92168 1.01275 0.97007 0.0
C702 C 0.93326 0.02081 0.83813 0.0
C703 C 0.9614 1.01447 0.84769 0.0
H704 H 0.89285 0.02511 0.88503 0.0
H705 H 0.92568 0.0267 0.78462 0.0
S706 S 0.99263 0.99409 0.02804 0.0
N707 N 0.95995 0.99901 0.04846 0.0
N708 N 0.99549 0.99982 0.93818 0.0
C709 C 0.96924 1.0066 0.92037 0.0
C710 C 0.94972 1.00616 0.981 0.0
C711 C 0.52395 0.95522 0.98148 0.0
C712 C 0.52901 0.92689 0.97003 0.0
C713 C 0.52393 0.97455 0.92233 0.0
C714 C 0.52871 0.96672 0.84797 0.0
H715 H 0.52007 0.96268 0.03701 0.0
H716 H 0.51962 0.99585 0.93513 0.0
S717 S 0.54374 0.8954 0.78656 0.0
N718 N 0.53899 0.89233 0.87684 0.0
N719 N 0.53981 0.92836 0.76749 0.0
C720 C 0.53417 0.93856 0.83583 0.0
C721 C 0.53415 0.91886 0.896 0.0
C722 C 0.58644 0.54106 0.99083 0.0
C723 C 0.61499 0.54511 0.97983 0.0
C724 C 0.56739 0.54062 0.93106 0.0
C725 C 0.57578 0.54292 0.85607 0.0
H726 H 0.57857 0.53835 0.04656 0.0
H727 H 0.5459 0.53801 0.94453 0.0
S728 S 0.64707 0.56022 0.79706 0.0
N729 N 0.64987 0.55566 0.88747 0.0
N730 N 0.61431 0.55487 0.77673 0.0
C731 C 0.60395 0.54891 0.84474 0.0
C732 C 0.62336 0.54988 0.90576 0.0
C733 C 0.0257 0.61713 0.92777 0.0
C734 C 1.00607 0.6154 0.98516 0.0
C735 C 0.02633 0.59804 0.86886 0.0
C736 C 1.00692 0.57629 0.86214 0.0
H737 H 0.04123 0.63323 0.92893 0.0
H738 H 0.04262 0.60037 0.82844 0.0
S739 S 0.95183 0.56126 0.9995 0.0
N740 N 0.96721 0.58903 0.03279 0.0
N741 N 0.96803 0.55367 0.92179 0.0
C742 C 0.98738 0.57395 0.91986 0.0
C743 C 0.98702 0.59328 0.9809 0.0
C744 C 0.06706 0.16606 0.37571 0.0
C745 C 0.05895 0.1821 0.31461 0.0
C746 C 0.04746 0.15471 0.42391 0.0
C747 C 0.01922 0.15949 0.41319 0.0
H748 H 0.08869 0.16295 0.3874 0.0
H749 H 0.05441 0.1426 0.47079 0.0
S750 S 0.9871 0.19893 0.26054 0.0
N751 N 0.0205 0.2015 0.2452 0.0
N752 N 0.98388 0.17983 0.33592 0.0
C753 C 1.01076 0.1748 0.3516 0.0
C754 C 0.03059 0.18615 0.30211 0.0
C755 C 0.3547 0.06905 0.44128 0.0
C756 C 0.3299 0.05987 0.40891 0.0
C757 C 0.37809 0.05239 0.44204 0.0
C758 C 0.37744 0.02581 0.41115 0.0
H759 H 0.35665 0.09005 0.46072 0.0
H760 H 0.39725 0.06111 0.46236 0.0
S761 S 0.31655 0.9898 0.33295 0.0
N762 N 0.30548 0.02085 0.35346 0.0
N763 N 0.3491 0.98936 0.35893 0.0
C764 C 0.35216 0.0153 0.38601 0.0
C765 C 0.32842 0.03229 0.38429 0.0
C766 C 0.49017 0.34776 0.38886 0.0
C767 C 0.47515 0.36221 0.33448 0.0
C768 C 0.51245 0.35993 0.42539 0.0
C769 C 0.52042 0.38701 0.40919 0.0
H770 H 0.48571 0.3263 0.40037 0.0
H771 H 0.52373 0.34796 0.46596 0.0
S772 S 0.48713 0.43424 0.27477 0.0
N773 N 0.46906 0.4054 0.26872 0.0
N774 N 0.51118 0.4285 0.33772 0.0
C775 C 0.50505 0.40212 0.35709 0.0
C776 C 0.48235 0.38966 0.31964 0.0
C777 C 0.17518 0.51772 0.29837 0.0
C778 C 0.17563 0.49092 0.3285 0.0
C779 C 0.163 0.53946 0.33621 0.0
C780 C 0.15098 0.53543 0.40608 0.0
H781 H 0.18547 0.52237 0.24653 0.0
H782 H 0.16337 0.5597 0.31091 0.0
S783 S 0.14656 0.46933 0.5098 0.0
N784 N 0.16204 0.46139 0.43133 0.0
N785 N 0.14058 0.50267 0.505 0.0
C786 C 0.15098 0.50871 0.43684 0.0
C787 C 0.16295 0.4864 0.39748 0.0
C788 C 0.9936 0.85598 0.94012 0.0
C789 C 0.98372 0.86604 1.00841 0.0
C790 C 0.01408 0.86998 0.90049 0.0
C791 C 0.02577 0.89441 0.92789 0.0
H792 H 0.98684 0.83622 0.919 0.0
H793 H 0.02143 0.86114 0.84915 0.0
S794 S 1.00618 0.93033 0.10137 0.0
N795 N 0.98528 0.9035 0.09742 0.0
N796 N 0.02559 0.92856 0.0265 0.0
C797 C 0.01533 0.90539 0.99429 0.0
C798 C 0.99386 0.89153 0.03352 0.0
C799 C 0.67256 0.98435 0.91558 0.0
C800 C 0.69627 0.99624 0.94775 0.0
C801 C 0.64743 0.99843 0.91485 0.0
C802 C 0.6453 0.02462 0.94697 0.0
H803 H 0.67304 0.9634 0.89532 0.0
H804 H 0.62927 0.98818 0.89303 0.0
S805 S 0.70128 0.06616 0.03074 0.0
N806 N 0.71603 0.03704 1.00684 0.0
N807 N 0.66884 0.0631 1.00462 0.0
C808 C 0.66902 0.03751 0.97431 0.0
C809 C 0.69457 0.02344 0.97467 0.0
C810 C 0.51636 0.67359 0.05493 0.0
C811 C 0.54438 0.67202 0.03553 0.0
C812 C 0.49597 0.66163 1.01071 0.0
C813 C 0.50276 0.64751 0.94563 0.0
H814 H 0.50987 0.68573 0.10199 0.0
H815 H 0.47463 0.66412 0.02649 0.0
S816 S 0.57307 0.63467 0.87445 0.0
N817 N 0.578 0.65312 0.95031 0.0
N818 N 0.53942 0.63053 0.86658 0.0
C819 C 0.53071 0.64422 0.92775 0.0
C820 C 0.55158 0.65654 0.97282 0.0
C821 C 0.86522 0.5172 0.0305 0.0
C822 C 0.8671 0.54552 1.01418 0.0
C823 C 0.8756 0.49754 0.98197 0.0
C824 C 0.88842 0.50544 0.91562 0.0
H825 H 0.85412 0.50997 0.07893 0.0
H826 H 0.87308 0.47596 0.99572 0.0
S827 S 0.90092 0.57668 0.84959 0.0
N828 N 0.88452 0.58044 0.92914 0.0
N829 N 0.90419 0.54318 0.83759 0.0
C830 C 0.89178 0.53358 0.90007 0.0
C831 C 0.88105 0.5537 0.94942 0.0
C832 C 0.04821 0.14358 0.81117 0.0
C833 C 0.02563 0.15389 0.85181 0.0
C834 C 0.04654 0.11865 0.77026 0.0
C835 C 0.02207 0.10272 0.76649 0.0
H836 H 0.06763 0.15465 0.81195 0.0
H837 H 0.06474 0.11174 0.74143 0.0
S838 S 0.95658 0.12044 0.86057 0.0
N839 N 0.97766 0.14585 0.88355 0.0
N840 N 0.97459 0.09966 0.80745 0.0
C841 C 0.99925 0.11298 0.8059 0.0
C842 C 1.00104 0.13817 0.84827 0.0
C843 C 0.39332 0.03791 0.76785 0.0
C844 C 0.38883 0.03318 0.8445 0.0
C845 C 0.41982 0.03614 0.7353 0.0
C846 C 0.44347 0.02982 0.77757 0.0
H847 H 0.37618 0.04329 0.73235 0.0
H848 H 0.42181 0.04011 0.67638 0.0
S849 S 0.44345 1.01299 0.97875 0.0
N850 N 0.41091 0.01982 0.96025 0.0
N851 N 0.46018 0.0173 0.89993 0.0
C852 C 0.43935 0.02478 0.85392 0.0
C853 C 0.41234 0.02629 0.88699 0.0
C854 C 0.49089 0.40545 0.81889 0.0
C855 C 0.51497 0.39165 0.8424 0.0
C856 C 0.49183 0.4317 0.78399 0.0
C857 C 0.51686 0.44603 0.77136 0.0
H858 H 0.47097 0.39573 0.82636 0.0
H859 H 0.4726 0.4408 0.76671 0.0
S860 S 0.5861 0.41993 0.82263 0.0
N861 N 0.56486 0.39543 0.85081 0.0
N862 N 0.5665 0.44381 0.78518 0.0
C863 C 0.54107 0.43249 0.79421 0.0
C864 C 0.54016 0.40577 0.8296 0.0
C865 C 0.13037 0.53479 0.86438 0.0
C866 C 0.14756 0.51147 0.85956 0.0
C867 C 0.10451 0.53617 0.82802 0.0
C868 C 0.09404 0.51427 0.78475 0.0
H869 H 0.13683 0.55233 0.89715 0.0
H870 H 0.09252 0.5547 0.8344 0.0
S871 S 0.13087 0.44896 0.7487 0.0
N872 N 0.15195 0.46613 0.80407 0.0
N873 N 0.10377 0.46877 0.7368 0.0
C874 C 0.11086 0.4908 0.77908 0.0
C875 C 0.13732 0.48938 0.81607 0.0
C876 C 0.99371 0.90713 0.51467 0.0
C877 C 0.01626 0.88905 0.51663 0.0
C878 C 0.99398 0.93254 0.55337 0.0
C879 C 0.01723 0.94211 0.5936 0.0
H880 H 0.97539 0.90137 0.48389 0.0
H881 H 0.97555 0.94472 0.55178 0.0
S882 S 0.08139 0.90181 0.61971 0.0
N883 N 0.062 0.88183 0.5667 0.0
N884 N 0.06319 0.92976 0.63526 0.0
C885 C 0.03979 0.92385 0.59698 0.0
C886 C 0.03916 0.89754 0.55943 0.0
C887 C 0.64758 0.03611 0.56899 0.0
C888 C 0.65696 1.01332 0.52768 0.0
C889 C 0.62105 0.03664 0.60168 0.0
C890 C 0.60197 1.01468 0.59371 0.0
H891 H 0.66073 0.05404 0.57534 0.0
H892 H 0.61544 0.05476 0.6326 0.0
S893 S 0.61843 0.94748 0.50715 0.0
N894 N 0.64621 0.96636 0.49183 0.0
N895 N 0.59688 0.9675 0.55224 0.0
C896 C 0.61173 0.99116 0.5565 0.0
C897 C 0.63885 0.9905 0.52369 0.0
C898 C 0.53447 0.63217 0.48184 0.0
C899 C 0.52589 0.65653 0.51709 0.0
C900 C 0.53419 0.60635 0.51836 0.0
C901 C 0.52517 0.60288 0.59251 0.0
H902 H 0.54182 0.63299 0.42518 0.0
H903 H 0.54108 0.58884 0.48722 0.0
S904 S 0.49975 0.65977 0.71092 0.0
N905 N 0.50747 0.67512 0.63176 0.0
N906 N 0.5071 0.62694 0.69964 0.0
C907 C 0.51651 0.62707 0.62877 0.0
C908 C 0.51688 0.65358 0.59154 0.0
C909 C 0.89118 0.5318 0.59159 0.0
C910 C 0.88801 0.5321 0.51331 0.0
C911 C 0.91751 0.53078 0.62657 0.0
C912 C 0.94233 0.53048 0.58549 0.0
H913 H 0.87308 0.53191 0.62651 0.0
H914 H 0.91838 0.53035 0.68658 0.0
S915 S 0.94591 0.53097 0.379 0.0
N916 N 0.91267 0.53228 0.39644 0.0
N917 N 0.96126 0.53004 0.46072 0.0
C918 C 0.93935 0.53082 0.50725 0.0
C919 C 0.91263 0.53169 0.47181 0.0
loop_
_geom_bond_atom_site_label_1
_geom_bond_atom_site_label_2
_geom_bond_distance
_geom_bond_site_symmetry_2
_ccdc_geom_bond_type
C0 C1 1.264 . S
C0 C5 1.479 . S
C0 C10 1.465 . S
C1 C0 1.264 . S
C1 C3 1.339 . S
C1 H28 0.931 . S
C2 C3 1.395 . S
C2 C4 1.320 . S
C3 C1 1.339 . S
C3 C2 1.395 . S
C3 H29 0.929 . S
C4 C2 1.320 . S
C4 C5 1.405 . S
C4 H30 0.930 . S
C5 C0 1.479 . S
C5 C4 1.405 . S
C5 H31 0.931 . S
U6 O7 2.454 . S
U6 O8 2.458 . S
U6 C9 2.984 . S
U6 C10 2.847 . S
U6 C23 2.882 . S
U6 O24 2.441 . S
U6 O25 2.420 . S
U6 O26 2.455 . S
U6 O27 2.449 . S
O7 U6 2.454 . S
O7 C9 1.353 . S
O8 U6 2.458 . S
O8 C9 1.286 . S
C9 U6 2.984 . S
C9 O7 1.353 . S
C9 O8 1.286 . S
C9 C11 1.363 . S
C10 C0 1.465 . S
C10 U6 2.847 . S
C10 O24 1.249 . S
C10 O25 1.202 . S
C11 C9 1.363 . S
C11 C13 1.408 . S
C11 C16 1.342 . S
C12 C13 1.310 . S
C12 C15 1.461 . S
C12 H32 0.932 . S
C13 C11 1.408 . S
C13 C12 1.310 . S
C13 H33 0.930 . S
C14 C15 1.474 . S
C14 C16 1.285 . S
C14 H34 0.929 . S
C15 C12 1.461 . S
C15 C14 1.474 . S
C16 C11 1.342 . S
C16 C14 1.285 . S
C16 H35 0.930 . S
C17 C20 1.424 . S
C17 C22 1.245 . S
C17 C23 1.428 . S
C18 C21 1.260 1_556 S
C18 C22 1.477 1_556 S
C18 H36 0.932 . S
C19 C20 1.384 . S
C19 C21 1.479 . S
C19 H37 0.929 . S
C20 C17 1.424 . S
C20 C19 1.384 . S
C20 H38 0.928 . S
C21 C18 1.260 1_554 S
C21 C19 1.479 . S
C22 C17 1.245 . S
C22 C18 1.477 1_554 S
C22 H39 0.932 . S
C23 U6 2.882 . S
C23 C17 1.428 . S
C23 O26 1.301 . S
C23 O27 1.282 . S
O24 U6 2.441 . S
O24 C10 1.249 . S
O25 U6 2.420 . S
O25 C10 1.202 . S
O26 U6 2.455 . S
O26 C23 1.301 . S
O27 U6 2.449 . S
O27 C23 1.282 . S
H28 C1 0.931 . S
H29 C3 0.929 . S
H30 C4 0.930 . S
H31 C5 0.931 . S
H32 C12 0.932 . S
H33 C13 0.930 . S
H34 C14 0.929 . S
H35 C16 0.930 . S
H36 C18 0.932 . S
H37 C19 0.929 . S
H38 C20 0.928 . S
H39 C22 0.932 . S
C40 C41 1.264 . S
C40 C45 1.479 . S
C40 C50 1.465 . S
C41 C40 1.264 . S
C41 C43 1.339 . S
C41 H68 0.931 . S
C42 C43 1.395 . S
C42 C44 1.320 . S
C43 C41 1.339 . S
C43 C42 1.395 . S
C43 H69 0.929 . S
C44 C42 1.320 . S
C44 C45 1.405 . S
C44 H70 0.930 . S
C45 C40 1.479 . S
C45 C44 1.405 . S
C45 H71 0.931 . S
U46 O47 2.454 . S
U46 O48 2.458 . S
U46 C49 2.984 . S
U46 C50 2.847 . S
U46 C63 2.882 . S
U46 O64 2.441 . S
U46 O65 2.420 . S
U46 O66 2.455 . S
U46 O67 2.449 . S
O47 U46 2.454 . S
O47 C49 1.353 . S
O48 U46 2.458 . S
O48 C49 1.286 . S
C49 U46 2.984 . S
C49 O47 1.353 . S
C49 O48 1.286 . S
C49 C51 1.363 . S
C50 C40 1.465 . S
C50 U46 2.847 . S
C50 O64 1.249 . S
C50 O65 1.202 . S
C51 C49 1.363 . S
C51 C53 1.408 . S
C51 C56 1.342 . S
C52 C53 1.310 . S
C52 C55 1.461 . S
C52 H72 0.932 . S
C53 C51 1.408 . S
C53 C52 1.310 . S
C53 H73 0.930 . S
C54 C55 1.474 . S
C54 C56 1.285 . S
C54 H74 0.929 . S
C55 C52 1.461 . S
C55 C54 1.474 . S
C56 C51 1.342 . S
C56 C54 1.285 . S
C56 H75 0.930 . S
C57 C60 1.424 . S
C57 C62 1.245 . S
C57 C63 1.428 . S
C58 C61 1.260 1_556 S
C58 C62 1.477 1_556 S
C58 H76 0.932 . S
C59 C60 1.384 . S
C59 C61 1.479 . S
C59 H77 0.929 . S
C60 C57 1.424 . S
C60 C59 1.384 . S
C60 H78 0.928 . S
C61 C58 1.260 1_554 S
C61 C59 1.479 . S
C62 C57 1.245 . S
C62 C58 1.477 1_554 S
C62 H79 0.932 . S
C63 U46 2.882 . S
C63 C57 1.428 . S
C63 O66 1.301 . S
C63 O67 1.282 . S
O64 U46 2.441 . S
O64 C50 1.249 . S
O65 U46 2.420 . S
O65 C50 1.202 . S
O66 U46 2.455 . S
O66 C63 1.301 . S
O67 U46 2.449 . S
O67 C63 1.282 . S
H68 C41 0.931 . S
H69 C43 0.929 . S
H70 C44 0.930 . S
H71 C45 0.931 . S
H72 C52 0.932 . S
H73 C53 0.930 . S
H74 C54 0.929 . S
H75 C56 0.930 . S
H76 C58 0.932 . S
H77 C59 0.929 . S
H78 C60 0.928 . S
H79 C62 0.932 . S
C80 C81 1.264 . S
C80 C85 1.479 . S
C80 C90 1.465 . S
C81 C80 1.264 . S
C81 C83 1.339 . S
C81 H108 0.931 . S
C82 C83 1.395 . S
C82 C84 1.320 . S
C83 C81 1.339 . S
C83 C82 1.395 . S
C83 H109 0.929 . S
C84 C82 1.320 . S
C84 C85 1.405 . S
C84 H110 0.930 . S
C85 C80 1.479 . S
C85 C84 1.405 . S
C85 H111 0.931 . S
U86 O87 2.454 . S
U86 O88 2.458 . S
U86 C89 2.984 . S
U86 C90 2.847 . S
U86 C103 2.882 . S
U86 O104 2.441 . S
U86 O105 2.420 . S
U86 O106 2.455 . S
U86 O107 2.449 . S
O87 U86 2.454 . S
O87 C89 1.353 . S
O88 U86 2.458 . S
O88 C89 1.286 . S
C89 U86 2.984 . S
C89 O87 1.353 . S
C89 O88 1.286 . S
C89 C91 1.363 . S
C90 C80 1.465 . S
C90 U86 2.847 . S
C90 O104 1.249 . S
C90 O105 1.202 . S
C91 C89 1.363 . S
C91 C93 1.408 . S
C91 C96 1.342 . S
C92 C93 1.310 . S
C92 C95 1.461 . S
C92 H112 0.932 . S
C93 C91 1.408 . S
C93 C92 1.310 . S
C93 H113 0.930 . S
C94 C95 1.474 . S
C94 C96 1.285 . S
C94 H114 0.929 . S
C95 C92 1.461 . S
C95 C94 1.474 . S
C96 C91 1.342 . S
C96 C94 1.285 . S
C96 H115 0.930 . S
C97 C100 1.424 . S
C97 C102 1.245 . S
C97 C103 1.428 . S
C98 C101 1.260 1_556 S
C98 C102 1.477 1_556 S
C98 H116 0.932 . S
C99 C100 1.384 . S
C99 C101 1.479 . S
C99 H117 0.929 . S
C100 C97 1.424 . S
C100 C99 1.384 . S
C100 H118 0.928 . S
C101 C98 1.260 1_554 S
C101 C99 1.479 . S
C102 C97 1.245 . S
C102 C98 1.477 1_554 S
C102 H119 0.932 . S
C103 U86 2.882 . S
C103 C97 1.428 . S
C103 O106 1.301 . S
C103 O107 1.282 . S
O104 U86 2.441 . S
O104 C90 1.249 . S
O105 U86 2.420 . S
O105 C90 1.202 . S
O106 U86 2.455 . S
O106 C103 1.301 . S
O107 U86 2.449 . S
O107 C103 1.282 . S
H108 C81 0.931 . S
H109 C83 0.929 . S
H110 C84 0.930 . S
H111 C85 0.931 . S
H112 C92 0.932 . S
H113 C93 0.930 . S
H114 C94 0.929 . S
H115 C96 0.930 . S
H116 C98 0.932 . S
H117 C99 0.929 . S
H118 C100 0.928 . S
H119 C102 0.932 . S
C120 C121 1.264 . S
C120 C125 1.479 . S
C120 C130 1.465 . S
C121 C120 1.264 . S
C121 C123 1.339 . S
C121 H148 0.931 . S
C122 C123 1.395 . S
C122 C124 1.320 . S
C123 C121 1.339 . S
C123 C122 1.395 . S
C123 H149 0.929 . S
C124 C122 1.320 . S
C124 C125 1.405 . S
C124 H150 0.930 . S
C125 C120 1.479 . S
C125 C124 1.405 . S
C125 H151 0.931 . S
U126 O127 2.454 . S
U126 O128 2.458 . S
U126 C129 2.984 . S
U126 C130 2.847 . S
U126 C143 2.882 . S
U126 O144 2.441 . S
U126 O145 2.420 . S
U126 O146 2.455 . S
U126 O147 2.449 . S
O127 U126 2.454 . S
O127 C129 1.353 . S
O128 U126 2.458 . S
O128 C129 1.286 . S
C129 U126 2.984 . S
C129 O127 1.353 . S
C129 O128 1.286 . S
C129 C131 1.363 . S
C130 C120 1.465 . S
C130 U126 2.847 . S
C130 O144 1.249 . S
C130 O145 1.202 . S
C131 C129 1.363 . S
C131 C133 1.408 . S
C131 C136 1.342 . S
C132 C133 1.310 . S
C132 C135 1.461 . S
C132 H152 0.932 . S
C133 C131 1.408 . S
C133 C132 1.310 . S
C133 H153 0.930 . S
C134 C135 1.474 . S
C134 C136 1.285 . S
C134 H154 0.929 . S
C135 C132 1.461 . S
C135 C134 1.474 . S
C136 C131 1.342 . S
C136 C134 1.285 . S
C136 H155 0.930 . S
C137 C140 1.424 . S
C137 C142 1.245 . S
C137 C143 1.428 . S
C138 C141 1.260 1_556 S
C138 C142 1.477 1_556 S
C138 H156 0.932 . S
C139 C140 1.384 . S
C139 C141 1.479 . S
C139 H157 0.929 . S
C140 C137 1.424 . S
C140 C139 1.384 . S
C140 H158 0.928 . S
C141 C138 1.260 1_554 S
C141 C139 1.479 . S
C142 C137 1.245 . S
C142 C138 1.477 1_554 S
C142 H159 0.932 . S
C143 U126 2.882 . S
C143 C137 1.428 . S
C143 O146 1.301 . S
C143 O147 1.282 . S
O144 U126 2.441 . S
O144 C130 1.249 . S
O145 U126 2.420 . S
O145 C130 1.202 . S
O146 U126 2.455 . S
O146 C143 1.301 . S
O147 U126 2.449 . S
O147 C143 1.282 . S
H148 C121 0.931 . S
H149 C123 0.929 . S
H150 C124 0.930 . S
H151 C125 0.931 . S
H152 C132 0.932 . S
H153 C133 0.930 . S
H154 C134 0.929 . S
H155 C136 0.930 . S
H156 C138 0.932 . S
H157 C139 0.929 . S
H158 C140 0.928 . S
H159 C142 0.932 . S
C160 C161 1.264 . S
C160 C165 1.479 . S
C160 C170 1.465 . S
C161 C160 1.264 . S
C161 C163 1.339 . S
C161 H188 0.931 . S
C162 C163 1.395 . S
C162 C164 1.320 . S
C163 C161 1.339 . S
C163 C162 1.395 . S
C163 H189 0.929 . S
C164 C162 1.320 . S
C164 C165 1.405 . S
C164 H190 0.930 . S
C165 C160 1.479 . S
C165 C164 1.405 . S
C165 H191 0.931 . S
U166 O167 2.454 . S
U166 O168 2.458 . S
U166 C169 2.984 . S
U166 C170 2.847 1_554 S
U166 C183 2.882 . S
U166 O184 2.441 1_554 S
U166 O185 2.420 1_554 S
U166 O186 2.455 . S
U166 O187 2.449 . S
O167 U166 2.454 . S
O167 C169 1.353 . S
O168 U166 2.458 . S
O168 C169 1.286 . S
C169 U166 2.984 . S
C169 O167 1.353 . S
C169 O168 1.286 . S
C169 C171 1.363 . S
C170 C160 1.465 . S
C170 U166 2.847 1_556 S
C170 O184 1.249 . S
C170 O185 1.202 . S
C171 C169 1.363 . S
C171 C173 1.408 . S
C171 C176 1.342 . S
C172 C173 1.310 . S
C172 C175 1.461 . S
C172 H192 0.932 . S
C173 C171 1.408 . S
C173 C172 1.310 . S
C173 H193 0.930 1_554 S
C174 C175 1.474 . S
C174 C176 1.285 . S
C174 H194 0.929 . S
C175 C172 1.461 . S
C175 C174 1.474 . S
C176 C171 1.342 . S
C176 C174 1.285 . S
C176 H195 0.930 . S
C177 C180 1.424 . S
C177 C182 1.245 . S
C177 C183 1.428 . S
C178 C181 1.260 . S
C178 C182 1.477 . S
C178 H196 0.932 . S
C179 C180 1.384 . S
C179 C181 1.479 . S
C179 H197 0.929 . S
C180 C177 1.424 . S
C180 C179 1.384 . S
C180 H198 0.928 . S
C181 C178 1.260 . S
C181 C179 1.479 . S
C182 C177 1.245 . S
C182 C178 1.477 . S
C182 H199 0.932 . S
C183 U166 2.882 . S
C183 C177 1.428 . S
C183 O186 1.301 . S
C183 O187 1.282 . S
O184 U166 2.441 1_556 S
O184 C170 1.249 . S
O185 U166 2.420 1_556 S
O185 C170 1.202 . S
O186 U166 2.455 . S
O186 C183 1.301 . S
O187 U166 2.449 . S
O187 C183 1.282 . S
H188 C161 0.931 . S
H189 C163 0.929 . S
H190 C164 0.930 . S
H191 C165 0.931 . S
H192 C172 0.932 . S
H193 C173 0.930 1_556 S
H194 C174 0.929 . S
H195 C176 0.930 . S
H196 C178 0.932 . S
H197 C179 0.929 . S
H198 C180 0.928 . S
H199 C182 0.932 . S
C200 C201 1.264 . S
C200 C205 1.479 . S
C200 C210 1.465 . S
C201 C200 1.264 . S
C201 C203 1.339 . S
C201 H228 0.931 . S
C202 C203 1.395 . S
C202 C204 1.320 . S
C203 C201 1.339 . S
C203 C202 1.395 . S
C203 H229 0.929 . S
C204 C202 1.320 . S
C204 C205 1.405 . S
C204 H230 0.930 . S
C205 C200 1.479 . S
C205 C204 1.405 . S
C205 H231 0.931 . S
U206 O207 2.454 . S
U206 O208 2.458 . S
U206 C209 2.984 . S
U206 C210 2.847 1_554 S
U206 C223 2.882 . S
U206 O224 2.441 1_554 S
U206 O225 2.420 1_554 S
U206 O226 2.455 . S
U206 O227 2.449 . S
O207 U206 2.454 . S
O207 C209 1.353 . S
O208 U206 2.458 . S
O208 C209 1.286 . S
C209 U206 2.984 . S
C209 O207 1.353 . S
C209 O208 1.286 . S
C209 C211 1.363 . S
C210 C200 1.465 . S
C210 U206 2.847 1_556 S
C210 O224 1.249 . S
C210 O225 1.202 . S
C211 C209 1.363 . S
C211 C213 1.408 . S
C211 C216 1.342 . S
C212 C213 1.310 . S
C212 C215 1.461 . S
C212 H232 0.932 . S
C213 C211 1.408 . S
C213 C212 1.310 . S
C213 H233 0.930 1_554 S
C214 C215 1.474 . S
C214 C216 1.285 . S
C214 H234 0.929 . S
C215 C212 1.461 . S
C215 C214 1.474 . S
C216 C211 1.342 . S
C216 C214 1.285 . S
C216 H235 0.930 . S
C217 C220 1.424 . S
C217 C222 1.245 . S
C217 C223 1.428 . S
C218 C221 1.260 . S
C218 C222 1.477 . S
C218 H236 0.932 . S
C219 C220 1.384 . S
C219 C221 1.479 . S
C219 H237 0.929 . S
C220 C217 1.424 . S
C220 C219 1.384 . S
C220 H238 0.928 . S
C221 C218 1.260 . S
C221 C219 1.479 . S
C222 C217 1.245 . S
C222 C218 1.477 . S
C222 H239 0.932 . S
C223 U206 2.882 . S
C223 C217 1.428 . S
C223 O226 1.301 . S
C223 O227 1.282 . S
O224 U206 2.441 1_556 S
O224 C210 1.249 . S
O225 U206 2.420 1_556 S
O225 C210 1.202 . S
O226 U206 2.455 . S
O226 C223 1.301 . S
O227 U206 2.449 . S
O227 C223 1.282 . S
H228 C201 0.931 . S
H229 C203 0.929 . S
H230 C204 0.930 . S
H231 C205 0.931 . S
H232 C212 0.932 . S
H233 C213 0.930 1_556 S
H234 C214 0.929 . S
H235 C216 0.930 . S
H236 C218 0.932 . S
H237 C219 0.929 . S
H238 C220 0.928 . S
H239 C222 0.932 . S
C240 C241 1.264 . S
C240 C245 1.479 . S
C240 C250 1.465 . S
C241 C240 1.264 . S
C241 C243 1.339 . S
C241 H268 0.931 . S
C242 C243 1.395 . S
C242 C244 1.320 . S
C243 C241 1.339 . S
C243 C242 1.395 . S
C243 H269 0.929 . S
C244 C242 1.320 . S
C244 C245 1.405 . S
C244 H270 0.930 . S
C245 C240 1.479 . S
C245 C244 1.405 . S
C245 H271 0.931 . S
U246 O247 2.454 . S
U246 O248 2.458 . S
U246 C249 2.984 . S
U246 C250 2.847 1_554 S
U246 C263 2.882 . S
U246 O264 2.441 1_554 S
U246 O265 2.420 1_554 S
U246 O266 2.455 . S
U246 O267 2.449 . S
O247 U246 2.454 . S
O247 C249 1.353 . S
O248 U246 2.458 . S
O248 C249 1.286 . S
C249 U246 2.984 . S
C249 O247 1.353 . S
C249 O248 1.286 . S
C249 C251 1.363 . S
C250 C240 1.465 . S
C250 U246 2.847 1_556 S
C250 O264 1.249 . S
C250 O265 1.202 . S
C251 C249 1.363 . S
C251 C253 1.408 . S
C251 C256 1.342 . S
C252 C253 1.310 . S
C252 C255 1.461 . S
C252 H272 0.932 . S
C253 C251 1.408 . S
C253 C252 1.310 . S
C253 H273 0.930 1_554 S
C254 C255 1.474 . S
C254 C256 1.285 . S
C254 H274 0.929 . S
C255 C252 1.461 . S
C255 C254 1.474 . S
C256 C251 1.342 . S
C256 C254 1.285 . S
C256 H275 0.930 . S
C257 C260 1.424 . S
C257 C262 1.245 . S
C257 C263 1.428 . S
C258 C261 1.260 . S
C258 C262 1.477 . S
C258 H276 0.932 . S
C259 C260 1.384 . S
C259 C261 1.479 . S
C259 H277 0.929 . S
C260 C257 1.424 . S
C260 C259 1.384 . S
C260 H278 0.928 . S
C261 C258 1.260 . S
C261 C259 1.479 . S
C262 C257 1.245 . S
C262 C258 1.477 . S
C262 H279 0.932 . S
C263 U246 2.882 . S
C263 C257 1.428 . S
C263 O266 1.301 . S
C263 O267 1.282 . S
O264 U246 2.441 1_556 S
O264 C250 1.249 . S
O265 U246 2.420 1_556 S
O265 C250 1.202 . S
O266 U246 2.455 . S
O266 C263 1.301 . S
O267 U246 2.449 . S
O267 C263 1.282 . S
H268 C241 0.931 . S
H269 C243 0.929 . S
H270 C244 0.930 . S
H271 C245 0.931 . S
H272 C252 0.932 . S
H273 C253 0.930 1_556 S
H274 C254 0.929 . S
H275 C256 0.930 . S
H276 C258 0.932 . S
H277 C259 0.929 . S
H278 C260 0.928 . S
H279 C262 0.932 . S
C280 C281 1.264 . S
C280 C285 1.479 . S
C280 C290 1.465 . S
C281 C280 1.264 . S
C281 C283 1.339 . S
C281 H308 0.931 . S
C282 C283 1.395 . S
C282 C284 1.320 . S
C283 C281 1.339 . S
C283 C282 1.395 . S
C283 H309 0.929 . S
C284 C282 1.320 . S
C284 C285 1.405 . S
C284 H310 0.930 . S
C285 C280 1.479 . S
C285 C284 1.405 . S
C285 H311 0.931 . S
U286 O287 2.454 . S
U286 O288 2.458 . S
U286 C289 2.984 . S
U286 C290 2.847 1_554 S
U286 C303 2.882 . S
U286 O304 2.441 1_554 S
U286 O305 2.420 1_554 S
U286 O306 2.455 . S
U286 O307 2.449 . S
O287 U286 2.454 . S
O287 C289 1.353 . S
O288 U286 2.458 . S
O288 C289 1.286 . S
C289 U286 2.984 . S
C289 O287 1.353 . S
C289 O288 1.286 . S
C289 C291 1.363 . S
C290 C280 1.465 . S
C290 U286 2.847 1_556 S
C290 O304 1.249 . S
C290 O305 1.202 . S
C291 C289 1.363 . S
C291 C293 1.408 . S
C291 C296 1.342 . S
C292 C293 1.310 . S
C292 C295 1.461 . S
C292 H312 0.932 . S
C293 C291 1.408 . S
C293 C292 1.310 . S
C293 H313 0.930 1_554 S
C294 C295 1.474 . S
C294 C296 1.285 . S
C294 H314 0.929 . S
C295 C292 1.461 . S
C295 C294 1.474 . S
C296 C291 1.342 . S
C296 C294 1.285 . S
C296 H315 0.930 . S
C297 C300 1.424 . S
C297 C302 1.245 . S
C297 C303 1.428 . S
C298 C301 1.260 . S
C298 C302 1.477 . S
C298 H316 0.932 . S
C299 C300 1.384 . S
C299 C301 1.479 . S
C299 H317 0.929 . S
C300 C297 1.424 . S
C300 C299 1.384 . S
C300 H318 0.928 . S
C301 C298 1.260 . S
C301 C299 1.479 . S
C302 C297 1.245 . S
C302 C298 1.477 . S
C302 H319 0.932 . S
C303 U286 2.882 . S
C303 C297 1.428 . S
C303 O306 1.301 . S
C303 O307 1.282 . S
O304 U286 2.441 1_556 S
O304 C290 1.249 . S
O305 U286 2.420 1_556 S
O305 C290 1.202 . S
O306 U286 2.455 . S
O306 C303 1.301 . S
O307 U286 2.449 . S
O307 C303 1.282 . S
H308 C281 0.931 . S
H309 C283 0.929 . S
H310 C284 0.930 . S
H311 C285 0.931 . S
H312 C292 0.932 . S
H313 C293 0.930 1_556 S
H314 C294 0.929 . S
H315 C296 0.930 . S
H316 C298 0.932 . S
H317 C299 0.929 . S
H318 C300 0.928 . S
H319 C302 0.932 . S
Eu320 N349 2.600 . S
Eu320 N355 2.562 . S
Eu320 O364 2.462 . S
Eu320 O365 2.373 1_545 S
Eu320 O367 2.432 . S
Eu320 O368 2.291 1_655 S
Eu320 O372 2.335 1_655 S
Eu320 O375 2.372 . S
Eu320 C384 2.787 . S
C321 N322 1.365 . S
C321 C324 1.405 . S
C321 C328 1.448 . S
N322 C321 1.365 . S
N322 C325 1.319 1_545 S
N322 Eu331 2.600 1_545 S
C323 C325 1.397 1_545 S
C323 C326 1.367 . S
C323 H343 0.931 . S
C324 C321 1.405 . S
C324 C326 1.403 . S
C324 C330 1.439 . S
C325 N322 1.319 1_565 S
C325 C323 1.397 1_565 S
C325 H336 0.930 . S
C326 C323 1.367 . S
C326 C324 1.403 . S
C326 H347 0.929 . S
C327 C328 1.430 . S
C327 C329 1.387 . S
C327 C333 1.404 . S
C328 C321 1.448 . S
C328 C327 1.430 . S
C328 N332 1.351 . S
C329 C327 1.387 . S
C329 C330 1.374 . S
C329 H344 0.931 1_556 S
C330 C324 1.439 . S
C330 C329 1.374 . S
C330 H345 0.931 . S
Eu331 N322 2.600 1_565 S
Eu331 N332 2.562 1_565 S
Eu331 O366 2.335 . S
Eu331 O369 2.372 . S
Eu331 O370 2.462 . S
Eu331 O371 2.373 1_565 S
Eu331 O373 2.432 . S
Eu331 O374 2.291 1_465 S
Eu331 C395 2.787 . S
N332 C328 1.351 . S
N332 Eu331 2.562 1_545 S
N332 C334 1.325 . S
C333 C327 1.404 . S
C333 C335 1.366 . S
C333 H341 0.930 1_556 S
C334 N332 1.325 . S
C334 C335 1.416 . S
C334 H340 0.939 . S
C335 C333 1.366 . S
C335 C334 1.416 . S
C335 H337 0.930 1_556 S
H336 C325 0.930 . S
H337 C335 0.930 1_554 S
H338 C353 0.930 . S
H339 C360 0.930 1_455 S
H340 C334 0.939 . S
H341 C333 0.930 1_554 S
H342 C356 0.929 1_455 S
H343 C323 0.931 . S
H344 C329 0.931 1_554 S
H345 C330 0.931 . S
H346 C351 0.931 . S
H347 C326 0.929 . S
H348 C359 0.930 . S
N349 Eu320 2.600 . S
N349 C350 1.365 . S
N349 C353 1.319 . S
C350 N349 1.365 . S
C350 C352 1.405 1_545 S
C350 C358 1.448 . S
C351 H346 0.931 . S
C351 C353 1.397 . S
C351 C354 1.367 1_545 S
C352 C350 1.405 1_565 S
C352 C354 1.403 . S
C352 C385 1.439 . S
C353 H338 0.930 . S
C353 N349 1.319 . S
C353 C351 1.397 . S
C354 C351 1.367 1_565 S
C354 C352 1.403 . S
C354 H361 0.929 . S
N355 Eu320 2.562 . S
N355 C356 1.325 . S
N355 C358 1.353 . S
C356 H342 0.929 1_655 S
C356 N355 1.325 . S
C356 C360 1.416 1_545 S
C357 C358 1.428 1_565 S
C357 C359 1.404 . S
C357 C386 1.387 . S
C358 C350 1.448 . S
C358 N355 1.353 . S
C358 C357 1.428 1_545 S
C359 H348 0.930 . S
C359 C357 1.404 . S
C359 C360 1.366 . S
C360 H339 0.930 1_655 S
C360 C356 1.416 1_565 S
C360 C359 1.366 . S
H361 C354 0.929 . S
H362 C385 0.931 . S
H363 C386 0.931 . S
O364 Eu320 2.462 . S
O364 C384 1.252 . S
O365 Eu320 2.373 1_565 S
O365 C376 1.249 . S
O366 Eu331 2.335 . S
O366 C376 1.264 1_455 S
O367 Eu320 2.432 . S
O367 C384 1.268 . S
O368 Eu320 2.291 1_455 S
O368 C383 1.255 . S
O369 Eu331 2.372 . S
O369 C383 1.257 1_565 S
O370 Eu331 2.462 . S
O370 C395 1.252 . S
O371 Eu331 2.373 1_545 S
O371 C387 1.249 . S
O372 Eu320 2.335 1_455 S
O372 C387 1.264 . S
O373 Eu331 2.432 . S
O373 C395 1.268 . S
O374 Eu331 2.291 1_645 S
O374 C394 1.255 . S
O375 Eu320 2.372 . S
O375 C394 1.257 . S
C376 O365 1.249 . S
C376 O366 1.264 1_655 S
C377 C380 1.382 . S
C377 C382 1.390 . S
C377 C384 1.506 . S
C378 C379 1.398 . S
C378 C382 1.392 . S
C379 C378 1.398 . S
C379 C381 1.372 . S
C379 H396 0.931 . S
C380 C377 1.382 . S
C380 C381 1.390 . S
C380 H397 0.931 . S
C381 C379 1.372 . S
C381 C380 1.390 . S
C381 H398 0.929 . S
C382 C377 1.390 . S
C382 C378 1.392 . S
C382 H399 0.930 1_655 S
C383 O368 1.255 . S
C383 O369 1.257 1_545 S
C384 Eu320 2.787 . S
C384 O364 1.252 . S
C384 O367 1.268 . S
C384 C377 1.506 . S
C385 C352 1.439 . S
C385 H362 0.931 . S
C385 C386 1.374 . S
C386 C357 1.387 . S
C386 H363 0.931 . S
C386 C385 1.374 . S
C387 O371 1.249 . S
C387 O372 1.264 . S
C388 C391 1.382 . S
C388 C392 1.390 . S
C388 C395 1.506 . S
C389 C390 1.398 . S
C389 C392 1.392 . S
C390 C389 1.398 . S
C390 C393 1.372 . S
C390 H400 0.931 . S
C391 C388 1.382 . S
C391 C393 1.390 . S
C391 H401 0.931 . S
C392 C388 1.390 . S
C392 C389 1.392 . S
C392 H402 0.930 . S
C393 C390 1.372 . S
C393 C391 1.390 . S
C393 H403 0.929 . S
C394 O374 1.255 . S
C394 O375 1.257 . S
C395 Eu331 2.787 . S
C395 O370 1.252 . S
C395 O373 1.268 . S
C395 C388 1.506 . S
H396 C379 0.931 . S
H397 C380 0.931 . S
H398 C381 0.929 . S
H399 C382 0.930 1_455 S
H400 C390 0.931 . S
H401 C391 0.931 . S
H402 C392 0.930 . S
H403 C393 0.929 . S
Eu404 N433 2.600 . S
Eu404 N439 2.562 . S
Eu404 O448 2.462 . S
Eu404 O449 2.373 . S
Eu404 O451 2.432 . S
Eu404 O452 2.291 . S
Eu404 O456 2.335 1_545 S
Eu404 O459 2.372 . S
Eu404 C468 2.787 . S
C405 N406 1.365 . S
C405 C408 1.405 . S
C405 C412 1.448 . S
N406 C405 1.365 . S
N406 C409 1.319 . S
N406 Eu415 2.600 . S
C407 C409 1.397 . S
C407 C410 1.367 . S
C407 H427 0.931 . S
C408 C405 1.405 . S
C408 C410 1.403 . S
C408 C414 1.439 . S
C409 N406 1.319 . S
C409 C407 1.397 . S
C409 H420 0.930 . S
C410 C407 1.367 . S
C410 C408 1.403 . S
C410 H431 0.929 . S
C411 C412 1.430 . S
C411 C413 1.387 . S
C411 C417 1.404 . S
C412 C405 1.448 . S
C412 C411 1.430 . S
C412 N416 1.351 . S
C413 C411 1.387 . S
C413 C414 1.374 . S
C413 H428 0.931 . S
C414 C408 1.439 . S
C414 C413 1.374 . S
C414 H429 0.931 . S
Eu415 N406 2.600 . S
Eu415 N416 2.562 . S
Eu415 O450 2.335 1_565 S
Eu415 O453 2.372 . S
Eu415 O454 2.462 . S
Eu415 O455 2.373 . S
Eu415 O457 2.432 . S
Eu415 O458 2.291 1_565 S
Eu415 C479 2.787 . S
N416 C412 1.351 . S
N416 Eu415 2.562 . S
N416 C418 1.325 . S
C417 C411 1.404 . S
C417 C419 1.366 . S
C417 H425 0.930 . S
C418 N416 1.325 . S
C418 C419 1.416 . S
C418 H424 0.929 . S
C419 C417 1.366 . S
C419 C418 1.416 . S
C419 H421 0.930 . S
H420 C409 0.930 . S
H421 C419 0.930 . S
H422 C437 0.930 . S
H423 C444 0.930 . S
H424 C418 0.929 . S
H425 C417 0.930 . S
H426 C440 0.929 . S
H427 C407 0.931 . S
H428 C413 0.931 . S
H429 C414 0.931 . S
H430 C435 0.931 . S
H431 C410 0.929 . S
H432 C443 0.930 . S
N433 Eu404 2.600 . S
N433 C434 1.365 . S
N433 C437 1.319 . S
C434 N433 1.365 . S
C434 C436 1.405 . S
C434 C442 1.448 . S
C435 H430 0.931 . S
C435 C437 1.397 . S
C435 C438 1.367 . S
C436 C434 1.405 . S
C436 C438 1.403 . S
C436 C469 1.439 . S
C437 H422 0.930 . S
C437 N433 1.319 . S
C437 C435 1.397 . S
C438 C435 1.367 . S
C438 C436 1.403 . S
C438 H445 0.929 . S
N439 Eu404 2.562 . S
N439 C440 1.325 . S
N439 C442 1.351 . S
C440 H426 0.929 . S
C440 N439 1.325 . S
C440 C444 1.416 . S
C441 C442 1.430 . S
C441 C443 1.404 . S
C441 C470 1.387 . S
C442 C434 1.448 . S
C442 N439 1.351 . S
C442 C441 1.430 . S
C443 H432 0.930 . S
C443 C441 1.404 . S
C443 C444 1.366 . S
C444 H423 0.930 . S
C444 C440 1.416 . S
C444 C443 1.366 . S
H445 C438 0.929 . S
H446 C469 0.931 . S
H447 C470 0.931 . S
O448 Eu404 2.462 . S
O448 C468 1.252 . S
O449 Eu404 2.373 . S
O449 C460 1.249 . S
O450 Eu415 2.335 1_545 S
O450 C460 1.264 . S
O451 Eu404 2.432 . S
O451 C468 1.268 . S
O452 Eu404 2.291 . S
O452 C467 1.255 1_545 S
O453 Eu415 2.372 . S
O453 C467 1.257 . S
O454 Eu415 2.462 . S
O454 C479 1.252 . S
O455 Eu415 2.373 . S
O455 C471 1.249 . S
O456 Eu404 2.335 1_565 S
O456 C471 1.264 . S
O457 Eu415 2.432 . S
O457 C479 1.268 . S
O458 Eu415 2.291 1_545 S
O458 C478 1.255 . S
O459 Eu404 2.372 . S
O459 C478 1.257 . S
C460 O449 1.249 . S
C460 O450 1.264 . S
C461 C464 1.382 . S
C461 C466 1.390 . S
C461 C468 1.506 . S
C462 C463 1.398 1_556 S
C462 C466 1.392 . S
C463 C462 1.398 1_554 S
C463 C465 1.372 . S
C463 H480 0.931 . S
C464 C461 1.382 . S
C464 C465 1.390 1_556 S
C464 H481 0.931 . S
C465 C463 1.372 . S
C465 C464 1.390 1_554 S
C465 H482 0.929 . S
C466 C461 1.390 . S
C466 C462 1.392 . S
C466 H483 0.930 . S
C467 O452 1.255 1_565 S
C467 O453 1.257 . S
C468 Eu404 2.787 . S
C468 O448 1.252 . S
C468 O451 1.268 . S
C468 C461 1.506 . S
C469 C436 1.439 . S
C469 H446 0.931 . S
C469 C470 1.374 . S
C470 C441 1.387 . S
C470 H447 0.931 . S
C470 C469 1.374 . S
C471 O455 1.249 . S
C471 O456 1.264 . S
C472 C475 1.382 . S
C472 C476 1.390 . S
C472 C479 1.506 . S
C473 C474 1.398 . S
C473 C476 1.392 . S
C474 C473 1.398 . S
C474 C477 1.372 . S
C474 H484 0.931 . S
C475 C472 1.382 . S
C475 C477 1.390 . S
C475 H485 0.931 . S
C476 C472 1.390 . S
C476 C473 1.392 . S
C476 H486 0.930 1_565 S
C477 C474 1.372 . S
C477 C475 1.390 . S
C477 H487 0.929 . S
C478 O458 1.255 . S
C478 O459 1.257 . S
C479 Eu415 2.787 . S
C479 O454 1.252 . S
C479 O457 1.268 . S
C479 C472 1.506 . S
H480 C463 0.931 . S
H481 C464 0.931 . S
H482 C465 0.929 . S
H483 C466 0.930 . S
H484 C474 0.931 . S
H485 C475 0.931 . S
H486 C476 0.930 1_545 S
H487 C477 0.929 . S
Eu488 N517 2.600 . S
Eu488 N523 2.562 . S
Eu488 O532 2.462 . S
Eu488 O533 2.373 . S
Eu488 O535 2.432 . S
Eu488 O536 2.291 . S
Eu488 O540 2.335 . S
Eu488 O543 2.372 . S
Eu488 C552 2.787 . S
C489 N490 1.365 . S
C489 C492 1.405 . S
C489 C496 1.448 . S
N490 C489 1.365 . S
N490 C493 1.319 . S
N490 Eu499 2.600 . S
C491 C493 1.397 . S
C491 C494 1.367 . S
C491 H511 0.931 . S
C492 C489 1.405 . S
C492 C494 1.403 . S
C492 C498 1.439 . S
C493 N490 1.319 . S
C493 C491 1.397 . S
C493 H504 0.930 . S
C494 C491 1.367 . S
C494 C492 1.403 . S
C494 H515 0.929 . S
C495 C496 1.430 . S
C495 C497 1.387 . S
C495 C501 1.404 . S
C496 C489 1.448 . S
C496 C495 1.430 . S
C496 N500 1.351 . S
C497 C495 1.387 . S
C497 C498 1.374 . S
C497 H512 0.931 1_556 S
C498 C492 1.439 . S
C498 C497 1.374 . S
C498 H513 0.931 . S
Eu499 N490 2.600 . S
Eu499 N500 2.562 . S
Eu499 O534 2.335 . S
Eu499 O537 2.372 . S
Eu499 O538 2.462 . S
Eu499 O539 2.373 . S
Eu499 O541 2.432 . S
Eu499 O542 2.291 . S
Eu499 C563 2.787 . S
N500 C496 1.351 . S
N500 Eu499 2.562 . S
N500 C502 1.325 . S
C501 C495 1.404 . S
C501 C503 1.366 . S
C501 H509 0.930 1_556 S
C502 N500 1.325 . S
C502 C503 1.416 . S
C502 H508 0.929 . S
C503 C501 1.366 . S
C503 C502 1.416 . S
C503 H505 0.930 1_556 S
H504 C493 0.930 . S
H505 C503 0.930 1_554 S
H506 C521 0.930 . S
H507 C528 0.930 . S
H508 C502 0.929 . S
H509 C501 0.930 1_554 S
H510 C524 0.929 . S
H511 C491 0.931 . S
H512 C497 0.931 1_554 S
H513 C498 0.931 . S
H514 C519 0.931 . S
H515 C494 0.929 . S
H516 C527 0.930 . S
N517 Eu488 2.600 . S
N517 C518 1.365 . S
N517 C521 1.319 . S
C518 N517 1.365 . S
C518 C520 1.405 . S
C518 C526 1.448 . S
C519 H514 0.931 . S
C519 C521 1.397 . S
C519 C522 1.367 . S
C520 C518 1.405 . S
C520 C522 1.403 . S
C520 C553 1.439 . S
C521 H506 0.930 . S
C521 N517 1.319 . S
C521 C519 1.397 . S
C522 C519 1.367 . S
C522 C520 1.403 . S
C522 H529 0.929 . S
N523 Eu488 2.562 . S
N523 C524 1.325 . S
N523 C526 1.351 . S
C524 H510 0.929 . S
C524 N523 1.325 . S
C524 C528 1.416 . S
C525 C526 1.430 . S
C525 C527 1.404 . S
C525 C554 1.387 . S
C526 C518 1.448 . S
C526 N523 1.351 . S
C526 C525 1.430 . S
C527 H516 0.930 . S
C527 C525 1.404 . S
C527 C528 1.366 . S
C528 H507 0.930 . S
C528 C524 1.416 . S
C528 C527 1.366 . S
H529 C522 0.929 . S
H530 C553 0.931 . S
H531 C554 0.931 . S
O532 Eu488 2.462 . S
O532 C552 1.252 . S
O533 Eu488 2.373 . S
O533 C544 1.249 . S
O534 Eu499 2.335 . S
O534 C544 1.264 . S
O535 Eu488 2.432 . S
O535 C552 1.268 . S
O536 Eu488 2.291 . S
O536 C551 1.255 . S
O537 Eu499 2.372 . S
O537 C551 1.257 . S
O538 Eu499 2.462 . S
O538 C563 1.252 . S
O539 Eu499 2.373 . S
O539 C555 1.249 . S
O540 Eu488 2.335 . S
O540 C555 1.264 . S
O541 Eu499 2.432 . S
O541 C563 1.268 . S
O542 Eu499 2.291 . S
O542 C562 1.255 . S
O543 Eu488 2.372 . S
O543 C562 1.257 . S
C544 O533 1.249 . S
C544 O534 1.264 . S
C545 C548 1.382 . S
C545 C550 1.390 . S
C545 C552 1.506 . S
C546 C547 1.398 . S
C546 C550 1.392 . S
C547 C546 1.398 . S
C547 C549 1.372 . S
C547 H564 0.931 . S
C548 C545 1.382 . S
C548 C549 1.390 . S
C548 H565 0.931 . S
C549 C547 1.372 . S
C549 C548 1.390 . S
C549 H566 0.929 . S
C550 C545 1.390 . S
C550 C546 1.392 . S
C550 H567 0.930 . S
C551 O536 1.255 . S
C551 O537 1.257 . S
C552 Eu488 2.787 . S
C552 O532 1.252 . S
C552 O535 1.268 . S
C552 C545 1.506 . S
C553 C520 1.439 . S
C553 H530 0.931 . S
C553 C554 1.374 . S
C554 C525 1.387 . S
C554 H531 0.931 . S
C554 C553 1.374 . S
C555 O539 1.249 . S
C555 O540 1.264 . S
C556 C559 1.382 . S
C556 C560 1.390 . S
C556 C563 1.506 . S
C557 C558 1.398 . S
C557 C560 1.392 . S
C558 C557 1.398 . S
C558 C561 1.372 . S
C558 H568 0.931 . S
C559 C556 1.382 . S
C559 C561 1.390 . S
C559 H569 0.931 . S
C560 C556 1.390 . S
C560 C557 1.392 . S
C560 H570 0.930 . S
C561 C558 1.372 . S
C561 C559 1.390 . S
C561 H571 0.929 . S
C562 O542 1.255 . S
C562 O543 1.257 . S
C563 Eu499 2.787 . S
C563 O538 1.252 . S
C563 O541 1.268 . S
C563 C556 1.506 . S
H564 C547 0.931 . S
H565 C548 0.931 . S
H566 C549 0.929 . S
H567 C550 0.930 . S
H568 C558 0.931 . S
H569 C559 0.931 . S
H570 C560 0.930 . S
H571 C561 0.929 . S
Eu572 N601 2.600 . S
Eu572 N607 2.562 . S
Eu572 O616 2.462 . S
Eu572 O617 2.373 1_455 S
Eu572 O619 2.432 . S
Eu572 O620 2.291 . S
Eu572 O624 2.335 . S
Eu572 O627 2.372 . S
Eu572 C636 2.787 . S
C573 N574 1.365 1_455 S
C573 C576 1.405 . S
C573 C580 1.448 . S
N574 C573 1.365 1_655 S
N574 C577 1.319 . S
N574 Eu583 2.600 . S
C575 C577 1.397 1_455 S
C575 C578 1.367 . S
C575 H595 0.931 . S
C576 C573 1.405 . S
C576 C578 1.403 . S
C576 C582 1.439 . S
C577 N574 1.319 . S
C577 C575 1.397 1_655 S
C577 H588 0.930 . S
C578 C575 1.367 . S
C578 C576 1.403 . S
C578 H599 0.929 . S
C579 C580 1.430 . S
C579 C581 1.387 . S
C579 C585 1.404 . S
C580 C573 1.448 . S
C580 C579 1.430 . S
C580 N584 1.351 . S
C581 C579 1.387 . S
C581 C582 1.374 . S
C581 H596 0.931 1_556 S
C582 C576 1.439 . S
C582 C581 1.374 . S
C582 H597 0.931 . S
Eu583 N574 2.600 . S
Eu583 N584 2.562 1_655 S
Eu583 O618 2.335 . S
Eu583 O621 2.372 . S
Eu583 O622 2.462 . S
Eu583 O623 2.373 1_655 S
Eu583 O625 2.432 . S
Eu583 O626 2.303 . S
Eu583 C647 2.787 . S
N584 C580 1.351 . S
N584 Eu583 2.562 1_455 S
N584 C586 1.325 . S
C585 C579 1.404 . S
C585 C587 1.366 . S
C585 H593 0.930 1_556 S
C586 N584 1.325 . S
C586 C587 1.416 . S
C586 H592 0.922 1_455 S
C587 C585 1.366 . S
C587 C586 1.416 . S
C587 H589 0.930 1_556 S
H588 C577 0.930 . S
H589 C587 0.930 1_554 S
H590 C605 0.930 . S
H591 C612 0.930 . S
H592 C586 0.922 1_655 S
H593 C585 0.930 1_554 S
H594 C608 0.929 . S
H595 C575 0.931 . S
H596 C581 0.931 1_554 S
H597 C582 0.931 . S
H598 C603 0.931 . S
H599 C578 0.929 . S
H600 C611 0.930 . S
N601 Eu572 2.600 . S
N601 C602 1.365 . S
N601 C605 1.319 . S
C602 N601 1.365 . S
C602 C604 1.405 1_455 S
C602 C610 1.448 1_455 S
C603 H598 0.931 . S
C603 C605 1.397 . S
C603 C606 1.367 1_455 S
C604 C602 1.405 1_655 S
C604 C606 1.403 . S
C604 C637 1.439 . S
C605 H590 0.930 . S
C605 N601 1.319 . S
C605 C603 1.397 . S
C606 C603 1.367 1_655 S
C606 C604 1.403 . S
C606 H613 0.929 . S
N607 Eu572 2.562 . S
N607 C608 1.325 . S
N607 C610 1.351 1_455 S
C608 H594 0.929 . S
C608 N607 1.325 . S
C608 C612 1.416 1_455 S
C609 C610 1.430 . S
C609 C611 1.404 . S
C609 C638 1.387 . S
C610 C602 1.448 1_655 S
C610 N607 1.351 1_655 S
C610 C609 1.430 . S
C611 H600 0.930 . S
C611 C609 1.404 . S
C611 C612 1.366 . S
C612 H591 0.930 . S
C612 C608 1.416 1_655 S
C612 C611 1.366 . S
H613 C606 0.929 . S
H614 C637 0.931 . S
H615 C638 0.931 . S
O616 Eu572 2.462 . S
O616 C636 1.252 . S
O617 Eu572 2.373 1_655 S
O617 C628 1.249 . S
O618 Eu583 2.335 . S
O618 C628 1.264 . S
O619 Eu572 2.432 . S
O619 C636 1.268 . S
O620 Eu572 2.291 . S
O620 C635 1.255 . S
O621 Eu583 2.372 . S
O621 C635 1.257 1_655 S
O622 Eu583 2.462 . S
O622 C647 1.252 . S
O623 Eu583 2.373 1_455 S
O623 C639 1.249 . S
O624 Eu572 2.335 . S
O624 C639 1.264 . S
O625 Eu583 2.432 . S
O625 C647 1.268 . S
O626 Eu583 2.303 . S
O626 C646 1.247 1_655 S
O627 Eu572 2.372 . S
O627 C646 1.257 . S
C628 O617 1.249 . S
C628 O618 1.264 . S
C629 C632 1.382 . S
C629 C634 1.390 . S
C629 C636 1.506 . S
C630 C631 1.398 . S
C630 C634 1.392 . S
C631 C630 1.398 . S
C631 C633 1.372 . S
C631 H648 0.931 . S
C632 C629 1.382 . S
C632 C633 1.390 . S
C632 H649 0.931 . S
C633 C631 1.372 . S
C633 C632 1.390 . S
C633 H650 0.929 . S
C634 C629 1.390 . S
C634 C630 1.392 . S
C634 H651 0.930 . S
C635 O620 1.255 . S
C635 O621 1.257 1_455 S
C636 Eu572 2.787 . S
C636 O616 1.252 . S
C636 O619 1.268 . S
C636 C629 1.506 . S
C637 C604 1.439 . S
C637 H614 0.931 . S
C637 C638 1.374 . S
C638 C609 1.387 . S
C638 H615 0.931 . S
C638 C637 1.374 . S
C639 O623 1.249 . S
C639 O624 1.264 . S
C640 C643 1.382 . S
C640 C644 1.390 . S
C640 C647 1.506 . S
C641 C642 1.398 . S
C641 C644 1.392 . S
C642 C641 1.398 . S
C642 C645 1.372 . S
C642 H652 0.931 . S
C643 C640 1.382 . S
C643 C645 1.390 . S
C643 H653 0.931 . S
C644 C640 1.390 . S
C644 C641 1.392 . S
C644 H654 0.930 . S
C645 C642 1.372 . S
C645 C643 1.390 . S
C645 H655 0.929 . S
C646 O626 1.247 1_455 S
C646 O627 1.257 . S
C647 Eu583 2.787 . S
C647 O622 1.252 . S
C647 O625 1.268 . S
C647 C640 1.506 . S
H648 C631 0.931 . S
H649 C632 0.931 . S
H650 C633 0.929 . S
H651 C634 0.930 . S
H652 C642 0.931 . S
H653 C643 0.931 . S
H654 C644 0.930 . S
H655 C645 0.929 . S
C656 C657 1.369 . S
C656 C658 1.419 . S
C656 H660 0.930 . S
C657 C656 1.369 . S
C657 C666 1.429 . S
C658 C656 1.419 . S
C658 C659 1.363 . S
C658 H661 0.929 . S
C659 C658 1.363 . S
C659 C665 1.428 . S
H660 C656 0.930 . S
H661 C658 0.929 . S
S662 N663 1.613 . S
S662 N664 1.610 . S
N663 S662 1.613 . S
N663 C666 1.350 . S
N664 S662 1.610 . S
N664 C665 1.351 . S
C665 C659 1.428 . S
C665 N664 1.351 . S
C665 C666 1.434 . S
C666 C657 1.429 . S
C666 N663 1.350 . S
C666 C665 1.434 . S
C667 C668 1.369 . S
C667 C669 1.419 . S
C667 H671 0.930 . S
C668 C667 1.369 . S
C668 C677 1.429 . S
C669 C667 1.419 . S
C669 C670 1.363 . S
C669 H672 0.929 . S
C670 C669 1.363 . S
C670 C676 1.428 . S
H671 C667 0.930 . S
H672 C669 0.929 . S
S673 N674 1.613 . S
S673 N675 1.610 . S
N674 S673 1.613 . S
N674 C677 1.350 . S
N675 S673 1.610 . S
N675 C676 1.351 . S
C676 C670 1.428 . S
C676 N675 1.351 . S
C676 C677 1.434 . S
C677 C668 1.429 . S
C677 N674 1.350 . S
C677 C676 1.434 . S
C678 C679 1.369 . S
C678 C680 1.419 . S
C678 H682 0.930 . S
C679 C678 1.369 . S
C679 C688 1.429 . S
C680 C678 1.419 . S
C680 C681 1.363 . S
C680 H683 0.929 . S
C681 C680 1.363 . S
C681 C687 1.428 . S
H682 C678 0.930 . S
H683 C680 0.929 . S
S684 N685 1.613 . S
S684 N686 1.610 . S
N685 S684 1.613 . S
N685 C688 1.350 . S
N686 S684 1.610 . S
N686 C687 1.351 . S
C687 C681 1.428 . S
C687 N686 1.351 . S
C687 C688 1.434 . S
C688 C679 1.429 . S
C688 N685 1.350 . S
C688 C687 1.434 . S
C689 C690 1.369 . S
C689 C691 1.419 . S
C689 H693 0.930 . S
C690 C689 1.369 . S
C690 C699 1.429 . S
C691 C689 1.419 . S
C691 C692 1.363 . S
C691 H694 0.929 . S
C692 C691 1.363 . S
C692 C698 1.428 . S
H693 C689 0.930 . S
H694 C691 0.929 . S
S695 N696 1.613 . S
S695 N697 1.610 . S
N696 S695 1.613 . S
N696 C699 1.350 1_655 S
N697 S695 1.610 . S
N697 C698 1.351 1_655 S
C698 C692 1.428 . S
C698 N697 1.351 1_455 S
C698 C699 1.434 . S
C699 C690 1.429 . S
C699 N696 1.350 1_455 S
C699 C698 1.434 . S
C700 C701 1.369 1_556 S
C700 C702 1.419 . S
C700 H704 0.930 1_556 S
C701 C700 1.369 1_554 S
C701 C710 1.429 . S
C702 C700 1.419 . S
C702 C703 1.363 . S
C702 H705 0.929 . S
C703 C702 1.363 . S
C703 C709 1.428 . S
H704 C700 0.930 1_554 S
H705 C702 0.929 . S
S706 N707 1.613 1_456 S
S706 N708 1.611 1_455 S
N707 S706 1.613 1_654 S
N707 C710 1.350 . S
N708 S706 1.611 1_655 S
N708 C709 1.357 . S
C709 C703 1.428 . S
C709 N708 1.357 . S
C709 C710 1.434 1_556 S
C710 C701 1.429 . S
C710 N707 1.350 . S
C710 C709 1.434 1_554 S
C711 C712 1.369 . S
C711 C713 1.419 1_554 S
C711 H715 0.930 . S
C712 C711 1.369 . S
C712 C721 1.429 . S
C713 C711 1.419 1_556 S
C713 C714 1.363 . S
C713 H716 0.929 . S
C714 C713 1.363 . S
C714 C720 1.428 . S
H715 C711 0.930 . S
H716 C713 0.929 . S
S717 N718 1.613 1_556 S
S717 N719 1.610 . S
N718 S717 1.613 1_554 S
N718 C721 1.350 . S
N719 S717 1.610 . S
N719 C720 1.351 . S
C720 C714 1.428 . S
C720 N719 1.351 . S
C720 C721 1.434 1_556 S
C721 C712 1.429 . S
C721 N718 1.350 . S
C721 C720 1.434 1_554 S
C722 C723 1.369 . S
C722 C724 1.419 1_554 S
C722 H726 0.930 . S
C723 C722 1.369 . S
C723 C732 1.429 1_554 S
C724 C722 1.419 1_556 S
C724 C725 1.363 . S
C724 H727 0.929 . S
C725 C724 1.363 . S
C725 C731 1.428 . S
H726 C722 0.930 . S
H727 C724 0.929 . S
S728 N729 1.613 1_556 S
S728 N730 1.610 . S
N729 S728 1.613 1_554 S
N729 C732 1.350 1_554 S
N730 S728 1.610 . S
N730 C731 1.351 . S
C731 C725 1.428 . S
C731 N730 1.351 . S
C731 C732 1.434 . S
C732 C723 1.429 1_556 S
C732 N729 1.350 1_556 S
C732 C731 1.434 . S
C733 C734 1.369 . S
C733 C735 1.419 1_654 S
C733 H737 0.930 1_655 S
C734 C733 1.369 . S
C734 C743 1.432 . S
C735 C733 1.419 1_456 S
C735 C736 1.363 1_455 S
C735 H738 0.929 . S
C736 C735 1.363 1_655 S
C736 C742 1.428 . S
H737 C733 0.930 1_455 S
H738 C735 0.929 . S
S739 N740 1.613 1_556 S
S739 N741 1.610 . S
N740 S739 1.613 1_554 S
N740 C743 1.352 . S
N741 S739 1.610 . S
N741 C742 1.351 . S
C742 C736 1.428 . S
C742 N741 1.351 . S
C742 C743 1.427 1_556 S
C743 C734 1.432 . S
C743 N740 1.352 . S
C743 C742 1.427 1_554 S
C744 C745 1.369 . S
C744 C746 1.419 . S
C744 H748 0.930 . S
C745 C744 1.369 . S
C745 C754 1.429 . S
C746 C744 1.419 . S
C746 C747 1.363 1_455 S
C746 H749 0.929 . S
C747 C746 1.363 1_655 S
C747 C753 1.428 . S
H748 C744 0.930 . S
H749 C746 0.929 . S
S750 N751 1.613 1_655 S
S750 N752 1.610 . S
N751 S750 1.613 1_455 S
N751 C754 1.350 . S
N752 S750 1.610 . S
N752 C753 1.351 . S
C753 C747 1.428 . S
C753 N752 1.351 . S
C753 C754 1.434 1_655 S
C754 C745 1.429 . S
C754 N751 1.350 . S
C754 C753 1.434 1_455 S
C755 C756 1.369 . S
C755 C757 1.419 . S
C755 H759 0.930 . S
C756 C755 1.369 . S
C756 C765 1.429 . S
C757 C755 1.419 . S
C757 C758 1.363 . S
C757 H760 0.929 . S
C758 C757 1.363 . S
C758 C764 1.428 1_545 S
H759 C755 0.930 . S
H760 C757 0.929 . S
S761 N762 1.613 1_565 S
S761 N763 1.610 . S
N762 S761 1.613 1_545 S
N762 C765 1.350 . S
N763 S761 1.610 . S
N763 C764 1.351 . S
C764 C758 1.428 1_565 S
C764 N763 1.351 . S
C764 C765 1.434 1_565 S
C765 C756 1.429 . S
C765 N762 1.350 . S
C765 C764 1.434 1_545 S
C766 C767 1.369 . S
C766 C768 1.419 . S
C766 H770 0.930 . S
C767 C766 1.369 . S
C767 C776 1.429 . S
C768 C766 1.419 . S
C768 C769 1.363 . S
C768 H771 0.929 . S
C769 C768 1.363 . S
C769 C775 1.428 . S
H770 C766 0.930 . S
H771 C768 0.929 . S
S772 N773 1.613 . S
S772 N774 1.610 . S
N773 S772 1.613 . S
N773 C776 1.350 . S
N774 S772 1.610 . S
N774 C775 1.351 . S
C775 C769 1.428 . S
C775 N774 1.351 . S
C775 C776 1.434 . S
C776 C767 1.429 . S
C776 N773 1.350 . S
C776 C775 1.434 . S
C777 C778 1.369 . S
C777 C779 1.419 . S
C777 H781 0.930 . S
C778 C777 1.369 . S
C778 C787 1.429 . S
C779 C777 1.419 . S
C779 C780 1.363 . S
C779 H782 0.929 . S
C780 C779 1.363 . S
C780 C786 1.428 . S
H781 C777 0.930 . S
H782 C779 0.929 . S
S783 N784 1.613 . S
S783 N785 1.610 . S
N784 S783 1.613 . S
N784 C787 1.350 . S
N785 S783 1.610 . S
N785 C786 1.351 . S
C786 C780 1.428 . S
C786 N785 1.351 . S
C786 C787 1.434 . S
C787 C778 1.429 . S
C787 N784 1.350 . S
C787 C786 1.434 . S
C788 C789 1.369 . S
C788 C790 1.419 1_655 S
C788 H792 0.930 . S
C789 C788 1.369 . S
C789 C798 1.429 1_556 S
C790 C788 1.419 1_455 S
C790 C791 1.363 . S
C790 H793 0.929 . S
C791 C790 1.363 . S
C791 C797 1.428 1_556 S
H792 C788 0.930 . S
H793 C790 0.929 . S
S794 N795 1.613 . S
S794 N796 1.610 1_655 S
N795 S794 1.613 . S
N795 C798 1.350 . S
N796 S794 1.610 1_455 S
N796 C797 1.351 . S
C797 C791 1.428 1_554 S
C797 N796 1.351 . S
C797 C798 1.434 1_455 S
C798 C789 1.429 1_554 S
C798 N795 1.350 . S
C798 C797 1.434 1_655 S
C799 C800 1.369 . S
C799 C801 1.419 . S
C799 H803 0.930 . S
C800 C799 1.369 . S
C800 C809 1.415 1_565 S
C801 C799 1.419 . S
C801 C802 1.363 1_565 S
C801 H804 0.929 . S
C802 C801 1.363 1_545 S
C802 C808 1.428 . S
H803 C799 0.930 . S
H804 C801 0.929 . S
S805 N806 1.613 . S
S805 N807 1.610 1_554 S
N806 S805 1.613 . S
N806 C809 1.355 1_554 S
N807 S805 1.610 1_556 S
N807 C808 1.351 . S
C808 C802 1.428 . S
C808 N807 1.351 . S
C808 C809 1.444 . S
C809 C800 1.415 1_545 S
C809 N806 1.355 1_556 S
C809 C808 1.444 . S
C810 C811 1.369 1_554 S
C810 C812 1.419 1_554 S
C810 H814 0.930 . S
C811 C810 1.369 1_556 S
C811 C820 1.429 . S
C812 C810 1.419 1_556 S
C812 C813 1.363 . S
C812 H815 0.929 1_556 S
C813 C812 1.363 . S
C813 C819 1.428 . S
H814 C810 0.930 . S
H815 C812 0.929 1_554 S
S816 N817 1.613 . S
S816 N818 1.610 . S
N817 S816 1.613 . S
N817 C820 1.350 . S
N818 S816 1.610 . S
N818 C819 1.351 . S
C819 C813 1.428 . S
C819 N818 1.351 . S
C819 C820 1.434 . S
C820 C811 1.429 . S
C820 N817 1.350 . S
C820 C819 1.434 . S
C821 C822 1.369 1_554 S
C821 C823 1.419 1_554 S
C821 H825 0.930 . S
C822 C821 1.369 1_556 S
C822 C831 1.429 . S
C823 C821 1.419 1_556 S
C823 C824 1.363 . S
C823 H826 0.929 1_556 S
C824 C823 1.363 . S
C824 C830 1.428 . S
H825 C821 0.930 . S
H826 C823 0.929 1_554 S
S827 N828 1.613 . S
S827 N829 1.610 . S
N828 S827 1.613 . S
N828 C831 1.350 . S
N829 S827 1.610 . S
N829 C830 1.351 . S
C830 C824 1.428 . S
C830 N829 1.351 . S
C830 C831 1.434 . S
C831 C822 1.429 . S
C831 N828 1.350 . S
C831 C830 1.434 . S
C832 C833 1.369 . S
C832 C834 1.419 . S
C832 H836 0.930 . S
C833 C832 1.369 . S
C833 C842 1.429 . S
C834 C832 1.419 . S
C834 C835 1.363 . S
C834 H837 0.929 . S
C835 C834 1.363 . S
C835 C841 1.428 . S
H836 C832 0.930 . S
H837 C834 0.929 . S
S838 N839 1.613 1_655 S
S838 N840 1.610 . S
N839 S838 1.613 1_455 S
N839 C842 1.350 . S
N840 S838 1.610 . S
N840 C841 1.351 1_655 S
C841 C835 1.428 . S
C841 N840 1.351 1_455 S
C841 C842 1.434 . S
C842 C833 1.429 . S
C842 N839 1.350 . S
C842 C841 1.434 . S
C843 C844 1.369 . S
C843 C845 1.419 . S
C843 H847 0.930 . S
C844 C843 1.369 . S
C844 C853 1.429 . S
C845 C843 1.419 . S
C845 C846 1.363 . S
C845 H848 0.929 . S
C846 C845 1.363 . S
C846 C852 1.428 . S
H847 C843 0.930 . S
H848 C845 0.929 . S
S849 N850 1.613 1_565 S
S849 N851 1.610 . S
N850 S849 1.613 1_545 S
N850 C853 1.350 . S
N851 S849 1.610 . S
N851 C852 1.351 1_565 S
C852 C846 1.428 . S
C852 N851 1.351 1_545 S
C852 C853 1.434 . S
C853 C844 1.429 . S
C853 N850 1.350 . S
C853 C852 1.434 . S
C854 C855 1.369 . S
C854 C856 1.419 . S
C854 H858 0.930 . S
C855 C854 1.369 . S
C855 C864 1.429 . S
C856 C854 1.419 . S
C856 C857 1.363 . S
C856 H859 0.929 . S
C857 C856 1.363 . S
C857 C863 1.428 . S
H858 C854 0.930 . S
H859 C856 0.929 . S
S860 N861 1.613 . S
S860 N862 1.610 . S
N861 S860 1.613 . S
N861 C864 1.350 . S
N862 S860 1.610 . S
N862 C863 1.351 . S
C863 C857 1.428 . S
C863 N862 1.351 . S
C863 C864 1.434 . S
C864 C855 1.429 . S
C864 N861 1.350 . S
C864 C863 1.434 . S
C865 C866 1.369 . S
C865 C867 1.419 . S
C865 H869 0.930 . S
C866 C865 1.369 . S
C866 C875 1.429 . S
C867 C865 1.419 . S
C867 C868 1.363 . S
C867 H870 0.929 . S
C868 C867 1.363 . S
C868 C874 1.428 . S
H869 C865 0.930 . S
H870 C867 0.929 . S
S871 N872 1.613 . S
S871 N873 1.610 . S
N872 S871 1.613 . S
N872 C875 1.350 . S
N873 S871 1.610 . S
N873 C874 1.351 . S
C874 C868 1.428 . S
C874 N873 1.351 . S
C874 C875 1.434 . S
C875 C866 1.429 . S
C875 N872 1.350 . S
C875 C874 1.434 . S
C876 C877 1.369 . S
C876 C878 1.419 . S
C876 H880 0.930 . S
C877 C876 1.369 . S
C877 C886 1.429 1_655 S
C878 C876 1.419 . S
C878 C879 1.363 . S
C878 H881 0.929 . S
C879 C878 1.363 . S
C879 C885 1.428 1_655 S
H880 C876 0.930 . S
H881 C878 0.929 . S
S882 N883 1.613 . S
S882 N884 1.610 . S
N883 S882 1.613 . S
N883 C886 1.350 . S
N884 S882 1.610 . S
N884 C885 1.351 . S
C885 C879 1.428 1_455 S
C885 N884 1.351 . S
C885 C886 1.434 . S
C886 C877 1.429 1_455 S
C886 N883 1.350 . S
C886 C885 1.434 . S
C887 C888 1.369 1_545 S
C887 C889 1.419 . S
C887 H891 0.930 . S
C888 C887 1.369 1_565 S
C888 C897 1.429 . S
C889 C887 1.419 . S
C889 C890 1.363 1_545 S
C889 H892 0.929 . S
C890 C889 1.363 1_565 S
C890 C896 1.428 . S
H891 C887 0.930 . S
H892 C889 0.929 . S
S893 N894 1.613 . S
S893 N895 1.610 . S
N894 S893 1.613 . S
N894 C897 1.350 . S
N895 S893 1.610 . S
N895 C896 1.351 . S
C896 C890 1.428 . S
C896 N895 1.351 . S
C896 C897 1.434 . S
C897 C888 1.429 . S
C897 N894 1.350 . S
C897 C896 1.434 . S
C898 C899 1.369 . S
C898 C900 1.419 . S
C898 H902 0.930 . S
C899 C898 1.369 . S
C899 C908 1.429 . S
C900 C898 1.419 . S
C900 C901 1.363 . S
C900 H903 0.929 . S
C901 C900 1.363 . S
C901 C907 1.428 . S
H902 C898 0.930 . S
H903 C900 0.929 . S
S904 N905 1.613 . S
S904 N906 1.610 . S
N905 S904 1.613 . S
N905 C908 1.350 . S
N906 S904 1.610 . S
N906 C907 1.351 . S
C907 C901 1.428 . S
C907 N906 1.351 . S
C907 C908 1.434 . S
C908 C899 1.429 . S
C908 N905 1.350 . S
C908 C907 1.434 . S
C909 C910 1.369 . S
C909 C911 1.419 . S
C909 H913 0.930 . S
C910 C909 1.369 . S
C910 C919 1.429 . S
C911 C909 1.419 . S
C911 C912 1.363 . S
C911 H914 0.929 . S
C912 C911 1.363 . S
C912 C918 1.428 . S
H913 C909 0.930 . S
H914 C911 0.929 . S
S915 N916 1.613 . S
S915 N917 1.610 . S
N916 S915 1.613 . S
N916 C919 1.350 . S
N917 S915 1.610 . S
N917 C918 1.351 . S
C918 C912 1.428 . S
C918 N917 1.351 . S
C918 C919 1.434 . S
C919 C910 1.429 . S
C919 N916 1.350 . S
C919 C918 1.434 . S
C657 C255 2.717 . S
C659 C383 2.980 . S
C670 C460 2.975 . S
C668 C295 2.724 . S
C681 C551 2.987 . S
C679 C175 2.725 . S
C692 C635 2.960 . S
C690 C215 2.708 . S
C703 C394 2.978 1_565 S
C701 C95 2.720 . S
C712 C135 2.718 . S
C714 C471 2.977 . S
C723 C15 2.717 . S
C725 C562 2.987 . S
C734 C55 2.704 . S
C736 C646 2.960 1_655 S
C747 C378 0.797 . S
C745 C221 0.781 . S
C758 C473 0.786 1_545 S
C756 C261 0.772 . S
C769 C546 0.817 . S
C767 C301 0.796 . S
C778 C181 0.790 . S
C780 C630 0.781 . S
C789 C61 0.771 1_556 S
C791 C389 0.801 . S
C802 C462 0.784 . S
C800 C101 0.752 1_556 S
C813 C557 0.809 . S
C811 C141 0.794 1_556 S
C822 C21 0.781 1_556 S
C824 C641 0.781 . S
C833 C202 3.249 . S
C835 C387 3.567 . S
C844 C242 3.258 . S
C846 C478 3.689 . S
C857 C555 3.588 . S
C855 C282 3.272 . S
C868 C639 3.586 . S
C866 C162 3.277 . S
C877 C42 3.219 . S
C879 C376 3.564 . S
C890 C467 3.690 . S
C888 C82 3.223 . S
C901 C544 3.585 . S
C899 C122 3.240 . S
C910 C2 3.235 . S
C912 C628 3.588 . S
