# Generated by pormake.
# Topology zzz, (3,6)-cn, num edge types: 1
# Building blocks:
#     Node 0, Type 0, BuildingBlock: OLANEW_clean_sbu_2, # of connection points: 3
#     Node 1, Type 0, BuildingBlock: OLANEW_clean_sbu_2, # of connection points: 3
#     Node 2, Type 0, BuildingBlock: OLANEW_clean_sbu_2, # of connection points: 3
#     Node 3, Type 0, BuildingBlock: OLANEW_clean_sbu_2, # of connection points: 3
#     Node 4, Type 0, BuildingBlock: OLANEW_clean_sbu_2, # of connection points: 3
#     Node 5, Type 0, BuildingBlock: OLANEW_clean_sbu_2, # of connection points: 3
#     Node 6, Type 0, BuildingBlock: OLANEW_clean_sbu_2, # of connection points: 3
#     Node 7, Type 0, BuildingBlock: OLANEW_clean_sbu_2, # of connection points: 3
#     Node 8, Type 1, BuildingBlock: KUMBUR_clean_sbu_1, # of connection points: 6
#     Node 9, Type 1, BuildingBlock: KUMBUR_clean_sbu_1, # of connection points: 6
#     Node 10, Type 1, BuildingBlock: KUMBUR_clean_sbu_1, # of connection points: 6
#     Node 11, Type 1, BuildingBlock: KUMBUR_clean_sbu_1, # of connection points: 6
#     Edge 12, Type (0, 1), BuildingBlock: EZIPEK_clean_linker_0, # of connection points: 2
#     Edge 13, Type (0, 1), BuildingBlock: EZIPEK_clean_linker_0, # of connection points: 2
#     Edge 14, Type (0, 1), BuildingBlock: EZIPEK_clean_linker_0, # of connection points: 2
#     Edge 15, Type (0, 1), BuildingBlock: EZIPEK_clean_linker_0, # of connection points: 2
#     Edge 16, Type (0, 1), BuildingBlock: EZIPEK_clean_linker_0, # of connection points: 2
#     Edge 17, Type (0, 1), BuildingBlock: EZIPEK_clean_linker_0, # of connection points: 2
#     Edge 18, Type (0, 1), BuildingBlock: EZIPEK_clean_linker_0, # of connection points: 2
#     Edge 19, Type (0, 1), BuildingBlock: EZIPEK_clean_linker_0, # of connection points: 2
#     Edge 20, Type (0, 1), BuildingBlock: EZIPEK_clean_linker_0, # of connection points: 2
#     Edge 21, Type (0, 1), BuildingBlock: EZIPEK_clean_linker_0, # of connection points: 2
#     Edge 22, Type (0, 1), BuildingBlock: EZIPEK_clean_linker_0, # of connection points: 2
#     Edge 23, Type (0, 1), BuildingBlock: EZIPEK_clean_linker_0, # of connection points: 2
#     Edge 24, Type (0, 1), BuildingBlock: EZIPEK_clean_linker_0, # of connection points: 2
#     Edge 25, Type (0, 1), BuildingBlock: EZIPEK_clean_linker_0, # of connection points: 2
#     Edge 26, Type (0, 1), BuildingBlock: EZIPEK_clean_linker_0, # of connection points: 2
#     Edge 27, Type (0, 1), BuildingBlock: EZIPEK_clean_linker_0, # of connection points: 2
#     Edge 28, Type (0, 1), BuildingBlock: EZIPEK_clean_linker_0, # of connection points: 2
#     Edge 29, Type (0, 1), BuildingBlock: EZIPEK_clean_linker_0, # of connection points: 2
#     Edge 30, Type (0, 1), BuildingBlock: EZIPEK_clean_linker_0, # of connection points: 2
#     Edge 31, Type (0, 1), BuildingBlock: EZIPEK_clean_linker_0, # of connection points: 2
#     Edge 32, Type (0, 1), BuildingBlock: EZIPEK_clean_linker_0, # of connection points: 2
#     Edge 33, Type (0, 1), BuildingBlock: EZIPEK_clean_linker_0, # of connection points: 2
#     Edge 34, Type (0, 1), BuildingBlock: EZIPEK_clean_linker_0, # of connection points: 2
#     Edge 35, Type (0, 1), BuildingBlock: EZIPEK_clean_linker_0, # of connection points: 2
# Relax obj value: 0.188
# Max RMSD: 0.119
# Mean RMSD: 0.089
data_MOF--net-zzz--node1-OLANEW_clean_sbu_2--node2-KUMBUR_clean_sbu_1--edge1-EZIPEK_clean_linker_0
_symmetry_space_group_name_H-M    P1
_symmetry_Int_Tables_number       1
_symmetry_cell_setting            triclinic
loop_
_symmetry_equiv_pos_as_xyz
'x, y, z'
_cell_length_a     40.749805
_cell_length_b     40.787077
_cell_length_c     13.550558
_cell_angle_alpha  90.625696
_cell_angle_beta   89.854682
_cell_angle_gamma 90.482965
loop_
_atom_site_label
_atom_site_type_symbol
_atom_site_fract_x
_atom_site_fract_y
_atom_site_fract_z
_atom_type_partial_charge
O0 O 0.7426 0.56925 0.1913 0.0
Cd1 Cd 0.68896 0.57311 0.26126 0.0
O2 O 0.74453 0.53839 0.32054 0.0
Cd3 Cd 0.75909 0.50314 0.43058 0.0
O4 O 0.79451 0.49787 0.54781 0.0
C5 C 0.81215 0.52355 0.55488 0.0
O6 O 0.80188 0.55045 0.51317 0.0
C7 C 0.75735 0.54758 0.23951 0.0
C8 C 0.64812 0.54397 0.12189 0.0
O9 O 0.65891 0.57346 0.11581 0.0
O10 O 0.65617 0.52726 0.1975 0.0
O11 O 0.98567 0.74454 0.23613 0.0
Cd12 Cd 0.97766 0.68958 0.30156 0.0
O13 O 0.96994 0.78088 0.34952 0.0
Cd14 Cd 0.95317 0.75131 0.47277 0.0
O15 O 0.9529 0.80076 0.53707 0.0
C16 C 0.97975 0.81271 0.56934 0.0
O17 O 0.00545 0.79358 0.57548 0.0
C18 C 0.98133 0.77399 0.26466 0.0
C19 C 0.98725 0.6456 0.14379 0.0
O20 O 0.95831 0.65331 0.17243 0.0
O21 O 0.0116 0.65766 0.19197 0.0
O22 O 0.773 0.96397 0.17716 0.0
Cd23 Cd 0.82233 0.95782 0.27205 0.0
O24 O 0.76546 0.99004 0.31247 0.0
Cd25 Cd 0.75319 0.01565 0.44993 0.0
O26 O 0.71585 0.02054 0.5628 0.0
C27 C 0.69964 0.99515 0.58676 0.0
O28 O 0.71145 0.96648 0.56005 0.0
C29 C 0.75361 0.98043 0.22976 0.0
C30 C 0.86798 0.97669 0.13709 0.0
O31 O 0.85497 0.948 0.137 0.0
O32 O 0.86101 0.99663 0.20777 0.0
O33 O 0.5564 0.77817 0.15218 0.0
Cd34 Cd 0.57923 0.82743 0.22651 0.0
O35 O 0.5398 0.77563 0.30409 0.0
Cd36 Cd 0.51947 0.75704 0.43946 0.0
O37 O 0.5363 0.71732 0.5285 0.0
C38 C 0.51797 0.70344 0.59109 0.0
O39 O 0.48953 0.71658 0.61333 0.0
C40 C 0.54007 0.76332 0.21746 0.0
C41 C 0.55017 0.87761 0.12572 0.0
O42 O 0.57614 0.86334 0.09446 0.0
O43 O 0.53838 0.86939 0.20976 0.0
O44 O 0.2675 0.44654 0.24543 0.0
Cd45 Cd 0.3191 0.43353 0.16366 0.0
O46 O 0.2655 0.46525 0.09639 0.0
Cd47 Cd 0.24822 0.49184 0.97069 0.0
O48 O 0.20954 0.49845 0.86578 0.0
C49 C 0.19356 0.47301 0.83959 0.0
O50 O 0.20348 0.44406 0.86822 0.0
C51 C 0.25295 0.46377 0.18223 0.0
C52 C 0.36642 0.45984 0.28811 0.0
O53 O 0.3479 0.47859 0.23817 0.0
O54 O 0.3638 0.42882 0.27386 0.0
O55 O 0.06727 0.26701 0.23818 0.0
Cd56 Cd 0.08145 0.31898 0.16933 0.0
O57 O 0.05967 0.26284 0.081 0.0
Cd58 Cd 0.04603 0.24856 0.93306 0.0
O59 O 0.02626 0.21734 0.82047 0.0
C60 C 0.04579 0.19943 0.77171 0.0
O61 O 0.07707 0.20743 0.76768 0.0
C62 C 0.05642 0.25031 0.16617 0.0
C63 C 0.05004 0.36354 0.28801 0.0
O64 O 0.03495 0.35211 0.21214 0.0
O65 O 0.07942 0.35407 0.30437 0.0
O66 O 0.23602 0.03645 0.20629 0.0
Cd67 Cd 0.18693 0.05164 0.12578 0.0
O68 O 0.25492 0.07365 0.10769 0.0
Cd69 Cd 0.29058 0.09875 0.0183 0.0
O70 O 0.32363 0.08657 0.9005 0.0
C71 C 0.3235 0.056 0.88197 0.0
O72 O 0.30382 0.03736 0.93436 0.0
C73 C 0.26036 0.051 0.16904 0.0
C74 C 0.14211 0.04016 0.26985 0.0
O75 O 0.15481 0.01656 0.22025 0.0
O76 O 0.14999 0.06967 0.24783 0.0
O77 O 0.45644 0.23665 0.2317 0.0
Cd78 Cd 0.44082 0.1871 0.142 0.0
O79 O 0.45141 0.24943 0.07888 0.0
Cd80 Cd 0.45251 0.27237 0.93776 0.0
O81 O 0.47247 0.30608 0.83539 0.0
C82 C 0.45391 0.32433 0.78606 0.0
O83 O 0.42231 0.31786 0.78145 0.0
C84 C 0.45956 0.25813 0.16587 0.0
C85 C 0.47152 0.13866 0.24223 0.0
O86 O 0.48643 0.15203 0.16946 0.0
O87 O 0.44183 0.14665 0.26144 0.0
Tb88 Tb 0.97191 0.02341 0.58143 0.0
C89 C 0.09243 0.03566 0.89499 0.0
N90 N 0.0875 0.01817 0.81035 0.0
C91 C 0.14339 0.02814 0.7619 0.0
C92 C 0.12257 0.05182 0.91336 0.0
C93 C 0.11293 0.01296 0.7462 0.0
C94 C 0.14809 0.0481 0.84502 0.0
C95 C 0.07233 0.05342 0.05543 0.0
C96 C 0.06774 0.03609 0.96579 0.0
C97 C 0.10122 0.07169 0.07024 0.0
C98 C 0.12648 0.07056 7e-05 0.0
Tb99 Tb 0.03784 0.99241 0.79835 0.0
N100 N 0.03946 0.01921 0.94748 0.0
C101 C 0.04757 0.05226 0.12707 0.0
C102 C 0.01571 0.01696 0.01901 0.0
C103 C 0.01928 0.03371 0.10903 0.0
H104 H 0.11035 0.99656 0.68371 0.0
H105 H 0.0002 0.03225 0.16457 0.0
H106 H 0.89578 0.03191 0.67484 0.0
H107 H 0.009 0.97138 0.23367 0.0
H108 H 0.99412 0.00191 0.00878 0.0
H109 H 0.05022 0.06525 0.19683 0.0
H110 H 0.01224 0.00965 0.37708 0.0
H111 H 0.16334 0.02411 0.71039 0.0
H112 H 0.10423 0.08661 0.13611 0.0
H113 H 0.14903 0.08406 0.01391 0.0
H114 H 0.84219 0.00416 0.65576 0.0
H115 H 0.17177 0.05971 0.85723 0.0
H116 H 0.96221 0.93281 0.21957 0.0
N117 N 0.92007 0.00117 0.56968 0.0
C118 C 0.91607 0.97807 0.49749 0.0
C119 C 0.86294 0.99619 0.6119 0.0
C120 C 0.88569 0.96205 0.48251 0.0
C121 C 0.89355 0.01154 0.62346 0.0
C122 C 0.85912 0.97092 0.54236 0.0
N123 N 0.96987 0.99002 0.44637 0.0
C124 C 0.99245 0.992 0.37217 0.0
C125 C 0.93812 0.95102 0.35176 0.0
C126 C 0.94181 0.97248 0.43309 0.0
C127 C 0.96355 0.9494 0.28212 0.0
C128 C 0.99028 0.9709 0.29041 0.0
H129 H 0.83529 0.95936 0.53279 0.0
H130 H 0.85955 0.9257 0.39431 0.0
H131 H 0.90553 0.91602 0.27979 0.0
O132 O 0.98958 0.05941 0.4833 0.0
O133 O 0.99177 0.97333 0.5682 0.0
O134 O -0.00043 0.96214 0.73077 0.0
O135 O 0.93818 0.05548 0.51546 0.0
O136 O 0.02428 0.03417 0.58329 0.0
O137 O 0.05387 0.99149 0.64442 0.0
O138 O 0.04426 0.9615 0.92017 0.0
O139 O 0.03225 0.04592 0.77543 0.0
O140 O 0.97922 0.05252 0.71624 0.0
O141 O 0.06999 0.95258 0.78427 0.0
O142 O 0.9866 0.99161 0.83985 0.0
O143 O 0.94952 0.01616 0.73 0.0
C144 C -0.00209 0.95243 0.63883 0.0
C145 C 0.95668 0.10519 0.43771 0.0
C146 C 0.97641 0.15369 0.34916 0.0
C147 C 0.94831 0.17065 0.38064 0.0
C148 C 0.92811 0.1223 0.46401 0.0
C149 C 0.92428 0.15497 0.43692 0.0
C150 C 0.98026 0.12076 0.37721 0.0
C151 C 0.04776 0.01273 0.575 0.0
C152 C 0.9605 0.07015 0.46299 0.0
C153 C 0.88251 0.93874 0.40583 0.0
C154 C 0.90871 0.9332 0.34057 0.0
C155 C 0.00673 0.06457 0.75269 0.0
C156 C 0.0579 0.90604 0.88327 0.0
C157 C 0.03793 0.85905 0.97768 0.0
C158 C 0.054 0.83793 0.91144 0.0
C159 C 0.07394 0.88423 0.81854 0.0
C160 C 0.03978 0.8932 0.96348 0.0
C161 C 0.07181 0.85047 0.83238 0.0
C162 C 0.95724 0.00194 0.81496 0.0
C163 C 0.06357 0.94178 0.87238 0.0
H164 H 0.94483 0.19603 0.36054 0.0
H165 H 0.90897 0.11068 0.5072 0.0
H166 H 0.90254 0.16818 0.45949 0.0
H167 H 0.00156 0.10733 0.35167 0.0
H168 H 0.05322 0.81164 0.92223 0.0
H169 H 0.0888 0.8933 0.75817 0.0
H170 H 0.02803 0.90949 0.01625 0.0
H171 H 0.08458 0.83398 0.78267 0.0
Tb172 Tb 0.52332 0.0437 0.79158 0.0
C173 C 0.49763 0.90066 0.58961 0.0
N174 N 0.51333 0.92802 0.55669 0.0
C175 C 0.5532 0.89462 0.47314 0.0
C176 C 0.50928 0.86909 0.56531 0.0
C177 C 0.54032 0.92537 0.49678 0.0
C178 C 0.53772 0.86636 0.50782 0.0
C179 C 0.44972 0.87636 0.6681 0.0
C180 C 0.46838 0.90423 0.64179 0.0
C181 C 0.46173 0.84492 0.64627 0.0
C182 C 0.49146 0.8413 0.59536 0.0
Tb183 Tb 0.48675 0.97589 0.59082 0.0
N184 N 0.45698 0.93499 0.65989 0.0
C185 C 0.41871 0.88094 0.71057 0.0
C186 C 0.42571 0.93946 0.69346 0.0
C187 C 0.40643 0.91263 0.72176 0.0
H188 H 0.55151 0.94664 0.46368 0.0
H189 H 0.38189 0.91638 0.75025 0.0
H190 H 0.45676 0.06949 0.91622 0.0
H191 H 0.62976 0.10795 0.66108 0.0
H192 H 0.41541 0.96363 0.69669 0.0
H193 H 0.40352 0.86015 0.731 0.0
H194 H 0.59562 0.05924 0.69638 0.0
H195 H 0.57457 0.89271 0.42588 0.0
H196 H 0.44772 0.82324 0.66585 0.0
H197 H 0.49996 0.81688 0.57684 0.0
H198 H 0.43304 0.12217 0.96504 0.0
H199 H 0.54732 0.84254 0.4872 0.0
H200 H 0.60746 0.16336 0.68923 0.0
N201 N 0.49569 0.09064 0.8314 0.0
C202 C 0.51152 0.11893 0.80692 0.0
C203 C 0.45482 0.12162 0.91917 0.0
C204 C 0.49947 0.14974 0.83772 0.0
C205 C 0.46808 0.09161 0.88909 0.0
C206 C 0.47047 0.15082 0.89307 0.0
N207 N 0.55341 0.08674 0.73591 0.0
C208 C 0.58519 0.08325 0.70537 0.0
C209 C 0.56037 0.14543 0.74119 0.0
C210 C 0.54149 0.11689 0.75837 0.0
C211 C 0.59207 0.14207 0.70259 0.0
C212 C 0.60474 0.1108 0.68632 0.0
H213 H 0.46061 0.17398 0.91889 0.0
H214 H 0.50869 0.20218 0.84021 0.0
H215 H 0.56208 0.19836 0.75616 0.0
O216 O 0.56946 0.03757 0.85558 0.0
O217 O 0.5084 0.06368 0.64617 0.0
O218 O 0.5076 0.02086 0.52831 0.0
O219 O 0.53033 0.05999 0.93861 0.0
O220 O 0.55646 0.01077 0.71298 0.0
O221 O 0.53677 0.99229 0.56073 0.0
O222 O 0.43976 0.97874 0.52642 0.0
O223 O 0.50657 0.9561 0.73195 0.0
O224 O 0.50385 0.99775 0.85035 0.0
O225 O 0.48003 0.95793 0.44565 0.0
O226 O 0.45732 0.01447 0.65991 0.0
O227 O 0.47398 0.02467 0.81887 0.0
C228 C 0.50643 0.05223 0.55406 0.0
C229 C 0.57444 0.03589 0.02729 0.0
C230 C 0.6232 0.0187 0.11584 0.0
C231 C 0.6027 0.0053 0.18937 0.0
C232 C 0.55437 0.02195 0.10018 0.0
C233 C 0.56859 0.00719 0.18185 0.0
C234 C 0.60876 0.03533 0.03747 0.0
C235 C 0.56044 0.99769 0.62487 0.0
C236 C 0.56093 0.05106 0.93892 0.0
C237 C 0.51751 0.17835 0.81667 0.0
C238 C 0.5479 0.17618 0.76866 0.0
C239 C 0.51029 0.96738 0.82367 0.0
C240 C 0.43348 0.9749 0.35091 0.0
C241 C 0.3864 0.99652 0.26054 0.0
C242 C 0.40385 0.99223 0.17194 0.0
C243 C 0.45024 0.97074 0.26083 0.0
C244 C 0.40079 0.98647 0.34964 0.0
C245 C 0.43534 0.97907 0.17205 0.0
C246 C 0.45078 0.01973 0.75321 0.0
C247 C 0.44883 0.96447 0.44464 0.0
H248 H 0.61315 0.99285 0.25202 0.0
H249 H 0.52789 0.02238 0.09397 0.0
H250 H 0.55318 0.99657 0.23852 0.0
H251 H 0.62425 0.04702 0.9827 0.0
H252 H 0.39286 0.99893 0.10239 0.0
H253 H 0.47475 0.96069 0.25865 0.0
H254 H 0.38691 0.98844 0.41775 0.0
H255 H 0.44834 0.97546 0.10304 0.0
Tb256 Tb 0.54294 0.49071 0.57779 0.0
C257 C 0.41815 0.49563 0.88471 0.0
N258 N 0.42453 0.51244 0.80087 0.0
C259 C 0.36895 0.50397 0.7478 0.0
C260 C 0.38722 0.48099 0.90156 0.0
C261 C 0.40022 0.51766 0.73384 0.0
C262 C 0.36254 0.48515 0.83134 0.0
C263 C 0.4368 0.47732 0.04434 0.0
C264 C 0.44252 0.49389 0.95512 0.0
C265 C 0.40691 0.46068 0.05837 0.0
C266 C 0.38195 0.46288 0.9879 0.0
Tb267 Tb 0.47709 0.53133 0.78352 0.0
N268 N 0.47181 0.50858 0.93619 0.0
C269 C 0.46166 0.47721 0.11544 0.0
C270 C 0.49541 0.5103 0.00772 0.0
C271 C 0.49105 0.49387 0.09698 0.0
H272 H 0.40465 0.53267 0.67001 0.0
H273 H 0.51054 0.49374 0.15096 0.0
H274 H 0.61953 0.48697 0.66385 0.0
H275 H 0.49426 0.54352 0.24629 0.0
H276 H 0.51782 0.52399 0.99694 0.0
H277 H 0.45842 0.46439 0.18448 0.0
H278 H 0.49404 0.50622 0.38857 0.0
H279 H 0.34981 0.50796 0.69414 0.0
H280 H 0.4029 0.44623 0.12368 0.0
H281 H 0.35865 0.45069 0.00114 0.0
H282 H 0.67194 0.51609 0.63489 0.0
H283 H 0.33835 0.47448 0.8418 0.0
H284 H 0.54271 0.57845 0.21402 0.0
N285 N 0.59398 0.51236 0.55133 0.0
C286 C 0.5962 0.5341 0.47634 0.0
C287 C 0.6507 0.52162 0.59042 0.0
C288 C 0.62537 0.55179 0.45865 0.0
C289 C 0.62089 0.50528 0.6069 0.0
C290 C 0.65284 0.54536 0.51698 0.0
N291 N 0.54044 0.52277 0.44165 0.0
C292 C 0.51499 0.52196 0.37643 0.0
C293 C 0.56993 0.5609 0.33919 0.0
C294 C 0.5686 0.53921 0.41895 0.0
C295 C 0.54261 0.56264 0.2772 0.0
C296 C 0.51527 0.54267 0.29481 0.0
H297 H 0.67583 0.5583 0.50528 0.0
H298 H 0.64744 0.5908 0.37342 0.0
H299 H 0.59937 0.59817 0.26706 0.0
O300 O 0.53035 0.45796 0.46307 0.0
O301 O 0.54696 0.54377 0.60825 0.0
O302 O 0.49432 0.55297 0.64739 0.0
O303 O 0.57677 0.45373 0.53617 0.0
O304 O 0.48925 0.48303 0.56305 0.0
O305 O 0.46306 0.52852 0.62838 0.0
O306 O 0.49526 0.57379 0.85607 0.0
O307 O 0.47981 0.47692 0.77441 0.0
O308 O 0.53084 0.46328 0.70928 0.0
O309 O 0.44464 0.57002 0.81265 0.0
O310 O 0.52789 0.52558 0.82553 0.0
O311 O 0.56401 0.49418 0.72821 0.0
C312 C 0.52401 0.56428 0.63405 0.0
C313 C 0.55741 0.40663 0.44129 0.0
C314 C 0.53364 0.35924 0.35174 0.0
C315 C 0.56111 0.34076 0.37803 0.0
C316 C 0.58481 0.3875 0.46425 0.0
C317 C 0.58643 0.35479 0.43364 0.0
C318 C 0.53195 0.39238 0.38316 0.0
C319 C 0.46347 0.50225 0.57138 0.0
C320 C 0.5579 0.4423 0.46607 0.0
C321 C 0.62591 0.57559 0.38458 0.0
C322 C 0.59838 0.57993 0.32435 0.0
C323 C 0.50248 0.45517 0.74763 0.0
C324 C 0.45703 0.60602 0.9481 0.0
C325 C 0.46654 0.6512 0.0662 0.0
C326 C 0.43579 0.64464 0.10892 0.0
C327 C 0.42642 0.60001 0.99278 0.0
C328 C 0.47705 0.63181 0.98526 0.0
C329 C 0.41594 0.61927 0.07241 0.0
C330 C 0.55667 0.51237 0.80744 0.0
C331 C 0.4668 0.58801 0.85707 0.0
H332 H 0.56309 0.31537 0.35449 0.0
H333 H 0.60518 0.39789 0.50556 0.0
H334 H 0.60764 0.34031 0.45218 0.0
H335 H 0.51119 0.40698 0.36097 0.0
H336 H 0.42705 0.65941 0.17037 0.0
H337 H 0.41025 0.5808 0.9652 0.0
H338 H 0.50041 0.6372 0.95027 0.0
H339 H 0.39215 0.61472 0.10542 0.0
Tb340 Tb 0.02225 0.54394 0.57626 0.0
C341 C 0.01262 0.42053 0.89916 0.0
N342 N 0.99589 0.42583 0.81477 0.0
C343 C 0.00154 0.36903 0.76948 0.0
C344 C 0.02624 0.38972 0.91967 0.0
C345 C 0.98915 0.4003 0.75154 0.0
C346 C 0.0208 0.36386 0.85288 0.0
C347 C 0.03038 0.44116 0.0583 0.0
C348 C 0.01466 0.44578 0.96715 0.0
C349 C 0.04671 0.41163 0.07537 0.0
C350 C 0.04441 0.38577 0.00656 0.0
Tb351 Tb 0.98116 0.479 0.78722 0.0
N352 N 0.00035 0.47463 0.94487 0.0
C353 C 0.02954 0.46654 0.12858 0.0
C354 C 0.99745 0.49864 0.01546 0.0
C355 C 0.01264 0.49525 0.10733 0.0
H356 H 0.97392 0.4037 0.6876 0.0
H357 H 0.01158 0.51492 0.16126 0.0
H358 H 0.03222 0.62014 0.66206 0.0
H359 H 0.95812 0.49608 0.25575 0.0
H360 H 0.98382 0.52065 0.00155 0.0
H361 H 0.04149 0.46408 0.19945 0.0
H362 H -0.00201 0.49429 0.39181 0.0
H363 H 0.99628 0.34898 0.71881 0.0
H364 H 0.06084 0.40852 0.14187 0.0
H365 H 0.05626 0.3627 0.0219 0.0
H366 H 0.00809 0.67445 0.63186 0.0
H367 H 0.03058 0.33969 0.86633 0.0
H368 H 0.92741 0.54696 0.22416 0.0
N369 N 0.00379 0.59589 0.55119 0.0
C370 C 0.98159 0.59918 0.47736 0.0
C371 C 0.00025 0.6534 0.58836 0.0
C372 C 0.96652 0.62946 0.45944 0.0
C373 C 0.01388 0.62259 0.6052 0.0
C374 C 0.97611 0.65678 0.51617 0.0
N375 N 0.98793 0.54273 0.44284 0.0
C376 C 0.98437 0.51645 0.38049 0.0
C377 C 0.95061 0.57396 0.34372 0.0
C378 C 0.97351 0.57173 0.42091 0.0
C379 C 0.94468 0.54621 0.28472 0.0
C380 C 0.96199 0.51747 0.30235 0.0
H381 H 0.96527 0.68057 0.5043 0.0
H382 H 0.92981 0.65424 0.37282 0.0
H383 H 0.91623 0.60575 0.27053 0.0
O384 O 0.05398 0.5327 0.45637 0.0
O385 O 0.96914 0.54903 0.60683 0.0
O386 O 0.96697 0.4976 0.64872 0.0
O387 O 0.06159 0.5767 0.54591 0.0
O388 O 0.02602 0.49019 0.55145 0.0
O389 O 0.98734 0.45869 0.63795 0.0
O390 O 0.93831 0.49892 0.85073 0.0
O391 O 0.03532 0.47805 0.77217 0.0
O392 O 0.05109 0.5283 0.70449 0.0
O393 O 0.93913 0.44921 0.79588 0.0
O394 O 0.98776 0.53098 0.82931 0.0
O395 O 0.02241 0.56342 0.72857 0.0
C396 C 0.95153 0.52469 0.63901 0.0
C397 C 0.1005 0.56771 0.41095 0.0
C398 C 0.14963 0.55206 0.31619 0.0
C399 C 0.15255 0.58476 0.28476 0.0
C400 C 0.10516 0.60032 0.38237 0.0
C401 C 0.13087 0.60869 0.31899 0.0
C402 C 0.12302 0.54375 0.37854 0.0
C403 C 0.01021 0.46222 0.56941 0.0
C404 C 0.07162 0.55892 0.47197 0.0
C405 C 0.94231 0.63138 0.38615 0.0
C406 C 0.93449 0.60374 0.32807 0.0
C407 C 0.05795 0.49917 0.74026 0.0
C408 C 0.90193 0.46074 0.92694 0.0
C409 C 0.8597 0.47317 0.04951 0.0
C410 C 0.85673 0.43971 0.07042 0.0
C411 C 0.89852 0.42723 0.94903 0.0
C412 C 0.8826 0.48373 0.97862 0.0
C413 C 0.87619 0.41691 0.02074 0.0
C414 C 0.00391 0.55832 0.80793 0.0
C415 C 0.92206 0.47141 0.84203 0.0
H416 H 0.17227 0.59199 0.23563 0.0
H417 H 0.08838 0.6192 0.40706 0.0
H418 H 0.13399 0.63386 0.29608 0.0
H419 H 0.1196 0.51863 0.40022 0.0
H420 H 0.83868 0.4312 0.12337 0.0
H421 H 0.91246 0.40884 0.90922 0.0
H422 H 0.88397 0.5095 0.96006 0.0
H423 H 0.87333 0.39105 0.03599 0.0
C424 C 0.09536 0.00735 0.33673 0.0
C425 C 0.11856 0.03317 0.34963 0.0
C426 C 0.0945 0.04631 0.51065 0.0
C427 C 0.07339 0.01871 0.50072 0.0
N428 N 0.06037 0.9679 0.41599 0.0
N429 N 0.14376 0.07311 0.46281 0.0
C430 C 0.07626 0.99741 0.4181 0.0
C431 C 0.11925 0.05146 0.43971 0.0
N432 N 0.08953 0.99389 0.24544 0.0
N433 N 0.0922 0.06706 0.59018 0.0
H434 H 0.16476 0.07696 0.42023 0.0
H435 H 0.16476 0.07696 0.42023 0.0
H436 H 0.07508 0.064 0.64652 0.0
H437 H 0.1074 0.08762 0.59887 0.0
H438 H 0.07065 0.97707 0.23179 0.0
H439 H 0.10047 0.00235 0.18091 0.0
H440 H 0.06499 0.94983 0.3628 0.0
H441 H 0.04358 0.96112 0.46978 0.0
C442 C 0.51243 0.12422 0.37254 0.0
C443 C 0.48755 0.11454 0.30516 0.0
C444 C 0.47475 0.06733 0.40424 0.0
C445 C 0.50044 0.07521 0.4705 0.0
N446 N 0.5503 0.10594 0.49675 0.0
N447 N 0.4539 0.07139 0.23773 0.0
C448 C 0.52124 0.10236 0.44913 0.0
C449 C 0.4721 0.08392 0.31405 0.0
N450 N 0.5272 0.15425 0.36456 0.0
N451 N 0.45074 0.04619 0.43148 0.0
H452 H 0.45173 0.0835 0.17057 0.0
H453 H 0.44431 0.04764 0.23744 0.0
H454 H 0.44786 0.03846 0.50357 0.0
H455 H 0.43139 0.04067 0.38557 0.0
H456 H 0.54294 0.16395 0.41805 0.0
H457 H 0.52239 0.17016 0.30675 0.0
H458 H 0.5675 0.12419 0.48107 0.0
H459 H 0.55874 0.08739 0.54119 0.0
C460 C 0.4067 0.50273 0.35184 0.0
C461 C 0.3886 0.47316 0.36562 0.0
C462 C 0.41691 0.46489 0.52261 0.0
C463 C 0.4344 0.49457 0.50916 0.0
N464 N 0.43149 0.54842 0.43761 0.0
N465 N 0.3696 0.4329 0.4855 0.0
C466 C 0.4251 0.51567 0.43184 0.0
C467 C 0.39155 0.45628 0.45657 0.0
N468 N 0.40746 0.51815 0.26288 0.0
N469 N 0.42274 0.44567 0.60231 0.0
H470 H 0.34801 0.42699 0.44786 0.0
H471 H 0.34801 0.42699 0.44786 0.0
H472 H 0.43949 0.45211 0.65702 0.0
H473 H 0.41044 0.42345 0.61351 0.0
H474 H 0.42321 0.53786 0.24878 0.0
H475 H 0.39517 0.50951 0.20058 0.0
H476 H 0.42363 0.56493 0.38457 0.0
H477 H 0.43915 0.55951 0.50306 0.0
C478 C 0.05748 0.41405 0.38383 0.0
C479 C 0.03589 0.38921 0.35224 0.0
C480 C 0.99349 0.41203 0.46148 0.0
C481 C 0.0176 0.43405 0.50216 0.0
N482 N 0.07532 0.44047 0.5319 0.0
N483 N 0.98425 0.3605 0.37387 0.0
C484 C 0.05044 0.43105 0.47116 0.0
C485 C 0.00391 0.38703 0.39387 0.0
N486 N 0.08525 0.42031 0.33108 0.0
N487 N 0.96105 0.4146 0.48534 0.0
H488 H 0.99111 0.34155 0.32623 0.0
H489 H 0.96235 0.35589 0.41132 0.0
H490 H 0.95194 0.43031 0.53915 0.0
H491 H 0.94263 0.40184 0.44756 0.0
H492 H 0.10138 0.43957 0.34804 0.0
H493 H 0.10138 0.43957 0.34804 0.0
H494 H 0.09988 0.43587 0.51519 0.0
H495 H 0.07069 0.44766 0.60461 0.0
C496 C 0.88907 0.01529 0.00548 0.0
C497 C 0.89121 0.98532 0.05739 0.0
C498 C 0.93167 0.96487 0.93952 0.0
C499 C 0.93175 0.99589 0.89137 0.0
N500 N 0.91563 0.05295 0.89366 0.0
N501 N 0.91536 0.93356 0.08432 0.0
C502 C 0.91179 0.02178 0.92812 0.0
C503 C 0.91332 0.96084 0.02725 0.0
N504 N 0.8644 0.03684 0.02601 0.0
N505 N 0.94855 0.9391 0.89975 0.0
H506 H 0.93093 0.91377 0.07272 0.0
H507 H 0.93093 0.91377 0.07272 0.0
H508 H 0.95871 0.93964 0.83006 0.0
H509 H 0.95045 0.91596 0.92977 0.0
H510 H 0.85959 0.05725 0.98297 0.0
H511 H 0.84658 0.03284 0.07984 0.0
H512 H 0.90452 0.07328 0.9263 0.0
H513 H 0.93219 0.05928 0.83851 0.0
C514 C 0.55868 0.92824 0.03205 0.0
C515 C 0.53639 0.90439 0.06639 0.0
C516 C 0.49533 0.92277 0.94755 0.0
C517 C 0.5191 0.94439 0.90538 0.0
N518 N 0.57531 0.96317 0.89972 0.0
N519 N 0.48125 0.88277 0.0735 0.0
C520 C 0.55116 0.94613 0.94643 0.0
C521 C 0.50389 0.90285 0.0295 0.0
N522 N 0.58708 0.93404 0.08323 0.0
N523 N 0.46504 0.92032 0.90617 0.0
H524 H 0.48683 0.86749 0.13197 0.0
H525 H 0.45634 0.88247 0.05728 0.0
H526 H 0.45839 0.9353 0.84899 0.0
H527 H 0.44714 0.90311 0.92437 0.0
H528 H 0.60427 0.95193 0.06479 0.0
H529 H 0.59207 0.92284 0.15042 0.0
H530 H 0.60007 0.96128 0.91662 0.0
H531 H 0.57114 0.97588 0.83586 0.0
C532 C 0.60011 0.55501 0.01984 0.0
C533 C 0.62377 0.53218 0.04795 0.0
C534 C 0.60118 0.49297 0.92617 0.0
C535 C 0.58139 0.51841 0.88698 0.0
N536 N 0.56813 0.5764 0.8884 0.0
N537 N 0.64938 0.47955 0.02273 0.0
C538 C 0.58249 0.55017 0.9319 0.0
C539 C 0.62505 0.501 0.00019 0.0
N540 N 0.59472 0.58136 0.08022 0.0
N541 N 0.59617 0.46114 0.89722 0.0
H542 H 0.6672 0.48464 0.07585 0.0
H543 H 0.65338 0.45787 0.9833 0.0
H544 H 0.57793 0.45398 0.84766 0.0
H545 H 0.6078 0.44144 0.93013 0.0
H546 H 0.57603 0.59834 0.07063 0.0
H547 H 0.57603 0.59834 0.07063 0.0
H548 H 0.57203 0.60059 0.91124 0.0
H549 H 0.55534 0.5747 0.82273 0.0
C550 C 0.01555 0.59853 0.05793 0.0
C551 C 0.99259 0.62453 0.05456 0.0
C552 C 0.98028 0.61019 0.88098 0.0
C553 C 0.00324 0.58435 0.88589 0.0
N554 N 0.0513 0.56306 0.9632 0.0
N555 N 0.95471 0.65721 0.96079 0.0
C556 C 0.02345 0.58125 0.96977 0.0
C557 C 0.97547 0.63106 0.96514 0.0
N558 N 0.02845 0.58898 0.14606 0.0
N559 N 0.96449 0.61566 0.79392 0.0
H560 H 0.95409 0.67575 0.01413 0.0
H561 H 0.93815 0.66122 0.90416 0.0
H562 H 0.96788 0.60084 0.7318 0.0
H563 H 0.94898 0.63517 0.78035 0.0
H564 H 0.04313 0.56836 0.1533 0.0
H565 H 0.02171 0.5994 0.21366 0.0
H566 H 0.06852 0.56165 0.01966 0.0
H567 H 0.05912 0.55312 0.89606 0.0
C568 C 0.05381 0.19845 0.26054 0.0
C569 C 0.03982 0.21835 0.18666 0.0
C570 C 0.98999 0.18435 0.19426 0.0
C571 C 0.00081 0.17093 0.28469 0.0
N572 N 0.04376 0.16654 0.40678 0.0
N573 N 0.99251 0.23103 0.08635 0.0
C574 C 0.0332 0.17779 0.31786 0.0
C575 C 0.0076 0.21108 0.15224 0.0
N576 N 0.08689 0.19968 0.27641 0.0
N577 N 0.96262 0.17176 0.14942 0.0
H578 H 0.00349 0.25181 0.0568 0.0
H579 H 0.96784 0.22855 0.06748 0.0
H580 H 0.94952 0.15194 0.17831 0.0
H581 H 0.95521 0.17856 0.07904 0.0
H582 H 0.09891 0.18391 0.32403 0.0
H583 H 0.1026 0.21403 0.23344 0.0
H584 H 0.06559 0.17443 0.43957 0.0
H585 H 0.02981 0.1512 0.45145 0.0
C586 C 0.31763 0.05805 0.23473 0.0
C587 C 0.29347 0.03802 0.18872 0.0
C588 C 0.32762 0.98932 0.2119 0.0
C589 C 0.35223 0.00945 0.25497 0.0
N590 N 0.36552 0.05989 0.33926 0.0
N591 N 0.27748 0.98594 0.11655 0.0
C592 C 0.34602 0.04312 0.27441 0.0
C593 C 0.29889 0.00391 0.17346 0.0
N594 N 0.31335 0.09121 0.24143 0.0
N595 N 0.33132 0.95604 0.21192 0.0
H596 H 0.25718 0.99618 0.08209 0.0
H597 H 0.2814 0.96174 0.09486 0.0
H598 H 0.35191 0.94484 0.24184 0.0
H599 H 0.31287 0.93948 0.19198 0.0
H600 H 0.33182 0.10758 0.26263 0.0
H601 H 0.29205 0.10285 0.21876 0.0
H602 H 0.36222 0.08425 0.36028 0.0
H603 H 0.38123 0.04752 0.38541 0.0
C604 C 0.45946 0.30677 0.27998 0.0
C605 C 0.47247 0.29144 0.1938 0.0
C606 C 0.51634 0.33321 0.19111 0.0
C607 C 0.50788 0.34293 0.28861 0.0
N608 N 0.46911 0.34199 0.42263 0.0
N609 N 0.51393 0.29053 0.06557 0.0
C610 C 0.47838 0.33102 0.33136 0.0
C611 C 0.50058 0.30533 0.14702 0.0
N612 N 0.42872 0.29821 0.31178 0.0
N613 N 0.53981 0.35061 0.14161 0.0
H614 H 0.50407 0.26955 0.03249 0.0
H615 H 0.53627 0.29763 0.03469 0.0
H616 H 0.55146 0.37107 0.17314 0.0
H617 H 0.5451 0.347 0.06706 0.0
H618 H 0.41661 0.30992 0.36975 0.0
H619 H 0.41394 0.28139 0.27348 0.0
H620 H 0.45075 0.331 0.4647 0.0
H621 H 0.48052 0.36189 0.45745 0.0
C622 C 0.19281 0.4741 0.21661 0.0
C623 C 0.22574 0.48562 0.21337 0.0
C624 C 0.20922 0.53622 0.29758 0.0
C625 C 0.17551 0.52755 0.28612 0.0
N626 N 0.13511 0.48833 0.22673 0.0
N627 N 0.26464 0.52994 0.23678 0.0
C628 C 0.16721 0.49629 0.24419 0.0
C629 C 0.23367 0.51745 0.24901 0.0
N630 N 0.18609 0.44216 0.19204 0.0
N631 N 0.21817 0.56109 0.3606 0.0
H632 H 0.28361 0.51685 0.20333 0.0
H633 H 0.27062 0.55437 0.25204 0.0
H634 H 0.20131 0.57363 0.40466 0.0
H635 H 0.24253 0.56637 0.37842 0.0
H636 H 0.16329 0.431 0.20216 0.0
H637 H 0.20411 0.42604 0.16698 0.0
H638 H 0.12726 0.46596 0.19735 0.0
H639 H 0.11616 0.50522 0.23207 0.0
C640 C 0.02871 0.80709 0.20368 0.0
C641 C 0.99446 0.80074 0.20332 0.0
C642 C 0.98723 0.83869 0.06641 0.0
C643 C 0.02164 0.84447 0.06547 0.0
N644 N 0.07326 0.84254 0.1509 0.0
N645 N 0.94009 0.81643 0.15437 0.0
C646 C 0.04174 0.8314 0.1403 0.0
C647 C 0.97331 0.81873 0.14161 0.0
N648 N 0.04893 0.78911 0.26218 0.0
N649 N 0.96825 0.85064 0.99231 0.0
H650 H 0.92933 0.80138 0.20742 0.0
H651 H 0.92344 0.83135 0.11836 0.0
H652 H 0.97783 0.86513 0.93607 0.0
H653 H 0.94355 0.84467 0.98309 0.0
H654 H 0.07441 0.78961 0.2561 0.0
H655 H 0.04025 0.77213 0.31326 0.0
H656 H 0.08824 0.83632 0.20985 0.0
H657 H 0.08327 0.86067 0.10586 0.0
C658 C 0.69879 0.00706 0.25567 0.0
C659 C 0.71958 0.98873 0.1934 0.0
C660 C 0.67782 0.99429 0.06171 0.0
C661 C 0.65956 0.01536 0.12548 0.0
N662 N 0.66001 0.05097 0.26775 0.0
N663 N 0.72529 0.95976 0.03642 0.0
C664 C 0.67321 0.02545 0.21585 0.0
C665 C 0.70841 0.98123 0.09516 0.0
N666 N 0.69902 0.00181 0.35398 0.0
N667 N 0.66523 0.98543 0.9718 0.0
H668 H 0.73974 0.94117 0.0645 0.0
H669 H 0.72291 0.95838 0.96007 0.0
H670 H 0.64427 0.99582 0.94264 0.0
H671 H 0.67525 0.96782 0.92488 0.0
H672 H 0.68175 0.01253 0.40052 0.0
H673 H 0.71176 0.98211 0.38294 0.0
H674 H 0.6705 0.05981 0.33315 0.0
H675 H 0.64082 0.0649 0.23976 0.0
C676 C 0.48922 0.73824 0.14676 0.0
C677 C 0.52059 0.73381 0.18935 0.0
C678 C 0.51663 0.67454 0.1555 0.0
C679 C 0.48656 0.67948 0.10522 0.0
N680 N 0.44731 0.7153 0.03695 0.0
N681 N 0.56628 0.69882 0.22493 0.0
C682 C 0.47374 0.7114 0.09691 0.0
C683 C 0.53492 0.70222 0.19117 0.0
N684 N 0.47403 0.7679 0.15602 0.0
N685 N 0.52705 0.6434 0.17241 0.0
H686 H 0.5797 0.71831 0.25551 0.0
H687 H 0.57965 0.67729 0.2174 0.0
H688 H 0.51424 0.62274 0.14722 0.0
H689 H 0.54688 0.63803 0.21751 0.0
H690 H 0.44967 0.77176 0.13687 0.0
H691 H 0.48484 0.78804 0.1917 0.0
H692 H 0.43739 0.73789 0.01841 0.0
H693 H 0.43739 0.73789 0.01841 0.0
C694 C 0.81679 0.53061 0.23169 0.0
C695 C 0.78474 0.52994 0.19135 0.0
C696 C 0.80534 0.50061 0.04558 0.0
C697 C 0.83572 0.49619 0.09384 0.0
N698 N 0.87032 0.50509 0.23588 0.0
N699 N 0.74731 0.51016 0.06515 0.0
C700 C 0.84149 0.51067 0.188 0.0
C701 C 0.77871 0.51401 0.0993 0.0
N702 N 0.82403 0.55164 0.30766 0.0
N703 N 0.80191 0.49213 0.94825 0.0
H704 H 0.72668 0.51825 0.10374 0.0
H705 H 0.74137 0.49597 0.00326 0.0
H706 H 0.82074 0.48169 0.90656 0.0
H707 H 0.7815 0.49842 0.90656 0.0
H708 H 0.84768 0.55523 0.33503 0.0
H709 H 0.80679 0.568 0.33607 0.0
H710 H 0.87455 0.5123 0.30876 0.0
H711 H 0.88937 0.49163 0.20417 0.0
C712 C 0.04458 0.14358 0.842 0.0
C713 C 0.03591 0.16486 0.76421 0.0
C714 C 0.9959 0.12425 0.70498 0.0
C715 C 0.00996 0.10087 0.76858 0.0
N716 N 0.0265 0.09716 0.93574 0.0
N717 N 0.00224 0.17641 0.62312 0.0
C718 C 0.02897 0.11266 0.84788 0.0
C719 C 0.01117 0.15551 0.69623 0.0
N720 N 0.0669 0.15298 0.91225 0.0
N721 N 0.96536 0.11924 0.66702 0.0
H722 H 0.013 0.19952 0.61436 0.0
H723 H 0.98606 0.16965 0.56695 0.0
H724 H 0.95104 0.09864 0.6814 0.0
H725 H 0.95187 0.13843 0.6382 0.0
H726 H 0.07646 0.13663 0.96313 0.0
H727 H 0.07717 0.17641 0.91725 0.0
H728 H 0.03538 0.10725 0.00153 0.0
H729 H 0.01039 0.0774 0.94412 0.0
C730 C 0.36807 0.0623 0.75625 0.0
C731 C 0.35069 0.04184 0.82239 0.0
C732 C 0.39838 0.0073 0.84185 0.0
C733 C 0.41681 0.02853 0.78051 0.0
N734 N 0.42057 0.07827 0.68606 0.0
N735 N 0.34426 0.98604 0.87688 0.0
C736 C 0.40188 0.05635 0.73772 0.0
C737 C 0.36415 0.01147 0.84956 0.0
N738 N 0.35149 0.08628 0.70808 0.0
N739 N 0.41363 0.98393 0.89585 0.0
H740 H 0.31883 0.98688 0.8694 0.0
H741 H 0.35306 0.96263 0.89082 0.0
H742 H 0.43904 0.98258 0.89992 0.0
H743 H 0.40131 0.96878 0.94535 0.0
H744 H 0.36166 0.1008 0.65307 0.0
H745 H 0.32619 0.08917 0.71634 0.0
H746 H 0.41211 0.10076 0.66171 0.0
H747 H 0.44565 0.07532 0.67452 0.0
C748 C 0.45888 0.38142 0.84751 0.0
C749 C 0.46609 0.35783 0.77296 0.0
C750 C 0.50906 0.39392 0.70841 0.0
C751 C 0.49651 0.41969 0.76873 0.0
N752 N 0.48041 0.4283 0.93517 0.0
N753 N 0.49994 0.3398 0.63708 0.0
C754 C 0.47675 0.41114 0.84946 0.0
C755 C 0.49179 0.36355 0.70459 0.0
N756 N 0.43583 0.37529 0.91864 0.0
N757 N 0.53971 0.39622 0.66839 0.0
H758 H 0.48779 0.3172 0.63278 0.0
H759 H 0.51702 0.34335 0.58083 0.0
H760 H 0.55602 0.41522 0.68455 0.0
H761 H 0.55154 0.37634 0.63592 0.0
H762 H 0.42764 0.39338 0.96755 0.0
H763 H 0.42365 0.3529 0.92613 0.0
H764 H 0.47115 0.42003 0.00228 0.0
H765 H 0.49764 0.44725 0.94073 0.0
C766 C 0.13537 0.4793 0.88803 0.0
C767 C 0.15906 0.47738 0.81187 0.0
C768 C 0.11794 0.49306 0.69094 0.0
C769 C 0.09328 0.49313 0.76599 0.0
N770 N 0.07948 0.48888 0.93801 0.0
N771 N 0.17553 0.48837 0.64537 0.0
C772 C 0.10236 0.48691 0.86501 0.0
C773 C 0.15106 0.48582 0.71445 0.0
N774 N 0.14516 0.47682 0.98397 0.0
N775 N 0.10951 0.49826 0.59562 0.0
H776 H 0.19968 0.48145 0.65903 0.0
H777 H 0.17266 0.49918 0.57672 0.0
H778 H 0.08595 0.5043 0.5752 0.0
H779 H 0.12467 0.49218 0.53668 0.0
H780 H 0.13124 0.48551 0.04237 0.0
H781 H 0.16847 0.46941 0.00534 0.0
H782 H 0.08296 0.4805 0.00927 0.0
H783 H 0.05671 0.4992 0.92676 0.0
C784 C 0.01101 0.86533 0.54487 0.0
C785 C 0.98344 0.84869 0.58511 0.0
C786 C 0.96222 0.90157 0.64264 0.0
C787 C 0.99258 0.91688 0.61843 0.0
N788 N 0.04942 0.90942 0.57289 0.0
N789 N 0.93586 0.85097 0.69178 0.0
C790 C 0.01806 0.89771 0.57702 0.0
C791 C 0.95973 0.86678 0.63934 0.0
N792 N 0.02969 0.85108 0.4727 0.0
N793 N 0.93557 0.92004 0.66685 0.0
H794 H 0.93409 0.82548 0.69502 0.0
H795 H 0.92013 0.86321 0.74024 0.0
H796 H 0.93653 0.94556 0.67046 0.0
H797 H 0.91216 0.91 0.67615 0.0
H798 H 0.04828 0.86382 0.436 0.0
H799 H 0.02395 0.82833 0.44108 0.0
H800 H 0.06907 0.89509 0.54927 0.0
H801 H 0.05617 0.93191 0.60381 0.0
C802 C 0.6475 0.97026 0.65361 0.0
C803 C 0.66379 0.99754 0.60991 0.0
C804 C 0.61143 0.01688 0.54566 0.0
C805 C 0.59486 0.99183 0.59652 0.0
N806 N 0.59578 0.94199 0.68844 0.0
N807 N 0.65793 0.0533 0.55092 0.0
C808 C 0.61263 0.96755 0.6472 0.0
C809 C 0.64491 0.0228 0.56627 0.0
N810 N 0.66544 0.948 0.70491 0.0
N811 N 0.59497 0.03556 0.47944 0.0
H812 H 0.67967 0.06138 0.58346 0.0
H813 H 0.6446 0.07245 0.52096 0.0
H814 H 0.57037 0.03135 0.46231 0.0
H815 H 0.60665 0.05245 0.43376 0.0
H816 H 0.65612 0.92642 0.73432 0.0
H817 H 0.69013 0.95195 0.72194 0.0
H818 H 0.60627 0.9234 0.72921 0.0
H819 H 0.57043 0.93932 0.68101 0.0
C820 C 0.54447 0.65408 0.66296 0.0
C821 C 0.52156 0.66779 0.59733 0.0
C822 C 0.50736 0.61326 0.53402 0.0
C823 C 0.52805 0.59944 0.60651 0.0
N824 N 0.57924 0.60759 0.69206 0.0
N825 N 0.48726 0.66205 0.45285 0.0
C826 C 0.55062 0.61999 0.65722 0.0
C827 C 0.50504 0.64782 0.52656 0.0
N828 N 0.55985 0.67337 0.7319 0.0
N829 N 0.49119 0.59309 0.46983 0.0
H830 H 0.48558 0.68733 0.44386 0.0
H831 H 0.47469 0.64946 0.39752 0.0
H832 H 0.49291 0.56795 0.47483 0.0
H833 H 0.47658 0.60044 0.41165 0.0
H834 H 0.57424 0.66373 0.78794 0.0
H835 H 0.55598 0.69859 0.73756 0.0
H836 H 0.59776 0.62225 0.72263 0.0
H837 H 0.58569 0.58312 0.68119 0.0
C838 C 0.8678 0.49834 0.53836 0.0
C839 C 0.84698 0.52163 0.58498 0.0
C840 C 0.8943 0.5447 0.67509 0.0
C841 C 0.91546 0.52366 0.62109 0.0
N842 N 0.9223 0.48411 0.48821 0.0
N843 N 0.84031 0.56868 0.69258 0.0
C844 C 0.90216 0.50117 0.55043 0.0
C845 C 0.86027 0.54544 0.65144 0.0
N846 N 0.85529 0.47379 0.47952 0.0
N847 N 0.90641 0.56258 0.75278 0.0
H848 H 0.81483 0.56805 0.68584 0.0
H849 H 0.84908 0.58942 0.7298 0.0
H850 H 0.93063 0.56065 0.77587 0.0
H851 H 0.89202 0.57655 0.80052 0.0
H852 H 0.86837 0.4526 0.46242 0.0
H853 H 0.832 0.47368 0.44859 0.0
H854 H 0.9142 0.47156 0.42536 0.0
H855 H 0.94757 0.48433 0.49381 0.0
loop_
_geom_bond_atom_site_label_1
_geom_bond_atom_site_label_2
_geom_bond_distance
_geom_bond_site_symmetry_2
_ccdc_geom_bond_type
O0 Cd1 2.300 . S
O0 C7 1.275 . S
Cd1 O0 2.300 . S
Cd1 O9 2.381 . S
Cd1 O10 2.378 . S
O2 Cd3 2.385 . S
O2 C7 1.255 . S
Cd3 O2 2.385 . S
Cd3 O4 2.317 . S
O4 Cd3 2.317 . S
O4 C5 1.232 . S
C5 O4 1.232 . S
C5 O6 1.218 . S
O6 C5 1.218 . S
C7 O0 1.275 . S
C7 O2 1.255 . S
C8 O9 1.258 . S
C8 O10 1.256 . S
O9 Cd1 2.381 . S
O9 C8 1.258 . S
O10 Cd1 2.378 . S
O10 C8 1.256 . S
O11 Cd12 2.300 1_655 S
O11 C18 1.275 . S
Cd12 O11 2.300 1_455 S
Cd12 O20 2.381 1_455 S
Cd12 O21 2.378 . S
O13 Cd14 2.385 . S
O13 C18 1.255 1_455 S
Cd14 O13 2.385 . S
Cd14 O15 2.317 . S
O15 Cd14 2.317 . S
O15 C16 1.232 1_455 S
C16 O15 1.232 1_655 S
C16 O17 1.218 1_655 S
O17 C16 1.218 1_455 S
C18 O11 1.275 . S
C18 O13 1.255 1_655 S
C19 O20 1.258 . S
C19 O21 1.256 1_655 S
O20 Cd12 2.381 1_655 S
O20 C19 1.258 . S
O21 Cd12 2.378 . S
O21 C19 1.256 1_455 S
O22 Cd23 2.300 1_565 S
O22 C29 1.275 . S
Cd23 O22 2.300 1_545 S
Cd23 O31 2.381 1_545 S
Cd23 O32 2.378 . S
O24 Cd25 2.385 . S
O24 C29 1.255 1_545 S
Cd25 O24 2.385 . S
Cd25 O26 2.317 . S
O26 Cd25 2.317 . S
O26 C27 1.232 1_545 S
C27 O26 1.232 1_565 S
C27 O28 1.218 1_565 S
O28 C27 1.218 1_545 S
C29 O22 1.275 . S
C29 O24 1.255 1_565 S
C30 O31 1.258 . S
C30 O32 1.256 1_565 S
O31 Cd23 2.381 1_565 S
O31 C30 1.258 . S
O32 Cd23 2.378 . S
O32 C30 1.256 1_545 S
O33 Cd34 2.300 . S
O33 C40 1.275 . S
Cd34 O33 2.300 . S
Cd34 O42 2.381 . S
Cd34 O43 2.378 . S
O35 Cd36 2.385 . S
O35 C40 1.255 . S
Cd36 O35 2.385 . S
Cd36 O37 2.317 . S
O37 Cd36 2.317 . S
O37 C38 1.232 . S
C38 O37 1.232 . S
C38 O39 1.218 . S
O39 C38 1.218 . S
C40 O33 1.275 . S
C40 O35 1.255 . S
C41 O42 1.258 . S
C41 O43 1.256 . S
O42 Cd34 2.381 . S
O42 C41 1.258 . S
O43 Cd34 2.378 . S
O43 C41 1.256 . S
O44 Cd45 2.300 . S
O44 C51 1.275 . S
Cd45 O44 2.300 . S
Cd45 O53 2.381 . S
Cd45 O54 2.378 . S
O46 Cd47 2.385 1_554 S
O46 C51 1.255 . S
Cd47 O46 2.385 1_556 S
Cd47 O48 2.317 . S
O48 Cd47 2.317 . S
O48 C49 1.232 . S
C49 O48 1.232 . S
C49 O50 1.218 . S
O50 C49 1.218 . S
C51 O44 1.275 . S
C51 O46 1.255 . S
C52 O53 1.258 . S
C52 O54 1.256 . S
O53 Cd45 2.381 . S
O53 C52 1.258 . S
O54 Cd45 2.378 . S
O54 C52 1.256 . S
O55 Cd56 2.300 . S
O55 C62 1.275 . S
Cd56 O55 2.300 . S
Cd56 O64 2.381 . S
Cd56 O65 2.378 . S
O57 Cd58 2.385 1_554 S
O57 C62 1.255 . S
Cd58 O57 2.385 1_556 S
Cd58 O59 2.317 . S
O59 Cd58 2.317 . S
O59 C60 1.232 . S
C60 O59 1.232 . S
C60 O61 1.218 . S
O61 C60 1.218 . S
C62 O55 1.275 . S
C62 O57 1.255 . S
C63 O64 1.258 . S
C63 O65 1.256 . S
O64 Cd56 2.381 . S
O64 C63 1.258 . S
O65 Cd56 2.378 . S
O65 C63 1.256 . S
O66 Cd67 2.300 . S
O66 C73 1.275 . S
Cd67 O66 2.300 . S
Cd67 O75 2.381 . S
Cd67 O76 2.378 . S
O68 Cd69 2.385 1_554 S
O68 C73 1.255 . S
Cd69 O68 2.385 1_556 S
Cd69 O70 2.317 . S
O70 Cd69 2.317 . S
O70 C71 1.232 . S
C71 O70 1.232 . S
C71 O72 1.218 . S
O72 C71 1.218 . S
C73 O66 1.275 . S
C73 O68 1.255 . S
C74 O75 1.258 . S
C74 O76 1.256 . S
O75 Cd67 2.381 . S
O75 C74 1.258 . S
O76 Cd67 2.378 . S
O76 C74 1.256 . S
O77 Cd78 2.300 . S
O77 C84 1.275 . S
Cd78 O77 2.300 . S
Cd78 O86 2.381 . S
Cd78 O87 2.378 . S
O79 Cd80 2.385 1_554 S
O79 C84 1.255 . S
Cd80 O79 2.385 1_556 S
Cd80 O81 2.317 . S
O81 Cd80 2.317 . S
O81 C82 1.232 . S
C82 O81 1.232 . S
C82 O83 1.218 . S
O83 C82 1.218 . S
C84 O77 1.275 . S
C84 O79 1.255 . S
C85 O86 1.258 . S
C85 O87 1.256 . S
O86 Cd78 2.381 . S
O86 C85 1.258 . S
O87 Cd78 2.378 . S
O87 C85 1.256 . S
Tb88 N117 2.617 . S
Tb88 N123 2.572 . S
Tb88 O132 2.465 . S
Tb88 O133 2.387 1_545 S
Tb88 O135 2.428 . S
Tb88 O136 2.308 1_655 S
Tb88 O140 2.349 1_655 S
Tb88 O143 2.393 . S
Tb88 C152 2.802 . S
C89 N90 1.379 . S
C89 C92 1.416 . S
C89 C96 1.424 1_556 S
N90 C89 1.379 . S
N90 C93 1.337 . S
N90 Tb99 2.617 1_545 S
C91 C93 1.399 . S
C91 C94 1.339 . S
C91 H111 0.930 . S
C92 C89 1.416 . S
C92 C94 1.416 . S
C92 C98 1.448 1_556 S
C93 N90 1.337 . S
C93 C91 1.399 . S
C93 H104 0.918 1_545 S
C94 C91 1.339 . S
C94 C92 1.416 . S
C94 H115 0.930 . S
C95 C96 1.413 . S
C95 C97 1.427 . S
C95 C101 1.416 . S
C96 C89 1.424 1_554 S
C96 C95 1.413 . S
C96 N100 1.361 1_554 S
C97 C95 1.427 . S
C97 C98 1.328 . S
C97 H112 0.929 . S
C98 C92 1.448 1_554 S
C98 C97 1.328 . S
C98 H113 0.930 . S
Tb99 N90 2.617 1_565 S
Tb99 N100 2.572 1_565 S
Tb99 O134 2.349 . S
Tb99 O137 2.393 . S
Tb99 O138 2.465 . S
Tb99 O139 2.387 1_565 S
Tb99 O141 2.428 . S
Tb99 O142 2.308 1_465 S
Tb99 C163 2.802 . S
N100 C96 1.361 1_556 S
N100 Tb99 2.572 1_545 S
N100 C102 1.340 1_556 S
C101 C95 1.416 . S
C101 C103 1.332 . S
C101 H109 0.931 . S
C102 N100 1.340 1_554 S
C102 C103 1.407 . S
C102 H108 0.930 1_455 S
C103 C101 1.332 . S
C103 C102 1.407 . S
C103 H105 0.959 . S
H104 C93 0.918 1_565 S
H105 C103 0.959 . S
H106 C121 0.930 . S
H107 C128 0.929 1_455 S
H108 C102 0.930 1_655 S
H109 C101 0.931 . S
H110 C124 0.930 1_455 S
H111 C91 0.930 . S
H112 C97 0.929 . S
H113 C98 0.930 . S
H114 C119 0.930 . S
H115 C94 0.930 . S
H116 C127 0.931 . S
N117 Tb88 2.617 . S
N117 C118 1.384 . S
N117 C121 1.334 . S
C118 N117 1.384 . S
C118 C120 1.412 1_545 S
C118 C126 1.423 1_545 S
C119 H114 0.930 . S
C119 C121 1.390 . S
C119 C122 1.339 1_545 S
C120 C118 1.412 1_565 S
C120 C122 1.416 . S
C120 C153 1.448 . S
C121 H106 0.930 . S
C121 N117 1.334 . S
C121 C119 1.390 . S
C122 C119 1.339 1_565 S
C122 C120 1.416 . S
C122 H129 0.930 . S
N123 Tb88 2.572 . S
N123 C124 1.340 . S
N123 C126 1.361 1_545 S
C124 H110 0.930 1_655 S
C124 N123 1.340 . S
C124 C128 1.407 1_545 S
C125 C126 1.413 . S
C125 C127 1.416 . S
C125 C154 1.427 . S
C126 C118 1.423 1_565 S
C126 N123 1.361 1_565 S
C126 C125 1.413 . S
C127 H116 0.931 . S
C127 C125 1.416 . S
C127 C128 1.332 . S
C128 H107 0.929 1_655 S
C128 C124 1.407 1_565 S
C128 C127 1.332 . S
H129 C122 0.930 . S
H130 C153 0.930 . S
H131 C154 0.929 . S
O132 Tb88 2.465 . S
O132 C152 1.264 . S
O133 Tb88 2.387 1_565 S
O133 C144 1.264 . S
O134 Tb99 2.349 . S
O134 C144 1.243 1_455 S
O135 Tb88 2.428 . S
O135 C152 1.256 . S
O136 Tb88 2.308 1_455 S
O136 C151 1.266 . S
O137 Tb99 2.393 . S
O137 C151 1.248 1_565 S
O138 Tb99 2.465 . S
O138 C163 1.264 . S
O139 Tb99 2.387 1_545 S
O139 C155 1.264 . S
O140 Tb88 2.349 1_455 S
O140 C155 1.243 . S
O141 Tb99 2.428 . S
O141 C163 1.256 . S
O142 Tb99 2.308 1_645 S
O142 C162 1.266 . S
O143 Tb88 2.393 . S
O143 C162 1.248 . S
C144 O133 1.264 . S
C144 O134 1.243 1_655 S
C145 C148 1.399 . S
C145 C150 1.383 . S
C145 C152 1.496 . S
C146 C147 1.399 . S
C146 C150 1.389 . S
C147 C146 1.399 . S
C147 C149 1.380 . S
C147 H164 0.929 . S
C148 C145 1.399 . S
C148 C149 1.392 . S
C148 H165 0.929 . S
C149 C147 1.380 . S
C149 C148 1.392 . S
C149 H166 0.929 . S
C150 C145 1.383 . S
C150 C146 1.389 . S
C150 H167 0.931 1_655 S
C151 O136 1.266 . S
C151 O137 1.248 1_545 S
C152 Tb88 2.802 . S
C152 O132 1.264 . S
C152 O135 1.256 . S
C152 C145 1.496 . S
C153 C120 1.448 . S
C153 H130 0.930 . S
C153 C154 1.328 . S
C154 C125 1.427 . S
C154 H131 0.929 . S
C154 C153 1.328 . S
C155 O139 1.264 . S
C155 O140 1.243 . S
C156 C159 1.399 . S
C156 C160 1.383 1_556 S
C156 C163 1.496 . S
C157 C158 1.399 . S
C157 C160 1.389 . S
C158 C157 1.399 . S
C158 C161 1.380 1_554 S
C158 H168 0.929 . S
C159 C156 1.399 . S
C159 C161 1.392 . S
C159 H169 0.929 . S
C160 C156 1.383 1_554 S
C160 C157 1.389 . S
C160 H170 0.931 . S
C161 C158 1.380 1_556 S
C161 C159 1.392 . S
C161 H171 0.929 . S
C162 O142 1.266 . S
C162 O143 1.248 . S
C163 Tb99 2.802 . S
C163 O138 1.264 . S
C163 O141 1.256 . S
C163 C156 1.496 . S
H164 C147 0.929 . S
H165 C148 0.929 . S
H166 C149 0.929 . S
H167 C150 0.931 1_455 S
H168 C158 0.929 . S
H169 C159 0.929 . S
H170 C160 0.931 . S
H171 C161 0.929 . S
Tb172 N201 2.617 . S
Tb172 N207 2.572 . S
Tb172 O216 2.465 . S
Tb172 O217 2.387 . S
Tb172 O219 2.428 . S
Tb172 O220 2.308 . S
Tb172 O224 2.349 1_545 S
Tb172 O227 2.393 . S
Tb172 C236 2.802 . S
C173 N174 1.379 . S
C173 C176 1.416 . S
C173 C180 1.424 . S
N174 C173 1.379 . S
N174 C177 1.334 . S
N174 Tb183 2.617 . S
C175 C177 1.390 . S
C175 C178 1.339 . S
C175 H195 0.930 . S
C176 C173 1.416 . S
C176 C178 1.416 . S
C176 C182 1.448 . S
C177 N174 1.334 . S
C177 C175 1.390 . S
C177 H188 0.930 . S
C178 C175 1.339 . S
C178 C176 1.416 . S
C178 H199 0.930 . S
C179 C180 1.413 . S
C179 C181 1.427 . S
C179 C185 1.416 . S
C180 C173 1.424 . S
C180 C179 1.413 . S
C180 N184 1.361 . S
C181 C179 1.427 . S
C181 C182 1.328 . S
C181 H196 0.929 . S
C182 C176 1.448 . S
C182 C181 1.328 . S
C182 H197 0.930 . S
Tb183 N174 2.617 . S
Tb183 N184 2.572 . S
Tb183 O218 2.349 1_565 S
Tb183 O221 2.393 . S
Tb183 O222 2.465 . S
Tb183 O223 2.387 . S
Tb183 O225 2.428 . S
Tb183 O226 2.308 1_565 S
Tb183 C247 2.802 . S
N184 C180 1.361 . S
N184 Tb183 2.572 . S
N184 C186 1.340 . S
C185 C179 1.416 . S
C185 C187 1.332 . S
C185 H193 0.931 . S
C186 N184 1.340 . S
C186 C187 1.407 . S
C186 H192 0.930 . S
C187 C185 1.332 . S
C187 C186 1.407 . S
C187 H189 0.929 . S
H188 C177 0.930 . S
H189 C187 0.929 . S
H190 C205 0.930 . S
H191 C212 0.929 . S
H192 C186 0.930 . S
H193 C185 0.931 . S
H194 C208 0.930 . S
H195 C175 0.930 . S
H196 C181 0.929 . S
H197 C182 0.930 . S
H198 C203 0.927 1_554 S
H199 C178 0.930 . S
H200 C211 0.931 . S
N201 Tb172 2.617 . S
N201 C202 1.379 . S
N201 C205 1.334 . S
C202 N201 1.379 . S
C202 C204 1.416 . S
C202 C210 1.424 . S
C203 H198 0.927 1_556 S
C203 C205 1.390 . S
C203 C206 1.339 . S
C204 C202 1.416 . S
C204 C206 1.416 . S
C204 C237 1.448 . S
C205 H190 0.930 . S
C205 N201 1.334 . S
C205 C203 1.390 . S
C206 C203 1.339 . S
C206 C204 1.416 . S
C206 H213 0.930 . S
N207 Tb172 2.572 . S
N207 C208 1.340 . S
N207 C210 1.361 . S
C208 H194 0.930 . S
C208 N207 1.340 . S
C208 C212 1.407 . S
C209 C210 1.413 . S
C209 C211 1.416 . S
C209 C238 1.427 . S
C210 C202 1.424 . S
C210 N207 1.361 . S
C210 C209 1.413 . S
C211 H200 0.931 . S
C211 C209 1.416 . S
C211 C212 1.332 . S
C212 H191 0.929 . S
C212 C208 1.407 . S
C212 C211 1.332 . S
H213 C206 0.930 . S
H214 C237 0.930 . S
H215 C238 0.929 . S
O216 Tb172 2.465 . S
O216 C236 1.264 . S
O217 Tb172 2.387 . S
O217 C228 1.264 . S
O218 Tb183 2.349 1_545 S
O218 C228 1.243 . S
O219 Tb172 2.428 . S
O219 C236 1.256 . S
O220 Tb172 2.308 . S
O220 C235 1.266 1_545 S
O221 Tb183 2.393 . S
O221 C235 1.248 . S
O222 Tb183 2.465 . S
O222 C247 1.264 . S
O223 Tb183 2.387 . S
O223 C239 1.264 . S
O224 Tb172 2.349 1_565 S
O224 C239 1.243 . S
O225 Tb183 2.428 . S
O225 C247 1.256 . S
O226 Tb183 2.308 1_545 S
O226 C246 1.266 . S
O227 Tb172 2.393 . S
O227 C246 1.248 . S
C228 O217 1.264 . S
C228 O218 1.243 . S
C229 C232 1.399 . S
C229 C234 1.383 . S
C229 C236 1.496 1_554 S
C230 C231 1.399 . S
C230 C234 1.389 . S
C231 C230 1.399 . S
C231 C233 1.380 . S
C231 H248 0.929 . S
C232 C229 1.399 . S
C232 C233 1.392 . S
C232 H249 0.929 . S
C233 C231 1.380 . S
C233 C232 1.392 . S
C233 H250 0.929 . S
C234 C229 1.383 . S
C234 C230 1.389 . S
C234 H251 0.931 1_554 S
C235 O220 1.266 1_565 S
C235 O221 1.248 . S
C236 Tb172 2.802 . S
C236 O216 1.264 . S
C236 O219 1.256 . S
C236 C229 1.496 1_556 S
C237 C204 1.448 . S
C237 H214 0.930 . S
C237 C238 1.328 . S
C238 C209 1.427 . S
C238 H215 0.929 . S
C238 C237 1.328 . S
C239 O223 1.264 . S
C239 O224 1.243 . S
C240 C243 1.399 . S
C240 C244 1.383 . S
C240 C247 1.496 . S
C241 C242 1.399 . S
C241 C244 1.389 . S
C242 C241 1.399 . S
C242 C245 1.380 . S
C242 H252 0.929 . S
C243 C240 1.399 . S
C243 C245 1.392 . S
C243 H253 0.929 . S
C244 C240 1.383 . S
C244 C241 1.389 . S
C244 H254 0.931 1_565 S
C245 C242 1.380 . S
C245 C243 1.392 . S
C245 H255 0.929 . S
C246 O226 1.266 . S
C246 O227 1.248 . S
C247 Tb183 2.802 . S
C247 O222 1.264 . S
C247 O225 1.256 . S
C247 C240 1.496 . S
H248 C231 0.929 . S
H249 C232 0.929 . S
H250 C233 0.929 . S
H251 C234 0.931 1_556 S
H252 C242 0.929 . S
H253 C243 0.929 . S
H254 C244 0.931 1_545 S
H255 C245 0.929 . S
Tb256 N285 2.617 . S
Tb256 N291 2.572 . S
Tb256 O300 2.465 . S
Tb256 O301 2.387 . S
Tb256 O303 2.428 . S
Tb256 O304 2.308 . S
Tb256 O308 2.349 . S
Tb256 O311 2.393 . S
Tb256 C320 2.802 . S
C257 N258 1.379 . S
C257 C260 1.416 . S
C257 C264 1.424 1_556 S
N258 C257 1.379 . S
N258 C261 1.334 . S
N258 Tb267 2.617 . S
C259 C261 1.390 . S
C259 C262 1.339 . S
C259 H279 0.930 . S
C260 C257 1.416 . S
C260 C262 1.416 . S
C260 C266 1.448 1_556 S
C261 N258 1.334 . S
C261 C259 1.390 . S
C261 H272 0.930 . S
C262 C259 1.339 . S
C262 C260 1.416 . S
C262 H283 0.930 . S
C263 C264 1.413 . S
C263 C265 1.427 . S
C263 C269 1.416 . S
C264 C257 1.424 1_554 S
C264 C263 1.413 . S
C264 N268 1.361 1_554 S
C265 C263 1.427 . S
C265 C266 1.328 . S
C265 H280 0.929 . S
C266 C260 1.448 1_554 S
C266 C265 1.328 . S
C266 H281 0.930 . S
Tb267 N258 2.617 . S
Tb267 N268 2.572 . S
Tb267 O302 2.349 . S
Tb267 O305 2.393 . S
Tb267 O306 2.465 . S
Tb267 O307 2.387 . S
Tb267 O309 2.428 . S
Tb267 O310 2.308 . S
Tb267 C331 2.802 . S
N268 C264 1.361 1_556 S
N268 Tb267 2.572 . S
N268 C270 1.340 1_556 S
C269 C263 1.416 . S
C269 C271 1.332 . S
C269 H277 0.931 . S
C270 N268 1.340 1_554 S
C270 C271 1.407 . S
C270 H276 0.930 . S
C271 C269 1.332 . S
C271 C270 1.407 . S
C271 H273 0.929 . S
H272 C261 0.930 . S
H273 C271 0.929 . S
H274 C289 0.930 . S
H275 C296 0.929 . S
H276 C270 0.930 . S
H277 C269 0.931 . S
H278 C292 0.930 . S
H279 C259 0.930 . S
H280 C265 0.929 . S
H281 C266 0.930 . S
H282 C287 0.930 . S
H283 C262 0.930 . S
H284 C295 0.931 . S
N285 Tb256 2.617 . S
N285 C286 1.379 . S
N285 C289 1.334 . S
C286 N285 1.379 . S
C286 C288 1.416 . S
C286 C294 1.424 . S
C287 H282 0.930 . S
C287 C289 1.390 . S
C287 C290 1.339 . S
C288 C286 1.416 . S
C288 C290 1.416 . S
C288 C321 1.448 . S
C289 H274 0.930 . S
C289 N285 1.334 . S
C289 C287 1.390 . S
C290 C287 1.339 . S
C290 C288 1.416 . S
C290 H297 0.930 . S
N291 Tb256 2.572 . S
N291 C292 1.340 . S
N291 C294 1.361 . S
C292 H278 0.930 . S
C292 N291 1.340 . S
C292 C296 1.407 . S
C293 C294 1.413 . S
C293 C295 1.416 . S
C293 C322 1.427 . S
C294 C286 1.424 . S
C294 N291 1.361 . S
C294 C293 1.413 . S
C295 H284 0.931 . S
C295 C293 1.416 . S
C295 C296 1.332 . S
C296 H275 0.929 . S
C296 C292 1.407 . S
C296 C295 1.332 . S
H297 C290 0.930 . S
H298 C321 0.930 . S
H299 C322 0.929 . S
O300 Tb256 2.465 . S
O300 C320 1.264 . S
O301 Tb256 2.387 . S
O301 C312 1.264 . S
O302 Tb267 2.349 . S
O302 C312 1.243 . S
O303 Tb256 2.428 . S
O303 C320 1.256 . S
O304 Tb256 2.308 . S
O304 C319 1.266 . S
O305 Tb267 2.393 . S
O305 C319 1.248 . S
O306 Tb267 2.465 . S
O306 C331 1.264 . S
O307 Tb267 2.387 . S
O307 C323 1.264 . S
O308 Tb256 2.349 . S
O308 C323 1.243 . S
O309 Tb267 2.428 . S
O309 C331 1.256 . S
O310 Tb267 2.308 . S
O310 C330 1.266 . S
O311 Tb256 2.393 . S
O311 C330 1.248 . S
C312 O301 1.264 . S
C312 O302 1.243 . S
C313 C316 1.399 . S
C313 C318 1.383 . S
C313 C320 1.496 . S
C314 C315 1.399 . S
C314 C318 1.389 . S
C315 C314 1.399 . S
C315 C317 1.380 . S
C315 H332 0.929 . S
C316 C313 1.399 . S
C316 C317 1.392 . S
C316 H333 0.929 . S
C317 C315 1.380 . S
C317 C316 1.392 . S
C317 H334 0.929 . S
C318 C313 1.383 . S
C318 C314 1.389 . S
C318 H335 0.931 . S
C319 O304 1.266 . S
C319 O305 1.248 . S
C320 Tb256 2.802 . S
C320 O300 1.264 . S
C320 O303 1.256 . S
C320 C313 1.496 . S
C321 C288 1.448 . S
C321 H298 0.930 . S
C321 C322 1.328 . S
C322 C293 1.427 . S
C322 H299 0.929 . S
C322 C321 1.328 . S
C323 O307 1.264 . S
C323 O308 1.243 . S
C324 C327 1.399 . S
C324 C328 1.383 1_556 S
C324 C331 1.496 . S
C325 C326 1.399 . S
C325 C328 1.389 . S
C326 C325 1.399 . S
C326 C329 1.380 1_554 S
C326 H336 0.929 . S
C327 C324 1.399 . S
C327 C329 1.392 . S
C327 H337 0.929 . S
C328 C324 1.383 1_554 S
C328 C325 1.389 . S
C328 H338 0.931 . S
C329 C326 1.380 1_556 S
C329 C327 1.392 . S
C329 H339 0.929 . S
C330 O310 1.266 . S
C330 O311 1.248 . S
C331 Tb267 2.802 . S
C331 O306 1.264 . S
C331 O309 1.256 . S
C331 C324 1.496 . S
H332 C315 0.929 . S
H333 C316 0.929 . S
H334 C317 0.929 . S
H335 C318 0.931 . S
H336 C326 0.929 . S
H337 C327 0.929 . S
H338 C328 0.931 . S
H339 C329 0.929 . S
Tb340 N369 2.617 . S
Tb340 N375 2.572 . S
Tb340 O384 2.465 . S
Tb340 O385 2.387 1_455 S
Tb340 O387 2.428 . S
Tb340 O388 2.308 . S
Tb340 O392 2.349 . S
Tb340 O395 2.393 . S
Tb340 C404 2.802 . S
C341 N342 1.380 . S
C341 C344 1.416 . S
C341 C348 1.424 1_556 S
N342 C341 1.380 . S
N342 C345 1.334 1_455 S
N342 Tb351 2.617 1_455 S
C343 C345 1.390 1_455 S
C343 C346 1.339 . S
C343 H363 0.930 . S
C344 C341 1.416 . S
C344 C346 1.416 . S
C344 C350 1.448 1_556 S
C345 N342 1.334 1_655 S
C345 C343 1.390 1_655 S
C345 H356 0.930 . S
C346 C343 1.339 . S
C346 C344 1.416 . S
C346 H367 0.930 . S
C347 C348 1.413 . S
C347 C349 1.427 . S
C347 C353 1.416 . S
C348 C341 1.424 1_554 S
C348 C347 1.413 . S
C348 N352 1.361 1_554 S
C349 C347 1.427 . S
C349 C350 1.328 . S
C349 H364 0.929 . S
C350 C344 1.448 1_554 S
C350 C349 1.328 . S
C350 H365 0.930 . S
Tb351 N342 2.617 1_655 S
Tb351 N352 2.572 1_655 S
Tb351 O386 2.349 . S
Tb351 O389 2.393 . S
Tb351 O390 2.465 . S
Tb351 O391 2.387 1_655 S
Tb351 O393 2.428 . S
Tb351 O394 2.304 1_655 S
Tb351 C415 2.802 . S
N352 C348 1.361 1_556 S
N352 Tb351 2.572 1_455 S
N352 C354 1.340 1_556 S
C353 C347 1.416 . S
C353 C355 1.332 . S
C353 H361 0.931 . S
C354 N352 1.340 1_554 S
C354 C355 1.407 . S
C354 H360 0.930 . S
C355 C353 1.332 . S
C355 C354 1.407 . S
C355 H357 0.929 . S
H356 C345 0.930 . S
H357 C355 0.929 . S
H358 C373 0.930 . S
H359 C380 0.929 . S
H360 C354 0.930 . S
H361 C353 0.931 . S
H362 C376 0.930 . S
H363 C343 0.930 . S
H364 C349 0.929 . S
H365 C350 0.930 . S
H366 C371 0.930 . S
H367 C346 0.930 . S
H368 C379 0.931 . S
N369 Tb340 2.617 . S
N369 C370 1.378 1_455 S
N369 C373 1.334 . S
C370 N369 1.378 1_655 S
C370 C372 1.417 . S
C370 C378 1.424 . S
C371 H366 0.930 . S
C371 C373 1.390 . S
C371 C374 1.339 1_455 S
C372 C370 1.417 . S
C372 C374 1.416 . S
C372 C405 1.448 . S
C373 H358 0.930 . S
C373 N369 1.334 . S
C373 C371 1.390 . S
C374 C371 1.339 1_655 S
C374 C372 1.416 . S
C374 H381 0.930 . S
N375 Tb340 2.572 . S
N375 C376 1.340 . S
N375 C378 1.361 1_455 S
C376 H362 0.930 . S
C376 N375 1.340 . S
C376 C380 1.407 1_455 S
C377 C378 1.413 . S
C377 C379 1.416 . S
C377 C406 1.427 . S
C378 C370 1.424 . S
C378 N375 1.361 1_655 S
C378 C377 1.413 . S
C379 H368 0.931 . S
C379 C377 1.416 . S
C379 C380 1.332 . S
C380 H359 0.929 . S
C380 C376 1.407 1_655 S
C380 C379 1.332 . S
H381 C374 0.930 . S
H382 C405 0.930 . S
H383 C406 0.929 . S
O384 Tb340 2.465 . S
O384 C404 1.264 . S
O385 Tb340 2.387 1_655 S
O385 C396 1.264 . S
O386 Tb351 2.349 . S
O386 C396 1.243 . S
O387 Tb340 2.428 . S
O387 C404 1.256 . S
O388 Tb340 2.308 . S
O388 C403 1.266 . S
O389 Tb351 2.393 . S
O389 C403 1.248 1_655 S
O390 Tb351 2.465 . S
O390 C415 1.264 . S
O391 Tb351 2.387 1_455 S
O391 C407 1.264 . S
O392 Tb340 2.349 . S
O392 C407 1.243 . S
O393 Tb351 2.428 . S
O393 C415 1.256 . S
O394 Tb351 2.304 1_455 S
O394 C414 1.270 . S
O395 Tb340 2.393 . S
O395 C414 1.248 . S
C396 O385 1.264 . S
C396 O386 1.243 . S
C397 C400 1.399 . S
C397 C402 1.383 . S
C397 C404 1.496 . S
C398 C399 1.399 . S
C398 C402 1.389 . S
C399 C398 1.399 . S
C399 C401 1.380 . S
C399 H416 0.929 . S
C400 C397 1.399 . S
C400 C401 1.392 . S
C400 H417 0.929 . S
C401 C399 1.380 . S
C401 C400 1.392 . S
C401 H418 0.929 . S
C402 C397 1.383 . S
C402 C398 1.389 . S
C402 H419 0.931 . S
C403 O388 1.266 . S
C403 O389 1.248 1_455 S
C404 Tb340 2.802 . S
C404 O384 1.264 . S
C404 O387 1.256 . S
C404 C397 1.496 . S
C405 C372 1.448 . S
C405 H382 0.930 . S
C405 C406 1.328 . S
C406 C377 1.427 . S
C406 H383 0.929 . S
C406 C405 1.328 . S
C407 O391 1.264 . S
C407 O392 1.243 . S
C408 C411 1.399 . S
C408 C412 1.383 1_556 S
C408 C415 1.496 . S
C409 C410 1.399 . S
C409 C412 1.389 . S
C410 C409 1.399 . S
C410 C413 1.380 1_554 S
C410 H420 0.929 . S
C411 C408 1.399 . S
C411 C413 1.392 . S
C411 H421 0.929 . S
C412 C408 1.383 1_554 S
C412 C409 1.389 . S
C412 H422 0.931 . S
C413 C410 1.380 1_556 S
C413 C411 1.392 . S
C413 H423 0.929 . S
C414 O394 1.270 . S
C414 O395 1.248 . S
C415 Tb351 2.802 . S
C415 O390 1.264 . S
C415 O393 1.256 . S
C415 C408 1.496 . S
H416 C399 0.929 . S
H417 C400 0.929 . S
H418 C401 0.929 . S
H419 C402 0.931 . S
H420 C410 0.929 . S
H421 C411 0.929 . S
H422 C412 0.931 . S
H423 C413 0.929 . S
C424 C425 1.363 . S
C424 C430 1.379 . S
C424 N432 1.356 1_545 S
C425 C424 1.363 . S
C425 C431 1.363 . S
C426 C427 1.363 . S
C426 C431 1.379 . S
C426 N433 1.356 . S
C427 C426 1.363 . S
C427 C430 1.363 . S
N428 C430 1.356 1_565 S
N428 H440 0.984 . S
N428 H441 0.985 . S
N429 C431 1.356 . S
N429 H434 0.984 . S
N429 H435 0.985 . S
C430 C424 1.379 . S
C430 C427 1.363 . S
C430 N428 1.356 1_545 S
C431 C425 1.363 . S
C431 C426 1.379 . S
C431 N429 1.356 . S
N432 C424 1.356 1_565 S
N432 H438 0.984 . S
N432 H439 0.984 1_565 S
N433 C426 1.356 . S
N433 H436 0.984 . S
N433 H437 0.985 . S
H434 N429 0.984 . S
H435 N429 0.985 . S
H436 N433 0.984 . S
H437 N433 0.985 . S
H438 N432 0.984 . S
H439 N432 0.984 1_545 S
H440 N428 0.984 . S
H441 N428 0.985 . S
C442 C443 1.363 . S
C442 C448 1.379 . S
C442 N450 1.356 . S
C443 C442 1.363 . S
C443 C449 1.363 . S
C444 C445 1.363 . S
C444 C449 1.379 . S
C444 N451 1.356 . S
C445 C444 1.363 . S
C445 C448 1.363 . S
N446 C448 1.356 . S
N446 H458 0.984 . S
N446 H459 0.985 . S
N447 C449 1.356 . S
N447 H452 0.984 . S
N447 H453 0.985 . S
C448 C442 1.379 . S
C448 C445 1.363 . S
C448 N446 1.356 . S
C449 C443 1.363 . S
C449 C444 1.379 . S
C449 N447 1.356 . S
N450 C442 1.356 . S
N450 H456 0.984 . S
N450 H457 0.984 . S
N451 C444 1.356 . S
N451 H454 0.984 . S
N451 H455 0.985 . S
H452 N447 0.984 . S
H453 N447 0.985 . S
H454 N451 0.984 . S
H455 N451 0.985 . S
H456 N450 0.984 . S
H457 N450 0.984 . S
H458 N446 0.984 . S
H459 N446 0.985 . S
C460 C461 1.363 . S
C460 C466 1.379 . S
C460 N468 1.356 . S
C461 C460 1.363 . S
C461 C467 1.363 . S
C462 C463 1.363 . S
C462 C467 1.379 . S
C462 N469 1.356 . S
C463 C462 1.363 . S
C463 C466 1.363 . S
N464 C466 1.356 . S
N464 H476 0.984 . S
N464 H477 0.985 . S
N465 C467 1.356 . S
N465 H470 0.984 . S
N465 H471 0.985 . S
C466 C460 1.379 . S
C466 C463 1.363 . S
C466 N464 1.356 . S
C467 C461 1.363 . S
C467 C462 1.379 . S
C467 N465 1.356 . S
N468 C460 1.356 . S
N468 H474 0.984 . S
N468 H475 0.984 . S
N469 C462 1.356 . S
N469 H472 0.984 . S
N469 H473 0.985 . S
H470 N465 0.984 . S
H471 N465 0.985 . S
H472 N469 0.984 . S
H473 N469 0.985 . S
H474 N468 0.984 . S
H475 N468 0.984 . S
H476 N464 0.984 . S
H477 N464 0.985 . S
C478 C479 1.363 . S
C478 C484 1.379 . S
C478 N486 1.356 . S
C479 C478 1.363 . S
C479 C485 1.363 . S
C480 C481 1.363 . S
C480 C485 1.379 . S
C480 N487 1.356 1_455 S
C481 C480 1.363 . S
C481 C484 1.363 . S
N482 C484 1.356 . S
N482 H494 0.984 . S
N482 H495 0.985 . S
N483 C485 1.355 1_655 S
N483 H488 0.984 1_655 S
N483 H489 0.986 . S
C484 C478 1.379 . S
C484 C481 1.363 . S
C484 N482 1.356 . S
C485 C479 1.363 . S
C485 C480 1.379 . S
C485 N483 1.355 1_455 S
N486 C478 1.356 . S
N486 H492 0.984 . S
N486 H493 0.984 . S
N487 C480 1.356 1_655 S
N487 H490 0.984 . S
N487 H491 0.985 . S
H488 N483 0.984 1_455 S
H489 N483 0.986 . S
H490 N487 0.984 . S
H491 N487 0.985 . S
H492 N486 0.984 . S
H493 N486 0.984 . S
H494 N482 0.984 . S
H495 N482 0.985 . S
C496 C497 1.363 1_545 S
C496 C502 1.379 1_554 S
C496 N504 1.356 . S
C497 C496 1.363 1_565 S
C497 C503 1.363 . S
C498 C499 1.363 . S
C498 C503 1.379 1_556 S
C498 N505 1.356 . S
C499 C498 1.363 . S
C499 C502 1.363 1_565 S
N500 C502 1.356 . S
N500 H512 0.984 . S
N500 H513 0.985 . S
N501 C503 1.356 . S
N501 H506 0.984 . S
N501 H507 0.985 . S
C502 C496 1.379 1_556 S
C502 C499 1.363 1_545 S
C502 N500 1.356 . S
C503 C497 1.363 . S
C503 C498 1.379 1_554 S
C503 N501 1.356 . S
N504 C496 1.356 . S
N504 H510 0.984 . S
N504 H511 0.984 . S
N505 C498 1.356 . S
N505 H508 0.984 . S
N505 H509 0.985 . S
H506 N501 0.984 . S
H507 N501 0.985 . S
H508 N505 0.984 . S
H509 N505 0.985 . S
H510 N504 0.984 . S
H511 N504 0.984 . S
H512 N500 0.984 . S
H513 N500 0.985 . S
C514 C515 1.363 . S
C514 C520 1.379 1_554 S
C514 N522 1.356 . S
C515 C514 1.363 . S
C515 C521 1.363 . S
C516 C517 1.363 . S
C516 C521 1.379 1_556 S
C516 N523 1.356 . S
C517 C516 1.363 . S
C517 C520 1.363 . S
N518 C520 1.356 . S
N518 H530 0.984 . S
N518 H531 0.985 . S
N519 C521 1.356 . S
N519 H524 0.984 . S
N519 H525 0.985 . S
C520 C514 1.379 1_556 S
C520 C517 1.363 . S
C520 N518 1.356 . S
C521 C515 1.363 . S
C521 C516 1.379 1_554 S
C521 N519 1.356 . S
N522 C514 1.356 . S
N522 H528 0.984 . S
N522 H529 0.984 . S
N523 C516 1.356 . S
N523 H526 0.984 . S
N523 H527 0.985 . S
H524 N519 0.984 . S
H525 N519 0.985 . S
H526 N523 0.984 . S
H527 N523 0.985 . S
H528 N522 0.984 . S
H529 N522 0.984 . S
H530 N518 0.984 . S
H531 N518 0.985 . S
C532 C533 1.363 . S
C532 C538 1.379 1_554 S
C532 N540 1.356 . S
C533 C532 1.363 . S
C533 C539 1.363 . S
C534 C535 1.363 . S
C534 C539 1.379 1_556 S
C534 N541 1.356 . S
C535 C534 1.363 . S
C535 C538 1.363 . S
N536 C538 1.356 . S
N536 H548 0.984 . S
N536 H549 0.985 . S
N537 C539 1.356 . S
N537 H542 0.984 . S
N537 H543 0.985 . S
C538 C532 1.379 1_556 S
C538 C535 1.363 . S
C538 N536 1.356 . S
C539 C533 1.363 . S
C539 C534 1.379 1_554 S
C539 N537 1.356 . S
N540 C532 1.356 . S
N540 H546 0.984 . S
N540 H547 0.984 . S
N541 C534 1.356 . S
N541 H544 0.984 . S
N541 H545 0.985 . S
H542 N537 0.984 . S
H543 N537 0.985 . S
H544 N541 0.984 . S
H545 N541 0.985 . S
H546 N540 0.984 . S
H547 N540 0.984 . S
H548 N536 0.984 . S
H549 N536 0.985 . S
C550 C551 1.363 1_455 S
C550 C556 1.379 . S
C550 N558 1.356 . S
C551 C550 1.363 1_655 S
C551 C557 1.363 . S
C552 C553 1.363 . S
C552 C557 1.379 1_556 S
C552 N559 1.356 . S
C553 C552 1.363 . S
C553 C556 1.363 1_656 S
N554 C556 1.356 1_556 S
N554 H566 0.984 1_556 S
N554 H567 0.985 . S
N555 C557 1.356 . S
N555 H560 0.984 . S
N555 H561 0.985 . S
C556 C550 1.379 . S
C556 C553 1.363 1_454 S
C556 N554 1.356 1_554 S
C557 C551 1.363 . S
C557 C552 1.379 1_554 S
C557 N555 1.356 . S
N558 C550 1.356 . S
N558 H564 0.984 . S
N558 H565 0.984 . S
N559 C552 1.356 . S
N559 H562 0.984 . S
N559 H563 0.985 . S
H560 N555 0.984 . S
H561 N555 0.985 . S
H562 N559 0.984 . S
H563 N559 0.985 . S
H564 N558 0.984 . S
H565 N558 0.984 . S
H566 N554 0.984 1_554 S
H567 N554 0.985 . S
C568 C569 1.363 . S
C568 C574 1.379 . S
C568 N576 1.356 . S
C569 C568 1.363 . S
C569 C575 1.363 . S
C570 C571 1.351 1_655 S
C570 C575 1.379 1_655 S
C570 N577 1.356 . S
C571 C570 1.351 1_455 S
C571 C574 1.391 . S
N572 C574 1.356 . S
N572 H584 0.984 . S
N572 H585 0.985 . S
N573 C575 1.356 1_655 S
N573 H578 0.984 1_655 S
N573 H579 0.985 . S
C574 C568 1.379 . S
C574 C571 1.391 . S
C574 N572 1.356 . S
C575 C569 1.363 . S
C575 C570 1.379 1_455 S
C575 N573 1.356 1_455 S
N576 C568 1.356 . S
N576 H582 0.984 . S
N576 H583 0.984 . S
N577 C570 1.356 . S
N577 H580 0.984 . S
N577 H581 0.985 . S
H578 N573 0.984 1_455 S
H579 N573 0.985 . S
H580 N577 0.984 . S
H581 N577 0.985 . S
H582 N576 0.984 . S
H583 N576 0.984 . S
H584 N572 0.984 . S
H585 N572 0.985 . S
C586 C587 1.363 . S
C586 C592 1.379 . S
C586 N594 1.356 . S
C587 C586 1.363 . S
C587 C593 1.363 . S
C588 C589 1.363 1_565 S
C588 C593 1.379 1_565 S
C588 N595 1.356 . S
C589 C588 1.363 1_545 S
C589 C592 1.363 . S
N590 C592 1.356 . S
N590 H602 0.984 . S
N590 H603 0.985 . S
N591 C593 1.356 1_565 S
N591 H596 0.984 1_565 S
N591 H597 0.985 . S
C592 C586 1.379 . S
C592 C589 1.363 . S
C592 N590 1.356 . S
C593 C587 1.363 . S
C593 C588 1.379 1_545 S
C593 N591 1.356 1_545 S
N594 C586 1.356 . S
N594 H600 0.984 . S
N594 H601 0.984 . S
N595 C588 1.356 . S
N595 H598 0.984 . S
N595 H599 0.985 . S
H596 N591 0.984 1_545 S
H597 N591 0.985 . S
H598 N595 0.984 . S
H599 N595 0.985 . S
H600 N594 0.984 . S
H601 N594 0.984 . S
H602 N590 0.984 . S
H603 N590 0.985 . S
C604 C605 1.363 . S
C604 C610 1.379 . S
C604 N612 1.356 . S
C605 C604 1.363 . S
C605 C611 1.363 . S
C606 C607 1.363 . S
C606 C611 1.379 . S
C606 N613 1.356 . S
C607 C606 1.363 . S
C607 C610 1.363 . S
N608 C610 1.356 . S
N608 H620 0.984 . S
N608 H621 0.985 . S
N609 C611 1.356 . S
N609 H614 0.984 . S
N609 H615 0.985 . S
C610 C604 1.379 . S
C610 C607 1.363 . S
C610 N608 1.356 . S
C611 C605 1.363 . S
C611 C606 1.379 . S
C611 N609 1.356 . S
N612 C604 1.356 . S
N612 H618 0.984 . S
N612 H619 0.984 . S
N613 C606 1.356 . S
N613 H616 0.984 . S
N613 H617 0.985 . S
H614 N609 0.984 . S
H615 N609 0.985 . S
H616 N613 0.984 . S
H617 N613 0.985 . S
H618 N612 0.984 . S
H619 N612 0.984 . S
H620 N608 0.984 . S
H621 N608 0.985 . S
C622 C623 1.363 . S
C622 C628 1.379 . S
C622 N630 1.356 . S
C623 C622 1.363 . S
C623 C629 1.363 . S
C624 C625 1.363 . S
C624 C629 1.379 . S
C624 N631 1.356 . S
C625 C624 1.363 . S
C625 C628 1.363 . S
N626 C628 1.356 . S
N626 H638 0.984 . S
N626 H639 0.985 . S
N627 C629 1.356 . S
N627 H632 0.984 . S
N627 H633 0.985 . S
C628 C622 1.379 . S
C628 C625 1.363 . S
C628 N626 1.356 . S
C629 C623 1.363 . S
C629 C624 1.379 . S
C629 N627 1.356 . S
N630 C622 1.356 . S
N630 H636 0.984 . S
N630 H637 0.984 . S
N631 C624 1.356 . S
N631 H634 0.984 . S
N631 H635 0.985 . S
H632 N627 0.984 . S
H633 N627 0.985 . S
H634 N631 0.984 . S
H635 N631 0.985 . S
H636 N630 0.984 . S
H637 N630 0.984 . S
H638 N626 0.984 . S
H639 N626 0.985 . S
C640 C641 1.363 1_455 S
C640 C646 1.379 . S
C640 N648 1.356 . S
C641 C640 1.363 1_655 S
C641 C647 1.363 . S
C642 C643 1.363 1_655 S
C642 C647 1.379 . S
C642 N649 1.356 . S
C643 C642 1.363 1_455 S
C643 C646 1.363 . S
N644 C646 1.356 . S
N644 H656 0.984 . S
N644 H657 0.985 . S
N645 C647 1.356 . S
N645 H650 0.984 . S
N645 H651 0.985 . S
C646 C640 1.379 . S
C646 C643 1.363 . S
C646 N644 1.356 . S
C647 C641 1.363 . S
C647 C642 1.379 . S
C647 N645 1.356 . S
N648 C640 1.356 . S
N648 H654 0.984 . S
N648 H655 0.984 . S
N649 C642 1.356 . S
N649 H652 0.984 . S
N649 H653 0.985 . S
H650 N645 0.984 . S
H651 N645 0.985 . S
H652 N649 0.984 . S
H653 N649 0.985 . S
H654 N648 0.984 . S
H655 N648 0.984 . S
H656 N644 0.984 . S
H657 N644 0.985 . S
C658 C659 1.363 . S
C658 C664 1.379 1_565 S
C658 N666 1.356 . S
C659 C658 1.363 . S
C659 C665 1.363 . S
C660 C661 1.363 1_565 S
C660 C665 1.379 . S
C660 N667 1.356 1_564 S
C661 C660 1.363 1_545 S
C661 C664 1.363 . S
N662 C664 1.356 . S
N662 H674 0.984 . S
N662 H675 0.985 . S
N663 C665 1.356 . S
N663 H668 0.984 . S
N663 H669 0.985 1_554 S
C664 C658 1.379 1_545 S
C664 C661 1.363 . S
C664 N662 1.356 . S
C665 C659 1.363 . S
C665 C660 1.379 . S
C665 N663 1.356 . S
N666 C658 1.356 . S
N666 H672 0.984 1_565 S
N666 H673 0.984 . S
N667 C660 1.356 1_546 S
N667 H670 0.984 . S
N667 H671 0.985 1_545 S
H668 N663 0.984 . S
H669 N663 0.985 1_556 S
H670 N667 0.984 . S
H671 N667 0.985 1_565 S
H672 N666 0.984 1_545 S
H673 N666 0.984 . S
H674 N662 0.984 . S
H675 N662 0.985 . S
C676 C677 1.363 . S
C676 C682 1.379 . S
C676 N684 1.356 . S
C677 C676 1.363 . S
C677 C683 1.363 . S
C678 C679 1.363 . S
C678 C683 1.379 . S
C678 N685 1.356 . S
C679 C678 1.363 . S
C679 C682 1.363 . S
N680 C682 1.356 . S
N680 H692 0.984 . S
N680 H693 0.985 . S
N681 C683 1.356 . S
N681 H686 0.984 . S
N681 H687 0.985 . S
C682 C676 1.379 . S
C682 C679 1.363 . S
C682 N680 1.356 . S
C683 C677 1.363 . S
C683 C678 1.379 . S
C683 N681 1.356 . S
N684 C676 1.356 . S
N684 H690 0.984 . S
N684 H691 0.984 . S
N685 C678 1.356 . S
N685 H688 0.984 . S
N685 H689 0.985 . S
H686 N681 0.984 . S
H687 N681 0.985 . S
H688 N685 0.984 . S
H689 N685 0.985 . S
H690 N684 0.984 . S
H691 N684 0.984 . S
H692 N680 0.984 . S
H693 N680 0.985 . S
C694 C695 1.363 . S
C694 C700 1.379 . S
C694 N702 1.356 . S
C695 C694 1.363 . S
C695 C701 1.363 . S
C696 C697 1.363 . S
C696 C701 1.379 . S
C696 N703 1.356 1_554 S
C697 C696 1.363 . S
C697 C700 1.363 . S
N698 C700 1.356 . S
N698 H710 0.984 . S
N698 H711 0.985 . S
N699 C701 1.356 . S
N699 H704 0.984 . S
N699 H705 0.985 . S
C700 C694 1.379 . S
C700 C697 1.363 . S
C700 N698 1.356 . S
C701 C695 1.363 . S
C701 C696 1.379 . S
C701 N699 1.356 . S
N702 C694 1.356 . S
N702 H708 0.984 . S
N702 H709 0.984 . S
N703 C696 1.356 1_556 S
N703 H706 0.984 . S
N703 H707 0.985 . S
H704 N699 0.984 . S
H705 N699 0.985 . S
H706 N703 0.984 . S
H707 N703 0.985 . S
H708 N702 0.984 . S
H709 N702 0.984 . S
H710 N698 0.984 . S
H711 N698 0.985 . S
C712 C713 1.363 . S
C712 C718 1.379 . S
C712 N720 1.356 . S
C713 C712 1.363 . S
C713 C719 1.363 . S
C714 C715 1.363 . S
C714 C719 1.379 . S
C714 N721 1.356 1_455 S
C715 C714 1.363 . S
C715 C718 1.363 . S
N716 C718 1.356 . S
N716 H728 0.984 . S
N716 H729 0.985 . S
N717 C719 1.356 . S
N717 H722 0.984 . S
N717 H723 0.985 1_455 S
C718 C712 1.379 . S
C718 C715 1.363 . S
C718 N716 1.356 . S
C719 C713 1.363 . S
C719 C714 1.379 . S
C719 N717 1.356 . S
N720 C712 1.356 . S
N720 H726 0.984 . S
N720 H727 0.984 . S
N721 C714 1.356 1_655 S
N721 H724 0.984 . S
N721 H725 0.985 . S
H722 N717 0.984 . S
H723 N717 0.985 1_655 S
H724 N721 0.984 . S
H725 N721 0.985 . S
H726 N720 0.984 . S
H727 N720 0.984 . S
H728 N716 0.984 . S
H729 N716 0.985 . S
C730 C731 1.363 . S
C730 C736 1.379 . S
C730 N738 1.356 . S
C731 C730 1.363 . S
C731 C737 1.363 . S
C732 C733 1.363 . S
C732 C737 1.379 . S
C732 N739 1.356 1_545 S
C733 C732 1.363 . S
C733 C736 1.363 . S
N734 C736 1.356 . S
N734 H746 0.984 . S
N734 H747 0.985 . S
N735 C737 1.356 1_565 S
N735 H740 0.984 . S
N735 H741 0.985 . S
C736 C730 1.379 . S
C736 C733 1.363 . S
C736 N734 1.356 . S
C737 C731 1.363 . S
C737 C732 1.379 . S
C737 N735 1.356 1_545 S
N738 C730 1.356 . S
N738 H744 0.984 . S
N738 H745 0.984 . S
N739 C732 1.356 1_565 S
N739 H742 0.984 . S
N739 H743 0.985 . S
H740 N735 0.984 . S
H741 N735 0.985 . S
H742 N739 0.984 . S
H743 N739 0.985 . S
H744 N738 0.984 . S
H745 N738 0.984 . S
H746 N734 0.984 . S
H747 N734 0.985 . S
C748 C749 1.363 . S
C748 C754 1.379 . S
C748 N756 1.356 . S
C749 C748 1.363 . S
C749 C755 1.363 . S
C750 C751 1.363 . S
C750 C755 1.379 . S
C750 N757 1.356 . S
C751 C750 1.363 . S
C751 C754 1.363 . S
N752 C754 1.356 . S
N752 H764 0.984 . S
N752 H765 0.985 . S
N753 C755 1.356 . S
N753 H758 0.984 . S
N753 H759 0.985 . S
C754 C748 1.379 . S
C754 C751 1.363 . S
C754 N752 1.356 . S
C755 C749 1.363 . S
C755 C750 1.379 . S
C755 N753 1.356 . S
N756 C748 1.356 . S
N756 H762 0.984 . S
N756 H763 0.984 . S
N757 C750 1.356 . S
N757 H760 0.984 . S
N757 H761 0.985 . S
H758 N753 0.984 . S
H759 N753 0.985 . S
H760 N757 0.984 . S
H761 N757 0.985 . S
H762 N756 0.984 . S
H763 N756 0.984 . S
H764 N752 0.984 . S
H765 N752 0.985 . S
C766 C767 1.363 . S
C766 C772 1.379 . S
C766 N774 1.356 . S
C767 C766 1.363 . S
C767 C773 1.363 . S
C768 C769 1.363 . S
C768 C773 1.379 . S
C768 N775 1.356 . S
C769 C768 1.363 . S
C769 C772 1.363 . S
N770 C772 1.356 . S
N770 H782 0.984 1_556 S
N770 H783 0.985 . S
N771 C773 1.356 . S
N771 H776 0.984 . S
N771 H777 0.985 . S
C772 C766 1.379 . S
C772 C769 1.363 . S
C772 N770 1.356 . S
C773 C767 1.363 . S
C773 C768 1.379 . S
C773 N771 1.356 . S
N774 C766 1.356 . S
N774 H780 0.984 1_556 S
N774 H781 0.984 . S
N775 C768 1.356 . S
N775 H778 0.984 . S
N775 H779 0.985 . S
H776 N771 0.984 . S
H777 N771 0.985 . S
H778 N775 0.984 . S
H779 N775 0.985 . S
H780 N774 0.984 1_554 S
H781 N774 0.984 . S
H782 N770 0.984 1_554 S
H783 N770 0.985 . S
C784 C785 1.363 1_455 S
C784 C790 1.379 . S
C784 N792 1.356 . S
C785 C784 1.363 1_655 S
C785 C791 1.363 . S
C786 C787 1.363 . S
C786 C791 1.379 . S
C786 N793 1.356 . S
C787 C786 1.363 . S
C787 C790 1.363 1_655 S
N788 C790 1.356 . S
N788 H800 0.984 . S
N788 H801 0.985 . S
N789 C791 1.356 . S
N789 H794 0.984 . S
N789 H795 0.985 . S
C790 C784 1.379 . S
C790 C787 1.363 1_455 S
C790 N788 1.356 . S
C791 C785 1.363 . S
C791 C786 1.379 . S
C791 N789 1.356 . S
N792 C784 1.356 . S
N792 H798 0.984 . S
N792 H799 0.984 . S
N793 C786 1.356 . S
N793 H796 0.984 . S
N793 H797 0.985 . S
H794 N789 0.984 . S
H795 N789 0.985 . S
H796 N793 0.984 . S
H797 N793 0.985 . S
H798 N792 0.984 . S
H799 N792 0.984 . S
H800 N788 0.984 . S
H801 N788 0.985 . S
C802 C803 1.363 . S
C802 C808 1.379 . S
C802 N810 1.356 . S
C803 C802 1.363 . S
C803 C809 1.363 1_565 S
C804 C805 1.363 1_545 S
C804 C809 1.379 . S
C804 N811 1.356 . S
C805 C804 1.363 1_565 S
C805 C808 1.363 . S
N806 C808 1.356 . S
N806 H818 0.984 . S
N806 H819 0.985 . S
N807 C809 1.356 . S
N807 H812 0.984 . S
N807 H813 0.985 . S
C808 C802 1.379 . S
C808 C805 1.363 . S
C808 N806 1.356 . S
C809 C803 1.363 1_545 S
C809 C804 1.379 . S
C809 N807 1.356 . S
N810 C802 1.356 . S
N810 H816 0.984 . S
N810 H817 0.984 . S
N811 C804 1.356 . S
N811 H814 0.984 . S
N811 H815 0.985 . S
H812 N807 0.984 . S
H813 N807 0.985 . S
H814 N811 0.984 . S
H815 N811 0.985 . S
H816 N810 0.984 . S
H817 N810 0.984 . S
H818 N806 0.984 . S
H819 N806 0.985 . S
C820 C821 1.363 . S
C820 C826 1.379 . S
C820 N828 1.356 . S
C821 C820 1.363 . S
C821 C827 1.363 . S
C822 C823 1.363 . S
C822 C827 1.379 . S
C822 N829 1.356 . S
C823 C822 1.363 . S
C823 C826 1.363 . S
N824 C826 1.356 . S
N824 H836 0.984 . S
N824 H837 0.985 . S
N825 C827 1.356 . S
N825 H830 0.984 . S
N825 H831 0.985 . S
C826 C820 1.379 . S
C826 C823 1.363 . S
C826 N824 1.356 . S
C827 C821 1.363 . S
C827 C822 1.379 . S
C827 N825 1.356 . S
N828 C820 1.356 . S
N828 H834 0.984 . S
N828 H835 0.984 . S
N829 C822 1.356 . S
N829 H832 0.984 . S
N829 H833 0.985 . S
H830 N825 0.984 . S
H831 N825 0.985 . S
H832 N829 0.984 . S
H833 N829 0.985 . S
H834 N828 0.984 . S
H835 N828 0.984 . S
H836 N824 0.984 . S
H837 N824 0.985 . S
C838 C839 1.363 . S
C838 C844 1.379 . S
C838 N846 1.356 . S
C839 C838 1.363 . S
C839 C845 1.363 . S
C840 C841 1.363 . S
C840 C845 1.379 . S
C840 N847 1.356 . S
C841 C840 1.363 . S
C841 C844 1.363 . S
N842 C844 1.356 . S
N842 H854 0.984 . S
N842 H855 0.985 . S
N843 C845 1.356 . S
N843 H848 0.984 . S
N843 H849 0.985 . S
C844 C838 1.379 . S
C844 C841 1.363 . S
C844 N842 1.356 . S
C845 C839 1.363 . S
C845 C840 1.379 . S
C845 N843 1.356 . S
N846 C838 1.356 . S
N846 H852 0.984 . S
N846 H853 0.984 . S
N847 C840 1.356 . S
N847 H850 0.984 . S
N847 H851 0.985 . S
H848 N843 0.984 . S
H849 N843 0.985 . S
H850 N847 0.984 . S
H851 N847 0.985 . S
H852 N846 0.984 . S
H853 N846 0.984 . S
H854 N842 0.984 . S
H855 N842 0.985 . S
C425 C74 1.980 . S
C427 C151 2.121 . S
C445 C228 2.119 . S
C443 C85 1.983 . S
C463 C319 2.121 . S
C461 C52 1.978 . S
C481 C403 2.105 . S
C479 C63 1.966 . S
C499 C162 2.120 1_565 S
C497 C30 1.946 . S
C515 C41 1.949 . S
C517 C239 2.119 . S
C533 C8 1.945 . S
C535 C330 2.120 . S
C551 C19 1.934 . S
C553 C414 2.106 1_655 S
C571 C146 0.831 1_455 S
C569 C62 0.857 . S
C589 C241 0.824 1_545 S
C587 C73 0.838 . S
C607 C314 0.860 . S
C605 C84 0.865 . S
C623 C51 0.844 . S
C625 C398 0.839 . S
C641 C18 0.826 . S
C643 C157 0.851 . S
C661 C230 0.824 . S
C659 C29 0.812 . S
C679 C325 0.860 . S
C677 C40 0.831 . S
C695 C7 0.816 . S
C697 C409 0.839 . S
C713 C60 1.809 . S
C715 C155 2.276 . S
C731 C71 1.821 . S
C733 C246 2.336 . S
C751 C323 2.293 . S
C749 C82 1.827 . S
C769 C407 2.296 . S
C767 C49 1.828 . S
C785 C16 1.726 . S
C787 C144 2.276 . S
C805 C235 2.336 . S
C803 C27 1.724 . S
C823 C312 2.293 . S
C821 C38 1.735 . S
C839 C5 1.743 . S
C841 C396 2.296 . S
