# Generated by pormake.
# Topology pth, (4,4)-cn, num edge types: 1
# Building blocks:
#     Node 0, Type 0, BuildingBlock: UXUYUI_clean_sbu_0, # of connection points: 4
#     Node 1, Type 0, BuildingBlock: UXUYUI_clean_sbu_0, # of connection points: 4
#     Node 2, Type 0, BuildingBlock: UXUYUI_clean_sbu_0, # of connection points: 4
#     Node 3, Type 1, BuildingBlock: MUDLON_clean_sbu_0, # of connection points: 4
#     Node 4, Type 1, BuildingBlock: MUDLON_clean_sbu_0, # of connection points: 4
#     Node 5, Type 1, BuildingBlock: MUDLON_clean_sbu_0, # of connection points: 4
#     Edge 6, Type (0, 1), BuildingBlock: UVAHIK_clean_linker_0, # of connection points: 2
#     Edge 7, Type (0, 1), BuildingBlock: UVAHIK_clean_linker_0, # of connection points: 2
#     Edge 8, Type (0, 1), BuildingBlock: UVAHIK_clean_linker_0, # of connection points: 2
#     Edge 9, Type (0, 1), BuildingBlock: UVAHIK_clean_linker_0, # of connection points: 2
#     Edge 10, Type (0, 1), BuildingBlock: UVAHIK_clean_linker_0, # of connection points: 2
#     Edge 11, Type (0, 1), BuildingBlock: UVAHIK_clean_linker_0, # of connection points: 2
#     Edge 12, Type (0, 1), BuildingBlock: UVAHIK_clean_linker_0, # of connection points: 2
#     Edge 13, Type (0, 1), BuildingBlock: UVAHIK_clean_linker_0, # of connection points: 2
#     Edge 14, Type (0, 1), BuildingBlock: UVAHIK_clean_linker_0, # of connection points: 2
#     Edge 15, Type (0, 1), BuildingBlock: UVAHIK_clean_linker_0, # of connection points: 2
#     Edge 16, Type (0, 1), BuildingBlock: UVAHIK_clean_linker_0, # of connection points: 2
#     Edge 17, Type (0, 1), BuildingBlock: UVAHIK_clean_linker_0, # of connection points: 2
# Relax obj value: 0.110
# Max RMSD: 0.229
# Mean RMSD: 0.139
data_MOF--net-pth--node1-UXUYUI_clean_sbu_0--node2-MUDLON_clean_sbu_0--edge1-UVAHIK_clean_linker_0
_symmetry_space_group_name_H-M    P1
_symmetry_Int_Tables_number       1
_symmetry_cell_setting            triclinic
loop_
_symmetry_equiv_pos_as_xyz
'x, y, z'
_cell_length_a     34.256412
_cell_length_b     34.224906
_cell_length_c     91.077831
_cell_angle_alpha  90.100351
_cell_angle_beta   89.945773
_cell_angle_gamma 119.98208
loop_
_atom_site_label
_atom_site_type_symbol
_atom_site_fract_x
_atom_site_fract_y
_atom_site_fract_z
_atom_type_partial_charge
Li0 Li 0.05203 0.04167 0.07398 0.0
Li1 Li 0.99745 0.04188 0.09162 0.0
Li2 Li 0.0188 0.98161 0.09185 0.0
Li3 Li 0.96944 0.98214 0.07249 0.0
C4 C 0.10022 0.08085 0.09837 0.0
N5 N 0.1877 0.14932 0.10313 0.0
C6 C 0.10853 0.12212 0.10419 0.0
C7 C 0.13642 0.07424 0.09513 0.0
C8 C 0.15299 0.15635 0.10649 0.0
C9 C 0.18039 0.10932 0.09756 0.0
C10 C 0.98485 0.07743 0.0649 0.0
C11 C 0.92545 0.09211 0.05786 0.0
N12 N 0.95682 0.13538 0.05456 0.0
C13 C 0.01648 0.12186 0.0612 0.0
C14 C 0.93894 0.06227 0.06302 0.0
C15 C 1.00166 0.15071 0.05609 0.0
C16 C 0.11504 0.05899 0.05136 0.0
N17 N 0.10408 0.07889 0.06229 0.0
C18 C 0.16575 0.15128 0.05584 0.0
C19 C 0.12851 0.12415 0.06464 0.0
C20 C 0.1778 0.13174 0.0444 0.0
C21 C 0.15194 0.08488 0.04225 0.0
H22 H 0.09484 0.02301 0.04962 0.0
H23 H 0.11882 0.13936 0.07325 0.0
C24 C 0.95821 0.06084 0.11602 0.0
N25 N 0.98301 0.07899 0.10365 0.0
C26 C 0.94728 0.08679 0.12517 0.0
C27 C 0.9889 0.15022 0.10898 0.0
C28 C 0.9987 0.12292 0.1001 0.0
C29 C 0.96271 0.13225 0.12172 0.0
H30 H 0.94694 0.02612 0.11882 0.0
H31 H 0.01984 0.13719 0.09057 0.0
C32 C 0.03287 0.94105 0.06975 0.0
N33 N 0.05058 0.87065 0.06953 0.0
C34 C 0.99801 0.89689 0.06738 0.0
C35 C 0.07682 0.94948 0.07184 0.0
C36 C 0.00762 0.86173 0.06734 0.0
C37 C 0.08507 0.91341 0.07174 0.0
C38 C 0.91245 0.9546 0.09684 0.0
C39 C 0.88959 0.91124 0.10284 0.0
C40 C 0.88882 0.97716 0.09385 0.0
C41 C 0.84331 0.89088 0.10547 0.0
C42 C 0.84258 0.95572 0.09665 0.0
N43 N 0.82094 0.91333 0.10233 0.0
C44 C 0.06644 0.96024 0.11302 0.0
C45 C 0.99747 0.89832 0.10489 0.0
C46 C 0.07269 0.93261 0.12289 0.0
N47 N 0.0291 0.94283 0.10437 0.0
C48 C 1.00204 0.86961 0.11473 0.0
C49 C 0.03978 0.88685 0.12401 0.0
H50 H 0.09084 0.99578 0.11255 0.0
H51 H 0.96832 0.88524 0.09781 0.0
C52 C 0.92172 0.96509 0.04595 0.0
N53 N 0.9214 0.94665 0.05919 0.0
C54 C 0.88806 0.94062 0.03563 0.0
C55 C 0.85492 0.87799 0.05255 0.0
C56 C 0.889 0.90389 0.06261 0.0
C57 C 0.85409 0.89626 0.0388 0.0
H58 H 0.94829 0.99888 0.04339 0.0
H59 H 0.89014 0.88946 0.07303 0.0
O60 O 0.05688 0.04706 0.09594 0.0
O61 O 0.99889 0.04866 0.06984 0.0
O62 O 0.02395 0.9758 0.07013 0.0
O63 O 0.95775 0.9749 0.09405 0.0
H64 H 0.08101 0.12769 0.10693 0.0
H65 H 0.13065 0.04253 0.09066 0.0
H66 H 0.1599 0.18851 0.11094 0.0
H67 H 0.20869 0.10475 0.095 0.0
H68 H 0.89003 0.08079 0.05641 0.0
H69 H 0.0521 0.13414 0.06238 0.0
H70 H 0.91391 0.02768 0.0653 0.0
H71 H 0.02583 0.18528 0.05332 0.0
H72 H 0.18424 0.18734 0.05775 0.0
H73 H 0.16019 0.06836 0.03363 0.0
H74 H 0.92677 0.07126 0.13479 0.0
H75 H 1.00263 0.18534 0.10606 0.0
H76 H 0.96384 0.88976 0.06572 0.0
H77 H 0.10426 0.98347 0.07355 0.0
H78 H 0.98091 0.82735 0.06562 0.0
H79 H 0.1189 0.91943 0.07342 0.0
H80 H 0.90727 0.89338 0.10541 0.0
H81 H 0.9061 0.01114 0.08964 0.0
H82 H 0.82518 0.85723 0.11003 0.0
H83 H 0.82394 0.97287 0.09437 0.0
H84 H 0.102 0.94724 0.12997 0.0
H85 H 0.9761 0.8344 0.11521 0.0
H86 H 0.88869 0.95646 0.02528 0.0
H87 H 0.83016 0.84366 0.0554 0.0
Li88 Li 0.99341 0.96069 0.40846 0.0
Li89 Li 0.04738 0.01476 0.4267 0.0
Li90 Li 0.96435 0.99128 0.42798 0.0
Li91 Li 0.01351 0.04094 0.40885 0.0
C92 C 0.98637 0.91645 0.43742 0.0
N93 N 0.9716 0.84052 0.45271 0.0
C94 C 0.02097 0.90638 0.43897 0.0
C95 C 0.94434 0.88807 0.4438 0.0
C96 C 0.01282 0.86779 0.44669 0.0
C97 C 0.93751 0.84981 0.45145 0.0
C98 C 0.09577 0.02712 0.40109 0.0
C99 C 0.17562 0.0802 0.40167 0.0
N100 N 0.18315 0.05093 0.39372 0.0
C101 C 0.10429 0.99756 0.39293 0.0
C102 C 0.13169 0.0688 0.4055 0.0
C103 C 0.14871 0.01022 0.38931 0.0
C104 C 0.95641 0.90304 0.38373 0.0
N105 N 0.98046 0.90978 0.39629 0.0
C106 C 0.9875 0.84497 0.39117 0.0
C107 C 0.99641 0.8819 0.40003 0.0
C108 C 0.96192 0.83656 0.37828 0.0
C109 C 0.94634 0.86631 0.37462 0.0
H110 H 0.945 0.92624 0.38076 0.0
H111 H 0.01678 0.88875 0.40975 0.0
C112 C 0.1031 0.04983 0.45167 0.0
N113 N 0.09837 0.02791 0.43876 0.0
C114 C 0.13836 0.05826 0.46126 0.0
C115 C 0.1639 0.02243 0.4439 0.0
C116 C 0.12774 0.01397 0.43481 0.0
C117 C 0.1694 0.04433 0.45747 0.0
H118 H 0.07891 0.06002 0.45465 0.0
H119 H 0.12289 0.99569 0.42467 0.0
C120 C 0.90878 0.95307 0.4035 0.0
N121 N 0.82173 0.88528 0.39764 0.0
C122 C 0.88125 0.96111 0.39413 0.0
C123 C 0.89209 0.91043 0.40979 0.0
C124 C 0.83732 0.92645 0.39134 0.0
C125 C 0.84801 0.87664 0.40672 0.0
C126 C 0.02588 0.09486 0.43045 0.0
C127 C 0.98926 0.10217 0.43007 0.0
C128 C 0.06977 0.13157 0.43032 0.0
C129 C 0.99722 0.14635 0.42942 0.0
C130 C 0.07632 0.17523 0.42966 0.0
N131 N 0.04022 0.18165 0.42921 0.0
C132 C 0.92758 0.97868 0.45608 0.0
C133 C 0.8757 0.97043 0.4375 0.0
C134 C 0.89545 0.96992 0.46696 0.0
N135 N 0.91718 0.9785 0.44168 0.0
C136 C 0.84233 0.9609 0.44799 0.0
C137 C 0.85192 0.9606 0.463 0.0
H138 H 0.96105 0.98581 0.45911 0.0
H139 H 0.86832 0.97145 0.42604 0.0
C140 C 0.06508 0.12132 0.3918 0.0
N141 N 0.02314 0.09025 0.39648 0.0
C142 C 0.07089 0.15528 0.38204 0.0
C143 C 0.99032 0.12514 0.38226 0.0
C144 C 0.98614 0.09207 0.39212 0.0
C145 C 0.03309 0.15694 0.37693 0.0
H146 H 0.094 0.11941 0.39542 0.0
H147 H 0.95328 0.06743 0.39619 0.0
O148 O 0.99393 0.95456 0.4301 0.0
O149 O 0.05248 0.01504 0.40479 0.0
O150 O 0.95189 0.98675 0.40634 0.0
O151 O 0.01874 0.05187 0.43062 0.0
H152 H 0.05362 0.92777 0.43409 0.0
H153 H 0.9172 0.89545 0.4429 0.0
H154 H 0.03927 0.85949 0.44787 0.0
H155 H 0.90513 0.82755 0.4564 0.0
H156 H 0.20375 0.11221 0.40509 0.0
H157 H 0.0769 0.9652 0.38941 0.0
H158 H 0.12582 0.09164 0.4121 0.0
H159 H 0.1558 0.98767 0.383 0.0
H160 H 1.00129 0.82379 0.39428 0.0
H161 H 0.92628 0.86119 0.36487 0.0
H162 H 0.14048 0.0745 0.47167 0.0
H163 H 0.18716 0.01169 0.44027 0.0
H164 H 0.89363 0.99376 0.38906 0.0
H165 H 0.91306 0.90334 0.41682 0.0
H166 H 0.81563 0.93225 0.38414 0.0
H167 H 0.83473 0.8435 0.41151 0.0
H168 H 0.95508 0.074 0.43009 0.0
H169 H 0.09843 0.12637 0.43062 0.0
H170 H 0.96923 0.15256 0.42902 0.0
H171 H 0.11009 0.20401 0.42947 0.0
H172 H 0.90498 0.97115 0.47835 0.0
H173 H 0.80929 0.95352 0.44432 0.0
H174 H 0.10442 0.17898 0.37813 0.0
H175 H 0.96037 0.12564 0.37875 0.0
Li176 Li 0.03917 0.99564 0.74264 0.0
Li177 Li 0.04047 0.04693 0.76071 0.0
Li178 Li 0.9833 0.96298 0.76217 0.0
Li179 Li 0.9798 0.01459 0.74291 0.0
C180 C 0.08114 0.98142 0.76544 0.0
N181 N 0.14433 0.95423 0.76817 0.0
C182 C 0.12576 0.01023 0.76118 0.0
C183 C 0.06868 0.9389 0.77118 0.0
C184 C 0.15719 0.9958 0.76261 0.0
C185 C 0.10114 0.92577 0.77246 0.0
C186 C 0.07569 0.09959 0.73799 0.0
C187 C 0.09541 0.17777 0.73888 0.0
N188 N 0.13928 0.19022 0.73642 0.0
C189 C 0.12093 0.11313 0.7354 0.0
C190 C 0.06274 0.13212 0.73967 0.0
C191 C 0.15258 0.15912 0.73466 0.0
C192 C 0.08626 0.00684 0.7164 0.0
N193 N 0.07395 0.9822 0.72897 0.0
C194 C 0.10577 0.93814 0.72022 0.0
C195 C 0.08281 0.94798 0.73098 0.0
C196 C 0.11894 0.96317 0.70714 0.0
C197 C 0.10894 0.99797 0.70532 0.0
H198 H 0.07768 0.03295 0.71483 0.0
H199 H 0.07103 0.92742 0.74073 0.0
C200 C 0.05357 0.1098 0.78295 0.0
N201 N 0.07581 0.098 0.77313 0.0
C202 C 0.07744 0.14501 0.79287 0.0
C203 C 0.14688 0.15573 0.78235 0.0
C204 C 0.12162 0.12005 0.7727 0.0
C205 C 0.12476 0.16832 0.79271 0.0
H206 H 0.01722 0.09132 0.78331 0.0
H207 H 0.13868 0.10953 0.76507 0.0
C208 C 0.97091 0.92791 0.72916 0.0
N209 N 0.9718 0.87847 0.70529 0.0
C210 C 0.96943 0.94223 0.71492 0.0
C211 C 0.97264 0.88837 0.73128 0.0
C212 C 0.96999 0.91679 0.70299 0.0
C213 C 0.97308 0.86385 0.71906 0.0
C214 C 0.93838 0.02186 0.76723 0.0
C215 C 0.89809 0.98583 0.77249 0.0
C216 C 0.94113 0.06331 0.76443 0.0
C217 C 0.86102 0.99177 0.7747 0.0
C218 C 0.90329 0.06787 0.76676 0.0
N219 N 0.86435 0.0323 0.7718 0.0
C220 C 0.95615 0.92286 0.78985 0.0
C221 C 0.91849 0.87306 0.77006 0.0
C222 C 0.93086 0.88896 0.80001 0.0
N223 N 0.94943 0.91439 0.77522 0.0
C224 C 0.89275 0.83801 0.77983 0.0
C225 C 0.89844 0.84575 0.79507 0.0
H226 H 0.98072 0.95628 0.79361 0.0
H227 H 0.91342 0.86743 0.75837 0.0
C228 C 0.95649 0.05427 0.71975 0.0
N229 N 0.93953 0.02426 0.73099 0.0
C230 C 0.92767 0.06074 0.7105 0.0
C231 C 0.86449 0.00573 0.7247 0.0
C232 C 0.89444 0.99964 0.73345 0.0
C233 C 0.88081 0.03634 0.7129 0.0
H234 H 0.99241 0.07255 0.71776 0.0
H235 H 0.88163 0.97501 0.74218 0.0
O236 O 0.04986 0.99489 0.76421 0.0
O237 O 0.04425 0.05474 0.73889 0.0
O238 O 0.97178 0.95311 0.74095 0.0
O239 O 0.97496 0.01661 0.76491 0.0
H240 H 0.13584 0.04303 0.7566 0.0
H241 H 0.03429 0.91624 0.77455 0.0
H242 H 0.19177 0.0176 0.75926 0.0
H243 H 0.09197 0.89292 0.77684 0.0
H244 H 0.08588 0.20331 0.74022 0.0
H245 H 0.13163 0.08844 0.73417 0.0
H246 H 0.02786 0.12222 0.74159 0.0
H247 H 0.18774 0.17009 0.73276 0.0
H248 H 0.11204 0.91044 0.72194 0.0
H249 H 0.11863 0.01826 0.69545 0.0
H250 H 0.05904 0.15374 0.80063 0.0
H251 H 0.18331 0.17231 0.78201 0.0
H252 H 0.96843 0.97295 0.71309 0.0
H253 H 0.97454 0.87722 0.74223 0.0
H254 H 0.96914 0.9276 0.6919 0.0
H255 H 0.97475 0.83336 0.72053 0.0
H256 H 0.89532 0.95352 0.77473 0.0
H257 H 0.9721 0.09159 0.76044 0.0
H258 H 0.82957 0.96412 0.7787 0.0
H259 H 0.90489 0.09969 0.76456 0.0
H260 H 0.93595 0.89695 0.8116 0.0
H261 H 0.86865 0.80523 0.77546 0.0
H262 H 0.94203 0.08389 0.70138 0.0
H263 H 0.82889 0.98653 0.72723 0.0
Mg264 Mg 0.9843 0.49518 0.25038 0.0
C265 C 1.00236 0.43032 0.26534 0.0
O266 O 0.96269 0.4059 0.25918 0.0
C267 C 0.99771 0.57479 0.2347 0.0
O268 O 0.95622 0.55504 0.23973 0.0
C269 C 0.9459 0.44733 0.22105 0.0
O270 O 0.96473 0.48889 0.21613 0.0
O271 O 0.94589 0.44064 0.23478 0.0
O272 O 0.02317 0.47284 0.26336 0.0
O273 O 0.94488 0.51023 0.26584 0.0
C274 C 0.94419 0.50284 0.27954 0.0
O275 O 0.96256 0.47964 0.28442 0.0
O276 O 0.02185 0.55712 0.23765 0.0
Mg277 Mg 0.49966 0.99293 0.58499 0.0
C278 C 0.47175 0.01573 0.5573 0.0
O279 O 0.47011 0.97723 0.5546 0.0
C280 C 0.5481 0.0063 0.61264 0.0
O281 O 0.51186 0.96635 0.61381 0.0
C282 C 0.40068 0.94913 0.59385 0.0
O283 O 0.39743 0.96423 0.58093 0.0
O284 O 0.43821 0.9532 0.59771 0.0
O285 O 0.48552 0.03391 0.56985 0.0
O286 O 0.52125 0.9549 0.57128 0.0
C287 C 0.5511 0.94503 0.57494 0.0
O288 O 0.56664 0.9529 0.58844 0.0
O289 O 0.55317 0.02916 0.60107 0.0
Mg290 Mg 0.50599 0.50528 0.91712 0.0
C291 C 0.40978 0.45738 0.90604 0.0
O292 O 0.40309 0.4365 0.91868 0.0
C293 C 0.55445 0.60233 0.92802 0.0
O294 O 0.56824 0.61018 0.91432 0.0
C295 C 0.49873 0.45026 0.94394 0.0
O296 O 0.52757 0.49061 0.94895 0.0
O297 O 0.48652 0.44597 0.93058 0.0
O298 O 0.44885 0.49002 0.9031 0.0
O299 O 0.5608 0.5216 0.90188 0.0
C300 C 0.60242 0.54375 0.90515 0.0
O301 O 0.61426 0.55375 0.91897 0.0
O302 O 0.52602 0.56228 0.93185 0.0
C303 C 0.95195 0.15626 0.14686 0.0
C304 C 0.95258 0.16105 0.1315 0.0
C305 C 0.94385 0.18423 0.15605 0.0
C306 C 0.95415 0.29593 0.15711 0.0
H307 H 0.87748 0.24998 0.19147 0.0
C308 C 0.93093 0.41629 0.19545 0.0
C309 C 0.9329 0.40958 0.21058 0.0
C310 C 0.92579 0.38321 0.18535 0.0
C311 C 0.89928 0.26345 0.18199 0.0
H312 H 0.94368 0.19834 0.11382 0.0
H313 H 0.9305 0.24768 0.12989 0.0
H314 H 0.88395 0.19761 0.17475 0.0
H315 H 0.9288 0.36187 0.22702 0.0
H316 H 0.92091 0.30475 0.20947 0.0
H317 H 0.97091 0.36175 0.16449 0.0
C318 C 0.93659 0.2224 0.13479 0.0
C319 C 0.9029 0.23339 0.1724 0.0
C320 C 0.94433 0.19421 0.12559 0.0
C321 C 0.92727 0.3681 0.21544 0.0
C322 C 0.92258 0.33519 0.20534 0.0
C323 C 0.95086 0.32599 0.16674 0.0
C324 C 0.93653 0.21791 0.15012 0.0
C325 C 0.93066 0.24936 0.15992 0.0
C326 C 0.92296 0.34279 0.19014 0.0
C327 C 0.92367 0.31023 0.17938 0.0
H328 H 0.95888 0.13167 0.15185 0.0
H329 H 0.94465 0.18036 0.16783 0.0
H330 H 0.97632 0.30935 0.1477 0.0
H331 H 0.93475 0.44771 0.19135 0.0
H332 H 0.9251 0.38982 0.17376 0.0
C333 C 0.8153 0.92827 0.48745 0.0
C334 C 0.81709 0.95133 0.47444 0.0
C335 C 0.78349 0.92078 0.49834 0.0
C336 C 0.67378 0.91215 0.50476 0.0
H337 H 0.71666 0.94976 0.54451 0.0
C338 C 0.56747 0.93845 0.54854 0.0
C339 C 0.57379 0.93275 0.56346 0.0
C340 C 0.59381 0.93364 0.53775 0.0
C341 C 0.70373 0.93806 0.53357 0.0
H342 H 0.78631 0.98456 0.46286 0.0
H343 H 0.73008 0.97011 0.48165 0.0
H344 H 0.76907 0.95469 0.52554 0.0
H345 H 0.61074 0.91462 0.57867 0.0
H346 H 0.65548 0.90442 0.55982 0.0
H347 H 0.60839 0.89503 0.5127 0.0
C348 C 0.75339 0.95783 0.48335 0.0
C349 C 0.73395 0.94118 0.52268 0.0
C350 C 0.78559 0.96593 0.47255 0.0
C351 C 0.6053 0.91961 0.56728 0.0
C352 C 0.63126 0.91419 0.55646 0.0
C353 C 0.64337 0.90838 0.51569 0.0
C354 C 0.75225 0.93551 0.4964 0.0
C355 C 0.71944 0.92898 0.50812 0.0
C356 C 0.62677 0.92236 0.54158 0.0
C357 C 0.65807 0.92207 0.53021 0.0
H358 H 0.83827 0.91565 0.48921 0.0
H359 H 0.78308 0.90312 0.50825 0.0
H360 H 0.6616 0.90196 0.49365 0.0
H361 H 0.54366 0.9488 0.54519 0.0
H362 H 0.5896 0.94083 0.52648 0.0
C363 C 0.88747 0.80584 0.81928 0.0
C364 C 0.86986 0.80956 0.80573 0.0
C365 C 0.85998 0.77328 0.82955 0.0
C366 C 0.7394 0.70047 0.8393 0.0
H367 H 0.78495 0.64182 0.86488 0.0
C368 C 0.62209 0.55959 0.87852 0.0
C369 C 0.63615 0.56533 0.89326 0.0
C370 C 0.65214 0.58534 0.86744 0.0
C371 C 0.77188 0.65808 0.85783 0.0
H372 H 0.80926 0.78112 0.79239 0.0
H373 H 0.76209 0.72337 0.80995 0.0
H374 H 0.83415 0.69447 0.8461 0.0
H375 H 0.69366 0.60071 0.90776 0.0
H376 H 0.7463 0.64549 0.88831 0.0
H377 H 0.67713 0.66389 0.85093 0.0
C378 C 0.79694 0.7463 0.81281 0.0
C379 C 0.80007 0.68838 0.8471 0.0
C380 C 0.82428 0.7791 0.8026 0.0
C381 C 0.6817 0.59549 0.89653 0.0
C382 C 0.7119 0.62109 0.8854 0.0
C383 C 0.71121 0.66992 0.84988 0.0
C384 C 0.81421 0.74332 0.82651 0.0
C385 C 0.78421 0.71011 0.83772 0.0
C386 C 0.69704 0.61722 0.8708 0.0
C387 C 0.72711 0.64846 0.85929 0.0
H388 H 0.92255 0.82819 0.822 0.0
H389 H 0.87445 0.77236 0.84002 0.0
H390 H 0.72621 0.71725 0.83255 0.0
H391 H 0.58736 0.53646 0.87557 0.0
H392 H 0.63992 0.5811 0.85626 0.0
C393 C 0.08343 0.85717 0.13764 0.0
C394 C 0.04322 0.85803 0.13548 0.0
C395 C 0.08659 0.83089 0.14885 0.0
C396 C 0.03929 0.78329 0.18466 0.0
H397 H 0.0717 0.69172 0.17676 0.0
C398 C 0.98596 0.63359 0.22289 0.0
C399 C 0.01341 0.61431 0.22488 0.0
C400 C 0.99771 0.66839 0.21287 0.0
C401 C 0.06356 0.71779 0.17924 0.0
H402 H 0.97508 0.83258 0.14341 0.0
H403 H 0.98082 0.78737 0.16309 0.0
H404 H 0.07704 0.74306 0.15714 0.0
H405 H 0.07558 0.6174 0.21813 0.0
H406 H 0.09662 0.67914 0.20057 0.0
H407 H 0.02562 0.75843 0.20665 0.0
C408 C 0.00974 0.8067 0.15606 0.0
C409 C 0.06644 0.747 0.16799 0.0
C410 C 0.00633 0.83223 0.14473 0.0
C411 C 0.05375 0.6316 0.21685 0.0
C412 C 0.06561 0.66671 0.20673 0.0
C413 C 0.03696 0.75462 0.19591 0.0
C414 C 0.0499 0.80589 0.15827 0.0
C415 C 0.05293 0.77903 0.1705 0.0
C416 C 0.03746 0.68527 0.20456 0.0
C417 C 0.04751 0.72043 0.19324 0.0
H418 H 0.11231 0.87669 0.13062 0.0
H419 H 0.11791 0.83079 0.15035 0.0
H420 H 0.02949 0.80828 0.18694 0.0
H421 H 0.95463 0.62118 0.22887 0.0
H422 H 0.97467 0.68106 0.21132 0.0
C423 C 0.22741 0.08932 0.47697 0.0
C424 C 0.20643 0.05126 0.46769 0.0
C425 C 0.26192 0.09525 0.48657 0.0
C426 C 0.34961 0.06577 0.49138 0.0
H427 H 0.3368 0.07474 0.53336 0.0
C428 C 0.43968 0.01297 0.53256 0.0
C429 C 0.4524 0.03352 0.54643 0.0
C430 C 0.41644 0.02502 0.52271 0.0
C431 C 0.3416 0.07338 0.52166 0.0
H432 H 0.20502 0.98901 0.46173 0.0
H433 H 0.26621 1.00058 0.47791 0.0
H434 H 0.28246 0.07735 0.51656 0.0
H435 H 0.45229 0.08439 0.56061 0.0
H436 H 0.41208 0.10623 0.54318 0.0
H437 H 0.40839 0.06164 0.49629 0.0
C438 C 0.25594 0.02582 0.47767 0.0
C439 C 0.31032 0.07467 0.51206 0.0
C440 C 0.22099 0.01942 0.46831 0.0
C441 C 0.44295 0.06793 0.55 0.0
C442 C 0.4196 0.08015 0.54006 0.0
C443 C 0.38118 0.06517 0.50091 0.0
C444 C 0.27673 0.06372 0.48688 0.0
C445 C 0.31327 0.06936 0.49688 0.0
C446 C 0.40543 0.05827 0.52637 0.0
C447 C 0.37668 0.06725 0.51622 0.0
H448 H 0.21767 0.11492 0.47671 0.0
H449 H 0.27755 0.12481 0.49356 0.0
H450 H 0.35297 0.06232 0.47969 0.0
H451 H 0.44641 0.98636 0.52941 0.0
H452 H 0.40549 0.00673 0.51243 0.0
C453 C 0.13767 0.19797 0.81851 0.0
C454 C 0.15085 0.20421 0.80369 0.0
C455 C 0.16323 0.2307 0.82901 0.0
C456 C 0.27834 0.32598 0.83537 0.0
H457 H 0.2224 0.34855 0.86889 0.0
C458 C 0.38532 0.45423 0.87991 0.0
C459 C 0.37505 0.43779 0.89437 0.0
C460 C 0.35545 0.43117 0.86843 0.0
C461 C 0.23848 0.34255 0.85959 0.0
H462 H 0.20038 0.25037 0.78818 0.0
H463 H 0.24474 0.3079 0.80646 0.0
H464 H 0.17524 0.29792 0.84939 0.0
H465 H 0.32396 0.38587 0.90822 0.0
H466 H 0.27189 0.34575 0.8882 0.0
H467 H 0.34151 0.3702 0.84564 0.0
C468 C 0.21514 0.27725 0.81004 0.0
C469 C 0.21149 0.31342 0.84844 0.0
C470 C 0.18971 0.24434 0.79955 0.0
C471 C 0.33301 0.39939 0.89721 0.0
C472 C 0.30304 0.37646 0.88573 0.0
C473 C 0.30527 0.35527 0.84647 0.0
C474 C 0.2025 0.27065 0.82494 0.0
C475 C 0.23107 0.30424 0.83628 0.0
C476 C 0.31453 0.39134 0.87116 0.0
C477 C 0.28568 0.36343 0.85881 0.0
H478 H 0.10826 0.16712 0.82209 0.0
H479 H 0.15286 0.22401 0.84039 0.0
H480 H 0.29465 0.31919 0.82633 0.0
H481 H 0.4173 0.48385 0.87733 0.0
H482 H 0.36492 0.44387 0.85735 0.0
C483 C 0.8059 0.00495 0.70008 0.0
C484 C 0.84908 0.04179 0.703 0.0
C485 C 0.77579 0.00989 0.69104 0.0
C486 C 0.76697 0.06993 0.66013 0.0
H487 H 0.64643 0.03007 0.67469 0.0
C488 C 0.62577 0.06064 0.62239 0.0
C489 C 0.58369 0.0212 0.62401 0.0
C490 C 0.66008 0.07163 0.63275 0.0
C491 C 0.67982 0.04108 0.67039 0.0
H492 H 0.89405 0.11293 0.69841 0.0
H493 H 0.84182 0.12064 0.68201 0.0
H494 H 0.7033 0.0319 0.69118 0.0
H495 H 0.54437 0.9631 0.63798 0.0
H496 H 0.60366 0.98143 0.65559 0.0
H497 H 0.74292 0.07652 0.6391 0.0
C498 C 0.83153 0.08819 0.68699 0.0
C499 C 0.71239 0.04235 0.67988 0.0
C500 C 0.86147 0.08355 0.69631 0.0
C501 C 0.57629 0.9938 0.63636 0.0
C502 C 0.61037 0.0046 0.6466 0.0
C503 C 0.73409 0.06795 0.65053 0.0
C504 C 0.7883 0.05147 0.68441 0.0
C505 C 0.75591 0.05576 0.67476 0.0
C506 C 0.65289 0.0434 0.64491 0.0
C507 C 0.68972 0.05227 0.65545 0.0
H508 H 0.79531 0.97192 0.70461 0.0
H509 H 0.74283 0.98087 0.68901 0.0
H510 H 0.80035 0.08029 0.65594 0.0
H511 H 0.63251 0.08246 0.613 0.0
H512 H 0.69228 0.10201 0.63117 0.0
C513 C 0.77434 0.83814 0.03205 0.0
C514 C 0.8188 0.86891 0.02771 0.0
C515 C 0.74165 0.81173 0.02163 0.0
C516 C 0.71404 0.80504 0.98228 0.0
H517 H 0.64231 0.67633 0.98916 0.0
C518 C 0.61728 0.67785 0.93595 0.0
C519 C 0.57736 0.63775 0.93935 0.0
C520 C 0.6425 0.70849 0.94702 0.0
C521 C 0.66129 0.7123 0.98715 0.0
H522 H 0.86347 0.89549 0.00888 0.0
H523 H 0.80626 0.85021 0.99078 0.0
H524 H 0.69421 0.72506 0.00803 0.0
H525 H 0.53123 0.59964 0.95692 0.0
H526 H 0.57444 0.65373 0.97616 0.0
H527 H 0.68124 0.79247 0.96141 0.0
C528 C 0.7967 0.84686 1.00225 0.0
C529 C 0.69121 0.7402 0.99797 0.0
C530 C 0.82948 0.87292 0.01266 0.0
C531 C 0.56202 0.63008 0.95395 0.0
C532 C 0.58704 0.66094 0.965 0.0
C533 C 0.68379 0.77721 0.9715 0.0
C534 C 0.75251 0.81578 0.00663 0.0
C535 C 0.7184 0.78676 0.99556 0.0
C536 C 0.62822 0.70001 0.96175 0.0
C537 C 0.65751 0.73034 0.97369 0.0
H538 H 0.7646 0.83463 0.0435 0.0
H539 H 0.70773 0.78834 0.02531 0.0
H540 H 0.73413 0.84093 0.9802 0.0
H541 H 0.6302 0.68473 0.92483 0.0
H542 H 0.67424 0.73785 0.94407 0.0
C543 C 0.95191 0.80142 0.35322 0.0
C544 C 0.95231 0.79755 0.3686 0.0
C545 C 0.94383 0.76514 0.34414 0.0
C546 C 0.95343 0.66334 0.34336 0.0
H547 H 0.87626 0.63211 0.30912 0.0
C548 C 0.92947 0.51904 0.30517 0.0
C549 C 0.93122 0.52756 0.29003 0.0
C550 C 0.9245 0.54711 0.31526 0.0
C551 C 0.89821 0.64058 0.31856 0.0
H552 H 0.94319 0.75167 0.38641 0.0
H553 H 0.93011 0.68881 0.37053 0.0
H554 H 0.8833 0.69146 0.32568 0.0
H555 H 0.92684 0.57101 0.27358 0.0
H556 H 0.91926 0.62041 0.29111 0.0
H557 H 0.9698 0.61391 0.33607 0.0
C558 C 0.93633 0.72011 0.36554 0.0
C559 C 0.90215 0.67455 0.32807 0.0
C560 C 0.94402 0.75625 0.37463 0.0
C561 C 0.9255 0.56336 0.28517 0.0
C562 C 0.92097 0.59169 0.29526 0.0
C563 C 0.94984 0.6297 0.3338 0.0
C564 C 0.93632 0.72422 0.35019 0.0
C565 C 0.93011 0.68655 0.3405 0.0
C566 C 0.9216 0.58466 0.31046 0.0
C567 C 0.92249 0.6181 0.32119 0.0
H568 H 0.95891 0.83284 0.34814 0.0
H569 H 0.94469 0.76956 0.33235 0.0
H570 H 0.97571 0.67223 0.35274 0.0
H571 H 0.93339 0.49151 0.30928 0.0
H572 H 0.924 0.53995 0.32686 0.0
C573 C 0.13057 0.95254 0.68055 0.0
C574 C 0.14247 0.95289 0.69533 0.0
C575 C 0.15393 0.94499 0.66936 0.0
C576 C 0.23269 0.9023 0.66177 0.0
H577 H 0.26273 0.97928 0.62754 0.0
C578 C 0.37083 0.92889 0.61957 0.0
C579 C 0.36407 0.93578 0.60478 0.0
C580 C 0.33939 0.92387 0.63031 0.0
C581 C 0.25402 0.95692 0.63689 0.0
H582 H 0.18777 0.94478 0.70997 0.0
H583 H 0.22902 0.93209 0.6904 0.0
H584 H 0.21688 0.98475 0.64689 0.0
H585 H 0.31738 0.93954 0.58956 0.0
H586 H 0.26238 0.93013 0.60823 0.0
H587 H 0.27086 0.87521 0.65179 0.0
C588 C 0.20114 0.93701 0.68747 0.0
C589 C 0.22769 0.96009 0.64802 0.0
C590 C 0.17759 0.94439 0.69869 0.0
C591 C 0.32388 0.93472 0.60086 0.0
C592 C 0.29247 0.92965 0.61158 0.0
C593 C 0.25918 0.89918 0.65061 0.0
C594 C 0.18996 0.93778 0.67265 0.0
C595 C 0.21681 0.93298 0.66064 0.0
C596 C 0.30049 0.92555 0.62649 0.0
C597 C 0.27029 0.9266 0.63805 0.0
H598 H 0.10305 0.95805 0.67762 0.0
H599 H 0.14377 0.94487 0.6581 0.0
H600 H 0.22449 0.88052 0.67125 0.0
H601 H 0.40141 0.9295 0.62298 0.0
H602 H 0.34676 0.92099 0.64169 0.0
C603 C 0.25627 0.19634 0.04023 0.0
C604 C 0.21626 0.16036 0.03454 0.0
C605 C 0.29152 0.22467 0.03088 0.0
C606 C 0.33566 0.23427 0.99295 0.0
H607 H 0.39252 0.36267 1.0006 0.0
C608 C 0.43801 0.37107 0.94952 0.0
C609 C 0.47487 0.41206 0.95428 0.0
C610 C 0.41121 0.33763 0.95965 0.0
C611 C 0.37764 0.32691 0.99842 0.0
H612 H 0.18213 0.12575 0.01453 0.0
H613 H 0.24345 0.17527 0.99821 0.0
H614 H 0.33658 0.3097 0.01767 0.0
H615 H 0.51417 0.44876 0.97332 0.0
H616 H 0.46782 0.39021 0.99095 0.0
H617 H 0.37619 0.25176 0.9735 0.0
C618 C 0.24792 0.18118 0.00994 0.0
C619 C 0.34547 0.29647 0.00823 0.0
C620 C 0.21271 0.15279 0.0193 0.0
C621 C 0.48582 0.41777 0.96929 0.0
C622 C 0.45906 0.38432 0.97942 0.0
C623 C 0.36787 0.26477 0.98312 0.0
C624 C 0.28757 0.21778 0.0156 0.0
C625 C 0.32374 0.24979 0.00555 0.0
C626 C 0.42071 0.34438 0.97477 0.0
C627 C 0.38895 0.3115 0.98568 0.0
H628 H 0.26038 0.20262 0.05195 0.0
H629 H 0.32188 0.25206 0.03563 0.0
H630 H 0.32004 0.1985 0.99067 0.0
H631 H 0.4286 0.36554 0.93803 0.0
H632 H 0.38178 0.30743 0.95569 0.0
C633 C 0.00894 0.17562 0.35331 0.0
C634 C 0.03792 0.18996 0.3655 0.0
C635 C 0.01413 0.20592 0.34221 0.0
C636 C 0.05651 0.32492 0.33442 0.0
H637 H 0.04839 0.28631 0.29393 0.0
C638 C 0.05348 0.43289 0.28571 0.0
C639 C 0.01926 0.40819 0.27542 0.0
C640 C 0.06496 0.41044 0.29625 0.0
C641 C 0.05062 0.29762 0.30518 0.0
H642 H 0.09468 0.2475 0.37574 0.0
H643 H 0.10337 0.3009 0.35632 0.0
H644 H 0.04949 0.23874 0.31361 0.0
H645 H 0.97169 0.34079 0.26771 0.0
H646 H 0.99121 0.30209 0.28593 0.0
H647 H 0.05565 0.38293 0.32601 0.0
C648 C 0.07683 0.26603 0.35538 0.0
C649 C 0.05128 0.27036 0.31644 0.0
C650 C 0.07199 0.23549 0.36643 0.0
C651 C 0.99814 0.3609 0.2755 0.0
C652 C 0.00964 0.33862 0.28591 0.0
C653 C 0.05547 0.35213 0.32313 0.0
C654 C 0.04817 0.2514 0.34309 0.0
C655 C 0.05302 0.28311 0.33119 0.0
C656 C 0.04268 0.36295 0.29657 0.0
C657 C 0.05121 0.33813 0.30839 0.0
H658 H 0.98268 0.14068 0.35221 0.0
H659 H 0.99118 0.19379 0.33296 0.0
H660 H 0.05778 0.33553 0.34571 0.0
H661 H 0.07028 0.46938 0.28594 0.0
H662 H 0.09081 0.43017 0.30424 0.0
loop_
_geom_bond_atom_site_label_1
_geom_bond_atom_site_label_2
_geom_bond_distance
_geom_bond_site_symmetry_2
_ccdc_geom_bond_type
Li0 N17 1.990 . S
Li0 O60 1.956 . S
Li0 O61 1.970 1_455 S
Li0 O62 1.961 1_545 S
Li1 N25 1.990 . S
Li1 O60 1.970 1_655 S
Li1 O61 1.956 . S
Li1 O63 1.961 1_545 S
Li2 N47 1.990 . S
Li2 O60 1.961 1_565 S
Li2 O62 1.956 . S
Li2 O63 1.970 1_455 S
Li3 N53 1.990 . S
Li3 O61 1.961 1_565 S
Li3 O62 1.970 1_655 S
Li3 O63 1.956 . S
C4 C6 1.348 . S
C4 C7 1.356 . S
C4 O60 1.325 . S
N5 C8 1.314 . S
N5 C9 1.279 . S
C6 C4 1.348 . S
C6 C8 1.353 . S
C6 H64 0.929 . S
C7 C4 1.356 . S
C7 C9 1.358 . S
C7 H65 0.930 . S
C8 N5 1.314 . S
C8 C6 1.353 . S
C8 H66 0.930 . S
C9 N5 1.279 . S
C9 C7 1.358 . S
C9 H67 0.930 . S
C10 C13 1.348 1_655 S
C10 C14 1.356 . S
C10 O61 1.325 . S
C11 N12 1.279 . S
C11 C14 1.358 . S
C11 H68 0.930 . S
N12 C11 1.279 . S
N12 C15 1.314 . S
C13 C10 1.348 1_455 S
C13 C15 1.353 1_455 S
C13 H69 0.929 . S
C14 C10 1.356 . S
C14 C11 1.358 . S
C14 H70 0.930 . S
C15 N12 1.314 . S
C15 C13 1.353 1_655 S
C15 H71 0.930 1_655 S
C16 N17 1.314 . S
C16 C21 1.353 . S
C16 H22 0.930 . S
N17 Li0 1.990 . S
N17 C16 1.314 . S
N17 C19 1.279 . S
C18 C19 1.358 . S
C18 C20 1.356 . S
C18 H72 0.930 . S
C19 N17 1.279 . S
C19 C18 1.358 . S
C19 H23 0.930 . S
C20 C18 1.356 . S
C20 C21 1.348 . S
C21 C16 1.353 . S
C21 C20 1.348 . S
C21 H73 0.929 . S
H22 C16 0.930 . S
H23 C19 0.930 . S
C24 N25 1.314 . S
C24 C26 1.353 . S
C24 H30 0.930 . S
N25 Li1 1.990 . S
N25 C24 1.314 . S
N25 C28 1.279 . S
C26 C24 1.353 . S
C26 C29 1.348 . S
C26 H74 0.929 . S
C27 C28 1.358 . S
C27 C29 1.356 . S
C27 H75 0.930 . S
C28 N25 1.279 . S
C28 C27 1.358 . S
C28 H31 0.930 . S
C29 C26 1.348 . S
C29 C27 1.356 . S
H30 C24 0.930 . S
H31 C28 0.930 . S
C32 C34 1.348 1_455 S
C32 C35 1.356 . S
C32 O62 1.325 . S
N33 C36 1.314 . S
N33 C37 1.279 . S
C34 C32 1.348 1_655 S
C34 C36 1.353 1_655 S
C34 H76 0.929 . S
C35 C32 1.356 . S
C35 C37 1.358 . S
C35 H77 0.930 . S
C36 N33 1.314 . S
C36 C34 1.353 1_455 S
C36 H78 0.930 1_455 S
C37 N33 1.279 . S
C37 C35 1.358 . S
C37 H79 0.930 . S
C38 C39 1.348 . S
C38 C40 1.356 . S
C38 O63 1.325 . S
C39 C38 1.348 . S
C39 C41 1.353 . S
C39 H80 0.929 . S
C40 C38 1.356 . S
C40 C42 1.358 . S
C40 H81 0.930 . S
C41 C39 1.353 . S
C41 N43 1.314 . S
C41 H82 0.930 . S
C42 C40 1.358 . S
C42 N43 1.279 . S
C42 H83 0.930 . S
N43 C41 1.314 . S
N43 C42 1.279 . S
C44 C46 1.353 . S
C44 N47 1.314 . S
C44 H50 0.930 . S
C45 N47 1.279 . S
C45 C48 1.358 . S
C45 H51 0.930 . S
C46 C44 1.353 . S
C46 C49 1.348 . S
C46 H84 0.929 . S
N47 Li2 1.990 . S
N47 C44 1.314 . S
N47 C45 1.279 . S
C48 C45 1.358 . S
C48 C49 1.356 . S
C48 H85 0.930 . S
C49 C46 1.348 . S
C49 C48 1.356 . S
H50 C44 0.930 . S
H51 C45 0.930 . S
C52 N53 1.314 . S
C52 C54 1.353 . S
C52 H58 0.930 . S
N53 Li3 1.990 . S
N53 C52 1.314 . S
N53 C56 1.279 . S
C54 C52 1.353 . S
C54 C57 1.348 . S
C54 H86 0.929 . S
C55 C56 1.358 . S
C55 C57 1.356 . S
C55 H87 0.930 . S
C56 N53 1.279 . S
C56 C55 1.358 . S
C56 H59 0.930 . S
C57 C54 1.348 . S
C57 C55 1.356 . S
H58 C52 0.930 . S
H59 C56 0.930 . S
O60 Li0 1.956 . S
O60 Li1 1.970 1_455 S
O60 Li2 1.961 1_545 S
O60 C4 1.325 . S
O61 Li0 1.970 1_655 S
O61 Li1 1.956 . S
O61 Li3 1.961 1_545 S
O61 C10 1.325 . S
O62 Li0 1.961 1_565 S
O62 Li2 1.956 . S
O62 Li3 1.970 1_455 S
O62 C32 1.325 . S
O63 Li1 1.961 1_565 S
O63 Li2 1.970 1_655 S
O63 Li3 1.956 . S
O63 C38 1.325 . S
H64 C6 0.929 . S
H65 C7 0.930 . S
H66 C8 0.930 . S
H67 C9 0.930 . S
H68 C11 0.930 . S
H69 C13 0.929 . S
H70 C14 0.930 . S
H71 C15 0.930 1_455 S
H72 C18 0.930 . S
H73 C21 0.929 . S
H74 C26 0.929 . S
H75 C27 0.930 . S
H76 C34 0.929 . S
H77 C35 0.930 . S
H78 C36 0.930 1_655 S
H79 C37 0.930 . S
H80 C39 0.929 . S
H81 C40 0.930 . S
H82 C41 0.930 . S
H83 C42 0.930 . S
H84 C46 0.929 . S
H85 C48 0.930 . S
H86 C54 0.929 . S
H87 C55 0.930 . S
Li88 N105 1.990 . S
Li88 O148 1.956 . S
Li88 O149 1.970 1_665 S
Li88 O150 1.961 . S
Li89 N113 1.990 . S
Li89 O148 1.970 1_445 S
Li89 O149 1.956 . S
Li89 O151 1.961 . S
Li90 N135 1.990 . S
Li90 O148 1.961 . S
Li90 O150 1.956 . S
Li90 O151 1.970 1_665 S
Li91 N141 1.990 . S
Li91 O149 1.961 . S
Li91 O150 1.970 1_445 S
Li91 O151 1.956 . S
C92 C94 1.348 1_655 S
C92 C95 1.356 . S
C92 O148 1.325 . S
N93 C96 1.314 . S
N93 C97 1.279 . S
C94 C92 1.348 1_455 S
C94 C96 1.353 1_455 S
C94 H152 0.929 . S
C95 C92 1.356 . S
C95 C97 1.358 . S
C95 H153 0.930 . S
C96 N93 1.314 . S
C96 C94 1.353 1_655 S
C96 H154 0.930 1_655 S
C97 N93 1.279 . S
C97 C95 1.358 . S
C97 H155 0.930 . S
C98 C101 1.348 1_545 S
C98 C102 1.356 . S
C98 O149 1.325 . S
C99 N100 1.279 . S
C99 C102 1.358 . S
C99 H156 0.930 . S
N100 C99 1.279 . S
N100 C103 1.314 . S
C101 C98 1.348 1_565 S
C101 C103 1.353 1_565 S
C101 H157 0.929 . S
C102 C98 1.356 . S
C102 C99 1.358 . S
C102 H158 0.930 . S
C103 N100 1.314 . S
C103 C101 1.353 1_545 S
C103 H159 0.930 1_545 S
C104 N105 1.314 . S
C104 C109 1.353 . S
C104 H110 0.930 . S
N105 Li88 1.990 . S
N105 C104 1.314 . S
N105 C107 1.279 . S
C106 C107 1.358 . S
C106 C108 1.356 . S
C106 H160 0.930 . S
C107 N105 1.279 . S
C107 C106 1.358 . S
C107 H111 0.930 . S
C108 C106 1.356 . S
C108 C109 1.348 . S
C109 C104 1.353 . S
C109 C108 1.348 . S
C109 H161 0.929 . S
H110 C104 0.930 . S
H111 C107 0.930 . S
C112 N113 1.314 . S
C112 C114 1.353 . S
C112 H118 0.930 . S
N113 Li89 1.990 . S
N113 C112 1.314 . S
N113 C116 1.279 . S
C114 C112 1.353 . S
C114 C117 1.348 . S
C114 H162 0.929 . S
C115 C116 1.358 . S
C115 C117 1.356 . S
C115 H163 0.930 . S
C116 N113 1.279 . S
C116 C115 1.358 . S
C116 H119 0.930 . S
C117 C114 1.348 . S
C117 C115 1.356 . S
H118 C112 0.930 . S
H119 C116 0.930 . S
C120 C122 1.348 1_565 S
C120 C123 1.356 . S
C120 O150 1.325 . S
N121 C124 1.314 . S
N121 C125 1.279 . S
C122 C120 1.348 1_545 S
C122 C124 1.353 1_545 S
C122 H164 0.929 . S
C123 C120 1.356 . S
C123 C125 1.358 . S
C123 H165 0.930 . S
C124 N121 1.314 . S
C124 C122 1.353 1_565 S
C124 H166 0.930 1_565 S
C125 N121 1.279 . S
C125 C123 1.358 . S
C125 H167 0.930 . S
C126 C127 1.348 1_455 S
C126 C128 1.356 . S
C126 O151 1.325 . S
C127 C126 1.348 1_655 S
C127 C129 1.353 1_655 S
C127 H168 0.929 . S
C128 C126 1.356 . S
C128 C130 1.358 . S
C128 H169 0.930 . S
C129 C127 1.353 1_455 S
C129 N131 1.314 . S
C129 H170 0.930 1_455 S
C130 C128 1.358 . S
C130 N131 1.279 . S
C130 H171 0.930 . S
N131 C129 1.314 . S
N131 C130 1.279 . S
C132 C134 1.353 . S
C132 N135 1.314 . S
C132 H138 0.930 . S
C133 N135 1.279 . S
C133 C136 1.358 . S
C133 H139 0.930 . S
C134 C132 1.353 . S
C134 C137 1.348 . S
C134 H172 0.929 . S
N135 Li90 1.990 . S
N135 C132 1.314 . S
N135 C133 1.279 . S
C136 C133 1.358 . S
C136 C137 1.356 . S
C136 H173 0.930 . S
C137 C134 1.348 . S
C137 C136 1.356 . S
H138 C132 0.930 . S
H139 C133 0.930 . S
C140 N141 1.314 . S
C140 C142 1.353 . S
C140 H146 0.930 . S
N141 Li91 1.990 . S
N141 C140 1.314 . S
N141 C144 1.279 . S
C142 C140 1.353 . S
C142 C145 1.348 . S
C142 H174 0.929 . S
C143 C144 1.358 . S
C143 C145 1.356 . S
C143 H175 0.930 . S
C144 N141 1.279 . S
C144 C143 1.358 . S
C144 H147 0.930 . S
C145 C142 1.348 . S
C145 C143 1.356 . S
H146 C140 0.930 . S
H147 C144 0.930 . S
O148 Li88 1.956 . S
O148 Li89 1.970 1_665 S
O148 Li90 1.961 . S
O148 C92 1.325 . S
O149 Li88 1.970 1_445 S
O149 Li89 1.956 . S
O149 Li91 1.961 . S
O149 C98 1.325 . S
O150 Li88 1.961 . S
O150 Li90 1.956 . S
O150 Li91 1.970 1_665 S
O150 C120 1.325 . S
O151 Li89 1.961 . S
O151 Li90 1.970 1_445 S
O151 Li91 1.956 . S
O151 C126 1.325 . S
H152 C94 0.929 . S
H153 C95 0.930 . S
H154 C96 0.930 1_455 S
H155 C97 0.930 . S
H156 C99 0.930 . S
H157 C101 0.929 . S
H158 C102 0.930 . S
H159 C103 0.930 1_565 S
H160 C106 0.930 . S
H161 C109 0.929 . S
H162 C114 0.929 . S
H163 C115 0.930 . S
H164 C122 0.929 . S
H165 C123 0.930 . S
H166 C124 0.930 1_545 S
H167 C125 0.930 . S
H168 C127 0.929 . S
H169 C128 0.930 . S
H170 C129 0.930 1_655 S
H171 C130 0.930 . S
H172 C134 0.929 . S
H173 C136 0.930 . S
H174 C142 0.929 . S
H175 C143 0.930 . S
Li176 N193 1.990 . S
Li176 O236 1.956 . S
Li176 O237 1.970 1_565 S
Li176 O238 1.961 1_455 S
Li177 N201 1.990 . S
Li177 O236 1.970 1_545 S
Li177 O237 1.956 . S
Li177 O239 1.961 1_455 S
Li178 N223 1.990 . S
Li178 O236 1.961 1_655 S
Li178 O238 1.956 . S
Li178 O239 1.970 1_565 S
Li179 N229 1.990 . S
Li179 O237 1.961 1_655 S
Li179 O238 1.970 1_545 S
Li179 O239 1.956 . S
C180 C182 1.348 1_565 S
C180 C183 1.356 . S
C180 O236 1.325 . S
N181 C184 1.314 . S
N181 C185 1.279 . S
C182 C180 1.348 1_545 S
C182 C184 1.353 1_545 S
C182 H240 0.929 . S
C183 C180 1.356 . S
C183 C185 1.358 . S
C183 H241 0.930 . S
C184 N181 1.314 . S
C184 C182 1.353 1_565 S
C184 H242 0.930 1_565 S
C185 N181 1.279 . S
C185 C183 1.358 . S
C185 H243 0.930 . S
C186 C189 1.348 . S
C186 C190 1.356 . S
C186 O237 1.325 . S
C187 N188 1.279 . S
C187 C190 1.358 . S
C187 H244 0.930 . S
N188 C187 1.279 . S
N188 C191 1.314 . S
C189 C186 1.348 . S
C189 C191 1.353 . S
C189 H245 0.929 . S
C190 C186 1.356 . S
C190 C187 1.358 . S
C190 H246 0.930 . S
C191 N188 1.314 . S
C191 C189 1.353 . S
C191 H247 0.930 . S
C192 N193 1.314 . S
C192 C197 1.353 . S
C192 H198 0.930 . S
N193 Li176 1.990 . S
N193 C192 1.314 . S
N193 C195 1.279 . S
C194 C195 1.358 . S
C194 C196 1.356 . S
C194 H248 0.930 . S
C195 N193 1.279 . S
C195 C194 1.358 . S
C195 H199 0.930 . S
C196 C194 1.356 . S
C196 C197 1.348 . S
C197 C192 1.353 . S
C197 C196 1.348 . S
C197 H249 0.929 . S
H198 C192 0.930 . S
H199 C195 0.930 . S
C200 N201 1.314 . S
C200 C202 1.353 . S
C200 H206 0.930 . S
N201 Li177 1.990 . S
N201 C200 1.314 . S
N201 C204 1.279 . S
C202 C200 1.353 . S
C202 C205 1.348 . S
C202 H250 0.929 . S
C203 C204 1.358 . S
C203 C205 1.356 . S
C203 H251 0.930 . S
C204 N201 1.279 . S
C204 C203 1.358 . S
C204 H207 0.930 . S
C205 C202 1.348 . S
C205 C203 1.356 . S
H206 C200 0.930 . S
H207 C204 0.930 . S
C208 C210 1.348 . S
C208 C211 1.356 . S
C208 O238 1.325 . S
N209 C212 1.314 . S
N209 C213 1.279 . S
C210 C208 1.348 . S
C210 C212 1.353 . S
C210 H252 0.929 . S
C211 C208 1.356 . S
C211 C213 1.358 . S
C211 H253 0.930 . S
C212 N209 1.314 . S
C212 C210 1.353 . S
C212 H254 0.930 . S
C213 N209 1.279 . S
C213 C211 1.358 . S
C213 H255 0.930 . S
C214 C215 1.348 1_545 S
C214 C216 1.356 . S
C214 O239 1.325 . S
C215 C214 1.348 1_565 S
C215 C217 1.353 1_565 S
C215 H256 0.929 . S
C216 C214 1.356 . S
C216 C218 1.358 . S
C216 H257 0.930 . S
C217 C215 1.353 1_545 S
C217 N219 1.314 . S
C217 H258 0.930 1_545 S
C218 C216 1.358 . S
C218 N219 1.279 . S
C218 H259 0.930 . S
N219 C217 1.314 . S
N219 C218 1.279 . S
C220 C222 1.353 . S
C220 N223 1.314 . S
C220 H226 0.930 . S
C221 N223 1.279 . S
C221 C224 1.358 . S
C221 H227 0.930 . S
C222 C220 1.353 . S
C222 C225 1.348 . S
C222 H260 0.929 . S
N223 Li178 1.990 . S
N223 C220 1.314 . S
N223 C221 1.279 . S
C224 C221 1.358 . S
C224 C225 1.356 . S
C224 H261 0.930 . S
C225 C222 1.348 . S
C225 C224 1.356 . S
H226 C220 0.930 . S
H227 C221 0.930 . S
C228 N229 1.314 . S
C228 C230 1.353 . S
C228 H234 0.930 . S
N229 Li179 1.990 . S
N229 C228 1.314 . S
N229 C232 1.279 . S
C230 C228 1.353 . S
C230 C233 1.348 . S
C230 H262 0.929 . S
C231 C232 1.358 . S
C231 C233 1.356 . S
C231 H263 0.930 . S
C232 N229 1.279 . S
C232 C231 1.358 . S
C232 H235 0.930 . S
C233 C230 1.348 . S
C233 C231 1.356 . S
H234 C228 0.930 . S
H235 C232 0.930 . S
O236 Li176 1.956 . S
O236 Li177 1.970 1_565 S
O236 Li178 1.961 1_455 S
O236 C180 1.325 . S
O237 Li176 1.970 1_545 S
O237 Li177 1.956 . S
O237 Li179 1.961 1_455 S
O237 C186 1.325 . S
O238 Li176 1.961 1_655 S
O238 Li178 1.956 . S
O238 Li179 1.970 1_565 S
O238 C208 1.325 . S
O239 Li177 1.961 1_655 S
O239 Li178 1.970 1_545 S
O239 Li179 1.956 . S
O239 C214 1.325 . S
H240 C182 0.929 . S
H241 C183 0.930 . S
H242 C184 0.930 1_545 S
H243 C185 0.930 . S
H244 C187 0.930 . S
H245 C189 0.929 . S
H246 C190 0.930 . S
H247 C191 0.930 . S
H248 C194 0.930 . S
H249 C197 0.929 . S
H250 C202 0.929 . S
H251 C203 0.930 . S
H252 C210 0.929 . S
H253 C211 0.930 . S
H254 C212 0.930 . S
H255 C213 0.930 . S
H256 C215 0.929 . S
H257 C216 0.930 . S
H258 C217 0.930 1_565 S
H259 C218 0.930 . S
H260 C222 0.929 . S
H261 C224 0.930 . S
H262 C230 0.929 . S
H263 C231 0.930 . S
Mg264 O271 2.141 . S
Mg264 O272 2.048 . S
Mg264 O273 2.048 . S
Mg264 O276 2.141 . S
C265 O266 1.313 . S
C265 O272 1.195 1_655 S
O266 C265 1.313 . S
C267 O268 1.245 . S
C267 O276 1.289 1_655 S
O268 C267 1.245 . S
C269 O270 1.245 . S
C269 O271 1.289 1_655 S
O270 C269 1.245 . S
O271 Mg264 2.141 . S
O271 C269 1.289 1_455 S
O272 Mg264 2.048 . S
O272 C265 1.195 1_455 S
O273 Mg264 2.048 . S
O273 C274 1.195 1_455 S
C274 O273 1.195 1_655 S
C274 O275 1.313 . S
O275 C274 1.313 . S
O276 Mg264 2.141 . S
O276 C267 1.289 1_455 S
Mg277 O284 2.141 . S
Mg277 O285 2.048 . S
Mg277 O286 2.048 . S
Mg277 O289 2.141 . S
C278 O279 1.313 . S
C278 O285 1.195 1_565 S
O279 C278 1.313 . S
C280 O281 1.245 . S
C280 O289 1.289 1_565 S
O281 C280 1.245 . S
C282 O283 1.245 . S
C282 O284 1.289 1_565 S
O283 C282 1.245 . S
O284 Mg277 2.141 . S
O284 C282 1.289 1_545 S
O285 Mg277 2.048 . S
O285 C278 1.195 1_545 S
O286 Mg277 2.048 . S
O286 C287 1.195 1_545 S
C287 O286 1.195 1_565 S
C287 O288 1.313 . S
O288 C287 1.313 . S
O289 Mg277 2.141 . S
O289 C280 1.289 1_545 S
Mg290 O297 2.141 . S
Mg290 O298 2.048 . S
Mg290 O299 2.048 . S
Mg290 O302 2.141 . S
C291 O292 1.313 . S
C291 O298 1.195 . S
O292 C291 1.313 . S
C293 O294 1.245 . S
C293 O302 1.289 . S
O294 C293 1.245 . S
C295 O296 1.245 . S
C295 O297 1.289 . S
O296 C295 1.245 . S
O297 Mg290 2.141 . S
O297 C295 1.289 . S
O298 Mg290 2.048 . S
O298 C291 1.195 . S
O299 Mg290 2.048 . S
O299 C300 1.195 . S
C300 O299 1.195 . S
C300 O301 1.313 . S
O301 C300 1.313 . S
O302 Mg290 2.141 . S
O302 C293 1.289 . S
C303 C304 1.349 . S
C303 C305 1.327 . S
C303 H328 0.950 . S
C304 C303 1.349 . S
C304 C320 1.349 . S
C305 C303 1.327 . S
C305 C324 1.429 . S
C305 H329 0.950 . S
C306 C323 1.574 . S
C306 C325 1.368 . S
C306 H330 0.949 . S
H307 C311 0.949 . S
C308 C309 1.349 . S
C308 C310 1.327 . S
C308 H331 0.950 . S
C309 C308 1.349 . S
C309 C321 1.349 . S
C310 C308 1.327 . S
C310 C326 1.429 . S
C310 H332 0.950 . S
C311 H307 0.949 . S
C311 C319 1.574 . S
C311 C327 1.368 . S
H312 C320 0.950 . S
H313 C318 0.950 . S
H314 C319 0.949 . S
H315 C321 0.950 1_455 S
H316 C322 0.950 . S
H317 C323 0.949 . S
C318 H313 0.950 . S
C318 C320 1.327 . S
C318 C324 1.429 . S
C319 C311 1.574 . S
C319 H314 0.949 . S
C319 C325 1.368 . S
C320 C304 1.349 . S
C320 H312 0.950 . S
C320 C318 1.327 . S
C321 C309 1.349 . S
C321 H315 0.950 1_655 S
C321 C322 1.327 . S
C322 H316 0.950 . S
C322 C321 1.327 . S
C322 C326 1.429 . S
C323 C306 1.574 . S
C323 H317 0.949 . S
C323 C327 1.368 . S
C324 C305 1.429 . S
C324 C318 1.429 . S
C324 C325 1.523 . S
C325 C306 1.368 . S
C325 C319 1.368 . S
C325 C324 1.523 . S
C326 C310 1.429 . S
C326 C322 1.429 . S
C326 C327 1.523 . S
C327 C311 1.368 . S
C327 C323 1.368 . S
C327 C326 1.523 . S
H328 C303 0.950 . S
H329 C305 0.950 . S
H330 C306 0.949 . S
H331 C308 0.950 . S
H332 C310 0.950 . S
C333 C334 1.349 . S
C333 C335 1.327 . S
C333 H358 0.950 . S
C334 C333 1.349 . S
C334 C350 1.349 . S
C335 C333 1.327 . S
C335 C354 1.429 . S
C335 H359 0.950 . S
C336 C353 1.574 1_565 S
C336 C355 1.368 . S
C336 H360 0.949 1_565 S
H337 C341 0.949 . S
C338 C339 1.349 1_545 S
C338 C340 1.327 . S
C338 H361 0.950 . S
C339 C338 1.349 1_565 S
C339 C351 1.349 . S
C340 C338 1.327 . S
C340 C356 1.429 1_545 S
C340 H362 0.950 . S
C341 H337 0.949 . S
C341 C349 1.574 . S
C341 C357 1.368 . S
H342 C350 0.950 . S
H343 C348 0.950 1_545 S
H344 C349 0.949 . S
H345 C351 0.950 . S
H346 C352 0.950 . S
H347 C353 0.949 . S
C348 H343 0.950 1_565 S
C348 C350 1.327 . S
C348 C354 1.429 . S
C349 C341 1.574 . S
C349 H344 0.949 . S
C349 C355 1.368 . S
C350 C334 1.349 . S
C350 H342 0.950 . S
C350 C348 1.327 . S
C351 C339 1.349 . S
C351 H345 0.950 . S
C351 C352 1.327 . S
C352 H346 0.950 . S
C352 C351 1.327 . S
C352 C356 1.429 . S
C353 C336 1.574 1_545 S
C353 H347 0.949 . S
C353 C357 1.368 1_545 S
C354 C335 1.429 . S
C354 C348 1.429 . S
C354 C355 1.523 . S
C355 C336 1.368 . S
C355 C349 1.368 . S
C355 C354 1.523 . S
C356 C340 1.429 1_565 S
C356 C352 1.429 . S
C356 C357 1.523 . S
C357 C341 1.368 . S
C357 C353 1.368 1_565 S
C357 C356 1.523 . S
H358 C333 0.950 . S
H359 C335 0.950 . S
H360 C336 0.949 1_545 S
H361 C338 0.950 . S
H362 C340 0.950 . S
C363 C364 1.349 . S
C363 C365 1.327 . S
C363 H388 0.950 . S
C364 C363 1.349 . S
C364 C380 1.349 . S
C365 C363 1.327 . S
C365 C384 1.429 . S
C365 H389 0.950 . S
C366 C383 1.574 . S
C366 C385 1.368 . S
C366 H390 0.949 . S
H367 C371 0.949 . S
C368 C369 1.349 . S
C368 C370 1.327 . S
C368 H391 0.950 . S
C369 C368 1.349 . S
C369 C381 1.349 . S
C370 C368 1.327 . S
C370 C386 1.429 . S
C370 H392 0.950 . S
C371 H367 0.949 . S
C371 C379 1.574 . S
C371 C387 1.368 . S
H372 C380 0.950 . S
H373 C378 0.950 . S
H374 C379 0.949 . S
H375 C381 0.950 . S
H376 C382 0.950 . S
H377 C383 0.949 . S
C378 H373 0.950 . S
C378 C380 1.327 . S
C378 C384 1.429 . S
C379 C371 1.574 . S
C379 H374 0.949 . S
C379 C385 1.368 . S
C380 C364 1.349 . S
C380 H372 0.950 . S
C380 C378 1.327 . S
C381 C369 1.349 . S
C381 H375 0.950 . S
C381 C382 1.327 . S
C382 H376 0.950 . S
C382 C381 1.327 . S
C382 C386 1.429 . S
C383 C366 1.574 . S
C383 H377 0.949 . S
C383 C387 1.368 . S
C384 C365 1.429 . S
C384 C378 1.429 . S
C384 C385 1.523 . S
C385 C366 1.368 . S
C385 C379 1.368 . S
C385 C384 1.523 . S
C386 C370 1.429 . S
C386 C382 1.429 . S
C386 C387 1.523 . S
C387 C371 1.368 . S
C387 C383 1.368 . S
C387 C386 1.523 . S
H388 C363 0.950 . S
H389 C365 0.950 . S
H390 C366 0.949 . S
H391 C368 0.950 . S
H392 C370 0.950 . S
C393 C394 1.349 . S
C393 C395 1.327 . S
C393 H418 0.950 . S
C394 C393 1.349 . S
C394 C410 1.349 . S
C395 C393 1.327 . S
C395 C414 1.429 . S
C395 H419 0.950 . S
C396 C413 1.574 . S
C396 C415 1.368 1_655 S
C396 H420 0.949 . S
H397 C401 0.949 . S
C398 C399 1.349 1_655 S
C398 C400 1.327 . S
C398 H421 0.950 . S
C399 C398 1.349 1_455 S
C399 C411 1.349 . S
C400 C398 1.327 . S
C400 C416 1.429 1_655 S
C400 H422 0.950 . S
C401 H397 0.949 . S
C401 C409 1.574 . S
C401 C417 1.368 . S
H402 C410 0.950 1_655 S
H403 C408 0.953 . S
H404 C409 0.949 . S
H405 C411 0.950 . S
H406 C412 0.950 . S
H407 C413 0.949 . S
C408 H403 0.953 . S
C408 C410 1.328 1_655 S
C408 C414 1.424 1_655 S
C409 C401 1.574 . S
C409 H404 0.949 . S
C409 C415 1.368 . S
C410 C394 1.349 . S
C410 H402 0.950 1_455 S
C410 C408 1.328 1_455 S
C411 C399 1.349 . S
C411 H405 0.950 . S
C411 C412 1.327 . S
C412 H406 0.950 . S
C412 C411 1.327 . S
C412 C416 1.429 . S
C413 C396 1.574 . S
C413 H407 0.949 . S
C413 C417 1.368 1_655 S
C414 C395 1.429 . S
C414 C408 1.424 1_455 S
C414 C415 1.523 . S
C415 C396 1.368 1_455 S
C415 C409 1.368 . S
C415 C414 1.523 . S
C416 C400 1.429 1_455 S
C416 C412 1.429 . S
C416 C417 1.523 . S
C417 C401 1.368 . S
C417 C413 1.368 1_455 S
C417 C416 1.523 . S
H418 C393 0.950 . S
H419 C395 0.950 . S
H420 C396 0.949 . S
H421 C398 0.950 . S
H422 C400 0.950 . S
C423 C424 1.349 . S
C423 C425 1.327 . S
C423 H448 0.950 . S
C424 C423 1.349 . S
C424 C440 1.349 . S
C425 C423 1.327 . S
C425 C444 1.429 . S
C425 H449 0.950 . S
C426 C443 1.574 . S
C426 C445 1.368 1_565 S
C426 H450 0.949 . S
H427 C431 0.949 . S
C428 C429 1.349 1_565 S
C428 C430 1.327 . S
C428 H451 0.950 . S
C429 C428 1.349 1_545 S
C429 C441 1.349 . S
C430 C428 1.327 . S
C430 C446 1.429 1_565 S
C430 H452 0.950 . S
C431 H427 0.949 . S
C431 C439 1.574 . S
C431 C447 1.368 . S
H432 C440 0.950 1_565 S
H433 C438 0.950 1_565 S
H434 C439 0.949 . S
H435 C441 0.950 . S
H436 C442 0.950 . S
H437 C443 0.949 . S
C438 H433 0.950 1_545 S
C438 C440 1.327 . S
C438 C444 1.429 . S
C439 C431 1.574 . S
C439 H434 0.949 . S
C439 C445 1.368 . S
C440 C424 1.349 . S
C440 H432 0.950 1_545 S
C440 C438 1.327 . S
C441 C429 1.349 . S
C441 H435 0.950 . S
C441 C442 1.327 . S
C442 H436 0.950 . S
C442 C441 1.327 . S
C442 C446 1.429 . S
C443 C426 1.574 . S
C443 H437 0.949 . S
C443 C447 1.368 1_565 S
C444 C425 1.429 . S
C444 C438 1.429 . S
C444 C445 1.523 . S
C445 C426 1.368 1_545 S
C445 C439 1.368 . S
C445 C444 1.523 . S
C446 C430 1.429 1_545 S
C446 C442 1.429 . S
C446 C447 1.523 . S
C447 C431 1.368 . S
C447 C443 1.368 1_545 S
C447 C446 1.523 . S
H448 C423 0.950 . S
H449 C425 0.950 . S
H450 C426 0.949 . S
H451 C428 0.950 . S
H452 C430 0.950 . S
C453 C454 1.349 . S
C453 C455 1.327 . S
C453 H478 0.950 . S
C454 C453 1.349 . S
C454 C470 1.349 . S
C455 C453 1.327 . S
C455 C474 1.429 . S
C455 H479 0.950 . S
C456 C473 1.574 . S
C456 C475 1.368 . S
C456 H480 0.949 . S
H457 C461 0.949 . S
C458 C459 1.349 . S
C458 C460 1.327 . S
C458 H481 0.950 . S
C459 C458 1.349 . S
C459 C471 1.349 . S
C460 C458 1.327 . S
C460 C476 1.429 . S
C460 H482 0.950 . S
C461 H457 0.949 . S
C461 C469 1.574 . S
C461 C477 1.368 . S
H462 C470 0.950 . S
H463 C468 0.950 . S
H464 C469 0.949 . S
H465 C471 0.950 . S
H466 C472 0.950 . S
H467 C473 0.949 . S
C468 H463 0.950 . S
C468 C470 1.327 . S
C468 C474 1.429 . S
C469 C461 1.574 . S
C469 H464 0.949 . S
C469 C475 1.368 . S
C470 C454 1.349 . S
C470 H462 0.950 . S
C470 C468 1.327 . S
C471 C459 1.349 . S
C471 H465 0.950 . S
C471 C472 1.327 . S
C472 H466 0.950 . S
C472 C471 1.327 . S
C472 C476 1.429 . S
C473 C456 1.574 . S
C473 H467 0.949 . S
C473 C477 1.368 . S
C474 C455 1.429 . S
C474 C468 1.429 . S
C474 C475 1.523 . S
C475 C456 1.368 . S
C475 C469 1.368 . S
C475 C474 1.523 . S
C476 C460 1.429 . S
C476 C472 1.429 . S
C476 C477 1.523 . S
C477 C461 1.368 . S
C477 C473 1.368 . S
C477 C476 1.523 . S
H478 C453 0.950 . S
H479 C455 0.950 . S
H480 C456 0.949 . S
H481 C458 0.950 . S
H482 C460 0.950 . S
C483 C484 1.349 . S
C483 C485 1.327 . S
C483 H508 0.950 1_545 S
C484 C483 1.349 . S
C484 C500 1.349 . S
C485 C483 1.327 . S
C485 C504 1.429 . S
C485 H509 0.950 1_545 S
C486 C503 1.574 . S
C486 C505 1.368 . S
C486 H510 0.949 . S
H487 C491 0.949 . S
C488 C489 1.349 . S
C488 C490 1.327 . S
C488 H511 0.950 . S
C489 C488 1.349 . S
C489 C501 1.349 1_545 S
C490 C488 1.327 . S
C490 C506 1.429 . S
C490 H512 0.950 . S
C491 H487 0.949 . S
C491 C499 1.574 . S
C491 C507 1.368 1_565 S
H492 C500 0.950 . S
H493 C498 0.950 . S
H494 C499 0.949 . S
H495 C501 0.950 . S
H496 C502 0.950 . S
H497 C503 0.949 . S
C498 H493 0.950 . S
C498 C500 1.327 . S
C498 C504 1.429 . S
C499 C491 1.574 . S
C499 H494 0.949 . S
C499 C505 1.368 1_565 S
C500 C484 1.349 . S
C500 H492 0.950 . S
C500 C498 1.327 . S
C501 C489 1.349 1_565 S
C501 H495 0.950 . S
C501 C502 1.327 . S
C502 H496 0.950 . S
C502 C501 1.327 . S
C502 C506 1.429 1_565 S
C503 C486 1.574 . S
C503 H497 0.949 . S
C503 C507 1.368 . S
C504 C485 1.429 . S
C504 C498 1.429 . S
C504 C505 1.523 . S
C505 C486 1.368 . S
C505 C499 1.368 1_545 S
C505 C504 1.523 . S
C506 C490 1.429 . S
C506 C502 1.429 1_545 S
C506 C507 1.523 . S
C507 C491 1.368 1_545 S
C507 C503 1.368 . S
C507 C506 1.523 . S
H508 C483 0.950 1_565 S
H509 C485 0.950 1_565 S
H510 C486 0.949 . S
H511 C488 0.950 . S
H512 C490 0.950 . S
C513 C514 1.349 . S
C513 C515 1.327 . S
C513 H538 0.950 . S
C514 C513 1.349 . S
C514 C530 1.349 . S
C515 C513 1.327 . S
C515 C534 1.429 . S
C515 H539 0.950 . S
C516 C533 1.574 . S
C516 C535 1.368 . S
C516 H540 0.949 . S
H517 C521 0.949 . S
C518 C519 1.349 . S
C518 C520 1.327 . S
C518 H541 0.950 . S
C519 C518 1.349 . S
C519 C531 1.349 . S
C520 C518 1.327 . S
C520 C536 1.429 . S
C520 H542 0.950 . S
C521 H517 0.949 . S
C521 C529 1.574 1_556 S
C521 C537 1.368 . S
H522 C530 0.950 . S
H523 C528 0.950 1_556 S
H524 C529 0.949 . S
H525 C531 0.950 . S
H526 C532 0.950 . S
H527 C533 0.949 . S
C528 H523 0.950 1_554 S
C528 C530 1.327 . S
C528 C534 1.429 . S
C529 C521 1.574 1_554 S
C529 H524 0.949 . S
C529 C535 1.368 1_554 S
C530 C514 1.349 . S
C530 H522 0.950 . S
C530 C528 1.327 . S
C531 C519 1.349 . S
C531 H525 0.950 . S
C531 C532 1.327 . S
C532 H526 0.950 . S
C532 C531 1.327 . S
C532 C536 1.429 . S
C533 C516 1.574 . S
C533 H527 0.949 . S
C533 C537 1.368 . S
C534 C515 1.429 . S
C534 C528 1.429 . S
C534 C535 1.523 1_554 S
C535 C516 1.368 . S
C535 C529 1.368 1_556 S
C535 C534 1.523 1_556 S
C536 C520 1.429 . S
C536 C532 1.429 . S
C536 C537 1.523 . S
C537 C521 1.368 . S
C537 C533 1.368 . S
C537 C536 1.523 . S
H538 C513 0.950 . S
H539 C515 0.950 . S
H540 C516 0.949 . S
H541 C518 0.950 . S
H542 C520 0.950 . S
C543 C544 1.349 . S
C543 C545 1.327 . S
C543 H568 0.950 . S
C544 C543 1.349 . S
C544 C560 1.349 . S
C545 C543 1.327 . S
C545 C564 1.429 . S
C545 H569 0.950 1_655 S
C546 C563 1.574 . S
C546 C565 1.368 . S
C546 H570 0.949 . S
H547 C551 0.949 . S
C548 C549 1.349 . S
C548 C550 1.327 . S
C548 H571 0.950 . S
C549 C548 1.349 . S
C549 C561 1.349 1_655 S
C550 C548 1.327 . S
C550 C566 1.429 . S
C550 H572 0.950 . S
C551 H547 0.949 . S
C551 C559 1.579 . S
C551 C567 1.368 1_455 S
H552 C560 0.950 . S
H553 C558 0.950 . S
H554 C559 0.949 . S
H555 C561 0.950 . S
H556 C562 0.950 . S
H557 C563 0.949 . S
C558 H553 0.950 . S
C558 C560 1.327 . S
C558 C564 1.429 . S
C559 C551 1.579 . S
C559 H554 0.949 . S
C559 C565 1.363 1_455 S
C560 C544 1.349 . S
C560 H552 0.950 . S
C560 C558 1.327 . S
C561 C549 1.349 1_455 S
C561 H555 0.950 . S
C561 C562 1.327 . S
C562 H556 0.950 . S
C562 C561 1.327 . S
C562 C566 1.429 1_455 S
C563 C546 1.574 . S
C563 H557 0.949 . S
C563 C567 1.368 . S
C564 C545 1.429 . S
C564 C558 1.429 . S
C564 C565 1.523 . S
C565 C546 1.368 . S
C565 C559 1.363 1_655 S
C565 C564 1.523 . S
C566 C550 1.429 . S
C566 C562 1.429 1_655 S
C566 C567 1.523 . S
C567 C551 1.368 1_655 S
C567 C563 1.368 . S
C567 C566 1.523 . S
H568 C543 0.950 . S
H569 C545 0.950 1_455 S
H570 C546 0.949 . S
H571 C548 0.950 . S
H572 C550 0.950 . S
C573 C574 1.349 . S
C573 C575 1.327 . S
C573 H598 0.950 . S
C574 C573 1.349 . S
C574 C590 1.349 . S
C575 C573 1.327 . S
C575 C594 1.429 . S
C575 H599 0.950 . S
C576 C593 1.574 . S
C576 C595 1.368 1_545 S
C576 H600 0.949 . S
H577 C581 0.949 . S
C578 C579 1.349 1_545 S
C578 C580 1.327 . S
C578 H601 0.950 . S
C579 C578 1.349 1_565 S
C579 C591 1.349 . S
C580 C578 1.327 . S
C580 C596 1.429 1_545 S
C580 H602 0.950 . S
C581 H577 0.949 . S
C581 C589 1.574 . S
C581 C597 1.368 . S
H582 C590 0.936 1_545 S
H583 C588 0.950 1_545 S
H584 C589 0.949 . S
H585 C591 0.950 . S
H586 C592 0.950 . S
H587 C593 0.949 . S
C588 H583 0.950 1_565 S
C588 C590 1.327 . S
C588 C594 1.429 . S
C589 C581 1.574 . S
C589 H584 0.949 . S
C589 C595 1.368 . S
C590 C574 1.349 . S
C590 H582 0.936 1_565 S
C590 C588 1.327 . S
C591 C579 1.349 . S
C591 H585 0.950 . S
C591 C592 1.327 . S
C592 H586 0.950 . S
C592 C591 1.327 . S
C592 C596 1.429 . S
C593 C576 1.574 . S
C593 H587 0.949 . S
C593 C597 1.368 1_545 S
C594 C575 1.429 . S
C594 C588 1.429 . S
C594 C595 1.523 . S
C595 C576 1.368 1_565 S
C595 C589 1.368 . S
C595 C594 1.523 . S
C596 C580 1.429 1_565 S
C596 C592 1.429 . S
C596 C597 1.523 . S
C597 C581 1.368 . S
C597 C593 1.368 1_565 S
C597 C596 1.523 . S
H598 C573 0.950 . S
H599 C575 0.950 . S
H600 C576 0.949 . S
H601 C578 0.950 . S
H602 C580 0.950 . S
C603 C604 1.349 . S
C603 C605 1.327 . S
C603 H628 0.950 . S
C604 C603 1.349 . S
C604 C620 1.349 . S
C605 C603 1.327 . S
C605 C624 1.429 . S
C605 H629 0.950 . S
C606 C623 1.574 . S
C606 C625 1.368 . S
C606 H630 0.949 . S
H607 C611 0.949 . S
C608 C609 1.349 . S
C608 C610 1.327 . S
C608 H631 0.950 . S
C609 C608 1.349 . S
C609 C621 1.349 . S
C610 C608 1.327 . S
C610 C626 1.429 . S
C610 H632 0.950 . S
C611 H607 0.949 . S
C611 C619 1.574 1_556 S
C611 C627 1.368 . S
H612 C620 0.950 . S
H613 C618 0.950 1_556 S
H614 C619 0.949 . S
H615 C621 0.950 . S
H616 C622 0.950 . S
H617 C623 0.949 . S
C618 H613 0.950 1_554 S
C618 C620 1.327 . S
C618 C624 1.429 . S
C619 C611 1.574 1_554 S
C619 H614 0.949 . S
C619 C625 1.368 1_554 S
C620 C604 1.349 . S
C620 H612 0.950 . S
C620 C618 1.327 . S
C621 C609 1.349 . S
C621 H615 0.950 . S
C621 C622 1.327 . S
C622 H616 0.950 . S
C622 C621 1.327 . S
C622 C626 1.429 . S
C623 C606 1.574 . S
C623 H617 0.949 . S
C623 C627 1.368 . S
C624 C605 1.429 . S
C624 C618 1.429 . S
C624 C625 1.523 1_554 S
C625 C606 1.368 . S
C625 C619 1.368 1_556 S
C625 C624 1.523 1_556 S
C626 C610 1.429 . S
C626 C622 1.429 . S
C626 C627 1.523 . S
C627 C611 1.368 . S
C627 C623 1.368 . S
C627 C626 1.523 . S
H628 C603 0.950 . S
H629 C605 0.950 . S
H630 C606 0.949 . S
H631 C608 0.950 . S
H632 C610 0.950 . S
C633 C634 1.349 . S
C633 C635 1.329 . S
C633 H658 0.950 1_455 S
C634 C633 1.349 . S
C634 C650 1.349 . S
C635 C633 1.329 . S
C635 C654 1.430 . S
C635 H659 0.947 1_455 S
C636 C653 1.574 . S
C636 C655 1.368 . S
C636 H660 0.949 . S
H637 C641 0.949 . S
C638 C639 1.349 . S
C638 C640 1.327 . S
C638 H661 0.950 . S
C639 C638 1.349 . S
C639 C651 1.349 1_455 S
C640 C638 1.327 . S
C640 C656 1.429 . S
C640 H662 0.950 . S
C641 H637 0.949 . S
C641 C649 1.574 . S
C641 C657 1.368 1_655 S
H642 C650 0.950 . S
H643 C648 0.950 . S
H644 C649 0.949 . S
H645 C651 0.950 . S
H646 C652 0.950 . S
H647 C653 0.949 . S
C648 H643 0.950 . S
C648 C650 1.327 . S
C648 C654 1.429 . S
C649 C641 1.574 . S
C649 H644 0.949 . S
C649 C655 1.368 1_655 S
C650 C634 1.349 . S
C650 H642 0.950 . S
C650 C648 1.327 . S
C651 C639 1.349 1_655 S
C651 H645 0.950 . S
C651 C652 1.327 . S
C652 H646 0.950 . S
C652 C651 1.327 . S
C652 C656 1.429 1_655 S
C653 C636 1.574 . S
C653 H647 0.949 . S
C653 C657 1.368 . S
C654 C635 1.430 . S
C654 C648 1.429 . S
C654 C655 1.523 . S
C655 C636 1.368 . S
C655 C649 1.368 1_455 S
C655 C654 1.523 . S
C656 C640 1.429 . S
C656 C652 1.429 1_455 S
C656 C657 1.523 . S
C657 C641 1.368 1_455 S
C657 C653 1.368 . S
C657 C656 1.523 . S
H658 C633 0.950 1_655 S
H659 C635 0.947 1_655 S
H660 C636 0.949 . S
H661 C638 0.950 . S
H662 C640 0.950 . S
C309 C269 1.323 . S
C304 C29 1.325 . S
C334 C137 1.409 . S
C339 C287 1.413 . S
C364 C225 1.414 . S
C369 C300 1.418 . S
C394 C49 1.327 . S
C399 C267 1.345 1_455 S
C429 C278 1.426 1_545 S
C424 C117 1.406 . S
C454 C205 1.414 . S
C459 C291 1.428 . S
C489 C280 1.336 1_545 S
C484 C233 1.324 . S
C514 C57 1.326 . S
C519 C293 1.343 . S
C549 C274 1.410 . S
C544 C108 1.410 . S
C579 C282 1.317 . S
C574 C196 1.319 . S
C609 C295 1.322 . S
C604 C20 1.324 . S
C634 C145 1.408 . S
C639 C265 1.422 1_455 S
