# Generated by pormake.
# Topology pyr, (3,6)-cn, num edge types: 1
# Building blocks:
#     Node 0, Type 0, BuildingBlock: OLANEW_clean_sbu_2, # of connection points: 3
#     Node 1, Type 0, BuildingBlock: OLANEW_clean_sbu_2, # of connection points: 3
#     Node 2, Type 0, BuildingBlock: OLANEW_clean_sbu_2, # of connection points: 3
#     Node 3, Type 0, BuildingBlock: OLANEW_clean_sbu_2, # of connection points: 3
#     Node 4, Type 0, BuildingBlock: OLANEW_clean_sbu_2, # of connection points: 3
#     Node 5, Type 0, BuildingBlock: OLANEW_clean_sbu_2, # of connection points: 3
#     Node 6, Type 0, BuildingBlock: OLANEW_clean_sbu_2, # of connection points: 3
#     Node 7, Type 0, BuildingBlock: OLANEW_clean_sbu_2, # of connection points: 3
#     Node 8, Type 1, BuildingBlock: BETDAH_clean_sbu_0, # of connection points: 6
#     Node 9, Type 1, BuildingBlock: BETDAH_clean_sbu_0, # of connection points: 6
#     Node 10, Type 1, BuildingBlock: BETDAH_clean_sbu_0, # of connection points: 6
#     Node 11, Type 1, BuildingBlock: BETDAH_clean_sbu_0, # of connection points: 6
#     Edge 12, Type (0, 1), BuildingBlock: XIVTED_clean_linker_0, # of connection points: 2
#     Edge 13, Type (0, 1), BuildingBlock: XIVTED_clean_linker_0, # of connection points: 2
#     Edge 14, Type (0, 1), BuildingBlock: XIVTED_clean_linker_0, # of connection points: 2
#     Edge 15, Type (0, 1), BuildingBlock: XIVTED_clean_linker_0, # of connection points: 2
#     Edge 16, Type (0, 1), BuildingBlock: XIVTED_clean_linker_0, # of connection points: 2
#     Edge 17, Type (0, 1), BuildingBlock: XIVTED_clean_linker_0, # of connection points: 2
#     Edge 18, Type (0, 1), BuildingBlock: XIVTED_clean_linker_0, # of connection points: 2
#     Edge 19, Type (0, 1), BuildingBlock: XIVTED_clean_linker_0, # of connection points: 2
#     Edge 20, Type (0, 1), BuildingBlock: XIVTED_clean_linker_0, # of connection points: 2
#     Edge 21, Type (0, 1), BuildingBlock: XIVTED_clean_linker_0, # of connection points: 2
#     Edge 22, Type (0, 1), BuildingBlock: XIVTED_clean_linker_0, # of connection points: 2
#     Edge 23, Type (0, 1), BuildingBlock: XIVTED_clean_linker_0, # of connection points: 2
#     Edge 24, Type (0, 1), BuildingBlock: XIVTED_clean_linker_0, # of connection points: 2
#     Edge 25, Type (0, 1), BuildingBlock: XIVTED_clean_linker_0, # of connection points: 2
#     Edge 26, Type (0, 1), BuildingBlock: XIVTED_clean_linker_0, # of connection points: 2
#     Edge 27, Type (0, 1), BuildingBlock: XIVTED_clean_linker_0, # of connection points: 2
#     Edge 28, Type (0, 1), BuildingBlock: XIVTED_clean_linker_0, # of connection points: 2
#     Edge 29, Type (0, 1), BuildingBlock: XIVTED_clean_linker_0, # of connection points: 2
#     Edge 30, Type (0, 1), BuildingBlock: XIVTED_clean_linker_0, # of connection points: 2
#     Edge 31, Type (0, 1), BuildingBlock: XIVTED_clean_linker_0, # of connection points: 2
#     Edge 32, Type (0, 1), BuildingBlock: XIVTED_clean_linker_0, # of connection points: 2
#     Edge 33, Type (0, 1), BuildingBlock: XIVTED_clean_linker_0, # of connection points: 2
#     Edge 34, Type (0, 1), BuildingBlock: XIVTED_clean_linker_0, # of connection points: 2
#     Edge 35, Type (0, 1), BuildingBlock: XIVTED_clean_linker_0, # of connection points: 2
# Relax obj value: 0.126
# Max RMSD: 0.167
# Mean RMSD: 0.121
data_MOF--net-pyr--node1-OLANEW_clean_sbu_2--node2-BETDAH_clean_sbu_0--edge1-XIVTED_clean_linker_0
_symmetry_space_group_name_H-M    P1
_symmetry_Int_Tables_number       1
_symmetry_cell_setting            triclinic
loop_
_symmetry_equiv_pos_as_xyz
'x, y, z'
_cell_length_a     41.481235
_cell_length_b     44.250894
_cell_length_c     38.893139
_cell_angle_alpha  94.250799
_cell_angle_beta   88.900326
_cell_angle_gamma 104.17438
loop_
_atom_site_label
_atom_site_type_symbol
_atom_site_fract_x
_atom_site_fract_y
_atom_site_fract_z
_atom_type_partial_charge
O0 O 0.40052 0.30816 0.17344 0.0
Cd1 Cd 0.38392 0.35776 0.1838 0.0
O2 O 0.35948 0.28572 0.20608 0.0
Cd3 Cd 0.32918 0.25017 0.23711 0.0
O4 O 0.28911 0.22518 0.26904 0.0
C5 C 0.26163 0.233 0.26843 0.0
O6 O 0.25887 0.25504 0.24863 0.0
C7 C 0.385 0.28408 0.18812 0.0
C8 C 0.32491 0.36425 0.1549 0.0
O9 O 0.35271 0.37215 0.13894 0.0
O10 O 0.32478 0.35206 0.18382 0.0
O11 O 0.30982 0.93659 0.70599 0.0
Cd12 Cd 0.29027 0.92762 0.64631 0.0
O13 O 0.27532 0.89437 0.72353 0.0
Cd14 Cd 0.24447 0.89071 0.67834 0.0
O15 O 0.21024 0.90565 0.64581 0.0
C16 C 0.21346 0.93493 0.64537 0.0
O17 O 0.23741 0.95409 0.66344 0.0
C18 C 0.30005 0.91758 0.72923 0.0
C19 C 0.31591 0.87894 0.61789 0.0
O20 O 0.28645 0.87367 0.63043 0.0
O21 O 0.33257 0.90739 0.61716 0.0
O22 O 0.71223 0.42357 0.88138 0.0
Cd23 Cd 0.65699 0.40613 0.85218 0.0
O24 O 0.71043 0.38541 0.91627 0.0
Cd25 Cd 0.66264 0.34951 0.91368 0.0
O26 O 0.62971 0.30666 0.93352 0.0
C27 C 0.64334 0.28761 0.94725 0.0
O28 O 0.67597 0.29385 0.94819 0.0
C29 C 0.72574 0.41106 0.90403 0.0
C30 C 0.63906 0.44273 0.80188 0.0
O31 O 0.63334 0.44766 0.83407 0.0
O32 O 0.65438 0.42139 0.79334 0.0
O33 O 0.88736 0.77307 0.31912 0.0
Cd34 Cd 0.85825 0.7306 0.27811 0.0
O35 O 0.85572 0.74868 0.35901 0.0
Cd36 Cd 0.82949 0.74169 0.40822 0.0
O37 O 0.79048 0.72197 0.44445 0.0
C38 C 0.76643 0.701 0.43128 0.0
O39 O 0.76712 0.69308 0.39808 0.0
C40 C 0.87753 0.7725 0.3503 0.0
C41 C 0.89425 0.69471 0.2387 0.0
O42 O 0.89197 0.72134 0.22951 0.0
O43 O 0.88071 0.68562 0.26729 0.0
O44 O 0.68912 0.75599 0.80454 0.0
Cd45 Cd 0.65706 0.7141 0.8377 0.0
O46 O 0.67915 0.79236 0.84156 0.0
Cd47 Cd 0.67924 0.83928 0.86414 0.0
O48 O 0.66399 0.87708 0.89459 0.0
C49 C 0.6329 0.8744 0.89802 0.0
O50 O 0.6123 0.85 0.88261 0.0
C51 C 0.69368 0.78475 0.81434 0.0
C52 C 0.70289 0.68762 0.86798 0.0
O53 O 0.69139 0.67785 0.83775 0.0
O54 O 0.69178 0.70916 0.88441 0.0
O55 O 0.64698 0.13416 0.52794 0.0
Cd56 Cd 0.66579 0.13819 0.58721 0.0
O57 O 0.68107 0.18005 0.52369 0.0
Cd58 Cd 0.70702 0.22052 0.49672 0.0
O59 O 0.7111 0.26749 0.48124 0.0
C60 C 0.72201 0.29046 0.50295 0.0
O61 O 0.73324 0.28519 0.53273 0.0
C62 C 0.66031 0.15653 0.50969 0.0
C63 C 0.72174 0.11423 0.58435 0.0
O64 O 0.69276 0.09672 0.58952 0.0
O65 O 0.72444 0.14348 0.58199 0.0
O66 O 0.41239 0.7967 0.25556 0.0
Cd67 Cd 0.39774 0.74023 0.2678 0.0
O68 O 0.37339 0.79519 0.2167 0.0
Cd69 Cd 0.34138 0.74718 0.21321 0.0
O70 O 0.29619 0.71616 0.18882 0.0
C71 C 0.29221 0.6874 0.17887 0.0
O72 O 0.31612 0.67354 0.1841 0.0
C73 C 0.39887 0.81025 0.23397 0.0
C74 C 0.41381 0.71808 0.33052 0.0
O75 O 0.43644 0.72868 0.30857 0.0
O76 O 0.38401 0.71926 0.32391 0.0
O77 O 0.16951 0.41805 0.7737 0.0
Cd78 Cd 0.19351 0.38955 0.72757 0.0
O79 O 0.12933 0.37768 0.78671 0.0
Cd80 Cd 0.13847 0.34311 0.74671 0.0
O81 O 0.12622 0.29955 0.71338 0.0
C82 C 0.1191 0.27354 0.72719 0.0
O83 O 0.12083 0.27358 0.76089 0.0
C84 C 0.1446 0.40628 0.79221 0.0
C85 C 0.24937 0.42706 0.69671 0.0
O86 O 0.22027 0.42304 0.68387 0.0
O87 O 0.25205 0.41358 0.72419 0.0
Ho88 Ho 0.98542 0.03729 0.51765 0.0
Ho89 Ho 0.97058 1.00326 0.58278 0.0
C90 C 0.01239 0.07576 0.58657 0.0
C91 C 0.98842 0.06287 0.45967 0.0
C92 C 0.01473 0.08549 0.44297 0.0
C93 C 0.01182 0.0905 0.40817 0.0
C94 C 0.03839 0.10933 0.39108 0.0
C95 C 0.06835 0.12324 0.40855 0.0
C96 C 0.07072 0.11883 0.44377 0.0
C97 C 0.04412 0.10011 0.46084 0.0
C98 C 0.03655 1.01719 0.54173 0.0
C99 C 0.94751 0.9641 0.51287 0.0
C100 C 0.96562 0.97831 0.64132 0.0
C101 C 0.93796 0.95722 0.65819 0.0
C102 C 0.93931 0.95353 0.69354 0.0
C103 C 0.9118 0.93568 0.71031 0.0
C104 C 0.88243 0.92134 0.69197 0.0
C105 C 0.88147 0.92485 0.65635 0.0
C106 C 0.90898 0.94261 0.63964 0.0
C107 C 0.91863 1.02211 0.55823 0.0
O108 O 0.00129 0.07812 0.55562 0.0
O109 O 0.00802 0.0483 0.59984 0.0
O110 O 0.99502 0.03585 0.46292 0.0
O111 O 0.97551 0.07335 0.48767 0.0
O112 O 0.04044 0.04297 0.52668 0.0
O113 O 0.00652 1.00283 0.54125 0.0
O114 O 0.95812 0.96213 0.54422 0.0
O115 O 0.94986 0.99152 0.50022 0.0
O116 O 0.96116 1.00608 0.63757 0.0
O117 O 0.97777 0.9666 0.61357 0.0
O118 O 0.91618 0.99617 0.57247 0.0
O119 O 0.94848 0.03754 0.55908 0.0
H120 H 0.98937 0.07913 0.39397 0.0
H121 H 0.03591 0.112 0.36387 0.0
H122 H 0.0933 0.12956 0.45803 0.0
H123 H 0.04677 0.0964 0.48776 0.0
H124 H 0.96144 0.96483 0.70827 0.0
H125 H 0.91355 0.9331 0.73764 0.0
H126 H 0.85917 0.91453 0.6415 0.0
H127 H 0.9074 0.94547 0.61236 0.0
Ho128 Ho 0.54646 0.07262 0.12156 0.0
Ho129 Ho 0.47962 0.04519 0.09121 0.0
C130 C 0.48325 0.09964 0.14758 0.0
C131 C 0.60044 0.10803 0.14841 0.0
C132 C 0.60987 0.12067 0.18387 0.0
C133 C 0.58771 0.13255 0.2056 0.0
C134 C 0.59533 0.14072 0.24042 0.0
C135 C 0.62497 0.13674 0.25417 0.0
C136 C 0.64759 0.1259 0.23209 0.0
C137 C 0.64012 0.11803 0.19721 0.0
C138 C 0.51228 1.02051 0.15125 0.0
C139 C 0.54324 1.02186 0.05982 0.0
C140 C 0.42513 1.00845 0.06713 0.0
C141 C 0.41538 0.99224 0.03338 0.0
C142 C 0.38199 0.97752 0.02673 0.0
C143 C 0.37204 0.96466 0.9936 0.0
C144 C 0.39543 0.96644 0.96666 0.0
C145 C 0.42912 0.98031 0.97386 0.0
C146 C 0.439 0.9932 1.00695 0.0
C147 C 0.51439 0.09707 0.06134 0.0
O148 O 0.51573 0.1056 0.14255 0.0
O149 O 0.46367 0.07297 0.13558 0.0
O150 O 0.59526 0.07775 0.14332 0.0
O151 O 0.57808 0.11884 0.13341 0.0
O152 O 0.54407 0.02812 0.14687 0.0
O153 O 0.50003 0.04217 0.14218 0.0
O154 O 0.51085 1.01455 0.06566 0.0
O155 O 0.56254 0.04763 0.07457 0.0
O156 O 0.43143 0.03887 0.06783 0.0
O157 O 0.44727 0.99877 0.08386 0.0
O158 O 0.48243 0.08986 0.06518 0.0
O159 O 0.52594 0.07524 0.07077 0.0
H160 H 0.56401 0.1345 0.19604 0.0
H161 H 0.57731 0.14873 0.25692 0.0
H162 H 0.67075 0.12287 0.24199 0.0
H163 H 0.65747 0.10882 0.1809 0.0
H164 H 0.36347 0.97678 0.0469 0.0
H165 H 0.34586 0.95449 0.9888 0.0
H166 H 0.44777 0.9817 0.95377 0.0
H167 H 0.46492 1.00463 1.0117 0.0
Ho168 Ho 0.51452 0.55142 0.54356 0.0
Ho169 Ho 0.504 0.59891 0.60087 0.0
C170 C 0.54083 0.54831 0.62223 0.0
C171 C 0.5392 0.51695 0.49903 0.0
C172 C 0.5648 0.49916 0.49806 0.0
C173 C 0.58302 0.49698 0.46767 0.0
C174 C 0.60713 0.47976 0.46584 0.0
C175 C 0.6134 0.46437 0.49442 0.0
C176 C 0.59552 0.46721 0.52514 0.0
C177 C 0.57145 0.48451 0.52696 0.0
C178 C 0.45445 0.53779 0.57432 0.0
C179 C 0.4804 0.60425 0.52136 0.0
C180 C 0.47661 0.63386 0.64168 0.0
C181 C 0.45866 0.65772 0.63516 0.0
C182 C 0.43542 0.65279 0.60821 0.0
C183 C 0.41963 0.67611 0.60124 0.0
C184 C 0.42698 0.70487 0.62088 0.0
C185 C 0.45025 0.70977 0.64781 0.0
C186 C 0.4659 0.68634 0.65492 0.0
C187 C 0.56379 0.61277 0.56999 0.0
O188 O 0.54427 0.54171 0.58862 0.0
O189 O 0.52252 0.56751 0.63384 0.0
O190 O 0.51248 0.50628 0.51719 0.0
O191 O 0.55013 0.54728 0.50331 0.0
O192 O 0.45904 0.53189 0.54165 0.0
O193 O 0.482 0.54905 0.58907 0.0
O194 O 0.4803 0.61371 0.55455 0.0
O195 O 0.49377 0.58116 0.51009 0.0
O196 O 0.50838 0.64103 0.63438 0.0
O197 O 0.46181 0.60502 0.6314 0.0
O198 O 0.55945 0.61941 0.60262 0.0
O199 O 0.53618 0.60114 0.55556 0.0
H200 H 0.57841 0.50845 0.44524 0.0
H201 H 0.62078 0.47841 0.44198 0.0
H202 H 0.59941 0.45533 0.5475 0.0
H203 H 0.55773 0.48606 0.55072 0.0
H204 H 0.4296 0.63102 0.59229 0.0
H205 H 0.40207 0.67183 0.58011 0.0
H206 H 0.4561 0.73161 0.66361 0.0
H207 H 0.48386 0.69063 0.67569 0.0
Ho208 Ho 0.02091 0.51413 0.03897 0.0
Ho209 Ho 0.01835 0.57469 1.00689 0.0
C210 C 0.08248 0.57669 0.05055 0.0
C211 C 0.03799 0.4649 0.05652 0.0
C212 C 0.06868 0.45554 0.06509 0.0
C213 C 0.0925 0.45228 0.03974 0.0
C214 C 0.12039 0.44175 0.048 0.0
C215 C 0.12518 0.43424 0.08178 0.0
C216 C 0.10148 0.4379 0.10713 0.0
C217 C 0.07353 0.44827 0.09883 0.0
C218 C 0.98816 0.55089 0.07645 0.0
C219 C 0.95489 0.51374 0.99854 0.0
C220 C 0.00086 0.62241 0.98613 0.0
C221 C 0.96888 0.62758 0.97547 0.0
C222 C 0.93925 0.61482 0.99295 0.0
C223 C 0.90895 0.61906 0.98177 0.0
C224 C 0.9077 0.63578 0.9527 0.0
C225 C 0.93737 0.64839 0.93519 0.0
C226 C 0.9677 0.64439 0.94656 0.0
C227 C 0.05203 0.53817 0.97043 0.0
O228 O 0.07278 0.54566 0.04876 0.0
O229 O 0.06363 0.59389 0.03905 0.0
O230 O 0.0282 0.48456 0.07867 0.0
O231 O 0.03425 0.47071 0.02453 0.0
O232 O 0.97967 0.52055 0.07538 0.0
O233 O 0.01449 0.55986 0.0595 0.0
O234 O 0.96606 0.54449 0.99894 0.0
O235 O 0.97312 0.49583 1.00986 0.0
O236 O 0.01304 0.60327 0.96552 0.0
O237 O 0.00363 0.61785 0.01868 0.0
O238 O 0.06089 0.56849 0.97243 0.0
O239 O 0.02505 0.52902 0.98633 0.0
H240 H 0.08946 0.45745 1.01338 0.0
H241 H 0.13783 0.43885 0.02768 0.0
H242 H 0.10455 0.43287 0.13353 0.0
H243 H 0.05552 0.4504 0.11884 0.0
H244 H 0.93944 0.60134 1.01506 0.0
H245 H 0.88643 0.6088 0.99551 0.0
H246 H 0.93714 0.66162 0.91288 0.0
H247 H 0.99025 0.65426 0.93264 0.0
H248 H 0.19883 0.2424 0.27046 0.0
H249 H 0.13332 0.12062 0.41352 0.0
H250 H 0.25963 0.18904 0.3151 0.0
H251 H 0.06979 0.16583 0.36035 0.0
H252 H 0.18075 0.14828 0.38062 0.0
H253 H 0.1521 0.217 0.3057 0.0
C254 C 0.20239 0.22535 0.28768 0.0
C255 C 0.2332 0.21778 0.28975 0.0
C256 C 0.15647 0.15222 0.37619 0.0
C257 C 0.17975 0.18865 0.33027 0.0
C258 C 0.1294 0.13662 0.39516 0.0
C259 C 0.09752 0.14094 0.38969 0.0
C260 C 0.1517 0.1724 0.3516 0.0
C261 C 0.09386 0.16156 0.36513 0.0
C262 C 0.17566 0.21084 0.3078 0.0
C263 C 0.23631 0.19553 0.31258 0.0
N264 N 0.12062 0.17652 0.347 0.0
N265 N 0.20992 0.18176 0.33196 0.0
H266 H 0.35411 0.96417 0.75002 0.0
H267 H 0.34863 0.91371 0.94376 0.0
H268 H 0.28457 0.88289 0.78543 0.0
H269 H 0.41661 0.99568 0.90793 0.0
H270 H 0.3275 0.89969 0.88497 0.0
H271 H 0.38008 0.97373 0.8068 0.0
C272 C 0.34436 0.94826 0.76969 0.0
C273 C 0.31695 0.92282 0.76302 0.0
C274 C 0.34722 0.92061 0.88995 0.0
C275 C 0.34658 0.93367 0.82816 0.0
C276 C 0.3592 0.92868 0.9235 0.0
C277 C 0.38433 0.95597 0.9308 0.0
C278 C 0.36036 0.94006 0.86353 0.0
C279 C 0.39747 0.97426 0.90347 0.0
C280 C 0.35923 0.95372 0.80213 0.0
C281 C 0.30553 0.90289 0.78947 0.0
N282 N 0.38518 0.96608 0.87112 0.0
N283 N 0.32029 0.90884 0.82094 0.0
H284 H 0.60514 0.48874 0.81202 0.0
H285 H 0.58047 0.50654 0.61045 0.0
H286 H 0.6449 0.43629 0.73108 0.0
H287 H 0.539 0.55604 0.69287 0.0
H288 H 0.60593 0.48187 0.65356 0.0
H289 H 0.5828 0.515 0.76835 0.0
C290 C 0.60937 0.48282 0.78506 0.0
C291 C 0.62699 0.46016 0.77537 0.0
C292 C 0.59129 0.49817 0.66219 0.0
C293 C 0.60112 0.49024 0.72483 0.0
C294 C 0.57668 0.51229 0.63753 0.0
C295 C 0.55733 0.53342 0.64784 0.0
C296 C 0.58664 0.5052 0.69755 0.0
C297 C 0.55356 0.53992 0.68346 0.0
C298 C 0.5965 0.49783 0.76005 0.0
C299 C 0.63153 0.45357 0.73988 0.0
N300 N 0.56797 0.52591 0.70685 0.0
N301 N 0.61864 0.46843 0.71598 0.0
H302 H 0.93448 0.71046 0.18285 0.0
H303 H 0.93634 0.53472 0.12147 0.0
H304 H 0.88993 0.63227 0.24231 0.0
H305 H 0.00789 0.61446 0.086 0.0
H306 H 0.91435 0.56989 0.16206 0.0
H307 H 0.9575 0.67545 0.1433 0.0
C308 C 0.92969 0.68597 0.18771 0.0
C309 C 0.9103 0.67429 0.21598 0.0
C310 C 0.93482 0.57966 0.14531 0.0
C311 C 0.93613 0.63403 0.17051 0.0
C312 C 0.94726 0.55963 0.12208 0.0
C313 C 0.97378 0.57175 0.10018 0.0
C314 C 0.94878 0.61203 0.14633 0.0
C315 C 0.98712 0.60419 0.10209 0.0
C316 C 0.94284 0.66601 0.16513 0.0
C317 C 0.90488 0.64231 0.22095 0.0
N318 N 0.97439 0.62322 0.12465 0.0
N319 N 0.91749 0.62325 0.19829 0.0
H320 H 0.35052 0.22236 0.18951 0.0
H321 H 0.51568 0.15905 0.17063 0.0
H322 H 0.44951 0.28125 0.1809 0.0
H323 H 0.41707 0.09897 0.15642 0.0
H324 H 0.49123 0.20329 0.18429 0.0
H325 H 0.37392 0.17638 0.18594 0.0
C326 C 0.37717 0.22567 0.18742 0.0
C327 C 0.39812 0.25572 0.1859 0.0
C328 C 0.47489 0.18038 0.1785 0.0
C329 C 0.42503 0.20327 0.18145 0.0
C330 C 0.48885 0.15499 0.17091 0.0
C331 C 0.46845 0.12519 0.16203 0.0
C332 C 0.44023 0.17607 0.17731 0.0
C333 C 0.43381 0.12152 0.16295 0.0
C334 C 0.3905 0.1994 0.1851 0.0
C335 C 0.43242 0.25852 0.18208 0.0
N336 N 0.42079 0.14671 0.17014 0.0
N337 N 0.44477 0.2327 0.18008 0.0
H338 H 0.21693 0.99571 0.63313 0.0
H339 H 0.03151 0.95911 0.56273 0.0
H340 H 0.15469 0.90223 0.61593 0.0
H341 H 0.102 0.04733 0.55115 0.0
H342 H 0.0757 0.93872 0.58559 0.0
H343 H 0.17468 1.01598 0.60586 0.0
C344 C 0.19447 0.97944 0.62346 0.0
C345 C 0.18923 0.94725 0.62693 0.0
C346 C 0.0816 0.96249 0.57789 0.0
C347 C 0.14081 0.97029 0.59603 0.0
C348 C 0.05638 0.97416 0.56499 0.0
C349 C 0.06328 1.00489 0.55508 0.0
C350 C 0.11386 0.98182 0.58129 0.0
C351 C 0.09583 0.02344 0.55847 0.0
C352 C 0.17042 0.99102 0.60786 0.0
C353 C 0.15975 0.92723 0.61383 0.0
N354 N 0.11999 1.01166 0.57151 0.0
N355 N 0.13652 0.93911 0.5992 0.0
H356 H 0.76527 0.38645 0.94384 0.0
H357 H 0.91262 0.54188 0.96642 0.0
H358 H 0.7645 0.47039 0.89429 0.0
H359 H 0.91962 0.4523 0.99824 0.0
H360 H 0.85741 0.5174 0.94268 0.0
H361 H 0.82051 0.41135 0.96641 0.0
C362 C 0.77666 0.41017 0.93763 0.0
C363 C 0.75994 0.42628 0.91703 0.0
C364 C 0.87104 0.5031 0.95482 0.0
C365 C 0.82375 0.45517 0.94322 0.0
C366 C 0.9026 0.51707 0.96853 0.0
C367 C 0.921 0.49917 0.98446 0.0
C368 C 0.85747 0.47096 0.95721 0.0
C369 C 0.90654 0.4671 0.98622 0.0
C370 C 0.80837 0.42437 0.95055 0.0
C371 C 0.77633 0.45697 0.90993 0.0
N372 N 0.8757 0.45411 0.97289 0.0
N373 N 0.80721 0.47044 0.92312 0.0
H374 H 0.70973 0.65876 0.40935 0.0
H375 H 0.62519 0.6425 0.59611 0.0
H376 H 0.75746 0.70942 0.5013 0.0
H377 H 0.57311 0.60887 0.50056 0.0
H378 H 0.67601 0.66279 0.56312 0.0
H379 H 0.66161 0.63556 0.44379 0.0
C380 C 0.71016 0.66497 0.43683 0.0
C381 C 0.73764 0.68622 0.45242 0.0
C382 C 0.65347 0.6508 0.54945 0.0
C383 C 0.68242 0.65963 0.49212 0.0
C384 C 0.62455 0.6392 0.56823 0.0
C385 C 0.59503 0.62385 0.55099 0.0
C386 C 0.65276 0.64685 0.51326 0.0
C387 C 0.59543 0.62022 0.51489 0.0
C388 C 0.6826 0.65173 0.4565 0.0
C389 C 0.73674 0.69326 0.48819 0.0
N390 N 0.62381 0.63162 0.49725 0.0
N391 N 0.70953 0.68001 0.50687 0.0
H392 H 0.26137 0.34685 0.18009 0.0
H393 H 0.18944 0.45229 0.05778 0.0
H394 H 0.3188 0.3974 0.09957 0.0
H395 H 0.12806 0.38898 0.12567 0.0
H396 H 0.23714 0.43277 0.07295 0.0
H397 H 0.21229 0.36214 0.16073 0.0
C398 C 0.26362 0.36096 0.15816 0.0
C399 C 0.29432 0.37092 0.14151 0.0
C400 C 0.2132 0.42307 0.08444 0.0
C401 C 0.23822 0.38883 0.11941 0.0
C402 C 0.18585 0.43412 0.07567 0.0
C403 C 0.15453 0.4224 0.09051 0.0
C404 C 0.20939 0.4002 0.1084 0.0
C405 C 0.15174 0.3992 0.11401 0.0
C406 C 0.23557 0.36971 0.14713 0.0
C407 C 0.29568 0.38916 0.1132 0.0
N408 N 0.17877 0.38898 0.12228 0.0
N409 N 0.26813 0.39772 0.10323 0.0
H410 H 0.57514 0.26836 0.95464 0.0
H411 H 0.58153 0.11434 0.04945 0.0
H412 H 0.66583 0.24192 0.97585 0.0
H413 H 0.49096 0.14296 0.03442 0.0
H414 H 0.61258 0.16031 0.02108 0.0
H415 H 0.54353 0.22192 0.98201 0.0
C416 C 0.58842 0.2528 0.96493 0.0
C417 C 0.62327 0.2592 0.96289 0.0
C418 C 0.58591 0.15657 0.02393 0.0
C419 C 0.58719 0.2059 0.99437 0.0
C420 C 0.56818 0.13029 0.04012 0.0
C421 C 0.53361 0.12477 0.04421 0.0
C422 C 0.56898 0.17756 1.01164 0.0
C423 C 0.5176 0.14629 0.03173 0.0
C424 C 0.57036 0.22629 0.98063 0.0
C425 C 0.63905 0.2381 0.97679 0.0
N426 N 0.53537 0.17167 0.016 0.0
N427 N 0.62096 0.21253 0.99186 0.0
H428 H 0.89821 0.83316 0.3348 0.0
H429 H 0.93516 0.90305 0.52981 0.0
H430 H 0.88343 0.77534 0.42105 0.0
H431 H 0.9314 0.95915 0.44444 0.0
H432 H 0.91834 0.85589 0.49078 0.0
H433 H 0.91401 0.87949 0.37478 0.0
C434 C 0.89834 0.8302 0.36219 0.0
C435 C 0.88889 0.80034 0.37462 0.0
C436 C 0.92104 0.87854 0.48068 0.0
C437 C 0.90694 0.8534 0.4207 0.0
C438 C 0.9306 0.90549 0.50296 0.0
C439 C 0.93475 0.93518 0.49043 0.0
C440 C 0.91588 0.8813 0.44557 0.0
C441 C 0.92849 0.93683 0.45535 0.0
C442 C 0.90716 0.85669 0.38504 0.0
C443 C 0.88956 0.79793 0.41039 0.0
N444 N 0.91958 0.91033 0.43418 0.0
N445 N 0.89844 0.82412 0.43219 0.0
H446 H 0.38072 0.88228 0.59995 0.0
H447 H 0.36095 0.6986 0.60807 0.0
H448 H 0.28672 0.81624 0.61449 0.0
H449 H 0.45482 0.76729 0.61685 0.0
H450 H 0.33327 0.74024 0.599 0.0
H451 H 0.40784 0.839 0.59394 0.0
C452 C 0.36568 0.85864 0.60129 0.0
C453 C 0.33147 0.85288 0.60819 0.0
C454 C 0.35995 0.74616 0.60268 0.0
C455 C 0.3624 0.80334 0.60162 0.0
C456 C 0.37577 0.72242 0.60772 0.0
C457 C 0.41017 0.7296 0.61355 0.0
C458 C 0.37872 0.77726 0.60327 0.0
C459 C 0.42816 0.76085 0.61306 0.0
C460 C 0.38122 0.83397 0.59805 0.0
C461 C 0.31322 0.82177 0.60956 0.0
N462 N 0.4122 0.78356 0.60815 0.0
N463 N 0.32897 0.79817 0.60664 0.0
H464 H 0.70892 0.77999 0.7462 0.0
H465 H 0.85795 0.93445 0.75609 0.0
H466 H 0.73283 0.84182 0.83811 0.0
H467 H 0.83906 0.86662 0.66858 0.0
H468 H 0.80932 0.90368 0.785 0.0
H469 H 0.75288 0.81487 0.71544 0.0
C470 C 0.72308 0.80121 0.75977 0.0
C471 C 0.71691 0.80817 0.7947 0.0
C472 C 0.81578 0.89561 0.75943 0.0
C473 C 0.76776 0.84804 0.75977 0.0
C474 C 0.8437 0.91303 0.74299 0.0
C475 C 0.85278 0.90307 0.70986 0.0
C476 C 0.79672 0.86801 0.74264 0.0
C477 C 0.8329 0.87544 0.69392 0.0
C478 C 0.74827 0.82108 0.74223 0.0
C479 C 0.73609 0.83592 0.81102 0.0
N480 N 0.80592 0.85889 0.71048 0.0
N481 N 0.76085 0.85474 0.79348 0.0
H482 H 0.65054 0.10431 0.46641 0.0
H483 H 0.61759 0.18587 0.29853 0.0
H484 H 0.65353 0.20252 0.46851 0.0
H485 H 0.64534 0.0979 0.29542 0.0
H486 H 0.62523 0.19132 0.36135 0.0
H487 H 0.64201 0.10003 0.40409 0.0
C488 C 0.64933 0.12497 0.45368 0.0
C489 C 0.6534 0.15393 0.47242 0.0
C490 C 0.6298 0.17094 0.34683 0.0
C491 C 0.64358 0.14926 0.40122 0.0
C492 C 0.62537 0.16779 0.31109 0.0
C493 C 0.63103 0.14148 0.29181 0.0
C494 C 0.63941 0.14736 0.36333 0.0
C495 C 0.64116 0.11875 0.30925 0.0
C496 C 0.64469 0.12257 0.41812 0.0
C497 C 0.65154 0.17998 0.45478 0.0
N498 N 0.64483 0.12213 0.34402 0.0
N499 N 0.64671 0.17704 0.42007 0.0
H500 H 0.37447 0.66818 0.36077 0.0
H501 H 0.48455 0.66712 0.52336 0.0
H502 H 0.47076 0.73291 0.36974 0.0
H503 H 0.44798 0.58146 0.46058 0.0
H504 H 0.46761 0.69624 0.47811 0.0
H505 H 0.38908 0.64051 0.40854 0.0
C506 C 0.39847 0.67686 0.37313 0.0
C507 C 0.42145 0.70291 0.36125 0.0
C508 C 0.46313 0.67104 0.4745 0.0
C509 C 0.43789 0.67177 0.41627 0.0
C510 C 0.47255 0.6544 0.5003 0.0
C511 C 0.46772 0.6218 0.49567 0.0
C512 C 0.44773 0.65487 0.44441 0.0
C513 C 0.45228 0.60656 0.46513 0.0
C514 C 0.4068 0.66096 0.40017 0.0
C515 C 0.45236 0.71291 0.37802 0.0
N516 N 0.44253 0.62316 0.44082 0.0
N517 N 0.45958 0.69753 0.40491 0.0
H518 H 0.17016 0.4685 0.81167 0.0
H519 H 0.03001 0.47526 0.95495 0.0
H520 H 0.0922 0.38869 0.8364 0.0
H521 H 0.10838 0.55511 0.93181 0.0
H522 H 0.05401 0.4427 0.91335 0.0
H523 H 0.1493 0.50025 0.85688 0.0
C524 C 0.14872 0.4576 0.82662 0.0
C525 C 0.13288 0.42584 0.82006 0.0
C526 C 0.0661 0.46731 0.91746 0.0
C527 C 0.10884 0.46213 0.87193 0.0
C528 C 0.05246 0.48587 0.94133 0.0
C529 C 0.06727 0.51789 0.94682 0.0
C530 C 0.09469 0.4809 0.89879 0.0
C531 C 0.09616 0.5305 0.92825 0.0
C532 C 0.13683 0.47577 0.85247 0.0
C533 C 0.10521 0.41306 0.84038 0.0
N534 N 0.10886 0.51201 0.90496 0.0
N535 N 0.09406 0.43124 0.86527 0.0
H536 H 0.56795 0.87445 0.91087 0.0
H537 H 0.60881 0.0272 0.04212 0.0
H538 H 0.66799 0.92678 0.93578 0.0
H539 H 0.50992 0.96998 0.02098 0.0
H540 H 0.6312 0.99249 1.00148 0.0
H541 H 0.54651 0.91115 0.94906 0.0
C542 C 0.58546 0.89373 0.92429 0.0
C543 C 0.61986 0.89744 0.92017 0.0
C544 C 0.60461 0.9876 1.00574 0.0
C545 C 0.59537 0.93969 0.96419 0.0
C546 C 0.5918 1.00741 0.02893 0.0
C547 C 0.55743 1.00149 0.03508 0.0
C548 C 0.58288 0.96174 0.98852 0.0
C549 C 0.53659 0.97548 0.0172 0.0
C550 C 0.57317 0.9147 0.94618 0.0
C551 C 0.64128 0.92297 0.93823 0.0
N552 N 0.54964 0.95662 0.99481 0.0
N553 N 0.62869 0.94308 0.95953 0.0
H554 H 0.72328 0.05304 0.58585 0.0
H555 H 0.91883 0.08315 0.54963 0.0
H556 H 0.78639 0.14449 0.57134 0.0
H557 H 0.85343 0.99247 0.56223 0.0
H558 H 0.8706 0.10616 0.55413 0.0
H559 H 0.77089 0.03057 0.57533 0.0
C560 C 0.74721 0.06844 0.5806 0.0
C561 C 0.75088 0.10071 0.57961 0.0
C562 C 0.86682 0.0812 0.55562 0.0
C563 C 0.80562 0.07507 0.56725 0.0
C564 C 0.89426 0.06808 0.55287 0.0
C565 C 0.89 0.03596 0.55588 0.0
C566 C 0.83506 0.06197 0.5614 0.0
C567 C 0.85776 1.0174 0.56006 0.0
C568 C 0.77441 0.05557 0.57443 0.0
C569 C 0.78248 0.11949 0.57249 0.0
N570 N 0.83158 0.0307 0.56295 0.0
N571 N 0.80868 0.10639 0.56661 0.0
H572 H 0.27326 0.62493 0.15739 0.0
H573 H 0.10777 0.63961 0.06388 0.0
H574 H 0.24093 0.71052 0.15739 0.0
H575 H 0.13017 0.55086 0.07691 0.0
H576 H 0.15858 0.66599 0.09475 0.0
H577 H 0.22299 0.59752 0.12534 0.0
C578 C 0.25562 0.63798 0.15074 0.0
C579 C 0.26143 0.67015 0.1602 0.0
C580 C 0.15248 0.64075 0.09085 0.0
C581 C 0.20386 0.63886 0.12323 0.0
C582 C 0.12342 0.62559 0.07304 0.0
C583 C 0.11448 0.59285 0.06771 0.0
C584 C 0.17308 0.6232 0.10347 0.0
C585 C 0.13595 0.57612 0.08038 0.0
C586 C 0.2269 0.62229 0.13242 0.0
C587 C 0.23759 0.68574 0.15078 0.0
N588 N 0.16422 0.59146 0.09766 0.0
N589 N 0.21001 0.67001 0.1328 0.0
H590 H 0.3126 0.44753 0.72246 0.0
H591 H 0.39284 0.51314 0.54656 0.0
H592 H 0.25397 0.44997 0.6327 0.0
H593 H 0.44485 0.53337 0.6437 0.0
H594 H 0.34198 0.48854 0.57699 0.0
H595 H 0.36178 0.47732 0.6935 0.0
C596 C 0.31003 0.4544 0.69669 0.0
C597 C 0.2791 0.44614 0.67995 0.0
C598 C 0.36445 0.49856 0.59169 0.0
C599 C 0.33542 0.48011 0.64654 0.0
C600 C 0.39345 0.51256 0.57433 0.0
C601 C 0.42306 0.52514 0.59265 0.0
C602 C 0.36518 0.49678 0.62759 0.0
C603 C 0.42253 0.52388 0.62861 0.0
C604 C 0.33812 0.4715 0.68021 0.0
C605 C 0.27729 0.45581 0.64659 0.0
N606 N 0.39413 0.50968 0.64487 0.0
N607 N 0.30509 0.47206 0.63089 0.0
H608 H 0.72796 0.69859 0.93362 0.0
H609 H 0.88385 0.62813 0.88676 0.0
H610 H 0.73948 0.65038 0.83525 0.0
H611 H 0.8586 0.65343 0.99127 0.0
H612 H 0.83169 0.63743 0.86708 0.0
H613 H 0.77606 0.68307 0.9553 0.0
C614 C 0.74042 0.68451 0.91668 0.0
C615 C 0.72978 0.67588 0.88253 0.0
C616 C 0.83744 0.64076 0.89435 0.0
C617 C 0.78504 0.65839 0.90703 0.0
C618 C 0.86729 0.63566 0.90554 0.0
C619 C 0.87559 0.64018 0.94065 0.0
C620 C 0.8159 0.65084 0.91839 0.0
C621 C 0.85304 0.64953 0.96398 0.0
C622 C 0.76786 0.67565 0.92907 0.0
C623 C 0.74683 0.65758 0.86175 0.0
N624 N 0.82434 0.65482 0.9524 0.0
N625 N 0.77381 0.64971 0.87422 0.0
H626 H 0.37031 0.84958 0.20047 0.0
H627 H 0.5396 0.97969 0.18218 0.0
H628 H 0.46159 0.8468 0.25005 0.0
H629 H 0.44448 0.99513 0.15671 0.0
H630 H 0.51138 0.9306 0.20595 0.0
H631 H 0.39652 0.9021 0.18349 0.0
C632 C 0.39581 0.86006 0.20807 0.0
C633 C 0.41375 0.84349 0.22671 0.0
C634 C 0.49656 0.94472 0.1954 0.0
C635 C 0.44413 0.90386 0.2068 0.0
C636 C 0.51268 0.97281 0.18171 0.0
C637 C 0.49439 0.99159 0.16731 0.0
C638 C 0.46174 0.93483 0.19435 0.0
C639 C 0.45956 0.98139 0.16751 0.0
C640 C 0.41074 0.89015 0.19835 0.0
C641 C 0.4467 0.85854 0.23581 0.0
N642 N 0.44437 0.95357 0.18051 0.0
N643 N 0.46087 0.88764 0.22547 0.0
H644 H 0.10283 0.21407 0.74864 0.0
H645 H 0.03187 0.13497 0.56487 0.0
H646 H 0.1067 0.26501 0.65757 0.0
H647 H 0.03452 0.08247 0.65359 0.0
H648 H 0.06023 0.18255 0.59825 0.0
H649 H 0.07907 0.16554 0.71414 0.0
C650 C 0.09887 0.21507 0.72134 0.0
C651 C 0.10668 0.24376 0.70604 0.0
C652 C 0.05473 0.16064 0.61043 0.0
C653 C 0.07926 0.18814 0.66636 0.0
C654 C 0.03844 0.13338 0.59138 0.0
C655 C 0.0306 0.10459 0.60646 0.0
C656 C 0.0632 0.15928 0.64497 0.0
C657 C 0.03999 0.1041 0.64088 0.0
C658 C 0.08527 0.1873 0.70165 0.0
C659 C 0.10103 0.2435 0.67052 0.0
N660 N 0.05564 0.13104 0.65901 0.0
N661 N 0.08752 0.21619 0.65197 0.0
H662 H 0.73479 0.34299 0.5474 0.0
H663 H 0.62226 0.42433 0.43992 0.0
H664 H 0.69542 0.30832 0.44617 0.0
H665 H 0.65822 0.45761 0.54266 0.0
H666 H 0.65702 0.38714 0.43789 0.0
H667 H 0.71543 0.39028 0.54203 0.0
C668 C 0.72256 0.34552 0.5238 0.0
C669 C 0.71616 0.32138 0.49746 0.0
C670 C 0.65761 0.40279 0.46076 0.0
C671 C 0.69367 0.37533 0.4913 0.0
C672 C 0.63788 0.42421 0.46187 0.0
C673 C 0.63702 0.44394 0.49167 0.0
C674 C 0.67652 0.40089 0.48972 0.0
C675 C 0.65756 0.44239 0.51945 0.0
C676 C 0.71143 0.37251 0.5208 0.0
C677 C 0.70048 0.32611 0.46735 0.0
N678 N 0.67621 0.42101 0.51793 0.0
N679 N 0.68938 0.35234 0.46529 0.0
loop_
_geom_bond_atom_site_label_1
_geom_bond_atom_site_label_2
_geom_bond_distance
_geom_bond_site_symmetry_2
_ccdc_geom_bond_type
O0 Cd1 2.300 . S
O0 C7 1.275 . S
Cd1 O0 2.300 . S
Cd1 O9 2.381 . S
Cd1 O10 2.378 . S
O2 Cd3 2.385 . S
O2 C7 1.255 . S
Cd3 O2 2.385 . S
Cd3 O4 2.317 . S
O4 Cd3 2.317 . S
O4 C5 1.232 . S
C5 O4 1.232 . S
C5 O6 1.218 . S
O6 C5 1.218 . S
C7 O0 1.275 . S
C7 O2 1.255 . S
C8 O9 1.258 . S
C8 O10 1.256 . S
O9 Cd1 2.381 . S
O9 C8 1.258 . S
O10 Cd1 2.378 . S
O10 C8 1.256 . S
O11 Cd12 2.300 . S
O11 C18 1.275 . S
Cd12 O11 2.300 . S
Cd12 O20 2.381 . S
Cd12 O21 2.378 . S
O13 Cd14 2.385 . S
O13 C18 1.255 . S
Cd14 O13 2.385 . S
Cd14 O15 2.317 . S
O15 Cd14 2.317 . S
O15 C16 1.232 . S
C16 O15 1.232 . S
C16 O17 1.218 . S
O17 C16 1.218 . S
C18 O11 1.275 . S
C18 O13 1.255 . S
C19 O20 1.258 . S
C19 O21 1.256 . S
O20 Cd12 2.381 . S
O20 C19 1.258 . S
O21 Cd12 2.378 . S
O21 C19 1.256 . S
O22 Cd23 2.300 . S
O22 C29 1.275 . S
Cd23 O22 2.300 . S
Cd23 O31 2.381 . S
Cd23 O32 2.378 . S
O24 Cd25 2.385 . S
O24 C29 1.255 . S
Cd25 O24 2.385 . S
Cd25 O26 2.317 . S
O26 Cd25 2.317 . S
O26 C27 1.232 . S
C27 O26 1.232 . S
C27 O28 1.218 . S
O28 C27 1.218 . S
C29 O22 1.275 . S
C29 O24 1.255 . S
C30 O31 1.258 . S
C30 O32 1.256 . S
O31 Cd23 2.381 . S
O31 C30 1.258 . S
O32 Cd23 2.378 . S
O32 C30 1.256 . S
O33 Cd34 2.300 . S
O33 C40 1.275 . S
Cd34 O33 2.300 . S
Cd34 O42 2.381 . S
Cd34 O43 2.378 . S
O35 Cd36 2.385 . S
O35 C40 1.255 . S
Cd36 O35 2.385 . S
Cd36 O37 2.317 . S
O37 Cd36 2.317 . S
O37 C38 1.232 . S
C38 O37 1.232 . S
C38 O39 1.218 . S
O39 C38 1.218 . S
C40 O33 1.275 . S
C40 O35 1.255 . S
C41 O42 1.258 . S
C41 O43 1.256 . S
O42 Cd34 2.381 . S
O42 C41 1.258 . S
O43 Cd34 2.378 . S
O43 C41 1.256 . S
O44 Cd45 2.300 . S
O44 C51 1.275 . S
Cd45 O44 2.300 . S
Cd45 O53 2.381 . S
Cd45 O54 2.378 . S
O46 Cd47 2.385 . S
O46 C51 1.255 . S
Cd47 O46 2.385 . S
Cd47 O48 2.317 . S
O48 Cd47 2.317 . S
O48 C49 1.232 . S
C49 O48 1.232 . S
C49 O50 1.218 . S
O50 C49 1.218 . S
C51 O44 1.275 . S
C51 O46 1.255 . S
C52 O53 1.258 . S
C52 O54 1.256 . S
O53 Cd45 2.381 . S
O53 C52 1.258 . S
O54 Cd45 2.378 . S
O54 C52 1.256 . S
O55 Cd56 2.300 . S
O55 C62 1.275 . S
Cd56 O55 2.300 . S
Cd56 O64 2.381 . S
Cd56 O65 2.378 . S
O57 Cd58 2.385 . S
O57 C62 1.255 . S
Cd58 O57 2.385 . S
Cd58 O59 2.317 . S
O59 Cd58 2.317 . S
O59 C60 1.232 . S
C60 O59 1.232 . S
C60 O61 1.218 . S
O61 C60 1.218 . S
C62 O55 1.275 . S
C62 O57 1.255 . S
C63 O64 1.258 . S
C63 O65 1.256 . S
O64 Cd56 2.381 . S
O64 C63 1.258 . S
O65 Cd56 2.378 . S
O65 C63 1.256 . S
O66 Cd67 2.300 . S
O66 C73 1.275 . S
Cd67 O66 2.300 . S
Cd67 O75 2.381 . S
Cd67 O76 2.378 . S
O68 Cd69 2.385 . S
O68 C73 1.255 . S
Cd69 O68 2.385 . S
Cd69 O70 2.317 . S
O70 Cd69 2.317 . S
O70 C71 1.232 . S
C71 O70 1.232 . S
C71 O72 1.218 . S
O72 C71 1.218 . S
C73 O66 1.275 . S
C73 O68 1.255 . S
C74 O75 1.258 . S
C74 O76 1.256 . S
O75 Cd67 2.381 . S
O75 C74 1.258 . S
O76 Cd67 2.378 . S
O76 C74 1.256 . S
O77 Cd78 2.300 . S
O77 C84 1.275 . S
Cd78 O77 2.300 . S
Cd78 O86 2.381 . S
Cd78 O87 2.378 . S
O79 Cd80 2.385 . S
O79 C84 1.255 . S
Cd80 O79 2.385 . S
Cd80 O81 2.317 . S
O81 Cd80 2.317 . S
O81 C82 1.232 . S
C82 O81 1.232 . S
C82 O83 1.218 . S
O83 C82 1.218 . S
C84 O77 1.275 . S
C84 O79 1.255 . S
C85 O86 1.258 . S
C85 O87 1.256 . S
O86 Cd78 2.381 . S
O86 C85 1.258 . S
O87 Cd78 2.378 . S
O87 C85 1.256 . S
Ho88 C91 2.811 . S
Ho88 O108 2.322 . S
Ho88 O110 2.378 . S
Ho88 O111 2.524 . S
Ho88 O112 2.374 1_545 S
Ho88 O113 2.669 1_545 S
Ho88 O115 2.346 1_445 S
Ho88 O119 2.305 1_455 S
Ho89 C100 2.811 1_545 S
Ho89 O109 2.346 1_655 S
Ho89 O113 2.305 1_645 S
Ho89 O114 2.322 1_545 S
Ho89 O116 2.378 1_545 S
Ho89 O117 2.524 1_545 S
Ho89 O118 2.381 . S
Ho89 O119 2.669 . S
C90 O108 1.259 . S
C90 O109 1.268 . S
C91 Ho88 2.811 . S
C91 C92 1.488 . S
C91 O110 1.215 . S
C91 O111 1.289 . S
C92 C91 1.488 . S
C92 C93 1.348 . S
C92 C97 1.413 . S
C93 C92 1.348 . S
C93 C94 1.442 . S
C93 H120 0.930 . S
C94 C93 1.442 . S
C94 C95 1.381 . S
C94 H121 0.931 . S
C95 C94 1.381 . S
C95 C96 1.321 . S
C96 C95 1.321 . S
C96 C97 1.403 . S
C96 H122 0.934 . S
C97 C92 1.413 . S
C97 C96 1.403 . S
C97 H123 0.930 . S
C98 O112 1.278 . S
C98 O113 1.256 . S
C99 O114 1.259 . S
C99 O115 1.268 . S
C100 Ho89 2.811 1_565 S
C100 C101 1.488 . S
C100 O116 1.215 . S
C100 O117 1.289 . S
C101 C100 1.488 . S
C101 C102 1.348 . S
C101 C106 1.413 . S
C102 C101 1.348 . S
C102 C103 1.442 . S
C102 H124 0.930 . S
C103 C102 1.442 . S
C103 C104 1.381 . S
C103 H125 0.931 . S
C104 C103 1.381 . S
C104 C105 1.321 . S
C105 C104 1.321 . S
C105 C106 1.403 . S
C105 H126 0.934 . S
C106 C101 1.413 . S
C106 C105 1.403 . S
C106 H127 0.930 . S
C107 O118 1.275 . S
C107 O119 1.256 . S
O108 Ho88 2.322 . S
O108 C90 1.259 . S
O109 Ho89 2.346 1_455 S
O109 C90 1.268 . S
O110 Ho88 2.378 . S
O110 C91 1.215 . S
O111 Ho88 2.524 . S
O111 C91 1.289 . S
O112 Ho88 2.374 1_565 S
O112 C98 1.278 . S
O113 Ho88 2.669 1_565 S
O113 Ho89 2.305 1_465 S
O113 C98 1.256 . S
O114 Ho89 2.322 1_565 S
O114 C99 1.259 . S
O115 Ho88 2.346 1_665 S
O115 C99 1.268 . S
O116 Ho89 2.378 1_565 S
O116 C100 1.215 . S
O117 Ho89 2.524 1_565 S
O117 C100 1.289 . S
O118 Ho89 2.381 . S
O118 C107 1.275 . S
O119 Ho88 2.305 1_655 S
O119 Ho89 2.669 . S
O119 C107 1.256 . S
H120 C93 0.930 . S
H121 C94 0.931 . S
H122 C96 0.934 . S
H123 C97 0.930 . S
H124 C102 0.930 . S
H125 C103 0.931 . S
H126 C105 0.934 . S
H127 C106 0.930 . S
Ho128 C131 2.811 . S
Ho128 O148 2.322 . S
Ho128 O150 2.378 . S
Ho128 O151 2.524 . S
Ho128 O152 2.381 1_545 S
Ho128 O153 2.669 . S
Ho128 O155 2.346 . S
Ho128 O159 2.305 . S
Ho129 C140 2.811 1_544 S
Ho129 O149 2.346 . S
Ho129 O153 2.305 . S
Ho129 O154 2.331 . S
Ho129 O156 2.378 1_554 S
Ho129 O157 2.524 1_544 S
Ho129 O158 2.381 . S
Ho129 O159 2.669 . S
C130 O148 1.259 . S
C130 O149 1.268 . S
C131 Ho128 2.811 . S
C131 C132 1.488 . S
C131 O150 1.215 . S
C131 O151 1.289 . S
C132 C131 1.488 . S
C132 C133 1.348 . S
C132 C137 1.413 . S
C133 C132 1.348 . S
C133 C134 1.442 . S
C133 H160 0.930 . S
C134 C133 1.442 . S
C134 C135 1.381 . S
C134 H161 0.931 . S
C135 C134 1.381 . S
C135 C136 1.321 . S
C136 C135 1.321 . S
C136 C137 1.403 . S
C136 H162 0.934 . S
C137 C132 1.413 . S
C137 C136 1.403 . S
C137 H163 0.930 . S
C138 O152 1.275 . S
C138 O153 1.256 1_565 S
C139 O154 1.243 1_565 S
C139 O155 1.268 1_565 S
C140 Ho129 2.811 1_566 S
C140 C141 1.488 . S
C140 O156 1.215 1_565 S
C140 O157 1.289 . S
C141 C140 1.488 . S
C141 C142 1.348 . S
C141 C146 1.413 . S
C142 C141 1.348 . S
C142 C143 1.442 . S
C142 H164 0.930 . S
C143 C142 1.442 . S
C143 C144 1.381 . S
C143 H165 0.931 . S
C144 C143 1.381 . S
C144 C145 1.321 . S
C145 C144 1.321 . S
C145 C146 1.403 . S
C145 H166 0.934 . S
C146 C141 1.413 . S
C146 C145 1.403 . S
C146 H167 0.930 1_565 S
C147 O158 1.275 . S
C147 O159 1.256 . S
O148 Ho128 2.322 . S
O148 C130 1.259 . S
O149 Ho129 2.346 . S
O149 C130 1.268 . S
O150 Ho128 2.378 . S
O150 C131 1.215 . S
O151 Ho128 2.524 . S
O151 C131 1.289 . S
O152 Ho128 2.381 1_565 S
O152 C138 1.275 . S
O153 Ho128 2.669 . S
O153 Ho129 2.305 . S
O153 C138 1.256 1_545 S
O154 Ho129 2.331 . S
O154 C139 1.243 1_545 S
O155 Ho128 2.346 . S
O155 C139 1.268 1_545 S
O156 Ho129 2.378 1_556 S
O156 C140 1.215 1_545 S
O157 Ho129 2.524 1_566 S
O157 C140 1.289 . S
O158 Ho129 2.381 . S
O158 C147 1.275 . S
O159 Ho128 2.305 . S
O159 Ho129 2.669 . S
O159 C147 1.256 . S
H160 C133 0.930 . S
H161 C134 0.931 . S
H162 C136 0.934 . S
H163 C137 0.930 . S
H164 C142 0.930 . S
H165 C143 0.931 . S
H166 C145 0.934 . S
H167 C146 0.930 1_545 S
Ho168 C171 2.811 . S
Ho168 O188 2.322 . S
Ho168 O190 2.378 . S
Ho168 O191 2.524 . S
Ho168 O192 2.381 . S
Ho168 O193 2.669 . S
Ho168 O195 2.346 . S
Ho168 O199 2.305 . S
Ho169 C180 2.811 . S
Ho169 O189 2.346 . S
Ho169 O193 2.305 . S
Ho169 O194 2.322 . S
Ho169 O196 2.378 . S
Ho169 O197 2.524 . S
Ho169 O198 2.381 . S
Ho169 O199 2.669 . S
C170 O188 1.259 . S
C170 O189 1.268 . S
C171 Ho168 2.811 . S
C171 C172 1.488 . S
C171 O190 1.215 . S
C171 O191 1.289 . S
C172 C171 1.488 . S
C172 C173 1.348 . S
C172 C177 1.413 . S
C173 C172 1.348 . S
C173 C174 1.442 . S
C173 H200 0.930 . S
C174 C173 1.442 . S
C174 C175 1.381 . S
C174 H201 0.931 . S
C175 C174 1.381 . S
C175 C176 1.321 . S
C176 C175 1.321 . S
C176 C177 1.403 . S
C176 H202 0.934 . S
C177 C172 1.413 . S
C177 C176 1.403 . S
C177 H203 0.930 . S
C178 O192 1.275 . S
C178 O193 1.256 . S
C179 O194 1.259 . S
C179 O195 1.268 . S
C180 Ho169 2.811 . S
C180 C181 1.488 . S
C180 O196 1.215 . S
C180 O197 1.289 . S
C181 C180 1.488 . S
C181 C182 1.348 . S
C181 C186 1.413 . S
C182 C181 1.348 . S
C182 C183 1.442 . S
C182 H204 0.930 . S
C183 C182 1.442 . S
C183 C184 1.381 . S
C183 H205 0.931 . S
C184 C183 1.381 . S
C184 C185 1.321 . S
C185 C184 1.321 . S
C185 C186 1.403 . S
C185 H206 0.934 . S
C186 C181 1.413 . S
C186 C185 1.403 . S
C186 H207 0.930 . S
C187 O198 1.275 . S
C187 O199 1.256 . S
O188 Ho168 2.322 . S
O188 C170 1.259 . S
O189 Ho169 2.346 . S
O189 C170 1.268 . S
O190 Ho168 2.378 . S
O190 C171 1.215 . S
O191 Ho168 2.524 . S
O191 C171 1.289 . S
O192 Ho168 2.381 . S
O192 C178 1.275 . S
O193 Ho168 2.669 . S
O193 Ho169 2.305 . S
O193 C178 1.256 . S
O194 Ho169 2.322 . S
O194 C179 1.259 . S
O195 Ho168 2.346 . S
O195 C179 1.268 . S
O196 Ho169 2.378 . S
O196 C180 1.215 . S
O197 Ho169 2.524 . S
O197 C180 1.289 . S
O198 Ho169 2.381 . S
O198 C187 1.275 . S
O199 Ho168 2.305 . S
O199 Ho169 2.669 . S
O199 C187 1.256 . S
H200 C173 0.930 . S
H201 C174 0.931 . S
H202 C176 0.934 . S
H203 C177 0.930 . S
H204 C182 0.930 . S
H205 C183 0.931 . S
H206 C185 0.934 . S
H207 C186 0.930 . S
Ho208 C211 2.811 . S
Ho208 O228 2.322 . S
Ho208 O230 2.378 . S
Ho208 O231 2.524 . S
Ho208 O232 2.381 1_455 S
Ho208 O233 2.669 1_455 S
Ho208 O235 2.346 1_455 S
Ho208 O239 2.305 1_554 S
Ho209 C220 2.811 1_455 S
Ho209 O229 2.346 1_556 S
Ho209 O233 2.305 1_456 S
Ho209 O234 2.322 1_455 S
Ho209 O236 2.378 1_455 S
Ho209 O237 2.524 1_455 S
Ho209 O238 2.381 . S
Ho209 O239 2.669 . S
C210 O228 1.259 . S
C210 O229 1.268 . S
C211 Ho208 2.811 . S
C211 C212 1.488 . S
C211 O230 1.215 . S
C211 O231 1.289 . S
C212 C211 1.488 . S
C212 C213 1.348 . S
C212 C217 1.413 . S
C213 C212 1.348 . S
C213 C214 1.442 . S
C213 H240 0.930 . S
C214 C213 1.442 . S
C214 C215 1.381 . S
C214 H241 0.931 . S
C215 C214 1.381 . S
C215 C216 1.321 . S
C216 C215 1.321 . S
C216 C217 1.403 . S
C216 H242 0.934 . S
C217 C212 1.413 . S
C217 C216 1.403 . S
C217 H243 0.930 . S
C218 O232 1.275 . S
C218 O233 1.256 . S
C219 O234 1.259 . S
C219 O235 1.268 1_556 S
C220 Ho209 2.811 1_655 S
C220 C221 1.488 . S
C220 O236 1.215 . S
C220 O237 1.289 . S
C221 C220 1.488 . S
C221 C222 1.348 . S
C221 C226 1.413 . S
C222 C221 1.348 . S
C222 C223 1.442 . S
C222 H244 0.930 . S
C223 C222 1.442 . S
C223 C224 1.381 . S
C223 H245 0.931 . S
C224 C223 1.381 . S
C224 C225 1.321 . S
C225 C224 1.321 . S
C225 C226 1.403 . S
C225 H246 0.934 . S
C226 C221 1.413 . S
C226 C225 1.403 . S
C226 H247 0.930 . S
C227 O238 1.275 . S
C227 O239 1.256 . S
O228 Ho208 2.322 . S
O228 C210 1.259 . S
O229 Ho209 2.346 1_554 S
O229 C210 1.268 . S
O230 Ho208 2.378 . S
O230 C211 1.215 . S
O231 Ho208 2.524 . S
O231 C211 1.289 . S
O232 Ho208 2.381 1_655 S
O232 C218 1.275 . S
O233 Ho208 2.669 1_655 S
O233 Ho209 2.305 1_654 S
O233 C218 1.256 . S
O234 Ho209 2.322 1_655 S
O234 C219 1.259 . S
O235 Ho208 2.346 1_655 S
O235 C219 1.268 1_554 S
O236 Ho209 2.378 1_655 S
O236 C220 1.215 . S
O237 Ho209 2.524 1_655 S
O237 C220 1.289 . S
O238 Ho209 2.381 . S
O238 C227 1.275 . S
O239 Ho208 2.305 1_556 S
O239 Ho209 2.669 . S
O239 C227 1.256 . S
H240 C213 0.930 . S
H241 C214 0.931 . S
H242 C216 0.934 . S
H243 C217 0.930 . S
H244 C222 0.930 . S
H245 C223 0.931 . S
H246 C225 0.934 . S
H247 C226 0.930 . S
H248 C254 0.930 . S
H249 C258 0.930 . S
H250 C263 0.929 . S
H251 C261 0.929 . S
H252 C256 0.929 . S
H253 C262 0.929 . S
C254 H248 0.930 . S
C254 C255 1.367 . S
C254 C262 1.378 . S
C255 C254 1.367 . S
C255 C263 1.433 . S
C256 H252 0.929 . S
C256 C258 1.378 . S
C256 C260 1.350 . S
C257 C260 1.463 . S
C257 C262 1.350 . S
C257 N265 1.427 . S
C258 H249 0.930 . S
C258 C256 1.378 . S
C258 C259 1.367 . S
C259 C258 1.367 . S
C259 C261 1.433 . S
C260 C256 1.350 . S
C260 C257 1.463 . S
C260 N264 1.427 . S
C261 H251 0.929 . S
C261 C259 1.433 . S
C261 N264 1.384 . S
C262 H253 0.929 . S
C262 C254 1.378 . S
C262 C257 1.350 . S
C263 H250 0.929 . S
C263 C255 1.433 . S
C263 N265 1.384 . S
N264 C260 1.427 . S
N264 C261 1.384 . S
N265 C257 1.427 . S
N265 C263 1.384 . S
H266 C272 0.930 . S
H267 C276 0.930 . S
H268 C281 0.929 . S
H269 C279 0.929 . S
H270 C274 0.929 . S
H271 C280 0.929 . S
C272 H266 0.930 . S
C272 C273 1.367 . S
C272 C280 1.378 . S
C273 C272 1.367 . S
C273 C281 1.433 . S
C274 H270 0.929 . S
C274 C276 1.378 . S
C274 C278 1.350 . S
C275 C278 1.463 . S
C275 C280 1.350 . S
C275 N283 1.427 . S
C276 H267 0.930 . S
C276 C274 1.378 . S
C276 C277 1.367 . S
C277 C276 1.367 . S
C277 C279 1.433 . S
C278 C274 1.350 . S
C278 C275 1.463 . S
C278 N282 1.427 . S
C279 H269 0.929 . S
C279 C277 1.433 . S
C279 N282 1.384 . S
C280 H271 0.929 . S
C280 C272 1.378 . S
C280 C275 1.350 . S
C281 H268 0.929 . S
C281 C273 1.433 . S
C281 N283 1.384 . S
N282 C278 1.427 . S
N282 C279 1.384 . S
N283 C275 1.427 . S
N283 C281 1.384 . S
H284 C290 0.930 . S
H285 C294 0.930 . S
H286 C299 0.929 . S
H287 C297 0.929 . S
H288 C292 0.929 . S
H289 C298 0.929 . S
C290 H284 0.930 . S
C290 C291 1.367 . S
C290 C298 1.378 . S
C291 C290 1.367 . S
C291 C299 1.433 . S
C292 H288 0.929 . S
C292 C294 1.378 . S
C292 C296 1.350 . S
C293 C296 1.463 . S
C293 C298 1.350 . S
C293 N301 1.427 . S
C294 H285 0.930 . S
C294 C292 1.378 . S
C294 C295 1.367 . S
C295 C294 1.367 . S
C295 C297 1.433 . S
C296 C292 1.350 . S
C296 C293 1.463 . S
C296 N300 1.427 . S
C297 H287 0.929 . S
C297 C295 1.433 . S
C297 N300 1.384 . S
C298 H289 0.929 . S
C298 C290 1.378 . S
C298 C293 1.350 . S
C299 H286 0.929 . S
C299 C291 1.433 . S
C299 N301 1.384 . S
N300 C296 1.427 . S
N300 C297 1.384 . S
N301 C293 1.427 . S
N301 C299 1.384 . S
H302 C308 0.930 . S
H303 C312 0.930 . S
H304 C317 0.929 . S
H305 C315 0.929 1_455 S
H306 C310 0.929 . S
H307 C316 0.929 . S
C308 H302 0.930 . S
C308 C309 1.367 . S
C308 C316 1.378 . S
C309 C308 1.367 . S
C309 C317 1.433 . S
C310 H306 0.929 . S
C310 C312 1.378 . S
C310 C314 1.350 . S
C311 C314 1.463 . S
C311 C316 1.350 . S
C311 N319 1.427 . S
C312 H303 0.930 . S
C312 C310 1.378 . S
C312 C313 1.367 . S
C313 C312 1.367 . S
C313 C315 1.433 . S
C314 C310 1.350 . S
C314 C311 1.463 . S
C314 N318 1.427 . S
C315 H305 0.929 1_655 S
C315 C313 1.433 . S
C315 N318 1.384 . S
C316 H307 0.929 . S
C316 C308 1.378 . S
C316 C311 1.350 . S
C317 H304 0.929 . S
C317 C309 1.433 . S
C317 N319 1.384 . S
N318 C314 1.427 . S
N318 C315 1.384 . S
N319 C311 1.427 . S
N319 C317 1.384 . S
H320 C326 0.930 . S
H321 C330 0.930 . S
H322 C335 0.929 . S
H323 C333 0.929 . S
H324 C328 0.929 . S
H325 C334 0.929 . S
C326 H320 0.930 . S
C326 C327 1.367 . S
C326 C334 1.378 . S
C327 C326 1.367 . S
C327 C335 1.433 . S
C328 H324 0.929 . S
C328 C330 1.378 . S
C328 C332 1.350 . S
C329 C332 1.463 . S
C329 C334 1.350 . S
C329 N337 1.427 . S
C330 H321 0.930 . S
C330 C328 1.378 . S
C330 C331 1.367 . S
C331 C330 1.367 . S
C331 C333 1.433 . S
C332 C328 1.350 . S
C332 C329 1.463 . S
C332 N336 1.427 . S
C333 H323 0.929 . S
C333 C331 1.433 . S
C333 N336 1.384 . S
C334 H325 0.929 . S
C334 C326 1.378 . S
C334 C329 1.350 . S
C335 H322 0.929 . S
C335 C327 1.433 . S
C335 N337 1.384 . S
N336 C332 1.427 . S
N336 C333 1.384 . S
N337 C329 1.427 . S
N337 C335 1.384 . S
H338 C344 0.930 . S
H339 C348 0.930 . S
H340 C353 0.929 . S
H341 C351 0.929 . S
H342 C346 0.929 . S
H343 C352 0.929 . S
C344 H338 0.930 . S
C344 C345 1.367 . S
C344 C352 1.378 . S
C345 C344 1.367 . S
C345 C353 1.433 . S
C346 H342 0.929 . S
C346 C348 1.378 . S
C346 C350 1.350 . S
C347 C350 1.463 . S
C347 C352 1.350 . S
C347 N355 1.427 . S
C348 H339 0.930 . S
C348 C346 1.378 . S
C348 C349 1.367 . S
C349 C348 1.367 . S
C349 C351 1.433 . S
C350 C346 1.350 . S
C350 C347 1.463 . S
C350 N354 1.427 . S
C351 H341 0.929 . S
C351 C349 1.433 . S
C351 N354 1.384 . S
C352 H343 0.929 . S
C352 C344 1.378 . S
C352 C347 1.350 . S
C353 H340 0.929 . S
C353 C345 1.433 . S
C353 N355 1.384 . S
N354 C350 1.427 . S
N354 C351 1.384 . S
N355 C347 1.427 . S
N355 C353 1.384 . S
H356 C362 0.930 . S
H357 C366 0.930 . S
H358 C371 0.929 . S
H359 C369 0.929 1_554 S
H360 C364 0.929 . S
H361 C370 0.929 . S
C362 H356 0.930 . S
C362 C363 1.367 . S
C362 C370 1.378 . S
C363 C362 1.367 . S
C363 C371 1.433 . S
C364 H360 0.929 . S
C364 C366 1.378 . S
C364 C368 1.350 . S
C365 C368 1.463 . S
C365 C370 1.350 . S
C365 N373 1.427 . S
C366 H357 0.930 . S
C366 C364 1.378 . S
C366 C367 1.367 . S
C367 C366 1.367 . S
C367 C369 1.433 . S
C368 C364 1.350 . S
C368 C365 1.463 . S
C368 N372 1.427 . S
C369 H359 0.929 1_556 S
C369 C367 1.433 . S
C369 N372 1.384 . S
C370 H361 0.929 . S
C370 C362 1.378 . S
C370 C365 1.350 . S
C371 H358 0.929 . S
C371 C363 1.433 . S
C371 N373 1.384 . S
N372 C368 1.427 . S
N372 C369 1.384 . S
N373 C365 1.427 . S
N373 C371 1.384 . S
H374 C380 0.930 . S
H375 C384 0.930 . S
H376 C389 0.929 . S
H377 C387 0.929 . S
H378 C382 0.929 . S
H379 C388 0.929 . S
C380 H374 0.930 . S
C380 C381 1.367 . S
C380 C388 1.378 . S
C381 C380 1.367 . S
C381 C389 1.433 . S
C382 H378 0.929 . S
C382 C384 1.378 . S
C382 C386 1.350 . S
C383 C386 1.463 . S
C383 C388 1.350 . S
C383 N391 1.427 . S
C384 H375 0.930 . S
C384 C382 1.378 . S
C384 C385 1.367 . S
C385 C384 1.367 . S
C385 C387 1.433 . S
C386 C382 1.350 . S
C386 C383 1.463 . S
C386 N390 1.427 . S
C387 H377 0.929 . S
C387 C385 1.433 . S
C387 N390 1.384 . S
C388 H379 0.929 . S
C388 C380 1.378 . S
C388 C383 1.350 . S
C389 H376 0.929 . S
C389 C381 1.433 . S
C389 N391 1.384 . S
N390 C386 1.427 . S
N390 C387 1.384 . S
N391 C383 1.427 . S
N391 C389 1.384 . S
H392 C398 0.930 . S
H393 C402 0.930 . S
H394 C407 0.929 . S
H395 C405 0.929 . S
H396 C400 0.929 . S
H397 C406 0.929 . S
C398 H392 0.930 . S
C398 C399 1.367 . S
C398 C406 1.378 . S
C399 C398 1.367 . S
C399 C407 1.433 . S
C400 H396 0.929 . S
C400 C402 1.378 . S
C400 C404 1.350 . S
C401 C404 1.463 . S
C401 C406 1.350 . S
C401 N409 1.427 . S
C402 H393 0.930 . S
C402 C400 1.378 . S
C402 C403 1.367 . S
C403 C402 1.367 . S
C403 C405 1.433 . S
C404 C400 1.350 . S
C404 C401 1.463 . S
C404 N408 1.427 . S
C405 H395 0.929 . S
C405 C403 1.433 . S
C405 N408 1.384 . S
C406 H397 0.929 . S
C406 C398 1.378 . S
C406 C401 1.350 . S
C407 H394 0.929 . S
C407 C399 1.433 . S
C407 N409 1.384 . S
N408 C404 1.427 . S
N408 C405 1.384 . S
N409 C401 1.427 . S
N409 C407 1.384 . S
H410 C416 0.930 . S
H411 C420 0.930 . S
H412 C425 0.929 . S
H413 C423 0.929 . S
H414 C418 0.929 . S
H415 C424 0.929 . S
C416 H410 0.930 . S
C416 C417 1.367 . S
C416 C424 1.378 . S
C417 C416 1.367 . S
C417 C425 1.433 . S
C418 H414 0.929 . S
C418 C420 1.378 . S
C418 C422 1.350 1_554 S
C419 C422 1.463 . S
C419 C424 1.350 . S
C419 N427 1.427 . S
C420 H411 0.930 . S
C420 C418 1.378 . S
C420 C421 1.367 . S
C421 C420 1.367 . S
C421 C423 1.433 1_554 S
C422 C418 1.350 1_556 S
C422 C419 1.463 . S
C422 N426 1.427 . S
C423 H413 0.929 . S
C423 C421 1.433 1_556 S
C423 N426 1.384 . S
C424 H415 0.929 . S
C424 C416 1.378 . S
C424 C419 1.350 . S
C425 H412 0.929 . S
C425 C417 1.433 . S
C425 N427 1.384 . S
N426 C422 1.427 . S
N426 C423 1.384 . S
N427 C419 1.427 . S
N427 C425 1.384 . S
H428 C434 0.930 . S
H429 C438 0.930 . S
H430 C443 0.929 . S
H431 C441 0.929 . S
H432 C436 0.929 . S
H433 C442 0.929 . S
C434 H428 0.930 . S
C434 C435 1.367 . S
C434 C442 1.378 . S
C435 C434 1.367 . S
C435 C443 1.433 . S
C436 H432 0.929 . S
C436 C438 1.378 . S
C436 C440 1.350 . S
C437 C440 1.463 . S
C437 C442 1.350 . S
C437 N445 1.427 . S
C438 H429 0.930 . S
C438 C436 1.378 . S
C438 C439 1.367 . S
C439 C438 1.367 . S
C439 C441 1.433 . S
C440 C436 1.350 . S
C440 C437 1.463 . S
C440 N444 1.427 . S
C441 H431 0.929 . S
C441 C439 1.433 . S
C441 N444 1.384 . S
C442 H433 0.929 . S
C442 C434 1.378 . S
C442 C437 1.350 . S
C443 H430 0.929 . S
C443 C435 1.433 . S
C443 N445 1.384 . S
N444 C440 1.427 . S
N444 C441 1.384 . S
N445 C437 1.427 . S
N445 C443 1.384 . S
H446 C452 0.930 . S
H447 C456 0.930 . S
H448 C461 0.929 . S
H449 C459 0.929 . S
H450 C454 0.929 . S
H451 C460 0.929 . S
C452 H446 0.930 . S
C452 C453 1.367 . S
C452 C460 1.378 . S
C453 C452 1.367 . S
C453 C461 1.433 . S
C454 H450 0.929 . S
C454 C456 1.378 . S
C454 C458 1.350 . S
C455 C458 1.463 . S
C455 C460 1.350 . S
C455 N463 1.427 . S
C456 H447 0.930 . S
C456 C454 1.378 . S
C456 C457 1.367 . S
C457 C456 1.367 . S
C457 C459 1.433 . S
C458 C454 1.350 . S
C458 C455 1.463 . S
C458 N462 1.427 . S
C459 H449 0.929 . S
C459 C457 1.433 . S
C459 N462 1.384 . S
C460 H451 0.929 . S
C460 C452 1.378 . S
C460 C455 1.350 . S
C461 H448 0.929 . S
C461 C453 1.433 . S
C461 N463 1.384 . S
N462 C458 1.427 . S
N462 C459 1.384 . S
N463 C455 1.427 . S
N463 C461 1.384 . S
H464 C470 0.930 . S
H465 C474 0.930 . S
H466 C479 0.929 . S
H467 C477 0.929 . S
H468 C472 0.929 . S
H469 C478 0.929 . S
C470 H464 0.930 . S
C470 C471 1.367 . S
C470 C478 1.378 . S
C471 C470 1.367 . S
C471 C479 1.433 . S
C472 H468 0.929 . S
C472 C474 1.378 . S
C472 C476 1.350 . S
C473 C476 1.463 . S
C473 C478 1.350 . S
C473 N481 1.427 . S
C474 H465 0.930 . S
C474 C472 1.378 . S
C474 C475 1.367 . S
C475 C474 1.367 . S
C475 C477 1.433 . S
C476 C472 1.350 . S
C476 C473 1.463 . S
C476 N480 1.427 . S
C477 H467 0.929 . S
C477 C475 1.433 . S
C477 N480 1.384 . S
C478 H469 0.929 . S
C478 C470 1.378 . S
C478 C473 1.350 . S
C479 H466 0.929 . S
C479 C471 1.433 . S
C479 N481 1.384 . S
N480 C476 1.427 . S
N480 C477 1.384 . S
N481 C473 1.427 . S
N481 C479 1.384 . S
H482 C488 0.930 . S
H483 C492 0.930 . S
H484 C497 0.929 . S
H485 C495 0.929 . S
H486 C490 0.929 . S
H487 C496 0.929 . S
C488 H482 0.930 . S
C488 C489 1.367 . S
C488 C496 1.378 . S
C489 C488 1.367 . S
C489 C497 1.433 . S
C490 H486 0.929 . S
C490 C492 1.378 . S
C490 C494 1.350 . S
C491 C494 1.463 . S
C491 C496 1.350 . S
C491 N499 1.427 . S
C492 H483 0.930 . S
C492 C490 1.378 . S
C492 C493 1.367 . S
C493 C492 1.367 . S
C493 C495 1.433 . S
C494 C490 1.350 . S
C494 C491 1.463 . S
C494 N498 1.427 . S
C495 H485 0.929 . S
C495 C493 1.433 . S
C495 N498 1.384 . S
C496 H487 0.929 . S
C496 C488 1.378 . S
C496 C491 1.350 . S
C497 H484 0.929 . S
C497 C489 1.433 . S
C497 N499 1.384 . S
N498 C494 1.427 . S
N498 C495 1.384 . S
N499 C491 1.427 . S
N499 C497 1.384 . S
H500 C506 0.930 . S
H501 C510 0.930 . S
H502 C515 0.929 . S
H503 C513 0.929 . S
H504 C508 0.929 . S
H505 C514 0.929 . S
C506 H500 0.930 . S
C506 C507 1.367 . S
C506 C514 1.378 . S
C507 C506 1.367 . S
C507 C515 1.433 . S
C508 H504 0.929 . S
C508 C510 1.378 . S
C508 C512 1.350 . S
C509 C512 1.463 . S
C509 C514 1.350 . S
C509 N517 1.427 . S
C510 H501 0.930 . S
C510 C508 1.378 . S
C510 C511 1.367 . S
C511 C510 1.367 . S
C511 C513 1.433 . S
C512 C508 1.350 . S
C512 C509 1.463 . S
C512 N516 1.427 . S
C513 H503 0.929 . S
C513 C511 1.433 . S
C513 N516 1.384 . S
C514 H505 0.929 . S
C514 C506 1.378 . S
C514 C509 1.350 . S
C515 H502 0.929 . S
C515 C507 1.433 . S
C515 N517 1.384 . S
N516 C512 1.427 . S
N516 C513 1.384 . S
N517 C509 1.427 . S
N517 C515 1.384 . S
H518 C524 0.930 . S
H519 C528 0.930 . S
H520 C533 0.929 . S
H521 C531 0.929 . S
H522 C526 0.929 . S
H523 C532 0.929 . S
C524 H518 0.930 . S
C524 C525 1.367 . S
C524 C532 1.378 . S
C525 C524 1.367 . S
C525 C533 1.433 . S
C526 H522 0.929 . S
C526 C528 1.378 . S
C526 C530 1.350 . S
C527 C530 1.463 . S
C527 C532 1.350 . S
C527 N535 1.427 . S
C528 H519 0.930 . S
C528 C526 1.378 . S
C528 C529 1.367 . S
C529 C528 1.367 . S
C529 C531 1.433 . S
C530 C526 1.350 . S
C530 C527 1.463 . S
C530 N534 1.427 . S
C531 H521 0.929 . S
C531 C529 1.433 . S
C531 N534 1.384 . S
C532 H523 0.929 . S
C532 C524 1.378 . S
C532 C527 1.350 . S
C533 H520 0.929 . S
C533 C525 1.433 . S
C533 N535 1.384 . S
N534 C530 1.427 . S
N534 C531 1.384 . S
N535 C527 1.427 . S
N535 C533 1.384 . S
H536 C542 0.930 . S
H537 C546 0.930 1_554 S
H538 C551 0.929 . S
H539 C549 0.929 . S
H540 C544 0.929 . S
H541 C550 0.929 . S
C542 H536 0.930 . S
C542 C543 1.367 . S
C542 C550 1.378 . S
C543 C542 1.367 . S
C543 C551 1.433 . S
C544 H540 0.929 . S
C544 C546 1.378 . S
C544 C548 1.350 . S
C545 C548 1.463 . S
C545 C550 1.350 . S
C545 N553 1.427 . S
C546 H537 0.930 1_556 S
C546 C544 1.378 . S
C546 C547 1.367 . S
C547 C546 1.367 . S
C547 C549 1.433 . S
C548 C544 1.350 . S
C548 C545 1.463 . S
C548 N552 1.427 . S
C549 H539 0.929 . S
C549 C547 1.433 . S
C549 N552 1.384 . S
C550 H541 0.929 . S
C550 C542 1.378 . S
C550 C545 1.350 . S
C551 H538 0.929 . S
C551 C543 1.433 . S
C551 N553 1.384 . S
N552 C548 1.427 . S
N552 C549 1.384 . S
N553 C545 1.427 . S
N553 C551 1.384 . S
H554 C560 0.930 . S
H555 C564 0.930 . S
H556 C569 0.929 . S
H557 C567 0.929 . S
H558 C562 0.929 . S
H559 C568 0.929 . S
C560 H554 0.930 . S
C560 C561 1.367 . S
C560 C568 1.378 . S
C561 C560 1.367 . S
C561 C569 1.433 . S
C562 H558 0.929 . S
C562 C564 1.378 . S
C562 C566 1.350 . S
C563 C566 1.463 . S
C563 C568 1.350 . S
C563 N571 1.427 . S
C564 H555 0.930 . S
C564 C562 1.378 . S
C564 C565 1.367 . S
C565 C564 1.367 . S
C565 C567 1.433 . S
C566 C562 1.350 . S
C566 C563 1.463 . S
C566 N570 1.427 . S
C567 H557 0.929 . S
C567 C565 1.433 . S
C567 N570 1.384 . S
C568 H559 0.929 . S
C568 C560 1.378 . S
C568 C563 1.350 . S
C569 H556 0.929 . S
C569 C561 1.433 . S
C569 N571 1.384 . S
N570 C566 1.427 . S
N570 C567 1.384 . S
N571 C563 1.427 . S
N571 C569 1.384 . S
H572 C578 0.930 . S
H573 C582 0.930 . S
H574 C587 0.929 . S
H575 C585 0.929 . S
H576 C580 0.929 . S
H577 C586 0.929 . S
C578 H572 0.930 . S
C578 C579 1.367 . S
C578 C586 1.378 . S
C579 C578 1.367 . S
C579 C587 1.433 . S
C580 H576 0.929 . S
C580 C582 1.378 . S
C580 C584 1.350 . S
C581 C584 1.463 . S
C581 C586 1.350 . S
C581 N589 1.427 . S
C582 H573 0.930 . S
C582 C580 1.378 . S
C582 C583 1.367 . S
C583 C582 1.367 . S
C583 C585 1.433 . S
C584 C580 1.350 . S
C584 C581 1.463 . S
C584 N588 1.427 . S
C585 H575 0.929 . S
C585 C583 1.433 . S
C585 N588 1.384 . S
C586 H577 0.929 . S
C586 C578 1.378 . S
C586 C581 1.350 . S
C587 H574 0.929 . S
C587 C579 1.433 . S
C587 N589 1.384 . S
N588 C584 1.427 . S
N588 C585 1.384 . S
N589 C581 1.427 . S
N589 C587 1.384 . S
H590 C596 0.930 . S
H591 C600 0.930 . S
H592 C605 0.929 . S
H593 C603 0.929 . S
H594 C598 0.929 . S
H595 C604 0.929 . S
C596 H590 0.930 . S
C596 C597 1.367 . S
C596 C604 1.378 . S
C597 C596 1.367 . S
C597 C605 1.433 . S
C598 H594 0.929 . S
C598 C600 1.378 . S
C598 C602 1.350 . S
C599 C602 1.463 . S
C599 C604 1.350 . S
C599 N607 1.427 . S
C600 H591 0.930 . S
C600 C598 1.378 . S
C600 C601 1.367 . S
C601 C600 1.367 . S
C601 C603 1.433 . S
C602 C598 1.350 . S
C602 C599 1.463 . S
C602 N606 1.427 . S
C603 H593 0.929 . S
C603 C601 1.433 . S
C603 N606 1.384 . S
C604 H595 0.929 . S
C604 C596 1.378 . S
C604 C599 1.350 . S
C605 H592 0.929 . S
C605 C597 1.433 . S
C605 N607 1.384 . S
N606 C602 1.427 . S
N606 C603 1.384 . S
N607 C599 1.427 . S
N607 C605 1.384 . S
H608 C614 0.930 . S
H609 C618 0.930 . S
H610 C623 0.929 . S
H611 C621 0.929 . S
H612 C616 0.929 . S
H613 C622 0.929 . S
C614 H608 0.930 . S
C614 C615 1.367 . S
C614 C622 1.378 . S
C615 C614 1.367 . S
C615 C623 1.433 . S
C616 H612 0.929 . S
C616 C618 1.378 . S
C616 C620 1.350 . S
C617 C620 1.463 . S
C617 C622 1.350 . S
C617 N625 1.427 . S
C618 H609 0.930 . S
C618 C616 1.378 . S
C618 C619 1.367 . S
C619 C618 1.367 . S
C619 C621 1.433 . S
C620 C616 1.350 . S
C620 C617 1.463 . S
C620 N624 1.427 . S
C621 H611 0.929 . S
C621 C619 1.433 . S
C621 N624 1.384 . S
C622 H613 0.929 . S
C622 C614 1.378 . S
C622 C617 1.350 . S
C623 H610 0.929 . S
C623 C615 1.433 . S
C623 N625 1.384 . S
N624 C620 1.427 . S
N624 C621 1.384 . S
N625 C617 1.427 . S
N625 C623 1.384 . S
H626 C632 0.930 . S
H627 C636 0.930 . S
H628 C641 0.929 . S
H629 C639 0.929 . S
H630 C634 0.929 . S
H631 C640 0.929 . S
C632 H626 0.930 . S
C632 C633 1.367 . S
C632 C640 1.378 . S
C633 C632 1.367 . S
C633 C641 1.433 . S
C634 H630 0.929 . S
C634 C636 1.378 . S
C634 C638 1.350 . S
C635 C638 1.463 . S
C635 C640 1.350 . S
C635 N643 1.427 . S
C636 H627 0.930 . S
C636 C634 1.378 . S
C636 C637 1.367 . S
C637 C636 1.367 . S
C637 C639 1.433 . S
C638 C634 1.350 . S
C638 C635 1.463 . S
C638 N642 1.427 . S
C639 H629 0.929 . S
C639 C637 1.433 . S
C639 N642 1.384 . S
C640 H631 0.929 . S
C640 C632 1.378 . S
C640 C635 1.350 . S
C641 H628 0.929 . S
C641 C633 1.433 . S
C641 N643 1.384 . S
N642 C638 1.427 . S
N642 C639 1.384 . S
N643 C635 1.427 . S
N643 C641 1.384 . S
H644 C650 0.930 . S
H645 C654 0.930 . S
H646 C659 0.929 . S
H647 C657 0.929 . S
H648 C652 0.929 . S
H649 C658 0.929 . S
C650 H644 0.930 . S
C650 C651 1.367 . S
C650 C658 1.378 . S
C651 C650 1.367 . S
C651 C659 1.433 . S
C652 H648 0.929 . S
C652 C654 1.378 . S
C652 C656 1.350 . S
C653 C656 1.463 . S
C653 C658 1.350 . S
C653 N661 1.427 . S
C654 H645 0.930 . S
C654 C652 1.378 . S
C654 C655 1.367 . S
C655 C654 1.367 . S
C655 C657 1.433 . S
C656 C652 1.350 . S
C656 C653 1.463 . S
C656 N660 1.427 . S
C657 H647 0.929 . S
C657 C655 1.433 . S
C657 N660 1.384 . S
C658 H649 0.929 . S
C658 C650 1.378 . S
C658 C653 1.350 . S
C659 H646 0.929 . S
C659 C651 1.433 . S
C659 N661 1.384 . S
N660 C656 1.427 . S
N660 C657 1.384 . S
N661 C653 1.427 . S
N661 C659 1.384 . S
H662 C668 0.930 . S
H663 C672 0.930 . S
H664 C677 0.929 . S
H665 C675 0.929 . S
H666 C670 0.929 . S
H667 C676 0.929 . S
C668 H662 0.930 . S
C668 C669 1.367 . S
C668 C676 1.378 . S
C669 C668 1.367 . S
C669 C677 1.433 . S
C670 H666 0.929 . S
C670 C672 1.378 . S
C670 C674 1.350 . S
C671 C674 1.463 . S
C671 C676 1.350 . S
C671 N679 1.427 . S
C672 H663 0.930 . S
C672 C670 1.378 . S
C672 C673 1.367 . S
C673 C672 1.367 . S
C673 C675 1.433 . S
C674 C670 1.350 . S
C674 C671 1.463 . S
C674 N678 1.427 . S
C675 H665 0.929 . S
C675 C673 1.433 . S
C675 N678 1.384 . S
C676 H667 0.929 . S
C676 C668 1.378 . S
C676 C671 1.350 . S
C677 H664 0.929 . S
C677 C669 1.433 . S
C677 N679 1.384 . S
N678 C674 1.427 . S
N678 C675 1.384 . S
N679 C671 1.427 . S
N679 C677 1.384 . S
C255 C5 1.011 . S
C259 C95 1.241 . S
C273 C18 1.028 . S
C277 C144 1.099 . S
C295 C170 2.325 . S
C291 C30 2.359 . S
C309 C41 2.069 . S
C313 C218 2.025 . S
C331 C130 2.360 . S
C327 C7 2.163 . S
C349 C98 0.940 . S
C345 C16 0.863 . S
C367 C219 1.954 . S
C363 C29 1.920 . S
C385 C187 1.231 . S
C381 C38 1.120 . S
C399 C8 1.506 . S
C403 C215 1.604 . S
C421 C147 2.561 . S
C417 C27 2.374 . S
C435 C40 2.426 . S
C439 C99 2.453 . S
C453 C19 0.712 . S
C457 C184 0.698 . S
C475 C104 1.150 . S
C471 C51 1.015 . S
C489 C62 1.376 . S
C493 C135 1.350 . S
C507 C74 2.442 . S
C511 C179 2.419 . S
C525 C84 2.164 . S
C529 C227 2.239 . S
C543 C49 1.971 . S
C547 C139 2.601 1_556 S
C565 C107 0.977 . S
C561 C63 0.986 . S
C583 C210 1.811 . S
C579 C71 1.698 . S
C601 C178 1.355 . S
C597 C85 1.353 . S
C615 C52 1.514 . S
C619 C224 1.620 . S
C637 C138 2.630 . S
C633 C73 2.674 . S
C655 C90 1.978 . S
C651 C82 1.699 . S
C669 C60 0.813 . S
C673 C175 0.827 . S
