# Generated by pormake.
# Topology scu, (8,4)-cn, num edge types: 1
# Building blocks:
#     Node 0, Type 0, BuildingBlock: GIZVER_clean_sbu_0, # of connection points: 8
#     Node 1, Type 1, BuildingBlock: MUDLON_clean_sbu_0, # of connection points: 4
#     Node 2, Type 1, BuildingBlock: MUDLON_clean_sbu_0, # of connection points: 4
#     Edge 3, Type (0, 1), BuildingBlock: MIFKUJ_clean_linker_0, # of connection points: 2
#     Edge 4, Type (0, 1), BuildingBlock: MIFKUJ_clean_linker_0, # of connection points: 2
#     Edge 5, Type (0, 1), BuildingBlock: MIFKUJ_clean_linker_0, # of connection points: 2
#     Edge 6, Type (0, 1), BuildingBlock: MIFKUJ_clean_linker_0, # of connection points: 2
#     Edge 7, Type (0, 1), BuildingBlock: MIFKUJ_clean_linker_0, # of connection points: 2
#     Edge 8, Type (0, 1), BuildingBlock: MIFKUJ_clean_linker_0, # of connection points: 2
#     Edge 9, Type (0, 1), BuildingBlock: MIFKUJ_clean_linker_0, # of connection points: 2
#     Edge 10, Type (0, 1), BuildingBlock: MIFKUJ_clean_linker_0, # of connection points: 2
# Relax obj value: 0.012
# Max RMSD: 0.080
# Mean RMSD: 0.044
data_MOF--net-scu--node1-GIZVER_clean_sbu_0--node2-MUDLON_clean_sbu_0--edge1-MIFKUJ_clean_linker_0
_symmetry_space_group_name_H-M    P1
_symmetry_Int_Tables_number       1
_symmetry_cell_setting            triclinic
loop_
_symmetry_equiv_pos_as_xyz
'x, y, z'
_cell_length_a     29.124323
_cell_length_b     30.053248
_cell_length_c     29.327243
_cell_angle_alpha  97.575756
_cell_angle_beta   84.120123
_cell_angle_gamma 114.70368
loop_
_atom_site_label
_atom_site_type_symbol
_atom_site_fract_x
_atom_site_fract_y
_atom_site_fract_z
_atom_type_partial_charge
Co0 Co 0.03101 0.96215 0.15596 0.0
Co1 Co 0.10981 0.03959 0.13067 0.0
Co2 Co 0.01594 0.02092 0.06721 0.0
O3 O 0.05436 0.99222 0.0986 0.0
H4 H 0.06623 0.972 0.07648 0.0
O5 O 0.9788 0.05109 0.03654 0.0
Co6 Co 0.99778 0.06984 0.9751 0.0
Co7 Co 0.91984 1.00418 1.01306 0.0
H8 H 0.97147 0.07554 0.05701 0.0
O9 O 0.16412 0.02663 0.14556 0.0
O10 O 0.09105 1.01267 0.18658 0.0
O11 O 0.1114 0.10446 0.14277 0.0
O12 O 0.04081 0.08597 0.10701 0.0
O13 O 0.07477 0.0444 0.02038 0.0
O14 O 0.01436 0.09142 0.91955 0.0
O15 O 0.97742 0.12008 0.98062 0.0
O16 O 0.02459 0.02221 0.96218 0.0
O17 O 0.98955 0.95536 0.02785 0.0
O18 O 0.91118 0.93694 1.00862 0.0
O19 O 0.93028 0.02162 0.95321 0.0
O20 O 0.8664 0.01908 1.00497 0.0
C21 C 0.04038 0.90853 0.18683 0.0
C22 C 0.95985 1.00562 0.15585 0.0
C23 C 0.07589 0.11505 0.13318 0.0
C24 C 0.136 1.01291 0.18274 0.0
C25 C 0.99661 0.12308 0.93824 0.0
C26 C 0.06809 0.03381 0.97705 0.0
C27 C 0.94808 0.92528 1.01002 0.0
C28 C 0.88602 0.0229 0.96306 0.0
O29 O 0.01231 0.93053 0.2065 0.0
O30 O 0.06196 0.91963 0.14605 0.0
O31 O 0.95619 0.99725 0.1123 0.0
O32 O 0.9955 1.00242 0.17489 0.0
Mg33 Mg 0.05074 0.54335 0.5651 0.0
C34 C 0.05185 0.47922 0.4864 0.0
O35 O 0.0981 0.50578 0.4996 0.0
C36 C 0.0332 0.59489 0.64993 0.0
O37 O 0.07809 0.59455 0.65066 0.0
C38 C 0.04449 0.4632 0.6156 0.0
O39 O 1.00132 0.44765 0.59573 0.0
O40 O 0.07845 0.50567 0.60808 0.0
O41 O 0.01554 0.48579 0.51001 0.0
O42 O 0.10004 0.60207 0.52233 0.0
C43 C 0.10767 0.64729 0.52977 0.0
O44 O 0.09416 0.66392 0.57022 0.0
O45 O 1.00756 0.5739 0.61455 0.0
Mg46 Mg 0.50789 1.01238 0.55613 0.0
C47 C 0.39889 0.94588 0.52704 0.0
O48 O 0.38675 0.94904 0.57138 0.0
C49 C 0.53234 0.97065 0.63417 0.0
O50 O 0.49415 0.97935 0.65446 0.0
C51 C 0.44116 0.06228 0.60663 0.0
O52 O 0.42471 0.05699 0.56533 0.0
O53 O 0.47835 0.0517 0.61111 0.0
O54 O 0.44533 0.96455 0.5133 0.0
O55 O 0.57014 0.05514 0.50947 0.0
C56 C 0.56483 0.04741 0.46614 0.0
O57 O 0.51962 0.02003 0.45105 0.0
O58 O 0.54295 0.97629 0.59157 0.0
H59 H 0.98885 0.12952 0.15071 0.0
H60 H 0.97485 0.19056 0.20712 0.0
H61 H 0.13374 0.2579 0.23333 0.0
H62 H 0.14785 0.19583 0.17817 0.0
H63 H 0.07934 0.24065 0.31084 0.0
H64 H 0.073 0.31031 0.17402 0.0
H65 H 0.04186 0.31152 0.09935 0.0
H66 H 0.89385 0.28205 0.16285 0.0
H67 H 0.92377 0.27944 0.23773 0.0
H68 H 0.12489 0.46796 0.42759 0.0
H69 H 0.11623 0.4045 0.36463 0.0
H70 H 0.95407 0.34274 0.38868 0.0
H71 H 0.96237 0.4071 0.45299 0.0
H72 H 0.99524 0.34939 0.28943 0.0
H73 H 1.00415 0.28441 0.42736 0.0
H74 H 0.03833 0.28874 0.50216 0.0
H75 H 0.18389 0.3131 0.4353 0.0
H76 H 0.15083 0.30973 0.36019 0.0
C77 C 0.02116 0.15808 0.16754 0.0
C78 C 0.06964 0.15786 0.1598 0.0
C79 C 0.01296 0.19299 0.19986 0.0
C80 C 0.05317 0.22902 0.22439 0.0
C81 C 0.10202 0.23033 0.21499 0.0
C82 C 0.11015 0.19502 0.18321 0.0
C83 C 0.04412 0.26297 0.26237 0.0
C84 C 0.06124 0.26459 0.30587 0.0
C85 C 0.0186 0.2929 0.25661 0.0
C86 C 1.0005 0.29402 0.21143 0.0
C87 C 0.03366 0.30348 0.17199 0.0
C88 C 0.01623 0.3045 0.12962 0.0
C89 C 0.96587 0.29672 0.12632 0.0
C90 C 0.93286 0.28808 0.16544 0.0
C91 C 0.95001 0.28672 0.20785 0.0
C92 C 0.08715 0.44123 0.41964 0.0
C93 C 0.04429 0.4423 0.44581 0.0
C94 C 0.08236 0.40498 0.38341 0.0
C95 C 0.03464 0.3687 0.37234 0.0
C96 C 0.99127 0.37052 0.39685 0.0
C97 C 0.99607 0.40712 0.43356 0.0
C98 C 0.03181 0.32772 0.33694 0.0
C99 C 0.01248 0.32468 0.29422 0.0
C100 C 0.05534 0.29639 0.34316 0.0
C101 C 0.07505 0.29711 0.38815 0.0
C102 C 0.04352 0.29095 0.42863 0.0
C103 C 0.06269 0.29321 0.47108 0.0
C104 C 0.11328 0.30131 0.47347 0.0
C105 C 0.14472 0.30686 0.43338 0.0
C106 C 0.12576 0.3047 0.39085 0.0
H107 H 0.12814 0.30334 0.50638 0.0
H108 H 0.95246 0.29754 0.09349 0.0
H109 H 0.86646 0.99679 0.13402 0.0
H110 H 0.80341 0.01504 0.18559 0.0
H111 H 0.90596 0.06458 0.29599 0.0
H112 H 0.96825 0.04535 0.24529 0.0
H113 H 0.81642 1.00558 0.32604 0.0
H114 H 0.88035 0.1427 0.2365 0.0
H115 H 0.90268 0.18256 0.16434 0.0
H116 H 0.74625 0.11914 0.13249 0.0
H117 H 0.72306 0.07682 0.20332 0.0
H118 H 0.66562 0.08981 0.4851 0.0
H119 H 0.73753 0.09597 0.43121 0.0
H120 H 0.63759 0.038 0.31878 0.0
H121 H 0.56581 0.03258 0.37212 0.0
H122 H 0.72885 0.10658 0.29094 0.0
H123 H 0.66782 0.96198 0.37388 0.0
H124 H 0.64483 0.91821 0.44386 0.0
H125 H 0.79682 0.99729 0.48743 0.0
H126 H 0.82052 0.04202 0.41795 0.0
C127 C 0.87561 1.01179 0.16922 0.0
C128 C 0.9222 0.01906 0.18561 0.0
C129 C 0.83962 0.02244 0.19866 0.0
C130 C 0.84989 0.04142 0.24479 0.0
C131 C 0.89689 0.04971 0.26074 0.0
C132 C 0.93253 0.03865 0.2316 0.0
C133 C 0.81118 0.05071 0.2772 0.0
C134 C 0.798 0.02841 0.31858 0.0
C135 C 0.78623 0.0797 0.26726 0.0
C136 C 0.79999 0.10614 0.22514 0.0
C137 C 0.8507 0.13685 0.21396 0.0
C138 C 0.86354 0.15991 0.17328 0.0
C139 C 0.82593 0.15363 0.144 0.0
C140 C 0.77536 0.12401 0.15523 0.0
C141 C 0.76236 0.10029 0.19556 0.0
C142 C 0.65906 0.07942 0.44878 0.0
C143 C 0.60973 0.06008 0.43311 0.0
C144 C 0.70023 0.08275 0.41799 0.0
C145 C 0.69287 0.06649 0.371 0.0
C146 C 0.64427 0.05056 0.35483 0.0
C147 C 0.60316 0.04733 0.38552 0.0
C148 C 0.73443 0.0615 0.33955 0.0
C149 C 0.74788 0.08432 0.2984 0.0
C150 C 0.75982 0.033 0.34954 0.0
C151 C 0.74578 1.00569 0.391 0.0
C152 C 0.69624 0.97024 0.39854 0.0
C153 C 0.68309 0.94524 0.43809 0.0
C154 C 0.7193 0.95507 0.47014 0.0
C155 C 0.76879 0.98978 0.46261 0.0
C156 C 0.78211 1.01495 0.42315 0.0
H157 H 0.70905 0.93571 0.50076 0.0
H158 H 0.83598 0.1717 0.11262 0.0
H159 H 0.12277 0.88466 0.17605 0.0
H160 H 0.14907 0.8455 0.23035 0.0
H161 H 1.01088 0.82094 0.31323 0.0
H162 H 0.98597 0.86196 0.26052 0.0
H163 H 0.08098 0.85419 0.36758 0.0
H164 H 0.04142 0.72694 0.23843 0.0
H165 H 0.05079 0.69407 0.15802 0.0
H166 H 0.20842 0.73374 0.17423 0.0
H167 H 0.1999 0.76718 0.25458 0.0
H168 H 0.08082 0.6144 0.44135 0.0
H169 H 0.08289 0.66297 0.38045 0.0
H170 H 0.16413 0.79645 0.46645 0.0
H171 H 0.15786 0.74749 0.529 0.0
H172 H 0.13845 0.71968 0.32668 0.0
H173 H 0.14669 0.89251 0.43966 0.0
H174 H 0.12876 0.91933 0.52012 0.0
H175 H 0.01209 0.77508 0.53603 0.0
H176 H 0.02938 0.74767 0.45552 0.0
C177 C 0.09759 0.86996 0.20538 0.0
C178 C 0.05224 0.87647 0.2139 0.0
C179 C 0.11275 0.84764 0.23663 0.0
C180 C 0.08218 0.83015 0.2764 0.0
C181 C 0.03575 0.83462 0.28343 0.0
C182 C 0.02118 0.8577 0.25288 0.0
C183 C 0.09813 0.80834 0.31173 0.0
C184 C 0.09333 0.82458 0.35846 0.0
C185 C 0.11533 0.77036 0.30043 0.0
C186 C 0.12025 0.75013 0.25224 0.0
C187 C 0.07813 0.72893 0.2247 0.0
C188 C 0.08326 0.71014 0.17917 0.0
C189 C 0.13021 0.71197 0.16096 0.0
C190 C 0.1721 0.73245 0.18831 0.0
C191 C 0.16715 0.75131 0.23383 0.0
C192 C 0.09972 0.65413 0.4471 0.0
C193 C 0.11876 0.6771 0.49021 0.0
C194 C 0.10097 0.68211 0.41205 0.0
C195 C 0.12239 0.73389 0.41866 0.0
C196 C 0.14544 0.75678 0.46052 0.0
C197 C 0.14251 0.72874 0.49627 0.0
C198 C 0.11744 0.76285 0.38273 0.0
C199 C 0.12561 0.74893 0.33587 0.0
C200 C 0.1015 0.80182 0.39388 0.0
C201 C 0.08987 0.81799 0.4419 0.0
C202 C 0.11724 0.86665 0.46037 0.0
C203 C 0.10719 0.88191 0.50595 0.0
C204 C 0.06944 0.84886 0.53326 0.0
C205 C 0.04145 0.80058 0.51491 0.0
C206 C 0.05138 0.78517 0.46931 0.0
H207 H 0.06178 0.86068 0.56859 0.0
H208 H 0.1341 0.69741 0.12571 0.0
H209 H 0.09049 0.98988 0.2682 0.0
H210 H 0.11946 0.96029 0.32845 0.0
H211 H 0.25302 0.97166 0.24326 0.0
H212 H 0.2231 0.99897 0.18203 0.0
H213 H 0.21768 0.88994 0.28519 0.0
H214 H 0.25071 0.06241 0.33384 0.0
H215 H 0.2249 0.1312 0.35508 0.0
H216 H 0.1228 0.05274 0.46217 0.0
H217 H 0.14763 0.98326 0.44118 0.0
H218 H 0.41169 0.93791 0.43319 0.0
H219 H 0.35163 0.93082 0.37783 0.0
H220 H 0.23664 0.91397 0.48747 0.0
H221 H 0.29716 0.9221 0.54354 0.0
H222 H 0.24562 0.98492 0.43903 0.0
H223 H 0.22663 0.82149 0.40223 0.0
H224 H 0.24882 0.7505 0.38192 0.0
H225 H 0.322 0.80825 0.2548 0.0
H226 H 0.29986 0.87944 0.27434 0.0
C227 C 0.12601 0.98601 0.26221 0.0
C228 C 0.15451 0.9969 0.22021 0.0
C229 C 0.14262 0.96923 0.29683 0.0
C230 C 0.18882 0.96434 0.29075 0.0
C231 C 0.21722 0.97504 0.24881 0.0
C232 C 0.20029 0.99114 0.21394 0.0
C233 C 0.20889 0.94989 0.32837 0.0
C234 C 0.22405 0.91081 0.31877 0.0
C235 C 0.21521 0.97565 0.37294 0.0
C236 C 0.20061 0.01752 0.38564 0.0
C237 C 0.22254 0.05976 0.36173 0.0
C238 C 0.20812 0.09886 0.37374 0.0
C239 C 0.17212 0.09628 0.40986 0.0
C240 C 0.15059 0.05465 0.43414 0.0
C241 C 0.16484 0.01542 0.42223 0.0
C242 C 0.37334 0.9316 0.44556 0.0
C243 C 0.35949 0.93111 0.49294 0.0
C244 C 0.33882 0.92724 0.41371 0.0
C245 C 0.28948 0.92182 0.42835 0.0
C246 C 0.27454 0.91828 0.47533 0.0
C247 C 0.30916 0.92271 0.50734 0.0
C248 C 0.25619 0.92601 0.39538 0.0
C249 C 0.23857 0.9633 0.40578 0.0
C250 C 0.24729 0.89826 0.35173 0.0
C251 C 0.26145 0.85585 0.33987 0.0
C252 C 0.24753 0.81912 0.37004 0.0
C253 C 0.26004 0.77877 0.35861 0.0
C254 C 0.28688 0.77487 0.3171 0.0
C255 C 0.3012 0.81131 0.28695 0.0
C256 C 0.28839 0.85154 0.29811 0.0
H257 H 0.29657 0.74362 0.30828 0.0
H258 H 0.161 0.12659 0.41911 0.0
H259 H 0.87501 0.86187 0.95245 0.0
H260 H 0.88158 0.79839 0.89476 0.0
H261 H 0.02436 0.82163 0.946 0.0
H262 H 0.01885 0.88639 1.00311 0.0
H263 H 0.03416 0.82663 0.85741 0.0
H264 H 0.91364 0.71296 0.95682 0.0
H265 H 0.83424 0.67694 1.00399 0.0
H266 H 0.74822 0.64766 0.88467 0.0
H267 H 0.82712 0.68411 0.83687 0.0
H268 H 0.07751 0.63343 0.73125 0.0
H269 H 0.05424 0.68272 0.79393 0.0
H270 H 0.92628 0.66713 0.72101 0.0
H271 H 0.94937 0.61686 0.65734 0.0
H272 H 0.90497 0.65804 0.81719 0.0
H273 H 0.0281 0.77069 0.71793 0.0
H274 H 0.10884 0.80471 0.67207 0.0
H275 H 0.19123 0.83507 0.79393 0.0
H276 H 0.11106 0.80061 0.84044 0.0
C277 C 0.90731 0.85278 0.95231 0.0
C278 C 0.94663 0.87965 0.98234 0.0
C279 C 0.91092 0.81622 0.91921 0.0
C280 C 0.95348 0.80511 0.91589 0.0
C281 C 0.99126 0.82973 0.94769 0.0
C282 C 0.98793 0.86661 0.98054 0.0
C283 C 0.96107 0.77157 0.87668 0.0
C284 C 1.00615 0.7895 0.84918 0.0
C285 C 0.9238 0.72372 0.8647 0.0
C286 C 0.8763 0.70172 0.89335 0.0
C287 C 0.87779 0.69921 0.9407 0.0
C288 C 0.83287 0.67864 0.96754 0.0
C289 C 0.78621 0.66014 0.94736 0.0
C290 C 0.78439 0.66206 0.90027 0.0
C291 C 0.8292 0.68262 0.87327 0.0
C292 C 0.04421 0.64013 0.72834 0.0
C293 C 0.01558 0.62158 0.68895 0.0
C294 C 0.03102 0.66844 0.76434 0.0
C295 C 0.98906 0.67929 0.76182 0.0
C296 C 0.95899 0.65933 0.72346 0.0
C297 C 0.97223 0.63073 0.68715 0.0
C298 C 0.97837 0.71294 0.79887 0.0
C299 C 0.93277 0.69522 0.82563 0.0
C300 C 0.01525 0.761 0.81046 0.0
C301 C 0.06352 0.78255 0.7826 0.0
C302 C 0.06343 0.78431 0.73491 0.0
C303 C 0.10909 0.80372 0.70881 0.0
C304 C 0.15507 0.82173 0.73007 0.0
C305 C 0.15555 0.82093 0.77752 0.0
C306 C 0.11002 0.80151 0.80377 0.0
H307 H 0.19037 0.83617 0.70982 0.0
H308 H 0.75148 0.64423 0.9682 0.0
H309 H 0.16572 0.04761 0.99195 0.0
H310 H 0.2343 0.0535 0.93347 0.0
H311 H 0.13488 0.0352 0.82641 0.0
H312 H 0.06659 0.02763 0.88378 0.0
H313 H 0.18498 0.98363 0.79918 0.0
H314 H 0.23017 0.1505 0.86741 0.0
H315 H 0.25091 0.21732 0.93078 0.0
H316 H 0.3777 0.19017 0.96067 0.0
H317 H 0.35731 0.12274 0.89779 0.0
H318 H 0.35204 0.07304 0.60964 0.0
H319 H 0.29451 0.07165 0.67672 0.0
H320 H 0.4014 0.06589 0.76463 0.0
H321 H 0.45951 0.06754 0.69767 0.0
H322 H 0.35235 0.12579 0.805 0.0
H323 H 0.30911 0.96365 0.72632 0.0
H324 H 0.28912 0.90408 0.65712 0.0
H325 H 0.1551 0.92634 0.64326 0.0
H326 H 0.17518 0.98738 0.71149 0.0
C327 C 0.15858 0.04474 0.95592 0.0
C328 C 0.11057 0.03725 0.94275 0.0
C329 C 0.19788 0.04833 0.92246 0.0
C330 C 0.19012 0.0453 0.87528 0.0
C331 C 0.14207 0.03747 0.86236 0.0
C332 C 0.10291 0.03334 0.89547 0.0
C333 C 0.23144 0.05044 0.83885 0.0
C334 C 0.22138 0.01498 0.80044 0.0
C335 C 0.27953 0.09074 0.84053 0.0
C336 C 0.29185 0.13122 0.87829 0.0
C337 C 0.26224 0.15854 0.88774 0.0
C338 C 0.27397 0.19656 0.92352 0.0
C339 C 0.3155 0.20788 0.94984 0.0
C340 C 0.34548 0.18129 0.94033 0.0
C341 C 0.33387 0.14319 0.90461 0.0
C342 C 0.36388 0.07242 0.64329 0.0
C343 C 0.41032 0.06997 0.64809 0.0
C344 C 0.33077 0.07142 0.68164 0.0
C345 C 0.34323 0.06777 0.72562 0.0
C346 C 0.39087 0.06846 0.73102 0.0
C347 C 0.42404 0.06937 0.69262 0.0
C348 C 0.30515 0.05977 0.76515 0.0
C349 C 0.31599 0.09437 0.80408 0.0
C350 C 0.25739 0.01909 0.76363 0.0
C351 C 0.24403 0.98063 0.7238 0.0
C352 C 0.27559 0.95619 0.70834 0.0
C353 C 0.26435 0.92229 0.66916 0.0
C354 C 0.22105 0.91169 0.64563 0.0
C355 C 0.18876 0.93478 0.6614 0.0
C356 C 0.20011 0.96911 0.70028 0.0
H357 H 0.21234 0.88533 0.61537 0.0
H358 H 0.32453 0.23733 0.97752 0.0
H359 H 0.03277 0.22248 0.96198 0.0
H360 H 0.04972 0.28629 0.91061 0.0
H361 H 0.98115 0.17339 0.8006 0.0
H362 H 0.96828 0.11046 0.85082 0.0
H363 H 0.05505 0.23275 0.76471 0.0
H364 H 0.9286 0.26042 0.87038 0.0
H365 H 0.89153 0.27832 0.94626 0.0
H366 H 0.02077 0.41608 0.96636 0.0
H367 H 0.0587 0.39856 0.89073 0.0
H368 H 0.99353 0.36457 0.61706 0.0
H369 H 0.99364 0.31335 0.67483 0.0
H370 H 0.10651 0.43956 0.74727 0.0
H371 H 0.10666 0.4916 0.68884 0.0
H372 H 0.02258 0.38283 0.80486 0.0
H373 H 0.14106 0.35484 0.69071 0.0
H374 H 0.1709 0.33395 0.61245 0.0
H375 H 0.0457 0.19215 0.60614 0.0
H376 H 0.01463 0.21244 0.68406 0.0
C377 C 0.02048 0.21161 0.92704 0.0
C378 C 0.99865 0.1616 0.91048 0.0
C379 C 0.02998 0.24812 0.89757 0.0
C380 C 0.01594 0.2353 0.85142 0.0
C381 C 0.99251 0.18496 0.83574 0.0
C382 C 0.98463 0.14872 0.86464 0.0
C383 C 0.0276 0.27338 0.81841 0.0
C384 C 0.04705 0.26506 0.77368 0.0
C385 C 0.01947 0.31709 0.82984 0.0
C386 C 0.99663 0.32784 0.87515 0.0
C387 C 0.94913 0.29433 0.89112 0.0
C388 C 0.92799 0.30444 0.93405 0.0
C389 C 0.95386 0.34825 0.9612 0.0
C390 C 1.00082 0.38211 0.94534 0.0
C391 C 0.02212 0.3721 0.90243 0.0
C392 C 0.01891 0.38151 0.64493 0.0
C393 C 0.05022 0.43221 0.64824 0.0
C394 C 0.01895 0.35206 0.67798 0.0
C395 C 0.05017 0.37245 0.71539 0.0
C396 C 0.08213 0.423 0.71865 0.0
C397 C 0.08253 0.4526 0.68507 0.0
C398 C 0.04771 0.34061 0.75134 0.0
C399 C 0.03046 0.35038 0.79643 0.0
C400 C 0.05662 0.29757 0.74005 0.0
C401 C 0.07541 0.28528 0.69319 0.0
C402 C 0.11969 0.31934 0.67252 0.0
C403 C 0.13685 0.30758 0.62823 0.0
C404 C 0.11022 0.26175 0.60436 0.0
C405 C 0.06632 0.22761 0.62469 0.0
C406 C 0.04896 0.2392 0.66894 0.0
H407 H 0.12366 0.25261 0.57018 0.0
H408 H 0.93747 0.35602 0.99446 0.0
H409 H 0.91106 0.02574 0.87016 0.0
H410 H 0.85522 1.01477 0.80849 0.0
H411 H 0.73337 1.00317 0.90958 0.0
H412 H 0.78877 0.01505 0.97117 0.0
H413 H 0.7064 0.92605 0.83975 0.0
H414 H 0.78602 0.10248 0.85714 0.0
H415 H 0.85546 0.18508 0.85937 0.0
H416 H 0.90308 0.15378 0.71992 0.0
H417 H 0.83387 0.07045 0.71705 0.0
H418 H 0.52056 0.95588 0.72532 0.0
H419 H 0.5847 0.95916 0.77464 0.0
H420 H 0.69043 0.97609 0.6571 0.0
H421 H 0.62641 0.97311 0.60738 0.0
H422 H 0.73141 0.04551 0.72795 0.0
H423 H 0.64398 0.87092 0.70882 0.0
H424 H 0.57032 0.79078 0.70726 0.0
H425 H 0.53584 0.81973 0.85102 0.0
H426 H 0.60889 0.90039 0.85332 0.0
C427 C 0.87264 0.02172 0.87929 0.0
C428 C 0.85447 0.02125 0.92566 0.0
C429 C 0.84076 0.01533 0.84399 0.0
C430 C 0.79006 1.00785 0.85448 0.0
C431 C 0.77227 1.00855 0.90072 0.0
C432 C 0.80415 0.01554 0.93592 0.0
C433 C 0.75459 0.99718 0.81754 0.0
C434 C 0.71167 0.95227 0.81545 0.0
C435 C 0.76234 0.03076 0.78499 0.0
C436 C 0.80516 0.08001 0.78709 0.0
C437 C 0.81169 0.11292 0.82714 0.0
C438 C 0.8509 0.16 0.82844 0.0
C439 C 0.88367 0.1748 0.78974 0.0
C440 C 0.87755 0.14231 0.74981 0.0
C441 C 0.83834 0.09514 0.74834 0.0
C442 C 0.55711 0.95937 0.70972 0.0
C443 C 0.5683 0.96435 0.66239 0.0
C444 C 0.59378 0.96115 0.738 0.0
C445 C 0.64241 0.96779 0.71958 0.0
C446 C 0.6532 0.97101 0.67206 0.0
C447 C 0.6164 0.96897 0.64365 0.0
C448 C 0.68264 0.97468 0.75065 0.0
C449 C 0.72652 0.01884 0.75166 0.0
C450 C 0.67574 0.94045 0.78231 0.0
C451 C 0.63175 0.8919 0.78114 0.0
C452 C 0.62047 0.86038 0.74003 0.0
C453 C 0.57886 0.81482 0.73903 0.0
C454 C 0.54836 0.80021 0.77899 0.0
C455 C 0.55948 0.8311 0.82008 0.0
C456 C 0.60104 0.87672 0.82127 0.0
H457 H 0.51616 0.76492 0.77815 0.0
H458 H 0.91383 0.21139 0.79067 0.0
loop_
_geom_bond_atom_site_label_1
_geom_bond_atom_site_label_2
_geom_bond_distance
_geom_bond_site_symmetry_2
_ccdc_geom_bond_type
Co0 O3 2.042 . S
Co0 O10 2.264 1_565 S
Co0 O29 2.286 1_455 S
Co0 O30 2.069 . S
Co0 O32 2.015 1_455 S
Co1 O3 2.122 1_545 S
Co1 O9 2.073 . S
Co1 O10 2.327 . S
Co1 O11 1.976 . S
Co2 O3 2.087 1_545 S
Co2 O5 2.087 1_455 S
Co2 O12 2.111 . S
Co2 O13 2.143 . S
Co2 O17 2.111 1_445 S
Co2 O31 2.143 1_445 S
O3 Co0 2.042 . S
O3 Co1 2.122 1_565 S
O3 Co2 2.087 1_565 S
O3 H4 0.980 . S
H4 O3 0.980 . S
O5 Co2 2.087 1_655 S
O5 Co6 2.042 1_654 S
O5 Co7 2.122 1_544 S
O5 H8 0.980 . S
Co6 O5 2.042 1_456 S
Co6 O14 2.286 . S
Co6 O15 2.069 1_455 S
Co6 O16 2.015 . S
Co6 O19 2.264 1_455 S
Co7 O5 2.122 1_566 S
Co7 O18 1.976 . S
Co7 O19 2.327 1_565 S
Co7 O20 2.073 . S
H8 O5 0.980 . S
O9 Co1 2.073 . S
O9 C24 1.245 . S
O10 Co0 2.264 1_545 S
O10 Co1 2.327 . S
O10 C24 1.257 . S
O11 Co1 1.976 . S
O11 C23 1.251 . S
O12 Co2 2.111 . S
O12 C23 1.274 . S
O13 Co2 2.143 . S
O13 C26 1.246 1_554 S
O14 Co6 2.286 . S
O14 C25 1.255 1_455 S
O15 Co6 2.069 1_655 S
O15 C25 1.291 . S
O16 Co6 2.015 . S
O16 C26 1.257 . S
O17 Co2 2.111 1_665 S
O17 C27 1.274 1_554 S
O18 Co7 1.976 . S
O18 C27 1.251 . S
O19 Co6 2.264 1_655 S
O19 Co7 2.327 1_545 S
O19 C28 1.257 . S
O20 Co7 2.073 . S
O20 C28 1.245 1_565 S
C21 O29 1.259 1_455 S
C21 O30 1.289 . S
C22 O31 1.246 . S
C22 O32 1.257 . S
C23 O11 1.251 . S
C23 O12 1.274 . S
C24 O9 1.245 . S
C24 O10 1.257 . S
C25 O14 1.255 1_655 S
C25 O15 1.291 . S
C26 O13 1.246 1_556 S
C26 O16 1.257 . S
C27 O17 1.274 1_556 S
C27 O18 1.251 . S
C28 O19 1.257 . S
C28 O20 1.245 1_545 S
O29 Co0 2.286 1_655 S
O29 C21 1.259 1_655 S
O30 Co0 2.069 . S
O30 C21 1.289 . S
O31 Co2 2.143 1_665 S
O31 C22 1.246 . S
O32 Co0 2.015 1_655 S
O32 C22 1.257 . S
Mg33 O40 2.141 . S
Mg33 O41 2.048 . S
Mg33 O42 2.048 . S
Mg33 O45 2.141 . S
C34 O35 1.313 . S
C34 O41 1.195 1_455 S
O35 C34 1.313 . S
C36 O37 1.245 . S
C36 O45 1.289 1_455 S
O37 C36 1.245 . S
C38 O39 1.245 . S
C38 O40 1.289 1_455 S
O39 C38 1.245 . S
O40 Mg33 2.141 . S
O40 C38 1.289 1_655 S
O41 Mg33 2.048 . S
O41 C34 1.195 1_655 S
O42 Mg33 2.048 . S
O42 C43 1.195 1_655 S
C43 O42 1.195 1_455 S
C43 O44 1.313 . S
O44 C43 1.313 . S
O45 Mg33 2.141 . S
O45 C36 1.289 1_655 S
Mg46 O53 2.141 . S
Mg46 O54 2.048 . S
Mg46 O55 2.048 . S
Mg46 O58 2.141 . S
C47 O48 1.313 1_545 S
C47 O54 1.195 . S
O48 C47 1.313 1_565 S
C49 O50 1.243 1_545 S
C49 O58 1.291 . S
O50 C49 1.243 1_565 S
C51 O52 1.243 1_545 S
C51 O53 1.290 . S
O52 C51 1.243 1_565 S
O53 Mg46 2.141 . S
O53 C51 1.290 . S
O54 Mg46 2.048 . S
O54 C47 1.195 . S
O55 Mg46 2.048 . S
O55 C56 1.195 . S
C56 O55 1.195 . S
C56 O57 1.313 1_545 S
O57 C56 1.313 1_565 S
O58 Mg46 2.141 . S
O58 C49 1.291 . S
H59 C77 0.951 . S
H60 C79 0.951 . S
H61 C81 0.950 . S
H62 C82 0.950 . S
H63 C84 0.950 . S
H64 C87 0.950 . S
H65 C88 0.950 . S
H66 C90 0.950 . S
H67 C91 0.950 . S
H68 C92 0.951 . S
H69 C94 0.951 . S
H70 C96 0.950 . S
H71 C97 0.950 . S
H72 C99 0.950 . S
H73 C102 0.950 . S
H74 C103 0.950 . S
H75 C105 0.950 . S
H76 C106 0.950 . S
C77 H59 0.951 . S
C77 C78 1.366 1_655 S
C77 C79 1.388 . S
C78 C77 1.366 1_455 S
C78 C82 1.385 . S
C79 H60 0.951 . S
C79 C77 1.388 . S
C79 C80 1.366 1_655 S
C80 C79 1.366 1_455 S
C80 C81 1.414 . S
C80 C83 1.499 . S
C81 H61 0.950 . S
C81 C80 1.414 . S
C81 C82 1.374 . S
C82 H62 0.950 . S
C82 C78 1.385 . S
C82 C81 1.374 . S
C83 C80 1.499 . S
C83 C84 1.373 . S
C83 C85 1.389 1_455 S
C84 H63 0.950 . S
C84 C83 1.373 . S
C84 C100 1.377 . S
C85 C83 1.389 1_655 S
C85 C86 1.524 . S
C85 C99 1.377 . S
C86 C85 1.524 . S
C86 C87 1.397 . S
C86 C91 1.363 . S
C87 H64 0.950 . S
C87 C86 1.397 . S
C87 C88 1.334 . S
C88 H65 0.950 . S
C88 C87 1.334 . S
C88 C89 1.287 . S
C89 C88 1.287 . S
C89 C90 1.524 . S
C89 H108 0.913 . S
C90 H66 0.950 . S
C90 C89 1.524 . S
C90 C91 1.415 . S
C91 H67 0.950 . S
C91 C86 1.363 . S
C91 C90 1.415 . S
C92 H68 0.951 . S
C92 C93 1.366 . S
C92 C94 1.388 . S
C93 C92 1.366 . S
C93 C97 1.385 1_455 S
C94 H69 0.951 . S
C94 C92 1.388 . S
C94 C95 1.366 . S
C95 C94 1.366 . S
C95 C96 1.414 1_455 S
C95 C98 1.499 . S
C96 H70 0.950 . S
C96 C95 1.414 1_655 S
C96 C97 1.374 . S
C97 H71 0.950 . S
C97 C93 1.385 1_655 S
C97 C96 1.374 . S
C98 C95 1.499 . S
C98 C99 1.373 1_455 S
C98 C100 1.389 . S
C99 H72 0.950 . S
C99 C85 1.377 . S
C99 C98 1.373 1_655 S
C100 C84 1.377 . S
C100 C98 1.389 . S
C100 C101 1.524 . S
C101 C100 1.524 . S
C101 C102 1.397 . S
C101 C106 1.363 . S
C102 H73 0.950 . S
C102 C101 1.397 . S
C102 C103 1.334 . S
C103 H74 0.950 . S
C103 C102 1.334 . S
C103 C104 1.287 . S
C104 C103 1.287 . S
C104 C105 1.524 . S
C104 H107 0.999 . S
C105 H75 0.950 . S
C105 C104 1.524 . S
C105 C106 1.415 . S
C106 H76 0.950 . S
C106 C101 1.363 . S
C106 C105 1.415 . S
H107 C104 0.999 . S
H108 C89 0.913 . S
H109 C127 0.951 . S
H110 C129 0.951 . S
H111 C131 0.950 . S
H112 C132 0.944 . S
H113 C134 0.950 . S
H114 C137 0.950 . S
H115 C138 0.950 . S
H116 C140 0.950 . S
H117 C141 0.950 . S
H118 C142 0.951 . S
H119 C144 0.951 . S
H120 C146 0.947 . S
H121 C147 0.955 1_565 S
H122 C149 0.950 . S
H123 C152 0.950 . S
H124 C153 0.950 . S
H125 C155 0.950 . S
H126 C156 0.950 . S
C127 H109 0.951 . S
C127 C128 1.366 . S
C127 C129 1.388 . S
C128 C127 1.366 . S
C128 C132 1.388 1_565 S
C129 H110 0.951 . S
C129 C127 1.388 . S
C129 C130 1.366 1_565 S
C130 C129 1.366 1_545 S
C130 C131 1.414 . S
C130 C133 1.499 . S
C131 H111 0.950 . S
C131 C130 1.414 . S
C131 C132 1.377 . S
C132 H112 0.944 . S
C132 C128 1.388 1_545 S
C132 C131 1.377 . S
C133 C130 1.499 . S
C133 C134 1.373 1_545 S
C133 C135 1.389 . S
C134 H113 0.950 . S
C134 C133 1.373 1_565 S
C134 C150 1.377 . S
C135 C133 1.389 . S
C135 C136 1.524 . S
C135 C149 1.377 . S
C136 C135 1.524 . S
C136 C137 1.397 . S
C136 C141 1.363 . S
C137 H114 0.950 . S
C137 C136 1.397 . S
C137 C138 1.334 . S
C138 H115 0.950 . S
C138 C137 1.334 . S
C138 C139 1.287 . S
C139 C138 1.287 . S
C139 C140 1.524 . S
C139 H158 0.913 . S
C140 H116 0.950 . S
C140 C139 1.524 . S
C140 C141 1.415 . S
C141 H117 0.950 . S
C141 C136 1.363 . S
C141 C140 1.415 . S
C142 H118 0.951 . S
C142 C143 1.366 . S
C142 C144 1.388 . S
C143 C142 1.366 . S
C143 C147 1.385 . S
C144 H119 0.951 . S
C144 C142 1.388 . S
C144 C145 1.361 . S
C145 C144 1.361 . S
C145 C146 1.431 1_545 S
C145 C148 1.490 1_545 S
C146 H120 0.947 . S
C146 C145 1.431 1_565 S
C146 C147 1.371 1_565 S
C147 H121 0.955 1_545 S
C147 C143 1.385 . S
C147 C146 1.371 1_545 S
C148 C145 1.490 1_565 S
C148 C149 1.359 1_565 S
C148 C150 1.406 . S
C149 H122 0.950 . S
C149 C135 1.377 . S
C149 C148 1.359 1_545 S
C150 C134 1.377 . S
C150 C148 1.406 . S
C150 C151 1.524 . S
C151 C150 1.524 . S
C151 C152 1.397 . S
C151 C156 1.363 . S
C152 H123 0.950 . S
C152 C151 1.397 . S
C152 C153 1.334 . S
C153 H124 0.950 . S
C153 C152 1.334 . S
C153 C154 1.287 . S
C154 C153 1.287 . S
C154 C155 1.524 . S
C154 H157 0.999 . S
C155 H125 0.950 . S
C155 C154 1.524 . S
C155 C156 1.415 . S
C156 H126 0.950 . S
C156 C151 1.363 . S
C156 C155 1.415 . S
H157 C154 0.999 . S
H158 C139 0.913 . S
H159 C177 0.951 . S
H160 C179 0.951 . S
H161 C181 0.950 . S
H162 C182 0.950 . S
H163 C184 0.950 . S
H164 C187 0.950 . S
H165 C188 0.950 . S
H166 C190 0.950 . S
H167 C191 0.950 . S
H168 C192 0.951 . S
H169 C194 0.951 . S
H170 C196 0.950 . S
H171 C197 0.950 . S
H172 C199 0.950 . S
H173 C202 0.950 . S
H174 C203 0.950 . S
H175 C205 0.950 . S
H176 C206 0.950 . S
C177 H159 0.951 . S
C177 C178 1.366 . S
C177 C179 1.388 . S
C178 C177 1.366 . S
C178 C182 1.385 1_455 S
C179 H160 0.951 . S
C179 C177 1.388 . S
C179 C180 1.366 . S
C180 C179 1.366 . S
C180 C181 1.414 1_455 S
C180 C183 1.499 . S
C181 H161 0.950 . S
C181 C180 1.414 1_655 S
C181 C182 1.374 . S
C182 H162 0.950 . S
C182 C178 1.385 1_655 S
C182 C181 1.374 . S
C183 C180 1.499 . S
C183 C184 1.373 1_455 S
C183 C185 1.389 . S
C184 H163 0.950 . S
C184 C183 1.373 1_655 S
C184 C200 1.377 . S
C185 C183 1.389 . S
C185 C186 1.524 . S
C185 C199 1.377 . S
C186 C185 1.524 . S
C186 C187 1.397 . S
C186 C191 1.363 . S
C187 H164 0.950 . S
C187 C186 1.397 . S
C187 C188 1.334 . S
C188 H165 0.950 . S
C188 C187 1.334 . S
C188 C189 1.287 . S
C189 C188 1.287 . S
C189 C190 1.524 . S
C189 H208 0.913 . S
C190 H166 0.950 . S
C190 C189 1.524 . S
C190 C191 1.415 . S
C191 H167 0.950 . S
C191 C186 1.363 . S
C191 C190 1.415 . S
C192 H168 0.951 . S
C192 C193 1.366 1_655 S
C192 C194 1.388 . S
C193 C192 1.366 1_455 S
C193 C197 1.385 . S
C194 H169 0.951 . S
C194 C192 1.388 . S
C194 C195 1.366 1_655 S
C195 C194 1.366 1_455 S
C195 C196 1.414 . S
C195 C198 1.499 . S
C196 H170 0.950 . S
C196 C195 1.414 . S
C196 C197 1.374 . S
C197 H171 0.950 . S
C197 C193 1.385 . S
C197 C196 1.374 . S
C198 C195 1.499 . S
C198 C199 1.373 . S
C198 C200 1.389 1_455 S
C199 H172 0.950 . S
C199 C185 1.377 . S
C199 C198 1.373 . S
C200 C184 1.377 . S
C200 C198 1.389 1_655 S
C200 C201 1.524 . S
C201 C200 1.524 . S
C201 C202 1.397 . S
C201 C206 1.363 . S
C202 H173 0.950 . S
C202 C201 1.397 . S
C202 C203 1.334 . S
C203 H174 0.950 . S
C203 C202 1.334 . S
C203 C204 1.287 . S
C204 C203 1.287 . S
C204 C205 1.524 . S
C204 H207 0.999 . S
C205 H175 0.950 . S
C205 C204 1.524 . S
C205 C206 1.415 . S
C206 H176 0.950 . S
C206 C201 1.363 . S
C206 C205 1.415 . S
H207 C204 0.999 . S
H208 C189 0.913 . S
H209 C227 0.951 . S
H210 C229 0.951 . S
H211 C231 0.950 . S
H212 C232 0.950 . S
H213 C234 0.950 . S
H214 C237 0.950 . S
H215 C238 0.950 . S
H216 C240 0.950 . S
H217 C241 0.950 . S
H218 C242 0.951 . S
H219 C244 0.951 . S
H220 C246 0.950 . S
H221 C247 0.950 . S
H222 C249 0.950 . S
H223 C252 0.950 . S
H224 C253 0.950 . S
H225 C255 0.950 . S
H226 C256 0.950 . S
C227 H209 0.951 . S
C227 C228 1.366 . S
C227 C229 1.388 . S
C228 C227 1.366 . S
C228 C232 1.385 1_565 S
C229 H210 0.951 . S
C229 C227 1.388 . S
C229 C230 1.366 . S
C230 C229 1.366 . S
C230 C231 1.414 1_565 S
C230 C233 1.499 . S
C231 H211 0.950 . S
C231 C230 1.414 1_545 S
C231 C232 1.374 . S
C232 H212 0.950 . S
C232 C228 1.385 1_545 S
C232 C231 1.374 . S
C233 C230 1.499 . S
C233 C234 1.373 1_565 S
C233 C235 1.389 . S
C234 H213 0.950 . S
C234 C233 1.373 1_545 S
C234 C250 1.385 . S
C235 C233 1.389 . S
C235 C236 1.524 . S
C235 C249 1.377 . S
C236 C235 1.524 . S
C236 C237 1.397 1_565 S
C236 C241 1.363 . S
C237 H214 0.950 . S
C237 C236 1.397 1_545 S
C237 C238 1.334 . S
C238 H215 0.950 . S
C238 C237 1.334 . S
C238 C239 1.287 . S
C239 C238 1.287 . S
C239 C240 1.524 1_545 S
C239 H258 0.913 . S
C240 H216 0.950 . S
C240 C239 1.524 1_565 S
C240 C241 1.415 . S
C241 H217 0.950 . S
C241 C236 1.363 . S
C241 C240 1.415 . S
C242 H218 0.951 . S
C242 C243 1.366 . S
C242 C244 1.388 . S
C243 C242 1.366 . S
C243 C247 1.385 1_545 S
C244 H219 0.951 . S
C244 C242 1.388 . S
C244 C245 1.366 1_545 S
C245 C244 1.366 1_565 S
C245 C246 1.414 . S
C245 C248 1.499 . S
C246 H220 0.950 . S
C246 C245 1.414 . S
C246 C247 1.374 . S
C247 H221 0.950 . S
C247 C243 1.385 1_565 S
C247 C246 1.374 . S
C248 C245 1.499 . S
C248 C249 1.373 . S
C248 C250 1.387 1_565 S
C249 H222 0.950 . S
C249 C235 1.377 . S
C249 C248 1.373 . S
C250 C234 1.385 . S
C250 C248 1.387 1_545 S
C250 C251 1.525 . S
C251 C250 1.525 . S
C251 C252 1.375 1_545 S
C251 C256 1.376 . S
C252 H223 0.950 . S
C252 C251 1.375 1_565 S
C252 C253 1.334 . S
C253 H224 0.950 . S
C253 C252 1.334 . S
C253 C254 1.287 . S
C254 C253 1.287 . S
C254 C255 1.524 1_565 S
C254 H257 0.999 . S
C255 H225 0.950 . S
C255 C254 1.524 1_545 S
C255 C256 1.415 . S
C256 H226 0.950 . S
C256 C251 1.376 . S
C256 C255 1.415 . S
H257 C254 0.999 . S
H258 C239 0.913 . S
H259 C277 0.951 . S
H260 C279 0.951 . S
H261 C281 0.950 . S
H262 C282 0.950 . S
H263 C284 0.950 . S
H264 C287 0.950 . S
H265 C288 0.950 . S
H266 C290 0.950 . S
H267 C291 0.950 . S
H268 C292 0.951 . S
H269 C294 0.951 . S
H270 C296 0.950 . S
H271 C297 0.950 . S
H272 C299 0.950 . S
H273 C302 0.950 . S
H274 C303 0.950 . S
H275 C305 0.950 . S
H276 C306 0.950 . S
C277 H259 0.951 . S
C277 C278 1.363 1_655 S
C277 C279 1.388 . S
C278 C277 1.363 1_455 S
C278 C282 1.389 . S
C279 H260 0.951 . S
C279 C277 1.388 . S
C279 C280 1.381 . S
C280 C279 1.381 . S
C280 C281 1.403 1_655 S
C280 C283 1.490 1_655 S
C281 H261 0.950 . S
C281 C280 1.403 1_455 S
C281 C282 1.374 . S
C282 H262 0.950 . S
C282 C278 1.389 . S
C282 C281 1.374 . S
C283 C280 1.490 1_455 S
C283 C284 1.387 . S
C283 C285 1.380 1_455 S
C284 H263 0.950 . S
C284 C283 1.387 . S
C284 C300 1.377 . S
C285 C283 1.380 1_655 S
C285 C286 1.524 . S
C285 C299 1.377 . S
C286 C285 1.524 . S
C286 C287 1.397 . S
C286 C291 1.363 . S
C287 H264 0.950 . S
C287 C286 1.397 . S
C287 C288 1.334 . S
C288 H265 0.950 . S
C288 C287 1.334 . S
C288 C289 1.287 . S
C289 C288 1.287 . S
C289 C290 1.524 . S
C289 H308 0.913 . S
C290 H266 0.950 . S
C290 C289 1.524 . S
C290 C291 1.415 . S
C291 H267 0.950 . S
C291 C286 1.363 . S
C291 C290 1.415 . S
C292 H268 0.951 . S
C292 C293 1.366 . S
C292 C294 1.388 . S
C293 C292 1.366 . S
C293 C297 1.385 1_455 S
C294 H269 0.951 . S
C294 C292 1.388 . S
C294 C295 1.366 . S
C295 C294 1.366 . S
C295 C296 1.414 1_455 S
C295 C298 1.499 . S
C296 H270 0.950 . S
C296 C295 1.414 1_655 S
C296 C297 1.374 . S
C297 H271 0.950 . S
C297 C293 1.385 1_655 S
C297 C296 1.374 . S
C298 C295 1.499 . S
C298 C299 1.373 1_455 S
C298 C300 1.389 . S
C299 H272 0.950 . S
C299 C285 1.377 . S
C299 C298 1.373 1_655 S
C300 C284 1.377 . S
C300 C298 1.389 . S
C300 C301 1.524 . S
C301 C300 1.524 . S
C301 C302 1.397 . S
C301 C306 1.363 . S
C302 H273 0.950 . S
C302 C301 1.397 . S
C302 C303 1.334 . S
C303 H274 0.950 . S
C303 C302 1.334 . S
C303 C304 1.287 . S
C304 C303 1.287 . S
C304 C305 1.524 . S
C304 H307 0.999 . S
C305 H275 0.950 . S
C305 C304 1.524 . S
C305 C306 1.415 . S
C306 H276 0.950 . S
C306 C301 1.363 . S
C306 C305 1.415 . S
H307 C304 0.999 . S
H308 C289 0.913 . S
H309 C327 0.951 . S
H310 C329 0.951 . S
H311 C331 0.950 . S
H312 C332 0.950 . S
H313 C334 0.950 . S
H314 C337 0.950 . S
H315 C338 0.950 . S
H316 C340 0.950 . S
H317 C341 0.950 . S
H318 C342 0.951 . S
H319 C344 0.951 . S
H320 C346 0.950 . S
H321 C347 0.950 . S
H322 C349 0.950 . S
H323 C352 0.950 . S
H324 C353 0.950 . S
H325 C355 0.950 . S
H326 C356 0.950 . S
C327 H309 0.951 . S
C327 C328 1.366 . S
C327 C329 1.388 . S
C328 C327 1.366 . S
C328 C332 1.385 . S
C329 H310 0.951 . S
C329 C327 1.388 . S
C329 C330 1.366 . S
C330 C329 1.366 . S
C330 C331 1.414 . S
C330 C333 1.499 . S
C331 H311 0.950 . S
C331 C330 1.414 . S
C331 C332 1.374 . S
C332 H312 0.950 . S
C332 C328 1.385 . S
C332 C331 1.374 . S
C333 C330 1.499 . S
C333 C334 1.373 1_545 S
C333 C335 1.389 . S
C334 H313 0.950 . S
C334 C333 1.373 1_565 S
C334 C350 1.377 . S
C335 C333 1.389 . S
C335 C336 1.524 . S
C335 C349 1.377 . S
C336 C335 1.524 . S
C336 C337 1.397 . S
C336 C341 1.363 . S
C337 H314 0.950 . S
C337 C336 1.397 . S
C337 C338 1.334 . S
C338 H315 0.950 . S
C338 C337 1.334 . S
C338 C339 1.287 . S
C339 C338 1.287 . S
C339 C340 1.524 . S
C339 H358 0.913 . S
C340 H316 0.950 . S
C340 C339 1.524 . S
C340 C341 1.415 . S
C341 H317 0.950 . S
C341 C336 1.363 . S
C341 C340 1.415 . S
C342 H318 0.951 . S
C342 C343 1.366 . S
C342 C344 1.388 . S
C343 C342 1.366 . S
C343 C347 1.385 . S
C344 H319 0.951 . S
C344 C342 1.388 . S
C344 C345 1.366 . S
C345 C344 1.366 . S
C345 C346 1.414 . S
C345 C348 1.499 . S
C346 H320 0.950 . S
C346 C345 1.414 . S
C346 C347 1.374 . S
C347 H321 0.950 . S
C347 C343 1.385 . S
C347 C346 1.374 . S
C348 C345 1.499 . S
C348 C349 1.373 . S
C348 C350 1.389 1_545 S
C349 H322 0.950 . S
C349 C335 1.377 . S
C349 C348 1.373 . S
C350 C334 1.377 . S
C350 C348 1.389 1_565 S
C350 C351 1.524 . S
C351 C350 1.524 . S
C351 C352 1.397 . S
C351 C356 1.363 . S
C352 H323 0.950 . S
C352 C351 1.397 . S
C352 C353 1.334 . S
C353 H324 0.950 . S
C353 C352 1.334 . S
C353 C354 1.287 . S
C354 C353 1.287 . S
C354 C355 1.524 . S
C354 H357 0.999 . S
C355 H325 0.950 . S
C355 C354 1.524 . S
C355 C356 1.415 . S
C356 H326 0.950 . S
C356 C351 1.363 . S
C356 C355 1.415 . S
H357 C354 0.999 . S
H358 C339 0.913 . S
H359 C377 0.951 . S
H360 C379 0.951 . S
H361 C381 0.950 . S
H362 C382 0.950 . S
H363 C384 0.950 . S
H364 C387 0.950 . S
H365 C388 0.950 . S
H366 C390 0.950 . S
H367 C391 0.950 . S
H368 C392 0.951 . S
H369 C394 0.951 . S
H370 C396 0.950 . S
H371 C397 0.950 . S
H372 C399 0.950 . S
H373 C402 0.950 . S
H374 C403 0.950 . S
H375 C405 0.950 . S
H376 C406 0.950 . S
C377 H359 0.951 . S
C377 C378 1.366 1_455 S
C377 C379 1.388 . S
C378 C377 1.366 1_655 S
C378 C382 1.385 . S
C379 H360 0.951 . S
C379 C377 1.388 . S
C379 C380 1.366 1_455 S
C380 C379 1.366 1_655 S
C380 C381 1.414 . S
C380 C383 1.499 . S
C381 H361 0.950 . S
C381 C380 1.414 . S
C381 C382 1.374 . S
C382 H362 0.950 . S
C382 C378 1.385 . S
C382 C381 1.374 . S
C383 C380 1.499 . S
C383 C384 1.373 . S
C383 C385 1.389 . S
C384 H363 0.950 . S
C384 C383 1.373 . S
C384 C400 1.384 1_655 S
C385 C383 1.389 . S
C385 C386 1.524 . S
C385 C399 1.377 1_655 S
C386 C385 1.524 . S
C386 C387 1.397 . S
C386 C391 1.363 1_655 S
C387 H364 0.950 . S
C387 C386 1.397 . S
C387 C388 1.334 . S
C388 H365 0.950 . S
C388 C387 1.334 . S
C388 C389 1.287 . S
C389 C388 1.287 . S
C389 C390 1.524 1_655 S
C389 H408 0.913 . S
C390 H366 0.950 . S
C390 C389 1.524 1_455 S
C390 C391 1.415 . S
C391 H367 0.950 . S
C391 C386 1.363 1_455 S
C391 C390 1.415 . S
C392 H368 0.951 . S
C392 C393 1.366 1_655 S
C392 C394 1.388 . S
C393 C392 1.366 1_455 S
C393 C397 1.385 . S
C394 H369 0.951 . S
C394 C392 1.388 . S
C394 C395 1.366 1_655 S
C395 C394 1.366 1_455 S
C395 C396 1.414 . S
C395 C398 1.499 . S
C396 H370 0.950 . S
C396 C395 1.414 . S
C396 C397 1.374 . S
C397 H371 0.950 . S
C397 C393 1.385 . S
C397 C396 1.374 . S
C398 C395 1.499 . S
C398 C399 1.373 . S
C398 C400 1.381 . S
C399 H372 0.950 . S
C399 C385 1.377 1_455 S
C399 C398 1.373 . S
C400 C384 1.384 1_455 S
C400 C398 1.381 . S
C400 C401 1.528 . S
C401 C400 1.528 . S
C401 C402 1.397 . S
C401 C406 1.363 1_455 S
C402 H373 0.950 . S
C402 C401 1.397 . S
C402 C403 1.334 . S
C403 H374 0.950 . S
C403 C402 1.334 . S
C403 C404 1.287 . S
C404 C403 1.287 . S
C404 C405 1.524 1_455 S
C404 H407 0.999 . S
C405 H375 0.950 . S
C405 C404 1.524 1_655 S
C405 C406 1.415 . S
C406 H376 0.950 . S
C406 C401 1.363 1_655 S
C406 C405 1.415 . S
H407 C404 0.999 . S
H408 C389 0.913 . S
H409 C427 0.951 . S
H410 C429 0.951 . S
H411 C431 0.950 . S
H412 C432 0.950 . S
H413 C434 0.950 . S
H414 C437 0.950 . S
H415 C438 0.950 . S
H416 C440 0.950 . S
H417 C441 0.950 . S
H418 C442 0.951 . S
H419 C444 0.953 . S
H420 C446 0.950 . S
H421 C447 0.950 . S
H422 C449 0.950 . S
H423 C452 0.950 . S
H424 C453 0.950 . S
H425 C455 0.950 . S
H426 C456 0.950 . S
C427 H409 0.951 . S
C427 C428 1.366 . S
C427 C429 1.388 . S
C428 C427 1.366 . S
C428 C432 1.385 . S
C429 H410 0.951 . S
C429 C427 1.388 . S
C429 C430 1.366 . S
C430 C429 1.366 . S
C430 C431 1.414 . S
C430 C433 1.499 . S
C431 H411 0.950 . S
C431 C430 1.414 . S
C431 C432 1.374 . S
C432 H412 0.950 . S
C432 C428 1.385 . S
C432 C431 1.374 . S
C433 C430 1.499 . S
C433 C434 1.373 1_545 S
C433 C435 1.389 . S
C434 H413 0.950 . S
C434 C433 1.373 1_565 S
C434 C450 1.377 . S
C435 C433 1.389 . S
C435 C436 1.524 . S
C435 C449 1.377 . S
C436 C435 1.524 . S
C436 C437 1.397 . S
C436 C441 1.363 . S
C437 H414 0.950 . S
C437 C436 1.397 . S
C437 C438 1.334 . S
C438 H415 0.950 . S
C438 C437 1.334 . S
C438 C439 1.287 . S
C439 C438 1.287 . S
C439 C440 1.524 . S
C439 H458 0.913 . S
C440 H416 0.950 . S
C440 C439 1.524 . S
C440 C441 1.415 . S
C441 H417 0.950 . S
C441 C436 1.363 . S
C441 C440 1.415 . S
C442 H418 0.951 . S
C442 C443 1.366 1_565 S
C442 C444 1.384 . S
C443 C442 1.366 1_545 S
C443 C447 1.385 . S
C444 H419 0.953 . S
C444 C442 1.384 . S
C444 C445 1.368 1_565 S
C445 C444 1.368 1_545 S
C445 C446 1.414 . S
C445 C448 1.499 . S
C446 H420 0.950 . S
C446 C445 1.414 . S
C446 C447 1.374 . S
C447 H421 0.950 . S
C447 C443 1.385 . S
C447 C446 1.374 . S
C448 C445 1.499 . S
C448 C449 1.373 . S
C448 C450 1.389 1_545 S
C449 H422 0.950 . S
C449 C435 1.377 . S
C449 C448 1.373 . S
C450 C434 1.377 . S
C450 C448 1.389 1_565 S
C450 C451 1.524 . S
C451 C450 1.524 . S
C451 C452 1.397 . S
C451 C456 1.363 . S
C452 H423 0.950 . S
C452 C451 1.397 . S
C452 C453 1.334 . S
C453 H424 0.950 . S
C453 C452 1.334 . S
C453 C454 1.287 . S
C454 C453 1.287 . S
C454 C455 1.524 . S
C454 H457 0.999 . S
C455 H425 0.950 . S
C455 C454 1.524 . S
C455 C456 1.415 . S
C456 H426 0.950 . S
C456 C451 1.363 . S
C456 C455 1.415 . S
H457 C454 0.999 . S
H458 C439 0.913 . S
C78 C23 1.272 . S
C93 C34 1.343 . S
C128 C22 1.394 . S
C143 C56 1.438 . S
C178 C21 1.801 . S
C193 C43 1.810 . S
C228 C24 1.475 1_565 S
C243 C47 1.527 . S
C278 C27 1.200 1_455 S
C293 C36 1.267 . S
C328 C26 1.325 . S
C343 C51 1.367 . S
C393 C38 1.740 . S
C378 C25 1.734 . S
C428 C28 1.411 . S
C443 C49 1.462 . S
