# Generated by pormake.
# Topology gar, (4,6)-cn, num edge types: 1
# Building blocks:
#     Node 0, Type 0, BuildingBlock: GALJAG_clean_sbu_0, # of connection points: 4
#     Node 1, Type 0, BuildingBlock: GALJAG_clean_sbu_0, # of connection points: 4
#     Node 2, Type 0, BuildingBlock: GALJAG_clean_sbu_0, # of connection points: 4
#     Node 3, Type 0, BuildingBlock: GALJAG_clean_sbu_0, # of connection points: 4
#     Node 4, Type 0, BuildingBlock: GALJAG_clean_sbu_0, # of connection points: 4
#     Node 5, Type 0, BuildingBlock: GALJAG_clean_sbu_0, # of connection points: 4
#     Node 6, Type 0, BuildingBlock: GALJAG_clean_sbu_0, # of connection points: 4
#     Node 7, Type 0, BuildingBlock: GALJAG_clean_sbu_0, # of connection points: 4
#     Node 8, Type 0, BuildingBlock: GALJAG_clean_sbu_0, # of connection points: 4
#     Node 9, Type 0, BuildingBlock: GALJAG_clean_sbu_0, # of connection points: 4
#     Node 10, Type 0, BuildingBlock: GALJAG_clean_sbu_0, # of connection points: 4
#     Node 11, Type 0, BuildingBlock: GALJAG_clean_sbu_0, # of connection points: 4
#     Node 12, Type 0, BuildingBlock: GALJAG_clean_sbu_0, # of connection points: 4
#     Node 13, Type 0, BuildingBlock: GALJAG_clean_sbu_0, # of connection points: 4
#     Node 14, Type 0, BuildingBlock: GALJAG_clean_sbu_0, # of connection points: 4
#     Node 15, Type 0, BuildingBlock: GALJAG_clean_sbu_0, # of connection points: 4
#     Node 16, Type 0, BuildingBlock: GALJAG_clean_sbu_0, # of connection points: 4
#     Node 17, Type 0, BuildingBlock: GALJAG_clean_sbu_0, # of connection points: 4
#     Node 18, Type 0, BuildingBlock: GALJAG_clean_sbu_0, # of connection points: 4
#     Node 19, Type 0, BuildingBlock: GALJAG_clean_sbu_0, # of connection points: 4
#     Node 20, Type 0, BuildingBlock: GALJAG_clean_sbu_0, # of connection points: 4
#     Node 21, Type 0, BuildingBlock: GALJAG_clean_sbu_0, # of connection points: 4
#     Node 22, Type 0, BuildingBlock: GALJAG_clean_sbu_0, # of connection points: 4
#     Node 23, Type 0, BuildingBlock: GALJAG_clean_sbu_0, # of connection points: 4
#     Node 24, Type 1, BuildingBlock: BETFEN_clean_sbu_0, # of connection points: 6
#     Node 25, Type 1, BuildingBlock: BETFEN_clean_sbu_0, # of connection points: 6
#     Node 26, Type 1, BuildingBlock: BETFEN_clean_sbu_0, # of connection points: 6
#     Node 27, Type 1, BuildingBlock: BETFEN_clean_sbu_0, # of connection points: 6
#     Node 28, Type 1, BuildingBlock: BETFEN_clean_sbu_0, # of connection points: 6
#     Node 29, Type 1, BuildingBlock: BETFEN_clean_sbu_0, # of connection points: 6
#     Node 30, Type 1, BuildingBlock: BETFEN_clean_sbu_0, # of connection points: 6
#     Node 31, Type 1, BuildingBlock: BETFEN_clean_sbu_0, # of connection points: 6
#     Node 32, Type 1, BuildingBlock: BETFEN_clean_sbu_0, # of connection points: 6
#     Node 33, Type 1, BuildingBlock: BETFEN_clean_sbu_0, # of connection points: 6
#     Node 34, Type 1, BuildingBlock: BETFEN_clean_sbu_0, # of connection points: 6
#     Node 35, Type 1, BuildingBlock: BETFEN_clean_sbu_0, # of connection points: 6
#     Node 36, Type 1, BuildingBlock: BETFEN_clean_sbu_0, # of connection points: 6
#     Node 37, Type 1, BuildingBlock: BETFEN_clean_sbu_0, # of connection points: 6
#     Node 38, Type 1, BuildingBlock: BETFEN_clean_sbu_0, # of connection points: 6
#     Node 39, Type 1, BuildingBlock: BETFEN_clean_sbu_0, # of connection points: 6
#     Edge 40, Type (0, 1), BuildingBlock: UVAHIK_clean_linker_0, # of connection points: 2
#     Edge 41, Type (0, 1), BuildingBlock: UVAHIK_clean_linker_0, # of connection points: 2
#     Edge 42, Type (0, 1), BuildingBlock: UVAHIK_clean_linker_0, # of connection points: 2
#     Edge 43, Type (0, 1), BuildingBlock: UVAHIK_clean_linker_0, # of connection points: 2
#     Edge 44, Type (0, 1), BuildingBlock: UVAHIK_clean_linker_0, # of connection points: 2
#     Edge 45, Type (0, 1), BuildingBlock: UVAHIK_clean_linker_0, # of connection points: 2
#     Edge 46, Type (0, 1), BuildingBlock: UVAHIK_clean_linker_0, # of connection points: 2
#     Edge 47, Type (0, 1), BuildingBlock: UVAHIK_clean_linker_0, # of connection points: 2
#     Edge 48, Type (0, 1), BuildingBlock: UVAHIK_clean_linker_0, # of connection points: 2
#     Edge 49, Type (0, 1), BuildingBlock: UVAHIK_clean_linker_0, # of connection points: 2
#     Edge 50, Type (0, 1), BuildingBlock: UVAHIK_clean_linker_0, # of connection points: 2
#     Edge 51, Type (0, 1), BuildingBlock: UVAHIK_clean_linker_0, # of connection points: 2
#     Edge 52, Type (0, 1), BuildingBlock: UVAHIK_clean_linker_0, # of connection points: 2
#     Edge 53, Type (0, 1), BuildingBlock: UVAHIK_clean_linker_0, # of connection points: 2
#     Edge 54, Type (0, 1), BuildingBlock: UVAHIK_clean_linker_0, # of connection points: 2
#     Edge 55, Type (0, 1), BuildingBlock: UVAHIK_clean_linker_0, # of connection points: 2
#     Edge 56, Type (0, 1), BuildingBlock: UVAHIK_clean_linker_0, # of connection points: 2
#     Edge 57, Type (0, 1), BuildingBlock: UVAHIK_clean_linker_0, # of connection points: 2
#     Edge 58, Type (0, 1), BuildingBlock: UVAHIK_clean_linker_0, # of connection points: 2
#     Edge 59, Type (0, 1), BuildingBlock: UVAHIK_clean_linker_0, # of connection points: 2
#     Edge 60, Type (0, 1), BuildingBlock: UVAHIK_clean_linker_0, # of connection points: 2
#     Edge 61, Type (0, 1), BuildingBlock: UVAHIK_clean_linker_0, # of connection points: 2
#     Edge 62, Type (0, 1), BuildingBlock: UVAHIK_clean_linker_0, # of connection points: 2
#     Edge 63, Type (0, 1), BuildingBlock: UVAHIK_clean_linker_0, # of connection points: 2
#     Edge 64, Type (0, 1), BuildingBlock: UVAHIK_clean_linker_0, # of connection points: 2
#     Edge 65, Type (0, 1), BuildingBlock: UVAHIK_clean_linker_0, # of connection points: 2
#     Edge 66, Type (0, 1), BuildingBlock: UVAHIK_clean_linker_0, # of connection points: 2
#     Edge 67, Type (0, 1), BuildingBlock: UVAHIK_clean_linker_0, # of connection points: 2
#     Edge 68, Type (0, 1), BuildingBlock: UVAHIK_clean_linker_0, # of connection points: 2
#     Edge 69, Type (0, 1), BuildingBlock: UVAHIK_clean_linker_0, # of connection points: 2
#     Edge 70, Type (0, 1), BuildingBlock: UVAHIK_clean_linker_0, # of connection points: 2
#     Edge 71, Type (0, 1), BuildingBlock: UVAHIK_clean_linker_0, # of connection points: 2
#     Edge 72, Type (0, 1), BuildingBlock: UVAHIK_clean_linker_0, # of connection points: 2
#     Edge 73, Type (0, 1), BuildingBlock: UVAHIK_clean_linker_0, # of connection points: 2
#     Edge 74, Type (0, 1), BuildingBlock: UVAHIK_clean_linker_0, # of connection points: 2
#     Edge 75, Type (0, 1), BuildingBlock: UVAHIK_clean_linker_0, # of connection points: 2
#     Edge 76, Type (0, 1), BuildingBlock: UVAHIK_clean_linker_0, # of connection points: 2
#     Edge 77, Type (0, 1), BuildingBlock: UVAHIK_clean_linker_0, # of connection points: 2
#     Edge 78, Type (0, 1), BuildingBlock: UVAHIK_clean_linker_0, # of connection points: 2
#     Edge 79, Type (0, 1), BuildingBlock: UVAHIK_clean_linker_0, # of connection points: 2
#     Edge 80, Type (0, 1), BuildingBlock: UVAHIK_clean_linker_0, # of connection points: 2
#     Edge 81, Type (0, 1), BuildingBlock: UVAHIK_clean_linker_0, # of connection points: 2
#     Edge 82, Type (0, 1), BuildingBlock: UVAHIK_clean_linker_0, # of connection points: 2
#     Edge 83, Type (0, 1), BuildingBlock: UVAHIK_clean_linker_0, # of connection points: 2
#     Edge 84, Type (0, 1), BuildingBlock: UVAHIK_clean_linker_0, # of connection points: 2
#     Edge 85, Type (0, 1), BuildingBlock: UVAHIK_clean_linker_0, # of connection points: 2
#     Edge 86, Type (0, 1), BuildingBlock: UVAHIK_clean_linker_0, # of connection points: 2
#     Edge 87, Type (0, 1), BuildingBlock: UVAHIK_clean_linker_0, # of connection points: 2
#     Edge 88, Type (0, 1), BuildingBlock: UVAHIK_clean_linker_0, # of connection points: 2
#     Edge 89, Type (0, 1), BuildingBlock: UVAHIK_clean_linker_0, # of connection points: 2
#     Edge 90, Type (0, 1), BuildingBlock: UVAHIK_clean_linker_0, # of connection points: 2
#     Edge 91, Type (0, 1), BuildingBlock: UVAHIK_clean_linker_0, # of connection points: 2
#     Edge 92, Type (0, 1), BuildingBlock: UVAHIK_clean_linker_0, # of connection points: 2
#     Edge 93, Type (0, 1), BuildingBlock: UVAHIK_clean_linker_0, # of connection points: 2
#     Edge 94, Type (0, 1), BuildingBlock: UVAHIK_clean_linker_0, # of connection points: 2
#     Edge 95, Type (0, 1), BuildingBlock: UVAHIK_clean_linker_0, # of connection points: 2
#     Edge 96, Type (0, 1), BuildingBlock: UVAHIK_clean_linker_0, # of connection points: 2
#     Edge 97, Type (0, 1), BuildingBlock: UVAHIK_clean_linker_0, # of connection points: 2
#     Edge 98, Type (0, 1), BuildingBlock: UVAHIK_clean_linker_0, # of connection points: 2
#     Edge 99, Type (0, 1), BuildingBlock: UVAHIK_clean_linker_0, # of connection points: 2
#     Edge 100, Type (0, 1), BuildingBlock: UVAHIK_clean_linker_0, # of connection points: 2
#     Edge 101, Type (0, 1), BuildingBlock: UVAHIK_clean_linker_0, # of connection points: 2
#     Edge 102, Type (0, 1), BuildingBlock: UVAHIK_clean_linker_0, # of connection points: 2
#     Edge 103, Type (0, 1), BuildingBlock: UVAHIK_clean_linker_0, # of connection points: 2
#     Edge 104, Type (0, 1), BuildingBlock: UVAHIK_clean_linker_0, # of connection points: 2
#     Edge 105, Type (0, 1), BuildingBlock: UVAHIK_clean_linker_0, # of connection points: 2
#     Edge 106, Type (0, 1), BuildingBlock: UVAHIK_clean_linker_0, # of connection points: 2
#     Edge 107, Type (0, 1), BuildingBlock: UVAHIK_clean_linker_0, # of connection points: 2
#     Edge 108, Type (0, 1), BuildingBlock: UVAHIK_clean_linker_0, # of connection points: 2
#     Edge 109, Type (0, 1), BuildingBlock: UVAHIK_clean_linker_0, # of connection points: 2
#     Edge 110, Type (0, 1), BuildingBlock: UVAHIK_clean_linker_0, # of connection points: 2
#     Edge 111, Type (0, 1), BuildingBlock: UVAHIK_clean_linker_0, # of connection points: 2
#     Edge 112, Type (0, 1), BuildingBlock: UVAHIK_clean_linker_0, # of connection points: 2
#     Edge 113, Type (0, 1), BuildingBlock: UVAHIK_clean_linker_0, # of connection points: 2
#     Edge 114, Type (0, 1), BuildingBlock: UVAHIK_clean_linker_0, # of connection points: 2
#     Edge 115, Type (0, 1), BuildingBlock: UVAHIK_clean_linker_0, # of connection points: 2
#     Edge 116, Type (0, 1), BuildingBlock: UVAHIK_clean_linker_0, # of connection points: 2
#     Edge 117, Type (0, 1), BuildingBlock: UVAHIK_clean_linker_0, # of connection points: 2
#     Edge 118, Type (0, 1), BuildingBlock: UVAHIK_clean_linker_0, # of connection points: 2
#     Edge 119, Type (0, 1), BuildingBlock: UVAHIK_clean_linker_0, # of connection points: 2
#     Edge 120, Type (0, 1), BuildingBlock: UVAHIK_clean_linker_0, # of connection points: 2
#     Edge 121, Type (0, 1), BuildingBlock: UVAHIK_clean_linker_0, # of connection points: 2
#     Edge 122, Type (0, 1), BuildingBlock: UVAHIK_clean_linker_0, # of connection points: 2
#     Edge 123, Type (0, 1), BuildingBlock: UVAHIK_clean_linker_0, # of connection points: 2
#     Edge 124, Type (0, 1), BuildingBlock: UVAHIK_clean_linker_0, # of connection points: 2
#     Edge 125, Type (0, 1), BuildingBlock: UVAHIK_clean_linker_0, # of connection points: 2
#     Edge 126, Type (0, 1), BuildingBlock: UVAHIK_clean_linker_0, # of connection points: 2
#     Edge 127, Type (0, 1), BuildingBlock: UVAHIK_clean_linker_0, # of connection points: 2
#     Edge 128, Type (0, 1), BuildingBlock: UVAHIK_clean_linker_0, # of connection points: 2
#     Edge 129, Type (0, 1), BuildingBlock: UVAHIK_clean_linker_0, # of connection points: 2
#     Edge 130, Type (0, 1), BuildingBlock: UVAHIK_clean_linker_0, # of connection points: 2
#     Edge 131, Type (0, 1), BuildingBlock: UVAHIK_clean_linker_0, # of connection points: 2
#     Edge 132, Type (0, 1), BuildingBlock: UVAHIK_clean_linker_0, # of connection points: 2
#     Edge 133, Type (0, 1), BuildingBlock: UVAHIK_clean_linker_0, # of connection points: 2
#     Edge 134, Type (0, 1), BuildingBlock: UVAHIK_clean_linker_0, # of connection points: 2
#     Edge 135, Type (0, 1), BuildingBlock: UVAHIK_clean_linker_0, # of connection points: 2
# Relax obj value: 0.185
# Max RMSD: 0.298
# Mean RMSD: 0.172
data_MOF--net-gar--node1-GALJAG_clean_sbu_0--node2-BETFEN_clean_sbu_0--edge1-UVAHIK_clean_linker_0
_symmetry_space_group_name_H-M    P1
_symmetry_Int_Tables_number       1
_symmetry_cell_setting            triclinic
loop_
_symmetry_equiv_pos_as_xyz
'x, y, z'
_cell_length_a     79.670071
_cell_length_b     72.361359
_cell_length_c     72.512368
_cell_angle_alpha  94.222045
_cell_angle_beta   97.946023
_cell_angle_gamma 101.59905
loop_
_atom_site_label
_atom_site_type_symbol
_atom_site_fract_x
_atom_site_fract_y
_atom_site_fract_z
_atom_type_partial_charge
In0 In 0.03393 0.30393 0.4181 0.0
O1 O 0.04647 0.29585 0.39298 0.0
O2 O 0.06327 0.31014 0.41723 0.0
C3 C 1.00202 0.30174 0.39829 0.0
C4 C 0.0325 0.27153 0.43523 0.0
C5 C 0.03811 0.33926 0.43628 0.0
O6 O 0.01589 0.30799 0.39212 0.0
O7 O 1.00416 0.2965 0.41452 0.0
O8 O 0.03706 0.32457 0.44484 0.0
O9 O 0.03719 0.3361 0.41881 0.0
C10 C 0.06187 0.30255 0.40072 0.0
O11 O 0.03842 0.2878 0.44403 0.0
O12 O 0.02713 0.27171 0.41807 0.0
In13 In 0.06694 0.81885 0.64182 0.0
O14 O 0.0637 0.83473 0.61552 0.0
O15 O 0.07236 0.85117 0.64174 0.0
C16 C 0.06245 0.78293 0.62496 0.0
C17 C 0.0996 0.82467 0.66108 0.0
C18 C 0.03807 0.81693 0.65828 0.0
O19 O 0.06277 0.7972 0.61587 0.0
O20 O 0.06433 0.78675 0.64248 0.0
O21 O 0.05283 0.81726 0.66735 0.0
O22 O 0.0378 0.81731 0.6409 0.0
C23 C 0.06823 0.8511 0.62432 0.0
O24 O 0.08689 0.82786 0.66847 0.0
O25 O 0.09591 0.81869 0.64389 0.0
In26 In 0.53034 0.80062 0.91828 0.0
O27 O 0.54325 0.79585 0.89248 0.0
O28 O 0.55975 0.80529 0.91834 0.0
C29 C 0.49819 0.798 0.89874 0.0
C30 C 0.52924 0.76765 0.93433 0.0
C31 C 0.53457 0.83555 0.93743 0.0
O32 O 0.51196 0.80452 0.89251 0.0
O33 O 0.50054 0.79263 0.9149 0.0
O34 O 0.53346 0.82057 0.9455 0.0
O35 O 0.5337 0.8329 0.91994 0.0
C36 C 0.55858 0.80044 0.90107 0.0
O37 O 0.53404 0.78375 0.9437 0.0
O38 O 0.52476 0.76821 0.91703 0.0
In39 In 0.56723 0.31575 0.14103 0.0
O40 O 0.56265 0.29415 0.11497 0.0
O41 O 0.56362 0.28351 0.1415 0.0
C42 C 0.56913 0.34842 0.12407 0.0
C43 C 0.53863 0.31489 0.15784 0.0
C44 C 0.59998 0.31952 0.15949 0.0
O45 O 0.56395 0.33218 0.1151 0.0
O46 O 0.57365 0.34814 0.14138 0.0
O47 O 0.58766 0.32288 0.16749 0.0
O48 O 0.59588 0.3145 0.14213 0.0
C49 C 0.56188 0.27978 0.12397 0.0
O50 O 0.55359 0.31621 0.16691 0.0
O51 O 0.53803 0.31368 0.14032 0.0
In52 In 0.07512 0.82663 0.14935 0.0
O53 O 0.08034 0.80548 0.12682 0.0
O54 O 0.06175 0.79517 0.14401 0.0
C55 C 0.07598 0.85723 0.12943 0.0
C56 C 0.04688 0.82529 0.16663 0.0
C57 C 0.10655 0.82978 0.17097 0.0
O58 O 0.06984 0.84044 0.12216 0.0
O59 O 0.0821 0.85857 0.14657 0.0
O60 O 0.09487 0.83742 0.1763 0.0
O61 O 0.10243 0.8209 0.15486 0.0
C62 C 0.06983 0.79143 0.13092 0.0
O63 O 0.06102 0.82228 0.17477 0.0
O64 O 0.04704 0.82889 0.14989 0.0
In65 In 0.52013 0.79714 0.41264 0.0
O66 O 0.53312 0.79595 0.38622 0.0
O67 O 0.54912 0.79955 0.41269 0.0
C68 C 0.49018 0.79514 0.38878 0.0
C69 C 0.51964 0.76645 0.43228 0.0
C70 C 0.52345 0.83049 0.43398 0.0
O71 O 0.50292 0.80904 0.39058 0.0
O72 O 0.49266 0.78202 0.39867 0.0
O73 O 0.53551 0.82625 0.42609 0.0
O74 O 0.50978 0.8177 0.43159 0.0
C75 C 0.54825 0.79792 0.39514 0.0
O76 O 0.52029 0.78284 0.44003 0.0
O77 O 0.51881 0.76553 0.41474 0.0
In78 In 0.57845 0.32825 0.65047 0.0
O79 O 0.58326 0.30718 0.62753 0.0
O80 O 0.56539 0.29673 0.64543 0.0
C81 C 0.58028 0.35994 0.63207 0.0
C82 C 0.54939 0.32675 0.66631 0.0
C83 C 0.60956 0.33088 0.67253 0.0
O84 O 0.57465 0.34343 0.62383 0.0
O85 O 0.58537 0.36041 0.64937 0.0
O86 O 0.59746 0.33755 0.67813 0.0
O87 O 0.606 0.32312 0.65594 0.0
C88 C 0.57306 0.29306 0.63196 0.0
O89 O 0.56345 0.32437 0.67524 0.0
O90 O 0.55003 0.32982 0.64948 0.0
In91 In 0.02202 0.29573 0.91303 0.0
O92 O 0.02121 0.28167 0.94054 0.0
O93 O 0.02143 0.26436 0.91577 0.0
C94 C 0.02569 0.32941 0.93394 0.0
C95 C 0.04995 0.29638 0.89525 0.0
C96 C 0.99216 0.29374 0.88902 0.0
O97 O 0.03782 0.32463 0.92658 0.0
O98 O 0.01176 0.31697 0.93129 0.0
O99 O 1.00487 0.30769 0.89098 0.0
O100 O 0.99461 0.28056 0.89884 0.0
C101 C 0.02134 0.26535 0.93317 0.0
O102 O 0.03467 0.29364 0.88649 0.0
O103 O 0.05106 0.29883 0.9128 0.0
In104 In 0.46565 0.1513 0.31845 0.0
O105 O 0.48786 0.16194 0.3025 0.0
O106 O 0.46231 0.15326 0.2872 0.0
C107 C 0.49025 0.15316 0.34833 0.0
C108 C 0.44388 0.17496 0.32112 0.0
C109 C 0.44776 0.11507 0.31489 0.0
O110 O 0.48926 0.14258 0.33345 0.0
O111 O 0.47911 0.16334 0.34798 0.0
O112 O 0.44903 0.12637 0.32933 0.0
O113 O 0.45576 0.12192 0.30228 0.0
C114 C 0.47818 0.15964 0.28681 0.0
O115 O 0.43973 0.15756 0.323 0.0
O116 O 0.45935 0.1807 0.3186 0.0
In117 In 0.27841 0.19873 0.51072 0.0
O118 O 0.27467 0.22226 0.53185 0.0
O119 O 0.29102 0.20405 0.54155 0.0
C120 C 0.27885 0.21832 0.47989 0.0
C121 C 0.30555 0.18122 0.51059 0.0
C122 C 0.24608 0.17693 0.50975 0.0
O123 O 0.28638 0.22553 0.49601 0.0
O124 O 0.27069 0.2014 0.47934 0.0
O125 O 0.25745 0.1713 0.50159 0.0
O126 O 0.25095 0.19346 0.51806 0.0
C127 C 0.28418 0.21781 0.5455 0.0
O128 O 0.29091 0.17285 0.51385 0.0
O129 O 0.3064 0.19823 0.50732 0.0
In130 In 0.18592 0.0812 0.85073 0.0
O131 O 0.1615 0.08947 0.83673 0.0
O132 O 0.16817 0.0645 0.82521 0.0
C133 C 0.17 0.07077 0.8799 0.0
C134 C 0.2108 0.06149 0.84734 0.0
C135 C 0.20361 0.11634 0.84716 0.0
O136 O 0.17623 0.08789 0.87808 0.0
O137 O 0.17203 0.05899 0.86717 0.0
O138 O 0.20363 0.1099 0.86287 0.0
O139 O 0.19475 0.10514 0.83359 0.0
C140 C 0.15788 0.07569 0.82408 0.0
O141 O 0.21025 0.071 0.86245 0.0
O142 O 0.19884 0.06191 0.83417 0.0
In143 In 0.30364 0.9223 0.03503 0.0
O144 O 0.29932 0.89647 0.05192 0.0
O145 O 0.30844 0.9238 0.06691 0.0
C146 C 0.29896 0.90375 1.0 0.0
C147 C 0.27679 0.94004 0.03656 0.0
C148 C 0.33678 0.94164 0.03691 0.0
O149 O 0.29855 0.89506 0.01447 0.0
O150 O 0.30156 0.92151 1.00325 0.0
O151 O 0.32382 0.94825 0.03092 0.0
O152 O 0.33311 0.92517 0.04195 0.0
C153 C 0.30402 0.90616 0.0677 0.0
O154 O 0.29247 0.94857 0.04021 0.0
O155 O 0.27452 0.92242 0.03214 0.0
In156 In 0.31635 0.42079 0.04238 0.0
O157 O 0.31386 0.39351 0.05735 0.0
O158 O 0.31909 0.41982 0.07415 0.0
C159 C 0.31157 0.40535 0.00627 0.0
C160 C 0.28843 0.43724 0.04165 0.0
C161 C 0.34987 0.43989 0.0462 0.0
O162 O 0.30888 0.39538 0.01959 0.0
O163 O 0.31642 0.42292 0.01115 0.0
O164 O 0.33787 0.44751 0.05067 0.0
O165 O 0.34507 0.42251 0.04028 0.0
C166 C 0.31635 0.402 0.07366 0.0
O167 O 0.30374 0.44667 0.04276 0.0
O168 O 0.28717 0.41955 0.04086 0.0
In169 In 0.78695 0.20143 0.02279 0.0
O170 O 0.79844 0.17512 0.01931 0.0
O171 O 0.81613 0.2016 0.02585 0.0
C172 C 0.75364 0.1822 0.01979 0.0
C173 C 0.79127 0.21793 0.0586 0.0
C174 C 0.78712 0.21907 0.99081 0.0
O175 O 0.76622 0.17413 0.01915 0.0
O176 O 0.75779 0.20011 0.02179 0.0
O177 O 0.79273 0.22788 0.00685 0.0
O178 O 0.78139 0.20155 0.99094 0.0
C179 C 0.81406 0.18387 0.02251 0.0
O180 O 0.79215 0.22744 0.04471 0.0
O181 O 0.78834 0.20023 0.05444 0.0
In182 In 0.13913 0.47734 0.24848 0.0
O183 O 0.16592 0.47212 0.24625 0.0
O184 O 0.14674 0.44876 0.251 0.0
C185 C 0.1506 0.51471 0.25925 0.0
C186 C 0.12529 0.47415 0.21205 0.0
C187 C 0.11954 0.46865 0.27531 0.0
O188 O 0.1592 0.5025 0.26388 0.0
O189 O 0.13597 0.50806 0.24942 0.0
O190 O 0.11295 0.46826 0.25839 0.0
O191 O 0.13586 0.47337 0.27854 0.0
C192 C 0.16233 0.45496 0.24923 0.0
O193 O 0.11785 0.46469 0.22369 0.0
O194 O 0.13983 0.48461 0.21871 0.0
In195 In 0.8158 0.92072 0.54822 0.0
O196 O 0.81386 0.89374 0.56378 0.0
O197 O 0.81424 0.91983 0.57941 0.0
C198 C 0.81064 0.90018 0.51409 0.0
C199 C 0.78858 0.93796 0.54915 0.0
C200 C 0.84805 0.94317 0.54919 0.0
O201 O 0.81953 0.89579 0.52828 0.0
O202 O 0.80413 0.91432 0.51735 0.0
O203 O 0.83525 0.94353 0.53704 0.0
O204 O 0.84463 0.93176 0.56114 0.0
C205 C 0.81331 0.90222 0.57951 0.0
O206 O 0.80416 0.94709 0.55217 0.0
O207 O 0.7868 0.92025 0.54579 0.0
In208 In 0.89065 0.04244 0.20785 0.0
O209 O 0.91226 0.06314 0.19833 0.0
O210 O 0.90353 0.0359 0.18277 0.0
C211 C 0.91262 0.04657 0.24037 0.0
C212 C 0.86694 0.0632 0.19863 0.0
C213 C 0.87019 0.00809 0.20863 0.0
O214 O 0.90971 0.03209 0.22869 0.0
O215 O 0.90432 0.05908 0.23576 0.0
O216 O 0.86866 0.02288 0.21796 0.0
O217 O 0.8819 0.0106 0.1984 0.0
C218 C 0.91391 0.05189 0.18489 0.0
O219 O 0.87321 0.05455 0.18642 0.0
O220 O 0.8727 0.06145 0.21537 0.0
In221 In 0.29032 0.70413 0.5271 0.0
O222 O 0.30241 0.67814 0.52631 0.0
O223 O 0.31945 0.70505 0.52823 0.0
C224 C 0.25741 0.68372 0.52378 0.0
C225 C 0.29412 0.7213 0.5626 0.0
C226 C 0.29047 0.72096 0.49472 0.0
O227 O 0.27024 0.67619 0.52258 0.0
O228 O 0.26113 0.7016 0.52661 0.0
O229 O 0.29716 0.7299 0.5105 0.0
O230 O 0.28381 0.70374 0.49535 0.0
C231 C 0.31781 0.68728 0.52737 0.0
O232 O 0.29114 0.72979 0.54828 0.0
O233 O 0.2954 0.70438 0.55899 0.0
In234 In 0.4026 0.54316 0.70262 0.0
O235 O 0.3832 0.55761 0.68628 0.0
O236 O 0.38632 0.56072 0.71611 0.0
C237 C 0.38277 0.50777 0.69833 0.0
C238 C 0.42404 0.55849 0.67956 0.0
C239 C 0.42347 0.54363 0.73532 0.0
O240 O 0.37819 0.52207 0.70529 0.0
O241 O 0.39739 0.51127 0.69293 0.0
O242 O 0.42119 0.53048 0.72222 0.0
O243 O 0.41529 0.55651 0.73189 0.0
C244 C 0.37871 0.56455 0.70087 0.0
O245 O 0.42463 0.56542 0.69613 0.0
O246 O 0.41256 0.54352 0.67442 0.0
In247 In 0.64088 0.97672 0.74035 0.0
O248 O 0.66446 0.96533 0.73556 0.0
O249 O 0.64661 0.94901 0.75034 0.0
C250 C 0.65705 0.01343 0.74421 0.0
C251 C 0.62359 0.96945 0.70515 0.0
C252 C 0.62354 0.98033 0.76921 0.0
O253 O 0.66434 1.00065 0.75027 0.0
O254 O 0.64162 0.00767 0.73606 0.0
O255 O 0.61582 0.97335 0.75306 0.0
O256 O 0.63984 0.98457 0.77083 0.0
C257 C 0.66084 0.95095 0.74416 0.0
O258 O 0.61712 0.96261 0.71876 0.0
O259 O 0.63882 0.97922 0.70932 0.0
In260 In 0.77989 0.69841 0.01622 0.0
O261 O 0.79299 0.67356 0.0104 0.0
O262 O 0.80907 0.6994 0.0235 0.0
C263 C 0.74689 0.67781 0.01263 0.0
C264 C 0.78279 0.71478 0.05186 0.0
C265 C 0.78093 0.71687 0.98478 0.0
O266 O 0.76009 0.67073 0.01603 0.0
O267 O 0.75026 0.69529 0.01058 0.0
O268 O 0.78198 0.72542 1.00086 0.0
O269 O 0.7791 0.69913 0.98456 0.0
C270 C 0.80813 0.68246 0.01719 0.0
O271 O 0.78729 0.72423 0.03871 0.0
O272 O 0.77697 0.69733 0.047 0.0
In273 In 0.96629 0.65449 0.81739 0.0
O274 O 0.93925 0.65862 0.81925 0.0
O275 O 0.95805 0.68289 0.81556 0.0
C276 C 0.95073 0.61752 0.81457 0.0
C277 C 0.97837 0.66267 0.78551 0.0
C278 C 0.9898 0.65802 0.84865 0.0
O279 O 0.94807 0.62971 0.82651 0.0
O280 O 0.96151 0.62389 0.80416 0.0
O281 O 0.99079 0.64875 0.8336 0.0
O282 O 0.97727 0.66631 0.84779 0.0
C283 C 0.94243 0.67594 0.81678 0.0
O284 O 0.98768 0.66768 0.80135 0.0
O285 O 0.96314 0.65371 0.7859 0.0
In286 In 0.80716 0.42225 0.5324 0.0
O287 O 0.80385 0.3966 0.54969 0.0
O288 O 0.81129 0.42419 0.56433 0.0
C289 C 0.80315 0.40348 0.49753 0.0
C290 C 0.78005 0.43977 0.53296 0.0
C291 C 0.84015 0.442 0.53448 0.0
O292 O 0.80096 0.39487 0.51184 0.0
O293 O 0.80719 0.42127 0.50086 0.0
O294 O 0.82709 0.4484 0.52841 0.0
O295 O 0.83667 0.42552 0.53955 0.0
C296 C 0.80776 0.40654 0.56537 0.0
O297 O 0.79568 0.44835 0.53725 0.0
O298 O 0.77796 0.42221 0.52838 0.0
In299 In 0.68123 0.57483 0.35114 0.0
O300 O 0.70558 0.56536 0.36376 0.0
O301 O 0.69002 0.54915 0.33946 0.0
C302 C 0.7023 0.60789 0.34718 0.0
C303 C 0.65495 0.5743 0.32339 0.0
C304 C 0.66389 0.56431 0.37929 0.0
O305 O 0.69798 0.60405 0.36282 0.0
O306 O 0.69614 0.59506 0.33386 0.0
O307 O 0.672 0.58117 0.37898 0.0
O308 O 0.66453 0.55304 0.36547 0.0
C309 C 0.70322 0.55112 0.35182 0.0
O310 O 0.65823 0.58619 0.33774 0.0
O311 O 0.6648 0.56266 0.32321 0.0
Pr312 Pr 0.02684 0.05538 0.03072 0.0
Pr313 Pr 0.06722 0.07191 0.0429 0.0
C314 C 0.99199 0.0489 0.02743 0.0
C315 C 0.97825 0.05986 0.02558 0.0
C316 C 0.98066 0.07725 0.01785 0.0
C317 C 0.9677 0.08783 0.01696 0.0
C318 C 0.95211 0.08121 0.0238 0.0
C319 C 0.94983 0.06375 0.03152 0.0
C320 C 0.96278 0.05321 0.03241 0.0
C321 C 0.04748 0.0514 1.00355 0.0
C322 C 0.04389 0.10184 0.02825 0.0
C323 C 0.10208 0.07784 0.04724 0.0
C324 C 0.11513 0.06611 0.04619 0.0
C325 C 0.13119 0.0715 0.05791 0.0
C326 C 0.14377 0.06062 0.05705 0.0
C327 C 0.14055 0.04411 0.0444 0.0
C328 C 0.12432 0.03868 0.03276 0.0
C329 C 0.11172 0.04955 0.03368 0.0
C330 C 0.04652 0.07505 0.07025 0.0
C331 C 0.05048 0.02546 0.0442 0.0
O332 O 1.00224 0.05187 0.04358 0.0
O333 O 1.00018 0.04727 0.01312 0.0
O334 O 0.04904 0.06577 0.01501 0.0
O335 O 0.03401 0.03829 0.00502 0.0
O336 O 0.05977 0.0987 0.03116 0.0
O337 O 0.03004 0.08857 0.02952 0.0
O338 O 0.09242 0.07914 0.03146 0.0
O339 O 0.09342 0.07601 0.06132 0.0
O340 O 0.04513 0.06098 0.05851 0.0
O341 O 0.0598 0.08844 0.0689 0.0
O342 O 0.0347 0.0289 0.0429 0.0
O343 O 0.06401 0.03856 0.04174 0.0
H344 H 0.99256 0.08266 0.01258 0.0
H345 H 0.96984 0.10111 0.01077 0.0
H346 H 0.93815 0.05836 0.03722 0.0
H347 H 0.96077 0.03993 0.03862 0.0
H348 H 0.13401 0.08415 0.06775 0.0
H349 H 0.15597 0.06506 0.06647 0.0
H350 H 0.12144 0.02619 0.02272 0.0
H351 H 0.09935 0.04506 0.02454 0.0
Pr352 Pr 0.30928 0.83582 0.2927 0.0
Pr353 Pr 0.28668 0.79299 0.27048 0.0
C354 C 0.33443 0.86478 0.30969 0.0
C355 C 0.33984 0.88522 0.3089 0.0
C356 C 0.33425 0.89365 0.29301 0.0
C357 C 0.34022 0.91302 0.29207 0.0
C358 C 0.35177 0.92421 0.30704 0.0
C359 C 0.357 0.91572 0.32309 0.0
C360 C 0.35108 0.89636 0.32398 0.0
C361 C 0.27431 0.83518 0.27893 0.0
C362 C 0.30345 0.82816 0.2458 0.0
C363 C 0.26001 0.7654 0.25402 0.0
C364 C 0.25177 0.74569 0.25578 0.0
C365 C 0.26157 0.73182 0.25901 0.0
C366 C 0.25332 0.7133 0.26107 0.0
C367 C 0.23517 0.70841 0.26009 0.0
C368 C 0.22549 0.72243 0.25694 0.0
C369 C 0.23372 0.74086 0.25474 0.0
C370 C 0.32145 0.79302 0.28451 0.0
C371 C 0.29344 0.80023 0.31735 0.0
O372 O 0.33609 0.85396 0.29501 0.0
O373 O 0.31999 0.85907 0.31642 0.0
O374 O 0.2825 0.82216 0.27852 0.0
O375 O 0.28467 0.85037 0.28798 0.0
O376 O 0.29257 0.81166 0.24598 0.0
O377 O 0.31235 0.83869 0.2612 0.0
O378 O 0.25862 0.77802 0.26737 0.0
O379 O 0.27517 0.76853 0.24825 0.0
O380 O 0.31373 0.80654 0.28465 0.0
O381 O 0.31066 0.77783 0.27592 0.0
O382 O 0.30454 0.81654 0.317 0.0
O383 O 0.284 0.79 0.30206 0.0
H384 H 0.32546 0.8852 0.28128 0.0
H385 H 0.33585 0.91923 0.27962 0.0
H386 H 0.36605 0.92395 0.33475 0.0
H387 H 0.3555 0.89001 0.33632 0.0
H388 H 0.27556 0.73529 0.25999 0.0
H389 H 0.26113 0.70279 0.26327 0.0
H390 H 0.21155 0.71925 0.25644 0.0
H391 H 0.22598 0.75144 0.25241 0.0
Pr392 Pr 0.56811 0.06167 0.5411 0.0
Pr393 Pr 0.52838 0.06118 0.52654 0.0
C394 C 0.59858 0.05415 0.55653 0.0
C395 C 0.61242 0.04384 0.55318 0.0
C396 C 0.62566 0.05142 0.54316 0.0
C397 C 0.63951 0.04247 0.54157 0.0
C398 C 0.64052 0.02574 0.55001 0.0
C399 C 0.62711 0.01798 0.55974 0.0
C400 C 0.61328 0.02696 0.56137 0.0
C401 C 0.56162 0.07665 0.50732 0.0
C402 C 0.54277 0.02338 0.51444 0.0
C403 C 0.49797 0.06836 0.51064 0.0
C404 C 0.48431 0.07907 0.51327 0.0
C405 C 0.47468 0.07648 0.52809 0.0
C406 C 0.46079 0.08549 0.52927 0.0
C407 C 0.45624 0.09731 0.51568 0.0
C408 C 0.46618 0.10019 0.50113 0.0
C409 C 0.48001 0.09114 0.49993 0.0
C410 C 0.53502 0.04596 0.56024 0.0
C411 C 0.55355 0.09931 0.55358 0.0
O412 O 0.58346 0.04412 0.55856 0.0
O413 O 0.59744 0.06905 0.54762 0.0
O414 O 0.55234 0.06217 0.51223 0.0
O415 O 0.57572 0.0829 0.51927 0.0
O416 O 0.53085 0.03328 0.50974 0.0
O417 O 0.55688 0.03049 0.52681 0.0
O418 O 0.51307 0.07793 0.50792 0.0
O419 O 0.49909 0.05417 0.52062 0.0
O420 O 0.5441 0.06054 0.5553 0.0
O421 O 0.52093 0.03964 0.54827 0.0
O422 O 0.56562 0.08952 0.55803 0.0
O423 O 0.53937 0.09222 0.5413 0.0
H424 H 0.62551 0.06447 0.53678 0.0
H425 H 0.64949 0.04873 0.53378 0.0
H426 H 0.62756 0.00527 0.56662 0.0
H427 H 0.60345 0.0209 0.56944 0.0
H428 H 0.47767 0.06728 0.53863 0.0
H429 H 0.45357 0.08315 0.54079 0.0
H430 H 0.46294 0.10899 0.4903 0.0
H431 H 0.48712 0.09324 0.48828 0.0
Pr432 Pr 0.27673 0.30656 0.77294 0.0
Pr433 Pr 0.3174 0.31775 0.77846 0.0
C434 C 0.24273 0.29364 0.77427 0.0
C435 C 0.22899 0.29339 0.78596 0.0
C436 C 0.23015 0.30773 0.8005 0.0
C437 C 0.21617 0.30794 0.81028 0.0
C438 C 0.2008 0.29384 0.80561 0.0
C439 C 0.20001 0.27921 0.79141 0.0
C440 C 0.21395 0.27901 0.78169 0.0
C441 C 0.29076 0.3401 0.7591 0.0
C442 C 0.29879 0.32981 0.81336 0.0
C443 C 0.35118 0.33148 0.77667 0.0
C444 C 0.36579 0.32825 0.76735 0.0
C445 C 0.38274 0.33508 0.77678 0.0
C446 C 0.39695 0.33294 0.76812 0.0
C447 C 0.3945 0.3239 0.7498 0.0
C448 C 0.37743 0.31687 0.74043 0.0
C449 C 0.36318 0.319 0.74915 0.0
C450 C 0.3034 0.28355 0.79126 0.0
C451 C 0.29515 0.2942 0.73762 0.0
O452 O 0.25452 0.28386 0.7789 0.0
O453 O 0.24893 0.30981 0.76818 0.0
O454 O 0.29634 0.33491 0.77459 0.0
O455 O 0.27685 0.32831 0.75062 0.0
O456 O 0.31219 0.33522 0.80465 0.0
O457 O 0.28485 0.31722 0.8051 0.0
O458 O 0.33843 0.33684 0.76655 0.0
O459 O 0.34601 0.3196 0.78852 0.0
O460 O 0.29789 0.28942 0.77616 0.0
O461 O 0.31741 0.29499 0.8 0.0
O462 O 0.28083 0.29087 0.74524 0.0
O463 O 0.30998 0.30461 0.74681 0.0
H464 H 0.24168 0.31896 0.80401 0.0
H465 H 0.21718 0.31945 0.82108 0.0
H466 H 0.18853 0.26795 0.78769 0.0
H467 H 0.21285 0.26779 0.77055 0.0
H468 H 0.385 0.34233 0.79081 0.0
H469 H 0.40987 0.33879 0.77566 0.0
H470 H 0.37507 0.30966 0.7264 0.0
H471 H 0.35017 0.31356 0.74165 0.0
Pr472 Pr 0.03837 0.04797 0.50814 0.0
Pr473 Pr 0.05597 0.07228 0.55027 0.0
C474 C 0.01629 0.02904 0.47837 0.0
C475 C 0.01296 0.03164 0.4585 0.0
C476 C 0.02104 0.0484 0.45195 0.0
C477 C 0.01694 0.05149 0.43325 0.0
C478 C 1.00473 0.03781 0.42082 0.0
C479 C 0.99705 0.02079 0.42738 0.0
C480 C 1.00113 0.01775 0.44612 0.0
C481 C 0.07352 0.0658 0.50982 0.0
C482 C 0.04152 0.09504 0.51442 0.0
C483 C 0.07772 0.09158 0.58004 0.0
C484 C 0.08019 0.08939 0.60008 0.0
C485 C 0.08878 0.10485 0.61302 0.0
C486 C 0.09085 0.10286 0.63217 0.0
C487 C 0.08439 0.08535 0.63861 0.0
C488 C 0.0757 0.06992 0.62554 0.0
C489 C 0.07356 0.07195 0.60643 0.0
C490 C 0.02104 0.05371 0.54906 0.0
C491 C 0.05346 0.02539 0.54368 0.0
O492 O 0.01234 0.04191 0.48972 0.0
O493 O 0.03112 0.02452 0.48426 0.0
O494 O 0.06407 0.06587 0.52228 0.0
O495 O 0.0645 0.05535 0.49498 0.0
O496 O 0.05125 0.09609 0.53104 0.0
O497 O 0.034 0.07873 0.50421 0.0
O498 O 0.08181 0.07838 0.56916 0.0
O499 O 0.06319 0.09638 0.57345 0.0
O500 O 0.03013 0.05439 0.53619 0.0
O501 O 0.03037 0.06364 0.56403 0.0
O502 O 0.04318 0.02418 0.52737 0.0
O503 O 0.06118 0.04177 0.55367 0.0
H504 H 0.03026 0.05924 0.4614 0.0
H505 H 0.02318 0.06463 0.42854 0.0
H506 H 0.98745 0.0101 0.41818 0.0
H507 H 0.99477 0.00477 0.45103 0.0
H508 H 0.09388 0.11842 0.6083 0.0
H509 H 0.09777 0.11492 0.64191 0.0
H510 H 0.07041 0.05634 0.63011 0.0
H511 H 0.0667 0.05992 0.59659 0.0
Pr512 Pr 0.2892 0.7906 0.78051 0.0
Pr513 Pr 0.30663 0.83511 0.78272 0.0
C514 C 0.27586 0.75443 0.76674 0.0
C515 C 0.28143 0.73891 0.75679 0.0
C516 C 0.26988 0.72718 0.74224 0.0
C517 C 0.27474 0.71186 0.73316 0.0
C518 C 0.29118 0.70801 0.73868 0.0
C519 C 0.30292 0.72015 0.75284 0.0
C520 C 0.29813 0.73557 0.76175 0.0
C521 C 0.28354 0.81006 0.81351 0.0
C522 C 0.33123 0.80431 0.79698 0.0
C523 C 0.32262 0.87133 0.7942 0.0
C524 C 0.31698 0.88862 0.7998 0.0
C525 C 0.32922 0.90484 0.80805 0.0
C526 C 0.32379 0.92134 0.81349 0.0
C527 C 0.30607 0.92177 0.81062 0.0
C528 C 0.29386 0.90536 0.80254 0.0
C529 C 0.29928 0.88888 0.79722 0.0
C530 C 0.30458 0.81407 0.74843 0.0
C531 C 0.26559 0.82163 0.76602 0.0
O532 O 0.27377 0.76874 0.75724 0.0
O533 O 0.28318 0.75948 0.78422 0.0
O534 O 0.29103 0.81664 0.80057 0.0
O535 O 0.27805 0.79187 0.80936 0.0
O536 O 0.33 0.82204 0.79488 0.0
O537 O 0.31798 0.7897 0.79194 0.0
O538 O 0.32056 0.85814 0.80559 0.0
O539 O 0.31806 0.86474 0.77652 0.0
O540 O 0.30835 0.80839 0.76428 0.0
O541 O 0.30311 0.83168 0.75005 0.0
O542 O 0.26852 0.80434 0.76358 0.0
O543 O 0.2771 0.83572 0.77623 0.0
H544 H 0.25699 0.7297 0.73814 0.0
H545 H 0.26548 0.70264 0.7223 0.0
H546 H 0.31575 0.71756 0.75714 0.0
H547 H 0.30738 0.74466 0.77271 0.0
H548 H 0.34293 0.90476 0.81021 0.0
H549 H 0.33344 0.93385 0.81961 0.0
H550 H 0.28011 0.90524 0.80042 0.0
H551 H 0.28967 0.87635 0.79107 0.0
Pr552 Pr 0.55306 0.05708 0.05513 0.0
Pr553 Pr 0.54052 0.05658 0.00858 0.0
C554 C 0.56044 0.06819 0.092 0.0
C555 C 0.55558 0.08254 0.10426 0.0
C556 C 0.56341 0.0865 0.123 0.0
C557 C 0.55828 0.09971 0.13484 0.0
C558 C 0.54541 0.1094 0.12801 0.0
C559 C 0.53803 0.10572 0.10897 0.0
C560 C 0.54284 0.09216 0.09732 0.0
C561 C 0.55297 0.02204 0.03532 0.0
C562 C 0.51132 0.04347 0.03635 0.0
C563 C 0.53242 0.04529 0.9718 0.0
C564 C 0.53697 0.04978 0.95347 0.0
C565 C 0.52388 0.04656 0.93785 0.0
C566 C 0.52817 0.04704 0.91982 0.0
C567 C 0.54565 0.05049 0.91717 0.0
C568 C 0.55869 0.05516 0.933 0.0
C569 C 0.55438 0.05491 0.95098 0.0
C570 C 0.5415 0.09183 0.02853 0.0
C571 C 0.58201 0.07405 0.02725 0.0
O572 O 0.5706 0.07471 0.08013 0.0
O573 O 0.54778 0.05396 0.0846 0.0
O574 O 0.549 0.0366 0.02907 0.0
O575 O 0.55818 0.02571 0.05328 0.0
O576 O 0.51549 0.04167 0.01936 0.0
O577 O 0.52264 0.05146 0.05137 0.0
O578 O 0.54409 0.03934 0.98307 0.0
O579 O 0.52405 0.05633 0.98031 0.0
O580 O 0.54451 0.07687 0.03479 0.0
O581 O 0.53731 0.08868 0.01038 0.0
O582 O 0.57823 0.07229 0.04441 0.0
O583 O 0.57059 0.06797 0.01178 0.0
H584 H 0.5732 0.07907 0.12857 0.0
H585 H 0.56401 0.10181 0.14947 0.0
H586 H 0.52833 0.11309 0.10308 0.0
H587 H 0.53646 0.08901 0.08291 0.0
H588 H 0.51035 0.04272 0.93953 0.0
H589 H 0.5178 0.04382 0.90797 0.0
H590 H 0.5723 0.05771 0.93161 0.0
H591 H 0.56472 0.0576 0.96288 0.0
Pr592 Pr 0.28052 0.29638 0.27322 0.0
Pr593 Pr 0.31856 0.32569 0.28045 0.0
C594 C 0.24802 0.27772 0.27485 0.0
C595 C 0.2339 0.27967 0.28565 0.0
C596 C 0.21734 0.27951 0.27603 0.0
C597 C 0.2038 0.28161 0.28584 0.0
C598 C 0.20647 0.28379 0.30555 0.0
C599 C 0.22313 0.28397 0.31517 0.0
C600 C 0.23672 0.282 0.30533 0.0
C601 C 0.29321 0.31013 0.24164 0.0
C602 C 0.28525 0.34252 0.2895 0.0
C603 C 0.34872 0.34683 0.27394 0.0
C604 C 0.36319 0.34346 0.26444 0.0
C605 C 0.37956 0.35559 0.26932 0.0
C606 C 0.39352 0.35231 0.26071 0.0
C607 C 0.39136 0.33682 0.24702 0.0
C608 C 0.37487 0.32468 0.24218 0.0
C609 C 0.36094 0.32794 0.25085 0.0
C610 C 0.31058 0.31018 0.31362 0.0
C611 C 0.31485 0.27936 0.27046 0.0
O612 O 0.26185 0.27309 0.28367 0.0
O613 O 0.25157 0.2904 0.26318 0.0
O614 O 0.29461 0.31947 0.25737 0.0
O615 O 0.28423 0.29295 0.24152 0.0
O616 O 0.30138 0.34709 0.28614 0.0
O617 O 0.2762 0.32479 0.28777 0.0
O618 O 0.33383 0.34576 0.26326 0.0
O619 O 0.34714 0.33881 0.28938 0.0
O620 O 0.30178 0.30705 0.29755 0.0
O621 O 0.32463 0.32282 0.31319 0.0
O622 O 0.29923 0.27556 0.27532 0.0
O623 O 0.32259 0.29662 0.26754 0.0
H624 H 0.21488 0.27787 0.26086 0.0
H625 H 0.19127 0.28175 0.27793 0.0
H626 H 0.22566 0.28539 0.33032 0.0
H627 H 0.2494 0.28228 0.31315 0.0
H628 H 0.38156 0.36761 0.27981 0.0
H629 H 0.40597 0.36205 0.26461 0.0
H630 H 0.3728 0.31249 0.23188 0.0
H631 H 0.34842 0.31829 0.24701 0.0
Pr632 Pr 0.54028 0.54528 0.00815 0.0
Pr633 Pr 0.55709 0.57053 0.05021 0.0
C634 C 0.51846 0.5249 0.97895 0.0
C635 C 0.51464 0.52668 0.95893 0.0
C636 C 0.52231 0.54313 0.95159 0.0
C637 C 0.51802 0.54521 0.93264 0.0
C638 C 0.50601 0.53084 0.92077 0.0
C639 C 0.49866 0.51419 0.92817 0.0
C640 C 0.50294 0.51215 0.94715 0.0
C641 C 0.57504 0.56453 0.00991 0.0
C642 C 0.54252 0.59213 0.01349 0.0
C643 C 0.57789 0.59084 0.08013 0.0
C644 C 0.57924 0.58988 0.10036 0.0
C645 C 0.58922 0.60508 0.11278 0.0
C646 C 0.59053 0.60411 0.13209 0.0
C647 C 0.58189 0.58788 0.13919 0.0
C648 C 0.5717 0.57278 0.12661 0.0
C649 C 0.57036 0.5738 0.10734 0.0
C650 C 0.52207 0.55204 0.04802 0.0
C651 C 0.55547 0.52368 0.04457 0.0
O652 O 0.51404 0.53766 0.99005 0.0
O653 O 0.53373 0.52136 0.9848 0.0
O654 O 0.56566 0.56376 0.0225 0.0
O655 O 0.56619 0.55415 0.99492 0.0
O656 O 0.55256 0.59364 0.03 0.0
O657 O 0.53498 0.57559 1.0037 0.0
O658 O 0.58207 0.57673 0.07061 0.0
O659 O 0.56386 0.59575 0.07215 0.0
O660 O 0.53181 0.55206 0.03586 0.0
O661 O 0.53067 0.56286 0.06284 0.0
O662 O 0.54575 0.52214 0.02788 0.0
O663 O 0.56248 0.54021 0.05466 0.0
H664 H 0.53144 0.55445 0.96057 0.0
H665 H 0.52403 0.55809 0.9273 0.0
H666 H 0.48921 0.50299 0.91943 0.0
H667 H 0.49691 0.49939 0.95267 0.0
H668 H 0.59609 0.61761 0.10756 0.0
H669 H 0.59862 0.61587 0.14145 0.0
H670 H 0.56475 0.5602 0.13167 0.0
H671 H 0.56244 0.562 0.09787 0.0
Pr672 Pr 0.79242 0.28536 0.27948 0.0
Pr673 Pr 0.80827 0.33199 0.27934 0.0
C674 C 0.78171 0.24797 0.26928 0.0
C675 C 0.78179 0.23404 0.25353 0.0
C676 C 0.76748 0.21892 0.2482 0.0
C677 C 0.76791 0.20462 0.23437 0.0
C678 C 0.78268 0.20527 0.22563 0.0
C679 C 0.79665 0.22098 0.23033 0.0
C680 C 0.79624 0.23521 0.24423 0.0
C681 C 0.78903 0.30635 0.31267 0.0
C682 C 0.83468 0.30378 0.29448 0.0
C683 C 0.81798 0.36936 0.28991 0.0
C684 C 0.81094 0.3829 0.30086 0.0
C685 C 0.82014 0.40167 0.3054 0.0
C686 C 0.81302 0.41474 0.31523 0.0
C687 C 0.79662 0.40911 0.32068 0.0
C688 C 0.78774 0.39007 0.31654 0.0
C689 C 0.79477 0.37712 0.30656 0.0
C690 C 0.81096 0.31093 0.24597 0.0
C691 C 0.76748 0.31335 0.26153 0.0
O692 O 0.77157 0.25997 0.26624 0.0
O693 O 0.79677 0.25559 0.27951 0.0
O694 O 0.79506 0.31235 0.2986 0.0
O695 O 0.7837 0.28805 0.30953 0.0
O696 O 0.83219 0.32127 0.29352 0.0
O697 O 0.8224 0.28834 0.28859 0.0
O698 O 0.82412 0.35673 0.2993 0.0
O699 O 0.80855 0.36225 0.27371 0.0
O700 O 0.80531 0.30499 0.26023 0.0
O701 O 0.81638 0.32926 0.249 0.0
O702 O 0.77152 0.29648 0.25996 0.0
O703 O 0.77806 0.32836 0.27147 0.0
H704 H 0.75617 0.21787 0.25515 0.0
H705 H 0.75691 0.19275 0.2309 0.0
H706 H 0.80829 0.22179 0.22401 0.0
H707 H 0.80743 0.24681 0.2481 0.0
H708 H 0.83265 0.40629 0.30104 0.0
H709 H 0.82008 0.42935 0.318 0.0
H710 H 0.77521 0.38522 0.32079 0.0
H711 H 0.78748 0.36265 0.30308 0.0
Pr712 Pr 0.0557 0.56004 0.55402 0.0
Pr713 Pr 0.04377 0.56155 0.50803 0.0
C714 C 0.06319 0.57016 0.59105 0.0
C715 C 0.05754 0.58358 0.60364 0.0
C716 C 0.06543 0.58764 0.62236 0.0
C717 C 0.05982 0.60031 0.63436 0.0
C718 C 0.04639 0.60933 0.6277 0.0
C719 C 0.03887 0.60548 0.60872 0.0
C720 C 0.04419 0.59248 0.59691 0.0
C721 C 0.05719 0.52621 0.53298 0.0
C722 C 0.01399 0.54682 0.53494 0.0
C723 C 0.03529 0.55201 0.47093 0.0
C724 C 0.03923 0.53873 0.45678 0.0
C725 C 0.02926 0.53533 0.43894 0.0
C726 C 0.03282 0.5226 0.42536 0.0
C727 C 0.04629 0.51287 0.42951 0.0
C728 C 0.05608 0.51619 0.44761 0.0
C729 C 0.0527 0.52919 0.46105 0.0
C730 C 0.04253 0.59544 0.52917 0.0
C731 C 0.0854 0.57521 0.5272 0.0
O732 O 0.07281 0.5778 0.57918 0.0
O733 O 0.0512 0.55535 0.58351 0.0
O734 O 0.05306 0.54085 0.52712 0.0
O735 O 0.06156 0.52909 0.55109 0.0
O736 O 0.01815 0.54678 0.51789 0.0
O737 O 0.02532 0.55337 0.55032 0.0
O738 O 0.02599 0.54432 0.48304 0.0
O739 O 0.04809 0.56606 0.47844 0.0
O740 O 0.04647 0.58068 0.53491 0.0
O741 O 0.03828 0.59271 0.51105 0.0
O742 O 0.081 0.5755 0.54415 0.0
O743 O 0.07424 0.56804 0.5118 0.0
H744 H 0.07572 0.58078 0.62776 0.0
H745 H 0.06569 0.60259 0.64895 0.0
H746 H 0.02873 0.61236 0.60298 0.0
H747 H 0.03783 0.58929 0.58249 0.0
H748 H 0.01884 0.54266 0.43545 0.0
H749 H 0.02526 0.52074 0.41149 0.0
H750 H 0.06639 0.5088 0.45141 0.0
H751 H 0.06062 0.53182 0.47476 0.0
Pr752 Pr 0.77757 0.79838 0.28175 0.0
Pr753 Pr 0.81775 0.81229 0.2858 0.0
C754 C 0.74464 0.78196 0.28476 0.0
C755 C 0.72983 0.78478 0.29387 0.0
C756 C 0.73177 0.79857 0.30911 0.0
C757 C 0.71733 0.80106 0.31732 0.0
C758 C 0.70072 0.78985 0.31034 0.0
C759 C 0.69897 0.77603 0.2951 0.0
C760 C 0.71338 0.77355 0.28696 0.0
C761 C 0.78854 0.83412 0.27039 0.0
C762 C 0.80005 0.82186 0.32234 0.0
C763 C 0.8509 0.82736 0.28237 0.0
C764 C 0.865 0.82481 0.27171 0.0
C765 C 0.87313 0.80934 0.27357 0.0
C766 C 0.88726 0.80798 0.26441 0.0
C767 C 0.89357 0.82201 0.25315 0.0
C768 C 0.88522 0.83728 0.25105 0.0
C769 C 0.87115 0.83869 0.26028 0.0
C770 C 0.80593 0.77622 0.29642 0.0
C771 C 0.79541 0.78937 0.24516 0.0
O772 O 0.75821 0.77878 0.29543 0.0
O773 O 0.74864 0.79299 0.27182 0.0
O774 O 0.79551 0.828 0.2847 0.0
O775 O 0.77454 0.82229 0.26226 0.0
O776 O 0.81318 0.82787 0.31341 0.0
O777 O 0.78608 0.80931 0.31396 0.0
O778 O 0.8376 0.83285 0.2735 0.0
O779 O 0.84663 0.8152 0.29431 0.0
O780 O 0.79979 0.7829 0.28213 0.0
O781 O 0.81944 0.78806 0.30567 0.0
O782 O 0.78255 0.78281 0.25426 0.0
O783 O 0.80915 0.80223 0.25347 0.0
H784 H 0.7444 0.80744 0.31459 0.0
H785 H 0.71912 0.81194 0.32892 0.0
H786 H 0.68647 0.76693 0.28956 0.0
H787 H 0.71166 0.76281 0.27523 0.0
H788 H 0.86873 0.79839 0.28228 0.0
H789 H 0.89325 0.79592 0.26614 0.0
H790 H 0.88987 0.84847 0.2427 0.0
H791 H 0.86526 0.85086 0.25874 0.0
Pr792 Pr 0.81335 0.33728 0.79149 0.0
Pr793 Pr 0.79023 0.29495 0.76872 0.0
C794 C 0.83961 0.3652 0.80823 0.0
C795 C 0.8466 0.38545 0.80768 0.0
C796 C 0.83568 0.39827 0.80453 0.0
C797 C 0.84278 0.41736 0.80327 0.0
C798 C 0.86085 0.42375 0.8049 0.0
C799 C 0.87168 0.41084 0.80812 0.0
C800 C 0.8646 0.39185 0.80954 0.0
C801 C 0.77852 0.33737 0.77787 0.0
C802 C 0.80728 0.33036 0.74448 0.0
C803 C 0.76359 0.26779 0.75154 0.0
C804 C 0.75592 0.24774 0.75234 0.0
C805 C 0.76616 0.23408 0.75378 0.0
C806 C 0.75847 0.21511 0.75463 0.0
C807 C 0.74045 0.20954 0.75422 0.0
C808 C 0.73031 0.22335 0.753 0.0
C809 C 0.73798 0.24226 0.752 0.0
C810 C 0.82471 0.29406 0.78307 0.0
C811 C 0.79629 0.3018 0.81563 0.0
O812 O 0.8407 0.3541 0.7935 0.0
O813 O 0.82503 0.36044 0.81498 0.0
O814 O 0.78658 0.32427 0.77696 0.0
O815 O 0.78898 0.35232 0.78731 0.0
O816 O 0.79638 0.31386 0.74451 0.0
O817 O 0.81615 0.34074 0.75996 0.0
O818 O 0.7623 0.27951 0.76573 0.0
O819 O 0.77853 0.27177 0.74535 0.0
O820 O 0.81728 0.30781 0.78321 0.0
O821 O 0.81376 0.27912 0.77422 0.0
O822 O 0.80777 0.31792 0.81562 0.0
O823 O 0.78692 0.29189 0.80013 0.0
H824 H 0.82172 0.39352 0.80284 0.0
H825 H 0.83417 0.42703 0.80067 0.0
H826 H 0.88565 0.41546 0.80968 0.0
H827 H 0.87319 0.3821 0.81192 0.0
H828 H 0.78008 0.23804 0.75421 0.0
H829 H 0.76661 0.20478 0.75536 0.0
H830 H 0.71645 0.2196 0.75299 0.0
H831 H 0.72991 0.25266 0.75105 0.0
Pr832 Pr 0.78022 0.79306 0.77993 0.0
Pr833 Pr 0.81849 0.82186 0.78446 0.0
C834 C 0.75194 0.77172 0.79026 0.0
C835 C 0.73567 0.77403 0.7968 0.0
C836 C 0.72563 0.78625 0.789 0.0
C837 C 0.71096 0.78914 0.79656 0.0
C838 C 0.70627 0.78007 0.81219 0.0
C839 C 0.71627 0.7677 0.81975 0.0
C840 C 0.73078 0.76469 0.81211 0.0
C841 C 0.78528 0.80987 0.74662 0.0
C842 C 0.7849 0.83975 0.79037 0.0
C843 C 0.85055 0.84068 0.78119 0.0
C844 C 0.86441 0.83811 0.77041 0.0
C845 C 0.88131 0.84865 0.77643 0.0
C846 C 0.89481 0.84587 0.76683 0.0
C847 C 0.89165 0.83244 0.75101 0.0
C848 C 0.8746 0.82198 0.74494 0.0
C849 C 0.8611 0.82477 0.75459 0.0
C850 C 0.80801 0.80751 0.81677 0.0
C851 C 0.81264 0.77597 0.76781 0.0
O852 O 0.76613 0.77923 0.80191 0.0
O853 O 0.75344 0.77379 0.7727 0.0
O854 O 0.79542 0.81213 0.76187 0.0
O855 O 0.77104 0.79797 0.74818 0.0
O856 O 0.80041 0.84328 0.78517 0.0
O857 O 0.77649 0.82246 0.7924 0.0
O858 O 0.8364 0.84409 0.77182 0.0
O859 O 0.84753 0.82884 0.79374 0.0
O860 O 0.80567 0.79845 0.80075 0.0
O861 O 0.8167 0.82479 0.81672 0.0
O862 O 0.7971 0.77162 0.77284 0.0
O863 O 0.8216 0.79363 0.76864 0.0
H864 H 0.72928 0.79382 0.77733 0.0
H865 H 0.70358 0.79886 0.79052 0.0
H866 H 0.71288 0.76033 0.83164 0.0
H867 H 0.7384 0.75529 0.8184 0.0
H868 H 0.8841 0.85899 0.78865 0.0
H869 H 0.90771 0.85435 0.77173 0.0
H870 H 0.87175 0.81139 0.73294 0.0
H871 H 0.84812 0.81639 0.74981 0.0
Pr872 Pr 0.5318 0.55974 0.53719 0.0
Pr873 Pr 0.57233 0.57501 0.54133 0.0
C874 C 0.49791 0.55522 0.54012 0.0
C875 C 0.48438 0.56643 0.53867 0.0
C876 C 0.48513 0.58156 0.52754 0.0
C877 C 0.4722 0.59218 0.52655 0.0
C878 C 0.45831 0.58783 0.53668 0.0
C879 C 0.45781 0.57281 0.54801 0.0
C880 C 0.47072 0.56224 0.54899 0.0
C881 C 0.54728 0.55102 0.5066 0.0
C882 C 0.54806 0.60417 0.52703 0.0
C883 C 0.60654 0.57952 0.5402 0.0
C884 C 0.61921 0.56726 0.53912 0.0
C885 C 0.63481 0.5715 0.55172 0.0
C886 C 0.64693 0.56003 0.5511 0.0
C887 C 0.64375 0.54409 0.53777 0.0
C888 C 0.62813 0.5399 0.52507 0.0
C889 C 0.61593 0.55131 0.52579 0.0
C890 C 0.55673 0.58404 0.57161 0.0
C891 C 0.55595 0.5303 0.55011 0.0
O892 O 0.51033 0.56041 0.55448 0.0
O893 O 0.50344 0.55044 0.52462 0.0
O894 O 0.5505 0.56659 0.5166 0.0
O895 O 0.53475 0.53888 0.51167 0.0
O896 O 0.56362 0.60025 0.52754 0.0
O897 O 0.5349 0.59217 0.53195 0.0
O898 O 0.59494 0.5787 0.52533 0.0
O899 O 0.60025 0.58073 0.5559 0.0
O900 O 0.55367 0.56822 0.56204 0.0
O901 O 0.56876 0.59633 0.56598 0.0
O902 O 0.54078 0.53473 0.551 0.0
O903 O 0.56876 0.54202 0.54429 0.0
H904 H 0.49566 0.58513 0.51958 0.0
H905 H 0.47293 0.60357 0.51761 0.0
H906 H 0.4475 0.56931 0.55628 0.0
H907 H 0.47007 0.55078 0.55786 0.0
H908 H 0.63762 0.58374 0.56209 0.0
H909 H 0.65893 0.56379 0.56092 0.0
H910 H 0.62521 0.52763 0.51474 0.0
H911 H 0.60393 0.54759 0.51596 0.0
Pr912 Pr 0.06911 0.56183 0.03851 0.0
Pr913 Pr 0.02903 0.55966 0.02581 0.0
C914 C 0.1004 0.55544 0.05259 0.0
C915 C 0.11374 0.54453 0.04896 0.0
C916 C 0.12548 0.55027 0.03661 0.0
C917 C 0.13895 0.54085 0.03458 0.0
C918 C 0.14105 0.5255 0.04486 0.0
C919 C 0.1291 0.51955 0.05694 0.0
C920 C 0.11566 0.529 0.05902 0.0
C921 C 0.0609 0.57762 0.00563 0.0
C922 C 0.04423 0.52309 0.01208 0.0
C923 C 0.99743 0.56531 0.01191 0.0
C924 C 0.98379 0.57587 0.01524 0.0
C925 C 0.96792 0.56602 0.01941 0.0
C926 C 0.95427 0.57524 0.02097 0.0
C927 C 0.95607 0.59455 0.01824 0.0
C928 C 0.97211 0.60453 0.01446 0.0
C929 C 0.9858 0.59529 0.01294 0.0
C930 C 0.03782 0.54445 0.05907 0.0
C931 C 0.05375 0.59846 0.05216 0.0
O932 O 0.08576 0.54606 0.05664 0.0
O933 O 0.09845 0.56928 0.04239 0.0
O934 O 0.05233 0.56245 0.01018 0.0
O935 O 0.07508 0.58419 0.01739 0.0
O936 O 0.03173 0.53241 0.00819 0.0
O937 O 0.05859 0.53062 0.02395 0.0
O938 O 0.0119 0.57463 0.00738 0.0
O939 O 0.9997 0.55196 0.02265 0.0
O940 O 0.04588 0.55955 0.05402 0.0
O941 O 0.02377 0.53719 0.04732 0.0
O942 O 0.06639 0.58928 0.05594 0.0
O943 O 0.03933 0.59085 0.04041 0.0
H944 H 0.12448 0.56224 0.02872 0.0
H945 H 0.14779 0.54567 0.02499 0.0
H946 H 0.13044 0.50795 0.06526 0.0
H947 H 0.10699 0.5244 0.06884 0.0
H948 H 0.96594 0.55103 0.02114 0.0
H949 H 0.94224 0.56717 0.0242 0.0
H950 H 0.97392 0.61935 0.01209 0.0
H951 H 0.99781 0.60329 0.00956 0.0
C952 C 0.02262 0.2505 0.96353 0.0
C953 C 0.0222 0.24887 0.94401 0.0
C954 C 0.02441 0.23509 0.97373 0.0
C955 C 0.0407 0.19077 0.97095 0.0
H956 H 0.01471 0.17787 0.01134 0.0
C957 C 0.05569 0.13372 0.01815 0.0
C958 C 0.04142 0.12031 0.02179 0.0
C959 C 0.05328 0.15017 0.01012 0.0
C960 C 0.02203 0.18126 1.00006 0.0
H961 H 0.02293 0.22965 0.91988 0.0
H962 H 0.02595 0.20286 0.9376 0.0
H963 H 0.0101 0.20468 0.99401 0.0
H964 H 0.01347 0.11427 0.02057 0.0
H965 H 0.00929 0.14294 0.00647 0.0
H966 H 0.05243 0.16728 0.9767 0.0
C967 C 0.02513 0.21608 0.94509 0.0
C968 C 0.0195 0.19672 0.99024 0.0
C969 C 0.02328 0.23142 0.93491 0.0
C970 C 0.02475 0.1242 0.0179 0.0
C971 C 0.02236 0.14072 0.00989 0.0
C972 C 0.04329 0.17543 0.9808 0.0
C973 C 0.02591 0.21776 0.96465 0.0
C974 C 0.02873 0.20159 0.97547 0.0
C975 C 0.03657 0.15372 0.00554 0.0
C976 C 0.03397 0.17042 0.99545 0.0
H977 H 0.02184 0.26377 0.97095 0.0
H978 H 0.02509 0.23692 0.9888 0.0
H979 H 0.04819 0.19424 0.95982 0.0
H980 H 0.06874 0.13131 0.02103 0.0
H981 H 0.06456 0.16004 0.00729 0.0
C982 C 0.12897 0.8429 0.19932 0.0
C983 C 0.12358 0.83072 0.18263 0.0
C984 C 0.14515 0.84365 0.21015 0.0
C985 C 0.18781 0.8304 0.20732 0.0
H986 H 0.19351 0.83787 0.26151 0.0
C987 C 0.24906 0.81976 0.25449 0.0
C988 C 0.25657 0.83414 0.26907 0.0
C989 C 0.23268 0.81938 0.24439 0.0
C990 C 0.19213 0.83589 0.24638 0.0
H991 H 0.13078 0.80951 0.16439 0.0
H992 H 0.15857 0.81033 0.18342 0.0
H993 H 0.16528 0.83717 0.24305 0.0
H994 H 0.25286 0.85932 0.28464 0.0
H995 H 0.22405 0.8585 0.26717 0.0
H996 H 0.21459 0.82871 0.21073 0.0
C997 C 0.15066 0.81977 0.18798 0.0
C998 C 0.17596 0.83557 0.23576 0.0
C999 C 0.13461 0.81919 0.17709 0.0
C1000 C 0.24731 0.84801 0.27352 0.0
C1001 C 0.23081 0.8475 0.26358 0.0
C1002 C 0.20389 0.83049 0.21793 0.0
C1003 C 0.15624 0.83208 0.20463 0.0
C1004 C 0.17354 0.83277 0.21606 0.0
C1005 C 0.22339 0.83329 0.24876 0.0
C1006 C 0.20624 0.83321 0.23758 0.0
H1007 H 0.12076 0.852 0.20392 0.0
H1008 H 0.14905 0.85351 0.22271 0.0
H1009 H 0.18666 0.82865 0.19221 0.0
H1010 H 0.25603 0.80909 0.25054 0.0
H1011 H 0.22727 0.80818 0.23313 0.0
C1012 C 0.54126 0.86179 0.44912 0.0
C1013 C 0.52496 0.84942 0.44411 0.0
C1014 C 0.54267 0.88016 0.45758 0.0
C1015 C 0.51873 0.91795 0.46067 0.0
H1016 H 0.55302 0.93857 0.50443 0.0
C1017 C 0.52383 0.99321 0.49757 0.0
C1018 C 0.54035 1.00364 0.50575 0.0
C1019 C 0.52149 0.97421 0.49036 0.0
C1020 C 0.54355 0.9332 0.49203 0.0
H1021 H 0.49735 0.84653 0.44412 0.0
H1022 H 0.4998 0.87883 0.45864 0.0
H1023 H 0.54988 0.90576 0.49163 0.0
H1024 H 0.56749 1.00246 0.51226 0.0
H1025 H 0.56361 0.96976 0.49904 0.0
H1026 H 0.51276 0.94547 0.46056 0.0
C1027 C 0.51148 0.87422 0.4561 0.0
C1028 C 0.54169 0.91432 0.48478 0.0
C1029 C 0.5101 0.85572 0.44791 0.0
C1030 C 0.55455 0.99479 0.5062 0.0
C1031 C 0.55227 0.97592 0.49874 0.0
C1032 C 0.52076 0.93694 0.46774 0.0
C1033 C 0.52778 0.88666 0.46093 0.0
C1034 C 0.5293 0.90651 0.46901 0.0
C1035 C 0.53568 0.96525 0.49091 0.0
C1036 C 0.53325 0.94488 0.48349 0.0
H1037 H 0.55295 0.85734 0.44634 0.0
H1038 H 0.55539 0.88947 0.46104 0.0
H1039 H 0.5092 0.91235 0.44836 0.0
H1040 H 0.51259 0.99956 0.49716 0.0
H1041 H 0.50848 0.96646 0.48472 0.0
C1042 C 0.533 0.322 0.69339 0.0
C1043 C 0.53335 0.32583 0.67471 0.0
C1044 C 0.51777 0.3211 0.70122 0.0
C1045 C 0.47588 0.33642 0.695 0.0
H1046 H 0.4624 0.29763 0.72746 0.0
C1047 C 0.40979 0.32556 0.72159 0.0
C1048 C 0.40978 0.32231 0.74047 0.0
C1049 C 0.42453 0.32517 0.71318 0.0
C1050 C 0.46606 0.30867 0.71857 0.0
H1051 H 0.51798 0.33165 0.64958 0.0
H1052 H 0.49145 0.32997 0.66316 0.0
H1053 H 0.48887 0.29883 0.71381 0.0
H1054 H 0.42513 0.31543 0.7651 0.0
H1055 H 0.45088 0.3151 0.75058 0.0
H1056 H 0.45316 0.34636 0.69984 0.0
C1057 C 0.50296 0.32787 0.67186 0.0
C1058 C 0.48125 0.30936 0.71075 0.0
C1059 C 0.51816 0.32873 0.66403 0.0
C1060 C 0.42475 0.31824 0.7506 0.0
C1061 C 0.43947 0.31783 0.7422 0.0
C1062 C 0.4607 0.33575 0.70284 0.0
C1063 C 0.50257 0.32406 0.69055 0.0
C1064 C 0.48637 0.32326 0.69888 0.0
C1065 C 0.43962 0.32148 0.72343 0.0
C1066 C 0.4556 0.32188 0.71475 0.0
H1067 H 0.5445 0.31972 0.70198 0.0
H1068 H 0.51799 0.31835 0.71572 0.0
H1069 H 0.47956 0.3475 0.68616 0.0
H1070 H 0.39855 0.32889 0.7134 0.0
H1071 H 0.42409 0.32779 0.69863 0.0
C1072 C 0.06137 0.86814 0.59613 0.0
C1073 C 0.06804 0.8688 0.61521 0.0
C1074 C 0.06046 0.8849 0.58786 0.0
C1075 C 0.07838 0.93686 0.59412 0.0
H1076 H 0.03645 0.93897 0.5609 0.0
C1077 C 0.06463 0.00764 0.5697 0.0
C1078 C 0.05607 0.00744 0.55134 0.0
C1079 C 0.06656 0.99068 0.57707 0.0
C1080 C 0.04837 0.9386 0.56992 0.0
H1081 H 0.0792 0.8876 0.6405 0.0
H1082 H 0.07765 0.91676 0.62611 0.0
H1083 H 0.03916 0.90954 0.57418 0.0
H1084 H 0.04308 0.98908 0.52627 0.0
H1085 H 0.04674 0.95968 0.53896 0.0
H1086 H 0.08765 0.96587 0.58984 0.0
C1087 C 0.07322 0.90333 0.61747 0.0
C1088 C 0.04991 0.92168 0.57756 0.0
C1089 C 0.07403 0.88659 0.62575 0.0
C1090 C 0.04967 0.98984 0.5405 0.0
C1091 C 0.05167 0.97291 0.54784 0.0
C1092 C 0.07688 0.95376 0.58641 0.0
C1093 C 0.0663 0.90272 0.59844 0.0
C1094 C 0.0649 0.9206 0.58984 0.0
C1095 C 0.06006 0.97305 0.56628 0.0
C1096 C 0.06182 0.95491 0.57426 0.0
H1097 H 0.05665 0.85466 0.58762 0.0
H1098 H 0.05523 0.8839 0.57312 0.0
H1099 H 0.09022 0.93647 0.60331 0.0
H1100 H 0.06964 0.02088 0.57853 0.0
H1101 H 0.07287 0.99141 0.5914 0.0
C1102 C 0.46591 0.78566 0.89283 0.0
C1103 C 0.48079 0.79697 0.88792 0.0
C1104 C 0.44953 0.78465 0.88235 0.0
C1105 C 0.42829 0.79624 0.83641 0.0
H1106 H 0.38779 0.79129 0.86129 0.0
C1107 C 0.36355 0.81433 0.80487 0.0
C1108 C 0.34821 0.801 0.8056 0.0
C1109 C 0.37951 0.81202 0.814 0.0
C1110 C 0.39898 0.79248 0.85414 0.0
H1111 H 0.49017 0.81639 0.86843 0.0
H1112 H 0.46172 0.81536 0.85072 0.0
H1113 H 0.41601 0.79128 0.87933 0.0
H1114 H 0.33763 0.77472 0.81641 0.0
H1115 H 0.36562 0.77096 0.83285 0.0
H1116 H 0.41124 0.79834 0.8114 0.0
C1117 C 0.46259 0.80666 0.86219 0.0
C1118 C 0.41518 0.7924 0.86445 0.0
C1119 C 0.47895 0.8074 0.87246 0.0
C1120 C 0.34923 0.78517 0.81551 0.0
C1121 C 0.3652 0.78307 0.825 0.0
C1122 C 0.41216 0.79666 0.82621 0.0
C1123 C 0.44761 0.79518 0.86688 0.0
C1124 C 0.43014 0.79444 0.85577 0.0
C1125 C 0.38048 0.79653 0.82439 0.0
C1126 C 0.39736 0.79489 0.83498 0.0
H1127 H 0.46695 0.77738 0.90463 0.0
H1128 H 0.43842 0.77541 0.88628 0.0
H1129 H 0.43932 0.79735 0.82905 0.0
H1130 H 0.36321 0.82665 0.79731 0.0
H1131 H 0.39107 0.82267 0.81339 0.0
C1132 C 0.55482 0.25622 0.09531 0.0
C1133 C 0.55957 0.26018 0.1148 0.0
C1134 C 0.55292 0.23781 0.08662 0.0
C1135 C 0.54845 0.18698 0.09655 0.0
H1136 H 0.5604 0.181 0.04674 0.0
C1137 C 0.55218 0.11426 0.05798 0.0
C1138 C 0.5437 0.11058 0.03937 0.0
C1139 C 0.55424 0.1322 0.06792 0.0
C1140 C 0.55693 0.18243 0.06062 0.0
H1141 H 0.56614 0.24788 0.14047 0.0
H1142 H 0.56345 0.21596 0.12536 0.0
H1143 H 0.56389 0.21267 0.06257 0.0
H1144 H 0.53114 0.1229 0.01637 0.0
H1145 H 0.53505 0.15419 0.03346 0.0
H1146 H 0.54192 0.15652 0.09457 0.0
C1147 C 0.5607 0.2269 0.11672 0.0
C1148 C 0.55882 0.20064 0.06971 0.0
C1149 C 0.56237 0.24528 0.12542 0.0
C1150 C 0.53765 0.12527 0.03074 0.0
C1151 C 0.53994 0.14322 0.04052 0.0
C1152 C 0.5468 0.16871 0.08752 0.0
C1153 C 0.55599 0.22285 0.09716 0.0
C1154 C 0.55441 0.20326 0.08774 0.0
C1155 C 0.54824 0.14693 0.05922 0.0
C1156 C 0.55081 0.16624 0.06935 0.0
H1157 H 0.55245 0.26735 0.08673 0.0
H1158 H 0.54889 0.23532 0.07161 0.0
H1159 H 0.54469 0.18827 0.11029 0.0
H1160 H 0.55748 0.1034 0.06471 0.0
H1161 H 0.56089 0.13467 0.08224 0.0
C1162 C 0.0939 0.31016 0.39979 0.0
C1163 C 0.07699 0.30119 0.39128 0.0
C1164 C 0.10816 0.30856 0.39092 0.0
C1165 C 0.12196 0.27797 0.35562 0.0
H1166 H 0.15823 0.32205 0.35357 0.0
C1167 C 0.17494 0.27544 0.30928 0.0
C1168 C 0.1919 0.28578 0.31596 0.0
C1169 C 0.16122 0.27743 0.31884 0.0
C1170 C 0.14837 0.30953 0.35423 0.0
H1171 H 0.06177 0.28357 0.36678 0.0
H1172 H 0.08662 0.28071 0.35136 0.0
H1173 H 0.13387 0.32538 0.36965 0.0
H1174 H 0.20758 0.30646 0.33806 0.0
H1175 H 0.18378 0.30943 0.35506 0.0
H1176 H 0.13644 0.26203 0.34045 0.0
C1177 C 0.08888 0.2889 0.36493 0.0
C1178 C 0.13437 0.31146 0.36342 0.0
C1179 C 0.07464 0.29064 0.37371 0.0
C1180 C 0.19476 0.29809 0.33258 0.0
C1181 C 0.18103 0.3 0.34221 0.0
C1182 C 0.136 0.276 0.34656 0.0
C1183 C 0.10582 0.2978 0.37343 0.0
C1184 C 0.12094 0.29573 0.3641 0.0
C1185 C 0.16405 0.28971 0.33546 0.0
C1186 C 0.14934 0.29177 0.34561 0.0
H1187 H 0.09612 0.31838 0.41333 0.0
H1188 H 0.12105 0.31546 0.3979 0.0
H1189 H 0.11197 0.26551 0.35616 0.0
H1190 H 0.17224 0.26563 0.29669 0.0
H1191 H 0.14832 0.26945 0.31303 0.0
C1192 C 0.93091 0.0427 0.16066 0.0
C1193 C 0.9277 0.05666 0.17337 0.0
C1194 C 0.94494 0.04674 0.15098 0.0
C1195 C 0.97505 0.08483 0.13474 0.0
H1196 H 1.00365 0.04738 0.13358 0.0
C1197 C 0.03491 0.09177 0.09567 0.0
C1198 C 0.03487 0.07522 0.08427 0.0
C1199 C 0.02326 0.09141 0.10854 0.0
C1200 C 0.99578 0.05796 0.13377 0.0
H1201 H 0.93621 0.08596 0.18548 0.0
H1202 H 0.96071 0.09305 0.16833 0.0
H1203 H 0.97975 0.04305 0.15157 0.0
H1204 H 0.02292 0.04534 0.07744 0.0
H1205 H 1.00271 0.04476 0.09953 0.0
H1206 H 0.99083 0.09943 0.11639 0.0
C1207 C 0.95239 0.07901 0.16595 0.0
C1208 C 0.9821 0.05545 0.14401 0.0
C1209 C 0.93842 0.07492 0.17577 0.0
C1210 C 0.02323 0.05834 0.08603 0.0
C1211 C 0.01174 0.05796 0.09882 0.0
C1212 C 0.98875 0.08731 0.12436 0.0
C1213 C 0.95595 0.06483 0.15374 0.0
C1214 C 0.97134 0.06859 0.14421 0.0
C1215 C 0.01162 0.07444 0.11023 0.0
C1216 C 0.99892 0.0736 0.12339 0.0
H1217 H 0.92284 0.02853 0.15851 0.0
H1218 H 0.94726 0.03565 0.1414 0.0
H1219 H 0.96693 0.09517 0.13471 0.0
H1220 H 0.04378 0.10496 0.09451 0.0
H1221 H 0.02342 0.10431 0.11721 0.0
C1222 C 0.29879 0.74874 0.47644 0.0
C1223 C 0.29041 0.72977 0.47686 0.0
C1224 C 0.29877 0.75684 0.45945 0.0
C1225 C 0.27533 0.75081 0.41072 0.0
H1226 H 0.31758 0.78259 0.40038 0.0
C1227 C 0.28245 0.77442 0.33697 0.0
C1228 C 0.29206 0.79275 0.33581 0.0
C1229 C 0.28186 0.76713 0.35431 0.0
C1230 C 0.30558 0.77397 0.4031 0.0
H1231 H 0.27541 0.70443 0.45975 0.0
H1232 H 0.27542 0.71848 0.43022 0.0
H1233 H 0.3173 0.76943 0.43035 0.0
H1234 H 0.30833 0.81791 0.35221 0.0
H1235 H 0.30705 0.80537 0.38231 0.0
H1236 H 0.26358 0.75537 0.38352 0.0
C1237 C 0.28187 0.7272 0.443 0.0
C1238 C 0.30544 0.7664 0.42033 0.0
C1239 C 0.28196 0.71911 0.45994 0.0
C1240 C 0.30086 0.80369 0.35248 0.0
C1241 C 0.30023 0.79644 0.3698 0.0
C1242 C 0.27545 0.75844 0.39353 0.0
C1243 C 0.2903 0.74617 0.4425 0.0
C1244 C 0.29033 0.75465 0.42434 0.0
C1245 C 0.29083 0.778 0.37097 0.0
C1246 C 0.2906 0.77008 0.38943 0.0
H1247 H 0.3054 0.75734 0.48923 0.0
H1248 H 0.30524 0.77154 0.45961 0.0
H1249 H 0.26338 0.74206 0.41343 0.0
H1250 H 0.27558 0.76551 0.32446 0.0
H1251 H 0.27467 0.75279 0.35458 0.0
C1252 C 0.5957 0.96018 0.68274 0.0
C1253 C 0.61342 0.96881 0.68644 0.0
C1254 C 0.58543 0.96304 0.66637 0.0
C1255 C 0.58768 0.98522 0.62133 0.0
H1256 H 0.54483 0.99879 0.63122 0.0
C1257 C 0.55778 0.04184 0.58584 0.0
C1258 C 0.5414 0.03502 0.57498 0.0
C1259 C 0.56491 0.0304 0.59801 0.0
C1260 C 0.55665 0.9948 0.62824 0.0
H1261 H 0.63459 0.9859 0.67536 0.0
H1262 H 0.61681 0.99138 0.64736 0.0
H1263 H 0.56061 0.98288 0.65413 0.0
H1264 H 0.51904 0.01154 0.56921 0.0
H1265 H 0.53132 0.99182 0.59129 0.0
H1266 H 0.58424 0.99859 0.59607 0.0
C1267 C 0.61071 0.98214 0.65672 0.0
C1268 C 0.56565 0.98554 0.64124 0.0
C1269 C 0.62094 0.97912 0.67292 0.0
C1270 C 0.53176 0.01707 0.57736 0.0
C1271 C 0.53875 0.00578 0.58988 0.0
C1272 C 0.57887 0.99482 0.60856 0.0
C1273 C 0.59271 0.97472 0.65354 0.0
C1274 C 0.58155 0.98113 0.6382 0.0
C1275 C 0.55554 0.01222 0.59989 0.0
C1276 C 0.56354 1.00005 0.61217 0.0
H1277 H 0.5896 0.95203 0.69289 0.0
H1278 H 0.57169 0.95676 0.66416 0.0
H1279 H 0.59964 0.98164 0.6183 0.0
H1280 H 0.56533 0.05576 0.58449 0.0
H1281 H 0.57781 0.03569 0.60586 0.0
C1282 C 0.30094 0.37837 0.98072 0.0
C1283 C 0.30973 0.39721 0.98654 0.0
C1284 C 0.29936 0.37084 0.96203 0.0
C1285 C 0.32027 0.37609 0.92025 0.0
H1286 H 0.27545 0.35063 0.89247 0.0
C1287 C 0.3116 0.35437 0.84066 0.0
C1288 C 0.29953 0.3377 0.83302 0.0
C1289 C 0.31253 0.36155 0.85932 0.0
C1290 C 0.28814 0.3574 0.90004 0.0
H1291 H 0.32386 0.42286 0.97737 0.0
H1292 H 0.32142 0.40958 0.94491 0.0
H1293 H 0.27779 0.36265 0.92526 0.0
H1294 H 0.27906 0.31541 0.83909 0.0
H1295 H 0.2811 0.32745 0.87173 0.0
H1296 H 0.33083 0.37045 0.89543 0.0
C1297 C 0.31566 0.40069 0.95475 0.0
C1298 C 0.28943 0.36436 0.91885 0.0
C1299 C 0.31697 0.40831 0.97332 0.0
C1300 C 0.28841 0.32839 0.84448 0.0
C1301 C 0.28953 0.3354 0.86324 0.0
C1302 C 0.31905 0.36887 0.90156 0.0
C1303 C 0.30682 0.38189 0.94888 0.0
C1304 C 0.30549 0.37392 0.9291 0.0
C1305 C 0.30162 0.3521 0.87098 0.0
C1306 C 0.30294 0.35954 0.89109 0.0
H1307 H 0.29522 0.36949 0.99059 0.0
H1308 H 0.29255 0.35628 0.95791 0.0
H1309 H 0.33285 0.3832 0.92789 0.0
H1310 H 0.32026 0.36198 0.83217 0.0
H1311 H 0.32175 0.37466 0.86452 0.0
C1312 C 0.93293 0.03362 0.2626 0.0
C1313 C 0.92474 0.04851 0.25805 0.0
C1314 C 0.94406 0.03507 0.27951 0.0
C1315 C 0.95313 0.05968 0.327 0.0
H1316 H 0.99395 0.03779 0.33071 0.0
C1317 C 0.99559 0.05939 0.3978 0.0
C1318 C 0.99926 0.04167 0.40138 0.0
C1319 C 0.98892 0.06254 0.37975 0.0
C1320 C 0.98258 0.04394 0.32987 0.0
H1321 H 0.92205 0.07679 0.26735 0.0
H1322 H 0.94169 0.07941 0.29693 0.0
H1323 H 0.97771 0.03936 0.29995 0.0
H1324 H 0.99963 0.01368 0.38876 0.0
H1325 H 0.98778 0.0191 0.35724 0.0
H1326 H 0.9578 0.06393 0.35691 0.0
C1327 C 0.93932 0.06652 0.28751 0.0
C1328 C 0.97327 0.04482 0.31229 0.0
C1329 C 0.92813 0.06504 0.27057 0.0
C1330 C 0.99674 0.02741 0.38643 0.0
C1331 C 0.99014 0.03058 0.36836 0.0
C1332 C 0.96247 0.05886 0.34457 0.0
C1333 C 0.94729 0.05147 0.29222 0.0
C1334 C 0.95824 0.05236 0.31068 0.0
C1335 C 0.98586 0.04806 0.36491 0.0
C1336 C 0.9771 0.05066 0.3462 0.0
H1337 H 0.93055 0.0207 0.25323 0.0
H1338 H 0.94976 0.0231 0.28283 0.0
H1339 H 0.94149 0.06533 0.32628 0.0
H1340 H 0.99728 0.07061 0.40907 0.0
H1341 H 0.98588 0.0762 0.37745 0.0
C1342 C 0.29308 0.74871 0.58549 0.0
C1343 C 0.29547 0.73013 0.58203 0.0
C1344 C 0.29375 0.75673 0.60383 0.0
C1345 C 0.30949 0.75204 0.6536 0.0
H1346 H 0.27636 0.78275 0.66312 0.0
C1347 C 0.30497 0.78397 0.72865 0.0
C1348 C 0.30288 0.80283 0.73008 0.0
C1349 C 0.30347 0.77384 0.71099 0.0
C1350 C 0.28581 0.77434 0.66071 0.0
H1351 H 0.30061 0.70546 0.59519 0.0
H1352 H 0.30171 0.71939 0.62714 0.0
H1353 H 0.27533 0.76799 0.6316 0.0
H1354 H 0.29749 0.82578 0.7142 0.0
H1355 H 0.29512 0.80839 0.68371 0.0
H1356 H 0.32005 0.75858 0.68276 0.0
C1357 C 0.29947 0.72786 0.61571 0.0
C1358 C 0.28523 0.76589 0.64259 0.0
C1359 C 0.29875 0.71983 0.59736 0.0
C1360 C 0.29915 0.81127 0.71359 0.0
C1361 C 0.29766 0.80121 0.69605 0.0
C1362 C 0.31008 0.76053 0.67177 0.0
C1363 C 0.29686 0.74637 0.61919 0.0
C1364 C 0.29719 0.75482 0.63871 0.0
C1365 C 0.29979 0.78237 0.69445 0.0
C1366 C 0.29839 0.77202 0.67551 0.0
H1367 H 0.29057 0.75704 0.57399 0.0
H1368 H 0.29195 0.77112 0.60598 0.0
H1369 H 0.31899 0.74371 0.65112 0.0
H1370 H 0.30778 0.77708 0.74113 0.0
H1371 H 0.30503 0.75929 0.71028 0.0
C1372 C 0.62366 0.99767 0.80007 0.0
C1373 C 0.61437 0.98546 0.78446 0.0
C1374 C 0.61501 0.00461 0.81356 0.0
C1375 C 0.57157 0.01219 0.82059 0.0
H1376 H 0.59399 0.02342 0.87233 0.0
C1377 C 0.54075 0.03094 0.88611 0.0
C1378 C 0.55041 0.04666 0.89837 0.0
C1379 C 0.54711 0.02477 0.87029 0.0
C1380 C 0.58769 0.0205 0.85788 0.0
H1381 H 0.58882 0.97029 0.77102 0.0
H1382 H 0.57365 0.98174 0.79514 0.0
H1383 H 0.60777 0.00773 0.8497 0.0
H1384 H 0.57346 0.06931 0.90245 0.0
H1385 H 0.58485 0.05797 0.87518 0.0
H1386 H 0.55107 0.02432 0.82932 0.0
C1387 C 0.5876 0.98645 0.79664 0.0
C1388 C 0.59556 0.01155 0.84488 0.0
C1389 C 0.59628 0.97972 0.78293 0.0
C1390 C 0.56591 0.05689 0.8936 0.0
C1391 C 0.57239 0.0505 0.87797 0.0
C1392 C 0.56351 0.02082 0.83375 0.0
C1393 C 0.59686 0.99924 0.81197 0.0
C1394 C 0.58775 0.00752 0.826 0.0
C1395 C 0.5633 0.03405 0.86659 0.0
C1396 C 0.57166 0.02527 0.85241 0.0
H1397 H 0.63761 1.00251 0.80153 0.0
H1398 H 0.62259 0.01471 0.82491 0.0
H1399 H 0.56527 0.00956 0.80615 0.0
H1400 H 0.52889 0.02253 0.88938 0.0
H1401 H 0.53995 0.01199 0.8617 0.0
C1402 C 0.31872 0.40245 0.10854 0.0
C1403 C 0.3155 0.39203 0.09081 0.0
C1404 C 0.3172 0.39324 0.12473 0.0
C1405 C 0.31532 0.34641 0.14343 0.0
H1406 H 0.29448 0.36922 0.18203 0.0
C1407 C 0.29502 0.30787 0.20723 0.0
C1408 C 0.2976 0.3189 0.22457 0.0
C1409 C 0.29803 0.31643 0.19091 0.0
C1410 C 0.30054 0.36275 0.17153 0.0
H1411 H 0.30833 0.36368 0.07623 0.0
H1412 H 0.30547 0.34756 0.10448 0.0
H1413 H 0.29805 0.38465 0.15372 0.0
H1414 H 0.30557 0.34755 0.23841 0.0
H1415 H 0.31113 0.36242 0.21015 0.0
H1416 H 0.31767 0.32442 0.16129 0.0
C1417 C 0.3094 0.36288 0.10591 0.0
C1418 C 0.30259 0.37163 0.15523 0.0
C1419 C 0.31095 0.37212 0.08968 0.0
C1420 C 0.30357 0.33862 0.2253 0.0
C1421 C 0.30657 0.34718 0.20903 0.0
C1422 C 0.31324 0.3375 0.15976 0.0
C1423 C 0.31235 0.37333 0.12366 0.0
C1424 C 0.31008 0.36365 0.14096 0.0
C1425 C 0.30362 0.33625 0.19155 0.0
C1426 C 0.30588 0.3456 0.17407 0.0
H1427 H 0.32233 0.4178 0.10992 0.0
H1428 H 0.3199 0.40178 0.13813 0.0
H1429 H 0.32132 0.33994 0.13287 0.0
H1430 H 0.29038 0.29264 0.20622 0.0
H1431 H 0.29548 0.30757 0.17771 0.0
C1432 C 0.26583 0.96983 0.04116 0.0
C1433 C 0.26235 0.95 0.03737 0.0
C1434 C 0.25232 0.97939 0.04198 0.0
C1435 C 0.20491 0.97416 0.02761 0.0
H1436 H 0.21146 0.01743 0.06474 0.0
C1437 C 0.14971 0.01279 0.04079 0.0
C1438 C 0.15413 0.03274 0.04333 0.0
C1439 C 0.16255 1.00219 0.04005 0.0
C1440 C 0.20948 0.00548 0.05418 0.0
H1441 H 0.24193 0.92461 0.03148 0.0
H1442 H 0.21827 0.94126 0.03321 0.0
H1443 H 0.23437 0.99979 0.06369 0.0
H1444 H 0.1756 0.05713 0.04655 0.0
H1445 H 0.19792 0.0387 0.04547 0.0
H1446 H 0.17992 0.97988 0.01821 0.0
C1447 C 0.23146 0.94948 0.03528 0.0
C1448 C 0.22263 0.99536 0.05355 0.0
C1449 C 0.24502 0.93991 0.03439 0.0
C1450 C 0.17171 0.04181 0.04497 0.0
C1451 C 0.18454 0.03123 0.04432 0.0
C1452 C 0.1917 0.98425 0.0283 0.0
C1453 C 0.23494 0.96935 0.03912 0.0
C1454 C 0.2206 0.97967 0.04015 0.0
C1455 C 0.18013 0.0113 0.04192 0.0
C1456 C 0.19389 1.00014 0.04149 0.0
H1457 H 0.27905 0.97804 0.04342 0.0
H1458 H 0.2555 0.99471 0.04463 0.0
H1459 H 0.20296 0.96231 0.01695 0.0
H1460 H 0.13634 0.00531 0.03972 0.0
H1461 H 0.15874 0.98686 0.03838 0.0
C1462 C 0.72629 0.64802 0.01719 0.0
C1463 C 0.729 0.66664 0.01208 0.0
C1464 C 0.7095 0.63765 0.01745 0.0
C1465 C 0.66365 0.63418 0.99793 0.0
H1466 H 0.65449 0.60448 0.03925 0.0
C1467 C 0.60084 0.57722 0.99505 0.0
C1468 C 0.59262 0.57654 0.011 0.0
C1469 C 0.61725 0.58884 0.99563 0.0
C1470 C 0.65681 0.6128 0.02768 0.0
H1471 H 0.71618 0.6889 1.00309 0.0
H1472 H 0.6868 0.67068 1.00333 0.0
H1473 H 0.68352 0.6237 0.03938 0.0
H1474 H 0.5951 0.58755 0.04004 0.0
H1475 H 0.62399 0.60772 0.04119 0.0
H1476 H 0.63698 0.62321 0.98618 0.0
C1477 C 0.69769 0.66412 0.00713 0.0
C1478 C 0.67348 0.62367 0.02766 0.0
C1479 C 0.71452 0.67458 0.00704 0.0
C1480 C 0.60119 0.58767 0.0276 0.0
C1481 C 0.61772 0.59919 0.02824 0.0
C1482 C 0.64704 0.62316 0.99786 0.0
C1483 C 0.69498 0.64557 0.01246 0.0
C1484 C 0.67713 0.63442 0.01274 0.0
C1485 C 0.62591 0.59998 0.01221 0.0
C1486 C 0.64343 0.61226 0.01268 0.0
H1487 H 0.73717 0.64149 0.02117 0.0
H1488 H 0.70787 0.62332 0.02139 0.0
H1489 H 0.66604 0.6422 0.98617 0.0
H1490 H 0.59455 0.56881 0.98204 0.0
H1491 H 0.62325 0.58892 0.98311 0.0
C1492 C 0.70899 0.51981 0.34151 0.0
C1493 C 0.7144 0.53722 0.35272 0.0
C1494 C 0.71907 0.50619 0.34274 0.0
C1495 C 0.76297 0.49991 0.35343 0.0
H1496 H 0.74024 0.4474 0.35467 0.0
C1497 C 0.79784 0.43793 0.34289 0.0
C1498 C 0.78823 0.42325 0.32945 0.0
C1499 C 0.78991 0.45179 0.3502 0.0
C1500 C 0.74678 0.462 0.35438 0.0
H1501 H 0.73466 0.55424 0.37382 0.0
H1502 H 0.75262 0.53036 0.37564 0.0
H1503 H 0.72425 0.47241 0.359 0.0
H1504 H 0.76283 0.41169 0.31309 0.0
H1505 H 0.74908 0.43564 0.32583 0.0
H1506 H 0.78524 0.48941 0.34781 0.0
C1507 C 0.74046 0.5273 0.36608 0.0
C1508 C 0.73765 0.47627 0.35688 0.0
C1509 C 0.73022 0.54089 0.36504 0.0
C1510 C 0.77052 0.42254 0.32373 0.0
C1511 C 0.76262 0.43628 0.33105 0.0
C1512 C 0.77211 0.48558 0.35081 0.0
C1513 C 0.73485 0.50978 0.35506 0.0
C1514 C 0.74548 0.49526 0.35576 0.0
C1515 C 0.77223 0.45114 0.34424 0.0
C1516 C 0.76387 0.46645 0.35058 0.0
H1517 H 0.69685 0.5166 0.33191 0.0
H1518 H 0.71462 0.4929 0.33386 0.0
H1519 H 0.76925 0.51447 0.35247 0.0
H1520 H 0.81148 0.43873 0.34771 0.0
H1521 H 0.79759 0.46306 0.36042 0.0
C1522 C 0.87186 0.44868 0.54739 0.0
C1523 C 0.85805 0.45306 0.53552 0.0
C1524 C 0.88871 0.45956 0.54864 0.0
C1525 C 0.91301 0.50582 0.53627 0.0
H1526 H 0.9524 0.4819 0.54491 0.0
C1527 C 0.98233 0.53757 0.522 0.0
C1528 C 0.9959 0.53824 0.53682 0.0
C1529 C 0.96542 0.52822 0.52318 0.0
C1530 C 0.9415 0.48876 0.54264 0.0
H1531 H 0.85103 0.47188 0.51531 0.0
H1532 H 0.88039 0.49019 0.51666 0.0
H1533 H 0.92316 0.46307 0.54378 0.0
H1534 H 1.0024 0.52972 0.56451 0.0
H1535 H 0.97283 0.51286 0.56629 0.0
H1536 H 0.93153 0.53129 0.53419 0.0
C1537 C 0.87829 0.47892 0.52565 0.0
C1538 C 0.92471 0.47802 0.54209 0.0
C1539 C 0.86142 0.4683 0.52472 0.0
C1540 C 0.99218 0.52956 0.55293 0.0
C1541 C 0.97532 0.51982 0.55392 0.0
C1542 C 0.92978 0.51643 0.53642 0.0
C1543 C 0.89219 0.47483 0.53774 0.0
C1544 C 0.91018 0.48637 0.53882 0.0
C1545 C 0.96183 0.519 0.539 0.0
C1546 C 0.94415 0.50798 0.53959 0.0
H1547 H 0.86959 0.43708 0.55598 0.0
H1548 H 0.89892 0.45611 0.55836 0.0
H1549 H 0.9023 0.51296 0.53419 0.0
H1550 H 0.98481 0.54416 0.50943 0.0
H1551 H 0.95522 0.5277 0.51147 0.0
C1552 C 0.4345 0.20408 0.31144 0.0
C1553 C 0.43091 0.18682 0.31925 0.0
C1554 C 0.42127 0.21364 0.3065 0.0
C1555 C 0.37369 0.20419 0.29386 0.0
H1556 H 0.38162 0.25903 0.29697 0.0
C1557 C 0.32074 0.24851 0.28006 0.0
C1558 C 0.32527 0.26468 0.2707 0.0
C1559 C 0.33274 0.23719 0.28439 0.0
C1560 C 0.37929 0.24368 0.29584 0.0
H1561 H 0.41106 0.16664 0.32924 0.0
H1562 H 0.38805 0.18368 0.3212 0.0
H1563 H 0.40465 0.24411 0.31024 0.0
H1564 H 0.34511 0.28049 0.25671 0.0
H1565 H 0.36592 0.26072 0.26426 0.0
H1566 H 0.34813 0.20394 0.27973 0.0
C1567 C 0.40093 0.18953 0.31834 0.0
C1568 C 0.39246 0.23515 0.30346 0.0
C1569 C 0.41413 0.17988 0.32311 0.0
C1570 C 0.34133 0.2683 0.26422 0.0
C1571 C 0.35328 0.25705 0.26859 0.0
C1572 C 0.36043 0.21277 0.28639 0.0
C1573 C 0.40424 0.20622 0.30947 0.0
C1574 C 0.38988 0.2153 0.30241 0.0
C1575 C 0.34937 0.24194 0.27942 0.0
C1576 C 0.36322 0.23258 0.28713 0.0
H1577 H 0.44731 0.20968 0.30822 0.0
H1578 H 0.42423 0.22638 0.29955 0.0
H1579 H 0.37137 0.18884 0.29255 0.0
H1580 H 0.30846 0.24535 0.2852 0.0
H1581 H 0.32943 0.22555 0.29272 0.0
C1582 C 0.3366 0.18233 0.50723 0.0
C1583 C 0.3207 0.17212 0.51101 0.0
C1584 C 0.35105 0.17401 0.50788 0.0
C1585 C 0.36934 0.13503 0.52725 0.0
H1586 H 0.3996 0.14453 0.4899 0.0
C1587 C 0.42534 0.09572 0.52079 0.0
C1588 C 0.44088 0.10611 0.51628 0.0
C1589 C 0.41067 0.10367 0.5205 0.0
C1590 C 0.39143 0.14191 0.50059 0.0
H1591 H 0.30748 0.14512 0.51838 0.0
H1592 H 0.33269 0.1305 0.51938 0.0
H1593 H 0.374 0.15826 0.48844 0.0
H1594 H 0.45327 0.13331 0.50851 0.0
H1595 H 0.42779 0.14721 0.50812 0.0
H1596 H 0.38683 0.11871 0.53943 0.0
C1597 C 0.33404 0.14503 0.51611 0.0
C1598 C 0.3767 0.14978 0.49974 0.0
C1599 C 0.31956 0.15336 0.51542 0.0
C1600 C 0.44145 0.12478 0.51177 0.0
C1601 C 0.4268 0.13274 0.51151 0.0
C1602 C 0.3841 0.12717 0.52812 0.0
C1603 C 0.34999 0.15526 0.51234 0.0
C1604 C 0.36549 0.14651 0.51309 0.0
C1605 C 0.41116 0.12225 0.51572 0.0
C1606 C 0.39538 0.13055 0.51484 0.0
H1607 H 0.33795 0.19684 0.50387 0.0
H1608 H 0.36315 0.18242 0.50516 0.0
H1609 H 0.36114 0.13242 0.53792 0.0
H1610 H 0.42434 0.08121 0.52406 0.0
H1611 H 0.39882 0.09506 0.52358 0.0
C1612 C 0.72323 0.63852 0.35949 0.0
C1613 C 0.71334 0.62607 0.3443 0.0
C1614 C 0.73368 0.65568 0.35639 0.0
C1615 C 0.73744 0.69061 0.32263 0.0
H1616 H 0.78679 0.7032 0.34146 0.0
C1617 C 0.78313 0.74664 0.29139 0.0
C1618 C 0.79678 0.75899 0.30333 0.0
C1619 C 0.77333 0.73108 0.29804 0.0
C1620 C 0.77299 0.70007 0.33636 0.0
H1621 H 0.70646 0.62177 0.31406 0.0
H1622 H 0.72437 0.65177 0.30872 0.0
H1623 H 0.76853 0.67505 0.35074 0.0
H1624 H 0.81115 0.76471 0.33149 0.0
H1625 H 0.79379 0.73752 0.34331 0.0
H1626 H 0.74166 0.71548 0.30833 0.0
C1627 C 0.72413 0.64828 0.32297 0.0
C1628 C 0.76257 0.68396 0.34166 0.0
C1629 C 0.71397 0.63108 0.32603 0.0
C1630 C 0.80073 0.7553 0.32199 0.0
C1631 C 0.79081 0.73974 0.32872 0.0
C1632 C 0.74776 0.70676 0.31751 0.0
C1633 C 0.73408 0.66074 0.33809 0.0
C1634 C 0.7448 0.67888 0.33446 0.0
C1635 C 0.77683 0.72761 0.31686 0.0
C1636 C 0.76574 0.71142 0.32389 0.0
H1637 H 0.72299 0.63495 0.37371 0.0
H1638 H 0.74124 0.66511 0.36825 0.0
H1639 H 0.7237 0.68712 0.31713 0.0
H1640 H 0.77988 0.74911 0.2769 0.0
H1641 H 0.76297 0.72178 0.28837 0.0
C1642 C 0.92816 0.59183 0.82312 0.0
C1643 C 0.9414 0.59756 0.81251 0.0
C1644 C 0.91887 0.57308 0.82081 0.0
C1645 C 0.92176 0.52484 0.80522 0.0
H1646 H 0.87168 0.51405 0.80204 0.0
C1647 C 0.88168 0.44845 0.79239 0.0
C1648 C 0.86852 0.44382 0.80334 0.0
C1649 C 0.88978 0.46732 0.79184 0.0
C1650 C 0.88567 0.51684 0.80307 0.0
H1651 H 0.95542 0.58824 0.79126 0.0
H1652 H 0.93922 0.55533 0.78733 0.0
H1653 H 0.88769 0.54688 0.80457 0.0
H1654 H 0.85323 0.45521 0.82202 0.0
H1655 H 0.86757 0.48825 0.82136 0.0
H1656 H 0.91988 0.49491 0.80418 0.0
C1657 C 0.93607 0.56537 0.79743 0.0
C1658 C 0.89482 0.53561 0.80449 0.0
C1659 C 0.94529 0.58417 0.79965 0.0
C1660 C 0.86326 0.45843 0.81335 0.0
C1661 C 0.87145 0.47733 0.81292 0.0
C1662 C 0.91264 0.50608 0.80392 0.0
C1663 C 0.92272 0.55969 0.80794 0.0
C1664 C 0.91296 0.53978 0.8057 0.0
C1665 C 0.88496 0.48195 0.80236 0.0
C1666 C 0.8945 0.50187 0.80293 0.0
H1667 H 0.92487 0.60186 0.83312 0.0
H1668 H 0.9088 0.56902 0.82926 0.0
H1669 H 0.93577 0.52767 0.80637 0.0
H1670 H 0.88577 0.43744 0.78429 0.0
H1671 H 0.89989 0.47044 0.78327 0.0
C1672 C 0.08072 0.89244 0.12829 0.0
C1673 C 0.07506 0.87401 0.11904 0.0
C1674 C 0.07884 0.90827 0.11884 0.0
C1675 C 0.05333 0.92218 0.07735 0.0
H1676 H 0.08793 0.96919 0.08835 0.0
C1677 C 0.03977 0.99361 0.05504 0.0
C1678 C 0.05336 0.00686 0.04989 0.0
C1679 C 0.04278 0.97684 0.062 0.0
C1680 C 0.07821 0.95613 0.08491 0.0
H1681 H 0.0633 0.85777 0.09247 0.0
H1682 H 0.06027 0.88536 0.07586 0.0
H1683 H 0.09305 0.9412 0.10304 0.0
H1684 H 0.08073 0.01244 0.04747 0.0
H1685 H 0.0859 0.98307 0.05929 0.0
H1686 H 0.03861 0.93703 0.05902 0.0
C1687 C 0.06591 0.88761 0.09053 0.0
C1688 C 0.08105 0.94011 0.09356 0.0
C1689 C 0.06776 0.87178 0.10001 0.0
C1690 C 0.06995 1.00263 0.05137 0.0
C1691 C 0.07295 0.98582 0.0583 0.0
C1692 C 0.0505 0.93819 0.06869 0.0
C1693 C 0.07127 0.90608 0.09985 0.0
C1694 C 0.06859 0.92294 0.09002 0.0
C1695 C 0.05946 0.97281 0.06396 0.0
C1696 C 0.06284 0.95545 0.07246 0.0
H1697 H 0.08631 0.89465 0.14298 0.0
H1698 H 0.0829 0.9222 0.12657 0.0
H1699 H 0.04335 0.9093 0.07441 0.0
H1700 H 0.02684 0.99639 0.05419 0.0
H1701 H 0.03211 0.96732 0.06642 0.0
C1702 C 0.97177 0.31014 0.8704 0.0
C1703 C 0.97547 0.29336 0.87693 0.0
C1704 C 0.95565 0.31008 0.85987 0.0
C1705 C 0.91853 0.27992 0.82898 0.0
H1706 H 0.89292 0.31694 0.84466 0.0
C1707 C 0.84776 0.2769 0.7947 0.0
C1708 C 0.84219 0.29401 0.79316 0.0
C1709 C 0.86406 0.27669 0.80471 0.0
C1710 C 0.89996 0.3067 0.8398 0.0
H1711 H 0.96532 0.26328 0.87721 0.0
H1712 H 0.93726 0.26309 0.85835 0.0
H1713 H 0.9214 0.31696 0.86192 0.0
H1714 H 0.84932 0.32425 0.80084 0.0
H1715 H 0.87801 0.32424 0.81744 0.0
H1716 H 0.89747 0.26996 0.80654 0.0
C1717 C 0.94682 0.27631 0.86153 0.0
C1718 C 0.91628 0.30667 0.84981 0.0
C1719 C 0.96284 0.27643 0.87236 0.0
C1720 C 0.85329 0.31091 0.8017 0.0
C1721 C 0.86971 0.3108 0.81145 0.0
C1722 C 0.90233 0.28014 0.81875 0.0
C1723 C 0.94298 0.29318 0.85536 0.0
C1724 C 0.92572 0.29325 0.84456 0.0
C1725 C 0.87533 0.29366 0.81323 0.0
C1726 C 0.89274 0.29349 0.82404 0.0
H1727 H 0.98122 0.32343 0.87374 0.0
H1728 H 0.95309 0.32327 0.85518 0.0
H1729 H 0.92561 0.26952 0.82451 0.0
H1730 H 0.8394 0.26358 0.78841 0.0
H1731 H 0.86765 0.26314 0.80601 0.0
C1732 C 0.55611 0.25965 0.62413 0.0
C1733 C 0.57086 0.27358 0.62281 0.0
C1734 C 0.5543 0.24102 0.61615 0.0
C1735 C 0.57854 0.20586 0.60497 0.0
H1736 H 0.53823 0.18157 0.56877 0.0
C1737 C 0.57246 0.1304 0.56812 0.0
C1738 C 0.55583 0.11891 0.56252 0.0
C1739 C 0.57451 0.14935 0.57537 0.0
C1740 C 0.54943 0.1879 0.57914 0.0
H1741 H 0.59534 0.27893 0.61222 0.0
H1742 H 0.59241 0.2461 0.59878 0.0
H1743 H 0.54117 0.21431 0.58163 0.0
H1744 H 0.52831 0.11798 0.56074 0.0
H1745 H 0.53178 0.15048 0.57436 0.0
H1746 H 0.58652 0.17939 0.60333 0.0
C1747 C 0.58217 0.24975 0.60576 0.0
C1748 C 0.55115 0.20677 0.58635 0.0
C1749 C 0.58378 0.26851 0.61335 0.0
C1750 C 0.54131 0.12656 0.56478 0.0
C1751 C 0.54334 0.14534 0.57244 0.0
C1752 C 0.57665 0.18683 0.5981 0.0
C1753 C 0.56741 0.23585 0.60709 0.0
C1754 C 0.56573 0.21593 0.59928 0.0
C1755 C 0.55997 0.15716 0.5776 0.0
C1756 C 0.56205 0.17752 0.58503 0.0
H1757 H 0.54595 0.26317 0.63135 0.0
H1758 H 0.54283 0.23053 0.61741 0.0
H1759 H 0.58984 0.2126 0.61508 0.0
H1760 H 0.5839 0.12493 0.56635 0.0
H1761 H 0.58753 0.15793 0.5788 0.0
C1762 C 0.58021 0.8003 0.39688 0.0
C1763 C 0.56379 0.79815 0.38597 0.0
C1764 C 0.59494 0.8003 0.3884 0.0
C1765 C 0.60862 0.78496 0.34408 0.0
H1766 H 0.6522 0.81925 0.36504 0.0
C1767 C 0.6692 0.79135 0.3075 0.0
C1768 C 0.68524 0.79239 0.31887 0.0
C1769 C 0.65446 0.79288 0.31545 0.0
C1770 C 0.64018 0.80946 0.35911 0.0
H1771 H 0.54995 0.79443 0.35759 0.0
H1772 H 0.57572 0.79457 0.34273 0.0
H1773 H 0.6263 0.82041 0.37913 0.0
H1774 H 0.6983 0.79603 0.3476 0.0
H1775 H 0.67257 0.79874 0.36149 0.0
H1776 H 0.6225 0.77395 0.32412 0.0
C1777 C 0.57718 0.79605 0.35787 0.0
C1778 C 0.62531 0.81012 0.36719 0.0
C1779 C 0.56242 0.79607 0.36637 0.0
C1780 C 0.68622 0.79538 0.33841 0.0
C1781 C 0.67145 0.79693 0.34637 0.0
C1782 C 0.62348 0.78431 0.33599 0.0
C1783 C 0.59363 0.79814 0.36878 0.0
C1784 C 0.60935 0.79782 0.35983 0.0
C1785 C 0.65534 0.79553 0.33499 0.0
C1786 C 0.63947 0.7965 0.34344 0.0
H1787 H 0.5817 0.80188 0.41202 0.0
H1788 H 0.60733 0.80166 0.39726 0.0
H1789 H 0.59663 0.77508 0.33822 0.0
H1790 H 0.66804 0.78942 0.29239 0.0
H1791 H 0.64235 0.79211 0.30624 0.0
C1792 C 0.03975 0.25368 0.46276 0.0
C1793 C 0.03234 0.25357 0.44399 0.0
C1794 C 0.04016 0.2366 0.47064 0.0
C1795 C 0.03717 0.18522 0.45723 0.0
H1796 H 0.03018 0.18021 0.50863 0.0
C1797 C 0.03076 0.11305 0.48837 0.0
C1798 C 0.03941 0.11311 0.50667 0.0
C1799 C 0.0294 0.13011 0.4809 0.0
C1800 C 0.03232 0.18141 0.4943 0.0
H1801 H 0.01925 0.23541 0.41888 0.0
H1802 H 0.01969 0.20576 0.43262 0.0
H1803 H 0.02877 0.21003 0.49545 0.0
H1804 H 0.05327 0.13138 0.53147 0.0
H1805 H 0.05093 0.16098 0.51843 0.0
H1806 H 0.0407 0.1566 0.45607 0.0
C1807 C 0.02551 0.21898 0.44123 0.0
C1808 C 0.03154 0.19855 0.48673 0.0
C1809 C 0.02514 0.23602 0.43337 0.0
C1810 C 0.04648 0.1307 0.51735 0.0
C1811 C 0.04505 0.14774 0.50989 0.0
C1812 C 0.03791 0.16808 0.46478 0.0
C1813 C 0.03314 0.21899 0.45993 0.0
C1814 C 0.03395 0.20071 0.46808 0.0
C1815 C 0.03659 0.1477 0.49153 0.0
C1816 C 0.03552 0.16592 0.48342 0.0
H1817 H 0.04546 0.26696 0.4713 0.0
H1818 H 0.04632 0.23722 0.48502 0.0
H1819 H 0.03943 0.1864 0.44294 0.0
H1820 H 0.02515 0.09982 0.4797 0.0
H1821 H 0.0226 0.1295 0.46679 0.0
C1822 C 0.62929 0.31144 0.16185 0.0
C1823 C 0.61762 0.32059 0.16979 0.0
C1824 C 0.64558 0.31148 0.17198 0.0
C1825 C 0.67921 0.33707 0.20969 0.0
H1826 H 0.69164 0.28837 0.21462 0.0
C1827 C 0.74235 0.32974 0.25688 0.0
C1828 C 0.75059 0.31531 0.25125 0.0
C1829 C 0.72611 0.33095 0.2473 0.0
C1830 C 0.68861 0.30217 0.21315 0.0
H1831 H 0.61404 0.33743 0.19436 0.0
H1832 H 0.64278 0.33794 0.21188 0.0
H1833 H 0.66385 0.28981 0.19673 0.0
H1834 H 0.74858 0.29134 0.23068 0.0
H1835 H 0.72092 0.29391 0.21359 0.0
H1836 H 0.70416 0.34957 0.22551 0.0
C1837 C 0.6392 0.33058 0.19789 0.0
C1838 C 0.67258 0.30293 0.20296 0.0
C1839 C 0.62276 0.33022 0.18789 0.0
C1840 C 0.74246 0.30245 0.23559 0.0
C1841 C 0.72646 0.30386 0.22584 0.0
C1842 C 0.69543 0.33636 0.21961 0.0
C1843 C 0.65068 0.32099 0.19013 0.0
C1844 C 0.66772 0.32037 0.20108 0.0
C1845 C 0.71787 0.31795 0.23166 0.0
C1846 C 0.70042 0.31888 0.22144 0.0
H1847 H 0.62568 0.30387 0.14795 0.0
H1848 H 0.65422 0.30407 0.16563 0.0
H1849 H 0.67579 0.35072 0.20837 0.0
H1850 H 0.74827 0.33983 0.26894 0.0
H1851 H 0.7199 0.34187 0.25242 0.0
C1852 C 0.54092 0.85783 0.96707 0.0
C1853 C 0.53655 0.85469 0.94748 0.0
C1854 C 0.54293 0.87602 0.97638 0.0
C1855 C 0.52987 0.92163 0.9719 0.0
H1856 H 0.57054 0.94234 0.00896 0.0
C1857 C 0.54354 0.99941 0.00587 0.0
C1858 C 0.55165 1.00339 0.02458 0.0
C1859 C 0.54202 0.98152 0.99613 0.0
C1860 C 0.55894 0.93674 0.99889 0.0
H1861 H 0.53067 0.86813 0.92232 0.0
H1862 H 0.53384 0.89973 0.93859 0.0
H1863 H 0.56689 0.91055 0.9932 0.0
H1864 H 0.56408 0.99151 0.04799 0.0
H1865 H 0.56089 0.96025 0.03144 0.0
H1866 H 0.52157 0.94745 0.97788 0.0
C1867 C 0.5358 0.88817 0.94675 0.0
C1868 C 0.5569 0.91849 0.9898 0.0
C1869 C 0.53407 0.87008 0.93743 0.0
C1870 C 0.55796 0.989 0.03347 0.0
C1871 C 0.55624 0.97105 0.02387 0.0
C1872 C 0.53176 0.93978 0.9812 0.0
C1873 C 0.54033 0.89139 0.96633 0.0
C1874 C 0.54237 0.91072 0.97617 0.0
C1875 C 0.54829 0.96699 0.00501 0.0
C1876 C 0.54634 0.94766 0.99485 0.0
H1877 H 0.54292 0.84627 0.9752 0.0
H1878 H 0.54631 0.87803 0.99149 0.0
H1879 H 0.51844 0.91596 0.96159 0.0
H1880 H 0.53808 0.00998 0.99884 0.0
H1881 H 0.53595 0.97914 0.9816 0.0
C1882 C 0.00634 0.81647 0.65657 0.0
C1883 C 0.02249 0.81678 0.66735 0.0
C1884 C 0.99176 0.81704 0.6652 0.0
C1885 C 0.97451 0.80934 0.7097 0.0
H1886 H 0.94333 0.84101 0.69124 0.0
C1887 C 0.92243 0.82895 0.75109 0.0
C1888 C 0.90613 0.82935 0.741 0.0
C1889 C 0.93618 0.82647 0.74176 0.0
C1890 C 0.95177 0.8319 0.69643 0.0
H1891 H 0.036 0.81779 0.69561 0.0
H1892 H 0.01064 0.819 0.71067 0.0
H1893 H 0.96809 0.83839 0.67565 0.0
H1894 H 0.89153 0.82739 0.71312 0.0
H1895 H 0.91547 0.82283 0.69682 0.0
H1896 H 0.95826 0.80302 0.7306 0.0
C1897 C 0.00914 0.81805 0.69554 0.0
C1898 C 0.96598 0.83039 0.68748 0.0
C1899 C 0.02371 0.81746 0.68691 0.0
C1900 C 0.90387 0.82702 0.72133 0.0
C1901 C 0.91765 0.8246 0.71198 0.0
C1902 C 0.96031 0.81088 0.71867 0.0
C1903 C 0.99299 0.81796 0.6848 0.0
C1904 C 0.97759 0.81915 0.69405 0.0
C1905 C 0.934 0.82437 0.72209 0.0
C1906 C 0.94881 0.82226 0.7122 0.0
H1907 H 1.00497 0.81589 0.64146 0.0
H1908 H 0.97949 0.81667 0.65647 0.0
H1909 H 0.98299 0.80031 0.71496 0.0
H1910 H 0.92457 0.83048 0.76626 0.0
H1911 H 0.94862 0.82654 0.74999 0.0
C1912 C 0.15855 0.0786 0.90915 0.0
C1913 C 0.16014 0.06502 0.89503 0.0
C1914 C 0.14804 0.07343 0.9226 0.0
C1915 C 0.10952 0.03915 0.92859 0.0
H1916 H 0.12162 0.06144 0.98023 0.0
C1917 C 0.06079 0.03202 0.98187 0.0
C1918 C 0.06051 0.04951 0.99144 0.0
C1919 C 0.07397 0.03056 0.97125 0.0
C1920 C 0.1181 0.05505 0.96586 0.0
H1921 H 0.15249 0.0353 0.8842 0.0
H1922 H 0.13402 0.02629 0.90772 0.0
H1923 H 0.14367 0.06506 0.95973 0.0
H1924 H 0.07329 0.07924 0.99703 0.0
H1925 H 0.09616 0.07669 0.97873 0.0
H1926 H 0.08374 0.02982 0.93456 0.0
C1927 C 0.14085 0.04092 0.90832 0.0
C1928 C 0.13069 0.05714 0.95415 0.0
C1929 C 0.15146 0.04607 0.89492 0.0
C1930 C 0.07336 0.0655 0.99004 0.0
C1931 C 0.08652 0.06403 0.97964 0.0
C1932 C 0.09689 0.03708 0.94032 0.0
C1933 C 0.13887 0.05461 0.92214 0.0
C1934 C 0.12638 0.04974 0.93525 0.0
C1935 C 0.08705 0.04655 0.97024 0.0
C1936 C 0.10094 0.0456 0.95886 0.0
H1937 H 0.16509 0.09331 0.90956 0.0
H1938 H 0.14658 0.08435 0.93295 0.0
H1939 H 0.1058 0.03339 0.91404 0.0
H1940 H 0.051 0.0195 0.98278 0.0
H1941 H 0.07408 0.01694 0.96404 0.0
C1942 C 0.80254 0.37883 0.58446 0.0
C1943 C 0.8083 0.39837 0.58359 0.0
C1944 C 0.80293 0.37134 0.60178 0.0
C1945 C 0.80601 0.38571 0.6529 0.0
H1946 H 0.8169 0.33632 0.6581 0.0
C1947 C 0.81716 0.35683 0.72508 0.0
C1948 C 0.80897 0.33787 0.72608 0.0
C1949 C 0.81771 0.36413 0.70774 0.0
C1950 C 0.81372 0.35008 0.65685 0.0
H1951 H 0.81924 0.42533 0.60023 0.0
H1952 H 0.82032 0.41231 0.63026 0.0
H1953 H 0.8165 0.34908 0.62787 0.0
H1954 H 0.79527 0.31166 0.70941 0.0
H1955 H 0.79635 0.32436 0.67931 0.0
H1956 H 0.8034 0.38675 0.68195 0.0
C1957 C 0.81509 0.40273 0.61767 0.0
C1958 C 0.81343 0.3574 0.63947 0.0
C1959 C 0.81459 0.41022 0.6004 0.0
C1960 C 0.80169 0.32632 0.70925 0.0
C1961 C 0.80238 0.33358 0.69193 0.0
C1962 C 0.80643 0.37846 0.67029 0.0
C1963 C 0.8092 0.38319 0.61866 0.0
C1964 C 0.80953 0.37532 0.63721 0.0
C1965 C 0.81023 0.35263 0.69095 0.0
C1966 C 0.81024 0.36053 0.6725 0.0
H1967 H 0.79756 0.36934 0.57176 0.0
H1968 H 0.79805 0.35627 0.60192 0.0
H1969 H 0.80262 0.39938 0.6517 0.0
H1970 H 0.82289 0.36617 0.73771 0.0
H1971 H 0.82403 0.37881 0.70748 0.0
C1972 C 0.51435 0.14043 0.36479 0.0
C1973 C 0.50198 0.15171 0.36548 0.0
C1974 C 0.52332 0.13614 0.38127 0.0
C1975 C 0.54446 0.13365 0.41897 0.0
H1976 H 0.51328 0.1144 0.45311 0.0
C1977 C 0.56681 0.1036 0.48787 0.0
C1978 C 0.55633 0.08649 0.49119 0.0
C1979 C 0.56137 0.11354 0.4732 0.0
C1980 C 0.52212 0.11974 0.4437 0.0
H1981 H 0.49011 0.16844 0.38384 0.0
H1982 H 0.50581 0.16088 0.41274 0.0
H1983 H 0.50263 0.12995 0.42655 0.0
H1984 H 0.53223 0.06604 0.4816 0.0
H1985 H 0.52263 0.0835 0.456 0.0
H1986 H 0.56381 0.12288 0.43588 0.0
C1987 C 0.50844 0.15524 0.39943 0.0
C1988 C 0.51611 0.12885 0.42865 0.0
C1989 C 0.49955 0.15965 0.38291 0.0
C1990 C 0.54047 0.0793 0.47943 0.0
C1991 C 0.53496 0.08932 0.46486 0.0
C1992 C 0.55052 0.12464 0.43412 0.0
C1993 C 0.52 0.14297 0.39875 0.0
C1994 C 0.52713 0.1356 0.41595 0.0
C1995 C 0.54531 0.10659 0.4617 0.0
C1996 C 0.5393 0.11729 0.4464 0.0
H1997 H 0.51651 0.13417 0.35152 0.0
H1998 H 0.53206 0.12654 0.38032 0.0
H1999 H 0.55323 0.13879 0.40942 0.0
H2000 H 0.57911 0.10945 0.49678 0.0
H2001 H 0.56955 0.12686 0.4711 0.0
C2002 C 0.77584 0.71262 0.08432 0.0
C2003 C 0.78418 0.7232 0.07144 0.0
C2004 C 0.77725 0.72019 0.10292 0.0
C2005 C 0.79013 0.7657 0.13434 0.0
H2006 H 0.79094 0.7316 0.17313 0.0
C2007 C 0.80574 0.79146 0.21398 0.0
C2008 C 0.79454 0.78197 0.2253 0.0
C2009 C 0.8047 0.78466 0.19517 0.0
C2010 C 0.79062 0.74128 0.16244 0.0
H2011 H 0.80057 0.75005 0.06795 0.0
H2012 H 0.80354 0.76312 0.10059 0.0
H2013 H 0.7891 0.71926 0.1406 0.0
H2014 H 0.77355 0.75777 0.22568 0.0
H2015 H 0.77197 0.74577 0.19297 0.0
H2016 H 0.7921 0.7878 0.15647 0.0
C2017 C 0.79554 0.7491 0.09627 0.0
C2018 C 0.78947 0.73421 0.14372 0.0
C2019 C 0.79393 0.74159 0.07755 0.0
C2020 C 0.78237 0.76545 0.21738 0.0
C2021 C 0.78151 0.75851 0.19866 0.0
C2022 C 0.79151 0.77282 0.15312 0.0
C2023 C 0.78725 0.73847 0.10926 0.0
C2024 C 0.78904 0.74626 0.12933 0.0
C2025 C 0.79262 0.76806 0.18731 0.0
C2026 C 0.79162 0.76066 0.16737 0.0
H2027 H 0.76809 0.69846 0.08002 0.0
H2028 H 0.77031 0.71168 0.11226 0.0
H2029 H 0.78958 0.77543 0.12373 0.0
H2030 H 0.81522 0.80427 0.2196 0.0
H2031 H 0.81352 0.79226 0.18683 0.0
C2032 C 0.14144 0.05918 0.79356 0.0
C2033 C 0.14403 0.07406 0.80792 0.0
C2034 C 0.13039 0.05923 0.77687 0.0
C2035 C 0.11523 0.09342 0.74794 0.0
H2036 H 0.08809 0.04844 0.71709 0.0
C2037 C 0.08462 0.09714 0.67206 0.0
C2038 C 0.08704 0.08308 0.65887 0.0
C2039 C 0.08795 0.09538 0.6912 0.0
C2040 C 0.09565 0.06112 0.72554 0.0
H2041 H 0.1362 0.09993 0.81665 0.0
H2042 H 0.11678 0.09996 0.78749 0.0
H2043 H 0.09984 0.04616 0.74959 0.0
H2044 H 0.09464 0.05605 0.65535 0.0
H2045 H 0.10068 0.05308 0.68871 0.0
H2046 H 0.11168 0.10827 0.7238 0.0
C2047 C 0.12349 0.08841 0.78905 0.0
C2048 C 0.10233 0.05982 0.74414 0.0
C2049 C 0.13453 0.08835 0.80577 0.0
C2050 C 0.09246 0.06701 0.66518 0.0
C2051 C 0.09586 0.06529 0.68431 0.0
C2052 C 0.10859 0.09472 0.72936 0.0
C2053 C 0.12173 0.07417 0.77421 0.0
C2054 C 0.11251 0.07588 0.75541 0.0
C2055 C 0.09385 0.07956 0.69754 0.0
C2056 C 0.09905 0.07851 0.71783 0.0
H2057 H 0.14857 0.04795 0.79486 0.0
H2058 H 0.12944 0.04814 0.76566 0.0
H2059 H 0.12326 0.10601 0.75615 0.0
H2060 H 0.08018 0.10953 0.66757 0.0
H2061 H 0.08604 0.10649 0.70104 0.0
C2062 C 0.80606 0.40426 0.46362 0.0
C2063 C 0.80131 0.39377 0.47837 0.0
C2064 C 0.80445 0.39533 0.44549 0.0
C2065 C 0.78107 0.35263 0.41441 0.0
H2066 H 0.81837 0.36533 0.38534 0.0
C2067 C 0.78228 0.30843 0.34523 0.0
C2068 C 0.7894 0.31751 0.33076 0.0
C2069 C 0.78326 0.31835 0.36277 0.0
C2070 C 0.80768 0.36181 0.39309 0.0
H2071 H 0.79108 0.36563 0.48558 0.0
H2072 H 0.78811 0.34999 0.4538 0.0
H2073 H 0.8211 0.38113 0.41684 0.0
H2074 H 0.80317 0.34409 0.32333 0.0
H2075 H 0.80435 0.36182 0.35374 0.0
H2076 H 0.76751 0.33352 0.39069 0.0
C2077 C 0.79306 0.36518 0.45631 0.0
C2078 C 0.8093 0.37084 0.41123 0.0
C2079 C 0.79483 0.37411 0.47453 0.0
C2080 C 0.79738 0.33684 0.33414 0.0
C2081 C 0.79824 0.34688 0.35168 0.0
C2082 C 0.77938 0.34373 0.39624 0.0
C2083 C 0.79788 0.37569 0.44157 0.0
C2084 C 0.79607 0.36625 0.42217 0.0
C2085 C 0.79129 0.33773 0.36632 0.0
C2086 C 0.79273 0.34804 0.38535 0.0
H2087 H 0.8111 0.41944 0.46609 0.0
H2088 H 0.80811 0.40388 0.43445 0.0
H2089 H 0.77051 0.34901 0.42232 0.0
H2090 H 0.77617 0.29348 0.34312 0.0
H2091 H 0.77805 0.31064 0.37368 0.0
C2092 C 0.47338 0.16023 0.25222 0.0
C2093 C 0.48494 0.16259 0.26911 0.0
C2094 C 0.47956 0.16022 0.23516 0.0
C2095 C 0.51885 0.16981 0.21237 0.0
H2096 H 0.49489 0.12442 0.18007 0.0
C2097 C 0.54962 0.13267 0.15672 0.0
C2098 C 0.53869 0.12198 0.14101 0.0
C2099 C 0.54273 0.14212 0.17038 0.0
C2100 C 0.50154 0.13743 0.1886 0.0
H2101 H 0.51206 0.16816 0.28152 0.0
H2102 H 0.52289 0.16782 0.25161 0.0
H2103 H 0.48337 0.13346 0.2077 0.0
H2104 H 0.512 0.11409 0.1268 0.0
H2105 H 0.50027 0.13137 0.14995 0.0
H2106 H 0.53729 0.17345 0.19333 0.0
C2107 C 0.50906 0.16615 0.25158 0.0
C2108 C 0.49491 0.1426 0.20451 0.0
C2109 C 0.50287 0.16621 0.26869 0.0
C2110 C 0.52091 0.12221 0.1386 0.0
C2111 C 0.5141 0.13191 0.15207 0.0
C2112 C 0.52545 0.1647 0.19628 0.0
C2113 C 0.49742 0.16249 0.23465 0.0
C2114 C 0.50362 0.15864 0.21673 0.0
C2115 C 0.52479 0.14131 0.16849 0.0
C2116 C 0.517 0.14826 0.18438 0.0
H2117 H 0.45949 0.15765 0.25215 0.0
H2118 H 0.47032 0.15768 0.22232 0.0
H2119 H 0.52576 0.18232 0.22152 0.0
H2120 H 0.56345 0.13323 0.15882 0.0
H2121 H 0.55137 0.1492 0.18286 0.0
C2122 C 0.786 0.74667 0.9686 0.0
C2123 C 0.78226 0.72675 0.9676 0.0
C2124 C 0.78788 0.75589 0.95241 0.0
C2125 C 0.77743 0.74831 0.90045 0.0
H2126 H 0.81525 0.79185 0.90246 0.0
C2127 C 0.79794 0.77906 0.83339 0.0
C2128 C 0.80366 0.7988 0.83389 0.0
C2129 C 0.79452 0.77073 0.8497 0.0
C2130 C 0.80445 0.77989 0.90166 0.0
H2131 H 0.77739 0.70092 0.94874 0.0
H2132 H 0.78066 0.71693 0.9206 0.0
H2133 H 0.81067 0.77667 0.9308 0.0
H2134 H 0.81012 0.8253 0.85184 0.0
H2135 H 0.80394 0.81086 0.88026 0.0
H2136 H 0.77118 0.7515 0.87133 0.0
C2137 C 0.78201 0.72548 0.93384 0.0
C2138 C 0.80184 0.77115 0.91796 0.0
C2139 C 0.78023 0.71628 0.95001 0.0
C2140 C 0.80576 0.81004 0.85102 0.0
C2141 C 0.80232 0.80173 0.86734 0.0
C2142 C 0.78 0.75708 0.88417 0.0
C2143 C 0.78597 0.74541 0.9348 0.0
C2144 C 0.78836 0.75516 0.91756 0.0
C2145 C 0.79675 0.78192 0.86696 0.0
C2146 C 0.79362 0.77293 0.88449 0.0
H2147 H 0.78764 0.75516 0.98192 0.0
H2148 H 0.79074 0.77125 0.95367 0.0
H2149 H 0.76675 0.73621 0.89966 0.0
H2150 H 0.79638 0.76998 0.82044 0.0
H2151 H 0.79052 0.75544 0.84883 0.0
C2152 C 0.84596 0.18418 0.02646 0.0
C2153 C 0.82866 0.17401 0.02248 0.0
C2154 C 0.85966 0.17469 0.02663 0.0
C2155 C 0.86963 0.12715 0.03094 0.0
H2156 H 0.91049 0.1478 0.0095 0.0
C2157 C 0.92069 0.08329 0.01866 0.0
C2158 C 0.9383 0.09243 0.02306 0.0
C2159 C 0.90766 0.09367 0.01857 0.0
C2160 C 0.89925 0.14194 0.01573 0.0
H2161 H 0.81216 0.14596 0.01535 0.0
H2162 H 0.83597 0.12947 0.01543 0.0
H2163 H 0.88718 0.16516 0.0095 0.0
H2164 H 0.95593 0.11979 0.03074 0.0
H2165 H 0.93316 0.13792 0.0305 0.0
H2166 H 0.88162 0.10392 0.03711 0.0
C2167 C 0.83901 0.14472 0.01872 0.0
C2168 C 0.88589 0.1519 0.01574 0.0
C2169 C 0.82535 0.1542 0.01856 0.0
C2170 C 0.94253 0.1123 0.02707 0.0
C2171 C 0.92947 0.1227 0.02695 0.0
C2172 C 0.88295 0.1172 0.03091 0.0
C2173 C 0.85635 0.15482 0.02284 0.0
C2174 C 0.87085 0.14456 0.02324 0.0
C2175 C 0.91187 0.11349 0.02284 0.0
C2176 C 0.89789 0.12439 0.02319 0.0
H2177 H 0.84891 0.19946 0.02957 0.0
H2178 H 0.87285 0.18289 0.03003 0.0
H2179 H 0.8584 0.12125 0.03718 0.0
H2180 H 0.91695 0.06807 0.01514 0.0
H2181 H 0.89426 0.08615 0.01498 0.0
C2182 C 0.37954 0.44325 0.03717 0.0
C2183 C 0.36788 0.45072 0.04688 0.0
C2184 C 0.39624 0.45393 0.03693 0.0
C2185 C 0.42986 0.49267 0.06305 0.0
H2186 H 0.44672 0.49876 0.01572 0.0
C2187 C 0.49349 0.54552 0.05925 0.0
C2188 C 0.5041 0.54096 0.04647 0.0
C2189 C 0.47682 0.53454 0.05873 0.0
C2190 C 0.44239 0.497 0.02912 0.0
H2191 H 0.36468 0.47509 0.06422 0.0
H2192 H 0.39401 0.49353 0.0642 0.0
H2193 H 0.41811 0.47904 0.01631 0.0
H2194 H 0.50569 0.52132 0.02311 0.0
H2195 H 0.47678 0.50166 0.0225 0.0
H2196 H 0.45416 0.51004 0.07604 0.0
C2197 C 0.39018 0.47948 0.05666 0.0
C2198 C 0.42593 0.48574 0.02941 0.0
C2199 C 0.37338 0.46894 0.05664 0.0
C2200 C 0.49768 0.52527 0.03299 0.0
C2201 C 0.48106 0.51405 0.03265 0.0
C2202 C 0.4464 0.50367 0.06281 0.0
C2203 C 0.40174 0.47216 0.04668 0.0
C2204 C 0.41943 0.4836 0.04637 0.0
C2205 C 0.47042 0.51843 0.04564 0.0
C2206 C 0.45288 0.5062 0.04582 0.0
H2207 H 0.37565 0.42929 0.02945 0.0
H2208 H 0.40491 0.44788 0.02923 0.0
H2209 H 0.4253 0.49107 0.07636 0.0
H2210 H 0.49809 0.55762 0.06972 0.0
H2211 H 0.46896 0.53877 0.06865 0.0
C2212 C 0.35979 0.58147 0.71702 0.0
C2213 C 0.36548 0.57614 0.70036 0.0
C2214 C 0.34764 0.59285 0.71694 0.0
C2215 C 0.33232 0.62937 0.69205 0.0
H2216 H 0.29798 0.62205 0.7254 0.0
C2217 C 0.29383 0.68636 0.7111 0.0
C2218 C 0.29577 0.69076 0.73058 0.0
C2219 C 0.29872 0.67018 0.70372 0.0
C2220 C 0.30739 0.62417 0.71589 0.0
H2221 H 0.36277 0.57822 0.67047 0.0
H2222 H 0.34148 0.59846 0.67035 0.0
H2223 H 0.31315 0.59682 0.71867 0.0
H2224 H 0.30368 0.6816 0.7576 0.0
H2225 H 0.31213 0.6534 0.74478 0.0
H2226 H 0.32705 0.6571 0.68997 0.0
C2227 C 0.34647 0.59374 0.68345 0.0
C2228 C 0.31608 0.60979 0.71207 0.0
C2229 C 0.3586 0.58217 0.68351 0.0
C2230 C 0.30223 0.67857 0.74253 0.0
C2231 C 0.30686 0.66235 0.7352 0.0
C2232 C 0.32356 0.64377 0.69583 0.0
C2233 C 0.34093 0.59921 0.7002 0.0
C2234 C 0.32917 0.61258 0.70079 0.0
C2235 C 0.30528 0.65806 0.71575 0.0
C2236 C 0.31157 0.64157 0.70843 0.0
H2237 H 0.36486 0.57701 0.73023 0.0
H2238 H 0.34388 0.59714 0.73013 0.0
H2239 H 0.3424 0.63193 0.68336 0.0
H2240 H 0.28889 0.69562 0.70165 0.0
H2241 H 0.29744 0.66716 0.68867 0.0
C2242 C 0.23615 0.65253 0.51929 0.0
C2243 C 0.23951 0.67242 0.5223 0.0
C2244 C 0.21933 0.64178 0.51846 0.0
C2245 C 0.17759 0.64436 0.5338 0.0
H2246 H 0.15975 0.59917 0.49885 0.0
C2247 C 0.11565 0.59135 0.54176 0.0
C2248 C 0.10349 0.58432 0.52554 0.0
C2249 C 0.13223 0.6015 0.54049 0.0
C2250 C 0.1645 0.61183 0.5086 0.0
H2251 H 0.22782 0.69669 0.52644 0.0
H2252 H 0.19843 0.67796 0.52486 0.0
H2253 H 0.18841 0.61861 0.49768 0.0
H2254 H 0.09956 0.582 0.49517 0.0
H2255 H 0.1286 0.59984 0.49298 0.0
H2256 H 0.15369 0.63776 0.5446 0.0
C2257 C 0.20883 0.67063 0.52338 0.0
C2258 C 0.18098 0.62286 0.50806 0.0
C2259 C 0.22565 0.68137 0.52419 0.0
C2260 C 0.10858 0.58718 0.50795 0.0
C2261 C 0.12524 0.59737 0.50669 0.0
C2262 C 0.16117 0.63332 0.53437 0.0
C2263 C 0.20549 0.65069 0.52065 0.0
C2264 C 0.18775 0.63922 0.52071 0.0
C2265 C 0.13714 0.60494 0.52298 0.0
C2266 C 0.15447 0.61684 0.52188 0.0
H2267 H 0.24657 0.64521 0.51779 0.0
H2268 H 0.21726 0.62646 0.51656 0.0
H2269 H 0.18245 0.65674 0.54388 0.0
H2270 H 0.1123 0.58931 0.55556 0.0
H2271 H 0.1412 0.60677 0.5533 0.0
C2272 C 0.68946 0.94295 0.74223 0.0
C2273 C 0.67334 0.93885 0.74848 0.0
C2274 C 0.70232 0.93326 0.74815 0.0
C2275 C 0.71613 0.90606 0.78618 0.0
H2276 H 0.74557 0.8913 0.75194 0.0
C2277 C 0.75967 0.85219 0.79881 0.0
C2278 C 0.77546 0.85521 0.79175 0.0
C2279 C 0.74873 0.86489 0.79633 0.0
C2280 C 0.73766 0.89566 0.76175 0.0
H2281 H 0.65772 0.92097 0.76522 0.0
H2282 H 0.68015 0.90362 0.77527 0.0
H2283 H 0.72234 0.90679 0.74057 0.0
H2284 H 0.79291 0.8748 0.77813 0.0
H2285 H 0.77375 0.89703 0.77383 0.0
H2286 H 0.73127 0.89437 0.80724 0.0
C2287 C 0.68294 0.91463 0.7661 0.0
C2288 C 0.7243 0.90445 0.75522 0.0
C2289 C 0.67005 0.92439 0.76021 0.0
C2290 C 0.78078 0.87201 0.78362 0.0
C2291 C 0.76978 0.88468 0.78104 0.0
C2292 C 0.72946 0.89715 0.7927 0.0
C2293 C 0.6993 0.9192 0.76037 0.0
C2294 C 0.71335 0.90968 0.76734 0.0
C2295 C 0.75337 0.8808 0.78669 0.0
C2296 C 0.7403 0.89183 0.78051 0.0
H2297 H 0.69238 0.95409 0.73324 0.0
H2298 H 0.71484 0.93725 0.74363 0.0
H2299 H 0.70808 0.91023 0.79593 0.0
H2300 H 0.75528 0.83946 0.80532 0.0
H2301 H 0.73614 0.86155 0.80079 0.0
C2302 C 0.77597 0.96701 0.55235 0.0
C2303 C 0.77355 0.94718 0.54931 0.0
C2304 C 0.7617 0.97563 0.55224 0.0
C2305 C 0.71411 0.96664 0.53601 0.0
H2306 H 0.71634 0.01 0.5717 0.0
C2307 C 0.65361 0.99693 0.54655 0.0
C2308 C 0.65576 0.01677 0.54919 0.0
C2309 C 0.66798 0.98855 0.54624 0.0
C2310 C 0.71555 0.99803 0.56149 0.0
H2311 H 0.75423 0.92084 0.54392 0.0
H2312 H 0.72941 0.93578 0.54398 0.0
H2313 H 0.74133 0.99529 0.57192 0.0
H2314 H 0.67485 0.04332 0.5537 0.0
H2315 H 0.69983 0.02874 0.5529 0.0
H2316 H 0.68828 0.96933 0.52566 0.0
C2317 C 0.7423 0.94476 0.54615 0.0
C2318 C 0.72992 0.98959 0.5616 0.0
C2319 C 0.75655 0.93616 0.54624 0.0
C2320 C 0.67266 0.02801 0.55143 0.0
C2321 C 0.68703 0.01963 0.5512 0.0
C2322 C 0.69973 0.97506 0.53592 0.0
C2323 C 0.74465 0.96462 0.5491 0.0
C2324 C 0.72939 0.97375 0.54888 0.0
C2325 C 0.6849 0.99979 0.54866 0.0
C2326 C 0.70025 0.99086 0.54867 0.0
H2327 H 0.78891 0.9759 0.5547 0.0
H2328 H 0.76404 0.99095 0.55433 0.0
H2329 H 0.7133 0.95468 0.52578 0.0
H2330 H 0.64079 0.98783 0.54462 0.0
H2331 H 0.66585 0.97322 0.54442 0.0
C2332 C 0.37958 0.47245 0.69548 0.0
C2333 C 0.37245 0.48845 0.69846 0.0
C2334 C 0.37053 0.45449 0.69842 0.0
C2335 C 0.35475 0.42306 0.7207 0.0
H2336 H 0.30459 0.40806 0.70948 0.0
C2337 C 0.31489 0.36842 0.76046 0.0
C2338 C 0.3002 0.35588 0.75035 0.0
C2339 C 0.32403 0.38309 0.75191 0.0
C2340 C 0.31862 0.41185 0.71252 0.0
H2341 H 0.34996 0.49816 0.70584 0.0
H2342 H 0.33431 0.46706 0.71101 0.0
H2343 H 0.31961 0.43572 0.69666 0.0
H2344 H 0.28362 0.3486 0.72339 0.0
H2345 H 0.29962 0.37409 0.70841 0.0
H2346 H 0.35374 0.39919 0.7366 0.0
C2347 C 0.34677 0.4682 0.70631 0.0
C2348 C 0.32722 0.42782 0.7053 0.0
C2349 C 0.3558 0.48607 0.70345 0.0
C2350 C 0.29482 0.35819 0.73155 0.0
C2351 C 0.30398 0.37281 0.72299 0.0
C2352 C 0.34615 0.40705 0.7279 0.0
C2353 C 0.35418 0.45227 0.70425 0.0
C2354 C 0.34534 0.43385 0.70965 0.0
C2355 C 0.31865 0.38547 0.73307 0.0
C2356 C 0.32796 0.4015 0.7242 0.0
H2357 H 0.39241 0.4739 0.69163 0.0
H2358 H 0.37649 0.44242 0.69653 0.0
H2359 H 0.36871 0.42741 0.72445 0.0
H2360 H 0.31929 0.36693 0.77499 0.0
H2361 H 0.33511 0.39278 0.76017 0.0
C2362 C 0.17359 0.54172 0.27575 0.0
C2363 C 0.15779 0.53522 0.26365 0.0
C2364 C 0.18144 0.56098 0.27833 0.0
C2365 C 0.17384 0.60891 0.26988 0.0
H2366 H 0.22334 0.62048 0.26857 0.0
C2367 C 0.21025 0.68044 0.25132 0.0
C2368 C 0.22631 0.68879 0.26235 0.0
C2369 C 0.20174 0.66213 0.25358 0.0
C2370 C 0.20956 0.61749 0.26921 0.0
H2371 H 0.13747 0.54372 0.24529 0.0
H2372 H 0.15134 0.57729 0.24944 0.0
H2373 H 0.2084 0.58775 0.26924 0.0
H2374 H 0.24595 0.68443 0.28454 0.0
H2375 H 0.2312 0.6522 0.28817 0.0
H2376 H 0.17501 0.63868 0.26918 0.0
C2377 C 0.15756 0.56763 0.25721 0.0
C2378 C 0.20099 0.59875 0.26966 0.0
C2379 C 0.14964 0.54837 0.25475 0.0
C2380 C 0.23372 0.67832 0.27562 0.0
C2381 C 0.22526 0.65992 0.27777 0.0
C2382 C 0.1824 0.62764 0.26928 0.0
C2383 C 0.17373 0.5741 0.26874 0.0
C2384 C 0.18299 0.59421 0.26978 0.0
C2385 C 0.20917 0.65169 0.26681 0.0
C2386 C 0.2003 0.63206 0.26872 0.0
H2387 H 0.18009 0.53188 0.28291 0.0
H2388 H 0.19372 0.56554 0.2876 0.0
H2389 H 0.16002 0.60594 0.27028 0.0
H2390 H 0.20433 0.68796 0.24072 0.0
H2391 H 0.18949 0.65598 0.24471 0.0
C2392 C 0.52301 0.75159 0.4625 0.0
C2393 C 0.5208 0.74983 0.44283 0.0
C2394 C 0.52526 0.73608 0.47237 0.0
C2395 C 0.5395 0.69062 0.46692 0.0
H2396 H 0.51879 0.68001 0.51139 0.0
C2397 C 0.55847 0.63443 0.51323 0.0
C2398 C 0.54501 0.62204 0.5196 0.0
C2399 C 0.55539 0.6505 0.50489 0.0
C2400 C 0.52459 0.68272 0.49894 0.0
H2401 H 0.51874 0.73026 0.41809 0.0
H2402 H 0.52246 0.70327 0.43522 0.0
H2403 H 0.51298 0.70665 0.49449 0.0
H2404 H 0.51781 0.6173 0.52269 0.0
H2405 H 0.51242 0.64528 0.50799 0.0
H2406 H 0.55087 0.66659 0.4711 0.0
C2407 C 0.52275 0.71667 0.44308 0.0
C2408 C 0.5214 0.69811 0.48935 0.0
C2409 C 0.52049 0.73213 0.43325 0.0
C2410 C 0.52849 0.62647 0.51791 0.0
C2411 C 0.52541 0.64259 0.50956 0.0
C2412 C 0.54272 0.67531 0.47651 0.0
C2413 C 0.52539 0.71849 0.46278 0.0
C2414 C 0.52877 0.70221 0.47317 0.0
C2415 C 0.53877 0.65466 0.50267 0.0
C2416 C 0.53533 0.67114 0.49265 0.0
H2417 H 0.52335 0.76505 0.47029 0.0
H2418 H 0.52739 0.73804 0.48753 0.0
H2419 H 0.54558 0.69347 0.45467 0.0
H2420 H 0.57139 0.63158 0.51437 0.0
H2421 H 0.56607 0.65965 0.50008 0.0
C2422 C 0.63791 0.32083 0.6786 0.0
C2423 C 0.62648 0.33175 0.68438 0.0
C2424 C 0.65384 0.32137 0.68972 0.0
C2425 C 0.68702 0.35105 0.72567 0.0
H2426 H 0.7012 0.30394 0.73496 0.0
C2427 C 0.75141 0.35014 0.77355 0.0
C2428 C 0.76061 0.33642 0.76854 0.0
C2429 C 0.73461 0.34945 0.76428 0.0
C2430 C 0.69762 0.31727 0.73232 0.0
H2431 H 0.62286 0.35195 0.70628 0.0
H2432 H 0.65095 0.35318 0.72561 0.0
H2433 H 0.67294 0.30313 0.71673 0.0
H2434 H 0.75975 0.31156 0.74963 0.0
H2435 H 0.73078 0.31056 0.73314 0.0
H2436 H 0.71185 0.36527 0.74065 0.0
C2437 C 0.64748 0.34413 0.71249 0.0
C2438 C 0.68134 0.31677 0.72193 0.0
C2439 C 0.63139 0.34337 0.70147 0.0
C2440 C 0.75279 0.32208 0.75405 0.0
C2441 C 0.73612 0.32151 0.74462 0.0
C2442 C 0.70342 0.35157 0.73586 0.0
C2443 C 0.65884 0.33305 0.70677 0.0
C2444 C 0.67589 0.33365 0.71841 0.0
C2445 C 0.72674 0.33518 0.74959 0.0
C2446 C 0.70901 0.33468 0.73926 0.0
H2447 H 0.6345 0.31173 0.66551 0.0
H2448 H 0.66238 0.31282 0.68485 0.0
H2449 H 0.68324 0.3643 0.72302 0.0
H2450 H 0.75716 0.36136 0.78469 0.0
H2451 H 0.72778 0.36007 0.76876 0.0
C2452 C 0.04379 0.36078 0.94853 0.0
C2453 C 0.02739 0.34859 0.94363 0.0
C2454 C 0.04539 0.37942 0.95633 0.0
C2455 C 0.02117 0.412 0.97845 0.0
H2456 H 0.05687 0.45075 0.96425 0.0
C2457 C 0.02561 0.49277 0.99515 0.0
C2458 C 0.0421 0.50345 1.00321 0.0
C2459 C 0.02353 0.47387 0.98775 0.0
C2460 C 0.0469 0.44007 0.96842 0.0
H2461 H 0.99982 0.34631 0.94326 0.0
H2462 H 1.0025 0.37899 0.95636 0.0
H2463 H 0.05369 0.41779 0.95196 0.0
H2464 H 0.06938 0.50274 0.00948 0.0
H2465 H 0.06577 0.46992 0.99624 0.0
H2466 H 0.01419 0.43456 0.99456 0.0
C2467 C 0.01421 0.37409 0.95461 0.0
C2468 C 0.04512 0.42111 0.96147 0.0
C2469 C 0.01264 0.35533 0.94703 0.0
C2470 C 0.05649 0.49492 1.00339 0.0
C2471 C 0.05445 0.47614 0.99574 0.0
C2472 C 0.02282 0.43102 0.9852 0.0
C2473 C 0.03061 0.38648 0.95919 0.0
C2474 C 0.03232 0.40675 0.9665 0.0
C2475 C 0.03793 0.46535 0.98799 0.0
C2476 C 0.03578 0.44523 0.98036 0.0
H2477 H 0.05541 0.35595 0.94618 0.0
H2478 H 0.05827 0.38831 0.96007 0.0
H2479 H 0.01133 0.40139 0.98289 0.0
H2480 H 0.01424 0.49887 0.99487 0.0
H2481 H 0.01067 0.46593 0.98174 0.0
C2482 C 0.01607 0.82832 0.16602 0.0
C2483 C 0.03126 0.82444 0.17578 0.0
C2484 C 1.00122 0.82744 0.17449 0.0
C2485 C 0.98653 0.82849 0.2208 0.0
H2486 H 0.94127 0.80768 0.19137 0.0
C2487 C 0.92362 0.81582 0.25389 0.0
C2488 C 0.90909 0.82106 0.24407 0.0
C2489 C 0.93845 0.81558 0.24563 0.0
C2490 C 0.9538 0.8137 0.19974 0.0
H2491 H 0.0428 0.81654 0.20208 0.0
H2492 H 0.01682 0.81478 0.21683 0.0
H2493 H 0.96728 0.80848 0.17699 0.0
H2494 H 0.89869 0.82977 0.21766 0.0
H2495 H 0.92461 0.82955 0.20331 0.0
H2496 H 0.97301 0.83369 0.24356 0.0
C2497 C 0.01643 0.81876 0.2027 0.0
C2498 C 0.96873 0.81417 0.19149 0.0
C2499 C 0.0313 0.81967 0.19422 0.0
C2500 C 0.9097 0.82583 0.22568 0.0
C2501 C 0.9245 0.82552 0.21739 0.0
C2502 C 0.97159 0.82797 0.22907 0.0
C2503 C 1.00118 0.82261 0.19293 0.0
C2504 C 0.9853 0.82167 0.20188 0.0
C2505 C 0.93911 0.8205 0.22729 0.0
C2506 C 0.95503 0.82065 0.21861 0.0
H2507 H 0.01563 0.83211 0.15181 0.0
H2508 H 0.98984 0.83079 0.16663 0.0
H2509 H 0.99904 0.83462 0.22916 0.0
H2510 H 0.92367 0.81224 0.26814 0.0
H2511 H 0.9494 0.81147 0.25359 0.0
C2512 C 0.57537 0.38398 0.12613 0.0
C2513 C 0.56918 0.36636 0.11531 0.0
C2514 C 0.57469 0.40094 0.1182 0.0
C2515 C 0.55154 0.42007 0.07862 0.0
H2516 H 0.58922 0.46424 0.09177 0.0
C2517 C 0.5521 0.48822 0.0416 0.0
C2518 C 0.55816 0.50586 0.05246 0.0
C2519 C 0.55402 0.47134 0.04908 0.0
C2520 C 0.57847 0.45213 0.0881 0.0
H2521 H 0.55762 0.35278 0.08757 0.0
H2522 H 0.55651 0.38237 0.07366 0.0
H2523 H 0.59161 0.43462 0.10492 0.0
H2524 H 0.57113 0.5194 0.07983 0.0
H2525 H 0.57428 0.48995 0.09294 0.0
H2526 H 0.5383 0.43755 0.06197 0.0
C2527 C 0.56174 0.38308 0.08836 0.0
C2528 C 0.57987 0.4351 0.09563 0.0
C2529 C 0.56249 0.3661 0.09629 0.0
C2530 C 0.56637 0.50613 0.07099 0.0
C2531 C 0.56824 0.4892 0.0785 0.0
C2532 C 0.55012 0.4371 0.07114 0.0
C2533 C 0.56773 0.40074 0.09924 0.0
C2534 C 0.56642 0.41883 0.09099 0.0
C2535 C 0.562 0.47154 0.06768 0.0
C2536 C 0.56357 0.45339 0.07574 0.0
H2537 H 0.58056 0.38469 0.14085 0.0
H2538 H 0.57925 0.41422 0.12707 0.0
H2539 H 0.54079 0.40797 0.07498 0.0
H2540 H 0.54581 0.48737 0.02724 0.0
H2541 H 0.54933 0.4581 0.04017 0.0
C2542 C 0.96983 0.28911 0.39177 0.0
C2543 C 0.98472 0.3008 0.3873 0.0
C2544 C 0.95354 0.28807 0.38109 0.0
C2545 C 0.93273 0.30057 0.33534 0.0
H2546 H 0.89161 0.29305 0.35927 0.0
C2547 C 0.86673 0.31598 0.30338 0.0
C2548 C 0.85197 0.30154 0.30328 0.0
C2549 C 0.88291 0.31451 0.31273 0.0
C2550 C 0.90298 0.29499 0.35239 0.0
H2551 H 0.99424 0.32088 0.36846 0.0
H2552 H 0.96591 0.31986 0.35045 0.0
H2553 H 0.91978 0.29372 0.37771 0.0
H2554 H 0.84262 0.27421 0.31286 0.0
H2555 H 0.8709 0.27194 0.32969 0.0
H2556 H 0.91583 0.30275 0.31022 0.0
C2557 C 0.96671 0.31086 0.36168 0.0
C2558 C 0.91916 0.29529 0.36292 0.0
C2559 C 0.983 0.3116 0.37212 0.0
C2560 C 0.85377 0.2855 0.31259 0.0
C2561 C 0.86991 0.28425 0.3223 0.0
C2562 C 0.91659 0.30065 0.32493 0.0
C2563 C 0.95172 0.29899 0.36589 0.0
C2564 C 0.93432 0.29816 0.35458 0.0
C2565 C 0.8846 0.29878 0.32252 0.0
C2566 C 0.90158 0.2979 0.33336 0.0
H2567 H 0.9708 0.28053 0.40333 0.0
H2568 H 0.94245 0.27849 0.38464 0.0
H2569 H 0.94392 0.30234 0.32821 0.0
H2570 H 0.86577 0.32849 0.29631 0.0
H2571 H 0.89402 0.32595 0.31276 0.0
C2572 C 0.05511 0.75922 0.59643 0.0
C2573 C 0.06027 0.76334 0.61586 0.0
C2574 C 0.05314 0.74077 0.58783 0.0
C2575 C 0.04911 0.6901 0.59807 0.0
H2576 H 0.05988 0.6838 0.54777 0.0
C2577 C 0.05275 0.61748 0.55895 0.0
C2578 C 0.04398 0.61379 0.54045 0.0
C2579 C 0.05463 0.63529 0.56906 0.0
C2580 C 0.05673 0.68532 0.56179 0.0
H2581 H 0.06749 0.7513 0.64151 0.0
H2582 H 0.06468 0.7193 0.62652 0.0
H2583 H 0.06367 0.71555 0.56353 0.0
H2584 H 0.03048 0.62588 0.51792 0.0
H2585 H 0.03405 0.65696 0.53531 0.0
H2586 H 0.04263 0.65964 0.59629 0.0
C2587 C 0.06168 0.73015 0.61788 0.0
C2588 C 0.0588 0.70357 0.57083 0.0
C2589 C 0.06342 0.74857 0.6265 0.0
C2590 C 0.03724 0.62826 0.5322 0.0
C2591 C 0.03934 0.64609 0.54213 0.0
C2592 C 0.04728 0.67178 0.58908 0.0
C2593 C 0.05653 0.72594 0.59838 0.0
C2594 C 0.05481 0.7063 0.58903 0.0
C2595 C 0.04813 0.64988 0.56064 0.0
C2596 C 0.05086 0.66921 0.57073 0.0
H2597 H 0.05245 0.77025 0.58785 0.0
H2598 H 0.04877 0.73814 0.57288 0.0
H2599 H 0.04568 0.69149 0.61196 0.0
H2600 H 0.05856 0.60679 0.56539 0.0
H2601 H 0.06162 0.63784 0.58323 0.0
C2602 C 0.59056 0.80282 0.90225 0.0
C2603 C 0.57387 0.7997 0.89173 0.0
C2604 C 0.60491 0.80146 0.89348 0.0
C2605 C 0.62051 0.80293 0.84782 0.0
H2606 H 0.65349 0.77519 0.87035 0.0
C2607 C 0.67524 0.78359 0.80993 0.0
C2608 C 0.69124 0.78369 0.82093 0.0
C2609 C 0.66095 0.78615 0.81837 0.0
C2610 C 0.64458 0.78324 0.86398 0.0
H2611 H 0.55919 0.79297 0.86371 0.0
H2612 H 0.58426 0.79068 0.8484 0.0
H2613 H 0.62876 0.7788 0.88551 0.0
H2614 H 0.705 0.78739 0.84935 0.0
H2615 H 0.68032 0.79225 0.86403 0.0
H2616 H 0.63641 0.80755 0.82638 0.0
C2617 C 0.58626 0.79425 0.86342 0.0
C2618 C 0.63036 0.78527 0.87268 0.0
C2619 C 0.57189 0.79547 0.87221 0.0
C2620 C 0.69275 0.78688 0.8405 0.0
C2621 C 0.67856 0.7896 0.84892 0.0
C2622 C 0.63482 0.80103 0.83917 0.0
C2623 C 0.60293 0.79708 0.87397 0.0
C2624 C 0.61814 0.79513 0.86472 0.0
C2625 C 0.66238 0.78904 0.838 0.0
C2626 C 0.64708 0.79115 0.84714 0.0
H2627 H 0.59252 0.80613 0.91731 0.0
H2628 H 0.61761 0.80393 0.90199 0.0
H2629 H 0.61142 0.81079 0.84143 0.0
H2630 H 0.67364 0.78102 0.79482 0.0
H2631 H 0.64869 0.7854 0.80949 0.0
C2632 C 0.44917 0.58328 0.6747 0.0
C2633 C 0.43637 0.56701 0.66758 0.0
C2634 C 0.46191 0.59053 0.66421 0.0
C2635 C 0.47468 0.58911 0.6172 0.0
H2636 H 0.52101 0.59367 0.64459 0.0
C2637 C 0.54038 0.5746 0.59701 0.0
C2638 C 0.54573 0.58831 0.58517 0.0
C2639 C 0.52789 0.57689 0.60811 0.0
C2640 C 0.50817 0.59284 0.6369 0.0
H2641 H 0.42625 0.54618 0.64354 0.0
H2642 H 0.44869 0.55882 0.62517 0.0
H2643 H 0.49616 0.58862 0.66125 0.0
H2644 H 0.54242 0.61509 0.57533 0.0
H2645 H 0.51984 0.61883 0.59454 0.0
H2646 H 0.48686 0.59251 0.59267 0.0
C2647 C 0.44877 0.566 0.63884 0.0
C2648 C 0.49396 0.58999 0.64638 0.0
C2649 C 0.43603 0.55868 0.64939 0.0
C2650 C 0.53866 0.60457 0.58472 0.0
C2651 C 0.52573 0.60662 0.5955 0.0
C2652 C 0.48898 0.59224 0.60773 0.0
C2653 C 0.46206 0.58171 0.64637 0.0
C2654 C 0.47705 0.58755 0.63655 0.0
C2655 C 0.52023 0.59269 0.60715 0.0
C2656 C 0.50574 0.59357 0.61748 0.0
H2657 H 0.44967 0.59012 0.68863 0.0
H2658 H 0.47192 0.60276 0.67026 0.0
H2659 H 0.46177 0.58736 0.60934 0.0
H2660 H 0.54556 0.56185 0.59732 0.0
H2661 H 0.52366 0.5659 0.61686 0.0
C2662 C 0.79542 0.24754 0.97341 0.0
C2663 C 0.7874 0.22834 0.9732 0.0
C2664 C 0.79596 0.25605 0.95668 0.0
C2665 C 0.7746 0.25071 0.9072 0.0
H2666 H 0.81736 0.28338 0.89931 0.0
C2667 C 0.7845 0.27576 0.8346 0.0
C2668 C 0.7943 0.29411 0.83391 0.0
C2669 C 0.78327 0.26824 0.85175 0.0
C2670 C 0.80521 0.27453 0.90134 0.0
H2671 H 0.77355 0.20306 0.95524 0.0
H2672 H 0.77446 0.21786 0.92613 0.0
H2673 H 0.81588 0.26962 0.92889 0.0
H2674 H 0.81023 0.31905 0.85095 0.0
H2675 H 0.80778 0.30613 0.88075 0.0
H2676 H 0.76386 0.25567 0.87973 0.0
C2677 C 0.78024 0.22642 0.93921 0.0
C2678 C 0.80439 0.26661 0.91834 0.0
C2679 C 0.77981 0.21789 0.95591 0.0
C2680 C 0.80264 0.30483 0.85087 0.0
C2681 C 0.80133 0.29734 0.86802 0.0
C2682 C 0.77539 0.25872 0.89024 0.0
C2683 C 0.78838 0.24559 0.93935 0.0
C2684 C 0.7891 0.2545 0.92145 0.0
C2685 C 0.79173 0.27888 0.86872 0.0
C2686 C 0.79074 0.27067 0.88701 0.0
H2687 H 0.80138 0.25598 0.98651 0.0
H2688 H 0.80218 0.27089 0.95733 0.0
H2689 H 0.76253 0.24169 0.90921 0.0
H2690 H 0.77798 0.26701 0.82187 0.0
H2691 H 0.77597 0.25388 0.85163 0.0
C2692 C 0.12466 0.48826 0.18178 0.0
C2693 C 0.11679 0.47498 0.19283 0.0
C2694 C 0.11558 0.49154 0.16492 0.0
C2695 C 0.07057 0.48794 0.14247 0.0
H2696 H 0.09351 0.50753 0.10194 0.0
C2697 C 0.03684 0.51607 0.07688 0.0
C2698 C 0.04516 0.53447 0.07413 0.0
C2699 C 0.04468 0.50604 0.0901 0.0
C2700 C 0.08696 0.50199 0.11315 0.0
H2701 H 0.09374 0.45368 0.19432 0.0
H2702 H 0.07799 0.459 0.16448 0.0
H2703 H 0.10924 0.49294 0.12611 0.0
H2704 H 0.0677 0.55718 0.08351 0.0
H2705 H 0.08162 0.53944 0.10619 0.0
H2706 H 0.04827 0.49708 0.12931 0.0
C2707 C 0.09102 0.46727 0.16911 0.0
C2708 C 0.09594 0.49371 0.12702 0.0
C2709 C 0.10008 0.46411 0.18611 0.0
C2710 C 0.06114 0.5429 0.08517 0.0
C2711 C 0.06912 0.53276 0.09807 0.0
C2712 C 0.06149 0.49595 0.1284 0.0
C2713 C 0.09847 0.48146 0.15861 0.0
C2714 C 0.08805 0.48715 0.1422 0.0
C2715 C 0.06105 0.5142 0.10049 0.0
C2716 C 0.0698 0.50355 0.11397 0.0
H2717 H 0.13753 0.49686 0.1866 0.0
H2718 H 0.1217 0.50276 0.15741 0.0
H2719 H 0.06412 0.48329 0.15403 0.0
H2720 H 0.02446 0.50929 0.06858 0.0
H2721 H 0.03821 0.49175 0.09185 0.0
C2722 C 0.80024 0.89782 0.47966 0.0
C2723 C 0.80875 0.89052 0.49487 0.0
C2724 C 0.79925 0.88973 0.46132 0.0
C2725 C 0.80188 0.84634 0.43279 0.0
H2726 H 0.81117 0.8807 0.39504 0.0
C2727 C 0.78834 0.82172 0.35291 0.0
C2728 C 0.801 0.8294 0.34221 0.0
C2729 C 0.78947 0.82864 0.37172 0.0
C2730 C 0.80863 0.87088 0.4054 0.0
H2731 H 0.82257 0.86868 0.50272 0.0
H2732 H 0.82068 0.85436 0.47054 0.0
H2733 H 0.81291 0.89343 0.42749 0.0
H2734 H 0.82478 0.85048 0.34306 0.0
H2735 H 0.82664 0.86257 0.37572 0.0
H2736 H 0.79761 0.82377 0.41061 0.0
C2737 C 0.81478 0.86639 0.47289 0.0
C2738 C 0.80947 0.8782 0.424 0.0
C2739 C 0.81591 0.87461 0.49131 0.0
C2740 C 0.81476 0.84422 0.35081 0.0
C2741 C 0.8158 0.85123 0.36955 0.0
C2742 C 0.80087 0.83901 0.41412 0.0
C2743 C 0.80663 0.87403 0.45765 0.0
C2744 C 0.80606 0.86604 0.43794 0.0
C2745 C 0.80318 0.84353 0.38026 0.0
C2746 C 0.80424 0.8512 0.40018 0.0
H2747 H 0.79454 0.91003 0.48187 0.0
H2748 H 0.79265 0.8958 0.44997 0.0
H2749 H 0.79908 0.83658 0.44315 0.0
H2750 H 0.77757 0.81028 0.34679 0.0
H2751 H 0.77943 0.82251 0.37949 0.0
C2752 C 0.44149 0.52795 0.75763 0.0
C2753 C 0.43445 0.54373 0.75345 0.0
C2754 C 0.45109 0.52769 0.77522 0.0
C2755 C 0.45694 0.54963 0.82376 0.0
H2756 H 0.49701 0.52658 0.83052 0.0
C2757 C 0.49673 0.55096 0.89632 0.0
C2758 C 0.50051 0.53357 0.90098 0.0
C2759 C 0.49036 0.55319 0.8779 0.0
C2760 C 0.48579 0.53298 0.82882 0.0
H2761 H 0.43242 0.57188 0.76406 0.0
H2762 H 0.44944 0.57158 0.79462 0.0
H2763 H 0.48281 0.52884 0.7989 0.0
H2764 H 0.50122 0.50513 0.88987 0.0
H2765 H 0.48987 0.50898 0.85765 0.0
H2766 H 0.45981 0.55367 0.85362 0.0
C2767 C 0.44724 0.55923 0.78449 0.0
C2768 C 0.47764 0.53425 0.81074 0.0
C2769 C 0.43757 0.55944 0.76697 0.0
C2770 C 0.49825 0.51863 0.88672 0.0
C2771 C 0.49193 0.52089 0.86826 0.0
C2772 C 0.4651 0.54843 0.84179 0.0
C2773 C 0.4539 0.54324 0.78892 0.0
C2774 C 0.46306 0.5425 0.80803 0.0
C2775 C 0.48766 0.5381 0.86373 0.0
C2776 C 0.47955 0.54001 0.84451 0.0
H2777 H 0.43926 0.51563 0.74747 0.0
H2778 H 0.45587 0.51507 0.77825 0.0
H2779 H 0.44553 0.55573 0.82219 0.0
H2780 H 0.49819 0.56268 0.90702 0.0
H2781 H 0.48734 0.56668 0.87478 0.0
C2782 C 0.79906 0.24637 0.08257 0.0
C2783 C 0.79327 0.2267 0.07816 0.0
C2784 C 0.80084 0.25461 0.10103 0.0
C2785 C 0.8035 0.24301 0.15071 0.0
H2786 H 0.79384 0.29311 0.15895 0.0
C2787 C 0.80094 0.28062 0.22437 0.0
C2788 C 0.8096 0.29977 0.22767 0.0
C2789 C 0.79886 0.27069 0.20653 0.0
C2790 C 0.79668 0.27914 0.15689 0.0
H2791 H 0.7847 0.20022 0.08964 0.0
H2792 H 0.78727 0.21457 0.12167 0.0
H2793 H 0.79011 0.27789 0.12719 0.0
H2794 H 0.823 0.32349 0.21501 0.0
H2795 H 0.81925 0.30636 0.18401 0.0
H2796 H 0.80972 0.24429 0.18064 0.0
C2797 C 0.79087 0.22368 0.11104 0.0
C2798 C 0.79464 0.27042 0.13863 0.0
C2799 C 0.78928 0.21543 0.09261 0.0
C2800 C 0.81626 0.30874 0.2129 0.0
C2801 C 0.81403 0.29895 0.19511 0.0
C2802 C 0.80535 0.25168 0.16905 0.0
C2803 C 0.79666 0.24341 0.11555 0.0
C2804 C 0.79825 0.25233 0.1352 0.0
C2805 C 0.80516 0.27988 0.19162 0.0
C2806 C 0.80222 0.26998 0.17232 0.0
H2807 H 0.80235 0.25543 0.07178 0.0
H2808 H 0.80569 0.26978 0.10391 0.0
H2809 H 0.8066 0.22917 0.14873 0.0
H2810 H 0.79543 0.27351 0.23545 0.0
H2811 H 0.79187 0.25604 0.20426 0.0
C2812 C 0.09091 0.45997 0.28652 0.0
C2813 C 0.1091 0.4649 0.29041 0.0
C2814 C 0.08113 0.45814 0.30115 0.0
C2815 C 0.08491 0.45611 0.35288 0.0
H2816 H 0.04805 0.48403 0.34845 0.0
C2817 C 0.06819 0.49994 0.41368 0.0
C2818 C 0.05074 0.50021 0.4147 0.0
C2819 C 0.07256 0.48955 0.39879 0.0
C2820 C 0.05803 0.4758 0.34979 0.0
H2821 H 0.13137 0.47097 0.31249 0.0
H2822 H 0.11446 0.46831 0.33788 0.0
H2823 H 0.06081 0.47658 0.32098 0.0
H2824 H 0.02415 0.48875 0.40137 0.0
H2825 H 0.03194 0.47118 0.3749 0.0
H2826 H 0.08289 0.45663 0.38206 0.0
C2827 C 0.10763 0.46545 0.32364 0.0
C2828 C 0.06534 0.47148 0.33403 0.0
C2829 C 0.11736 0.46718 0.30907 0.0
C2830 C 0.03773 0.4892 0.40082 0.0
C2831 C 0.04215 0.47902 0.38575 0.0
C2832 C 0.07773 0.46062 0.36867 0.0
C2833 C 0.0894 0.46127 0.31989 0.0
C2834 C 0.07932 0.46223 0.33556 0.0
C2835 C 0.05962 0.47938 0.38447 0.0
C2836 C 0.06465 0.47109 0.36737 0.0
H2837 H 0.08422 0.45799 0.27223 0.0
H2838 H 0.06712 0.45468 0.29779 0.0
H2839 H 0.09539 0.44857 0.35442 0.0
H2840 H 0.07858 0.50846 0.42389 0.0
H2841 H 0.08616 0.49033 0.39797 0.0
C2842 C 0.80766 0.90219 0.6127 0.0
C2843 C 0.81127 0.89246 0.59669 0.0
C2844 C 0.80526 0.89309 0.62882 0.0
C2845 C 0.81486 0.85304 0.65406 0.0
H2846 H 0.776 0.8597 0.6788 0.0
C2847 C 0.8056 0.82853 0.72765 0.0
C2848 C 0.78876 0.81919 0.72955 0.0
C2849 C 0.80872 0.83717 0.71137 0.0
C2850 C 0.78689 0.85764 0.67205 0.0
H2851 H 0.81542 0.86553 0.58523 0.0
H2852 H 0.81146 0.84966 0.61357 0.0
H2853 H 0.78073 0.87507 0.65053 0.0
H2854 H 0.76201 0.81153 0.7159 0.0
H2855 H 0.76736 0.82682 0.68769 0.0
H2856 H 0.82103 0.83565 0.6757 0.0
C2857 C 0.81046 0.86437 0.61358 0.0
C2858 C 0.78968 0.86658 0.65591 0.0
C2859 C 0.81265 0.87343 0.59731 0.0
C2860 C 0.77512 0.81867 0.71487 0.0
C2861 C 0.77818 0.82751 0.69873 0.0
C2862 C 0.8122 0.8443 0.67039 0.0
C2863 C 0.80658 0.87405 0.62949 0.0
C2864 C 0.80367 0.86437 0.64666 0.0
C2865 C 0.79501 0.83688 0.69675 0.0
C2866 C 0.79813 0.84642 0.67955 0.0
H2867 H 0.80651 0.91686 0.61273 0.0
H2868 H 0.80248 0.90104 0.64087 0.0
H2869 H 0.82582 0.85115 0.64736 0.0
H2870 H 0.81638 0.82901 0.73866 0.0
H2871 H 0.82182 0.84434 0.71035 0.0
C2872 C 0.74818 0.43957 0.52916 0.0
C2873 C 0.7655 0.44965 0.53331 0.0
C2874 C 0.73453 0.44907 0.52962 0.0
C2875 C 0.72481 0.49403 0.54891 0.0
H2876 H 0.68352 0.47984 0.5114 0.0
C2877 C 0.66529 0.52712 0.55382 0.0
C2878 C 0.65675 0.53196 0.53716 0.0
C2879 C 0.67792 0.51626 0.55336 0.0
C2880 C 0.69501 0.48407 0.52191 0.0
H2881 H 0.7821 0.47759 0.54101 0.0
H2882 H 0.75839 0.49413 0.54155 0.0
H2883 H 0.70693 0.46281 0.51036 0.0
H2884 H 0.65475 0.52909 0.50693 0.0
H2885 H 0.67693 0.5103 0.5061 0.0
H2886 H 0.71317 0.51562 0.56016 0.0
C2887 C 0.75528 0.47887 0.53826 0.0
C2888 C 0.70835 0.47414 0.52145 0.0
C2889 C 0.76889 0.46939 0.53784 0.0
C2890 C 0.66096 0.52543 0.52 0.0
C2891 C 0.67366 0.51463 0.51954 0.0
C2892 C 0.7115 0.50396 0.54935 0.0
C2893 C 0.73791 0.46885 0.53423 0.0
C2894 C 0.72347 0.47906 0.5349 0.0
C2895 C 0.68241 0.51002 0.53623 0.0
C2896 C 0.69643 0.49915 0.53584 0.0
H2897 H 0.74517 0.42434 0.52565 0.0
H2898 H 0.72133 0.44086 0.52664 0.0
H2899 H 0.73614 0.49806 0.55964 0.0
H2900 H 0.66213 0.53163 0.56726 0.0
H2901 H 0.68412 0.51267 0.56647 0.0
C2902 C 0.21774 0.17099 0.52194 0.0
C2903 C 0.22857 0.16513 0.50997 0.0
C2904 C 0.20128 0.15989 0.52243 0.0
C2905 C 0.16635 0.12359 0.49437 0.0
H2906 H 0.15097 0.11409 0.54191 0.0
C2907 C 0.1016 0.07212 0.49746 0.0
C2908 C 0.0917 0.07632 0.51116 0.0
C2909 C 0.11849 0.08252 0.49788 0.0
C2910 C 0.15491 0.1168 0.52848 0.0
H2911 H 0.23057 0.14302 0.48907 0.0
H2912 H 0.20165 0.12373 0.48971 0.0
H2913 H 0.17987 0.13313 0.54138 0.0
H2914 H 0.09166 0.0947 0.53607 0.0
H2915 H 0.121 0.11332 0.5366 0.0
H2916 H 0.14136 0.10782 0.48137 0.0
C2917 C 0.20595 0.13693 0.49874 0.0
C2918 C 0.17154 0.12767 0.5282 0.0
C2919 C 0.22253 0.14793 0.49842 0.0
C2920 C 0.09908 0.09105 0.52544 0.0
C2921 C 0.11595 0.10166 0.52574 0.0
C2922 C 0.14966 0.11293 0.49463 0.0
C2923 C 0.19515 0.14276 0.5108 0.0
C2924 C 0.17749 0.13113 0.51114 0.0
C2925 C 0.12587 0.09765 0.51186 0.0
C2926 C 0.14369 0.10927 0.51169 0.0
H2927 H 0.22201 0.18416 0.53103 0.0
H2928 H 0.19323 0.16487 0.53173 0.0
H2929 H 0.17043 0.12625 0.48099 0.0
H2930 H 0.09627 0.06076 0.48634 0.0
H2931 H 0.12576 0.07861 0.48721 0.0
C2932 C 0.23706 0.04966 0.8602 0.0
C2933 C 0.22422 0.05052 0.84511 0.0
C2934 C 0.24943 0.03876 0.85795 0.0
C2935 C 0.26871 0.01537 0.82155 0.0
H2936 H 0.27601 0.97998 0.85797 0.0
C2937 C 0.28802 0.94542 0.803 0.0
C2938 C 0.30023 0.93934 0.81567 0.0
C2939 C 0.28199 0.96161 0.80782 0.0
C2940 C 0.27438 0.99004 0.84787 0.0
H2941 H 0.2143 0.04091 0.81586 0.0
H2942 H 0.23564 0.02182 0.81202 0.0
H2943 H 0.25943 0.00404 0.86441 0.0
H2944 H 0.31587 0.94544 0.84322 0.0
H2945 H 0.30516 0.97389 0.85174 0.0
H2946 H 0.28301 1.00086 0.80467 0.0
C2947 C 0.2364 0.02974 0.82548 0.0
C2948 C 0.26491 0.00381 0.85155 0.0
C2949 C 0.22408 0.04055 0.82773 0.0
C2950 C 0.30651 0.94991 0.83318 0.0
C2951 C 0.30033 0.96608 0.83808 0.0
C2952 C 0.2781 1.0016 0.81786 0.0
C2953 C 0.24917 0.02866 0.84057 0.0
C2954 C 0.26151 0.0162 0.83814 0.0
C2955 C 0.28798 0.97202 0.82544 0.0
C2956 C 0.28055 0.98843 0.83072 0.0
H2957 H 0.23747 0.05726 0.87374 0.0
H2958 H 0.25917 0.03824 0.86979 0.0
H2959 H 0.26661 0.02501 0.81114 0.0
H2960 H 0.2831 0.93762 0.78935 0.0
H2961 H 0.27228 0.96573 0.7979 0.0
C2962 C 0.35838 0.96765 0.02715 0.0
C2963 C 0.35477 0.95248 0.038 0.0
C2964 C 0.37533 0.97806 0.02817 0.0
C2965 C 0.42159 0.97665 0.04509 0.0
H2966 H 0.42905 0.02975 0.03645 0.0
C2967 C 0.48948 0.02765 0.05516 0.0
C2968 C 0.49324 0.0354 0.0386 0.0
C2969 C 0.47257 0.01829 0.05647 0.0
C2970 C 0.42711 0.01494 0.03893 0.0
H2971 H 0.36597 0.93644 0.05864 0.0
H2972 H 0.39545 0.95513 0.06117 0.0
H2973 H 0.39966 0.01186 0.03652 0.0
H2974 H 0.48218 0.04012 0.01076 0.0
H2975 H 0.45252 0.0244 0.01336 0.0
H2976 H 0.44926 0.98015 0.04807 0.0
C2977 C 0.38536 0.95866 0.05134 0.0
C2978 C 0.41026 0.00458 0.03879 0.0
C2979 C 0.36843 0.94798 0.05 0.0
C2980 C 0.47966 0.03424 0.02367 0.0
C2981 C 0.46271 0.02532 0.02516 0.0
C2982 C 0.43847 0.98716 0.04564 0.0
C2983 C 0.38909 0.97386 0.0404 0.0
C2984 C 0.40719 0.98518 0.04156 0.0
C2985 C 0.45908 0.01698 0.04143 0.0
C2986 C 0.44134 0.00631 0.0423 0.0
H2987 H 0.3481 0.97132 0.01765 0.0
H2988 H 0.37761 0.98926 0.01913 0.0
H2989 H 0.41986 0.96173 0.04697 0.0
H2990 H 0.49972 0.02821 0.06683 0.0
H2991 H 0.47003 0.01198 0.06917 0.0
C2992 C 0.91139 0.6776 0.81491 0.0
C2993 C 0.92836 0.68613 0.81269 0.0
C2994 C 0.89745 0.68539 0.80804 0.0
C2995 C 0.88468 0.71503 0.77209 0.0
H2996 H 0.84779 0.71965 0.80067 0.0
C2997 C 0.83822 0.76502 0.75837 0.0
C2998 C 0.82183 0.76065 0.76405 0.0
C2999 C 0.84931 0.75241 0.76022 0.0
C3000 C 0.85775 0.71802 0.79229 0.0
H3001 H 0.94419 0.70993 0.80233 0.0
H3002 H 0.91975 0.72374 0.79047 0.0
H3003 H 0.87173 0.70618 0.8141 0.0
H3004 H 0.80329 0.73859 0.77364 0.0
H3005 H 0.8226 0.71642 0.77654 0.0
H3006 H 0.87083 0.72722 0.75041 0.0
C3007 C 0.91726 0.71085 0.79729 0.0
C3008 C 0.87154 0.71045 0.80007 0.0
C3009 C 0.93124 0.7031 0.80427 0.0
C3010 C 0.81593 0.74249 0.76939 0.0
C3011 C 0.82704 0.72985 0.7712 0.0
C3012 C 0.87084 0.72255 0.76427 0.0
C3013 C 0.90021 0.70182 0.79874 0.0
C3014 C 0.88529 0.70921 0.79019 0.0
C3015 C 0.84417 0.73516 0.76767 0.0
C3016 C 0.85738 0.72443 0.77443 0.0
H3017 H 0.90881 0.66447 0.82133 0.0
H3018 H 0.88445 0.67812 0.80932 0.0
H3019 H 0.89496 0.71385 0.76402 0.0
H3020 H 0.84306 0.77878 0.7539 0.0
H3021 H 0.8624 0.75695 0.75732 0.0
C3022 C 0.84008 0.6842 0.02565 0.0
C3023 C 0.82349 0.67374 0.01768 0.0
C3024 C 0.85458 0.67593 0.02613 0.0
C3025 C 0.86702 0.62917 0.02301 0.0
H3026 H 0.91063 0.65827 0.0129 0.0
C3027 C 0.9242 0.59425 0.01083 0.0
C3028 C 0.94109 0.60399 0.01873 0.0
C3029 C 0.91009 0.60299 0.01115 0.0
C3030 C 0.89861 0.65001 0.01598 0.0
H3031 H 0.80911 0.64645 0.00388 0.0
H3032 H 0.83437 0.6321 0.00452 0.0
H3033 H 0.88563 0.67302 0.01253 0.0
H3034 H 0.95625 0.63065 0.03327 0.0
H3035 H 0.9316 0.64594 0.03378 0.0
H3036 H 0.87996 0.60613 0.02637 0.0
C3037 C 0.83619 0.6466 0.01066 0.0
C3038 C 0.88426 0.65847 0.01577 0.0
C3039 C 0.82171 0.65486 0.01019 0.0
C3040 C 0.94347 0.62279 0.02687 0.0
C3041 C 0.92933 0.63155 0.02716 0.0
C3042 C 0.88135 0.62071 0.0232 0.0
C3043 C 0.85283 0.65701 0.01866 0.0
C3044 C 0.86824 0.64814 0.0192 0.0
C3045 C 0.91245 0.62175 0.01934 0.0
C3046 C 0.89732 0.63098 0.0196 0.0
H3047 H 0.84188 0.69877 0.03159 0.0
H3048 H 0.86713 0.68432 0.03261 0.0
H3049 H 0.855 0.62087 0.02607 0.0
H3050 H 0.92188 0.57992 0.00409 0.0
H3051 H 0.89734 0.59512 0.00468 0.0
C3052 C 0.21052 0.1423 0.82702 0.0
C3053 C 0.21332 0.1353 0.84448 0.0
C3054 C 0.22003 0.15983 0.8239 0.0
C3055 C 0.26137 0.19296 0.83907 0.0
H3056 H 0.23893 0.22671 0.81009 0.0
C3057 C 0.29875 0.26362 0.81759 0.0
C3058 C 0.29387 0.26709 0.79902 0.0
C3059 C 0.28901 0.24858 0.82518 0.0
C3060 C 0.2454 0.21738 0.81812 0.0
H3061 H 0.22813 0.1412 0.87246 0.0
H3062 H 0.245 0.17204 0.86689 0.0
H3063 H 0.22135 0.19885 0.82028 0.0
H3064 H 0.27541 0.25735 0.77362 0.0
H3065 H 0.25848 0.23108 0.78676 0.0
H3066 H 0.28547 0.21127 0.83646 0.0
C3067 C 0.23539 0.16385 0.85567 0.0
C3068 C 0.23533 0.20149 0.82399 0.0
C3069 C 0.22571 0.1463 0.85887 0.0
C3070 C 0.27934 0.2551 0.78805 0.0
C3071 C 0.26959 0.24014 0.79562 0.0
C3072 C 0.27147 0.20889 0.83315 0.0
C3073 C 0.23264 0.17074 0.83812 0.0
C3074 C 0.24323 0.18887 0.83413 0.0
C3075 C 0.27421 0.23682 0.81431 0.0
C3076 C 0.26359 0.221 0.82222 0.0
H3077 H 0.20106 0.13414 0.81566 0.0
H3078 H 0.2178 0.16463 0.81014 0.0
H3079 H 0.2678 0.18338 0.84675 0.0
H3080 H 0.30991 0.27272 0.82635 0.0
H3081 H 0.29284 0.2464 0.83964 0.0
C3082 C 0.42853 0.08886 0.32727 0.0
C3083 C 0.4372 0.09561 0.31271 0.0
C3084 C 0.41809 0.07065 0.3251 0.0
C3085 C 0.41066 0.02406 0.29791 0.0
H3086 H 0.36705 0.01554 0.31731 0.0
C3087 C 0.36506 0.95031 0.28933 0.0
C3088 C 0.35897 0.9445 0.30571 0.0
C3089 C 0.37315 0.96918 0.2886 0.0
C3090 C 0.37923 0.0177 0.3119 0.0
H3091 H 0.4418 0.08869 0.28449 0.0
H3092 H 0.42343 0.05684 0.28066 0.0
H3093 H 0.38432 0.04772 0.31907 0.0
H3094 H 0.35588 0.95398 0.33387 0.0
H3095 H 0.37019 0.9869 0.33268 0.0
H3096 H 0.40568 0.99401 0.29095 0.0
C3097 C 0.42484 0.06556 0.2938 0.0
C3098 C 0.38913 0.0361 0.31293 0.0
C3099 C 0.43531 0.08379 0.29598 0.0
C3100 C 0.36062 0.95803 0.32113 0.0
C3101 C 0.36865 0.9769 0.32038 0.0
C3102 C 0.40074 0.00566 0.29684 0.0
C3103 C 0.41608 0.05883 0.30833 0.0
C3104 C 0.40507 0.03944 0.30618 0.0
C3105 C 0.37524 0.98261 0.30421 0.0
C3106 C 0.38504 1.00227 0.30405 0.0
H3107 H 0.42978 0.09764 0.34033 0.0
H3108 H 0.41174 0.06575 0.33667 0.0
H3109 H 0.42298 0.02614 0.29279 0.0
H3110 H 0.36408 0.94016 0.27728 0.0
H3111 H 0.37796 0.97322 0.27589 0.0
C3112 C 0.57404 0.37631 0.60326 0.0
C3113 C 0.57985 0.37737 0.6226 0.0
C3114 C 0.57251 0.39277 0.59467 0.0
C3115 C 0.56626 0.4412 0.60571 0.0
H3116 H 0.57964 0.45012 0.55716 0.0
C3117 C 0.54607 0.50047 0.56476 0.0
C3118 C 0.55886 0.51201 0.55662 0.0
C3119 C 0.54903 0.48384 0.57202 0.0
C3120 C 0.57593 0.44787 0.57077 0.0
H3121 H 0.58901 0.39659 0.648 0.0
H3122 H 0.58634 0.4252 0.63307 0.0
H3123 H 0.58467 0.4217 0.57151 0.0
H3124 H 0.58468 0.51468 0.54931 0.0
H3125 H 0.58981 0.48552 0.56196 0.0
H3126 H 0.55755 0.46728 0.60507 0.0
C3127 C 0.58282 0.41167 0.62454 0.0
C3128 C 0.57867 0.43152 0.57891 0.0
C3129 C 0.58445 0.39526 0.63308 0.0
C3130 C 0.57455 0.50618 0.5555 0.0
C3131 C 0.57746 0.48942 0.56268 0.0
C3132 C 0.56339 0.45741 0.59752 0.0
C3133 C 0.57663 0.41062 0.60528 0.0
C3134 C 0.57389 0.42801 0.59651 0.0
C3135 C 0.56482 0.4782 0.57127 0.0
C3136 C 0.56815 0.46095 0.57993 0.0
H3137 H 0.57037 0.36273 0.59481 0.0
H3138 H 0.56759 0.39144 0.57984 0.0
H3139 H 0.56225 0.43885 0.61918 0.0
H3140 H 0.5338 0.50441 0.56584 0.0
H3141 H 0.5389 0.47539 0.57826 0.0
C3142 C 0.4607 0.77784 0.37258 0.0
C3143 C 0.47343 0.79473 0.37678 0.0
C3144 C 0.44462 0.77767 0.36185 0.0
C3145 C 0.41427 0.80819 0.34946 0.0
H3146 H 0.39462 0.76994 0.30763 0.0
C3147 C 0.35037 0.81067 0.30181 0.0
C3148 C 0.33913 0.79346 0.29433 0.0
C3149 C 0.36698 0.81096 0.31132 0.0
C3150 C 0.39973 0.78057 0.31944 0.0
H3151 H 0.4793 0.82466 0.373 0.0
H3152 H 0.4511 0.82441 0.35457 0.0
H3153 H 0.42296 0.76993 0.32533 0.0
H3154 H 0.33633 0.76295 0.29113 0.0
H3155 H 0.36494 0.76328 0.30828 0.0
H3156 H 0.39093 0.81851 0.34415 0.0
C3157 C 0.4536 0.8113 0.3595 0.0
C3158 C 0.41605 0.78059 0.32952 0.0
C3159 C 0.46978 0.81141 0.36996 0.0
C3160 C 0.34478 0.77648 0.29662 0.0
C3161 C 0.36128 0.77671 0.30636 0.0
C3162 C 0.39783 0.808 0.33959 0.0
C3163 C 0.44083 0.79444 0.35537 0.0
C3164 C 0.42352 0.79443 0.3446 0.0
C3165 C 0.37268 0.79396 0.31386 0.0
C3166 C 0.3903 0.79421 0.32438 0.0
H3167 H 0.46313 0.76477 0.37766 0.0
H3168 H 0.43499 0.76449 0.35898 0.0
H3169 H 0.41961 0.81889 0.36118 0.0
H3170 H 0.34637 0.82392 0.30023 0.0
H3171 H 0.37538 0.82458 0.31652 0.0
C3172 C 0.08097 0.76702 0.11265 0.0
C3173 C 0.06785 0.77194 0.12187 0.0
C3174 C 0.0796 0.7483 0.10512 0.0
C3175 C 0.04894 0.70492 0.08574 0.0
H3176 H 0.08527 0.67859 0.10219 0.0
C3177 C 0.04087 0.62501 0.06384 0.0
C3178 C 0.05563 0.61793 0.06121 0.0
C3179 C 0.0425 0.64367 0.07163 0.0
C3180 C 0.07512 0.68574 0.09711 0.0
H3181 H 0.04284 0.76129 0.13008 0.0
H3182 H 0.04016 0.72867 0.11628 0.0
H3183 H 0.08794 0.71163 0.11408 0.0
H3184 H 0.08368 0.62486 0.06453 0.0
H3185 H 0.08658 0.65767 0.07724 0.0
H3186 H 0.03638 0.67957 0.06818 0.0
C3187 C 0.05159 0.73927 0.11513 0.0
C3188 C 0.07664 0.70468 0.10406 0.0
C3189 C 0.05315 0.75789 0.12304 0.0
C3190 C 0.07207 0.62988 0.06659 0.0
C3191 C 0.07371 0.64871 0.07398 0.0
C3192 C 0.04758 0.68614 0.07846 0.0
C3193 C 0.0649 0.73426 0.1063 0.0
C3194 C 0.06351 0.71438 0.09854 0.0
C3195 C 0.05893 0.65594 0.07657 0.0
C3196 C 0.06057 0.67616 0.08415 0.0
H3197 H 0.0925 0.77754 0.11163 0.0
H3198 H 0.08999 0.74478 0.0983 0.0
H3199 H 0.03871 0.71218 0.08113 0.0
H3200 H 0.02801 0.61607 0.05999 0.0
H3201 H 0.0308 0.64838 0.07382 0.0
C3202 C 0.06361 0.29276 0.86634 0.0
C3203 C 0.06536 0.2966 0.88587 0.0
C3204 C 0.07825 0.29274 0.85764 0.0
C3205 C 0.12594 0.31028 0.86488 0.0
H3206 H 0.12435 0.2707 0.82524 0.0
C3207 C 0.1873 0.29953 0.83444 0.0
C3208 C 0.18543 0.2946 0.81502 0.0
C3209 C 0.17273 0.29999 0.84315 0.0
C3210 C 0.12497 0.282 0.83613 0.0
H3211 H 0.08385 0.30351 0.91158 0.0
H3212 H 0.10933 0.30341 0.89645 0.0
H3213 H 0.09876 0.27127 0.84002 0.0
H3214 H 0.16674 0.28689 0.7895 0.0
H3215 H 0.14145 0.28777 0.80462 0.0
H3216 H 0.15213 0.32106 0.86096 0.0
C3217 C 0.09668 0.30058 0.88781 0.0
C3218 C 0.11028 0.28232 0.84461 0.0
C3219 C 0.08206 0.30053 0.8965 0.0
C3220 C 0.16865 0.29036 0.80453 0.0
C3221 C 0.15412 0.29086 0.81322 0.0
C3222 C 0.14063 0.30999 0.85637 0.0
C3223 C 0.09497 0.29664 0.86828 0.0
C3224 C 0.11057 0.29645 0.8591 0.0
C3225 C 0.15594 0.29558 0.83266 0.0
C3226 C 0.14034 0.29585 0.84187 0.0
H3227 H 0.05092 0.28971 0.85778 0.0
H3228 H 0.07648 0.28985 0.84255 0.0
H3229 H 0.12654 0.32152 0.87583 0.0
H3230 H 0.20002 0.3027 0.84296 0.0
H3231 H 0.17462 0.30346 0.85818 0.0
C3232 C 0.52315 0.73207 0.93172 0.0
C3233 C 0.52936 0.74956 0.94275 0.0
C3234 C 0.52379 0.71498 0.9394 0.0
C3235 C 0.52898 0.69412 0.98484 0.0
H3236 H 0.54066 0.65339 0.95471 0.0
C3237 C 0.54645 0.62767 0.01604 0.0
C3238 C 0.54001 0.60994 0.00544 0.0
C3239 C 0.54449 0.64449 0.00842 0.0
C3240 C 0.53718 0.66452 0.96326 0.0
H3241 H 0.54107 0.76277 0.97058 0.0
H3242 H 0.54247 0.73302 0.98395 0.0
H3243 H 0.53859 0.68303 0.94156 0.0
H3244 H 0.52637 0.59613 0.9784 0.0
H3245 H 0.52295 0.62546 0.96515 0.0
H3246 H 0.52781 0.67563 0.00662 0.0
C3247 C 0.53681 0.73244 0.9694 0.0
C3248 C 0.53597 0.68156 0.9557 0.0
C3249 C 0.5361 0.74955 0.96171 0.0
C3250 C 0.53149 0.60949 0.98702 0.0
C3251 C 0.52963 0.62634 0.97936 0.0
C3252 C 0.53027 0.6771 0.99242 0.0
C3253 C 0.53075 0.7149 0.95832 0.0
C3254 C 0.53187 0.69664 0.96638 0.0
C3255 C 0.53613 0.64407 0.98995 0.0
C3256 C 0.53441 0.66208 0.98175 0.0
H3257 H 0.5178 0.73157 0.91706 0.0
H3258 H 0.51872 0.70181 0.93048 0.0
H3259 H 0.52551 0.70522 0.99341 0.0
H3260 H 0.5531 0.62865 0.03027 0.0
H3261 H 0.54985 0.65787 0.01693 0.0
C3262 C 0.12151 0.83725 0.6898 0.0
C3263 C 0.11726 0.82723 0.67185 0.0
C3264 C 0.13808 0.83925 0.70018 0.0
C3265 C 0.18306 0.83348 0.69548 0.0
H3266 H 0.18761 0.83171 0.74925 0.0
C3267 C 0.24116 0.81335 0.73937 0.0
C3268 C 0.24928 0.82513 0.75578 0.0
C3269 C 0.22572 0.81609 0.72944 0.0
C3270 C 0.18656 0.83249 0.73428 0.0
H3271 H 0.12699 0.81137 0.65074 0.0
H3272 H 0.15557 0.81416 0.66899 0.0
H3273 H 0.15925 0.83127 0.73122 0.0
H3274 H 0.24754 0.84906 0.77466 0.0
H3275 H 0.21997 0.8535 0.75744 0.0
H3276 H 0.21025 0.83368 0.69856 0.0
C3277 C 0.1464 0.82105 0.67494 0.0
C3278 C 0.1703 0.83228 0.7239 0.0
C3279 C 0.12992 0.8193 0.66447 0.0
C3280 C 0.24158 0.83979 0.76206 0.0
C3281 C 0.22582 0.84228 0.75227 0.0
C3282 C 0.19921 0.83337 0.70582 0.0
C3283 C 0.15075 0.83105 0.69298 0.0
C3284 C 0.16826 0.83251 0.70428 0.0
C3285 C 0.21781 0.83047 0.73581 0.0
C3286 C 0.20108 0.83264 0.72528 0.0
H3287 H 0.11204 0.84362 0.69582 0.0
H3288 H 0.14094 0.84733 0.71382 0.0
H3289 H 0.1822 0.83419 0.68053 0.0
H3290 H 0.24681 0.80201 0.73404 0.0
H3291 H 0.21977 0.80669 0.7169 0.0
C3292 C 0.03789 0.37377 0.43516 0.0
C3293 C 0.04015 0.35867 0.44575 0.0
C3294 C 0.03982 0.39215 0.44392 0.0
C3295 C 0.06114 0.42324 0.48652 0.0
H3296 H 0.0268 0.45311 0.47332 0.0
C3297 C 0.0618 0.49311 0.53048 0.0
C3298 C 0.05607 0.5079 0.52177 0.0
C3299 C 0.0602 0.47541 0.52049 0.0
C3300 C 0.0367 0.44517 0.47699 0.0
H3301 H 0.04623 0.35107 0.47386 0.0
H3302 H 0.04992 0.38328 0.48917 0.0
H3303 H 0.02327 0.42132 0.45745 0.0
H3304 H 0.04379 0.51564 0.49588 0.0
H3305 H 0.04178 0.48501 0.47794 0.0
H3306 H 0.07485 0.44704 0.50569 0.0
C3307 C 0.0466 0.38085 0.47407 0.0
C3308 C 0.03461 0.42685 0.46793 0.0
C3309 C 0.04442 0.36239 0.46532 0.0
C3310 C 0.04871 0.50463 0.50278 0.0
C3311 C 0.0473 0.48693 0.49263 0.0
C3312 C 0.06337 0.44161 0.49539 0.0
C3313 C 0.0443 0.39594 0.46347 0.0
C3314 C 0.0467 0.41559 0.47275 0.0
C3315 C 0.05297 0.47199 0.50139 0.0
C3316 C 0.05107 0.4528 0.49097 0.0
H3317 H 0.03457 0.37139 0.42006 0.0
H3318 H 0.03809 0.40347 0.43535 0.0
H3319 H 0.07085 0.41506 0.49031 0.0
H3320 H 0.06735 0.49511 0.54518 0.0
H3321 H 0.06433 0.46428 0.52796 0.0
C3322 C 0.50673 0.31339 0.15619 0.0
C3323 C 0.52319 0.31548 0.16699 0.0
C3324 C 0.49226 0.31473 0.16476 0.0
C3325 C 0.47629 0.31312 0.21063 0.0
H3326 H 0.44276 0.33964 0.18701 0.0
C3327 C 0.42286 0.33558 0.24832 0.0
C3328 C 0.40623 0.33339 0.23782 0.0
C3329 C 0.43689 0.33265 0.23965 0.0
C3330 C 0.45189 0.332 0.19369 0.0
H3331 H 0.53735 0.32047 0.19527 0.0
H3332 H 0.51219 0.3231 0.21022 0.0
H3333 H 0.46759 0.33587 0.17203 0.0
H3334 H 0.39138 0.32643 0.2099 0.0
H3335 H 0.41581 0.32116 0.19479 0.0
H3336 H 0.46065 0.3095 0.23242 0.0
C3337 C 0.51036 0.32012 0.19514 0.0
C3338 C 0.46614 0.3298 0.18508 0.0
C3339 C 0.52483 0.31871 0.18656 0.0
C3340 C 0.40397 0.32809 0.21843 0.0
C3341 C 0.41802 0.32526 0.20974 0.0
C3342 C 0.46207 0.31539 0.21928 0.0
C3343 C 0.49389 0.31827 0.18435 0.0
C3344 C 0.47856 0.32035 0.19344 0.0
C3345 C 0.43467 0.32755 0.22023 0.0
C3346 C 0.4497 0.32488 0.21093 0.0
H3347 H 0.50503 0.31082 0.14107 0.0
H3348 H 0.47976 0.31291 0.156 0.0
H3349 H 0.48542 0.3055 0.21735 0.0
H3350 H 0.42503 0.33946 0.26331 0.0
H3351 H 0.44955 0.3347 0.24813 0.0
C3352 C 0.65335 0.5711 0.40943 0.0
C3353 C 0.65403 0.55817 0.39432 0.0
C3354 C 0.64328 0.56539 0.42312 0.0
C3355 C 0.60464 0.53107 0.4292 0.0
H3356 H 0.61833 0.55256 0.48099 0.0
C3357 C 0.55881 0.52821 0.48643 0.0
C3358 C 0.55862 0.54684 0.49322 0.0
C3359 C 0.57121 0.52489 0.47531 0.0
C3360 C 0.61445 0.54619 0.46663 0.0
H3361 H 0.64519 0.52898 0.38192 0.0
H3362 H 0.62757 0.51903 0.40587 0.0
H3363 H 0.63986 0.55558 0.45986 0.0
H3364 H 0.57049 0.57657 0.49309 0.0
H3365 H 0.5921 0.57077 0.47419 0.0
H3366 H 0.57899 0.5225 0.43591 0.0
C3367 C 0.63472 0.53359 0.40705 0.0
C3368 C 0.62669 0.54804 0.45453 0.0
C3369 C 0.64483 0.53929 0.39338 0.0
C3370 C 0.57052 0.56204 0.48829 0.0
C3371 C 0.58294 0.55874 0.47757 0.0
C3372 C 0.59238 0.52916 0.44136 0.0
C3373 C 0.6337 0.54663 0.42195 0.0
C3374 C 0.62173 0.54126 0.4355 0.0
C3375 C 0.58359 0.54019 0.47122 0.0
C3376 C 0.59706 0.53746 0.45992 0.0
H3377 H 0.66032 0.58573 0.41049 0.0
H3378 H 0.64253 0.57586 0.43427 0.0
H3379 H 0.60042 0.52575 0.41459 0.0
H3380 H 0.54974 0.51628 0.49007 0.0
H3381 H 0.57142 0.51048 0.47031 0.0
C3382 C 0.31131 0.90918 0.10267 0.0
C3383 C 0.30444 0.8977 0.08576 0.0
C3384 C 0.31173 0.90142 0.11979 0.0
C3385 C 0.30878 0.85561 0.14078 0.0
H3386 H 0.30006 0.88508 0.18394 0.0
C3387 C 0.29738 0.82424 0.21057 0.0
C3388 C 0.30507 0.83562 0.22738 0.0
C3389 C 0.29798 0.83156 0.19327 0.0
C3390 C 0.30272 0.87674 0.17209 0.0
H3391 H 0.29259 0.86901 0.07358 0.0
H3392 H 0.29295 0.85547 0.1035 0.0
H3393 H 0.29935 0.89811 0.1539 0.0
H3394 H 0.31964 0.86369 0.239 0.0
H3395 H 0.32066 0.87642 0.20884 0.0
H3396 H 0.31186 0.83411 0.15903 0.0
C3397 C 0.29833 0.87046 0.10354 0.0
C3398 C 0.30234 0.88423 0.15481 0.0
C3399 C 0.29801 0.87823 0.08637 0.0
C3400 C 0.31359 0.85446 0.22639 0.0
C3401 C 0.31407 0.86183 0.20908 0.0
C3402 C 0.30906 0.84807 0.15806 0.0
C3403 C 0.30517 0.88196 0.12052 0.0
C3404 C 0.30541 0.87381 0.1389 0.0
C3405 C 0.30616 0.85051 0.19231 0.0
C3406 C 0.30607 0.85856 0.17394 0.0
H3407 H 0.31648 0.92423 0.1027 0.0
H3408 H 0.31739 0.9107 0.13247 0.0
H3409 H 0.31149 0.84726 0.12897 0.0
H3410 H 0.2907 0.80967 0.21074 0.0
H3411 H 0.29163 0.8225 0.18066 0.0
C3412 C 0.99617 0.66214 0.8836 0.0
C3413 C 1.0008 0.65663 0.86635 0.0
C3414 C 1.00444 0.6572 0.90022 0.0
C3415 C 0.01292 0.62982 0.92815 0.0
H3416 H 0.06174 0.62855 0.93809 0.0
C3417 C 0.03927 0.58026 0.97803 0.0
C3418 C 0.05485 0.58789 0.99014 0.0
C3419 C 0.03328 0.59056 0.9639 0.0
C3420 C 0.04811 0.62897 0.93562 0.0
H3421 H 0.01851 0.64296 0.85302 0.0
H3422 H 0.03293 0.6344 0.88194 0.0
H3423 H 0.0512 0.64534 0.91242 0.0
H3424 H 0.07646 0.61209 0.997 0.0
H3425 H 0.06604 0.63004 0.97234 0.0
H3426 H 0.00979 0.61333 0.95125 0.0
C3427 C 0.02297 0.64252 0.88271 0.0
C3428 C 0.04207 0.63848 0.92087 0.0
C3429 C 0.01466 0.64735 0.86612 0.0
C3430 C 0.06444 0.60584 0.98778 0.0
C3431 C 0.05849 0.6161 0.97365 0.0
C3432 C 0.01895 0.62027 0.94287 0.0
C3433 C 0.01755 0.64681 0.89985 0.0
C3434 C 0.02437 0.63877 0.91682 0.0
C3435 C 0.04282 0.60861 0.96161 0.0
C3436 C 0.03656 0.61952 0.94658 0.0
H3437 H 0.98554 0.66933 0.88417 0.0
H3438 H 1.00018 0.66092 0.91328 0.0
H3439 H 0.99917 0.6296 0.92524 0.0
H3440 H 0.0317 0.56639 0.97951 0.0
H3441 H 0.02128 0.5843 0.95465 0.0
C3442 C 0.27412 0.23729 0.57007 0.0
C3443 C 0.2863 0.22714 0.56481 0.0
C3444 C 0.2754 0.24489 0.58867 0.0
C3445 C 0.30538 0.2623 0.63184 0.0
H3446 H 0.26576 0.24747 0.65715 0.0
C3447 C 0.30947 0.28319 0.71131 0.0
C3448 C 0.29443 0.28629 0.718 0.0
C3449 C 0.30869 0.2759 0.69269 0.0
C3450 C 0.27687 0.25213 0.6503 0.0
H3451 H 0.30965 0.21746 0.57474 0.0
H3452 H 0.31222 0.23135 0.60714 0.0
H3453 H 0.26405 0.236 0.62439 0.0
H3454 H 0.26688 0.28464 0.71027 0.0
H3455 H 0.26561 0.27291 0.67776 0.0
H3456 H 0.31806 0.27904 0.65733 0.0
C3457 C 0.30157 0.23318 0.5969 0.0
C3458 C 0.27589 0.2454 0.63151 0.0
C3459 C 0.30007 0.22521 0.5784 0.0
C3460 C 0.27866 0.28215 0.70563 0.0
C3461 C 0.27794 0.27527 0.68693 0.0
C3462 C 0.30627 0.26939 0.65054 0.0
C3463 C 0.28911 0.24286 0.60227 0.0
C3464 C 0.29014 0.25036 0.62211 0.0
C3465 C 0.29292 0.27191 0.68014 0.0
C3466 C 0.29204 0.26437 0.66012 0.0
H3467 H 0.26332 0.23892 0.55993 0.0
H3468 H 0.26568 0.25236 0.59245 0.0
H3469 H 0.31653 0.26643 0.62485 0.0
H3470 H 0.32182 0.28617 0.72054 0.0
H3471 H 0.32048 0.27321 0.68826 0.0
C3472 C 0.63377 0.5905 0.30587 0.0
C3473 C 0.64158 0.5748 0.30732 0.0
C3474 C 0.62275 0.59196 0.28953 0.0
C3475 C 0.59751 0.56499 0.24565 0.0
H3476 H 0.61144 0.61192 0.22379 0.0
C3477 C 0.58721 0.56955 0.16653 0.0
C3478 C 0.58408 0.58636 0.15961 0.0
C3479 C 0.59041 0.56841 0.18577 0.0
C3480 C 0.60706 0.59888 0.2298 0.0
H3481 H 0.64328 0.54784 0.29336 0.0
H3482 H 0.62406 0.55035 0.26492 0.0
H3483 H 0.62341 0.60924 0.25597 0.0
H3484 H 0.58107 0.61489 0.16736 0.0
H3485 H 0.58657 0.61287 0.20107 0.0
H3486 H 0.58153 0.55444 0.2193 0.0
C3487 C 0.62637 0.56151 0.27636 0.0
C3488 C 0.61394 0.59735 0.24826 0.0
C3489 C 0.63748 0.56014 0.29259 0.0
C3490 C 0.5837 0.60184 0.17232 0.0
C3491 C 0.58683 0.60067 0.1916 0.0
C3492 C 0.59055 0.56655 0.22721 0.0
C3493 C 0.61923 0.57764 0.27447 0.0
C3494 C 0.60964 0.58021 0.25617 0.0
C3495 C 0.59048 0.58403 0.19854 0.0
C3496 C 0.59567 0.58331 0.2189 0.0
H3497 H 0.63669 0.60199 0.31705 0.0
H3498 H 0.61731 0.60448 0.28847 0.0
H3499 H 0.5938 0.5517 0.2515 0.0
H3500 H 0.58782 0.55748 0.15708 0.0
H3501 H 0.59351 0.5555 0.1906 0.0
C3502 C 0.29213 0.8743 0.97719 0.0
C3503 C 0.29679 0.89416 0.98075 0.0
C3504 C 0.29011 0.86546 0.9589 0.0
C3505 C 0.30296 0.87322 0.91251 0.0
H3506 H 0.26376 0.83175 0.89418 0.0
C3507 C 0.28932 0.84019 0.83516 0.0
C3508 C 0.28354 0.82041 0.8319 0.0
C3509 C 0.29025 0.84962 0.85301 0.0
C3510 C 0.27491 0.84316 0.8991 0.0
H3511 H 0.30303 0.92031 0.9679 0.0
H3512 H 0.29961 0.90493 0.93614 0.0
H3513 H 0.26712 0.84688 0.92603 0.0
H3514 H 0.27395 0.79502 0.84463 0.0
H3515 H 0.27586 0.81126 0.87568 0.0
H3516 H 0.31096 0.86935 0.88576 0.0
C3517 C 0.29758 0.89615 0.94744 0.0
C3518 C 0.27682 0.85184 0.9174 0.0
C3519 C 0.29944 0.90497 0.96565 0.0
C3520 C 0.2784 0.8103 0.8467 0.0
C3521 C 0.27941 0.81966 0.86452 0.0
C3522 C 0.30113 0.86445 0.89425 0.0
C3523 C 0.29287 0.87629 0.94381 0.0
C3524 C 0.29087 0.86697 0.92435 0.0
C3525 C 0.28546 0.83945 0.868 0.0
C3526 C 0.2871 0.84925 0.88728 0.0
H3527 H 0.29001 0.86558 0.98852 0.0
H3528 H 0.28662 0.85012 0.95661 0.0
H3529 H 0.31405 0.88469 0.91748 0.0
H3530 H 0.29318 0.84837 0.82395 0.0
H3531 H 0.29468 0.86489 0.85501 0.0
C3532 C 1.00295 0.67013 0.76735 0.0
C3533 C 0.98504 0.6654 0.76774 0.0
C3534 C 0.00921 0.66944 0.75027 0.0
C3535 C 0.99588 0.64257 0.70449 0.0
H3536 H 0.03702 0.67415 0.69141 0.0
C3537 C 0.0215 0.62098 0.63868 0.0
C3538 C 0.03942 0.62155 0.64078 0.0
C3539 C 0.01458 0.63064 0.65208 0.0
C3540 C 0.02553 0.6652 0.69492 0.0
H3541 H 0.95957 0.65803 0.75071 0.0
H3542 H 0.97045 0.65712 0.72096 0.0
H3543 H 0.02532 0.68397 0.71919 0.0
H3544 H 0.06423 0.63401 0.658 0.0
H3545 H 0.05201 0.65001 0.68194 0.0
H3546 H 0.99636 0.62336 0.68099 0.0
C3547 C 0.97969 0.6609 0.73379 0.0
C3548 C 0.01884 0.67084 0.71076 0.0
C3549 C 0.97346 0.66145 0.75081 0.0
C3550 C 0.05033 0.63287 0.65616 0.0
C3551 C 0.04335 0.64232 0.66974 0.0
C3552 C 1.00258 0.63691 0.68881 0.0
C3553 C 0.99761 0.66411 0.73338 0.0
C3554 C 1.00402 0.65946 0.71577 0.0
C3555 C 0.02533 0.64082 0.66812 0.0
C3556 C 0.01757 0.64803 0.6839 0.0
H3557 H 0.01214 0.67328 0.78023 0.0
H3558 H 0.02309 0.67191 0.75039 0.0
H3559 H 0.9847 0.63324 0.70822 0.0
H3560 H 0.01262 0.61234 0.62716 0.0
H3561 H 1.00068 0.62953 0.6502 0.0
C3562 C 0.29196 0.2461 0.46392 0.0
C3563 C 0.28041 0.22846 0.4629 0.0
C3564 C 0.29437 0.2551 0.44774 0.0
C3565 C 0.27456 0.2571 0.39884 0.0
H3566 H 0.32186 0.278 0.3923 0.0
C3567 C 0.29187 0.28576 0.32927 0.0
C3568 C 0.30587 0.30131 0.33051 0.0
C3569 C 0.28811 0.27695 0.34528 0.0
C3570 C 0.30853 0.27255 0.39395 0.0
H3571 H 0.26202 0.20667 0.44408 0.0
H3572 H 0.26608 0.2225 0.41583 0.0
H3573 H 0.31635 0.26297 0.42041 0.0
H3574 H 0.32665 0.32016 0.34954 0.0
H3575 H 0.3199 0.30531 0.37743 0.0
H3576 H 0.2667 0.26692 0.3725 0.0
C3577 C 0.27329 0.22936 0.42917 0.0
C3578 C 0.30539 0.26385 0.41012 0.0
C3579 C 0.271 0.22026 0.44535 0.0
C3580 C 0.31584 0.30811 0.34811 0.0
C3581 C 0.31203 0.29945 0.3641 0.0
C3582 C 0.2777 0.26598 0.38271 0.0
C3583 C 0.28518 0.24679 0.43013 0.0
C3584 C 0.28837 0.25604 0.41282 0.0
C3585 C 0.29824 0.28358 0.36294 0.0
C3586 C 0.29474 0.2739 0.38004 0.0
H3587 H 0.29942 0.25281 0.4772 0.0
H3588 H 0.30347 0.26861 0.44903 0.0
H3589 H 0.26129 0.25137 0.40054 0.0
H3590 H 0.28405 0.28014 0.31587 0.0
H3591 H 0.27752 0.26467 0.3437 0.0
C3592 C 0.34971 0.68835 0.52908 0.0
C3593 C 0.33267 0.67779 0.5279 0.0
C3594 C 0.3637 0.67924 0.52996 0.0
C3595 C 0.37602 0.63453 0.54224 0.0
H3596 H 0.4134 0.64953 0.51379 0.0
C3597 C 0.42686 0.58932 0.53433 0.0
C3598 C 0.44427 0.59873 0.53537 0.0
C3599 C 0.41364 0.59946 0.53342 0.0
C3600 C 0.40318 0.64532 0.522 0.0
H3601 H 0.31691 0.6494 0.52648 0.0
H3602 H 0.34122 0.63355 0.52788 0.0
H3603 H 0.38967 0.66641 0.51224 0.0
H3604 H 0.46138 0.62629 0.53624 0.0
H3605 H 0.43826 0.64403 0.53467 0.0
H3606 H 0.38944 0.61347 0.55202 0.0
C3607 C 0.34385 0.64887 0.52838 0.0
C3608 C 0.38957 0.65499 0.52111 0.0
C3609 C 0.3299 0.65796 0.52746 0.0
C3610 C 0.44809 0.61857 0.53525 0.0
C3611 C 0.43484 0.62874 0.53435 0.0
C3612 C 0.3896 0.62489 0.54315 0.0
C3613 C 0.36094 0.65939 0.52975 0.0
C3614 C 0.37575 0.6496 0.5311 0.0
C3615 C 0.41745 0.61931 0.53353 0.0
C3616 C 0.40329 0.63004 0.53293 0.0
H3617 H 0.35225 0.70366 0.52946 0.0
H3618 H 0.37671 0.68777 0.53116 0.0
H3619 H 0.36577 0.63024 0.55041 0.0
H3620 H 0.4234 0.57402 0.53401 0.0
H3621 H 0.40037 0.59169 0.53241 0.0
C3622 C 0.86981 0.96316 0.53292 0.0
C3623 C 0.86567 0.95475 0.54905 0.0
C3624 C 0.88655 0.97369 0.53254 0.0
C3625 C 0.92512 1.00206 0.56257 0.0
H3626 H 0.94984 0.99147 0.52193 0.0
C3627 C 0.99707 0.03806 0.56512 0.0
C3628 C 1.00329 0.04217 0.54836 0.0
C3629 C 0.98036 0.02725 0.56488 0.0
C3630 C 0.94308 0.99491 0.53324 0.0
H3631 H 0.87581 0.95095 0.5775 0.0
H3632 H 0.90494 0.96981 0.57701 0.0
H3633 H 0.92052 0.97331 0.52206 0.0
H3634 H 0.9968 0.03837 0.51822 0.0
H3635 H 0.96735 0.02013 0.51762 0.0
H3636 H 0.9472 0.02405 0.57352 0.0
C3637 C 0.89524 0.9681 0.56461 0.0
C3638 C 0.92628 0.98438 0.53334 0.0
C3639 C 0.87859 0.95726 0.56487 0.0
C3640 C 0.9924 0.03527 0.53132 0.0
C3641 C 0.97552 0.02471 0.53104 0.0
C3642 C 0.94178 0.01283 0.56232 0.0
C3643 C 0.89943 0.97634 0.54841 0.0
C3644 C 0.91717 0.98773 0.54809 0.0
C3645 C 0.9692 0.02053 0.54785 0.0
C3646 C 0.95114 0.00933 0.54775 0.0
H3647 H 0.86015 0.96143 0.52049 0.0
H3648 H 0.88936 0.97997 0.51991 0.0
H3649 H 0.91833 0.00516 0.57398 0.0
H3650 H 1.00522 0.04303 0.5785 0.0
H3651 H 0.97631 0.02403 0.57814 0.0
C3652 C 0.8527 0.08265 0.17678 0.0
C3653 C 0.85396 0.07464 0.19385 0.0
C3654 C 0.8412 0.09469 0.17303 0.0
C3655 C 0.80227 0.10828 0.18588 0.0
H3656 H 0.82554 0.16038 0.18378 0.0
C3657 C 0.78022 0.17044 0.21946 0.0
C3658 C 0.78455 0.18861 0.21357 0.0
C3659 C 0.78477 0.15504 0.21026 0.0
C3660 C 0.81859 0.14588 0.18374 0.0
H3661 H 0.84377 0.07204 0.21996 0.0
H3662 H 0.82339 0.09263 0.2132 0.0
H3663 H 0.84111 0.13504 0.17979 0.0
H3664 H 0.79575 0.20464 0.19251 0.0
H3665 H 0.8035 0.17754 0.17614 0.0
H3666 H 0.77989 0.11902 0.19034 0.0
C3667 C 0.83134 0.08975 0.20281 0.0
C3668 C 0.82759 0.13138 0.18152 0.0
C3669 C 0.84308 0.07814 0.20674 0.0
C3670 C 0.79247 0.19081 0.19748 0.0
C3671 C 0.79692 0.17531 0.18815 0.0
C3672 C 0.79316 0.12272 0.18777 0.0
C3673 C 0.83051 0.09837 0.18609 0.0
C3674 C 0.81974 0.11262 0.18348 0.0
C3675 C 0.79368 0.15737 0.19485 0.0
C3676 C 0.80152 0.1418 0.18775 0.0
H3677 H 0.86101 0.08016 0.16665 0.0
H3678 H 0.84082 0.10132 0.16011 0.0
H3679 H 0.79594 0.09383 0.18725 0.0
H3680 H 0.77436 0.16832 0.23197 0.0
H3681 H 0.78232 0.14159 0.21611 0.0
C3682 C 0.72205 0.18078 0.02088 0.0
C3683 C 0.7356 0.17139 0.01881 0.0
C3684 C 0.70515 0.17041 0.02067 0.0
C3685 C 0.67652 0.12287 0.0064 0.0
H3686 H 0.65014 0.13868 0.04348 0.0
C3687 C 0.60458 0.0872 0.00776 0.0
C3688 C 0.59979 0.08421 0.02544 0.0
C3689 C 0.62102 0.09777 0.00623 0.0
C3690 C 0.65736 0.134 0.0331 0.0
H3691 H 0.74203 0.14381 0.01462 0.0
H3692 H 0.71264 0.12578 0.01435 0.0
H3693 H 0.67892 0.15733 0.04196 0.0
H3694 H 0.60881 0.08976 0.0554 0.0
H3695 H 0.63737 0.10793 0.05268 0.0
H3696 H 0.65508 0.09931 0.99781 0.0
C3697 C 0.71499 0.14112 0.01596 0.0
C3698 C 0.67379 0.14484 0.03208 0.0
C3699 C 0.73186 0.15147 0.01623 0.0
C3700 C 0.61196 0.09178 0.04153 0.0
C3701 C 0.62834 0.10236 0.03999 0.0
C3702 C 0.66005 0.11206 0.00738 0.0
C3703 C 0.70144 0.15045 0.01831 0.0
C3704 C 0.68363 0.13934 0.01881 0.0
C3705 C 0.63303 0.10565 0.02234 0.0
C3706 C 0.65033 0.11741 0.02085 0.0
H3707 H 0.72452 0.19612 0.02286 0.0
H3708 H 0.69498 0.17805 0.02231 0.0
H3709 H 0.68368 0.11834 0.99589 0.0
H3710 H 0.59555 0.08164 0.99505 0.0
H3711 H 0.62416 0.10015 0.99242 0.0
C3712 C 0.17193 0.42617 0.2597 0.0
C3713 C 0.17584 0.44394 0.25289 0.0
C3714 C 0.18519 0.417 0.26576 0.0
C3715 C 0.23036 0.41516 0.26234 0.0
H3716 H 0.22874 0.39236 0.30903 0.0
C3717 C 0.28281 0.37641 0.28947 0.0
C3718 C 0.27595 0.35779 0.29303 0.0
C3719 C 0.27234 0.38974 0.28836 0.0
C3720 C 0.22937 0.39869 0.296 0.0
H3721 H 0.19651 0.46573 0.24633 0.0
H3722 H 0.21966 0.44964 0.25682 0.0
H3723 H 0.20627 0.40911 0.2977 0.0
H3724 H 0.25338 0.33915 0.30027 0.0
H3725 H 0.23517 0.36226 0.29814 0.0
H3726 H 0.25313 0.40433 0.26031 0.0
C3727 C 0.20638 0.44281 0.25749 0.0
C3728 C 0.21647 0.40817 0.28947 0.0
C3729 C 0.19313 0.45201 0.25149 0.0
C3730 C 0.259 0.35331 0.29726 0.0
C3731 C 0.24857 0.36662 0.29617 0.0
C3732 C 0.24323 0.40566 0.26885 0.0
C3733 C 0.20257 0.42541 0.26504 0.0
C3734 C 0.21669 0.41619 0.27241 0.0
C3735 C 0.25489 0.38468 0.29086 0.0
C3736 C 0.2427 0.39706 0.28558 0.0
H3737 H 0.15871 0.41963 0.26093 0.0
H3738 H 0.18188 0.4034 0.27119 0.0
H3739 H 0.23077 0.42109 0.24908 0.0
H3740 H 0.29587 0.38038 0.28632 0.0
H3741 H 0.27763 0.4037 0.28461 0.0
C3742 C 0.25649 0.43504 0.04082 0.0
C3743 C 0.27322 0.44619 0.04145 0.0
C3744 C 0.24214 0.4435 0.04082 0.0
C3745 C 0.2303 0.4895 0.0528 0.0
H3746 H 0.18639 0.46572 0.022 0.0
C3747 C 0.17263 0.5271 0.04304 0.0
C3748 C 0.15599 0.51618 0.04354 0.0
C3749 C 0.1868 0.51849 0.04243 0.0
C3750 C 0.19851 0.47245 0.03083 0.0
H3751 H 0.288 0.47497 0.04241 0.0
H3752 H 0.26299 0.48971 0.04216 0.0
H3753 H 0.21131 0.45093 0.02159 0.0
H3754 H 0.14123 0.4875 0.04341 0.0
H3755 H 0.16599 0.47249 0.04255 0.0
H3756 H 0.21751 0.51103 0.06199 0.0
C3757 C 0.26094 0.47444 0.04196 0.0
C3758 C 0.21281 0.46396 0.03061 0.0
C3759 C 0.27528 0.46598 0.04199 0.0
C3760 C 0.15388 0.49637 0.04321 0.0
C3761 C 0.16805 0.48774 0.04252 0.0
C3762 C 0.21601 0.498 0.05298 0.0
C3763 C 0.24417 0.46332 0.04142 0.0
C3764 C 0.22891 0.47237 0.04159 0.0
C3765 C 0.18472 0.4987 0.04225 0.0
C3766 C 0.19993 0.4896 0.04199 0.0
H3767 H 0.25447 0.41976 0.04046 0.0
H3768 H 0.22949 0.43449 0.04065 0.0
H3769 H 0.24237 0.49622 0.06169 0.0
H3770 H 0.17479 0.5424 0.04348 0.0
H3771 H 0.19941 0.52736 0.04202 0.0
C3772 C 0.84627 0.98778 0.22132 0.0
C3773 C 0.85998 0.98923 0.21088 0.0
C3774 C 0.83768 0.97011 0.22529 0.0
C3775 C 0.8165 0.93022 0.22466 0.0
H3776 H 0.84555 0.8967 0.24388 0.0
C3777 C 0.78816 0.85639 0.2458 0.0
C3778 C 0.7962 0.85158 0.26271 0.0
C3779 C 0.79568 0.87253 0.23805 0.0
C3780 C 0.83729 0.90595 0.23858 0.0
H3781 H 0.87512 0.97334 0.19587 0.0
H3782 H 0.86003 0.94229 0.20285 0.0
H3783 H 0.85873 0.92599 0.23197 0.0
H3784 H 0.81828 0.85987 0.28491 0.0
H3785 H 0.83145 0.88818 0.27139 0.0
H3786 H 0.79513 0.91048 0.23175 0.0
C3787 C 0.85604 0.95489 0.20804 0.0
C3788 C 0.8448 0.92258 0.23155 0.0
C3789 C 0.86458 0.97261 0.20394 0.0
C3790 C 0.81185 0.86324 0.27181 0.0
C3791 C 0.81943 0.87935 0.26401 0.0
C3792 C 0.80899 0.91356 0.23161 0.0
C3793 C 0.84266 0.95351 0.21898 0.0
C3794 C 0.83451 0.93501 0.22476 0.0
C3795 C 0.81143 0.88415 0.24703 0.0
C3796 C 0.81933 0.90137 0.23887 0.0
H3797 H 0.84245 1.00036 0.22686 0.0
H3798 H 0.82755 0.96953 0.23392 0.0
H3799 H 0.80824 0.93948 0.21939 0.0
H3800 H 0.77612 0.84758 0.23845 0.0
H3801 H 0.7893 0.87577 0.22487 0.0
C3802 C 0.65778 0.04705 0.73827 0.0
C3803 C 0.66584 0.03358 0.74671 0.0
C3804 C 0.66609 0.06615 0.74064 0.0
C3805 C 0.70934 0.0977 0.75323 0.0
H3806 H 0.68254 0.13644 0.75861 0.0
C3807 C 0.74022 0.17794 0.76647 0.0
C3808 C 0.73216 0.18938 0.75482 0.0
C3809 C 0.73235 0.15894 0.76691 0.0
C3810 C 0.69015 0.12575 0.75706 0.0
H3811 H 0.68876 0.02942 0.76441 0.0
H3812 H 0.70318 0.06287 0.76883 0.0
H3813 H 0.66831 0.10309 0.75697 0.0
H3814 H 0.70969 0.18974 0.73426 0.0
H3815 H 0.69588 0.1567 0.73531 0.0
H3816 H 0.73118 0.12046 0.75334 0.0
C3817 C 0.69058 0.05865 0.76012 0.0
C3818 C 0.68202 0.10668 0.75606 0.0
C3819 C 0.6823 0.03952 0.75765 0.0
C3820 C 0.71608 0.18143 0.74367 0.0
C3821 C 0.70817 0.16251 0.74423 0.0
C3822 C 0.7175 0.1168 0.75437 0.0
C3823 C 0.68258 0.07216 0.75161 0.0
C3824 C 0.69146 0.09243 0.75385 0.0
C3825 C 0.71624 0.1511 0.75583 0.0
C3826 C 0.70792 0.13096 0.75601 0.0
H3827 H 0.6451 0.04282 0.72971 0.0
H3828 H 0.6597 0.07616 0.73363 0.0
H3829 H 0.71693 0.08706 0.7513 0.0
H3830 H 0.75249 0.18372 0.77543 0.0
H3831 H 0.73876 0.15044 0.77608 0.0
loop_
_geom_bond_atom_site_label_1
_geom_bond_atom_site_label_2
_geom_bond_distance
_geom_bond_site_symmetry_2
_ccdc_geom_bond_type
In0 O1 2.294 . S
In0 O2 2.326 . S
In0 O6 2.266 1_455 S
In0 O7 2.326 1_455 S
In0 O8 2.266 . S
In0 O9 2.326 . S
In0 O11 2.294 . S
In0 O12 2.326 . S
O1 In0 2.294 . S
O1 C10 1.240 . S
O2 In0 2.326 . S
O2 C10 1.252 . S
C3 O6 1.252 . S
C3 O7 1.260 . S
C4 O11 1.240 . S
C4 O12 1.252 . S
C5 O8 1.252 . S
C5 O9 1.260 . S
O6 In0 2.266 1_655 S
O6 C3 1.252 . S
O7 In0 2.326 1_655 S
O7 C3 1.260 . S
O8 In0 2.266 . S
O8 C5 1.252 . S
O9 In0 2.326 . S
O9 C5 1.260 . S
C10 O1 1.240 . S
C10 O2 1.252 . S
O11 In0 2.294 . S
O11 C4 1.240 . S
O12 In0 2.326 . S
O12 C4 1.252 . S
In13 O14 2.294 . S
In13 O15 2.326 . S
In13 O19 2.266 . S
In13 O20 2.326 . S
In13 O21 2.266 . S
In13 O22 2.326 . S
In13 O24 2.294 . S
In13 O25 2.326 . S
O14 In13 2.294 . S
O14 C23 1.240 . S
O15 In13 2.326 . S
O15 C23 1.252 . S
C16 O19 1.252 . S
C16 O20 1.260 . S
C17 O24 1.240 . S
C17 O25 1.252 . S
C18 O21 1.252 . S
C18 O22 1.260 . S
O19 In13 2.266 . S
O19 C16 1.252 . S
O20 In13 2.326 . S
O20 C16 1.260 . S
O21 In13 2.266 . S
O21 C18 1.252 . S
O22 In13 2.326 . S
O22 C18 1.260 . S
C23 O14 1.240 . S
C23 O15 1.252 . S
O24 In13 2.294 . S
O24 C17 1.240 . S
O25 In13 2.326 . S
O25 C17 1.252 . S
In26 O27 2.294 . S
In26 O28 2.326 . S
In26 O32 2.266 . S
In26 O33 2.326 . S
In26 O34 2.266 . S
In26 O35 2.326 . S
In26 O37 2.294 . S
In26 O38 2.326 . S
O27 In26 2.294 . S
O27 C36 1.240 . S
O28 In26 2.326 . S
O28 C36 1.252 . S
C29 O32 1.252 . S
C29 O33 1.260 . S
C30 O37 1.240 . S
C30 O38 1.252 . S
C31 O34 1.252 . S
C31 O35 1.260 . S
O32 In26 2.266 . S
O32 C29 1.252 . S
O33 In26 2.326 . S
O33 C29 1.260 . S
O34 In26 2.266 . S
O34 C31 1.252 . S
O35 In26 2.326 . S
O35 C31 1.260 . S
C36 O27 1.240 . S
C36 O28 1.252 . S
O37 In26 2.294 . S
O37 C30 1.240 . S
O38 In26 2.326 . S
O38 C30 1.252 . S
In39 O40 2.294 . S
In39 O41 2.326 . S
In39 O45 2.266 . S
In39 O46 2.326 . S
In39 O47 2.266 . S
In39 O48 2.326 . S
In39 O50 2.294 . S
In39 O51 2.326 . S
O40 In39 2.294 . S
O40 C49 1.240 . S
O41 In39 2.326 . S
O41 C49 1.252 . S
C42 O45 1.252 . S
C42 O46 1.260 . S
C43 O50 1.240 . S
C43 O51 1.252 . S
C44 O47 1.252 . S
C44 O48 1.260 . S
O45 In39 2.266 . S
O45 C42 1.252 . S
O46 In39 2.326 . S
O46 C42 1.260 . S
O47 In39 2.266 . S
O47 C44 1.252 . S
O48 In39 2.326 . S
O48 C44 1.260 . S
C49 O40 1.240 . S
C49 O41 1.252 . S
O50 In39 2.294 . S
O50 C43 1.240 . S
O51 In39 2.326 . S
O51 C43 1.252 . S
In52 O53 2.294 . S
In52 O54 2.326 . S
In52 O58 2.266 . S
In52 O59 2.326 . S
In52 O60 2.266 . S
In52 O61 2.326 . S
In52 O63 2.294 . S
In52 O64 2.326 . S
O53 In52 2.294 . S
O53 C62 1.240 . S
O54 In52 2.326 . S
O54 C62 1.252 . S
C55 O58 1.252 . S
C55 O59 1.260 . S
C56 O63 1.240 . S
C56 O64 1.252 . S
C57 O60 1.252 . S
C57 O61 1.260 . S
O58 In52 2.266 . S
O58 C55 1.252 . S
O59 In52 2.326 . S
O59 C55 1.260 . S
O60 In52 2.266 . S
O60 C57 1.252 . S
O61 In52 2.326 . S
O61 C57 1.260 . S
C62 O53 1.240 . S
C62 O54 1.252 . S
O63 In52 2.294 . S
O63 C56 1.240 . S
O64 In52 2.326 . S
O64 C56 1.252 . S
In65 O66 2.294 . S
In65 O67 2.326 . S
In65 O71 2.266 . S
In65 O72 2.326 . S
In65 O73 2.266 . S
In65 O74 2.326 . S
In65 O76 2.294 . S
In65 O77 2.326 . S
O66 In65 2.294 . S
O66 C75 1.240 . S
O67 In65 2.326 . S
O67 C75 1.252 . S
C68 O71 1.252 . S
C68 O72 1.260 . S
C69 O76 1.240 . S
C69 O77 1.252 . S
C70 O73 1.252 . S
C70 O74 1.260 . S
O71 In65 2.266 . S
O71 C68 1.252 . S
O72 In65 2.326 . S
O72 C68 1.260 . S
O73 In65 2.266 . S
O73 C70 1.252 . S
O74 In65 2.326 . S
O74 C70 1.260 . S
C75 O66 1.240 . S
C75 O67 1.252 . S
O76 In65 2.294 . S
O76 C69 1.240 . S
O77 In65 2.326 . S
O77 C69 1.252 . S
In78 O79 2.294 . S
In78 O80 2.326 . S
In78 O84 2.266 . S
In78 O85 2.326 . S
In78 O86 2.266 . S
In78 O87 2.326 . S
In78 O89 2.294 . S
In78 O90 2.326 . S
O79 In78 2.294 . S
O79 C88 1.240 . S
O80 In78 2.326 . S
O80 C88 1.252 . S
C81 O84 1.252 . S
C81 O85 1.260 . S
C82 O89 1.240 . S
C82 O90 1.252 . S
C83 O86 1.252 . S
C83 O87 1.260 . S
O84 In78 2.266 . S
O84 C81 1.252 . S
O85 In78 2.326 . S
O85 C81 1.260 . S
O86 In78 2.266 . S
O86 C83 1.252 . S
O87 In78 2.326 . S
O87 C83 1.260 . S
C88 O79 1.240 . S
C88 O80 1.252 . S
O89 In78 2.294 . S
O89 C82 1.240 . S
O90 In78 2.326 . S
O90 C82 1.252 . S
In91 O92 2.294 . S
In91 O93 2.326 . S
In91 O97 2.266 . S
In91 O98 2.326 . S
In91 O99 2.266 . S
In91 O100 2.326 1_455 S
In91 O102 2.294 . S
In91 O103 2.326 . S
O92 In91 2.294 . S
O92 C101 1.240 . S
O93 In91 2.326 . S
O93 C101 1.252 . S
C94 O97 1.252 . S
C94 O98 1.260 . S
C95 O102 1.240 . S
C95 O103 1.252 . S
C96 O99 1.252 1_655 S
C96 O100 1.260 . S
O97 In91 2.266 . S
O97 C94 1.252 . S
O98 In91 2.326 . S
O98 C94 1.260 . S
O99 In91 2.266 . S
O99 C96 1.252 1_455 S
O100 In91 2.326 1_655 S
O100 C96 1.260 . S
C101 O92 1.240 . S
C101 O93 1.252 . S
O102 In91 2.294 . S
O102 C95 1.240 . S
O103 In91 2.326 . S
O103 C95 1.252 . S
In104 O105 2.294 . S
In104 O106 2.326 . S
In104 O110 2.266 . S
In104 O111 2.326 . S
In104 O112 2.266 . S
In104 O113 2.326 . S
In104 O115 2.294 . S
In104 O116 2.326 . S
O105 In104 2.294 . S
O105 C114 1.240 . S
O106 In104 2.326 . S
O106 C114 1.252 . S
C107 O110 1.252 . S
C107 O111 1.260 . S
C108 O115 1.240 . S
C108 O116 1.252 . S
C109 O112 1.252 . S
C109 O113 1.260 . S
O110 In104 2.266 . S
O110 C107 1.252 . S
O111 In104 2.326 . S
O111 C107 1.260 . S
O112 In104 2.266 . S
O112 C109 1.252 . S
O113 In104 2.326 . S
O113 C109 1.260 . S
C114 O105 1.240 . S
C114 O106 1.252 . S
O115 In104 2.294 . S
O115 C108 1.240 . S
O116 In104 2.326 . S
O116 C108 1.252 . S
In117 O118 2.294 . S
In117 O119 2.326 . S
In117 O123 2.266 . S
In117 O124 2.326 . S
In117 O125 2.266 . S
In117 O126 2.326 . S
In117 O128 2.294 . S
In117 O129 2.326 . S
O118 In117 2.294 . S
O118 C127 1.240 . S
O119 In117 2.326 . S
O119 C127 1.252 . S
C120 O123 1.252 . S
C120 O124 1.260 . S
C121 O128 1.240 . S
C121 O129 1.252 . S
C122 O125 1.252 . S
C122 O126 1.260 . S
O123 In117 2.266 . S
O123 C120 1.252 . S
O124 In117 2.326 . S
O124 C120 1.260 . S
O125 In117 2.266 . S
O125 C122 1.252 . S
O126 In117 2.326 . S
O126 C122 1.260 . S
C127 O118 1.240 . S
C127 O119 1.252 . S
O128 In117 2.294 . S
O128 C121 1.240 . S
O129 In117 2.326 . S
O129 C121 1.252 . S
In130 O131 2.294 . S
In130 O132 2.326 . S
In130 O136 2.266 . S
In130 O137 2.326 . S
In130 O138 2.266 . S
In130 O139 2.326 . S
In130 O141 2.294 . S
In130 O142 2.326 . S
O131 In130 2.294 . S
O131 C140 1.240 . S
O132 In130 2.326 . S
O132 C140 1.252 . S
C133 O136 1.252 . S
C133 O137 1.260 . S
C134 O141 1.240 . S
C134 O142 1.252 . S
C135 O138 1.252 . S
C135 O139 1.260 . S
O136 In130 2.266 . S
O136 C133 1.252 . S
O137 In130 2.326 . S
O137 C133 1.260 . S
O138 In130 2.266 . S
O138 C135 1.252 . S
O139 In130 2.326 . S
O139 C135 1.260 . S
C140 O131 1.240 . S
C140 O132 1.252 . S
O141 In130 2.294 . S
O141 C134 1.240 . S
O142 In130 2.326 . S
O142 C134 1.252 . S
In143 O144 2.294 . S
In143 O145 2.326 . S
In143 O149 2.266 . S
In143 O150 2.326 . S
In143 O151 2.266 . S
In143 O152 2.326 . S
In143 O154 2.294 . S
In143 O155 2.326 . S
O144 In143 2.294 . S
O144 C153 1.240 . S
O145 In143 2.326 . S
O145 C153 1.252 . S
C146 O149 1.252 . S
C146 O150 1.260 . S
C147 O154 1.240 . S
C147 O155 1.252 . S
C148 O151 1.252 . S
C148 O152 1.260 . S
O149 In143 2.266 . S
O149 C146 1.252 . S
O150 In143 2.326 . S
O150 C146 1.260 . S
O151 In143 2.266 . S
O151 C148 1.252 . S
O152 In143 2.326 . S
O152 C148 1.260 . S
C153 O144 1.240 . S
C153 O145 1.252 . S
O154 In143 2.294 . S
O154 C147 1.240 . S
O155 In143 2.326 . S
O155 C147 1.252 . S
In156 O157 2.294 . S
In156 O158 2.326 . S
In156 O162 2.266 . S
In156 O163 2.326 1_554 S
In156 O164 2.266 . S
In156 O165 2.326 . S
In156 O167 2.294 . S
In156 O168 2.326 . S
O157 In156 2.294 . S
O157 C166 1.240 . S
O158 In156 2.326 . S
O158 C166 1.252 . S
C159 O162 1.252 1_556 S
C159 O163 1.260 . S
C160 O167 1.240 . S
C160 O168 1.252 . S
C161 O164 1.252 . S
C161 O165 1.260 . S
O162 In156 2.266 . S
O162 C159 1.252 1_554 S
O163 In156 2.326 1_556 S
O163 C159 1.260 . S
O164 In156 2.266 . S
O164 C161 1.252 . S
O165 In156 2.326 . S
O165 C161 1.260 . S
C166 O157 1.240 . S
C166 O158 1.252 . S
O167 In156 2.294 . S
O167 C160 1.240 . S
O168 In156 2.326 . S
O168 C160 1.252 . S
In169 O170 2.294 . S
In169 O171 2.326 . S
In169 O175 2.266 1_554 S
In169 O176 2.326 1_554 S
In169 O177 2.264 1_554 S
In169 O178 2.322 1_554 S
In169 O180 2.296 . S
In169 O181 2.330 . S
O170 In169 2.294 . S
O170 C179 1.240 . S
O171 In169 2.326 . S
O171 C179 1.252 . S
C172 O175 1.252 . S
C172 O176 1.260 . S
C173 O180 1.240 . S
C173 O181 1.252 . S
C174 O177 1.252 . S
C174 O178 1.260 . S
O175 In169 2.266 1_556 S
O175 C172 1.252 . S
O176 In169 2.326 1_556 S
O176 C172 1.260 . S
O177 In169 2.264 1_556 S
O177 C174 1.252 . S
O178 In169 2.322 1_556 S
O178 C174 1.260 . S
C179 O170 1.240 . S
C179 O171 1.252 . S
O180 In169 2.296 . S
O180 C173 1.240 . S
O181 In169 2.330 . S
O181 C173 1.252 . S
In182 O183 2.294 . S
In182 O184 2.326 . S
In182 O188 2.266 . S
In182 O189 2.326 . S
In182 O190 2.266 . S
In182 O191 2.326 . S
In182 O193 2.294 . S
In182 O194 2.326 . S
O183 In182 2.294 . S
O183 C192 1.240 . S
O184 In182 2.326 . S
O184 C192 1.252 . S
C185 O188 1.252 . S
C185 O189 1.260 . S
C186 O193 1.240 . S
C186 O194 1.252 . S
C187 O190 1.252 . S
C187 O191 1.260 . S
O188 In182 2.266 . S
O188 C185 1.252 . S
O189 In182 2.326 . S
O189 C185 1.260 . S
O190 In182 2.266 . S
O190 C187 1.252 . S
O191 In182 2.326 . S
O191 C187 1.260 . S
C192 O183 1.240 . S
C192 O184 1.252 . S
O193 In182 2.294 . S
O193 C186 1.240 . S
O194 In182 2.326 . S
O194 C186 1.252 . S
In195 O196 2.294 . S
In195 O197 2.326 . S
In195 O201 2.266 . S
In195 O202 2.326 . S
In195 O203 2.266 . S
In195 O204 2.326 . S
In195 O206 2.294 . S
In195 O207 2.326 . S
O196 In195 2.294 . S
O196 C205 1.240 . S
O197 In195 2.326 . S
O197 C205 1.252 . S
C198 O201 1.252 . S
C198 O202 1.260 . S
C199 O206 1.240 . S
C199 O207 1.252 . S
C200 O203 1.252 . S
C200 O204 1.260 . S
O201 In195 2.266 . S
O201 C198 1.252 . S
O202 In195 2.326 . S
O202 C198 1.260 . S
O203 In195 2.266 . S
O203 C200 1.252 . S
O204 In195 2.326 . S
O204 C200 1.260 . S
C205 O196 1.240 . S
C205 O197 1.252 . S
O206 In195 2.294 . S
O206 C199 1.240 . S
O207 In195 2.326 . S
O207 C199 1.252 . S
In208 O209 2.294 . S
In208 O210 2.326 . S
In208 O214 2.266 . S
In208 O215 2.326 . S
In208 O216 2.266 . S
In208 O217 2.326 . S
In208 O219 2.294 . S
In208 O220 2.326 . S
O209 In208 2.294 . S
O209 C218 1.240 . S
O210 In208 2.326 . S
O210 C218 1.252 . S
C211 O214 1.252 . S
C211 O215 1.260 . S
C212 O219 1.240 . S
C212 O220 1.252 . S
C213 O216 1.252 . S
C213 O217 1.260 . S
O214 In208 2.266 . S
O214 C211 1.252 . S
O215 In208 2.326 . S
O215 C211 1.260 . S
O216 In208 2.266 . S
O216 C213 1.252 . S
O217 In208 2.326 . S
O217 C213 1.260 . S
C218 O209 1.240 . S
C218 O210 1.252 . S
O219 In208 2.294 . S
O219 C212 1.240 . S
O220 In208 2.326 . S
O220 C212 1.252 . S
In221 O222 2.294 . S
In221 O223 2.326 . S
In221 O227 2.266 . S
In221 O228 2.326 . S
In221 O229 2.266 . S
In221 O230 2.326 . S
In221 O232 2.294 . S
In221 O233 2.326 . S
O222 In221 2.294 . S
O222 C231 1.240 . S
O223 In221 2.326 . S
O223 C231 1.252 . S
C224 O227 1.252 . S
C224 O228 1.260 . S
C225 O232 1.240 . S
C225 O233 1.252 . S
C226 O229 1.252 . S
C226 O230 1.260 . S
O227 In221 2.266 . S
O227 C224 1.252 . S
O228 In221 2.326 . S
O228 C224 1.260 . S
O229 In221 2.266 . S
O229 C226 1.252 . S
O230 In221 2.326 . S
O230 C226 1.260 . S
C231 O222 1.240 . S
C231 O223 1.252 . S
O232 In221 2.294 . S
O232 C225 1.240 . S
O233 In221 2.326 . S
O233 C225 1.252 . S
In234 O235 2.294 . S
In234 O236 2.326 . S
In234 O240 2.266 . S
In234 O241 2.326 . S
In234 O242 2.266 . S
In234 O243 2.326 . S
In234 O245 2.294 . S
In234 O246 2.326 . S
O235 In234 2.294 . S
O235 C244 1.240 . S
O236 In234 2.326 . S
O236 C244 1.252 . S
C237 O240 1.252 . S
C237 O241 1.260 . S
C238 O245 1.240 . S
C238 O246 1.252 . S
C239 O242 1.252 . S
C239 O243 1.260 . S
O240 In234 2.266 . S
O240 C237 1.252 . S
O241 In234 2.326 . S
O241 C237 1.260 . S
O242 In234 2.266 . S
O242 C239 1.252 . S
O243 In234 2.326 . S
O243 C239 1.260 . S
C244 O235 1.240 . S
C244 O236 1.252 . S
O245 In234 2.294 . S
O245 C238 1.240 . S
O246 In234 2.326 . S
O246 C238 1.252 . S
In247 O248 2.296 1_545 S
In247 O249 2.330 1_545 S
In247 O253 2.264 . S
In247 O254 2.322 . S
In247 O255 2.266 . S
In247 O256 2.326 . S
In247 O258 2.294 1_545 S
In247 O259 2.326 1_545 S
O248 In247 2.296 1_565 S
O248 C257 1.240 . S
O249 In247 2.330 1_565 S
O249 C257 1.252 . S
C250 O253 1.252 . S
C250 O254 1.260 . S
C251 O258 1.240 . S
C251 O259 1.252 . S
C252 O255 1.252 . S
C252 O256 1.260 . S
O253 In247 2.264 . S
O253 C250 1.252 . S
O254 In247 2.322 . S
O254 C250 1.260 . S
O255 In247 2.266 . S
O255 C252 1.252 . S
O256 In247 2.326 . S
O256 C252 1.260 . S
C257 O248 1.240 . S
C257 O249 1.252 . S
O258 In247 2.294 1_565 S
O258 C251 1.240 . S
O259 In247 2.326 1_565 S
O259 C251 1.252 . S
In260 O261 2.294 . S
In260 O262 2.326 . S
In260 O266 2.266 . S
In260 O267 2.326 . S
In260 O268 2.266 . S
In260 O269 2.326 1_554 S
In260 O271 2.294 . S
In260 O272 2.326 . S
O261 In260 2.294 . S
O261 C270 1.240 . S
O262 In260 2.326 . S
O262 C270 1.252 . S
C263 O266 1.252 . S
C263 O267 1.260 . S
C264 O271 1.240 . S
C264 O272 1.252 . S
C265 O268 1.252 1_556 S
C265 O269 1.260 . S
O266 In260 2.266 . S
O266 C263 1.252 . S
O267 In260 2.326 . S
O267 C263 1.260 . S
O268 In260 2.266 . S
O268 C265 1.252 1_554 S
O269 In260 2.326 1_556 S
O269 C265 1.260 . S
C270 O261 1.240 . S
C270 O262 1.252 . S
O271 In260 2.294 . S
O271 C264 1.240 . S
O272 In260 2.326 . S
O272 C264 1.252 . S
In273 O274 2.294 . S
In273 O275 2.326 . S
In273 O279 2.266 . S
In273 O280 2.326 . S
In273 O281 2.266 . S
In273 O282 2.326 . S
In273 O284 2.294 . S
In273 O285 2.326 . S
O274 In273 2.294 . S
O274 C283 1.240 . S
O275 In273 2.326 . S
O275 C283 1.252 . S
C276 O279 1.252 . S
C276 O280 1.260 . S
C277 O284 1.240 . S
C277 O285 1.252 . S
C278 O281 1.252 . S
C278 O282 1.260 . S
O279 In273 2.266 . S
O279 C276 1.252 . S
O280 In273 2.326 . S
O280 C276 1.260 . S
O281 In273 2.266 . S
O281 C278 1.252 . S
O282 In273 2.326 . S
O282 C278 1.260 . S
C283 O274 1.240 . S
C283 O275 1.252 . S
O284 In273 2.294 . S
O284 C277 1.240 . S
O285 In273 2.326 . S
O285 C277 1.252 . S
In286 O287 2.294 . S
In286 O288 2.326 . S
In286 O292 2.266 . S
In286 O293 2.326 . S
In286 O294 2.266 . S
In286 O295 2.326 . S
In286 O297 2.294 . S
In286 O298 2.326 . S
O287 In286 2.294 . S
O287 C296 1.240 . S
O288 In286 2.326 . S
O288 C296 1.252 . S
C289 O292 1.252 . S
C289 O293 1.260 . S
C290 O297 1.240 . S
C290 O298 1.252 . S
C291 O294 1.252 . S
C291 O295 1.260 . S
O292 In286 2.266 . S
O292 C289 1.252 . S
O293 In286 2.326 . S
O293 C289 1.260 . S
O294 In286 2.266 . S
O294 C291 1.252 . S
O295 In286 2.326 . S
O295 C291 1.260 . S
C296 O287 1.240 . S
C296 O288 1.252 . S
O297 In286 2.294 . S
O297 C290 1.240 . S
O298 In286 2.326 . S
O298 C290 1.252 . S
In299 O300 2.294 . S
In299 O301 2.326 . S
In299 O305 2.266 . S
In299 O306 2.326 . S
In299 O307 2.266 . S
In299 O308 2.326 . S
In299 O310 2.294 . S
In299 O311 2.326 . S
O300 In299 2.294 . S
O300 C309 1.240 . S
O301 In299 2.326 . S
O301 C309 1.252 . S
C302 O305 1.252 . S
C302 O306 1.260 . S
C303 O310 1.240 . S
C303 O311 1.252 . S
C304 O307 1.252 . S
C304 O308 1.260 . S
O305 In299 2.266 . S
O305 C302 1.252 . S
O306 In299 2.326 . S
O306 C302 1.260 . S
O307 In299 2.266 . S
O307 C304 1.252 . S
O308 In299 2.326 . S
O308 C304 1.260 . S
C309 O300 1.240 . S
C309 O301 1.252 . S
O310 In299 2.294 . S
O310 C303 1.240 . S
O311 In299 2.326 . S
O311 C303 1.252 . S
Pr312 C314 2.880 . S
Pr312 O332 2.562 . S
Pr312 O333 2.490 . S
Pr312 O334 2.695 . S
Pr312 O335 2.503 1_554 S
Pr312 O337 2.437 . S
Pr312 O340 2.436 . S
Pr312 O342 2.438 . S
Pr313 C323 2.880 . S
Pr313 O334 2.436 . S
Pr313 O336 2.438 . S
Pr313 O338 2.562 . S
Pr313 O339 2.490 . S
Pr313 O340 2.695 . S
Pr313 O341 2.512 . S
Pr313 O343 2.437 . S
C314 Pr312 2.880 . S
C314 C315 1.491 1_455 S
C314 O332 1.254 . S
C314 O333 1.225 . S
C315 C314 1.491 1_655 S
C315 C316 1.392 1_554 S
C315 C320 1.356 . S
C316 C315 1.392 1_556 S
C316 C317 1.368 . S
C316 H344 0.929 . S
C317 C316 1.368 . S
C317 C318 1.386 . S
C317 H345 0.929 . S
C318 C317 1.386 . S
C318 C319 1.373 1_556 S
C319 C318 1.373 1_554 S
C319 C320 1.409 . S
C319 H346 0.931 . S
C320 C315 1.356 . S
C320 C319 1.409 . S
C320 H347 0.930 . S
C321 O334 1.270 . S
C321 O335 1.245 1_554 S
C322 O336 1.267 . S
C322 O337 1.278 . S
C323 Pr313 2.880 . S
C323 C324 1.491 . S
C323 O338 1.254 . S
C323 O339 1.225 . S
C324 C323 1.491 . S
C324 C325 1.392 . S
C324 C329 1.356 . S
C325 C324 1.392 . S
C325 C326 1.368 . S
C325 H348 0.929 . S
C326 C325 1.368 . S
C326 C327 1.386 . S
C326 H349 0.929 . S
C327 C326 1.386 . S
C327 C328 1.373 . S
C328 C327 1.373 . S
C328 C329 1.409 . S
C328 H350 0.931 . S
C329 C324 1.356 . S
C329 C328 1.409 . S
C329 H351 0.930 . S
C330 O340 1.270 . S
C330 O341 1.248 . S
C331 O342 1.267 . S
C331 O343 1.278 . S
O332 Pr312 2.562 . S
O332 C314 1.254 . S
O333 Pr312 2.490 . S
O333 C314 1.225 . S
O334 Pr312 2.695 . S
O334 Pr313 2.436 . S
O334 C321 1.270 . S
O335 Pr312 2.503 1_556 S
O335 C321 1.245 1_556 S
O336 Pr313 2.438 . S
O336 C322 1.267 . S
O337 Pr312 2.437 . S
O337 C322 1.278 . S
O338 Pr313 2.562 . S
O338 C323 1.254 . S
O339 Pr313 2.490 . S
O339 C323 1.225 . S
O340 Pr312 2.436 . S
O340 Pr313 2.695 . S
O340 C330 1.270 . S
O341 Pr313 2.512 . S
O341 C330 1.248 . S
O342 Pr312 2.438 . S
O342 C331 1.267 . S
O343 Pr313 2.437 . S
O343 C331 1.278 . S
H344 C316 0.929 . S
H345 C317 0.929 . S
H346 C319 0.931 . S
H347 C320 0.930 . S
H348 C325 0.929 . S
H349 C326 0.929 . S
H350 C328 0.931 . S
H351 C329 0.930 . S
Pr352 C354 2.880 . S
Pr352 O372 2.562 . S
Pr352 O373 2.490 . S
Pr352 O374 2.695 . S
Pr352 O375 2.512 . S
Pr352 O377 2.437 . S
Pr352 O380 2.436 . S
Pr352 O382 2.438 . S
Pr353 C363 2.880 . S
Pr353 O374 2.436 . S
Pr353 O376 2.438 . S
Pr353 O378 2.562 . S
Pr353 O379 2.490 . S
Pr353 O380 2.695 . S
Pr353 O381 2.512 . S
Pr353 O383 2.437 . S
C354 Pr352 2.880 . S
C354 C355 1.491 . S
C354 O372 1.254 . S
C354 O373 1.225 . S
C355 C354 1.491 . S
C355 C356 1.392 . S
C355 C360 1.356 . S
C356 C355 1.392 . S
C356 C357 1.368 . S
C356 H384 0.929 . S
C357 C356 1.368 . S
C357 C358 1.386 . S
C357 H385 0.929 . S
C358 C357 1.386 . S
C358 C359 1.373 . S
C359 C358 1.373 . S
C359 C360 1.409 . S
C359 H386 0.931 . S
C360 C355 1.356 . S
C360 C359 1.409 . S
C360 H387 0.930 . S
C361 O374 1.270 . S
C361 O375 1.248 . S
C362 O376 1.267 . S
C362 O377 1.278 . S
C363 Pr353 2.880 . S
C363 C364 1.491 . S
C363 O378 1.254 . S
C363 O379 1.225 . S
C364 C363 1.491 . S
C364 C365 1.392 . S
C364 C369 1.356 . S
C365 C364 1.392 . S
C365 C366 1.368 . S
C365 H388 0.929 . S
C366 C365 1.368 . S
C366 C367 1.386 . S
C366 H389 0.929 . S
C367 C366 1.386 . S
C367 C368 1.373 . S
C368 C367 1.373 . S
C368 C369 1.409 . S
C368 H390 0.931 . S
C369 C364 1.356 . S
C369 C368 1.409 . S
C369 H391 0.930 . S
C370 O380 1.270 . S
C370 O381 1.248 . S
C371 O382 1.267 . S
C371 O383 1.278 . S
O372 Pr352 2.562 . S
O372 C354 1.254 . S
O373 Pr352 2.490 . S
O373 C354 1.225 . S
O374 Pr352 2.695 . S
O374 Pr353 2.436 . S
O374 C361 1.270 . S
O375 Pr352 2.512 . S
O375 C361 1.248 . S
O376 Pr353 2.438 . S
O376 C362 1.267 . S
O377 Pr352 2.437 . S
O377 C362 1.278 . S
O378 Pr353 2.562 . S
O378 C363 1.254 . S
O379 Pr353 2.490 . S
O379 C363 1.225 . S
O380 Pr352 2.436 . S
O380 Pr353 2.695 . S
O380 C370 1.270 . S
O381 Pr353 2.512 . S
O381 C370 1.248 . S
O382 Pr352 2.438 . S
O382 C371 1.267 . S
O383 Pr353 2.437 . S
O383 C371 1.278 . S
H384 C356 0.929 . S
H385 C357 0.929 . S
H386 C359 0.931 . S
H387 C360 0.930 . S
H388 C365 0.929 . S
H389 C366 0.929 . S
H390 C368 0.931 . S
H391 C369 0.930 . S
Pr392 C394 2.880 . S
Pr392 O412 2.562 . S
Pr392 O413 2.490 . S
Pr392 O414 2.695 . S
Pr392 O415 2.512 . S
Pr392 O417 2.437 . S
Pr392 O420 2.436 . S
Pr392 O422 2.438 . S
Pr393 C403 2.880 . S
Pr393 O414 2.436 . S
Pr393 O416 2.438 . S
Pr393 O418 2.562 . S
Pr393 O419 2.490 . S
Pr393 O420 2.695 . S
Pr393 O421 2.512 . S
Pr393 O423 2.437 . S
C394 Pr392 2.880 . S
C394 C395 1.491 . S
C394 O412 1.254 . S
C394 O413 1.225 . S
C395 C394 1.491 . S
C395 C396 1.392 . S
C395 C400 1.356 . S
C396 C395 1.392 . S
C396 C397 1.368 . S
C396 H424 0.929 . S
C397 C396 1.368 . S
C397 C398 1.354 1_545 S
C397 H425 0.929 . S
C398 C397 1.354 1_565 S
C398 C399 1.379 . S
C399 C398 1.379 . S
C399 C400 1.409 1_565 S
C399 H426 0.931 . S
C400 C395 1.356 . S
C400 C399 1.409 1_545 S
C400 H427 0.930 . S
C401 O414 1.270 . S
C401 O415 1.248 . S
C402 O416 1.267 . S
C402 O417 1.278 . S
C403 Pr393 2.880 . S
C403 C404 1.491 . S
C403 O418 1.254 . S
C403 O419 1.225 . S
C404 C403 1.491 . S
C404 C405 1.392 . S
C404 C409 1.356 . S
C405 C404 1.392 . S
C405 C406 1.368 . S
C405 H428 0.929 . S
C406 C405 1.368 . S
C406 C407 1.386 . S
C406 H429 0.929 . S
C407 C406 1.386 . S
C407 C408 1.373 . S
C408 C407 1.373 . S
C408 C409 1.409 . S
C408 H430 0.931 . S
C409 C404 1.356 . S
C409 C408 1.409 . S
C409 H431 0.930 . S
C410 O420 1.270 . S
C410 O421 1.248 . S
C411 O422 1.267 . S
C411 O423 1.278 . S
O412 Pr392 2.562 . S
O412 C394 1.254 . S
O413 Pr392 2.490 . S
O413 C394 1.225 . S
O414 Pr392 2.695 . S
O414 Pr393 2.436 . S
O414 C401 1.270 . S
O415 Pr392 2.512 . S
O415 C401 1.248 . S
O416 Pr393 2.438 . S
O416 C402 1.267 . S
O417 Pr392 2.437 . S
O417 C402 1.278 . S
O418 Pr393 2.562 . S
O418 C403 1.254 . S
O419 Pr393 2.490 . S
O419 C403 1.225 . S
O420 Pr392 2.436 . S
O420 Pr393 2.695 . S
O420 C410 1.270 . S
O421 Pr393 2.512 . S
O421 C410 1.248 . S
O422 Pr392 2.438 . S
O422 C411 1.267 . S
O423 Pr393 2.437 . S
O423 C411 1.278 . S
H424 C396 0.929 . S
H425 C397 0.929 . S
H426 C399 0.931 . S
H427 C400 0.930 . S
H428 C405 0.929 . S
H429 C406 0.929 . S
H430 C408 0.931 . S
H431 C409 0.930 . S
Pr432 C434 2.880 . S
Pr432 O452 2.562 . S
Pr432 O453 2.490 . S
Pr432 O454 2.695 . S
Pr432 O455 2.512 . S
Pr432 O457 2.437 . S
Pr432 O460 2.436 . S
Pr432 O462 2.438 . S
Pr433 C443 2.880 . S
Pr433 O454 2.436 . S
Pr433 O456 2.438 . S
Pr433 O458 2.562 . S
Pr433 O459 2.490 . S
Pr433 O460 2.695 . S
Pr433 O461 2.512 . S
Pr433 O463 2.437 . S
C434 Pr432 2.880 . S
C434 C435 1.491 . S
C434 O452 1.254 . S
C434 O453 1.225 . S
C435 C434 1.491 . S
C435 C436 1.392 . S
C435 C440 1.356 . S
C436 C435 1.392 . S
C436 C437 1.368 . S
C436 H464 0.929 . S
C437 C436 1.368 . S
C437 C438 1.386 . S
C437 H465 0.929 . S
C438 C437 1.386 . S
C438 C439 1.373 . S
C439 C438 1.373 . S
C439 C440 1.409 . S
C439 H466 0.931 . S
C440 C435 1.356 . S
C440 C439 1.409 . S
C440 H467 0.930 . S
C441 O454 1.270 . S
C441 O455 1.248 . S
C442 O456 1.267 . S
C442 O457 1.278 . S
C443 Pr433 2.880 . S
C443 C444 1.491 . S
C443 O458 1.254 . S
C443 O459 1.225 . S
C444 C443 1.491 . S
C444 C445 1.392 . S
C444 C449 1.356 . S
C445 C444 1.392 . S
C445 C446 1.368 . S
C445 H468 0.929 . S
C446 C445 1.368 . S
C446 C447 1.386 . S
C446 H469 0.929 . S
C447 C446 1.386 . S
C447 C448 1.373 . S
C448 C447 1.373 . S
C448 C449 1.409 . S
C448 H470 0.931 . S
C449 C444 1.356 . S
C449 C448 1.409 . S
C449 H471 0.930 . S
C450 O460 1.270 . S
C450 O461 1.248 . S
C451 O462 1.267 . S
C451 O463 1.278 . S
O452 Pr432 2.562 . S
O452 C434 1.254 . S
O453 Pr432 2.490 . S
O453 C434 1.225 . S
O454 Pr432 2.695 . S
O454 Pr433 2.436 . S
O454 C441 1.270 . S
O455 Pr432 2.512 . S
O455 C441 1.248 . S
O456 Pr433 2.438 . S
O456 C442 1.267 . S
O457 Pr432 2.437 . S
O457 C442 1.278 . S
O458 Pr433 2.562 . S
O458 C443 1.254 . S
O459 Pr433 2.490 . S
O459 C443 1.225 . S
O460 Pr432 2.436 . S
O460 Pr433 2.695 . S
O460 C450 1.270 . S
O461 Pr433 2.512 . S
O461 C450 1.248 . S
O462 Pr432 2.438 . S
O462 C451 1.267 . S
O463 Pr433 2.437 . S
O463 C451 1.278 . S
H464 C436 0.929 . S
H465 C437 0.929 . S
H466 C439 0.931 . S
H467 C440 0.930 . S
H468 C445 0.929 . S
H469 C446 0.929 . S
H470 C448 0.931 . S
H471 C449 0.930 . S
Pr472 C474 2.880 . S
Pr472 O492 2.562 . S
Pr472 O493 2.490 . S
Pr472 O494 2.695 . S
Pr472 O495 2.512 . S
Pr472 O497 2.437 . S
Pr472 O500 2.436 . S
Pr472 O502 2.438 . S
Pr473 C483 2.880 . S
Pr473 O494 2.436 . S
Pr473 O496 2.438 . S
Pr473 O498 2.562 . S
Pr473 O499 2.490 . S
Pr473 O500 2.695 . S
Pr473 O501 2.512 . S
Pr473 O503 2.437 . S
C474 Pr472 2.880 . S
C474 C475 1.491 . S
C474 O492 1.254 . S
C474 O493 1.225 . S
C475 C474 1.491 . S
C475 C476 1.392 . S
C475 C480 1.356 . S
C476 C475 1.392 . S
C476 C477 1.368 . S
C476 H504 0.929 . S
C477 C476 1.368 . S
C477 C478 1.386 . S
C477 H505 0.929 . S
C478 C477 1.386 . S
C478 C479 1.373 . S
C479 C478 1.373 . S
C479 C480 1.409 . S
C479 H506 0.931 1_455 S
C480 C475 1.356 . S
C480 C479 1.409 . S
C480 H507 0.930 . S
C481 O494 1.270 . S
C481 O495 1.248 . S
C482 O496 1.267 . S
C482 O497 1.278 . S
C483 Pr473 2.880 . S
C483 C484 1.491 . S
C483 O498 1.254 . S
C483 O499 1.225 . S
C484 C483 1.491 . S
C484 C485 1.392 . S
C484 C489 1.356 . S
C485 C484 1.392 . S
C485 C486 1.368 . S
C485 H508 0.929 . S
C486 C485 1.368 . S
C486 C487 1.386 . S
C486 H509 0.929 . S
C487 C486 1.386 . S
C487 C488 1.373 . S
C488 C487 1.373 . S
C488 C489 1.409 . S
C488 H510 0.931 . S
C489 C484 1.356 . S
C489 C488 1.409 . S
C489 H511 0.930 . S
C490 O500 1.270 . S
C490 O501 1.248 . S
C491 O502 1.267 . S
C491 O503 1.278 . S
O492 Pr472 2.562 . S
O492 C474 1.254 . S
O493 Pr472 2.490 . S
O493 C474 1.225 . S
O494 Pr472 2.695 . S
O494 Pr473 2.436 . S
O494 C481 1.270 . S
O495 Pr472 2.512 . S
O495 C481 1.248 . S
O496 Pr473 2.438 . S
O496 C482 1.267 . S
O497 Pr472 2.437 . S
O497 C482 1.278 . S
O498 Pr473 2.562 . S
O498 C483 1.254 . S
O499 Pr473 2.490 . S
O499 C483 1.225 . S
O500 Pr472 2.436 . S
O500 Pr473 2.695 . S
O500 C490 1.270 . S
O501 Pr473 2.512 . S
O501 C490 1.248 . S
O502 Pr472 2.438 . S
O502 C491 1.267 . S
O503 Pr473 2.437 . S
O503 C491 1.278 . S
H504 C476 0.929 . S
H505 C477 0.929 . S
H506 C479 0.931 1_655 S
H507 C480 0.930 . S
H508 C485 0.929 . S
H509 C486 0.929 . S
H510 C488 0.931 . S
H511 C489 0.930 . S
Pr512 C514 2.880 . S
Pr512 O532 2.562 . S
Pr512 O533 2.490 . S
Pr512 O534 2.695 . S
Pr512 O535 2.512 . S
Pr512 O537 2.437 . S
Pr512 O540 2.436 . S
Pr512 O542 2.438 . S
Pr513 C523 2.880 . S
Pr513 O534 2.436 . S
Pr513 O536 2.438 . S
Pr513 O538 2.562 . S
Pr513 O539 2.490 . S
Pr513 O540 2.695 . S
Pr513 O541 2.512 . S
Pr513 O543 2.437 . S
C514 Pr512 2.880 . S
C514 C515 1.491 . S
C514 O532 1.254 . S
C514 O533 1.225 . S
C515 C514 1.491 . S
C515 C516 1.392 . S
C515 C520 1.356 . S
C516 C515 1.392 . S
C516 C517 1.368 . S
C516 H544 0.929 . S
C517 C516 1.368 . S
C517 C518 1.386 . S
C517 H545 0.929 . S
C518 C517 1.386 . S
C518 C519 1.373 . S
C519 C518 1.373 . S
C519 C520 1.409 . S
C519 H546 0.931 . S
C520 C515 1.356 . S
C520 C519 1.409 . S
C520 H547 0.930 . S
C521 O534 1.270 . S
C521 O535 1.248 . S
C522 O536 1.267 . S
C522 O537 1.278 . S
C523 Pr513 2.880 . S
C523 C524 1.491 . S
C523 O538 1.254 . S
C523 O539 1.225 . S
C524 C523 1.491 . S
C524 C525 1.392 . S
C524 C529 1.356 . S
C525 C524 1.392 . S
C525 C526 1.368 . S
C525 H548 0.929 . S
C526 C525 1.368 . S
C526 C527 1.386 . S
C526 H549 0.929 . S
C527 C526 1.386 . S
C527 C528 1.373 . S
C528 C527 1.373 . S
C528 C529 1.409 . S
C528 H550 0.931 . S
C529 C524 1.356 . S
C529 C528 1.409 . S
C529 H551 0.930 . S
C530 O540 1.270 . S
C530 O541 1.248 . S
C531 O542 1.267 . S
C531 O543 1.278 . S
O532 Pr512 2.562 . S
O532 C514 1.254 . S
O533 Pr512 2.490 . S
O533 C514 1.225 . S
O534 Pr512 2.695 . S
O534 Pr513 2.436 . S
O534 C521 1.270 . S
O535 Pr512 2.512 . S
O535 C521 1.248 . S
O536 Pr513 2.438 . S
O536 C522 1.267 . S
O537 Pr512 2.437 . S
O537 C522 1.278 . S
O538 Pr513 2.562 . S
O538 C523 1.254 . S
O539 Pr513 2.490 . S
O539 C523 1.225 . S
O540 Pr512 2.436 . S
O540 Pr513 2.695 . S
O540 C530 1.270 . S
O541 Pr513 2.512 . S
O541 C530 1.248 . S
O542 Pr512 2.438 . S
O542 C531 1.267 . S
O543 Pr513 2.437 . S
O543 C531 1.278 . S
H544 C516 0.929 . S
H545 C517 0.929 . S
H546 C519 0.931 . S
H547 C520 0.930 . S
H548 C525 0.929 . S
H549 C526 0.929 . S
H550 C528 0.931 . S
H551 C529 0.930 . S
Pr552 C554 2.880 . S
Pr552 O572 2.562 . S
Pr552 O573 2.490 . S
Pr552 O574 2.695 . S
Pr552 O575 2.512 . S
Pr552 O577 2.437 . S
Pr552 O580 2.436 . S
Pr552 O582 2.438 . S
Pr553 C563 2.880 . S
Pr553 O574 2.436 1_556 S
Pr553 O576 2.428 1_556 S
Pr553 O578 2.562 . S
Pr553 O579 2.490 . S
Pr553 O580 2.695 1_556 S
Pr553 O581 2.529 . S
Pr553 O583 2.437 . S
C554 Pr552 2.880 . S
C554 C555 1.491 . S
C554 O572 1.254 . S
C554 O573 1.225 . S
C555 C554 1.491 . S
C555 C556 1.392 . S
C555 C560 1.356 . S
C556 C555 1.392 . S
C556 C557 1.368 . S
C556 H584 0.929 . S
C557 C556 1.368 . S
C557 C558 1.386 . S
C557 H585 0.929 . S
C558 C557 1.386 . S
C558 C559 1.373 . S
C559 C558 1.373 . S
C559 C560 1.409 . S
C559 H586 0.931 . S
C560 C555 1.356 . S
C560 C559 1.409 . S
C560 H587 0.930 . S
C561 O574 1.270 . S
C561 O575 1.248 . S
C562 O576 1.284 . S
C562 O577 1.278 . S
C563 Pr553 2.880 . S
C563 C564 1.491 . S
C563 O578 1.254 . S
C563 O579 1.225 . S
C564 C563 1.491 . S
C564 C565 1.392 . S
C564 C569 1.356 . S
C565 C564 1.392 . S
C565 C566 1.368 . S
C565 H588 0.929 . S
C566 C565 1.368 . S
C566 C567 1.386 . S
C566 H589 0.929 . S
C567 C566 1.386 . S
C567 C568 1.373 . S
C568 C567 1.373 . S
C568 C569 1.409 . S
C568 H590 0.931 . S
C569 C564 1.356 . S
C569 C568 1.409 . S
C569 H591 0.930 . S
C570 O580 1.270 . S
C570 O581 1.195 1_554 S
C571 O582 1.267 . S
C571 O583 1.278 1_554 S
O572 Pr552 2.562 . S
O572 C554 1.254 . S
O573 Pr552 2.490 . S
O573 C554 1.225 . S
O574 Pr552 2.695 . S
O574 Pr553 2.436 1_554 S
O574 C561 1.270 . S
O575 Pr552 2.512 . S
O575 C561 1.248 . S
O576 Pr553 2.428 1_554 S
O576 C562 1.284 . S
O577 Pr552 2.437 . S
O577 C562 1.278 . S
O578 Pr553 2.562 . S
O578 C563 1.254 . S
O579 Pr553 2.490 . S
O579 C563 1.225 . S
O580 Pr552 2.436 . S
O580 Pr553 2.695 1_554 S
O580 C570 1.270 . S
O581 Pr553 2.529 . S
O581 C570 1.195 1_556 S
O582 Pr552 2.438 . S
O582 C571 1.267 . S
O583 Pr553 2.437 . S
O583 C571 1.278 1_556 S
H584 C556 0.929 . S
H585 C557 0.929 . S
H586 C559 0.931 . S
H587 C560 0.930 . S
H588 C565 0.929 . S
H589 C566 0.929 . S
H590 C568 0.931 . S
H591 C569 0.930 . S
Pr592 C594 2.880 . S
Pr592 O612 2.562 . S
Pr592 O613 2.490 . S
Pr592 O614 2.695 . S
Pr592 O615 2.512 . S
Pr592 O617 2.437 . S
Pr592 O620 2.436 . S
Pr592 O622 2.438 . S
Pr593 C603 2.880 . S
Pr593 O614 2.436 . S
Pr593 O616 2.438 . S
Pr593 O618 2.562 . S
Pr593 O619 2.490 . S
Pr593 O620 2.695 . S
Pr593 O621 2.512 . S
Pr593 O623 2.437 . S
C594 Pr592 2.880 . S
C594 C595 1.491 . S
C594 O612 1.254 . S
C594 O613 1.225 . S
C595 C594 1.491 . S
C595 C596 1.392 . S
C595 C600 1.356 . S
C596 C595 1.392 . S
C596 C597 1.368 . S
C596 H624 0.929 . S
C597 C596 1.368 . S
C597 C598 1.386 . S
C597 H625 0.929 . S
C598 C597 1.386 . S
C598 C599 1.373 . S
C599 C598 1.373 . S
C599 C600 1.409 . S
C599 H626 0.931 . S
C600 C595 1.356 . S
C600 C599 1.409 . S
C600 H627 0.930 . S
C601 O614 1.270 . S
C601 O615 1.248 . S
C602 O616 1.267 . S
C602 O617 1.278 . S
C603 Pr593 2.880 . S
C603 C604 1.491 . S
C603 O618 1.254 . S
C603 O619 1.225 . S
C604 C603 1.491 . S
C604 C605 1.392 . S
C604 C609 1.356 . S
C605 C604 1.392 . S
C605 C606 1.368 . S
C605 H628 0.929 . S
C606 C605 1.368 . S
C606 C607 1.386 . S
C606 H629 0.929 . S
C607 C606 1.386 . S
C607 C608 1.373 . S
C608 C607 1.373 . S
C608 C609 1.409 . S
C608 H630 0.931 . S
C609 C604 1.356 . S
C609 C608 1.409 . S
C609 H631 0.930 . S
C610 O620 1.270 . S
C610 O621 1.248 . S
C611 O622 1.267 . S
C611 O623 1.278 . S
O612 Pr592 2.562 . S
O612 C594 1.254 . S
O613 Pr592 2.490 . S
O613 C594 1.225 . S
O614 Pr592 2.695 . S
O614 Pr593 2.436 . S
O614 C601 1.270 . S
O615 Pr592 2.512 . S
O615 C601 1.248 . S
O616 Pr593 2.438 . S
O616 C602 1.267 . S
O617 Pr592 2.437 . S
O617 C602 1.278 . S
O618 Pr593 2.562 . S
O618 C603 1.254 . S
O619 Pr593 2.490 . S
O619 C603 1.225 . S
O620 Pr592 2.436 . S
O620 Pr593 2.695 . S
O620 C610 1.270 . S
O621 Pr593 2.512 . S
O621 C610 1.248 . S
O622 Pr592 2.438 . S
O622 C611 1.267 . S
O623 Pr593 2.437 . S
O623 C611 1.278 . S
H624 C596 0.929 . S
H625 C597 0.929 . S
H626 C599 0.931 . S
H627 C600 0.930 . S
H628 C605 0.929 . S
H629 C606 0.929 . S
H630 C608 0.931 . S
H631 C609 0.930 . S
Pr632 C634 2.880 . S
Pr632 O652 2.562 . S
Pr632 O653 2.490 . S
Pr632 O654 2.695 1_556 S
Pr632 O655 2.512 . S
Pr632 O657 2.437 . S
Pr632 O660 2.436 1_556 S
Pr632 O662 2.438 1_556 S
Pr633 C643 2.880 . S
Pr633 O654 2.436 . S
Pr633 O656 2.438 . S
Pr633 O658 2.562 . S
Pr633 O659 2.490 . S
Pr633 O660 2.695 . S
Pr633 O661 2.512 . S
Pr633 O663 2.437 . S
C634 Pr632 2.880 . S
C634 C635 1.491 . S
C634 O652 1.254 . S
C634 O653 1.225 . S
C635 C634 1.491 . S
C635 C636 1.392 . S
C635 C640 1.356 . S
C636 C635 1.392 . S
C636 C637 1.368 . S
C636 H664 0.929 . S
C637 C636 1.368 . S
C637 C638 1.386 . S
C637 H665 0.929 . S
C638 C637 1.386 . S
C638 C639 1.373 . S
C639 C638 1.373 . S
C639 C640 1.409 . S
C639 H666 0.931 . S
C640 C635 1.356 . S
C640 C639 1.409 . S
C640 H667 0.930 . S
C641 O654 1.270 . S
C641 O655 1.248 1_554 S
C642 O656 1.258 1_556 S
C642 O657 1.282 . S
C643 Pr633 2.880 . S
C643 C644 1.491 . S
C643 O658 1.254 . S
C643 O659 1.225 . S
C644 C643 1.491 . S
C644 C645 1.392 . S
C644 C649 1.356 . S
C645 C644 1.392 . S
C645 C646 1.368 . S
C645 H668 0.929 . S
C646 C645 1.368 . S
C646 C647 1.386 . S
C646 H669 0.929 . S
C647 C646 1.386 . S
C647 C648 1.373 . S
C648 C647 1.373 . S
C648 C649 1.409 . S
C648 H670 0.931 . S
C649 C644 1.356 . S
C649 C648 1.409 . S
C649 H671 0.930 . S
C650 O660 1.270 . S
C650 O661 1.248 . S
C651 O662 1.267 . S
C651 O663 1.278 . S
O652 Pr632 2.562 . S
O652 C634 1.254 . S
O653 Pr632 2.490 . S
O653 C634 1.225 . S
O654 Pr632 2.695 1_554 S
O654 Pr633 2.436 . S
O654 C641 1.270 . S
O655 Pr632 2.512 . S
O655 C641 1.248 1_556 S
O656 Pr633 2.438 . S
O656 C642 1.258 1_554 S
O657 Pr632 2.437 . S
O657 C642 1.282 . S
O658 Pr633 2.562 . S
O658 C643 1.254 . S
O659 Pr633 2.490 . S
O659 C643 1.225 . S
O660 Pr632 2.436 1_554 S
O660 Pr633 2.695 . S
O660 C650 1.270 . S
O661 Pr633 2.512 . S
O661 C650 1.248 . S
O662 Pr632 2.438 1_554 S
O662 C651 1.267 . S
O663 Pr633 2.437 . S
O663 C651 1.278 . S
H664 C636 0.929 . S
H665 C637 0.929 . S
H666 C639 0.931 . S
H667 C640 0.930 . S
H668 C645 0.929 . S
H669 C646 0.929 . S
H670 C648 0.931 . S
H671 C649 0.930 . S
Pr672 C674 2.880 . S
Pr672 O692 2.562 . S
Pr672 O693 2.490 . S
Pr672 O694 2.695 . S
Pr672 O695 2.512 . S
Pr672 O697 2.437 . S
Pr672 O700 2.436 . S
Pr672 O702 2.438 . S
Pr673 C683 2.880 . S
Pr673 O694 2.436 . S
Pr673 O696 2.438 . S
Pr673 O698 2.562 . S
Pr673 O699 2.490 . S
Pr673 O700 2.695 . S
Pr673 O701 2.512 . S
Pr673 O703 2.437 . S
C674 Pr672 2.880 . S
C674 C675 1.491 . S
C674 O692 1.254 . S
C674 O693 1.225 . S
C675 C674 1.491 . S
C675 C676 1.392 . S
C675 C680 1.356 . S
C676 C675 1.392 . S
C676 C677 1.368 . S
C676 H704 0.929 . S
C677 C676 1.368 . S
C677 C678 1.386 . S
C677 H705 0.929 . S
C678 C677 1.386 . S
C678 C679 1.373 . S
C679 C678 1.373 . S
C679 C680 1.409 . S
C679 H706 0.931 . S
C680 C675 1.356 . S
C680 C679 1.409 . S
C680 H707 0.930 . S
C681 O694 1.270 . S
C681 O695 1.248 . S
C682 O696 1.267 . S
C682 O697 1.278 . S
C683 Pr673 2.880 . S
C683 C684 1.491 . S
C683 O698 1.254 . S
C683 O699 1.225 . S
C684 C683 1.491 . S
C684 C685 1.392 . S
C684 C689 1.356 . S
C685 C684 1.392 . S
C685 C686 1.368 . S
C685 H708 0.929 . S
C686 C685 1.368 . S
C686 C687 1.386 . S
C686 H709 0.929 . S
C687 C686 1.386 . S
C687 C688 1.373 . S
C688 C687 1.373 . S
C688 C689 1.409 . S
C688 H710 0.931 . S
C689 C684 1.356 . S
C689 C688 1.409 . S
C689 H711 0.930 . S
C690 O700 1.270 . S
C690 O701 1.248 . S
C691 O702 1.267 . S
C691 O703 1.278 . S
O692 Pr672 2.562 . S
O692 C674 1.254 . S
O693 Pr672 2.490 . S
O693 C674 1.225 . S
O694 Pr672 2.695 . S
O694 Pr673 2.436 . S
O694 C681 1.270 . S
O695 Pr672 2.512 . S
O695 C681 1.248 . S
O696 Pr673 2.438 . S
O696 C682 1.267 . S
O697 Pr672 2.437 . S
O697 C682 1.278 . S
O698 Pr673 2.562 . S
O698 C683 1.254 . S
O699 Pr673 2.490 . S
O699 C683 1.225 . S
O700 Pr672 2.436 . S
O700 Pr673 2.695 . S
O700 C690 1.270 . S
O701 Pr673 2.512 . S
O701 C690 1.248 . S
O702 Pr672 2.438 . S
O702 C691 1.267 . S
O703 Pr673 2.437 . S
O703 C691 1.278 . S
H704 C676 0.929 . S
H705 C677 0.929 . S
H706 C679 0.931 . S
H707 C680 0.930 . S
H708 C685 0.929 . S
H709 C686 0.929 . S
H710 C688 0.931 . S
H711 C689 0.930 . S
Pr712 C714 2.880 . S
Pr712 O732 2.562 . S
Pr712 O733 2.490 . S
Pr712 O734 2.695 . S
Pr712 O735 2.512 . S
Pr712 O737 2.437 . S
Pr712 O740 2.436 . S
Pr712 O742 2.438 . S
Pr713 C723 2.880 . S
Pr713 O734 2.436 . S
Pr713 O736 2.438 1_455 S
Pr713 O738 2.562 . S
Pr713 O739 2.490 . S
Pr713 O740 2.695 . S
Pr713 O741 2.512 . S
Pr713 O743 2.437 . S
C714 Pr712 2.880 . S
C714 C715 1.491 . S
C714 O732 1.254 . S
C714 O733 1.225 . S
C715 C714 1.491 . S
C715 C716 1.392 . S
C715 C720 1.356 . S
C716 C715 1.392 . S
C716 C717 1.368 . S
C716 H744 0.929 . S
C717 C716 1.368 . S
C717 C718 1.386 1_455 S
C717 H745 0.929 . S
C718 C717 1.386 1_655 S
C718 C719 1.373 . S
C719 C718 1.373 . S
C719 C720 1.409 1_655 S
C719 H746 0.931 . S
C720 C715 1.356 . S
C720 C719 1.409 1_455 S
C720 H747 0.939 . S
C721 O734 1.270 . S
C721 O735 1.248 . S
C722 O736 1.267 . S
C722 O737 1.278 1_655 S
C723 Pr713 2.880 . S
C723 C724 1.491 . S
C723 O738 1.254 . S
C723 O739 1.225 . S
C724 C723 1.491 . S
C724 C725 1.392 . S
C724 C729 1.356 . S
C725 C724 1.392 . S
C725 C726 1.368 . S
C725 H748 0.929 . S
C726 C725 1.368 . S
C726 C727 1.386 . S
C726 H749 0.929 . S
C727 C726 1.386 . S
C727 C728 1.373 . S
C728 C727 1.373 . S
C728 C729 1.409 . S
C728 H750 0.931 . S
C729 C724 1.356 . S
C729 C728 1.409 . S
C729 H751 0.930 . S
C730 O740 1.270 . S
C730 O741 1.248 . S
C731 O742 1.267 . S
C731 O743 1.278 . S
O732 Pr712 2.562 . S
O732 C714 1.254 . S
O733 Pr712 2.490 . S
O733 C714 1.225 . S
O734 Pr712 2.695 . S
O734 Pr713 2.436 . S
O734 C721 1.270 . S
O735 Pr712 2.512 . S
O735 C721 1.248 . S
O736 Pr713 2.438 1_655 S
O736 C722 1.267 . S
O737 Pr712 2.437 . S
O737 C722 1.278 1_455 S
O738 Pr713 2.562 . S
O738 C723 1.254 . S
O739 Pr713 2.490 . S
O739 C723 1.225 . S
O740 Pr712 2.436 . S
O740 Pr713 2.695 . S
O740 C730 1.270 . S
O741 Pr713 2.512 . S
O741 C730 1.248 . S
O742 Pr712 2.438 . S
O742 C731 1.267 . S
O743 Pr713 2.437 . S
O743 C731 1.278 . S
H744 C716 0.929 . S
H745 C717 0.929 . S
H746 C719 0.931 . S
H747 C720 0.939 . S
H748 C725 0.929 . S
H749 C726 0.929 . S
H750 C728 0.931 . S
H751 C729 0.930 . S
Pr752 C754 2.880 . S
Pr752 O772 2.562 . S
Pr752 O773 2.490 . S
Pr752 O774 2.695 . S
Pr752 O775 2.512 . S
Pr752 O777 2.437 . S
Pr752 O780 2.436 . S
Pr752 O782 2.438 . S
Pr753 C763 2.880 . S
Pr753 O774 2.436 . S
Pr753 O776 2.438 . S
Pr753 O778 2.562 . S
Pr753 O779 2.490 . S
Pr753 O780 2.695 . S
Pr753 O781 2.512 . S
Pr753 O783 2.437 . S
C754 Pr752 2.880 . S
C754 C755 1.491 . S
C754 O772 1.254 . S
C754 O773 1.225 . S
C755 C754 1.491 . S
C755 C756 1.392 . S
C755 C760 1.356 . S
C756 C755 1.392 . S
C756 C757 1.368 . S
C756 H784 0.929 . S
C757 C756 1.368 . S
C757 C758 1.386 . S
C757 H785 0.929 . S
C758 C757 1.386 . S
C758 C759 1.373 . S
C759 C758 1.373 . S
C759 C760 1.409 . S
C759 H786 0.931 . S
C760 C755 1.356 . S
C760 C759 1.409 . S
C760 H787 0.930 . S
C761 O774 1.270 . S
C761 O775 1.248 . S
C762 O776 1.267 . S
C762 O777 1.278 . S
C763 Pr753 2.880 . S
C763 C764 1.491 . S
C763 O778 1.254 . S
C763 O779 1.225 . S
C764 C763 1.491 . S
C764 C765 1.392 . S
C764 C769 1.356 . S
C765 C764 1.392 . S
C765 C766 1.368 . S
C765 H788 0.929 . S
C766 C765 1.368 . S
C766 C767 1.386 . S
C766 H789 0.929 . S
C767 C766 1.386 . S
C767 C768 1.373 . S
C768 C767 1.373 . S
C768 C769 1.409 . S
C768 H790 0.931 . S
C769 C764 1.356 . S
C769 C768 1.409 . S
C769 H791 0.930 . S
C770 O780 1.270 . S
C770 O781 1.248 . S
C771 O782 1.267 . S
C771 O783 1.278 . S
O772 Pr752 2.562 . S
O772 C754 1.254 . S
O773 Pr752 2.490 . S
O773 C754 1.225 . S
O774 Pr752 2.695 . S
O774 Pr753 2.436 . S
O774 C761 1.270 . S
O775 Pr752 2.512 . S
O775 C761 1.248 . S
O776 Pr753 2.438 . S
O776 C762 1.267 . S
O777 Pr752 2.437 . S
O777 C762 1.278 . S
O778 Pr753 2.562 . S
O778 C763 1.254 . S
O779 Pr753 2.490 . S
O779 C763 1.225 . S
O780 Pr752 2.436 . S
O780 Pr753 2.695 . S
O780 C770 1.270 . S
O781 Pr753 2.512 . S
O781 C770 1.248 . S
O782 Pr752 2.438 . S
O782 C771 1.267 . S
O783 Pr753 2.437 . S
O783 C771 1.278 . S
H784 C756 0.929 . S
H785 C757 0.929 . S
H786 C759 0.931 . S
H787 C760 0.930 . S
H788 C765 0.929 . S
H789 C766 0.929 . S
H790 C768 0.931 . S
H791 C769 0.930 . S
Pr792 C794 2.880 . S
Pr792 O812 2.562 . S
Pr792 O813 2.490 . S
Pr792 O814 2.695 . S
Pr792 O815 2.512 . S
Pr792 O817 2.437 . S
Pr792 O820 2.436 . S
Pr792 O822 2.438 . S
Pr793 C803 2.880 . S
Pr793 O814 2.436 . S
Pr793 O816 2.438 . S
Pr793 O818 2.562 . S
Pr793 O819 2.490 . S
Pr793 O820 2.695 . S
Pr793 O821 2.512 . S
Pr793 O823 2.437 . S
C794 Pr792 2.880 . S
C794 C795 1.491 . S
C794 O812 1.254 . S
C794 O813 1.225 . S
C795 C794 1.491 . S
C795 C796 1.392 . S
C795 C800 1.356 . S
C796 C795 1.392 . S
C796 C797 1.368 . S
C796 H824 0.929 . S
C797 C796 1.368 . S
C797 C798 1.386 . S
C797 H825 0.929 . S
C798 C797 1.386 . S
C798 C799 1.373 . S
C799 C798 1.373 . S
C799 C800 1.409 . S
C799 H826 0.931 . S
C800 C795 1.356 . S
C800 C799 1.409 . S
C800 H827 0.930 . S
C801 O814 1.270 . S
C801 O815 1.248 . S
C802 O816 1.267 . S
C802 O817 1.278 . S
C803 Pr793 2.880 . S
C803 C804 1.491 . S
C803 O818 1.254 . S
C803 O819 1.225 . S
C804 C803 1.491 . S
C804 C805 1.392 . S
C804 C809 1.356 . S
C805 C804 1.392 . S
C805 C806 1.368 . S
C805 H828 0.929 . S
C806 C805 1.368 . S
C806 C807 1.386 . S
C806 H829 0.929 . S
C807 C806 1.386 . S
C807 C808 1.373 . S
C808 C807 1.373 . S
C808 C809 1.409 . S
C808 H830 0.931 . S
C809 C804 1.356 . S
C809 C808 1.409 . S
C809 H831 0.930 . S
C810 O820 1.270 . S
C810 O821 1.248 . S
C811 O822 1.267 . S
C811 O823 1.278 . S
O812 Pr792 2.562 . S
O812 C794 1.254 . S
O813 Pr792 2.490 . S
O813 C794 1.225 . S
O814 Pr792 2.695 . S
O814 Pr793 2.436 . S
O814 C801 1.270 . S
O815 Pr792 2.512 . S
O815 C801 1.248 . S
O816 Pr793 2.438 . S
O816 C802 1.267 . S
O817 Pr792 2.437 . S
O817 C802 1.278 . S
O818 Pr793 2.562 . S
O818 C803 1.254 . S
O819 Pr793 2.490 . S
O819 C803 1.225 . S
O820 Pr792 2.436 . S
O820 Pr793 2.695 . S
O820 C810 1.270 . S
O821 Pr793 2.512 . S
O821 C810 1.248 . S
O822 Pr792 2.438 . S
O822 C811 1.267 . S
O823 Pr793 2.437 . S
O823 C811 1.278 . S
H824 C796 0.929 . S
H825 C797 0.929 . S
H826 C799 0.931 . S
H827 C800 0.930 . S
H828 C805 0.929 . S
H829 C806 0.929 . S
H830 C808 0.931 . S
H831 C809 0.930 . S
Pr832 C834 2.880 . S
Pr832 O852 2.562 . S
Pr832 O853 2.490 . S
Pr832 O854 2.695 . S
Pr832 O855 2.512 . S
Pr832 O857 2.437 . S
Pr832 O860 2.436 . S
Pr832 O862 2.438 . S
Pr833 C843 2.880 . S
Pr833 O854 2.436 . S
Pr833 O856 2.438 . S
Pr833 O858 2.562 . S
Pr833 O859 2.490 . S
Pr833 O860 2.695 . S
Pr833 O861 2.512 . S
Pr833 O863 2.437 . S
C834 Pr832 2.880 . S
C834 C835 1.491 . S
C834 O852 1.254 . S
C834 O853 1.225 . S
C835 C834 1.491 . S
C835 C836 1.392 . S
C835 C840 1.356 . S
C836 C835 1.392 . S
C836 C837 1.368 . S
C836 H864 0.929 . S
C837 C836 1.368 . S
C837 C838 1.386 . S
C837 H865 0.929 . S
C838 C837 1.386 . S
C838 C839 1.373 . S
C839 C838 1.373 . S
C839 C840 1.409 . S
C839 H866 0.931 . S
C840 C835 1.356 . S
C840 C839 1.409 . S
C840 H867 0.930 . S
C841 O854 1.270 . S
C841 O855 1.248 . S
C842 O856 1.267 . S
C842 O857 1.278 . S
C843 Pr833 2.880 . S
C843 C844 1.491 . S
C843 O858 1.254 . S
C843 O859 1.225 . S
C844 C843 1.491 . S
C844 C845 1.392 . S
C844 C849 1.356 . S
C845 C844 1.392 . S
C845 C846 1.368 . S
C845 H868 0.929 . S
C846 C845 1.368 . S
C846 C847 1.386 . S
C846 H869 0.929 . S
C847 C846 1.386 . S
C847 C848 1.373 . S
C848 C847 1.373 . S
C848 C849 1.409 . S
C848 H870 0.931 . S
C849 C844 1.356 . S
C849 C848 1.409 . S
C849 H871 0.930 . S
C850 O860 1.270 . S
C850 O861 1.248 . S
C851 O862 1.267 . S
C851 O863 1.278 . S
O852 Pr832 2.562 . S
O852 C834 1.254 . S
O853 Pr832 2.490 . S
O853 C834 1.225 . S
O854 Pr832 2.695 . S
O854 Pr833 2.436 . S
O854 C841 1.270 . S
O855 Pr832 2.512 . S
O855 C841 1.248 . S
O856 Pr833 2.438 . S
O856 C842 1.267 . S
O857 Pr832 2.437 . S
O857 C842 1.278 . S
O858 Pr833 2.562 . S
O858 C843 1.254 . S
O859 Pr833 2.490 . S
O859 C843 1.225 . S
O860 Pr832 2.436 . S
O860 Pr833 2.695 . S
O860 C850 1.270 . S
O861 Pr833 2.512 . S
O861 C850 1.248 . S
O862 Pr832 2.438 . S
O862 C851 1.267 . S
O863 Pr833 2.437 . S
O863 C851 1.278 . S
H864 C836 0.929 . S
H865 C837 0.929 . S
H866 C839 0.931 . S
H867 C840 0.930 . S
H868 C845 0.929 . S
H869 C846 0.929 . S
H870 C848 0.931 . S
H871 C849 0.930 . S
Pr872 C874 2.880 . S
Pr872 O892 2.562 . S
Pr872 O893 2.490 . S
Pr872 O894 2.695 . S
Pr872 O895 2.512 . S
Pr872 O897 2.437 . S
Pr872 O900 2.436 . S
Pr872 O902 2.438 . S
Pr873 C883 2.880 . S
Pr873 O894 2.436 . S
Pr873 O896 2.438 . S
Pr873 O898 2.562 . S
Pr873 O899 2.490 . S
Pr873 O900 2.695 . S
Pr873 O901 2.512 . S
Pr873 O903 2.437 . S
C874 Pr872 2.880 . S
C874 C875 1.491 . S
C874 O892 1.254 . S
C874 O893 1.225 . S
C875 C874 1.491 . S
C875 C876 1.392 . S
C875 C880 1.356 . S
C876 C875 1.392 . S
C876 C877 1.368 . S
C876 H904 0.929 . S
C877 C876 1.368 . S
C877 C878 1.386 . S
C877 H905 0.929 . S
C878 C877 1.386 . S
C878 C879 1.373 . S
C879 C878 1.373 . S
C879 C880 1.409 . S
C879 H906 0.931 . S
C880 C875 1.356 . S
C880 C879 1.409 . S
C880 H907 0.930 . S
C881 O894 1.270 . S
C881 O895 1.248 . S
C882 O896 1.267 . S
C882 O897 1.278 . S
C883 Pr873 2.880 . S
C883 C884 1.491 . S
C883 O898 1.254 . S
C883 O899 1.225 . S
C884 C883 1.491 . S
C884 C885 1.392 . S
C884 C889 1.356 . S
C885 C884 1.392 . S
C885 C886 1.368 . S
C885 H908 0.929 . S
C886 C885 1.368 . S
C886 C887 1.386 . S
C886 H909 0.929 . S
C887 C886 1.386 . S
C887 C888 1.373 . S
C888 C887 1.373 . S
C888 C889 1.409 . S
C888 H910 0.931 . S
C889 C884 1.356 . S
C889 C888 1.409 . S
C889 H911 0.930 . S
C890 O900 1.270 . S
C890 O901 1.248 . S
C891 O902 1.267 . S
C891 O903 1.278 . S
O892 Pr872 2.562 . S
O892 C874 1.254 . S
O893 Pr872 2.490 . S
O893 C874 1.225 . S
O894 Pr872 2.695 . S
O894 Pr873 2.436 . S
O894 C881 1.270 . S
O895 Pr872 2.512 . S
O895 C881 1.248 . S
O896 Pr873 2.438 . S
O896 C882 1.267 . S
O897 Pr872 2.437 . S
O897 C882 1.278 . S
O898 Pr873 2.562 . S
O898 C883 1.254 . S
O899 Pr873 2.490 . S
O899 C883 1.225 . S
O900 Pr872 2.436 . S
O900 Pr873 2.695 . S
O900 C890 1.270 . S
O901 Pr873 2.512 . S
O901 C890 1.248 . S
O902 Pr872 2.438 . S
O902 C891 1.267 . S
O903 Pr873 2.437 . S
O903 C891 1.278 . S
H904 C876 0.929 . S
H905 C877 0.929 . S
H906 C879 0.931 . S
H907 C880 0.930 . S
H908 C885 0.929 . S
H909 C886 0.929 . S
H910 C888 0.931 . S
H911 C889 0.930 . S
Pr912 C914 2.880 . S
Pr912 O932 2.562 . S
Pr912 O933 2.490 . S
Pr912 O934 2.695 . S
Pr912 O935 2.512 1_554 S
Pr912 O937 2.437 . S
Pr912 O940 2.436 . S
Pr912 O942 2.438 . S
Pr913 C923 2.880 1_455 S
Pr913 O934 2.436 . S
Pr913 O936 2.438 . S
Pr913 O938 2.562 1_455 S
Pr913 O939 2.490 1_455 S
Pr913 O940 2.695 . S
Pr913 O941 2.512 . S
Pr913 O943 2.437 . S
C914 Pr912 2.880 . S
C914 C915 1.491 . S
C914 O932 1.254 . S
C914 O933 1.225 . S
C915 C914 1.491 . S
C915 C916 1.392 . S
C915 C920 1.356 . S
C916 C915 1.392 . S
C916 C917 1.368 1_554 S
C916 H944 0.929 1_554 S
C917 C916 1.368 1_556 S
C917 C918 1.386 1_556 S
C917 H945 0.929 . S
C918 C917 1.386 1_554 S
C918 C919 1.373 . S
C919 C918 1.373 . S
C919 C920 1.409 . S
C919 H946 0.931 . S
C920 C915 1.356 . S
C920 C919 1.409 . S
C920 H947 0.930 . S
C921 O934 1.270 . S
C921 O935 1.248 1_554 S
C922 O936 1.267 . S
C922 O937 1.278 . S
C923 Pr913 2.880 1_655 S
C923 C924 1.491 . S
C923 O938 1.254 . S
C923 O939 1.225 . S
C924 C923 1.491 . S
C924 C925 1.392 . S
C924 C929 1.356 . S
C925 C924 1.392 . S
C925 C926 1.368 . S
C925 H948 0.929 . S
C926 C925 1.368 . S
C926 C927 1.386 . S
C926 H949 0.929 . S
C927 C926 1.386 . S
C927 C928 1.373 . S
C928 C927 1.373 . S
C928 C929 1.409 . S
C928 H950 0.931 . S
C929 C924 1.356 . S
C929 C928 1.409 . S
C929 H951 0.930 . S
C930 O940 1.270 . S
C930 O941 1.248 . S
C931 O942 1.267 . S
C931 O943 1.278 . S
O932 Pr912 2.562 . S
O932 C914 1.254 . S
O933 Pr912 2.490 . S
O933 C914 1.225 . S
O934 Pr912 2.695 . S
O934 Pr913 2.436 . S
O934 C921 1.270 . S
O935 Pr912 2.512 1_556 S
O935 C921 1.248 1_556 S
O936 Pr913 2.438 . S
O936 C922 1.267 . S
O937 Pr912 2.437 . S
O937 C922 1.278 . S
O938 Pr913 2.562 1_655 S
O938 C923 1.254 . S
O939 Pr913 2.490 1_655 S
O939 C923 1.225 . S
O940 Pr912 2.436 . S
O940 Pr913 2.695 . S
O940 C930 1.270 . S
O941 Pr913 2.512 . S
O941 C930 1.248 . S
O942 Pr912 2.438 . S
O942 C931 1.267 . S
O943 Pr913 2.437 . S
O943 C931 1.278 . S
H944 C916 0.929 1_556 S
H945 C917 0.929 . S
H946 C919 0.931 . S
H947 C920 0.930 . S
H948 C925 0.929 . S
H949 C926 0.929 . S
H950 C928 0.931 . S
H951 C929 0.930 . S
C952 C953 1.349 . S
C952 C954 1.327 . S
C952 H977 0.950 . S
C953 C952 1.349 . S
C953 C969 1.349 . S
C954 C952 1.327 . S
C954 C973 1.429 . S
C954 H978 0.950 . S
C955 C972 1.574 . S
C955 C974 1.368 . S
C955 H979 0.949 . S
H956 C960 0.949 . S
C957 C958 1.349 . S
C957 C959 1.366 . S
C957 H980 0.950 . S
C958 C957 1.349 . S
C958 C970 1.349 . S
C959 C957 1.366 . S
C959 C975 1.450 . S
C959 H981 0.890 1_554 S
C960 H956 0.949 . S
C960 C968 1.574 1_554 S
C960 C976 1.368 1_554 S
H961 C969 0.950 . S
H962 C967 0.950 . S
H963 C968 0.949 . S
H964 C970 0.950 . S
H965 C971 0.950 . S
H966 C972 0.949 . S
C967 H962 0.950 . S
C967 C969 1.327 . S
C967 C973 1.429 . S
C968 C960 1.574 1_556 S
C968 H963 0.949 . S
C968 C974 1.368 . S
C969 C953 1.349 . S
C969 H961 0.950 . S
C969 C967 1.327 . S
C970 C958 1.349 . S
C970 H964 0.950 . S
C970 C971 1.327 . S
C971 H965 0.950 . S
C971 C970 1.327 . S
C971 C975 1.429 . S
C972 C955 1.574 . S
C972 H966 0.949 . S
C972 C976 1.368 . S
C973 C954 1.429 . S
C973 C967 1.429 . S
C973 C974 1.523 . S
C974 C955 1.368 . S
C974 C968 1.368 . S
C974 C973 1.523 . S
C975 C959 1.450 . S
C975 C971 1.429 . S
C975 C976 1.523 1_554 S
C976 C960 1.368 1_556 S
C976 C972 1.368 . S
C976 C975 1.523 1_556 S
H977 C952 0.950 . S
H978 C954 0.950 . S
H979 C955 0.949 . S
H980 C957 0.950 . S
H981 C959 0.890 1_556 S
C982 C983 1.349 . S
C982 C984 1.327 . S
C982 H1007 0.950 . S
C983 C982 1.349 . S
C983 C999 1.349 . S
C984 C982 1.327 . S
C984 C1003 1.429 . S
C984 H1008 0.950 . S
C985 C1002 1.574 . S
C985 C1004 1.368 . S
C985 H1009 0.949 . S
H986 C990 0.949 . S
C987 C988 1.349 . S
C987 C989 1.327 . S
C987 H1010 0.950 . S
C988 C987 1.349 . S
C988 C1000 1.349 . S
C989 C987 1.327 . S
C989 C1005 1.429 . S
C989 H1011 0.950 . S
C990 H986 0.949 . S
C990 C998 1.574 . S
C990 C1006 1.368 . S
H991 C999 0.950 . S
H992 C997 0.950 . S
H993 C998 0.949 . S
H994 C1000 0.950 . S
H995 C1001 0.950 . S
H996 C1002 0.949 . S
C997 H992 0.950 . S
C997 C999 1.327 . S
C997 C1003 1.429 . S
C998 C990 1.574 . S
C998 H993 0.949 . S
C998 C1004 1.368 . S
C999 C983 1.349 . S
C999 H991 0.950 . S
C999 C997 1.327 . S
C1000 C988 1.349 . S
C1000 H994 0.950 . S
C1000 C1001 1.327 . S
C1001 H995 0.950 . S
C1001 C1000 1.327 . S
C1001 C1005 1.429 . S
C1002 C985 1.574 . S
C1002 H996 0.949 . S
C1002 C1006 1.368 . S
C1003 C984 1.429 . S
C1003 C997 1.429 . S
C1003 C1004 1.523 . S
C1004 C985 1.368 . S
C1004 C998 1.368 . S
C1004 C1003 1.523 . S
C1005 C989 1.429 . S
C1005 C1001 1.429 . S
C1005 C1006 1.523 . S
C1006 C990 1.368 . S
C1006 C1002 1.368 . S
C1006 C1005 1.523 . S
H1007 C982 0.950 . S
H1008 C984 0.950 . S
H1009 C985 0.949 . S
H1010 C987 0.950 . S
H1011 C989 0.950 . S
C1012 C1013 1.349 . S
C1012 C1014 1.327 . S
C1012 H1037 0.950 . S
C1013 C1012 1.349 . S
C1013 C1029 1.349 . S
C1014 C1012 1.327 . S
C1014 C1033 1.429 . S
C1014 H1038 0.950 . S
C1015 C1032 1.574 . S
C1015 C1034 1.368 . S
C1015 H1039 0.949 . S
H1016 C1020 0.949 . S
C1017 C1018 1.349 . S
C1017 C1019 1.327 . S
C1017 H1040 0.950 1_565 S
C1018 C1017 1.349 . S
C1018 C1030 1.349 . S
C1019 C1017 1.327 . S
C1019 C1035 1.429 . S
C1019 H1041 0.950 . S
C1020 H1016 0.949 . S
C1020 C1028 1.574 . S
C1020 C1036 1.368 . S
H1021 C1029 0.950 . S
H1022 C1027 0.950 . S
H1023 C1028 0.949 . S
H1024 C1030 0.950 . S
H1025 C1031 0.950 . S
H1026 C1032 0.949 . S
C1027 H1022 0.950 . S
C1027 C1029 1.327 . S
C1027 C1033 1.429 . S
C1028 C1020 1.574 . S
C1028 H1023 0.949 . S
C1028 C1034 1.368 . S
C1029 C1013 1.349 . S
C1029 H1021 0.950 . S
C1029 C1027 1.327 . S
C1030 C1018 1.349 . S
C1030 H1024 0.950 . S
C1030 C1031 1.327 . S
C1031 H1025 0.950 . S
C1031 C1030 1.327 . S
C1031 C1035 1.429 . S
C1032 C1015 1.574 . S
C1032 H1026 0.949 . S
C1032 C1036 1.368 . S
C1033 C1014 1.429 . S
C1033 C1027 1.429 . S
C1033 C1034 1.523 . S
C1034 C1015 1.368 . S
C1034 C1028 1.368 . S
C1034 C1033 1.523 . S
C1035 C1019 1.429 . S
C1035 C1031 1.429 . S
C1035 C1036 1.523 . S
C1036 C1020 1.368 . S
C1036 C1032 1.368 . S
C1036 C1035 1.523 . S
H1037 C1012 0.950 . S
H1038 C1014 0.950 . S
H1039 C1015 0.949 . S
H1040 C1017 0.950 1_545 S
H1041 C1019 0.950 . S
C1042 C1043 1.349 . S
C1042 C1044 1.327 . S
C1042 H1067 0.950 . S
C1043 C1042 1.349 . S
C1043 C1059 1.349 . S
C1044 C1042 1.327 . S
C1044 C1063 1.429 . S
C1044 H1068 0.950 . S
C1045 C1062 1.574 . S
C1045 C1064 1.368 . S
C1045 H1069 0.949 . S
H1046 C1050 0.949 . S
C1047 C1048 1.349 . S
C1047 C1049 1.327 . S
C1047 H1070 0.950 . S
C1048 C1047 1.349 . S
C1048 C1060 1.349 . S
C1049 C1047 1.327 . S
C1049 C1065 1.429 . S
C1049 H1071 0.950 . S
C1050 H1046 0.949 . S
C1050 C1058 1.574 . S
C1050 C1066 1.368 . S
H1051 C1059 0.950 . S
H1052 C1057 0.950 . S
H1053 C1058 0.949 . S
H1054 C1060 0.950 . S
H1055 C1061 0.950 . S
H1056 C1062 0.949 . S
C1057 H1052 0.950 . S
C1057 C1059 1.327 . S
C1057 C1063 1.429 . S
C1058 C1050 1.574 . S
C1058 H1053 0.949 . S
C1058 C1064 1.368 . S
C1059 C1043 1.349 . S
C1059 H1051 0.950 . S
C1059 C1057 1.327 . S
C1060 C1048 1.349 . S
C1060 H1054 0.950 . S
C1060 C1061 1.327 . S
C1061 H1055 0.950 . S
C1061 C1060 1.327 . S
C1061 C1065 1.429 . S
C1062 C1045 1.574 . S
C1062 H1056 0.949 . S
C1062 C1066 1.368 . S
C1063 C1044 1.429 . S
C1063 C1057 1.429 . S
C1063 C1064 1.523 . S
C1064 C1045 1.368 . S
C1064 C1058 1.368 . S
C1064 C1063 1.523 . S
C1065 C1049 1.429 . S
C1065 C1061 1.429 . S
C1065 C1066 1.523 . S
C1066 C1050 1.368 . S
C1066 C1062 1.368 . S
C1066 C1065 1.523 . S
H1067 C1042 0.950 . S
H1068 C1044 0.950 . S
H1069 C1045 0.949 . S
H1070 C1047 0.950 . S
H1071 C1049 0.950 . S
C1072 C1073 1.349 . S
C1072 C1074 1.327 . S
C1072 H1097 0.950 . S
C1073 C1072 1.349 . S
C1073 C1089 1.349 . S
C1074 C1072 1.327 . S
C1074 C1093 1.429 . S
C1074 H1098 0.950 . S
C1075 C1092 1.574 . S
C1075 C1094 1.368 . S
C1075 H1099 0.949 . S
H1076 C1080 0.949 . S
C1077 C1078 1.349 1_545 S
C1077 C1079 1.320 1_545 S
C1077 H1100 0.957 . S
C1078 C1077 1.349 1_565 S
C1078 C1090 1.349 . S
C1079 C1077 1.320 1_565 S
C1079 C1095 1.429 . S
C1079 H1101 0.950 . S
C1080 H1076 0.949 . S
C1080 C1088 1.574 . S
C1080 C1096 1.368 . S
H1081 C1089 0.950 . S
H1082 C1087 0.950 . S
H1083 C1088 0.949 . S
H1084 C1090 0.950 . S
H1085 C1091 0.950 . S
H1086 C1092 0.949 . S
C1087 H1082 0.950 . S
C1087 C1089 1.327 . S
C1087 C1093 1.429 . S
C1088 C1080 1.574 . S
C1088 H1083 0.949 . S
C1088 C1094 1.368 . S
C1089 C1073 1.349 . S
C1089 H1081 0.950 . S
C1089 C1087 1.327 . S
C1090 C1078 1.349 . S
C1090 H1084 0.950 . S
C1090 C1091 1.327 . S
C1091 H1085 0.950 . S
C1091 C1090 1.327 . S
C1091 C1095 1.429 . S
C1092 C1075 1.574 . S
C1092 H1086 0.949 . S
C1092 C1096 1.368 . S
C1093 C1074 1.429 . S
C1093 C1087 1.429 . S
C1093 C1094 1.523 . S
C1094 C1075 1.368 . S
C1094 C1088 1.368 . S
C1094 C1093 1.523 . S
C1095 C1079 1.429 . S
C1095 C1091 1.429 . S
C1095 C1096 1.523 . S
C1096 C1080 1.368 . S
C1096 C1092 1.368 . S
C1096 C1095 1.523 . S
H1097 C1072 0.950 . S
H1098 C1074 0.950 . S
H1099 C1075 0.949 . S
H1100 C1077 0.957 . S
H1101 C1079 0.950 . S
C1102 C1103 1.349 . S
C1102 C1104 1.327 . S
C1102 H1127 0.950 . S
C1103 C1102 1.349 . S
C1103 C1119 1.349 . S
C1104 C1102 1.327 . S
C1104 C1123 1.429 . S
C1104 H1128 0.950 . S
C1105 C1122 1.574 . S
C1105 C1124 1.368 . S
C1105 H1129 0.949 . S
H1106 C1110 0.949 . S
C1107 C1108 1.349 . S
C1107 C1109 1.327 . S
C1107 H1130 0.950 . S
C1108 C1107 1.349 . S
C1108 C1120 1.349 . S
C1109 C1107 1.327 . S
C1109 C1125 1.429 . S
C1109 H1131 0.950 . S
C1110 H1106 0.949 . S
C1110 C1118 1.574 . S
C1110 C1126 1.368 . S
H1111 C1119 0.950 . S
H1112 C1117 0.950 . S
H1113 C1118 0.949 . S
H1114 C1120 0.950 . S
H1115 C1121 0.950 . S
H1116 C1122 0.949 . S
C1117 H1112 0.950 . S
C1117 C1119 1.327 . S
C1117 C1123 1.429 . S
C1118 C1110 1.574 . S
C1118 H1113 0.949 . S
C1118 C1124 1.368 . S
C1119 C1103 1.349 . S
C1119 H1111 0.950 . S
C1119 C1117 1.327 . S
C1120 C1108 1.349 . S
C1120 H1114 0.950 . S
C1120 C1121 1.327 . S
C1121 H1115 0.950 . S
C1121 C1120 1.327 . S
C1121 C1125 1.429 . S
C1122 C1105 1.574 . S
C1122 H1116 0.949 . S
C1122 C1126 1.368 . S
C1123 C1104 1.429 . S
C1123 C1117 1.429 . S
C1123 C1124 1.523 . S
C1124 C1105 1.368 . S
C1124 C1118 1.368 . S
C1124 C1123 1.523 . S
C1125 C1109 1.429 . S
C1125 C1121 1.429 . S
C1125 C1126 1.523 . S
C1126 C1110 1.368 . S
C1126 C1122 1.368 . S
C1126 C1125 1.523 . S
H1127 C1102 0.950 . S
H1128 C1104 0.950 . S
H1129 C1105 0.949 . S
H1130 C1107 0.950 . S
H1131 C1109 0.950 . S
C1132 C1133 1.349 . S
C1132 C1134 1.327 . S
C1132 H1157 0.950 . S
C1133 C1132 1.349 . S
C1133 C1149 1.349 . S
C1134 C1132 1.327 . S
C1134 C1153 1.429 . S
C1134 H1158 0.950 . S
C1135 C1152 1.574 . S
C1135 C1154 1.368 . S
C1135 H1159 0.949 . S
H1136 C1140 0.949 . S
C1137 C1138 1.349 . S
C1137 C1139 1.327 . S
C1137 H1160 0.950 . S
C1138 C1137 1.349 . S
C1138 C1150 1.349 . S
C1139 C1137 1.327 . S
C1139 C1155 1.429 . S
C1139 H1161 0.950 . S
C1140 H1136 0.949 . S
C1140 C1148 1.574 . S
C1140 C1156 1.368 . S
H1141 C1149 0.950 . S
H1142 C1147 0.950 . S
H1143 C1148 0.949 . S
H1144 C1150 0.950 . S
H1145 C1151 0.950 . S
H1146 C1152 0.949 . S
C1147 H1142 0.950 . S
C1147 C1149 1.327 . S
C1147 C1153 1.429 . S
C1148 C1140 1.574 . S
C1148 H1143 0.949 . S
C1148 C1154 1.368 . S
C1149 C1133 1.349 . S
C1149 H1141 0.950 . S
C1149 C1147 1.327 . S
C1150 C1138 1.349 . S
C1150 H1144 0.950 . S
C1150 C1151 1.327 . S
C1151 H1145 0.950 . S
C1151 C1150 1.327 . S
C1151 C1155 1.429 . S
C1152 C1135 1.574 . S
C1152 H1146 0.949 . S
C1152 C1156 1.368 . S
C1153 C1134 1.429 . S
C1153 C1147 1.429 . S
C1153 C1154 1.523 . S
C1154 C1135 1.368 . S
C1154 C1148 1.368 . S
C1154 C1153 1.523 . S
C1155 C1139 1.429 . S
C1155 C1151 1.429 . S
C1155 C1156 1.523 . S
C1156 C1140 1.368 . S
C1156 C1152 1.368 . S
C1156 C1155 1.523 . S
H1157 C1132 0.950 . S
H1158 C1134 0.950 . S
H1159 C1135 0.949 . S
H1160 C1137 0.950 . S
H1161 C1139 0.950 . S
C1162 C1163 1.349 . S
C1162 C1164 1.327 . S
C1162 H1187 0.950 . S
C1163 C1162 1.349 . S
C1163 C1179 1.349 . S
C1164 C1162 1.327 . S
C1164 C1183 1.429 . S
C1164 H1188 0.950 . S
C1165 C1182 1.574 . S
C1165 C1184 1.368 . S
C1165 H1189 0.949 . S
H1166 C1170 0.949 . S
C1167 C1168 1.349 . S
C1167 C1169 1.327 . S
C1167 H1190 0.950 . S
C1168 C1167 1.349 . S
C1168 C1180 1.349 . S
C1169 C1167 1.327 . S
C1169 C1185 1.429 . S
C1169 H1191 0.950 . S
C1170 H1166 0.949 . S
C1170 C1178 1.574 . S
C1170 C1186 1.368 . S
H1171 C1179 0.950 . S
H1172 C1177 0.950 . S
H1173 C1178 0.949 . S
H1174 C1180 0.950 . S
H1175 C1181 0.950 . S
H1176 C1182 0.949 . S
C1177 H1172 0.950 . S
C1177 C1179 1.327 . S
C1177 C1183 1.429 . S
C1178 C1170 1.574 . S
C1178 H1173 0.949 . S
C1178 C1184 1.368 . S
C1179 C1163 1.349 . S
C1179 H1171 0.950 . S
C1179 C1177 1.327 . S
C1180 C1168 1.349 . S
C1180 H1174 0.950 . S
C1180 C1181 1.327 . S
C1181 H1175 0.950 . S
C1181 C1180 1.327 . S
C1181 C1185 1.429 . S
C1182 C1165 1.574 . S
C1182 H1176 0.949 . S
C1182 C1186 1.368 . S
C1183 C1164 1.429 . S
C1183 C1177 1.429 . S
C1183 C1184 1.523 . S
C1184 C1165 1.368 . S
C1184 C1178 1.368 . S
C1184 C1183 1.523 . S
C1185 C1169 1.429 . S
C1185 C1181 1.429 . S
C1185 C1186 1.523 . S
C1186 C1170 1.368 . S
C1186 C1182 1.368 . S
C1186 C1185 1.523 . S
H1187 C1162 0.950 . S
H1188 C1164 0.950 . S
H1189 C1165 0.949 . S
H1190 C1167 0.950 . S
H1191 C1169 0.950 . S
C1192 C1193 1.349 . S
C1192 C1194 1.327 . S
C1192 H1217 0.950 . S
C1193 C1192 1.349 . S
C1193 C1209 1.349 . S
C1194 C1192 1.327 . S
C1194 C1213 1.429 . S
C1194 H1218 0.950 . S
C1195 C1212 1.574 1_655 S
C1195 C1214 1.368 . S
C1195 H1219 0.949 . S
H1196 C1200 0.949 . S
C1197 C1198 1.349 . S
C1197 C1199 1.327 . S
C1197 H1220 0.950 . S
C1198 C1197 1.349 . S
C1198 C1210 1.349 . S
C1199 C1197 1.327 . S
C1199 C1215 1.429 . S
C1199 H1221 0.950 . S
C1200 H1196 0.949 . S
C1200 C1208 1.574 . S
C1200 C1216 1.368 . S
H1201 C1209 0.950 . S
H1202 C1207 0.950 . S
H1203 C1208 0.949 . S
H1204 C1210 0.950 . S
H1205 C1211 0.950 . S
H1206 C1212 0.949 . S
C1207 H1202 0.950 . S
C1207 C1209 1.327 . S
C1207 C1213 1.429 . S
C1208 C1200 1.574 . S
C1208 H1203 0.949 . S
C1208 C1214 1.368 . S
C1209 C1193 1.349 . S
C1209 H1201 0.950 . S
C1209 C1207 1.327 . S
C1210 C1198 1.349 . S
C1210 H1204 0.950 . S
C1210 C1211 1.327 . S
C1211 H1205 0.950 . S
C1211 C1210 1.327 . S
C1211 C1215 1.429 . S
C1212 C1195 1.574 1_455 S
C1212 H1206 0.949 . S
C1212 C1216 1.368 1_455 S
C1213 C1194 1.429 . S
C1213 C1207 1.429 . S
C1213 C1214 1.523 . S
C1214 C1195 1.368 . S
C1214 C1208 1.368 . S
C1214 C1213 1.523 . S
C1215 C1199 1.429 . S
C1215 C1211 1.429 . S
C1215 C1216 1.523 1_455 S
C1216 C1200 1.368 . S
C1216 C1212 1.368 1_655 S
C1216 C1215 1.523 1_655 S
H1217 C1192 0.950 . S
H1218 C1194 0.950 . S
H1219 C1195 0.949 . S
H1220 C1197 0.950 . S
H1221 C1199 0.950 . S
C1222 C1223 1.349 . S
C1222 C1224 1.327 . S
C1222 H1247 0.950 . S
C1223 C1222 1.349 . S
C1223 C1239 1.349 . S
C1224 C1222 1.327 . S
C1224 C1243 1.429 . S
C1224 H1248 0.950 . S
C1225 C1242 1.574 . S
C1225 C1244 1.368 . S
C1225 H1249 0.949 . S
H1226 C1230 0.949 . S
C1227 C1228 1.349 . S
C1227 C1229 1.327 . S
C1227 H1250 0.950 . S
C1228 C1227 1.349 . S
C1228 C1240 1.349 . S
C1229 C1227 1.327 . S
C1229 C1245 1.429 . S
C1229 H1251 0.950 . S
C1230 H1226 0.949 . S
C1230 C1238 1.574 . S
C1230 C1246 1.368 . S
H1231 C1239 0.950 . S
H1232 C1237 0.950 . S
H1233 C1238 0.949 . S
H1234 C1240 0.950 . S
H1235 C1241 0.950 . S
H1236 C1242 0.949 . S
C1237 H1232 0.950 . S
C1237 C1239 1.327 . S
C1237 C1243 1.429 . S
C1238 C1230 1.574 . S
C1238 H1233 0.949 . S
C1238 C1244 1.368 . S
C1239 C1223 1.349 . S
C1239 H1231 0.950 . S
C1239 C1237 1.327 . S
C1240 C1228 1.349 . S
C1240 H1234 0.950 . S
C1240 C1241 1.327 . S
C1241 H1235 0.950 . S
C1241 C1240 1.327 . S
C1241 C1245 1.429 . S
C1242 C1225 1.574 . S
C1242 H1236 0.949 . S
C1242 C1246 1.368 . S
C1243 C1224 1.429 . S
C1243 C1237 1.429 . S
C1243 C1244 1.523 . S
C1244 C1225 1.368 . S
C1244 C1238 1.368 . S
C1244 C1243 1.523 . S
C1245 C1229 1.429 . S
C1245 C1241 1.429 . S
C1245 C1246 1.523 . S
C1246 C1230 1.368 . S
C1246 C1242 1.368 . S
C1246 C1245 1.523 . S
H1247 C1222 0.950 . S
H1248 C1224 0.950 . S
H1249 C1225 0.949 . S
H1250 C1227 0.950 . S
H1251 C1229 0.950 . S
C1252 C1253 1.349 . S
C1252 C1254 1.327 . S
C1252 H1277 0.950 . S
C1253 C1252 1.349 . S
C1253 C1269 1.366 . S
C1254 C1252 1.327 . S
C1254 C1273 1.429 1_565 S
C1254 H1278 0.950 . S
C1255 C1272 1.574 . S
C1255 C1274 1.368 . S
C1255 H1279 0.949 . S
H1256 C1260 0.949 . S
C1257 C1258 1.349 . S
C1257 C1259 1.327 . S
C1257 H1280 0.950 . S
C1258 C1257 1.349 . S
C1258 C1270 1.349 . S
C1259 C1257 1.327 . S
C1259 C1275 1.429 . S
C1259 H1281 0.950 . S
C1260 H1256 0.949 . S
C1260 C1268 1.574 . S
C1260 C1276 1.368 . S
H1261 C1269 0.959 1_545 S
H1262 C1267 0.950 . S
H1263 C1268 0.949 . S
H1264 C1270 0.950 . S
H1265 C1271 0.950 . S
H1266 C1272 0.949 . S
C1267 H1262 0.950 . S
C1267 C1269 1.304 1_545 S
C1267 C1273 1.429 . S
C1268 C1260 1.574 . S
C1268 H1263 0.949 . S
C1268 C1274 1.368 . S
C1269 C1253 1.366 . S
C1269 H1261 0.959 1_565 S
C1269 C1267 1.304 1_565 S
C1270 C1258 1.349 . S
C1270 H1264 0.950 . S
C1270 C1271 1.327 . S
C1271 H1265 0.950 . S
C1271 C1270 1.327 . S
C1271 C1275 1.429 . S
C1272 C1255 1.574 . S
C1272 H1266 0.949 . S
C1272 C1276 1.368 . S
C1273 C1254 1.429 1_545 S
C1273 C1267 1.429 . S
C1273 C1274 1.523 . S
C1274 C1255 1.368 . S
C1274 C1268 1.368 . S
C1274 C1273 1.523 . S
C1275 C1259 1.429 . S
C1275 C1271 1.429 . S
C1275 C1276 1.523 . S
C1276 C1260 1.368 . S
C1276 C1272 1.368 . S
C1276 C1275 1.523 . S
H1277 C1252 0.950 . S
H1278 C1254 0.950 . S
H1279 C1255 0.949 . S
H1280 C1257 0.950 . S
H1281 C1259 0.950 . S
C1282 C1283 1.349 . S
C1282 C1284 1.327 . S
C1282 H1307 0.950 . S
C1283 C1282 1.349 . S
C1283 C1299 1.349 . S
C1284 C1282 1.327 . S
C1284 C1303 1.429 . S
C1284 H1308 0.950 . S
C1285 C1302 1.574 . S
C1285 C1304 1.368 . S
C1285 H1309 0.949 . S
H1286 C1290 0.949 . S
C1287 C1288 1.349 . S
C1287 C1289 1.327 . S
C1287 H1310 0.950 . S
C1288 C1287 1.349 . S
C1288 C1300 1.349 . S
C1289 C1287 1.327 . S
C1289 C1305 1.429 . S
C1289 H1311 0.950 . S
C1290 H1286 0.949 . S
C1290 C1298 1.574 . S
C1290 C1306 1.368 . S
H1291 C1299 0.950 . S
H1292 C1297 0.950 . S
H1293 C1298 0.949 . S
H1294 C1300 0.950 . S
H1295 C1301 0.950 . S
H1296 C1302 0.949 . S
C1297 H1292 0.950 . S
C1297 C1299 1.327 . S
C1297 C1303 1.429 . S
C1298 C1290 1.574 . S
C1298 H1293 0.949 . S
C1298 C1304 1.368 . S
C1299 C1283 1.349 . S
C1299 H1291 0.950 . S
C1299 C1297 1.327 . S
C1300 C1288 1.349 . S
C1300 H1294 0.950 . S
C1300 C1301 1.327 . S
C1301 H1295 0.950 . S
C1301 C1300 1.327 . S
C1301 C1305 1.429 . S
C1302 C1285 1.574 . S
C1302 H1296 0.949 . S
C1302 C1306 1.368 . S
C1303 C1284 1.429 . S
C1303 C1297 1.429 . S
C1303 C1304 1.523 . S
C1304 C1285 1.368 . S
C1304 C1298 1.368 . S
C1304 C1303 1.523 . S
C1305 C1289 1.429 . S
C1305 C1301 1.429 . S
C1305 C1306 1.523 . S
C1306 C1290 1.368 . S
C1306 C1302 1.368 . S
C1306 C1305 1.523 . S
H1307 C1282 0.950 . S
H1308 C1284 0.950 . S
H1309 C1285 0.949 . S
H1310 C1287 0.950 . S
H1311 C1289 0.950 . S
C1312 C1313 1.349 . S
C1312 C1314 1.327 . S
C1312 H1337 0.950 . S
C1313 C1312 1.349 . S
C1313 C1329 1.349 . S
C1314 C1312 1.327 . S
C1314 C1333 1.429 . S
C1314 H1338 0.950 . S
C1315 C1332 1.574 . S
C1315 C1334 1.368 . S
C1315 H1339 0.949 . S
H1316 C1320 0.949 . S
C1317 C1318 1.349 . S
C1317 C1319 1.327 1_455 S
C1317 H1340 0.950 . S
C1318 C1317 1.349 . S
C1318 C1330 1.349 . S
C1319 C1317 1.327 1_655 S
C1319 C1335 1.429 . S
C1319 H1341 0.950 . S
C1320 H1316 0.949 . S
C1320 C1328 1.574 . S
C1320 C1336 1.368 . S
H1321 C1329 0.950 . S
H1322 C1327 0.950 . S
H1323 C1328 0.949 . S
H1324 C1330 0.950 . S
H1325 C1331 0.950 . S
H1326 C1332 0.949 . S
C1327 H1322 0.950 . S
C1327 C1329 1.327 . S
C1327 C1333 1.429 . S
C1328 C1320 1.574 . S
C1328 H1323 0.949 . S
C1328 C1334 1.368 . S
C1329 C1313 1.349 . S
C1329 H1321 0.950 . S
C1329 C1327 1.327 . S
C1330 C1318 1.349 . S
C1330 H1324 0.950 . S
C1330 C1331 1.327 . S
C1331 H1325 0.950 . S
C1331 C1330 1.327 . S
C1331 C1335 1.429 1_455 S
C1332 C1315 1.574 . S
C1332 H1326 0.949 . S
C1332 C1336 1.368 . S
C1333 C1314 1.429 . S
C1333 C1327 1.429 . S
C1333 C1334 1.523 . S
C1334 C1315 1.368 . S
C1334 C1328 1.368 . S
C1334 C1333 1.523 . S
C1335 C1319 1.429 . S
C1335 C1331 1.429 1_655 S
C1335 C1336 1.523 . S
C1336 C1320 1.368 . S
C1336 C1332 1.368 . S
C1336 C1335 1.523 . S
H1337 C1312 0.950 . S
H1338 C1314 0.950 . S
H1339 C1315 0.949 . S
H1340 C1317 0.950 . S
H1341 C1319 0.950 . S
C1342 C1343 1.349 . S
C1342 C1344 1.327 . S
C1342 H1367 0.950 . S
C1343 C1342 1.349 . S
C1343 C1359 1.349 . S
C1344 C1342 1.327 . S
C1344 C1363 1.429 . S
C1344 H1368 0.950 . S
C1345 C1362 1.574 . S
C1345 C1364 1.368 . S
C1345 H1369 0.949 . S
H1346 C1350 0.949 . S
C1347 C1348 1.349 . S
C1347 C1349 1.327 . S
C1347 H1370 0.950 . S
C1348 C1347 1.349 . S
C1348 C1360 1.349 . S
C1349 C1347 1.327 . S
C1349 C1365 1.429 . S
C1349 H1371 0.950 . S
C1350 H1346 0.949 . S
C1350 C1358 1.574 . S
C1350 C1366 1.368 . S
H1351 C1359 0.950 . S
H1352 C1357 0.950 . S
H1353 C1358 0.949 . S
H1354 C1360 0.950 . S
H1355 C1361 0.950 . S
H1356 C1362 0.949 . S
C1357 H1352 0.950 . S
C1357 C1359 1.327 . S
C1357 C1363 1.429 . S
C1358 C1350 1.574 . S
C1358 H1353 0.949 . S
C1358 C1364 1.368 . S
C1359 C1343 1.349 . S
C1359 H1351 0.950 . S
C1359 C1357 1.327 . S
C1360 C1348 1.349 . S
C1360 H1354 0.950 . S
C1360 C1361 1.327 . S
C1361 H1355 0.950 . S
C1361 C1360 1.327 . S
C1361 C1365 1.429 . S
C1362 C1345 1.574 . S
C1362 H1356 0.949 . S
C1362 C1366 1.368 . S
C1363 C1344 1.429 . S
C1363 C1357 1.429 . S
C1363 C1364 1.523 . S
C1364 C1345 1.368 . S
C1364 C1358 1.368 . S
C1364 C1363 1.523 . S
C1365 C1349 1.429 . S
C1365 C1361 1.429 . S
C1365 C1366 1.523 . S
C1366 C1350 1.368 . S
C1366 C1362 1.368 . S
C1366 C1365 1.523 . S
H1367 C1342 0.950 . S
H1368 C1344 0.950 . S
H1369 C1345 0.949 . S
H1370 C1347 0.950 . S
H1371 C1349 0.950 . S
C1372 C1373 1.349 . S
C1372 C1374 1.327 . S
C1372 H1397 0.950 . S
C1373 C1372 1.349 . S
C1373 C1389 1.349 . S
C1374 C1372 1.327 . S
C1374 C1393 1.429 . S
C1374 H1398 0.950 . S
C1375 C1392 1.574 . S
C1375 C1394 1.368 . S
C1375 H1399 0.949 . S
H1376 C1380 0.949 . S
C1377 C1378 1.349 . S
C1377 C1379 1.327 . S
C1377 H1400 0.950 . S
C1378 C1377 1.349 . S
C1378 C1390 1.349 . S
C1379 C1377 1.327 . S
C1379 C1395 1.429 . S
C1379 H1401 0.950 . S
C1380 H1376 0.949 . S
C1380 C1388 1.574 . S
C1380 C1396 1.368 . S
H1381 C1389 0.950 . S
H1382 C1387 0.950 . S
H1383 C1388 0.949 . S
H1384 C1390 0.950 . S
H1385 C1391 0.950 . S
H1386 C1392 0.949 . S
C1387 H1382 0.950 . S
C1387 C1389 1.327 . S
C1387 C1393 1.429 . S
C1388 C1380 1.574 . S
C1388 H1383 0.949 . S
C1388 C1394 1.368 . S
C1389 C1373 1.349 . S
C1389 H1381 0.950 . S
C1389 C1387 1.327 . S
C1390 C1378 1.349 . S
C1390 H1384 0.950 . S
C1390 C1391 1.327 . S
C1391 H1385 0.950 . S
C1391 C1390 1.327 . S
C1391 C1395 1.429 . S
C1392 C1375 1.574 . S
C1392 H1386 0.949 . S
C1392 C1396 1.368 . S
C1393 C1374 1.429 . S
C1393 C1387 1.429 . S
C1393 C1394 1.523 . S
C1394 C1375 1.368 . S
C1394 C1388 1.368 . S
C1394 C1393 1.523 . S
C1395 C1379 1.429 . S
C1395 C1391 1.429 . S
C1395 C1396 1.523 . S
C1396 C1380 1.368 . S
C1396 C1392 1.368 . S
C1396 C1395 1.523 . S
H1397 C1372 0.950 . S
H1398 C1374 0.950 . S
H1399 C1375 0.949 . S
H1400 C1377 0.950 . S
H1401 C1379 0.950 . S
C1402 C1403 1.349 . S
C1402 C1404 1.327 . S
C1402 H1427 0.950 . S
C1403 C1402 1.349 . S
C1403 C1419 1.349 . S
C1404 C1402 1.327 . S
C1404 C1423 1.429 . S
C1404 H1428 0.950 . S
C1405 C1422 1.574 . S
C1405 C1424 1.368 . S
C1405 H1429 0.949 . S
H1406 C1410 0.949 . S
C1407 C1408 1.349 . S
C1407 C1409 1.327 . S
C1407 H1430 0.950 . S
C1408 C1407 1.349 . S
C1408 C1420 1.349 . S
C1409 C1407 1.327 . S
C1409 C1425 1.429 . S
C1409 H1431 0.950 . S
C1410 H1406 0.949 . S
C1410 C1418 1.574 . S
C1410 C1426 1.368 . S
H1411 C1419 0.950 . S
H1412 C1417 0.950 . S
H1413 C1418 0.949 . S
H1414 C1420 0.950 . S
H1415 C1421 0.950 . S
H1416 C1422 0.949 . S
C1417 H1412 0.950 . S
C1417 C1419 1.327 . S
C1417 C1423 1.429 . S
C1418 C1410 1.574 . S
C1418 H1413 0.949 . S
C1418 C1424 1.368 . S
C1419 C1403 1.349 . S
C1419 H1411 0.950 . S
C1419 C1417 1.327 . S
C1420 C1408 1.349 . S
C1420 H1414 0.950 . S
C1420 C1421 1.327 . S
C1421 H1415 0.950 . S
C1421 C1420 1.327 . S
C1421 C1425 1.429 . S
C1422 C1405 1.574 . S
C1422 H1416 0.949 . S
C1422 C1426 1.368 . S
C1423 C1404 1.429 . S
C1423 C1417 1.429 . S
C1423 C1424 1.523 . S
C1424 C1405 1.368 . S
C1424 C1418 1.368 . S
C1424 C1423 1.523 . S
C1425 C1409 1.429 . S
C1425 C1421 1.429 . S
C1425 C1426 1.523 . S
C1426 C1410 1.368 . S
C1426 C1422 1.368 . S
C1426 C1425 1.523 . S
H1427 C1402 0.950 . S
H1428 C1404 0.950 . S
H1429 C1405 0.949 . S
H1430 C1407 0.950 . S
H1431 C1409 0.950 . S
C1432 C1433 1.349 . S
C1432 C1434 1.327 . S
C1432 H1457 0.950 . S
C1433 C1432 1.349 . S
C1433 C1449 1.349 . S
C1434 C1432 1.327 . S
C1434 C1453 1.429 . S
C1434 H1458 0.950 . S
C1435 C1452 1.574 . S
C1435 C1454 1.368 . S
C1435 H1459 0.949 . S
H1436 C1440 0.949 . S
C1437 C1438 1.349 . S
C1437 C1439 1.327 . S
C1437 H1460 0.950 . S
C1438 C1437 1.349 . S
C1438 C1450 1.349 . S
C1439 C1437 1.327 . S
C1439 C1455 1.429 . S
C1439 H1461 0.950 1_545 S
C1440 H1436 0.949 . S
C1440 C1448 1.574 1_545 S
C1440 C1456 1.362 1_545 S
H1441 C1449 0.950 . S
H1442 C1447 0.950 . S
H1443 C1448 0.949 . S
H1444 C1450 0.950 . S
H1445 C1451 0.950 . S
H1446 C1452 0.949 . S
C1447 H1442 0.950 . S
C1447 C1449 1.327 . S
C1447 C1453 1.429 . S
C1448 C1440 1.574 1_565 S
C1448 H1443 0.949 . S
C1448 C1454 1.368 . S
C1449 C1433 1.349 . S
C1449 H1441 0.950 . S
C1449 C1447 1.327 . S
C1450 C1438 1.349 . S
C1450 H1444 0.950 . S
C1450 C1451 1.327 . S
C1451 H1445 0.950 . S
C1451 C1450 1.327 . S
C1451 C1455 1.429 . S
C1452 C1435 1.574 . S
C1452 H1446 0.949 . S
C1452 C1456 1.407 . S
C1453 C1434 1.429 . S
C1453 C1447 1.429 . S
C1453 C1454 1.523 . S
C1454 C1435 1.368 . S
C1454 C1448 1.368 . S
C1454 C1453 1.523 . S
C1455 C1439 1.429 . S
C1455 C1451 1.429 . S
C1455 C1456 1.484 1_545 S
C1456 C1440 1.362 1_565 S
C1456 C1452 1.407 . S
C1456 C1455 1.484 1_565 S
H1457 C1432 0.950 . S
H1458 C1434 0.950 . S
H1459 C1435 0.949 . S
H1460 C1437 0.950 . S
H1461 C1439 0.950 1_565 S
C1462 C1463 1.349 . S
C1462 C1464 1.327 . S
C1462 H1487 0.950 . S
C1463 C1462 1.349 . S
C1463 C1479 1.349 1_554 S
C1464 C1462 1.327 . S
C1464 C1483 1.429 . S
C1464 H1488 0.950 . S
C1465 C1482 1.574 . S
C1465 C1484 1.368 1_556 S
C1465 H1489 0.949 . S
H1466 C1470 0.949 . S
C1467 C1468 1.303 1_556 S
C1467 C1469 1.339 . S
C1467 H1490 0.986 . S
C1468 C1467 1.303 1_554 S
C1468 C1480 1.349 . S
C1469 C1467 1.339 . S
C1469 C1485 1.429 1_556 S
C1469 H1491 0.950 . S
C1470 H1466 0.949 . S
C1470 C1478 1.574 . S
C1470 C1486 1.368 . S
H1471 C1479 0.950 . S
H1472 C1477 0.950 . S
H1473 C1478 0.949 . S
H1474 C1480 0.950 . S
H1475 C1481 0.950 . S
H1476 C1482 0.949 . S
C1477 H1472 0.950 . S
C1477 C1479 1.327 . S
C1477 C1483 1.429 1_556 S
C1478 C1470 1.574 . S
C1478 H1473 0.949 . S
C1478 C1484 1.368 . S
C1479 C1463 1.349 1_556 S
C1479 H1471 0.950 . S
C1479 C1477 1.327 . S
C1480 C1468 1.349 . S
C1480 H1474 0.950 . S
C1480 C1481 1.327 . S
C1481 H1475 0.950 . S
C1481 C1480 1.327 . S
C1481 C1485 1.429 . S
C1482 C1465 1.574 . S
C1482 H1476 0.949 . S
C1482 C1486 1.368 1_556 S
C1483 C1464 1.429 . S
C1483 C1477 1.429 1_554 S
C1483 C1484 1.523 . S
C1484 C1465 1.368 1_554 S
C1484 C1478 1.368 . S
C1484 C1483 1.523 . S
C1485 C1469 1.429 1_554 S
C1485 C1481 1.429 . S
C1485 C1486 1.523 . S
C1486 C1470 1.368 . S
C1486 C1482 1.368 1_554 S
C1486 C1485 1.523 . S
H1487 C1462 0.950 . S
H1488 C1464 0.950 . S
H1489 C1465 0.949 . S
H1490 C1467 0.986 . S
H1491 C1469 0.950 . S
C1492 C1493 1.349 . S
C1492 C1494 1.327 . S
C1492 H1517 0.950 . S
C1493 C1492 1.349 . S
C1493 C1509 1.349 . S
C1494 C1492 1.327 . S
C1494 C1513 1.429 . S
C1494 H1518 0.950 . S
C1495 C1512 1.574 . S
C1495 C1514 1.368 . S
C1495 H1519 0.949 . S
H1496 C1500 0.949 . S
C1497 C1498 1.349 . S
C1497 C1499 1.327 . S
C1497 H1520 0.950 . S
C1498 C1497 1.349 . S
C1498 C1510 1.349 . S
C1499 C1497 1.327 . S
C1499 C1515 1.429 . S
C1499 H1521 0.950 . S
C1500 H1496 0.949 . S
C1500 C1508 1.574 . S
C1500 C1516 1.368 . S
H1501 C1509 0.950 . S
H1502 C1507 0.950 . S
H1503 C1508 0.949 . S
H1504 C1510 0.950 . S
H1505 C1511 0.950 . S
H1506 C1512 0.949 . S
C1507 H1502 0.950 . S
C1507 C1509 1.327 . S
C1507 C1513 1.429 . S
C1508 C1500 1.574 . S
C1508 H1503 0.949 . S
C1508 C1514 1.368 . S
C1509 C1493 1.349 . S
C1509 H1501 0.950 . S
C1509 C1507 1.327 . S
C1510 C1498 1.349 . S
C1510 H1504 0.950 . S
C1510 C1511 1.327 . S
C1511 H1505 0.950 . S
C1511 C1510 1.327 . S
C1511 C1515 1.429 . S
C1512 C1495 1.574 . S
C1512 H1506 0.949 . S
C1512 C1516 1.368 . S
C1513 C1494 1.429 . S
C1513 C1507 1.429 . S
C1513 C1514 1.523 . S
C1514 C1495 1.368 . S
C1514 C1508 1.368 . S
C1514 C1513 1.523 . S
C1515 C1499 1.429 . S
C1515 C1511 1.429 . S
C1515 C1516 1.523 . S
C1516 C1500 1.368 . S
C1516 C1512 1.368 . S
C1516 C1515 1.523 . S
H1517 C1492 0.950 . S
H1518 C1494 0.950 . S
H1519 C1495 0.949 . S
H1520 C1497 0.950 . S
H1521 C1499 0.950 . S
C1522 C1523 1.349 . S
C1522 C1524 1.327 . S
C1522 H1547 0.950 . S
C1523 C1522 1.349 . S
C1523 C1539 1.349 . S
C1524 C1522 1.327 . S
C1524 C1543 1.429 . S
C1524 H1548 0.950 . S
C1525 C1542 1.574 . S
C1525 C1544 1.368 . S
C1525 H1549 0.949 . S
H1526 C1530 0.949 . S
C1527 C1528 1.349 . S
C1527 C1529 1.327 . S
C1527 H1550 0.950 . S
C1528 C1527 1.349 . S
C1528 C1540 1.349 . S
C1529 C1527 1.327 . S
C1529 C1545 1.429 . S
C1529 H1551 0.950 . S
C1530 H1526 0.949 . S
C1530 C1538 1.574 . S
C1530 C1546 1.368 . S
H1531 C1539 0.950 . S
H1532 C1537 0.950 . S
H1533 C1538 0.949 . S
H1534 C1540 0.950 . S
H1535 C1541 0.950 . S
H1536 C1542 0.949 . S
C1537 H1532 0.950 . S
C1537 C1539 1.327 . S
C1537 C1543 1.429 . S
C1538 C1530 1.574 . S
C1538 H1533 0.949 . S
C1538 C1544 1.368 . S
C1539 C1523 1.349 . S
C1539 H1531 0.950 . S
C1539 C1537 1.327 . S
C1540 C1528 1.349 . S
C1540 H1534 0.950 . S
C1540 C1541 1.327 . S
C1541 H1535 0.950 . S
C1541 C1540 1.327 . S
C1541 C1545 1.429 . S
C1542 C1525 1.574 . S
C1542 H1536 0.949 . S
C1542 C1546 1.368 . S
C1543 C1524 1.429 . S
C1543 C1537 1.429 . S
C1543 C1544 1.523 . S
C1544 C1525 1.368 . S
C1544 C1538 1.368 . S
C1544 C1543 1.523 . S
C1545 C1529 1.429 . S
C1545 C1541 1.429 . S
C1545 C1546 1.523 . S
C1546 C1530 1.368 . S
C1546 C1542 1.368 . S
C1546 C1545 1.523 . S
H1547 C1522 0.950 . S
H1548 C1524 0.950 . S
H1549 C1525 0.949 . S
H1550 C1527 0.950 . S
H1551 C1529 0.950 . S
C1552 C1553 1.349 . S
C1552 C1554 1.327 . S
C1552 H1577 0.950 . S
C1553 C1552 1.349 . S
C1553 C1569 1.349 . S
C1554 C1552 1.327 . S
C1554 C1573 1.429 . S
C1554 H1578 0.950 . S
C1555 C1572 1.574 . S
C1555 C1574 1.368 . S
C1555 H1579 0.949 . S
H1556 C1560 0.949 . S
C1557 C1558 1.349 . S
C1557 C1559 1.327 . S
C1557 H1580 0.950 . S
C1558 C1557 1.349 . S
C1558 C1570 1.349 . S
C1559 C1557 1.327 . S
C1559 C1575 1.429 . S
C1559 H1581 0.950 . S
C1560 H1556 0.949 . S
C1560 C1568 1.574 . S
C1560 C1576 1.368 . S
H1561 C1569 0.950 . S
H1562 C1567 0.950 . S
H1563 C1568 0.949 . S
H1564 C1570 0.950 . S
H1565 C1571 0.950 . S
H1566 C1572 0.949 . S
C1567 H1562 0.950 . S
C1567 C1569 1.327 . S
C1567 C1573 1.429 . S
C1568 C1560 1.574 . S
C1568 H1563 0.949 . S
C1568 C1574 1.368 . S
C1569 C1553 1.349 . S
C1569 H1561 0.950 . S
C1569 C1567 1.327 . S
C1570 C1558 1.349 . S
C1570 H1564 0.950 . S
C1570 C1571 1.327 . S
C1571 H1565 0.950 . S
C1571 C1570 1.327 . S
C1571 C1575 1.429 . S
C1572 C1555 1.574 . S
C1572 H1566 0.949 . S
C1572 C1576 1.368 . S
C1573 C1554 1.429 . S
C1573 C1567 1.429 . S
C1573 C1574 1.523 . S
C1574 C1555 1.368 . S
C1574 C1568 1.368 . S
C1574 C1573 1.523 . S
C1575 C1559 1.429 . S
C1575 C1571 1.429 . S
C1575 C1576 1.523 . S
C1576 C1560 1.368 . S
C1576 C1572 1.368 . S
C1576 C1575 1.523 . S
H1577 C1552 0.950 . S
H1578 C1554 0.950 . S
H1579 C1555 0.949 . S
H1580 C1557 0.950 . S
H1581 C1559 0.950 . S
C1582 C1583 1.349 . S
C1582 C1584 1.327 . S
C1582 H1607 0.950 . S
C1583 C1582 1.349 . S
C1583 C1599 1.349 . S
C1584 C1582 1.327 . S
C1584 C1603 1.429 . S
C1584 H1608 0.950 . S
C1585 C1602 1.574 . S
C1585 C1604 1.368 . S
C1585 H1609 0.949 . S
H1586 C1590 0.949 . S
C1587 C1588 1.349 . S
C1587 C1589 1.327 . S
C1587 H1610 0.950 . S
C1588 C1587 1.349 . S
C1588 C1600 1.349 . S
C1589 C1587 1.327 . S
C1589 C1605 1.429 . S
C1589 H1611 0.950 . S
C1590 H1586 0.949 . S
C1590 C1598 1.574 . S
C1590 C1606 1.368 . S
H1591 C1599 0.950 . S
H1592 C1597 0.950 . S
H1593 C1598 0.949 . S
H1594 C1600 0.950 . S
H1595 C1601 0.950 . S
H1596 C1602 0.949 . S
C1597 H1592 0.950 . S
C1597 C1599 1.327 . S
C1597 C1603 1.429 . S
C1598 C1590 1.574 . S
C1598 H1593 0.949 . S
C1598 C1604 1.368 . S
C1599 C1583 1.349 . S
C1599 H1591 0.950 . S
C1599 C1597 1.327 . S
C1600 C1588 1.349 . S
C1600 H1594 0.950 . S
C1600 C1601 1.327 . S
C1601 H1595 0.950 . S
C1601 C1600 1.327 . S
C1601 C1605 1.429 . S
C1602 C1585 1.574 . S
C1602 H1596 0.949 . S
C1602 C1606 1.368 . S
C1603 C1584 1.429 . S
C1603 C1597 1.429 . S
C1603 C1604 1.523 . S
C1604 C1585 1.368 . S
C1604 C1598 1.368 . S
C1604 C1603 1.523 . S
C1605 C1589 1.429 . S
C1605 C1601 1.429 . S
C1605 C1606 1.523 . S
C1606 C1590 1.368 . S
C1606 C1602 1.368 . S
C1606 C1605 1.523 . S
H1607 C1582 0.950 . S
H1608 C1584 0.950 . S
H1609 C1585 0.949 . S
H1610 C1587 0.950 . S
H1611 C1589 0.950 . S
C1612 C1613 1.349 . S
C1612 C1614 1.327 . S
C1612 H1637 0.950 . S
C1613 C1612 1.349 . S
C1613 C1629 1.349 . S
C1614 C1612 1.327 . S
C1614 C1633 1.429 . S
C1614 H1638 0.950 . S
C1615 C1632 1.574 . S
C1615 C1634 1.368 . S
C1615 H1639 0.949 . S
H1616 C1620 0.949 . S
C1617 C1618 1.349 . S
C1617 C1619 1.327 . S
C1617 H1640 0.950 . S
C1618 C1617 1.349 . S
C1618 C1630 1.349 . S
C1619 C1617 1.327 . S
C1619 C1635 1.429 . S
C1619 H1641 0.950 . S
C1620 H1616 0.949 . S
C1620 C1628 1.574 . S
C1620 C1636 1.368 . S
H1621 C1629 0.950 . S
H1622 C1627 0.950 . S
H1623 C1628 0.949 . S
H1624 C1630 0.950 . S
H1625 C1631 0.950 . S
H1626 C1632 0.949 . S
C1627 H1622 0.950 . S
C1627 C1629 1.327 . S
C1627 C1633 1.429 . S
C1628 C1620 1.574 . S
C1628 H1623 0.949 . S
C1628 C1634 1.368 . S
C1629 C1613 1.349 . S
C1629 H1621 0.950 . S
C1629 C1627 1.327 . S
C1630 C1618 1.349 . S
C1630 H1624 0.950 . S
C1630 C1631 1.327 . S
C1631 H1625 0.950 . S
C1631 C1630 1.327 . S
C1631 C1635 1.429 . S
C1632 C1615 1.574 . S
C1632 H1626 0.949 . S
C1632 C1636 1.368 . S
C1633 C1614 1.429 . S
C1633 C1627 1.429 . S
C1633 C1634 1.523 . S
C1634 C1615 1.368 . S
C1634 C1628 1.368 . S
C1634 C1633 1.523 . S
C1635 C1619 1.429 . S
C1635 C1631 1.429 . S
C1635 C1636 1.523 . S
C1636 C1620 1.368 . S
C1636 C1632 1.368 . S
C1636 C1635 1.523 . S
H1637 C1612 0.950 . S
H1638 C1614 0.950 . S
H1639 C1615 0.949 . S
H1640 C1617 0.950 . S
H1641 C1619 0.950 . S
C1642 C1643 1.349 . S
C1642 C1644 1.327 . S
C1642 H1667 0.950 . S
C1643 C1642 1.349 . S
C1643 C1659 1.349 . S
C1644 C1642 1.327 . S
C1644 C1663 1.429 . S
C1644 H1668 0.950 . S
C1645 C1662 1.574 . S
C1645 C1664 1.368 . S
C1645 H1669 0.949 . S
H1646 C1650 0.949 . S
C1647 C1648 1.349 . S
C1647 C1649 1.327 . S
C1647 H1670 0.950 . S
C1648 C1647 1.349 . S
C1648 C1660 1.349 . S
C1649 C1647 1.327 . S
C1649 C1665 1.429 . S
C1649 H1671 0.950 . S
C1650 H1646 0.949 . S
C1650 C1658 1.574 . S
C1650 C1666 1.368 . S
H1651 C1659 0.950 . S
H1652 C1657 0.950 . S
H1653 C1658 0.949 . S
H1654 C1660 0.950 . S
H1655 C1661 0.950 . S
H1656 C1662 0.949 . S
C1657 H1652 0.950 . S
C1657 C1659 1.327 . S
C1657 C1663 1.429 . S
C1658 C1650 1.574 . S
C1658 H1653 0.949 . S
C1658 C1664 1.368 . S
C1659 C1643 1.349 . S
C1659 H1651 0.950 . S
C1659 C1657 1.327 . S
C1660 C1648 1.349 . S
C1660 H1654 0.950 . S
C1660 C1661 1.327 . S
C1661 H1655 0.950 . S
C1661 C1660 1.327 . S
C1661 C1665 1.429 . S
C1662 C1645 1.574 . S
C1662 H1656 0.949 . S
C1662 C1666 1.368 . S
C1663 C1644 1.429 . S
C1663 C1657 1.429 . S
C1663 C1664 1.523 . S
C1664 C1645 1.368 . S
C1664 C1658 1.368 . S
C1664 C1663 1.523 . S
C1665 C1649 1.429 . S
C1665 C1661 1.429 . S
C1665 C1666 1.523 . S
C1666 C1650 1.368 . S
C1666 C1662 1.368 . S
C1666 C1665 1.523 . S
H1667 C1642 0.950 . S
H1668 C1644 0.950 . S
H1669 C1645 0.949 . S
H1670 C1647 0.950 . S
H1671 C1649 0.950 . S
C1672 C1673 1.349 . S
C1672 C1674 1.327 . S
C1672 H1697 0.950 . S
C1673 C1672 1.349 . S
C1673 C1689 1.349 . S
C1674 C1672 1.327 . S
C1674 C1693 1.429 . S
C1674 H1698 0.950 . S
C1675 C1692 1.574 . S
C1675 C1694 1.368 . S
C1675 H1699 0.949 . S
H1676 C1680 0.949 . S
C1677 C1678 1.349 1_565 S
C1677 C1679 1.327 . S
C1677 H1700 0.950 . S
C1678 C1677 1.349 1_545 S
C1678 C1690 1.349 . S
C1679 C1677 1.327 . S
C1679 C1695 1.429 . S
C1679 H1701 0.950 . S
C1680 H1676 0.949 . S
C1680 C1688 1.574 . S
C1680 C1696 1.368 . S
H1681 C1689 0.950 . S
H1682 C1687 0.950 . S
H1683 C1688 0.949 . S
H1684 C1690 0.950 . S
H1685 C1691 0.950 . S
H1686 C1692 0.949 . S
C1687 H1682 0.950 . S
C1687 C1689 1.327 . S
C1687 C1693 1.429 . S
C1688 C1680 1.574 . S
C1688 H1683 0.949 . S
C1688 C1694 1.368 . S
C1689 C1673 1.349 . S
C1689 H1681 0.950 . S
C1689 C1687 1.327 . S
C1690 C1678 1.349 . S
C1690 H1684 0.950 . S
C1690 C1691 1.327 1_545 S
C1691 H1685 0.950 . S
C1691 C1690 1.327 1_565 S
C1691 C1695 1.429 . S
C1692 C1675 1.574 . S
C1692 H1686 0.949 . S
C1692 C1696 1.368 . S
C1693 C1674 1.429 . S
C1693 C1687 1.429 . S
C1693 C1694 1.523 . S
C1694 C1675 1.368 . S
C1694 C1688 1.368 . S
C1694 C1693 1.523 . S
C1695 C1679 1.429 . S
C1695 C1691 1.429 . S
C1695 C1696 1.523 . S
C1696 C1680 1.368 . S
C1696 C1692 1.368 . S
C1696 C1695 1.523 . S
H1697 C1672 0.950 . S
H1698 C1674 0.950 . S
H1699 C1675 0.949 . S
H1700 C1677 0.950 . S
H1701 C1679 0.950 . S
C1702 C1703 1.349 . S
C1702 C1704 1.327 . S
C1702 H1727 0.950 . S
C1703 C1702 1.349 . S
C1703 C1719 1.349 . S
C1704 C1702 1.327 . S
C1704 C1723 1.429 . S
C1704 H1728 0.950 . S
C1705 C1722 1.574 . S
C1705 C1724 1.368 . S
C1705 H1729 0.949 . S
H1706 C1710 0.949 . S
C1707 C1708 1.349 . S
C1707 C1709 1.327 . S
C1707 H1730 0.950 . S
C1708 C1707 1.349 . S
C1708 C1720 1.349 . S
C1709 C1707 1.327 . S
C1709 C1725 1.429 . S
C1709 H1731 0.950 . S
C1710 H1706 0.949 . S
C1710 C1718 1.574 . S
C1710 C1726 1.368 . S
H1711 C1719 0.950 . S
H1712 C1717 0.950 . S
H1713 C1718 0.949 . S
H1714 C1720 0.950 . S
H1715 C1721 0.950 . S
H1716 C1722 0.949 . S
C1717 H1712 0.950 . S
C1717 C1719 1.327 . S
C1717 C1723 1.429 . S
C1718 C1710 1.574 . S
C1718 H1713 0.949 . S
C1718 C1724 1.368 . S
C1719 C1703 1.349 . S
C1719 H1711 0.950 . S
C1719 C1717 1.327 . S
C1720 C1708 1.349 . S
C1720 H1714 0.950 . S
C1720 C1721 1.327 . S
C1721 H1715 0.950 . S
C1721 C1720 1.327 . S
C1721 C1725 1.429 . S
C1722 C1705 1.574 . S
C1722 H1716 0.949 . S
C1722 C1726 1.368 . S
C1723 C1704 1.429 . S
C1723 C1717 1.429 . S
C1723 C1724 1.523 . S
C1724 C1705 1.368 . S
C1724 C1718 1.368 . S
C1724 C1723 1.523 . S
C1725 C1709 1.429 . S
C1725 C1721 1.429 . S
C1725 C1726 1.523 . S
C1726 C1710 1.368 . S
C1726 C1722 1.368 . S
C1726 C1725 1.523 . S
H1727 C1702 0.950 . S
H1728 C1704 0.950 . S
H1729 C1705 0.949 . S
H1730 C1707 0.950 . S
H1731 C1709 0.950 . S
C1732 C1733 1.349 . S
C1732 C1734 1.327 . S
C1732 H1757 0.950 . S
C1733 C1732 1.349 . S
C1733 C1749 1.349 . S
C1734 C1732 1.327 . S
C1734 C1753 1.429 . S
C1734 H1758 0.950 . S
C1735 C1752 1.574 . S
C1735 C1754 1.368 . S
C1735 H1759 0.949 . S
H1736 C1740 0.949 . S
C1737 C1738 1.349 . S
C1737 C1739 1.327 . S
C1737 H1760 0.950 . S
C1738 C1737 1.349 . S
C1738 C1750 1.349 . S
C1739 C1737 1.327 . S
C1739 C1755 1.429 . S
C1739 H1761 0.950 . S
C1740 H1736 0.949 . S
C1740 C1748 1.574 . S
C1740 C1756 1.368 . S
H1741 C1749 0.950 . S
H1742 C1747 0.950 . S
H1743 C1748 0.949 . S
H1744 C1750 0.950 . S
H1745 C1751 0.950 . S
H1746 C1752 0.949 . S
C1747 H1742 0.950 . S
C1747 C1749 1.327 . S
C1747 C1753 1.429 . S
C1748 C1740 1.574 . S
C1748 H1743 0.949 . S
C1748 C1754 1.368 . S
C1749 C1733 1.349 . S
C1749 H1741 0.950 . S
C1749 C1747 1.327 . S
C1750 C1738 1.349 . S
C1750 H1744 0.950 . S
C1750 C1751 1.327 . S
C1751 H1745 0.950 . S
C1751 C1750 1.327 . S
C1751 C1755 1.429 . S
C1752 C1735 1.574 . S
C1752 H1746 0.949 . S
C1752 C1756 1.368 . S
C1753 C1734 1.429 . S
C1753 C1747 1.429 . S
C1753 C1754 1.523 . S
C1754 C1735 1.368 . S
C1754 C1748 1.368 . S
C1754 C1753 1.523 . S
C1755 C1739 1.429 . S
C1755 C1751 1.429 . S
C1755 C1756 1.523 . S
C1756 C1740 1.368 . S
C1756 C1752 1.368 . S
C1756 C1755 1.523 . S
H1757 C1732 0.950 . S
H1758 C1734 0.950 . S
H1759 C1735 0.949 . S
H1760 C1737 0.950 . S
H1761 C1739 0.950 . S
C1762 C1763 1.349 . S
C1762 C1764 1.327 . S
C1762 H1787 0.950 . S
C1763 C1762 1.349 . S
C1763 C1779 1.349 . S
C1764 C1762 1.327 . S
C1764 C1783 1.429 . S
C1764 H1788 0.950 . S
C1765 C1782 1.574 . S
C1765 C1784 1.368 . S
C1765 H1789 0.949 . S
H1766 C1770 0.949 . S
C1767 C1768 1.349 . S
C1767 C1769 1.327 . S
C1767 H1790 0.950 . S
C1768 C1767 1.349 . S
C1768 C1780 1.349 . S
C1769 C1767 1.327 . S
C1769 C1785 1.429 . S
C1769 H1791 0.950 . S
C1770 H1766 0.949 . S
C1770 C1778 1.574 . S
C1770 C1786 1.368 . S
H1771 C1779 0.950 . S
H1772 C1777 0.950 . S
H1773 C1778 0.949 . S
H1774 C1780 0.950 . S
H1775 C1781 0.950 . S
H1776 C1782 0.949 . S
C1777 H1772 0.950 . S
C1777 C1779 1.327 . S
C1777 C1783 1.429 . S
C1778 C1770 1.574 . S
C1778 H1773 0.949 . S
C1778 C1784 1.368 . S
C1779 C1763 1.349 . S
C1779 H1771 0.950 . S
C1779 C1777 1.327 . S
C1780 C1768 1.349 . S
C1780 H1774 0.950 . S
C1780 C1781 1.327 . S
C1781 H1775 0.950 . S
C1781 C1780 1.327 . S
C1781 C1785 1.429 . S
C1782 C1765 1.574 . S
C1782 H1776 0.949 . S
C1782 C1786 1.368 . S
C1783 C1764 1.429 . S
C1783 C1777 1.429 . S
C1783 C1784 1.523 . S
C1784 C1765 1.368 . S
C1784 C1778 1.368 . S
C1784 C1783 1.523 . S
C1785 C1769 1.429 . S
C1785 C1781 1.429 . S
C1785 C1786 1.523 . S
C1786 C1770 1.368 . S
C1786 C1782 1.368 . S
C1786 C1785 1.523 . S
H1787 C1762 0.950 . S
H1788 C1764 0.950 . S
H1789 C1765 0.949 . S
H1790 C1767 0.950 . S
H1791 C1769 0.950 . S
C1792 C1793 1.349 . S
C1792 C1794 1.327 . S
C1792 H1817 0.950 . S
C1793 C1792 1.349 . S
C1793 C1809 1.349 . S
C1794 C1792 1.327 . S
C1794 C1813 1.429 . S
C1794 H1818 0.950 . S
C1795 C1812 1.574 . S
C1795 C1814 1.368 . S
C1795 H1819 0.949 . S
H1796 C1800 0.949 . S
C1797 C1798 1.349 . S
C1797 C1799 1.327 . S
C1797 H1820 0.950 . S
C1798 C1797 1.349 . S
C1798 C1810 1.349 . S
C1799 C1797 1.327 . S
C1799 C1815 1.429 . S
C1799 H1821 0.950 . S
C1800 H1796 0.949 . S
C1800 C1808 1.574 . S
C1800 C1816 1.368 . S
H1801 C1809 0.950 . S
H1802 C1807 0.950 . S
H1803 C1808 0.949 . S
H1804 C1810 0.950 . S
H1805 C1811 0.950 . S
H1806 C1812 0.949 . S
C1807 H1802 0.950 . S
C1807 C1809 1.327 . S
C1807 C1813 1.429 . S
C1808 C1800 1.574 . S
C1808 H1803 0.949 . S
C1808 C1814 1.368 . S
C1809 C1793 1.349 . S
C1809 H1801 0.950 . S
C1809 C1807 1.327 . S
C1810 C1798 1.349 . S
C1810 H1804 0.950 . S
C1810 C1811 1.327 . S
C1811 H1805 0.950 . S
C1811 C1810 1.327 . S
C1811 C1815 1.429 . S
C1812 C1795 1.574 . S
C1812 H1806 0.949 . S
C1812 C1816 1.368 . S
C1813 C1794 1.429 . S
C1813 C1807 1.429 . S
C1813 C1814 1.523 . S
C1814 C1795 1.368 . S
C1814 C1808 1.368 . S
C1814 C1813 1.523 . S
C1815 C1799 1.429 . S
C1815 C1811 1.429 . S
C1815 C1816 1.523 . S
C1816 C1800 1.368 . S
C1816 C1812 1.368 . S
C1816 C1815 1.523 . S
H1817 C1792 0.950 . S
H1818 C1794 0.950 . S
H1819 C1795 0.949 . S
H1820 C1797 0.950 . S
H1821 C1799 0.950 . S
C1822 C1823 1.349 . S
C1822 C1824 1.327 . S
C1822 H1847 0.950 . S
C1823 C1822 1.349 . S
C1823 C1839 1.349 . S
C1824 C1822 1.327 . S
C1824 C1843 1.429 . S
C1824 H1848 0.950 . S
C1825 C1842 1.574 . S
C1825 C1844 1.368 . S
C1825 H1849 0.949 . S
H1826 C1830 0.949 . S
C1827 C1828 1.349 . S
C1827 C1829 1.327 . S
C1827 H1850 0.950 . S
C1828 C1827 1.349 . S
C1828 C1840 1.349 . S
C1829 C1827 1.327 . S
C1829 C1845 1.429 . S
C1829 H1851 0.950 . S
C1830 H1826 0.949 . S
C1830 C1838 1.574 . S
C1830 C1846 1.368 . S
H1831 C1839 0.950 . S
H1832 C1837 0.950 . S
H1833 C1838 0.949 . S
H1834 C1840 0.950 . S
H1835 C1841 0.950 . S
H1836 C1842 0.949 . S
C1837 H1832 0.950 . S
C1837 C1839 1.327 . S
C1837 C1843 1.429 . S
C1838 C1830 1.574 . S
C1838 H1833 0.949 . S
C1838 C1844 1.368 . S
C1839 C1823 1.349 . S
C1839 H1831 0.950 . S
C1839 C1837 1.327 . S
C1840 C1828 1.349 . S
C1840 H1834 0.950 . S
C1840 C1841 1.327 . S
C1841 H1835 0.950 . S
C1841 C1840 1.327 . S
C1841 C1845 1.429 . S
C1842 C1825 1.574 . S
C1842 H1836 0.949 . S
C1842 C1846 1.368 . S
C1843 C1824 1.429 . S
C1843 C1837 1.429 . S
C1843 C1844 1.523 . S
C1844 C1825 1.368 . S
C1844 C1838 1.368 . S
C1844 C1843 1.523 . S
C1845 C1829 1.429 . S
C1845 C1841 1.429 . S
C1845 C1846 1.523 . S
C1846 C1830 1.368 . S
C1846 C1842 1.368 . S
C1846 C1845 1.523 . S
H1847 C1822 0.950 . S
H1848 C1824 0.950 . S
H1849 C1825 0.949 . S
H1850 C1827 0.950 . S
H1851 C1829 0.950 . S
C1852 C1853 1.349 . S
C1852 C1854 1.327 . S
C1852 H1877 0.950 . S
C1853 C1852 1.349 . S
C1853 C1869 1.349 . S
C1854 C1852 1.327 . S
C1854 C1873 1.429 . S
C1854 H1878 0.950 . S
C1855 C1872 1.574 . S
C1855 C1874 1.368 . S
C1855 H1879 0.949 . S
H1856 C1860 0.949 . S
C1857 C1858 1.349 1_565 S
C1857 C1859 1.325 . S
C1857 H1880 0.952 1_565 S
C1858 C1857 1.349 1_545 S
C1858 C1870 1.349 1_546 S
C1859 C1857 1.325 . S
C1859 C1875 1.429 . S
C1859 H1881 0.950 . S
C1860 H1856 0.949 . S
C1860 C1868 1.574 . S
C1860 C1876 1.368 . S
H1861 C1869 0.950 . S
H1862 C1867 0.950 . S
H1863 C1868 0.949 . S
H1864 C1870 0.950 . S
H1865 C1871 0.955 . S
H1866 C1872 0.949 . S
C1867 H1862 0.950 . S
C1867 C1869 1.327 . S
C1867 C1873 1.429 . S
C1868 C1860 1.574 . S
C1868 H1863 0.949 . S
C1868 C1874 1.368 . S
C1869 C1853 1.349 . S
C1869 H1861 0.950 . S
C1869 C1867 1.327 . S
C1870 C1858 1.349 1_564 S
C1870 H1864 0.950 . S
C1870 C1871 1.327 1_554 S
C1871 H1865 0.955 . S
C1871 C1870 1.327 1_556 S
C1871 C1875 1.429 . S
C1872 C1855 1.574 . S
C1872 H1866 0.949 . S
C1872 C1876 1.368 . S
C1873 C1854 1.429 . S
C1873 C1867 1.429 . S
C1873 C1874 1.523 . S
C1874 C1855 1.368 . S
C1874 C1868 1.368 . S
C1874 C1873 1.523 . S
C1875 C1859 1.429 . S
C1875 C1871 1.429 . S
C1875 C1876 1.523 . S
C1876 C1860 1.368 . S
C1876 C1872 1.368 . S
C1876 C1875 1.523 . S
H1877 C1852 0.950 . S
H1878 C1854 0.950 . S
H1879 C1855 0.949 . S
H1880 C1857 0.952 1_545 S
H1881 C1859 0.950 . S
C1882 C1883 1.349 . S
C1882 C1884 1.327 1_455 S
C1882 H1907 0.950 . S
C1883 C1882 1.349 . S
C1883 C1899 1.349 . S
C1884 C1882 1.327 1_655 S
C1884 C1903 1.429 . S
C1884 H1908 0.950 . S
C1885 C1902 1.574 . S
C1885 C1904 1.368 . S
C1885 H1909 0.949 . S
H1886 C1890 0.949 . S
C1887 C1888 1.349 . S
C1887 C1889 1.327 . S
C1887 H1910 0.950 . S
C1888 C1887 1.349 . S
C1888 C1900 1.349 . S
C1889 C1887 1.327 . S
C1889 C1905 1.429 . S
C1889 H1911 0.950 . S
C1890 H1886 0.949 . S
C1890 C1898 1.574 . S
C1890 C1906 1.368 . S
H1891 C1899 0.950 . S
H1892 C1897 0.950 . S
H1893 C1898 0.949 . S
H1894 C1900 0.950 . S
H1895 C1901 0.950 . S
H1896 C1902 0.949 . S
C1897 H1892 0.950 . S
C1897 C1899 1.327 . S
C1897 C1903 1.429 1_455 S
C1898 C1890 1.574 . S
C1898 H1893 0.949 . S
C1898 C1904 1.368 . S
C1899 C1883 1.349 . S
C1899 H1891 0.950 . S
C1899 C1897 1.327 . S
C1900 C1888 1.349 . S
C1900 H1894 0.950 . S
C1900 C1901 1.327 . S
C1901 H1895 0.950 . S
C1901 C1900 1.327 . S
C1901 C1905 1.429 . S
C1902 C1885 1.574 . S
C1902 H1896 0.949 . S
C1902 C1906 1.368 . S
C1903 C1884 1.429 . S
C1903 C1897 1.429 1_655 S
C1903 C1904 1.523 . S
C1904 C1885 1.368 . S
C1904 C1898 1.368 . S
C1904 C1903 1.523 . S
C1905 C1889 1.429 . S
C1905 C1901 1.429 . S
C1905 C1906 1.523 . S
C1906 C1890 1.368 . S
C1906 C1902 1.368 . S
C1906 C1905 1.523 . S
H1907 C1882 0.950 . S
H1908 C1884 0.950 . S
H1909 C1885 0.949 . S
H1910 C1887 0.950 . S
H1911 C1889 0.950 . S
C1912 C1913 1.349 . S
C1912 C1914 1.327 . S
C1912 H1937 0.950 . S
C1913 C1912 1.349 . S
C1913 C1929 1.349 . S
C1914 C1912 1.327 . S
C1914 C1933 1.429 . S
C1914 H1938 0.950 . S
C1915 C1932 1.574 . S
C1915 C1934 1.368 . S
C1915 H1939 0.949 . S
H1916 C1920 0.949 . S
C1917 C1918 1.349 . S
C1917 C1919 1.327 . S
C1917 H1940 0.950 1_556 S
C1918 C1917 1.349 . S
C1918 C1930 1.349 . S
C1919 C1917 1.327 . S
C1919 C1935 1.429 . S
C1919 H1941 0.950 . S
C1920 H1916 0.949 . S
C1920 C1928 1.574 . S
C1920 C1936 1.368 . S
H1921 C1929 0.950 . S
H1922 C1927 0.950 . S
H1923 C1928 0.949 . S
H1924 C1930 0.950 . S
H1925 C1931 0.950 . S
H1926 C1932 0.949 . S
C1927 H1922 0.950 . S
C1927 C1929 1.327 . S
C1927 C1933 1.429 . S
C1928 C1920 1.574 . S
C1928 H1923 0.949 . S
C1928 C1934 1.368 . S
C1929 C1913 1.349 . S
C1929 H1921 0.950 . S
C1929 C1927 1.327 . S
C1930 C1918 1.349 . S
C1930 H1924 0.950 . S
C1930 C1931 1.327 . S
C1931 H1925 0.950 . S
C1931 C1930 1.327 . S
C1931 C1935 1.429 . S
C1932 C1915 1.574 . S
C1932 H1926 0.949 . S
C1932 C1936 1.368 . S
C1933 C1914 1.429 . S
C1933 C1927 1.429 . S
C1933 C1934 1.523 . S
C1934 C1915 1.368 . S
C1934 C1928 1.368 . S
C1934 C1933 1.523 . S
C1935 C1919 1.429 . S
C1935 C1931 1.429 . S
C1935 C1936 1.523 . S
C1936 C1920 1.368 . S
C1936 C1932 1.368 . S
C1936 C1935 1.523 . S
H1937 C1912 0.950 . S
H1938 C1914 0.950 . S
H1939 C1915 0.949 . S
H1940 C1917 0.950 1_554 S
H1941 C1919 0.950 . S
C1942 C1943 1.349 . S
C1942 C1944 1.327 . S
C1942 H1967 0.950 . S
C1943 C1942 1.349 . S
C1943 C1959 1.349 . S
C1944 C1942 1.327 . S
C1944 C1963 1.429 . S
C1944 H1968 0.950 . S
C1945 C1962 1.574 . S
C1945 C1964 1.368 . S
C1945 H1969 0.949 . S
H1946 C1950 0.949 . S
C1947 C1948 1.349 . S
C1947 C1949 1.327 . S
C1947 H1970 0.950 . S
C1948 C1947 1.349 . S
C1948 C1960 1.349 . S
C1949 C1947 1.327 . S
C1949 C1965 1.429 . S
C1949 H1971 0.950 . S
C1950 H1946 0.949 . S
C1950 C1958 1.574 . S
C1950 C1966 1.368 . S
H1951 C1959 0.950 . S
H1952 C1957 0.950 . S
H1953 C1958 0.949 . S
H1954 C1960 0.950 . S
H1955 C1961 0.950 . S
H1956 C1962 0.949 . S
C1957 H1952 0.950 . S
C1957 C1959 1.327 . S
C1957 C1963 1.429 . S
C1958 C1950 1.574 . S
C1958 H1953 0.949 . S
C1958 C1964 1.368 . S
C1959 C1943 1.349 . S
C1959 H1951 0.950 . S
C1959 C1957 1.327 . S
C1960 C1948 1.349 . S
C1960 H1954 0.950 . S
C1960 C1961 1.327 . S
C1961 H1955 0.950 . S
C1961 C1960 1.327 . S
C1961 C1965 1.429 . S
C1962 C1945 1.574 . S
C1962 H1956 0.949 . S
C1962 C1966 1.368 . S
C1963 C1944 1.429 . S
C1963 C1957 1.429 . S
C1963 C1964 1.523 . S
C1964 C1945 1.368 . S
C1964 C1958 1.368 . S
C1964 C1963 1.523 . S
C1965 C1949 1.429 . S
C1965 C1961 1.429 . S
C1965 C1966 1.523 . S
C1966 C1950 1.368 . S
C1966 C1962 1.368 . S
C1966 C1965 1.523 . S
H1967 C1942 0.950 . S
H1968 C1944 0.950 . S
H1969 C1945 0.949 . S
H1970 C1947 0.950 . S
H1971 C1949 0.950 . S
C1972 C1973 1.349 . S
C1972 C1974 1.327 . S
C1972 H1997 0.950 . S
C1973 C1972 1.349 . S
C1973 C1989 1.349 . S
C1974 C1972 1.327 . S
C1974 C1993 1.429 . S
C1974 H1998 0.950 . S
C1975 C1992 1.574 . S
C1975 C1994 1.368 . S
C1975 H1999 0.949 . S
H1976 C1980 0.949 . S
C1977 C1978 1.349 . S
C1977 C1979 1.327 . S
C1977 H2000 0.950 . S
C1978 C1977 1.349 . S
C1978 C1990 1.349 . S
C1979 C1977 1.327 . S
C1979 C1995 1.429 . S
C1979 H2001 0.950 . S
C1980 H1976 0.949 . S
C1980 C1988 1.574 . S
C1980 C1996 1.368 . S
H1981 C1989 0.950 . S
H1982 C1987 0.950 . S
H1983 C1988 0.949 . S
H1984 C1990 0.950 . S
H1985 C1991 0.950 . S
H1986 C1992 0.949 . S
C1987 H1982 0.950 . S
C1987 C1989 1.327 . S
C1987 C1993 1.429 . S
C1988 C1980 1.574 . S
C1988 H1983 0.949 . S
C1988 C1994 1.368 . S
C1989 C1973 1.349 . S
C1989 H1981 0.950 . S
C1989 C1987 1.327 . S
C1990 C1978 1.349 . S
C1990 H1984 0.950 . S
C1990 C1991 1.327 . S
C1991 H1985 0.950 . S
C1991 C1990 1.327 . S
C1991 C1995 1.429 . S
C1992 C1975 1.574 . S
C1992 H1986 0.949 . S
C1992 C1996 1.368 . S
C1993 C1974 1.429 . S
C1993 C1987 1.429 . S
C1993 C1994 1.523 . S
C1994 C1975 1.368 . S
C1994 C1988 1.368 . S
C1994 C1993 1.523 . S
C1995 C1979 1.429 . S
C1995 C1991 1.429 . S
C1995 C1996 1.523 . S
C1996 C1980 1.368 . S
C1996 C1992 1.368 . S
C1996 C1995 1.523 . S
H1997 C1972 0.950 . S
H1998 C1974 0.950 . S
H1999 C1975 0.949 . S
H2000 C1977 0.950 . S
H2001 C1979 0.950 . S
C2002 C2003 1.349 . S
C2002 C2004 1.327 . S
C2002 H2027 0.950 . S
C2003 C2002 1.349 . S
C2003 C2019 1.349 . S
C2004 C2002 1.327 . S
C2004 C2023 1.429 . S
C2004 H2028 0.950 . S
C2005 C2022 1.574 . S
C2005 C2024 1.368 . S
C2005 H2029 0.949 . S
H2006 C2010 0.949 . S
C2007 C2008 1.349 . S
C2007 C2009 1.327 . S
C2007 H2030 0.950 . S
C2008 C2007 1.349 . S
C2008 C2020 1.349 . S
C2009 C2007 1.327 . S
C2009 C2025 1.429 . S
C2009 H2031 0.950 . S
C2010 H2006 0.949 . S
C2010 C2018 1.574 . S
C2010 C2026 1.368 . S
H2011 C2019 0.950 . S
H2012 C2017 0.950 . S
H2013 C2018 0.949 . S
H2014 C2020 0.950 . S
H2015 C2021 0.950 . S
H2016 C2022 0.949 . S
C2017 H2012 0.950 . S
C2017 C2019 1.327 . S
C2017 C2023 1.429 . S
C2018 C2010 1.574 . S
C2018 H2013 0.949 . S
C2018 C2024 1.368 . S
C2019 C2003 1.349 . S
C2019 H2011 0.950 . S
C2019 C2017 1.327 . S
C2020 C2008 1.349 . S
C2020 H2014 0.950 . S
C2020 C2021 1.327 . S
C2021 H2015 0.950 . S
C2021 C2020 1.327 . S
C2021 C2025 1.429 . S
C2022 C2005 1.574 . S
C2022 H2016 0.949 . S
C2022 C2026 1.368 . S
C2023 C2004 1.429 . S
C2023 C2017 1.429 . S
C2023 C2024 1.523 . S
C2024 C2005 1.368 . S
C2024 C2018 1.368 . S
C2024 C2023 1.523 . S
C2025 C2009 1.429 . S
C2025 C2021 1.429 . S
C2025 C2026 1.523 . S
C2026 C2010 1.368 . S
C2026 C2022 1.368 . S
C2026 C2025 1.523 . S
H2027 C2002 0.950 . S
H2028 C2004 0.950 . S
H2029 C2005 0.949 . S
H2030 C2007 0.950 . S
H2031 C2009 0.950 . S
C2032 C2033 1.349 . S
C2032 C2034 1.327 . S
C2032 H2057 0.950 . S
C2033 C2032 1.349 . S
C2033 C2049 1.349 . S
C2034 C2032 1.327 . S
C2034 C2053 1.429 . S
C2034 H2058 0.950 . S
C2035 C2052 1.574 . S
C2035 C2054 1.368 . S
C2035 H2059 0.949 . S
H2036 C2040 0.949 . S
C2037 C2038 1.349 . S
C2037 C2039 1.327 . S
C2037 H2060 0.950 . S
C2038 C2037 1.349 . S
C2038 C2050 1.349 . S
C2039 C2037 1.327 . S
C2039 C2055 1.429 . S
C2039 H2061 0.950 . S
C2040 H2036 0.949 . S
C2040 C2048 1.574 . S
C2040 C2056 1.368 . S
H2041 C2049 0.950 . S
H2042 C2047 0.950 . S
H2043 C2048 0.949 . S
H2044 C2050 0.950 . S
H2045 C2051 0.950 . S
H2046 C2052 0.949 . S
C2047 H2042 0.950 . S
C2047 C2049 1.327 . S
C2047 C2053 1.429 . S
C2048 C2040 1.574 . S
C2048 H2043 0.949 . S
C2048 C2054 1.368 . S
C2049 C2033 1.349 . S
C2049 H2041 0.950 . S
C2049 C2047 1.327 . S
C2050 C2038 1.349 . S
C2050 H2044 0.950 . S
C2050 C2051 1.327 . S
C2051 H2045 0.950 . S
C2051 C2050 1.327 . S
C2051 C2055 1.429 . S
C2052 C2035 1.574 . S
C2052 H2046 0.949 . S
C2052 C2056 1.368 . S
C2053 C2034 1.429 . S
C2053 C2047 1.429 . S
C2053 C2054 1.523 . S
C2054 C2035 1.368 . S
C2054 C2048 1.368 . S
C2054 C2053 1.523 . S
C2055 C2039 1.429 . S
C2055 C2051 1.429 . S
C2055 C2056 1.523 . S
C2056 C2040 1.368 . S
C2056 C2052 1.368 . S
C2056 C2055 1.523 . S
H2057 C2032 0.950 . S
H2058 C2034 0.950 . S
H2059 C2035 0.949 . S
H2060 C2037 0.950 . S
H2061 C2039 0.950 . S
C2062 C2063 1.349 . S
C2062 C2064 1.327 . S
C2062 H2087 0.950 . S
C2063 C2062 1.349 . S
C2063 C2079 1.349 . S
C2064 C2062 1.327 . S
C2064 C2083 1.429 . S
C2064 H2088 0.950 . S
C2065 C2082 1.574 . S
C2065 C2084 1.368 . S
C2065 H2089 0.949 . S
H2066 C2070 0.949 . S
C2067 C2068 1.349 . S
C2067 C2069 1.327 . S
C2067 H2090 0.950 . S
C2068 C2067 1.349 . S
C2068 C2080 1.349 . S
C2069 C2067 1.327 . S
C2069 C2085 1.429 . S
C2069 H2091 0.950 . S
C2070 H2066 0.949 . S
C2070 C2078 1.574 . S
C2070 C2086 1.368 . S
H2071 C2079 0.950 . S
H2072 C2077 0.950 . S
H2073 C2078 0.949 . S
H2074 C2080 0.950 . S
H2075 C2081 0.950 . S
H2076 C2082 0.949 . S
C2077 H2072 0.950 . S
C2077 C2079 1.327 . S
C2077 C2083 1.429 . S
C2078 C2070 1.574 . S
C2078 H2073 0.949 . S
C2078 C2084 1.368 . S
C2079 C2063 1.349 . S
C2079 H2071 0.950 . S
C2079 C2077 1.327 . S
C2080 C2068 1.349 . S
C2080 H2074 0.950 . S
C2080 C2081 1.327 . S
C2081 H2075 0.950 . S
C2081 C2080 1.327 . S
C2081 C2085 1.429 . S
C2082 C2065 1.574 . S
C2082 H2076 0.949 . S
C2082 C2086 1.368 . S
C2083 C2064 1.429 . S
C2083 C2077 1.429 . S
C2083 C2084 1.523 . S
C2084 C2065 1.368 . S
C2084 C2078 1.368 . S
C2084 C2083 1.523 . S
C2085 C2069 1.429 . S
C2085 C2081 1.429 . S
C2085 C2086 1.523 . S
C2086 C2070 1.368 . S
C2086 C2082 1.368 . S
C2086 C2085 1.523 . S
H2087 C2062 0.950 . S
H2088 C2064 0.950 . S
H2089 C2065 0.949 . S
H2090 C2067 0.950 . S
H2091 C2069 0.950 . S
C2092 C2093 1.349 . S
C2092 C2094 1.327 . S
C2092 H2117 0.950 . S
C2093 C2092 1.349 . S
C2093 C2109 1.349 . S
C2094 C2092 1.327 . S
C2094 C2113 1.429 . S
C2094 H2118 0.950 . S
C2095 C2112 1.574 . S
C2095 C2114 1.368 . S
C2095 H2119 0.949 . S
H2096 C2100 0.949 . S
C2097 C2098 1.349 . S
C2097 C2099 1.327 . S
C2097 H2120 0.950 . S
C2098 C2097 1.349 . S
C2098 C2110 1.349 . S
C2099 C2097 1.327 . S
C2099 C2115 1.429 . S
C2099 H2121 0.950 . S
C2100 H2096 0.949 . S
C2100 C2108 1.574 . S
C2100 C2116 1.368 . S
H2101 C2109 0.950 . S
H2102 C2107 0.950 . S
H2103 C2108 0.949 . S
H2104 C2110 0.950 . S
H2105 C2111 0.950 . S
H2106 C2112 0.949 . S
C2107 H2102 0.950 . S
C2107 C2109 1.327 . S
C2107 C2113 1.429 . S
C2108 C2100 1.574 . S
C2108 H2103 0.949 . S
C2108 C2114 1.368 . S
C2109 C2093 1.349 . S
C2109 H2101 0.950 . S
C2109 C2107 1.327 . S
C2110 C2098 1.349 . S
C2110 H2104 0.950 . S
C2110 C2111 1.327 . S
C2111 H2105 0.950 . S
C2111 C2110 1.327 . S
C2111 C2115 1.429 . S
C2112 C2095 1.574 . S
C2112 H2106 0.949 . S
C2112 C2116 1.368 . S
C2113 C2094 1.429 . S
C2113 C2107 1.429 . S
C2113 C2114 1.523 . S
C2114 C2095 1.368 . S
C2114 C2108 1.368 . S
C2114 C2113 1.523 . S
C2115 C2099 1.429 . S
C2115 C2111 1.429 . S
C2115 C2116 1.523 . S
C2116 C2100 1.368 . S
C2116 C2112 1.368 . S
C2116 C2115 1.523 . S
H2117 C2092 0.950 . S
H2118 C2094 0.950 . S
H2119 C2095 0.949 . S
H2120 C2097 0.950 . S
H2121 C2099 0.950 . S
C2122 C2123 1.349 . S
C2122 C2124 1.327 . S
C2122 H2147 0.950 . S
C2123 C2122 1.349 . S
C2123 C2139 1.349 . S
C2124 C2122 1.327 . S
C2124 C2143 1.429 . S
C2124 H2148 0.950 . S
C2125 C2142 1.574 . S
C2125 C2144 1.368 . S
C2125 H2149 0.949 . S
H2126 C2130 0.949 . S
C2127 C2128 1.349 . S
C2127 C2129 1.327 . S
C2127 H2150 0.950 . S
C2128 C2127 1.349 . S
C2128 C2140 1.349 . S
C2129 C2127 1.327 . S
C2129 C2145 1.429 . S
C2129 H2151 0.950 . S
C2130 H2126 0.949 . S
C2130 C2138 1.574 . S
C2130 C2146 1.368 . S
H2131 C2139 0.950 . S
H2132 C2137 0.950 . S
H2133 C2138 0.949 . S
H2134 C2140 0.950 . S
H2135 C2141 0.950 . S
H2136 C2142 0.949 . S
C2137 H2132 0.950 . S
C2137 C2139 1.327 . S
C2137 C2143 1.429 . S
C2138 C2130 1.574 . S
C2138 H2133 0.949 . S
C2138 C2144 1.368 . S
C2139 C2123 1.349 . S
C2139 H2131 0.950 . S
C2139 C2137 1.327 . S
C2140 C2128 1.349 . S
C2140 H2134 0.950 . S
C2140 C2141 1.327 . S
C2141 H2135 0.950 . S
C2141 C2140 1.327 . S
C2141 C2145 1.429 . S
C2142 C2125 1.574 . S
C2142 H2136 0.949 . S
C2142 C2146 1.368 . S
C2143 C2124 1.429 . S
C2143 C2137 1.429 . S
C2143 C2144 1.523 . S
C2144 C2125 1.368 . S
C2144 C2138 1.368 . S
C2144 C2143 1.523 . S
C2145 C2129 1.429 . S
C2145 C2141 1.429 . S
C2145 C2146 1.523 . S
C2146 C2130 1.368 . S
C2146 C2142 1.368 . S
C2146 C2145 1.523 . S
H2147 C2122 0.950 . S
H2148 C2124 0.950 . S
H2149 C2125 0.949 . S
H2150 C2127 0.950 . S
H2151 C2129 0.950 . S
C2152 C2153 1.349 1_556 S
C2152 C2154 1.327 . S
C2152 H2177 0.950 . S
C2153 C2152 1.349 1_554 S
C2153 C2169 1.349 . S
C2154 C2152 1.327 . S
C2154 C2173 1.429 1_556 S
C2154 H2178 0.950 . S
C2155 C2172 1.574 . S
C2155 C2174 1.368 . S
C2155 H2179 0.949 . S
H2156 C2160 0.949 . S
C2157 C2158 1.349 1_554 S
C2157 C2159 1.327 . S
C2157 H2180 0.950 . S
C2158 C2157 1.349 1_556 S
C2158 C2170 1.349 . S
C2159 C2157 1.327 . S
C2159 C2175 1.429 1_554 S
C2159 H2181 0.950 . S
C2160 H2156 0.949 . S
C2160 C2168 1.574 . S
C2160 C2176 1.420 . S
H2161 C2169 0.950 . S
H2162 C2167 0.950 . S
H2163 C2168 0.949 . S
H2164 C2170 0.950 . S
H2165 C2171 0.950 . S
H2166 C2172 0.949 . S
C2167 H2162 0.950 . S
C2167 C2169 1.327 . S
C2167 C2173 1.429 . S
C2168 C2160 1.574 . S
C2168 H2163 0.949 . S
C2168 C2174 1.368 1_556 S
C2169 C2153 1.349 . S
C2169 H2161 0.950 . S
C2169 C2167 1.327 . S
C2170 C2158 1.349 . S
C2170 H2164 0.950 . S
C2170 C2171 1.327 . S
C2171 H2165 0.950 . S
C2171 C2170 1.327 . S
C2171 C2175 1.429 . S
C2172 C2155 1.574 . S
C2172 H2166 0.949 . S
C2172 C2176 1.310 1_554 S
C2173 C2154 1.429 1_554 S
C2173 C2167 1.429 . S
C2173 C2174 1.523 . S
C2174 C2155 1.368 . S
C2174 C2168 1.368 1_554 S
C2174 C2173 1.523 . S
C2175 C2159 1.429 1_556 S
C2175 C2171 1.429 . S
C2175 C2176 1.534 . S
C2176 C2160 1.420 . S
C2176 C2172 1.310 1_556 S
C2176 C2175 1.534 . S
H2177 C2152 0.950 . S
H2178 C2154 0.950 . S
H2179 C2155 0.949 . S
H2180 C2157 0.950 . S
H2181 C2159 0.950 . S
C2182 C2183 1.349 . S
C2182 C2184 1.327 . S
C2182 H2207 0.950 . S
C2183 C2182 1.349 . S
C2183 C2199 1.349 . S
C2184 C2182 1.327 . S
C2184 C2203 1.429 . S
C2184 H2208 0.950 . S
C2185 C2202 1.574 . S
C2185 C2204 1.368 . S
C2185 H2209 0.949 . S
H2186 C2190 0.949 1_556 S
C2187 C2188 1.349 . S
C2187 C2189 1.327 . S
C2187 H2210 0.950 . S
C2188 C2187 1.349 . S
C2188 C2200 1.349 . S
C2189 C2187 1.327 . S
C2189 C2205 1.429 . S
C2189 H2211 0.950 . S
C2190 H2186 0.949 1_554 S
C2190 C2198 1.574 . S
C2190 C2206 1.368 . S
H2191 C2199 0.950 . S
H2192 C2197 0.950 . S
H2193 C2198 0.938 1_556 S
H2194 C2200 0.950 1_556 S
H2195 C2201 0.950 1_556 S
H2196 C2202 0.949 . S
C2197 H2192 0.950 . S
C2197 C2199 1.327 . S
C2197 C2203 1.429 . S
C2198 C2190 1.574 . S
C2198 H2193 0.938 1_554 S
C2198 C2204 1.368 . S
C2199 C2183 1.349 . S
C2199 H2191 0.950 . S
C2199 C2197 1.327 . S
C2200 C2188 1.349 . S
C2200 H2194 0.950 1_554 S
C2200 C2201 1.327 . S
C2201 H2195 0.950 1_554 S
C2201 C2200 1.327 . S
C2201 C2205 1.429 . S
C2202 C2185 1.574 . S
C2202 H2196 0.949 . S
C2202 C2206 1.368 . S
C2203 C2184 1.429 . S
C2203 C2197 1.429 . S
C2203 C2204 1.523 . S
C2204 C2185 1.368 . S
C2204 C2198 1.368 . S
C2204 C2203 1.523 . S
C2205 C2189 1.429 . S
C2205 C2201 1.429 . S
C2205 C2206 1.523 . S
C2206 C2190 1.368 . S
C2206 C2202 1.368 . S
C2206 C2205 1.523 . S
H2207 C2182 0.950 . S
H2208 C2184 0.950 . S
H2209 C2185 0.949 . S
H2210 C2187 0.950 . S
H2211 C2189 0.950 . S
C2212 C2213 1.349 . S
C2212 C2214 1.327 . S
C2212 H2237 0.950 . S
C2213 C2212 1.349 . S
C2213 C2229 1.349 . S
C2214 C2212 1.327 . S
C2214 C2233 1.429 . S
C2214 H2238 0.950 . S
C2215 C2232 1.574 . S
C2215 C2234 1.368 . S
C2215 H2239 0.949 . S
H2216 C2220 0.949 . S
C2217 C2218 1.349 . S
C2217 C2219 1.327 . S
C2217 H2240 0.950 . S
C2218 C2217 1.349 . S
C2218 C2230 1.349 . S
C2219 C2217 1.327 . S
C2219 C2235 1.429 . S
C2219 H2241 0.950 . S
C2220 H2216 0.949 . S
C2220 C2228 1.574 . S
C2220 C2236 1.368 . S
H2221 C2229 0.950 . S
H2222 C2227 0.950 . S
H2223 C2228 0.949 . S
H2224 C2230 0.950 . S
H2225 C2231 0.950 . S
H2226 C2232 0.949 . S
C2227 H2222 0.950 . S
C2227 C2229 1.327 . S
C2227 C2233 1.429 . S
C2228 C2220 1.574 . S
C2228 H2223 0.949 . S
C2228 C2234 1.368 . S
C2229 C2213 1.349 . S
C2229 H2221 0.950 . S
C2229 C2227 1.327 . S
C2230 C2218 1.349 . S
C2230 H2224 0.950 . S
C2230 C2231 1.327 . S
C2231 H2225 0.950 . S
C2231 C2230 1.327 . S
C2231 C2235 1.429 . S
C2232 C2215 1.574 . S
C2232 H2226 0.949 . S
C2232 C2236 1.368 . S
C2233 C2214 1.429 . S
C2233 C2227 1.429 . S
C2233 C2234 1.523 . S
C2234 C2215 1.368 . S
C2234 C2228 1.368 . S
C2234 C2233 1.523 . S
C2235 C2219 1.429 . S
C2235 C2231 1.429 . S
C2235 C2236 1.523 . S
C2236 C2220 1.368 . S
C2236 C2232 1.368 . S
C2236 C2235 1.523 . S
H2237 C2212 0.950 . S
H2238 C2214 0.950 . S
H2239 C2215 0.949 . S
H2240 C2217 0.950 . S
H2241 C2219 0.950 . S
C2242 C2243 1.349 . S
C2242 C2244 1.327 . S
C2242 H2267 0.950 . S
C2243 C2242 1.349 . S
C2243 C2259 1.349 . S
C2244 C2242 1.327 . S
C2244 C2263 1.429 . S
C2244 H2268 0.950 . S
C2245 C2262 1.574 . S
C2245 C2264 1.368 . S
C2245 H2269 0.949 . S
H2246 C2250 0.949 . S
C2247 C2248 1.349 . S
C2247 C2249 1.327 . S
C2247 H2270 0.950 . S
C2248 C2247 1.349 . S
C2248 C2260 1.349 . S
C2249 C2247 1.327 . S
C2249 C2265 1.429 . S
C2249 H2271 0.950 . S
C2250 H2246 0.949 . S
C2250 C2258 1.574 . S
C2250 C2266 1.368 . S
H2251 C2259 0.950 . S
H2252 C2257 0.950 . S
H2253 C2258 0.949 . S
H2254 C2260 0.950 . S
H2255 C2261 0.950 . S
H2256 C2262 0.949 . S
C2257 H2252 0.950 . S
C2257 C2259 1.327 . S
C2257 C2263 1.429 . S
C2258 C2250 1.574 . S
C2258 H2253 0.949 . S
C2258 C2264 1.368 . S
C2259 C2243 1.349 . S
C2259 H2251 0.950 . S
C2259 C2257 1.327 . S
C2260 C2248 1.349 . S
C2260 H2254 0.950 . S
C2260 C2261 1.327 . S
C2261 H2255 0.950 . S
C2261 C2260 1.327 . S
C2261 C2265 1.429 . S
C2262 C2245 1.574 . S
C2262 H2256 0.949 . S
C2262 C2266 1.368 . S
C2263 C2244 1.429 . S
C2263 C2257 1.429 . S
C2263 C2264 1.523 . S
C2264 C2245 1.368 . S
C2264 C2258 1.368 . S
C2264 C2263 1.523 . S
C2265 C2249 1.429 . S
C2265 C2261 1.429 . S
C2265 C2266 1.523 . S
C2266 C2250 1.368 . S
C2266 C2262 1.368 . S
C2266 C2265 1.523 . S
H2267 C2242 0.950 . S
H2268 C2244 0.950 . S
H2269 C2245 0.949 . S
H2270 C2247 0.950 . S
H2271 C2249 0.950 . S
C2272 C2273 1.349 . S
C2272 C2274 1.327 . S
C2272 H2297 0.950 . S
C2273 C2272 1.349 . S
C2273 C2289 1.349 . S
C2274 C2272 1.327 . S
C2274 C2293 1.429 . S
C2274 H2298 0.950 . S
C2275 C2292 1.574 . S
C2275 C2294 1.368 . S
C2275 H2299 0.949 . S
H2276 C2280 0.949 . S
C2277 C2278 1.349 . S
C2277 C2279 1.327 . S
C2277 H2300 0.950 . S
C2278 C2277 1.349 . S
C2278 C2290 1.349 . S
C2279 C2277 1.327 . S
C2279 C2295 1.429 . S
C2279 H2301 0.950 . S
C2280 H2276 0.949 . S
C2280 C2288 1.574 . S
C2280 C2296 1.368 . S
H2281 C2289 0.950 . S
H2282 C2287 0.950 . S
H2283 C2288 0.949 . S
H2284 C2290 0.950 . S
H2285 C2291 0.950 . S
H2286 C2292 0.949 . S
C2287 H2282 0.950 . S
C2287 C2289 1.327 . S
C2287 C2293 1.429 . S
C2288 C2280 1.574 . S
C2288 H2283 0.949 . S
C2288 C2294 1.368 . S
C2289 C2273 1.349 . S
C2289 H2281 0.950 . S
C2289 C2287 1.327 . S
C2290 C2278 1.349 . S
C2290 H2284 0.950 . S
C2290 C2291 1.327 . S
C2291 H2285 0.950 . S
C2291 C2290 1.327 . S
C2291 C2295 1.429 . S
C2292 C2275 1.574 . S
C2292 H2286 0.949 . S
C2292 C2296 1.368 . S
C2293 C2274 1.429 . S
C2293 C2287 1.429 . S
C2293 C2294 1.523 . S
C2294 C2275 1.368 . S
C2294 C2288 1.368 . S
C2294 C2293 1.523 . S
C2295 C2279 1.429 . S
C2295 C2291 1.429 . S
C2295 C2296 1.523 . S
C2296 C2280 1.368 . S
C2296 C2292 1.368 . S
C2296 C2295 1.523 . S
H2297 C2272 0.950 . S
H2298 C2274 0.950 . S
H2299 C2275 0.949 . S
H2300 C2277 0.950 . S
H2301 C2279 0.950 . S
C2302 C2303 1.349 . S
C2302 C2304 1.327 . S
C2302 H2327 0.950 . S
C2303 C2302 1.349 . S
C2303 C2319 1.349 . S
C2304 C2302 1.327 . S
C2304 C2323 1.429 . S
C2304 H2328 0.950 . S
C2305 C2322 1.574 . S
C2305 C2324 1.368 . S
C2305 H2329 0.949 . S
H2306 C2310 0.949 . S
C2307 C2308 1.349 . S
C2307 C2309 1.327 . S
C2307 H2330 0.950 . S
C2308 C2307 1.349 . S
C2308 C2320 1.349 . S
C2309 C2307 1.327 . S
C2309 C2325 1.429 . S
C2309 H2331 0.950 . S
C2310 H2306 0.949 . S
C2310 C2318 1.574 . S
C2310 C2326 1.368 . S
H2311 C2319 0.950 . S
H2312 C2317 0.950 . S
H2313 C2318 0.949 . S
H2314 C2320 0.950 1_545 S
H2315 C2321 0.950 . S
H2316 C2322 0.949 . S
C2317 H2312 0.950 . S
C2317 C2319 1.327 . S
C2317 C2323 1.429 . S
C2318 C2310 1.574 . S
C2318 H2313 0.949 . S
C2318 C2324 1.368 . S
C2319 C2303 1.349 . S
C2319 H2311 0.950 . S
C2319 C2317 1.327 . S
C2320 C2308 1.349 . S
C2320 H2314 0.950 1_565 S
C2320 C2321 1.327 . S
C2321 H2315 0.950 . S
C2321 C2320 1.327 . S
C2321 C2325 1.429 . S
C2322 C2305 1.574 . S
C2322 H2316 0.949 . S
C2322 C2326 1.368 . S
C2323 C2304 1.429 . S
C2323 C2317 1.429 . S
C2323 C2324 1.523 . S
C2324 C2305 1.368 . S
C2324 C2318 1.368 . S
C2324 C2323 1.523 . S
C2325 C2309 1.429 . S
C2325 C2321 1.429 . S
C2325 C2326 1.523 . S
C2326 C2310 1.368 . S
C2326 C2322 1.368 . S
C2326 C2325 1.523 . S
H2327 C2302 0.950 . S
H2328 C2304 0.950 . S
H2329 C2305 0.949 . S
H2330 C2307 0.950 . S
H2331 C2309 0.950 . S
C2332 C2333 1.349 . S
C2332 C2334 1.327 . S
C2332 H2357 0.950 . S
C2333 C2332 1.349 . S
C2333 C2349 1.349 . S
C2334 C2332 1.327 . S
C2334 C2353 1.429 . S
C2334 H2358 0.950 . S
C2335 C2352 1.574 . S
C2335 C2354 1.368 . S
C2335 H2359 0.949 . S
H2336 C2340 0.949 . S
C2337 C2338 1.349 . S
C2337 C2339 1.327 . S
C2337 H2360 0.950 . S
C2338 C2337 1.349 . S
C2338 C2350 1.349 . S
C2339 C2337 1.327 . S
C2339 C2355 1.429 . S
C2339 H2361 0.950 . S
C2340 H2336 0.949 . S
C2340 C2348 1.574 . S
C2340 C2356 1.368 . S
H2341 C2349 0.950 . S
H2342 C2347 0.950 . S
H2343 C2348 0.949 . S
H2344 C2350 0.950 . S
H2345 C2351 0.950 . S
H2346 C2352 0.949 . S
C2347 H2342 0.950 . S
C2347 C2349 1.327 . S
C2347 C2353 1.429 . S
C2348 C2340 1.574 . S
C2348 H2343 0.949 . S
C2348 C2354 1.368 . S
C2349 C2333 1.349 . S
C2349 H2341 0.950 . S
C2349 C2347 1.327 . S
C2350 C2338 1.349 . S
C2350 H2344 0.950 . S
C2350 C2351 1.327 . S
C2351 H2345 0.950 . S
C2351 C2350 1.327 . S
C2351 C2355 1.429 . S
C2352 C2335 1.574 . S
C2352 H2346 0.949 . S
C2352 C2356 1.368 . S
C2353 C2334 1.429 . S
C2353 C2347 1.429 . S
C2353 C2354 1.523 . S
C2354 C2335 1.368 . S
C2354 C2348 1.368 . S
C2354 C2353 1.523 . S
C2355 C2339 1.429 . S
C2355 C2351 1.429 . S
C2355 C2356 1.523 . S
C2356 C2340 1.368 . S
C2356 C2352 1.368 . S
C2356 C2355 1.523 . S
H2357 C2332 0.950 . S
H2358 C2334 0.950 . S
H2359 C2335 0.949 . S
H2360 C2337 0.950 . S
H2361 C2339 0.950 . S
C2362 C2363 1.349 . S
C2362 C2364 1.327 . S
C2362 H2387 0.950 . S
C2363 C2362 1.349 . S
C2363 C2379 1.349 . S
C2364 C2362 1.327 . S
C2364 C2383 1.429 . S
C2364 H2388 0.950 . S
C2365 C2382 1.574 . S
C2365 C2384 1.368 . S
C2365 H2389 0.949 . S
H2366 C2370 0.949 . S
C2367 C2368 1.349 . S
C2367 C2369 1.327 . S
C2367 H2390 0.950 . S
C2368 C2367 1.349 . S
C2368 C2380 1.349 . S
C2369 C2367 1.327 . S
C2369 C2385 1.429 . S
C2369 H2391 0.950 . S
C2370 H2366 0.949 . S
C2370 C2378 1.574 . S
C2370 C2386 1.368 . S
H2371 C2379 0.950 . S
H2372 C2377 0.950 . S
H2373 C2378 0.949 . S
H2374 C2380 0.950 . S
H2375 C2381 0.950 . S
H2376 C2382 0.949 . S
C2377 H2372 0.950 . S
C2377 C2379 1.327 . S
C2377 C2383 1.429 . S
C2378 C2370 1.574 . S
C2378 H2373 0.949 . S
C2378 C2384 1.368 . S
C2379 C2363 1.349 . S
C2379 H2371 0.950 . S
C2379 C2377 1.327 . S
C2380 C2368 1.349 . S
C2380 H2374 0.950 . S
C2380 C2381 1.327 . S
C2381 H2375 0.950 . S
C2381 C2380 1.327 . S
C2381 C2385 1.429 . S
C2382 C2365 1.574 . S
C2382 H2376 0.949 . S
C2382 C2386 1.368 . S
C2383 C2364 1.429 . S
C2383 C2377 1.429 . S
C2383 C2384 1.523 . S
C2384 C2365 1.368 . S
C2384 C2378 1.368 . S
C2384 C2383 1.523 . S
C2385 C2369 1.429 . S
C2385 C2381 1.429 . S
C2385 C2386 1.523 . S
C2386 C2370 1.368 . S
C2386 C2382 1.368 . S
C2386 C2385 1.523 . S
H2387 C2362 0.950 . S
H2388 C2364 0.950 . S
H2389 C2365 0.949 . S
H2390 C2367 0.950 . S
H2391 C2369 0.950 . S
C2392 C2393 1.349 . S
C2392 C2394 1.327 . S
C2392 H2417 0.950 . S
C2393 C2392 1.349 . S
C2393 C2409 1.349 . S
C2394 C2392 1.327 . S
C2394 C2413 1.429 . S
C2394 H2418 0.950 . S
C2395 C2412 1.574 . S
C2395 C2414 1.368 . S
C2395 H2419 0.949 . S
H2396 C2400 0.949 . S
C2397 C2398 1.349 . S
C2397 C2399 1.327 . S
C2397 H2420 0.950 . S
C2398 C2397 1.349 . S
C2398 C2410 1.349 . S
C2399 C2397 1.327 . S
C2399 C2415 1.429 . S
C2399 H2421 0.950 . S
C2400 H2396 0.949 . S
C2400 C2408 1.574 . S
C2400 C2416 1.368 . S
H2401 C2409 0.950 . S
H2402 C2407 0.950 . S
H2403 C2408 0.949 . S
H2404 C2410 0.950 . S
H2405 C2411 0.950 . S
H2406 C2412 0.949 . S
C2407 H2402 0.950 . S
C2407 C2409 1.327 . S
C2407 C2413 1.429 . S
C2408 C2400 1.574 . S
C2408 H2403 0.949 . S
C2408 C2414 1.368 . S
C2409 C2393 1.349 . S
C2409 H2401 0.950 . S
C2409 C2407 1.327 . S
C2410 C2398 1.349 . S
C2410 H2404 0.950 . S
C2410 C2411 1.327 . S
C2411 H2405 0.950 . S
C2411 C2410 1.327 . S
C2411 C2415 1.429 . S
C2412 C2395 1.574 . S
C2412 H2406 0.949 . S
C2412 C2416 1.368 . S
C2413 C2394 1.429 . S
C2413 C2407 1.429 . S
C2413 C2414 1.523 . S
C2414 C2395 1.368 . S
C2414 C2408 1.368 . S
C2414 C2413 1.523 . S
C2415 C2399 1.429 . S
C2415 C2411 1.429 . S
C2415 C2416 1.523 . S
C2416 C2400 1.368 . S
C2416 C2412 1.368 . S
C2416 C2415 1.523 . S
H2417 C2392 0.950 . S
H2418 C2394 0.950 . S
H2419 C2395 0.949 . S
H2420 C2397 0.950 . S
H2421 C2399 0.950 . S
C2422 C2423 1.349 . S
C2422 C2424 1.327 . S
C2422 H2447 0.950 . S
C2423 C2422 1.349 . S
C2423 C2439 1.349 . S
C2424 C2422 1.327 . S
C2424 C2443 1.429 . S
C2424 H2448 0.950 . S
C2425 C2442 1.574 . S
C2425 C2444 1.368 . S
C2425 H2449 0.949 . S
H2426 C2430 0.949 . S
C2427 C2428 1.349 . S
C2427 C2429 1.327 . S
C2427 H2450 0.950 . S
C2428 C2427 1.349 . S
C2428 C2440 1.349 . S
C2429 C2427 1.327 . S
C2429 C2445 1.429 . S
C2429 H2451 0.950 . S
C2430 H2426 0.949 . S
C2430 C2438 1.574 . S
C2430 C2446 1.368 . S
H2431 C2439 0.950 . S
H2432 C2437 0.950 . S
H2433 C2438 0.949 . S
H2434 C2440 0.950 . S
H2435 C2441 0.950 . S
H2436 C2442 0.949 . S
C2437 H2432 0.950 . S
C2437 C2439 1.327 . S
C2437 C2443 1.429 . S
C2438 C2430 1.574 . S
C2438 H2433 0.949 . S
C2438 C2444 1.368 . S
C2439 C2423 1.349 . S
C2439 H2431 0.950 . S
C2439 C2437 1.327 . S
C2440 C2428 1.349 . S
C2440 H2434 0.950 . S
C2440 C2441 1.327 . S
C2441 H2435 0.950 . S
C2441 C2440 1.327 . S
C2441 C2445 1.429 . S
C2442 C2425 1.574 . S
C2442 H2436 0.949 . S
C2442 C2446 1.368 . S
C2443 C2424 1.429 . S
C2443 C2437 1.429 . S
C2443 C2444 1.523 . S
C2444 C2425 1.368 . S
C2444 C2438 1.368 . S
C2444 C2443 1.523 . S
C2445 C2429 1.429 . S
C2445 C2441 1.429 . S
C2445 C2446 1.523 . S
C2446 C2430 1.368 . S
C2446 C2442 1.368 . S
C2446 C2445 1.523 . S
H2447 C2422 0.950 . S
H2448 C2424 0.950 . S
H2449 C2425 0.949 . S
H2450 C2427 0.950 . S
H2451 C2429 0.950 . S
C2452 C2453 1.349 . S
C2452 C2454 1.327 . S
C2452 H2477 0.950 . S
C2453 C2452 1.349 . S
C2453 C2469 1.349 . S
C2454 C2452 1.327 . S
C2454 C2473 1.429 . S
C2454 H2478 0.950 . S
C2455 C2472 1.574 . S
C2455 C2474 1.368 . S
C2455 H2479 0.949 . S
H2456 C2460 0.949 1_554 S
C2457 C2458 1.380 . S
C2457 C2459 1.311 1_554 S
C2457 H2480 0.936 1_554 S
C2458 C2457 1.380 . S
C2458 C2470 1.349 . S
C2459 C2457 1.311 1_556 S
C2459 C2475 1.429 . S
C2459 H2481 0.950 . S
C2460 H2456 0.949 1_556 S
C2460 C2468 1.574 . S
C2460 C2476 1.368 . S
H2461 C2469 0.950 . S
H2462 C2467 0.950 . S
H2463 C2468 0.949 . S
H2464 C2470 0.950 . S
H2465 C2471 0.950 . S
H2466 C2472 0.949 . S
C2467 H2462 0.950 . S
C2467 C2469 1.327 . S
C2467 C2473 1.429 . S
C2468 C2460 1.574 . S
C2468 H2463 0.949 . S
C2468 C2474 1.368 . S
C2469 C2453 1.349 . S
C2469 H2461 0.950 . S
C2469 C2467 1.327 . S
C2470 C2458 1.349 . S
C2470 H2464 0.950 . S
C2470 C2471 1.327 . S
C2471 H2465 0.950 . S
C2471 C2470 1.327 . S
C2471 C2475 1.429 1_554 S
C2472 C2455 1.574 . S
C2472 H2466 0.949 . S
C2472 C2476 1.368 . S
C2473 C2454 1.429 . S
C2473 C2467 1.429 . S
C2473 C2474 1.523 . S
C2474 C2455 1.368 . S
C2474 C2468 1.368 . S
C2474 C2473 1.523 . S
C2475 C2459 1.429 . S
C2475 C2471 1.429 1_556 S
C2475 C2476 1.523 . S
C2476 C2460 1.368 . S
C2476 C2472 1.368 . S
C2476 C2475 1.523 . S
H2477 C2452 0.950 . S
H2478 C2454 0.950 . S
H2479 C2455 0.949 . S
H2480 C2457 0.936 1_556 S
H2481 C2459 0.950 . S
C2482 C2483 1.349 . S
C2482 C2484 1.327 1_455 S
C2482 H2507 0.950 . S
C2483 C2482 1.349 . S
C2483 C2499 1.349 . S
C2484 C2482 1.327 1_655 S
C2484 C2503 1.429 . S
C2484 H2508 0.950 . S
C2485 C2502 1.574 . S
C2485 C2504 1.368 . S
C2485 H2509 0.949 . S
H2486 C2490 0.949 . S
C2487 C2488 1.349 . S
C2487 C2489 1.327 . S
C2487 H2510 0.950 . S
C2488 C2487 1.349 . S
C2488 C2500 1.349 . S
C2489 C2487 1.327 . S
C2489 C2505 1.429 . S
C2489 H2511 0.950 . S
C2490 H2486 0.949 . S
C2490 C2498 1.574 . S
C2490 C2506 1.368 . S
H2491 C2499 0.950 . S
H2492 C2497 0.915 1_655 S
H2493 C2498 0.949 . S
H2494 C2500 0.950 . S
H2495 C2501 0.950 . S
H2496 C2502 0.949 . S
C2497 H2492 0.915 1_455 S
C2497 C2499 1.375 . S
C2497 C2503 1.402 1_455 S
C2498 C2490 1.574 . S
C2498 H2493 0.949 . S
C2498 C2504 1.368 . S
C2499 C2483 1.349 . S
C2499 H2491 0.950 . S
C2499 C2497 1.375 . S
C2500 C2488 1.349 . S
C2500 H2494 0.950 . S
C2500 C2501 1.327 . S
C2501 H2495 0.950 . S
C2501 C2500 1.327 . S
C2501 C2505 1.429 . S
C2502 C2485 1.574 . S
C2502 H2496 0.949 . S
C2502 C2506 1.368 . S
C2503 C2484 1.429 . S
C2503 C2497 1.402 1_655 S
C2503 C2504 1.523 . S
C2504 C2485 1.368 . S
C2504 C2498 1.368 . S
C2504 C2503 1.523 . S
C2505 C2489 1.429 . S
C2505 C2501 1.429 . S
C2505 C2506 1.523 . S
C2506 C2490 1.368 . S
C2506 C2502 1.368 . S
C2506 C2505 1.523 . S
H2507 C2482 0.950 . S
H2508 C2484 0.950 . S
H2509 C2485 0.949 . S
H2510 C2487 0.950 . S
H2511 C2489 0.950 . S
C2512 C2513 1.349 . S
C2512 C2514 1.327 . S
C2512 H2537 0.950 . S
C2513 C2512 1.349 . S
C2513 C2529 1.349 . S
C2514 C2512 1.327 . S
C2514 C2533 1.429 . S
C2514 H2538 0.950 . S
C2515 C2532 1.574 . S
C2515 C2534 1.368 . S
C2515 H2539 0.949 . S
H2516 C2520 0.949 . S
C2517 C2518 1.349 . S
C2517 C2519 1.327 . S
C2517 H2540 0.950 . S
C2518 C2517 1.349 . S
C2518 C2530 1.349 . S
C2519 C2517 1.327 . S
C2519 C2535 1.429 . S
C2519 H2541 0.950 . S
C2520 H2516 0.949 . S
C2520 C2528 1.574 . S
C2520 C2536 1.368 . S
H2521 C2529 0.950 . S
H2522 C2527 0.950 . S
H2523 C2528 0.949 . S
H2524 C2530 0.950 . S
H2525 C2531 0.950 . S
H2526 C2532 0.949 . S
C2527 H2522 0.950 . S
C2527 C2529 1.327 . S
C2527 C2533 1.429 . S
C2528 C2520 1.574 . S
C2528 H2523 0.949 . S
C2528 C2534 1.368 . S
C2529 C2513 1.349 . S
C2529 H2521 0.950 . S
C2529 C2527 1.327 . S
C2530 C2518 1.349 . S
C2530 H2524 0.950 . S
C2530 C2531 1.327 . S
C2531 H2525 0.950 . S
C2531 C2530 1.327 . S
C2531 C2535 1.429 . S
C2532 C2515 1.574 . S
C2532 H2526 0.949 . S
C2532 C2536 1.368 . S
C2533 C2514 1.429 . S
C2533 C2527 1.429 . S
C2533 C2534 1.523 . S
C2534 C2515 1.368 . S
C2534 C2528 1.368 . S
C2534 C2533 1.523 . S
C2535 C2519 1.429 . S
C2535 C2531 1.429 . S
C2535 C2536 1.523 . S
C2536 C2520 1.368 . S
C2536 C2532 1.368 . S
C2536 C2535 1.523 . S
H2537 C2512 0.950 . S
H2538 C2514 0.950 . S
H2539 C2515 0.949 . S
H2540 C2517 0.950 . S
H2541 C2519 0.950 . S
C2542 C2543 1.349 . S
C2542 C2544 1.327 . S
C2542 H2567 0.950 . S
C2543 C2542 1.349 . S
C2543 C2559 1.349 . S
C2544 C2542 1.327 . S
C2544 C2563 1.429 . S
C2544 H2568 0.950 . S
C2545 C2562 1.574 . S
C2545 C2564 1.368 . S
C2545 H2569 0.949 . S
H2546 C2550 0.949 . S
C2547 C2548 1.349 . S
C2547 C2549 1.327 . S
C2547 H2570 0.950 . S
C2548 C2547 1.349 . S
C2548 C2560 1.349 . S
C2549 C2547 1.327 . S
C2549 C2565 1.429 . S
C2549 H2571 0.950 . S
C2550 H2546 0.949 . S
C2550 C2558 1.574 . S
C2550 C2566 1.368 . S
H2551 C2559 0.950 . S
H2552 C2557 0.950 . S
H2553 C2558 0.949 . S
H2554 C2560 0.950 . S
H2555 C2561 0.950 . S
H2556 C2562 0.949 . S
C2557 H2552 0.950 . S
C2557 C2559 1.327 . S
C2557 C2563 1.429 . S
C2558 C2550 1.574 . S
C2558 H2553 0.949 . S
C2558 C2564 1.368 . S
C2559 C2543 1.349 . S
C2559 H2551 0.950 . S
C2559 C2557 1.327 . S
C2560 C2548 1.349 . S
C2560 H2554 0.950 . S
C2560 C2561 1.327 . S
C2561 H2555 0.950 . S
C2561 C2560 1.327 . S
C2561 C2565 1.429 . S
C2562 C2545 1.574 . S
C2562 H2556 0.949 . S
C2562 C2566 1.368 . S
C2563 C2544 1.429 . S
C2563 C2557 1.429 . S
C2563 C2564 1.523 . S
C2564 C2545 1.368 . S
C2564 C2558 1.368 . S
C2564 C2563 1.523 . S
C2565 C2549 1.429 . S
C2565 C2561 1.429 . S
C2565 C2566 1.523 . S
C2566 C2550 1.368 . S
C2566 C2562 1.368 . S
C2566 C2565 1.523 . S
H2567 C2542 0.950 . S
H2568 C2544 0.950 . S
H2569 C2545 0.949 . S
H2570 C2547 0.950 . S
H2571 C2549 0.950 . S
C2572 C2573 1.349 . S
C2572 C2574 1.327 . S
C2572 H2597 0.950 . S
C2573 C2572 1.349 . S
C2573 C2589 1.349 . S
C2574 C2572 1.327 . S
C2574 C2593 1.429 . S
C2574 H2598 0.950 . S
C2575 C2592 1.574 . S
C2575 C2594 1.368 . S
C2575 H2599 0.949 . S
H2576 C2580 0.949 . S
C2577 C2578 1.349 . S
C2577 C2579 1.327 . S
C2577 H2600 0.950 . S
C2578 C2577 1.349 . S
C2578 C2590 1.349 . S
C2579 C2577 1.327 . S
C2579 C2595 1.429 . S
C2579 H2601 0.950 . S
C2580 H2576 0.949 . S
C2580 C2588 1.574 . S
C2580 C2596 1.368 . S
H2581 C2589 0.950 . S
H2582 C2587 0.950 . S
H2583 C2588 0.949 . S
H2584 C2590 0.950 . S
H2585 C2591 0.950 . S
H2586 C2592 0.949 . S
C2587 H2582 0.950 . S
C2587 C2589 1.327 . S
C2587 C2593 1.429 . S
C2588 C2580 1.574 . S
C2588 H2583 0.949 . S
C2588 C2594 1.368 . S
C2589 C2573 1.349 . S
C2589 H2581 0.950 . S
C2589 C2587 1.327 . S
C2590 C2578 1.349 . S
C2590 H2584 0.950 . S
C2590 C2591 1.327 . S
C2591 H2585 0.950 . S
C2591 C2590 1.327 . S
C2591 C2595 1.429 . S
C2592 C2575 1.574 . S
C2592 H2586 0.949 . S
C2592 C2596 1.368 . S
C2593 C2574 1.429 . S
C2593 C2587 1.429 . S
C2593 C2594 1.523 . S
C2594 C2575 1.368 . S
C2594 C2588 1.368 . S
C2594 C2593 1.523 . S
C2595 C2579 1.429 . S
C2595 C2591 1.429 . S
C2595 C2596 1.523 . S
C2596 C2580 1.368 . S
C2596 C2592 1.368 . S
C2596 C2595 1.523 . S
H2597 C2572 0.950 . S
H2598 C2574 0.950 . S
H2599 C2575 0.949 . S
H2600 C2577 0.950 . S
H2601 C2579 0.950 . S
C2602 C2603 1.349 . S
C2602 C2604 1.327 . S
C2602 H2627 0.950 . S
C2603 C2602 1.349 . S
C2603 C2619 1.349 . S
C2604 C2602 1.327 . S
C2604 C2623 1.429 . S
C2604 H2628 0.950 . S
C2605 C2622 1.574 . S
C2605 C2624 1.368 . S
C2605 H2629 0.949 . S
H2606 C2610 0.949 . S
C2607 C2608 1.349 . S
C2607 C2609 1.327 . S
C2607 H2630 0.950 . S
C2608 C2607 1.349 . S
C2608 C2620 1.349 . S
C2609 C2607 1.327 . S
C2609 C2625 1.429 . S
C2609 H2631 0.950 . S
C2610 H2606 0.949 . S
C2610 C2618 1.574 . S
C2610 C2626 1.368 . S
H2611 C2619 0.950 . S
H2612 C2617 0.950 . S
H2613 C2618 0.949 . S
H2614 C2620 0.950 . S
H2615 C2621 0.950 . S
H2616 C2622 0.949 . S
C2617 H2612 0.950 . S
C2617 C2619 1.327 . S
C2617 C2623 1.429 . S
C2618 C2610 1.574 . S
C2618 H2613 0.949 . S
C2618 C2624 1.368 . S
C2619 C2603 1.349 . S
C2619 H2611 0.950 . S
C2619 C2617 1.327 . S
C2620 C2608 1.349 . S
C2620 H2614 0.950 . S
C2620 C2621 1.327 . S
C2621 H2615 0.950 . S
C2621 C2620 1.327 . S
C2621 C2625 1.429 . S
C2622 C2605 1.574 . S
C2622 H2616 0.949 . S
C2622 C2626 1.368 . S
C2623 C2604 1.429 . S
C2623 C2617 1.429 . S
C2623 C2624 1.523 . S
C2624 C2605 1.368 . S
C2624 C2618 1.368 . S
C2624 C2623 1.523 . S
C2625 C2609 1.429 . S
C2625 C2621 1.429 . S
C2625 C2626 1.523 . S
C2626 C2610 1.368 . S
C2626 C2622 1.368 . S
C2626 C2625 1.523 . S
H2627 C2602 0.950 . S
H2628 C2604 0.950 . S
H2629 C2605 0.949 . S
H2630 C2607 0.950 . S
H2631 C2609 0.950 . S
C2632 C2633 1.349 . S
C2632 C2634 1.327 . S
C2632 H2657 0.950 . S
C2633 C2632 1.349 . S
C2633 C2649 1.349 . S
C2634 C2632 1.327 . S
C2634 C2653 1.429 . S
C2634 H2658 0.950 . S
C2635 C2652 1.574 . S
C2635 C2654 1.368 . S
C2635 H2659 0.949 . S
H2636 C2640 0.949 . S
C2637 C2638 1.349 . S
C2637 C2639 1.327 . S
C2637 H2660 0.950 . S
C2638 C2637 1.349 . S
C2638 C2650 1.349 . S
C2639 C2637 1.327 . S
C2639 C2655 1.429 . S
C2639 H2661 0.950 . S
C2640 H2636 0.949 . S
C2640 C2648 1.574 . S
C2640 C2656 1.368 . S
H2641 C2649 0.950 . S
H2642 C2647 0.950 . S
H2643 C2648 0.949 . S
H2644 C2650 0.950 . S
H2645 C2651 0.950 . S
H2646 C2652 0.949 . S
C2647 H2642 0.950 . S
C2647 C2649 1.327 . S
C2647 C2653 1.429 . S
C2648 C2640 1.574 . S
C2648 H2643 0.949 . S
C2648 C2654 1.368 . S
C2649 C2633 1.349 . S
C2649 H2641 0.950 . S
C2649 C2647 1.327 . S
C2650 C2638 1.349 . S
C2650 H2644 0.950 . S
C2650 C2651 1.327 . S
C2651 H2645 0.950 . S
C2651 C2650 1.327 . S
C2651 C2655 1.429 . S
C2652 C2635 1.574 . S
C2652 H2646 0.949 . S
C2652 C2656 1.368 . S
C2653 C2634 1.429 . S
C2653 C2647 1.429 . S
C2653 C2654 1.523 . S
C2654 C2635 1.368 . S
C2654 C2648 1.368 . S
C2654 C2653 1.523 . S
C2655 C2639 1.429 . S
C2655 C2651 1.429 . S
C2655 C2656 1.523 . S
C2656 C2640 1.368 . S
C2656 C2652 1.368 . S
C2656 C2655 1.523 . S
H2657 C2632 0.950 . S
H2658 C2634 0.950 . S
H2659 C2635 0.949 . S
H2660 C2637 0.950 . S
H2661 C2639 0.950 . S
C2662 C2663 1.349 . S
C2662 C2664 1.327 . S
C2662 H2687 0.950 . S
C2663 C2662 1.349 . S
C2663 C2679 1.349 . S
C2664 C2662 1.327 . S
C2664 C2683 1.429 . S
C2664 H2688 0.950 . S
C2665 C2682 1.574 . S
C2665 C2684 1.368 . S
C2665 H2689 0.949 . S
H2666 C2670 0.949 . S
C2667 C2668 1.349 . S
C2667 C2669 1.327 . S
C2667 H2690 0.950 . S
C2668 C2667 1.349 . S
C2668 C2680 1.349 . S
C2669 C2667 1.327 . S
C2669 C2685 1.429 . S
C2669 H2691 0.950 . S
C2670 H2666 0.949 . S
C2670 C2678 1.574 . S
C2670 C2686 1.368 . S
H2671 C2679 0.950 . S
H2672 C2677 0.950 . S
H2673 C2678 0.949 . S
H2674 C2680 0.950 . S
H2675 C2681 0.950 . S
H2676 C2682 0.949 . S
C2677 H2672 0.950 . S
C2677 C2679 1.327 . S
C2677 C2683 1.429 . S
C2678 C2670 1.574 . S
C2678 H2673 0.949 . S
C2678 C2684 1.368 . S
C2679 C2663 1.349 . S
C2679 H2671 0.950 . S
C2679 C2677 1.327 . S
C2680 C2668 1.349 . S
C2680 H2674 0.950 . S
C2680 C2681 1.327 . S
C2681 H2675 0.950 . S
C2681 C2680 1.327 . S
C2681 C2685 1.429 . S
C2682 C2665 1.574 . S
C2682 H2676 0.949 . S
C2682 C2686 1.368 . S
C2683 C2664 1.429 . S
C2683 C2677 1.429 . S
C2683 C2684 1.523 . S
C2684 C2665 1.368 . S
C2684 C2678 1.368 . S
C2684 C2683 1.523 . S
C2685 C2669 1.429 . S
C2685 C2681 1.429 . S
C2685 C2686 1.523 . S
C2686 C2670 1.368 . S
C2686 C2682 1.368 . S
C2686 C2685 1.523 . S
H2687 C2662 0.950 . S
H2688 C2664 0.950 . S
H2689 C2665 0.949 . S
H2690 C2667 0.950 . S
H2691 C2669 0.950 . S
C2692 C2693 1.349 . S
C2692 C2694 1.327 . S
C2692 H2717 0.950 . S
C2693 C2692 1.349 . S
C2693 C2709 1.349 . S
C2694 C2692 1.327 . S
C2694 C2713 1.429 . S
C2694 H2718 0.950 . S
C2695 C2712 1.574 . S
C2695 C2714 1.368 . S
C2695 H2719 0.949 . S
H2696 C2700 0.949 . S
C2697 C2698 1.349 . S
C2697 C2699 1.327 . S
C2697 H2720 0.950 . S
C2698 C2697 1.349 . S
C2698 C2710 1.349 . S
C2699 C2697 1.327 . S
C2699 C2715 1.429 . S
C2699 H2721 0.950 . S
C2700 H2696 0.949 . S
C2700 C2708 1.574 . S
C2700 C2716 1.368 . S
H2701 C2709 0.950 . S
H2702 C2707 0.950 . S
H2703 C2708 0.949 . S
H2704 C2710 0.950 . S
H2705 C2711 0.950 . S
H2706 C2712 0.949 . S
C2707 H2702 0.950 . S
C2707 C2709 1.327 . S
C2707 C2713 1.429 . S
C2708 C2700 1.574 . S
C2708 H2703 0.949 . S
C2708 C2714 1.368 . S
C2709 C2693 1.349 . S
C2709 H2701 0.950 . S
C2709 C2707 1.327 . S
C2710 C2698 1.349 . S
C2710 H2704 0.950 . S
C2710 C2711 1.327 . S
C2711 H2705 0.950 . S
C2711 C2710 1.327 . S
C2711 C2715 1.429 . S
C2712 C2695 1.574 . S
C2712 H2706 0.949 . S
C2712 C2716 1.368 . S
C2713 C2694 1.429 . S
C2713 C2707 1.429 . S
C2713 C2714 1.523 . S
C2714 C2695 1.368 . S
C2714 C2708 1.368 . S
C2714 C2713 1.523 . S
C2715 C2699 1.429 . S
C2715 C2711 1.429 . S
C2715 C2716 1.523 . S
C2716 C2700 1.368 . S
C2716 C2712 1.368 . S
C2716 C2715 1.523 . S
H2717 C2692 0.950 . S
H2718 C2694 0.950 . S
H2719 C2695 0.949 . S
H2720 C2697 0.950 . S
H2721 C2699 0.950 . S
C2722 C2723 1.349 . S
C2722 C2724 1.327 . S
C2722 H2747 0.950 . S
C2723 C2722 1.349 . S
C2723 C2739 1.349 . S
C2724 C2722 1.327 . S
C2724 C2743 1.429 . S
C2724 H2748 0.950 . S
C2725 C2742 1.574 . S
C2725 C2744 1.368 . S
C2725 H2749 0.949 . S
H2726 C2730 0.949 . S
C2727 C2728 1.349 . S
C2727 C2729 1.327 . S
C2727 H2750 0.950 . S
C2728 C2727 1.349 . S
C2728 C2740 1.349 . S
C2729 C2727 1.327 . S
C2729 C2745 1.429 . S
C2729 H2751 0.950 . S
C2730 H2726 0.949 . S
C2730 C2738 1.574 . S
C2730 C2746 1.368 . S
H2731 C2739 0.950 . S
H2732 C2737 0.950 . S
H2733 C2738 0.949 . S
H2734 C2740 0.950 . S
H2735 C2741 0.950 . S
H2736 C2742 0.949 . S
C2737 H2732 0.950 . S
C2737 C2739 1.327 . S
C2737 C2743 1.429 . S
C2738 C2730 1.574 . S
C2738 H2733 0.949 . S
C2738 C2744 1.368 . S
C2739 C2723 1.349 . S
C2739 H2731 0.950 . S
C2739 C2737 1.327 . S
C2740 C2728 1.349 . S
C2740 H2734 0.950 . S
C2740 C2741 1.327 . S
C2741 H2735 0.950 . S
C2741 C2740 1.327 . S
C2741 C2745 1.429 . S
C2742 C2725 1.574 . S
C2742 H2736 0.949 . S
C2742 C2746 1.368 . S
C2743 C2724 1.429 . S
C2743 C2737 1.429 . S
C2743 C2744 1.523 . S
C2744 C2725 1.368 . S
C2744 C2738 1.368 . S
C2744 C2743 1.523 . S
C2745 C2729 1.429 . S
C2745 C2741 1.429 . S
C2745 C2746 1.523 . S
C2746 C2730 1.368 . S
C2746 C2742 1.368 . S
C2746 C2745 1.523 . S
H2747 C2722 0.950 . S
H2748 C2724 0.950 . S
H2749 C2725 0.949 . S
H2750 C2727 0.950 . S
H2751 C2729 0.950 . S
C2752 C2753 1.349 . S
C2752 C2754 1.327 . S
C2752 H2777 0.950 . S
C2753 C2752 1.349 . S
C2753 C2769 1.349 . S
C2754 C2752 1.327 . S
C2754 C2773 1.429 . S
C2754 H2778 0.950 . S
C2755 C2772 1.574 . S
C2755 C2774 1.368 . S
C2755 H2779 0.949 . S
H2756 C2760 0.949 . S
C2757 C2758 1.349 . S
C2757 C2759 1.327 . S
C2757 H2780 0.950 . S
C2758 C2757 1.349 . S
C2758 C2770 1.349 . S
C2759 C2757 1.327 . S
C2759 C2775 1.429 . S
C2759 H2781 0.950 . S
C2760 H2756 0.949 . S
C2760 C2768 1.574 . S
C2760 C2776 1.368 . S
H2761 C2769 0.950 . S
H2762 C2767 0.950 . S
H2763 C2768 0.949 . S
H2764 C2770 0.950 . S
H2765 C2771 0.950 . S
H2766 C2772 0.949 . S
C2767 H2762 0.950 . S
C2767 C2769 1.327 . S
C2767 C2773 1.429 . S
C2768 C2760 1.574 . S
C2768 H2763 0.949 . S
C2768 C2774 1.368 . S
C2769 C2753 1.349 . S
C2769 H2761 0.950 . S
C2769 C2767 1.327 . S
C2770 C2758 1.349 . S
C2770 H2764 0.950 . S
C2770 C2771 1.327 . S
C2771 H2765 0.950 . S
C2771 C2770 1.327 . S
C2771 C2775 1.429 . S
C2772 C2755 1.574 . S
C2772 H2766 0.949 . S
C2772 C2776 1.368 . S
C2773 C2754 1.429 . S
C2773 C2767 1.429 . S
C2773 C2774 1.523 . S
C2774 C2755 1.368 . S
C2774 C2768 1.368 . S
C2774 C2773 1.523 . S
C2775 C2759 1.429 . S
C2775 C2771 1.429 . S
C2775 C2776 1.523 . S
C2776 C2760 1.368 . S
C2776 C2772 1.368 . S
C2776 C2775 1.523 . S
H2777 C2752 0.950 . S
H2778 C2754 0.950 . S
H2779 C2755 0.949 . S
H2780 C2757 0.950 . S
H2781 C2759 0.950 . S
C2782 C2783 1.349 . S
C2782 C2784 1.327 . S
C2782 H2807 0.950 . S
C2783 C2782 1.349 . S
C2783 C2799 1.349 . S
C2784 C2782 1.327 . S
C2784 C2803 1.429 . S
C2784 H2808 0.950 . S
C2785 C2802 1.574 . S
C2785 C2804 1.368 . S
C2785 H2809 0.949 . S
H2786 C2790 0.949 . S
C2787 C2788 1.349 . S
C2787 C2789 1.327 . S
C2787 H2810 0.950 . S
C2788 C2787 1.349 . S
C2788 C2800 1.349 . S
C2789 C2787 1.327 . S
C2789 C2805 1.429 . S
C2789 H2811 0.950 . S
C2790 H2786 0.949 . S
C2790 C2798 1.574 . S
C2790 C2806 1.368 . S
H2791 C2799 0.950 . S
H2792 C2797 0.950 . S
H2793 C2798 0.949 . S
H2794 C2800 0.950 . S
H2795 C2801 0.950 . S
H2796 C2802 0.949 . S
C2797 H2792 0.950 . S
C2797 C2799 1.327 . S
C2797 C2803 1.429 . S
C2798 C2790 1.574 . S
C2798 H2793 0.949 . S
C2798 C2804 1.368 . S
C2799 C2783 1.349 . S
C2799 H2791 0.950 . S
C2799 C2797 1.327 . S
C2800 C2788 1.349 . S
C2800 H2794 0.950 . S
C2800 C2801 1.327 . S
C2801 H2795 0.950 . S
C2801 C2800 1.327 . S
C2801 C2805 1.429 . S
C2802 C2785 1.574 . S
C2802 H2796 0.949 . S
C2802 C2806 1.368 . S
C2803 C2784 1.429 . S
C2803 C2797 1.429 . S
C2803 C2804 1.523 . S
C2804 C2785 1.368 . S
C2804 C2798 1.368 . S
C2804 C2803 1.523 . S
C2805 C2789 1.429 . S
C2805 C2801 1.429 . S
C2805 C2806 1.523 . S
C2806 C2790 1.368 . S
C2806 C2802 1.368 . S
C2806 C2805 1.523 . S
H2807 C2782 0.950 . S
H2808 C2784 0.950 . S
H2809 C2785 0.949 . S
H2810 C2787 0.950 . S
H2811 C2789 0.950 . S
C2812 C2813 1.349 . S
C2812 C2814 1.327 . S
C2812 H2837 0.950 . S
C2813 C2812 1.349 . S
C2813 C2829 1.349 . S
C2814 C2812 1.327 . S
C2814 C2833 1.429 . S
C2814 H2838 0.950 . S
C2815 C2832 1.574 . S
C2815 C2834 1.368 . S
C2815 H2839 0.949 . S
H2816 C2820 0.949 . S
C2817 C2818 1.349 . S
C2817 C2819 1.327 . S
C2817 H2840 0.950 . S
C2818 C2817 1.349 . S
C2818 C2830 1.349 . S
C2819 C2817 1.327 . S
C2819 C2835 1.429 . S
C2819 H2841 0.950 . S
C2820 H2816 0.949 . S
C2820 C2828 1.574 . S
C2820 C2836 1.368 . S
H2821 C2829 0.950 . S
H2822 C2827 0.950 . S
H2823 C2828 0.949 . S
H2824 C2830 0.950 . S
H2825 C2831 0.950 . S
H2826 C2832 0.949 . S
C2827 H2822 0.950 . S
C2827 C2829 1.327 . S
C2827 C2833 1.429 . S
C2828 C2820 1.574 . S
C2828 H2823 0.949 . S
C2828 C2834 1.368 . S
C2829 C2813 1.349 . S
C2829 H2821 0.950 . S
C2829 C2827 1.327 . S
C2830 C2818 1.349 . S
C2830 H2824 0.950 . S
C2830 C2831 1.327 . S
C2831 H2825 0.950 . S
C2831 C2830 1.327 . S
C2831 C2835 1.429 . S
C2832 C2815 1.574 . S
C2832 H2826 0.949 . S
C2832 C2836 1.368 . S
C2833 C2814 1.429 . S
C2833 C2827 1.429 . S
C2833 C2834 1.523 . S
C2834 C2815 1.368 . S
C2834 C2828 1.368 . S
C2834 C2833 1.523 . S
C2835 C2819 1.429 . S
C2835 C2831 1.429 . S
C2835 C2836 1.523 . S
C2836 C2820 1.368 . S
C2836 C2832 1.368 . S
C2836 C2835 1.523 . S
H2837 C2812 0.950 . S
H2838 C2814 0.950 . S
H2839 C2815 0.949 . S
H2840 C2817 0.950 . S
H2841 C2819 0.950 . S
C2842 C2843 1.349 . S
C2842 C2844 1.327 . S
C2842 H2867 0.950 . S
C2843 C2842 1.349 . S
C2843 C2859 1.349 . S
C2844 C2842 1.327 . S
C2844 C2863 1.429 . S
C2844 H2868 0.950 . S
C2845 C2862 1.574 . S
C2845 C2864 1.368 . S
C2845 H2869 0.949 . S
H2846 C2850 0.949 . S
C2847 C2848 1.349 . S
C2847 C2849 1.327 . S
C2847 H2870 0.950 . S
C2848 C2847 1.349 . S
C2848 C2860 1.349 . S
C2849 C2847 1.327 . S
C2849 C2865 1.429 . S
C2849 H2871 0.950 . S
C2850 H2846 0.949 . S
C2850 C2858 1.574 . S
C2850 C2866 1.368 . S
H2851 C2859 0.950 . S
H2852 C2857 0.950 . S
H2853 C2858 0.949 . S
H2854 C2860 0.950 . S
H2855 C2861 0.950 . S
H2856 C2862 0.949 . S
C2857 H2852 0.950 . S
C2857 C2859 1.327 . S
C2857 C2863 1.429 . S
C2858 C2850 1.574 . S
C2858 H2853 0.949 . S
C2858 C2864 1.368 . S
C2859 C2843 1.349 . S
C2859 H2851 0.950 . S
C2859 C2857 1.327 . S
C2860 C2848 1.349 . S
C2860 H2854 0.950 . S
C2860 C2861 1.327 . S
C2861 H2855 0.950 . S
C2861 C2860 1.327 . S
C2861 C2865 1.429 . S
C2862 C2845 1.574 . S
C2862 H2856 0.949 . S
C2862 C2866 1.368 . S
C2863 C2844 1.429 . S
C2863 C2857 1.429 . S
C2863 C2864 1.523 . S
C2864 C2845 1.368 . S
C2864 C2858 1.368 . S
C2864 C2863 1.523 . S
C2865 C2849 1.429 . S
C2865 C2861 1.429 . S
C2865 C2866 1.523 . S
C2866 C2850 1.368 . S
C2866 C2862 1.368 . S
C2866 C2865 1.523 . S
H2867 C2842 0.950 . S
H2868 C2844 0.950 . S
H2869 C2845 0.949 . S
H2870 C2847 0.950 . S
H2871 C2849 0.950 . S
C2872 C2873 1.349 . S
C2872 C2874 1.327 . S
C2872 H2897 0.950 . S
C2873 C2872 1.349 . S
C2873 C2889 1.349 . S
C2874 C2872 1.327 . S
C2874 C2893 1.429 . S
C2874 H2898 0.950 . S
C2875 C2892 1.574 . S
C2875 C2894 1.368 . S
C2875 H2899 0.949 . S
H2876 C2880 0.949 . S
C2877 C2878 1.349 . S
C2877 C2879 1.327 . S
C2877 H2900 0.950 . S
C2878 C2877 1.349 . S
C2878 C2890 1.349 . S
C2879 C2877 1.327 . S
C2879 C2895 1.429 . S
C2879 H2901 0.950 . S
C2880 H2876 0.949 . S
C2880 C2888 1.574 . S
C2880 C2896 1.368 . S
H2881 C2889 0.950 . S
H2882 C2887 0.950 . S
H2883 C2888 0.949 . S
H2884 C2890 0.950 . S
H2885 C2891 0.950 . S
H2886 C2892 0.949 . S
C2887 H2882 0.950 . S
C2887 C2889 1.327 . S
C2887 C2893 1.429 . S
C2888 C2880 1.574 . S
C2888 H2883 0.949 . S
C2888 C2894 1.368 . S
C2889 C2873 1.349 . S
C2889 H2881 0.950 . S
C2889 C2887 1.327 . S
C2890 C2878 1.349 . S
C2890 H2884 0.950 . S
C2890 C2891 1.327 . S
C2891 H2885 0.950 . S
C2891 C2890 1.327 . S
C2891 C2895 1.429 . S
C2892 C2875 1.574 . S
C2892 H2886 0.949 . S
C2892 C2896 1.368 . S
C2893 C2874 1.429 . S
C2893 C2887 1.429 . S
C2893 C2894 1.523 . S
C2894 C2875 1.368 . S
C2894 C2888 1.368 . S
C2894 C2893 1.523 . S
C2895 C2879 1.429 . S
C2895 C2891 1.429 . S
C2895 C2896 1.523 . S
C2896 C2880 1.368 . S
C2896 C2892 1.368 . S
C2896 C2895 1.523 . S
H2897 C2872 0.950 . S
H2898 C2874 0.950 . S
H2899 C2875 0.949 . S
H2900 C2877 0.950 . S
H2901 C2879 0.950 . S
C2902 C2903 1.349 . S
C2902 C2904 1.327 . S
C2902 H2927 0.950 . S
C2903 C2902 1.349 . S
C2903 C2919 1.349 . S
C2904 C2902 1.327 . S
C2904 C2923 1.429 . S
C2904 H2928 0.950 . S
C2905 C2922 1.574 . S
C2905 C2924 1.368 . S
C2905 H2929 0.949 . S
H2906 C2910 0.949 . S
C2907 C2908 1.349 . S
C2907 C2909 1.327 . S
C2907 H2930 0.950 . S
C2908 C2907 1.349 . S
C2908 C2920 1.349 . S
C2909 C2907 1.327 . S
C2909 C2925 1.429 . S
C2909 H2931 0.950 . S
C2910 H2906 0.949 . S
C2910 C2918 1.574 . S
C2910 C2926 1.368 . S
H2911 C2919 0.950 . S
H2912 C2917 0.950 . S
H2913 C2918 0.949 . S
H2914 C2920 0.950 . S
H2915 C2921 0.950 . S
H2916 C2922 0.949 . S
C2917 H2912 0.950 . S
C2917 C2919 1.327 . S
C2917 C2923 1.429 . S
C2918 C2910 1.574 . S
C2918 H2913 0.949 . S
C2918 C2924 1.368 . S
C2919 C2903 1.349 . S
C2919 H2911 0.950 . S
C2919 C2917 1.327 . S
C2920 C2908 1.349 . S
C2920 H2914 0.950 . S
C2920 C2921 1.327 . S
C2921 H2915 0.950 . S
C2921 C2920 1.327 . S
C2921 C2925 1.429 . S
C2922 C2905 1.574 . S
C2922 H2916 0.949 . S
C2922 C2926 1.368 . S
C2923 C2904 1.429 . S
C2923 C2917 1.429 . S
C2923 C2924 1.523 . S
C2924 C2905 1.368 . S
C2924 C2918 1.368 . S
C2924 C2923 1.523 . S
C2925 C2909 1.429 . S
C2925 C2921 1.429 . S
C2925 C2926 1.523 . S
C2926 C2910 1.368 . S
C2926 C2922 1.368 . S
C2926 C2925 1.523 . S
H2927 C2902 0.950 . S
H2928 C2904 0.950 . S
H2929 C2905 0.949 . S
H2930 C2907 0.950 . S
H2931 C2909 0.950 . S
C2932 C2933 1.349 . S
C2932 C2934 1.327 . S
C2932 H2957 0.950 . S
C2933 C2932 1.349 . S
C2933 C2949 1.349 . S
C2934 C2932 1.327 . S
C2934 C2953 1.429 . S
C2934 H2958 0.950 1_545 S
C2935 C2952 1.574 . S
C2935 C2954 1.368 . S
C2935 H2959 0.949 1_565 S
H2936 C2940 0.949 . S
C2937 C2938 1.349 . S
C2937 C2939 1.327 . S
C2937 H2960 0.950 . S
C2938 C2937 1.349 . S
C2938 C2950 1.349 . S
C2939 C2937 1.327 . S
C2939 C2955 1.429 . S
C2939 H2961 0.950 . S
C2940 H2936 0.949 . S
C2940 C2948 1.574 . S
C2940 C2956 1.368 . S
H2941 C2949 0.950 . S
H2942 C2947 0.950 . S
H2943 C2948 0.949 . S
H2944 C2950 0.950 . S
H2945 C2951 0.950 . S
H2946 C2952 0.949 . S
C2947 H2942 0.950 . S
C2947 C2949 1.327 . S
C2947 C2953 1.429 . S
C2948 C2940 1.574 . S
C2948 H2943 0.949 . S
C2948 C2954 1.368 . S
C2949 C2933 1.349 . S
C2949 H2941 0.950 . S
C2949 C2947 1.327 . S
C2950 C2938 1.349 . S
C2950 H2944 0.950 . S
C2950 C2951 1.327 . S
C2951 H2945 0.950 . S
C2951 C2950 1.327 . S
C2951 C2955 1.429 . S
C2952 C2935 1.574 . S
C2952 H2946 0.949 . S
C2952 C2956 1.368 . S
C2953 C2934 1.429 . S
C2953 C2947 1.429 . S
C2953 C2954 1.523 1_545 S
C2954 C2935 1.368 . S
C2954 C2948 1.368 . S
C2954 C2953 1.523 1_565 S
C2955 C2939 1.429 . S
C2955 C2951 1.429 . S
C2955 C2956 1.523 . S
C2956 C2940 1.368 . S
C2956 C2952 1.368 . S
C2956 C2955 1.523 . S
H2957 C2932 0.950 . S
H2958 C2934 0.950 1_565 S
H2959 C2935 0.949 1_545 S
H2960 C2937 0.950 . S
H2961 C2939 0.950 . S
C2962 C2963 1.349 . S
C2962 C2964 1.327 . S
C2962 H2987 0.950 . S
C2963 C2962 1.349 . S
C2963 C2979 1.349 . S
C2964 C2962 1.327 . S
C2964 C2983 1.429 . S
C2964 H2988 0.950 . S
C2965 C2982 1.574 1_565 S
C2965 C2984 1.368 . S
C2965 H2989 0.949 . S
H2966 C2970 0.949 . S
C2967 C2968 1.349 . S
C2967 C2969 1.327 . S
C2967 H2990 0.950 . S
C2968 C2967 1.349 . S
C2968 C2980 1.349 . S
C2969 C2967 1.327 . S
C2969 C2985 1.429 . S
C2969 H2991 0.950 . S
C2970 H2966 0.949 . S
C2970 C2978 1.574 1_545 S
C2970 C2986 1.368 . S
H2971 C2979 0.950 . S
H2972 C2977 0.950 . S
H2973 C2978 0.949 . S
H2974 C2980 0.950 1_556 S
H2975 C2981 0.925 1_556 S
H2976 C2982 0.949 . S
C2977 H2972 0.950 . S
C2977 C2979 1.327 . S
C2977 C2983 1.429 . S
C2978 C2970 1.574 1_565 S
C2978 H2973 0.949 . S
C2978 C2984 1.368 . S
C2979 C2963 1.349 . S
C2979 H2971 0.950 . S
C2979 C2977 1.327 . S
C2980 C2968 1.349 . S
C2980 H2974 0.950 1_554 S
C2980 C2981 1.327 . S
C2981 H2975 0.925 1_554 S
C2981 C2980 1.327 . S
C2981 C2985 1.429 . S
C2982 C2965 1.574 1_545 S
C2982 H2976 0.949 . S
C2982 C2986 1.368 . S
C2983 C2964 1.429 . S
C2983 C2977 1.429 . S
C2983 C2984 1.523 . S
C2984 C2965 1.368 . S
C2984 C2978 1.368 . S
C2984 C2983 1.523 . S
C2985 C2969 1.429 . S
C2985 C2981 1.429 . S
C2985 C2986 1.523 . S
C2986 C2970 1.368 . S
C2986 C2982 1.368 . S
C2986 C2985 1.523 . S
H2987 C2962 0.950 . S
H2988 C2964 0.950 . S
H2989 C2965 0.949 . S
H2990 C2967 0.950 . S
H2991 C2969 0.950 . S
C2992 C2993 1.349 . S
C2992 C2994 1.327 . S
C2992 H3017 0.950 . S
C2993 C2992 1.349 . S
C2993 C3009 1.349 . S
C2994 C2992 1.327 . S
C2994 C3013 1.429 . S
C2994 H3018 0.950 . S
C2995 C3012 1.574 . S
C2995 C3014 1.368 . S
C2995 H3019 0.949 . S
H2996 C3000 0.949 . S
C2997 C2998 1.349 . S
C2997 C2999 1.327 . S
C2997 H3020 0.950 . S
C2998 C2997 1.349 . S
C2998 C3010 1.349 . S
C2999 C2997 1.327 . S
C2999 C3015 1.429 . S
C2999 H3021 0.950 . S
C3000 H2996 0.949 . S
C3000 C3008 1.574 . S
C3000 C3016 1.368 . S
H3001 C3009 0.950 . S
H3002 C3007 0.950 . S
H3003 C3008 0.949 . S
H3004 C3010 0.950 . S
H3005 C3011 0.950 . S
H3006 C3012 0.949 . S
C3007 H3002 0.950 . S
C3007 C3009 1.327 . S
C3007 C3013 1.429 . S
C3008 C3000 1.574 . S
C3008 H3003 0.949 . S
C3008 C3014 1.368 . S
C3009 C2993 1.349 . S
C3009 H3001 0.950 . S
C3009 C3007 1.327 . S
C3010 C2998 1.349 . S
C3010 H3004 0.950 . S
C3010 C3011 1.327 . S
C3011 H3005 0.950 . S
C3011 C3010 1.327 . S
C3011 C3015 1.429 . S
C3012 C2995 1.574 . S
C3012 H3006 0.949 . S
C3012 C3016 1.368 . S
C3013 C2994 1.429 . S
C3013 C3007 1.429 . S
C3013 C3014 1.523 . S
C3014 C2995 1.368 . S
C3014 C3008 1.368 . S
C3014 C3013 1.523 . S
C3015 C2999 1.429 . S
C3015 C3011 1.429 . S
C3015 C3016 1.523 . S
C3016 C3000 1.368 . S
C3016 C3012 1.368 . S
C3016 C3015 1.523 . S
H3017 C2992 0.950 . S
H3018 C2994 0.950 . S
H3019 C2995 0.949 . S
H3020 C2997 0.950 . S
H3021 C2999 0.950 . S
C3022 C3023 1.349 . S
C3022 C3024 1.327 . S
C3022 H3047 0.950 . S
C3023 C3022 1.349 . S
C3023 C3039 1.349 . S
C3024 C3022 1.327 . S
C3024 C3043 1.429 . S
C3024 H3048 0.950 . S
C3025 C3042 1.574 . S
C3025 C3044 1.368 . S
C3025 H3049 0.949 . S
H3026 C3030 0.949 . S
C3027 C3028 1.349 . S
C3027 C3029 1.327 . S
C3027 H3050 0.950 . S
C3028 C3027 1.349 . S
C3028 C3040 1.349 . S
C3029 C3027 1.327 . S
C3029 C3045 1.429 . S
C3029 H3051 0.950 . S
C3030 H3026 0.949 . S
C3030 C3038 1.574 . S
C3030 C3046 1.368 . S
H3031 C3039 0.950 . S
H3032 C3037 0.950 . S
H3033 C3038 0.949 . S
H3034 C3040 0.950 . S
H3035 C3041 0.950 . S
H3036 C3042 0.949 . S
C3037 H3032 0.950 . S
C3037 C3039 1.327 . S
C3037 C3043 1.429 . S
C3038 C3030 1.574 . S
C3038 H3033 0.949 . S
C3038 C3044 1.368 . S
C3039 C3023 1.349 . S
C3039 H3031 0.950 . S
C3039 C3037 1.327 . S
C3040 C3028 1.349 . S
C3040 H3034 0.950 . S
C3040 C3041 1.327 . S
C3041 H3035 0.950 . S
C3041 C3040 1.327 . S
C3041 C3045 1.429 . S
C3042 C3025 1.574 . S
C3042 H3036 0.949 . S
C3042 C3046 1.368 . S
C3043 C3024 1.429 . S
C3043 C3037 1.429 . S
C3043 C3044 1.523 . S
C3044 C3025 1.368 . S
C3044 C3038 1.368 . S
C3044 C3043 1.523 . S
C3045 C3029 1.429 . S
C3045 C3041 1.429 . S
C3045 C3046 1.523 . S
C3046 C3030 1.368 . S
C3046 C3042 1.368 . S
C3046 C3045 1.523 . S
H3047 C3022 0.950 . S
H3048 C3024 0.950 . S
H3049 C3025 0.949 . S
H3050 C3027 0.950 . S
H3051 C3029 0.950 . S
C3052 C3053 1.349 . S
C3052 C3054 1.327 . S
C3052 H3077 0.950 . S
C3053 C3052 1.349 . S
C3053 C3069 1.349 . S
C3054 C3052 1.327 . S
C3054 C3073 1.429 . S
C3054 H3078 0.950 . S
C3055 C3072 1.574 . S
C3055 C3074 1.368 . S
C3055 H3079 0.949 . S
H3056 C3060 0.949 . S
C3057 C3058 1.349 . S
C3057 C3059 1.327 . S
C3057 H3080 0.950 . S
C3058 C3057 1.349 . S
C3058 C3070 1.349 . S
C3059 C3057 1.327 . S
C3059 C3075 1.429 . S
C3059 H3081 0.950 . S
C3060 H3056 0.949 . S
C3060 C3068 1.574 . S
C3060 C3076 1.368 . S
H3061 C3069 0.950 . S
H3062 C3067 0.950 . S
H3063 C3068 0.949 . S
H3064 C3070 0.950 . S
H3065 C3071 0.950 . S
H3066 C3072 0.949 . S
C3067 H3062 0.950 . S
C3067 C3069 1.327 . S
C3067 C3073 1.429 . S
C3068 C3060 1.574 . S
C3068 H3063 0.949 . S
C3068 C3074 1.368 . S
C3069 C3053 1.349 . S
C3069 H3061 0.950 . S
C3069 C3067 1.327 . S
C3070 C3058 1.349 . S
C3070 H3064 0.950 . S
C3070 C3071 1.327 . S
C3071 H3065 0.950 . S
C3071 C3070 1.327 . S
C3071 C3075 1.429 . S
C3072 C3055 1.574 . S
C3072 H3066 0.949 . S
C3072 C3076 1.368 . S
C3073 C3054 1.429 . S
C3073 C3067 1.429 . S
C3073 C3074 1.523 . S
C3074 C3055 1.368 . S
C3074 C3068 1.368 . S
C3074 C3073 1.523 . S
C3075 C3059 1.429 . S
C3075 C3071 1.429 . S
C3075 C3076 1.523 . S
C3076 C3060 1.368 . S
C3076 C3072 1.368 . S
C3076 C3075 1.523 . S
H3077 C3052 0.950 . S
H3078 C3054 0.950 . S
H3079 C3055 0.949 . S
H3080 C3057 0.950 . S
H3081 C3059 0.950 . S
C3082 C3083 1.349 . S
C3082 C3084 1.327 . S
C3082 H3107 0.950 . S
C3083 C3082 1.349 . S
C3083 C3099 1.349 . S
C3084 C3082 1.327 . S
C3084 C3103 1.429 . S
C3084 H3108 0.950 . S
C3085 C3102 1.574 1_545 S
C3085 C3104 1.368 . S
C3085 H3109 0.949 . S
H3086 C3090 0.949 . S
C3087 C3088 1.349 . S
C3087 C3089 1.327 . S
C3087 H3110 0.950 . S
C3088 C3087 1.349 . S
C3088 C3100 1.349 . S
C3089 C3087 1.327 . S
C3089 C3105 1.429 . S
C3089 H3111 0.950 . S
C3090 H3086 0.949 . S
C3090 C3098 1.574 . S
C3090 C3106 1.368 1_545 S
H3091 C3099 0.950 . S
H3092 C3097 0.950 . S
H3093 C3098 0.949 . S
H3094 C3100 0.950 . S
H3095 C3101 0.950 . S
H3096 C3102 0.949 . S
C3097 H3092 0.950 . S
C3097 C3099 1.327 . S
C3097 C3103 1.429 . S
C3098 C3090 1.574 . S
C3098 H3093 0.949 . S
C3098 C3104 1.368 . S
C3099 C3083 1.349 . S
C3099 H3091 0.950 . S
C3099 C3097 1.327 . S
C3100 C3088 1.349 . S
C3100 H3094 0.950 . S
C3100 C3101 1.327 . S
C3101 H3095 0.950 . S
C3101 C3100 1.327 . S
C3101 C3105 1.429 . S
C3102 C3085 1.574 1_565 S
C3102 H3096 0.949 . S
C3102 C3106 1.368 . S
C3103 C3084 1.429 . S
C3103 C3097 1.429 . S
C3103 C3104 1.523 . S
C3104 C3085 1.368 . S
C3104 C3098 1.368 . S
C3104 C3103 1.523 . S
C3105 C3089 1.429 . S
C3105 C3101 1.429 . S
C3105 C3106 1.523 . S
C3106 C3090 1.368 1_565 S
C3106 C3102 1.368 . S
C3106 C3105 1.523 . S
H3107 C3082 0.950 . S
H3108 C3084 0.950 . S
H3109 C3085 0.949 . S
H3110 C3087 0.950 . S
H3111 C3089 0.950 . S
C3112 C3113 1.349 . S
C3112 C3114 1.327 . S
C3112 H3137 0.950 . S
C3113 C3112 1.349 . S
C3113 C3129 1.349 . S
C3114 C3112 1.327 . S
C3114 C3133 1.429 . S
C3114 H3138 0.950 . S
C3115 C3132 1.574 . S
C3115 C3134 1.368 . S
C3115 H3139 0.949 . S
H3116 C3120 0.949 . S
C3117 C3118 1.349 . S
C3117 C3119 1.327 . S
C3117 H3140 0.950 . S
C3118 C3117 1.349 . S
C3118 C3130 1.349 . S
C3119 C3117 1.327 . S
C3119 C3135 1.429 . S
C3119 H3141 0.950 . S
C3120 H3116 0.949 . S
C3120 C3128 1.574 . S
C3120 C3136 1.368 . S
H3121 C3129 0.950 . S
H3122 C3127 0.950 . S
H3123 C3128 0.949 . S
H3124 C3130 0.950 . S
H3125 C3131 0.950 . S
H3126 C3132 0.949 . S
C3127 H3122 0.950 . S
C3127 C3129 1.327 . S
C3127 C3133 1.429 . S
C3128 C3120 1.574 . S
C3128 H3123 0.949 . S
C3128 C3134 1.368 . S
C3129 C3113 1.349 . S
C3129 H3121 0.950 . S
C3129 C3127 1.327 . S
C3130 C3118 1.349 . S
C3130 H3124 0.950 . S
C3130 C3131 1.327 . S
C3131 H3125 0.950 . S
C3131 C3130 1.327 . S
C3131 C3135 1.429 . S
C3132 C3115 1.574 . S
C3132 H3126 0.949 . S
C3132 C3136 1.368 . S
C3133 C3114 1.429 . S
C3133 C3127 1.429 . S
C3133 C3134 1.523 . S
C3134 C3115 1.368 . S
C3134 C3128 1.368 . S
C3134 C3133 1.523 . S
C3135 C3119 1.429 . S
C3135 C3131 1.429 . S
C3135 C3136 1.523 . S
C3136 C3120 1.368 . S
C3136 C3132 1.368 . S
C3136 C3135 1.523 . S
H3137 C3112 0.950 . S
H3138 C3114 0.950 . S
H3139 C3115 0.949 . S
H3140 C3117 0.950 . S
H3141 C3119 0.950 . S
C3142 C3143 1.349 . S
C3142 C3144 1.327 . S
C3142 H3167 0.950 . S
C3143 C3142 1.349 . S
C3143 C3159 1.349 . S
C3144 C3142 1.327 . S
C3144 C3163 1.429 . S
C3144 H3168 0.950 . S
C3145 C3162 1.574 . S
C3145 C3164 1.368 . S
C3145 H3169 0.949 . S
H3146 C3150 0.949 . S
C3147 C3148 1.349 . S
C3147 C3149 1.327 . S
C3147 H3170 0.950 . S
C3148 C3147 1.349 . S
C3148 C3160 1.349 . S
C3149 C3147 1.327 . S
C3149 C3165 1.429 . S
C3149 H3171 0.950 . S
C3150 H3146 0.949 . S
C3150 C3158 1.574 . S
C3150 C3166 1.368 . S
H3151 C3159 0.950 . S
H3152 C3157 0.950 . S
H3153 C3158 0.949 . S
H3154 C3160 0.950 . S
H3155 C3161 0.950 . S
H3156 C3162 0.949 . S
C3157 H3152 0.950 . S
C3157 C3159 1.327 . S
C3157 C3163 1.429 . S
C3158 C3150 1.574 . S
C3158 H3153 0.949 . S
C3158 C3164 1.368 . S
C3159 C3143 1.349 . S
C3159 H3151 0.950 . S
C3159 C3157 1.327 . S
C3160 C3148 1.349 . S
C3160 H3154 0.950 . S
C3160 C3161 1.327 . S
C3161 H3155 0.950 . S
C3161 C3160 1.327 . S
C3161 C3165 1.429 . S
C3162 C3145 1.574 . S
C3162 H3156 0.949 . S
C3162 C3166 1.368 . S
C3163 C3144 1.429 . S
C3163 C3157 1.429 . S
C3163 C3164 1.523 . S
C3164 C3145 1.368 . S
C3164 C3158 1.368 . S
C3164 C3163 1.523 . S
C3165 C3149 1.429 . S
C3165 C3161 1.429 . S
C3165 C3166 1.523 . S
C3166 C3150 1.368 . S
C3166 C3162 1.368 . S
C3166 C3165 1.523 . S
H3167 C3142 0.950 . S
H3168 C3144 0.950 . S
H3169 C3145 0.949 . S
H3170 C3147 0.950 . S
H3171 C3149 0.950 . S
C3172 C3173 1.349 . S
C3172 C3174 1.327 . S
C3172 H3197 0.950 . S
C3173 C3172 1.349 . S
C3173 C3189 1.349 . S
C3174 C3172 1.327 . S
C3174 C3193 1.429 . S
C3174 H3198 0.950 . S
C3175 C3192 1.574 . S
C3175 C3194 1.368 . S
C3175 H3199 0.949 . S
H3176 C3180 0.949 . S
C3177 C3178 1.349 . S
C3177 C3179 1.327 . S
C3177 H3200 0.950 . S
C3178 C3177 1.349 . S
C3178 C3190 1.349 . S
C3179 C3177 1.327 . S
C3179 C3195 1.429 . S
C3179 H3201 0.950 . S
C3180 H3176 0.949 . S
C3180 C3188 1.574 . S
C3180 C3196 1.368 . S
H3181 C3189 0.950 . S
H3182 C3187 0.950 . S
H3183 C3188 0.949 . S
H3184 C3190 0.950 . S
H3185 C3191 0.950 . S
H3186 C3192 0.949 . S
C3187 H3182 0.950 . S
C3187 C3189 1.327 . S
C3187 C3193 1.429 . S
C3188 C3180 1.574 . S
C3188 H3183 0.949 . S
C3188 C3194 1.368 . S
C3189 C3173 1.349 . S
C3189 H3181 0.950 . S
C3189 C3187 1.327 . S
C3190 C3178 1.349 . S
C3190 H3184 0.950 . S
C3190 C3191 1.327 . S
C3191 H3185 0.950 . S
C3191 C3190 1.327 . S
C3191 C3195 1.429 . S
C3192 C3175 1.574 . S
C3192 H3186 0.949 . S
C3192 C3196 1.368 . S
C3193 C3174 1.429 . S
C3193 C3187 1.429 . S
C3193 C3194 1.523 . S
C3194 C3175 1.368 . S
C3194 C3188 1.368 . S
C3194 C3193 1.523 . S
C3195 C3179 1.429 . S
C3195 C3191 1.429 . S
C3195 C3196 1.523 . S
C3196 C3180 1.368 . S
C3196 C3192 1.368 . S
C3196 C3195 1.523 . S
H3197 C3172 0.950 . S
H3198 C3174 0.950 . S
H3199 C3175 0.949 . S
H3200 C3177 0.950 . S
H3201 C3179 0.950 . S
C3202 C3203 1.349 . S
C3202 C3204 1.327 . S
C3202 H3227 0.950 . S
C3203 C3202 1.349 . S
C3203 C3219 1.349 . S
C3204 C3202 1.327 . S
C3204 C3223 1.429 . S
C3204 H3228 0.950 . S
C3205 C3222 1.574 . S
C3205 C3224 1.368 . S
C3205 H3229 0.949 . S
H3206 C3210 0.949 . S
C3207 C3208 1.349 . S
C3207 C3209 1.327 . S
C3207 H3230 0.950 . S
C3208 C3207 1.349 . S
C3208 C3220 1.349 . S
C3209 C3207 1.327 . S
C3209 C3225 1.429 . S
C3209 H3231 0.950 . S
C3210 H3206 0.949 . S
C3210 C3218 1.574 . S
C3210 C3226 1.368 . S
H3211 C3219 0.950 . S
H3212 C3217 0.950 . S
H3213 C3218 0.949 . S
H3214 C3220 0.950 . S
H3215 C3221 0.950 . S
H3216 C3222 0.949 . S
C3217 H3212 0.950 . S
C3217 C3219 1.327 . S
C3217 C3223 1.429 . S
C3218 C3210 1.574 . S
C3218 H3213 0.949 . S
C3218 C3224 1.368 . S
C3219 C3203 1.349 . S
C3219 H3211 0.950 . S
C3219 C3217 1.327 . S
C3220 C3208 1.349 . S
C3220 H3214 0.950 . S
C3220 C3221 1.327 . S
C3221 H3215 0.950 . S
C3221 C3220 1.327 . S
C3221 C3225 1.429 . S
C3222 C3205 1.574 . S
C3222 H3216 0.949 . S
C3222 C3226 1.368 . S
C3223 C3204 1.429 . S
C3223 C3217 1.429 . S
C3223 C3224 1.523 . S
C3224 C3205 1.368 . S
C3224 C3218 1.368 . S
C3224 C3223 1.523 . S
C3225 C3209 1.429 . S
C3225 C3221 1.429 . S
C3225 C3226 1.523 . S
C3226 C3210 1.368 . S
C3226 C3222 1.368 . S
C3226 C3225 1.523 . S
H3227 C3202 0.950 . S
H3228 C3204 0.950 . S
H3229 C3205 0.949 . S
H3230 C3207 0.950 . S
H3231 C3209 0.950 . S
C3232 C3233 1.349 . S
C3232 C3234 1.327 . S
C3232 H3257 0.950 . S
C3233 C3232 1.349 . S
C3233 C3249 1.349 . S
C3234 C3232 1.327 . S
C3234 C3253 1.429 . S
C3234 H3258 0.950 . S
C3235 C3252 1.574 . S
C3235 C3254 1.368 . S
C3235 H3259 0.949 . S
H3236 C3240 0.949 . S
C3237 C3238 1.349 . S
C3237 C3239 1.327 . S
C3237 H3260 0.950 . S
C3238 C3237 1.349 . S
C3238 C3250 1.349 . S
C3239 C3237 1.327 . S
C3239 C3255 1.429 . S
C3239 H3261 0.950 . S
C3240 H3236 0.949 . S
C3240 C3248 1.574 . S
C3240 C3256 1.368 . S
H3241 C3249 0.950 . S
H3242 C3247 0.950 . S
H3243 C3248 0.949 . S
H3244 C3250 0.950 . S
H3245 C3251 0.950 . S
H3246 C3252 0.949 . S
C3247 H3242 0.950 . S
C3247 C3249 1.327 . S
C3247 C3253 1.429 . S
C3248 C3240 1.574 . S
C3248 H3243 0.949 . S
C3248 C3254 1.368 . S
C3249 C3233 1.349 . S
C3249 H3241 0.950 . S
C3249 C3247 1.327 . S
C3250 C3238 1.349 . S
C3250 H3244 0.950 . S
C3250 C3251 1.327 . S
C3251 H3245 0.950 . S
C3251 C3250 1.327 . S
C3251 C3255 1.429 . S
C3252 C3235 1.574 . S
C3252 H3246 0.949 . S
C3252 C3256 1.368 . S
C3253 C3234 1.429 . S
C3253 C3247 1.429 . S
C3253 C3254 1.523 . S
C3254 C3235 1.368 . S
C3254 C3248 1.368 . S
C3254 C3253 1.523 . S
C3255 C3239 1.429 . S
C3255 C3251 1.429 . S
C3255 C3256 1.523 . S
C3256 C3240 1.368 . S
C3256 C3252 1.368 . S
C3256 C3255 1.523 . S
H3257 C3232 0.950 . S
H3258 C3234 0.950 . S
H3259 C3235 0.949 . S
H3260 C3237 0.950 . S
H3261 C3239 0.950 . S
C3262 C3263 1.349 . S
C3262 C3264 1.327 . S
C3262 H3287 0.950 . S
C3263 C3262 1.349 . S
C3263 C3279 1.349 . S
C3264 C3262 1.327 . S
C3264 C3283 1.429 . S
C3264 H3288 0.950 . S
C3265 C3282 1.574 . S
C3265 C3284 1.368 . S
C3265 H3289 0.949 . S
H3266 C3270 0.949 . S
C3267 C3268 1.349 . S
C3267 C3269 1.327 . S
C3267 H3290 0.950 . S
C3268 C3267 1.349 . S
C3268 C3280 1.349 . S
C3269 C3267 1.327 . S
C3269 C3285 1.429 . S
C3269 H3291 0.950 . S
C3270 H3266 0.949 . S
C3270 C3278 1.574 . S
C3270 C3286 1.368 . S
H3271 C3279 0.950 . S
H3272 C3277 0.950 . S
H3273 C3278 0.949 . S
H3274 C3280 0.950 . S
H3275 C3281 0.950 . S
H3276 C3282 0.949 . S
C3277 H3272 0.950 . S
C3277 C3279 1.327 . S
C3277 C3283 1.429 . S
C3278 C3270 1.574 . S
C3278 H3273 0.949 . S
C3278 C3284 1.368 . S
C3279 C3263 1.349 . S
C3279 H3271 0.950 . S
C3279 C3277 1.327 . S
C3280 C3268 1.349 . S
C3280 H3274 0.950 . S
C3280 C3281 1.327 . S
C3281 H3275 0.950 . S
C3281 C3280 1.327 . S
C3281 C3285 1.429 . S
C3282 C3265 1.574 . S
C3282 H3276 0.949 . S
C3282 C3286 1.368 . S
C3283 C3264 1.429 . S
C3283 C3277 1.429 . S
C3283 C3284 1.523 . S
C3284 C3265 1.368 . S
C3284 C3278 1.368 . S
C3284 C3283 1.523 . S
C3285 C3269 1.429 . S
C3285 C3281 1.429 . S
C3285 C3286 1.523 . S
C3286 C3270 1.368 . S
C3286 C3282 1.368 . S
C3286 C3285 1.523 . S
H3287 C3262 0.950 . S
H3288 C3264 0.950 . S
H3289 C3265 0.949 . S
H3290 C3267 0.950 . S
H3291 C3269 0.950 . S
C3292 C3293 1.349 . S
C3292 C3294 1.327 . S
C3292 H3317 0.950 1_455 S
C3293 C3292 1.349 . S
C3293 C3309 1.349 . S
C3294 C3292 1.327 . S
C3294 C3313 1.429 . S
C3294 H3318 0.950 . S
C3295 C3312 1.574 . S
C3295 C3314 1.368 . S
C3295 H3319 0.949 . S
H3296 C3300 0.949 . S
C3297 C3298 1.349 . S
C3297 C3299 1.327 . S
C3297 H3320 0.950 . S
C3298 C3297 1.349 . S
C3298 C3310 1.349 . S
C3299 C3297 1.327 . S
C3299 C3315 1.429 . S
C3299 H3321 0.950 . S
C3300 H3296 0.949 . S
C3300 C3308 1.574 . S
C3300 C3316 1.368 . S
H3301 C3309 0.950 . S
H3302 C3307 0.950 . S
H3303 C3308 0.949 . S
H3304 C3310 0.950 . S
H3305 C3311 0.950 . S
H3306 C3312 0.949 . S
C3307 H3302 0.950 . S
C3307 C3309 1.327 . S
C3307 C3313 1.429 . S
C3308 C3300 1.574 . S
C3308 H3303 0.949 . S
C3308 C3314 1.368 . S
C3309 C3293 1.349 . S
C3309 H3301 0.950 . S
C3309 C3307 1.327 . S
C3310 C3298 1.349 . S
C3310 H3304 0.950 . S
C3310 C3311 1.327 . S
C3311 H3305 0.950 . S
C3311 C3310 1.327 . S
C3311 C3315 1.429 . S
C3312 C3295 1.574 . S
C3312 H3306 0.949 . S
C3312 C3316 1.368 . S
C3313 C3294 1.429 . S
C3313 C3307 1.429 . S
C3313 C3314 1.523 . S
C3314 C3295 1.368 . S
C3314 C3308 1.368 . S
C3314 C3313 1.523 . S
C3315 C3299 1.429 . S
C3315 C3311 1.429 . S
C3315 C3316 1.523 . S
C3316 C3300 1.368 . S
C3316 C3312 1.368 . S
C3316 C3315 1.523 . S
H3317 C3292 0.950 1_655 S
H3318 C3294 0.950 . S
H3319 C3295 0.949 . S
H3320 C3297 0.950 . S
H3321 C3299 0.950 . S
C3322 C3323 1.349 . S
C3322 C3324 1.327 . S
C3322 H3347 0.950 . S
C3323 C3322 1.349 . S
C3323 C3339 1.349 . S
C3324 C3322 1.327 . S
C3324 C3343 1.429 . S
C3324 H3348 0.950 . S
C3325 C3342 1.574 . S
C3325 C3344 1.368 . S
C3325 H3349 0.949 . S
H3326 C3330 0.949 . S
C3327 C3328 1.349 . S
C3327 C3329 1.327 . S
C3327 H3350 0.950 . S
C3328 C3327 1.349 . S
C3328 C3340 1.349 . S
C3329 C3327 1.327 . S
C3329 C3345 1.429 . S
C3329 H3351 0.950 . S
C3330 H3326 0.949 . S
C3330 C3338 1.574 . S
C3330 C3346 1.368 . S
H3331 C3339 0.950 . S
H3332 C3337 0.950 . S
H3333 C3338 0.949 . S
H3334 C3340 0.950 . S
H3335 C3341 0.950 . S
H3336 C3342 0.949 . S
C3337 H3332 0.950 . S
C3337 C3339 1.327 . S
C3337 C3343 1.429 . S
C3338 C3330 1.574 . S
C3338 H3333 0.949 . S
C3338 C3344 1.368 . S
C3339 C3323 1.349 . S
C3339 H3331 0.950 . S
C3339 C3337 1.327 . S
C3340 C3328 1.349 . S
C3340 H3334 0.950 . S
C3340 C3341 1.327 . S
C3341 H3335 0.950 . S
C3341 C3340 1.327 . S
C3341 C3345 1.429 . S
C3342 C3325 1.574 . S
C3342 H3336 0.949 . S
C3342 C3346 1.368 . S
C3343 C3324 1.429 . S
C3343 C3337 1.429 . S
C3343 C3344 1.523 . S
C3344 C3325 1.368 . S
C3344 C3338 1.368 . S
C3344 C3343 1.523 . S
C3345 C3329 1.429 . S
C3345 C3341 1.429 . S
C3345 C3346 1.523 . S
C3346 C3330 1.368 . S
C3346 C3342 1.368 . S
C3346 C3345 1.523 . S
H3347 C3322 0.950 . S
H3348 C3324 0.950 . S
H3349 C3325 0.949 . S
H3350 C3327 0.950 . S
H3351 C3329 0.950 . S
C3352 C3353 1.349 . S
C3352 C3354 1.327 . S
C3352 H3377 0.950 . S
C3353 C3352 1.349 . S
C3353 C3369 1.349 . S
C3354 C3352 1.327 . S
C3354 C3373 1.429 . S
C3354 H3378 0.950 . S
C3355 C3372 1.574 . S
C3355 C3374 1.368 . S
C3355 H3379 0.949 . S
H3356 C3360 0.949 . S
C3357 C3358 1.349 . S
C3357 C3359 1.327 . S
C3357 H3380 0.950 . S
C3358 C3357 1.349 . S
C3358 C3370 1.349 . S
C3359 C3357 1.327 . S
C3359 C3375 1.429 . S
C3359 H3381 0.950 . S
C3360 H3356 0.949 . S
C3360 C3368 1.574 . S
C3360 C3376 1.368 . S
H3361 C3369 0.950 . S
H3362 C3367 0.950 . S
H3363 C3368 0.949 . S
H3364 C3370 0.950 . S
H3365 C3371 0.950 . S
H3366 C3372 0.949 . S
C3367 H3362 0.950 . S
C3367 C3369 1.327 . S
C3367 C3373 1.429 . S
C3368 C3360 1.574 . S
C3368 H3363 0.949 . S
C3368 C3374 1.368 . S
C3369 C3353 1.349 . S
C3369 H3361 0.950 . S
C3369 C3367 1.327 . S
C3370 C3358 1.349 . S
C3370 H3364 0.950 . S
C3370 C3371 1.327 . S
C3371 H3365 0.950 . S
C3371 C3370 1.327 . S
C3371 C3375 1.429 . S
C3372 C3355 1.574 . S
C3372 H3366 0.949 . S
C3372 C3376 1.368 . S
C3373 C3354 1.429 . S
C3373 C3367 1.429 . S
C3373 C3374 1.523 . S
C3374 C3355 1.368 . S
C3374 C3368 1.368 . S
C3374 C3373 1.523 . S
C3375 C3359 1.429 . S
C3375 C3371 1.429 . S
C3375 C3376 1.523 . S
C3376 C3360 1.368 . S
C3376 C3372 1.368 . S
C3376 C3375 1.523 . S
H3377 C3352 0.950 . S
H3378 C3354 0.950 . S
H3379 C3355 0.949 . S
H3380 C3357 0.950 . S
H3381 C3359 0.950 . S
C3382 C3383 1.349 . S
C3382 C3384 1.327 . S
C3382 H3407 0.950 . S
C3383 C3382 1.349 . S
C3383 C3399 1.349 . S
C3384 C3382 1.327 . S
C3384 C3403 1.429 . S
C3384 H3408 0.950 . S
C3385 C3402 1.574 . S
C3385 C3404 1.368 . S
C3385 H3409 0.949 . S
H3386 C3390 0.949 . S
C3387 C3388 1.349 . S
C3387 C3389 1.327 . S
C3387 H3410 0.950 . S
C3388 C3387 1.349 . S
C3388 C3400 1.349 . S
C3389 C3387 1.327 . S
C3389 C3405 1.429 . S
C3389 H3411 0.950 . S
C3390 H3386 0.949 . S
C3390 C3398 1.574 . S
C3390 C3406 1.368 . S
H3391 C3399 0.950 . S
H3392 C3397 0.950 . S
H3393 C3398 0.949 . S
H3394 C3400 0.950 . S
H3395 C3401 0.950 . S
H3396 C3402 0.949 . S
C3397 H3392 0.950 . S
C3397 C3399 1.327 . S
C3397 C3403 1.429 . S
C3398 C3390 1.574 . S
C3398 H3393 0.949 . S
C3398 C3404 1.368 . S
C3399 C3383 1.349 . S
C3399 H3391 0.950 . S
C3399 C3397 1.327 . S
C3400 C3388 1.349 . S
C3400 H3394 0.950 . S
C3400 C3401 1.327 . S
C3401 H3395 0.950 . S
C3401 C3400 1.327 . S
C3401 C3405 1.429 . S
C3402 C3385 1.574 . S
C3402 H3396 0.949 . S
C3402 C3406 1.368 . S
C3403 C3384 1.429 . S
C3403 C3397 1.429 . S
C3403 C3404 1.523 . S
C3404 C3385 1.368 . S
C3404 C3398 1.368 . S
C3404 C3403 1.523 . S
C3405 C3389 1.429 . S
C3405 C3401 1.429 . S
C3405 C3406 1.523 . S
C3406 C3390 1.368 . S
C3406 C3402 1.368 . S
C3406 C3405 1.523 . S
H3407 C3382 0.950 . S
H3408 C3384 0.950 . S
H3409 C3385 0.949 . S
H3410 C3387 0.950 . S
H3411 C3389 0.950 . S
C3412 C3413 1.349 . S
C3412 C3414 1.327 . S
C3412 H3437 0.950 . S
C3413 C3412 1.349 . S
C3413 C3429 1.349 . S
C3414 C3412 1.327 . S
C3414 C3433 1.429 . S
C3414 H3438 0.950 . S
C3415 C3432 1.588 . S
C3415 C3434 1.368 . S
C3415 H3439 0.949 . S
H3416 C3420 0.949 . S
C3417 C3418 1.349 . S
C3417 C3419 1.327 . S
C3417 H3440 0.950 . S
C3418 C3417 1.349 . S
C3418 C3430 1.349 . S
C3419 C3417 1.327 . S
C3419 C3435 1.429 . S
C3419 H3441 0.950 . S
C3420 H3416 0.949 . S
C3420 C3428 1.574 . S
C3420 C3436 1.368 . S
H3421 C3429 0.950 . S
H3422 C3427 0.950 . S
H3423 C3428 0.949 . S
H3424 C3430 0.950 . S
H3425 C3431 0.950 1_655 S
H3426 C3432 0.921 1_455 S
C3427 H3422 0.950 . S
C3427 C3429 1.327 . S
C3427 C3433 1.429 . S
C3428 C3420 1.574 . S
C3428 H3423 0.949 . S
C3428 C3434 1.368 . S
C3429 C3413 1.349 . S
C3429 H3421 0.950 . S
C3429 C3427 1.327 . S
C3430 C3418 1.349 . S
C3430 H3424 0.950 . S
C3430 C3431 1.327 . S
C3431 H3425 0.950 1_455 S
C3431 C3430 1.327 . S
C3431 C3435 1.429 . S
C3432 C3415 1.588 . S
C3432 H3426 0.921 1_655 S
C3432 C3436 1.387 . S
C3433 C3414 1.429 . S
C3433 C3427 1.429 . S
C3433 C3434 1.523 . S
C3434 C3415 1.368 . S
C3434 C3428 1.368 . S
C3434 C3433 1.523 . S
C3435 C3419 1.429 . S
C3435 C3431 1.429 . S
C3435 C3436 1.523 1_455 S
C3436 C3420 1.368 . S
C3436 C3432 1.387 . S
C3436 C3435 1.523 1_655 S
H3437 C3412 0.950 . S
H3438 C3414 0.950 . S
H3439 C3415 0.949 . S
H3440 C3417 0.950 . S
H3441 C3419 0.950 . S
C3442 C3443 1.349 . S
C3442 C3444 1.327 . S
C3442 H3467 0.950 . S
C3443 C3442 1.349 . S
C3443 C3459 1.349 . S
C3444 C3442 1.327 . S
C3444 C3463 1.429 . S
C3444 H3468 0.950 . S
C3445 C3462 1.574 . S
C3445 C3464 1.368 . S
C3445 H3469 0.949 . S
H3446 C3450 0.949 . S
C3447 C3448 1.349 . S
C3447 C3449 1.327 . S
C3447 H3470 0.950 . S
C3448 C3447 1.349 . S
C3448 C3460 1.349 . S
C3449 C3447 1.327 . S
C3449 C3465 1.429 . S
C3449 H3471 0.950 . S
C3450 H3446 0.949 . S
C3450 C3458 1.574 . S
C3450 C3466 1.368 . S
H3451 C3459 0.950 . S
H3452 C3457 0.950 . S
H3453 C3458 0.949 . S
H3454 C3460 0.950 . S
H3455 C3461 0.950 . S
H3456 C3462 0.949 . S
C3457 H3452 0.950 . S
C3457 C3459 1.327 . S
C3457 C3463 1.429 . S
C3458 C3450 1.574 . S
C3458 H3453 0.949 . S
C3458 C3464 1.368 . S
C3459 C3443 1.349 . S
C3459 H3451 0.950 . S
C3459 C3457 1.327 . S
C3460 C3448 1.349 . S
C3460 H3454 0.950 . S
C3460 C3461 1.327 . S
C3461 H3455 0.950 . S
C3461 C3460 1.327 . S
C3461 C3465 1.429 . S
C3462 C3445 1.574 . S
C3462 H3456 0.949 . S
C3462 C3466 1.368 . S
C3463 C3444 1.429 . S
C3463 C3457 1.429 . S
C3463 C3464 1.523 . S
C3464 C3445 1.368 . S
C3464 C3458 1.368 . S
C3464 C3463 1.523 . S
C3465 C3449 1.429 . S
C3465 C3461 1.429 . S
C3465 C3466 1.523 . S
C3466 C3450 1.368 . S
C3466 C3462 1.368 . S
C3466 C3465 1.523 . S
H3467 C3442 0.950 . S
H3468 C3444 0.950 . S
H3469 C3445 0.949 . S
H3470 C3447 0.950 . S
H3471 C3449 0.950 . S
C3472 C3473 1.349 . S
C3472 C3474 1.327 . S
C3472 H3497 0.950 . S
C3473 C3472 1.349 . S
C3473 C3489 1.349 . S
C3474 C3472 1.327 . S
C3474 C3493 1.429 . S
C3474 H3498 0.950 . S
C3475 C3492 1.574 . S
C3475 C3494 1.368 . S
C3475 H3499 0.949 . S
H3476 C3480 0.949 . S
C3477 C3478 1.349 . S
C3477 C3479 1.327 . S
C3477 H3500 0.950 . S
C3478 C3477 1.349 . S
C3478 C3490 1.349 . S
C3479 C3477 1.327 . S
C3479 C3495 1.429 . S
C3479 H3501 0.950 . S
C3480 H3476 0.949 . S
C3480 C3488 1.574 . S
C3480 C3496 1.368 . S
H3481 C3489 0.950 . S
H3482 C3487 0.950 . S
H3483 C3488 0.949 . S
H3484 C3490 0.950 . S
H3485 C3491 0.950 . S
H3486 C3492 0.949 . S
C3487 H3482 0.950 . S
C3487 C3489 1.327 . S
C3487 C3493 1.429 . S
C3488 C3480 1.574 . S
C3488 H3483 0.949 . S
C3488 C3494 1.368 . S
C3489 C3473 1.349 . S
C3489 H3481 0.950 . S
C3489 C3487 1.327 . S
C3490 C3478 1.349 . S
C3490 H3484 0.950 . S
C3490 C3491 1.327 . S
C3491 H3485 0.950 . S
C3491 C3490 1.327 . S
C3491 C3495 1.429 . S
C3492 C3475 1.574 . S
C3492 H3486 0.949 . S
C3492 C3496 1.368 . S
C3493 C3474 1.429 . S
C3493 C3487 1.429 . S
C3493 C3494 1.523 . S
C3494 C3475 1.368 . S
C3494 C3488 1.368 . S
C3494 C3493 1.523 . S
C3495 C3479 1.429 . S
C3495 C3491 1.429 . S
C3495 C3496 1.523 . S
C3496 C3480 1.368 . S
C3496 C3492 1.368 . S
C3496 C3495 1.523 . S
H3497 C3472 0.950 . S
H3498 C3474 0.950 . S
H3499 C3475 0.949 . S
H3500 C3477 0.950 . S
H3501 C3479 0.950 . S
C3502 C3503 1.349 . S
C3502 C3504 1.327 . S
C3502 H3527 0.950 . S
C3503 C3502 1.349 . S
C3503 C3519 1.349 . S
C3504 C3502 1.327 . S
C3504 C3523 1.429 . S
C3504 H3528 0.950 . S
C3505 C3522 1.574 . S
C3505 C3524 1.368 . S
C3505 H3529 0.949 . S
H3506 C3510 0.949 . S
C3507 C3508 1.349 . S
C3507 C3509 1.327 . S
C3507 H3530 0.950 . S
C3508 C3507 1.349 . S
C3508 C3520 1.349 . S
C3509 C3507 1.327 . S
C3509 C3525 1.429 . S
C3509 H3531 0.950 . S
C3510 H3506 0.949 . S
C3510 C3518 1.574 . S
C3510 C3526 1.368 . S
H3511 C3519 0.950 . S
H3512 C3517 0.950 . S
H3513 C3518 0.949 . S
H3514 C3520 0.950 . S
H3515 C3521 0.950 . S
H3516 C3522 0.949 . S
C3517 H3512 0.950 . S
C3517 C3519 1.327 . S
C3517 C3523 1.429 . S
C3518 C3510 1.574 . S
C3518 H3513 0.949 . S
C3518 C3524 1.368 . S
C3519 C3503 1.349 . S
C3519 H3511 0.950 . S
C3519 C3517 1.327 . S
C3520 C3508 1.349 . S
C3520 H3514 0.950 . S
C3520 C3521 1.327 . S
C3521 H3515 0.950 . S
C3521 C3520 1.327 . S
C3521 C3525 1.429 . S
C3522 C3505 1.574 . S
C3522 H3516 0.949 . S
C3522 C3526 1.368 . S
C3523 C3504 1.429 . S
C3523 C3517 1.429 . S
C3523 C3524 1.523 . S
C3524 C3505 1.368 . S
C3524 C3518 1.368 . S
C3524 C3523 1.523 . S
C3525 C3509 1.429 . S
C3525 C3521 1.429 . S
C3525 C3526 1.523 . S
C3526 C3510 1.368 . S
C3526 C3522 1.368 . S
C3526 C3525 1.523 . S
H3527 C3502 0.950 . S
H3528 C3504 0.950 . S
H3529 C3505 0.949 . S
H3530 C3507 0.950 . S
H3531 C3509 0.950 . S
C3532 C3533 1.349 . S
C3532 C3534 1.327 . S
C3532 H3557 0.950 . S
C3533 C3532 1.349 . S
C3533 C3549 1.349 . S
C3534 C3532 1.327 . S
C3534 C3553 1.429 . S
C3534 H3558 0.950 . S
C3535 C3552 1.574 . S
C3535 C3554 1.368 . S
C3535 H3559 0.949 . S
H3536 C3540 0.949 . S
C3537 C3538 1.349 . S
C3537 C3539 1.327 . S
C3537 H3560 0.950 . S
C3538 C3537 1.349 . S
C3538 C3550 1.349 . S
C3539 C3537 1.327 . S
C3539 C3555 1.429 . S
C3539 H3561 0.950 . S
C3540 H3536 0.949 . S
C3540 C3548 1.574 . S
C3540 C3556 1.368 . S
H3541 C3549 0.950 . S
H3542 C3547 0.950 . S
H3543 C3548 0.949 . S
H3544 C3550 0.950 1_455 S
H3545 C3551 0.950 . S
H3546 C3552 0.949 . S
C3547 H3542 0.950 . S
C3547 C3549 1.327 . S
C3547 C3553 1.429 . S
C3548 C3540 1.574 . S
C3548 H3543 0.949 . S
C3548 C3554 1.368 . S
C3549 C3533 1.349 . S
C3549 H3541 0.950 . S
C3549 C3547 1.327 . S
C3550 C3538 1.349 . S
C3550 H3544 0.950 1_655 S
C3550 C3551 1.327 . S
C3551 H3545 0.950 . S
C3551 C3550 1.327 . S
C3551 C3555 1.429 . S
C3552 C3535 1.574 . S
C3552 H3546 0.949 . S
C3552 C3556 1.368 . S
C3553 C3534 1.429 . S
C3553 C3547 1.429 . S
C3553 C3554 1.523 . S
C3554 C3535 1.368 . S
C3554 C3548 1.368 . S
C3554 C3553 1.523 . S
C3555 C3539 1.429 . S
C3555 C3551 1.429 . S
C3555 C3556 1.523 . S
C3556 C3540 1.368 . S
C3556 C3552 1.368 . S
C3556 C3555 1.523 . S
H3557 C3532 0.950 . S
H3558 C3534 0.950 . S
H3559 C3535 0.949 . S
H3560 C3537 0.950 . S
H3561 C3539 0.950 . S
C3562 C3563 1.349 . S
C3562 C3564 1.327 . S
C3562 H3587 0.950 . S
C3563 C3562 1.349 . S
C3563 C3579 1.349 . S
C3564 C3562 1.327 . S
C3564 C3583 1.429 . S
C3564 H3588 0.950 . S
C3565 C3582 1.574 . S
C3565 C3584 1.368 . S
C3565 H3589 0.949 . S
H3566 C3570 0.949 . S
C3567 C3568 1.349 . S
C3567 C3569 1.327 . S
C3567 H3590 0.950 . S
C3568 C3567 1.349 . S
C3568 C3580 1.349 . S
C3569 C3567 1.327 . S
C3569 C3585 1.429 . S
C3569 H3591 0.950 . S
C3570 H3566 0.949 . S
C3570 C3578 1.574 . S
C3570 C3586 1.368 . S
H3571 C3579 0.950 . S
H3572 C3577 0.950 . S
H3573 C3578 0.949 . S
H3574 C3580 0.950 . S
H3575 C3581 0.950 . S
H3576 C3582 0.949 . S
C3577 H3572 0.950 . S
C3577 C3579 1.327 . S
C3577 C3583 1.429 . S
C3578 C3570 1.574 . S
C3578 H3573 0.949 . S
C3578 C3584 1.368 . S
C3579 C3563 1.349 . S
C3579 H3571 0.950 . S
C3579 C3577 1.327 . S
C3580 C3568 1.349 . S
C3580 H3574 0.950 . S
C3580 C3581 1.327 . S
C3581 H3575 0.950 . S
C3581 C3580 1.327 . S
C3581 C3585 1.429 . S
C3582 C3565 1.574 . S
C3582 H3576 0.949 . S
C3582 C3586 1.368 . S
C3583 C3564 1.429 . S
C3583 C3577 1.429 . S
C3583 C3584 1.523 . S
C3584 C3565 1.368 . S
C3584 C3578 1.368 . S
C3584 C3583 1.523 . S
C3585 C3569 1.429 . S
C3585 C3581 1.429 . S
C3585 C3586 1.523 . S
C3586 C3570 1.368 . S
C3586 C3582 1.368 . S
C3586 C3585 1.523 . S
H3587 C3562 0.950 . S
H3588 C3564 0.950 . S
H3589 C3565 0.949 . S
H3590 C3567 0.950 . S
H3591 C3569 0.950 . S
C3592 C3593 1.349 . S
C3592 C3594 1.327 . S
C3592 H3617 0.950 . S
C3593 C3592 1.349 . S
C3593 C3609 1.349 . S
C3594 C3592 1.327 . S
C3594 C3613 1.429 . S
C3594 H3618 0.950 . S
C3595 C3612 1.574 . S
C3595 C3614 1.368 . S
C3595 H3619 0.949 . S
H3596 C3600 0.949 . S
C3597 C3598 1.349 . S
C3597 C3599 1.327 . S
C3597 H3620 0.950 . S
C3598 C3597 1.349 . S
C3598 C3610 1.349 . S
C3599 C3597 1.327 . S
C3599 C3615 1.429 . S
C3599 H3621 0.950 . S
C3600 H3596 0.949 . S
C3600 C3608 1.574 . S
C3600 C3616 1.368 . S
H3601 C3609 0.950 . S
H3602 C3607 0.950 . S
H3603 C3608 0.949 . S
H3604 C3610 0.950 . S
H3605 C3611 0.950 . S
H3606 C3612 0.949 . S
C3607 H3602 0.950 . S
C3607 C3609 1.327 . S
C3607 C3613 1.429 . S
C3608 C3600 1.574 . S
C3608 H3603 0.949 . S
C3608 C3614 1.368 . S
C3609 C3593 1.349 . S
C3609 H3601 0.950 . S
C3609 C3607 1.327 . S
C3610 C3598 1.349 . S
C3610 H3604 0.950 . S
C3610 C3611 1.327 . S
C3611 H3605 0.950 . S
C3611 C3610 1.327 . S
C3611 C3615 1.429 . S
C3612 C3595 1.574 . S
C3612 H3606 0.949 . S
C3612 C3616 1.368 . S
C3613 C3594 1.429 . S
C3613 C3607 1.429 . S
C3613 C3614 1.523 . S
C3614 C3595 1.368 . S
C3614 C3608 1.368 . S
C3614 C3613 1.523 . S
C3615 C3599 1.429 . S
C3615 C3611 1.429 . S
C3615 C3616 1.523 . S
C3616 C3600 1.368 . S
C3616 C3612 1.368 . S
C3616 C3615 1.523 . S
H3617 C3592 0.950 . S
H3618 C3594 0.950 . S
H3619 C3595 0.949 . S
H3620 C3597 0.950 . S
H3621 C3599 0.950 . S
C3622 C3623 1.349 . S
C3622 C3624 1.327 . S
C3622 H3647 0.950 . S
C3623 C3622 1.349 . S
C3623 C3639 1.349 . S
C3624 C3622 1.327 . S
C3624 C3643 1.429 . S
C3624 H3648 0.950 . S
C3625 C3642 1.574 . S
C3625 C3644 1.368 . S
C3625 H3649 0.949 . S
H3626 C3630 0.949 . S
C3627 C3628 1.349 . S
C3627 C3629 1.327 . S
C3627 H3650 0.950 . S
C3628 C3627 1.349 . S
C3628 C3640 1.349 . S
C3629 C3627 1.327 . S
C3629 C3645 1.429 1_545 S
C3629 H3651 0.950 1_545 S
C3630 H3626 0.949 . S
C3630 C3638 1.574 . S
C3630 C3646 1.368 . S
H3631 C3639 0.950 . S
H3632 C3637 0.950 . S
H3633 C3638 0.949 . S
H3634 C3640 0.950 . S
H3635 C3641 0.950 . S
H3636 C3642 0.949 . S
C3637 H3632 0.950 . S
C3637 C3639 1.327 . S
C3637 C3643 1.429 . S
C3638 C3630 1.574 . S
C3638 H3633 0.949 . S
C3638 C3644 1.368 . S
C3639 C3623 1.349 . S
C3639 H3631 0.950 . S
C3639 C3637 1.327 . S
C3640 C3628 1.349 . S
C3640 H3634 0.950 . S
C3640 C3641 1.327 . S
C3641 H3635 0.950 . S
C3641 C3640 1.327 . S
C3641 C3645 1.425 1_545 S
C3642 C3625 1.574 . S
C3642 H3636 0.949 . S
C3642 C3646 1.368 . S
C3643 C3624 1.429 . S
C3643 C3637 1.429 . S
C3643 C3644 1.523 . S
C3644 C3625 1.368 . S
C3644 C3638 1.368 . S
C3644 C3643 1.523 . S
C3645 C3629 1.429 1_565 S
C3645 C3641 1.425 1_565 S
C3645 C3646 1.526 . S
C3646 C3630 1.368 . S
C3646 C3642 1.368 . S
C3646 C3645 1.526 . S
H3647 C3622 0.950 . S
H3648 C3624 0.950 . S
H3649 C3625 0.949 . S
H3650 C3627 0.950 . S
H3651 C3629 0.950 1_565 S
C3652 C3653 1.349 . S
C3652 C3654 1.327 . S
C3652 H3677 0.950 . S
C3653 C3652 1.349 . S
C3653 C3669 1.349 . S
C3654 C3652 1.327 . S
C3654 C3673 1.429 . S
C3654 H3678 0.950 . S
C3655 C3672 1.574 . S
C3655 C3674 1.368 . S
C3655 H3679 0.949 . S
H3656 C3660 0.949 . S
C3657 C3658 1.349 . S
C3657 C3659 1.327 . S
C3657 H3680 0.950 . S
C3658 C3657 1.349 . S
C3658 C3670 1.349 . S
C3659 C3657 1.327 . S
C3659 C3675 1.429 . S
C3659 H3681 0.950 . S
C3660 H3656 0.949 . S
C3660 C3668 1.574 . S
C3660 C3676 1.368 . S
H3661 C3669 0.950 . S
H3662 C3667 0.950 . S
H3663 C3668 0.949 . S
H3664 C3670 0.950 . S
H3665 C3671 0.950 . S
H3666 C3672 0.949 . S
C3667 H3662 0.950 . S
C3667 C3669 1.327 . S
C3667 C3673 1.429 . S
C3668 C3660 1.574 . S
C3668 H3663 0.949 . S
C3668 C3674 1.368 . S
C3669 C3653 1.349 . S
C3669 H3661 0.950 . S
C3669 C3667 1.327 . S
C3670 C3658 1.349 . S
C3670 H3664 0.950 . S
C3670 C3671 1.327 . S
C3671 H3665 0.950 . S
C3671 C3670 1.327 . S
C3671 C3675 1.429 . S
C3672 C3655 1.574 . S
C3672 H3666 0.949 . S
C3672 C3676 1.368 . S
C3673 C3654 1.429 . S
C3673 C3667 1.429 . S
C3673 C3674 1.523 . S
C3674 C3655 1.368 . S
C3674 C3668 1.368 . S
C3674 C3673 1.523 . S
C3675 C3659 1.429 . S
C3675 C3671 1.429 . S
C3675 C3676 1.523 . S
C3676 C3660 1.368 . S
C3676 C3672 1.368 . S
C3676 C3675 1.523 . S
H3677 C3652 0.950 . S
H3678 C3654 0.950 . S
H3679 C3655 0.949 . S
H3680 C3657 0.950 . S
H3681 C3659 0.950 . S
C3682 C3683 1.349 1_554 S
C3682 C3684 1.327 . S
C3682 H3707 0.950 . S
C3683 C3682 1.349 1_556 S
C3683 C3699 1.349 . S
C3684 C3682 1.327 . S
C3684 C3703 1.429 1_554 S
C3684 H3708 0.950 . S
C3685 C3702 1.574 . S
C3685 C3704 1.368 . S
C3685 H3709 0.949 . S
H3686 C3690 0.949 . S
C3687 C3688 1.349 1_556 S
C3687 C3689 1.327 . S
C3687 H3710 0.950 . S
C3688 C3687 1.349 1_554 S
C3688 C3700 1.349 . S
C3689 C3687 1.327 . S
C3689 C3705 1.429 1_556 S
C3689 H3711 0.950 . S
C3690 H3686 0.949 . S
C3690 C3698 1.574 . S
C3690 C3706 1.383 . S
H3691 C3699 0.950 . S
H3692 C3697 0.950 . S
H3693 C3698 0.949 . S
H3694 C3700 0.950 . S
H3695 C3701 0.950 . S
H3696 C3702 0.949 . S
C3697 H3692 0.950 . S
C3697 C3699 1.327 . S
C3697 C3703 1.429 . S
C3698 C3690 1.574 . S
C3698 H3693 0.949 . S
C3698 C3704 1.368 1_554 S
C3699 C3683 1.349 . S
C3699 H3691 0.950 . S
C3699 C3697 1.327 . S
C3700 C3688 1.349 . S
C3700 H3694 0.950 . S
C3700 C3701 1.327 . S
C3701 H3695 0.950 . S
C3701 C3700 1.327 . S
C3701 C3705 1.429 . S
C3702 C3685 1.574 . S
C3702 H3696 0.949 . S
C3702 C3706 1.348 1_556 S
C3703 C3684 1.429 1_556 S
C3703 C3697 1.429 . S
C3703 C3704 1.523 . S
C3704 C3685 1.368 . S
C3704 C3698 1.368 1_556 S
C3704 C3703 1.523 . S
C3705 C3689 1.429 1_554 S
C3705 C3701 1.429 . S
C3705 C3706 1.530 . S
C3706 C3690 1.383 . S
C3706 C3702 1.348 1_554 S
C3706 C3705 1.530 . S
H3707 C3682 0.950 . S
H3708 C3684 0.950 . S
H3709 C3685 0.949 . S
H3710 C3687 0.950 . S
H3711 C3689 0.950 . S
C3712 C3713 1.349 . S
C3712 C3714 1.327 . S
C3712 H3737 0.950 . S
C3713 C3712 1.349 . S
C3713 C3729 1.349 . S
C3714 C3712 1.327 . S
C3714 C3733 1.429 . S
C3714 H3738 0.950 . S
C3715 C3732 1.574 . S
C3715 C3734 1.368 . S
C3715 H3739 0.949 . S
H3716 C3720 0.949 . S
C3717 C3718 1.349 . S
C3717 C3719 1.327 . S
C3717 H3740 0.950 . S
C3718 C3717 1.349 . S
C3718 C3730 1.349 . S
C3719 C3717 1.327 . S
C3719 C3735 1.429 . S
C3719 H3741 0.950 . S
C3720 H3716 0.949 . S
C3720 C3728 1.574 . S
C3720 C3736 1.368 . S
H3721 C3729 0.950 . S
H3722 C3727 0.950 . S
H3723 C3728 0.949 . S
H3724 C3730 0.950 . S
H3725 C3731 0.950 . S
H3726 C3732 0.949 . S
C3727 H3722 0.950 . S
C3727 C3729 1.327 . S
C3727 C3733 1.429 . S
C3728 C3720 1.574 . S
C3728 H3723 0.949 . S
C3728 C3734 1.368 . S
C3729 C3713 1.349 . S
C3729 H3721 0.950 . S
C3729 C3727 1.327 . S
C3730 C3718 1.349 . S
C3730 H3724 0.950 . S
C3730 C3731 1.327 . S
C3731 H3725 0.950 . S
C3731 C3730 1.327 . S
C3731 C3735 1.429 . S
C3732 C3715 1.574 . S
C3732 H3726 0.949 . S
C3732 C3736 1.368 . S
C3733 C3714 1.429 . S
C3733 C3727 1.429 . S
C3733 C3734 1.523 . S
C3734 C3715 1.368 . S
C3734 C3728 1.368 . S
C3734 C3733 1.523 . S
C3735 C3719 1.429 . S
C3735 C3731 1.429 . S
C3735 C3736 1.523 . S
C3736 C3720 1.368 . S
C3736 C3732 1.368 . S
C3736 C3735 1.523 . S
H3737 C3712 0.950 . S
H3738 C3714 0.950 . S
H3739 C3715 0.949 . S
H3740 C3717 0.950 . S
H3741 C3719 0.950 . S
C3742 C3743 1.349 . S
C3742 C3744 1.327 . S
C3742 H3767 0.950 . S
C3743 C3742 1.349 . S
C3743 C3759 1.349 . S
C3744 C3742 1.327 . S
C3744 C3763 1.429 . S
C3744 H3768 0.950 . S
C3745 C3762 1.574 . S
C3745 C3764 1.368 . S
C3745 H3769 0.949 . S
H3746 C3750 0.949 . S
C3747 C3748 1.349 . S
C3747 C3749 1.327 . S
C3747 H3770 0.950 . S
C3748 C3747 1.349 . S
C3748 C3760 1.349 . S
C3749 C3747 1.327 . S
C3749 C3765 1.429 . S
C3749 H3771 0.950 . S
C3750 H3746 0.949 . S
C3750 C3758 1.574 . S
C3750 C3766 1.368 . S
H3751 C3759 0.950 . S
H3752 C3757 0.950 . S
H3753 C3758 0.949 . S
H3754 C3760 0.950 1_556 S
H3755 C3761 0.944 1_556 S
H3756 C3762 0.949 . S
C3757 H3752 0.950 . S
C3757 C3759 1.327 . S
C3757 C3763 1.429 . S
C3758 C3750 1.574 . S
C3758 H3753 0.949 . S
C3758 C3764 1.368 . S
C3759 C3743 1.349 . S
C3759 H3751 0.950 . S
C3759 C3757 1.327 . S
C3760 C3748 1.349 . S
C3760 H3754 0.950 1_554 S
C3760 C3761 1.327 . S
C3761 H3755 0.944 1_554 S
C3761 C3760 1.327 . S
C3761 C3765 1.429 . S
C3762 C3745 1.574 . S
C3762 H3756 0.949 . S
C3762 C3766 1.368 . S
C3763 C3744 1.429 . S
C3763 C3757 1.429 . S
C3763 C3764 1.523 . S
C3764 C3745 1.368 . S
C3764 C3758 1.368 . S
C3764 C3763 1.523 . S
C3765 C3749 1.429 . S
C3765 C3761 1.429 . S
C3765 C3766 1.523 . S
C3766 C3750 1.368 . S
C3766 C3762 1.368 . S
C3766 C3765 1.523 . S
H3767 C3742 0.950 . S
H3768 C3744 0.950 . S
H3769 C3745 0.949 . S
H3770 C3747 0.950 . S
H3771 C3749 0.950 . S
C3772 C3773 1.349 . S
C3772 C3774 1.327 . S
C3772 H3797 0.950 . S
C3773 C3772 1.349 . S
C3773 C3789 1.349 . S
C3774 C3772 1.327 . S
C3774 C3793 1.429 . S
C3774 H3798 0.950 . S
C3775 C3792 1.574 . S
C3775 C3794 1.368 . S
C3775 H3799 0.949 . S
H3776 C3780 0.949 . S
C3777 C3778 1.349 . S
C3777 C3779 1.327 . S
C3777 H3800 0.950 . S
C3778 C3777 1.349 . S
C3778 C3790 1.349 . S
C3779 C3777 1.327 . S
C3779 C3795 1.429 . S
C3779 H3801 0.950 . S
C3780 H3776 0.949 . S
C3780 C3788 1.574 . S
C3780 C3796 1.368 . S
H3781 C3789 0.950 . S
H3782 C3787 0.950 . S
H3783 C3788 0.949 . S
H3784 C3790 0.950 . S
H3785 C3791 0.950 . S
H3786 C3792 0.949 . S
C3787 H3782 0.950 . S
C3787 C3789 1.327 . S
C3787 C3793 1.429 . S
C3788 C3780 1.574 . S
C3788 H3783 0.949 . S
C3788 C3794 1.368 . S
C3789 C3773 1.349 . S
C3789 H3781 0.950 . S
C3789 C3787 1.327 . S
C3790 C3778 1.349 . S
C3790 H3784 0.950 . S
C3790 C3791 1.327 . S
C3791 H3785 0.950 . S
C3791 C3790 1.327 . S
C3791 C3795 1.429 . S
C3792 C3775 1.574 . S
C3792 H3786 0.949 . S
C3792 C3796 1.368 . S
C3793 C3774 1.429 . S
C3793 C3787 1.429 . S
C3793 C3794 1.523 . S
C3794 C3775 1.368 . S
C3794 C3788 1.368 . S
C3794 C3793 1.523 . S
C3795 C3779 1.429 . S
C3795 C3791 1.429 . S
C3795 C3796 1.523 . S
C3796 C3780 1.368 . S
C3796 C3792 1.368 . S
C3796 C3795 1.523 . S
H3797 C3772 0.950 . S
H3798 C3774 0.950 . S
H3799 C3775 0.949 . S
H3800 C3777 0.950 . S
H3801 C3779 0.950 . S
C3802 C3803 1.349 . S
C3802 C3804 1.327 . S
C3802 H3827 0.950 . S
C3803 C3802 1.349 . S
C3803 C3819 1.349 . S
C3804 C3802 1.327 . S
C3804 C3823 1.429 . S
C3804 H3828 0.950 . S
C3805 C3822 1.574 . S
C3805 C3824 1.368 . S
C3805 H3829 0.949 . S
H3806 C3810 0.949 . S
C3807 C3808 1.349 . S
C3807 C3809 1.327 . S
C3807 H3830 0.950 . S
C3808 C3807 1.349 . S
C3808 C3820 1.349 . S
C3809 C3807 1.327 . S
C3809 C3825 1.429 . S
C3809 H3831 0.950 . S
C3810 H3806 0.949 . S
C3810 C3818 1.574 . S
C3810 C3826 1.368 . S
H3811 C3819 0.950 . S
H3812 C3817 0.950 . S
H3813 C3818 0.949 . S
H3814 C3820 0.950 . S
H3815 C3821 0.950 . S
H3816 C3822 0.949 . S
C3817 H3812 0.950 . S
C3817 C3819 1.327 . S
C3817 C3823 1.429 . S
C3818 C3810 1.574 . S
C3818 H3813 0.949 . S
C3818 C3824 1.368 . S
C3819 C3803 1.349 . S
C3819 H3811 0.950 . S
C3819 C3817 1.327 . S
C3820 C3808 1.349 . S
C3820 H3814 0.950 . S
C3820 C3821 1.327 . S
C3821 H3815 0.950 . S
C3821 C3820 1.327 . S
C3821 C3825 1.429 . S
C3822 C3805 1.574 . S
C3822 H3816 0.949 . S
C3822 C3826 1.368 . S
C3823 C3804 1.429 . S
C3823 C3817 1.429 . S
C3823 C3824 1.523 . S
C3824 C3805 1.368 . S
C3824 C3818 1.368 . S
C3824 C3823 1.523 . S
C3825 C3809 1.429 . S
C3825 C3821 1.429 . S
C3825 C3826 1.523 . S
C3826 C3810 1.368 . S
C3826 C3822 1.368 . S
C3826 C3825 1.523 . S
H3827 C3802 0.950 . S
H3828 C3804 0.950 . S
H3829 C3805 0.949 . S
H3830 C3807 0.950 . S
H3831 C3809 0.950 . S
C953 C101 2.012 . S
C958 C322 1.936 . S
C983 C57 1.685 . S
C988 C361 1.664 . S
C1013 C70 0.986 . S
C1018 C402 0.972 1_565 S
C1048 C447 1.403 . S
C1043 C82 1.426 . S
C1073 C23 1.897 . S
C1078 C491 1.872 1_565 S
C1108 C522 1.054 . S
C1103 C29 1.091 . S
C1138 C570 1.859 . S
C1133 C49 1.854 . S
C1163 C10 1.646 . S
C1168 C598 1.603 . S
C1198 C330 1.340 . S
C1193 C218 1.319 . S
C1223 C226 1.103 . S
C1228 C371 1.073 . S
C1258 C410 1.290 . S
C1253 C251 1.263 . S
C1288 C442 1.079 . S
C1283 C159 1.096 . S
C1313 C211 0.201 . S
C1318 C478 0.274 . S
C1348 C530 2.182 . S
C1343 C225 2.191 . S
C1378 C567 0.750 . S
C1373 C252 0.750 . S
C1408 C601 1.849 . S
C1403 C166 1.861 . S
C1438 C327 1.825 . S
C1433 C147 1.878 . S
C1463 C263 1.910 . S
C1468 C641 1.885 . S
C1498 C687 1.128 . S
C1493 C309 1.141 . S
C1528 C722 1.256 . S
C1523 C291 1.306 . S
C1553 C108 1.852 . S
C1558 C611 1.811 . S
C1583 C121 1.346 . S
C1588 C407 1.326 . S
C1613 C302 1.157 . S
C1618 C770 1.183 . S
C1648 C798 0.278 . S
C1643 C276 0.235 . S
C1678 C331 2.268 . S
C1673 C55 2.319 . S
C1708 C810 1.931 . S
C1703 C96 1.981 . S
C1733 C88 1.569 . S
C1738 C411 1.550 . S
C1763 C75 1.622 . S
C1768 C758 1.603 . S
C1798 C482 2.356 . S
C1793 C4 2.393 . S
C1823 C44 1.401 . S
C1828 C691 1.372 . S
C1858 C561 2.210 1_556 S
C1853 C31 2.227 . S
C1888 C847 1.666 . S
C1883 C18 1.691 . S
C1918 C321 1.524 1_556 S
C1913 C133 1.532 . S
C1948 C802 1.681 . S
C1943 C296 1.734 . S
C1973 C107 1.672 . S
C1978 C401 1.669 . S
C2003 C264 1.663 . S
C2008 C771 1.650 . S
C2033 C140 0.221 . S
C2038 C487 0.245 . S
C2068 C681 2.518 . S
C2063 C289 2.544 . S
C2093 C114 0.803 . S
C2098 C558 0.800 . S
C2123 C265 2.133 . S
C2128 C850 2.110 . S
C2153 C179 1.899 . S
C2158 C318 1.866 . S
C2183 C161 2.212 . S
C2188 C650 2.160 . S
C2213 C244 1.182 . S
C2218 C518 1.176 . S
C2243 C224 1.624 . S
C2248 C731 1.591 . S
C2278 C842 1.951 . S
C2273 C257 2.002 . S
C2303 C199 1.538 . S
C2308 C398 1.544 . S
C2338 C441 1.532 . S
C2333 C237 1.538 . S
C2368 C367 0.514 . S
C2363 C185 0.505 . S
C2393 C69 2.013 . S
C2398 C882 1.937 . S
C2428 C801 1.665 . S
C2423 C83 1.686 . S
C2453 C94 0.987 . S
C2458 C922 0.973 . S
C2483 C56 1.426 . S
C2488 C767 1.402 . S
C2513 C42 1.906 . S
C2518 C651 1.881 . S
C2548 C682 1.053 . S
C2543 C3 1.091 . S
C2578 C730 1.871 . S
C2573 C16 1.868 . S
C2608 C838 1.605 . S
C2603 C36 1.647 . S
C2638 C890 1.340 . S
C2633 C238 1.319 . S
C2663 C174 1.104 . S
C2668 C811 1.079 . S
C2698 C930 1.290 . S
C2693 C186 1.265 . S
C2728 C762 1.078 . S
C2723 C198 1.094 . S
C2758 C638 0.274 . S
C2753 C239 0.200 . S
C2783 C173 2.190 . S
C2788 C690 2.175 . S
C2818 C727 0.753 . S
C2813 C187 0.753 . S
C2843 C205 1.861 . S
C2848 C841 1.849 . S
C2878 C887 1.823 . S
C2873 C290 1.876 . S
C2903 C122 1.911 . S
C2908 C481 1.885 . S
C2938 C527 1.131 . S
C2933 C134 1.143 . S
C2968 C562 1.258 . S
C2963 C148 1.308 . S
C2998 C851 1.807 . S
C2993 C283 1.848 . S
C3023 C270 1.345 . S
C3028 C927 1.325 . S
C3058 C450 1.182 . S
C3053 C135 1.156 . S
C3088 C358 0.278 . S
C3083 C109 0.234 . S
C3113 C81 2.319 . S
C3118 C891 2.268 . S
C3148 C370 1.931 . S
C3143 C68 1.980 . S
C3173 C62 1.569 . S
C3178 C931 1.550 . S
C3203 C95 1.621 . S
C3208 C438 1.602 . S
C3233 C30 2.394 . S
C3238 C642 2.361 . S
C3268 C531 1.362 . S
C3263 C17 1.394 . S
C3293 C5 2.228 . S
C3298 C721 2.211 . S
C3323 C43 1.683 . S
C3328 C607 1.657 . S
C3358 C881 1.524 . S
C3353 C304 1.532 . S
C3383 C153 1.733 . S
C3388 C362 1.681 . S
C3418 C921 1.668 1_556 S
C3413 C278 1.671 . S
C3443 C127 1.662 . S
C3448 C451 1.649 . S
C3473 C303 0.218 . S
C3478 C647 0.243 . S
C3508 C521 2.515 . S
C3503 C146 2.542 1_556 S
C3533 C277 0.797 . S
C3538 C718 0.795 . S
C3568 C610 2.108 . S
C3563 C120 2.130 . S
C3598 C878 1.866 . S
C3593 C231 1.900 . S
C3628 C490 2.160 1_655 S
C3623 C200 2.212 . S
C3653 C212 1.184 . S
C3658 C678 1.177 . S
C3688 C571 1.590 . S
C3683 C172 1.622 . S
C3713 C192 1.992 . S
C3718 C602 1.948 . S
C3743 C160 1.537 . S
C3748 C918 1.520 . S
C3778 C761 1.534 . S
C3773 C213 1.540 1_565 S
C3808 C807 0.516 . S
C3803 C250 0.500 . S
