# Generated by pormake.
# Topology eea, (3,6)-cn, num edge types: 1
# Building blocks:
#     Node 0, Type 0, BuildingBlock: OLANEW_clean_sbu_2, # of connection points: 3
#     Node 1, Type 0, BuildingBlock: OLANEW_clean_sbu_2, # of connection points: 3
#     Node 2, Type 0, BuildingBlock: OLANEW_clean_sbu_2, # of connection points: 3
#     Node 3, Type 0, BuildingBlock: OLANEW_clean_sbu_2, # of connection points: 3
#     Node 4, Type 0, BuildingBlock: OLANEW_clean_sbu_2, # of connection points: 3
#     Node 5, Type 0, BuildingBlock: OLANEW_clean_sbu_2, # of connection points: 3
#     Node 6, Type 0, BuildingBlock: OLANEW_clean_sbu_2, # of connection points: 3
#     Node 7, Type 0, BuildingBlock: OLANEW_clean_sbu_2, # of connection points: 3
#     Node 8, Type 0, BuildingBlock: OLANEW_clean_sbu_2, # of connection points: 3
#     Node 9, Type 0, BuildingBlock: OLANEW_clean_sbu_2, # of connection points: 3
#     Node 10, Type 0, BuildingBlock: OLANEW_clean_sbu_2, # of connection points: 3
#     Node 11, Type 0, BuildingBlock: OLANEW_clean_sbu_2, # of connection points: 3
#     Node 12, Type 0, BuildingBlock: OLANEW_clean_sbu_2, # of connection points: 3
#     Node 13, Type 0, BuildingBlock: OLANEW_clean_sbu_2, # of connection points: 3
#     Node 14, Type 0, BuildingBlock: OLANEW_clean_sbu_2, # of connection points: 3
#     Node 15, Type 0, BuildingBlock: OLANEW_clean_sbu_2, # of connection points: 3
#     Node 16, Type 0, BuildingBlock: OLANEW_clean_sbu_2, # of connection points: 3
#     Node 17, Type 0, BuildingBlock: OLANEW_clean_sbu_2, # of connection points: 3
#     Node 18, Type 1, BuildingBlock: CUKXOW_clean_sbu_0, # of connection points: 6
#     Node 19, Type 1, BuildingBlock: CUKXOW_clean_sbu_0, # of connection points: 6
#     Node 20, Type 1, BuildingBlock: CUKXOW_clean_sbu_0, # of connection points: 6
#     Node 21, Type 1, BuildingBlock: CUKXOW_clean_sbu_0, # of connection points: 6
#     Node 22, Type 1, BuildingBlock: CUKXOW_clean_sbu_0, # of connection points: 6
#     Node 23, Type 1, BuildingBlock: CUKXOW_clean_sbu_0, # of connection points: 6
#     Node 24, Type 1, BuildingBlock: CUKXOW_clean_sbu_0, # of connection points: 6
#     Node 25, Type 1, BuildingBlock: CUKXOW_clean_sbu_0, # of connection points: 6
#     Node 26, Type 1, BuildingBlock: CUKXOW_clean_sbu_0, # of connection points: 6
#     Edge 27, Type (0, 1), BuildingBlock: TEMPAE_clean_linker_10, # of connection points: 2
#     Edge 28, Type (0, 1), BuildingBlock: TEMPAE_clean_linker_10, # of connection points: 2
#     Edge 29, Type (0, 1), BuildingBlock: TEMPAE_clean_linker_10, # of connection points: 2
#     Edge 30, Type (0, 1), BuildingBlock: TEMPAE_clean_linker_10, # of connection points: 2
#     Edge 31, Type (0, 1), BuildingBlock: TEMPAE_clean_linker_10, # of connection points: 2
#     Edge 32, Type (0, 1), BuildingBlock: TEMPAE_clean_linker_10, # of connection points: 2
#     Edge 33, Type (0, 1), BuildingBlock: TEMPAE_clean_linker_10, # of connection points: 2
#     Edge 34, Type (0, 1), BuildingBlock: TEMPAE_clean_linker_10, # of connection points: 2
#     Edge 35, Type (0, 1), BuildingBlock: TEMPAE_clean_linker_10, # of connection points: 2
#     Edge 36, Type (0, 1), BuildingBlock: TEMPAE_clean_linker_10, # of connection points: 2
#     Edge 37, Type (0, 1), BuildingBlock: TEMPAE_clean_linker_10, # of connection points: 2
#     Edge 38, Type (0, 1), BuildingBlock: TEMPAE_clean_linker_10, # of connection points: 2
#     Edge 39, Type (0, 1), BuildingBlock: TEMPAE_clean_linker_10, # of connection points: 2
#     Edge 40, Type (0, 1), BuildingBlock: TEMPAE_clean_linker_10, # of connection points: 2
#     Edge 41, Type (0, 1), BuildingBlock: TEMPAE_clean_linker_10, # of connection points: 2
#     Edge 42, Type (0, 1), BuildingBlock: TEMPAE_clean_linker_10, # of connection points: 2
#     Edge 43, Type (0, 1), BuildingBlock: TEMPAE_clean_linker_10, # of connection points: 2
#     Edge 44, Type (0, 1), BuildingBlock: TEMPAE_clean_linker_10, # of connection points: 2
#     Edge 45, Type (0, 1), BuildingBlock: TEMPAE_clean_linker_10, # of connection points: 2
#     Edge 46, Type (0, 1), BuildingBlock: TEMPAE_clean_linker_10, # of connection points: 2
#     Edge 47, Type (0, 1), BuildingBlock: TEMPAE_clean_linker_10, # of connection points: 2
#     Edge 48, Type (0, 1), BuildingBlock: TEMPAE_clean_linker_10, # of connection points: 2
#     Edge 49, Type (0, 1), BuildingBlock: TEMPAE_clean_linker_10, # of connection points: 2
#     Edge 50, Type (0, 1), BuildingBlock: TEMPAE_clean_linker_10, # of connection points: 2
#     Edge 51, Type (0, 1), BuildingBlock: TEMPAE_clean_linker_10, # of connection points: 2
#     Edge 52, Type (0, 1), BuildingBlock: TEMPAE_clean_linker_10, # of connection points: 2
#     Edge 53, Type (0, 1), BuildingBlock: TEMPAE_clean_linker_10, # of connection points: 2
#     Edge 54, Type (0, 1), BuildingBlock: TEMPAE_clean_linker_10, # of connection points: 2
#     Edge 55, Type (0, 1), BuildingBlock: TEMPAE_clean_linker_10, # of connection points: 2
#     Edge 56, Type (0, 1), BuildingBlock: TEMPAE_clean_linker_10, # of connection points: 2
#     Edge 57, Type (0, 1), BuildingBlock: TEMPAE_clean_linker_10, # of connection points: 2
#     Edge 58, Type (0, 1), BuildingBlock: TEMPAE_clean_linker_10, # of connection points: 2
#     Edge 59, Type (0, 1), BuildingBlock: TEMPAE_clean_linker_10, # of connection points: 2
#     Edge 60, Type (0, 1), BuildingBlock: TEMPAE_clean_linker_10, # of connection points: 2
#     Edge 61, Type (0, 1), BuildingBlock: TEMPAE_clean_linker_10, # of connection points: 2
#     Edge 62, Type (0, 1), BuildingBlock: TEMPAE_clean_linker_10, # of connection points: 2
#     Edge 63, Type (0, 1), BuildingBlock: TEMPAE_clean_linker_10, # of connection points: 2
#     Edge 64, Type (0, 1), BuildingBlock: TEMPAE_clean_linker_10, # of connection points: 2
#     Edge 65, Type (0, 1), BuildingBlock: TEMPAE_clean_linker_10, # of connection points: 2
#     Edge 66, Type (0, 1), BuildingBlock: TEMPAE_clean_linker_10, # of connection points: 2
#     Edge 67, Type (0, 1), BuildingBlock: TEMPAE_clean_linker_10, # of connection points: 2
#     Edge 68, Type (0, 1), BuildingBlock: TEMPAE_clean_linker_10, # of connection points: 2
#     Edge 69, Type (0, 1), BuildingBlock: TEMPAE_clean_linker_10, # of connection points: 2
#     Edge 70, Type (0, 1), BuildingBlock: TEMPAE_clean_linker_10, # of connection points: 2
#     Edge 71, Type (0, 1), BuildingBlock: TEMPAE_clean_linker_10, # of connection points: 2
#     Edge 72, Type (0, 1), BuildingBlock: TEMPAE_clean_linker_10, # of connection points: 2
#     Edge 73, Type (0, 1), BuildingBlock: TEMPAE_clean_linker_10, # of connection points: 2
#     Edge 74, Type (0, 1), BuildingBlock: TEMPAE_clean_linker_10, # of connection points: 2
#     Edge 75, Type (0, 1), BuildingBlock: TEMPAE_clean_linker_10, # of connection points: 2
#     Edge 76, Type (0, 1), BuildingBlock: TEMPAE_clean_linker_10, # of connection points: 2
#     Edge 77, Type (0, 1), BuildingBlock: TEMPAE_clean_linker_10, # of connection points: 2
#     Edge 78, Type (0, 1), BuildingBlock: TEMPAE_clean_linker_10, # of connection points: 2
#     Edge 79, Type (0, 1), BuildingBlock: TEMPAE_clean_linker_10, # of connection points: 2
#     Edge 80, Type (0, 1), BuildingBlock: TEMPAE_clean_linker_10, # of connection points: 2
# Relax obj value: 0.013
# Max RMSD: 0.116
# Mean RMSD: 0.058
data_MOF--net-eea--node1-OLANEW_clean_sbu_2--node2-CUKXOW_clean_sbu_0--edge1-TEMPAE_clean_linker_10
_symmetry_space_group_name_H-M    P1
_symmetry_Int_Tables_number       1
_symmetry_cell_setting            triclinic
loop_
_symmetry_equiv_pos_as_xyz
'x, y, z'
_cell_length_a     66.411721
_cell_length_b     61.853054
_cell_length_c     52.225938
_cell_angle_alpha  97.131285
_cell_angle_beta   93.301442
_cell_angle_gamma 120.61678
loop_
_atom_site_label
_atom_site_type_symbol
_atom_site_fract_x
_atom_site_fract_y
_atom_site_fract_z
_atom_type_partial_charge
O0 O 0.2937 0.16952 0.45536 0.0
Cd1 Cd 0.28272 0.16314 0.40843 0.0
O2 O 0.29138 0.13252 0.45191 0.0
Cd3 Cd 0.27574 0.11788 0.41109 0.0
O4 O 0.25344 0.07993 0.38747 0.0
C5 C 0.24429 0.06277 0.40144 0.0
O6 O 0.24849 0.06982 0.42692 0.0
C7 C 0.29621 0.15339 0.46579 0.0
C8 C 0.26271 0.19142 0.39678 0.0
O9 O 0.2496 0.16767 0.39788 0.0
O10 O 0.28518 0.20167 0.40104 0.0
O11 O 0.89418 0.20524 0.44756 0.0
Cd12 Cd 0.90414 0.20515 0.40322 0.0
O13 O 0.88571 0.1658 0.44015 0.0
Cd14 Cd 0.87311 0.12711 0.44709 0.0
O15 O 0.84881 0.08637 0.44493 0.0
C16 C 0.84299 0.07224 0.42271 0.0
O17 O 0.85271 0.08268 0.40286 0.0
C18 C 0.88615 0.18396 0.45514 0.0
C19 C 0.95106 0.2202 0.39969 0.0
O20 O 0.94416 0.23617 0.40004 0.0
O21 O 0.93584 0.19713 0.40151 0.0
O22 O 0.90274 0.76171 0.49007 0.0
Cd23 Cd 0.90966 0.78424 0.45315 0.0
O24 O 0.87049 0.72778 0.46823 0.0
Cd25 Cd 0.86726 0.74688 0.43721 0.0
O26 O 0.84656 0.76074 0.41906 0.0
C27 C 0.84618 0.77928 0.43209 0.0
O28 O 0.85949 0.79034 0.45488 0.0
C29 C 0.88581 0.7388 0.48857 0.0
C30 C 0.94762 0.78726 0.42974 0.0
O31 O 0.95069 0.80507 0.44789 0.0
O32 O 0.92657 0.76804 0.42262 0.0
O33 O 0.15066 0.26202 0.56351 0.0
Cd34 Cd 0.1329 0.23889 0.59858 0.0
O35 O 0.13565 0.28655 0.56885 0.0
Cd36 Cd 0.11342 0.26754 0.59771 0.0
O37 O 0.08135 0.25357 0.61609 0.0
C38 C 0.06259 0.23315 0.60498 0.0
O39 O 0.06344 0.22018 0.58358 0.0
C40 C 0.14865 0.28013 0.55729 0.0
C41 C 0.16099 0.22158 0.61853 0.0
O42 O 0.14399 0.20765 0.59983 0.0
O43 O 0.16442 0.24351 0.62805 0.0
O44 O 0.70104 0.80231 0.59513 0.0
Cd45 Cd 0.70925 0.79618 0.63879 0.0
O46 O 0.72952 0.84226 0.60595 0.0
Cd47 Cd 0.75369 0.88213 0.60272 0.0
O48 O 0.7689 0.92309 0.60515 0.0
C49 C 0.77775 0.93726 0.62746 0.0
O50 O 0.77823 0.92681 0.64773 0.0
C51 C 0.71306 0.82423 0.58901 0.0
C52 C 0.74252 0.7816 0.64169 0.0
O53 O 0.72052 0.76511 0.63436 0.0
O54 O 0.74889 0.80516 0.64757 0.0
O55 O 0.11683 0.87533 0.56098 0.0
Cd56 Cd 0.10836 0.88794 0.6035 0.0
O57 O 0.12234 0.8457 0.57325 0.0
Cd58 Cd 0.12959 0.86538 0.61335 0.0
O59 O 0.15452 0.90367 0.63534 0.0
C60 C 0.16851 0.91861 0.6214 0.0
O61 O 0.16652 0.90971 0.59659 0.0
C62 C 0.11998 0.85675 0.55536 0.0
C63 C 0.06513 0.85015 0.61559 0.0
O64 O 0.06629 0.86738 0.60332 0.0
O65 O 0.08435 0.85077 0.62203 0.0
O66 O 0.91388 0.4703 0.80094 0.0
Cd67 Cd 0.88968 0.45405 0.75804 0.0
O68 O 0.94643 0.48632 0.78282 0.0
Cd69 Cd 0.92723 0.46339 0.74491 0.0
O70 O 0.90862 0.42306 0.72754 0.0
C71 C 0.90822 0.40899 0.74355 0.0
O72 O 0.91828 0.4198 0.76775 0.0
C73 C 0.93633 0.48357 0.80317 0.0
C74 C 0.88507 0.49208 0.73997 0.0
O75 O 0.86811 0.47441 0.74931 0.0
O76 O 0.90412 0.49172 0.73897 0.0
O77 O 0.5487 0.52903 0.76079 0.0
Cd78 Cd 0.56092 0.52901 0.71763 0.0
O79 O 0.53463 0.48797 0.75326 0.0
Cd80 Cd 0.51745 0.44851 0.75984 0.0
O81 O 0.49363 0.40774 0.75884 0.0
C82 C 0.49021 0.39242 0.73816 0.0
O83 O 0.50168 0.40169 0.71873 0.0
C84 C 0.53777 0.50763 0.76826 0.0
C85 C 0.60834 0.54398 0.71916 0.0
O86 O 0.60184 0.56029 0.71959 0.0
O87 O 0.59237 0.52051 0.71825 0.0
O88 O 0.5721 0.09945 0.81716 0.0
Cd89 Cd 0.58517 0.128 0.78516 0.0
O90 O 0.54551 0.06647 0.78809 0.0
Cd91 Cd 0.54563 0.08994 0.76017 0.0
O92 O 0.52199 0.10203 0.74597 0.0
C93 C 0.50094 0.08857 0.75079 0.0
O94 O 0.49567 0.06918 0.76268 0.0
C95 C 0.5567 0.07573 0.81108 0.0
C96 C 0.62536 0.13284 0.76552 0.0
O97 O 0.6272 0.1479 0.78594 0.0
O98 O 0.60453 0.11543 0.75445 0.0
O99 O 0.79678 0.54622 0.85481 0.0
Cd100 Cd 0.7874 0.51439 0.88262 0.0
O101 O 0.77774 0.56055 0.87713 0.0
Cd102 Cd 0.76074 0.58252 0.88509 0.0
O103 O 0.73005 0.58352 0.89665 0.0
C104 C 0.71027 0.5627 0.89 0.0
O105 O 0.70975 0.54313 0.87614 0.0
C106 C 0.7899 0.56195 0.85881 0.0
C107 C 0.82874 0.5197 0.90627 0.0
O108 O 0.81801 0.50471 0.8844 0.0
O109 O 0.81979 0.53201 0.91703 0.0
O110 O 0.39025 0.14914 0.93014 0.0
Cd111 Cd 0.41143 0.15914 0.97377 0.0
O112 O 0.4186 0.18818 0.92983 0.0
Cd113 Cd 0.43484 0.22418 0.9155 0.0
O114 O 0.44575 0.26383 0.91595 0.0
C115 C 0.45547 0.27858 0.93784 0.0
O116 O 0.45907 0.26925 0.95771 0.0
C117 C 0.40003 0.16785 0.91821 0.0
C118 C 0.43347 0.13153 0.97769 0.0
O119 O 0.41377 0.1246 0.98631 0.0
O120 O 0.4428 0.15156 0.96725 0.0
O121 O 0.74348 0.21369 0.84427 0.0
Cd122 Cd 0.72215 0.22166 0.87692 0.0
O123 O 0.7748 0.23593 0.87378 0.0
Cd124 Cd 0.81256 0.2567 0.88849 0.0
O125 O 0.84735 0.2864 0.90888 0.0
C126 C 0.86521 0.29765 0.89714 0.0
O127 O 0.86303 0.29043 0.87188 0.0
C128 C 0.76543 0.22311 0.85093 0.0
C129 C 0.69305 0.1783 0.89756 0.0
O130 O 0.68528 0.18362 0.87772 0.0
O131 O 0.71473 0.19347 0.90758 0.0
O132 O 0.56643 0.79922 0.14629 0.0
Cd133 Cd 0.53952 0.77904 0.10515 0.0
O134 O 0.59932 0.81479 0.12883 0.0
Cd135 Cd 0.57985 0.79158 0.09125 0.0
O136 O 0.5616 0.75293 0.06913 0.0
C137 C 0.55874 0.73633 0.08297 0.0
O138 O 0.56617 0.74389 0.10814 0.0
C139 C 0.58888 0.81258 0.14886 0.0
C140 C 0.53845 0.81527 0.07919 0.0
O141 O 0.52586 0.80705 0.09741 0.0
O142 O 0.5514 0.80619 0.07302 0.0
O143 O 0.23933 0.89118 0.12829 0.0
Cd144 Cd 0.2508 0.90011 0.08547 0.0
O145 O 0.22714 0.85152 0.1119 0.0
Cd146 Cd 0.21039 0.81065 0.11208 0.0
O147 O 0.1872 0.76942 0.10749 0.0
C148 C 0.18409 0.75599 0.0855 0.0
O149 O 0.1955 0.76744 0.06691 0.0
C150 C 0.22899 0.86788 0.13073 0.0
C151 C 0.29217 0.90141 0.07576 0.0
O152 O 0.29244 0.92185 0.08463 0.0
O153 O 0.27234 0.88017 0.07202 0.0
O154 O 0.24668 0.44119 0.16118 0.0
Cd155 Cd 0.25846 0.46755 0.12721 0.0
O156 O 0.2187 0.40733 0.1341 0.0
Cd157 Cd 0.22065 0.42842 0.10293 0.0
O158 O 0.20347 0.44455 0.08219 0.0
C159 C 0.20303 0.4633 0.0946 0.0
O160 O 0.21447 0.47326 0.11841 0.0
C161 C 0.23051 0.41768 0.15674 0.0
C162 C 0.2956 0.46849 0.10368 0.0
O163 O 0.29958 0.48493 0.12387 0.0
O164 O 0.27404 0.45145 0.09475 0.0
O165 O 0.47338 0.91953 0.21935 0.0
Cd166 Cd 0.46156 0.90148 0.25876 0.0
O167 O 0.44471 0.92701 0.21162 0.0
Cd168 Cd 0.42589 0.91221 0.24428 0.0
O169 O 0.39612 0.90179 0.26627 0.0
C170 C 0.37683 0.88072 0.25832 0.0
O171 O 0.37585 0.86515 0.23806 0.0
C172 C 0.46331 0.92782 0.20551 0.0
C173 C 0.49522 0.89133 0.27897 0.0
O174 O 0.47711 0.87427 0.26278 0.0
O175 O 0.49718 0.91301 0.28591 0.0
O176 O 0.02816 0.45164 0.23649 0.0
Cd177 Cd 0.03137 0.44072 0.27914 0.0
O178 O 0.05116 0.49186 0.25459 0.0
Cd179 Cd 0.06758 0.53281 0.25524 0.0
O180 O 0.07976 0.57337 0.26291 0.0
C181 C 0.08445 0.58454 0.28648 0.0
O182 O 0.08215 0.57135 0.30515 0.0
C183 C 0.039 0.47504 0.23445 0.0
C184 C 0.06924 0.43364 0.28774 0.0
O185 O 0.04891 0.41528 0.27637 0.0
O186 O 0.07175 0.45557 0.29492 0.0
O187 O 0.43808 0.54813 0.19887 0.0
Cd188 Cd 0.42765 0.56265 0.23881 0.0
O189 O 0.46168 0.5391 0.22004 0.0
Cd190 Cd 0.46257 0.55972 0.25747 0.0
O191 O 0.48723 0.5969 0.28153 0.0
C192 C 0.50477 0.61075 0.27034 0.0
O193 O 0.5058 0.60157 0.2467 0.0
C194 C 0.4515 0.53906 0.19864 0.0
C195 C 0.38901 0.52259 0.25548 0.0
O196 O 0.3861 0.53537 0.23966 0.0
O197 O 0.4102 0.52874 0.26334 0.0
Tb198 Tb 0.5353 0.00049 0.99532 0.0
C199 C 0.52057 0.94398 0.99942 0.0
Tb200 Tb 0.48204 0.9603 0.99645 0.0
O201 O 0.54521 0.00139 0.03638 0.0
O202 O 0.51087 0.99122 0.02207 0.0
O203 O 0.53765 0.9666 0.99533 0.0
C204 C 0.44138 0.93066 0.01373 0.0
O205 O 0.49839 0.93788 0.00088 0.0
C206 C 0.49395 0.96974 0.95043 0.0
C207 C 0.49611 0.01567 0.99065 0.0
O208 O 0.46065 0.94895 0.02795 0.0
O209 O 0.445 0.92878 0.98957 0.0
O210 O 0.47266 0.96146 0.95601 0.0
O211 O 0.50643 0.96974 0.96953 0.0
O212 O 0.48044 0.9945 0.99841 0.0
O213 O 0.51736 0.02065 0.9859 0.0
C214 C 0.57533 0.0357 0.98081 0.0
O215 O 0.56537 0.03967 1e-05 0.0
O216 O 0.56303 0.01172 0.97015 0.0
C217 C 0.52363 0.99192 0.04136 0.0
Tb218 Tb 0.00867 0.52535 0.01276 0.0
C219 C 0.05965 0.56916 0.03659 0.0
Tb220 Tb 0.04736 0.51199 0.01782 0.0
O221 O 0.0103 0.53285 0.05499 0.0
O222 O 0.01846 0.50648 0.03746 0.0
O223 O 0.0391 0.56364 0.02424 0.0
C224 C 0.08178 0.50436 0.03384 0.0
O225 O 0.06508 0.55147 0.03897 0.0
C226 C 0.0369 0.51889 0.97154 0.0
C227 C 0.99695 0.4689 0.9914 0.0
O228 O 0.08275 0.51803 0.01648 0.0
O229 O 0.06144 0.49501 0.04217 0.0
O230 O 0.04491 0.50409 0.97531 0.0
O231 O 0.03725 0.53041 0.99331 0.0
O232 O 0.01691 0.47366 0.0046 0.0
O233 O 0.99183 0.48689 0.98992 0.0
C234 C 0.97309 0.53037 0.99488 0.0
O235 O 0.97201 0.51577 0.01123 0.0
O236 O 0.99438 0.5426 0.98902 0.0
C237 C 0.01848 0.51825 0.059 0.0
Tb238 Tb 0.47014 0.49619 0.99076 0.0
C239 C 0.48584 0.45721 0.9739 0.0
Tb240 Tb 0.52343 0.51755 0.9855 0.0
O241 O 0.45956 0.484 0.94834 0.0
O242 O 0.49361 0.51382 0.96426 0.0
O243 O 0.46928 0.46038 0.98369 0.0
C244 C 0.56377 0.53104 0.96637 0.0
O245 O 0.50691 0.47656 0.97112 0.0
C246 C 0.51241 0.51455 0.03269 0.0
C247 C 0.50805 0.55622 0.00408 0.0
O248 O 0.5577 0.52031 0.98676 0.0
O249 O 0.54723 0.53435 0.95695 0.0
O250 O 0.53327 0.53107 0.02774 0.0
O251 O 0.50003 0.49969 0.01189 0.0
O252 O 0.52396 0.5531 0.99263 0.0
O253 O 0.48739 0.53679 0.00772 0.0
C254 C 0.43037 0.48477 0.01054 0.0
O255 O 0.43811 0.49806 0.99213 0.0
O256 O 0.44478 0.47752 0.01738 0.0
C257 C 0.48086 0.49919 0.94353 0.0
Tb258 Tb 0.21198 0.35639 0.34687 0.0
C259 C 0.19893 0.30172 0.35551 0.0
Tb260 Tb 0.15984 0.31692 0.35272 0.0
O261 O 0.22503 0.35925 0.38746 0.0
O262 O 0.19 0.34843 0.37634 0.0
O263 O 0.21368 0.32207 0.34565 0.0
C264 C 0.11819 0.28694 0.36805 0.0
O265 O 0.17823 0.29727 0.36203 0.0
C266 C 0.16912 0.32369 0.30504 0.0
C267 C 0.17273 0.3713 0.3445 0.0
O268 O 0.12603 0.28048 0.34806 0.0
O269 O 0.13382 0.31005 0.37936 0.0
O270 O 0.14862 0.31691 0.31218 0.0
O271 O 0.1822 0.32434 0.32377 0.0
O272 O 0.15896 0.35158 0.35551 0.0
O273 O 0.1928 0.37512 0.33668 0.0
C274 C 0.25086 0.38944 0.32886 0.0
O275 O 0.24274 0.3948 0.34916 0.0
O276 O 0.2373 0.36537 0.31897 0.0
C277 C 0.20422 0.35012 0.3947 0.0
Tb278 Tb 0.65357 0.84911 0.36476 0.0
C279 C 0.7069 0.8899 0.38324 0.0
Tb280 Tb 0.68911 0.83068 0.3676 0.0
O281 O 0.65856 0.86008 0.40716 0.0
O282 O 0.66398 0.83132 0.39009 0.0
O283 O 0.68639 0.88588 0.37245 0.0
C284 C 0.72235 0.82034 0.38077 0.0
O285 O 0.71056 0.87101 0.38602 0.0
C286 C 0.67583 0.83501 0.32142 0.0
C287 C 0.63563 0.78972 0.35002 0.0
O288 O 0.72318 0.83413 0.36359 0.0
O289 O 0.7027 0.81223 0.39052 0.0
O290 O 0.68201 0.81869 0.32516 0.0
O291 O 0.67917 0.849 0.34275 0.0
O292 O 0.65626 0.79384 0.36052 0.0
O293 O 0.63183 0.80854 0.34748 0.0
C294 C 0.62108 0.85924 0.34768 0.0
O295 O 0.62094 0.84935 0.36824 0.0
O296 O 0.63965 0.86369 0.33697 0.0
C297 C 0.66665 0.84539 0.41118 0.0
Tb298 Tb 0.12946 0.81731 0.33256 0.0
C299 C 0.13988 0.77191 0.32664 0.0
Tb300 Tb 0.18099 0.82959 0.33465 0.0
O301 O 0.12838 0.82432 0.29252 0.0
O302 O 0.15058 0.81252 0.30656 0.0
O303 O 0.12468 0.77932 0.33184 0.0
C304 C 0.22403 0.8435 0.32264 0.0
O305 O 0.16201 0.78822 0.32337 0.0
C306 C 0.1647 0.82752 0.37959 0.0
C307 C 0.17084 0.87492 0.33885 0.0
O308 O 0.21499 0.83197 0.34185 0.0
O309 O 0.20895 0.84742 0.31044 0.0
O310 O 0.18192 0.82384 0.37546 0.0
O311 O 0.16 0.83511 0.36027 0.0
O312 O 0.18574 0.86716 0.33345 0.0
O313 O 0.14887 0.85897 0.34307 0.0
C314 C 0.08743 0.80367 0.34754 0.0
O315 O 0.09552 0.81546 0.32818 0.0
O316 O 0.10276 0.7991 0.35796 0.0
C317 C 0.14569 0.82089 0.28794 0.0
Tb318 Tb 0.87335 0.68547 0.68727 0.0
C319 C 0.85984 0.63079 0.69622 0.0
Tb320 Tb 0.8209 0.64585 0.68947 0.0
O321 O 0.8826 0.6862 0.72847 0.0
O322 O 0.84913 0.67834 0.71422 0.0
O323 O 0.87555 0.65147 0.68751 0.0
C324 C 0.77802 0.61198 0.69952 0.0
O325 O 0.83857 0.62609 0.70055 0.0
C326 C 0.83315 0.65336 0.64299 0.0
C327 C 0.83405 0.70049 0.68288 0.0
O328 O 0.79491 0.63059 0.71644 0.0
O329 O 0.7854 0.61229 0.67705 0.0
O330 O 0.81238 0.64721 0.64879 0.0
O331 O 0.84517 0.6533 0.66243 0.0
O332 O 0.81952 0.68026 0.69286 0.0
O333 O 0.85467 0.70467 0.67635 0.0
C334 C 0.91375 0.71921 0.67211 0.0
O335 O 0.90651 0.72261 0.69397 0.0
O336 O 0.89841 0.69673 0.659 0.0
C337 C 0.86154 0.67934 0.734 0.0
Tb338 Tb 0.30941 0.16261 0.69524 0.0
C339 C 0.36295 0.20579 0.70883 0.0
Tb340 Tb 0.34767 0.1482 0.69794 0.0
O341 O 0.31826 0.17801 0.73728 0.0
O342 O 0.32329 0.14872 0.72172 0.0
O343 O 0.3419 0.19928 0.69702 0.0
C344 C 0.37723 0.13268 0.70991 0.0
O345 O 0.36782 0.18862 0.71502 0.0
C346 C 0.34091 0.16289 0.6548 0.0
C347 C 0.29347 0.10395 0.68512 0.0
O348 O 0.37353 0.14793 0.72558 0.0
O349 O 0.3641 0.12598 0.68755 0.0
O350 O 0.3609 0.1657 0.66373 0.0
O351 O 0.3257 0.15019 0.66861 0.0
O352 O 0.31571 0.11021 0.69173 0.0
O353 O 0.28726 0.12118 0.68384 0.0
C354 C 0.27627 0.17182 0.67879 0.0
O355 O 0.27529 0.15965 0.69773 0.0
O356 O 0.29587 0.17879 0.66926 0.0
C357 C 0.32681 0.16393 0.74214 0.0
Tb358 Tb 0.81048 0.1637 0.67359 0.0
C359 C 0.8233 0.12178 0.66002 0.0
Tb360 Tb 0.86351 0.18105 0.6723 0.0
O361 O 0.80149 0.15087 0.6311 0.0
O362 O 0.83581 0.17886 0.64813 0.0
O363 O 0.80741 0.12673 0.66876 0.0
C364 C 0.90515 0.19086 0.65907 0.0
O365 O 0.845 0.13995 0.65738 0.0
C366 C 0.85027 0.18165 0.71861 0.0
C367 C 0.85063 0.22289 0.68509 0.0
O368 O 0.89512 0.17846 0.67743 0.0
O369 O 0.89182 0.1979 0.64832 0.0
O370 O 0.87179 0.19642 0.71419 0.0
O371 O 0.83836 0.16618 0.69793 0.0
O372 O 0.86613 0.21775 0.67547 0.0
O373 O 0.82918 0.20481 0.68859 0.0
C374 C 0.77004 0.15463 0.69026 0.0
O375 O 0.7797 0.16813 0.67247 0.0
O376 O 0.78298 0.14599 0.69831 0.0
C377 C 0.82344 0.16416 0.62727 0.0
C378 C 0.33358 0.92589 0.0661 0.0
C379 C 0.31393 0.90252 0.06881 0.0
C380 C 0.35377 0.92718 0.05768 0.0
C381 C 0.35451 0.90461 0.05227 0.0
C382 C 0.33506 0.88106 0.05584 0.0
C383 C 0.31486 0.88024 0.06382 0.0
C384 C 0.3741 0.95267 0.05398 0.0
C385 C 0.33554 0.85677 0.05102 0.0
C386 C 0.3976 0.90939 0.00558 0.0
C387 C 0.4182 0.91853 0.02297 0.0
C388 C 0.37622 0.90327 0.01484 0.0
C389 C 0.37546 0.90586 0.04207 0.0
C390 C 0.39579 0.91286 0.05951 0.0
C391 C 0.41704 0.91948 0.04974 0.0
C392 C 0.35502 0.8961 0.99561 0.0
C393 C 0.39569 0.91523 0.08861 0.0
H394 H 0.33296 0.94316 0.06986 0.0
H395 H 0.29978 0.86214 0.06609 0.0
H396 H 0.39043 0.95746 0.06642 0.0
H397 H 0.37749 0.95166 0.03343 0.0
H398 H 0.37066 0.96839 0.05889 0.0
H399 H 0.31954 0.8403 0.05608 0.0
H400 H 0.33683 0.85213 0.0302 0.0
H401 H 0.3514 0.8594 0.06265 0.0
H402 H 0.39855 0.90877 0.98487 0.0
H403 H 0.433 0.92641 0.06315 0.0
H404 H 0.35152 0.91193 0.99773 0.0
H405 H 0.33904 0.87893 0.99958 0.0
H406 H 0.35773 0.8923 0.97513 0.0
H407 H 0.39819 0.93405 0.09658 0.0
H408 H 0.41023 0.91394 0.09847 0.0
H409 H 0.37864 0.9002 0.09348 0.0
C410 C 0.18755 0.49276 0.09731 0.0
C411 C 0.18758 0.47171 0.08376 0.0
C412 C 0.17138 0.49945 0.08871 0.0
C413 C 0.15473 0.48464 0.06612 0.0
C414 C 0.15515 0.46387 0.05189 0.0
C415 C 0.17163 0.45772 0.06082 0.0
C416 C 0.17164 0.52189 0.10424 0.0
C417 C 0.13763 0.44759 0.02773 0.0
C418 C 0.09688 0.48338 0.06022 0.0
C419 C 0.10058 0.49974 0.04238 0.0
C420 C 0.1144 0.47834 0.06814 0.0
C421 C 0.13617 0.4901 0.05806 0.0
C422 C 0.14006 0.50687 0.04023 0.0
C423 C 0.12216 0.51144 0.03253 0.0
C424 C 0.10954 0.46028 0.08714 0.0
C425 C 0.1631 0.5199 0.02923 0.0
H426 H 0.19989 0.50376 0.11497 0.0
H427 H 0.17151 0.44142 0.05023 0.0
H428 H 0.17272 0.53531 0.09135 0.0
H429 H 0.15493 0.51513 0.11271 0.0
H430 H 0.18668 0.53246 0.12035 0.0
H431 H 0.14105 0.43293 0.01816 0.0
H432 H 0.11946 0.43778 0.03293 0.0
H433 H 0.13823 0.45972 0.01348 0.0
H434 H 0.08018 0.47434 0.06785 0.0
H435 H 0.12503 0.52416 0.01876 0.0
H436 H 0.12301 0.47012 0.10477 0.0
H437 H 0.11082 0.44388 0.07816 0.0
H438 H 0.09175 0.45284 0.09324 0.0
H439 H 0.17804 0.53126 0.04531 0.0
H440 H 0.16348 0.53276 0.01593 0.0
H441 H 0.16603 0.50539 0.01835 0.0
C442 C 0.54895 0.69216 0.08606 0.0
C443 C 0.54874 0.70931 0.07097 0.0
C444 C 0.54102 0.66689 0.07479 0.0
C445 C 0.53249 0.65852 0.04782 0.0
C446 C 0.5315 0.67547 0.03262 0.0
C447 C 0.53975 0.70074 0.04437 0.0
C448 C 0.54246 0.64938 0.0916 0.0
C449 C 0.52224 0.66707 0.00386 0.0
C450 C 0.53688 0.60328 0.0147 0.0
C451 C 0.51393 0.5825 0.01415 0.0
C452 C 0.54304 0.62817 0.02528 0.0
C453 C 0.52577 0.63241 0.03536 0.0
C454 C 0.50245 0.61162 0.03443 0.0
C455 C 0.49683 0.58687 0.02395 0.0
C456 C 0.56817 0.64985 0.0262 0.0
C457 C 0.48354 0.61547 0.04486 0.0
H458 H 0.55584 0.6986 0.10664 0.0
H459 H 0.5394 0.71385 0.03263 0.0
H460 H 0.52491 0.63168 0.09004 0.0
H461 H 0.55482 0.64364 0.08466 0.0
H462 H 0.54863 0.65854 0.11246 0.0
H463 H 0.5212 0.68204 0.99517 0.0
H464 H 0.53394 0.6623 0.99342 0.0
H465 H 0.50439 0.64954 0.00054 0.0
H466 H 0.55025 0.60011 0.0073 0.0
H467 H 0.47902 0.57095 0.02356 0.0
H468 H 0.57621 0.65891 0.04676 0.0
H469 H 0.56843 0.66474 0.01613 0.0
H470 H 0.57934 0.64341 0.01698 0.0
H471 H 0.48845 0.62292 0.06612 0.0
H472 H 0.46598 0.59749 0.04143 0.0
H473 H 0.48206 0.62987 0.03556 0.0
C474 C 0.88882 0.32888 0.93801 0.0
C475 C 0.8873 0.32042 0.91137 0.0
C476 C 0.90838 0.352 0.95116 0.0
C477 C 0.92696 0.36701 0.93739 0.0
C478 C 0.92616 0.35796 0.91086 0.0
C479 C 0.9063 0.33477 0.89813 0.0
C480 C 0.90853 0.36101 0.97945 0.0
C481 C 0.94574 0.37337 0.89559 0.0
C482 C 0.95935 0.43831 0.96181 0.0
C483 C 0.97971 0.44283 0.97698 0.0
C484 C 0.94238 0.41385 0.94842 0.0
C485 C 0.94583 0.39327 0.95006 0.0
C486 C 0.96661 0.39772 0.96471 0.0
C487 C 0.98332 0.42248 0.97809 0.0
C488 C 0.92048 0.40997 0.93299 0.0
C489 C 0.971 0.37627 0.96658 0.0
H490 H 0.87432 0.31786 0.94847 0.0
H491 H 0.90536 0.32832 0.87759 0.0
H492 H 0.92547 0.36665 0.99116 0.0
H493 H 0.90694 0.37814 0.98122 0.0
H494 H 0.89378 0.34615 0.98793 0.0
H495 H 0.94377 0.36244 0.8761 0.0
H496 H 0.94572 0.39086 0.89285 0.0
H497 H 0.96319 0.37958 0.90649 0.0
H498 H 0.95645 0.4539 0.96049 0.0
H499 H 0.99908 0.42581 0.98957 0.0
H500 H 0.90458 0.39672 0.94125 0.0
H501 H 0.91855 0.40113 0.91248 0.0
H502 H 0.92086 0.42815 0.93305 0.0
H503 H 0.95734 0.36205 0.97666 0.0
H504 H 0.98869 0.38315 0.97737 0.0
H505 H 0.96955 0.36624 0.94679 0.0
C506 C 0.66711 0.53612 0.89286 0.0
C507 C 0.68845 0.55974 0.89927 0.0
C508 C 0.64662 0.53228 0.90292 0.0
C509 C 0.64744 0.55255 0.91978 0.0
C510 C 0.66871 0.57668 0.92571 0.0
C511 C 0.68899 0.57999 0.91541 0.0
C512 C 0.62427 0.50627 0.89611 0.0
C513 C 0.6702 0.59879 0.94349 0.0
C514 C 0.58887 0.54642 0.93128 0.0
C515 C 0.58549 0.53741 0.95494 0.0
C516 C 0.60911 0.55176 0.9197 0.0
C517 C 0.62634 0.54805 0.9322 0.0
C518 C 0.62308 0.53922 0.95627 0.0
C519 C 0.60264 0.53395 0.96733 0.0
C520 C 0.61185 0.56095 0.89394 0.0
C521 C 0.64102 0.53498 0.97017 0.0
H522 H 0.66647 0.52037 0.88034 0.0
H523 H 0.70537 0.59832 0.92039 0.0
H524 H 0.61942 0.49782 0.91397 0.0
H525 H 0.6094 0.50798 0.88812 0.0
H526 H 0.62621 0.49292 0.88163 0.0
H527 H 0.68763 0.61669 0.945 0.0
H528 H 0.65617 0.60218 0.93632 0.0
H529 H 0.66719 0.59416 0.96329 0.0
H530 H 0.57553 0.54898 0.92162 0.0
H531 H 0.6 0.52696 0.98563 0.0
H532 H 0.612 0.5468 0.87878 0.0
H533 H 0.62897 0.57916 0.89547 0.0
H534 H 0.59737 0.56393 0.88737 0.0
H535 H 0.64272 0.52028 0.95768 0.0
H536 H 0.63613 0.52868 0.98906 0.0
H537 H 0.65863 0.55284 0.97386 0.0
C538 C 0.44177 0.10299 -0.00011 0.0
C539 C 0.44493 0.11661 0.97948 0.0
C540 C 0.45206 0.08817 0.00154 0.0
C541 C 0.46514 0.08631 0.98181 0.0
C542 C 0.46848 0.10014 0.96119 0.0
C543 C 0.45862 0.11549 0.9605 0.0
C544 C 0.44863 0.07422 0.0242 0.0
C545 C 0.4817 0.09799 0.93939 0.0
C546 C 0.50466 0.06025 0.99608 0.0
C547 C 0.48918 0.03417 0.98664 0.0
C548 C 0.49722 0.07766 0.99435 0.0
C549 C 0.47409 0.0687 0.9821 0.0
C550 C 0.4589 0.0425 0.97133 0.0
C551 C 0.46651 0.02546 0.97415 0.0
C552 C 0.51368 0.10534 0.00663 0.0
C553 C 0.43441 0.03234 0.95735 0.0
H554 H 0.43136 0.10406 0.0147 0.0
H555 H 0.46093 0.12593 0.94461 0.0
H556 H 0.43774 0.05332 0.01708 0.0
H557 H 0.46595 0.07851 0.03374 0.0
H558 H 0.43977 0.07944 0.03903 0.0
H559 H 0.48338 0.11063 0.92524 0.0
H560 H 0.49964 0.1029 0.94739 0.0
H561 H 0.47232 0.07797 0.9288 0.0
H562 H 0.52218 0.06684 0.00581 0.0
H563 H 0.45472 0.00526 0.96655 0.0
H564 H 0.50601 0.11047 0.02293 0.0
H565 H 0.51571 0.11786 0.99227 0.0
H566 H 0.53145 0.10942 0.0143 0.0
H567 H 0.42316 0.03405 0.97138 0.0
H568 H 0.42577 0.01199 0.94791 0.0
H569 H 0.43521 0.04377 0.94222 0.0
C570 C 0.68605 0.149 0.92964 0.0
C571 C 0.6772 0.15577 0.90901 0.0
C572 C 0.67087 0.12848 0.9415 0.0
C573 C 0.64627 0.11461 0.9327 0.0
C574 C 0.63738 0.12097 0.91147 0.0
C575 C 0.65293 0.14139 0.89984 0.0
C576 C 0.68107 0.122 0.96382 0.0
C577 C 0.61129 0.10691 0.90168 0.0
C578 C 0.60505 0.04949 0.94987 0.0
C579 C 0.59518 0.05586 0.97028 0.0
C580 C 0.62224 0.06848 0.93788 0.0
C581 C 0.62961 0.09438 0.94652 0.0
C582 C 0.62012 0.10091 0.96765 0.0
C583 C 0.60308 0.08155 0.97935 0.0
C584 C 0.63195 0.06075 0.91546 0.0
C585 C 0.62731 0.12826 0.9773 0.0
H586 H 0.70482 0.15992 0.93673 0.0
H587 H 0.64594 0.14647 0.88391 0.0
H588 H 0.67449 0.12554 0.98197 0.0
H589 H 0.67517 0.10144 0.95996 0.0
H590 H 0.7007 0.13345 0.96714 0.0
H591 H 0.60742 0.11302 0.88387 0.0
H592 H 0.60394 0.08603 0.89734 0.0
H593 H 0.60206 0.11057 0.91711 0.0
H594 H 0.59901 0.02961 0.94294 0.0
H595 H 0.59537 0.08649 0.99507 0.0
H596 H 0.65156 0.07205 0.91884 0.0
H597 H 0.62622 0.06484 0.89723 0.0
H598 H 0.62587 0.04012 0.91252 0.0
H599 H 0.64679 0.1404 0.98246 0.0
H600 H 0.61902 0.13023 0.99461 0.0
H601 H 0.6221 0.13572 0.96157 0.0
C602 C 0.85962 0.50788 0.90764 0.0
C603 C 0.85077 0.52261 0.91881 0.0
C604 C 0.88016 0.51001 0.91966 0.0
C605 C 0.89222 0.5274 0.94331 0.0
C606 C 0.88365 0.54268 0.95442 0.0
C607 C 0.86299 0.54005 0.94208 0.0
C608 C 0.88884 0.49349 0.90715 0.0
C609 C 0.89615 0.56157 0.97954 0.0
C610 C 0.93 0.51405 0.9882 0.0
C611 C 0.95271 0.53069 0.98269 0.0
C612 C 0.91018 0.51288 0.97556 0.0
C613 C 0.91321 0.52882 0.95704 0.0
C614 C 0.93618 0.54587 0.95161 0.0
C615 C 0.9557 0.54661 0.96456 0.0
C616 C 0.88595 0.49428 0.98171 0.0
C617 C 0.94012 0.56314 0.93198 0.0
H618 H 0.85035 0.49444 0.8896 0.0
H619 H 0.85636 0.55161 0.95077 0.0
H620 H 0.90666 0.50575 0.90181 0.0
H621 H 0.89048 0.48217 0.92114 0.0
H622 H 0.8769 0.48017 0.88931 0.0
H623 H 0.88779 0.57281 0.98503 0.0
H624 H 0.89599 0.55133 0.99559 0.0
H625 H 0.91492 0.57497 0.97771 0.0
H626 H 0.92767 0.50161 0.00214 0.0
H627 H 0.9733 0.55951 0.96034 0.0
H628 H 0.87476 0.48054 0.96377 0.0
H629 H 0.87717 0.50463 0.98871 0.0
H630 H 0.88666 0.48339 0.99678 0.0
H631 H 0.93108 0.55148 0.91241 0.0
H632 H 0.95918 0.57596 0.93074 0.0
H633 H 0.93234 0.57499 0.93719 0.0
C634 C 0.47193 0.32134 0.96577 0.0
C635 C 0.46112 0.30528 0.94148 0.0
C636 C 0.4762 0.34623 0.97009 0.0
C637 C 0.46945 0.35526 0.94963 0.0
C638 C 0.45893 0.33935 0.92492 0.0
C639 C 0.45491 0.31453 0.92112 0.0
C640 C 0.4876 0.36273 0.99667 0.0
C641 C 0.45154 0.3484 0.90266 0.0
C642 C 0.45961 0.40983 0.96995 0.0
C643 C 0.48108 0.43097 0.96643 0.0
C644 C 0.45539 0.385 0.96401 0.0
C645 C 0.47307 0.38124 0.95436 0.0
C646 C 0.49456 0.4024 0.95023 0.0
C647 C 0.4983 0.42701 0.95627 0.0
C648 C 0.4322 0.36282 0.96856 0.0
C649 C 0.51382 0.39912 0.93997 0.0
H650 H 0.47684 0.31437 0.98158 0.0
H651 H 0.44655 0.30223 0.90229 0.0
H652 H 0.50383 0.38081 0.9949 0.0
H653 H 0.47537 0.36784 0.00532 0.0
H654 H 0.49236 0.35306 0.01028 0.0
H655 H 0.44423 0.33394 0.88443 0.0
H656 H 0.43795 0.35284 0.90799 0.0
H657 H 0.46687 0.36626 0.89879 0.0
H658 H 0.44616 0.41265 0.97768 0.0
H659 H 0.51491 0.44317 0.95332 0.0
H660 H 0.43546 0.35336 0.98361 0.0
H661 H 0.42346 0.34838 0.95041 0.0
H662 H 0.41989 0.36885 0.97506 0.0
H663 H 0.52025 0.39113 0.95398 0.0
H664 H 0.52908 0.41742 0.93676 0.0
H665 H 0.50676 0.38535 0.92129 0.0
C666 C 0.16314 0.71359 0.0558 0.0
C667 C 0.16689 0.72812 0.08038 0.0
C668 C 0.14602 0.68744 0.05012 0.0
C669 C 0.13232 0.67552 0.0695 0.0
C670 C 0.13635 0.68992 0.09454 0.0
C671 C 0.15361 0.71608 0.09969 0.0
C672 C 0.14225 0.67268 0.02319 0.0
C673 C 0.1221 0.67782 0.11569 0.0
C674 C 0.07279 0.61549 0.04444 0.0
C675 C 0.07771 0.59627 0.04698 0.0
C676 C 0.09025 0.64136 0.05237 0.0
C677 C 0.11319 0.64818 0.06312 0.0
C678 C 0.11811 0.62891 0.06651 0.0
C679 C 0.1003 0.60317 0.05841 0.0
C680 C 0.08431 0.6614 0.04854 0.0
C681 C 0.14237 0.63548 0.07796 0.0
H682 H 0.17336 0.72272 0.04079 0.0
H683 H 0.15642 0.72716 0.11876 0.0
H684 H 0.14411 0.65601 0.02454 0.0
H685 H 0.12404 0.66521 0.01357 0.0
H686 H 0.15495 0.68458 0.01063 0.0
H687 H 0.12816 0.69138 0.13447 0.0
H688 H 0.10319 0.67078 0.10958 0.0
H689 H 0.12328 0.66107 0.11887 0.0
H690 H 0.05538 0.61041 0.03577 0.0
H691 H 0.1043 0.58849 0.06056 0.0
H692 H 0.09501 0.67287 0.0344 0.0
H693 H 0.08882 0.67469 0.06718 0.0
H694 H 0.06532 0.65292 0.0412 0.0
H695 H 0.15537 0.64566 0.06486 0.0
H696 H 0.14291 0.61827 0.0808 0.0
H697 H 0.1481 0.64853 0.09701 0.0
C698 C 0.31073 0.45155 0.06852 0.0
C699 C 0.31531 0.46954 0.09072 0.0
C700 C 0.32917 0.45291 0.05551 0.0
C701 C 0.35276 0.47278 0.06485 0.0
C702 C 0.35753 0.49076 0.08748 0.0
C703 C 0.33877 0.48889 0.10017 0.0
C704 C 0.32338 0.43326 0.03157 0.0
C705 C 0.38245 0.51206 0.09824 0.0
C706 C 0.40331 0.46599 0.04325 0.0
C707 C 0.40985 0.48069 0.0235 0.0
C708 C 0.38471 0.46315 0.05686 0.0
C709 C 0.37234 0.47526 0.05044 0.0
C710 C 0.37877 0.48993 0.03028 0.0
C711 C 0.39745 0.49244 0.01702 0.0
C712 C 0.37851 0.44745 0.07827 0.0
C713 C 0.36614 0.5033 0.023 0.0
H714 H 0.29267 0.43648 0.06113 0.0
H715 H 0.34251 0.50279 0.11739 0.0
H716 H 0.32874 0.44276 0.0144 0.0
H717 H 0.33348 0.42369 0.03411 0.0
H718 H 0.30424 0.41848 0.02735 0.0
H719 H 0.38306 0.52551 0.11492 0.0
H720 H 0.39286 0.50386 0.10493 0.0
H721 H 0.39121 0.52296 0.08281 0.0
H722 H 0.41286 0.45684 0.0482 0.0
H723 H 0.40257 0.50393 0.00183 0.0
H724 H 0.35944 0.43248 0.07475 0.0
H725 H 0.38182 0.45983 0.09722 0.0
H726 H 0.38898 0.43814 0.07986 0.0
H727 H 0.34697 0.48922 0.01724 0.0
H728 H 0.37311 0.51374 0.00669 0.0
H729 H 0.36802 0.51709 0.04012 0.0
C730 C 0.52872 0.84901 0.07654 0.0
C731 C 0.53804 0.83469 0.06568 0.0
C732 C 0.52801 0.86737 0.0639 0.0
C733 C 0.53647 0.87117 0.03957 0.0
C734 C 0.54605 0.8569 0.02857 0.0
C735 C 0.54689 0.83895 0.04187 0.0
C736 C 0.51796 0.8825 0.07644 0.0
C737 C 0.55489 0.8602 0.00249 0.0
C738 C 0.50908 0.89899 0.99961 0.0
C739 C 0.52655 0.925 0.00503 0.0
C740 C 0.51273 0.88098 0.00934 0.0
C741 C 0.5342 0.8893 0.0253 0.0
C742 C 0.55244 0.91536 0.02959 0.0
C743 C 0.54846 0.93294 0.01918 0.0
C744 C 0.49302 0.85328 0.00388 0.0
C745 C 0.57548 0.92498 0.04674 0.0
H746 H 0.52204 0.84595 0.09505 0.0
H747 H 0.55408 0.82788 0.03337 0.0
H748 H 0.53089 0.90327 0.07838 0.0
H749 H 0.50183 0.87818 0.06393 0.0
H750 H 0.51331 0.87821 0.09605 0.0
H751 H 0.5626 0.8483 0.99706 0.0
H752 H 0.5401 0.8549 0.98713 0.0
H753 H 0.56848 0.8805 0.00279 0.0
H754 H 0.49216 0.89283 0.98852 0.0
H755 H 0.56189 0.9531 0.02363 0.0
H756 H 0.48524 0.84784 0.02197 0.0
H757 H 0.49994 0.8408 0.99761 0.0
H758 H 0.47873 0.84951 0.98858 0.0
H759 H 0.57225 0.92394 0.06729 0.0
H760 H 0.58881 0.94506 0.04561 0.0
H761 H 0.5829 0.91284 0.04124 0.0
C762 C 0.98487 0.21288 0.40225 0.0
C763 C 0.97573 0.22805 0.3965 0.0
C764 C 0.00819 0.22007 0.39887 0.0
C765 C 0.02247 0.24269 0.38902 0.0
C766 C 0.01325 0.25797 0.38305 0.0
C767 C 0.99009 0.25059 0.38709 0.0
C768 C 0.01758 0.2036 0.40595 0.0
C769 C 0.0278 0.28206 0.37217 0.0
C770 C 0.08938 0.27924 0.39922 0.0
C771 C 0.09412 0.27236 0.37475 0.0
C772 C 0.06611 0.2684 0.40474 0.0
C773 C 0.04716 0.25074 0.38507 0.0
C774 C 0.05196 0.24281 0.36074 0.0
C775 C 0.07549 0.25356 0.35595 0.0
C776 C 0.06179 0.2769 0.43115 0.0
C777 C 0.03225 0.22427 0.33916 0.0
H778 H 0.97387 0.19548 0.40963 0.0
H779 H 0.98307 0.2623 0.38243 0.0
H780 H 0.02303 0.19676 0.38858 0.0
H781 H 0.03352 0.21502 0.42083 0.0
H782 H 0.00432 0.18678 0.4137 0.0
H783 H 0.01778 0.29139 0.36783 0.0
H784 H 0.0438 0.29586 0.38629 0.0
H785 H 0.03386 0.27763 0.35398 0.0
H786 H 0.10387 0.29369 0.41382 0.0
H787 H 0.07919 0.24835 0.33699 0.0
H788 H 0.0488 0.26017 0.43918 0.0
H789 H 0.05423 0.2891 0.42918 0.0
H790 H 0.07831 0.28797 0.4453 0.0
H791 H 0.0192 0.20704 0.34646 0.0
H792 H 0.03889 0.21823 0.32236 0.0
H793 H 0.02277 0.23336 0.33216 0.0
C794 C 0.82995 0.80804 0.43676 0.0
C795 C 0.82932 0.78666 0.42305 0.0
C796 C 0.81305 0.81425 0.42964 0.0
C797 C 0.79498 0.7986 0.40841 0.0
C798 C 0.7945 0.77727 0.39417 0.0
C799 C 0.81174 0.77162 0.40159 0.0
C800 C 0.81431 0.83732 0.44511 0.0
C801 C 0.77546 0.76008 0.37147 0.0
C802 C 0.73797 0.79925 0.40642 0.0
C803 C 0.74089 0.81488 0.38799 0.0
C804 C 0.75544 0.79374 0.41322 0.0
C805 C 0.77633 0.80428 0.40139 0.0
C806 C 0.77939 0.82025 0.3829 0.0
C807 C 0.76158 0.8253 0.37637 0.0
C808 C 0.7515 0.77658 0.43297 0.0
C809 C 0.80148 0.83199 0.37004 0.0
H810 H 0.84351 0.81983 0.45331 0.0
H811 H 0.81107 0.75503 0.39092 0.0
H812 H 0.81502 0.85039 0.43195 0.0
H813 H 0.79814 0.83128 0.45452 0.0
H814 H 0.82996 0.84806 0.46048 0.0
H815 H 0.77788 0.7446 0.36205 0.0
H816 H 0.75788 0.7513 0.37822 0.0
H817 H 0.77533 0.77139 0.35663 0.0
H818 H 0.72199 0.79124 0.41546 0.0
H819 H 0.76388 0.83747 0.36216 0.0
H820 H 0.76584 0.78687 0.44978 0.0
H821 H 0.75208 0.75967 0.42413 0.0
H822 H 0.73427 0.76989 0.44031 0.0
H823 H 0.81726 0.84377 0.38507 0.0
H824 H 0.80122 0.84419 0.35625 0.0
H825 H 0.80351 0.81676 0.35923 0.0
C826 C 0.22544 0.02721 0.36261 0.0
C827 C 0.23077 0.03529 0.38974 0.0
C828 C 0.21398 0.00116 0.35161 0.0
C829 C 0.208 0.98289 0.36816 0.0
C830 C 0.21277 0.99092 0.39554 0.0
C831 C 0.22396 0.01697 0.40597 0.0
C832 C 0.20882 0.99323 0.32234 0.0
C833 C 0.20682 0.97206 0.41387 0.0
C834 C 0.16464 0.9118 0.34651 0.0
C835 C 0.18001 0.90268 0.3434 0.0
C836 C 0.17343 0.93807 0.35317 0.0
C837 C 0.19814 0.95554 0.35716 0.0
C838 C 0.21367 0.94651 0.35302 0.0
C839 C 0.2044 0.92022 0.34602 0.0
C840 C 0.15631 0.94703 0.35697 0.0
C841 C 0.24016 0.9645 0.35732 0.0
H842 H 0.23052 0.04125 0.34996 0.0
H843 H 0.22794 0.02299 0.42695 0.0
H844 H 0.21975 0.98537 0.31566 0.0
H845 H 0.19003 0.97788 0.31633 0.0
H846 H 0.2126 0.00944 0.31227 0.0
H847 H 0.21093 0.98132 0.43466 0.0
H848 H 0.18779 0.95706 0.40971 0.0
H849 H 0.21696 0.96242 0.41084 0.0
H850 H 0.14574 0.8984 0.34424 0.0
H851 H 0.21644 0.91341 0.34359 0.0
H852 H 0.16061 0.96306 0.34646 0.0
H853 H 0.15786 0.95424 0.37797 0.0
H854 H 0.1377 0.9315 0.35005 0.0
H855 H 0.24516 0.98018 0.34611 0.0
H856 H 0.24971 0.95465 0.35152 0.0
H857 H 0.24621 0.97333 0.37825 0.0
C858 C 0.54233 0.65177 0.26999 0.0
C859 C 0.52377 0.63666 0.28338 0.0
C860 C 0.56049 0.67641 0.28174 0.0
C861 C 0.56016 0.68622 0.30756 0.0
C862 C 0.5416 0.67105 0.3213 0.0
C863 C 0.52357 0.64643 0.30902 0.0
C864 C 0.57995 0.69204 0.26641 0.0
C865 C 0.5407 0.68091 0.34888 0.0
C866 C 0.61846 0.74238 0.34364 0.0
C867 C 0.61601 0.76312 0.3402 0.0
C868 C 0.60019 0.71718 0.33365 0.0
C869 C 0.57903 0.71262 0.31984 0.0
C870 C 0.57631 0.73342 0.31663 0.0
C871 C 0.59481 0.75838 0.32685 0.0
C872 C 0.60371 0.69546 0.33745 0.0
C873 C 0.55405 0.72935 0.3019 0.0
H874 H 0.54266 0.6444 0.25018 0.0
H875 H 0.50933 0.63486 0.31951 0.0
H876 H 0.58021 0.70981 0.26434 0.0
H877 H 0.59738 0.69776 0.27699 0.0
H878 H 0.57779 0.68146 0.24664 0.0
H879 H 0.52536 0.66653 0.35708 0.0
H880 H 0.55717 0.68649 0.3616 0.0
H881 H 0.53959 0.69826 0.34944 0.0
H882 H 0.63472 0.7458 0.35397 0.0
H883 H 0.59269 0.77422 0.32401 0.0
H884 H 0.60337 0.68525 0.31824 0.0
H885 H 0.58906 0.68146 0.34672 0.0
H886 H 0.62072 0.70212 0.34971 0.0
H887 H 0.5518 0.7204 0.28134 0.0
H888 H 0.55433 0.74748 0.30208 0.0
H889 H 0.53839 0.7161 0.31047 0.0
C890 C 0.3342 0.85113 0.26189 0.0
C891 C 0.3552 0.8748 0.27013 0.0
C892 C 0.31313 0.84587 0.27146 0.0
C893 C 0.313 0.8648 0.2896 0.0
C894 C 0.33423 0.88853 0.29844 0.0
C895 C 0.35509 0.89322 0.28866 0.0
C896 C 0.29088 0.82025 0.26173 0.0
C897 C 0.33477 0.90922 0.31771 0.0
C898 C 0.25425 0.86091 0.29276 0.0
C899 C 0.24714 0.84978 0.31487 0.0
C900 C 0.27576 0.86612 0.28445 0.0
C901 C 0.29047 0.86003 0.29866 0.0
C902 C 0.28344 0.849 0.32119 0.0
C903 C 0.26181 0.84399 0.32903 0.0
C904 C 0.2826 0.87784 0.2603 0.0
C905 C 0.2986 0.84218 0.33679 0.0
H906 H 0.33411 0.83674 0.24766 0.0
H907 H 0.37121 0.91159 0.29512 0.0
H908 H 0.28313 0.81094 0.27842 0.0
H909 H 0.27753 0.82289 0.25115 0.0
H910 H 0.29415 0.80723 0.24844 0.0
H911 H 0.35287 0.92625 0.32338 0.0
H912 H 0.32315 0.91525 0.30911 0.0
H913 H 0.32783 0.90181 0.33554 0.0
H914 H 0.24288 0.86534 0.28177 0.0
H915 H 0.25628 0.83532 0.34612 0.0
H916 H 0.28408 0.86461 0.24523 0.0
H917 H 0.30015 0.89576 0.26489 0.0
H918 H 0.26956 0.88216 0.25196 0.0
H919 H 0.30093 0.82794 0.32433 0.0
H920 H 0.29082 0.83417 0.3541 0.0
H921 H 0.31644 0.85933 0.34344 0.0
C922 C 0.10971 0.44804 0.30968 0.0
C923 C 0.08881 0.42923 0.2935 0.0
C924 C 0.12722 0.44292 0.31757 0.0
C925 C 0.1237 0.41846 0.30904 0.0
C926 C 0.10329 0.39995 0.29146 0.0
C927 C 0.08608 0.40554 0.28397 0.0
C928 C 0.1488 0.46318 0.33621 0.0
C929 C 0.09896 0.37368 0.28172 0.0
C930 C 0.17054 0.40097 0.31745 0.0
C931 C 0.16368 0.38775 0.33836 0.0
C932 C 0.15861 0.41255 0.30851 0.0
C933 C 0.13952 0.41084 0.32085 0.0
C934 C 0.13374 0.3991 0.3431 0.0
C935 C 0.14587 0.3877 0.35155 0.0
C936 C 0.16548 0.42524 0.28496 0.0
C937 C 0.11365 0.39703 0.35699 0.0
H938 H 0.11203 0.46646 0.317 0.0
H939 H 0.07012 0.39101 0.27121 0.0
H940 H 0.14731 0.45802 0.35591 0.0
H941 H 0.16503 0.46444 0.33011 0.0
H942 H 0.1508 0.48227 0.33762 0.0
H943 H 0.08342 0.36239 0.26627 0.0
H944 H 0.1147 0.37515 0.27388 0.0
H945 H 0.09584 0.36308 0.29817 0.0
H946 H 0.18428 0.40104 0.30714 0.0
H947 H 0.14071 0.37779 0.36794 0.0
H948 H 0.16702 0.44412 0.28849 0.0
H949 H 0.1515 0.41336 0.26806 0.0
H950 H 0.18248 0.42789 0.27973 0.0
H951 H 0.11539 0.41596 0.36162 0.0
H952 H 0.11289 0.3895 0.37537 0.0
H953 H 0.09662 0.38406 0.34407 0.0
C954 C 0.3454 0.49492 0.2558 0.0
C955 C 0.36853 0.50168 0.26478 0.0
C956 C 0.32592 0.4758 0.2652 0.0
C957 C 0.32967 0.46318 0.28407 0.0
C958 C 0.35293 0.46954 0.29282 0.0
C959 C 0.37208 0.48871 0.28307 0.0
C960 C 0.30135 0.46937 0.25524 0.0
C961 C 0.35763 0.45643 0.31286 0.0
C962 C 0.28344 0.43401 0.32897 0.0
C963 C 0.2713 0.40809 0.31776 0.0
C964 C 0.30244 0.45214 0.31814 0.0
C965 C 0.30939 0.44409 0.29552 0.0
C966 C 0.29713 0.41788 0.28411 0.0
C967 C 0.27827 0.40016 0.29547 0.0
C968 C 0.31504 0.47991 0.33084 0.0
C969 C 0.3039 0.40857 0.25992 0.0
H970 H 0.34248 0.50474 0.24156 0.0
H971 H 0.38987 0.49374 0.29006 0.0
H972 H 0.29023 0.44881 0.2465 0.0
H973 H 0.29289 0.47286 0.27166 0.0
H974 H 0.3014 0.48076 0.24037 0.0
H975 H 0.37664 0.46286 0.31686 0.0
H976 H 0.35173 0.46035 0.3314 0.0
H977 H 0.34734 0.43545 0.30612 0.0
H978 H 0.278 0.44017 0.34617 0.0
H979 H 0.26891 0.38009 0.28685 0.0
H980 H 0.31402 0.49143 0.3167 0.0
H981 H 0.33402 0.48718 0.33675 0.0
H982 H 0.30741 0.48302 0.34831 0.0
H983 H 0.30239 0.41796 0.24376 0.0
H984 H 0.29259 0.38755 0.25352 0.0
H985 H 0.3226 0.41382 0.26355 0.0
C986 C 0.51094 0.86231 0.28176 0.0
C987 C 0.51352 0.88631 0.28903 0.0
C988 C 0.52831 0.85745 0.29089 0.0
C989 C 0.54876 0.87705 0.30765 0.0
C990 C 0.5515 0.90132 0.31502 0.0
C991 C 0.53383 0.90564 0.30567 0.0
C992 C 0.52475 0.83131 0.28264 0.0
C993 C 0.57312 0.92274 0.33277 0.0
C994 C 0.58369 0.85902 0.35118 0.0
C995 C 0.60266 0.86382 0.33751 0.0
C996 C 0.56594 0.86312 0.3416 0.0
C997 C 0.56723 0.87216 0.31775 0.0
C998 C 0.58631 0.87684 0.30379 0.0
C999 C 0.60384 0.87266 0.31389 0.0
C1000 C 0.54585 0.85784 0.35702 0.0
C1001 C 0.58822 0.88627 0.2782 0.0
H1002 H 0.49532 0.84727 0.26889 0.0
H1003 H 0.53603 0.92426 0.31133 0.0
H1004 H 0.53961 0.83291 0.27261 0.0
H1005 H 0.52467 0.82268 0.30007 0.0
H1006 H 0.50793 0.81819 0.26937 0.0
H1007 H 0.57265 0.94055 0.33651 0.0
H1008 H 0.57461 0.91693 0.35171 0.0
H1009 H 0.58927 0.9269 0.32401 0.0
H1010 H 0.58273 0.85209 0.36941 0.0
H1011 H 0.61846 0.87624 0.30325 0.0
H1012 H 0.52873 0.84358 0.34485 0.0
H1013 H 0.54555 0.87556 0.36257 0.0
H1014 H 0.54729 0.85055 0.37502 0.0
H1015 H 0.57246 0.87236 0.26385 0.0
H1016 H 0.60427 0.88918 0.2699 0.0
H1017 H 0.58867 0.9046 0.28094 0.0
C1018 C 0.09874 0.62449 0.31891 0.0
C1019 C 0.09217 0.6119 0.29287 0.0
C1020 C 0.10616 0.65043 0.32529 0.0
C1021 C 0.10694 0.66406 0.30515 0.0
C1022 C 0.10017 0.65144 0.27884 0.0
C1023 C 0.09292 0.62552 0.27301 0.0
C1024 C 0.11337 0.66329 0.35356 0.0
C1025 C 0.10071 0.66535 0.25684 0.0
C1026 C 0.10745 0.72597 0.32153 0.0
C1027 C 0.13144 0.7443 0.32212 0.0
C1028 C 0.09923 0.69976 0.31622 0.0
C1029 C 0.11539 0.69171 0.31152 0.0
C1030 C 0.13966 0.71009 0.3125 0.0
C1031 C 0.14737 0.73613 0.31775 0.0
C1032 C 0.07321 0.68068 0.31529 0.0
C1033 C 0.15746 0.70225 0.30776 0.0
H1034 H 0.09822 0.61413 0.33438 0.0
H1035 H 0.0878 0.61593 0.25284 0.0
H1036 H 0.13208 0.67923 0.35667 0.0
H1037 H 0.10251 0.67163 0.35888 0.0
H1038 H 0.1114 0.6499 0.36692 0.0
H1039 H 0.09437 0.65263 0.23748 0.0
H1040 H 0.08954 0.67377 0.25971 0.0
H1041 H 0.11901 0.68133 0.25677 0.0
H1042 H 0.095 0.73206 0.32488 0.0
H1043 H 0.16596 0.75009 0.31829 0.0
H1044 H 0.07062 0.66773 0.32935 0.0
H1045 H 0.06582 0.66867 0.2956 0.0
H1046 H 0.06302 0.69005 0.31988 0.0
H1047 H 0.15694 0.68985 0.32167 0.0
H1048 H 0.17577 0.71892 0.30984 0.0
H1049 H 0.15291 0.69094 0.28783 0.0
C1050 C 0.81169 0.03442 0.4391 0.0
C1051 C 0.82424 0.04491 0.41874 0.0
C1052 C 0.79281 0.00898 0.435 0.0
C1053 C 0.78642 0.99369 0.40998 0.0
C1054 C 0.79939 0.00396 0.38953 0.0
C1055 C 0.81813 0.02946 0.39415 0.0
C1056 C 0.77936 0.99864 0.45726 0.0
C1057 C 0.79318 0.98817 0.36262 0.0
C1058 C 0.74928 0.92146 0.40142 0.0
C1059 C 0.7269 0.91652 0.39168 0.0
C1060 C 0.76873 0.94653 0.40799 0.0
C1061 C 0.76572 0.96715 0.40484 0.0
C1062 C 0.74308 0.96236 0.39571 0.0
C1063 C 0.72395 0.9371 0.38921 0.0
C1064 C 0.79261 0.95091 0.41766 0.0
C1065 C 0.73918 0.9839 0.39223 0.0
H1066 H 0.8163 0.04624 0.45816 0.0
H1067 H 0.82779 0.03737 0.37834 0.0
H1068 H 0.76074 0.99335 0.45243 0.0
H1069 H 0.77906 0.98104 0.46031 0.0
H1070 H 0.78717 0.01267 0.47579 0.0
H1071 H 0.80557 0.99873 0.34912 0.0
H1072 H 0.79337 0.97048 0.36374 0.0
H1073 H 0.77502 0.9823 0.35423 0.0
H1074 H 0.75177 0.90573 0.40349 0.0
H1075 H 0.70674 0.93352 0.38183 0.0
H1076 H 0.80007 0.96436 0.43655 0.0
H1077 H 0.80506 0.95978 0.4036 0.0
H1078 H 0.79175 0.93291 0.42025 0.0
H1079 H 0.74548 0.99787 0.4107 0.0
H1080 H 0.72029 0.97703 0.38611 0.0
H1081 H 0.7496 0.9942 0.37727 0.0
C1082 C 0.99031 0.81103 0.42364 0.0
C1083 C 0.96777 0.78887 0.41735 0.0
C1084 C 0.00953 0.81288 0.41197 0.0
C1085 C 0.00618 0.79202 0.39366 0.0
C1086 C 0.98352 0.76955 0.38734 0.0
C1087 C 0.96457 0.76827 0.39919 0.0
C1088 C 0.03342 0.83722 0.41913 0.0
C1089 C 0.97931 0.74683 0.36808 0.0
C1090 C 0.05091 0.80592 0.34629 0.0
C1091 C 0.06578 0.79908 0.35821 0.0
C1092 C 0.03123 0.80337 0.35743 0.0
C1093 C 0.02639 0.79381 0.38105 0.0
C1094 C 0.04122 0.78655 0.39295 0.0
C1095 C 0.06072 0.78924 0.38134 0.0
C1096 C 0.0159 0.81142 0.34423 0.0
C1097 C 0.03675 0.7764 0.41819 0.0
H1098 H 0.99295 0.82705 0.43762 0.0
H1099 H 0.94724 0.75104 0.39428 0.0
H1100 H 0.04669 0.83305 0.42705 0.0
H1101 H 0.03943 0.84564 0.40146 0.0
H1102 H 0.03311 0.85164 0.43381 0.0
H1103 H 0.96068 0.73069 0.36543 0.0
H1104 H 0.9838 0.75244 0.34887 0.0
H1105 H 0.99101 0.74013 0.37477 0.0
H1106 H 0.05489 0.81364 0.32846 0.0
H1107 H 0.07233 0.78413 0.3907 0.0
H1108 H 0.01636 0.82725 0.35736 0.0
H1109 H 0.99726 0.79532 0.34016 0.0
H1110 H 0.0217 0.81784 0.32561 0.0
H1111 H 0.03811 0.79114 0.43385 0.0
H1112 H 0.04951 0.77085 0.42445 0.0
H1113 H 0.01858 0.75954 0.41606 0.0
C1114 C 0.22949 0.19478 0.37694 0.0
C1115 C 0.25227 0.20666 0.39083 0.0
C1116 C 0.21968 0.20921 0.3706 0.0
C1117 C 0.23277 0.23603 0.37896 0.0
C1118 C 0.25558 0.24802 0.39349 0.0
C1119 C 0.26518 0.23321 0.39895 0.0
C1120 C 0.19552 0.19585 0.35459 0.0
C1121 C 0.26984 0.27649 0.40328 0.0
C1122 C 0.22034 0.27925 0.34426 0.0
C1123 C 0.20638 0.28377 0.36058 0.0
C1124 C 0.22836 0.263 0.34954 0.0
C1125 C 0.22287 0.2517 0.37212 0.0
C1126 C 0.2087 0.25618 0.38863 0.0
C1127 C 0.20035 0.27193 0.38245 0.0
C1128 C 0.24295 0.25819 0.33115 0.0
C1129 C 0.20302 0.24506 0.41325 0.0
H1130 H 0.21952 0.17426 0.37053 0.0
H1131 H 0.28272 0.2424 0.4099 0.0
H1132 H 0.18336 0.19949 0.36544 0.0
H1133 H 0.19672 0.2036 0.3363 0.0
H1134 H 0.1877 0.17489 0.3495 0.0
H1135 H 0.28679 0.28266 0.41539 0.0
H1136 H 0.27379 0.28677 0.38656 0.0
H1137 H 0.25948 0.28236 0.41506 0.0
H1138 H 0.22487 0.28832 0.32727 0.0
H1139 H 0.1898 0.27572 0.39527 0.0
H1140 H 0.23511 0.23735 0.32486 0.0
H1141 H 0.26106 0.26606 0.34129 0.0
H1142 H 0.24426 0.267 0.31355 0.0
H1143 H 0.19477 0.22404 0.40879 0.0
H1144 H 0.19091 0.24947 0.42334 0.0
H1145 H 0.21959 0.25284 0.42683 0.0
C1146 C 0.65027 0.57729 0.71739 0.0
C1147 C 0.63347 0.55196 0.71888 0.0
C1148 C 0.67389 0.58493 0.71561 0.0
C1149 C 0.68095 0.56684 0.71548 0.0
C1150 C 0.66426 0.5414 0.71773 0.0
C1151 C 0.64067 0.53423 0.71931 0.0
C1152 C 0.69117 0.61226 0.71319 0.0
C1153 C 0.67122 0.52168 0.71793 0.0
C1154 C 0.73521 0.58386 0.68255 0.0
C1155 C 0.75323 0.59656 0.70387 0.0
C1156 C 0.71142 0.57291 0.68616 0.0
C1157 C 0.7056 0.57451 0.71172 0.0
C1158 C 0.72369 0.58575 0.73339 0.0
C1159 C 0.74735 0.59676 0.72916 0.0
C1160 C 0.69266 0.56112 0.66253 0.0
C1161 C 0.71822 0.58746 0.76096 0.0
H1162 H 0.64489 0.59113 0.71709 0.0
H1163 H 0.62781 0.51464 0.72059 0.0
H1164 H 0.70648 0.621 0.72887 0.0
H1165 H 0.6981 0.61276 0.6943 0.0
H1166 H 0.68301 0.62412 0.71434 0.0
H1167 H 0.65654 0.5032 0.7216 0.0
H1168 H 0.67668 0.51827 0.6989 0.0
H1169 H 0.68661 0.52874 0.73312 0.0
H1170 H 0.73976 0.58365 0.66295 0.0
H1171 H 0.7613 0.60624 0.74559 0.0
H1172 H 0.6849 0.57315 0.66073 0.0
H1173 H 0.67813 0.54194 0.66467 0.0
H1174 H 0.69985 0.55928 0.64423 0.0
H1175 H 0.71262 0.60156 0.76458 0.0
H1176 H 0.73378 0.5935 0.77557 0.0
H1177 H 0.7034 0.5688 0.76395 0.0
C1178 C 0.45944 0.07898 0.7487 0.0
C1179 C 0.48273 0.09482 0.74405 0.0
C1180 C 0.44199 0.08478 0.74314 0.0
C1181 C 0.44795 0.10703 0.73272 0.0
C1182 C 0.47139 0.12306 0.72784 0.0
C1183 C 0.4885 0.11674 0.73352 0.0
C1184 C 0.41717 0.06715 0.7485 0.0
C1185 C 0.4784 0.14697 0.71678 0.0
C1186 C 0.39842 0.11034 0.6969 0.0
C1187 C 0.39475 0.12549 0.71599 0.0
C1188 C 0.41571 0.10419 0.70207 0.0
C1189 C 0.42962 0.11346 0.72694 0.0
C1190 C 0.4258 0.12861 0.74637 0.0
C1191 C 0.40837 0.13444 0.74065 0.0
C1192 C 0.41916 0.08788 0.68091 0.0
C1193 C 0.4402 0.13878 0.77314 0.0
H1194 H 0.45477 0.06197 0.75679 0.0
H1195 H 0.50645 0.12911 0.72992 0.0
H1196 H 0.41199 0.07773 0.76264 0.0
H1197 H 0.40452 0.06001 0.73029 0.0
H1198 H 0.41538 0.0505 0.75646 0.0
H1199 H 0.49732 0.15736 0.71403 0.0
H1200 H 0.46744 0.14206 0.6977 0.0
H1201 H 0.47508 0.15997 0.72997 0.0
H1202 H 0.3879 0.10343 0.67781 0.0
H1203 H 0.40551 0.14615 0.75544 0.0
H1204 H 0.41641 0.07038 0.68769 0.0
H1205 H 0.43756 0.09843 0.67647 0.0
H1206 H 0.40685 0.08214 0.66266 0.0
H1207 H 0.43812 0.12273 0.78249 0.0
H1208 H 0.43495 0.15019 0.78607 0.0
H1209 H 0.45923 0.15095 0.77148 0.0
C1210 C 0.88538 0.36903 0.70997 0.0
C1211 C 0.8977 0.3812 0.73513 0.0
C1212 C 0.87623 0.34286 0.7016 0.0
C1213 C 0.87971 0.32865 0.71874 0.0
C1214 C 0.89173 0.34071 0.74431 0.0
C1215 C 0.90048 0.36681 0.75223 0.0
C1216 C 0.86323 0.33051 0.67429 0.0
C1217 C 0.89588 0.32621 0.76311 0.0
C1218 C 0.84255 0.25618 0.70505 0.0
C1219 C 0.85776 0.24993 0.6931 0.0
C1220 C 0.84932 0.28173 0.71325 0.0
C1221 C 0.87188 0.30147 0.70954 0.0
C1222 C 0.88732 0.2953 0.69753 0.0
C1223 C 0.88006 0.26961 0.68941 0.0
C1224 C 0.83239 0.28757 0.72603 0.0
C1225 C 0.91166 0.31584 0.69357 0.0
H1226 H 0.88303 0.37999 0.69671 0.0
H1227 H 0.90994 0.37604 0.77174 0.0
H1228 H 0.87316 0.32373 0.66289 0.0
H1229 H 0.8456 0.31357 0.67486 0.0
H1230 H 0.86081 0.34384 0.66392 0.0
H1231 H 0.90515 0.3383 0.78249 0.0
H1232 H 0.87881 0.30958 0.76581 0.0
H1233 H 0.90663 0.31866 0.755 0.0
H1234 H 0.82535 0.24113 0.7082 0.0
H1235 H 0.89199 0.26501 0.6803 0.0
H1236 H 0.82902 0.30006 0.71527 0.0
H1237 H 0.84031 0.2981 0.74622 0.0
H1238 H 0.81522 0.27001 0.72676 0.0
H1239 H 0.91028 0.32878 0.68162 0.0
H1240 H 0.92147 0.30784 0.68379 0.0
H1241 H 0.92212 0.3276 0.71267 0.0
C1242 C 0.20131 0.96158 0.61622 0.0
C1243 C 0.18669 0.94554 0.63246 0.0
C1244 C 0.21857 0.98716 0.62602 0.0
C1245 C 0.22138 0.99703 0.65277 0.0
C1246 C 0.20678 0.98097 0.66935 0.0
C1247 C 0.18956 0.95538 0.65899 0.0
C1248 C 0.23375 0.00368 0.60767 0.0
C1249 C 0.20931 0.99085 0.698 0.0
C1250 C 0.28031 0.05754 0.6796 0.0
C1251 C 0.27476 0.07649 0.6784 0.0
C1252 C 0.26294 0.03154 0.6721 0.0
C1253 C 0.23947 0.0243 0.66313 0.0
C1254 C 0.23361 0.04327 0.66248 0.0
C1255 C 0.2513 0.06911 0.67012 0.0
C1256 C 0.26986 0.01185 0.6731 0.0
C1257 C 0.20877 0.03632 0.65298 0.0
H1258 H 0.19924 0.95418 0.59569 0.0
H1259 H 0.17836 0.94312 0.67167 0.0
H1260 H 0.23138 0.02016 0.60738 0.0
H1261 H 0.25269 0.01149 0.61458 0.0
H1262 H 0.22943 0.99303 0.58742 0.0
H1263 H 0.1968 0.97585 0.70834 0.0
H1264 H 0.2276 0.99841 0.70738 0.0
H1265 H 0.20613 0.0069 0.70049 0.0
H1266 H 0.29833 0.06297 0.68607 0.0
H1267 H 0.24674 0.08353 0.66917 0.0
H1268 H 0.26764 0.00178 0.65307 0.0
H1269 H 0.25813 0.99728 0.68432 0.0
H1270 H 0.28848 0.02047 0.68214 0.0
H1271 H 0.20393 0.02722 0.63211 0.0
H1272 H 0.2068 0.05321 0.65513 0.0
H1273 H 0.19601 0.02223 0.66391 0.0
C1274 C 0.03805 0.24147 0.63469 0.0
C1275 C 0.03969 0.22539 0.61457 0.0
C1276 C 0.01616 0.23533 0.64252 0.0
C1277 C 0.99542 0.21246 0.63008 0.0
C1278 C 0.99702 0.19579 0.61028 0.0
C1279 C 0.01913 0.20248 0.60271 0.0
C1280 C 0.01515 0.25363 0.66366 0.0
C1281 C 0.97531 0.17112 0.59674 0.0
C1282 C 0.94096 0.1875 0.66449 0.0
C1283 C 0.92801 0.19602 0.65148 0.0
C1284 C 0.96285 0.1925 0.65757 0.0
C1285 C 0.97197 0.20641 0.63724 0.0
C1286 C 0.95881 0.21486 0.6239 0.0
C1287 C 0.93694 0.20951 0.63117 0.0
C1288 C 0.97628 0.18301 0.67208 0.0
C1289 C 0.96792 0.22975 0.60212 0.0
H1290 H 0.05383 0.25921 0.64395 0.0
H1291 H 0.02023 0.18989 0.58722 0.0
H1292 H 0.00431 0.26085 0.65567 0.0
H1293 H 0.0065 0.24363 0.67964 0.0
H1294 H 0.03296 0.2702 0.67197 0.0
H1295 H 0.97969 0.1597 0.58258 0.0
H1296 H 0.96575 0.15939 0.61129 0.0
H1297 H 0.96304 0.17528 0.58618 0.0
H1298 H 0.93399 0.17697 0.68013 0.0
H1299 H 0.92685 0.21599 0.62101 0.0
H1300 H 0.99364 0.19939 0.68186 0.0
H1301 H 0.97984 0.17067 0.65819 0.0
H1302 H 0.9665 0.17199 0.68702 0.0
H1303 H 0.98502 0.24771 0.60954 0.0
H1304 H 0.95536 0.2346 0.59349 0.0
H1305 H 0.97124 0.21856 0.58648 0.0
C1306 C 0.78242 0.79008 0.65857 0.0
C1307 C 0.75981 0.7734 0.64443 0.0
C1308 C 0.79792 0.78152 0.6638 0.0
C1309 C 0.79067 0.75579 0.65446 0.0
C1310 C 0.76847 0.73935 0.6388 0.0
C1311 C 0.75325 0.74831 0.63412 0.0
C1312 C 0.82144 0.79958 0.68059 0.0
C1313 C 0.76022 0.71186 0.62815 0.0
C1314 C 0.83237 0.73075 0.65646 0.0
C1315 C 0.82605 0.71801 0.67773 0.0
C1316 C 0.82172 0.74413 0.64911 0.0
C1317 C 0.80471 0.745 0.66366 0.0
C1318 C 0.79944 0.73347 0.68609 0.0
C1319 C 0.81004 0.71995 0.69272 0.0
C1320 C 0.82766 0.75599 0.62496 0.0
C1321 C 0.78167 0.73427 0.70239 0.0
H1322 H 0.78764 0.80953 0.66651 0.0
H1323 H 0.73593 0.73542 0.62288 0.0
H1324 H 0.82106 0.79386 0.69995 0.0
H1325 H 0.83582 0.79862 0.67175 0.0
H1326 H 0.82571 0.81966 0.68352 0.0
H1327 H 0.74375 0.70247 0.61399 0.0
H1328 H 0.77412 0.71064 0.61842 0.0
H1329 H 0.75683 0.70103 0.64443 0.0
H1330 H 0.84466 0.72913 0.64475 0.0
H1331 H 0.80532 0.71032 0.70934 0.0
H1332 H 0.83057 0.77549 0.62853 0.0
H1333 H 0.81258 0.74438 0.60906 0.0
H1334 H 0.84363 0.75701 0.6182 0.0
H1335 H 0.78586 0.75418 0.70787 0.0
H1336 H 0.78119 0.72636 0.72048 0.0
H1337 H 0.76377 0.72302 0.69087 0.0
C1338 C 0.02156 0.83041 0.61643 0.0
C1339 C 0.04239 0.83033 0.62248 0.0
C1340 C 8e-05 0.81213 0.62355 0.0
C1341 C 0.9994 0.79332 0.63702 0.0
C1342 C 0.02028 0.7929 0.64282 0.0
C1343 C 0.0415 0.81141 0.63551 0.0
C1344 C 0.97817 0.81317 0.61701 0.0
C1345 C 0.02024 0.77305 0.65702 0.0
C1346 C 0.95105 0.7618 0.6791 0.0
C1347 C 0.93553 0.73817 0.66312 0.0
C1348 C 0.9718 0.78004 0.67072 0.0
C1349 C 0.97705 0.77446 0.64573 0.0
C1350 C 0.96125 0.75067 0.62941 0.0
C1351 C 0.94069 0.73276 0.63836 0.0
C1352 C 0.98817 0.8052 0.68868 0.0
C1353 C 0.96609 0.74409 0.60255 0.0
H1354 H 0.02207 0.84493 0.60633 0.0
H1355 H 0.05747 0.81112 0.64019 0.0
H1356 H 0.96393 0.79463 0.60547 0.0
H1357 H 0.97155 0.81649 0.63521 0.0
H1358 H 0.98149 0.82852 0.60578 0.0
H1359 H 0.03782 0.77493 0.65946 0.0
H1360 H 0.01496 0.77479 0.67659 0.0
H1361 H 0.00708 0.75362 0.64622 0.0
H1362 H 0.94702 0.76603 0.69823 0.0
H1363 H 0.92862 0.71451 0.62593 0.0
H1364 H 0.99082 0.82122 0.67891 0.0
H1365 H 0.00575 0.80749 0.69323 0.0
H1366 H 0.98128 0.80677 0.70727 0.0
H1367 H 0.96712 0.75803 0.59042 0.0
H1368 H 0.95221 0.72461 0.59248 0.0
H1369 H 0.98341 0.74536 0.6039 0.0
C1370 C 0.19589 0.22898 0.64786 0.0
C1371 C 0.17664 0.21295 0.62831 0.0
C1372 C 0.21152 0.22158 0.65647 0.0
C1373 C 0.20779 0.19755 0.6453 0.0
C1374 C 0.18816 0.18108 0.62589 0.0
C1375 C 0.17282 0.18898 0.61761 0.0
C1376 C 0.23228 0.23969 0.6772 0.0
C1377 C 0.18358 0.15529 0.61357 0.0
C1378 C 0.26124 0.19023 0.64864 0.0
C1379 C 0.2583 0.17752 0.6698 0.0
C1380 C 0.24475 0.19656 0.64025 0.0
C1381 C 0.22488 0.19003 0.65339 0.0
C1382 C 0.22167 0.17686 0.67457 0.0
C1383 C 0.23845 0.17073 0.68253 0.0
C1384 C 0.24878 0.21053 0.61754 0.0
C1385 C 0.20069 0.16953 0.68901 0.0
H1386 H 0.19898 0.24752 0.65625 0.0
H1387 H 0.15797 0.17646 0.60252 0.0
H1388 H 0.23204 0.23014 0.69392 0.0
H1389 H 0.24904 0.24514 0.66925 0.0
H1390 H 0.23228 0.25735 0.68448 0.0
H1391 H 0.16707 0.14436 0.59941 0.0
H1392 H 0.19858 0.15773 0.60329 0.0
H1393 H 0.18231 0.14385 0.62884 0.0
H1394 H 0.27654 0.19539 0.6387 0.0
H1395 H 0.23616 0.16086 0.69888 0.0
H1396 H 0.25082 0.22941 0.62399 0.0
H1397 H 0.23324 0.19966 0.60209 0.0
H1398 H 0.26475 0.21355 0.60896 0.0
H1399 H 0.20101 0.18695 0.69799 0.0
H1400 H 0.20042 0.15871 0.70459 0.0
H1401 H 0.18403 0.1577 0.67523 0.0
C1402 C 0.78298 0.97542 0.60983 0.0
C1403 C 0.78593 0.96478 0.6309 0.0
C1404 C 0.7894 0.00113 0.61325 0.0
C1405 C 0.79908 0.01654 0.63831 0.0
C1406 C 0.80259 0.00606 0.65951 0.0
C1407 C 0.79594 0.9803 0.65556 0.0
C1408 C 0.78541 0.01166 0.59018 0.0
C1409 C 0.81298 0.02195 0.6865 0.0
C1410 C 0.83351 0.0888 0.64552 0.0
C1411 C 0.81679 0.09479 0.65336 0.0
C1412 C 0.82789 0.06339 0.64015 0.0
C1413 C 0.80497 0.04347 0.6426 0.0
C1414 C 0.78787 0.04931 0.64999 0.0
C1415 C 0.79398 0.07489 0.65531 0.0
C1416 C 0.8466 0.05789 0.63234 0.0
C1417 C 0.7632 0.02855 0.65268 0.0
H1418 H 0.77525 0.96356 0.5907 0.0
H1419 H 0.79837 0.97227 0.67193 0.0
H1420 H 0.77264 0.01783 0.59378 0.0
H1421 H 0.80218 0.02874 0.58754 0.0
H1422 H 0.77848 0.99742 0.57181 0.0
H1423 H 0.8153 0.01116 0.70071 0.0
H1424 H 0.83042 0.03916 0.68594 0.0
H1425 H 0.80131 0.02862 0.69361 0.0
H1426 H 0.85117 0.10398 0.64388 0.0
H1427 H 0.78089 0.07925 0.66124 0.0
H1428 H 0.84008 0.04441 0.61349 0.0
H1429 H 0.8505 0.04859 0.6471 0.0
H1430 H 0.8633 0.07547 0.63041 0.0
H1431 H 0.75486 0.0145 0.63423 0.0
H1432 H 0.75172 0.03621 0.65768 0.0
H1433 H 0.76401 0.0181 0.66813 0.0
C1434 C 0.46877 0.34808 0.71231 0.0
C1435 C 0.47264 0.36476 0.73538 0.0
C1436 C 0.45138 0.32205 0.70878 0.0
C1437 C 0.43749 0.31245 0.72879 0.0
C1438 C 0.44159 0.32906 0.75234 0.0
C1439 C 0.45914 0.35502 0.75536 0.0
C1440 C 0.44757 0.3049 0.68342 0.0
C1441 C 0.42714 0.31949 0.77412 0.0
C1442 C 0.37736 0.25183 0.70834 0.0
C1443 C 0.38182 0.23316 0.71483 0.0
C1444 C 0.39525 0.27773 0.71314 0.0
C1445 C 0.41817 0.28518 0.72468 0.0
C1446 C 0.42273 0.26653 0.73162 0.0
C1447 C 0.4045 0.24074 0.72664 0.0
C1448 C 0.38969 0.2971 0.70552 0.0
C1449 C 0.44696 0.27376 0.74396 0.0
H1450 H 0.47916 0.3554 0.69679 0.0
H1451 H 0.46202 0.36776 0.77327 0.0
H1452 H 0.44917 0.28856 0.6873 0.0
H1453 H 0.42944 0.2969 0.67326 0.0
H1454 H 0.46042 0.31515 0.67018 0.0
H1455 H 0.43314 0.33465 0.79158 0.0
H1456 H 0.40828 0.31215 0.7673 0.0
H1457 H 0.42817 0.30338 0.77991 0.0
H1458 H 0.35991 0.24623 0.69927 0.0
H1459 H 0.40815 0.22651 0.73179 0.0
H1460 H 0.40075 0.30683 0.69071 0.0
H1461 H 0.39401 0.31197 0.7227 0.0
H1462 H 0.3708 0.28827 0.69741 0.0
H1463 H 0.46 0.28259 0.73045 0.0
H1464 H 0.44743 0.25705 0.74892 0.0
H1465 H 0.45269 0.28817 0.76199 0.0
C1466 C 0.66937 0.15478 0.76717 0.0
C1467 C 0.64666 0.13564 0.75486 0.0
C1468 C 0.68965 0.15789 0.75705 0.0
C1469 C 0.6872 0.14156 0.73399 0.0
C1470 C 0.66435 0.12208 0.72159 0.0
C1471 C 0.64437 0.11935 0.73217 0.0
C1472 C 0.7137 0.17889 0.77085 0.0
C1473 C 0.661 0.10419 0.69706 0.0
C1474 C 0.7377 0.16387 0.69336 0.0
C1475 C 0.74858 0.15087 0.70087 0.0
C1476 C 0.71776 0.16112 0.70409 0.0
C1477 C 0.70852 0.14493 0.7227 0.0
C1478 C 0.71953 0.13179 0.73033 0.0
C1479 C 0.7394 0.13488 0.71926 0.0
C1480 C 0.70665 0.17561 0.69559 0.0
C1481 C 0.71037 0.11454 0.75026 0.0
H1482 H 0.67133 0.16745 0.78472 0.0
H1483 H 0.62691 0.10449 0.72253 0.0
H1484 H 0.72516 0.17112 0.77472 0.0
H1485 H 0.72239 0.19327 0.75817 0.0
H1486 H 0.71267 0.18866 0.78962 0.0
H1487 H 0.64207 0.08984 0.68996 0.0
H1488 H 0.66887 0.11524 0.68143 0.0
H1489 H 0.67033 0.09399 0.70066 0.0
H1490 H 0.74489 0.17639 0.67927 0.0
H1491 H 0.74782 0.12482 0.72509 0.0
H1492 H 0.70686 0.18832 0.71271 0.0
H1493 H 0.68789 0.16206 0.68713 0.0
H1494 H 0.71595 0.18738 0.68092 0.0
H1495 H 0.71056 0.12551 0.76886 0.0
H1496 H 0.72102 0.1058 0.75416 0.0
H1497 H 0.69176 0.09905 0.74339 0.0
C1498 C 0.90235 0.53776 0.73614 0.0
C1499 C 0.88294 0.51266 0.73123 0.0
C1500 C 0.90012 0.55788 0.72969 0.0
C1501 C 0.87819 0.55254 0.71715 0.0
C1502 C 0.85885 0.52701 0.71107 0.0
C1503 C 0.86132 0.50741 0.7187 0.0
C1504 C 0.92088 0.58492 0.73733 0.0
C1505 C 0.8354 0.52044 0.697 0.0
C1506 C 0.86077 0.60233 0.72507 0.0
C1507 C 0.86613 0.61212 0.70198 0.0
C1508 C 0.86539 0.58355 0.73059 0.0
C1509 C 0.87487 0.57376 0.71214 0.0
C1510 C 0.8804 0.58369 0.68878 0.0
C1511 C 0.87634 0.60317 0.68418 0.0
C1512 C 0.85998 0.57406 0.75609 0.0
C1513 C 0.88976 0.57312 0.66827 0.0
H1514 H 0.91902 0.54178 0.74602 0.0
H1515 H 0.84639 0.48793 0.7147 0.0
H1516 H 0.92505 0.59449 0.72011 0.0
H1517 H 0.9163 0.59598 0.75167 0.0
H1518 H 0.93696 0.58575 0.74609 0.0
H1519 H 0.82302 0.49949 0.69127 0.0
H1520 H 0.827 0.52833 0.70973 0.0
H1521 H 0.83807 0.52919 0.67922 0.0
H1522 H 0.85306 0.6095 0.73889 0.0
H1523 H 0.88024 0.61067 0.66622 0.0
H1524 H 0.87614 0.57664 0.76694 0.0
H1525 H 0.84649 0.55336 0.75239 0.0
H1526 H 0.8533 0.58418 0.7686 0.0
H1527 H 0.90615 0.5745 0.67676 0.0
H1528 H 0.89359 0.58326 0.65142 0.0
H1529 H 0.8766 0.55257 0.6611 0.0
C1530 C 0.49363 0.9393 0.175 0.0
C1531 C 0.4731 0.93823 0.18204 0.0
C1532 C 0.50279 0.94869 0.15257 0.0
C1533 C 0.49113 0.95718 0.13678 0.0
C1534 C 0.4705 0.95631 0.14383 0.0
C1535 C 0.46177 0.9469 0.16639 0.0
C1536 C 0.5248 0.94926 0.1456 0.0
C1537 C 0.45757 0.96516 0.12743 0.0
C1538 C 0.52412 0.00053 0.08921 0.0
C1539 C 0.51555 0.98312 0.06572 0.0
C1540 C 0.51645 0.99236 0.11263 0.0
C1541 C 0.50001 0.96616 0.11238 0.0
C1542 C 0.49177 0.94849 0.08869 0.0
C1543 C 0.49987 0.9572 0.06569 0.0
C1544 C 0.52577 0.01172 0.13756 0.0
C1545 C 0.47438 0.92037 0.08757 0.0
H1546 H 0.50253 0.93267 0.18695 0.0
H1547 H 0.44592 0.9462 0.17164 0.0
H1548 H 0.52069 0.93662 0.12659 0.0
H1549 H 0.53847 0.96886 0.14343 0.0
H1550 H 0.53232 0.94298 0.1605 0.0
H1551 H 0.44102 0.96186 0.13476 0.0
H1552 H 0.46917 0.98585 0.12729 0.0
H1553 H 0.45309 0.95507 0.10696 0.0
H1554 H 0.5366 0.02055 0.08916 0.0
H1555 H 0.49401 0.94363 0.04774 0.0
H1556 H 0.53425 0.00619 0.15222 0.0
H1557 H 0.51095 0.01214 0.14587 0.0
H1558 H 0.53886 0.03125 0.13452 0.0
H1559 H 0.48251 0.91228 0.0993 0.0
H1560 H 0.46869 0.90943 0.06732 0.0
H1561 H 0.45848 0.91758 0.09612 0.0
C1562 C 0.05637 0.50231 0.2009 0.0
C1563 C 0.03675 0.48239 0.20914 0.0
C1564 C 0.05454 0.50879 0.1764 0.0
C1565 C 0.03245 0.49533 0.1601 0.0
C1566 C 0.01254 0.47537 0.16853 0.0
C1567 C 0.01503 0.4689 0.19282 0.0
C1568 C 0.07628 0.52973 0.16778 0.0
C1569 C 0.98857 0.46095 0.15196 0.0
C1570 C 0.0213 0.52653 0.10734 0.0
C1571 C 0.02297 0.51298 0.08482 0.0
C1572 C 0.02451 0.52111 0.13202 0.0
C1573 C 0.03004 0.50207 0.13422 0.0
C1574 C 0.03229 0.48874 0.11156 0.0
C1575 C 0.02825 0.49403 0.08707 0.0
C1576 C 0.02146 0.53534 0.15566 0.0
C1577 C 0.03865 0.46868 0.11314 0.0
H1578 H 0.07329 0.51235 0.21331 0.0
H1579 H 0.99986 0.4535 0.19926 0.0
H1580 H 0.07985 0.52207 0.14938 0.0
H1581 H 0.07331 0.54515 0.16373 0.0
H1582 H 0.09218 0.53814 0.18265 0.0
H1583 H 0.97473 0.44651 0.16173 0.0
H1584 H 0.98317 0.47447 0.14735 0.0
H1585 H 0.98943 0.4511 0.13318 0.0
H1586 H 0.01707 0.54111 0.10563 0.0
H1587 H 0.02885 0.48302 0.06967 0.0
H1588 H 0.03776 0.54515 0.17007 0.0
H1589 H 0.00691 0.52164 0.16528 0.0
H1590 H 0.01737 0.54976 0.15064 0.0
H1591 H 0.05497 0.47658 0.12718 0.0
H1592 H 0.04149 0.46151 0.09393 0.0
H1593 H 0.02432 0.4523 0.12039 0.0
C1594 C 0.4481 0.53321 0.14987 0.0
C1595 C 0.45735 0.53105 0.17362 0.0
C1596 C 0.45611 0.5291 0.1265 0.0
C1597 C 0.47354 0.52238 0.1269 0.0
C1598 C 0.48213 0.51901 0.15057 0.0
C1599 C 0.47393 0.52337 0.17363 0.0
C1600 C 0.44626 0.53248 0.10151 0.0
C1601 C 0.50074 0.51185 0.15174 0.0
C1602 C 0.48352 0.49469 0.0633 0.0
C1603 C 0.50316 0.51626 0.05727 0.0
C1604 C 0.4736 0.49636 0.0859 0.0
C1605 C 0.48374 0.52016 0.10285 0.0
C1606 C 0.50379 0.54196 0.09693 0.0
C1607 C 0.51335 0.5397 0.07422 0.0
C1608 C 0.45233 0.47273 0.09168 0.0
C1609 C 0.51488 0.56775 0.11436 0.0
H1610 H 0.43514 0.53892 0.14961 0.0
H1611 H 0.48113 0.52155 0.19184 0.0
H1612 H 0.46069 0.5445 0.09069 0.0
H1613 H 0.43488 0.51357 0.08874 0.0
H1614 H 0.43561 0.54144 0.10512 0.0
H1615 H 0.50442 0.50833 0.17133 0.0
H1616 H 0.4951 0.49446 0.13717 0.0
H1617 H 0.51743 0.52746 0.1468 0.0
H1618 H 0.47596 0.47648 0.05032 0.0
H1619 H 0.52845 0.55641 0.06939 0.0
H1620 H 0.4377 0.47622 0.0943 0.0
H1621 H 0.45681 0.46807 0.1102 0.0
H1622 H 0.44597 0.45593 0.07595 0.0
H1623 H 0.50168 0.57363 0.11586 0.0
H1624 H 0.53046 0.58276 0.10702 0.0
H1625 H 0.52051 0.56661 0.13431 0.0
C1626 C 0.97558 0.50675 0.83125 0.0
C1627 C 0.95084 0.49343 0.82923 0.0
C1628 C 0.98966 0.51295 0.85516 0.0
C1629 C 0.97876 0.50574 0.87764 0.0
C1630 C 0.95389 0.49349 0.8761 0.0
C1631 C 0.94019 0.48756 0.85187 0.0
C1632 C 0.01614 0.52598 0.85604 0.0
C1633 C 0.94171 0.48589 0.89983 0.0
C1634 C 0.01246 0.4934 0.92903 0.0
C1635 C 0.02272 0.51605 0.94729 0.0
C1636 C 0.99768 0.48961 0.90655 0.0
C1637 C 0.99334 0.50912 0.90215 0.0
C1638 C 0.0037 0.53207 0.92057 0.0
C1639 C 0.01839 0.53529 0.94296 0.0
C1640 C 0.98662 0.46468 0.88757 0.0
C1641 C 0.99942 0.55322 0.91651 0.0
H1642 H 0.984 0.51152 0.81393 0.0
H1643 H 0.9211 0.47747 0.85054 0.0
H1644 H 0.02524 0.54293 0.87188 0.0
H1645 H 0.02192 0.51268 0.86035 0.0
H1646 H 0.02198 0.53215 0.83735 0.0
H1647 H 0.92216 0.47444 0.89487 0.0
H1648 H 0.94745 0.47458 0.90958 0.0
H1649 H 0.9467 0.50327 0.91411 0.0
H1650 H 0.01559 0.47838 0.93258 0.0
H1651 H 0.02658 0.5529 0.95705 0.0
H1652 H 0.99225 0.46836 0.86818 0.0
H1653 H 0.96708 0.4552 0.88509 0.0
H1654 H 0.99151 0.45134 0.89411 0.0
H1655 H 0.00655 0.56064 0.89875 0.0
H1656 H 0.00784 0.56932 0.93332 0.0
H1657 H 0.98017 0.54576 0.9134 0.0
C1658 C 0.50984 0.48346 0.79866 0.0
C1659 C 0.52919 0.50612 0.79394 0.0
C1660 C 0.50188 0.48189 0.82305 0.0
C1661 C 0.51292 0.50384 0.84288 0.0
C1662 C 0.53204 0.527 0.83805 0.0
C1663 C 0.54003 0.52782 0.81368 0.0
C1664 C 0.48167 0.45672 0.8276 0.0
C1665 C 0.54397 0.55094 0.85856 0.0
C1666 C 0.4778 0.5049 0.89749 0.0
C1667 C 0.48866 0.49991 0.91774 0.0
C1668 C 0.48574 0.50661 0.87304 0.0
C1669 C 0.50451 0.50251 0.86873 0.0
C1670 C 0.51517 0.49695 0.88909 0.0
C1671 C 0.50716 0.49585 0.9134 0.0
C1672 C 0.47432 0.5132 0.852 0.0
C1673 C 0.5349 0.49194 0.88516 0.0
H1674 H 0.50045 0.46707 0.78317 0.0
H1675 H 0.55484 0.54551 0.81009 0.0
H1676 H 0.487 0.45114 0.84495 0.0
H1677 H 0.46638 0.45864 0.83163 0.0
H1678 H 0.47584 0.44113 0.81061 0.0
H1679 H 0.55862 0.56742 0.85171 0.0
H1680 H 0.53084 0.55602 0.86423 0.0
H1681 H 0.55116 0.54762 0.87635 0.0
H1682 H 0.46347 0.50804 0.90099 0.0
H1683 H 0.51517 0.4914 0.92885 0.0
H1684 H 0.46637 0.4976 0.83478 0.0
H1685 H 0.48789 0.53069 0.8455 0.0
H1686 H 0.46033 0.51642 0.85871 0.0
H1687 H 0.52868 0.47536 0.86923 0.0
H1688 H 0.54133 0.48798 0.90307 0.0
H1689 H 0.55002 0.50863 0.87921 0.0
C1690 C 0.53686 0.03261 0.82377 0.0
C1691 C 0.55006 0.05928 0.83117 0.0
C1692 C 0.5282 0.01675 0.84241 0.0
C1693 C 0.53268 0.02784 0.86905 0.0
C1694 C 0.54634 0.05471 0.87672 0.0
C1695 C 0.55506 0.07012 0.85769 0.0
C1696 C 0.51352 0.98816 0.83351 0.0
C1697 C 0.55123 0.06718 0.90497 0.0
C1698 C 0.49051 0.99155 0.91507 0.0
C1699 C 0.50311 0.98282 0.92835 0.0
C1700 C 0.49972 0.00577 0.8953 0.0
C1701 C 0.52212 0.01143 0.88881 0.0
C1702 C 0.53464 0.00209 0.90176 0.0
C1703 C 0.5248 0.9876 0.92123 0.0
C1704 C 0.48582 0.01538 0.88192 0.0
C1705 C 0.55857 0.00784 0.89538 0.0
H1706 H 0.53291 0.02411 0.80331 0.0
H1707 H 0.56498 0.0907 0.86351 0.0
H1708 H 0.52083 0.97872 0.84425 0.0
H1709 H 0.49523 0.98086 0.8379 0.0
H1710 H 0.51277 0.98252 0.81227 0.0
H1711 H 0.5594 0.08819 0.9073 0.0
H1712 H 0.53469 0.05933 0.91387 0.0
H1713 H 0.56328 0.06306 0.91608 0.0
H1714 H 0.47368 0.98783 0.92058 0.0
H1715 H 0.53411 0.98007 0.93096 0.0
H1716 H 0.4833 0.00938 0.86048 0.0
H1717 H 0.49581 0.03656 0.88608 0.0
H1718 H 0.46821 0.00827 0.88839 0.0
H1719 H 0.56569 0.99854 0.90671 0.0
H1720 H 0.57124 0.02878 0.89957 0.0
H1721 H 0.55745 0.00129 0.8743 0.0
C1722 C 0.17343 0.28491 0.52145 0.0
C1723 C 0.16041 0.29296 0.53573 0.0
C1724 C 0.18286 0.29545 0.49958 0.0
C1725 C 0.17919 0.31447 0.49185 0.0
C1726 C 0.16688 0.32336 0.50676 0.0
C1727 C 0.15767 0.31252 0.52851 0.0
C1728 C 0.19586 0.28546 0.4841 0.0
C1729 C 0.16254 0.34355 0.49907 0.0
C1730 C 0.21441 0.35362 0.44238 0.0
C1731 C 0.19814 0.34102 0.41955 0.0
C1732 C 0.20866 0.3451 0.46617 0.0
C1733 C 0.18622 0.32337 0.46688 0.0
C1734 C 0.17007 0.31023 0.44365 0.0
C1735 C 0.17637 0.31917 0.42032 0.0
C1736 C 0.22641 0.35946 0.49052 0.0
C1737 C 0.14603 0.28681 0.44341 0.0
H1738 H 0.17573 0.2699 0.52691 0.0
H1739 H 0.14775 0.31898 0.53948 0.0
H1740 H 0.18539 0.275 0.46465 0.0
H1741 H 0.21309 0.3015 0.48084 0.0
H1742 H 0.19906 0.27235 0.49394 0.0
H1743 H 0.15439 0.34988 0.51388 0.0
H1744 H 0.17937 0.36042 0.49619 0.0
H1745 H 0.1506 0.33589 0.48025 0.0
H1746 H 0.23149 0.37034 0.44171 0.0
H1747 H 0.1645 0.30852 0.40254 0.0
H1748 H 0.23011 0.34632 0.49961 0.0
H1749 H 0.21902 0.3672 0.50496 0.0
H1750 H 0.24334 0.37551 0.48653 0.0
H1751 H 0.14793 0.27213 0.45161 0.0
H1752 H 0.13595 0.27827 0.42347 0.0
H1753 H 0.13554 0.29189 0.45586 0.0
C1754 C 0.69545 0.80693 0.54225 0.0
C1755 C 0.70758 0.82805 0.56262 0.0
C1756 C 0.68914 0.80968 0.5173 0.0
C1757 C 0.69553 0.83422 0.51243 0.0
C1758 C 0.70803 0.85566 0.53275 0.0
C1759 C 0.71339 0.8522 0.55775 0.0
C1760 C 0.67522 0.78624 0.49629 0.0
C1761 C 0.71545 0.88221 0.52823 0.0
C1762 C 0.69528 0.8432 0.44184 0.0
C1763 C 0.67413 0.84272 0.43695 0.0
C1764 C 0.70266 0.84073 0.46644 0.0
C1765 C 0.68825 0.83729 0.48636 0.0
C1766 C 0.66677 0.83674 0.48138 0.0
C1767 C 0.66016 0.83989 0.45677 0.0
C1768 C 0.72597 0.84212 0.47119 0.0
C1769 C 0.65062 0.83244 0.50189 0.0
H1770 H 0.69066 0.78812 0.54587 0.0
H1771 H 0.7214 0.86835 0.5735 0.0
H1772 H 0.65814 0.78417 0.4892 0.0
H1773 H 0.68503 0.78829 0.47939 0.0
H1774 H 0.67155 0.76851 0.5033 0.0
H1775 H 0.72701 0.89709 0.54537 0.0
H1776 H 0.72503 0.8864 0.51106 0.0
H1777 H 0.69959 0.88352 0.52397 0.0
H1778 H 0.70636 0.84622 0.42665 0.0
H1779 H 0.64379 0.83956 0.45281 0.0
H1780 H 0.72316 0.82429 0.47715 0.0
H1781 H 0.73774 0.85807 0.4874 0.0
H1782 H 0.73511 0.84501 0.45363 0.0
H1783 H 0.64565 0.81422 0.50856 0.0
H1784 H 0.63422 0.83174 0.49459 0.0
H1785 H 0.65992 0.84793 0.51913 0.0
C1786 C 0.11295 0.82517 0.51583 0.0
C1787 C 0.12415 0.85049 0.52886 0.0
C1788 C 0.11764 0.81941 0.49079 0.0
C1789 C 0.13472 0.83937 0.47927 0.0
C1790 C 0.14624 0.86493 0.49264 0.0
C1791 C 0.14043 0.87021 0.51705 0.0
C1792 C 0.10425 0.79209 0.4766 0.0
C1793 C 0.16505 0.8867 0.48142 0.0
C1794 C 0.16591 0.82507 0.42701 0.0
C1795 C 0.15605 0.8288 0.40481 0.0
C1796 C 0.15882 0.82798 0.45139 0.0
C1797 C 0.14083 0.83379 0.45332 0.0
C1798 C 0.13014 0.8365 0.4307 0.0
C1799 C 0.13843 0.83478 0.40691 0.0
C1800 C 0.17128 0.82592 0.47524 0.0
C1801 C 0.11028 0.8417 0.43169 0.0
H1802 H 0.10029 0.80999 0.52506 0.0
H1803 H 0.14927 0.88976 0.52739 0.0
H1804 H 0.0952 0.79073 0.4574 0.0
H1805 H 0.11669 0.78551 0.47279 0.0
H1806 H 0.09085 0.77898 0.4878 0.0
H1807 H 0.17306 0.90531 0.49488 0.0
H1808 H 0.17928 0.88296 0.47707 0.0
H1809 H 0.1574 0.88826 0.4628 0.0
H1810 H 0.17973 0.82072 0.42548 0.0
H1811 H 0.13131 0.83854 0.39002 0.0
H1812 H 0.15828 0.81149 0.48568 0.0
H1813 H 0.18052 0.84449 0.48889 0.0
H1814 H 0.18444 0.82061 0.47033 0.0
H1815 H 0.09595 0.82726 0.44095 0.0
H1816 H 0.1027 0.84135 0.412 0.0
H1817 H 0.11677 0.86067 0.44376 0.0
C1818 C 0.62728 0.83303 0.17825 0.0
C1819 C 0.60279 0.82282 0.17522 0.0
C1820 C 0.64006 0.8384 0.20287 0.0
C1821 C 0.62806 0.83355 0.22494 0.0
C1822 C 0.60375 0.82525 0.22233 0.0
C1823 C 0.59136 0.81989 0.19745 0.0
C1824 C 0.66606 0.84758 0.20497 0.0
C1825 C 0.59049 0.82048 0.24557 0.0
C1826 C 0.65195 0.81265 0.278 0.0
C1827 C 0.66395 0.83493 0.29679 0.0
C1828 C 0.63995 0.81194 0.25466 0.0
C1829 C 0.64024 0.83417 0.24999 0.0
C1830 C 0.65243 0.85679 0.26895 0.0
C1831 C 0.66426 0.85691 0.29216 0.0
C1832 C 0.62692 0.78735 0.23503 0.0
C1833 C 0.65331 0.88091 0.26457 0.0
H1834 H 0.63632 0.83559 0.16124 0.0
H1835 H 0.57249 0.81234 0.19533 0.0
H1836 H 0.67626 0.86403 0.22119 0.0
H1837 H 0.66879 0.83207 0.20934 0.0
H1838 H 0.67332 0.85333 0.18668 0.0
H1839 H 0.57258 0.81738 0.24088 0.0
H1840 H 0.58861 0.80331 0.25234 0.0
H1841 H 0.60044 0.83679 0.26199 0.0
H1842 H 0.65165 0.79563 0.28172 0.0
H1843 H 0.67392 0.87426 0.30663 0.0
H1844 H 0.63426 0.79044 0.21636 0.0
H1845 H 0.60799 0.78116 0.23098 0.0
H1846 H 0.62814 0.77169 0.24187 0.0
H1847 H 0.66064 0.89564 0.28258 0.0
H1848 H 0.63542 0.87679 0.25752 0.0
H1849 H 0.66457 0.88892 0.24929 0.0
C1850 C 0.22865 0.87646 0.17868 0.0
C1851 C 0.21835 0.86002 0.15455 0.0
C1852 C 0.21788 0.86991 0.20116 0.0
C1853 C 0.1962 0.84648 0.19933 0.0
C1854 C 0.18592 0.82968 0.17506 0.0
C1855 C 0.19698 0.8368 0.15292 0.0
C1856 C 0.22928 0.88847 0.22663 0.0
C1857 C 0.1628 0.80456 0.17228 0.0
C1858 C 0.17459 0.81942 0.26038 0.0
C1859 C 0.15834 0.82699 0.26514 0.0
C1860 C 0.18745 0.82607 0.23933 0.0
C1861 C 0.18351 0.84012 0.22236 0.0
C1862 C 0.16692 0.84759 0.22699 0.0
C1863 C 0.15454 0.84093 0.24836 0.0
C1864 C 0.20518 0.81802 0.23519 0.0
C1865 C 0.16226 0.86262 0.20937 0.0
H1866 H 0.24504 0.89457 0.17994 0.0
H1867 H 0.1883 0.82463 0.13414 0.0
H1868 H 0.21901 0.89768 0.2313 0.0
H1869 H 0.2292 0.87841 0.24281 0.0
H1870 H 0.24779 0.90364 0.2258 0.0
H1871 H 0.15806 0.79286 0.1525 0.0
H1872 H 0.16376 0.79335 0.18681 0.0
H1873 H 0.1484 0.80813 0.17617 0.0
H1874 H 0.17731 0.80834 0.27318 0.0
H1875 H 0.14198 0.84681 0.25206 0.0
H1876 H 0.22266 0.83482 0.23384 0.0
H1877 H 0.19942 0.80446 0.21648 0.0
H1878 H 0.20733 0.80874 0.25117 0.0
H1879 H 0.17891 0.88077 0.2088 0.0
H1880 H 0.14897 0.86716 0.21583 0.0
H1881 H 0.15582 0.85165 0.18917 0.0
C1882 C 0.23309 0.41512 0.20428 0.0
C1883 C 0.22385 0.40286 0.17826 0.0
C1884 C 0.22467 0.4018 0.22492 0.0
C1885 C 0.20687 0.37556 0.21936 0.0
C1886 C 0.19821 0.36286 0.19318 0.0
C1887 C 0.20673 0.37667 0.17296 0.0
C1888 C 0.23444 0.41593 0.25265 0.0
C1889 C 0.17942 0.33482 0.18651 0.0
C1890 C 0.19737 0.33628 0.27277 0.0
C1891 C 0.17772 0.33548 0.28212 0.0
C1892 C 0.20704 0.34919 0.25225 0.0
C1893 C 0.19673 0.36155 0.24093 0.0
C1894 C 0.17661 0.36045 0.25012 0.0
C1895 C 0.16722 0.34722 0.27053 0.0
C1896 C 0.2282 0.34954 0.24265 0.0
C1897 C 0.16526 0.3736 0.2387 0.0
H1898 H 0.24636 0.43533 0.20858 0.0
H1899 H 0.19959 0.36699 0.15294 0.0
H1900 H 0.21984 0.41329 0.26379 0.0
H1901 H 0.24388 0.40803 0.26245 0.0
H1902 H 0.24687 0.43671 0.25369 0.0
H1903 H 0.17559 0.32744 0.1652 0.0
H1904 H 0.18501 0.3235 0.19646 0.0
H1905 H 0.16283 0.33163 0.19354 0.0
H1906 H 0.20522 0.32681 0.28157 0.0
H1907 H 0.1521 0.34673 0.27796 0.0
H1908 H 0.24269 0.36946 0.24299 0.0
H1909 H 0.22336 0.33948 0.22213 0.0
H1910 H 0.23491 0.34022 0.25453 0.0
H1911 H 0.17844 0.39429 0.24061 0.0
H1912 H 0.14997 0.37126 0.24837 0.0
H1913 H 0.1591 0.36579 0.21759 0.0
C1914 C 0.7945 0.57482 0.81541 0.0
C1915 C 0.79646 0.58159 0.8424 0.0
C1916 C 0.80388 0.59356 0.79972 0.0
C1917 C 0.81643 0.61969 0.81151 0.0
C1918 C 0.8176 0.6266 0.83868 0.0
C1919 C 0.80724 0.60736 0.85382 0.0
C1920 C 0.8013 0.5854 0.77064 0.0
C1921 C 0.83084 0.65422 0.85191 0.0
C1922 C 0.86348 0.65906 0.77158 0.0
C1923 C 0.85196 0.66808 0.75694 0.0
C1924 C 0.8527 0.64467 0.7908 0.0
C1925 C 0.8299 0.63928 0.79541 0.0
C1926 C 0.81906 0.65012 0.78205 0.0
C1927 C 0.83038 0.66462 0.76308 0.0
C1928 C 0.86537 0.6345 0.80555 0.0
C1929 C 0.79532 0.64599 0.78726 0.0
H1930 H 0.78601 0.55482 0.80665 0.0
H1931 H 0.80884 0.61249 0.87477 0.0
H1932 H 0.79419 0.59516 0.7601 0.0
H1933 H 0.81888 0.59109 0.76479 0.0
H1934 H 0.78942 0.56444 0.76433 0.0
H1935 H 0.82907 0.65642 0.87295 0.0
H1936 H 0.84988 0.66308 0.84997 0.0
H1937 H 0.82429 0.66493 0.84234 0.0
H1938 H 0.88042 0.66217 0.76717 0.0
H1939 H 0.82195 0.67254 0.75238 0.0
H1940 H 0.85402 0.61352 0.80394 0.0
H1941 H 0.86918 0.64296 0.82654 0.0
H1942 H 0.88228 0.63896 0.7984 0.0
H1943 H 0.78294 0.62596 0.7894 0.0
H1944 H 0.78712 0.65081 0.77154 0.0
H1945 H 0.79766 0.65844 0.80578 0.0
C1946 C 0.36484 0.15221 0.88495 0.0
C1947 C 0.38942 0.16652 0.892 0.0
C1948 C 0.35451 0.15151 0.8604 0.0
C1949 C 0.36917 0.16523 0.84247 0.0
C1950 C 0.39404 0.17919 0.84928 0.0
C1951 C 0.40386 0.17961 0.87398 0.0
C1952 C 0.32792 0.13636 0.85377 0.0
C1953 C 0.41025 0.19371 0.83051 0.0
C1954 C 0.34313 0.14574 0.77101 0.0
C1955 C 0.3377 0.16443 0.76775 0.0
C1956 C 0.35369 0.14596 0.79513 0.0
C1957 C 0.35848 0.16507 0.81661 0.0
C1958 C 0.3529 0.18393 0.81344 0.0
C1959 C 0.3426 0.18342 0.78896 0.0
C1960 C 0.35965 0.12571 0.79763 0.0
C1961 C 0.35778 0.20461 0.83591 0.0
H1962 H 0.35366 0.14196 0.89883 0.0
H1963 H 0.42289 0.18991 0.87904 0.0
H1964 H 0.32156 0.1492 0.84956 0.0
H1965 H 0.32249 0.12181 0.83593 0.0
H1966 H 0.31904 0.12657 0.8698 0.0
H1967 H 0.42921 0.20365 0.83886 0.0
H1968 H 0.4072 0.18044 0.81233 0.0
H1969 H 0.40632 0.20808 0.82505 0.0
H1970 H 0.33899 0.1308 0.75469 0.0
H1971 H 0.33837 0.19786 0.78641 0.0
H1972 H 0.34973 0.11422 0.81217 0.0
H1973 H 0.37875 0.13478 0.80476 0.0
H1974 H 0.35539 0.11267 0.77883 0.0
H1975 H 0.34815 0.19591 0.85203 0.0
H1976 H 0.35239 0.21785 0.8302 0.0
H1977 H 0.3769 0.21584 0.84361 0.0
C1978 C 0.79807 0.21591 0.84091 0.0
C1979 C 0.77963 0.21923 0.83226 0.0
C1980 C 0.81082 0.21078 0.82317 0.0
C1981 C 0.80489 0.20886 0.79617 0.0
C1982 C 0.78654 0.21265 0.78737 0.0
C1983 C 0.77404 0.21767 0.80556 0.0
C1984 C 0.83022 0.20676 0.83325 0.0
C1985 C 0.77969 0.21075 0.75873 0.0
C1986 C 0.84939 0.21404 0.75109 0.0
C1987 C 0.83986 0.18839 0.73996 0.0
C1988 C 0.83811 0.22106 0.76932 0.0
C1989 C 0.81723 0.20184 0.77707 0.0
C1990 C 0.80796 0.17583 0.7664 0.0
C1991 C 0.81938 0.16943 0.74782 0.0
C1992 C 0.8481 0.24902 0.77963 0.0
C1993 C 0.78594 0.15479 0.7745 0.0
H1994 H 0.802 0.21643 0.86147 0.0
H1995 H 0.75987 0.22041 0.7989 0.0
H1996 H 0.82562 0.18703 0.82549 0.0
H1997 H 0.847 0.21998 0.82635 0.0
H1998 H 0.83324 0.20987 0.85489 0.0
H1999 H 0.76713 0.21728 0.75535 0.0
H2000 H 0.79557 0.22224 0.74946 0.0
H2001 H 0.77123 0.19062 0.74881 0.0
H2002 H 0.86514 0.22873 0.74475 0.0
H2003 H 0.81223 0.14959 0.7393 0.0
H2004 H 0.85128 0.2528 0.80125 0.0
H2005 H 0.83515 0.25438 0.77366 0.0
H2006 H 0.86493 0.26151 0.77231 0.0
H2007 H 0.78896 0.15504 0.79568 0.0
H2008 H 0.78062 0.13561 0.76374 0.0
H2009 H 0.77106 0.15796 0.77115 0.0
C2010 C 0.30848 0.18051 0.5104 0.0
C2011 C 0.30419 0.15832 0.49413 0.0
C2012 C 0.31526 0.18464 0.53741 0.0
C2013 C 0.31777 0.16615 0.54829 0.0
C2014 C 0.31374 0.14391 0.53192 0.0
C2015 C 0.30703 0.14029 0.5051 0.0
C2016 C 0.31942 0.20857 0.55433 0.0
C2017 C 0.31622 0.1237 0.54277 0.0
C2018 C 0.35338 0.17929 0.61371 0.0
C2019 C 0.33538 0.16713 0.62885 0.0
C2020 C 0.34801 0.18058 0.58776 0.0
C2021 C 0.32409 0.16943 0.57685 0.0
C2022 C 0.30598 0.15853 0.59262 0.0
C2023 C 0.31186 0.15739 0.61843 0.0
C2024 C 0.36781 0.19251 0.57161 0.0
C2025 C 0.28027 0.1466 0.58182 0.0
H2026 H 0.30633 0.19454 0.5021 0.0
H2027 H 0.30382 0.1231 0.49273 0.0
H2028 H 0.30661 0.20344 0.56854 0.0
H2029 H 0.33737 0.21907 0.56572 0.0
H2030 H 0.31758 0.22152 0.54275 0.0
H2031 H 0.31284 0.10772 0.52732 0.0
H2032 H 0.33428 0.13225 0.5534 0.0
H2033 H 0.30361 0.1158 0.55693 0.0
H2034 H 0.3716 0.18699 0.62184 0.0
H2035 H 0.29789 0.14786 0.63007 0.0
H2036 H 0.36582 0.20575 0.56069 0.0
H2037 H 0.36707 0.17734 0.55707 0.0
H2038 H 0.38546 0.20314 0.58375 0.0
H2039 H 0.2778 0.15943 0.5707 0.0
H2040 H 0.2688 0.14223 0.59744 0.0
H2041 H 0.27432 0.12856 0.56815 0.0
C2042 C 0.88579 0.20164 0.50074 0.0
C2043 C 0.87717 0.18055 0.48057 0.0
C2044 C 0.87704 0.1989 0.52474 0.0
C2045 C 0.85948 0.17443 0.52876 0.0
C2046 C 0.85074 0.15308 0.50851 0.0
C2047 C 0.85931 0.15652 0.48449 0.0
C2048 C 0.88643 0.22223 0.54569 0.0
C2049 C 0.83218 0.12661 0.5121 0.0
C2050 C 0.85201 0.16423 0.59864 0.0
C2051 C 0.83189 0.16555 0.60182 0.0
C2052 C 0.86113 0.16689 0.57489 0.0
C2053 C 0.84987 0.1712 0.55397 0.0
C2054 C 0.82931 0.17229 0.55709 0.0
C2055 C 0.82038 0.16911 0.58096 0.0
C2056 C 0.88275 0.16504 0.57221 0.0
C2057 C 0.81708 0.17735 0.53543 0.0
H2058 H 0.89937 0.22034 0.49772 0.0
H2059 H 0.85142 0.14045 0.4686 0.0
H2060 H 0.87167 0.22449 0.55136 0.0
H2061 H 0.89471 0.2199 0.56336 0.0
H2062 H 0.89972 0.23997 0.53927 0.0
H2063 H 0.82852 0.11178 0.49509 0.0
H2064 H 0.83796 0.12181 0.52978 0.0
H2065 H 0.81546 0.12591 0.51501 0.0
H2066 H 0.86039 0.16067 0.6146 0.0
H2067 H 0.80481 0.17018 0.5836 0.0
H2068 H 0.89734 0.1832 0.56792 0.0
H2069 H 0.8788 0.14974 0.55562 0.0
H2070 H 0.88899 0.16093 0.59014 0.0
H2071 H 0.82966 0.1958 0.52971 0.0
H2072 H 0.80153 0.17804 0.54116 0.0
H2073 H 0.8111 0.16227 0.51797 0.0
C2074 C 0.8948 0.7393 0.53604 0.0
C2075 C 0.88249 0.72559 0.51118 0.0
C2076 C 0.88916 0.72766 0.55816 0.0
C2077 C 0.87091 0.70171 0.55526 0.0
C2078 C 0.85954 0.68739 0.53006 0.0
C2079 C 0.86539 0.69952 0.50835 0.0
C2080 C 0.90182 0.74349 0.58473 0.0
C2081 C 0.8403 0.65954 0.52612 0.0
C2082 C 0.86202 0.66511 0.61113 0.0
C2083 C 0.84297 0.66561 0.62066 0.0
C2084 C 0.87168 0.67717 0.59009 0.0
C2085 C 0.86206 0.6901 0.57855 0.0
C2086 C 0.84301 0.69094 0.58848 0.0
C2087 C 0.83352 0.67841 0.60923 0.0
C2088 C 0.89175 0.67555 0.57983 0.0
C2089 C 0.83255 0.70497 0.57712 0.0
H2090 H 0.90809 0.75943 0.5384 0.0
H2091 H 0.856 0.68869 0.48919 0.0
H2092 H 0.88946 0.74666 0.59572 0.0
H2093 H 0.90779 0.73329 0.59611 0.0
H2094 H 0.9174 0.76237 0.58346 0.0
H2095 H 0.83494 0.65049 0.5052 0.0
H2096 H 0.84626 0.64884 0.53668 0.0
H2097 H 0.82454 0.6577 0.53426 0.0
H2098 H 0.86916 0.655 0.61994 0.0
H2099 H 0.81891 0.67899 0.61682 0.0
H2100 H 0.90606 0.69459 0.57705 0.0
H2101 H 0.88524 0.66283 0.56051 0.0
H2102 H 0.89929 0.6679 0.59307 0.0
H2103 H 0.84658 0.72515 0.57762 0.0
H2104 H 0.81844 0.70465 0.58781 0.0
H2105 H 0.82497 0.69621 0.55641 0.0
loop_
_geom_bond_atom_site_label_1
_geom_bond_atom_site_label_2
_geom_bond_distance
_geom_bond_site_symmetry_2
_ccdc_geom_bond_type
O0 Cd1 2.300 . S
O0 C7 1.275 . S
Cd1 O0 2.300 . S
Cd1 O9 2.381 . S
Cd1 O10 2.378 . S
O2 Cd3 2.385 . S
O2 C7 1.255 . S
Cd3 O2 2.385 . S
Cd3 O4 2.317 . S
O4 Cd3 2.317 . S
O4 C5 1.232 . S
C5 O4 1.232 . S
C5 O6 1.218 . S
O6 C5 1.218 . S
C7 O0 1.275 . S
C7 O2 1.255 . S
C8 O9 1.258 . S
C8 O10 1.256 . S
O9 Cd1 2.381 . S
O9 C8 1.258 . S
O10 Cd1 2.378 . S
O10 C8 1.256 . S
O11 Cd12 2.300 . S
O11 C18 1.275 . S
Cd12 O11 2.300 . S
Cd12 O20 2.381 . S
Cd12 O21 2.378 . S
O13 Cd14 2.385 . S
O13 C18 1.255 . S
Cd14 O13 2.385 . S
Cd14 O15 2.317 . S
O15 Cd14 2.317 . S
O15 C16 1.232 . S
C16 O15 1.232 . S
C16 O17 1.218 . S
O17 C16 1.218 . S
C18 O11 1.275 . S
C18 O13 1.255 . S
C19 O20 1.258 . S
C19 O21 1.256 . S
O20 Cd12 2.381 . S
O20 C19 1.258 . S
O21 Cd12 2.378 . S
O21 C19 1.256 . S
O22 Cd23 2.300 . S
O22 C29 1.275 . S
Cd23 O22 2.300 . S
Cd23 O31 2.381 . S
Cd23 O32 2.378 . S
O24 Cd25 2.385 . S
O24 C29 1.255 . S
Cd25 O24 2.385 . S
Cd25 O26 2.317 . S
O26 Cd25 2.317 . S
O26 C27 1.232 . S
C27 O26 1.232 . S
C27 O28 1.218 . S
O28 C27 1.218 . S
C29 O22 1.275 . S
C29 O24 1.255 . S
C30 O31 1.258 . S
C30 O32 1.256 . S
O31 Cd23 2.381 . S
O31 C30 1.258 . S
O32 Cd23 2.378 . S
O32 C30 1.256 . S
O33 Cd34 2.300 . S
O33 C40 1.275 . S
Cd34 O33 2.300 . S
Cd34 O42 2.381 . S
Cd34 O43 2.378 . S
O35 Cd36 2.385 . S
O35 C40 1.255 . S
Cd36 O35 2.385 . S
Cd36 O37 2.317 . S
O37 Cd36 2.317 . S
O37 C38 1.232 . S
C38 O37 1.232 . S
C38 O39 1.218 . S
O39 C38 1.218 . S
C40 O33 1.275 . S
C40 O35 1.255 . S
C41 O42 1.258 . S
C41 O43 1.256 . S
O42 Cd34 2.381 . S
O42 C41 1.258 . S
O43 Cd34 2.378 . S
O43 C41 1.256 . S
O44 Cd45 2.300 . S
O44 C51 1.275 . S
Cd45 O44 2.300 . S
Cd45 O53 2.381 . S
Cd45 O54 2.378 . S
O46 Cd47 2.385 . S
O46 C51 1.255 . S
Cd47 O46 2.385 . S
Cd47 O48 2.317 . S
O48 Cd47 2.317 . S
O48 C49 1.232 . S
C49 O48 1.232 . S
C49 O50 1.218 . S
O50 C49 1.218 . S
C51 O44 1.275 . S
C51 O46 1.255 . S
C52 O53 1.258 . S
C52 O54 1.256 . S
O53 Cd45 2.381 . S
O53 C52 1.258 . S
O54 Cd45 2.378 . S
O54 C52 1.256 . S
O55 Cd56 2.300 . S
O55 C62 1.275 . S
Cd56 O55 2.300 . S
Cd56 O64 2.381 . S
Cd56 O65 2.378 . S
O57 Cd58 2.385 . S
O57 C62 1.255 . S
Cd58 O57 2.385 . S
Cd58 O59 2.317 . S
O59 Cd58 2.317 . S
O59 C60 1.232 . S
C60 O59 1.232 . S
C60 O61 1.218 . S
O61 C60 1.218 . S
C62 O55 1.275 . S
C62 O57 1.255 . S
C63 O64 1.258 . S
C63 O65 1.256 . S
O64 Cd56 2.381 . S
O64 C63 1.258 . S
O65 Cd56 2.378 . S
O65 C63 1.256 . S
O66 Cd67 2.300 . S
O66 C73 1.275 . S
Cd67 O66 2.300 . S
Cd67 O75 2.381 . S
Cd67 O76 2.378 . S
O68 Cd69 2.385 . S
O68 C73 1.255 . S
Cd69 O68 2.385 . S
Cd69 O70 2.317 . S
O70 Cd69 2.317 . S
O70 C71 1.232 . S
C71 O70 1.232 . S
C71 O72 1.218 . S
O72 C71 1.218 . S
C73 O66 1.275 . S
C73 O68 1.255 . S
C74 O75 1.258 . S
C74 O76 1.256 . S
O75 Cd67 2.381 . S
O75 C74 1.258 . S
O76 Cd67 2.378 . S
O76 C74 1.256 . S
O77 Cd78 2.300 . S
O77 C84 1.275 . S
Cd78 O77 2.300 . S
Cd78 O86 2.381 . S
Cd78 O87 2.378 . S
O79 Cd80 2.385 . S
O79 C84 1.255 . S
Cd80 O79 2.385 . S
Cd80 O81 2.317 . S
O81 Cd80 2.317 . S
O81 C82 1.232 . S
C82 O81 1.232 . S
C82 O83 1.218 . S
O83 C82 1.218 . S
C84 O77 1.275 . S
C84 O79 1.255 . S
C85 O86 1.258 . S
C85 O87 1.256 . S
O86 Cd78 2.381 . S
O86 C85 1.258 . S
O87 Cd78 2.378 . S
O87 C85 1.256 . S
O88 Cd89 2.300 . S
O88 C95 1.275 . S
Cd89 O88 2.300 . S
Cd89 O97 2.381 . S
Cd89 O98 2.378 . S
O90 Cd91 2.385 . S
O90 C95 1.255 . S
Cd91 O90 2.385 . S
Cd91 O92 2.317 . S
O92 Cd91 2.317 . S
O92 C93 1.232 . S
C93 O92 1.232 . S
C93 O94 1.218 . S
O94 C93 1.218 . S
C95 O88 1.275 . S
C95 O90 1.255 . S
C96 O97 1.258 . S
C96 O98 1.256 . S
O97 Cd89 2.381 . S
O97 C96 1.258 . S
O98 Cd89 2.378 . S
O98 C96 1.256 . S
O99 Cd100 2.300 . S
O99 C106 1.275 . S
Cd100 O99 2.300 . S
Cd100 O108 2.381 . S
Cd100 O109 2.378 . S
O101 Cd102 2.385 . S
O101 C106 1.255 . S
Cd102 O101 2.385 . S
Cd102 O103 2.317 . S
O103 Cd102 2.317 . S
O103 C104 1.232 . S
C104 O103 1.232 . S
C104 O105 1.218 . S
O105 C104 1.218 . S
C106 O99 1.275 . S
C106 O101 1.255 . S
C107 O108 1.258 . S
C107 O109 1.256 . S
O108 Cd100 2.381 . S
O108 C107 1.258 . S
O109 Cd100 2.378 . S
O109 C107 1.256 . S
O110 Cd111 2.300 . S
O110 C117 1.275 . S
Cd111 O110 2.300 . S
Cd111 O119 2.381 . S
Cd111 O120 2.378 . S
O112 Cd113 2.385 . S
O112 C117 1.255 . S
Cd113 O112 2.385 . S
Cd113 O114 2.317 . S
O114 Cd113 2.317 . S
O114 C115 1.232 . S
C115 O114 1.232 . S
C115 O116 1.218 . S
O116 C115 1.218 . S
C117 O110 1.275 . S
C117 O112 1.255 . S
C118 O119 1.258 . S
C118 O120 1.256 . S
O119 Cd111 2.381 . S
O119 C118 1.258 . S
O120 Cd111 2.378 . S
O120 C118 1.256 . S
O121 Cd122 2.300 . S
O121 C128 1.275 . S
Cd122 O121 2.300 . S
Cd122 O130 2.381 . S
Cd122 O131 2.378 . S
O123 Cd124 2.385 . S
O123 C128 1.255 . S
Cd124 O123 2.385 . S
Cd124 O125 2.317 . S
O125 Cd124 2.317 . S
O125 C126 1.232 . S
C126 O125 1.232 . S
C126 O127 1.218 . S
O127 C126 1.218 . S
C128 O121 1.275 . S
C128 O123 1.255 . S
C129 O130 1.258 . S
C129 O131 1.256 . S
O130 Cd122 2.381 . S
O130 C129 1.258 . S
O131 Cd122 2.378 . S
O131 C129 1.256 . S
O132 Cd133 2.300 . S
O132 C139 1.275 . S
Cd133 O132 2.300 . S
Cd133 O141 2.381 . S
Cd133 O142 2.378 . S
O134 Cd135 2.385 . S
O134 C139 1.255 . S
Cd135 O134 2.385 . S
Cd135 O136 2.317 . S
O136 Cd135 2.317 . S
O136 C137 1.232 . S
C137 O136 1.232 . S
C137 O138 1.218 . S
O138 C137 1.218 . S
C139 O132 1.275 . S
C139 O134 1.255 . S
C140 O141 1.258 . S
C140 O142 1.256 . S
O141 Cd133 2.381 . S
O141 C140 1.258 . S
O142 Cd133 2.378 . S
O142 C140 1.256 . S
O143 Cd144 2.300 . S
O143 C150 1.275 . S
Cd144 O143 2.300 . S
Cd144 O152 2.381 . S
Cd144 O153 2.378 . S
O145 Cd146 2.385 . S
O145 C150 1.255 . S
Cd146 O145 2.385 . S
Cd146 O147 2.317 . S
O147 Cd146 2.317 . S
O147 C148 1.232 . S
C148 O147 1.232 . S
C148 O149 1.218 . S
O149 C148 1.218 . S
C150 O143 1.275 . S
C150 O145 1.255 . S
C151 O152 1.258 . S
C151 O153 1.256 . S
O152 Cd144 2.381 . S
O152 C151 1.258 . S
O153 Cd144 2.378 . S
O153 C151 1.256 . S
O154 Cd155 2.300 . S
O154 C161 1.275 . S
Cd155 O154 2.300 . S
Cd155 O163 2.381 . S
Cd155 O164 2.378 . S
O156 Cd157 2.385 . S
O156 C161 1.255 . S
Cd157 O156 2.385 . S
Cd157 O158 2.317 . S
O158 Cd157 2.317 . S
O158 C159 1.232 . S
C159 O158 1.232 . S
C159 O160 1.218 . S
O160 C159 1.218 . S
C161 O154 1.275 . S
C161 O156 1.255 . S
C162 O163 1.258 . S
C162 O164 1.256 . S
O163 Cd155 2.381 . S
O163 C162 1.258 . S
O164 Cd155 2.378 . S
O164 C162 1.256 . S
O165 Cd166 2.300 . S
O165 C172 1.275 . S
Cd166 O165 2.300 . S
Cd166 O174 2.381 . S
Cd166 O175 2.378 . S
O167 Cd168 2.385 . S
O167 C172 1.255 . S
Cd168 O167 2.385 . S
Cd168 O169 2.317 . S
O169 Cd168 2.317 . S
O169 C170 1.232 . S
C170 O169 1.232 . S
C170 O171 1.218 . S
O171 C170 1.218 . S
C172 O165 1.275 . S
C172 O167 1.255 . S
C173 O174 1.258 . S
C173 O175 1.256 . S
O174 Cd166 2.381 . S
O174 C173 1.258 . S
O175 Cd166 2.378 . S
O175 C173 1.256 . S
O176 Cd177 2.300 . S
O176 C183 1.275 . S
Cd177 O176 2.300 . S
Cd177 O185 2.381 . S
Cd177 O186 2.378 . S
O178 Cd179 2.385 . S
O178 C183 1.255 . S
Cd179 O178 2.385 . S
Cd179 O180 2.317 . S
O180 Cd179 2.317 . S
O180 C181 1.232 . S
C181 O180 1.232 . S
C181 O182 1.218 . S
O182 C181 1.218 . S
C183 O176 1.275 . S
C183 O178 1.255 . S
C184 O185 1.258 . S
C184 O186 1.256 . S
O185 Cd177 2.381 . S
O185 C184 1.258 . S
O186 Cd177 2.378 . S
O186 C184 1.256 . S
O187 Cd188 2.300 . S
O187 C194 1.275 . S
Cd188 O187 2.300 . S
Cd188 O196 2.381 . S
Cd188 O197 2.378 . S
O189 Cd190 2.385 . S
O189 C194 1.255 . S
Cd190 O189 2.385 . S
Cd190 O191 2.317 . S
O191 Cd190 2.317 . S
O191 C192 1.232 . S
C192 O191 1.232 . S
C192 O193 1.218 . S
O193 C192 1.218 . S
C194 O187 1.275 . S
C194 O189 1.255 . S
C195 O196 1.258 . S
C195 O197 1.256 . S
O196 Cd188 2.381 . S
O196 C195 1.258 . S
O197 Cd188 2.378 . S
O197 C195 1.256 . S
Tb198 O201 2.453 . S
Tb198 O202 2.596 1_545 S
Tb198 O203 2.374 1_545 S
Tb198 O211 2.343 1_554 S
Tb198 O213 2.353 . S
Tb198 O215 2.427 . S
Tb198 O216 2.513 . S
C199 O203 1.251 . S
C199 O205 1.263 1_554 S
Tb200 O202 2.343 1_556 S
Tb200 O205 2.353 . S
Tb200 O208 2.427 1_556 S
Tb200 O209 2.513 1_556 S
Tb200 O210 2.453 . S
Tb200 O211 2.596 1_565 S
Tb200 O212 2.374 1_566 S
O201 Tb198 2.453 . S
O201 C217 1.245 1_545 S
O202 Tb198 2.596 1_565 S
O202 Tb200 2.343 1_554 S
O202 C217 1.259 . S
O203 Tb198 2.374 1_565 S
O203 C199 1.251 . S
C204 O208 1.275 . S
C204 O209 1.246 . S
O205 C199 1.263 1_556 S
O205 Tb200 2.353 . S
C206 O210 1.245 1_545 S
C206 O211 1.259 . S
C207 O212 1.251 . S
C207 O213 1.263 . S
O208 Tb200 2.427 1_554 S
O208 C204 1.275 . S
O209 Tb200 2.513 1_554 S
O209 C204 1.246 . S
O210 Tb200 2.453 . S
O210 C206 1.245 1_565 S
O211 Tb198 2.343 1_556 S
O211 Tb200 2.596 1_545 S
O211 C206 1.259 . S
O212 Tb200 2.374 1_544 S
O212 C207 1.251 . S
O213 Tb198 2.353 . S
O213 C207 1.263 . S
C214 O215 1.275 1_556 S
C214 O216 1.246 1_556 S
O215 Tb198 2.427 . S
O215 C214 1.275 1_554 S
O216 Tb198 2.513 . S
O216 C214 1.246 1_554 S
C217 O201 1.245 1_565 S
C217 O202 1.259 . S
Tb218 O221 2.456 . S
Tb218 O222 2.596 1_655 S
Tb218 O223 2.374 1_655 S
Tb218 O231 2.343 1_554 S
Tb218 O233 2.353 . S
Tb218 O235 2.427 . S
Tb218 O236 2.513 . S
C219 O223 1.251 . S
C219 O225 1.263 . S
Tb220 O222 2.343 . S
Tb220 O225 2.353 . S
Tb220 O228 2.427 . S
Tb220 O229 2.513 . S
Tb220 O230 2.453 1_554 S
Tb220 O231 2.596 1_454 S
Tb220 O232 2.374 1_455 S
O221 Tb218 2.456 . S
O221 C237 1.238 1_655 S
O222 Tb218 2.596 1_455 S
O222 Tb220 2.343 . S
O222 C237 1.259 . S
O223 Tb218 2.374 1_455 S
O223 C219 1.251 . S
C224 O228 1.275 . S
C224 O229 1.246 . S
O225 C219 1.263 . S
O225 Tb220 2.353 . S
C226 O230 1.245 1_655 S
C226 O231 1.259 . S
C227 O232 1.250 . S
C227 O233 1.263 . S
O228 Tb220 2.427 . S
O228 C224 1.275 . S
O229 Tb220 2.513 . S
O229 C224 1.246 . S
O230 Tb220 2.453 1_556 S
O230 C226 1.245 1_455 S
O231 Tb218 2.343 1_556 S
O231 Tb220 2.596 1_656 S
O231 C226 1.259 . S
O232 Tb220 2.374 1_655 S
O232 C227 1.250 . S
O233 Tb218 2.353 . S
O233 C227 1.263 . S
C234 O235 1.258 1_556 S
C234 O236 1.243 1_556 S
O235 Tb218 2.427 . S
O235 C234 1.258 1_554 S
O236 Tb218 2.513 . S
O236 C234 1.243 1_554 S
C237 O221 1.238 1_455 S
C237 O222 1.259 . S
Tb238 O241 2.453 . S
Tb238 O242 2.596 . S
Tb238 O243 2.374 . S
Tb238 O251 2.343 1_556 S
Tb238 O253 2.353 . S
Tb238 O255 2.427 1_556 S
Tb238 O256 2.513 1_556 S
C239 O243 1.261 . S
C239 O245 1.243 1_556 S
Tb240 O242 2.343 1_554 S
Tb240 O245 2.353 . S
Tb240 O248 2.405 1_554 S
Tb240 O249 2.513 1_554 S
Tb240 O250 2.453 . S
Tb240 O251 2.596 . S
Tb240 O252 2.374 . S
O241 Tb238 2.453 . S
O241 C257 1.245 . S
O242 Tb238 2.596 . S
O242 Tb240 2.343 1_556 S
O242 C257 1.259 . S
O243 Tb238 2.374 . S
O243 C239 1.261 . S
C244 O248 1.298 . S
C244 O249 1.246 . S
O245 C239 1.243 1_554 S
O245 Tb240 2.353 . S
C246 O250 1.245 . S
C246 O251 1.259 . S
C247 O252 1.250 . S
C247 O253 1.263 1_554 S
O248 Tb240 2.405 1_556 S
O248 C244 1.298 . S
O249 Tb240 2.513 1_556 S
O249 C244 1.246 . S
O250 Tb240 2.453 . S
O250 C246 1.245 . S
O251 Tb238 2.343 1_554 S
O251 Tb240 2.596 . S
O251 C246 1.259 . S
O252 Tb240 2.374 . S
O252 C247 1.250 . S
O253 Tb238 2.353 . S
O253 C247 1.263 1_556 S
C254 O255 1.275 . S
C254 O256 1.246 . S
O255 Tb238 2.427 1_554 S
O255 C254 1.275 . S
O256 Tb238 2.513 1_554 S
O256 C254 1.246 . S
C257 O241 1.245 . S
C257 O242 1.259 . S
Tb258 O261 2.453 . S
Tb258 O262 2.596 . S
Tb258 O263 2.374 . S
Tb258 O271 2.343 . S
Tb258 O273 2.353 . S
Tb258 O275 2.427 . S
Tb258 O276 2.513 . S
C259 O263 1.251 . S
C259 O265 1.263 . S
Tb260 O262 2.343 . S
Tb260 O265 2.353 . S
Tb260 O268 2.427 . S
Tb260 O269 2.513 . S
Tb260 O270 2.453 . S
Tb260 O271 2.596 . S
Tb260 O272 2.374 . S
O261 Tb258 2.453 . S
O261 C277 1.245 . S
O262 Tb258 2.596 . S
O262 Tb260 2.343 . S
O262 C277 1.259 . S
O263 Tb258 2.374 . S
O263 C259 1.251 . S
C264 O268 1.275 . S
C264 O269 1.246 . S
O265 C259 1.263 . S
O265 Tb260 2.353 . S
C266 O270 1.245 . S
C266 O271 1.259 . S
C267 O272 1.250 . S
C267 O273 1.263 . S
O268 Tb260 2.427 . S
O268 C264 1.275 . S
O269 Tb260 2.513 . S
O269 C264 1.246 . S
O270 Tb260 2.453 . S
O270 C266 1.245 . S
O271 Tb258 2.343 . S
O271 Tb260 2.596 . S
O271 C266 1.259 . S
O272 Tb260 2.374 . S
O272 C267 1.250 . S
O273 Tb258 2.353 . S
O273 C267 1.263 . S
C274 O275 1.275 . S
C274 O276 1.246 . S
O275 Tb258 2.427 . S
O275 C274 1.275 . S
O276 Tb258 2.513 . S
O276 C274 1.246 . S
C277 O261 1.245 . S
C277 O262 1.259 . S
Tb278 O281 2.453 . S
Tb278 O282 2.596 . S
Tb278 O283 2.374 . S
Tb278 O291 2.343 . S
Tb278 O293 2.353 . S
Tb278 O295 2.427 . S
Tb278 O296 2.513 . S
C279 O283 1.251 . S
C279 O285 1.263 . S
Tb280 O282 2.343 . S
Tb280 O285 2.353 . S
Tb280 O288 2.427 . S
Tb280 O289 2.513 . S
Tb280 O290 2.453 . S
Tb280 O291 2.596 . S
Tb280 O292 2.374 . S
O281 Tb278 2.453 . S
O281 C297 1.245 . S
O282 Tb278 2.596 . S
O282 Tb280 2.343 . S
O282 C297 1.259 . S
O283 Tb278 2.374 . S
O283 C279 1.251 . S
C284 O288 1.275 . S
C284 O289 1.246 . S
O285 C279 1.263 . S
O285 Tb280 2.353 . S
C286 O290 1.245 . S
C286 O291 1.259 . S
C287 O292 1.250 . S
C287 O293 1.263 . S
O288 Tb280 2.427 . S
O288 C284 1.275 . S
O289 Tb280 2.513 . S
O289 C284 1.246 . S
O290 Tb280 2.453 . S
O290 C286 1.245 . S
O291 Tb278 2.343 . S
O291 Tb280 2.596 . S
O291 C286 1.259 . S
O292 Tb280 2.374 . S
O292 C287 1.250 . S
O293 Tb278 2.353 . S
O293 C287 1.263 . S
C294 O295 1.275 . S
C294 O296 1.246 . S
O295 Tb278 2.427 . S
O295 C294 1.275 . S
O296 Tb278 2.513 . S
O296 C294 1.246 . S
C297 O281 1.245 . S
C297 O282 1.259 . S
Tb298 O301 2.453 . S
Tb298 O302 2.596 . S
Tb298 O303 2.374 . S
Tb298 O311 2.343 . S
Tb298 O313 2.353 . S
Tb298 O315 2.427 . S
Tb298 O316 2.513 . S
C299 O303 1.251 . S
C299 O305 1.263 . S
Tb300 O302 2.343 . S
Tb300 O305 2.353 . S
Tb300 O308 2.427 . S
Tb300 O309 2.513 . S
Tb300 O310 2.453 . S
Tb300 O311 2.596 . S
Tb300 O312 2.374 . S
O301 Tb298 2.453 . S
O301 C317 1.245 . S
O302 Tb298 2.596 . S
O302 Tb300 2.343 . S
O302 C317 1.259 . S
O303 Tb298 2.374 . S
O303 C299 1.251 . S
C304 O308 1.275 . S
C304 O309 1.246 . S
O305 C299 1.263 . S
O305 Tb300 2.353 . S
C306 O310 1.245 . S
C306 O311 1.259 . S
C307 O312 1.250 . S
C307 O313 1.263 . S
O308 Tb300 2.427 . S
O308 C304 1.275 . S
O309 Tb300 2.513 . S
O309 C304 1.246 . S
O310 Tb300 2.453 . S
O310 C306 1.245 . S
O311 Tb298 2.343 . S
O311 Tb300 2.596 . S
O311 C306 1.259 . S
O312 Tb300 2.374 . S
O312 C307 1.250 . S
O313 Tb298 2.353 . S
O313 C307 1.263 . S
C314 O315 1.275 . S
C314 O316 1.246 . S
O315 Tb298 2.427 . S
O315 C314 1.275 . S
O316 Tb298 2.513 . S
O316 C314 1.246 . S
C317 O301 1.245 . S
C317 O302 1.259 . S
Tb318 O321 2.453 . S
Tb318 O322 2.596 . S
Tb318 O323 2.374 . S
Tb318 O331 2.343 . S
Tb318 O333 2.353 . S
Tb318 O335 2.427 . S
Tb318 O336 2.513 . S
C319 O323 1.251 . S
C319 O325 1.263 . S
Tb320 O322 2.343 . S
Tb320 O325 2.353 . S
Tb320 O328 2.427 . S
Tb320 O329 2.513 . S
Tb320 O330 2.453 . S
Tb320 O331 2.596 . S
Tb320 O332 2.374 . S
O321 Tb318 2.453 . S
O321 C337 1.245 . S
O322 Tb318 2.596 . S
O322 Tb320 2.343 . S
O322 C337 1.259 . S
O323 Tb318 2.374 . S
O323 C319 1.251 . S
C324 O328 1.275 . S
C324 O329 1.246 . S
O325 C319 1.263 . S
O325 Tb320 2.353 . S
C326 O330 1.245 . S
C326 O331 1.259 . S
C327 O332 1.250 . S
C327 O333 1.263 . S
O328 Tb320 2.427 . S
O328 C324 1.275 . S
O329 Tb320 2.513 . S
O329 C324 1.246 . S
O330 Tb320 2.453 . S
O330 C326 1.245 . S
O331 Tb318 2.343 . S
O331 Tb320 2.596 . S
O331 C326 1.259 . S
O332 Tb320 2.374 . S
O332 C327 1.250 . S
O333 Tb318 2.353 . S
O333 C327 1.263 . S
C334 O335 1.275 . S
C334 O336 1.246 . S
O335 Tb318 2.427 . S
O335 C334 1.275 . S
O336 Tb318 2.513 . S
O336 C334 1.246 . S
C337 O321 1.245 . S
C337 O322 1.259 . S
Tb338 O341 2.453 . S
Tb338 O342 2.596 . S
Tb338 O343 2.374 . S
Tb338 O351 2.343 . S
Tb338 O353 2.353 . S
Tb338 O355 2.427 . S
Tb338 O356 2.513 . S
C339 O343 1.251 . S
C339 O345 1.263 . S
Tb340 O342 2.343 . S
Tb340 O345 2.353 . S
Tb340 O348 2.427 . S
Tb340 O349 2.513 . S
Tb340 O350 2.453 . S
Tb340 O351 2.596 . S
Tb340 O352 2.374 . S
O341 Tb338 2.453 . S
O341 C357 1.245 . S
O342 Tb338 2.596 . S
O342 Tb340 2.343 . S
O342 C357 1.259 . S
O343 Tb338 2.374 . S
O343 C339 1.251 . S
C344 O348 1.275 . S
C344 O349 1.246 . S
O345 C339 1.263 . S
O345 Tb340 2.353 . S
C346 O350 1.245 . S
C346 O351 1.259 . S
C347 O352 1.250 . S
C347 O353 1.263 . S
O348 Tb340 2.427 . S
O348 C344 1.275 . S
O349 Tb340 2.513 . S
O349 C344 1.246 . S
O350 Tb340 2.453 . S
O350 C346 1.245 . S
O351 Tb338 2.343 . S
O351 Tb340 2.596 . S
O351 C346 1.259 . S
O352 Tb340 2.374 . S
O352 C347 1.250 . S
O353 Tb338 2.353 . S
O353 C347 1.263 . S
C354 O355 1.275 . S
C354 O356 1.246 . S
O355 Tb338 2.427 . S
O355 C354 1.275 . S
O356 Tb338 2.513 . S
O356 C354 1.246 . S
C357 O341 1.245 . S
C357 O342 1.259 . S
Tb358 O361 2.453 . S
Tb358 O362 2.596 . S
Tb358 O363 2.374 . S
Tb358 O371 2.343 . S
Tb358 O373 2.353 . S
Tb358 O375 2.427 . S
Tb358 O376 2.513 . S
C359 O363 1.251 . S
C359 O365 1.263 . S
Tb360 O362 2.343 . S
Tb360 O365 2.353 . S
Tb360 O368 2.427 . S
Tb360 O369 2.513 . S
Tb360 O370 2.453 . S
Tb360 O371 2.596 . S
Tb360 O372 2.374 . S
O361 Tb358 2.453 . S
O361 C377 1.245 . S
O362 Tb358 2.596 . S
O362 Tb360 2.343 . S
O362 C377 1.259 . S
O363 Tb358 2.374 . S
O363 C359 1.251 . S
C364 O368 1.275 . S
C364 O369 1.246 . S
O365 C359 1.263 . S
O365 Tb360 2.353 . S
C366 O370 1.245 . S
C366 O371 1.259 . S
C367 O372 1.250 . S
C367 O373 1.263 . S
O368 Tb360 2.427 . S
O368 C364 1.275 . S
O369 Tb360 2.513 . S
O369 C364 1.246 . S
O370 Tb360 2.453 . S
O370 C366 1.245 . S
O371 Tb358 2.343 . S
O371 Tb360 2.596 . S
O371 C366 1.259 . S
O372 Tb360 2.374 . S
O372 C367 1.250 . S
O373 Tb358 2.353 . S
O373 C367 1.263 . S
C374 O375 1.275 . S
C374 O376 1.246 . S
O375 Tb358 2.427 . S
O375 C374 1.275 . S
O376 Tb358 2.513 . S
O376 C374 1.246 . S
C377 O361 1.245 . S
C377 O362 1.259 . S
C378 C379 1.391 . S
C378 C380 1.394 . S
C378 H394 0.931 . S
C379 C378 1.391 . S
C379 C383 1.376 . S
C380 C378 1.394 . S
C380 C381 1.369 . S
C380 C384 1.531 . S
C381 C380 1.369 . S
C381 C382 1.410 . S
C381 C389 1.503 . S
C382 C381 1.410 . S
C382 C383 1.392 . S
C382 C385 1.511 . S
C383 C379 1.376 . S
C383 C382 1.392 . S
C383 H395 0.929 . S
C384 C380 1.531 . S
C384 H396 0.960 . S
C384 H397 0.962 . S
C384 H398 0.960 . S
C385 C382 1.511 . S
C385 H399 0.961 1_554 S
C385 H400 0.963 . S
C385 H401 0.961 . S
C386 C387 1.370 . S
C386 C388 1.363 . S
C386 H402 0.931 . S
C387 C386 1.370 . S
C387 C391 1.408 . S
C388 C386 1.363 . S
C388 C389 1.370 . S
C388 C392 1.524 . S
C389 C381 1.503 . S
C389 C388 1.370 . S
C389 C390 1.403 . S
C390 C389 1.403 . S
C390 C391 1.404 . S
C390 C393 1.539 . S
C391 C387 1.408 . S
C391 C390 1.404 . S
C391 H403 0.930 . S
C392 C388 1.524 . S
C392 H404 0.956 . S
C392 H405 0.961 . S
C392 H406 0.961 . S
C393 C390 1.539 . S
C393 H407 0.958 . S
C393 H408 0.961 . S
C393 H409 0.960 . S
H394 C378 0.931 . S
H395 C383 0.929 . S
H396 C384 0.960 . S
H397 C384 0.962 . S
H398 C384 0.960 . S
H399 C385 0.961 1_556 S
H400 C385 0.963 . S
H401 C385 0.961 . S
H402 C386 0.931 . S
H403 C391 0.930 . S
H404 C392 0.956 . S
H405 C392 0.961 . S
H406 C392 0.961 . S
H407 C393 0.958 . S
H408 C393 0.961 . S
H409 C393 0.960 . S
C410 C411 1.391 . S
C410 C412 1.394 . S
C410 H426 0.931 . S
C411 C410 1.391 . S
C411 C415 1.376 . S
C412 C410 1.394 . S
C412 C413 1.369 . S
C412 C416 1.531 . S
C413 C412 1.369 . S
C413 C414 1.410 . S
C413 C421 1.503 . S
C414 C413 1.410 . S
C414 C415 1.392 . S
C414 C417 1.511 . S
C415 C411 1.376 . S
C415 C414 1.392 . S
C415 H427 0.929 . S
C416 C412 1.531 . S
C416 H428 0.960 . S
C416 H429 0.962 . S
C416 H430 0.960 . S
C417 C414 1.511 . S
C417 H431 0.961 . S
C417 H432 0.961 . S
C417 H433 0.961 . S
C418 C419 1.370 . S
C418 C420 1.363 . S
C418 H434 0.931 . S
C419 C418 1.370 . S
C419 C423 1.408 . S
C420 C418 1.363 . S
C420 C421 1.370 . S
C420 C424 1.524 . S
C421 C413 1.503 . S
C421 C420 1.370 . S
C421 C422 1.403 . S
C422 C421 1.403 . S
C422 C423 1.404 . S
C422 C425 1.539 . S
C423 C419 1.408 . S
C423 C422 1.404 . S
C423 H435 0.930 . S
C424 C420 1.524 . S
C424 H436 0.956 . S
C424 H437 0.961 . S
C424 H438 0.961 . S
C425 C422 1.539 . S
C425 H439 0.958 . S
C425 H440 0.961 . S
C425 H441 0.960 . S
H426 C410 0.931 . S
H427 C415 0.929 . S
H428 C416 0.960 . S
H429 C416 0.962 . S
H430 C416 0.960 . S
H431 C417 0.961 . S
H432 C417 0.961 . S
H433 C417 0.961 . S
H434 C418 0.931 . S
H435 C423 0.930 . S
H436 C424 0.956 . S
H437 C424 0.961 . S
H438 C424 0.961 . S
H439 C425 0.958 . S
H440 C425 0.961 . S
H441 C425 0.960 . S
C442 C443 1.391 . S
C442 C444 1.394 . S
C442 H458 0.931 . S
C443 C442 1.391 . S
C443 C447 1.376 . S
C444 C442 1.394 . S
C444 C445 1.369 . S
C444 C448 1.531 . S
C445 C444 1.369 . S
C445 C446 1.410 . S
C445 C453 1.503 . S
C446 C445 1.410 . S
C446 C447 1.392 . S
C446 C449 1.511 1_554 S
C447 C443 1.376 . S
C447 C446 1.392 . S
C447 H459 0.929 . S
C448 C444 1.531 . S
C448 H460 0.960 . S
C448 H461 0.962 . S
C448 H462 0.960 . S
C449 C446 1.511 1_556 S
C449 H463 0.961 . S
C449 H464 0.961 . S
C449 H465 0.961 . S
C450 C451 1.370 . S
C450 C452 1.363 . S
C450 H466 0.931 . S
C451 C450 1.370 . S
C451 C455 1.408 . S
C452 C450 1.363 . S
C452 C453 1.370 . S
C452 C456 1.524 . S
C453 C445 1.503 . S
C453 C452 1.370 . S
C453 C454 1.403 . S
C454 C453 1.403 . S
C454 C455 1.404 . S
C454 C457 1.539 . S
C455 C451 1.408 . S
C455 C454 1.404 . S
C455 H467 0.930 . S
C456 C452 1.524 . S
C456 H468 0.956 . S
C456 H469 0.961 . S
C456 H470 0.961 . S
C457 C454 1.539 . S
C457 H471 0.958 . S
C457 H472 0.961 . S
C457 H473 0.960 . S
H458 C442 0.931 . S
H459 C447 0.929 . S
H460 C448 0.960 . S
H461 C448 0.962 . S
H462 C448 0.960 . S
H463 C449 0.961 . S
H464 C449 0.961 . S
H465 C449 0.961 . S
H466 C450 0.931 . S
H467 C455 0.930 . S
H468 C456 0.956 . S
H469 C456 0.961 . S
H470 C456 0.961 . S
H471 C457 0.958 . S
H472 C457 0.961 . S
H473 C457 0.960 . S
C474 C475 1.391 . S
C474 C476 1.394 . S
C474 H490 0.931 . S
C475 C474 1.391 . S
C475 C479 1.376 . S
C476 C474 1.394 . S
C476 C477 1.369 . S
C476 C480 1.531 . S
C477 C476 1.369 . S
C477 C478 1.410 . S
C477 C485 1.503 . S
C478 C477 1.410 . S
C478 C479 1.392 . S
C478 C481 1.511 . S
C479 C475 1.376 . S
C479 C478 1.392 . S
C479 H491 0.929 . S
C480 C476 1.531 . S
C480 H492 0.960 . S
C480 H493 0.962 1_556 S
C480 H494 0.960 . S
C481 C478 1.511 . S
C481 H495 0.961 . S
C481 H496 0.961 . S
C481 H497 0.961 . S
C482 C483 1.370 1_554 S
C482 C484 1.363 . S
C482 H498 0.931 . S
C483 C482 1.370 1_556 S
C483 C487 1.408 . S
C484 C482 1.363 . S
C484 C485 1.370 1_554 S
C484 C488 1.524 . S
C485 C477 1.503 . S
C485 C484 1.370 1_556 S
C485 C486 1.403 . S
C486 C485 1.403 . S
C486 C487 1.404 . S
C486 C489 1.539 . S
C487 C483 1.408 . S
C487 C486 1.404 . S
C487 H499 0.930 . S
C488 C484 1.524 . S
C488 H500 0.956 . S
C488 H501 0.961 . S
C488 H502 0.961 . S
C489 C486 1.539 . S
C489 H503 0.958 . S
C489 H504 0.961 . S
C489 H505 0.960 . S
H490 C474 0.931 . S
H491 C479 0.929 . S
H492 C480 0.960 . S
H493 C480 0.962 1_554 S
H494 C480 0.960 . S
H495 C481 0.961 . S
H496 C481 0.961 . S
H497 C481 0.961 . S
H498 C482 0.931 . S
H499 C487 0.930 . S
H500 C488 0.956 . S
H501 C488 0.961 . S
H502 C488 0.961 . S
H503 C489 0.958 . S
H504 C489 0.961 . S
H505 C489 0.960 . S
C506 C507 1.391 . S
C506 C508 1.394 . S
C506 H522 0.931 . S
C507 C506 1.391 . S
C507 C511 1.376 . S
C508 C506 1.394 . S
C508 C509 1.369 . S
C508 C512 1.531 . S
C509 C508 1.369 . S
C509 C510 1.410 . S
C509 C517 1.503 . S
C510 C509 1.410 . S
C510 C511 1.392 . S
C510 C513 1.511 . S
C511 C507 1.376 . S
C511 C510 1.392 . S
C511 H523 0.929 . S
C512 C508 1.531 . S
C512 H524 0.960 . S
C512 H525 0.962 . S
C512 H526 0.960 . S
C513 C510 1.511 . S
C513 H527 0.961 . S
C513 H528 0.961 . S
C513 H529 0.961 1_556 S
C514 C515 1.370 . S
C514 C516 1.363 . S
C514 H530 0.931 . S
C515 C514 1.370 . S
C515 C519 1.408 . S
C516 C514 1.363 . S
C516 C517 1.370 . S
C516 C520 1.524 . S
C517 C509 1.503 . S
C517 C516 1.370 . S
C517 C518 1.403 . S
C518 C517 1.403 . S
C518 C519 1.404 . S
C518 C521 1.539 1_556 S
C519 C515 1.408 . S
C519 C518 1.404 . S
C519 H531 0.930 1_556 S
C520 C516 1.524 . S
C520 H532 0.956 . S
C520 H533 0.961 . S
C520 H534 0.961 . S
C521 C518 1.539 1_554 S
C521 H535 0.958 1_554 S
C521 H536 0.961 . S
C521 H537 0.960 . S
H522 C506 0.931 . S
H523 C511 0.929 . S
H524 C512 0.960 . S
H525 C512 0.962 . S
H526 C512 0.960 . S
H527 C513 0.961 . S
H528 C513 0.961 . S
H529 C513 0.961 1_554 S
H530 C514 0.931 . S
H531 C519 0.930 1_554 S
H532 C520 0.956 . S
H533 C520 0.961 . S
H534 C520 0.961 . S
H535 C521 0.958 1_556 S
H536 C521 0.961 . S
H537 C521 0.960 . S
C538 C539 1.391 1_554 S
C538 C540 1.394 . S
C538 H554 0.931 . S
C539 C538 1.391 1_556 S
C539 C543 1.376 . S
C540 C538 1.394 . S
C540 C541 1.369 1_554 S
C540 C544 1.531 . S
C541 C540 1.369 1_556 S
C541 C542 1.410 . S
C541 C549 1.503 . S
C542 C541 1.410 . S
C542 C543 1.392 . S
C542 C545 1.511 . S
C543 C539 1.376 . S
C543 C542 1.392 . S
C543 H555 0.929 . S
C544 C540 1.531 . S
C544 H556 0.960 . S
C544 H557 0.962 . S
C544 H558 0.960 . S
C545 C542 1.511 . S
C545 H559 0.961 . S
C545 H560 0.961 . S
C545 H561 0.961 . S
C546 C547 1.370 . S
C546 C548 1.363 . S
C546 H562 0.931 . S
C547 C546 1.370 . S
C547 C551 1.408 1_554 S
C548 C546 1.363 . S
C548 C549 1.370 1_554 S
C548 C552 1.524 . S
C549 C541 1.503 . S
C549 C548 1.370 1_556 S
C549 C550 1.403 . S
C550 C549 1.403 . S
C550 C551 1.404 . S
C550 C553 1.539 . S
C551 C547 1.408 1_556 S
C551 C550 1.404 . S
C551 H563 0.930 . S
C552 C548 1.524 . S
C552 H564 0.956 . S
C552 H565 0.961 1_554 S
C552 H566 0.961 . S
C553 C550 1.539 . S
C553 H567 0.958 . S
C553 H568 0.961 . S
C553 H569 0.960 . S
H554 C538 0.931 . S
H555 C543 0.929 . S
H556 C544 0.960 . S
H557 C544 0.962 . S
H558 C544 0.960 . S
H559 C545 0.961 . S
H560 C545 0.961 . S
H561 C545 0.961 . S
H562 C546 0.931 . S
H563 C551 0.930 . S
H564 C552 0.956 . S
H565 C552 0.961 1_556 S
H566 C552 0.961 . S
H567 C553 0.958 . S
H568 C553 0.961 . S
H569 C553 0.960 . S
C570 C571 1.391 . S
C570 C572 1.394 . S
C570 H586 0.931 . S
C571 C570 1.391 . S
C571 C575 1.376 . S
C572 C570 1.394 . S
C572 C573 1.369 . S
C572 C576 1.529 . S
C573 C572 1.369 . S
C573 C574 1.410 . S
C573 C581 1.503 . S
C574 C573 1.410 . S
C574 C575 1.392 . S
C574 C577 1.511 . S
C575 C571 1.376 . S
C575 C574 1.392 . S
C575 H587 0.929 . S
C576 C572 1.529 . S
C576 H588 0.962 1_556 S
C576 H589 0.960 . S
C576 H590 0.962 1_556 S
C577 C574 1.511 . S
C577 H591 0.961 . S
C577 H592 0.961 . S
C577 H593 0.961 . S
C578 C579 1.370 . S
C578 C580 1.363 . S
C578 H594 0.931 . S
C579 C578 1.370 . S
C579 C583 1.408 1_556 S
C580 C578 1.363 . S
C580 C581 1.370 . S
C580 C584 1.524 . S
C581 C573 1.503 . S
C581 C580 1.370 . S
C581 C582 1.403 1_556 S
C582 C581 1.403 1_554 S
C582 C583 1.404 . S
C582 C585 1.539 . S
C583 C579 1.408 1_554 S
C583 C582 1.404 . S
C583 H595 0.930 . S
C584 C580 1.524 . S
C584 H596 0.956 . S
C584 H597 0.961 . S
C584 H598 0.961 . S
C585 C582 1.539 . S
C585 H599 0.958 . S
C585 H600 0.961 . S
C585 H601 0.960 . S
H586 C570 0.931 . S
H587 C575 0.929 . S
H588 C576 0.962 1_554 S
H589 C576 0.960 . S
H590 C576 0.962 1_554 S
H591 C577 0.961 . S
H592 C577 0.961 . S
H593 C577 0.961 . S
H594 C578 0.931 . S
H595 C583 0.930 . S
H596 C584 0.956 . S
H597 C584 0.961 . S
H598 C584 0.961 . S
H599 C585 0.958 . S
H600 C585 0.961 . S
H601 C585 0.960 . S
C602 C603 1.391 . S
C602 C604 1.394 . S
C602 H618 0.931 . S
C603 C602 1.391 . S
C603 C607 1.376 . S
C604 C602 1.394 . S
C604 C605 1.369 . S
C604 C608 1.531 . S
C605 C604 1.369 . S
C605 C606 1.410 . S
C605 C613 1.503 . S
C606 C605 1.410 . S
C606 C607 1.392 . S
C606 C609 1.511 1_556 S
C607 C603 1.376 . S
C607 C606 1.392 . S
C607 H619 0.929 . S
C608 C604 1.531 . S
C608 H620 0.960 . S
C608 H621 0.962 . S
C608 H622 0.960 . S
C609 C606 1.511 1_554 S
C609 H623 0.961 . S
C609 H624 0.961 . S
C609 H625 0.961 . S
C610 C611 1.370 . S
C610 C612 1.363 . S
C610 H626 0.931 . S
C611 C610 1.370 . S
C611 C615 1.408 . S
C612 C610 1.363 . S
C612 C613 1.370 . S
C612 C616 1.524 . S
C613 C605 1.503 . S
C613 C612 1.370 . S
C613 C614 1.403 . S
C614 C613 1.403 . S
C614 C615 1.404 . S
C614 C617 1.539 . S
C615 C611 1.408 . S
C615 C614 1.404 . S
C615 H627 0.930 . S
C616 C612 1.524 . S
C616 H628 0.956 . S
C616 H629 0.961 1_556 S
C616 H630 0.961 1_556 S
C617 C614 1.539 . S
C617 H631 0.958 . S
C617 H632 0.961 . S
C617 H633 0.960 . S
H618 C602 0.931 . S
H619 C607 0.929 . S
H620 C608 0.960 . S
H621 C608 0.962 . S
H622 C608 0.960 . S
H623 C609 0.961 . S
H624 C609 0.961 . S
H625 C609 0.961 . S
H626 C610 0.931 . S
H627 C615 0.930 . S
H628 C616 0.956 . S
H629 C616 0.961 1_554 S
H630 C616 0.961 1_554 S
H631 C617 0.958 . S
H632 C617 0.961 . S
H633 C617 0.960 . S
C634 C635 1.391 . S
C634 C636 1.394 . S
C634 H650 0.931 1_556 S
C635 C634 1.391 . S
C635 C639 1.376 . S
C636 C634 1.394 . S
C636 C637 1.394 . S
C636 C640 1.507 1_556 S
C637 C636 1.394 . S
C637 C638 1.410 . S
C637 C645 1.503 . S
C638 C637 1.410 . S
C638 C639 1.392 . S
C638 C641 1.511 . S
C639 C635 1.376 . S
C639 C638 1.392 . S
C639 H651 0.929 . S
C640 C636 1.507 1_554 S
C640 H652 0.960 . S
C640 H653 0.962 . S
C640 H654 0.960 . S
C641 C638 1.511 . S
C641 H655 0.961 . S
C641 H656 0.961 . S
C641 H657 0.961 . S
C642 C643 1.370 . S
C642 C644 1.363 . S
C642 H658 0.931 . S
C643 C642 1.370 . S
C643 C647 1.408 1_556 S
C644 C642 1.363 . S
C644 C645 1.370 . S
C644 C648 1.524 . S
C645 C637 1.503 . S
C645 C644 1.370 . S
C645 C646 1.403 1_556 S
C646 C645 1.403 1_554 S
C646 C647 1.404 . S
C646 C649 1.539 . S
C647 C643 1.408 1_554 S
C647 C646 1.404 . S
C647 H659 0.930 . S
C648 C644 1.524 . S
C648 H660 0.956 . S
C648 H661 0.961 . S
C648 H662 0.961 . S
C649 C646 1.539 . S
C649 H663 0.958 . S
C649 H664 0.961 . S
C649 H665 0.960 . S
H650 C634 0.931 1_554 S
H651 C639 0.929 . S
H652 C640 0.960 . S
H653 C640 0.962 . S
H654 C640 0.960 . S
H655 C641 0.961 . S
H656 C641 0.961 . S
H657 C641 0.961 . S
H658 C642 0.931 . S
H659 C647 0.930 . S
H660 C648 0.956 . S
H661 C648 0.961 . S
H662 C648 0.961 . S
H663 C649 0.958 . S
H664 C649 0.961 . S
H665 C649 0.960 . S
C666 C667 1.391 . S
C666 C668 1.394 . S
C666 H682 0.931 . S
C667 C666 1.391 . S
C667 C671 1.376 . S
C668 C666 1.394 . S
C668 C669 1.369 . S
C668 C672 1.531 . S
C669 C668 1.369 . S
C669 C670 1.410 . S
C669 C677 1.503 . S
C670 C669 1.410 . S
C670 C671 1.392 . S
C670 C673 1.511 . S
C671 C667 1.376 . S
C671 C670 1.392 . S
C671 H683 0.929 . S
C672 C668 1.531 . S
C672 H684 0.955 1_554 S
C672 H685 0.962 . S
C672 H686 0.960 1_554 S
C673 C670 1.511 . S
C673 H687 0.961 . S
C673 H688 0.961 . S
C673 H689 0.961 . S
C674 C675 1.370 . S
C674 C676 1.363 . S
C674 H690 0.931 . S
C675 C674 1.370 . S
C675 C679 1.408 . S
C676 C674 1.363 . S
C676 C677 1.370 . S
C676 C680 1.524 . S
C677 C669 1.503 . S
C677 C676 1.370 . S
C677 C678 1.403 . S
C678 C677 1.403 . S
C678 C679 1.404 . S
C678 C681 1.539 . S
C679 C675 1.408 . S
C679 C678 1.404 . S
C679 H691 0.930 . S
C680 C676 1.524 . S
C680 H692 0.956 . S
C680 H693 0.961 . S
C680 H694 0.961 . S
C681 C678 1.539 . S
C681 H695 0.958 1_554 S
C681 H696 0.961 . S
C681 H697 0.960 . S
H682 C666 0.931 . S
H683 C671 0.929 . S
H684 C672 0.955 1_556 S
H685 C672 0.962 . S
H686 C672 0.960 1_556 S
H687 C673 0.961 . S
H688 C673 0.961 . S
H689 C673 0.961 . S
H690 C674 0.931 . S
H691 C679 0.930 . S
H692 C680 0.956 . S
H693 C680 0.961 . S
H694 C680 0.961 . S
H695 C681 0.958 1_556 S
H696 C681 0.961 . S
H697 C681 0.960 . S
C698 C699 1.391 . S
C698 C700 1.394 . S
C698 H714 0.931 . S
C699 C698 1.391 . S
C699 C703 1.376 . S
C700 C698 1.394 . S
C700 C701 1.369 . S
C700 C704 1.531 . S
C701 C700 1.369 . S
C701 C702 1.410 . S
C701 C709 1.503 . S
C702 C701 1.410 . S
C702 C703 1.392 . S
C702 C705 1.511 . S
C703 C699 1.376 . S
C703 C702 1.392 . S
C703 H715 0.929 . S
C704 C700 1.531 . S
C704 H716 0.960 . S
C704 H717 0.962 . S
C704 H718 0.960 . S
C705 C702 1.511 . S
C705 H719 0.961 . S
C705 H720 0.961 . S
C705 H721 0.961 . S
C706 C707 1.370 . S
C706 C708 1.363 . S
C706 H722 0.931 . S
C707 C706 1.370 . S
C707 C711 1.408 . S
C708 C706 1.363 . S
C708 C709 1.370 . S
C708 C712 1.524 . S
C709 C701 1.503 . S
C709 C708 1.370 . S
C709 C710 1.403 . S
C710 C709 1.403 . S
C710 C711 1.404 . S
C710 C713 1.539 1_554 S
C711 C707 1.408 . S
C711 C710 1.404 . S
C711 H723 0.930 1_554 S
C712 C708 1.524 . S
C712 H724 0.956 . S
C712 H725 0.961 . S
C712 H726 0.961 . S
C713 C710 1.539 1_556 S
C713 H727 0.958 . S
C713 H728 0.961 . S
C713 H729 0.960 . S
H714 C698 0.931 . S
H715 C703 0.929 . S
H716 C704 0.960 . S
H717 C704 0.962 . S
H718 C704 0.960 . S
H719 C705 0.961 . S
H720 C705 0.961 . S
H721 C705 0.961 . S
H722 C706 0.931 . S
H723 C711 0.930 1_556 S
H724 C712 0.956 . S
H725 C712 0.961 . S
H726 C712 0.961 . S
H727 C713 0.958 . S
H728 C713 0.961 . S
H729 C713 0.960 . S
C730 C731 1.391 . S
C730 C732 1.394 . S
C730 H746 0.931 . S
C731 C730 1.391 . S
C731 C735 1.376 . S
C732 C730 1.394 . S
C732 C733 1.369 . S
C732 C736 1.531 . S
C733 C732 1.369 . S
C733 C734 1.410 . S
C733 C741 1.503 . S
C734 C733 1.410 . S
C734 C735 1.392 . S
C734 C737 1.511 1_554 S
C735 C731 1.376 . S
C735 C734 1.392 . S
C735 H747 0.929 . S
C736 C732 1.531 . S
C736 H748 0.960 . S
C736 H749 0.962 . S
C736 H750 0.960 . S
C737 C734 1.511 1_556 S
C737 H751 0.961 . S
C737 H752 0.961 . S
C737 H753 0.961 1_556 S
C738 C739 1.370 . S
C738 C740 1.363 . S
C738 H754 0.945 . S
C739 C738 1.370 . S
C739 C743 1.408 . S
C740 C738 1.363 . S
C740 C741 1.370 . S
C740 C744 1.524 . S
C741 C733 1.503 . S
C741 C740 1.370 . S
C741 C742 1.403 . S
C742 C741 1.403 . S
C742 C743 1.404 . S
C742 C745 1.539 . S
C743 C739 1.408 . S
C743 C742 1.404 . S
C743 H755 0.930 . S
C744 C740 1.524 . S
C744 H756 0.956 . S
C744 H757 0.961 1_554 S
C744 H758 0.961 1_554 S
C745 C742 1.539 . S
C745 H759 0.958 . S
C745 H760 0.961 . S
C745 H761 0.960 . S
H746 C730 0.931 . S
H747 C735 0.929 . S
H748 C736 0.960 . S
H749 C736 0.962 . S
H750 C736 0.960 . S
H751 C737 0.961 . S
H752 C737 0.961 . S
H753 C737 0.961 1_554 S
H754 C738 0.945 . S
H755 C743 0.930 . S
H756 C744 0.956 . S
H757 C744 0.961 1_556 S
H758 C744 0.961 1_556 S
H759 C745 0.958 . S
H760 C745 0.961 . S
H761 C745 0.960 . S
C762 C763 1.391 . S
C762 C764 1.394 . S
C762 H778 0.931 . S
C763 C762 1.391 . S
C763 C767 1.376 . S
C764 C762 1.394 . S
C764 C765 1.369 1_655 S
C764 C768 1.531 1_655 S
C765 C764 1.369 1_455 S
C765 C766 1.410 1_455 S
C765 C773 1.503 . S
C766 C765 1.410 1_655 S
C766 C767 1.392 . S
C766 C769 1.511 1_655 S
C767 C763 1.376 . S
C767 C766 1.392 . S
C767 H779 0.929 . S
C768 C764 1.531 1_455 S
C768 H780 0.960 . S
C768 H781 0.962 . S
C768 H782 0.966 . S
C769 C766 1.511 1_455 S
C769 H783 0.961 1_455 S
C769 H784 0.961 . S
C769 H785 0.961 1_455 S
C770 C771 1.370 . S
C770 C772 1.363 . S
C770 H786 0.931 . S
C771 C770 1.370 . S
C771 C775 1.408 . S
C772 C770 1.363 . S
C772 C773 1.370 . S
C772 C776 1.524 . S
C773 C765 1.503 . S
C773 C772 1.370 . S
C773 C774 1.403 . S
C774 C773 1.403 . S
C774 C775 1.404 . S
C774 C777 1.539 . S
C775 C771 1.408 . S
C775 C774 1.404 . S
C775 H787 0.930 . S
C776 C772 1.524 . S
C776 H788 0.956 . S
C776 H789 0.961 . S
C776 H790 0.961 . S
C777 C774 1.539 . S
C777 H791 0.958 . S
C777 H792 0.961 . S
C777 H793 0.960 . S
H778 C762 0.931 . S
H779 C767 0.929 . S
H780 C768 0.960 . S
H781 C768 0.962 . S
H782 C768 0.966 . S
H783 C769 0.961 1_655 S
H784 C769 0.961 . S
H785 C769 0.961 1_655 S
H786 C770 0.931 . S
H787 C775 0.930 . S
H788 C776 0.956 . S
H789 C776 0.961 . S
H790 C776 0.961 . S
H791 C777 0.958 . S
H792 C777 0.961 . S
H793 C777 0.960 . S
C794 C795 1.391 . S
C794 C796 1.394 . S
C794 H810 0.931 . S
C795 C794 1.391 . S
C795 C799 1.376 . S
C796 C794 1.394 . S
C796 C797 1.369 . S
C796 C800 1.531 . S
C797 C796 1.369 . S
C797 C798 1.410 . S
C797 C805 1.503 . S
C798 C797 1.410 . S
C798 C799 1.392 . S
C798 C801 1.511 . S
C799 C795 1.376 . S
C799 C798 1.392 . S
C799 H811 0.929 . S
C800 C796 1.531 . S
C800 H812 0.960 . S
C800 H813 0.962 . S
C800 H814 0.960 . S
C801 C798 1.511 . S
C801 H815 0.961 . S
C801 H816 0.961 . S
C801 H817 0.961 . S
C802 C803 1.370 . S
C802 C804 1.363 . S
C802 H818 0.931 . S
C803 C802 1.370 . S
C803 C807 1.408 . S
C804 C802 1.363 . S
C804 C805 1.370 . S
C804 C808 1.524 . S
C805 C797 1.503 . S
C805 C804 1.370 . S
C805 C806 1.403 . S
C806 C805 1.403 . S
C806 C807 1.404 . S
C806 C809 1.539 . S
C807 C803 1.408 . S
C807 C806 1.404 . S
C807 H819 0.930 . S
C808 C804 1.524 . S
C808 H820 0.956 . S
C808 H821 0.961 . S
C808 H822 0.961 . S
C809 C806 1.539 . S
C809 H823 0.958 . S
C809 H824 0.961 . S
C809 H825 0.960 . S
H810 C794 0.931 . S
H811 C799 0.929 . S
H812 C800 0.960 . S
H813 C800 0.962 . S
H814 C800 0.960 . S
H815 C801 0.961 . S
H816 C801 0.961 . S
H817 C801 0.961 . S
H818 C802 0.931 . S
H819 C807 0.930 . S
H820 C808 0.956 . S
H821 C808 0.961 . S
H822 C808 0.961 . S
H823 C809 0.958 . S
H824 C809 0.961 . S
H825 C809 0.960 . S
C826 C827 1.391 . S
C826 C828 1.394 . S
C826 H842 0.931 . S
C827 C826 1.391 . S
C827 C831 1.376 . S
C828 C826 1.394 . S
C828 C829 1.369 1_545 S
C828 C832 1.531 . S
C829 C828 1.369 1_565 S
C829 C830 1.410 1_565 S
C829 C837 1.503 . S
C830 C829 1.410 1_545 S
C830 C831 1.392 . S
C830 C833 1.511 1_545 S
C831 C827 1.376 . S
C831 C830 1.392 . S
C831 H843 0.929 . S
C832 C828 1.531 . S
C832 H844 0.960 1_545 S
C832 H845 0.962 . S
C832 H846 0.960 . S
C833 C830 1.511 1_565 S
C833 H847 0.961 . S
C833 H848 0.961 . S
C833 H849 0.961 . S
C834 C835 1.370 . S
C834 C836 1.363 . S
C834 H850 0.931 . S
C835 C834 1.370 . S
C835 C839 1.408 . S
C836 C834 1.363 . S
C836 C837 1.370 . S
C836 C840 1.524 . S
C837 C829 1.503 . S
C837 C836 1.370 . S
C837 C838 1.403 . S
C838 C837 1.403 . S
C838 C839 1.404 . S
C838 C841 1.539 . S
C839 C835 1.408 . S
C839 C838 1.404 . S
C839 H851 0.930 . S
C840 C836 1.524 . S
C840 H852 0.956 . S
C840 H853 0.961 . S
C840 H854 0.961 . S
C841 C838 1.539 . S
C841 H855 0.958 . S
C841 H856 0.961 . S
C841 H857 0.960 . S
H842 C826 0.931 . S
H843 C831 0.929 . S
H844 C832 0.960 1_565 S
H845 C832 0.962 . S
H846 C832 0.960 . S
H847 C833 0.961 . S
H848 C833 0.961 . S
H849 C833 0.961 . S
H850 C834 0.931 . S
H851 C839 0.930 . S
H852 C840 0.956 . S
H853 C840 0.961 . S
H854 C840 0.961 . S
H855 C841 0.958 . S
H856 C841 0.961 . S
H857 C841 0.960 . S
C858 C859 1.391 . S
C858 C860 1.394 . S
C858 H874 0.931 . S
C859 C858 1.391 . S
C859 C863 1.376 . S
C860 C858 1.394 . S
C860 C861 1.369 . S
C860 C864 1.531 . S
C861 C860 1.369 . S
C861 C862 1.410 . S
C861 C869 1.503 . S
C862 C861 1.410 . S
C862 C863 1.392 . S
C862 C865 1.511 . S
C863 C859 1.376 . S
C863 C862 1.392 . S
C863 H875 0.929 . S
C864 C860 1.531 . S
C864 H876 0.960 . S
C864 H877 0.962 . S
C864 H878 0.960 . S
C865 C862 1.511 . S
C865 H879 0.961 . S
C865 H880 0.961 . S
C865 H881 0.961 . S
C866 C867 1.370 . S
C866 C868 1.363 . S
C866 H882 0.931 . S
C867 C866 1.370 . S
C867 C871 1.408 . S
C868 C866 1.363 . S
C868 C869 1.370 . S
C868 C872 1.524 . S
C869 C861 1.503 . S
C869 C868 1.370 . S
C869 C870 1.403 . S
C870 C869 1.403 . S
C870 C871 1.404 . S
C870 C873 1.539 . S
C871 C867 1.408 . S
C871 C870 1.404 . S
C871 H883 0.930 . S
C872 C868 1.524 . S
C872 H884 0.956 . S
C872 H885 0.961 . S
C872 H886 0.961 . S
C873 C870 1.539 . S
C873 H887 0.958 . S
C873 H888 0.961 . S
C873 H889 0.960 . S
H874 C858 0.931 . S
H875 C863 0.929 . S
H876 C864 0.960 . S
H877 C864 0.962 . S
H878 C864 0.960 . S
H879 C865 0.961 . S
H880 C865 0.961 . S
H881 C865 0.961 . S
H882 C866 0.931 . S
H883 C871 0.930 . S
H884 C872 0.956 . S
H885 C872 0.961 . S
H886 C872 0.961 . S
H887 C873 0.958 . S
H888 C873 0.961 . S
H889 C873 0.960 . S
C890 C891 1.391 . S
C890 C892 1.394 . S
C890 H906 0.931 . S
C891 C890 1.391 . S
C891 C895 1.376 . S
C892 C890 1.394 . S
C892 C893 1.369 . S
C892 C896 1.531 . S
C893 C892 1.369 . S
C893 C894 1.410 . S
C893 C901 1.503 . S
C894 C893 1.410 . S
C894 C895 1.392 . S
C894 C897 1.511 . S
C895 C891 1.376 . S
C895 C894 1.392 . S
C895 H907 0.929 . S
C896 C892 1.531 . S
C896 H908 0.960 . S
C896 H909 0.962 . S
C896 H910 0.960 . S
C897 C894 1.511 . S
C897 H911 0.961 . S
C897 H912 0.961 . S
C897 H913 0.961 . S
C898 C899 1.370 . S
C898 C900 1.363 . S
C898 H914 0.931 . S
C899 C898 1.370 . S
C899 C903 1.408 . S
C900 C898 1.363 . S
C900 C901 1.370 . S
C900 C904 1.524 . S
C901 C893 1.503 . S
C901 C900 1.370 . S
C901 C902 1.403 . S
C902 C901 1.403 . S
C902 C903 1.404 . S
C902 C905 1.539 . S
C903 C899 1.408 . S
C903 C902 1.404 . S
C903 H915 0.930 . S
C904 C900 1.524 . S
C904 H916 0.956 . S
C904 H917 0.961 . S
C904 H918 0.961 . S
C905 C902 1.539 . S
C905 H919 0.958 . S
C905 H920 0.961 . S
C905 H921 0.960 . S
H906 C890 0.931 . S
H907 C895 0.929 . S
H908 C896 0.960 . S
H909 C896 0.962 . S
H910 C896 0.960 . S
H911 C897 0.961 . S
H912 C897 0.961 . S
H913 C897 0.961 . S
H914 C898 0.931 . S
H915 C903 0.930 . S
H916 C904 0.956 . S
H917 C904 0.961 . S
H918 C904 0.961 . S
H919 C905 0.958 . S
H920 C905 0.961 . S
H921 C905 0.960 . S
C922 C923 1.391 . S
C922 C924 1.394 . S
C922 H938 0.931 . S
C923 C922 1.391 . S
C923 C927 1.376 . S
C924 C922 1.394 . S
C924 C925 1.369 . S
C924 C928 1.531 . S
C925 C924 1.369 . S
C925 C926 1.410 . S
C925 C933 1.503 . S
C926 C925 1.410 . S
C926 C927 1.392 . S
C926 C929 1.511 . S
C927 C923 1.376 . S
C927 C926 1.392 . S
C927 H939 0.929 . S
C928 C924 1.531 . S
C928 H940 0.960 . S
C928 H941 0.962 . S
C928 H942 0.960 . S
C929 C926 1.511 . S
C929 H943 0.961 . S
C929 H944 0.961 . S
C929 H945 0.961 . S
C930 C931 1.370 . S
C930 C932 1.363 . S
C930 H946 0.931 . S
C931 C930 1.370 . S
C931 C935 1.408 . S
C932 C930 1.363 . S
C932 C933 1.370 . S
C932 C936 1.524 . S
C933 C925 1.503 . S
C933 C932 1.370 . S
C933 C934 1.403 . S
C934 C933 1.403 . S
C934 C935 1.404 . S
C934 C937 1.539 . S
C935 C931 1.408 . S
C935 C934 1.404 . S
C935 H947 0.930 . S
C936 C932 1.524 . S
C936 H948 0.956 . S
C936 H949 0.961 . S
C936 H950 0.961 . S
C937 C934 1.539 . S
C937 H951 0.958 . S
C937 H952 0.961 . S
C937 H953 0.960 . S
H938 C922 0.931 . S
H939 C927 0.929 . S
H940 C928 0.960 . S
H941 C928 0.962 . S
H942 C928 0.960 . S
H943 C929 0.961 . S
H944 C929 0.961 . S
H945 C929 0.961 . S
H946 C930 0.931 . S
H947 C935 0.930 . S
H948 C936 0.956 . S
H949 C936 0.961 . S
H950 C936 0.961 . S
H951 C937 0.958 . S
H952 C937 0.961 . S
H953 C937 0.960 . S
C954 C955 1.391 . S
C954 C956 1.394 . S
C954 H970 0.931 . S
C955 C954 1.391 . S
C955 C959 1.376 . S
C956 C954 1.394 . S
C956 C957 1.369 . S
C956 C960 1.531 . S
C957 C956 1.369 . S
C957 C958 1.410 . S
C957 C965 1.503 . S
C958 C957 1.410 . S
C958 C959 1.392 . S
C958 C961 1.511 . S
C959 C955 1.376 . S
C959 C958 1.392 . S
C959 H971 0.929 . S
C960 C956 1.531 . S
C960 H972 0.960 . S
C960 H973 0.962 . S
C960 H974 0.960 . S
C961 C958 1.511 . S
C961 H975 0.961 . S
C961 H976 0.961 . S
C961 H977 0.961 . S
C962 C963 1.370 . S
C962 C964 1.363 . S
C962 H978 0.931 . S
C963 C962 1.370 . S
C963 C967 1.408 . S
C964 C962 1.363 . S
C964 C965 1.370 . S
C964 C968 1.524 . S
C965 C957 1.503 . S
C965 C964 1.370 . S
C965 C966 1.403 . S
C966 C965 1.403 . S
C966 C967 1.404 . S
C966 C969 1.539 . S
C967 C963 1.408 . S
C967 C966 1.404 . S
C967 H979 0.930 . S
C968 C964 1.524 . S
C968 H980 0.956 . S
C968 H981 0.961 . S
C968 H982 0.961 . S
C969 C966 1.539 . S
C969 H983 0.958 . S
C969 H984 0.961 . S
C969 H985 0.960 . S
H970 C954 0.931 . S
H971 C959 0.929 . S
H972 C960 0.960 . S
H973 C960 0.962 . S
H974 C960 0.960 . S
H975 C961 0.961 . S
H976 C961 0.961 . S
H977 C961 0.961 . S
H978 C962 0.931 . S
H979 C967 0.930 . S
H980 C968 0.956 . S
H981 C968 0.961 . S
H982 C968 0.961 . S
H983 C969 0.958 . S
H984 C969 0.961 . S
H985 C969 0.960 . S
C986 C987 1.391 . S
C986 C988 1.394 . S
C986 H1002 0.931 . S
C987 C986 1.391 . S
C987 C991 1.376 . S
C988 C986 1.394 . S
C988 C989 1.369 . S
C988 C992 1.531 . S
C989 C988 1.369 . S
C989 C990 1.410 . S
C989 C997 1.503 . S
C990 C989 1.410 . S
C990 C991 1.392 . S
C990 C993 1.511 . S
C991 C987 1.376 . S
C991 C990 1.392 . S
C991 H1003 0.929 . S
C992 C988 1.531 . S
C992 H1004 0.960 . S
C992 H1005 0.962 . S
C992 H1006 0.960 . S
C993 C990 1.511 . S
C993 H1007 0.961 . S
C993 H1008 0.961 . S
C993 H1009 0.961 . S
C994 C995 1.370 . S
C994 C996 1.363 . S
C994 H1010 0.931 . S
C995 C994 1.370 . S
C995 C999 1.408 . S
C996 C994 1.363 . S
C996 C997 1.370 . S
C996 C1000 1.524 . S
C997 C989 1.503 . S
C997 C996 1.370 . S
C997 C998 1.403 . S
C998 C997 1.403 . S
C998 C999 1.404 . S
C998 C1001 1.539 . S
C999 C995 1.408 . S
C999 C998 1.404 . S
C999 H1011 0.930 . S
C1000 C996 1.524 . S
C1000 H1012 0.956 . S
C1000 H1013 0.961 . S
C1000 H1014 0.961 . S
C1001 C998 1.539 . S
C1001 H1015 0.958 . S
C1001 H1016 0.961 . S
C1001 H1017 0.960 . S
H1002 C986 0.931 . S
H1003 C991 0.929 . S
H1004 C992 0.960 . S
H1005 C992 0.962 . S
H1006 C992 0.960 . S
H1007 C993 0.961 . S
H1008 C993 0.961 . S
H1009 C993 0.961 . S
H1010 C994 0.931 . S
H1011 C999 0.930 . S
H1012 C1000 0.956 . S
H1013 C1000 0.961 . S
H1014 C1000 0.961 . S
H1015 C1001 0.958 . S
H1016 C1001 0.961 . S
H1017 C1001 0.960 . S
C1018 C1019 1.391 . S
C1018 C1020 1.394 . S
C1018 H1034 0.931 . S
C1019 C1018 1.391 . S
C1019 C1023 1.376 . S
C1020 C1018 1.394 . S
C1020 C1021 1.369 . S
C1020 C1024 1.531 . S
C1021 C1020 1.369 . S
C1021 C1022 1.410 . S
C1021 C1029 1.503 . S
C1022 C1021 1.410 . S
C1022 C1023 1.392 . S
C1022 C1025 1.511 . S
C1023 C1019 1.376 . S
C1023 C1022 1.392 . S
C1023 H1035 0.929 . S
C1024 C1020 1.531 . S
C1024 H1036 0.960 . S
C1024 H1037 0.962 . S
C1024 H1038 0.960 . S
C1025 C1022 1.511 . S
C1025 H1039 0.961 . S
C1025 H1040 0.961 . S
C1025 H1041 0.961 . S
C1026 C1027 1.370 . S
C1026 C1028 1.363 . S
C1026 H1042 0.931 . S
C1027 C1026 1.370 . S
C1027 C1031 1.408 . S
C1028 C1026 1.363 . S
C1028 C1029 1.370 . S
C1028 C1032 1.524 . S
C1029 C1021 1.503 . S
C1029 C1028 1.370 . S
C1029 C1030 1.403 . S
C1030 C1029 1.403 . S
C1030 C1031 1.404 . S
C1030 C1033 1.539 . S
C1031 C1027 1.408 . S
C1031 C1030 1.404 . S
C1031 H1043 0.930 . S
C1032 C1028 1.524 . S
C1032 H1044 0.956 . S
C1032 H1045 0.961 . S
C1032 H1046 0.961 . S
C1033 C1030 1.539 . S
C1033 H1047 0.958 . S
C1033 H1048 0.961 . S
C1033 H1049 0.960 . S
H1034 C1018 0.931 . S
H1035 C1023 0.929 . S
H1036 C1024 0.960 . S
H1037 C1024 0.962 . S
H1038 C1024 0.960 . S
H1039 C1025 0.961 . S
H1040 C1025 0.961 . S
H1041 C1025 0.961 . S
H1042 C1026 0.931 . S
H1043 C1031 0.930 . S
H1044 C1032 0.956 . S
H1045 C1032 0.961 . S
H1046 C1032 0.961 . S
H1047 C1033 0.958 . S
H1048 C1033 0.961 . S
H1049 C1033 0.960 . S
C1050 C1051 1.391 . S
C1050 C1052 1.394 1_545 S
C1050 H1066 0.931 . S
C1051 C1050 1.391 . S
C1051 C1055 1.376 . S
C1052 C1050 1.394 1_565 S
C1052 C1053 1.369 . S
C1052 C1056 1.531 . S
C1053 C1052 1.369 . S
C1053 C1054 1.410 1_565 S
C1053 C1061 1.503 . S
C1054 C1053 1.410 1_545 S
C1054 C1055 1.392 . S
C1054 C1057 1.511 1_545 S
C1055 C1051 1.376 . S
C1055 C1054 1.392 . S
C1055 H1067 0.929 . S
C1056 C1052 1.531 . S
C1056 H1068 0.960 . S
C1056 H1069 0.962 . S
C1056 H1070 0.960 . S
C1057 C1054 1.511 1_565 S
C1057 H1071 0.961 1_565 S
C1057 H1072 0.961 . S
C1057 H1073 0.966 . S
C1058 C1059 1.370 . S
C1058 C1060 1.363 . S
C1058 H1074 0.931 . S
C1059 C1058 1.370 . S
C1059 C1063 1.408 . S
C1060 C1058 1.363 . S
C1060 C1061 1.370 . S
C1060 C1064 1.524 . S
C1061 C1053 1.503 . S
C1061 C1060 1.370 . S
C1061 C1062 1.403 . S
C1062 C1061 1.403 . S
C1062 C1063 1.404 . S
C1062 C1065 1.539 . S
C1063 C1059 1.408 . S
C1063 C1062 1.404 . S
C1063 H1075 0.930 . S
C1064 C1060 1.524 . S
C1064 H1076 0.956 . S
C1064 H1077 0.961 . S
C1064 H1078 0.961 . S
C1065 C1062 1.539 . S
C1065 H1079 0.958 . S
C1065 H1080 0.961 . S
C1065 H1081 0.960 . S
H1066 C1050 0.931 . S
H1067 C1055 0.929 . S
H1068 C1056 0.960 . S
H1069 C1056 0.962 . S
H1070 C1056 0.960 . S
H1071 C1057 0.961 1_545 S
H1072 C1057 0.961 . S
H1073 C1057 0.966 . S
H1074 C1058 0.931 . S
H1075 C1063 0.930 . S
H1076 C1064 0.956 . S
H1077 C1064 0.961 . S
H1078 C1064 0.961 . S
H1079 C1065 0.958 . S
H1080 C1065 0.961 . S
H1081 C1065 0.960 . S
C1082 C1083 1.391 . S
C1082 C1084 1.394 1_655 S
C1082 H1098 0.931 . S
C1083 C1082 1.391 . S
C1083 C1087 1.376 . S
C1084 C1082 1.394 1_455 S
C1084 C1085 1.369 . S
C1084 C1088 1.531 . S
C1085 C1084 1.369 . S
C1085 C1086 1.410 1_455 S
C1085 C1093 1.503 . S
C1086 C1085 1.410 1_655 S
C1086 C1087 1.392 . S
C1086 C1089 1.511 . S
C1087 C1083 1.376 . S
C1087 C1086 1.392 . S
C1087 H1099 0.929 . S
C1088 C1084 1.531 . S
C1088 H1100 0.960 . S
C1088 H1101 0.962 . S
C1088 H1102 0.960 . S
C1089 C1086 1.511 . S
C1089 H1103 0.961 . S
C1089 H1104 0.961 1_655 S
C1089 H1105 0.961 . S
C1090 C1091 1.370 . S
C1090 C1092 1.363 . S
C1090 H1106 0.931 . S
C1091 C1090 1.370 . S
C1091 C1095 1.408 . S
C1092 C1090 1.363 . S
C1092 C1093 1.370 . S
C1092 C1096 1.524 . S
C1093 C1085 1.503 . S
C1093 C1092 1.370 . S
C1093 C1094 1.403 . S
C1094 C1093 1.403 . S
C1094 C1095 1.404 . S
C1094 C1097 1.539 . S
C1095 C1091 1.408 . S
C1095 C1094 1.404 . S
C1095 H1107 0.930 . S
C1096 C1092 1.524 . S
C1096 H1108 0.956 . S
C1096 H1109 0.961 . S
C1096 H1110 0.961 . S
C1097 C1094 1.539 . S
C1097 H1111 0.958 . S
C1097 H1112 0.961 . S
C1097 H1113 0.960 . S
H1098 C1082 0.931 . S
H1099 C1087 0.929 . S
H1100 C1088 0.960 . S
H1101 C1088 0.962 . S
H1102 C1088 0.960 . S
H1103 C1089 0.961 . S
H1104 C1089 0.961 1_455 S
H1105 C1089 0.961 . S
H1106 C1090 0.931 . S
H1107 C1095 0.930 . S
H1108 C1096 0.956 . S
H1109 C1096 0.961 . S
H1110 C1096 0.961 . S
H1111 C1097 0.958 . S
H1112 C1097 0.961 . S
H1113 C1097 0.960 . S
C1114 C1115 1.391 . S
C1114 C1116 1.394 . S
C1114 H1130 0.931 . S
C1115 C1114 1.391 . S
C1115 C1119 1.376 . S
C1116 C1114 1.394 . S
C1116 C1117 1.369 . S
C1116 C1120 1.531 . S
C1117 C1116 1.369 . S
C1117 C1118 1.410 . S
C1117 C1125 1.503 . S
C1118 C1117 1.410 . S
C1118 C1119 1.392 . S
C1118 C1121 1.511 . S
C1119 C1115 1.376 . S
C1119 C1118 1.392 . S
C1119 H1131 0.929 . S
C1120 C1116 1.531 . S
C1120 H1132 0.960 . S
C1120 H1133 0.962 . S
C1120 H1134 0.960 . S
C1121 C1118 1.511 . S
C1121 H1135 0.961 . S
C1121 H1136 0.961 . S
C1121 H1137 0.961 . S
C1122 C1123 1.370 . S
C1122 C1124 1.363 . S
C1122 H1138 0.931 . S
C1123 C1122 1.370 . S
C1123 C1127 1.408 . S
C1124 C1122 1.363 . S
C1124 C1125 1.370 . S
C1124 C1128 1.524 . S
C1125 C1117 1.503 . S
C1125 C1124 1.370 . S
C1125 C1126 1.403 . S
C1126 C1125 1.403 . S
C1126 C1127 1.404 . S
C1126 C1129 1.539 . S
C1127 C1123 1.408 . S
C1127 C1126 1.404 . S
C1127 H1139 0.930 . S
C1128 C1124 1.524 . S
C1128 H1140 0.956 . S
C1128 H1141 0.961 . S
C1128 H1142 0.961 . S
C1129 C1126 1.539 . S
C1129 H1143 0.958 . S
C1129 H1144 0.961 . S
C1129 H1145 0.960 . S
H1130 C1114 0.931 . S
H1131 C1119 0.929 . S
H1132 C1120 0.960 . S
H1133 C1120 0.962 . S
H1134 C1120 0.960 . S
H1135 C1121 0.961 . S
H1136 C1121 0.961 . S
H1137 C1121 0.961 . S
H1138 C1122 0.931 . S
H1139 C1127 0.930 . S
H1140 C1128 0.956 . S
H1141 C1128 0.961 . S
H1142 C1128 0.961 . S
H1143 C1129 0.958 . S
H1144 C1129 0.961 . S
H1145 C1129 0.960 . S
C1146 C1147 1.391 . S
C1146 C1148 1.394 . S
C1146 H1162 0.931 . S
C1147 C1146 1.391 . S
C1147 C1151 1.376 . S
C1148 C1146 1.394 . S
C1148 C1149 1.369 . S
C1148 C1152 1.531 . S
C1149 C1148 1.369 . S
C1149 C1150 1.410 . S
C1149 C1157 1.503 . S
C1150 C1149 1.410 . S
C1150 C1151 1.392 . S
C1150 C1153 1.511 . S
C1151 C1147 1.376 . S
C1151 C1150 1.392 . S
C1151 H1163 0.929 . S
C1152 C1148 1.531 . S
C1152 H1164 0.960 . S
C1152 H1165 0.962 . S
C1152 H1166 0.960 . S
C1153 C1150 1.511 . S
C1153 H1167 0.961 . S
C1153 H1168 0.961 . S
C1153 H1169 0.961 . S
C1154 C1155 1.370 . S
C1154 C1156 1.363 . S
C1154 H1170 0.931 . S
C1155 C1154 1.370 . S
C1155 C1159 1.408 . S
C1156 C1154 1.363 . S
C1156 C1157 1.370 . S
C1156 C1160 1.524 . S
C1157 C1149 1.503 . S
C1157 C1156 1.370 . S
C1157 C1158 1.403 . S
C1158 C1157 1.403 . S
C1158 C1159 1.404 . S
C1158 C1161 1.539 . S
C1159 C1155 1.408 . S
C1159 C1158 1.404 . S
C1159 H1171 0.930 . S
C1160 C1156 1.524 . S
C1160 H1172 0.956 . S
C1160 H1173 0.961 . S
C1160 H1174 0.961 . S
C1161 C1158 1.539 . S
C1161 H1175 0.958 . S
C1161 H1176 0.961 . S
C1161 H1177 0.960 . S
H1162 C1146 0.931 . S
H1163 C1151 0.929 . S
H1164 C1152 0.960 . S
H1165 C1152 0.962 . S
H1166 C1152 0.960 . S
H1167 C1153 0.961 . S
H1168 C1153 0.961 . S
H1169 C1153 0.961 . S
H1170 C1154 0.931 . S
H1171 C1159 0.930 . S
H1172 C1160 0.956 . S
H1173 C1160 0.961 . S
H1174 C1160 0.961 . S
H1175 C1161 0.958 . S
H1176 C1161 0.961 . S
H1177 C1161 0.960 . S
C1178 C1179 1.391 . S
C1178 C1180 1.394 . S
C1178 H1194 0.931 . S
C1179 C1178 1.391 . S
C1179 C1183 1.376 . S
C1180 C1178 1.394 . S
C1180 C1181 1.369 . S
C1180 C1184 1.531 . S
C1181 C1180 1.369 . S
C1181 C1182 1.410 . S
C1181 C1189 1.503 . S
C1182 C1181 1.410 . S
C1182 C1183 1.392 . S
C1182 C1185 1.511 . S
C1183 C1179 1.376 . S
C1183 C1182 1.392 . S
C1183 H1195 0.929 . S
C1184 C1180 1.531 . S
C1184 H1196 0.960 . S
C1184 H1197 0.962 . S
C1184 H1198 0.960 . S
C1185 C1182 1.511 . S
C1185 H1199 0.961 . S
C1185 H1200 0.961 . S
C1185 H1201 0.961 . S
C1186 C1187 1.370 . S
C1186 C1188 1.363 . S
C1186 H1202 0.931 . S
C1187 C1186 1.370 . S
C1187 C1191 1.408 . S
C1188 C1186 1.363 . S
C1188 C1189 1.370 . S
C1188 C1192 1.524 . S
C1189 C1181 1.503 . S
C1189 C1188 1.370 . S
C1189 C1190 1.403 . S
C1190 C1189 1.403 . S
C1190 C1191 1.404 . S
C1190 C1193 1.539 . S
C1191 C1187 1.408 . S
C1191 C1190 1.404 . S
C1191 H1203 0.930 . S
C1192 C1188 1.524 . S
C1192 H1204 0.956 . S
C1192 H1205 0.961 . S
C1192 H1206 0.961 . S
C1193 C1190 1.539 . S
C1193 H1207 0.958 . S
C1193 H1208 0.961 . S
C1193 H1209 0.960 . S
H1194 C1178 0.931 . S
H1195 C1183 0.929 . S
H1196 C1184 0.960 . S
H1197 C1184 0.962 . S
H1198 C1184 0.960 . S
H1199 C1185 0.961 . S
H1200 C1185 0.961 . S
H1201 C1185 0.961 . S
H1202 C1186 0.931 . S
H1203 C1191 0.930 . S
H1204 C1192 0.956 . S
H1205 C1192 0.961 . S
H1206 C1192 0.961 . S
H1207 C1193 0.958 . S
H1208 C1193 0.961 . S
H1209 C1193 0.960 . S
C1210 C1211 1.391 . S
C1210 C1212 1.394 . S
C1210 H1226 0.931 . S
C1211 C1210 1.391 . S
C1211 C1215 1.376 . S
C1212 C1210 1.394 . S
C1212 C1213 1.369 . S
C1212 C1216 1.531 . S
C1213 C1212 1.369 . S
C1213 C1214 1.410 . S
C1213 C1221 1.503 . S
C1214 C1213 1.410 . S
C1214 C1215 1.392 . S
C1214 C1217 1.511 . S
C1215 C1211 1.376 . S
C1215 C1214 1.392 . S
C1215 H1227 0.929 . S
C1216 C1212 1.531 . S
C1216 H1228 0.960 . S
C1216 H1229 0.962 . S
C1216 H1230 0.960 . S
C1217 C1214 1.511 . S
C1217 H1231 0.961 . S
C1217 H1232 0.961 . S
C1217 H1233 0.961 . S
C1218 C1219 1.370 . S
C1218 C1220 1.363 . S
C1218 H1234 0.931 . S
C1219 C1218 1.370 . S
C1219 C1223 1.408 . S
C1220 C1218 1.363 . S
C1220 C1221 1.370 . S
C1220 C1224 1.524 . S
C1221 C1213 1.503 . S
C1221 C1220 1.370 . S
C1221 C1222 1.403 . S
C1222 C1221 1.403 . S
C1222 C1223 1.404 . S
C1222 C1225 1.539 . S
C1223 C1219 1.408 . S
C1223 C1222 1.404 . S
C1223 H1235 0.930 . S
C1224 C1220 1.524 . S
C1224 H1236 0.956 . S
C1224 H1237 0.961 . S
C1224 H1238 0.961 . S
C1225 C1222 1.539 . S
C1225 H1239 0.958 . S
C1225 H1240 0.961 . S
C1225 H1241 0.960 . S
H1226 C1210 0.931 . S
H1227 C1215 0.929 . S
H1228 C1216 0.960 . S
H1229 C1216 0.962 . S
H1230 C1216 0.960 . S
H1231 C1217 0.961 . S
H1232 C1217 0.961 . S
H1233 C1217 0.961 . S
H1234 C1218 0.931 . S
H1235 C1223 0.930 . S
H1236 C1224 0.956 . S
H1237 C1224 0.961 . S
H1238 C1224 0.961 . S
H1239 C1225 0.958 . S
H1240 C1225 0.961 . S
H1241 C1225 0.960 . S
C1242 C1243 1.391 . S
C1242 C1244 1.394 1_565 S
C1242 H1258 0.931 . S
C1243 C1242 1.391 . S
C1243 C1247 1.376 . S
C1244 C1242 1.394 1_545 S
C1244 C1245 1.369 . S
C1244 C1248 1.531 . S
C1245 C1244 1.369 . S
C1245 C1246 1.410 1_545 S
C1245 C1253 1.503 . S
C1246 C1245 1.410 1_565 S
C1246 C1247 1.392 . S
C1246 C1249 1.511 . S
C1247 C1243 1.376 . S
C1247 C1246 1.392 . S
C1247 H1259 0.929 . S
C1248 C1244 1.531 . S
C1248 H1260 0.960 . S
C1248 H1261 0.962 . S
C1248 H1262 0.960 . S
C1249 C1246 1.511 . S
C1249 H1263 0.961 . S
C1249 H1264 0.961 1_565 S
C1249 H1265 0.961 1_565 S
C1250 C1251 1.370 . S
C1250 C1252 1.363 . S
C1250 H1266 0.931 . S
C1251 C1250 1.370 . S
C1251 C1255 1.408 . S
C1252 C1250 1.363 . S
C1252 C1253 1.370 . S
C1252 C1256 1.524 . S
C1253 C1245 1.503 . S
C1253 C1252 1.370 . S
C1253 C1254 1.403 . S
C1254 C1253 1.403 . S
C1254 C1255 1.404 . S
C1254 C1257 1.539 . S
C1255 C1251 1.408 . S
C1255 C1254 1.404 . S
C1255 H1267 0.930 . S
C1256 C1252 1.524 . S
C1256 H1268 0.956 . S
C1256 H1269 0.961 . S
C1256 H1270 0.961 . S
C1257 C1254 1.539 . S
C1257 H1271 0.958 . S
C1257 H1272 0.961 . S
C1257 H1273 0.960 . S
H1258 C1242 0.931 . S
H1259 C1247 0.929 . S
H1260 C1248 0.960 . S
H1261 C1248 0.962 . S
H1262 C1248 0.960 . S
H1263 C1249 0.961 . S
H1264 C1249 0.961 1_545 S
H1265 C1249 0.961 1_545 S
H1266 C1250 0.931 . S
H1267 C1255 0.930 . S
H1268 C1256 0.956 . S
H1269 C1256 0.961 . S
H1270 C1256 0.961 . S
H1271 C1257 0.958 . S
H1272 C1257 0.961 . S
H1273 C1257 0.960 . S
C1274 C1275 1.391 . S
C1274 C1276 1.394 . S
C1274 H1290 0.931 . S
C1275 C1274 1.391 . S
C1275 C1279 1.376 . S
C1276 C1274 1.394 . S
C1276 C1277 1.369 . S
C1276 C1280 1.531 . S
C1277 C1276 1.369 . S
C1277 C1278 1.410 . S
C1277 C1285 1.503 1_455 S
C1278 C1277 1.410 . S
C1278 C1279 1.392 . S
C1278 C1281 1.511 1_455 S
C1279 C1275 1.376 . S
C1279 C1278 1.392 . S
C1279 H1291 0.929 . S
C1280 C1276 1.531 . S
C1280 H1292 0.960 . S
C1280 H1293 0.962 . S
C1280 H1294 0.960 . S
C1281 C1278 1.511 1_655 S
C1281 H1295 0.961 . S
C1281 H1296 0.961 . S
C1281 H1297 0.961 . S
C1282 C1283 1.370 . S
C1282 C1284 1.363 . S
C1282 H1298 0.931 . S
C1283 C1282 1.370 . S
C1283 C1287 1.408 . S
C1284 C1282 1.363 . S
C1284 C1285 1.370 . S
C1284 C1288 1.524 . S
C1285 C1277 1.503 1_655 S
C1285 C1284 1.370 . S
C1285 C1286 1.403 . S
C1286 C1285 1.403 . S
C1286 C1287 1.404 . S
C1286 C1289 1.539 . S
C1287 C1283 1.408 . S
C1287 C1286 1.404 . S
C1287 H1299 0.930 . S
C1288 C1284 1.524 . S
C1288 H1300 0.956 . S
C1288 H1301 0.961 . S
C1288 H1302 0.961 . S
C1289 C1286 1.539 . S
C1289 H1303 0.958 . S
C1289 H1304 0.961 . S
C1289 H1305 0.960 . S
H1290 C1274 0.931 . S
H1291 C1279 0.929 . S
H1292 C1280 0.960 . S
H1293 C1280 0.962 . S
H1294 C1280 0.960 . S
H1295 C1281 0.961 . S
H1296 C1281 0.961 . S
H1297 C1281 0.961 . S
H1298 C1282 0.931 . S
H1299 C1287 0.930 . S
H1300 C1288 0.956 . S
H1301 C1288 0.961 . S
H1302 C1288 0.961 . S
H1303 C1289 0.958 . S
H1304 C1289 0.961 . S
H1305 C1289 0.960 . S
C1306 C1307 1.391 . S
C1306 C1308 1.394 . S
C1306 H1322 0.931 . S
C1307 C1306 1.391 . S
C1307 C1311 1.376 . S
C1308 C1306 1.394 . S
C1308 C1309 1.369 . S
C1308 C1312 1.531 . S
C1309 C1308 1.369 . S
C1309 C1310 1.410 . S
C1309 C1317 1.503 . S
C1310 C1309 1.410 . S
C1310 C1311 1.392 . S
C1310 C1313 1.511 . S
C1311 C1307 1.376 . S
C1311 C1310 1.392 . S
C1311 H1323 0.929 . S
C1312 C1308 1.531 . S
C1312 H1324 0.960 . S
C1312 H1325 0.962 . S
C1312 H1326 0.960 . S
C1313 C1310 1.511 . S
C1313 H1327 0.961 . S
C1313 H1328 0.961 . S
C1313 H1329 0.961 . S
C1314 C1315 1.370 . S
C1314 C1316 1.363 . S
C1314 H1330 0.931 . S
C1315 C1314 1.370 . S
C1315 C1319 1.408 . S
C1316 C1314 1.363 . S
C1316 C1317 1.370 . S
C1316 C1320 1.524 . S
C1317 C1309 1.503 . S
C1317 C1316 1.370 . S
C1317 C1318 1.403 . S
C1318 C1317 1.403 . S
C1318 C1319 1.404 . S
C1318 C1321 1.539 . S
C1319 C1315 1.408 . S
C1319 C1318 1.404 . S
C1319 H1331 0.930 . S
C1320 C1316 1.524 . S
C1320 H1332 0.956 . S
C1320 H1333 0.961 . S
C1320 H1334 0.961 . S
C1321 C1318 1.539 . S
C1321 H1335 0.958 . S
C1321 H1336 0.961 . S
C1321 H1337 0.960 . S
H1322 C1306 0.931 . S
H1323 C1311 0.929 . S
H1324 C1312 0.960 . S
H1325 C1312 0.962 . S
H1326 C1312 0.960 . S
H1327 C1313 0.961 . S
H1328 C1313 0.961 . S
H1329 C1313 0.961 . S
H1330 C1314 0.931 . S
H1331 C1319 0.930 . S
H1332 C1320 0.956 . S
H1333 C1320 0.961 . S
H1334 C1320 0.961 . S
H1335 C1321 0.958 . S
H1336 C1321 0.961 . S
H1337 C1321 0.960 . S
C1338 C1339 1.391 . S
C1338 C1340 1.394 . S
C1338 H1354 0.931 . S
C1339 C1338 1.391 . S
C1339 C1343 1.376 . S
C1340 C1338 1.394 . S
C1340 C1341 1.369 1_455 S
C1340 C1344 1.531 1_455 S
C1341 C1340 1.369 1_655 S
C1341 C1342 1.410 1_655 S
C1341 C1349 1.503 . S
C1342 C1341 1.410 1_455 S
C1342 C1343 1.392 . S
C1342 C1345 1.511 1_455 S
C1343 C1339 1.376 . S
C1343 C1342 1.392 . S
C1343 H1355 0.929 . S
C1344 C1340 1.531 1_655 S
C1344 H1356 0.960 . S
C1344 H1357 0.962 . S
C1344 H1358 0.960 . S
C1345 C1342 1.511 1_655 S
C1345 H1359 0.961 . S
C1345 H1360 0.961 . S
C1345 H1361 0.961 . S
C1346 C1347 1.370 . S
C1346 C1348 1.363 . S
C1346 H1362 0.931 . S
C1347 C1346 1.370 . S
C1347 C1351 1.408 . S
C1348 C1346 1.363 . S
C1348 C1349 1.370 . S
C1348 C1352 1.524 . S
C1349 C1341 1.503 . S
C1349 C1348 1.370 . S
C1349 C1350 1.403 . S
C1350 C1349 1.403 . S
C1350 C1351 1.404 . S
C1350 C1353 1.539 . S
C1351 C1347 1.408 . S
C1351 C1350 1.404 . S
C1351 H1363 0.930 . S
C1352 C1348 1.524 . S
C1352 H1364 0.956 . S
C1352 H1365 0.961 . S
C1352 H1366 0.961 . S
C1353 C1350 1.539 . S
C1353 H1367 0.958 . S
C1353 H1368 0.961 . S
C1353 H1369 0.960 . S
H1354 C1338 0.931 . S
H1355 C1343 0.929 . S
H1356 C1344 0.960 . S
H1357 C1344 0.962 . S
H1358 C1344 0.960 . S
H1359 C1345 0.961 . S
H1360 C1345 0.961 . S
H1361 C1345 0.961 . S
H1362 C1346 0.931 . S
H1363 C1351 0.930 . S
H1364 C1352 0.956 . S
H1365 C1352 0.961 . S
H1366 C1352 0.961 . S
H1367 C1353 0.958 . S
H1368 C1353 0.961 . S
H1369 C1353 0.960 . S
C1370 C1371 1.391 . S
C1370 C1372 1.394 . S
C1370 H1386 0.931 . S
C1371 C1370 1.391 . S
C1371 C1375 1.376 . S
C1372 C1370 1.394 . S
C1372 C1373 1.369 . S
C1372 C1376 1.531 . S
C1373 C1372 1.369 . S
C1373 C1374 1.410 . S
C1373 C1381 1.503 . S
C1374 C1373 1.410 . S
C1374 C1375 1.392 . S
C1374 C1377 1.511 . S
C1375 C1371 1.376 . S
C1375 C1374 1.392 . S
C1375 H1387 0.929 . S
C1376 C1372 1.531 . S
C1376 H1388 0.960 . S
C1376 H1389 0.962 . S
C1376 H1390 0.960 . S
C1377 C1374 1.511 . S
C1377 H1391 0.961 . S
C1377 H1392 0.961 . S
C1377 H1393 0.961 . S
C1378 C1379 1.370 . S
C1378 C1380 1.363 . S
C1378 H1394 0.931 . S
C1379 C1378 1.370 . S
C1379 C1383 1.408 . S
C1380 C1378 1.363 . S
C1380 C1381 1.370 . S
C1380 C1384 1.524 . S
C1381 C1373 1.503 . S
C1381 C1380 1.370 . S
C1381 C1382 1.403 . S
C1382 C1381 1.403 . S
C1382 C1383 1.404 . S
C1382 C1385 1.539 . S
C1383 C1379 1.408 . S
C1383 C1382 1.404 . S
C1383 H1395 0.930 . S
C1384 C1380 1.524 . S
C1384 H1396 0.956 . S
C1384 H1397 0.961 . S
C1384 H1398 0.961 . S
C1385 C1382 1.539 . S
C1385 H1399 0.958 . S
C1385 H1400 0.961 . S
C1385 H1401 0.960 . S
H1386 C1370 0.931 . S
H1387 C1375 0.929 . S
H1388 C1376 0.960 . S
H1389 C1376 0.962 . S
H1390 C1376 0.960 . S
H1391 C1377 0.961 . S
H1392 C1377 0.961 . S
H1393 C1377 0.961 . S
H1394 C1378 0.931 . S
H1395 C1383 0.930 . S
H1396 C1384 0.956 . S
H1397 C1384 0.961 . S
H1398 C1384 0.961 . S
H1399 C1385 0.958 . S
H1400 C1385 0.961 . S
H1401 C1385 0.960 . S
C1402 C1403 1.391 . S
C1402 C1404 1.394 1_565 S
C1402 H1418 0.931 . S
C1403 C1402 1.391 . S
C1403 C1407 1.376 . S
C1404 C1402 1.394 1_545 S
C1404 C1405 1.369 . S
C1404 C1408 1.531 . S
C1405 C1404 1.369 . S
C1405 C1406 1.394 1_545 S
C1405 C1413 1.503 . S
C1406 C1405 1.394 1_565 S
C1406 C1407 1.442 . S
C1406 C1409 1.480 1_565 S
C1407 C1403 1.376 . S
C1407 C1406 1.442 . S
C1407 H1419 0.929 . S
C1408 C1404 1.531 . S
C1408 H1420 0.960 . S
C1408 H1421 0.962 . S
C1408 H1422 0.960 . S
C1409 C1406 1.480 1_545 S
C1409 H1423 0.961 1_545 S
C1409 H1424 0.961 . S
C1409 H1425 0.961 . S
C1410 C1411 1.370 . S
C1410 C1412 1.363 . S
C1410 H1426 0.931 . S
C1411 C1410 1.370 . S
C1411 C1415 1.408 . S
C1412 C1410 1.363 . S
C1412 C1413 1.370 . S
C1412 C1416 1.524 . S
C1413 C1405 1.503 . S
C1413 C1412 1.370 . S
C1413 C1414 1.403 . S
C1414 C1413 1.403 . S
C1414 C1415 1.404 . S
C1414 C1417 1.539 . S
C1415 C1411 1.408 . S
C1415 C1414 1.404 . S
C1415 H1427 0.930 . S
C1416 C1412 1.524 . S
C1416 H1428 0.956 . S
C1416 H1429 0.961 . S
C1416 H1430 0.961 . S
C1417 C1414 1.539 . S
C1417 H1431 0.958 . S
C1417 H1432 0.961 . S
C1417 H1433 0.960 . S
H1418 C1402 0.931 . S
H1419 C1407 0.929 . S
H1420 C1408 0.960 . S
H1421 C1408 0.962 . S
H1422 C1408 0.960 . S
H1423 C1409 0.961 1_565 S
H1424 C1409 0.961 . S
H1425 C1409 0.961 . S
H1426 C1410 0.931 . S
H1427 C1415 0.930 . S
H1428 C1416 0.956 . S
H1429 C1416 0.961 . S
H1430 C1416 0.961 . S
H1431 C1417 0.958 . S
H1432 C1417 0.961 . S
H1433 C1417 0.960 . S
C1434 C1435 1.391 . S
C1434 C1436 1.394 . S
C1434 H1450 0.931 . S
C1435 C1434 1.391 . S
C1435 C1439 1.376 . S
C1436 C1434 1.394 . S
C1436 C1437 1.369 . S
C1436 C1440 1.531 . S
C1437 C1436 1.369 . S
C1437 C1438 1.410 . S
C1437 C1445 1.503 . S
C1438 C1437 1.410 . S
C1438 C1439 1.392 . S
C1438 C1441 1.511 . S
C1439 C1435 1.376 . S
C1439 C1438 1.392 . S
C1439 H1451 0.929 . S
C1440 C1436 1.531 . S
C1440 H1452 0.960 . S
C1440 H1453 0.962 . S
C1440 H1454 0.960 . S
C1441 C1438 1.511 . S
C1441 H1455 0.961 . S
C1441 H1456 0.961 . S
C1441 H1457 0.961 . S
C1442 C1443 1.370 . S
C1442 C1444 1.363 . S
C1442 H1458 0.931 . S
C1443 C1442 1.370 . S
C1443 C1447 1.408 . S
C1444 C1442 1.363 . S
C1444 C1445 1.370 . S
C1444 C1448 1.524 . S
C1445 C1437 1.503 . S
C1445 C1444 1.370 . S
C1445 C1446 1.403 . S
C1446 C1445 1.403 . S
C1446 C1447 1.404 . S
C1446 C1449 1.539 . S
C1447 C1443 1.408 . S
C1447 C1446 1.404 . S
C1447 H1459 0.930 . S
C1448 C1444 1.524 . S
C1448 H1460 0.956 . S
C1448 H1461 0.961 . S
C1448 H1462 0.961 . S
C1449 C1446 1.539 . S
C1449 H1463 0.958 . S
C1449 H1464 0.961 . S
C1449 H1465 0.960 . S
H1450 C1434 0.931 . S
H1451 C1439 0.929 . S
H1452 C1440 0.960 . S
H1453 C1440 0.962 . S
H1454 C1440 0.960 . S
H1455 C1441 0.961 . S
H1456 C1441 0.961 . S
H1457 C1441 0.961 . S
H1458 C1442 0.931 . S
H1459 C1447 0.930 . S
H1460 C1448 0.956 . S
H1461 C1448 0.961 . S
H1462 C1448 0.961 . S
H1463 C1449 0.958 . S
H1464 C1449 0.961 . S
H1465 C1449 0.960 . S
C1466 C1467 1.391 . S
C1466 C1468 1.394 . S
C1466 H1482 0.931 . S
C1467 C1466 1.391 . S
C1467 C1471 1.376 . S
C1468 C1466 1.394 . S
C1468 C1469 1.369 . S
C1468 C1472 1.531 . S
C1469 C1468 1.369 . S
C1469 C1470 1.410 . S
C1469 C1477 1.503 . S
C1470 C1469 1.410 . S
C1470 C1471 1.392 . S
C1470 C1473 1.511 . S
C1471 C1467 1.376 . S
C1471 C1470 1.392 . S
C1471 H1483 0.929 . S
C1472 C1468 1.531 . S
C1472 H1484 0.960 . S
C1472 H1485 0.962 . S
C1472 H1486 0.960 . S
C1473 C1470 1.511 . S
C1473 H1487 0.961 . S
C1473 H1488 0.961 . S
C1473 H1489 0.961 . S
C1474 C1475 1.370 . S
C1474 C1476 1.363 . S
C1474 H1490 0.931 . S
C1475 C1474 1.370 . S
C1475 C1479 1.408 . S
C1476 C1474 1.363 . S
C1476 C1477 1.370 . S
C1476 C1480 1.524 . S
C1477 C1469 1.503 . S
C1477 C1476 1.370 . S
C1477 C1478 1.403 . S
C1478 C1477 1.403 . S
C1478 C1479 1.404 . S
C1478 C1481 1.539 . S
C1479 C1475 1.408 . S
C1479 C1478 1.404 . S
C1479 H1491 0.930 . S
C1480 C1476 1.524 . S
C1480 H1492 0.956 . S
C1480 H1493 0.961 . S
C1480 H1494 0.961 . S
C1481 C1478 1.539 . S
C1481 H1495 0.958 . S
C1481 H1496 0.961 . S
C1481 H1497 0.960 . S
H1482 C1466 0.931 . S
H1483 C1471 0.929 . S
H1484 C1472 0.960 . S
H1485 C1472 0.962 . S
H1486 C1472 0.960 . S
H1487 C1473 0.961 . S
H1488 C1473 0.961 . S
H1489 C1473 0.961 . S
H1490 C1474 0.931 . S
H1491 C1479 0.930 . S
H1492 C1480 0.956 . S
H1493 C1480 0.961 . S
H1494 C1480 0.961 . S
H1495 C1481 0.958 . S
H1496 C1481 0.961 . S
H1497 C1481 0.960 . S
C1498 C1499 1.391 . S
C1498 C1500 1.394 . S
C1498 H1514 0.931 . S
C1499 C1498 1.391 . S
C1499 C1503 1.376 . S
C1500 C1498 1.394 . S
C1500 C1501 1.369 . S
C1500 C1504 1.531 . S
C1501 C1500 1.369 . S
C1501 C1502 1.410 . S
C1501 C1509 1.503 . S
C1502 C1501 1.410 . S
C1502 C1503 1.392 . S
C1502 C1505 1.511 . S
C1503 C1499 1.376 . S
C1503 C1502 1.392 . S
C1503 H1515 0.929 . S
C1504 C1500 1.531 . S
C1504 H1516 0.960 . S
C1504 H1517 0.962 . S
C1504 H1518 0.960 . S
C1505 C1502 1.511 . S
C1505 H1519 0.961 . S
C1505 H1520 0.961 . S
C1505 H1521 0.961 . S
C1506 C1507 1.370 . S
C1506 C1508 1.363 . S
C1506 H1522 0.931 . S
C1507 C1506 1.370 . S
C1507 C1511 1.408 . S
C1508 C1506 1.363 . S
C1508 C1509 1.370 . S
C1508 C1512 1.524 . S
C1509 C1501 1.503 . S
C1509 C1508 1.370 . S
C1509 C1510 1.403 . S
C1510 C1509 1.403 . S
C1510 C1511 1.404 . S
C1510 C1513 1.539 . S
C1511 C1507 1.408 . S
C1511 C1510 1.404 . S
C1511 H1523 0.930 . S
C1512 C1508 1.524 . S
C1512 H1524 0.956 . S
C1512 H1525 0.961 . S
C1512 H1526 0.961 . S
C1513 C1510 1.539 . S
C1513 H1527 0.958 . S
C1513 H1528 0.961 . S
C1513 H1529 0.960 . S
H1514 C1498 0.931 . S
H1515 C1503 0.929 . S
H1516 C1504 0.960 . S
H1517 C1504 0.962 . S
H1518 C1504 0.960 . S
H1519 C1505 0.961 . S
H1520 C1505 0.961 . S
H1521 C1505 0.961 . S
H1522 C1506 0.931 . S
H1523 C1511 0.930 . S
H1524 C1512 0.956 . S
H1525 C1512 0.961 . S
H1526 C1512 0.961 . S
H1527 C1513 0.958 . S
H1528 C1513 0.961 . S
H1529 C1513 0.960 . S
C1530 C1531 1.391 . S
C1530 C1532 1.394 . S
C1530 H1546 0.931 . S
C1531 C1530 1.391 . S
C1531 C1535 1.376 . S
C1532 C1530 1.394 . S
C1532 C1533 1.369 . S
C1532 C1536 1.531 . S
C1533 C1532 1.369 . S
C1533 C1534 1.410 . S
C1533 C1541 1.503 . S
C1534 C1533 1.410 . S
C1534 C1535 1.392 . S
C1534 C1537 1.511 . S
C1535 C1531 1.376 . S
C1535 C1534 1.392 . S
C1535 H1547 0.929 . S
C1536 C1532 1.531 . S
C1536 H1548 0.960 . S
C1536 H1549 0.962 . S
C1536 H1550 0.960 . S
C1537 C1534 1.511 . S
C1537 H1551 0.961 . S
C1537 H1552 0.961 . S
C1537 H1553 0.961 . S
C1538 C1539 1.393 . S
C1538 C1540 1.382 . S
C1538 H1554 0.889 1_565 S
C1539 C1538 1.393 . S
C1539 C1543 1.408 . S
C1540 C1538 1.382 . S
C1540 C1541 1.370 . S
C1540 C1544 1.524 1_565 S
C1541 C1533 1.503 . S
C1541 C1540 1.370 . S
C1541 C1542 1.403 . S
C1542 C1541 1.403 . S
C1542 C1543 1.404 . S
C1542 C1545 1.539 . S
C1543 C1539 1.408 . S
C1543 C1542 1.404 . S
C1543 H1555 0.930 . S
C1544 C1540 1.524 1_545 S
C1544 H1556 0.956 . S
C1544 H1557 0.962 . S
C1544 H1558 0.961 . S
C1545 C1542 1.539 . S
C1545 H1559 0.958 . S
C1545 H1560 0.961 . S
C1545 H1561 0.960 . S
H1546 C1530 0.931 . S
H1547 C1535 0.929 . S
H1548 C1536 0.960 . S
H1549 C1536 0.962 . S
H1550 C1536 0.960 . S
H1551 C1537 0.961 . S
H1552 C1537 0.961 . S
H1553 C1537 0.961 . S
H1554 C1538 0.889 1_545 S
H1555 C1543 0.930 . S
H1556 C1544 0.956 . S
H1557 C1544 0.962 . S
H1558 C1544 0.961 . S
H1559 C1545 0.958 . S
H1560 C1545 0.961 . S
H1561 C1545 0.960 . S
C1562 C1563 1.391 . S
C1562 C1564 1.394 . S
C1562 H1578 0.931 . S
C1563 C1562 1.391 . S
C1563 C1567 1.376 . S
C1564 C1562 1.394 . S
C1564 C1565 1.369 . S
C1564 C1568 1.531 . S
C1565 C1564 1.369 . S
C1565 C1566 1.410 . S
C1565 C1573 1.503 . S
C1566 C1565 1.410 . S
C1566 C1567 1.392 . S
C1566 C1569 1.511 . S
C1567 C1563 1.376 . S
C1567 C1566 1.392 . S
C1567 H1579 0.929 . S
C1568 C1564 1.531 . S
C1568 H1580 0.960 . S
C1568 H1581 0.962 . S
C1568 H1582 0.960 . S
C1569 C1566 1.511 . S
C1569 H1583 0.961 . S
C1569 H1584 0.961 . S
C1569 H1585 0.961 . S
C1570 C1571 1.370 . S
C1570 C1572 1.363 . S
C1570 H1586 0.931 . S
C1571 C1570 1.370 . S
C1571 C1575 1.408 . S
C1572 C1570 1.363 . S
C1572 C1573 1.370 . S
C1572 C1576 1.524 . S
C1573 C1565 1.503 . S
C1573 C1572 1.370 . S
C1573 C1574 1.403 . S
C1574 C1573 1.403 . S
C1574 C1575 1.404 . S
C1574 C1577 1.539 . S
C1575 C1571 1.408 . S
C1575 C1574 1.404 . S
C1575 H1587 0.930 . S
C1576 C1572 1.524 . S
C1576 H1588 0.956 . S
C1576 H1589 0.961 . S
C1576 H1590 0.961 1_455 S
C1577 C1574 1.539 . S
C1577 H1591 0.958 . S
C1577 H1592 0.961 . S
C1577 H1593 0.960 . S
H1578 C1562 0.931 . S
H1579 C1567 0.929 . S
H1580 C1568 0.960 . S
H1581 C1568 0.962 . S
H1582 C1568 0.960 . S
H1583 C1569 0.961 . S
H1584 C1569 0.961 . S
H1585 C1569 0.961 . S
H1586 C1570 0.931 . S
H1587 C1575 0.930 . S
H1588 C1576 0.956 . S
H1589 C1576 0.961 . S
H1590 C1576 0.961 1_655 S
H1591 C1577 0.958 . S
H1592 C1577 0.961 . S
H1593 C1577 0.960 . S
C1594 C1595 1.391 . S
C1594 C1596 1.394 . S
C1594 H1610 0.931 . S
C1595 C1594 1.391 . S
C1595 C1599 1.376 . S
C1596 C1594 1.394 . S
C1596 C1597 1.369 . S
C1596 C1600 1.531 . S
C1597 C1596 1.369 . S
C1597 C1598 1.410 . S
C1597 C1605 1.503 . S
C1598 C1597 1.410 . S
C1598 C1599 1.392 . S
C1598 C1601 1.511 . S
C1599 C1595 1.376 . S
C1599 C1598 1.392 . S
C1599 H1611 0.929 . S
C1600 C1596 1.531 . S
C1600 H1612 0.960 . S
C1600 H1613 0.962 . S
C1600 H1614 0.960 . S
C1601 C1598 1.511 . S
C1601 H1615 0.961 . S
C1601 H1616 0.961 . S
C1601 H1617 0.961 . S
C1602 C1603 1.370 . S
C1602 C1604 1.363 . S
C1602 H1618 0.931 . S
C1603 C1602 1.370 . S
C1603 C1607 1.408 . S
C1604 C1602 1.363 . S
C1604 C1605 1.370 . S
C1604 C1608 1.524 . S
C1605 C1597 1.503 . S
C1605 C1604 1.370 . S
C1605 C1606 1.403 . S
C1606 C1605 1.403 . S
C1606 C1607 1.404 . S
C1606 C1609 1.539 . S
C1607 C1603 1.408 . S
C1607 C1606 1.404 . S
C1607 H1619 0.930 . S
C1608 C1604 1.524 . S
C1608 H1620 0.956 . S
C1608 H1621 0.961 . S
C1608 H1622 0.961 . S
C1609 C1606 1.539 . S
C1609 H1623 0.958 . S
C1609 H1624 0.961 . S
C1609 H1625 0.960 . S
H1610 C1594 0.931 . S
H1611 C1599 0.929 . S
H1612 C1600 0.960 . S
H1613 C1600 0.962 . S
H1614 C1600 0.960 . S
H1615 C1601 0.961 . S
H1616 C1601 0.961 . S
H1617 C1601 0.961 . S
H1618 C1602 0.931 . S
H1619 C1607 0.930 . S
H1620 C1608 0.956 . S
H1621 C1608 0.961 . S
H1622 C1608 0.961 . S
H1623 C1609 0.958 . S
H1624 C1609 0.961 . S
H1625 C1609 0.960 . S
C1626 C1627 1.391 . S
C1626 C1628 1.394 . S
C1626 H1642 0.931 . S
C1627 C1626 1.391 . S
C1627 C1631 1.376 . S
C1628 C1626 1.394 . S
C1628 C1629 1.369 . S
C1628 C1632 1.531 . S
C1629 C1628 1.369 . S
C1629 C1630 1.410 . S
C1629 C1637 1.503 . S
C1630 C1629 1.410 . S
C1630 C1631 1.392 . S
C1630 C1633 1.511 . S
C1631 C1627 1.376 . S
C1631 C1630 1.392 . S
C1631 H1643 0.929 . S
C1632 C1628 1.531 . S
C1632 H1644 0.960 . S
C1632 H1645 0.962 1_655 S
C1632 H1646 0.960 . S
C1633 C1630 1.511 . S
C1633 H1647 0.961 . S
C1633 H1648 0.961 . S
C1633 H1649 0.961 . S
C1634 C1635 1.370 . S
C1634 C1636 1.363 . S
C1634 H1650 0.931 . S
C1635 C1634 1.370 . S
C1635 C1639 1.408 . S
C1636 C1634 1.363 . S
C1636 C1637 1.370 . S
C1636 C1640 1.524 . S
C1637 C1629 1.503 . S
C1637 C1636 1.370 . S
C1637 C1638 1.403 . S
C1638 C1637 1.403 . S
C1638 C1639 1.404 . S
C1638 C1641 1.539 . S
C1639 C1635 1.408 . S
C1639 C1638 1.404 . S
C1639 H1651 0.930 . S
C1640 C1636 1.524 . S
C1640 H1652 0.956 . S
C1640 H1653 0.961 . S
C1640 H1654 0.961 . S
C1641 C1638 1.539 . S
C1641 H1655 0.958 . S
C1641 H1656 0.961 . S
C1641 H1657 0.960 . S
H1642 C1626 0.931 . S
H1643 C1631 0.929 . S
H1644 C1632 0.960 . S
H1645 C1632 0.962 1_455 S
H1646 C1632 0.960 . S
H1647 C1633 0.961 . S
H1648 C1633 0.961 . S
H1649 C1633 0.961 . S
H1650 C1634 0.931 . S
H1651 C1639 0.930 . S
H1652 C1640 0.956 . S
H1653 C1640 0.961 . S
H1654 C1640 0.961 . S
H1655 C1641 0.958 . S
H1656 C1641 0.961 . S
H1657 C1641 0.960 . S
C1658 C1659 1.391 . S
C1658 C1660 1.394 . S
C1658 H1674 0.931 . S
C1659 C1658 1.391 . S
C1659 C1663 1.376 . S
C1660 C1658 1.394 . S
C1660 C1661 1.369 . S
C1660 C1664 1.531 . S
C1661 C1660 1.369 . S
C1661 C1662 1.410 . S
C1661 C1669 1.503 . S
C1662 C1661 1.410 . S
C1662 C1663 1.392 . S
C1662 C1665 1.511 . S
C1663 C1659 1.376 . S
C1663 C1662 1.392 . S
C1663 H1675 0.929 . S
C1664 C1660 1.531 . S
C1664 H1676 0.960 . S
C1664 H1677 0.962 . S
C1664 H1678 0.960 . S
C1665 C1662 1.511 . S
C1665 H1679 0.961 . S
C1665 H1680 0.961 . S
C1665 H1681 0.961 . S
C1666 C1667 1.370 . S
C1666 C1668 1.363 . S
C1666 H1682 0.931 . S
C1667 C1666 1.370 . S
C1667 C1671 1.408 . S
C1668 C1666 1.363 . S
C1668 C1669 1.370 . S
C1668 C1672 1.524 . S
C1669 C1661 1.503 . S
C1669 C1668 1.370 . S
C1669 C1670 1.403 . S
C1670 C1669 1.403 . S
C1670 C1671 1.404 . S
C1670 C1673 1.539 . S
C1671 C1667 1.408 . S
C1671 C1670 1.404 . S
C1671 H1683 0.930 . S
C1672 C1668 1.524 . S
C1672 H1684 0.956 . S
C1672 H1685 0.961 . S
C1672 H1686 0.961 . S
C1673 C1670 1.539 . S
C1673 H1687 0.958 . S
C1673 H1688 0.961 . S
C1673 H1689 0.960 . S
H1674 C1658 0.931 . S
H1675 C1663 0.929 . S
H1676 C1664 0.960 . S
H1677 C1664 0.962 . S
H1678 C1664 0.960 . S
H1679 C1665 0.961 . S
H1680 C1665 0.961 . S
H1681 C1665 0.961 . S
H1682 C1666 0.931 . S
H1683 C1671 0.930 . S
H1684 C1672 0.956 . S
H1685 C1672 0.961 . S
H1686 C1672 0.961 . S
H1687 C1673 0.958 . S
H1688 C1673 0.961 . S
H1689 C1673 0.960 . S
C1690 C1691 1.391 . S
C1690 C1692 1.394 . S
C1690 H1706 0.931 . S
C1691 C1690 1.391 . S
C1691 C1695 1.376 . S
C1692 C1690 1.394 . S
C1692 C1693 1.369 . S
C1692 C1696 1.531 . S
C1693 C1692 1.369 . S
C1693 C1694 1.410 . S
C1693 C1701 1.503 . S
C1694 C1693 1.410 . S
C1694 C1695 1.392 . S
C1694 C1697 1.511 . S
C1695 C1691 1.376 . S
C1695 C1694 1.392 . S
C1695 H1707 0.929 . S
C1696 C1692 1.531 . S
C1696 H1708 0.960 . S
C1696 H1709 0.947 1_545 S
C1696 H1710 0.960 . S
C1697 C1694 1.511 . S
C1697 H1711 0.961 . S
C1697 H1712 0.961 . S
C1697 H1713 0.961 . S
C1698 C1699 1.370 . S
C1698 C1700 1.363 . S
C1698 H1714 0.916 1_545 S
C1699 C1698 1.370 . S
C1699 C1703 1.408 . S
C1700 C1698 1.363 . S
C1700 C1701 1.370 . S
C1700 C1704 1.524 . S
C1701 C1693 1.503 . S
C1701 C1700 1.370 . S
C1701 C1702 1.403 . S
C1702 C1701 1.403 . S
C1702 C1703 1.404 . S
C1702 C1705 1.539 . S
C1703 C1699 1.408 . S
C1703 C1702 1.404 . S
C1703 H1715 0.930 . S
C1704 C1700 1.524 . S
C1704 H1716 0.956 . S
C1704 H1717 0.961 . S
C1704 H1718 0.951 1_545 S
C1705 C1702 1.539 . S
C1705 H1719 0.958 . S
C1705 H1720 0.961 . S
C1705 H1721 0.960 . S
H1706 C1690 0.931 . S
H1707 C1695 0.929 . S
H1708 C1696 0.960 . S
H1709 C1696 0.947 1_565 S
H1710 C1696 0.960 . S
H1711 C1697 0.961 . S
H1712 C1697 0.961 . S
H1713 C1697 0.961 . S
H1714 C1698 0.916 1_565 S
H1715 C1703 0.930 . S
H1716 C1704 0.956 . S
H1717 C1704 0.961 . S
H1718 C1704 0.951 1_565 S
H1719 C1705 0.958 . S
H1720 C1705 0.961 . S
H1721 C1705 0.960 . S
C1722 C1723 1.391 . S
C1722 C1724 1.394 . S
C1722 H1738 0.931 . S
C1723 C1722 1.391 . S
C1723 C1727 1.376 . S
C1724 C1722 1.394 . S
C1724 C1725 1.369 . S
C1724 C1728 1.531 . S
C1725 C1724 1.369 . S
C1725 C1726 1.410 . S
C1725 C1733 1.503 . S
C1726 C1725 1.410 . S
C1726 C1727 1.392 . S
C1726 C1729 1.511 . S
C1727 C1723 1.376 . S
C1727 C1726 1.392 . S
C1727 H1739 0.929 . S
C1728 C1724 1.531 . S
C1728 H1740 0.960 . S
C1728 H1741 0.962 . S
C1728 H1742 0.960 . S
C1729 C1726 1.511 . S
C1729 H1743 0.961 . S
C1729 H1744 0.961 . S
C1729 H1745 0.961 . S
C1730 C1731 1.370 . S
C1730 C1732 1.363 . S
C1730 H1746 0.931 . S
C1731 C1730 1.370 . S
C1731 C1735 1.408 . S
C1732 C1730 1.363 . S
C1732 C1733 1.370 . S
C1732 C1736 1.524 . S
C1733 C1725 1.503 . S
C1733 C1732 1.370 . S
C1733 C1734 1.403 . S
C1734 C1733 1.403 . S
C1734 C1735 1.404 . S
C1734 C1737 1.539 . S
C1735 C1731 1.408 . S
C1735 C1734 1.404 . S
C1735 H1747 0.930 . S
C1736 C1732 1.524 . S
C1736 H1748 0.956 . S
C1736 H1749 0.961 . S
C1736 H1750 0.961 . S
C1737 C1734 1.539 . S
C1737 H1751 0.958 . S
C1737 H1752 0.961 . S
C1737 H1753 0.960 . S
H1738 C1722 0.931 . S
H1739 C1727 0.929 . S
H1740 C1728 0.960 . S
H1741 C1728 0.962 . S
H1742 C1728 0.960 . S
H1743 C1729 0.961 . S
H1744 C1729 0.961 . S
H1745 C1729 0.961 . S
H1746 C1730 0.931 . S
H1747 C1735 0.930 . S
H1748 C1736 0.956 . S
H1749 C1736 0.961 . S
H1750 C1736 0.961 . S
H1751 C1737 0.958 . S
H1752 C1737 0.961 . S
H1753 C1737 0.960 . S
C1754 C1755 1.391 . S
C1754 C1756 1.394 . S
C1754 H1770 0.931 . S
C1755 C1754 1.391 . S
C1755 C1759 1.376 . S
C1756 C1754 1.394 . S
C1756 C1757 1.369 . S
C1756 C1760 1.531 . S
C1757 C1756 1.369 . S
C1757 C1758 1.410 . S
C1757 C1765 1.503 . S
C1758 C1757 1.410 . S
C1758 C1759 1.392 . S
C1758 C1761 1.511 . S
C1759 C1755 1.376 . S
C1759 C1758 1.392 . S
C1759 H1771 0.929 . S
C1760 C1756 1.531 . S
C1760 H1772 0.960 . S
C1760 H1773 0.962 . S
C1760 H1774 0.960 . S
C1761 C1758 1.511 . S
C1761 H1775 0.961 . S
C1761 H1776 0.961 . S
C1761 H1777 0.961 . S
C1762 C1763 1.370 . S
C1762 C1764 1.363 . S
C1762 H1778 0.931 . S
C1763 C1762 1.370 . S
C1763 C1767 1.408 . S
C1764 C1762 1.363 . S
C1764 C1765 1.370 . S
C1764 C1768 1.524 . S
C1765 C1757 1.503 . S
C1765 C1764 1.370 . S
C1765 C1766 1.403 . S
C1766 C1765 1.403 . S
C1766 C1767 1.404 . S
C1766 C1769 1.539 . S
C1767 C1763 1.408 . S
C1767 C1766 1.404 . S
C1767 H1779 0.930 . S
C1768 C1764 1.524 . S
C1768 H1780 0.956 . S
C1768 H1781 0.961 . S
C1768 H1782 0.961 . S
C1769 C1766 1.539 . S
C1769 H1783 0.958 . S
C1769 H1784 0.961 . S
C1769 H1785 0.960 . S
H1770 C1754 0.931 . S
H1771 C1759 0.929 . S
H1772 C1760 0.960 . S
H1773 C1760 0.962 . S
H1774 C1760 0.960 . S
H1775 C1761 0.961 . S
H1776 C1761 0.961 . S
H1777 C1761 0.961 . S
H1778 C1762 0.931 . S
H1779 C1767 0.930 . S
H1780 C1768 0.956 . S
H1781 C1768 0.961 . S
H1782 C1768 0.961 . S
H1783 C1769 0.958 . S
H1784 C1769 0.961 . S
H1785 C1769 0.960 . S
C1786 C1787 1.391 . S
C1786 C1788 1.394 . S
C1786 H1802 0.931 . S
C1787 C1786 1.391 . S
C1787 C1791 1.376 . S
C1788 C1786 1.394 . S
C1788 C1789 1.369 . S
C1788 C1792 1.531 . S
C1789 C1788 1.369 . S
C1789 C1790 1.410 . S
C1789 C1797 1.503 . S
C1790 C1789 1.410 . S
C1790 C1791 1.392 . S
C1790 C1793 1.511 . S
C1791 C1787 1.376 . S
C1791 C1790 1.392 . S
C1791 H1803 0.929 . S
C1792 C1788 1.531 . S
C1792 H1804 0.960 . S
C1792 H1805 0.962 . S
C1792 H1806 0.960 . S
C1793 C1790 1.511 . S
C1793 H1807 0.961 . S
C1793 H1808 0.961 . S
C1793 H1809 0.961 . S
C1794 C1795 1.370 . S
C1794 C1796 1.363 . S
C1794 H1810 0.931 . S
C1795 C1794 1.370 . S
C1795 C1799 1.408 . S
C1796 C1794 1.363 . S
C1796 C1797 1.370 . S
C1796 C1800 1.524 . S
C1797 C1789 1.503 . S
C1797 C1796 1.370 . S
C1797 C1798 1.403 . S
C1798 C1797 1.403 . S
C1798 C1799 1.404 . S
C1798 C1801 1.539 . S
C1799 C1795 1.408 . S
C1799 C1798 1.404 . S
C1799 H1811 0.930 . S
C1800 C1796 1.524 . S
C1800 H1812 0.956 . S
C1800 H1813 0.961 . S
C1800 H1814 0.961 . S
C1801 C1798 1.539 . S
C1801 H1815 0.958 . S
C1801 H1816 0.961 . S
C1801 H1817 0.960 . S
H1802 C1786 0.931 . S
H1803 C1791 0.929 . S
H1804 C1792 0.960 . S
H1805 C1792 0.962 . S
H1806 C1792 0.960 . S
H1807 C1793 0.961 . S
H1808 C1793 0.961 . S
H1809 C1793 0.961 . S
H1810 C1794 0.931 . S
H1811 C1799 0.930 . S
H1812 C1800 0.956 . S
H1813 C1800 0.961 . S
H1814 C1800 0.961 . S
H1815 C1801 0.958 . S
H1816 C1801 0.961 . S
H1817 C1801 0.960 . S
C1818 C1819 1.391 . S
C1818 C1820 1.394 . S
C1818 H1834 0.931 . S
C1819 C1818 1.391 . S
C1819 C1823 1.376 . S
C1820 C1818 1.394 . S
C1820 C1821 1.369 . S
C1820 C1824 1.531 . S
C1821 C1820 1.369 . S
C1821 C1822 1.410 . S
C1821 C1829 1.503 . S
C1822 C1821 1.410 . S
C1822 C1823 1.392 . S
C1822 C1825 1.511 . S
C1823 C1819 1.376 . S
C1823 C1822 1.392 . S
C1823 H1835 0.929 . S
C1824 C1820 1.531 . S
C1824 H1836 0.960 . S
C1824 H1837 0.962 . S
C1824 H1838 0.960 . S
C1825 C1822 1.511 . S
C1825 H1839 0.961 . S
C1825 H1840 0.961 . S
C1825 H1841 0.961 . S
C1826 C1827 1.370 . S
C1826 C1828 1.363 . S
C1826 H1842 0.931 . S
C1827 C1826 1.370 . S
C1827 C1831 1.408 . S
C1828 C1826 1.363 . S
C1828 C1829 1.370 . S
C1828 C1832 1.524 . S
C1829 C1821 1.503 . S
C1829 C1828 1.370 . S
C1829 C1830 1.403 . S
C1830 C1829 1.403 . S
C1830 C1831 1.404 . S
C1830 C1833 1.539 . S
C1831 C1827 1.408 . S
C1831 C1830 1.404 . S
C1831 H1843 0.930 . S
C1832 C1828 1.524 . S
C1832 H1844 0.956 . S
C1832 H1845 0.961 . S
C1832 H1846 0.961 . S
C1833 C1830 1.539 . S
C1833 H1847 0.958 . S
C1833 H1848 0.961 . S
C1833 H1849 0.960 . S
H1834 C1818 0.931 . S
H1835 C1823 0.929 . S
H1836 C1824 0.960 . S
H1837 C1824 0.962 . S
H1838 C1824 0.960 . S
H1839 C1825 0.961 . S
H1840 C1825 0.961 . S
H1841 C1825 0.961 . S
H1842 C1826 0.931 . S
H1843 C1831 0.930 . S
H1844 C1832 0.956 . S
H1845 C1832 0.961 . S
H1846 C1832 0.961 . S
H1847 C1833 0.958 . S
H1848 C1833 0.961 . S
H1849 C1833 0.960 . S
C1850 C1851 1.391 . S
C1850 C1852 1.394 . S
C1850 H1866 0.931 . S
C1851 C1850 1.391 . S
C1851 C1855 1.376 . S
C1852 C1850 1.394 . S
C1852 C1853 1.369 . S
C1852 C1856 1.531 . S
C1853 C1852 1.369 . S
C1853 C1854 1.410 . S
C1853 C1861 1.503 . S
C1854 C1853 1.410 . S
C1854 C1855 1.392 . S
C1854 C1857 1.511 . S
C1855 C1851 1.376 . S
C1855 C1854 1.392 . S
C1855 H1867 0.929 . S
C1856 C1852 1.531 . S
C1856 H1868 0.960 . S
C1856 H1869 0.962 . S
C1856 H1870 0.960 . S
C1857 C1854 1.511 . S
C1857 H1871 0.961 . S
C1857 H1872 0.961 . S
C1857 H1873 0.961 . S
C1858 C1859 1.370 . S
C1858 C1860 1.363 . S
C1858 H1874 0.931 . S
C1859 C1858 1.370 . S
C1859 C1863 1.408 . S
C1860 C1858 1.363 . S
C1860 C1861 1.370 . S
C1860 C1864 1.524 . S
C1861 C1853 1.503 . S
C1861 C1860 1.370 . S
C1861 C1862 1.403 . S
C1862 C1861 1.403 . S
C1862 C1863 1.404 . S
C1862 C1865 1.539 . S
C1863 C1859 1.408 . S
C1863 C1862 1.404 . S
C1863 H1875 0.930 . S
C1864 C1860 1.524 . S
C1864 H1876 0.956 . S
C1864 H1877 0.961 . S
C1864 H1878 0.961 . S
C1865 C1862 1.539 . S
C1865 H1879 0.958 . S
C1865 H1880 0.961 . S
C1865 H1881 0.960 . S
H1866 C1850 0.931 . S
H1867 C1855 0.929 . S
H1868 C1856 0.960 . S
H1869 C1856 0.962 . S
H1870 C1856 0.960 . S
H1871 C1857 0.961 . S
H1872 C1857 0.961 . S
H1873 C1857 0.961 . S
H1874 C1858 0.931 . S
H1875 C1863 0.930 . S
H1876 C1864 0.956 . S
H1877 C1864 0.961 . S
H1878 C1864 0.961 . S
H1879 C1865 0.958 . S
H1880 C1865 0.961 . S
H1881 C1865 0.960 . S
C1882 C1883 1.391 . S
C1882 C1884 1.394 . S
C1882 H1898 0.931 . S
C1883 C1882 1.391 . S
C1883 C1887 1.376 . S
C1884 C1882 1.394 . S
C1884 C1885 1.369 . S
C1884 C1888 1.531 . S
C1885 C1884 1.369 . S
C1885 C1886 1.410 . S
C1885 C1893 1.503 . S
C1886 C1885 1.410 . S
C1886 C1887 1.392 . S
C1886 C1889 1.511 . S
C1887 C1883 1.376 . S
C1887 C1886 1.392 . S
C1887 H1899 0.929 . S
C1888 C1884 1.531 . S
C1888 H1900 0.960 . S
C1888 H1901 0.962 . S
C1888 H1902 0.960 . S
C1889 C1886 1.511 . S
C1889 H1903 0.961 . S
C1889 H1904 0.961 . S
C1889 H1905 0.961 . S
C1890 C1891 1.370 . S
C1890 C1892 1.363 . S
C1890 H1906 0.931 . S
C1891 C1890 1.370 . S
C1891 C1895 1.408 . S
C1892 C1890 1.363 . S
C1892 C1893 1.370 . S
C1892 C1896 1.524 . S
C1893 C1885 1.503 . S
C1893 C1892 1.370 . S
C1893 C1894 1.403 . S
C1894 C1893 1.403 . S
C1894 C1895 1.404 . S
C1894 C1897 1.539 . S
C1895 C1891 1.408 . S
C1895 C1894 1.404 . S
C1895 H1907 0.930 . S
C1896 C1892 1.524 . S
C1896 H1908 0.956 . S
C1896 H1909 0.961 . S
C1896 H1910 0.961 . S
C1897 C1894 1.539 . S
C1897 H1911 0.958 . S
C1897 H1912 0.961 . S
C1897 H1913 0.960 . S
H1898 C1882 0.931 . S
H1899 C1887 0.929 . S
H1900 C1888 0.960 . S
H1901 C1888 0.962 . S
H1902 C1888 0.960 . S
H1903 C1889 0.961 . S
H1904 C1889 0.961 . S
H1905 C1889 0.961 . S
H1906 C1890 0.931 . S
H1907 C1895 0.930 . S
H1908 C1896 0.956 . S
H1909 C1896 0.961 . S
H1910 C1896 0.961 . S
H1911 C1897 0.958 . S
H1912 C1897 0.961 . S
H1913 C1897 0.960 . S
C1914 C1915 1.391 . S
C1914 C1916 1.394 . S
C1914 H1930 0.931 . S
C1915 C1914 1.391 . S
C1915 C1919 1.376 . S
C1916 C1914 1.394 . S
C1916 C1917 1.369 . S
C1916 C1920 1.531 . S
C1917 C1916 1.369 . S
C1917 C1918 1.410 . S
C1917 C1925 1.503 . S
C1918 C1917 1.410 . S
C1918 C1919 1.392 . S
C1918 C1921 1.511 . S
C1919 C1915 1.376 . S
C1919 C1918 1.392 . S
C1919 H1931 0.929 . S
C1920 C1916 1.531 . S
C1920 H1932 0.960 . S
C1920 H1933 0.962 . S
C1920 H1934 0.960 . S
C1921 C1918 1.511 . S
C1921 H1935 0.961 . S
C1921 H1936 0.961 . S
C1921 H1937 0.961 . S
C1922 C1923 1.370 . S
C1922 C1924 1.363 . S
C1922 H1938 0.931 . S
C1923 C1922 1.370 . S
C1923 C1927 1.408 . S
C1924 C1922 1.363 . S
C1924 C1925 1.370 . S
C1924 C1928 1.524 . S
C1925 C1917 1.503 . S
C1925 C1924 1.370 . S
C1925 C1926 1.403 . S
C1926 C1925 1.403 . S
C1926 C1927 1.404 . S
C1926 C1929 1.539 . S
C1927 C1923 1.408 . S
C1927 C1926 1.404 . S
C1927 H1939 0.930 . S
C1928 C1924 1.524 . S
C1928 H1940 0.956 . S
C1928 H1941 0.961 . S
C1928 H1942 0.961 . S
C1929 C1926 1.539 . S
C1929 H1943 0.958 . S
C1929 H1944 0.961 . S
C1929 H1945 0.960 . S
H1930 C1914 0.931 . S
H1931 C1919 0.929 . S
H1932 C1920 0.960 . S
H1933 C1920 0.962 . S
H1934 C1920 0.960 . S
H1935 C1921 0.961 . S
H1936 C1921 0.961 . S
H1937 C1921 0.961 . S
H1938 C1922 0.931 . S
H1939 C1927 0.930 . S
H1940 C1928 0.956 . S
H1941 C1928 0.961 . S
H1942 C1928 0.961 . S
H1943 C1929 0.958 . S
H1944 C1929 0.961 . S
H1945 C1929 0.960 . S
C1946 C1947 1.391 . S
C1946 C1948 1.394 . S
C1946 H1962 0.931 . S
C1947 C1946 1.391 . S
C1947 C1951 1.376 . S
C1948 C1946 1.394 . S
C1948 C1949 1.369 . S
C1948 C1952 1.531 . S
C1949 C1948 1.369 . S
C1949 C1950 1.410 . S
C1949 C1957 1.503 . S
C1950 C1949 1.410 . S
C1950 C1951 1.392 . S
C1950 C1953 1.511 . S
C1951 C1947 1.376 . S
C1951 C1950 1.392 . S
C1951 H1963 0.929 . S
C1952 C1948 1.531 . S
C1952 H1964 0.960 . S
C1952 H1965 0.962 . S
C1952 H1966 0.960 . S
C1953 C1950 1.511 . S
C1953 H1967 0.961 . S
C1953 H1968 0.961 . S
C1953 H1969 0.961 . S
C1954 C1955 1.370 . S
C1954 C1956 1.363 . S
C1954 H1970 0.931 . S
C1955 C1954 1.370 . S
C1955 C1959 1.408 . S
C1956 C1954 1.363 . S
C1956 C1957 1.370 . S
C1956 C1960 1.524 . S
C1957 C1949 1.503 . S
C1957 C1956 1.370 . S
C1957 C1958 1.403 . S
C1958 C1957 1.403 . S
C1958 C1959 1.404 . S
C1958 C1961 1.539 . S
C1959 C1955 1.408 . S
C1959 C1958 1.404 . S
C1959 H1971 0.930 . S
C1960 C1956 1.524 . S
C1960 H1972 0.956 . S
C1960 H1973 0.961 . S
C1960 H1974 0.961 . S
C1961 C1958 1.539 . S
C1961 H1975 0.958 . S
C1961 H1976 0.961 . S
C1961 H1977 0.960 . S
H1962 C1946 0.931 . S
H1963 C1951 0.929 . S
H1964 C1952 0.960 . S
H1965 C1952 0.962 . S
H1966 C1952 0.960 . S
H1967 C1953 0.961 . S
H1968 C1953 0.961 . S
H1969 C1953 0.961 . S
H1970 C1954 0.931 . S
H1971 C1959 0.930 . S
H1972 C1960 0.956 . S
H1973 C1960 0.961 . S
H1974 C1960 0.961 . S
H1975 C1961 0.958 . S
H1976 C1961 0.961 . S
H1977 C1961 0.960 . S
C1978 C1979 1.391 . S
C1978 C1980 1.394 . S
C1978 H1994 0.931 . S
C1979 C1978 1.391 . S
C1979 C1983 1.376 . S
C1980 C1978 1.394 . S
C1980 C1981 1.369 . S
C1980 C1984 1.531 . S
C1981 C1980 1.369 . S
C1981 C1982 1.410 . S
C1981 C1989 1.503 . S
C1982 C1981 1.410 . S
C1982 C1983 1.392 . S
C1982 C1985 1.511 . S
C1983 C1979 1.376 . S
C1983 C1982 1.392 . S
C1983 H1995 0.929 . S
C1984 C1980 1.531 . S
C1984 H1996 0.960 . S
C1984 H1997 0.962 . S
C1984 H1998 0.960 . S
C1985 C1982 1.511 . S
C1985 H1999 0.961 . S
C1985 H2000 0.961 . S
C1985 H2001 0.961 . S
C1986 C1987 1.370 . S
C1986 C1988 1.363 . S
C1986 H2002 0.931 . S
C1987 C1986 1.370 . S
C1987 C1991 1.408 . S
C1988 C1986 1.363 . S
C1988 C1989 1.370 . S
C1988 C1992 1.524 . S
C1989 C1981 1.503 . S
C1989 C1988 1.370 . S
C1989 C1990 1.403 . S
C1990 C1989 1.403 . S
C1990 C1991 1.404 . S
C1990 C1993 1.539 . S
C1991 C1987 1.408 . S
C1991 C1990 1.404 . S
C1991 H2003 0.930 . S
C1992 C1988 1.524 . S
C1992 H2004 0.956 . S
C1992 H2005 0.961 . S
C1992 H2006 0.961 . S
C1993 C1990 1.539 . S
C1993 H2007 0.958 . S
C1993 H2008 0.961 . S
C1993 H2009 0.960 . S
H1994 C1978 0.931 . S
H1995 C1983 0.929 . S
H1996 C1984 0.960 . S
H1997 C1984 0.962 . S
H1998 C1984 0.960 . S
H1999 C1985 0.961 . S
H2000 C1985 0.961 . S
H2001 C1985 0.961 . S
H2002 C1986 0.931 . S
H2003 C1991 0.930 . S
H2004 C1992 0.956 . S
H2005 C1992 0.961 . S
H2006 C1992 0.961 . S
H2007 C1993 0.958 . S
H2008 C1993 0.961 . S
H2009 C1993 0.960 . S
C2010 C2011 1.391 . S
C2010 C2012 1.394 . S
C2010 H2026 0.931 . S
C2011 C2010 1.391 . S
C2011 C2015 1.376 . S
C2012 C2010 1.394 . S
C2012 C2013 1.369 . S
C2012 C2016 1.531 . S
C2013 C2012 1.369 . S
C2013 C2014 1.410 . S
C2013 C2021 1.503 . S
C2014 C2013 1.410 . S
C2014 C2015 1.392 . S
C2014 C2017 1.511 . S
C2015 C2011 1.376 . S
C2015 C2014 1.392 . S
C2015 H2027 0.929 . S
C2016 C2012 1.531 . S
C2016 H2028 0.960 . S
C2016 H2029 0.962 . S
C2016 H2030 0.960 . S
C2017 C2014 1.511 . S
C2017 H2031 0.961 . S
C2017 H2032 0.961 . S
C2017 H2033 0.961 . S
C2018 C2019 1.370 . S
C2018 C2020 1.363 . S
C2018 H2034 0.931 . S
C2019 C2018 1.370 . S
C2019 C2023 1.408 . S
C2020 C2018 1.363 . S
C2020 C2021 1.370 . S
C2020 C2024 1.524 . S
C2021 C2013 1.503 . S
C2021 C2020 1.370 . S
C2021 C2022 1.403 . S
C2022 C2021 1.403 . S
C2022 C2023 1.404 . S
C2022 C2025 1.539 . S
C2023 C2019 1.408 . S
C2023 C2022 1.404 . S
C2023 H2035 0.930 . S
C2024 C2020 1.524 . S
C2024 H2036 0.956 . S
C2024 H2037 0.961 . S
C2024 H2038 0.961 . S
C2025 C2022 1.539 . S
C2025 H2039 0.958 . S
C2025 H2040 0.961 . S
C2025 H2041 0.960 . S
H2026 C2010 0.931 . S
H2027 C2015 0.929 . S
H2028 C2016 0.960 . S
H2029 C2016 0.962 . S
H2030 C2016 0.960 . S
H2031 C2017 0.961 . S
H2032 C2017 0.961 . S
H2033 C2017 0.961 . S
H2034 C2018 0.931 . S
H2035 C2023 0.930 . S
H2036 C2024 0.956 . S
H2037 C2024 0.961 . S
H2038 C2024 0.961 . S
H2039 C2025 0.958 . S
H2040 C2025 0.961 . S
H2041 C2025 0.960 . S
C2042 C2043 1.391 . S
C2042 C2044 1.394 . S
C2042 H2058 0.931 . S
C2043 C2042 1.391 . S
C2043 C2047 1.376 . S
C2044 C2042 1.394 . S
C2044 C2045 1.369 . S
C2044 C2048 1.531 . S
C2045 C2044 1.369 . S
C2045 C2046 1.410 . S
C2045 C2053 1.503 . S
C2046 C2045 1.410 . S
C2046 C2047 1.392 . S
C2046 C2049 1.511 . S
C2047 C2043 1.376 . S
C2047 C2046 1.392 . S
C2047 H2059 0.929 . S
C2048 C2044 1.531 . S
C2048 H2060 0.960 . S
C2048 H2061 0.962 . S
C2048 H2062 0.960 . S
C2049 C2046 1.511 . S
C2049 H2063 0.961 . S
C2049 H2064 0.961 . S
C2049 H2065 0.961 . S
C2050 C2051 1.370 . S
C2050 C2052 1.363 . S
C2050 H2066 0.931 . S
C2051 C2050 1.370 . S
C2051 C2055 1.408 . S
C2052 C2050 1.363 . S
C2052 C2053 1.370 . S
C2052 C2056 1.524 . S
C2053 C2045 1.503 . S
C2053 C2052 1.370 . S
C2053 C2054 1.403 . S
C2054 C2053 1.403 . S
C2054 C2055 1.404 . S
C2054 C2057 1.539 . S
C2055 C2051 1.408 . S
C2055 C2054 1.404 . S
C2055 H2067 0.930 . S
C2056 C2052 1.524 . S
C2056 H2068 0.956 . S
C2056 H2069 0.961 . S
C2056 H2070 0.961 . S
C2057 C2054 1.539 . S
C2057 H2071 0.958 . S
C2057 H2072 0.961 . S
C2057 H2073 0.960 . S
H2058 C2042 0.931 . S
H2059 C2047 0.929 . S
H2060 C2048 0.960 . S
H2061 C2048 0.962 . S
H2062 C2048 0.960 . S
H2063 C2049 0.961 . S
H2064 C2049 0.961 . S
H2065 C2049 0.961 . S
H2066 C2050 0.931 . S
H2067 C2055 0.930 . S
H2068 C2056 0.956 . S
H2069 C2056 0.961 . S
H2070 C2056 0.961 . S
H2071 C2057 0.958 . S
H2072 C2057 0.961 . S
H2073 C2057 0.960 . S
C2074 C2075 1.391 . S
C2074 C2076 1.394 . S
C2074 H2090 0.931 . S
C2075 C2074 1.391 . S
C2075 C2079 1.376 . S
C2076 C2074 1.394 . S
C2076 C2077 1.369 . S
C2076 C2080 1.531 . S
C2077 C2076 1.369 . S
C2077 C2078 1.410 . S
C2077 C2085 1.503 . S
C2078 C2077 1.410 . S
C2078 C2079 1.392 . S
C2078 C2081 1.511 . S
C2079 C2075 1.376 . S
C2079 C2078 1.392 . S
C2079 H2091 0.929 . S
C2080 C2076 1.531 . S
C2080 H2092 0.960 . S
C2080 H2093 0.962 . S
C2080 H2094 0.960 . S
C2081 C2078 1.511 . S
C2081 H2095 0.961 . S
C2081 H2096 0.961 . S
C2081 H2097 0.961 . S
C2082 C2083 1.370 . S
C2082 C2084 1.363 . S
C2082 H2098 0.931 . S
C2083 C2082 1.370 . S
C2083 C2087 1.408 . S
C2084 C2082 1.363 . S
C2084 C2085 1.370 . S
C2084 C2088 1.524 . S
C2085 C2077 1.503 . S
C2085 C2084 1.370 . S
C2085 C2086 1.403 . S
C2086 C2085 1.403 . S
C2086 C2087 1.404 . S
C2086 C2089 1.539 . S
C2087 C2083 1.408 . S
C2087 C2086 1.404 . S
C2087 H2099 0.930 . S
C2088 C2084 1.524 . S
C2088 H2100 0.956 . S
C2088 H2101 0.961 . S
C2088 H2102 0.961 . S
C2089 C2086 1.539 . S
C2089 H2103 0.958 . S
C2089 H2104 0.961 . S
C2089 H2105 0.960 . S
H2090 C2074 0.931 . S
H2091 C2079 0.929 . S
H2092 C2080 0.960 . S
H2093 C2080 0.962 . S
H2094 C2080 0.960 . S
H2095 C2081 0.961 . S
H2096 C2081 0.961 . S
H2097 C2081 0.961 . S
H2098 C2082 0.931 . S
H2099 C2087 0.930 . S
H2100 C2088 0.956 . S
H2101 C2088 0.961 . S
H2102 C2088 0.961 . S
H2103 C2089 0.958 . S
H2104 C2089 0.961 . S
H2105 C2089 0.960 . S
C379 C151 1.263 . S
C387 C204 1.296 . S
C411 C159 1.628 . S
C419 C224 1.718 . S
C443 C137 1.435 . S
C451 C247 1.538 . S
C475 C126 1.268 . S
C483 C227 1.433 1_556 S
C515 C244 1.700 . S
C507 C104 1.593 . S
C539 C118 1.239 . S
C547 C207 1.258 . S
C579 C214 1.491 . S
C571 C129 1.527 . S
C611 C234 1.530 . S
C603 C107 1.533 . S
C635 C115 1.273 . S
C643 C239 1.539 . S
C667 C148 1.180 . S
C675 C219 1.420 . S
C699 C162 1.515 . S
C707 C254 1.486 . S
C739 C199 1.475 . S
C731 C140 1.475 . S
C771 C264 1.278 . S
C763 C19 1.312 . S
C795 C27 1.624 . S
C803 C284 1.715 . S
C827 C5 1.379 . S
C835 C307 1.538 . S
C859 C192 1.321 . S
C867 C287 1.436 . S
C891 C170 1.569 . S
C899 C304 1.697 . S
C923 C184 1.256 . S
C931 C267 1.254 . S
C955 C195 1.518 . S
C963 C274 1.502 . S
C987 C173 1.535 . S
C995 C294 1.523 . S
C1027 C299 1.541 . S
C1019 C181 1.229 . S
C1051 C16 1.149 . S
C1059 C279 1.423 . S
C1091 C314 1.492 . S
C1083 C30 1.512 . S
C1115 C8 1.475 . S
C1123 C259 1.479 . S
C1155 C324 1.299 . S
C1147 C85 1.261 . S
C1179 C93 1.626 . S
C1187 C344 1.722 . S
C1219 C367 1.530 . S
C1211 C71 1.338 . S
C1251 C347 1.425 . S
C1243 C60 1.301 . S
C1283 C364 1.704 . S
C1275 C38 1.537 . S
C1307 C52 1.256 . S
C1315 C327 1.253 . S
C1339 C63 1.522 . S
C1347 C334 1.505 . S
C1371 C41 1.539 . S
C1379 C354 1.508 . S
C1411 C359 1.539 . S
C1403 C49 1.243 . S
C1435 C82 1.136 . S
C1443 C339 1.425 . S
C1467 C96 1.518 . S
C1475 C374 1.504 . S
C1499 C74 1.485 . S
C1507 C319 1.472 . S
C1531 C172 1.489 . S
C1539 C217 1.504 . S
C1571 C237 1.443 . S
C1563 C183 1.382 . S
C1595 C194 1.518 . S
C1603 C246 1.464 . S
C1627 C73 1.664 . S
C1635 C226 1.643 . S
C1659 C84 1.215 . S
C1667 C257 1.264 . S
C1699 C206 1.469 . S
C1691 C95 1.457 . S
C1723 C40 1.509 . S
C1731 C277 1.506 . S
C1755 C51 1.454 . S
C1763 C297 1.412 . S
C1787 C62 1.499 . S
C1795 C306 1.483 . S
C1819 C139 1.664 . S
C1827 C286 1.643 . S
C1859 C317 1.239 . S
C1851 C150 1.256 . S
C1883 C161 1.486 . S
C1891 C266 1.461 . S
C1915 C106 1.514 . S
C1923 C337 1.501 . S
C1947 C117 1.443 . S
C1955 C357 1.422 . S
C1987 C366 1.478 . S
C1979 C128 1.480 . S
C2011 C7 1.686 . S
C2019 C346 1.643 . S
C2043 C18 1.279 . S
C2051 C377 1.235 . S
C2075 C29 1.485 . S
C2083 C326 1.462 . S
