# Generated by pormake.
# Topology ssa, (4,4)-cn, num edge types: 1
# Building blocks:
#     Node 0, Type 0, BuildingBlock: NAWXER_clean_sbu_0, # of connection points: 4
#     Node 1, Type 0, BuildingBlock: NAWXER_clean_sbu_0, # of connection points: 4
#     Node 2, Type 0, BuildingBlock: NAWXER_clean_sbu_0, # of connection points: 4
#     Node 3, Type 0, BuildingBlock: NAWXER_clean_sbu_0, # of connection points: 4
#     Node 4, Type 0, BuildingBlock: NAWXER_clean_sbu_0, # of connection points: 4
#     Node 5, Type 0, BuildingBlock: NAWXER_clean_sbu_0, # of connection points: 4
#     Node 6, Type 1, BuildingBlock: KOZSID_clean_sbu_0, # of connection points: 4
#     Node 7, Type 1, BuildingBlock: KOZSID_clean_sbu_0, # of connection points: 4
#     Node 8, Type 1, BuildingBlock: KOZSID_clean_sbu_0, # of connection points: 4
#     Node 9, Type 1, BuildingBlock: KOZSID_clean_sbu_0, # of connection points: 4
#     Node 10, Type 1, BuildingBlock: KOZSID_clean_sbu_0, # of connection points: 4
#     Node 11, Type 1, BuildingBlock: KOZSID_clean_sbu_0, # of connection points: 4
#     Edge 12, Type (0, 1), BuildingBlock: EZIPEK_clean_linker_0, # of connection points: 2
#     Edge 13, Type (0, 1), BuildingBlock: EZIPEK_clean_linker_0, # of connection points: 2
#     Edge 14, Type (0, 1), BuildingBlock: EZIPEK_clean_linker_0, # of connection points: 2
#     Edge 15, Type (0, 1), BuildingBlock: EZIPEK_clean_linker_0, # of connection points: 2
#     Edge 16, Type (0, 1), BuildingBlock: EZIPEK_clean_linker_0, # of connection points: 2
#     Edge 17, Type (0, 1), BuildingBlock: EZIPEK_clean_linker_0, # of connection points: 2
#     Edge 18, Type (0, 1), BuildingBlock: EZIPEK_clean_linker_0, # of connection points: 2
#     Edge 19, Type (0, 1), BuildingBlock: EZIPEK_clean_linker_0, # of connection points: 2
#     Edge 20, Type (0, 1), BuildingBlock: EZIPEK_clean_linker_0, # of connection points: 2
#     Edge 21, Type (0, 1), BuildingBlock: EZIPEK_clean_linker_0, # of connection points: 2
#     Edge 22, Type (0, 1), BuildingBlock: EZIPEK_clean_linker_0, # of connection points: 2
#     Edge 23, Type (0, 1), BuildingBlock: EZIPEK_clean_linker_0, # of connection points: 2
#     Edge 24, Type (0, 1), BuildingBlock: EZIPEK_clean_linker_0, # of connection points: 2
#     Edge 25, Type (0, 1), BuildingBlock: EZIPEK_clean_linker_0, # of connection points: 2
#     Edge 26, Type (0, 1), BuildingBlock: EZIPEK_clean_linker_0, # of connection points: 2
#     Edge 27, Type (0, 1), BuildingBlock: EZIPEK_clean_linker_0, # of connection points: 2
#     Edge 28, Type (0, 1), BuildingBlock: EZIPEK_clean_linker_0, # of connection points: 2
#     Edge 29, Type (0, 1), BuildingBlock: EZIPEK_clean_linker_0, # of connection points: 2
#     Edge 30, Type (0, 1), BuildingBlock: EZIPEK_clean_linker_0, # of connection points: 2
#     Edge 31, Type (0, 1), BuildingBlock: EZIPEK_clean_linker_0, # of connection points: 2
#     Edge 32, Type (0, 1), BuildingBlock: EZIPEK_clean_linker_0, # of connection points: 2
#     Edge 33, Type (0, 1), BuildingBlock: EZIPEK_clean_linker_0, # of connection points: 2
#     Edge 34, Type (0, 1), BuildingBlock: EZIPEK_clean_linker_0, # of connection points: 2
#     Edge 35, Type (0, 1), BuildingBlock: EZIPEK_clean_linker_0, # of connection points: 2
# Relax obj value: 0.023
# Max RMSD: 0.069
# Mean RMSD: 0.032
data_MOF--net-ssa--node1-NAWXER_clean_sbu_0--node2-KOZSID_clean_sbu_0--edge1-EZIPEK_clean_linker_0
_symmetry_space_group_name_H-M    P1
_symmetry_Int_Tables_number       1
_symmetry_cell_setting            triclinic
loop_
_symmetry_equiv_pos_as_xyz
'x, y, z'
_cell_length_a     39.668426
_cell_length_b     39.785374
_cell_length_c     27.818916
_cell_angle_alpha  94.365346
_cell_angle_beta   94.575976
_cell_angle_gamma 120.12175
loop_
_atom_site_label
_atom_site_type_symbol
_atom_site_fract_x
_atom_site_fract_y
_atom_site_fract_z
_atom_type_partial_charge
C0 C 0.03738 0.57468 0.09391 0.0
C1 C 0.9342 0.44362 0.02022 0.0
O2 O 1.0046 0.55267 0.10839 0.0
Zn3 Zn 0.98563 0.50837 0.0581 0.0
O4 O 0.0453 0.56354 0.05409 0.0
Zn5 Zn 0.01825 0.51356 0.99903 0.0
O6 O 0.0078 0.53397 0.94059 0.0
O7 O 0.96864 0.52785 0.99517 0.0
O8 O 0.96271 0.45975 0.99504 0.0
O9 O 0.93592 0.46092 0.06149 0.0
O10 O 0.02891 0.49075 0.06977 0.0
O11 O 0.0575 0.49731 0.00356 0.0
C12 C 0.97826 0.53552 0.9527 0.0
C13 C 0.05461 0.48843 0.04665 0.0
C14 C 0.51375 0.04888 0.54789 0.0
C15 C 0.53996 0.95444 0.45668 0.0
O16 O 0.51325 0.02276 0.57262 0.0
Zn17 Zn 0.51877 0.97135 0.56202 0.0
O18 O 0.5205 0.04802 0.5039 0.0
Zn19 Zn 0.52999 0.00438 0.50221 0.0
O20 O 0.47136 0.95847 0.50071 0.0
O21 O 0.46453 0.93051 0.56742 0.0
O22 O 0.54521 0.98686 0.44493 0.0
O23 O 0.53057 0.94554 0.49894 0.0
O24 O 0.56237 0.98588 0.61276 0.0
O25 O 0.57889 0.02682 0.55792 0.0
C26 C 0.44941 0.9329 0.52663 0.0
C27 C 0.58728 0.0177 0.59847 0.0
C28 C 0.484 0.43301 0.93633 0.0
C29 C 0.52219 0.55811 0.03628 0.0
O30 O 0.47713 0.45959 0.92487 0.0
Zn31 Zn 0.50104 0.49543 0.98573 0.0
O32 O 0.4994 0.4358 0.97979 0.0
Zn33 Zn 0.52114 0.47688 0.04559 0.0
O34 O 0.48511 0.44893 0.09104 0.0
O35 O 0.45971 0.46946 0.03527 0.0
O36 O 0.52933 0.53513 0.05939 0.0
O37 O 0.5071 0.54742 0.99171 0.0
O38 O 0.56047 0.50789 0.98916 0.0
O39 O 0.57462 0.48759 0.05568 0.0
C40 C 0.45726 0.45369 0.07426 0.0
C41 C 0.58455 0.50291 0.01687 0.0
C42 C 0.06453 0.57408 0.49602 0.0
C43 C 0.97565 0.45517 0.57046 0.0
O44 O 0.07013 0.56788 0.53944 0.0
Zn45 Zn 0.02157 0.51588 0.53638 0.0
O46 O 0.03239 0.5494 0.46872 0.0
Zn47 Zn 0.97951 0.49441 0.47193 0.0
O48 O 0.93896 0.50829 0.46689 0.0
O49 O 0.97571 0.52899 0.53855 0.0
O50 O 0.96163 0.45647 0.52795 0.0
O51 O 0.01019 0.48237 0.58886 0.0
O52 O 0.03137 0.48445 0.47911 0.0
O53 O 0.98273 0.46206 0.41865 0.0
C54 C 0.94577 0.52405 0.51077 0.0
C55 C 0.01563 0.46656 0.43599 0.0
C56 C 0.50038 0.94642 0.98475 0.0
C57 C 0.46731 0.04362 0.93884 0.0
O58 O 0.51198 0.97518 0.01845 0.0
Zn59 Zn 0.50954 0.02783 0.03083 0.0
O60 O 0.48241 0.94534 0.94418 0.0
Zn61 Zn 0.48183 0.99315 0.96229 0.0
O62 O 0.54265 0.03769 0.96403 0.0
O63 O 0.56579 0.06873 0.03856 0.0
O64 O 0.45845 0.01115 0.91481 0.0
O65 O 0.48378 0.05171 0.98311 0.0
O66 O 0.47997 0.01605 0.08648 0.0
O67 O 0.44497 0.97481 0.0202 0.0
C68 C 0.57115 0.06486 0.99444 0.0
C69 C 0.44845 0.98554 0.06593 0.0
C70 C 0.57134 0.52838 0.54956 0.0
C71 C 0.43925 0.4825 0.45912 0.0
O72 O 0.54297 0.53015 0.5656 0.0
Zn73 Zn 0.50576 0.5087 0.50548 0.0
O74 O 0.56873 0.51837 0.50384 0.0
Zn75 Zn 0.52482 0.49785 0.43991 0.0
O76 O 0.54499 0.53798 0.39738 0.0
O77 O 0.52689 0.55624 0.46243 0.0
O78 O 0.46444 0.48327 0.43238 0.0
O79 O 0.44995 0.49272 0.50477 0.0
O80 O 0.50178 0.45314 0.49272 0.0
O81 O 0.52051 0.44752 0.42121 0.0
C82 C 0.53957 0.56306 0.42117 0.0
C83 C 0.5087 0.43367 0.46032 0.0
C84 C 0.20689 0.49544 0.17183 0.0
C85 C 0.21784 0.53131 0.15581 0.0
C86 C 0.24969 0.55903 0.18729 0.0
C87 C 0.25667 0.53853 0.22014 0.0
N88 N 0.23177 0.49934 0.21112 0.0
Co89 Co 0.2332 0.45869 0.24839 0.0
N90 N 0.27869 0.49978 0.2965 0.0
C91 C 0.29563 0.53911 0.29791 0.0
C92 C 0.32833 0.56016 0.3319 0.0
C93 C 0.33299 0.53281 0.35319 0.0
C94 C 0.30235 0.49626 0.33138 0.0
N95 N 0.23568 0.4181 0.28489 0.0
C96 C 0.26226 0.42217 0.32237 0.0
C97 C 0.25367 0.38608 0.33572 0.0
C98 C 0.22147 0.35822 0.30459 0.0
C99 C 0.21204 0.37873 0.27424 0.0
N100 N 0.18694 0.41791 0.20081 0.0
C101 C 0.16838 0.37861 0.20089 0.0
C102 C 0.13455 0.35826 0.16834 0.0
C103 C 0.13086 0.38618 0.14671 0.0
C104 C 0.16304 0.42217 0.16686 0.0
N105 N 0.27072 0.45624 0.20698 0.0
C106 C 0.32917 0.45108 0.16157 0.0
C107 C 0.29381 0.41744 0.16578 0.0
C108 C 0.26492 0.42072 0.18752 0.0
C109 C 0.33414 0.48754 0.17808 0.0
C110 C 0.30476 0.48945 0.2007 0.0
N111 N 0.19531 0.46033 0.29 0.0
C112 C 0.13541 0.42476 0.32588 0.0
C113 C 0.13513 0.459 0.3387 0.0
C114 C 0.16614 0.49443 0.32839 0.0
C115 C 0.19602 0.49447 0.30437 0.0
C116 C 0.16561 0.42613 0.30231 0.0
H117 H 0.21879 0.52214 0.29664 0.0
H118 H 0.16355 0.39876 0.29364 0.0
H119 H 0.23854 0.39397 0.18919 0.0
H120 H 0.31061 0.51799 0.21387 0.0
C121 C 0.28468 0.5553 0.26147 0.0
C122 C 0.16949 0.45973 0.15318 0.0
C123 C 0.2979 0.45911 0.34363 0.0
C124 C 0.1814 0.36207 0.23517 0.0
H125 H 0.20299 0.53703 0.12599 0.0
H126 H 0.26503 0.59048 0.18728 0.0
H127 H 0.34799 0.59165 0.3382 0.0
H128 H 0.3573 0.53947 0.38032 0.0
H129 H 0.26988 0.38047 0.36397 0.0
H130 H 0.20717 0.32672 0.30352 0.0
H131 H 0.11408 0.32693 0.16249 0.0
H132 H 0.10679 0.38063 0.11982 0.0
H133 H 0.28866 0.38867 0.15271 0.0
H134 H 0.36108 0.51435 0.17481 0.0
H135 H 0.112 0.39682 0.33353 0.0
H136 H 0.16693 0.52173 0.3381 0.0
C137 C 0.71401 0.19089 0.69919 0.0
C138 C 0.68448 0.18978 0.66764 0.0
C139 C 0.68796 0.2259 0.67631 0.0
C140 C 0.71939 0.24694 0.71245 0.0
N141 N 0.73584 0.22627 0.72683 0.0
Co142 Co 0.78101 0.24447 0.77855 0.0
N143 N 0.77385 0.28729 0.80734 0.0
C144 C 0.75095 0.29976 0.78658 0.0
C145 C 0.74793 0.32634 0.81762 0.0
C146 C 0.77094 0.33147 0.86015 0.0
C147 C 0.78745 0.30822 0.85237 0.0
N148 N 0.82675 0.26281 0.82961 0.0
C149 C 0.83967 0.28975 0.86985 0.0
C150 C 0.87568 0.2968 0.8923 0.0
C151 C 0.88539 0.27351 0.86525 0.0
C152 C 0.85523 0.25382 0.82763 0.0
N153 N 0.78731 0.20106 0.74991 0.0
C154 C 0.81954 0.19805 0.7571 0.0
C155 C 0.814 0.16334 0.73458 0.0
C156 C 0.77585 0.14333 0.71187 0.0
C157 C 0.76043 0.16722 0.72162 0.0
N158 N 0.81691 0.2799 0.73605 0.0
C159 C 0.86863 0.33263 0.67789 0.0
C160 C 0.83972 0.29418 0.65779 0.0
C161 C 0.81416 0.26823 0.68753 0.0
C162 C 0.87128 0.34382 0.72744 0.0
C163 C 0.84546 0.31719 0.7556 0.0
N164 N 0.74549 0.20973 0.82143 0.0
C165 C 0.73209 0.16567 0.88191 0.0
C166 C 0.69557 0.16259 0.88526 0.0
C167 C 0.6847 0.18369 0.85609 0.0
C168 C 0.71003 0.20714 0.8248 0.0
C169 C 0.75634 0.18896 0.84941 0.0
H170 H 0.70078 0.22323 0.8034 0.0
H171 H 0.784 0.19034 0.84714 0.0
H172 H 0.79209 0.23885 0.6713 0.0
H173 H 0.84879 0.32696 0.79343 0.0
C174 C 0.72787 0.28132 0.74132 0.0
C175 C 0.72111 0.15829 0.70166 0.0
C176 C 0.82123 0.31253 0.88438 0.0
C177 C 0.85087 0.22424 0.79258 0.0
H178 H 0.66237 0.16524 0.64181 0.0
H179 H 0.6683 0.23474 0.66042 0.0
H180 H 0.7302 0.33952 0.81069 0.0
H181 H 0.77645 0.35148 0.89239 0.0
H182 H 0.89391 0.31747 0.924 0.0
H183 H 0.91132 0.27118 0.8723 0.0
H184 H 0.83447 0.15287 0.73659 0.0
H185 H 0.76111 0.11455 0.6907 0.0
H186 H 0.83667 0.28447 0.61943 0.0
H187 H 0.89314 0.37322 0.74434 0.0
H188 H 0.74164 0.14993 0.90401 0.0
H189 H 0.65679 0.1822 0.85768 0.0
C190 C 0.50227 0.69788 0.14687 0.0
C191 C 0.46642 0.66899 0.12115 0.0
C192 C 0.43916 0.67876 0.13236 0.0
C193 C 0.45984 0.71299 0.16399 0.0
N194 N 0.49839 0.72535 0.17366 0.0
Co195 Co 0.53883 0.77431 0.21613 0.0
N196 N 0.49795 0.78009 0.24719 0.0
C197 C 0.45904 0.75997 0.2312 0.0
C198 C 0.43757 0.76893 0.26032 0.0
C199 C 0.46459 0.79701 0.29662 0.0
C200 C 0.50132 0.80414 0.28714 0.0
N201 N 0.57925 0.82393 0.25802 0.0
C202 C 0.57571 0.84579 0.29523 0.0
C203 C 0.61139 0.88002 0.31125 0.0
C204 C 0.63801 0.8798 0.28306 0.0
C205 C 0.61726 0.84572 0.25128 0.0
N206 N 0.57951 0.76823 0.18542 0.0
C207 C 0.61767 0.79595 0.18778 0.0
C208 C 0.63913 0.7828 0.16493 0.0
C209 C 0.61278 0.7444 0.14676 0.0
C210 C 0.57656 0.7364 0.15928 0.0
N211 N 0.53641 0.80469 0.16511 0.0
C212 C 0.52597 0.84437 0.09218 0.0
C213 C 0.53014 0.85829 0.14114 0.0
C214 C 0.53555 0.83814 0.17693 0.0
C215 C 0.52849 0.81106 0.08008 0.0
C216 C 0.53405 0.7918 0.11718 0.0
N217 N 0.54118 0.74313 0.26616 0.0
C218 C 0.57927 0.726 0.31995 0.0
C219 C 0.54544 0.69041 0.32418 0.0
C220 C 0.5092 0.68298 0.30113 0.0
C221 C 0.50762 0.71008 0.27343 0.0
C222 C 0.5766 0.7516 0.2901 0.0
H223 H 0.47927 0.70335 0.25626 0.0
H224 H 0.60343 0.77751 0.28513 0.0
H225 H 0.53851 0.84932 0.21409 0.0
H226 H 0.5356 0.76603 0.10689 0.0
C227 C 0.44335 0.73044 0.1914 0.0
C228 C 0.53957 0.69936 0.14273 0.0
C229 C 0.53854 0.83756 0.31279 0.0
C230 C 0.63315 0.83162 0.21772 0.0
H231 H 0.46061 0.64359 0.09677 0.0
H232 H 0.40779 0.66209 0.12031 0.0
H233 H 0.40598 0.75628 0.25594 0.0
H234 H 0.45808 0.81162 0.32569 0.0
H235 H 0.61741 0.90334 0.33945 0.0
H236 H 0.66887 0.90183 0.28558 0.0
H237 H 0.67044 0.79876 0.16317 0.0
H238 H 0.6194 0.7247 0.12628 0.0
H239 H 0.5285 0.88418 0.15161 0.0
H240 H 0.5255 0.79969 0.04237 0.0
H241 H 0.60775 0.73317 0.33796 0.0
H242 H 0.48225 0.65606 0.30401 0.0
C243 C 0.73181 0.57352 0.7051 0.0
C244 C 0.73262 0.60854 0.70153 0.0
C245 C 0.7632 0.63651 0.73464 0.0
C246 C 0.77924 0.61716 0.7568 0.0
N247 N 0.76113 0.57874 0.73941 0.0
Co248 Co 0.77386 0.54021 0.7653 0.0
N249 N 0.82514 0.5825 0.8021 0.0
C250 C 0.83672 0.62078 0.81049 0.0
C251 C 0.87429 0.64363 0.83445 0.0
C252 C 0.88722 0.61817 0.84216 0.0
C253 C 0.8565 0.58096 0.82298 0.0
N254 N 0.78616 0.50172 0.79205 0.0
C255 C 0.82003 0.50689 0.81606 0.0
C256 C 0.81453 0.47189 0.83003 0.0
C257 C 0.77606 0.44398 0.81443 0.0
C258 C 0.76012 0.46334 0.79204 0.0
N259 N 0.72276 0.49779 0.72793 0.0
C260 C 0.70486 0.45949 0.73338 0.0
C261 C 0.67059 0.43661 0.70214 0.0
C262 C 0.66616 0.46207 0.67565 0.0
C263 C 0.69779 0.49933 0.69277 0.0
N264 N 0.80064 0.54031 0.70907 0.0
C265 C 0.8445 0.54134 0.63451 0.0
C266 C 0.82035 0.50648 0.653 0.0
C267 C 0.79801 0.50641 0.68929 0.0
C268 C 0.84482 0.57534 0.65254 0.0
C269 C 0.8235 0.57442 0.6906 0.0
N270 N 0.7472 0.53999 0.82179 0.0
C271 C 0.74171 0.53536 0.90703 0.0
C272 C 0.70524 0.53294 0.90008 0.0
C273 C 0.69077 0.53543 0.85398 0.0
C274 C 0.71218 0.53895 0.81548 0.0
C275 C 0.7624 0.53923 0.86738 0.0
H276 H 0.69994 0.54007 0.78046 0.0
H277 H 0.79016 0.54062 0.87342 0.0
H278 H 0.7793 0.47895 0.702 0.0
H279 H 0.82626 0.60155 0.7056 0.0
C280 C 0.81364 0.63474 0.79 0.0
C281 C 0.70021 0.53551 0.67897 0.0
C282 C 0.85686 0.54477 0.82994 0.0
C283 C 0.72289 0.44563 0.76481 0.0
H284 H 0.71264 0.6133 0.67826 0.0
H285 H 0.77285 0.66738 0.74136 0.0
H286 H 0.89074 0.67518 0.84403 0.0
H287 H 0.91575 0.62605 0.86068 0.0
H288 H 0.83593 0.46703 0.84985 0.0
H289 H 0.76174 0.41307 0.81793 0.0
H290 H 0.65133 0.40511 0.69861 0.0
H291 H 0.6417 0.4542 0.64804 0.0
H292 H 0.81894 0.47943 0.63963 0.0
H293 H 0.86275 0.60277 0.6387 0.0
H294 H 0.75363 0.53348 0.94246 0.0
H295 H 0.66254 0.53357 0.84749 0.0
C296 C 0.27867 0.84313 0.37571 0.0
C297 C 0.27148 0.87005 0.40053 0.0
C298 C 0.2463 0.87491 0.36914 0.0
C299 C 0.23881 0.8502 0.32736 0.0
N300 N 0.25736 0.82974 0.33084 0.0
Co301 Co 0.24998 0.78656 0.28248 0.0
N302 N 0.20188 0.78189 0.24774 0.0
C303 C 0.19128 0.80915 0.2506 0.0
C304 C 0.15586 0.7969 0.22289 0.0
C305 C 0.1435 0.75965 0.2014 0.0
C306 C 0.17223 0.75136 0.21729 0.0
N307 N 0.24181 0.74275 0.23473 0.0
C308 C 0.20847 0.71515 0.20614 0.0
C309 C 0.21494 0.68894 0.1785 0.0
C310 C 0.25396 0.70086 0.19036 0.0
C311 C 0.26896 0.73354 0.22446 0.0
N312 N 0.29873 0.79174 0.31608 0.0
C313 C 0.32044 0.77824 0.29661 0.0
C314 C 0.35466 0.78916 0.32606 0.0
C315 C 0.35474 0.81127 0.36631 0.0
C316 C 0.32019 0.81238 0.35939 0.0
N317 N 0.21815 0.74859 0.32538 0.0
C318 C 0.17268 0.6943 0.3868 0.0
C319 C 0.2059 0.69521 0.37116 0.0
C320 C 0.22752 0.72176 0.33967 0.0
C321 C 0.16329 0.72179 0.37161 0.0
C322 C 0.18673 0.74903 0.34189 0.0
N323 N 0.28227 0.82475 0.23978 0.0
C324 C 0.29665 0.84369 0.1598 0.0
C325 C 0.33252 0.8772 0.18002 0.0
C326 C 0.34216 0.88422 0.23064 0.0
C327 C 0.31681 0.85784 0.25959 0.0
C328 C 0.27191 0.81794 0.19028 0.0
H329 H 0.3258 0.86374 0.29809 0.0
H330 H 0.24478 0.79211 0.17372 0.0
H331 H 0.25177 0.72041 0.32677 0.0
H332 H 0.17906 0.77023 0.33197 0.0
C333 C 0.20985 0.84074 0.28804 0.0
C334 C 0.31079 0.83643 0.39225 0.0
C335 C 0.17127 0.71482 0.20225 0.0
C336 C 0.30568 0.75195 0.25338 0.0
H337 H 0.28435 0.88575 0.43681 0.0
H338 H 0.23397 0.89333 0.37652 0.0
H339 H 0.13966 0.81212 0.22103 0.0
H340 H 0.11627 0.7406 0.17749 0.0
H341 H 0.19376 0.66401 0.15246 0.0
H342 H 0.26908 0.68644 0.17719 0.0
H343 H 0.37671 0.78161 0.31943 0.0
H344 H 0.37815 0.82564 0.39663 0.0
H345 H 0.21438 0.67463 0.38206 0.0
H346 H 0.13796 0.72225 0.38273 0.0
H347 H 0.28815 0.83714 0.12074 0.0
H348 H 0.36962 0.90963 0.24773 0.0
C349 C 0.44877 0.28535 0.76274 0.0
C350 C 0.41269 0.28334 0.75938 0.0
C351 C 0.38939 0.25601 0.7202 0.0
C352 C 0.41243 0.24292 0.70173 0.0
N353 N 0.44868 0.25977 0.72718 0.0
Co354 Co 0.49161 0.25046 0.70994 0.0
N355 N 0.45444 0.20242 0.66389 0.0
C356 C 0.41749 0.19192 0.64582 0.0
C357 C 0.39901 0.15789 0.6137 0.0
C358 C 0.42611 0.14632 0.61105 0.0
C359 C 0.4597 0.17403 0.64189 0.0
N360 N 0.53477 0.24178 0.69234 0.0
C361 C 0.53311 0.20955 0.66938 0.0
C362 C 0.57062 0.21575 0.66683 0.0
C363 C 0.59657 0.25348 0.68761 0.0
C364 C 0.57363 0.26807 0.70212 0.0
N365 N 0.52896 0.29867 0.75622 0.0
C366 C 0.5685 0.31813 0.75931 0.0
C367 C 0.58694 0.35013 0.79459 0.0
C368 C 0.55726 0.3514 0.81482 0.0
C369 C 0.52216 0.32025 0.79019 0.0
N370 N 0.48307 0.21784 0.76237 0.0
C371 C 0.47008 0.16196 0.82555 0.0
C372 C 0.5083 0.18977 0.81806 0.0
C373 C 0.51418 0.21807 0.78766 0.0
C374 C 0.43865 0.16428 0.80287 0.0
C375 C 0.44566 0.19167 0.77051 0.0
N376 N 0.49957 0.28197 0.6565 0.0
C377 C 0.50825 0.29039 0.57257 0.0
C378 C 0.50553 0.32405 0.57857 0.0
C379 C 0.50062 0.33681 0.62421 0.0
C380 C 0.49781 0.31537 0.6626 0.0
C381 C 0.505 0.26967 0.61199 0.0
H382 H 0.49336 0.32525 0.6969 0.0
H383 H 0.50622 0.24337 0.60614 0.0
H384 H 0.54395 0.23924 0.78339 0.0
H385 H 0.42059 0.19071 0.75103 0.0
C386 C 0.39998 0.21233 0.66383 0.0
C387 C 0.48339 0.31494 0.79673 0.0
C388 C 0.49686 0.17402 0.64613 0.0
C389 C 0.58738 0.30319 0.7324 0.0
H390 H 0.4044 0.30057 0.78212 0.0
H391 H 0.35915 0.2466 0.70703 0.0
H392 H 0.36916 0.14287 0.5951 0.0
H393 H 0.42187 0.12077 0.58845 0.0
H394 H 0.57856 0.19531 0.6514 0.0
H395 H 0.62835 0.26796 0.69334 0.0
H396 H 0.61827 0.3698 0.80501 0.0
H397 H 0.56108 0.37335 0.84366 0.0
H398 H 0.53359 0.18955 0.83553 0.0
H399 H 0.40872 0.14397 0.80853 0.0
H400 H 0.51228 0.27995 0.53763 0.0
H401 H 0.49871 0.36301 0.63003 0.0
C402 C 0.09296 0.45257 0.05123 0.0
C403 C 0.08356 0.4799 0.07283 0.0
C404 C 0.12407 0.48708 0.14882 0.0
C405 C 0.13723 0.46352 0.12574 0.0
N406 N 0.14074 0.43151 0.05069 0.0
N407 N 0.10147 0.53239 0.13756 0.0
C408 C 0.12352 0.44837 0.07564 0.0
C409 C 0.10216 0.49966 0.12046 0.0
N410 N 0.07205 0.42969 0.00827 0.0
N411 N 0.13288 0.49795 0.19799 0.0
H412 H 0.08891 0.54484 0.11646 0.0
H413 H 0.11786 0.55013 0.17004 0.0
H414 H 0.14785 0.48835 0.22019 0.0
H415 H 0.12187 0.51305 0.21709 0.0
H416 H 0.07524 0.40677 0.99337 0.0
H417 H 0.04885 0.43106 0.99003 0.0
H418 H 0.13465 0.42357 0.01307 0.0
H419 H 0.16364 0.42868 0.06699 0.0
C420 C 0.62228 0.06369 0.67684 0.0
C421 C 0.624 0.04757 0.63023 0.0
C422 C 0.69092 0.10315 0.63129 0.0
C423 C 0.68992 0.11793 0.67885 0.0
N424 N 0.65878 0.1074 0.75143 0.0
N425 N 0.66329 0.0467 0.56902 0.0
C426 C 0.65699 0.09636 0.70317 0.0
C427 C 0.65957 0.0656 0.60954 0.0
N428 N 0.58714 0.05018 0.69449 0.0
N429 N 0.72063 0.12577 0.60581 0.0
H430 H 0.64099 0.01883 0.55287 0.0
H431 H 0.68966 0.0568 0.55463 0.0
H432 H 0.74389 0.15363 0.62027 0.0
H433 H 0.72054 0.11823 0.56909 0.0
H434 H 0.58375 0.06422 0.72527 0.0
H435 H 0.5605 0.02716 0.67641 0.0
H436 H 0.63684 0.09096 0.77219 0.0
H437 H 0.68402 0.13093 0.77173 0.0
C438 C 0.54694 0.6312 0.04378 0.0
C439 C 0.52812 0.59514 0.06332 0.0
C440 C 0.5249 0.62995 0.13814 0.0
C441 C 0.53885 0.66464 0.11619 0.0
N442 N 0.55523 0.69585 0.04354 0.0
N443 N 0.48873 0.55939 0.12384 0.0
C444 C 0.54765 0.66464 0.06763 0.0
C445 C 0.51443 0.59428 0.10926 0.0
N446 N 0.56536 0.63409 0.00357 0.0
N447 N 0.52134 0.63091 0.1866 0.0
H448 H 0.47715 0.53268 0.10181 0.0
H449 H 0.47495 0.55745 0.15474 0.0
H450 H 0.52875 0.65661 0.20887 0.0
H451 H 0.51477 0.60712 0.20539 0.0
H452 H 0.58265 0.66065 0.99065 0.0
H453 H 0.56677 0.61076 0.98614 0.0
H454 H 0.55783 0.69561 0.00655 0.0
H455 H 0.55547 0.72057 0.05943 0.0
C456 C 0.93412 0.56641 0.5696 0.0
C457 C 0.91798 0.53343 0.53307 0.0
C458 C 0.85241 0.51471 0.55389 0.0
C459 C 0.86974 0.54182 0.59717 0.0
N460 N 0.92941 0.58929 0.65015 0.0
N461 N 0.86025 0.47151 0.49659 0.0
C462 C 0.91126 0.56696 0.60599 0.0
C463 C 0.87659 0.50647 0.52614 0.0
N464 N 0.97144 0.59707 0.56978 0.0
N465 N 0.81288 0.49673 0.53926 0.0
H466 H 0.87615 0.46232 0.47718 0.0
H467 H 0.83089 0.4496 0.49524 0.0
H468 H 0.79449 0.50295 0.55805 0.0
H469 H 0.7994 0.47916 0.5058 0.0
H470 H 0.98346 0.62305 0.59367 0.0
H471 H 0.98841 0.59816 0.54246 0.0
H472 H 0.9599 0.60511 0.65934 0.0
H473 H 0.91435 0.58868 0.67939 0.0
C474 C 0.38181 0.95636 0.09595 0.0
C475 C 0.41865 0.95854 0.09564 0.0
C476 C 0.39645 0.9037 0.14447 0.0
C477 C 0.36118 0.90409 0.14883 0.0
N478 N 0.32215 0.93394 0.13371 0.0
N479 N 0.46299 0.9371 0.12405 0.0
C480 C 0.35429 0.9312 0.12571 0.0
C481 C 0.42653 0.93308 0.12135 0.0
N482 N 0.37295 0.97807 0.06736 0.0
N483 N 0.40055 0.8742 0.16079 0.0
H484 H 0.48533 0.95694 0.10612 0.0
H485 H 0.47212 0.92268 0.14667 0.0
H486 H 0.37916 0.85207 0.17755 0.0
H487 H 0.42333 0.86943 0.15385 0.0
H488 H 0.3451 0.97468 0.06147 0.0
H489 H 0.39291 0.99782 0.04677 0.0
H490 H 0.31753 0.95586 0.12251 0.0
H491 H 0.30133 0.91591 0.15481 0.0
C492 C 0.47414 0.36401 0.47578 0.0
C493 C 0.50995 0.39925 0.4745 0.0
C494 C 0.54466 0.38053 0.53357 0.0
C495 C 0.50822 0.34667 0.53763 0.0
N496 N 0.4401 0.30123 0.50648 0.0
N497 N 0.58056 0.43731 0.49186 0.0
C498 C 0.47354 0.33663 0.50631 0.0
C499 C 0.54575 0.40598 0.49972 0.0
N500 N 0.4406 0.3579 0.44927 0.0
N501 N 0.57771 0.38913 0.56378 0.0
H502 H 0.582 0.45631 0.4672 0.0
H503 H 0.60813 0.44292 0.50645 0.0
H504 H 0.57817 0.37026 0.58756 0.0
H505 H 0.60436 0.41541 0.56691 0.0
H506 H 0.41241 0.33535 0.4523 0.0
H507 H 0.44128 0.37639 0.42422 0.0
H508 H 0.41452 0.29061 0.4822 0.0
H509 H 0.43861 0.28102 0.52928 0.0
C510 C 0.56111 0.90564 0.43204 0.0
C511 C 0.54019 0.92493 0.42001 0.0
C512 C 0.52133 0.89001 0.33681 0.0
C513 C 0.5384 0.86737 0.35015 0.0
N514 N 0.56841 0.84913 0.41386 0.0
N515 N 0.49073 0.92595 0.36443 0.0
C516 C 0.55641 0.87383 0.39889 0.0
C517 C 0.51766 0.91453 0.37334 0.0
N518 N 0.58674 0.91867 0.4742 0.0
N519 N 0.50918 0.88896 0.28915 0.0
H520 H 0.48508 0.9419 0.39072 0.0
H521 H 0.47067 0.91557 0.33266 0.0
H522 H 0.51059 0.87123 0.26102 0.0
H523 H 0.50078 0.90826 0.27729 0.0
H524 H 0.60569 0.90834 0.48261 0.0
H525 H 0.59194 0.94256 0.49855 0.0
H526 H 0.57809 0.84989 0.45007 0.0
H527 H 0.56538 0.82557 0.39075 0.0
C528 C 0.62239 0.47826 0.97441 0.0
C529 C 0.62141 0.51034 0.99891 0.0
C530 C 0.68261 0.55664 0.9695 0.0
C531 C 0.68028 0.5249 0.93953 0.0
N532 N 0.64876 0.45562 0.9122 0.0
N533 N 0.64963 0.57974 0.02098 0.0
C534 C 0.65077 0.48563 0.94228 0.0
C535 C 0.65164 0.54949 0.99737 0.0
N536 N 0.59565 0.44077 0.98119 0.0
N537 N 0.71433 0.59353 0.97087 0.0
H538 H 0.62838 0.57524 0.04363 0.0
H539 H 0.66782 0.60904 0.01685 0.0
H540 H 0.73709 0.59956 0.95022 0.0
H541 H 0.71974 0.61759 0.99488 0.0
H542 H 0.59678 0.41623 0.96799 0.0
H543 H 0.57371 0.43419 0.0033 0.0
H544 H 0.62521 0.4269 0.90738 0.0
H545 H 0.67008 0.45975 0.88985 0.0
C546 C 0.11047 0.64628 0.48827 0.0
C547 C 0.09649 0.60605 0.47339 0.0
C548 C 0.13055 0.62337 0.4012 0.0
C549 C 0.14718 0.66398 0.41755 0.0
N550 N 0.16032 0.71376 0.48375 0.0
N551 N 0.10498 0.55873 0.42493 0.0
C552 C 0.13927 0.67539 0.46324 0.0
C553 C 0.11011 0.59538 0.43263 0.0
N554 N 0.09549 0.65673 0.52522 0.0
N555 N 0.13247 0.61099 0.35485 0.0
H556 H 0.09269 0.53851 0.44924 0.0
H557 H 0.11754 0.55051 0.39836 0.0
H558 H 0.14579 0.63003 0.32963 0.0
H559 H 0.11719 0.58152 0.33993 0.0
H560 H 0.10127 0.68521 0.53413 0.0
H561 H 0.07497 0.63628 0.54465 0.0
H562 H 0.15836 0.72322 0.51882 0.0
H563 H 0.18273 0.73554 0.46776 0.0
C564 C 0.43448 0.06274 0.87301 0.0
C565 C 0.46375 0.07415 0.91381 0.0
C566 C 0.4862 0.14279 0.9043 0.0
C567 C 0.46386 0.13121 0.8576 0.0
N568 N 0.42107 0.07773 0.79375 0.0
N569 N 0.52571 0.12786 0.95779 0.0
C570 C 0.43888 0.09046 0.84084 0.0
C571 C 0.49171 0.115 0.92721 0.0
N572 N 0.40206 0.02593 0.8653 0.0
N573 N 0.50278 0.18041 0.92662 0.0
H574 H 0.53512 0.10942 0.96948 0.0
H575 H 0.5476 0.1574 0.96516 0.0
H576 H 0.49819 0.20125 0.91154 0.0
H577 H 0.51711 0.18922 0.96231 0.0
H578 H 0.37876 0.01743 0.83781 0.0
H579 H 0.39621 0.00582 0.88997 0.0
H580 H 0.4057 0.04816 0.77922 0.0
H581 H 0.42506 0.09656 0.76793 0.0
C582 C 0.38231 0.44379 0.39163 0.0
C583 C 0.39883 0.47114 0.43506 0.0
C584 C 0.34059 0.47829 0.42552 0.0
C585 C 0.33013 0.4593 0.37689 0.0
N586 N 0.34483 0.42702 0.31175 0.0
N587 N 0.39495 0.52032 0.48799 0.0
C588 C 0.35195 0.4427 0.35941 0.0
C589 C 0.3781 0.48968 0.45118 0.0
N590 N 0.39462 0.41785 0.38179 0.0
N591 N 0.31518 0.48638 0.44679 0.0
H592 H 0.42352 0.53258 0.50548 0.0
H593 H 0.38202 0.53673 0.49725 0.0
H594 H 0.28753 0.47832 0.42886 0.0
H595 H 0.32011 0.49745 0.48348 0.0
H596 H 0.38137 0.39537 0.35256 0.0
H597 H 0.41441 0.4156 0.40637 0.0
H598 H 0.36243 0.41773 0.2965 0.0
H599 H 0.32377 0.42661 0.2864 0.0
C600 C 0.88128 0.37163 0.00613 0.0
C601 C 0.89661 0.41026 0.99485 0.0
C602 C 0.85989 0.38592 0.91367 0.0
C603 C 0.84338 0.34664 0.9242 0.0
N604 N 0.82976 0.30322 0.98538 0.0
N605 N 0.88545 0.45296 0.94823 0.0
C606 C 0.85094 0.33989 0.97241 0.0
C607 C 0.88065 0.41689 0.95207 0.0
N608 N 0.89676 0.36519 0.04754 0.0
N609 N 0.8584 0.39433 0.86714 0.0
H610 H 0.89806 0.47519 0.97776 0.0
H611 H 0.87217 0.45867 0.91864 0.0
H612 H 0.84534 0.37321 0.83675 0.0
H613 H 0.87356 0.42286 0.8585 0.0
H614 H 0.88969 0.33733 0.05511 0.0
H615 H 0.91825 0.38816 0.07309 0.0
H616 H 0.83208 0.29718 0.02088 0.0
H617 H 0.80737 0.27962 0.96135 0.0
C618 C 0.93581 0.56497 0.93647 0.0
C619 C 0.9523 0.54297 0.91792 0.0
C620 C 0.91234 0.53002 0.83854 0.0
C621 C 0.89138 0.54624 0.85983 0.0
N622 N 0.87828 0.5713 0.93352 0.0
N623 N 0.94871 0.497 0.85225 0.0
C624 C 0.90176 0.56156 0.91007 0.0
C625 C 0.93893 0.52374 0.86896 0.0
N626 N 0.95311 0.58994 0.979 0.0
N627 N 0.90661 0.52022 0.78923 0.0
H628 H 0.96576 0.48912 0.87349 0.0
H629 H 0.93621 0.47931 0.81875 0.0
H630 H 0.88722 0.52415 0.76601 0.0
H631 H 0.92375 0.51171 0.77126 0.0
H632 H 0.94419 0.60913 0.99193 0.0
H633 H 0.97917 0.59479 0.99818 0.0
H634 H 0.88247 0.5787 0.97116 0.0
H635 H 0.85251 0.56833 0.91623 0.0
C636 C 0.39123 0.92587 0.47733 0.0
C637 C 0.40682 0.90807 0.50685 0.0
C638 C 0.34887 0.84428 0.47373 0.0
C639 C 0.34053 0.86186 0.43548 0.0
N640 N 0.36079 0.92086 0.39724 0.0
N641 N 0.39922 0.84817 0.53307 0.0
C642 C 0.36326 0.90314 0.43643 0.0
C643 C 0.38492 0.86664 0.50601 0.0
N644 N 0.4043 0.96492 0.48731 0.0
N645 N 0.32287 0.80612 0.47832 0.0
H646 H 0.42459 0.86294 0.55823 0.0
H647 H 0.38671 0.81782 0.52864 0.0
H648 H 0.29647 0.7892 0.45494 0.0
H649 H 0.32581 0.79268 0.50779 0.0
H650 H 0.39168 0.97851 0.46855 0.0
H651 H 0.42462 0.98234 0.51765 0.0
H652 H 0.38004 0.9505 0.39538 0.0
H653 H 0.34249 0.90571 0.36484 0.0
C654 C 0.50139 0.41346 0.85802 0.0
C655 C 0.48032 0.40218 0.89845 0.0
C656 C 0.46239 0.33374 0.87367 0.0
C657 C 0.48056 0.34468 0.83096 0.0
N658 N 0.50878 0.39398 0.77724 0.0
N659 N 0.43519 0.35051 0.94044 0.0
C660 C 0.49718 0.38418 0.82145 0.0
C661 C 0.45916 0.36193 0.905 0.0
N662 N 0.52776 0.45212 0.85592 0.0
N663 N 0.44933 0.29676 0.88513 0.0
H664 H 0.43184 0.37028 0.96346 0.0
H665 H 0.41601 0.32128 0.94413 0.0
H666 H 0.45084 0.27534 0.86293 0.0
H667 H 0.43976 0.28821 0.91828 0.0
H668 H 0.54723 0.46137 0.83021 0.0
H669 H 0.53345 0.47478 0.8827 0.0
H670 H 0.51699 0.42133 0.76659 0.0
H671 H 0.50671 0.37378 0.7496 0.0
C672 C 0.06143 0.44133 0.42794 0.0
C673 C 0.03962 0.45682 0.40574 0.0
C674 C 0.07468 0.46466 0.33497 0.0
C675 C 0.10156 0.45703 0.36145 0.0
N676 N 0.12293 0.44189 0.43617 0.0
N677 N 0.03187 0.49083 0.34049 0.0
C678 C 0.0955 0.44614 0.40876 0.0
C679 C 0.04749 0.47015 0.35956 0.0
N680 N 0.04928 0.42168 0.46712 0.0
N681 N 0.07437 0.46567 0.28605 0.0
H682 H 0.01343 0.49789 0.35757 0.0
H683 H 0.0407 0.50468 0.30968 0.0
H684 H 0.09226 0.45922 0.26661 0.0
H685 H 0.05319 0.46804 0.26433 0.0
H686 H 0.06214 0.40697 0.48235 0.0
H687 H 0.02361 0.41653 0.48088 0.0
H688 H 0.12185 0.43787 0.47272 0.0
H689 H 0.14867 0.44591 0.42377 0.0
C690 C 0.62404 0.07381 0.944 0.0
C691 C 0.6093 0.09125 0.97609 0.0
C692 C 0.65979 0.15618 0.95841 0.0
C693 C 0.66866 0.13797 0.91946 0.0
N694 N 0.6566 0.07835 0.87277 0.0
N695 N 0.61309 0.15043 0.01296 0.0
C696 C 0.65037 0.09647 0.91188 0.0
C697 C 0.62753 0.1329 0.9837 0.0
N698 N 0.61366 0.0356 0.94535 0.0
N699 N 0.6828 0.19579 0.97193 0.0
H700 H 0.59056 0.13529 0.03346 0.0
H701 H 0.62172 0.17994 0.01439 0.0
H702 H 0.70691 0.21355 0.95474 0.0
H703 H 0.68051 0.21038 0.00307 0.0
H704 H 0.62593 0.02197 0.92593 0.0
H705 H 0.5963 0.01913 0.97052 0.0
H706 H 0.64033 0.04813 0.8622 0.0
H707 H 0.67582 0.09358 0.84852 0.0
C708 C 0.51604 0.61045 0.40544 0.0
C709 C 0.54353 0.59788 0.39912 0.0
C710 C 0.57121 0.64468 0.34048 0.0
C711 C 0.54736 0.66062 0.35225 0.0
N712 N 0.5059 0.66548 0.40803 0.0
N713 N 0.60456 0.6119 0.37001 0.0
C714 C 0.52278 0.64582 0.38883 0.0
C715 C 0.57341 0.6177 0.36951 0.0
N716 N 0.48178 0.58748 0.42351 0.0
N717 N 0.59016 0.65343 0.30032 0.0
H718 H 0.60873 0.59448 0.39312 0.0
H719 H 0.62854 0.62815 0.35184 0.0
H720 H 0.58778 0.67128 0.2764 0.0
H721 H 0.60475 0.63945 0.288 0.0
H722 H 0.45984 0.59457 0.42481 0.0
H723 H 0.47258 0.55908 0.43059 0.0
H724 H 0.49019 0.65715 0.43754 0.0
H725 H 0.5114 0.6924 0.39818 0.0
C726 C 0.48229 0.07243 0.60824 0.0
C727 C 0.50777 0.0804 0.57166 0.0
C728 C 0.51865 0.14709 0.57743 0.0
C729 C 0.49901 0.14106 0.61914 0.0
N730 N 0.46739 0.09923 0.67921 0.0
N731 N 0.55951 0.13076 0.53354 0.0
C732 C 0.48242 0.10408 0.63606 0.0
C733 C 0.52842 0.11919 0.55928 0.0
N734 N 0.45652 0.03478 0.61528 0.0
N735 N 0.52823 0.1795 0.55508 0.0
H736 H 0.57115 0.11319 0.52423 0.0
H737 H 0.57721 0.15974 0.52746 0.0
H738 H 0.5211 0.20034 0.56695 0.0
H739 H 0.53955 0.18336 0.52206 0.0
H740 H 0.43494 0.02778 0.63807 0.0
H741 H 0.45331 0.01022 0.59467 0.0
H742 H 0.45888 0.07411 0.69593 0.0
H743 H 0.46672 0.12163 0.70039 0.0
C744 C 0.38542 0.42691 0.07356 0.0
C745 C 0.42341 0.44535 0.10094 0.0
C746 C 0.397 0.46008 0.17126 0.0
C747 C 0.3612 0.44795 0.14102 0.0
N748 N 0.32302 0.42426 0.06115 0.0
N749 N 0.46648 0.48366 0.17561 0.0
C750 C 0.35568 0.43222 0.09161 0.0
C751 C 0.42948 0.4625 0.15006 0.0
N752 N 0.37774 0.40395 0.03035 0.0
N753 N 0.39993 0.469 0.22041 0.0
H754 H 0.49163 0.48728 0.16216 0.0
H755 H 0.4729 0.50087 0.20896 0.0
H756 H 0.37721 0.46855 0.23725 0.0
H757 H 0.42354 0.47345 0.24489 0.0
H758 H 0.34969 0.38691 0.01073 0.0
H759 H 0.39872 0.39868 0.0169 0.0
H760 H 0.31954 0.41669 0.02366 0.0
H761 H 0.30102 0.42878 0.0725 0.0
C762 C 0.91511 0.4234 0.6125 0.0
C763 C 0.94937 0.42408 0.59932 0.0
C764 C 0.93107 0.36461 0.63824 0.0
C765 C 0.89528 0.36226 0.64768 0.0
N766 N 0.85024 0.38584 0.637 0.0
N767 N 0.98753 0.39258 0.59389 0.0
C768 C 0.88643 0.39061 0.63265 0.0
C769 C 0.95675 0.39394 0.61074 0.0
N770 N 0.91086 0.4551 0.60794 0.0
N771 N 0.94103 0.33943 0.65674 0.0
H772 H 0.00711 0.41379 0.57439 0.0
H773 H 0.99207 0.36912 0.59613 0.0
H774 H 0.92254 0.31702 0.67571 0.0
H775 H 0.96855 0.34228 0.65613 0.0
H776 H 0.88869 0.45831 0.62125 0.0
H777 H 0.93189 0.48023 0.59526 0.0
H778 H 0.84026 0.40297 0.62193 0.0
H779 H 0.82868 0.3625 0.65205 0.0
C780 C 0.53873 0.9133 0.99834 0.0
C781 C 0.50251 0.91214 0.99761 0.0
C782 C 0.47822 0.85761 0.04599 0.0
C783 C 0.51682 0.86386 0.05417 0.0
N784 N 0.5843 0.8972 0.03874 0.0
N785 N 0.43665 0.88276 0.01829 0.0
C786 C 0.54714 0.89113 0.02982 0.0
C787 C 0.47161 0.8836 0.01997 0.0
N788 N 0.56475 0.93553 0.96861 0.0
N789 N 0.44807 0.82683 0.06323 0.0
H790 H 0.43011 0.89984 0.99718 0.0
H791 H 0.41477 0.86647 0.03915 0.0
H792 H 0.45213 0.80737 0.08255 0.0
H793 H 0.41864 0.81854 0.05516 0.0
H794 H 0.59078 0.93588 0.96457 0.0
H795 H 0.55796 0.95056 0.94411 0.0
H796 H 0.60866 0.9197 0.02644 0.0
H797 H 0.59129 0.88097 0.06094 0.0
C798 C 0.64408 0.55301 0.57337 0.0
C799 C 0.60464 0.53188 0.58373 0.0
C800 C 0.62838 0.51712 0.65905 0.0
C801 C 0.66693 0.53381 0.6457 0.0
N802 N 0.70944 0.56161 0.58476 0.0
N803 N 0.55899 0.48329 0.62951 0.0
C804 C 0.67413 0.54992 0.60114 0.0
C805 C 0.59666 0.51108 0.62472 0.0
N806 N 0.65325 0.57725 0.53822 0.0
N807 N 0.62174 0.50742 0.70476 0.0
H808 H 0.53486 0.47528 0.60363 0.0
H809 H 0.55238 0.46469 0.6562 0.0
H810 H 0.64378 0.5112 0.73124 0.0
H811 H 0.59497 0.49897 0.71755 0.0
H812 H 0.68204 0.59617 0.53222 0.0
H813 H 0.6325 0.58149 0.51852 0.0
H814 H 0.715 0.56987 0.55029 0.0
H815 H 0.73198 0.55967 0.60392 0.0
C816 C 0.08863 0.64601 0.10049 0.0
C817 C 0.06809 0.61205 0.12375 0.0
C818 C 0.11078 0.64873 0.20053 0.0
C819 C 0.13467 0.6802 0.1754 0.0
N820 N 0.14931 0.70745 0.10007 0.0
N821 N 0.06442 0.57934 0.19497 0.0
C822 C 0.12442 0.67851 0.12494 0.0
C823 C 0.08007 0.61297 0.17372 0.0
N824 N 0.07326 0.64772 0.05562 0.0
N825 N 0.11725 0.65304 0.25015 0.0
H826 H 0.04319 0.5519 0.17674 0.0
H827 H 0.07551 0.57789 0.2295 0.0
H828 H 0.14024 0.67839 0.2709 0.0
H829 H 0.09765 0.63294 0.27067 0.0
H830 H 0.08495 0.67306 0.03889 0.0
H831 H 0.0464 0.62504 0.03735 0.0
H832 H 0.14554 0.70554 0.06228 0.0
H833 H 0.17548 0.73207 0.11689 0.0
loop_
_geom_bond_atom_site_label_1
_geom_bond_atom_site_label_2
_geom_bond_distance
_geom_bond_site_symmetry_2
_ccdc_geom_bond_type
C0 O2 1.247 . S
C0 O4 1.258 . S
C1 O8 1.247 . S
C1 O9 1.258 . S
O2 C0 1.247 . S
O2 Zn3 2.028 1_455 S
Zn3 O2 2.028 1_655 S
Zn3 O7 2.035 1_554 S
Zn3 O9 2.035 1_554 S
Zn3 O10 2.028 1_655 S
O4 C0 1.258 . S
O4 Zn5 2.035 1_554 S
Zn5 O4 2.035 1_556 S
Zn5 O6 2.028 1_455 S
Zn5 O8 2.028 1_455 S
Zn5 O11 2.035 1_556 S
O6 Zn5 2.028 1_655 S
O6 C12 1.247 . S
O7 Zn3 2.035 1_556 S
O7 C12 1.258 . S
O8 C1 1.247 . S
O8 Zn5 2.028 1_655 S
O9 C1 1.258 . S
O9 Zn3 2.035 1_556 S
O10 Zn3 2.028 1_455 S
O10 C13 1.247 . S
O11 Zn5 2.035 1_554 S
O11 C13 1.258 . S
C12 O6 1.247 . S
C12 O7 1.258 . S
C13 O10 1.247 . S
C13 O11 1.258 . S
C14 O16 1.247 . S
C14 O18 1.258 . S
C15 O22 1.247 . S
C15 O23 1.258 . S
O16 C14 1.247 . S
O16 Zn17 2.028 1_545 S
Zn17 O16 2.028 1_565 S
Zn17 O21 2.035 . S
Zn17 O23 2.035 . S
Zn17 O24 2.028 1_565 S
O18 C14 1.258 . S
O18 Zn19 2.035 . S
Zn19 O18 2.035 . S
Zn19 O20 2.028 1_545 S
Zn19 O22 2.028 1_545 S
Zn19 O25 2.035 . S
O20 Zn19 2.028 1_565 S
O20 C26 1.247 . S
O21 Zn17 2.035 . S
O21 C26 1.258 . S
O22 C15 1.247 . S
O22 Zn19 2.028 1_565 S
O23 C15 1.258 . S
O23 Zn17 2.035 . S
O24 Zn17 2.028 1_545 S
O24 C27 1.247 . S
O25 Zn19 2.035 . S
O25 C27 1.258 . S
C26 O20 1.247 . S
C26 O21 1.258 . S
C27 O24 1.247 . S
C27 O25 1.258 . S
C28 O30 1.247 . S
C28 O32 1.258 . S
C29 O36 1.247 . S
C29 O37 1.258 . S
O30 C28 1.247 . S
O30 Zn31 2.028 . S
Zn31 O30 2.028 . S
Zn31 O35 2.035 1_556 S
Zn31 O37 2.035 1_556 S
Zn31 O38 2.028 . S
O32 C28 1.258 . S
O32 Zn33 2.035 1_556 S
Zn33 O32 2.035 1_554 S
Zn33 O34 2.028 . S
Zn33 O36 2.028 . S
Zn33 O39 2.035 1_554 S
O34 Zn33 2.028 . S
O34 C40 1.247 . S
O35 Zn31 2.035 1_554 S
O35 C40 1.258 . S
O36 C29 1.247 . S
O36 Zn33 2.028 . S
O37 C29 1.258 . S
O37 Zn31 2.035 1_554 S
O38 Zn31 2.028 . S
O38 C41 1.247 . S
O39 Zn33 2.035 1_556 S
O39 C41 1.258 . S
C40 O34 1.247 . S
C40 O35 1.258 . S
C41 O38 1.247 . S
C41 O39 1.258 . S
C42 O44 1.247 . S
C42 O46 1.258 . S
C43 O50 1.247 . S
C43 O51 1.258 1_655 S
O44 C42 1.247 . S
O44 Zn45 2.028 . S
Zn45 O44 2.028 . S
Zn45 O49 2.035 . S
Zn45 O51 2.035 . S
Zn45 O52 2.028 . S
O46 C42 1.258 . S
O46 Zn47 2.035 1_455 S
Zn47 O46 2.035 1_655 S
Zn47 O48 2.028 . S
Zn47 O50 2.028 . S
Zn47 O53 2.035 1_655 S
O48 Zn47 2.028 . S
O48 C54 1.247 . S
O49 Zn45 2.035 . S
O49 C54 1.258 1_455 S
O50 C43 1.247 . S
O50 Zn47 2.028 . S
O51 C43 1.258 1_455 S
O51 Zn45 2.035 . S
O52 Zn45 2.028 . S
O52 C55 1.247 . S
O53 Zn47 2.035 1_455 S
O53 C55 1.258 . S
C54 O48 1.247 . S
C54 O49 1.258 1_655 S
C55 O52 1.247 . S
C55 O53 1.258 . S
C56 O58 1.247 . S
C56 O60 1.258 . S
C57 O64 1.247 . S
C57 O65 1.258 . S
O58 C56 1.247 . S
O58 Zn59 2.028 1_565 S
Zn59 O58 2.028 1_545 S
Zn59 O63 2.035 1_554 S
Zn59 O65 2.035 1_554 S
Zn59 O66 2.025 1_545 S
O60 C56 1.258 . S
O60 Zn61 2.035 1_554 S
Zn61 O60 2.035 1_556 S
Zn61 O62 2.028 1_565 S
Zn61 O64 2.028 1_565 S
Zn61 O67 2.035 1_556 S
O62 Zn61 2.028 1_545 S
O62 C68 1.247 . S
O63 Zn59 2.035 1_556 S
O63 C68 1.258 . S
O64 C57 1.247 . S
O64 Zn61 2.028 1_545 S
O65 C57 1.258 . S
O65 Zn59 2.035 1_556 S
O66 Zn59 2.025 1_565 S
O66 C69 1.256 . S
O67 Zn61 2.035 1_554 S
O67 C69 1.258 . S
C68 O62 1.247 . S
C68 O63 1.258 . S
C69 O66 1.256 . S
C69 O67 1.258 . S
C70 O72 1.247 . S
C70 O74 1.258 . S
C71 O78 1.247 . S
C71 O79 1.258 . S
O72 C70 1.247 . S
O72 Zn73 2.028 . S
Zn73 O72 2.028 . S
Zn73 O77 2.035 . S
Zn73 O79 2.035 . S
Zn73 O80 2.028 . S
O74 C70 1.258 . S
O74 Zn75 2.035 . S
Zn75 O74 2.035 . S
Zn75 O76 2.028 . S
Zn75 O78 2.028 . S
Zn75 O81 2.035 . S
O76 Zn75 2.028 . S
O76 C82 1.247 . S
O77 Zn73 2.035 . S
O77 C82 1.258 . S
O78 C71 1.247 . S
O78 Zn75 2.028 . S
O79 C71 1.258 . S
O79 Zn73 2.035 . S
O80 Zn73 2.028 . S
O80 C83 1.247 . S
O81 Zn75 2.035 . S
O81 C83 1.258 . S
C82 O76 1.247 . S
C82 O77 1.258 . S
C83 O80 1.247 . S
C83 O81 1.258 . S
C84 C85 1.443 . S
C84 N88 1.376 . S
C84 C122 1.389 . S
C85 C84 1.443 . S
C85 C86 1.340 . S
C85 H125 0.951 . S
C86 C85 1.340 . S
C86 C87 1.439 . S
C86 H126 0.950 . S
C87 C86 1.439 . S
C87 N88 1.374 . S
C87 C121 1.395 . S
N88 C84 1.376 . S
N88 C87 1.374 . S
N88 Co89 2.008 . S
Co89 N88 2.008 . S
Co89 N90 1.995 . S
Co89 N95 2.008 . S
Co89 N100 1.995 . S
Co89 N105 2.282 . S
Co89 N111 2.282 . S
N90 Co89 1.995 . S
N90 C91 1.376 . S
N90 C94 1.383 . S
C91 N90 1.376 . S
C91 C92 1.446 . S
C91 C121 1.391 . S
C92 C91 1.446 . S
C92 C93 1.339 . S
C92 H127 0.949 . S
C93 C92 1.339 . S
C93 C94 1.439 . S
C93 H128 0.950 . S
C94 N90 1.383 . S
C94 C93 1.439 . S
C94 C123 1.392 . S
N95 Co89 2.008 . S
N95 C96 1.376 . S
N95 C99 1.374 . S
C96 N95 1.376 . S
C96 C97 1.443 . S
C96 C123 1.389 . S
C97 C96 1.443 . S
C97 C98 1.340 . S
C97 H129 0.951 . S
C98 C97 1.340 . S
C98 C99 1.439 . S
C98 H130 0.950 . S
C99 N95 1.374 . S
C99 C98 1.439 . S
C99 C124 1.395 . S
N100 Co89 1.995 . S
N100 C101 1.376 . S
N100 C104 1.383 . S
C101 N100 1.376 . S
C101 C102 1.446 . S
C101 C124 1.391 . S
C102 C101 1.446 . S
C102 C103 1.339 . S
C102 H131 0.949 . S
C103 C102 1.339 . S
C103 C104 1.439 . S
C103 H132 0.950 . S
C104 N100 1.383 . S
C104 C103 1.439 . S
C104 C122 1.392 . S
N105 Co89 2.282 . S
N105 C108 1.332 . S
N105 C110 1.332 . S
C106 C107 1.386 . S
C106 C109 1.388 . S
C107 C106 1.386 . S
C107 C108 1.382 . S
C107 H133 0.950 . S
C108 N105 1.332 . S
C108 C107 1.382 . S
C108 H119 0.952 . S
C109 C106 1.388 . S
C109 C110 1.382 . S
C109 H134 0.950 . S
C110 N105 1.332 . S
C110 C109 1.382 . S
C110 H120 0.948 . S
N111 Co89 2.282 . S
N111 C115 1.332 . S
N111 C116 1.332 . S
C112 C113 1.388 . S
C112 C116 1.382 . S
C112 H135 0.950 . S
C113 C112 1.388 . S
C113 C114 1.386 . S
C114 C113 1.386 . S
C114 C115 1.382 . S
C114 H136 0.950 . S
C115 N111 1.332 . S
C115 C114 1.382 . S
C115 H117 0.952 . S
C116 N111 1.332 . S
C116 C112 1.382 . S
C116 H118 0.948 . S
H117 C115 0.952 . S
H118 C116 0.948 . S
H119 C108 0.952 . S
H120 C110 0.948 . S
C121 C87 1.395 . S
C121 C91 1.391 . S
C122 C84 1.389 . S
C122 C104 1.392 . S
C123 C94 1.392 . S
C123 C96 1.389 . S
C124 C99 1.395 . S
C124 C101 1.391 . S
H125 C85 0.951 . S
H126 C86 0.950 . S
H127 C92 0.949 . S
H128 C93 0.950 . S
H129 C97 0.951 . S
H130 C98 0.950 . S
H131 C102 0.949 . S
H132 C103 0.950 . S
H133 C107 0.950 . S
H134 C109 0.950 . S
H135 C112 0.950 . S
H136 C114 0.950 . S
C137 C138 1.443 . S
C137 N141 1.376 . S
C137 C175 1.389 . S
C138 C137 1.443 . S
C138 C139 1.340 . S
C138 H178 0.951 . S
C139 C138 1.340 . S
C139 C140 1.439 . S
C139 H179 0.950 . S
C140 C139 1.439 . S
C140 N141 1.374 . S
C140 C174 1.395 . S
N141 C137 1.376 . S
N141 C140 1.374 . S
N141 Co142 2.008 . S
Co142 N141 2.008 . S
Co142 N143 1.995 . S
Co142 N148 2.008 . S
Co142 N153 1.995 . S
Co142 N158 2.282 . S
Co142 N164 2.282 . S
N143 Co142 1.995 . S
N143 C144 1.376 . S
N143 C147 1.383 . S
C144 N143 1.376 . S
C144 C145 1.446 . S
C144 C174 1.391 . S
C145 C144 1.446 . S
C145 C146 1.339 . S
C145 H180 0.949 . S
C146 C145 1.339 . S
C146 C147 1.439 . S
C146 H181 0.950 . S
C147 N143 1.383 . S
C147 C146 1.439 . S
C147 C176 1.392 . S
N148 Co142 2.008 . S
N148 C149 1.376 . S
N148 C152 1.374 . S
C149 N148 1.376 . S
C149 C150 1.443 . S
C149 C176 1.389 . S
C150 C149 1.443 . S
C150 C151 1.340 . S
C150 H182 0.951 . S
C151 C150 1.340 . S
C151 C152 1.439 . S
C151 H183 0.950 . S
C152 N148 1.374 . S
C152 C151 1.439 . S
C152 C177 1.395 . S
N153 Co142 1.995 . S
N153 C154 1.376 . S
N153 C157 1.383 . S
C154 N153 1.376 . S
C154 C155 1.446 . S
C154 C177 1.391 . S
C155 C154 1.446 . S
C155 C156 1.339 . S
C155 H184 0.949 . S
C156 C155 1.339 . S
C156 C157 1.439 . S
C156 H185 0.950 . S
C157 N153 1.383 . S
C157 C156 1.439 . S
C157 C175 1.392 . S
N158 Co142 2.282 . S
N158 C161 1.332 . S
N158 C163 1.332 . S
C159 C160 1.386 . S
C159 C162 1.388 . S
C160 C159 1.386 . S
C160 C161 1.382 . S
C160 H186 0.950 . S
C161 N158 1.332 . S
C161 C160 1.382 . S
C161 H172 0.952 . S
C162 C159 1.388 . S
C162 C163 1.382 . S
C162 H187 0.950 . S
C163 N158 1.332 . S
C163 C162 1.382 . S
C163 H173 0.948 . S
N164 Co142 2.282 . S
N164 C168 1.332 . S
N164 C169 1.332 . S
C165 C166 1.388 . S
C165 C169 1.382 . S
C165 H188 0.950 . S
C166 C165 1.388 . S
C166 C167 1.386 . S
C167 C166 1.386 . S
C167 C168 1.382 . S
C167 H189 0.950 . S
C168 N164 1.332 . S
C168 C167 1.382 . S
C168 H170 0.952 . S
C169 N164 1.332 . S
C169 C165 1.382 . S
C169 H171 0.948 . S
H170 C168 0.952 . S
H171 C169 0.948 . S
H172 C161 0.952 . S
H173 C163 0.948 . S
C174 C140 1.395 . S
C174 C144 1.391 . S
C175 C137 1.389 . S
C175 C157 1.392 . S
C176 C147 1.392 . S
C176 C149 1.389 . S
C177 C152 1.395 . S
C177 C154 1.391 . S
H178 C138 0.951 . S
H179 C139 0.950 . S
H180 C145 0.949 . S
H181 C146 0.950 . S
H182 C150 0.951 . S
H183 C151 0.950 . S
H184 C155 0.949 . S
H185 C156 0.950 . S
H186 C160 0.950 . S
H187 C162 0.950 . S
H188 C165 0.950 . S
H189 C167 0.950 . S
C190 C191 1.443 . S
C190 N194 1.376 . S
C190 C228 1.389 . S
C191 C190 1.443 . S
C191 C192 1.340 . S
C191 H231 0.951 . S
C192 C191 1.340 . S
C192 C193 1.439 . S
C192 H232 0.950 . S
C193 C192 1.439 . S
C193 N194 1.374 . S
C193 C227 1.395 . S
N194 C190 1.376 . S
N194 C193 1.374 . S
N194 Co195 2.008 . S
Co195 N194 2.008 . S
Co195 N196 1.995 . S
Co195 N201 2.008 . S
Co195 N206 1.995 . S
Co195 N211 2.282 . S
Co195 N217 2.282 . S
N196 Co195 1.995 . S
N196 C197 1.376 . S
N196 C200 1.383 . S
C197 N196 1.376 . S
C197 C198 1.446 . S
C197 C227 1.391 . S
C198 C197 1.446 . S
C198 C199 1.339 . S
C198 H233 0.949 . S
C199 C198 1.339 . S
C199 C200 1.439 . S
C199 H234 0.950 . S
C200 N196 1.383 . S
C200 C199 1.439 . S
C200 C229 1.392 . S
N201 Co195 2.008 . S
N201 C202 1.376 . S
N201 C205 1.374 . S
C202 N201 1.376 . S
C202 C203 1.443 . S
C202 C229 1.389 . S
C203 C202 1.443 . S
C203 C204 1.340 . S
C203 H235 0.951 . S
C204 C203 1.340 . S
C204 C205 1.439 . S
C204 H236 0.950 . S
C205 N201 1.374 . S
C205 C204 1.439 . S
C205 C230 1.395 . S
N206 Co195 1.995 . S
N206 C207 1.376 . S
N206 C210 1.383 . S
C207 N206 1.376 . S
C207 C208 1.446 . S
C207 C230 1.391 . S
C208 C207 1.446 . S
C208 C209 1.339 . S
C208 H237 0.949 . S
C209 C208 1.339 . S
C209 C210 1.439 . S
C209 H238 0.950 . S
C210 N206 1.383 . S
C210 C209 1.439 . S
C210 C228 1.392 . S
N211 Co195 2.282 . S
N211 C214 1.332 . S
N211 C216 1.332 . S
C212 C213 1.386 . S
C212 C215 1.388 . S
C213 C212 1.386 . S
C213 C214 1.382 . S
C213 H239 0.950 . S
C214 N211 1.332 . S
C214 C213 1.382 . S
C214 H225 0.952 . S
C215 C212 1.388 . S
C215 C216 1.382 . S
C215 H240 0.950 . S
C216 N211 1.332 . S
C216 C215 1.382 . S
C216 H226 0.948 . S
N217 Co195 2.282 . S
N217 C221 1.332 . S
N217 C222 1.332 . S
C218 C219 1.388 . S
C218 C222 1.382 . S
C218 H241 0.950 . S
C219 C218 1.388 . S
C219 C220 1.386 . S
C220 C219 1.386 . S
C220 C221 1.382 . S
C220 H242 0.950 . S
C221 N217 1.332 . S
C221 C220 1.382 . S
C221 H223 0.952 . S
C222 N217 1.332 . S
C222 C218 1.382 . S
C222 H224 0.948 . S
H223 C221 0.952 . S
H224 C222 0.948 . S
H225 C214 0.952 . S
H226 C216 0.948 . S
C227 C193 1.395 . S
C227 C197 1.391 . S
C228 C190 1.389 . S
C228 C210 1.392 . S
C229 C200 1.392 . S
C229 C202 1.389 . S
C230 C205 1.395 . S
C230 C207 1.391 . S
H231 C191 0.951 . S
H232 C192 0.950 . S
H233 C198 0.949 . S
H234 C199 0.950 . S
H235 C203 0.951 . S
H236 C204 0.950 . S
H237 C208 0.949 . S
H238 C209 0.950 . S
H239 C213 0.950 . S
H240 C215 0.950 . S
H241 C218 0.950 . S
H242 C220 0.950 . S
C243 C244 1.443 . S
C243 N247 1.376 . S
C243 C281 1.389 . S
C244 C243 1.443 . S
C244 C245 1.340 . S
C244 H284 0.951 . S
C245 C244 1.340 . S
C245 C246 1.439 . S
C245 H285 0.950 . S
C246 C245 1.439 . S
C246 N247 1.374 . S
C246 C280 1.395 . S
N247 C243 1.376 . S
N247 C246 1.374 . S
N247 Co248 2.008 . S
Co248 N247 2.008 . S
Co248 N249 1.995 . S
Co248 N254 2.008 . S
Co248 N259 1.995 . S
Co248 N264 2.282 . S
Co248 N270 2.282 . S
N249 Co248 1.995 . S
N249 C250 1.376 . S
N249 C253 1.383 . S
C250 N249 1.376 . S
C250 C251 1.446 . S
C250 C280 1.391 . S
C251 C250 1.446 . S
C251 C252 1.339 . S
C251 H286 0.949 . S
C252 C251 1.339 . S
C252 C253 1.439 . S
C252 H287 0.950 . S
C253 N249 1.383 . S
C253 C252 1.439 . S
C253 C282 1.392 . S
N254 Co248 2.008 . S
N254 C255 1.376 . S
N254 C258 1.374 . S
C255 N254 1.376 . S
C255 C256 1.443 . S
C255 C282 1.389 . S
C256 C255 1.443 . S
C256 C257 1.340 . S
C256 H288 0.951 . S
C257 C256 1.340 . S
C257 C258 1.439 . S
C257 H289 0.950 . S
C258 N254 1.374 . S
C258 C257 1.439 . S
C258 C283 1.395 . S
N259 Co248 1.995 . S
N259 C260 1.376 . S
N259 C263 1.383 . S
C260 N259 1.376 . S
C260 C261 1.446 . S
C260 C283 1.391 . S
C261 C260 1.446 . S
C261 C262 1.339 . S
C261 H290 0.949 . S
C262 C261 1.339 . S
C262 C263 1.439 . S
C262 H291 0.950 . S
C263 N259 1.383 . S
C263 C262 1.439 . S
C263 C281 1.392 . S
N264 Co248 2.282 . S
N264 C267 1.332 . S
N264 C269 1.332 . S
C265 C266 1.386 . S
C265 C268 1.388 . S
C266 C265 1.386 . S
C266 C267 1.382 . S
C266 H292 0.950 . S
C267 N264 1.332 . S
C267 C266 1.382 . S
C267 H278 0.952 . S
C268 C265 1.388 . S
C268 C269 1.382 . S
C268 H293 0.950 . S
C269 N264 1.332 . S
C269 C268 1.382 . S
C269 H279 0.948 . S
N270 Co248 2.282 . S
N270 C274 1.332 . S
N270 C275 1.332 . S
C271 C272 1.388 . S
C271 C275 1.382 . S
C271 H294 0.950 . S
C272 C271 1.388 . S
C272 C273 1.386 . S
C273 C272 1.386 . S
C273 C274 1.382 . S
C273 H295 0.950 . S
C274 N270 1.332 . S
C274 C273 1.382 . S
C274 H276 0.952 . S
C275 N270 1.332 . S
C275 C271 1.382 . S
C275 H277 0.948 . S
H276 C274 0.952 . S
H277 C275 0.948 . S
H278 C267 0.952 . S
H279 C269 0.948 . S
C280 C246 1.395 . S
C280 C250 1.391 . S
C281 C243 1.389 . S
C281 C263 1.392 . S
C282 C253 1.392 . S
C282 C255 1.389 . S
C283 C258 1.395 . S
C283 C260 1.391 . S
H284 C244 0.951 . S
H285 C245 0.950 . S
H286 C251 0.949 . S
H287 C252 0.950 . S
H288 C256 0.951 . S
H289 C257 0.950 . S
H290 C261 0.949 . S
H291 C262 0.950 . S
H292 C266 0.950 . S
H293 C268 0.950 . S
H294 C271 0.950 . S
H295 C273 0.950 . S
C296 C297 1.443 . S
C296 N300 1.376 . S
C296 C334 1.389 . S
C297 C296 1.443 . S
C297 C298 1.340 . S
C297 H337 0.951 . S
C298 C297 1.340 . S
C298 C299 1.439 . S
C298 H338 0.950 . S
C299 C298 1.439 . S
C299 N300 1.374 . S
C299 C333 1.395 . S
N300 C296 1.376 . S
N300 C299 1.374 . S
N300 Co301 2.008 . S
Co301 N300 2.008 . S
Co301 N302 1.995 . S
Co301 N307 2.008 . S
Co301 N312 1.995 . S
Co301 N317 2.282 . S
Co301 N323 2.282 . S
N302 Co301 1.995 . S
N302 C303 1.376 . S
N302 C306 1.383 . S
C303 N302 1.376 . S
C303 C304 1.446 . S
C303 C333 1.391 . S
C304 C303 1.446 . S
C304 C305 1.339 . S
C304 H339 0.949 . S
C305 C304 1.339 . S
C305 C306 1.439 . S
C305 H340 0.950 . S
C306 N302 1.383 . S
C306 C305 1.439 . S
C306 C335 1.392 . S
N307 Co301 2.008 . S
N307 C308 1.376 . S
N307 C311 1.374 . S
C308 N307 1.376 . S
C308 C309 1.443 . S
C308 C335 1.389 . S
C309 C308 1.443 . S
C309 C310 1.340 . S
C309 H341 0.951 . S
C310 C309 1.340 . S
C310 C311 1.439 . S
C310 H342 0.950 . S
C311 N307 1.374 . S
C311 C310 1.439 . S
C311 C336 1.395 . S
N312 Co301 1.995 . S
N312 C313 1.376 . S
N312 C316 1.383 . S
C313 N312 1.376 . S
C313 C314 1.446 . S
C313 C336 1.391 . S
C314 C313 1.446 . S
C314 C315 1.339 . S
C314 H343 0.949 . S
C315 C314 1.339 . S
C315 C316 1.439 . S
C315 H344 0.950 . S
C316 N312 1.383 . S
C316 C315 1.439 . S
C316 C334 1.392 . S
N317 Co301 2.282 . S
N317 C320 1.332 . S
N317 C322 1.332 . S
C318 C319 1.386 . S
C318 C321 1.388 . S
C319 C318 1.386 . S
C319 C320 1.382 . S
C319 H345 0.950 . S
C320 N317 1.332 . S
C320 C319 1.382 . S
C320 H331 0.952 . S
C321 C318 1.388 . S
C321 C322 1.382 . S
C321 H346 0.950 . S
C322 N317 1.332 . S
C322 C321 1.382 . S
C322 H332 0.948 . S
N323 Co301 2.282 . S
N323 C327 1.332 . S
N323 C328 1.332 . S
C324 C325 1.388 . S
C324 C328 1.382 . S
C324 H347 0.950 . S
C325 C324 1.388 . S
C325 C326 1.386 . S
C326 C325 1.386 . S
C326 C327 1.382 . S
C326 H348 0.950 . S
C327 N323 1.332 . S
C327 C326 1.382 . S
C327 H329 0.952 . S
C328 N323 1.332 . S
C328 C324 1.382 . S
C328 H330 0.948 . S
H329 C327 0.952 . S
H330 C328 0.948 . S
H331 C320 0.952 . S
H332 C322 0.948 . S
C333 C299 1.395 . S
C333 C303 1.391 . S
C334 C296 1.389 . S
C334 C316 1.392 . S
C335 C306 1.392 . S
C335 C308 1.389 . S
C336 C311 1.395 . S
C336 C313 1.391 . S
H337 C297 0.951 . S
H338 C298 0.950 . S
H339 C304 0.949 . S
H340 C305 0.950 . S
H341 C309 0.951 . S
H342 C310 0.950 . S
H343 C314 0.949 . S
H344 C315 0.950 . S
H345 C319 0.950 . S
H346 C321 0.950 . S
H347 C324 0.950 . S
H348 C326 0.950 . S
C349 C350 1.443 . S
C349 N353 1.376 . S
C349 C387 1.389 . S
C350 C349 1.443 . S
C350 C351 1.340 . S
C350 H390 0.951 . S
C351 C350 1.340 . S
C351 C352 1.439 . S
C351 H391 0.950 . S
C352 C351 1.439 . S
C352 N353 1.374 . S
C352 C386 1.395 . S
N353 C349 1.376 . S
N353 C352 1.374 . S
N353 Co354 2.008 . S
Co354 N353 2.008 . S
Co354 N355 1.995 . S
Co354 N360 2.008 . S
Co354 N365 1.995 . S
Co354 N370 2.282 . S
Co354 N376 2.282 . S
N355 Co354 1.995 . S
N355 C356 1.376 . S
N355 C359 1.383 . S
C356 N355 1.376 . S
C356 C357 1.446 . S
C356 C386 1.391 . S
C357 C356 1.446 . S
C357 C358 1.339 . S
C357 H392 0.949 . S
C358 C357 1.339 . S
C358 C359 1.439 . S
C358 H393 0.950 . S
C359 N355 1.383 . S
C359 C358 1.439 . S
C359 C388 1.392 . S
N360 Co354 2.008 . S
N360 C361 1.376 . S
N360 C364 1.374 . S
C361 N360 1.376 . S
C361 C362 1.443 . S
C361 C388 1.389 . S
C362 C361 1.443 . S
C362 C363 1.340 . S
C362 H394 0.951 . S
C363 C362 1.340 . S
C363 C364 1.439 . S
C363 H395 0.950 . S
C364 N360 1.374 . S
C364 C363 1.439 . S
C364 C389 1.395 . S
N365 Co354 1.995 . S
N365 C366 1.376 . S
N365 C369 1.383 . S
C366 N365 1.376 . S
C366 C367 1.446 . S
C366 C389 1.391 . S
C367 C366 1.446 . S
C367 C368 1.339 . S
C367 H396 0.949 . S
C368 C367 1.339 . S
C368 C369 1.439 . S
C368 H397 0.950 . S
C369 N365 1.383 . S
C369 C368 1.439 . S
C369 C387 1.392 . S
N370 Co354 2.282 . S
N370 C373 1.332 . S
N370 C375 1.332 . S
C371 C372 1.386 . S
C371 C374 1.388 . S
C372 C371 1.386 . S
C372 C373 1.382 . S
C372 H398 0.950 . S
C373 N370 1.332 . S
C373 C372 1.382 . S
C373 H384 0.952 . S
C374 C371 1.388 . S
C374 C375 1.382 . S
C374 H399 0.950 . S
C375 N370 1.332 . S
C375 C374 1.382 . S
C375 H385 0.948 . S
N376 Co354 2.282 . S
N376 C380 1.332 . S
N376 C381 1.332 . S
C377 C378 1.388 . S
C377 C381 1.382 . S
C377 H400 0.950 . S
C378 C377 1.388 . S
C378 C379 1.386 . S
C379 C378 1.386 . S
C379 C380 1.382 . S
C379 H401 0.950 . S
C380 N376 1.332 . S
C380 C379 1.382 . S
C380 H382 0.952 . S
C381 N376 1.332 . S
C381 C377 1.382 . S
C381 H383 0.948 . S
H382 C380 0.952 . S
H383 C381 0.948 . S
H384 C373 0.952 . S
H385 C375 0.948 . S
C386 C352 1.395 . S
C386 C356 1.391 . S
C387 C349 1.389 . S
C387 C369 1.392 . S
C388 C359 1.392 . S
C388 C361 1.389 . S
C389 C364 1.395 . S
C389 C366 1.391 . S
H390 C350 0.951 . S
H391 C351 0.950 . S
H392 C357 0.949 . S
H393 C358 0.950 . S
H394 C362 0.951 . S
H395 C363 0.950 . S
H396 C367 0.949 . S
H397 C368 0.950 . S
H398 C372 0.950 . S
H399 C374 0.950 . S
H400 C377 0.950 . S
H401 C379 0.950 . S
C402 C403 1.363 . S
C402 C408 1.379 . S
C402 N410 1.356 . S
C403 C402 1.363 . S
C403 C409 1.363 . S
C404 C405 1.363 . S
C404 C409 1.379 . S
C404 N411 1.356 . S
C405 C404 1.363 . S
C405 C408 1.363 . S
N406 C408 1.356 . S
N406 H418 0.984 . S
N406 H419 0.985 . S
N407 C409 1.356 . S
N407 H412 0.984 . S
N407 H413 0.985 . S
C408 C402 1.379 . S
C408 C405 1.363 . S
C408 N406 1.356 . S
C409 C403 1.363 . S
C409 C404 1.379 . S
C409 N407 1.356 . S
N410 C402 1.356 . S
N410 H416 0.984 1_554 S
N410 H417 0.984 . S
N411 C404 1.356 . S
N411 H414 0.984 . S
N411 H415 0.985 . S
H412 N407 0.984 . S
H413 N407 0.985 . S
H414 N411 0.984 . S
H415 N411 0.985 . S
H416 N410 0.984 1_556 S
H417 N410 0.984 . S
H418 N406 0.984 . S
H419 N406 0.985 . S
C420 C421 1.363 . S
C420 C426 1.379 . S
C420 N428 1.356 . S
C421 C420 1.363 . S
C421 C427 1.363 . S
C422 C423 1.363 . S
C422 C427 1.379 . S
C422 N429 1.356 . S
C423 C422 1.363 . S
C423 C426 1.363 . S
N424 C426 1.356 . S
N424 H436 0.984 . S
N424 H437 0.985 . S
N425 C427 1.356 . S
N425 H430 0.984 . S
N425 H431 0.985 . S
C426 C420 1.379 . S
C426 C423 1.363 . S
C426 N424 1.356 . S
C427 C421 1.363 . S
C427 C422 1.379 . S
C427 N425 1.356 . S
N428 C420 1.356 . S
N428 H434 0.984 . S
N428 H435 0.984 . S
N429 C422 1.356 . S
N429 H432 0.984 . S
N429 H433 0.985 . S
H430 N425 0.984 . S
H431 N425 0.985 . S
H432 N429 0.984 . S
H433 N429 0.985 . S
H434 N428 0.984 . S
H435 N428 0.984 . S
H436 N424 0.984 . S
H437 N424 0.985 . S
C438 C439 1.363 . S
C438 C444 1.379 . S
C438 N446 1.356 . S
C439 C438 1.363 . S
C439 C445 1.363 . S
C440 C441 1.363 . S
C440 C445 1.379 . S
C440 N447 1.356 . S
C441 C440 1.363 . S
C441 C444 1.363 . S
N442 C444 1.356 . S
N442 H454 0.984 . S
N442 H455 0.985 . S
N443 C445 1.356 . S
N443 H448 0.984 . S
N443 H449 0.985 . S
C444 C438 1.379 . S
C444 C441 1.363 . S
C444 N442 1.356 . S
C445 C439 1.363 . S
C445 C440 1.379 . S
C445 N443 1.356 . S
N446 C438 1.356 . S
N446 H452 0.984 . S
N446 H453 0.984 . S
N447 C440 1.356 . S
N447 H450 0.984 . S
N447 H451 0.985 . S
H448 N443 0.984 . S
H449 N443 0.985 . S
H450 N447 0.984 . S
H451 N447 0.985 . S
H452 N446 0.984 . S
H453 N446 0.984 . S
H454 N442 0.984 . S
H455 N442 0.985 . S
C456 C457 1.363 . S
C456 C462 1.379 . S
C456 N464 1.356 1_655 S
C457 C456 1.363 . S
C457 C463 1.363 . S
C458 C459 1.363 . S
C458 C463 1.379 . S
C458 N465 1.356 . S
C459 C458 1.363 . S
C459 C462 1.363 . S
N460 C462 1.356 . S
N460 H472 0.984 1_655 S
N460 H473 0.985 . S
N461 C463 1.356 . S
N461 H466 0.984 . S
N461 H467 0.985 . S
C462 C456 1.379 . S
C462 C459 1.363 . S
C462 N460 1.356 . S
C463 C457 1.363 . S
C463 C458 1.379 . S
C463 N461 1.356 . S
N464 C456 1.356 1_455 S
N464 H470 0.984 . S
N464 H471 0.984 . S
N465 C458 1.356 . S
N465 H468 0.984 . S
N465 H469 0.985 . S
H466 N461 0.984 . S
H467 N461 0.985 . S
H468 N465 0.984 . S
H469 N465 0.985 . S
H470 N464 0.984 . S
H471 N464 0.984 . S
H472 N460 0.984 1_455 S
H473 N460 0.985 . S
C474 C475 1.363 . S
C474 C480 1.379 . S
C474 N482 1.356 . S
C475 C474 1.363 . S
C475 C481 1.363 . S
C476 C477 1.363 . S
C476 C481 1.379 . S
C476 N483 1.356 . S
C477 C476 1.363 . S
C477 C480 1.363 . S
N478 C480 1.356 . S
N478 H490 0.984 . S
N478 H491 0.985 . S
N479 C481 1.356 . S
N479 H484 0.984 . S
N479 H485 0.985 . S
C480 C474 1.379 . S
C480 C477 1.363 . S
C480 N478 1.356 . S
C481 C475 1.363 . S
C481 C476 1.379 . S
C481 N479 1.356 . S
N482 C474 1.356 . S
N482 H488 0.984 1_554 S
N482 H489 0.984 1_554 S
N483 C476 1.356 . S
N483 H486 0.984 . S
N483 H487 0.985 . S
H484 N479 0.984 . S
H485 N479 0.985 . S
H486 N483 0.984 . S
H487 N483 0.985 . S
H488 N482 0.984 1_556 S
H489 N482 0.984 1_556 S
H490 N478 0.984 . S
H491 N478 0.985 . S
C492 C493 1.363 . S
C492 C498 1.379 . S
C492 N500 1.356 . S
C493 C492 1.363 . S
C493 C499 1.363 . S
C494 C495 1.363 . S
C494 C499 1.379 . S
C494 N501 1.356 . S
C495 C494 1.363 . S
C495 C498 1.363 . S
N496 C498 1.356 . S
N496 H508 0.984 . S
N496 H509 0.985 . S
N497 C499 1.356 . S
N497 H502 0.984 . S
N497 H503 0.985 . S
C498 C492 1.379 . S
C498 C495 1.363 . S
C498 N496 1.356 . S
C499 C493 1.363 . S
C499 C494 1.379 . S
C499 N497 1.356 . S
N500 C492 1.356 . S
N500 H506 0.984 . S
N500 H507 0.984 . S
N501 C494 1.356 . S
N501 H504 0.984 . S
N501 H505 0.985 . S
H502 N497 0.984 . S
H503 N497 0.985 . S
H504 N501 0.984 . S
H505 N501 0.985 . S
H506 N500 0.984 . S
H507 N500 0.984 . S
H508 N496 0.984 . S
H509 N496 0.985 . S
C510 C511 1.363 . S
C510 C516 1.379 . S
C510 N518 1.356 . S
C511 C510 1.363 . S
C511 C517 1.363 . S
C512 C513 1.363 . S
C512 C517 1.379 . S
C512 N519 1.356 . S
C513 C512 1.363 . S
C513 C516 1.363 . S
N514 C516 1.356 . S
N514 H526 0.984 . S
N514 H527 0.985 . S
N515 C517 1.356 . S
N515 H520 0.984 . S
N515 H521 0.985 . S
C516 C510 1.379 . S
C516 C513 1.363 . S
C516 N514 1.356 . S
C517 C511 1.363 . S
C517 C512 1.379 . S
C517 N515 1.356 . S
N518 C510 1.356 . S
N518 H524 0.984 . S
N518 H525 0.984 . S
N519 C512 1.356 . S
N519 H522 0.984 . S
N519 H523 0.985 . S
H520 N515 0.984 . S
H521 N515 0.985 . S
H522 N519 0.984 . S
H523 N519 0.985 . S
H524 N518 0.984 . S
H525 N518 0.984 . S
H526 N514 0.984 . S
H527 N514 0.985 . S
C528 C529 1.363 . S
C528 C534 1.379 . S
C528 N536 1.356 . S
C529 C528 1.363 . S
C529 C535 1.363 . S
C530 C531 1.363 . S
C530 C535 1.379 . S
C530 N537 1.356 . S
C531 C530 1.363 . S
C531 C534 1.363 . S
N532 C534 1.356 . S
N532 H544 0.984 . S
N532 H545 0.985 . S
N533 C535 1.356 . S
N533 H538 0.984 . S
N533 H539 0.985 1_556 S
C534 C528 1.379 . S
C534 C531 1.363 . S
C534 N532 1.356 . S
C535 C529 1.363 . S
C535 C530 1.379 . S
C535 N533 1.356 . S
N536 C528 1.356 . S
N536 H542 0.984 . S
N536 H543 0.984 . S
N537 C530 1.356 . S
N537 H540 0.984 . S
N537 H541 0.985 . S
H538 N533 0.984 . S
H539 N533 0.985 1_554 S
H540 N537 0.984 . S
H541 N537 0.985 . S
H542 N536 0.984 . S
H543 N536 0.984 . S
H544 N532 0.984 . S
H545 N532 0.985 . S
C546 C547 1.363 . S
C546 C552 1.379 . S
C546 N554 1.356 . S
C547 C546 1.363 . S
C547 C553 1.363 . S
C548 C549 1.363 . S
C548 C553 1.379 . S
C548 N555 1.356 . S
C549 C548 1.363 . S
C549 C552 1.363 . S
N550 C552 1.356 . S
N550 H562 0.984 . S
N550 H563 0.985 . S
N551 C553 1.356 . S
N551 H556 0.984 . S
N551 H557 0.985 . S
C552 C546 1.379 . S
C552 C549 1.363 . S
C552 N550 1.356 . S
C553 C547 1.363 . S
C553 C548 1.379 . S
C553 N551 1.356 . S
N554 C546 1.356 . S
N554 H560 0.984 1_455 S
N554 H561 0.984 . S
N555 C548 1.356 . S
N555 H558 0.984 . S
N555 H559 0.985 . S
H556 N551 0.984 . S
H557 N551 0.985 . S
H558 N555 0.984 . S
H559 N555 0.985 . S
H560 N554 0.984 1_655 S
H561 N554 0.984 . S
H562 N550 0.984 . S
H563 N550 0.985 . S
C564 C565 1.363 . S
C564 C570 1.379 . S
C564 N572 1.356 1_545 S
C565 C564 1.363 . S
C565 C571 1.363 . S
C566 C567 1.363 . S
C566 C571 1.379 . S
C566 N573 1.356 . S
C567 C566 1.363 . S
C567 C570 1.363 . S
N568 C570 1.356 . S
N568 H580 0.984 1_545 S
N568 H581 0.985 . S
N569 C571 1.356 . S
N569 H574 0.984 . S
N569 H575 0.985 . S
C570 C564 1.379 . S
C570 C567 1.363 . S
C570 N568 1.356 . S
C571 C565 1.363 . S
C571 C566 1.379 . S
C571 N569 1.356 . S
N572 C564 1.356 1_565 S
N572 H578 0.984 . S
N572 H579 0.984 . S
N573 C566 1.356 . S
N573 H576 0.984 . S
N573 H577 0.985 . S
H574 N569 0.984 . S
H575 N569 0.985 . S
H576 N573 0.984 . S
H577 N573 0.985 . S
H578 N572 0.984 . S
H579 N572 0.984 . S
H580 N568 0.984 1_565 S
H581 N568 0.985 . S
C582 C583 1.363 . S
C582 C588 1.379 . S
C582 N590 1.356 . S
C583 C582 1.363 . S
C583 C589 1.363 . S
C584 C585 1.363 . S
C584 C589 1.379 . S
C584 N591 1.356 . S
C585 C584 1.363 . S
C585 C588 1.363 . S
N586 C588 1.356 . S
N586 H598 0.984 . S
N586 H599 0.985 . S
N587 C589 1.356 . S
N587 H592 0.984 . S
N587 H593 0.985 . S
C588 C582 1.379 . S
C588 C585 1.363 . S
C588 N586 1.356 . S
C589 C583 1.363 . S
C589 C584 1.379 . S
C589 N587 1.356 . S
N590 C582 1.356 . S
N590 H596 0.984 . S
N590 H597 0.984 . S
N591 C584 1.356 . S
N591 H594 0.984 . S
N591 H595 0.985 . S
H592 N587 0.984 . S
H593 N587 0.985 . S
H594 N591 0.984 . S
H595 N591 0.985 . S
H596 N590 0.984 . S
H597 N590 0.984 . S
H598 N586 0.984 . S
H599 N586 0.985 . S
C600 C601 1.363 . S
C600 C606 1.379 . S
C600 N608 1.356 . S
C601 C600 1.363 . S
C601 C607 1.363 . S
C602 C603 1.363 . S
C602 C607 1.379 . S
C602 N609 1.356 . S
C603 C602 1.363 . S
C603 C606 1.363 . S
N604 C606 1.356 . S
N604 H616 0.984 . S
N604 H617 0.985 . S
N605 C607 1.356 . S
N605 H610 0.984 . S
N605 H611 0.985 . S
C606 C600 1.379 . S
C606 C603 1.363 . S
C606 N604 1.356 . S
C607 C601 1.363 . S
C607 C602 1.379 . S
C607 N605 1.356 . S
N608 C600 1.356 . S
N608 H614 0.984 . S
N608 H615 0.984 . S
N609 C602 1.356 . S
N609 H612 0.984 . S
N609 H613 0.985 . S
H610 N605 0.984 . S
H611 N605 0.985 . S
H612 N609 0.984 . S
H613 N609 0.985 . S
H614 N608 0.984 . S
H615 N608 0.984 . S
H616 N604 0.984 . S
H617 N604 0.985 . S
C618 C619 1.363 . S
C618 C624 1.379 . S
C618 N626 1.356 . S
C619 C618 1.363 . S
C619 C625 1.363 . S
C620 C621 1.363 . S
C620 C625 1.379 . S
C620 N627 1.356 . S
C621 C620 1.363 . S
C621 C624 1.363 . S
N622 C624 1.356 . S
N622 H634 0.984 . S
N622 H635 0.985 . S
N623 C625 1.356 . S
N623 H628 0.984 . S
N623 H629 0.985 . S
C624 C618 1.379 . S
C624 C621 1.363 . S
C624 N622 1.356 . S
C625 C619 1.363 . S
C625 C620 1.379 . S
C625 N623 1.356 . S
N626 C618 1.356 . S
N626 H632 0.984 1_556 S
N626 H633 0.984 . S
N627 C620 1.356 . S
N627 H630 0.984 . S
N627 H631 0.985 . S
H628 N623 0.984 . S
H629 N623 0.985 . S
H630 N627 0.984 . S
H631 N627 0.985 . S
H632 N626 0.984 1_554 S
H633 N626 0.984 . S
H634 N622 0.984 . S
H635 N622 0.985 . S
C636 C637 1.363 . S
C636 C642 1.379 . S
C636 N644 1.356 . S
C637 C636 1.363 . S
C637 C643 1.363 . S
C638 C639 1.363 . S
C638 C643 1.379 . S
C638 N645 1.356 . S
C639 C638 1.363 . S
C639 C642 1.363 . S
N640 C642 1.356 . S
N640 H652 0.984 . S
N640 H653 0.985 . S
N641 C643 1.356 . S
N641 H646 0.984 . S
N641 H647 0.985 . S
C642 C636 1.379 . S
C642 C639 1.363 . S
C642 N640 1.356 . S
C643 C637 1.363 . S
C643 C638 1.379 . S
C643 N641 1.356 . S
N644 C636 1.356 . S
N644 H650 0.984 1_565 S
N644 H651 0.984 . S
N645 C638 1.356 . S
N645 H648 0.984 . S
N645 H649 0.985 . S
H646 N641 0.984 . S
H647 N641 0.985 . S
H648 N645 0.984 . S
H649 N645 0.985 . S
H650 N644 0.984 1_545 S
H651 N644 0.984 . S
H652 N640 0.984 . S
H653 N640 0.985 . S
C654 C655 1.363 . S
C654 C660 1.379 . S
C654 N662 1.356 . S
C655 C654 1.363 . S
C655 C661 1.363 . S
C656 C657 1.363 . S
C656 C661 1.379 . S
C656 N663 1.356 . S
C657 C656 1.363 . S
C657 C660 1.363 . S
N658 C660 1.356 . S
N658 H670 0.984 . S
N658 H671 0.985 . S
N659 C661 1.356 . S
N659 H664 0.984 . S
N659 H665 0.970 1_556 S
C660 C654 1.379 . S
C660 C657 1.363 . S
C660 N658 1.356 . S
C661 C655 1.363 . S
C661 C656 1.379 . S
C661 N659 1.356 . S
N662 C654 1.356 . S
N662 H668 0.984 . S
N662 H669 0.984 . S
N663 C656 1.356 . S
N663 H666 0.984 . S
N663 H667 0.985 . S
H664 N659 0.984 . S
H665 N659 0.970 1_554 S
H666 N663 0.984 . S
H667 N663 0.985 . S
H668 N662 0.984 . S
H669 N662 0.984 . S
H670 N658 0.984 . S
H671 N658 0.985 . S
C672 C673 1.363 . S
C672 C678 1.379 . S
C672 N680 1.356 . S
C673 C672 1.363 . S
C673 C679 1.363 . S
C674 C675 1.363 . S
C674 C679 1.379 . S
C674 N681 1.356 . S
C675 C674 1.363 . S
C675 C678 1.363 . S
N676 C678 1.356 . S
N676 H688 0.984 . S
N676 H689 0.985 . S
N677 C679 1.356 . S
N677 H682 0.984 . S
N677 H683 0.985 . S
C678 C672 1.379 . S
C678 C675 1.363 . S
C678 N676 1.356 . S
C679 C673 1.363 . S
C679 C674 1.379 . S
C679 N677 1.356 . S
N680 C672 1.356 . S
N680 H686 0.984 . S
N680 H687 0.984 . S
N681 C674 1.356 . S
N681 H684 0.984 . S
N681 H685 0.985 . S
H682 N677 0.984 . S
H683 N677 0.985 . S
H684 N681 0.984 . S
H685 N681 0.985 . S
H686 N680 0.984 . S
H687 N680 0.984 . S
H688 N676 0.984 . S
H689 N676 0.985 . S
C690 C691 1.363 . S
C690 C696 1.379 . S
C690 N698 1.356 1_545 S
C691 C690 1.363 . S
C691 C697 1.363 . S
C692 C693 1.363 . S
C692 C697 1.379 . S
C692 N699 1.356 . S
C693 C692 1.363 . S
C693 C696 1.363 . S
N694 C696 1.356 . S
N694 H706 0.984 1_545 S
N694 H707 0.985 . S
N695 C697 1.356 . S
N695 H700 0.984 . S
N695 H701 0.985 . S
C696 C690 1.379 . S
C696 C693 1.363 . S
C696 N694 1.356 . S
C697 C691 1.363 . S
C697 C692 1.379 . S
C697 N695 1.356 . S
N698 C690 1.356 1_565 S
N698 H704 0.984 . S
N698 H705 0.984 . S
N699 C692 1.356 . S
N699 H702 0.984 . S
N699 H703 0.985 . S
H700 N695 0.984 . S
H701 N695 0.985 . S
H702 N699 0.984 . S
H703 N699 0.985 . S
H704 N698 0.984 . S
H705 N698 0.984 . S
H706 N694 0.984 1_565 S
H707 N694 0.985 . S
C708 C709 1.363 . S
C708 C714 1.379 . S
C708 N716 1.356 . S
C709 C708 1.363 . S
C709 C715 1.363 . S
C710 C711 1.363 . S
C710 C715 1.379 . S
C710 N717 1.356 . S
C711 C710 1.363 . S
C711 C714 1.363 . S
N712 C714 1.356 . S
N712 H724 0.984 . S
N712 H725 0.985 . S
N713 C715 1.356 . S
N713 H718 0.984 . S
N713 H719 0.985 . S
C714 C708 1.379 . S
C714 C711 1.363 . S
C714 N712 1.356 . S
C715 C709 1.363 . S
C715 C710 1.379 . S
C715 N713 1.356 . S
N716 C708 1.356 . S
N716 H722 0.984 . S
N716 H723 0.984 . S
N717 C710 1.356 . S
N717 H720 0.984 . S
N717 H721 0.985 . S
H718 N713 0.984 . S
H719 N713 0.985 . S
H720 N717 0.984 . S
H721 N717 0.985 . S
H722 N716 0.984 . S
H723 N716 0.984 . S
H724 N712 0.984 . S
H725 N712 0.985 . S
C726 C727 1.363 . S
C726 C732 1.379 . S
C726 N734 1.356 . S
C727 C726 1.363 . S
C727 C733 1.363 . S
C728 C729 1.363 . S
C728 C733 1.379 . S
C728 N735 1.356 . S
C729 C728 1.363 . S
C729 C732 1.363 . S
N730 C732 1.356 . S
N730 H742 0.984 . S
N730 H743 0.985 . S
N731 C733 1.356 . S
N731 H736 0.984 . S
N731 H737 0.985 . S
C732 C726 1.379 . S
C732 C729 1.363 . S
C732 N730 1.356 . S
C733 C727 1.363 . S
C733 C728 1.379 . S
C733 N731 1.356 . S
N734 C726 1.356 . S
N734 H740 0.984 1_545 S
N734 H741 0.984 . S
N735 C728 1.356 . S
N735 H738 0.984 . S
N735 H739 0.985 . S
H736 N731 0.984 . S
H737 N731 0.985 . S
H738 N735 0.984 . S
H739 N735 0.985 . S
H740 N734 0.984 1_565 S
H741 N734 0.984 . S
H742 N730 0.984 . S
H743 N730 0.985 . S
C744 C745 1.363 . S
C744 C750 1.379 . S
C744 N752 1.356 . S
C745 C744 1.363 . S
C745 C751 1.363 . S
C746 C747 1.363 . S
C746 C751 1.379 . S
C746 N753 1.356 . S
C747 C746 1.363 . S
C747 C750 1.363 . S
N748 C750 1.356 . S
N748 H760 0.984 . S
N748 H761 0.985 . S
N749 C751 1.356 . S
N749 H754 0.984 . S
N749 H755 0.985 . S
C750 C744 1.379 . S
C750 C747 1.363 . S
C750 N748 1.356 . S
C751 C745 1.363 . S
C751 C746 1.379 . S
C751 N749 1.356 . S
N752 C744 1.356 . S
N752 H758 0.984 1_554 S
N752 H759 0.984 . S
N753 C746 1.356 . S
N753 H756 0.984 . S
N753 H757 0.985 . S
H754 N749 0.984 . S
H755 N749 0.985 . S
H756 N753 0.984 . S
H757 N753 0.985 . S
H758 N752 0.984 1_556 S
H759 N752 0.984 . S
H760 N748 0.984 . S
H761 N748 0.985 . S
C762 C763 1.363 . S
C762 C768 1.379 . S
C762 N770 1.356 . S
C763 C762 1.363 . S
C763 C769 1.363 . S
C764 C765 1.363 . S
C764 C769 1.379 . S
C764 N771 1.356 . S
C765 C764 1.363 . S
C765 C768 1.363 . S
N766 C768 1.356 . S
N766 H778 0.984 . S
N766 H779 0.985 . S
N767 C769 1.356 1_455 S
N767 H772 0.984 . S
N767 H773 0.985 . S
C768 C762 1.379 . S
C768 C765 1.363 . S
C768 N766 1.356 . S
C769 C763 1.363 . S
C769 C764 1.379 . S
C769 N767 1.356 1_655 S
N770 C762 1.356 . S
N770 H776 0.984 . S
N770 H777 0.984 . S
N771 C764 1.356 . S
N771 H774 0.984 . S
N771 H775 0.985 . S
H772 N767 0.984 . S
H773 N767 0.985 . S
H774 N771 0.984 . S
H775 N771 0.985 . S
H776 N770 0.984 . S
H777 N770 0.984 . S
H778 N766 0.984 . S
H779 N766 0.985 . S
C780 C781 1.363 . S
C780 C786 1.379 . S
C780 N788 1.356 . S
C781 C780 1.363 . S
C781 C787 1.363 . S
C782 C783 1.363 . S
C782 C787 1.379 . S
C782 N789 1.356 . S
C783 C782 1.363 . S
C783 C786 1.363 . S
N784 C786 1.356 . S
N784 H796 0.984 . S
N784 H797 0.985 . S
N785 C787 1.356 . S
N785 H790 0.984 . S
N785 H791 0.985 . S
C786 C780 1.379 . S
C786 C783 1.363 . S
C786 N784 1.356 . S
C787 C781 1.363 . S
C787 C782 1.379 . S
C787 N785 1.356 . S
N788 C780 1.356 . S
N788 H794 0.984 1_554 S
N788 H795 0.984 . S
N789 C782 1.356 . S
N789 H792 0.984 . S
N789 H793 0.985 . S
H790 N785 0.984 . S
H791 N785 0.985 . S
H792 N789 0.984 . S
H793 N789 0.985 . S
H794 N788 0.984 1_556 S
H795 N788 0.984 . S
H796 N784 0.984 . S
H797 N784 0.985 . S
C798 C799 1.363 . S
C798 C804 1.379 . S
C798 N806 1.356 . S
C799 C798 1.363 . S
C799 C805 1.363 . S
C800 C801 1.363 . S
C800 C805 1.379 . S
C800 N807 1.356 . S
C801 C800 1.363 . S
C801 C804 1.363 . S
N802 C804 1.356 . S
N802 H814 0.984 . S
N802 H815 0.985 . S
N803 C805 1.356 . S
N803 H808 0.984 . S
N803 H809 0.985 . S
C804 C798 1.379 . S
C804 C801 1.363 . S
C804 N802 1.356 . S
C805 C799 1.363 . S
C805 C800 1.379 . S
C805 N803 1.356 . S
N806 C798 1.356 . S
N806 H812 0.984 . S
N806 H813 0.984 . S
N807 C800 1.356 . S
N807 H810 0.984 . S
N807 H811 0.985 . S
H808 N803 0.984 . S
H809 N803 0.985 . S
H810 N807 0.984 . S
H811 N807 0.985 . S
H812 N806 0.984 . S
H813 N806 0.984 . S
H814 N802 0.984 . S
H815 N802 0.985 . S
C816 C817 1.363 . S
C816 C822 1.379 . S
C816 N824 1.356 . S
C817 C816 1.363 . S
C817 C823 1.363 . S
C818 C819 1.363 . S
C818 C823 1.379 . S
C818 N825 1.356 . S
C819 C818 1.363 . S
C819 C822 1.363 . S
N820 C822 1.356 . S
N820 H832 0.984 . S
N820 H833 0.985 . S
N821 C823 1.356 . S
N821 H826 0.984 . S
N821 H827 0.985 . S
C822 C816 1.379 . S
C822 C819 1.363 . S
C822 N820 1.356 . S
C823 C817 1.363 . S
C823 C818 1.379 . S
C823 N821 1.356 . S
N824 C816 1.356 . S
N824 H830 0.984 . S
N824 H831 0.984 . S
N825 C818 1.356 . S
N825 H828 0.984 . S
N825 H829 0.985 . S
H826 N821 0.984 . S
H827 N821 0.985 . S
H828 N825 0.984 . S
H829 N825 0.985 . S
H830 N824 0.984 . S
H831 N824 0.984 . S
H832 N820 0.984 . S
H833 N820 0.985 . S
C403 C13 1.928 . S
C405 C122 1.885 . S
C421 C27 1.657 . S
C423 C175 1.611 . S
C441 C228 1.777 . S
C439 C29 1.824 . S
C459 C265 1.480 . S
C457 C54 1.521 . S
C477 C325 1.714 . S
C475 C69 1.761 . S
C495 C378 1.565 . S
C493 C83 1.611 . S
C511 C15 1.928 . S
C513 C229 1.896 . S
C529 C41 1.612 . S
C531 C272 1.566 . S
C549 C318 1.722 . S
C547 C42 1.762 . S
C567 C371 1.479 . S
C565 C57 1.520 . S
C583 C71 1.824 . S
C585 C123 1.787 . S
C603 C176 1.621 . S
C601 C1 1.657 . S
C621 C282 1.885 . S
C619 C12 1.928 . S
C637 C26 1.657 . S
C639 C334 1.621 . S
C657 C387 1.787 . S
C655 C28 1.824 . S
C673 C55 1.521 . S
C675 C113 1.479 . S
C691 C68 1.761 . S
C693 C166 1.722 . S
C709 C82 1.611 . S
C711 C219 1.574 . S
C727 C14 1.928 . S
C729 C388 1.885 . S
C747 C106 1.565 . S
C745 C40 1.611 . S
C763 C43 1.762 . S
C765 C159 1.714 . S
C781 C56 1.521 . S
C783 C212 1.472 . S
C799 C70 1.824 . S
C801 C281 1.787 . S
C817 C0 1.657 . S
C819 C335 1.611 . S
