# Generated by pormake.
# Topology gar, (4,6)-cn, num edge types: 1
# Building blocks:
#     Node 0, Type 0, BuildingBlock: UXUYUI_clean_sbu_0, # of connection points: 4
#     Node 1, Type 0, BuildingBlock: UXUYUI_clean_sbu_0, # of connection points: 4
#     Node 2, Type 0, BuildingBlock: UXUYUI_clean_sbu_0, # of connection points: 4
#     Node 3, Type 0, BuildingBlock: UXUYUI_clean_sbu_0, # of connection points: 4
#     Node 4, Type 0, BuildingBlock: UXUYUI_clean_sbu_0, # of connection points: 4
#     Node 5, Type 0, BuildingBlock: UXUYUI_clean_sbu_0, # of connection points: 4
#     Node 6, Type 0, BuildingBlock: UXUYUI_clean_sbu_0, # of connection points: 4
#     Node 7, Type 0, BuildingBlock: UXUYUI_clean_sbu_0, # of connection points: 4
#     Node 8, Type 0, BuildingBlock: UXUYUI_clean_sbu_0, # of connection points: 4
#     Node 9, Type 0, BuildingBlock: UXUYUI_clean_sbu_0, # of connection points: 4
#     Node 10, Type 0, BuildingBlock: UXUYUI_clean_sbu_0, # of connection points: 4
#     Node 11, Type 0, BuildingBlock: UXUYUI_clean_sbu_0, # of connection points: 4
#     Node 12, Type 0, BuildingBlock: UXUYUI_clean_sbu_0, # of connection points: 4
#     Node 13, Type 0, BuildingBlock: UXUYUI_clean_sbu_0, # of connection points: 4
#     Node 14, Type 0, BuildingBlock: UXUYUI_clean_sbu_0, # of connection points: 4
#     Node 15, Type 0, BuildingBlock: UXUYUI_clean_sbu_0, # of connection points: 4
#     Node 16, Type 0, BuildingBlock: UXUYUI_clean_sbu_0, # of connection points: 4
#     Node 17, Type 0, BuildingBlock: UXUYUI_clean_sbu_0, # of connection points: 4
#     Node 18, Type 0, BuildingBlock: UXUYUI_clean_sbu_0, # of connection points: 4
#     Node 19, Type 0, BuildingBlock: UXUYUI_clean_sbu_0, # of connection points: 4
#     Node 20, Type 0, BuildingBlock: UXUYUI_clean_sbu_0, # of connection points: 4
#     Node 21, Type 0, BuildingBlock: UXUYUI_clean_sbu_0, # of connection points: 4
#     Node 22, Type 0, BuildingBlock: UXUYUI_clean_sbu_0, # of connection points: 4
#     Node 23, Type 0, BuildingBlock: UXUYUI_clean_sbu_0, # of connection points: 4
#     Node 24, Type 1, BuildingBlock: PAMTOO_clean_sbu_0, # of connection points: 6
#     Node 25, Type 1, BuildingBlock: PAMTOO_clean_sbu_0, # of connection points: 6
#     Node 26, Type 1, BuildingBlock: PAMTOO_clean_sbu_0, # of connection points: 6
#     Node 27, Type 1, BuildingBlock: PAMTOO_clean_sbu_0, # of connection points: 6
#     Node 28, Type 1, BuildingBlock: PAMTOO_clean_sbu_0, # of connection points: 6
#     Node 29, Type 1, BuildingBlock: PAMTOO_clean_sbu_0, # of connection points: 6
#     Node 30, Type 1, BuildingBlock: PAMTOO_clean_sbu_0, # of connection points: 6
#     Node 31, Type 1, BuildingBlock: PAMTOO_clean_sbu_0, # of connection points: 6
#     Node 32, Type 1, BuildingBlock: PAMTOO_clean_sbu_0, # of connection points: 6
#     Node 33, Type 1, BuildingBlock: PAMTOO_clean_sbu_0, # of connection points: 6
#     Node 34, Type 1, BuildingBlock: PAMTOO_clean_sbu_0, # of connection points: 6
#     Node 35, Type 1, BuildingBlock: PAMTOO_clean_sbu_0, # of connection points: 6
#     Node 36, Type 1, BuildingBlock: PAMTOO_clean_sbu_0, # of connection points: 6
#     Node 37, Type 1, BuildingBlock: PAMTOO_clean_sbu_0, # of connection points: 6
#     Node 38, Type 1, BuildingBlock: PAMTOO_clean_sbu_0, # of connection points: 6
#     Node 39, Type 1, BuildingBlock: PAMTOO_clean_sbu_0, # of connection points: 6
#     Edge 40, Type (0, 1), BuildingBlock: MIFKUJ_clean_linker_0, # of connection points: 2
#     Edge 41, Type (0, 1), BuildingBlock: MIFKUJ_clean_linker_0, # of connection points: 2
#     Edge 42, Type (0, 1), BuildingBlock: MIFKUJ_clean_linker_0, # of connection points: 2
#     Edge 43, Type (0, 1), BuildingBlock: MIFKUJ_clean_linker_0, # of connection points: 2
#     Edge 44, Type (0, 1), BuildingBlock: MIFKUJ_clean_linker_0, # of connection points: 2
#     Edge 45, Type (0, 1), BuildingBlock: MIFKUJ_clean_linker_0, # of connection points: 2
#     Edge 46, Type (0, 1), BuildingBlock: MIFKUJ_clean_linker_0, # of connection points: 2
#     Edge 47, Type (0, 1), BuildingBlock: MIFKUJ_clean_linker_0, # of connection points: 2
#     Edge 48, Type (0, 1), BuildingBlock: MIFKUJ_clean_linker_0, # of connection points: 2
#     Edge 49, Type (0, 1), BuildingBlock: MIFKUJ_clean_linker_0, # of connection points: 2
#     Edge 50, Type (0, 1), BuildingBlock: MIFKUJ_clean_linker_0, # of connection points: 2
#     Edge 51, Type (0, 1), BuildingBlock: MIFKUJ_clean_linker_0, # of connection points: 2
#     Edge 52, Type (0, 1), BuildingBlock: MIFKUJ_clean_linker_0, # of connection points: 2
#     Edge 53, Type (0, 1), BuildingBlock: MIFKUJ_clean_linker_0, # of connection points: 2
#     Edge 54, Type (0, 1), BuildingBlock: MIFKUJ_clean_linker_0, # of connection points: 2
#     Edge 55, Type (0, 1), BuildingBlock: MIFKUJ_clean_linker_0, # of connection points: 2
#     Edge 56, Type (0, 1), BuildingBlock: MIFKUJ_clean_linker_0, # of connection points: 2
#     Edge 57, Type (0, 1), BuildingBlock: MIFKUJ_clean_linker_0, # of connection points: 2
#     Edge 58, Type (0, 1), BuildingBlock: MIFKUJ_clean_linker_0, # of connection points: 2
#     Edge 59, Type (0, 1), BuildingBlock: MIFKUJ_clean_linker_0, # of connection points: 2
#     Edge 60, Type (0, 1), BuildingBlock: MIFKUJ_clean_linker_0, # of connection points: 2
#     Edge 61, Type (0, 1), BuildingBlock: MIFKUJ_clean_linker_0, # of connection points: 2
#     Edge 62, Type (0, 1), BuildingBlock: MIFKUJ_clean_linker_0, # of connection points: 2
#     Edge 63, Type (0, 1), BuildingBlock: MIFKUJ_clean_linker_0, # of connection points: 2
#     Edge 64, Type (0, 1), BuildingBlock: MIFKUJ_clean_linker_0, # of connection points: 2
#     Edge 65, Type (0, 1), BuildingBlock: MIFKUJ_clean_linker_0, # of connection points: 2
#     Edge 66, Type (0, 1), BuildingBlock: MIFKUJ_clean_linker_0, # of connection points: 2
#     Edge 67, Type (0, 1), BuildingBlock: MIFKUJ_clean_linker_0, # of connection points: 2
#     Edge 68, Type (0, 1), BuildingBlock: MIFKUJ_clean_linker_0, # of connection points: 2
#     Edge 69, Type (0, 1), BuildingBlock: MIFKUJ_clean_linker_0, # of connection points: 2
#     Edge 70, Type (0, 1), BuildingBlock: MIFKUJ_clean_linker_0, # of connection points: 2
#     Edge 71, Type (0, 1), BuildingBlock: MIFKUJ_clean_linker_0, # of connection points: 2
#     Edge 72, Type (0, 1), BuildingBlock: MIFKUJ_clean_linker_0, # of connection points: 2
#     Edge 73, Type (0, 1), BuildingBlock: MIFKUJ_clean_linker_0, # of connection points: 2
#     Edge 74, Type (0, 1), BuildingBlock: MIFKUJ_clean_linker_0, # of connection points: 2
#     Edge 75, Type (0, 1), BuildingBlock: MIFKUJ_clean_linker_0, # of connection points: 2
#     Edge 76, Type (0, 1), BuildingBlock: MIFKUJ_clean_linker_0, # of connection points: 2
#     Edge 77, Type (0, 1), BuildingBlock: MIFKUJ_clean_linker_0, # of connection points: 2
#     Edge 78, Type (0, 1), BuildingBlock: MIFKUJ_clean_linker_0, # of connection points: 2
#     Edge 79, Type (0, 1), BuildingBlock: MIFKUJ_clean_linker_0, # of connection points: 2
#     Edge 80, Type (0, 1), BuildingBlock: MIFKUJ_clean_linker_0, # of connection points: 2
#     Edge 81, Type (0, 1), BuildingBlock: MIFKUJ_clean_linker_0, # of connection points: 2
#     Edge 82, Type (0, 1), BuildingBlock: MIFKUJ_clean_linker_0, # of connection points: 2
#     Edge 83, Type (0, 1), BuildingBlock: MIFKUJ_clean_linker_0, # of connection points: 2
#     Edge 84, Type (0, 1), BuildingBlock: MIFKUJ_clean_linker_0, # of connection points: 2
#     Edge 85, Type (0, 1), BuildingBlock: MIFKUJ_clean_linker_0, # of connection points: 2
#     Edge 86, Type (0, 1), BuildingBlock: MIFKUJ_clean_linker_0, # of connection points: 2
#     Edge 87, Type (0, 1), BuildingBlock: MIFKUJ_clean_linker_0, # of connection points: 2
#     Edge 88, Type (0, 1), BuildingBlock: MIFKUJ_clean_linker_0, # of connection points: 2
#     Edge 89, Type (0, 1), BuildingBlock: MIFKUJ_clean_linker_0, # of connection points: 2
#     Edge 90, Type (0, 1), BuildingBlock: MIFKUJ_clean_linker_0, # of connection points: 2
#     Edge 91, Type (0, 1), BuildingBlock: MIFKUJ_clean_linker_0, # of connection points: 2
#     Edge 92, Type (0, 1), BuildingBlock: MIFKUJ_clean_linker_0, # of connection points: 2
#     Edge 93, Type (0, 1), BuildingBlock: MIFKUJ_clean_linker_0, # of connection points: 2
#     Edge 94, Type (0, 1), BuildingBlock: MIFKUJ_clean_linker_0, # of connection points: 2
#     Edge 95, Type (0, 1), BuildingBlock: MIFKUJ_clean_linker_0, # of connection points: 2
#     Edge 96, Type (0, 1), BuildingBlock: MIFKUJ_clean_linker_0, # of connection points: 2
#     Edge 97, Type (0, 1), BuildingBlock: MIFKUJ_clean_linker_0, # of connection points: 2
#     Edge 98, Type (0, 1), BuildingBlock: MIFKUJ_clean_linker_0, # of connection points: 2
#     Edge 99, Type (0, 1), BuildingBlock: MIFKUJ_clean_linker_0, # of connection points: 2
#     Edge 100, Type (0, 1), BuildingBlock: MIFKUJ_clean_linker_0, # of connection points: 2
#     Edge 101, Type (0, 1), BuildingBlock: MIFKUJ_clean_linker_0, # of connection points: 2
#     Edge 102, Type (0, 1), BuildingBlock: MIFKUJ_clean_linker_0, # of connection points: 2
#     Edge 103, Type (0, 1), BuildingBlock: MIFKUJ_clean_linker_0, # of connection points: 2
#     Edge 104, Type (0, 1), BuildingBlock: MIFKUJ_clean_linker_0, # of connection points: 2
#     Edge 105, Type (0, 1), BuildingBlock: MIFKUJ_clean_linker_0, # of connection points: 2
#     Edge 106, Type (0, 1), BuildingBlock: MIFKUJ_clean_linker_0, # of connection points: 2
#     Edge 107, Type (0, 1), BuildingBlock: MIFKUJ_clean_linker_0, # of connection points: 2
#     Edge 108, Type (0, 1), BuildingBlock: MIFKUJ_clean_linker_0, # of connection points: 2
#     Edge 109, Type (0, 1), BuildingBlock: MIFKUJ_clean_linker_0, # of connection points: 2
#     Edge 110, Type (0, 1), BuildingBlock: MIFKUJ_clean_linker_0, # of connection points: 2
#     Edge 111, Type (0, 1), BuildingBlock: MIFKUJ_clean_linker_0, # of connection points: 2
#     Edge 112, Type (0, 1), BuildingBlock: MIFKUJ_clean_linker_0, # of connection points: 2
#     Edge 113, Type (0, 1), BuildingBlock: MIFKUJ_clean_linker_0, # of connection points: 2
#     Edge 114, Type (0, 1), BuildingBlock: MIFKUJ_clean_linker_0, # of connection points: 2
#     Edge 115, Type (0, 1), BuildingBlock: MIFKUJ_clean_linker_0, # of connection points: 2
#     Edge 116, Type (0, 1), BuildingBlock: MIFKUJ_clean_linker_0, # of connection points: 2
#     Edge 117, Type (0, 1), BuildingBlock: MIFKUJ_clean_linker_0, # of connection points: 2
#     Edge 118, Type (0, 1), BuildingBlock: MIFKUJ_clean_linker_0, # of connection points: 2
#     Edge 119, Type (0, 1), BuildingBlock: MIFKUJ_clean_linker_0, # of connection points: 2
#     Edge 120, Type (0, 1), BuildingBlock: MIFKUJ_clean_linker_0, # of connection points: 2
#     Edge 121, Type (0, 1), BuildingBlock: MIFKUJ_clean_linker_0, # of connection points: 2
#     Edge 122, Type (0, 1), BuildingBlock: MIFKUJ_clean_linker_0, # of connection points: 2
#     Edge 123, Type (0, 1), BuildingBlock: MIFKUJ_clean_linker_0, # of connection points: 2
#     Edge 124, Type (0, 1), BuildingBlock: MIFKUJ_clean_linker_0, # of connection points: 2
#     Edge 125, Type (0, 1), BuildingBlock: MIFKUJ_clean_linker_0, # of connection points: 2
#     Edge 126, Type (0, 1), BuildingBlock: MIFKUJ_clean_linker_0, # of connection points: 2
#     Edge 127, Type (0, 1), BuildingBlock: MIFKUJ_clean_linker_0, # of connection points: 2
#     Edge 128, Type (0, 1), BuildingBlock: MIFKUJ_clean_linker_0, # of connection points: 2
#     Edge 129, Type (0, 1), BuildingBlock: MIFKUJ_clean_linker_0, # of connection points: 2
#     Edge 130, Type (0, 1), BuildingBlock: MIFKUJ_clean_linker_0, # of connection points: 2
#     Edge 131, Type (0, 1), BuildingBlock: MIFKUJ_clean_linker_0, # of connection points: 2
#     Edge 132, Type (0, 1), BuildingBlock: MIFKUJ_clean_linker_0, # of connection points: 2
#     Edge 133, Type (0, 1), BuildingBlock: MIFKUJ_clean_linker_0, # of connection points: 2
#     Edge 134, Type (0, 1), BuildingBlock: MIFKUJ_clean_linker_0, # of connection points: 2
#     Edge 135, Type (0, 1), BuildingBlock: MIFKUJ_clean_linker_0, # of connection points: 2
# Relax obj value: 0.145
# Max RMSD: 0.249
# Mean RMSD: 0.197
data_MOF--net-gar--node1-UXUYUI_clean_sbu_0--node2-PAMTOO_clean_sbu_0--edge1-MIFKUJ_clean_linker_0
_symmetry_space_group_name_H-M    P1
_symmetry_Int_Tables_number       1
_symmetry_cell_setting            triclinic
loop_
_symmetry_equiv_pos_as_xyz
'x, y, z'
_cell_length_a     87.898554
_cell_length_b     88.210333
_cell_length_c     86.276176
_cell_angle_alpha  95.852902
_cell_angle_beta   95.007744
_cell_angle_gamma 104.23093
loop_
_atom_site_label
_atom_site_type_symbol
_atom_site_fract_x
_atom_site_fract_y
_atom_site_fract_z
_atom_type_partial_charge
Li0 Li 0.01667 0.29506 0.34463 0.0
Li1 Li 0.03353 0.3128 0.36789 0.0
Li2 Li 0.04605 0.29754 0.34679 0.0
Li3 Li 0.02935 0.28305 0.3665 0.0
C4 C 0.03282 0.32477 0.33456 0.0
N5 N 0.02885 0.34548 0.31354 0.0
C6 C 0.02849 0.33853 0.33957 0.0
C7 C 0.03529 0.3216 0.31891 0.0
C8 C 0.0265 0.34884 0.32875 0.0
C9 C 0.03318 0.33221 0.30845 0.0
C10 C 0.00243 0.29519 0.37715 0.0
C11 C 0.99446 0.29342 0.40308 0.0
N12 N 0.97971 0.29407 0.3975 0.0
C13 C 0.9872 0.29588 0.37166 0.0
C14 C 0.00613 0.294 0.39299 0.0
C15 C 0.97588 0.29529 0.38214 0.0
C16 C 0.98627 0.27787 0.33012 0.0
N17 N 0.99702 0.29208 0.33112 0.0
C18 C 0.97804 0.30249 0.3169 0.0
C19 C 0.99321 0.30424 0.32452 0.0
C20 C 0.96651 0.28819 0.31627 0.0
C21 C 0.97089 0.27567 0.32277 0.0
H22 H 0.98945 0.26843 0.33565 0.0
H23 H 0.00162 0.31556 0.3257 0.0
C24 C 0.04944 0.34314 0.38614 0.0
N25 N 0.03533 0.33228 0.38181 0.0
C26 C 0.05028 0.35714 0.39597 0.0
C27 C 0.02217 0.34848 0.39688 0.0
C28 C 0.02182 0.33489 0.38681 0.0
C29 C 0.03651 0.35987 0.40161 0.0
H30 H 0.06005 0.34097 0.38192 0.0
H31 H 0.01063 0.32653 0.38288 0.0
C32 C 0.02433 0.26615 0.3312 0.0
N33 N 0.01636 0.24188 0.30672 0.0
C34 C 0.02275 0.2506 0.33418 0.0
C35 C 0.02188 0.2694 0.31581 0.0
C36 C 0.01874 0.23848 0.32163 0.0
C37 C 0.01781 0.25694 0.30358 0.0
C38 C 0.06051 0.301 0.38293 0.0
C39 C 0.07503 0.29792 0.38052 0.0
C40 C 0.05736 0.30528 0.39812 0.0
C41 C 0.0862 0.29912 0.39344 0.0
C42 C 0.06884 0.30634 0.41073 0.0
N43 N 0.0829 0.30327 0.40815 0.0
C44 C 0.07466 0.31078 0.33291 0.0
C45 C 0.06712 0.28296 0.33114 0.0
C46 C 0.08819 0.31026 0.3255 0.0
N47 N 0.06446 0.29724 0.33566 0.0
C48 C 0.08044 0.2819 0.32368 0.0
C49 C 0.09135 0.29566 0.3208 0.0
H50 H 0.07237 0.32203 0.3366 0.0
H51 H 0.059 0.27233 0.33356 0.0
C52 C 0.01183 0.25767 0.38145 0.0
N53 N 0.02659 0.26512 0.37846 0.0
C54 C 0.00949 0.24468 0.38991 0.0
C55 C 0.03749 0.24679 0.39165 0.0
C56 C 0.03932 0.25988 0.38333 0.0
C57 C 0.02241 0.23901 0.39513 0.0
H58 H 0.00179 0.26174 0.37717 0.0
H59 H 0.05093 0.2658 0.38068 0.0
O60 O 0.03471 0.31452 0.34497 0.0
O61 O 0.01367 0.29583 0.36707 0.0
O62 O 0.02818 0.27809 0.34339 0.0
O63 O 0.04964 0.30028 0.37039 0.0
H64 H 0.02655 0.34115 0.35166 0.0
H65 H 0.03873 0.31103 0.31489 0.0
H66 H 0.02306 0.35949 0.33243 0.0
H67 H 0.03497 0.32989 0.29628 0.0
H68 H 0.99714 0.29244 0.41536 0.0
H69 H 0.98418 0.29698 0.35948 0.0
H70 H 0.01787 0.29346 0.39741 0.0
H71 H 0.96405 0.29583 0.37806 0.0
H72 H 0.97516 0.31254 0.31228 0.0
H73 H 0.96241 0.2644 0.32248 0.0
H74 H 0.06159 0.36564 0.3993 0.0
H75 H 0.01123 0.35022 0.40068 0.0
H76 H 0.02463 0.24793 0.34606 0.0
H77 H 0.02301 0.2814 0.31336 0.0
H78 H 0.01751 0.22638 0.32374 0.0
H79 H 0.0158 0.25925 0.2916 0.0
H80 H 0.07766 0.2947 0.36879 0.0
H81 H 0.04622 0.30787 0.40012 0.0
H82 H 0.09751 0.2968 0.39176 0.0
H83 H 0.06659 0.30966 0.42256 0.0
H84 H 0.09607 0.32121 0.32344 0.0
H85 H 0.08235 0.27037 0.32058 0.0
H86 H 0.99763 0.23895 0.39209 0.0
H87 H 0.04781 0.24292 0.39548 0.0
Li88 Li 0.01289 0.76958 0.66513 0.0
Li89 Li 0.02468 0.75733 0.68696 0.0
Li90 Li 0.00731 0.73989 0.66393 0.0
Li91 Li 0.99542 0.75501 0.68491 0.0
C92 C 0.03862 0.75664 0.65419 0.0
N93 N 0.0608 0.75796 0.63325 0.0
C94 C 0.05473 0.76144 0.65961 0.0
C95 C 0.03377 0.75249 0.63813 0.0
C96 C 0.06577 0.76205 0.64884 0.0
C97 C 0.04517 0.75323 0.62773 0.0
C98 C 0.01973 0.78638 0.70042 0.0
C99 C 0.02372 0.79632 0.72795 0.0
N100 N 0.03252 0.81035 0.72465 0.0
C101 C 0.02872 0.80091 0.69728 0.0
C102 C 0.0171 0.78406 0.71584 0.0
C103 C 0.03513 0.81288 0.7097 0.0
C104 C 0.00396 0.7944 0.65088 0.0
N105 N 0.01598 0.78733 0.65302 0.0
C106 C 0.03197 0.8056 0.63841 0.0
C107 C 0.02986 0.79276 0.64705 0.0
C108 C 0.01978 0.81319 0.63604 0.0
C109 C 0.00564 0.80741 0.64248 0.0
H110 H 0.99305 0.78995 0.65576 0.0
H111 H 0.03942 0.78725 0.6491 0.0
C112 C 0.04807 0.74577 0.70366 0.0
N113 N 0.04422 0.7592 0.70029 0.0
C114 C 0.06297 0.74639 0.71127 0.0
C115 C 0.0699 0.77465 0.71182 0.0
C116 C 0.05477 0.7735 0.70436 0.0
C117 C 0.07436 0.76093 0.71516 0.0
H118 H 0.0398 0.73446 0.69992 0.0
H119 H 0.05178 0.784 0.7011 0.0
C120 C 0.98061 0.74768 0.64883 0.0
N121 N 0.95749 0.73612 0.62374 0.0
C122 C 0.96538 0.73971 0.65135 0.0
C123 C 0.98408 0.74986 0.6336 0.0
C124 C 0.95385 0.73394 0.6385 0.0
C125 C 0.97223 0.74388 0.62105 0.0
C126 C 0.0074 0.72799 0.69755 0.0
C127 C 0.00675 0.71222 0.69266 0.0
C128 C 0.00905 0.73339 0.71356 0.0
C129 C 0.00782 0.70209 0.7039 0.0
C130 C 0.01016 0.7229 0.72444 0.0
N131 N 0.00952 0.7076 0.71943 0.0
C132 C 0.01931 0.71612 0.64892 0.0
C133 C 0.99171 0.71123 0.64226 0.0
C134 C 0.01964 0.70256 0.63913 0.0
N135 N 0.00555 0.72038 0.65017 0.0
C136 C 0.99147 0.69741 0.63245 0.0
C137 C 0.00561 0.69297 0.63065 0.0
H138 H 0.03013 0.72329 0.65557 0.0
H139 H 0.98083 0.7146 0.64354 0.0
C140 C 0.97402 0.76935 0.70039 0.0
N141 N 0.97706 0.7552 0.69608 0.0
C142 C 0.9606 0.77014 0.70782 0.0
C143 C 0.95349 0.74176 0.7062 0.0
C144 C 0.96719 0.74152 0.69901 0.0
C145 C 0.95003 0.75621 0.71067 0.0
H146 H 0.98192 0.78007 0.69786 0.0
H147 H 0.9698 0.73039 0.69551 0.0
O148 O 0.02767 0.75586 0.66461 0.0
O149 O 0.01326 0.7746 0.68839 0.0
O150 O 0.99197 0.75354 0.66127 0.0
O151 O 0.0066 0.73807 0.68666 0.0
H152 H 0.05869 0.76465 0.672 0.0
H153 H 0.02134 0.74867 0.63377 0.0
H154 H 0.07828 0.76576 0.65287 0.0
H155 H 0.04161 0.75002 0.61527 0.0
H156 H 0.02182 0.79469 0.73995 0.0
H157 H 0.03076 0.8029 0.68537 0.0
H158 H 0.00997 0.77295 0.71843 0.0
H159 H 0.04215 0.82418 0.70746 0.0
H160 H 0.04315 0.80974 0.63387 0.0
H161 H 0.99587 0.81278 0.64088 0.0
H162 H 0.06562 0.73546 0.71375 0.0
H163 H 0.07823 0.78613 0.71424 0.0
H164 H 0.96251 0.73801 0.6631 0.0
H165 H 0.99579 0.75615 0.6315 0.0
H166 H 0.942 0.72774 0.64025 0.0
H167 H 0.97474 0.74545 0.60918 0.0
H168 H 0.00545 0.70786 0.6803 0.0
H169 H 0.00963 0.74557 0.71752 0.0
H170 H 0.00732 0.68985 0.70029 0.0
H171 H 0.01156 0.72693 0.73688 0.0
H172 H 0.03078 0.6995 0.63838 0.0
H173 H 0.98036 0.6904 0.62615 0.0
H174 H 0.95826 0.78149 0.71093 0.0
H175 H 0.94563 0.73077 0.70822 0.0
Li176 Li 0.51748 0.79485 0.84488 0.0
Li177 Li 0.53444 0.81261 0.86817 0.0
Li178 Li 0.54684 0.79745 0.84664 0.0
Li179 Li 0.53012 0.78281 0.86628 0.0
C180 C 0.53256 0.82406 0.83439 0.0
N181 N 0.52684 0.84351 0.81265 0.0
C182 C 0.52873 0.83814 0.83923 0.0
C183 C 0.53366 0.81995 0.81853 0.0
C184 C 0.52583 0.84779 0.82805 0.0
C185 C 0.53066 0.82992 0.80771 0.0
C186 C 0.50282 0.7926 0.8768 0.0
C187 C 0.49411 0.7869 0.90182 0.0
N188 N 0.47918 0.78695 0.8962 0.0
C189 C 0.48737 0.79255 0.87127 0.0
C190 C 0.50623 0.78975 0.8922 0.0
C191 C 0.47559 0.7897 0.88126 0.0
C192 C 0.48864 0.778 0.82553 0.0
N193 N 0.49785 0.79253 0.83165 0.0
C194 C 0.4775 0.80448 0.82282 0.0
C195 C 0.49255 0.80564 0.83037 0.0
C196 C 0.4676 0.78963 0.81654 0.0
C197 C 0.47351 0.7763 0.81778 0.0
H198 H 0.49275 0.76763 0.82715 0.0
H199 H 0.49963 0.81697 0.83596 0.0
C200 C 0.54811 0.84524 0.88232 0.0
N201 N 0.53627 0.83197 0.88234 0.0
C202 C 0.54841 0.85925 0.89189 0.0
C203 C 0.52461 0.84563 0.90163 0.0
C204 C 0.52469 0.83203 0.89182 0.0
C205 C 0.53642 0.85967 0.90167 0.0
H206 H 0.55715 0.84507 0.87461 0.0
H207 H 0.5153 0.82158 0.89171 0.0
C208 C 0.52467 0.76582 0.83109 0.0
N209 N 0.51606 0.74132 0.80681 0.0
C210 C 0.52238 0.75025 0.83424 0.0
C211 C 0.52259 0.76896 0.8156 0.0
C212 C 0.51805 0.73802 0.8218 0.0
C213 C 0.51821 0.7564 0.80348 0.0
C214 C 0.56135 0.8014 0.883 0.0
C215 C 0.57614 0.79881 0.88094 0.0
C216 C 0.55783 0.80569 0.89803 0.0
C217 C 0.58722 0.80055 0.89405 0.0
C218 C 0.56924 0.80732 0.91085 0.0
N219 N 0.58357 0.80474 0.90861 0.0
C220 C 0.5785 0.81001 0.83889 0.0
C221 C 0.56561 0.78482 0.82533 0.0
C222 C 0.59236 0.80976 0.83197 0.0
N223 N 0.56548 0.79758 0.8356 0.0
C224 C 0.57913 0.78417 0.81803 0.0
C225 C 0.59287 0.79666 0.82142 0.0
H226 H 0.57825 0.82001 0.84714 0.0
H227 H 0.55536 0.7749 0.82303 0.0
C228 C 0.5124 0.75536 0.8779 0.0
N229 N 0.5272 0.76492 0.8782 0.0
C230 C 0.50976 0.74246 0.88649 0.0
C231 C 0.53766 0.74922 0.89534 0.0
C232 C 0.53976 0.76198 0.8866 0.0
C233 C 0.52248 0.73923 0.89547 0.0
H234 H 0.50258 0.7578 0.87104 0.0
H235 H 0.55147 0.76947 0.88649 0.0
O236 O 0.53546 0.81451 0.84519 0.0
O237 O 0.51458 0.79575 0.86729 0.0
O238 O 0.52901 0.7779 0.84315 0.0
O239 O 0.55048 0.79996 0.87027 0.0
H240 H 0.52787 0.84151 0.85148 0.0
H241 H 0.53681 0.80919 0.81464 0.0
H242 H 0.52278 0.85868 0.83162 0.0
H243 H 0.5314 0.82687 0.79538 0.0
H244 H 0.49659 0.78469 0.91377 0.0
H245 H 0.48451 0.79484 0.85944 0.0
H246 H 0.51815 0.78985 0.89671 0.0
H247 H 0.46361 0.78971 0.87715 0.0
H248 H 0.47342 0.81509 0.82263 0.0
H249 H 0.46643 0.76459 0.81309 0.0
H250 H 0.55772 0.86973 0.89128 0.0
H251 H 0.51528 0.84505 0.90912 0.0
H252 H 0.52401 0.74764 0.84617 0.0
H253 H 0.52428 0.78095 0.81298 0.0
H254 H 0.51628 0.7259 0.82406 0.0
H255 H 0.51652 0.75863 0.79144 0.0
H256 H 0.57902 0.79548 0.86935 0.0
H257 H 0.54643 0.80779 0.89977 0.0
H258 H 0.59873 0.79859 0.89266 0.0
H259 H 0.56671 0.81066 0.92257 0.0
H260 H 0.60259 0.81974 0.83489 0.0
H261 H 0.57896 0.77371 0.81018 0.0
H262 H 0.49782 0.73525 0.88626 0.0
H263 H 0.54792 0.74709 0.90175 0.0
Li264 Li 0.51288 0.26928 0.1654 0.0
Li265 Li 0.52439 0.25695 0.18713 0.0
Li266 Li 0.5071 0.23956 0.16407 0.0
Li267 Li 0.49531 0.25499 0.1851 0.0
C268 C 0.53868 0.25661 0.15475 0.0
N269 N 0.56155 0.25878 0.1345 0.0
C270 C 0.55462 0.26279 0.16048 0.0
C271 C 0.53435 0.25154 0.13874 0.0
C272 C 0.56601 0.26379 0.15005 0.0
C273 C 0.5461 0.25274 0.12869 0.0
C274 C 0.51931 0.28626 0.20061 0.0
C275 C 0.52235 0.29638 0.22804 0.0
N276 N 0.53132 0.31039 0.22486 0.0
C277 C 0.5285 0.30075 0.19759 0.0
C278 C 0.51612 0.28404 0.21592 0.0
C279 C 0.53448 0.31281 0.21002 0.0
C280 C 0.50344 0.29245 0.14896 0.0
N281 N 0.51611 0.28689 0.15325 0.0
C282 C 0.53291 0.30665 0.14081 0.0
C283 C 0.53069 0.29374 0.14938 0.0
C284 C 0.52005 0.31272 0.13626 0.0
C285 C 0.50515 0.30537 0.14046 0.0
H286 H 0.49197 0.28686 0.1522 0.0
H287 H 0.54066 0.28933 0.15309 0.0
C288 C 0.54968 0.24537 0.19842 0.0
N289 N 0.54401 0.25839 0.20018 0.0
C290 C 0.56484 0.24575 0.20521 0.0
C291 C 0.56804 0.27282 0.21601 0.0
C292 C 0.55281 0.27194 0.20893 0.0
C293 C 0.57441 0.25972 0.21389 0.0
H294 H 0.54264 0.23481 0.19119 0.0
H295 H 0.5484 0.28232 0.20993 0.0
C296 C 0.4807 0.24841 0.14881 0.0
N297 N 0.45788 0.23832 0.12328 0.0
C298 C 0.46525 0.24071 0.1509 0.0
C299 C 0.48456 0.25106 0.13378 0.0
C300 C 0.45388 0.23569 0.13784 0.0
C301 C 0.47285 0.24583 0.121 0.0
C302 C 0.50897 0.22814 0.19771 0.0
C303 C 0.50797 0.21227 0.19291 0.0
C304 C 0.51271 0.2341 0.2136 0.0
C305 C 0.51082 0.20262 0.2041 0.0
C306 C 0.51556 0.22408 0.22442 0.0
N307 N 0.51455 0.20868 0.21949 0.0
C308 C 0.51793 0.21376 0.15203 0.0
C309 C 0.49296 0.21337 0.13901 0.0
C310 C 0.51827 0.19998 0.14258 0.0
N311 N 0.50539 0.22018 0.15018 0.0
C312 C 0.49298 0.19974 0.12907 0.0
C313 C 0.50574 0.19287 0.13085 0.0
H314 H 0.52771 0.21938 0.16092 0.0
H315 H 0.48301 0.21845 0.13773 0.0
C316 C 0.47448 0.26984 0.20075 0.0
N317 N 0.47685 0.2555 0.19597 0.0
C318 C 0.46102 0.27101 0.20789 0.0
C319 C 0.45252 0.24263 0.20517 0.0
C320 C 0.46626 0.242 0.19817 0.0
C321 C 0.44959 0.2573 0.21004 0.0
H322 H 0.48301 0.28044 0.19887 0.0
H323 H 0.4683 0.23071 0.19421 0.0
O324 O 0.52741 0.25534 0.16483 0.0
O325 O 0.51328 0.27439 0.18857 0.0
O326 O 0.49196 0.2534 0.16146 0.0
O327 O 0.50611 0.23769 0.18688 0.0
H328 H 0.55817 0.2668 0.17284 0.0
H329 H 0.52205 0.2467 0.13415 0.0
H330 H 0.5784 0.26855 0.15431 0.0
H331 H 0.54294 0.24883 0.11626 0.0
H332 H 0.52003 0.29484 0.23996 0.0
H333 H 0.531 0.30265 0.18577 0.0
H334 H 0.50892 0.27292 0.21841 0.0
H335 H 0.54164 0.32409 0.20787 0.0
H336 H 0.54467 0.31201 0.13806 0.0
H337 H 0.49483 0.30945 0.13709 0.0
H338 H 0.56915 0.23529 0.20339 0.0
H339 H 0.57504 0.28389 0.22244 0.0
H340 H 0.4621 0.23862 0.1625 0.0
H341 H 0.49649 0.25702 0.132 0.0
H342 H 0.44187 0.2297 0.13926 0.0
H343 H 0.47565 0.24773 0.10928 0.0
H344 H 0.50486 0.20742 0.18069 0.0
H345 H 0.51352 0.24636 0.21749 0.0
H346 H 0.51004 0.1903 0.20055 0.0
H347 H 0.51855 0.22854 0.23675 0.0
H348 H 0.52834 0.19504 0.14426 0.0
H349 H 0.48305 0.19451 0.1202 0.0
H350 H 0.45962 0.28262 0.21168 0.0
H351 H 0.44411 0.23168 0.20633 0.0
Li352 Li 0.04462 0.80174 0.09056 0.0
Li353 Li 0.06039 0.78971 0.11145 0.0
Li354 Li 0.0422 0.77271 0.08799 0.0
Li355 Li 0.0299 0.78452 0.11005 0.0
C356 C 0.07065 0.78858 0.07636 0.0
N357 N 0.08866 0.78485 0.05225 0.0
C358 C 0.08691 0.79042 0.07962 0.0
C359 C 0.06355 0.78483 0.06086 0.0
C360 C 0.09582 0.78852 0.06726 0.0
C361 C 0.07285 0.78296 0.04883 0.0
C362 C 0.0503 0.81763 0.12571 0.0
C363 C 0.05125 0.82859 0.15264 0.0
N364 N 0.05681 0.84331 0.14864 0.0
C365 C 0.05608 0.83284 0.12187 0.0
C366 C 0.04791 0.81544 0.14121 0.0
C367 C 0.05928 0.84567 0.13363 0.0
C368 C 0.02914 0.82276 0.07709 0.0
N369 N 0.04364 0.81995 0.07968 0.0
C370 C 0.05518 0.8429 0.06775 0.0
C371 C 0.05655 0.82965 0.07503 0.0
C372 C 0.04032 0.84623 0.06504 0.0
C373 C 0.02719 0.83568 0.06967 0.0
H374 H 0.019 0.81493 0.08085 0.0
H375 H 0.068 0.82727 0.0772 0.0
C376 C 0.08789 0.77981 0.12189 0.0
N377 N 0.08014 0.79115 0.12522 0.0
C378 C 0.10172 0.77951 0.13127 0.0
C379 C 0.09947 0.80248 0.14761 0.0
C380 C 0.08574 0.80243 0.13782 0.0
C381 C 0.10775 0.7909 0.14446 0.0
H382 H 0.08326 0.77085 0.11193 0.0
H383 H 0.07956 0.8114 0.14039 0.0
C384 C 0.01329 0.77943 0.07473 0.0
N385 N 0.98942 0.77016 0.05002 0.0
C386 C 0.99845 0.77025 0.07698 0.0
C387 C 0.01597 0.784 0.05994 0.0
C388 C 0.98653 0.76567 0.06433 0.0
C389 C 0.00376 0.77915 0.04759 0.0
C390 C 0.04013 0.75742 0.1191 0.0
C391 C 0.03088 0.7427 0.11202 0.0
C392 C 0.04591 0.7595 0.13498 0.0
C393 C 0.02754 0.73024 0.12101 0.0
C394 C 0.04229 0.74675 0.14357 0.0
N395 N 0.03326 0.7325 0.13647 0.0
C396 C 0.0524 0.74634 0.07635 0.0
C397 C 0.02764 0.74653 0.06336 0.0
C398 C 0.05156 0.73155 0.06816 0.0
N399 N 0.04045 0.75345 0.07403 0.0
C400 C 0.02635 0.73178 0.05484 0.0
C401 C 0.03827 0.72387 0.05737 0.0
H402 H 0.06241 0.75196 0.08499 0.0
H403 H 0.01816 0.75216 0.06165 0.0
C404 C 0.00812 0.79491 0.12905 0.0
N405 N 0.01167 0.78183 0.12211 0.0
C406 C 0.99501 0.79358 0.1375 0.0
C407 C 0.98889 0.76534 0.13108 0.0
C408 C 0.00227 0.7672 0.12294 0.0
C409 C 0.98512 0.77863 0.13863 0.0
H410 H 0.01539 0.80647 0.12791 0.0
H411 H 0.00503 0.75693 0.11712 0.0
O412 O 0.06183 0.79058 0.08834 0.0
O413 O 0.04664 0.805 0.11426 0.0
O414 O 0.02505 0.78409 0.08701 0.0
O415 O 0.04386 0.76965 0.11043 0.0
H416 H 0.0926 0.79342 0.09156 0.0
H417 H 0.05098 0.78326 0.05815 0.0
H418 H 0.10842 0.78999 0.0696 0.0
H419 H 0.0675 0.78 0.03677 0.0
H420 H 0.04939 0.8271 0.16468 0.0
H421 H 0.05799 0.83472 0.10992 0.0
H422 H 0.04344 0.80372 0.14434 0.0
H423 H 0.0637 0.85752 0.13082 0.0
H424 H 0.06576 0.85064 0.06466 0.0
H425 H 0.01541 0.8373 0.06759 0.0
H426 H 0.10743 0.7702 0.12836 0.0
H427 H 0.10364 0.81165 0.15747 0.0
H428 H 0.99616 0.76669 0.08837 0.0
H429 H 0.02732 0.79126 0.05803 0.0
H430 H 0.97499 0.75855 0.0659 0.0
H431 H 0.00568 0.78255 0.03608 0.0
H432 H 0.02632 0.74091 0.09973 0.0
H433 H 0.05314 0.77083 0.14058 0.0
H434 H 0.02041 0.71877 0.1157 0.0
H435 H 0.04668 0.74816 0.15588 0.0
H436 H 0.06097 0.72595 0.07079 0.0
H437 H 0.01597 0.72655 0.04651 0.0
H438 H 0.99247 0.80419 0.14287 0.0
H439 H 0.98167 0.75358 0.13164 0.0
Li440 Li 0.49966 0.77945 0.44365 0.0
Li441 Li 0.4812 0.76257 0.42034 0.0
Li442 Li 0.49703 0.75019 0.44146 0.0
Li443 Li 0.51171 0.76644 0.42153 0.0
C444 C 0.47097 0.76317 0.45546 0.0
N445 N 0.45285 0.76654 0.47955 0.0
C446 C 0.45625 0.76632 0.45237 0.0
C447 C 0.47637 0.76148 0.47074 0.0
C448 C 0.44729 0.76805 0.46472 0.0
C449 C 0.46707 0.7633 0.48278 0.0
C450 C 0.49969 0.79385 0.41186 0.0
C451 C 0.50458 0.80389 0.38732 0.0
N452 N 0.50273 0.81806 0.3935 0.0
C453 C 0.4978 0.80849 0.41797 0.0
C454 C 0.50308 0.79149 0.39642 0.0
C455 C 0.49938 0.82058 0.40849 0.0
C456 C 0.51693 0.80916 0.46154 0.0
N457 N 0.50234 0.79908 0.45741 0.0
C458 C 0.49028 0.81815 0.46947 0.0
C459 C 0.48916 0.80329 0.46138 0.0
C460 C 0.5051 0.82902 0.47342 0.0
C461 C 0.5186 0.8242 0.46968 0.0
H462 H 0.52725 0.80579 0.45795 0.0
H463 H 0.47765 0.79544 0.45762 0.0
C464 C 0.45308 0.7481 0.39717 0.0
N465 N 0.46126 0.76143 0.40671 0.0
C466 C 0.43916 0.74786 0.38754 0.0
C467 C 0.44187 0.77488 0.39796 0.0
C468 C 0.45584 0.77468 0.4072 0.0
C469 C 0.43327 0.76137 0.38782 0.0
H470 H 0.4573 0.73756 0.39699 0.0
H471 H 0.46239 0.78519 0.41482 0.0
C472 C 0.52864 0.77223 0.4568 0.0
N473 N 0.55288 0.78062 0.48118 0.0
C474 C 0.54416 0.77288 0.45386 0.0
C475 C 0.52545 0.7759 0.47213 0.0
C476 C 0.55625 0.77713 0.46635 0.0
C477 C 0.53787 0.78011 0.4843 0.0
C478 C 0.49462 0.73432 0.40667 0.0
C479 C 0.50076 0.72203 0.41117 0.0
C480 C 0.4891 0.73418 0.39097 0.0
C481 C 0.50111 0.70967 0.39984 0.0
C482 C 0.48967 0.7216 0.37999 0.0
N483 N 0.49559 0.7097 0.38462 0.0
C484 C 0.48557 0.7182 0.44889 0.0
C485 C 0.50953 0.73251 0.46386 0.0
C486 C 0.48631 0.70458 0.45579 0.0
N487 N 0.49722 0.73181 0.4528 0.0
C488 C 0.5106 0.71925 0.47122 0.0
C489 C 0.49904 0.70492 0.46704 0.0
H490 H 0.47588 0.71777 0.44007 0.0
H491 H 0.51883 0.74322 0.46678 0.0
C492 C 0.54089 0.78348 0.41136 0.0
N493 N 0.53006 0.76921 0.40935 0.0
C494 C 0.55439 0.78589 0.40332 0.0
C495 C 0.54544 0.75894 0.39115 0.0
C496 C 0.53222 0.75702 0.3995 0.0
C497 C 0.55683 0.77353 0.39294 0.0
H498 H 0.53911 0.79304 0.4193 0.0
H499 H 0.5238 0.74567 0.39814 0.0
O500 O 0.47996 0.76167 0.44353 0.0
O501 O 0.49872 0.78205 0.42111 0.0
O502 O 0.51667 0.76795 0.4447 0.0
O503 O 0.49385 0.74634 0.41764 0.0
H504 H 0.45187 0.76757 0.44057 0.0
H505 H 0.48761 0.75876 0.47327 0.0
H506 H 0.43593 0.77061 0.46253 0.0
H507 H 0.47113 0.76212 0.49469 0.0
H508 H 0.50727 0.80227 0.37536 0.0
H509 H 0.49517 0.81052 0.42989 0.0
H510 H 0.50464 0.78024 0.39156 0.0
H511 H 0.49799 0.83198 0.41308 0.0
H512 H 0.47955 0.82127 0.47219 0.0
H513 H 0.53025 0.83224 0.4723 0.0
H514 H 0.43294 0.73709 0.3801 0.0
H515 H 0.43799 0.78564 0.39857 0.0
H516 H 0.54682 0.77004 0.44207 0.0
H517 H 0.51353 0.77555 0.4746 0.0
H518 H 0.56831 0.77763 0.46426 0.0
H519 H 0.53557 0.78297 0.49622 0.0
H520 H 0.50525 0.72206 0.42325 0.0
H521 H 0.48446 0.74371 0.3873 0.0
H522 H 0.50578 0.70005 0.40315 0.0
H523 H 0.4854 0.72131 0.36779 0.0
H524 H 0.47705 0.69383 0.45227 0.0
H525 H 0.52073 0.72008 0.47967 0.0
H526 H 0.56271 0.79739 0.40508 0.0
H527 H 0.54684 0.74895 0.38355 0.0
Li528 Li 0.54437 0.30155 0.59012 0.0
Li529 Li 0.56 0.2895 0.61098 0.0
Li530 Li 0.54159 0.27244 0.58765 0.0
Li531 Li 0.52942 0.28445 0.60974 0.0
C532 C 0.57043 0.28902 0.57591 0.0
N533 N 0.58893 0.28682 0.5519 0.0
C534 C 0.58682 0.29205 0.57923 0.0
C535 C 0.56344 0.28489 0.56038 0.0
C536 C 0.59598 0.29088 0.56693 0.0
C537 C 0.57299 0.28382 0.5484 0.0
C538 C 0.54943 0.31734 0.62533 0.0
C539 C 0.54809 0.32814 0.65182 0.0
N540 N 0.555 0.34279 0.64839 0.0
C541 C 0.55653 0.33249 0.62204 0.0
C542 C 0.54515 0.3151 0.6403 0.0
C543 C 0.55923 0.34521 0.63387 0.0
C544 C 0.5293 0.32252 0.57582 0.0
N545 N 0.54378 0.31991 0.57926 0.0
C546 C 0.55594 0.34342 0.56845 0.0
C547 C 0.55699 0.32998 0.57556 0.0
C548 C 0.54112 0.34658 0.56495 0.0
C549 C 0.52769 0.33565 0.56858 0.0
H550 H 0.51891 0.31441 0.57882 0.0
H551 H 0.56842 0.32776 0.57841 0.0
C552 C 0.58847 0.28069 0.62019 0.0
N553 N 0.57975 0.29084 0.62469 0.0
C554 C 0.60236 0.28035 0.62942 0.0
C555 C 0.59807 0.30064 0.64811 0.0
C556 C 0.58434 0.30076 0.6384 0.0
C557 C 0.60738 0.29035 0.6437 0.0
H558 H 0.58456 0.27271 0.60941 0.0
H559 H 0.5773 0.30869 0.64194 0.0
C560 C 0.51278 0.27883 0.57448 0.0
N561 N 0.48882 0.2683 0.54997 0.0
C562 C 0.49793 0.27001 0.57717 0.0
C563 C 0.51541 0.28244 0.55938 0.0
C564 C 0.48597 0.26477 0.56461 0.0
C565 C 0.50316 0.27695 0.54713 0.0
C566 C 0.54111 0.25711 0.61856 0.0
C567 C 0.53193 0.24227 0.61171 0.0
C568 C 0.54812 0.25913 0.63405 0.0
C569 C 0.52996 0.22963 0.62051 0.0
C570 C 0.54581 0.2462 0.64247 0.0
N571 N 0.53688 0.23184 0.63558 0.0
C572 C 0.55243 0.24706 0.57481 0.0
C573 C 0.52562 0.24445 0.56566 0.0
C574 C 0.55158 0.23193 0.5675 0.0
N575 N 0.5395 0.25294 0.57404 0.0
C576 C 0.52427 0.22926 0.55807 0.0
C577 C 0.53725 0.22263 0.5593 0.0
H578 H 0.56328 0.25392 0.58167 0.0
H579 H 0.51535 0.24907 0.56539 0.0
C580 C 0.502 0.29215 0.62068 0.0
N581 N 0.51123 0.28187 0.62183 0.0
C582 C 0.48855 0.29064 0.62868 0.0
C583 C 0.49425 0.26802 0.63903 0.0
C584 C 0.50753 0.26991 0.63078 0.0
C585 C 0.48447 0.27845 0.6381 0.0
H586 H 0.50507 0.30154 0.61347 0.0
H587 H 0.51479 0.26171 0.63149 0.0
O588 O 0.56133 0.29003 0.58786 0.0
O589 O 0.54632 0.30483 0.6138 0.0
O590 O 0.52459 0.28408 0.58665 0.0
O591 O 0.5433 0.26961 0.61013 0.0
H592 H 0.59243 0.29535 0.59118 0.0
H593 H 0.55077 0.28235 0.55762 0.0
H594 H 0.60868 0.29321 0.56933 0.0
H595 H 0.56774 0.28059 0.53633 0.0
H596 H 0.54484 0.32661 0.66348 0.0
H597 H 0.55985 0.33439 0.61048 0.0
H598 H 0.5396 0.30343 0.64297 0.0
H599 H 0.56468 0.35701 0.63149 0.0
H600 H 0.56671 0.35144 0.56611 0.0
H601 H 0.51594 0.33717 0.56586 0.0
H602 H 0.60893 0.27205 0.62555 0.0
H603 H 0.60144 0.30866 0.65893 0.0
H604 H 0.49569 0.2672 0.58882 0.0
H605 H 0.52674 0.28949 0.55715 0.0
H606 H 0.47442 0.2579 0.56649 0.0
H607 H 0.50503 0.27961 0.53537 0.0
H608 H 0.52634 0.24054 0.59976 0.0
H609 H 0.5552 0.27057 0.63952 0.0
H610 H 0.52291 0.21806 0.61536 0.0
H611 H 0.55114 0.24758 0.65449 0.0
H612 H 0.56196 0.22739 0.56858 0.0
H613 H 0.51295 0.22248 0.55201 0.0
H614 H 0.48154 0.29908 0.62766 0.0
H615 H 0.49153 0.25829 0.64591 0.0
Li616 Li 0.00107 0.27921 0.94461 0.0
Li617 Li 0.98243 0.26298 0.92112 0.0
Li618 Li 0.99763 0.24986 0.94177 0.0
Li619 Li 0.01265 0.26621 0.92213 0.0
C620 C 0.9713 0.26309 0.9555 0.0
N621 N 0.95153 0.26572 0.97825 0.0
C622 C 0.95795 0.26865 0.95219 0.0
C623 C 0.97456 0.25877 0.97033 0.0
C624 C 0.94811 0.26991 0.96386 0.0
C625 C 0.96443 0.26022 0.98169 0.0
C626 C 0.00164 0.29437 0.91318 0.0
C627 C 0.00758 0.30513 0.88917 0.0
N628 N 0.00474 0.31889 0.89521 0.0
C629 C 0.99868 0.30859 0.91912 0.0
C630 C 0.00604 0.29257 0.89807 0.0
C631 C 1.00035 0.32086 0.90986 0.0
C632 C 0.01723 0.31081 0.95679 0.0
N633 N 0.00486 0.29875 0.95889 0.0
C634 C 0.99672 0.31571 0.97823 0.0
C635 C 0.99491 0.3009 0.96968 0.0
C636 C 0.0088 0.32866 0.97563 0.0
C637 C 0.0194 0.3259 0.96499 0.0
H638 H 0.02501 0.30889 0.94816 0.0
H639 H 0.98524 0.29131 0.97143 0.0
C640 C 0.95128 0.24824 0.90321 0.0
N641 N 0.96277 0.26194 0.90738 0.0
C642 C 0.9373 0.24793 0.89366 0.0
C643 C 0.94718 0.27575 0.89268 0.0
C644 C 0.96082 0.27555 0.90233 0.0
C645 C 0.93499 0.26185 0.88818 0.0
H646 H 0.95287 0.23751 0.90739 0.0
H647 H 0.96983 0.2864 0.9058 0.0
C648 C 0.02895 0.2711 0.95778 0.0
N649 N 0.05206 0.27944 0.98317 0.0
C650 C 0.04483 0.27313 0.95549 0.0
C651 C 0.02479 0.27328 0.97296 0.0
C652 C 0.05634 0.27732 0.96848 0.0
C653 C 0.03667 0.27754 0.98565 0.0
C654 C 0.99449 0.23449 0.90661 0.0
C655 C 1.0004 0.22182 0.91037 0.0
C656 C 0.98838 0.23482 0.89119 0.0
C657 C 1.00012 0.20965 0.89856 0.0
C658 C 0.98832 0.22242 0.87971 0.0
N659 N 0.99414 0.2102 0.88361 0.0
C660 C 0.98465 0.22234 0.95757 0.0
C661 C 0.01208 0.22816 0.95566 0.0
C662 C 0.98545 0.20917 0.96525 0.0
N663 N 0.99786 0.23153 0.95288 0.0
C664 C 0.01339 0.21505 0.96312 0.0
C665 C 0.99998 0.2052 0.96807 0.0
H666 H 0.97344 0.22518 0.95533 0.0
H667 H 0.02245 0.23551 0.95178 0.0
C668 C 0.04199 0.28293 0.91243 0.0
N669 N 0.0309 0.26883 0.91001 0.0
C670 C 0.05551 0.28531 0.90446 0.0
C671 C 0.04602 0.25869 0.89148 0.0
C672 C 0.03274 0.25681 0.89974 0.0
C673 C 0.05779 0.27307 0.89377 0.0
H674 H 0.04043 0.29234 0.92071 0.0
H675 H 0.02397 0.24565 0.89792 0.0
O676 O 0.98105 0.26178 0.94422 0.0
O677 O 1.00028 0.2823 0.92214 0.0
O678 O 0.01757 0.26711 0.94517 0.0
O679 O 0.99451 0.24641 0.91803 0.0
H680 H 0.95526 0.272 0.94073 0.0
H681 H 0.98486 0.25445 0.97308 0.0
H682 H 0.93775 0.27423 0.96149 0.0
H683 H 0.96684 0.25699 0.99325 0.0
H684 H 0.01103 0.30393 0.87747 0.0
H685 H 0.99497 0.31008 0.93068 0.0
H686 H 0.00824 0.28159 0.89327 0.0
H687 H 0.99811 0.33193 0.9143 0.0
H688 H 0.98847 0.31705 0.98655 0.0
H689 H 0.02883 0.33543 0.96241 0.0
H690 H 0.92832 0.2369 0.89084 0.0
H691 H 0.94636 0.28679 0.88868 0.0
H692 H 0.04821 0.27143 0.9438 0.0
H693 H 0.01254 0.27181 0.9749 0.0
H694 H 0.06868 0.27889 0.96689 0.0
H695 H 0.03365 0.27935 0.99747 0.0
H696 H 0.00517 0.2214 0.92225 0.0
H697 H 0.98374 0.24456 0.88814 0.0
H698 H 0.00465 0.19977 0.90129 0.0
H699 H 0.98364 0.22251 0.86771 0.0
H700 H 0.97476 0.20224 0.96899 0.0
H701 H 0.02482 0.21252 0.96461 0.0
H702 H 0.06422 0.29656 0.90691 0.0
H703 H 0.04691 0.24892 0.88325 0.0
Li704 Li 0.39158 0.01406 0.29845 0.0
Li705 Li 0.36871 0.99959 0.28011 0.0
Li706 Li 0.39229 0.01515 0.27064 0.0
Li707 Li 0.37391 0.02791 0.28411 0.0
C708 C 0.39909 0.98615 0.28249 0.0
N709 N 0.41752 0.96496 0.28356 0.0
C710 C 0.3921 0.9702 0.28303 0.0
C711 C 0.41544 0.99134 0.28246 0.0
C712 C 0.40162 0.95967 0.28359 0.0
C713 C 0.42456 0.98043 0.28301 0.0
C714 C 0.35822 0.00852 0.30992 0.0
C715 C 0.33182 0.0047 0.31725 0.0
N716 N 0.33614 0.99809 0.32995 0.0
C717 C 0.36242 0.00176 0.32309 0.0
C718 C 0.34284 0.01011 0.30702 0.0
C719 C 0.35108 0.99655 0.33307 0.0
C720 C 0.4088 0.02878 0.32636 0.0
N721 N 0.40388 0.01465 0.31716 0.0
C722 C 0.41751 0.00245 0.33516 0.0
C723 C 0.40779 0.00153 0.32133 0.0
C724 C 0.42278 0.01689 0.34478 0.0
C725 C 0.41829 0.03016 0.34046 0.0
H726 H 0.40533 0.03893 0.32267 0.0
H727 H 0.40332 0.99037 0.314 0.0
C728 C 0.34965 0.97497 0.25936 0.0
N729 N 0.35248 0.98125 0.2747 0.0
C730 C 0.33693 0.96204 0.2543 0.0
C731 C 0.33113 0.96157 0.28118 0.0
C732 C 0.34374 0.97467 0.28563 0.0
C733 C 0.32758 0.95511 0.26532 0.0
H734 H 0.35738 0.9799 0.25108 0.0
H735 H 0.34678 0.97917 0.29785 0.0
C736 C 0.41071 0.0446 0.28678 0.0
N737 N 0.4377 0.06792 0.28497 0.0
C738 C 0.40954 0.05903 0.28212 0.0
C739 C 0.42556 0.04205 0.29065 0.0
C740 C 0.42334 0.07067 0.28125 0.0
C741 C 0.43908 0.05398 0.2896 0.0
C742 C 0.3579 0.01067 0.25247 0.0
C743 C 0.36057 0.00751 0.23688 0.0
C744 C 0.34252 0.00959 0.25612 0.0
C745 C 0.34773 0.0031 0.22517 0.0
C746 C 0.32999 0.00512 0.24407 0.0
N747 N 0.33283 0.00198 0.22898 0.0
C748 C 0.40336 0.00033 0.24671 0.0
C749 C 0.41309 0.02817 0.24901 0.0
C750 C 0.41144 0.99843 0.23385 0.0
N751 N 0.40448 0.01498 0.25407 0.0
C752 C 0.4213 0.02682 0.23603 0.0
C753 C 0.4205 0.01177 0.22837 0.0
H754 H 0.39591 0.99013 0.25067 0.0
H755 H 0.41338 0.03968 0.25479 0.0
C756 C 0.359 0.04983 0.29757 0.0
N757 N 0.36391 0.04396 0.28428 0.0
C758 C 0.3501 0.06087 0.29682 0.0
C759 C 0.35141 0.05917 0.26876 0.0
C760 C 0.36052 0.04849 0.2701 0.0
C761 C 0.34613 0.06542 0.28223 0.0
H762 H 0.36183 0.04579 0.30862 0.0
H763 H 0.36474 0.04362 0.25982 0.0
O764 O 0.38986 0.99653 0.28178 0.0
O765 O 0.36914 0.01353 0.29996 0.0
O766 O 0.39732 0.03321 0.2879 0.0
O767 O 0.3703 0.01438 0.26411 0.0
H768 H 0.37943 0.96601 0.28301 0.0
H769 H 0.421 0.00363 0.28194 0.0
H770 H 0.39638 0.94729 0.28403 0.0
H771 H 0.43723 0.98426 0.28297 0.0
H772 H 0.31983 0.00574 0.31509 0.0
H773 H 0.37427 0.00043 0.32552 0.0
H774 H 0.3394 0.01534 0.2969 0.0
H775 H 0.35415 0.99124 0.34326 0.0
H776 H 0.42072 0.992 0.33843 0.0
H777 H 0.42223 0.04144 0.3478 0.0
H778 H 0.33482 0.95717 0.24203 0.0
H779 H 0.32482 0.95609 0.29024 0.0
H780 H 0.39809 0.06119 0.27921 0.0
H781 H 0.42662 0.031 0.29445 0.0
H782 H 0.42264 0.08189 0.27765 0.0
H783 H 0.45068 0.05218 0.29252 0.0
H784 H 0.37242 0.00826 0.23389 0.0
H785 H 0.34027 0.01193 0.26814 0.0
H786 H 0.3496 0.0005 0.21306 0.0
H787 H 0.318 0.00408 0.24671 0.0
H788 H 0.41024 0.98667 0.22796 0.0
H789 H 0.42811 0.03735 0.23199 0.0
H790 H 0.34623 0.06566 0.3074 0.0
H791 H 0.34875 0.06275 0.2574 0.0
Li792 Li 0.27733 0.19704 0.52396 0.0
Li793 Li 0.28796 0.17646 0.50989 0.0
Li794 Li 0.27596 0.19535 0.49503 0.0
Li795 Li 0.25861 0.17334 0.5072 0.0
C796 C 0.30751 0.21267 0.51551 0.0
N797 N 0.3328 0.23856 0.52489 0.0
C798 C 0.32159 0.21078 0.52292 0.0
C799 C 0.30634 0.22768 0.5127 0.0
C800 C 0.33423 0.22402 0.52762 0.0
C801 C 0.31924 0.24064 0.5176 0.0
C802 C 0.27297 0.16403 0.53687 0.0
C803 C 0.26626 0.13744 0.54335 0.0
N804 N 0.27147 0.14302 0.55867 0.0
C805 C 0.27825 0.16952 0.55268 0.0
C806 C 0.26692 0.14788 0.53213 0.0
C807 C 0.27741 0.15871 0.56352 0.0
C808 C 0.26538 0.2115 0.54859 0.0
N809 N 0.27918 0.21001 0.54348 0.0
C810 C 0.29362 0.22346 0.56788 0.0
C811 C 0.2932 0.21592 0.5527 0.0
C812 C 0.27945 0.22481 0.57361 0.0
C813 C 0.26526 0.21904 0.56356 0.0
H814 H 0.25435 0.20634 0.54123 0.0
H815 H 0.30398 0.21417 0.54859 0.0
C816 C 0.30858 0.15873 0.49812 0.0
N817 N 0.30423 0.16552 0.51131 0.0
C818 C 0.32033 0.15056 0.49922 0.0
C819 C 0.32344 0.15718 0.52739 0.0
C820 C 0.31142 0.16495 0.52578 0.0
C821 C 0.32791 0.14977 0.514 0.0
H822 H 0.30294 0.15964 0.48673 0.0
H823 H 0.30787 0.17061 0.53606 0.0
C824 C 0.25003 0.20676 0.50853 0.0
N825 N 0.23214 0.22849 0.50886 0.0
C826 C 0.23364 0.20172 0.50482 0.0
C827 C 0.25735 0.22283 0.51242 0.0
C828 C 0.2248 0.2129 0.50505 0.0
C829 C 0.24809 0.23363 0.51251 0.0
C830 C 0.26844 0.16006 0.47824 0.0
C831 C 0.26296 0.16303 0.46345 0.0
C832 C 0.26968 0.14492 0.48047 0.0
C833 C 0.25881 0.15074 0.45106 0.0
C834 C 0.26542 0.13295 0.46778 0.0
N835 N 0.26013 0.13609 0.45346 0.0
C836 C 0.29023 0.20812 0.4695 0.0
C837 C 0.2652 0.2129 0.47231 0.0
C838 C 0.29133 0.21569 0.456 0.0
N839 N 0.27726 0.20677 0.47728 0.0
C840 C 0.2659 0.22074 0.45901 0.0
C841 C 0.27899 0.22206 0.45048 0.0
H842 H 0.2996 0.20303 0.47363 0.0
H843 H 0.2549 0.21153 0.47849 0.0
C844 C 0.22968 0.16113 0.51838 0.0
N845 N 0.23807 0.15895 0.5062 0.0
C846 C 0.21454 0.1514 0.51869 0.0
C847 C 0.21699 0.13714 0.49402 0.0
C848 C 0.23199 0.14727 0.4941 0.0
C849 C 0.20794 0.13911 0.5064 0.0
H850 H 0.23473 0.17057 0.52782 0.0
H851 H 0.2387 0.14576 0.48445 0.0
O852 O 0.29514 0.1998 0.51059 0.0
O853 O 0.27332 0.1745 0.5262 0.0
O854 O 0.2588 0.19593 0.50847 0.0
O855 O 0.27282 0.17202 0.4904 0.0
H856 H 0.32272 0.19921 0.52503 0.0
H857 H 0.29563 0.2293 0.5067 0.0
H858 H 0.34519 0.22274 0.5334 0.0
H859 H 0.31851 0.25235 0.51554 0.0
H860 H 0.26156 0.1249 0.53987 0.0
H861 H 0.28291 0.182 0.55654 0.0
H862 H 0.2627 0.14348 0.51994 0.0
H863 H 0.28144 0.16279 0.5758 0.0
H864 H 0.30481 0.22753 0.57526 0.0
H865 H 0.25407 0.22002 0.56733 0.0
H866 H 0.32361 0.14508 0.48864 0.0
H867 H 0.32901 0.15675 0.53899 0.0
H868 H 0.22781 0.18932 0.50178 0.0
H869 H 0.27001 0.22689 0.51544 0.0
H870 H 0.21209 0.20917 0.5022 0.0
H871 H 0.25358 0.24611 0.51553 0.0
H872 H 0.26197 0.17471 0.46156 0.0
H873 H 0.27385 0.14244 0.49188 0.0
H874 H 0.25457 0.15286 0.43954 0.0
H875 H 0.26633 0.12117 0.4693 0.0
H876 H 0.30155 0.21613 0.44974 0.0
H877 H 0.25618 0.22563 0.45544 0.0
H878 H 0.20802 0.15368 0.52836 0.0
H879 H 0.21264 0.12774 0.48439 0.0
Li880 Li 0.12482 0.03871 0.77308 0.0
Li881 Li 0.10288 0.02161 0.78541 0.0
Li882 Li 0.12179 0.00955 0.77018 0.0
Li883 Li 0.10095 0.01997 0.75645 0.0
C884 C 0.13841 0.02888 0.80157 0.0
N885 N 0.16296 0.03706 0.82559 0.0
C886 C 0.13583 0.03437 0.81664 0.0
C887 C 0.15344 0.02749 0.7987 0.0
C888 C 0.14841 0.03846 0.82863 0.0
C889 C 0.16572 0.03172 0.81101 0.0
C890 C 0.09159 0.04756 0.77255 0.0
C891 C 0.06489 0.05012 0.76883 0.0
N892 N 0.07035 0.06599 0.77282 0.0
C893 C 0.09695 0.06388 0.77662 0.0
C894 C 0.07545 0.04059 0.76863 0.0
C895 C 0.08602 0.073 0.7767 0.0
C896 C 0.13801 0.06706 0.76168 0.0
N897 N 0.13932 0.05913 0.77424 0.0
C898 C 0.16045 0.08055 0.78711 0.0
C899 C 0.15021 0.0656 0.78688 0.0
C900 C 0.1593 0.08904 0.77433 0.0
C901 C 0.14786 0.08213 0.76151 0.0
H902 H 0.12923 0.06168 0.7518 0.0
H903 H 0.15094 0.05929 0.79686 0.0
C904 C 0.08618 0.00672 0.80879 0.0
N905 N 0.09145 0.02075 0.80326 0.0
C906 C 0.07854 0.00602 0.82236 0.0
C907 C 0.08175 0.03418 0.82419 0.0
C908 C 0.08929 0.03432 0.81058 0.0
C909 C 0.0764 0.01991 0.83037 0.0
H910 H 0.0882 0.99612 0.80281 0.0
H911 H 0.0937 0.04534 0.80602 0.0
C912 C 0.13417 0.02479 0.74311 0.0
N913 N 0.15549 0.02672 0.72126 0.0
C914 C 0.12882 0.01999 0.72722 0.0
C915 C 0.15034 0.0306 0.74792 0.0
C916 C 0.13979 0.02103 0.71635 0.0
C917 C 0.16094 0.03149 0.73668 0.0
C918 C 0.08571 0.98971 0.76582 0.0
C919 C 0.08788 0.97526 0.75951 0.0
C920 C 0.07058 0.99097 0.76839 0.0
C921 C 0.07479 0.96229 0.75573 0.0
C922 C 0.05778 0.97772 0.76445 0.0
N923 N 0.06013 0.96378 0.75826 0.0
C924 C 0.13735 0.98748 0.78156 0.0
C925 C 0.13561 0.98774 0.75404 0.0
C926 C 0.14535 0.97559 0.78043 0.0
N927 N 0.13277 0.99336 0.76848 0.0
C928 C 0.14364 0.97593 0.75237 0.0
C929 C 0.14867 0.96967 0.76567 0.0
H930 H 0.13475 0.99201 0.79288 0.0
H931 H 0.13163 0.99241 0.74379 0.0
C932 C 0.08642 0.03096 0.73128 0.0
N933 N 0.08755 0.01754 0.73725 0.0
C934 C 0.07827 0.03014 0.71646 0.0
C935 C 0.07244 0.0017 0.71419 0.0
C936 C 0.0807 0.00306 0.72909 0.0
C937 C 0.07134 0.01538 0.70774 0.0
H938 H 0.09232 0.04231 0.73783 0.0
H939 H 0.08214 0.99257 0.73384 0.0
O940 O 0.1262 0.0247 0.78976 0.0
O941 O 0.10221 0.03856 0.77206 0.0
O942 O 0.12356 0.02396 0.75385 0.0
O943 O 0.09844 0.00243 0.76978 0.0
H944 H 0.12424 0.03546 0.81903 0.0
H945 H 0.1556 0.02324 0.78709 0.0
H946 H 0.14659 0.04273 0.84035 0.0
H947 H 0.17743 0.03074 0.80898 0.0
H948 H 0.05236 0.04491 0.76575 0.0
H949 H 0.10944 0.06944 0.77964 0.0
H950 H 0.07115 0.02799 0.76529 0.0
H951 H 0.09 0.08565 0.7798 0.0
H952 H 0.16898 0.08555 0.7973 0.0
H953 H 0.14666 0.08824 0.75138 0.0
H954 H 0.07483 0.99481 0.82681 0.0
H955 H 0.08022 0.04514 0.82987 0.0
H956 H 0.11632 0.01548 0.72332 0.0
H957 H 0.15464 0.03442 0.76019 0.0
H958 H 0.13582 0.01734 0.704 0.0
H959 H 0.1735 0.03599 0.74021 0.0
H960 H 0.09956 0.97409 0.75755 0.0
H961 H 0.06875 0.00202 0.77345 0.0
H962 H 0.07628 0.95103 0.75082 0.0
H963 H 0.04598 0.97851 0.76636 0.0
H964 H 0.14874 0.97098 0.79099 0.0
H965 H 0.14605 0.97191 0.74078 0.0
H966 H 0.07785 0.04091 0.71162 0.0
H967 H 0.06742 0.99016 0.70758 0.0
Li968 Li 0.25368 0.9072 0.99419 0.0
Li969 Li 0.26502 0.89017 0.01078 0.0
Li970 Li 0.28118 0.90967 0.99721 0.0
Li971 Li 0.26409 0.88581 0.98283 0.0
C972 C 0.27423 0.92518 0.02557 0.0
N973 N 0.28644 0.9498 0.04935 0.0
C974 C 0.27525 0.92232 0.04122 0.0
C975 C 0.27925 0.94061 0.02203 0.0
C976 C 0.28147 0.93491 0.05307 0.0
C977 C 0.28549 0.95288 0.03421 0.0
C978 C 0.23431 0.87077 0.99227 0.0
C979 C 0.2256 0.84241 0.98937 0.0
N980 N 0.21033 0.8433 0.98749 0.0
C981 C 0.21855 0.87143 0.99024 0.0
C982 C 0.23791 0.85618 0.99188 0.0
C983 C 0.20659 0.8574 0.98789 0.0
C984 C 0.23037 0.9189 0.97898 0.0
N985 N 0.23868 0.91816 0.99279 0.0
C986 C 0.22592 0.93485 0.00696 0.0
C987 C 0.23666 0.92578 0.0066 0.0
C988 C 0.21706 0.93571 0.99298 0.0
C989 C 0.21918 0.92766 0.97883 0.0
H990 H 0.23237 0.91261 0.96823 0.0
H991 H 0.24325 0.92463 0.01738 0.0
C992 C 0.27817 0.88124 0.03694 0.0
N993 N 0.26427 0.88021 0.02821 0.0
C994 C 0.27855 0.87193 0.0489 0.0
C995 C 0.25018 0.86132 0.04287 0.0
C996 C 0.25036 0.87091 0.03112 0.0
C997 C 0.26445 0.86163 0.05171 0.0
H998 H 0.28898 0.88892 0.03422 0.0
H999 H 0.23952 0.87059 0.02403 0.0
C1000 C 0.27019 0.91895 0.96769 0.0
N1001 N 0.27644 0.94219 0.94823 0.0
C1002 C 0.27407 0.91544 0.95261 0.0
C1003 C 0.26935 0.93424 0.97284 0.0
C1004 C 0.27721 0.92736 0.94295 0.0
C1005 C 0.27261 0.94583 0.96284 0.0
C1006 C 0.29337 0.87989 0.00042 0.0
C1007 C 0.30871 0.88627 0.99695 0.0
C1008 C 0.28974 0.86525 0.00604 0.0
C1009 C 0.32019 0.87799 -0.00068 0.0
C1010 C 0.30154 0.85732 0.00822 0.0
N1011 N 0.3164 0.86381 0.00487 0.0
C1012 C 0.30828 0.92436 0.01469 0.0
C1013 C 0.30694 0.93243 0.98921 0.0
C1014 C 0.32304 0.93467 0.01887 0.0
N1015 N 0.30058 0.92363 0.00018 0.0
C1016 C 0.32175 0.94286 0.99286 0.0
C1017 C 0.32973 0.94393 0.00782 0.0
H1018 H 0.30295 0.91679 0.0229 0.0
H1019 H 0.30078 0.93118 0.97762 0.0
C1020 C 0.25058 0.87141 0.95409 0.0
N1021 N 0.26103 0.87042 0.9662 0.0
C1022 C 0.24825 0.86091 0.94049 0.0
C1023 C 0.26693 0.8482 0.95257 0.0
C1024 C 0.26893 0.859 0.96591 0.0
C1025 C 0.25679 0.84941 0.93957 0.0
H1026 H 0.2445 0.88068 0.95489 0.0
H1027 H 0.27702 0.85845 0.97581 0.0
O1028 O 0.26785 0.91293 0.0139 0.0
O1029 O 0.24606 0.88445 0.9952 0.0
O1030 O 0.2672 0.90738 0.97726 0.0
O1031 O 0.28209 0.88806 0.99856 0.0
H1032 H 0.27108 0.91053 0.04423 0.0
H1033 H 0.27852 0.94308 0.01002 0.0
H1034 H 0.28228 0.93284 0.06522 0.0
H1035 H 0.28955 0.96486 0.03163 0.0
H1036 H 0.22819 0.83101 0.98902 0.0
H1037 H 0.21561 0.88268 0.99068 0.0
H1038 H 0.25005 0.85551 0.99361 0.0
H1039 H 0.19432 0.85772 0.98644 0.0
H1040 H 0.22412 0.94068 0.01808 0.0
H1041 H 0.21219 0.92804 0.96796 0.0
H1042 H 0.28971 0.87263 0.05572 0.0
H1043 H 0.23911 0.85344 0.04473 0.0
H1044 H 0.27471 0.90364 0.94844 0.0
H1045 H 0.26626 0.93713 0.98441 0.0
H1046 H 0.28027 0.92483 0.93126 0.0
H1047 H 0.27208 0.95774 0.9667 0.0
H1048 H 0.31173 0.89751 0.99245 0.0
H1049 H 0.27789 0.86003 0.00862 0.0
H1050 H 0.33211 0.88283 0.99674 0.0
H1051 H 0.29889 0.846 0.01258 0.0
H1052 H 0.32933 0.9351 0.03034 0.0
H1053 H 0.3271 0.94967 0.98407 0.0
H1054 H 0.24052 0.86233 0.93056 0.0
H1055 H 0.2736 0.83938 0.95222 0.0
Li1056 Li 0.25455 0.37506 0.02118 0.0
Li1057 Li 0.26602 0.35635 0.03597 0.0
Li1058 Li 0.28375 0.37774 0.02266 0.0
Li1059 Li 0.26499 0.35373 0.00688 0.0
C1060 C 0.27083 0.39165 0.05163 0.0
N1061 N 0.27184 0.41553 0.07532 0.0
C1062 C 0.2654 0.38804 0.06589 0.0
C1063 C 0.27681 0.40738 0.04939 0.0
C1064 C 0.26599 0.40029 0.07773 0.0
C1065 C 0.2772 0.41929 0.06152 0.0
C1066 C 0.23465 0.33895 0.01903 0.0
C1067 C 0.22354 0.31082 0.01451 0.0
N1068 N 0.20906 0.31305 0.01668 0.0
C1069 C 0.21967 0.34098 0.02119 0.0
C1070 C 0.23665 0.32378 0.01565 0.0
C1071 C 0.20688 0.32773 0.01998 0.0
C1072 C 0.23192 0.38731 0.00496 0.0
N1073 N 0.2383 0.3862 0.01961 0.0
C1074 C 0.22131 0.40057 0.03105 0.0
C1075 C 0.23316 0.39252 0.03257 0.0
C1076 C 0.21469 0.40215 0.01604 0.0
C1077 C 0.22015 0.39533 0.0029 0.0
H1078 H 0.23599 0.38193 0.99483 0.0
H1079 H 0.23822 0.39132 0.04411 0.0
C1080 C 0.2787 0.344 0.0616 0.0
N1081 N 0.26495 0.34533 0.05405 0.0
C1082 C 0.27866 0.33667 0.07524 0.0
C1083 C 0.25028 0.33215 0.07309 0.0
C1084 C 0.25087 0.33953 0.05946 0.0
C1085 C 0.26433 0.33076 0.0813 0.0
H1086 H 0.28976 0.34877 0.0571 0.0
H1087 H 0.24011 0.34091 0.05336 0.0
C1088 C 0.27037 0.38683 0.99343 0.0
N1089 N 0.27424 0.40813 0.97186 0.0
C1090 C 0.27226 0.38196 0.97795 0.0
C1091 C 0.2705 0.40252 0.99798 0.0
C1092 C 0.2742 0.39292 0.96721 0.0
C1093 C 0.27245 0.41312 0.98688 0.0
C1094 C 0.29254 0.34477 0.02138 0.0
C1095 C 0.30761 0.34969 0.01669 0.0
C1096 C 0.28697 0.32926 0.0245 0.0
C1097 C 0.31685 0.33893 0.0151 0.0
C1098 C 0.29657 0.31885 0.02275 0.0
N1099 N 0.31118 0.32387 0.01812 0.0
C1100 C 0.3131 0.39748 0.03779 0.0
C1101 C 0.30977 0.39648 0.01013 0.0
C1102 C 0.32821 0.40771 0.03863 0.0
N1103 N 0.30422 0.39214 0.02368 0.0
C1104 C 0.32469 0.40681 0.01044 0.0
C1105 C 0.33415 0.41257 0.02483 0.0
H1106 H 0.30848 0.39375 0.04839 0.0
H1107 H 0.30271 0.39178 -0.00099 0.0
C1108 C 0.24936 0.34027 0.97714 0.0
N1109 N 0.26179 0.33998 0.98756 0.0
C1110 C 0.24741 0.33231 0.96195 0.0
C1111 C 0.27056 0.32314 0.96875 0.0
C1112 C 0.27221 0.33148 0.98371 0.0
C1113 C 0.25825 0.3238 0.95756 0.0
H1114 H 0.24133 0.34724 0.98046 0.0
H1115 H 0.28217 0.33158 0.99195 0.0
O1116 O 0.27072 0.3798 0.0401 0.0
O1117 O 0.2472 0.35182 0.01991 0.0
O1118 O 0.26824 0.37619 0.00401 0.0
O1119 O 0.28334 0.35513 0.02292 0.0
H1120 H 0.26082 0.3759 0.06782 0.0
H1121 H 0.28118 0.41033 0.03845 0.0
H1122 H 0.26185 0.39767 0.08885 0.0
H1123 H 0.28182 0.43152 0.05999 0.0
H1124 H 0.22487 0.299 0.01186 0.0
H1125 H 0.21797 0.35269 0.02375 0.0
H1126 H 0.24816 0.32205 0.01383 0.0
H1127 H 0.19521 0.32912 0.02162 0.0
H1128 H 0.21755 0.4057 0.04152 0.0
H1129 H 0.21522 0.39601 0.99111 0.0
H1130 H 0.28977 0.3357 0.08098 0.0
H1131 H 0.23898 0.32801 0.0774 0.0
H1132 H 0.27228 0.36987 0.97427 0.0
H1133 H 0.26901 0.40644 0.00992 0.0
H1134 H 0.27567 0.38932 0.95518 0.0
H1135 H 0.27252 0.4253 0.9902 0.0
H1136 H 0.31209 0.36168 0.01426 0.0
H1137 H 0.27533 0.32529 0.02815 0.0
H1138 H 0.32853 0.34256 0.01145 0.0
H1139 H 0.2924 0.30679 0.02506 0.0
H1140 H 0.3351 0.4119 0.04997 0.0
H1141 H 0.3289 0.41001 -0.0005 0.0
H1142 H 0.23776 0.33308 0.95361 0.0
H1143 H 0.27929 0.3169 0.96572 0.0
Li1144 Li 0.77727 0.16634 0.04678 0.0
Li1145 Li 0.79081 0.1468 0.03665 0.0
Li1146 Li 0.77834 0.16227 0.01958 0.0
Li1147 Li 0.76269 0.14155 0.03254 0.0
C1148 C 0.80832 0.18272 0.03537 0.0
N1149 N 0.83269 0.20917 0.03464 0.0
C1150 C 0.82401 0.18189 0.03771 0.0
C1151 C 0.80502 0.197 0.03264 0.0
C1152 C 0.83617 0.19539 0.0373 0.0
C1153 C 0.8175 0.21023 0.03232 0.0
C1154 C 0.77314 0.13372 0.06227 0.0
C1155 C 0.76755 0.10634 0.06626 0.0
N1156 N 0.76667 0.11052 0.08172 0.0
C1157 C 0.77212 0.13775 0.07816 0.0
C1158 C 0.77086 0.11791 0.05623 0.0
C1159 C 0.76889 0.12585 0.08782 0.0
C1160 C 0.76352 0.17908 0.06979 0.0
N1161 N 0.77719 0.18078 0.06321 0.0
C1162 C 0.79103 0.20101 0.08331 0.0
C1163 C 0.79075 0.19155 0.06942 0.0
C1164 C 0.77729 0.19893 0.09073 0.0
C1165 C 0.76325 0.18827 0.08368 0.0
H1166 H 0.75311 0.17002 0.06466 0.0
H1167 H 0.80154 0.19212 0.06418 0.0
C1168 C 0.81457 0.13751 0.02555 0.0
N1169 N 0.8072 0.13776 0.03868 0.0
C1170 C 0.8262 0.1295 0.02443 0.0
C1171 C 0.82244 0.1223 0.05052 0.0
C1172 C 0.81093 0.13065 0.0512 0.0
C1173 C 0.82998 0.12169 0.03694 0.0
H1174 H 0.81105 0.14322 0.01582 0.0
H1175 H 0.80475 0.13112 0.06145 0.0
C1176 C 0.74921 0.17152 0.032 0.0
N1177 N 0.72813 0.18998 0.03529 0.0
C1178 C 0.73305 0.16449 0.03153 0.0
C1179 C 0.75461 0.18796 0.03397 0.0
C1180 C 0.72259 0.17402 0.03323 0.0
C1181 C 0.74379 0.19708 0.0357 0.0
C1182 C 0.77258 0.12845 0.0039 0.0
C1183 C 0.76456 0.13169 0.99042 0.0
C1184 C 0.77561 0.11366 0.00428 0.0
C1185 C 0.75958 0.11998 0.97755 0.0
C1186 C 0.77039 0.10225 0.99117 0.0
N1187 N 0.76256 0.10563 0.97819 0.0
C1188 C 0.79378 0.17789 0.99693 0.0
C1189 C 0.76636 0.17647 0.99669 0.0
C1190 C 0.79505 0.18794 0.98546 0.0
N1191 N 0.77966 0.17276 0.00243 0.0
C1192 C 0.76706 0.18637 0.98518 0.0
C1193 C 0.78159 0.19232 0.97978 0.0
H1194 H 0.80406 0.17456 0.00181 0.0
H1195 H 0.7553 0.17195 0.00122 0.0
C1196 C 0.73631 0.12753 0.04481 0.0
N1197 N 0.74406 0.12641 0.03196 0.0
C1198 C 0.72117 0.11805 0.04479 0.0
C1199 C 0.72268 0.10617 0.01855 0.0
C1200 C 0.73774 0.11586 0.01908 0.0
C1201 C 0.71416 0.10761 0.03133 0.0
H1202 H 0.74161 0.13635 0.05471 0.0
H1203 H 0.74396 0.11533 0.00896 0.0
O1204 O 0.79634 0.16966 0.03614 0.0
O1205 O 0.7762 0.14529 0.05271 0.0
O1206 O 0.75955 0.16229 0.03003 0.0
O1207 O 0.77751 0.13971 0.01665 0.0
H1208 H 0.82677 0.17096 0.03996 0.0
H1209 H 0.79298 0.19785 0.03078 0.0
H1210 H 0.84837 0.19492 0.03914 0.0
H1211 H 0.81512 0.22136 0.03023 0.0
H1212 H 0.76569 0.09404 0.06177 0.0
H1213 H 0.77386 0.14996 0.08298 0.0
H1214 H 0.77156 0.11463 0.04392 0.0
H1215 H 0.76813 0.12879 0.10016 0.0
H1216 H 0.8021 0.20892 0.08879 0.0
H1217 H 0.75255 0.18641 0.08937 0.0
H1218 H 0.83185 0.129 0.01378 0.0
H1219 H 0.82523 0.11622 0.06025 0.0
H1220 H 0.72858 0.1518 0.02965 0.0
H1221 H 0.76701 0.19362 0.03427 0.0
H1222 H 0.71006 0.16871 0.03285 0.0
H1223 H 0.74783 0.20982 0.03735 0.0
H1224 H 0.76202 0.14302 0.98996 0.0
H1225 H 0.78181 0.11099 0.01464 0.0
H1226 H 0.7533 0.1223 0.96706 0.0
H1227 H 0.77256 0.09071 0.99131 0.0
H1228 H 0.80633 0.19233 0.98118 0.0
H1229 H 0.7565 0.18952 0.9807 0.0
H1230 H 0.71471 0.1195 0.05474 0.0
H1231 H 0.7175 0.0981 0.00803 0.0
Li1232 Li 0.17177 0.55361 0.25576 0.0
Li1233 Li 0.14697 0.53635 0.26111 0.0
Li1234 Li 0.16642 0.52514 0.24837 0.0
Li1235 Li 0.15021 0.54059 0.23541 0.0
C1236 C 0.17997 0.53909 0.2818 0.0
N1237 N 0.20322 0.54501 0.30695 0.0
C1238 C 0.17669 0.54375 0.29685 0.0
C1239 C 0.19503 0.53732 0.27953 0.0
C1240 C 0.18861 0.54671 0.30941 0.0
C1241 C 0.20663 0.5404 0.2924 0.0
C1242 C 0.14265 0.56722 0.24741 0.0
C1243 C 0.11881 0.57287 0.23622 0.0
N1244 N 0.12666 0.58832 0.23704 0.0
C1245 C 0.15045 0.58318 0.24818 0.0
C1246 C 0.12666 0.56204 0.24148 0.0
C1247 C 0.14217 0.59365 0.24286 0.0
C1248 C 0.19103 0.57893 0.24834 0.0
N1249 N 0.18868 0.57118 0.261 0.0
C1250 C 0.21306 0.58681 0.27481 0.0
C1251 C 0.199 0.57516 0.27434 0.0
C1252 C 0.21613 0.59453 0.26155 0.0
C1253 C 0.20462 0.59075 0.24838 0.0
H1254 H 0.18244 0.57555 0.23801 0.0
H1255 H 0.1966 0.56923 0.28449 0.0
C1256 C 0.13217 0.52207 0.28522 0.0
N1257 N 0.13318 0.53394 0.27621 0.0
C1258 C 0.12389 0.52202 0.29826 0.0
C1259 C 0.11739 0.54598 0.29188 0.0
C1260 C 0.1258 0.54559 0.27906 0.0
C1261 C 0.11679 0.53437 0.30188 0.0
H1262 H 0.13841 0.51312 0.28269 0.0
H1263 H 0.12717 0.55507 0.27195 0.0
C1264 C 0.18343 0.54323 0.22468 0.0
N1265 N 0.20481 0.54638 0.20282 0.0
C1266 C 0.17811 0.53934 0.20868 0.0
C1267 C 0.19965 0.54854 0.22958 0.0
C1268 C 0.1891 0.54104 0.19781 0.0
C1269 C 0.21026 0.55011 0.21833 0.0
C1270 C 0.1307 0.50819 0.24585 0.0
C1271 C 0.13251 0.49313 0.24756 0.0
C1272 C 0.11589 0.51121 0.24668 0.0
C1273 C 0.11954 0.48141 0.25042 0.0
C1274 C 0.10322 0.49919 0.24959 0.0
N1275 N 0.10529 0.48466 0.25139 0.0
C1276 C 0.17468 0.50077 0.2601 0.0
C1277 C 0.18726 0.50729 0.23754 0.0
C1278 C 0.18331 0.48985 0.26253 0.0
N1279 N 0.17683 0.5092 0.24783 0.0
C1280 C 0.19638 0.49661 0.23966 0.0
C1281 C 0.19455 0.48786 0.25242 0.0
H1282 H 0.16645 0.50283 0.26819 0.0
H1283 H 0.18884 0.5143 0.22798 0.0
C1284 C 0.14361 0.55509 0.20882 0.0
N1285 N 0.13963 0.54217 0.21642 0.0
C1286 C 0.13492 0.55563 0.19468 0.0
C1287 C 0.11837 0.52969 0.19681 0.0
C1288 C 0.12743 0.52958 0.2107 0.0
C1289 C 0.12212 0.54282 0.18873 0.0
H1290 H 0.15345 0.56489 0.21377 0.0
H1291 H 0.12474 0.51942 0.21691 0.0
O1292 O 0.16854 0.53654 0.26936 0.0
O1293 O 0.15038 0.55695 0.25331 0.0
O1294 O 0.17278 0.54223 0.23545 0.0
O1295 O 0.14316 0.51964 0.2425 0.0
H1296 H 0.16509 0.54521 0.29876 0.0
H1297 H 0.19782 0.53393 0.26792 0.0
H1298 H 0.18628 0.55043 0.32112 0.0
H1299 H 0.21838 0.53924 0.29082 0.0
H1300 H 0.10645 0.56899 0.23158 0.0
H1301 H 0.16268 0.5875 0.25312 0.0
H1302 H 0.12036 0.54979 0.24099 0.0
H1303 H 0.14805 0.60604 0.24348 0.0
H1304 H 0.22138 0.58966 0.28535 0.0
H1305 H 0.20589 0.59694 0.23817 0.0
H1306 H 0.12361 0.51289 0.3058 0.0
H1307 H 0.11237 0.55587 0.29452 0.0
H1308 H 0.16563 0.53506 0.20468 0.0
H1309 H 0.20399 0.55148 0.24193 0.0
H1310 H 0.18513 0.53814 0.18539 0.0
H1311 H 0.22283 0.55432 0.22194 0.0
H1312 H 0.14372 0.4904 0.2464 0.0
H1313 H 0.11421 0.52271 0.24511 0.0
H1314 H 0.12079 0.4697 0.25175 0.0
H1315 H 0.09171 0.5014 0.25036 0.0
H1316 H 0.18122 0.48309 0.27228 0.0
H1317 H 0.205 0.49552 0.23167 0.0
H1318 H 0.13804 0.56587 0.18853 0.0
H1319 H 0.10871 0.51952 0.19226 0.0
Li1320 Li 0.75432 0.87521 0.52173 0.0
Li1321 Li 0.7659 0.85635 0.53638 0.0
Li1322 Li 0.78363 0.87781 0.52299 0.0
Li1323 Li 0.76446 0.85379 0.50724 0.0
C1324 C 0.77215 0.89143 0.55265 0.0
N1325 N 0.77539 0.91486 0.57741 0.0
C1326 C 0.76648 0.88769 0.56678 0.0
C1327 C 0.77953 0.90706 0.55109 0.0
C1328 C 0.76823 0.89971 0.57917 0.0
C1329 C 0.78103 0.91875 0.56375 0.0
C1330 C 0.7343 0.83896 0.51846 0.0
C1331 C 0.72357 0.81082 0.51295 0.0
N1332 N 0.7088 0.81281 0.51393 0.0
C1333 C 0.71904 0.84074 0.51941 0.0
C1334 C 0.73664 0.82391 0.51524 0.0
C1335 C 0.70629 0.82737 0.5171 0.0
C1336 C 0.72742 0.88247 0.50744 0.0
N1337 N 0.73824 0.88649 0.52041 0.0
C1338 C 0.72621 0.90655 0.5302 0.0
C1339 C 0.73776 0.8982 0.53177 0.0
C1340 C 0.71491 0.90267 0.51691 0.0
C1341 C 0.71552 0.89037 0.50549 0.0
H1342 H 0.72809 0.87314 0.49856 0.0
H1343 H 0.74634 0.90117 0.54204 0.0
C1344 C 0.77836 0.84533 0.56317 0.0
N1345 N 0.7647 0.84528 0.5544 0.0
C1346 C 0.77791 0.83801 0.57683 0.0
C1347 C 0.74939 0.83063 0.57215 0.0
C1348 C 0.75037 0.83805 0.55856 0.0
C1349 C 0.76329 0.83066 0.58146 0.0
H1350 H 0.78959 0.85127 0.55968 0.0
H1351 H 0.73968 0.83834 0.55152 0.0
C1352 C 0.76891 0.88638 0.49336 0.0
N1353 N 0.77106 0.90669 0.47085 0.0
C1354 C 0.77195 0.88154 0.47827 0.0
C1355 C 0.76705 0.90157 0.49706 0.0
C1356 C 0.77298 0.89198 0.46704 0.0
C1357 C 0.76815 0.91165 0.48549 0.0
C1358 C 0.79281 0.84534 0.52249 0.0
C1359 C 0.8077 0.85044 0.51747 0.0
C1360 C 0.78807 0.83023 0.52691 0.0
C1361 C 0.81763 0.84027 0.51689 0.0
C1362 C 0.79834 0.82041 0.52616 0.0
N1363 N 0.81278 0.82559 0.52121 0.0
C1364 C 0.81454 0.89439 0.53726 0.0
C1365 C 0.80833 0.89987 0.5115 0.0
C1366 C 0.8297 0.90455 0.53819 0.0
N1367 N 0.8042 0.89225 0.52405 0.0
C1368 C 0.82324 0.91026 0.512 0.0
C1369 C 0.83419 0.9127 0.52544 0.0
H1370 H 0.81102 0.88814 0.54705 0.0
H1371 H 0.80014 0.89782 0.501 0.0
C1372 C 0.75018 0.84088 0.47649 0.0
N1373 N 0.76137 0.83988 0.488 0.0
C1374 C 0.74918 0.83279 0.46144 0.0
C1375 C 0.77056 0.82206 0.47067 0.0
C1376 C 0.7712 0.83039 0.48545 0.0
C1377 C 0.7598 0.82359 0.45828 0.0
H1378 H 0.74255 0.84858 0.47879 0.0
H1379 H 0.77995 0.82964 0.49466 0.0
O1380 O 0.77068 0.8798 0.54047 0.0
O1381 O 0.74685 0.85196 0.52059 0.0
O1382 O 0.76787 0.87631 0.50448 0.0
O1383 O 0.78295 0.85513 0.52307 0.0
H1384 H 0.76078 0.87562 0.56816 0.0
H1385 H 0.78399 0.91012 0.5402 0.0
H1386 H 0.76389 0.89699 0.59018 0.0
H1387 H 0.78666 0.93091 0.56273 0.0
H1388 H 0.72516 0.79909 0.51039 0.0
H1389 H 0.71707 0.85233 0.52195 0.0
H1390 H 0.74841 0.82237 0.51445 0.0
H1391 H 0.6944 0.82856 0.51782 0.0
H1392 H 0.72602 0.91585 0.53934 0.0
H1393 H 0.70709 0.8871 0.49502 0.0
H1394 H 0.78884 0.83838 0.5839 0.0
H1395 H 0.73792 0.8252 0.57554 0.0
H1396 H 0.77363 0.8699 0.47529 0.0
H1397 H 0.76485 0.90554 0.50874 0.0
H1398 H 0.77534 0.88839 0.45531 0.0
H1399 H 0.76672 0.92344 0.48815 0.0
H1400 H 0.81152 0.8621 0.514 0.0
H1401 H 0.77654 0.8261 0.53076 0.0
H1402 H 0.82918 0.84404 0.513 0.0
H1403 H 0.79483 0.80867 0.5295 0.0
H1404 H 0.83776 0.90614 0.54881 0.0
H1405 H 0.82629 0.91608 0.50181 0.0
H1406 H 0.74075 0.83439 0.45223 0.0
H1407 H 0.77877 0.81486 0.46887 0.0
Li1408 Li 0.94106 0.03108 0.27542 0.0
Li1409 Li 0.91715 0.01262 0.25929 0.0
Li1410 Li 0.93915 0.03024 0.24644 0.0
Li1411 Li 0.92026 0.04179 0.26134 0.0
C1412 C 0.95022 0.0037 0.26066 0.0
N1413 N 0.97118 0.98518 0.26379 0.0
C1414 C 0.94499 0.98832 0.26426 0.0
C1415 C 0.96605 0.00965 0.25853 0.0
C1416 C 0.95579 0.97915 0.26583 0.0
C1417 C 0.97648 0.0001 0.2602 0.0
C1418 C 0.90802 0.02691 0.28909 0.0
C1419 C 0.88181 0.0257 0.29604 0.0
N1420 N 0.8869 0.02467 0.31115 0.0
C1421 C 0.913 0.02587 0.30468 0.0
C1422 C 0.89231 0.02682 0.28469 0.0
C1423 C 0.90213 0.02472 0.31566 0.0
C1424 C 0.95941 0.04799 0.30335 0.0
N1425 N 0.95459 0.03362 0.29451 0.0
C1426 C 0.96675 0.02188 0.31427 0.0
C1427 C 0.95807 0.02068 0.29968 0.0
C1428 C 0.97169 0.03649 0.3238 0.0
C1429 C 0.96801 0.0497 0.31814 0.0
H1430 H 0.9562 0.05803 0.29909 0.0
H1431 H 0.95364 0.00929 0.29276 0.0
C1432 C 0.90093 0.98202 0.24437 0.0
N1433 N 0.90256 0.99226 0.25767 0.0
C1434 C 0.89076 0.96687 0.24307 0.0
C1435 C 0.88389 0.97325 0.26902 0.0
C1436 C 0.89443 0.98808 0.26995 0.0
C1437 C 0.88204 0.96244 0.25549 0.0
H1438 H 0.90766 0.98557 0.23484 0.0
H1439 H 0.89623 0.9961 0.28061 0.0
C1440 C 0.95629 0.06172 0.26404 0.0
N1441 N 0.98188 0.08768 0.26685 0.0
C1442 C 0.95396 0.07659 0.26231 0.0
C1443 C 0.97159 0.06001 0.26722 0.0
C1444 C 0.96706 0.08958 0.26375 0.0
C1445 C 0.98439 0.0733 0.2686 0.0
C1446 C 0.90377 0.02512 0.23069 0.0
C1447 C 0.90728 0.02983 0.21615 0.0
C1448 C 0.88806 0.01918 0.23323 0.0
C1449 C 0.89494 0.02856 0.20434 0.0
C1450 C 0.87605 0.01811 0.22113 0.0
N1451 N 0.87971 0.02277 0.20706 0.0
C1452 C 0.94998 0.01766 0.21933 0.0
C1453 C 0.95814 0.04552 0.22449 0.0
C1454 C 0.95728 0.01793 0.20555 0.0
N1455 N 0.95044 0.03133 0.22841 0.0
C1456 C 0.96568 0.04634 0.21087 0.0
C1457 C 0.96517 0.03243 0.20104 0.0
H1458 H 0.94365 0.00654 0.22266 0.0
H1459 H 0.95822 0.05625 0.23178 0.0
C1460 C 0.90673 0.06376 0.27737 0.0
N1461 N 0.90917 0.05797 0.26284 0.0
C1462 C 0.89819 0.07513 0.27916 0.0
C1463 C 0.89568 0.07518 0.25106 0.0
C1464 C 0.90399 0.06353 0.24977 0.0
C1465 C 0.89252 0.08093 0.2659 0.0
H1466 H 0.91136 0.0595 0.28762 0.0
H1467 H 0.90629 0.05893 0.23836 0.0
O1468 O 0.93978 0.0128 0.2591 0.0
O1469 O 0.9185 0.02793 0.27819 0.0
O1470 O 0.94356 0.04896 0.26279 0.0
O1471 O 0.91574 0.02587 0.24218 0.0
H1472 H 0.93275 0.98355 0.26591 0.0
H1473 H 0.97022 0.02149 0.2556 0.0
H1474 H 0.95194 0.96724 0.26868 0.0
H1475 H 0.98879 0.00453 0.25862 0.0
H1476 H 0.86962 0.02563 0.29282 0.0
H1477 H 0.92512 0.02588 0.30825 0.0
H1478 H 0.88829 0.02762 0.27266 0.0
H1479 H 0.90581 0.02387 0.32777 0.0
H1480 H 0.96898 0.01132 0.31832 0.0
H1481 H 0.97158 0.06118 0.32513 0.0
H1482 H 0.88963 0.95875 0.23249 0.0
H1483 H 0.87753 0.9701 0.27891 0.0
H1484 H 0.94216 0.07808 0.25987 0.0
H1485 H 0.97355 0.04858 0.26869 0.0
H1486 H 0.96545 0.10117 0.26243 0.0
H1487 H 0.99631 0.07219 0.2711 0.0
H1488 H 0.91942 0.03435 0.21399 0.0
H1489 H 0.88519 0.01534 0.24439 0.0
H1490 H 0.89746 0.03213 0.19302 0.0
H1491 H 0.86382 0.01351 0.2229 0.0
H1492 H 0.95633 0.0069 0.19828 0.0
H1493 H 0.97177 0.05778 0.20804 0.0
H1494 H 0.89617 0.07947 0.29081 0.0
H1495 H 0.8915 0.07943 0.24057 0.0
Li1496 Li 0.27621 0.66521 0.54827 0.0
Li1497 Li 0.2893 0.64661 0.53594 0.0
Li1498 Li 0.27706 0.66351 0.52075 0.0
Li1499 Li 0.26143 0.64137 0.53194 0.0
C1500 C 0.30743 0.68264 0.53751 0.0
N1501 N 0.33249 0.70875 0.53796 0.0
C1502 C 0.3229 0.68105 0.53854 0.0
C1503 C 0.3047 0.69752 0.53673 0.0
C1504 C 0.33541 0.69439 0.53877 0.0
C1505 C 0.31753 0.71057 0.53694 0.0
C1506 C 0.27382 0.63208 0.56166 0.0
C1507 C 0.26906 0.60478 0.56578 0.0
N1508 N 0.27114 0.6092 0.58156 0.0
C1509 C 0.27588 0.63636 0.57789 0.0
C1510 C 0.2704 0.61618 0.55551 0.0
C1511 C 0.27451 0.62462 0.58777 0.0
C1512 C 0.26158 0.67741 0.57077 0.0
N1513 N 0.27579 0.67854 0.56539 0.0
C1514 C 0.2885 0.6997 0.58499 0.0
C1515 C 0.28916 0.68923 0.57213 0.0
C1516 C 0.27395 0.69888 0.59077 0.0
C1517 C 0.26032 0.68773 0.58349 0.0
H1518 H 0.25128 0.66847 0.56518 0.0
H1519 H 0.30031 0.68943 0.56772 0.0
C1520 C 0.31082 0.63581 0.52247 0.0
N1521 N 0.30553 0.63743 0.53666 0.0
C1522 C 0.32235 0.62789 0.52043 0.0
C1523 C 0.32313 0.62398 0.54791 0.0
C1524 C 0.31137 0.6319 0.54937 0.0
C1525 C 0.32862 0.62189 0.53324 0.0
H1526 H 0.3058 0.64044 0.51268 0.0
H1527 H 0.3068 0.6335 0.56049 0.0
C1528 C 0.24823 0.67175 0.53313 0.0
N1529 N 0.22723 0.69037 0.53561 0.0
C1530 C 0.23199 0.6648 0.53184 0.0
C1531 C 0.25377 0.68817 0.53559 0.0
C1532 C 0.22156 0.67442 0.53311 0.0
C1533 C 0.24298 0.69738 0.53688 0.0
C1534 C 0.27099 0.62948 0.50328 0.0
C1535 C 0.26502 0.63296 0.48888 0.0
C1536 C 0.2718 0.61408 0.50488 0.0
C1537 C 0.2597 0.62089 0.47637 0.0
C1538 C 0.26635 0.60233 0.49208 0.0
N1539 N 0.26045 0.60595 0.47822 0.0
C1540 C 0.29175 0.68232 0.4997 0.0
C1541 C 0.26372 0.67685 0.49811 0.0
C1542 C 0.29197 0.69229 0.48824 0.0
N1543 N 0.27778 0.67517 0.50451 0.0
C1544 C 0.26336 0.68654 0.48653 0.0
C1545 C 0.27763 0.69443 0.48173 0.0
H1546 H 0.30265 0.68035 0.50483 0.0
H1547 H 0.25282 0.67062 0.50198 0.0
C1548 C 0.23582 0.62539 0.54371 0.0
N1549 N 0.24271 0.6265 0.53025 0.0
C1550 C 0.22066 0.61591 0.5434 0.0
C1551 C 0.22031 0.60877 0.51544 0.0
C1552 C 0.23536 0.61852 0.51627 0.0
C1553 C 0.21274 0.60777 0.52905 0.0
H1554 H 0.24184 0.63245 0.5545 0.0
H1555 H 0.24076 0.62019 0.50566 0.0
O1556 O 0.2951 0.66967 0.53744 0.0
O1557 O 0.27466 0.64348 0.55193 0.0
O1558 O 0.25856 0.66245 0.53181 0.0
O1559 O 0.27608 0.64113 0.51568 0.0
H1560 H 0.32522 0.66963 0.53924 0.0
H1561 H 0.29284 0.69897 0.53591 0.0
H1562 H 0.34745 0.69333 0.53961 0.0
H1563 H 0.31558 0.72214 0.5363 0.0
H1564 H 0.26633 0.59241 0.56121 0.0
H1565 H 0.27844 0.64864 0.5828 0.0
H1566 H 0.26863 0.6127 0.54296 0.0
H1567 H 0.27607 0.62775 0.60037 0.0
H1568 H 0.2993 0.7079 0.59068 0.0
H1569 H 0.24895 0.6868 0.58779 0.0
H1570 H 0.32606 0.6262 0.50887 0.0
H1571 H 0.32783 0.61952 0.55802 0.0
H1572 H 0.22746 0.65212 0.52978 0.0
H1573 H 0.26626 0.69375 0.53661 0.0
H1574 H 0.20896 0.66919 0.5321 0.0
H1575 H 0.24712 0.7101 0.53888 0.0
H1576 H 0.26437 0.64482 0.48742 0.0
H1577 H 0.2765 0.61122 0.51591 0.0
H1578 H 0.25495 0.62339 0.4652 0.0
H1579 H 0.26679 0.59034 0.49317 0.0
H1580 H 0.30308 0.69805 0.48432 0.0
H1581 H 0.25216 0.68787 0.48135 0.0
H1582 H 0.21494 0.61558 0.55404 0.0
H1583 H 0.21442 0.60256 0.50419 0.0
Li1584 Li 0.41787 0.51235 0.75928 0.0
Li1585 Li 0.44175 0.53082 0.77546 0.0
Li1586 Li 0.42086 0.54148 0.76129 0.0
Li1587 Li 0.43977 0.53009 0.7465 0.0
C1588 C 0.40866 0.52658 0.78903 0.0
N1589 N 0.38751 0.5242 0.81108 0.0
C1590 C 0.4136 0.52533 0.80459 0.0
C1591 C 0.39298 0.5266 0.78467 0.0
C1592 C 0.40272 0.52413 0.81556 0.0
C1593 C 0.38247 0.5254 0.796 0.0
C1594 C 0.45079 0.50332 0.76089 0.0
C1595 C 0.47695 0.49931 0.7609 0.0
N1596 N 0.47136 0.48445 0.7645 0.0
C1597 C 0.44528 0.488 0.76455 0.0
C1598 C 0.46673 0.50905 0.75902 0.0
C1599 C 0.45588 0.47864 0.76635 0.0
C1600 C 0.40066 0.48205 0.74417 0.0
N1601 N 0.40326 0.49202 0.75779 0.0
C1602 C 0.3854 0.47285 0.76976 0.0
C1603 C 0.39601 0.48762 0.77052 0.0
C1604 C 0.3825 0.46231 0.75589 0.0
C1605 C 0.39036 0.46698 0.74299 0.0
H1606 H 0.4067 0.48578 0.73426 0.0
H1607 H 0.39856 0.49544 0.78139 0.0
C1608 C 0.45721 0.54744 0.80435 0.0
N1609 N 0.45509 0.53367 0.79475 0.0
C1610 C 0.46489 0.54931 0.81959 0.0
C1611 C 0.46869 0.52311 0.8145 0.0
C1612 C 0.46074 0.52165 0.79948 0.0
C1613 C 0.47054 0.53694 0.82477 0.0
H1614 H 0.45232 0.55669 0.80039 0.0
H1615 H 0.45853 0.51064 0.79194 0.0
C1616 C 0.40415 0.52498 0.73095 0.0
N1617 N 0.37957 0.52315 0.70802 0.0
C1618 C 0.40729 0.52982 0.71636 0.0
C1619 C 0.38854 0.51916 0.73387 0.0
C1620 C 0.39469 0.52882 0.70493 0.0
C1621 C 0.37626 0.51835 0.72212 0.0
C1622 C 0.45682 0.56139 0.76345 0.0
C1623 C 0.45443 0.57608 0.76099 0.0
C1624 C 0.47214 0.55984 0.76692 0.0
C1625 C 0.46749 0.58906 0.76201 0.0
C1626 C 0.4849 0.57311 0.76784 0.0
N1627 N 0.48232 0.58732 0.76539 0.0
C1628 C 0.40797 0.56402 0.77733 0.0
C1629 C 0.40454 0.56313 0.7497 0.0
C1630 C 0.39992 0.5758 0.77911 0.0
N1631 N 0.40991 0.55777 0.76279 0.0
C1632 C 0.39656 0.57504 0.75094 0.0
C1633 C 0.39403 0.5815 0.76582 0.0
H1634 H 0.41262 0.55979 0.78758 0.0
H1635 H 0.40654 0.55826 0.73828 0.0
C1636 C 0.45493 0.51888 0.72153 0.0
N1637 N 0.45107 0.53173 0.72853 0.0
C1638 C 0.46222 0.51969 0.70775 0.0
C1639 C 0.4614 0.54695 0.70861 0.0
C1640 C 0.4543 0.54566 0.72246 0.0
C1641 C 0.46531 0.5338 0.70098 0.0
H1642 H 0.452 0.50787 0.72645 0.0
H1643 H 0.45097 0.55566 0.72817 0.0
O1644 O 0.41916 0.52767 0.77815 0.0
O1645 O 0.44056 0.51259 0.75909 0.0
O1646 O 0.41636 0.52556 0.74211 0.0
O1647 O 0.44413 0.54871 0.76292 0.0
H1648 H 0.42568 0.52521 0.80813 0.0
H1649 H 0.389 0.52757 0.77267 0.0
H1650 H 0.40636 0.52313 0.82764 0.0
H1651 H 0.3703 0.52543 0.79281 0.0
H1652 H 0.48932 0.50358 0.75948 0.0
H1653 H 0.43297 0.48341 0.76604 0.0
H1654 H 0.47115 0.52087 0.75613 0.0
H1655 H 0.4518 0.46677 0.76922 0.0
H1656 H 0.37977 0.46955 0.78004 0.0
H1657 H 0.38843 0.45913 0.7321 0.0
H1658 H 0.46597 0.56005 0.82738 0.0
H1659 H 0.47268 0.51326 0.81831 0.0
H1660 H 0.41933 0.53425 0.7139 0.0
H1661 H 0.38594 0.51521 0.74505 0.0
H1662 H 0.39694 0.5325 0.69358 0.0
H1663 H 0.36411 0.51386 0.7242 0.0
H1664 H 0.4426 0.57745 0.75839 0.0
H1665 H 0.47415 0.54856 0.769 0.0
H1666 H 0.46582 0.60052 0.76016 0.0
H1667 H 0.49684 0.57213 0.77056 0.0
H1668 H 0.39817 0.58022 0.79082 0.0
H1669 H 0.39261 0.57924 0.74034 0.0
H1670 H 0.46485 0.50924 0.70213 0.0
H1671 H 0.46365 0.55806 0.7038 0.0
Li1672 Li 0.65086 0.03892 0.76138 0.0
Li1673 Li 0.67521 0.05002 0.75029 0.0
Li1674 Li 0.6505 0.03696 0.7333 0.0
Li1675 Li 0.66623 0.0219 0.74803 0.0
C1676 C 0.64567 0.06667 0.74838 0.0
N1677 N 0.62643 0.08718 0.74853 0.0
C1678 C 0.65223 0.08289 0.75224 0.0
C1679 C 0.62933 0.06088 0.74455 0.0
C1680 C 0.6423 0.09307 0.75226 0.0
C1681 C 0.6198 0.07145 0.7447 0.0
C1682 C 0.68383 0.04238 0.77973 0.0
C1683 C 0.711 0.04737 0.79083 0.0
N1684 N 0.70749 0.05461 0.80425 0.0
C1685 C 0.68045 0.04974 0.79368 0.0
C1686 C 0.69918 0.04103 0.77832 0.0
C1687 C 0.69259 0.05589 0.80592 0.0
C1688 C 0.63414 0.02654 0.78455 0.0
N1689 N 0.6386 0.03993 0.77777 0.0
C1690 C 0.6261 0.05378 0.79567 0.0
C1691 C 0.63486 0.05344 0.78306 0.0
C1692 C 0.62161 0.04021 0.80305 0.0
C1693 C 0.62562 0.02643 0.79741 0.0
H1694 H 0.63752 0.01606 0.78012 0.0
H1695 H 0.63901 0.06406 0.77782 0.0
C1696 C 0.70271 0.0685 0.74065 0.0
N1697 N 0.69401 0.06607 0.75285 0.0
C1698 C 0.71617 0.08086 0.74212 0.0
C1699 C 0.71147 0.0882 0.76871 0.0
C1700 C 0.6983 0.07541 0.76684 0.0
C1701 C 0.71973 0.09165 0.75579 0.0
H1702 H 0.69858 0.06191 0.7293 0.0
H1703 H 0.69085 0.0737 0.77613 0.0
C1704 C 0.62977 0.00788 0.74433 0.0
N1705 N 0.60254 0.98366 0.74132 0.0
C1706 C 0.63051 0.99222 0.74132 0.0
C1707 C 0.61521 0.01123 0.74587 0.0
C1708 C 0.61661 0.98014 0.73984 0.0
C1709 C 0.60157 0.99881 0.74428 0.0
C1710 C 0.68211 0.03392 0.72034 0.0
C1711 C 0.67814 0.03649 0.70495 0.0
C1712 C 0.69697 0.03152 0.72469 0.0
C1713 C 0.68916 0.03678 0.6942 0.0
C1714 C 0.70769 0.03198 0.7136 0.0
N1715 N 0.7036 0.03459 0.69872 0.0
C1716 C 0.63798 0.05013 0.70886 0.0
C1717 C 0.63013 0.02216 0.70691 0.0
C1718 C 0.62887 0.04982 0.69478 0.0
N1719 N 0.63826 0.03642 0.71462 0.0
C1720 C 0.62101 0.02129 0.6927 0.0
C1721 C 0.62034 0.03525 0.68657 0.0
H1722 H 0.64493 0.06125 0.71514 0.0
H1723 H 0.63086 0.0115 0.71175 0.0
C1724 C 0.6788 0.00122 0.76272 0.0
N1725 N 0.67434 0.00464 0.74833 0.0
C1726 C 0.68824 0.99083 0.76418 0.0
C1727 C 0.68788 0.98744 0.7359 0.0
C1728 C 0.67827 0.99779 0.73499 0.0
C1729 C 0.69316 0.98408 0.75068 0.0
H1730 H 0.67552 0.00704 0.77307 0.0
H1731 H 0.67458 0.00094 0.72374 0.0
O1732 O 0.6553 0.05661 0.74839 0.0
O1733 O 0.67215 0.03655 0.76753 0.0
O1734 O 0.64334 0.01976 0.746 0.0
O1735 O 0.6718 0.03461 0.73122 0.0
H1736 H 0.66486 0.08755 0.75522 0.0
H1737 H 0.62409 0.0484 0.74144 0.0
H1738 H 0.64721 0.10565 0.75524 0.0
H1739 H 0.60714 0.06713 0.74176 0.0
H1740 H 0.72297 0.04657 0.78986 0.0
H1741 H 0.66863 0.05085 0.79497 0.0
H1742 H 0.70196 0.03536 0.76759 0.0
H1743 H 0.69018 0.06172 0.81674 0.0
H1744 H 0.62342 0.06468 0.80004 0.0
H1745 H 0.62239 0.01583 0.803 0.0
H1746 H 0.72205 0.08348 0.73181 0.0
H1747 H 0.71367 0.09649 0.77933 0.0
H1748 H 0.64171 0.98944 0.74016 0.0
H1749 H 0.61445 0.02326 0.74841 0.0
H1750 H 0.61701 0.96796 0.73753 0.0
H1751 H 0.5902 0.00122 0.74544 0.0
H1752 H 0.66675 0.03848 0.70141 0.0
H1753 H 0.70033 0.02981 0.73663 0.0
H1754 H 0.68627 0.03886 0.68228 0.0
H1755 H 0.71931 0.03041 0.71686 0.0
H1756 H 0.62872 0.06078 0.6902 0.0
H1757 H 0.61451 0.00987 0.6866 0.0
H1758 H 0.69172 0.9882 0.77576 0.0
H1759 H 0.69147 0.98249 0.72525 0.0
Li1760 Li 0.77708 0.6969 0.02407 0.0
Li1761 Li 0.78821 0.67627 0.01045 0.0
Li1762 Li 0.77639 0.6952 0.99517 0.0
Li1763 Li 0.75883 0.67319 0.00722 0.0
C1764 C 0.80763 0.71256 0.01598 0.0
N1765 N 0.83292 0.73848 0.02521 0.0
C1766 C 0.82165 0.71073 0.02356 0.0
C1767 C 0.80649 0.72752 0.01294 0.0
C1768 C 0.83431 0.72399 0.02817 0.0
C1769 C 0.8194 0.7405 0.01777 0.0
C1770 C 0.77196 0.66417 0.03739 0.0
C1771 C 0.76476 0.63774 0.04424 0.0
N1772 N 0.7694 0.64355 0.05961 0.0
C1773 C 0.77662 0.66989 0.05324 0.0
C1774 C 0.76598 0.64799 0.03281 0.0
C1775 C 0.77526 0.65927 0.0643 0.0
C1776 C 0.76425 0.71052 0.04851 0.0
N1777 N 0.77833 0.70994 0.04346 0.0
C1778 C 0.7922 0.72462 0.0676 0.0
C1779 C 0.79221 0.71689 0.05259 0.0
C1780 C 0.77777 0.72512 0.07325 0.0
C1781 C 0.7637 0.71824 0.06329 0.0
H1782 H 0.75336 0.70456 0.04122 0.0
H1783 H 0.80324 0.7159 0.04854 0.0
C1784 C 0.81138 0.6617 -0.00089 0.0
N1785 N 0.80437 0.66509 0.01202 0.0
C1786 C 0.82312 0.65348 6e-05 0.0
C1787 C 0.82019 0.65236 0.02752 0.0
C1788 C 0.80867 0.66074 0.0261 0.0
C1789 C 0.82759 0.6486 0.0144 0.0
H1790 H 0.8078 0.66534 0.98807 0.0
H1791 H 0.80321 0.66384 0.03628 0.0
C1792 C 0.75003 0.70645 0.00882 0.0
N1793 N 0.73201 0.72806 0.01035 0.0
C1794 C 0.73359 0.70137 0.00559 0.0
C1795 C 0.75732 0.72252 0.01283 0.0
C1796 C 0.72468 0.71248 0.00642 0.0
C1797 C 0.74799 0.73326 0.01355 0.0
C1798 C 0.76909 0.65994 0.97856 0.0
C1799 C 0.76295 0.66277 0.96396 0.0
C1800 C 0.77103 0.64499 0.98058 0.0
C1801 C 0.75879 0.65049 0.95155 0.0
C1802 C 0.76671 0.63303 0.96789 0.0
N1803 N 0.76074 0.636 0.95376 0.0
C1804 C 0.79044 0.70725 0.96912 0.0
C1805 C 0.76618 0.71343 0.97286 0.0
C1806 C 0.79151 0.71483 0.95561 0.0
N1807 N 0.77785 0.70659 0.97736 0.0
C1808 C 0.76688 0.72129 0.95959 0.0
C1809 C 0.77956 0.72192 0.95057 0.0
H1810 H 0.7995 0.7016 0.97288 0.0
H1811 H 0.75618 0.71262 0.97942 0.0
C1812 C 0.72996 0.66091 0.01823 0.0
N1813 N 0.73837 0.65872 0.00606 0.0
C1814 C 0.71483 0.65117 0.01852 0.0
C1815 C 0.71734 0.63684 0.99389 0.0
C1816 C 0.73235 0.64699 0.99397 0.0
C1817 C 0.70834 0.63892 0.00624 0.0
H1818 H 0.73502 0.67031 0.0277 0.0
H1819 H 0.73909 0.6455 0.98433 0.0
O1820 O 0.79528 0.69966 0.01113 0.0
O1821 O 0.77322 0.67442 0.02644 0.0
O1822 O 0.75887 0.69569 0.00812 0.0
O1823 O 0.77342 0.67187 0.99074 0.0
H1824 H 0.82274 0.69917 0.02585 0.0
H1825 H 0.79581 0.72908 0.00683 0.0
H1826 H 0.84523 0.72276 0.03406 0.0
H1827 H 0.81869 0.75217 0.01553 0.0
H1828 H 0.76014 0.62518 0.04089 0.0
H1829 H 0.78131 0.6824 0.05696 0.0
H1830 H 0.76232 0.6434 0.02056 0.0
H1831 H 0.77886 0.66352 0.07661 0.0
H1832 H 0.80334 0.72955 0.07491 0.0
H1833 H 0.7523 0.71853 0.06696 0.0
H1834 H 0.82847 0.65076 0.98963 0.0
H1835 H 0.82345 0.64906 0.03886 0.0
H1836 H 0.72778 0.68897 0.00243 0.0
H1837 H 0.77002 0.72662 0.01546 0.0
H1838 H 0.71194 0.70871 0.00394 0.0
H1839 H 0.75346 0.74573 0.01666 0.0
H1840 H 0.76143 0.67431 0.96222 0.0
H1841 H 0.77578 0.64266 0.99184 0.0
H1842 H 0.75403 0.65249 0.94017 0.0
H1843 H 0.76811 0.62137 0.96926 0.0
H1844 H 0.80139 0.71472 0.94898 0.0
H1845 H 0.75748 0.72675 0.95641 0.0
H1846 H 0.70834 0.65309 0.02833 0.0
H1847 H 0.7127 0.62764 0.98412 0.0
Li1848 Li 0.86561 0.50279 0.77789 0.0
Li1849 Li 0.8882 0.51311 0.79738 0.0
Li1850 Li 0.87396 0.53042 0.78418 0.0
Li1851 Li 0.8906 0.5157 0.77016 0.0
C1852 C 0.85629 0.50971 0.80903 0.0
N1853 N 0.837 0.50035 0.83178 0.0
C1854 C 0.8596 0.49891 0.81876 0.0
C1855 C 0.84313 0.51568 0.81081 0.0
C1856 C 0.84975 0.4944 0.83026 0.0
C1857 C 0.83348 0.51075 0.82234 0.0
C1858 C 0.89475 0.48602 0.78101 0.0
C1859 C 0.9206 0.4811 0.78305 0.0
N1860 N 0.91382 0.46548 0.7831 0.0
C1861 C 0.88802 0.46992 0.78103 0.0
C1862 C 0.91116 0.49168 0.78201 0.0
C1863 C 0.89787 0.45973 0.78213 0.0
C1864 C 0.85003 0.4786 0.75665 0.0
N1865 N 0.84807 0.48657 0.77031 0.0
C1866 C 0.82318 0.4688 0.77126 0.0
C1867 C 0.83456 0.48264 0.77716 0.0
C1868 C 0.82613 0.45932 0.75839 0.0
C1869 C 0.83855 0.46534 0.74983 0.0
H1870 H 0.86098 0.48207 0.75157 0.0
H1871 H 0.83315 0.48944 0.7878 0.0
C1872 C 0.90429 0.52621 0.82561 0.0
N1873 N 0.89969 0.51221 0.81618 0.0
C1874 C 0.91393 0.52762 0.83958 0.0
C1875 C 0.91392 0.50014 0.83379 0.0
C1876 C 0.90402 0.49918 0.82005 0.0
C1877 C 0.91891 0.51451 0.84359 0.0
H1878 H 0.90061 0.53631 0.82209 0.0
H1879 H 0.89992 0.48812 0.8125 0.0
C1880 C 0.85803 0.51386 0.75104 0.0
N1881 N 0.83361 0.50207 0.72714 0.0
C1882 C 0.86116 0.50831 0.7362 0.0
C1883 C 0.84252 0.5138 0.75361 0.0
C1884 C 0.84864 0.50232 0.72429 0.0
C1885 C 0.83032 0.50766 0.74141 0.0
C1886 C 0.91026 0.54411 0.78736 0.0
C1887 C 0.90901 0.55836 0.78233 0.0
C1888 C 0.92515 0.54182 0.79163 0.0
C1889 C 0.92276 0.57007 0.78146 0.0
C1890 C 0.93863 0.5538 0.79056 0.0
N1891 N 0.93716 0.56756 0.78555 0.0
C1892 C 0.86231 0.55396 0.79943 0.0
C1893 C 0.86176 0.55212 0.77167 0.0
C1894 C 0.85374 0.56531 0.79939 0.0
N1895 N 0.86597 0.54767 0.78565 0.0
C1896 C 0.85307 0.56318 0.77105 0.0
C1897 C 0.84897 0.56974 0.785 0.0
H1898 H 0.86566 0.54984 0.81029 0.0
H1899 H 0.86486 0.54679 0.76096 0.0
C1900 C 0.90163 0.50037 0.74637 0.0
N1901 N 0.9035 0.51498 0.75421 0.0
C1902 C 0.91012 0.49828 0.73387 0.0
C1903 C 0.92205 0.52642 0.73746 0.0
C1904 C 0.91335 0.52795 0.75 0.0
C1905 C 0.92041 0.51143 0.72926 0.0
H1906 H 0.89322 0.49037 0.7496 0.0
H1907 H 0.91422 0.53948 0.75608 0.0
O1908 O 0.86636 0.51516 0.79843 0.0
O1909 O 0.88519 0.49607 0.77982 0.0
O1910 O 0.87002 0.5189 0.76308 0.0
O1911 O 0.89694 0.53266 0.78853 0.0
H1912 H 0.86973 0.49417 0.81757 0.0
H1913 H 0.84038 0.52402 0.80334 0.0
H1914 H 0.85226 0.48619 0.838 0.0
H1915 H 0.82324 0.51526 0.82382 0.0
H1916 H 0.93332 0.4853 0.78381 0.0
H1917 H 0.87532 0.46537 0.78023 0.0
H1918 H 0.91654 0.50409 0.78195 0.0
H1919 H 0.89283 0.44724 0.78219 0.0
H1920 H 0.81362 0.46442 0.77808 0.0
H1921 H 0.84105 0.4582 0.73986 0.0
H1922 H 0.91771 0.53885 0.84702 0.0
H1923 H 0.91757 0.48984 0.8368 0.0
H1924 H 0.87309 0.50835 0.73398 0.0
H1925 H 0.8399 0.518 0.76506 0.0
H1926 H 0.85087 0.49778 0.71281 0.0
H1927 H 0.81823 0.50723 0.74332 0.0
H1928 H 0.89756 0.56035 0.77909 0.0
H1929 H 0.92629 0.53093 0.79577 0.0
H1930 H 0.92199 0.58116 0.77756 0.0
H1931 H 0.95024 0.55219 0.79377 0.0
H1932 H 0.85079 0.57046 0.8103 0.0
H1933 H 0.8496 0.56663 0.75984 0.0
H1934 H 0.90824 0.4866 0.72754 0.0
H1935 H 0.92983 0.53682 0.7341 0.0
Li1936 Li 0.76274 0.39179 0.51126 0.0
Li1937 Li 0.75347 0.40876 0.49389 0.0
Li1938 Li 0.7634 0.38716 0.48348 0.0
Li1939 Li 0.78021 0.41081 0.49852 0.0
C1940 C 0.73341 0.37249 0.49549 0.0
N1941 N 0.71056 0.3452 0.49748 0.0
C1942 C 0.71789 0.37308 0.49712 0.0
C1943 C 0.73732 0.35803 0.49483 0.0
C1944 C 0.7065 0.35915 0.49813 0.0
C1945 C 0.7256 0.34435 0.49586 0.0
C1946 C 0.77546 0.42589 0.52625 0.0
C1947 C 0.79179 0.45216 0.53517 0.0
N1948 N 0.79394 0.44808 0.54983 0.0
C1949 C 0.77761 0.42208 0.54149 0.0
C1950 C 0.78238 0.44117 0.52313 0.0
C1951 C 0.78707 0.4334 0.55321 0.0
C1952 C 0.77611 0.38135 0.53552 0.0
N1953 N 0.76166 0.38133 0.52852 0.0
C1954 C 0.7487 0.36295 0.54441 0.0
C1955 C 0.74803 0.37279 0.53293 0.0
C1956 C 0.7635 0.36243 0.55138 0.0
C1957 C 0.77732 0.37195 0.5472 0.0
H1958 H 0.78667 0.38842 0.53171 0.0
H1959 H 0.73674 0.37326 0.52728 0.0
C1960 C 0.72544 0.41379 0.48051 0.0
N1961 N 0.73868 0.41971 0.49081 0.0
C1962 C 0.71289 0.42078 0.48115 0.0
C1963 C 0.72859 0.44019 0.50218 0.0
C1964 C 0.74073 0.4329 0.50111 0.0
C1965 C 0.71433 0.43366 0.4926 0.0
H1966 H 0.72429 0.40313 0.4726 0.0
H1967 H 0.75139 0.43717 0.50913 0.0
C1968 C 0.79053 0.37956 0.49897 0.0
N1969 N 0.81087 0.36024 0.49612 0.0
C1970 C 0.80556 0.38535 0.49443 0.0
C1971 C 0.78593 0.36398 0.50219 0.0
C1972 C 0.81565 0.37539 0.49305 0.0
C1973 C 0.79634 0.35439 0.50062 0.0
C1974 C 0.76725 0.41868 0.46713 0.0
C1975 C 0.76665 0.41336 0.45121 0.0
C1976 C 0.76792 0.4345 0.47184 0.0
C1977 C 0.76683 0.424 0.44025 0.0
C1978 C 0.76799 0.44475 0.46051 0.0
N1979 N 0.76749 0.43934 0.44509 0.0
C1980 C 0.74623 0.36542 0.45968 0.0
C1981 C 0.77388 0.36769 0.46209 0.0
C1982 C 0.74377 0.35396 0.44686 0.0
N1983 N 0.76107 0.37186 0.46699 0.0
C1984 C 0.77198 0.35623 0.44939 0.0
C1985 C 0.7568 0.34946 0.44158 0.0
H1986 H 0.73641 0.36949 0.46358 0.0
H1987 H 0.78558 0.37364 0.46761 0.0
C1988 C 0.80908 0.42421 0.51443 0.0
N1989 N 0.79991 0.42381 0.50083 0.0
C1990 C 0.82416 0.4341 0.51708 0.0
C1991 C 0.82014 0.44229 0.49132 0.0
C1992 C 0.8051 0.43233 0.48924 0.0
C1993 C 0.82969 0.44318 0.50538 0.0
H1994 H 0.80459 0.41682 0.52314 0.0
H1995 H 0.79773 0.43125 0.47834 0.0
O1996 O 0.74461 0.38606 0.49443 0.0
O1997 O 0.76606 0.41493 0.51468 0.0
O1998 O 0.78051 0.38919 0.50046 0.0
O1999 O 0.76811 0.4086 0.47802 0.0
H2000 H 0.71469 0.3842 0.49764 0.0
H2001 H 0.74925 0.35736 0.49346 0.0
H2002 H 0.69444 0.35943 0.49942 0.0
H2003 H 0.72845 0.33307 0.49535 0.0
H2004 H 0.79739 0.46394 0.53286 0.0
H2005 H 0.77185 0.4106 0.54435 0.0
H2006 H 0.78072 0.44445 0.51148 0.0
H2007 H 0.78886 0.43055 0.56502 0.0
H2008 H 0.7379 0.35575 0.54771 0.0
H2009 H 0.78887 0.37172 0.55257 0.0
H2010 H 0.70189 0.41557 0.47369 0.0
H2011 H 0.72993 0.45019 0.51106 0.0
H2012 H 0.80936 0.39733 0.4918 0.0
H2013 H 0.77446 0.35933 0.50592 0.0
H2014 H 0.82728 0.3797 0.48948 0.0
H2015 H 0.7929 0.34229 0.50302 0.0
H2016 H 0.76635 0.40119 0.44741 0.0
H2017 H 0.76869 0.43886 0.48413 0.0
H2018 H 0.76655 0.42009 0.4279 0.0
H2019 H 0.76859 0.45703 0.464 0.0
H2020 H 0.73198 0.34911 0.44077 0.0
H2021 H 0.78233 0.3534 0.44513 0.0
H2022 H 0.83155 0.43437 0.52788 0.0
H2023 H 0.82434 0.44909 0.48206 0.0
Li2024 Li 0.6023 0.52211 0.28511 0.0
Li2025 Li 0.62414 0.53939 0.27267 0.0
Li2026 Li 0.60047 0.52049 0.25611 0.0
Li2027 Li 0.62149 0.51031 0.27 0.0
C2028 C 0.59103 0.54818 0.27128 0.0
N2029 N 0.57004 0.56685 0.27026 0.0
C2030 C 0.59644 0.56449 0.27538 0.0
C2031 C 0.57496 0.54133 0.26665 0.0
C2032 C 0.58564 0.57373 0.2748 0.0
C2033 C 0.56453 0.55099 0.2662 0.0
C2034 C 0.63776 0.52911 0.30126 0.0
C2035 C 0.66484 0.53088 0.31071 0.0
N2036 N 0.66218 0.53612 0.32536 0.0
C2037 C 0.63527 0.53448 0.3164 0.0
C2038 C 0.65263 0.52726 0.29836 0.0
C2039 C 0.64778 0.53798 0.32843 0.0
C2040 C 0.5921 0.50897 0.31178 0.0
N2041 N 0.59115 0.52083 0.30315 0.0
C2042 C 0.57612 0.53105 0.32152 0.0
C2043 C 0.58329 0.53173 0.30766 0.0
C2044 C 0.57726 0.51917 0.33089 0.0
C2045 C 0.58526 0.50794 0.32578 0.0
H2046 H 0.59848 0.50051 0.30793 0.0
H2047 H 0.58287 0.54118 0.30074 0.0
C2048 C 0.6375 0.56775 0.26139 0.0
N2049 N 0.63863 0.55975 0.27392 0.0
C2050 C 0.64754 0.58272 0.2613 0.0
C2051 C 0.65991 0.58091 0.28693 0.0
C2052 C 0.6495 0.56603 0.2866 0.0
C2053 C 0.65896 0.58948 0.27419 0.0
H2054 H 0.62874 0.56247 0.25146 0.0
H2055 H 0.65011 0.55961 0.29653 0.0
C2056 C 0.58556 0.49009 0.26593 0.0
N2057 N 0.5602 0.4639 0.25897 0.0
C2058 C 0.58779 0.47574 0.25943 0.0
C2059 C 0.57048 0.49114 0.26899 0.0
C2060 C 0.5748 0.46263 0.25597 0.0
C2061 C 0.55779 0.47775 0.26535 0.0
C2062 C 0.63354 0.52645 0.24263 0.0
C2063 C 0.62813 0.52144 0.22677 0.0
C2064 C 0.64965 0.5331 0.24725 0.0
C2065 C 0.63896 0.52317 0.21575 0.0
C2066 C 0.66011 0.53465 0.23586 0.0
N2067 N 0.65459 0.52968 0.22048 0.0
C2068 C 0.58846 0.53139 0.22983 0.0
C2069 C 0.57813 0.50386 0.22962 0.0
C2070 C 0.58072 0.53069 0.21486 0.0
N2071 N 0.58719 0.51807 0.23682 0.0
C2072 C 0.57001 0.50266 0.21467 0.0
C2073 C 0.57151 0.51618 0.2071 0.0
H2074 H 0.59595 0.54247 0.23572 0.0
H2075 H 0.57758 0.49336 0.23518 0.0
C2076 C 0.63277 0.48533 0.28074 0.0
N2077 N 0.63278 0.49438 0.26888 0.0
C2078 C 0.6409 0.47352 0.28013 0.0
C2079 C 0.64904 0.48076 0.25528 0.0
C2080 C 0.64054 0.49218 0.25621 0.0
C2081 C 0.64926 0.47127 0.26732 0.0
H2082 H 0.62643 0.48728 0.29064 0.0
H2083 H 0.64011 0.49918 0.24675 0.0
O2084 O 0.60149 0.53902 0.27174 0.0
O2085 O 0.62562 0.52555 0.2894 0.0
O2086 O 0.59816 0.50297 0.26949 0.0
O2087 O 0.62312 0.5246 0.25356 0.0
H2088 H 0.60886 0.56994 0.27901 0.0
H2089 H 0.57062 0.52872 0.2634 0.0
H2090 H 0.58965 0.58638 0.27797 0.0
H2091 H 0.55206 0.54589 0.26262 0.0
H2092 H 0.67643 0.52953 0.30866 0.0
H2093 H 0.62381 0.53596 0.31881 0.0
H2094 H 0.65472 0.5231 0.28668 0.0
H2095 H 0.64604 0.54216 0.34021 0.0
H2096 H 0.57022 0.54002 0.32513 0.0
H2097 H 0.58629 0.49852 0.33261 0.0
H2098 H 0.64651 0.58887 0.25117 0.0
H2099 H 0.66842 0.58577 0.29717 0.0
H2100 H 0.59943 0.47476 0.25707 0.0
H2101 H 0.56861 0.50216 0.27412 0.0
H2102 H 0.57634 0.45144 0.25091 0.0
H2103 H 0.54603 0.47837 0.26761 0.0
H2104 H 0.6157 0.51616 0.22303 0.0
H2105 H 0.65402 0.53694 0.2595 0.0
H2106 H 0.63495 0.5193 0.20344 0.0
H2107 H 0.67261 0.53975 0.23925 0.0
H2108 H 0.58218 0.54131 0.20923 0.0
H2109 H 0.56316 0.49126 0.20884 0.0
H2110 H 0.64085 0.46638 0.28964 0.0
H2111 H 0.65518 0.47919 0.24511 0.0
Dy2112 Dy 0.03927 0.03323 0.02204 0.0
Dy2113 Dy 0.0028 0.01825 0.00931 0.0
C2114 C 0.02842 0.02201 0.98576 0.0
O2115 O 0.02934 0.05441 0.0229 0.0
O2116 O 0.00737 0.04366 0.0052 0.0
O2117 O 0.06288 0.04574 0.0187 0.0
O2118 O 0.05796 0.03835 0.04127 0.0
O2119 O 0.00317 0.03035 0.03354 0.0
O2120 O 0.02664 0.02618 0.04253 0.0
O2121 O 0.01088 0.99864 0.01918 0.0
O2122 O 0.03711 0.00716 0.01636 0.0
O2123 O 0.97931 0.00524 0.01248 0.0
O2124 O 0.98425 0.01332 0.99006 0.0
C2125 C 0.01753 0.05602 0.0133 0.0
O2126 O 0.03726 0.03337 0.99607 0.0
O2127 O 0.01624 0.01203 0.98987 0.0
C2128 C 0.08079 0.03448 0.03181 0.0
C2129 C 0.10208 0.01556 0.03194 0.0
C2130 C 0.08893 0.01192 0.0205 0.0
C2131 C 0.07835 0.02127 0.02047 0.0
C2132 C 0.09384 0.03817 0.0433 0.0
C2133 C 0.1045 0.02876 0.04334 0.0
C2134 C 0.06882 0.04331 0.03231 0.0
C2135 C 0.01312 0.02899 0.04521 0.0
C2136 C 0.02487 0.99589 0.01867 0.0
C2137 C 0.96117 0.01644 -0.00063 0.0
C2138 C 0.9402 0.03572 0.9984 0.0
C2139 C 0.9523 0.03846 0.01088 0.0
C2140 C 0.96276 0.02896 0.01131 0.0
C2141 C 0.94912 0.0136 0.9869 0.0
C2142 C 0.93865 0.02319 0.98642 0.0
C2143 C 0.9734 0.00791 -0.00109 0.0
H2144 H 0.08694 0.00198 0.01141 0.0
H2145 H 0.06819 0.01813 0.01161 0.0
H2146 H 0.09566 0.04815 0.0523 0.0
H2147 H 0.11454 0.0317 0.05233 0.0
H2148 H 0.9536 0.04784 0.02042 0.0
H2149 H 0.97225 0.03158 0.02085 0.0
H2150 H 0.94804 0.00423 0.9774 0.0
H2151 H 0.92949 0.02094 0.9766 0.0
Dy2152 Dy 0.28437 0.78165 0.25223 0.0
Dy2153 Dy 0.25879 0.77266 0.27683 0.0
C2154 C 0.28526 0.80389 0.28365 0.0
O2155 O 0.2997 0.77808 0.2727 0.0
O2156 O 0.28025 0.76439 0.286 0.0
O2157 O 0.30026 0.79903 0.24145 0.0
O2158 O 0.29824 0.77417 0.23506 0.0
O2159 O 0.25112 0.75768 0.25403 0.0
O2160 O 0.27555 0.75583 0.2509 0.0
O2161 O 0.24857 0.78762 0.26125 0.0
O2162 O 0.26105 0.78298 0.23963 0.0
O2163 O 0.24237 0.7531 0.28412 0.0
O2164 O 0.24382 0.7771 0.29441 0.0
C2165 C 0.29536 0.76963 0.28397 0.0
O2166 O 0.28553 0.80292 0.26844 0.0
O2167 O 0.27632 0.79301 0.2903 0.0
C2168 C 0.29913 0.78982 0.21474 0.0
C2169 C 0.28509 0.78947 0.18437 0.0
C2170 C 0.287 0.8027 0.19553 0.0
C2171 C 0.29403 0.80292 0.21061 0.0
C2172 C 0.29802 0.77697 0.20328 0.0
C2173 C 0.29098 0.77678 0.18817 0.0
C2174 C 0.30306 0.78836 0.23126 0.0
C2175 C 0.26038 0.7496 0.24865 0.0
C2176 C 0.2492 0.78703 0.24595 0.0
C2177 C 0.24341 0.758 0.31143 0.0
C2178 C 0.25549 0.75395 0.34138 0.0
C2179 C 0.25976 0.74629 0.32809 0.0
C2180 C 0.25383 0.74831 0.31324 0.0
C2181 C 0.23892 0.7655 0.32475 0.0
C2182 C 0.24499 0.76353 0.3397 0.0
C2183 C 0.23931 0.76208 0.29584 0.0
H2184 H 0.28301 0.81287 0.19261 0.0
H2185 H 0.29486 0.81308 0.21914 0.0
H2186 H 0.30192 0.76677 0.20619 0.0
H2187 H 0.28978 0.76658 0.17957 0.0
H2188 H 0.26795 0.73895 0.32919 0.0
H2189 H 0.25783 0.74262 0.30322 0.0
H2190 H 0.23112 0.7732 0.32357 0.0
H2191 H 0.24149 0.76941 0.34991 0.0
Dy2192 Dy 0.49896 0.02467 0.51983 0.0
Dy2193 Dy 0.54262 0.027 0.51386 0.0
C2194 C 0.51938 0.02293 0.48762 0.0
O2195 O 0.50221 0.99971 0.51565 0.0
O2196 O 0.52927 0.00156 0.51216 0.0
O2197 O 0.48067 0.03011 0.50474 0.0
O2198 O 0.47481 0.01827 0.52521 0.0
O2199 O 0.52532 0.02677 0.53044 0.0
O2200 O 0.50753 0.02765 0.54553 0.0
O2201 O 0.53945 0.05183 0.51784 0.0
O2202 O 0.51259 0.05013 0.52195 0.0
O2203 O 0.56143 0.02334 0.52971 0.0
O2204 O 0.56652 0.03286 0.50787 0.0
C2205 C 0.51451 0.9936 0.51333 0.0
O2206 O 0.51471 0.02372 0.50151 0.0
O2207 O 0.53441 0.02395 0.48825 0.0
C2208 C 0.45962 0.03586 0.51738 0.0
C2209 C 0.43975 0.05617 0.52308 0.0
C2210 C 0.43909 0.04796 0.50809 0.0
C2211 C 0.44891 0.03796 0.50528 0.0
C2212 C 0.46054 0.04421 0.53239 0.0
C2213 C 0.4507 0.05434 0.5352 0.0
C2214 C 0.46979 0.02517 0.51377 0.0
C2215 C 0.52222 0.02777 0.54483 0.0
C2216 C 0.5273 0.05798 0.5205 0.0
C2217 C 0.58116 0.01511 0.51601 0.0
C2218 C 0.59993 0.99385 0.50915 0.0
C2219 C 0.58919 0.99115 0.52038 0.0
C2220 C 0.57994 0.00166 0.5238 0.0
C2221 C 0.59164 0.01761 0.50456 0.0
C2222 C 0.60087 0.00711 0.50115 0.0
C2223 C 0.57179 0.02667 0.51974 0.0
H2224 H 0.431 0.04937 0.49845 0.0
H2225 H 0.44815 0.03183 0.49359 0.0
H2226 H 0.46881 0.04291 0.54192 0.0
H2227 H 0.45147 0.06053 0.54686 0.0
H2228 H 0.5883 0.98116 0.5269 0.0
H2229 H 0.572 0.99934 0.53269 0.0
H2230 H 0.59282 0.02781 0.49831 0.0
H2231 H 0.60885 0.00945 0.49229 0.0
Dy2232 Dy 0.28886 0.27032 0.76552 0.0
Dy2233 Dy 0.25401 0.28092 0.76658 0.0
C2234 C 0.28646 0.30611 0.76299 0.0
O2235 O 0.28376 0.27092 0.79064 0.0
O2236 O 0.26835 0.28862 0.78984 0.0
O2237 O 0.31413 0.27362 0.77155 0.0
O2238 O 0.3007 0.25368 0.75515 0.0
O2239 O 0.2508 0.25753 0.77525 0.0
O2240 O 0.26904 0.2483 0.76227 0.0
O2241 O 0.25527 0.27193 0.74142 0.0
O2242 O 0.28234 0.27687 0.74224 0.0
O2243 O 0.2284 0.27459 0.76234 0.0
O2244 O 0.24085 0.29777 0.77387 0.0
C2245 C 0.27697 0.28107 0.79766 0.0
O2246 O 0.29476 0.29668 0.76817 0.0
O2247 O 0.271 0.30158 0.75922 0.0
C2248 C 0.32771 0.26335 0.75156 0.0
C2249 C 0.35214 0.2652 0.7315 0.0
C2250 C 0.34191 0.2753 0.73084 0.0
C2251 C 0.32984 0.27438 0.74074 0.0
C2252 C 0.33779 0.25326 0.75219 0.0
C2253 C 0.3498 0.25416 0.74234 0.0
C2254 C 0.31471 0.2615 0.76177 0.0
C2255 C 0.25615 0.24584 0.76932 0.0
C2256 C 0.26825 0.2739 0.73442 0.0
C2257 C 0.21489 0.28719 0.78063 0.0
C2258 C 0.19065 0.28606 0.80089 0.0
C2259 C 0.20059 0.27568 0.80151 0.0
C2260 C 0.21254 0.27623 0.79151 0.0
C2261 C 0.20513 0.29761 0.78007 0.0
C2262 C 0.1932 0.29705 0.78999 0.0
C2263 C 0.22709 0.28788 0.76954 0.0
H2264 H 0.34332 0.28406 0.72279 0.0
H2265 H 0.32215 0.28223 0.7399 0.0
H2266 H 0.33628 0.2445 0.76025 0.0
H2267 H 0.35711 0.24595 0.74308 0.0
H2268 H 0.19927 0.26718 0.80982 0.0
H2269 H 0.21992 0.26808 0.79227 0.0
H2270 H 0.20662 0.30614 0.77177 0.0
H2271 H 0.18576 0.30509 0.78885 0.0
Dy2272 Dy 0.02651 0.00919 0.51506 0.0
Dy2273 Dy 0.01587 0.04368 0.51742 0.0
C2274 C 0.99144 0.01065 0.52041 0.0
O2275 O 0.01591 0.01069 0.49075 0.0
O2276 O 0.01958 0.03766 0.49274 0.0
O2277 O 0.0208 0.98382 0.50922 0.0
O2278 O 0.04405 0.99639 0.52057 0.0
O2279 O 0.04232 0.04892 0.52058 0.0
O2280 O 0.04589 0.02676 0.50643 0.0
O2281 O 0.01662 0.03728 0.54193 0.0
O2282 O 0.03441 0.02218 0.53909 0.0
O2283 O 0.02109 0.06905 0.52376 0.0
O2284 O 0.99857 0.05643 0.51099 0.0
C2285 C 0.016 0.0237 0.48444 0.0
O2286 O 0.00336 0.00495 0.52479 0.0
O2287 O 0.99361 0.02408 0.51448 0.0
C2288 C 0.03382 0.9703 0.52663 0.0
C2289 C 0.03303 0.94581 0.54594 0.0
C2290 C 0.02108 0.95397 0.54548 0.0
C2291 C 0.02146 0.96606 0.53595 0.0
C2292 C 0.04586 0.9624 0.52726 0.0
C2293 C 0.04549 0.95034 0.53677 0.0
C2294 C 0.03428 0.98261 0.51595 0.0
C2295 C 0.05118 0.04155 0.51279 0.0
C2296 C 0.02684 0.03014 0.54793 0.0
C2297 C 0.00881 0.08271 0.50567 0.0
C2298 C 0.00964 0.10701 0.48604 0.0
C2299 C 0.02245 0.10009 0.48806 0.0
C2300 C 0.02204 0.08808 0.49773 0.0
C2301 C 0.99597 0.0894 0.5035 0.0
C2302 C 0.99634 0.10132 0.49384 0.0
C2303 C 0.00797 0.07021 0.51623 0.0
H2304 H 0.0112 0.95079 0.55222 0.0
H2305 H 0.01202 0.97197 0.53575 0.0
H2306 H 0.05557 0.96549 0.52028 0.0
H2307 H 0.05508 0.94463 0.53698 0.0
H2308 H 0.03297 0.10415 0.48241 0.0
H2309 H 0.0321 0.08309 0.49907 0.0
H2310 H 0.98556 0.08539 0.50935 0.0
H2311 H 0.98609 0.106 0.4924 0.0
Dy2312 Dy 0.27385 0.79797 0.76568 0.0
Dy2313 Dy 0.26869 0.75352 0.76735 0.0
C2314 C 0.26739 0.77411 0.793 0.0
O2315 O 0.29781 0.79393 0.77327 0.0
O2316 O 0.29407 0.76654 0.77539 0.0
O2317 O 0.26792 0.8145 0.78294 0.0
O2318 O 0.28037 0.82274 0.76336 0.0
O2319 O 0.2722 0.77239 0.7523 0.0
O2320 O 0.27776 0.79297 0.74058 0.0
O2321 O 0.2445 0.75762 0.76036 0.0
O2322 O 0.2483 0.78509 0.75839 0.0
O2323 O 0.27585 0.73704 0.75119 0.0
O2324 O 0.26156 0.72862 0.76949 0.0
C2325 C 0.30294 0.78132 0.77634 0.0
O2326 O 0.26977 0.77847 0.77949 0.0
O2327 O 0.26628 0.75917 0.79292 0.0
C2328 C 0.26116 0.83585 0.7716 0.0
C2329 C 0.24051 0.85539 0.76626 0.0
C2330 C 0.24283 0.85035 0.78104 0.0
C2331 C 0.253 0.84068 0.78366 0.0
C2332 C 0.25852 0.84051 0.75666 0.0
C2333 C 0.24826 0.85012 0.75402 0.0
C2334 C 0.27253 0.82627 0.77487 0.0
C2335 C 0.27622 0.77787 0.73953 0.0
C2336 C 0.23936 0.77037 0.75783 0.0
C2337 C 0.28096 0.71504 0.76239 0.0
C2338 C 0.30076 0.69478 0.76817 0.0
C2339 C 0.30057 0.70161 0.75414 0.0
C2340 C 0.29078 0.71156 0.75128 0.0
C2341 C 0.28144 0.70857 0.77665 0.0
C2342 C 0.29131 0.69859 0.77953 0.0
C2343 C 0.27016 0.7251 0.75867 0.0
H2344 H 0.23682 0.85396 0.79065 0.0
H2345 H 0.25459 0.83708 0.79519 0.0
H2346 H 0.26452 0.83692 0.74704 0.0
H2347 H 0.24678 0.85383 0.74251 0.0
H2348 H 0.30792 0.69911 0.74527 0.0
H2349 H 0.29075 0.7164 0.74023 0.0
H2350 H 0.27405 0.71101 0.7855 0.0
H2351 H 0.29117 0.69346 0.79042 0.0
Dy2352 Dy 0.51944 0.03642 0.00045 0.0
Dy2353 Dy 0.52343 0.01786 0.03084 0.0
C2354 C 0.52496 0.0014 0.9969 0.0
O2355 O 0.49632 0.03105 0.00927 0.0
O2356 O 0.49927 0.00848 0.01843 0.0
O2357 O 0.50888 0.03781 0.97726 0.0
O2358 O 0.52581 0.05815 0.99051 0.0
O2359 O 0.51437 0.03853 0.03952 0.0
O2360 O 0.52502 0.05436 0.02184 0.0
O2361 O 0.54717 0.03265 0.02846 0.0
O2362 O 0.54376 0.034 0.00205 0.0
O2363 O 0.53239 0.01748 0.05484 0.0
O2364 O 0.51805 0.99603 0.04093 0.0
C2365 C 0.49037 0.01719 0.01327 0.0
O2366 O 0.51694 0.01081 0.99113 0.0
O2367 O 0.53153 0.0041 0.01151 0.0
C2368 C 0.52765 0.05365 0.96399 0.0
C2369 C 0.54873 0.05864 0.94137 0.0
C2370 C 0.54756 0.04569 0.94982 0.0
C2371 C 0.53713 0.04325 0.96109 0.0
C2372 C 0.52883 0.06665 0.95572 0.0
C2373 C 0.53931 0.06913 0.94442 0.0
C2374 C 0.518 0.05189 0.9769 0.0
C2375 C 0.51884 0.05261 0.03505 0.0
C2376 C 0.55282 0.03483 0.01508 0.0
C2377 C 0.51363 0.0002 0.06711 0.0
C2378 C 0.49152 0.99424 0.08884 0.0
C2379 C 0.49668 0.00944 0.0845 0.0
C2380 C 0.50753 0.01237 0.07365 0.0
C2381 C 0.50852 0.98502 0.07135 0.0
C2382 C 0.49751 0.98203 0.08211 0.0
C2383 C 0.52424 0.00295 0.05492 0.0
H2384 H 0.5545 0.03729 0.94755 0.0
H2385 H 0.53656 0.03332 0.96765 0.0
H2386 H 0.52185 0.07498 0.95817 0.0
H2387 H 0.54012 0.07929 0.93816 0.0
H2388 H 0.49256 0.01919 0.08967 0.0
H2389 H 0.51109 0.02414 0.07036 0.0
H2390 H 0.5129 0.97544 0.06618 0.0
H2391 H 0.49363 0.97016 0.08509 0.0
Dy2392 Dy 0.26348 0.25784 0.26006 0.0
Dy2393 Dy 0.27838 0.29514 0.27221 0.0
C2394 C 0.27537 0.27024 0.29584 0.0
O2395 O 0.24173 0.26683 0.26033 0.0
O2396 O 0.25287 0.28988 0.27666 0.0
O2397 O 0.25226 0.23433 0.26466 0.0
O2398 O 0.25915 0.23826 0.24165 0.0
O2399 O 0.26752 0.29501 0.24777 0.0
O2400 O 0.26574 0.2693 0.23823 0.0
O2401 O 0.29804 0.28736 0.26169 0.0
O2402 O 0.28983 0.26113 0.2643 0.0
O2403 O 0.29177 0.31861 0.26972 0.0
O2404 O 0.28154 0.31395 0.29123 0.0
C2405 C 0.24035 0.27911 0.26961 0.0
O2406 O 0.26348 0.26154 0.28605 0.0
O2407 O 0.28554 0.28187 0.29114 0.0
C2408 C 0.26331 0.21565 0.25134 0.0
C2409 C 0.28089 0.19296 0.25101 0.0
C2410 C 0.28231 0.20393 0.26441 0.0
C2411 C 0.27368 0.21524 0.26454 0.0
C2412 C 0.26208 0.20492 0.23786 0.0
C2413 C 0.27083 0.19369 0.23767 0.0
C2414 C 0.25463 0.22789 0.25111 0.0
C2415 C 0.26555 0.28373 0.23604 0.0
C2416 C 0.30085 0.27341 0.26169 0.0
C2417 C 0.27994 0.33722 0.28141 0.0
C2418 C 0.26374 0.36075 0.2788 0.0
C2419 C 0.25879 0.34644 0.26879 0.0
C2420 C 0.26678 0.33475 0.27012 0.0
C2421 C 0.28476 0.35132 0.29164 0.0
C2422 C 0.27668 0.36304 0.29037 0.0
C2423 C 0.28802 0.32469 0.28282 0.0
H2424 H 0.28977 0.20356 0.27496 0.0
H2425 H 0.2751 0.22362 0.27499 0.0
H2426 H 0.2544 0.2053 0.22745 0.0
H2427 H 0.26969 0.18556 0.22709 0.0
H2428 H 0.2487 0.34428 0.25994 0.0
H2429 H 0.2627 0.32376 0.26234 0.0
H2430 H 0.29476 0.35328 0.30055 0.0
H2431 H 0.28077 0.37401 0.29818 0.0
Dy2432 Dy 0.5265 0.50894 0.01545 0.0
Dy2433 Dy 0.51521 0.5428 0.01597 0.0
C2434 C 0.49143 0.50999 0.01987 0.0
O2435 O 0.51563 0.50984 0.9911 0.0
O2436 O 0.52115 0.53678 0.99198 0.0
O2437 O 0.52072 0.48353 0.01 0.0
O2438 O 0.54391 0.49614 0.02143 0.0
O2439 O 0.5416 0.54936 0.01837 0.0
O2440 O 0.54666 0.52632 0.00754 0.0
O2441 O 0.51615 0.53736 0.04092 0.0
O2442 O 0.53434 0.52263 0.03908 0.0
O2443 O 0.51814 0.56778 0.02305 0.0
O2444 O 0.49788 0.55441 0.00702 0.0
C2445 C 0.51739 0.52263 0.98411 0.0
O2446 O 0.5035 0.50514 0.02552 0.0
O2447 O 0.49355 0.52254 0.01252 0.0
C2448 C 0.5336 0.47017 0.02776 0.0
C2449 C 0.53293 0.44569 0.04706 0.0
C2450 C 0.51956 0.45159 0.0441 0.0
C2451 C 0.5199 0.46368 0.0346 0.0
C2452 C 0.547 0.4645 0.0309 0.0
C2453 C 0.5467 0.45248 0.04042 0.0
C2454 C 0.53411 0.48236 0.01694 0.0
C2455 C 0.55113 0.54164 0.01219 0.0
C2456 C 0.52662 0.53079 0.04746 0.0
C2457 C 0.50735 0.58143 0.0038 0.0
C2458 C 0.50924 0.60664 0.98531 0.0
C2459 C 0.52303 0.60289 0.99158 0.0
C2460 C 0.5221 0.5904 0.00067 0.0
C2461 C 0.49362 0.58512 0.99749 0.0
C2462 C 0.49453 0.5975 0.98833 0.0
C2463 C 0.50582 0.56836 0.01371 0.0
H2464 H 0.50867 0.44663 0.04881 0.0
H2465 H 0.50936 0.4678 0.03245 0.0
H2466 H 0.55774 0.46931 0.02584 0.0
H2467 H 0.55734 0.44856 0.04261 0.0
H2468 H 0.53455 0.60955 0.98935 0.0
H2469 H 0.53292 0.5878 0.00525 0.0
H2470 H 0.4821 0.57846 -0.00024 0.0
H2471 H 0.48368 0.60011 0.98387 0.0
Dy2472 Dy 0.77288 0.29887 0.26337 0.0
Dy2473 Dy 0.77003 0.25545 0.26449 0.0
C2474 C 0.76811 0.27774 0.29126 0.0
O2475 O 0.79708 0.29569 0.27155 0.0
O2476 O 0.79477 0.26864 0.27373 0.0
O2477 O 0.76897 0.31803 0.27913 0.0
O2478 O 0.77726 0.32221 0.25664 0.0
O2479 O 0.77336 0.27489 0.25117 0.0
O2480 O 0.77646 0.2942 0.23814 0.0
O2481 O 0.74533 0.25771 0.25702 0.0
O2482 O 0.74771 0.28487 0.25443 0.0
O2483 O 0.77935 0.23971 0.24954 0.0
O2484 O 0.7633 0.23053 0.26642 0.0
C2485 C 0.80285 0.28362 0.27495 0.0
O2486 O 0.76113 0.28228 0.27921 0.0
O2487 O 0.77082 0.26377 0.28945 0.0
C2488 C 0.75985 0.33703 0.26551 0.0
C2489 C 0.73925 0.35634 0.25981 0.0
C2490 C 0.74217 0.35235 0.27491 0.0
C2491 C 0.75242 0.3428 0.27776 0.0
C2492 C 0.75656 0.34082 0.2503 0.0
C2493 C 0.74637 0.35041 0.24749 0.0
C2494 C 0.77161 0.3279 0.26877 0.0
C2495 C 0.77547 0.27939 0.23765 0.0
C2496 C 0.73952 0.2698 0.25356 0.0
C2497 C 0.78322 0.2171 0.26045 0.0
C2498 C 0.80255 0.19659 0.26711 0.0
C2499 C 0.80264 0.20309 0.25288 0.0
C2500 C 0.79307 0.21315 0.24958 0.0
C2501 C 0.78315 0.21071 0.27475 0.0
C2502 C 0.7927 0.20054 0.27802 0.0
C2503 C 0.77286 0.22744 0.25631 0.0
H2504 H 0.73677 0.3569 0.28456 0.0
H2505 H 0.75478 0.34017 0.2896 0.0
H2506 H 0.76208 0.33664 0.24056 0.0
H2507 H 0.74425 0.35342 0.23577 0.0
H2508 H 0.80988 0.20013 0.2441 0.0
H2509 H 0.79325 0.21775 0.2384 0.0
H2510 H 0.77569 0.21348 0.28339 0.0
H2511 H 0.79244 0.19585 0.28915 0.0
Dy2512 Dy 0.01971 0.53622 0.50032 0.0
Dy2513 Dy 0.02264 0.5171 0.53084 0.0
C2514 C 0.02287 0.50097 0.4959 0.0
O2515 O 0.99618 0.521 0.50216 0.0
O2516 O 0.9991 0.52156 0.52878 0.0
O2517 O 0.01119 0.5369 0.47627 0.0
O2518 O 0.02466 0.55834 0.49082 0.0
O2519 O 0.02572 0.54239 0.54116 0.0
O2520 O 0.01398 0.55133 0.52023 0.0
O2521 O 0.04592 0.52097 0.52231 0.0
O2522 O 0.04473 0.54263 0.5101 0.0
O2523 O 0.03268 0.514 0.5537 0.0
O2524 O 0.01383 0.4954 0.54019 0.0
C2525 C 0.99025 0.51961 0.51545 0.0
O2526 O 0.02765 0.51495 0.49131 0.0
O2527 O 0.01664 0.49945 0.50914 0.0
C2528 C 0.03011 0.55469 0.4651 0.0
C2529 C 0.05201 0.56067 0.44337 0.0
C2530 C 0.05146 0.54811 0.45227 0.0
C2531 C 0.04063 0.5452 0.46311 0.0
C2532 C 0.03094 0.56755 0.45669 0.0
C2533 C 0.04185 0.57054 0.44586 0.0
C2534 C 0.01897 0.55162 0.47665 0.0
C2535 C 0.0196 0.55301 0.53509 0.0
C2536 C 0.0525 0.53307 0.51554 0.0
C2537 C 0.01308 0.49894 0.56707 0.0
C2538 C 0.99197 0.49496 0.58983 0.0
C2539 C 0.9992 0.51014 0.58641 0.0
C2540 C 0.00955 0.51211 0.57501 0.0
C2541 C 0.00609 0.48381 0.57058 0.0
C2542 C 0.99556 0.48182 0.58184 0.0
C2543 C 0.02227 0.50055 0.55374 0.0
H2544 H 0.05897 0.54018 0.45046 0.0
H2545 H 0.04033 0.5354 0.4698 0.0
H2546 H 0.02311 0.57518 0.45844 0.0
H2547 H 0.04221 0.58042 0.43928 0.0
H2548 H 0.99692 0.52054 0.59257 0.0
H2549 H 0.01458 0.52388 0.57224 0.0
H2550 H 0.00843 0.47351 0.56428 0.0
H2551 H 0.99004 0.46997 0.58407 0.0
Dy2552 Dy 0.78925 0.77062 0.26551 0.0
Dy2553 Dy 0.75412 0.78107 0.26677 0.0
C2554 C 0.78667 0.80627 0.26378 0.0
O2555 O 0.78395 0.77014 0.29054 0.0
O2556 O 0.76772 0.78713 0.2904 0.0
O2557 O 0.81464 0.77457 0.27123 0.0
O2558 O 0.80144 0.75418 0.25524 0.0
O2559 O 0.75049 0.75722 0.27439 0.0
O2560 O 0.76968 0.74837 0.26248 0.0
O2561 O 0.75508 0.77204 0.24161 0.0
O2562 O 0.78215 0.77687 0.24213 0.0
O2563 O 0.72852 0.77535 0.2626 0.0
O2564 O 0.74146 0.79816 0.27472 0.0
C2565 C 0.77595 0.77898 0.2978 0.0
O2566 O 0.79475 0.79692 0.26947 0.0
O2567 O 0.77131 0.80159 0.25939 0.0
C2568 C 0.82846 0.76413 0.25137 0.0
C2569 C 0.85356 0.76623 0.23214 0.0
C2570 C 0.8484 0.77968 0.23713 0.0
C2571 C 0.83595 0.77863 0.24657 0.0
C2572 C 0.8337 0.75077 0.24647 0.0
C2573 C 0.84604 0.75179 0.23701 0.0
C2574 C 0.8154 0.76241 0.26161 0.0
C2575 C 0.75638 0.74574 0.26889 0.0
C2576 C 0.76795 0.77384 0.23446 0.0
C2577 C 0.71567 0.78751 0.28214 0.0
C2578 C 0.69146 0.78635 0.30239 0.0
C2579 C 0.69486 0.77243 0.29582 0.0
C2580 C 0.70686 0.77299 0.28592 0.0
C2581 C 0.71238 0.80141 0.28888 0.0
C2582 C 0.70055 0.80086 0.29895 0.0
C2583 C 0.72756 0.78843 0.27058 0.0
H2584 H 0.85387 0.79097 0.23354 0.0
H2585 H 0.83218 0.78915 0.25008 0.0
H2586 H 0.82822 0.73945 0.25001 0.0
H2587 H 0.84976 0.74124 0.23351 0.0
H2588 H 0.6882 0.76107 0.29834 0.0
H2589 H 0.70905 0.76202 0.28105 0.0
H2590 H 0.71881 0.81277 0.28612 0.0
H2591 H 0.69817 0.81179 0.30369 0.0
Dy2592 Dy 0.78316 0.27535 0.74962 0.0
Dy2593 Dy 0.76086 0.27151 0.77759 0.0
C2594 C 0.77989 0.30494 0.7728 0.0
O2595 O 0.79866 0.27114 0.77036 0.0
O2596 O 0.78475 0.27495 0.79132 0.0
O2597 O 0.80331 0.28824 0.73966 0.0
O2598 O 0.79094 0.26443 0.72934 0.0
O2599 O 0.77098 0.25173 0.77128 0.0
O2600 O 0.76581 0.25209 0.7459 0.0
O2601 O 0.74506 0.27441 0.75659 0.0
O2602 O 0.76146 0.2803 0.73749 0.0
O2603 O 0.74278 0.25358 0.7853 0.0
O2604 O 0.74868 0.27777 0.79681 0.0
C2605 C 0.79776 0.27316 0.78561 0.0
O2606 O 0.78264 0.29947 0.75893 0.0
O2607 O 0.77276 0.29637 0.7827 0.0
C2608 C 0.79666 0.28333 0.71263 0.0
C2609 C 0.78366 0.28975 0.68416 0.0
C2610 C 0.77983 0.29634 0.69828 0.0
C2611 C 0.78637 0.29323 0.71241 0.0
C2612 C 0.80071 0.27688 0.69859 0.0
C2613 C 0.79428 0.28016 0.68436 0.0
C2614 C 0.80058 0.27769 0.7273 0.0
C2615 C 0.76579 0.24402 0.7576 0.0
C2616 C 0.74745 0.27837 0.7425 0.0
C2617 C 0.74363 0.25789 0.81261 0.0
C2618 C 0.75279 0.25303 0.84304 0.0
C2619 C 0.75907 0.24648 0.83038 0.0
C2620 C 0.75456 0.24896 0.81523 0.0
C2621 C 0.73694 0.26399 0.82518 0.0
C2622 C 0.74155 0.26161 0.84038 0.0
C2623 C 0.74128 0.26311 0.79737 0.0
H2624 H 0.7716 0.30369 0.6984 0.0
H2625 H 0.78293 0.29816 0.72317 0.0
H2626 H 0.80843 0.26902 0.69864 0.0
H2627 H 0.79762 0.27523 0.67355 0.0
H2628 H 0.7679 0.23997 0.83225 0.0
H2629 H 0.76014 0.24447 0.80568 0.0
H2630 H 0.7287 0.27114 0.82328 0.0
H2631 H 0.73652 0.26663 0.85006 0.0
Dy2632 Dy 0.76369 0.75742 0.75968 0.0
Dy2633 Dy 0.77896 0.7943 0.77236 0.0
C2634 C 0.77665 0.76938 0.79564 0.0
O2635 O 0.74269 0.76769 0.75945 0.0
O2636 O 0.75406 0.78816 0.77864 0.0
O2637 O 0.75276 0.73409 0.76483 0.0
O2638 O 0.75674 0.73789 0.74101 0.0
O2639 O 0.76696 0.79354 0.74811 0.0
O2640 O 0.76899 0.76919 0.73849 0.0
O2641 O 0.79944 0.78667 0.7634 0.0
O2642 O 0.78988 0.75972 0.76193 0.0
O2643 O 0.79158 0.81786 0.76927 0.0
O2644 O 0.78225 0.81322 0.79127 0.0
C2645 C 0.7414 0.7787 0.77035 0.0
O2646 O 0.76468 0.76077 0.78586 0.0
O2647 O 0.78667 0.78119 0.79106 0.0
C2648 C 0.76191 0.71528 0.74985 0.0
C2649 C 0.77833 0.6917 0.74856 0.0
C2650 C 0.78397 0.70545 0.75931 0.0
C2651 C 0.77588 0.71717 0.7599 0.0
C2652 C 0.7565 0.70186 0.73875 0.0
C2653 C 0.76467 0.69013 0.73808 0.0
C2654 C 0.75333 0.72755 0.75073 0.0
C2655 C 0.76704 0.78305 0.73619 0.0
C2656 C 0.80143 0.77233 0.76134 0.0
C2657 C 0.77966 0.83643 0.78162 0.0
C2658 C 0.76194 0.85898 0.7805 0.0
C2659 C 0.76412 0.85034 0.76662 0.0
C2660 C 0.77279 0.83911 0.76717 0.0
C2661 C 0.77746 0.84496 0.7955 0.0
C2662 C 0.7686 0.85607 0.79496 0.0
C2663 C 0.78798 0.82392 0.78248 0.0
H2664 H 0.79433 0.70694 0.76768 0.0
H2665 H 0.78038 0.7276 0.76841 0.0
H2666 H 0.74591 0.7004 0.73072 0.0
H2667 H 0.76021 0.67976 0.72951 0.0
H2668 H 0.75939 0.85244 0.75525 0.0
H2669 H 0.77405 0.83252 0.75627 0.0
H2670 H 0.78241 0.84286 0.80679 0.0
H2671 H 0.76692 0.86233 0.80588 0.0
Dy2672 Dy 0.53949 0.53351 0.52299 0.0
Dy2673 Dy 0.5035 0.5187 0.50866 0.0
C2674 C 0.53028 0.52105 0.48639 0.0
O2675 O 0.52895 0.55431 0.52376 0.0
O2676 O 0.50978 0.54379 0.50332 0.0
O2677 O 0.56286 0.54838 0.52224 0.0
O2678 O 0.55742 0.53643 0.54254 0.0
O2679 O 0.50255 0.53031 0.53285 0.0
O2680 O 0.52587 0.52648 0.54275 0.0
O2681 O 0.51108 0.49878 0.51844 0.0
O2682 O 0.53764 0.50751 0.51732 0.0
O2683 O 0.48011 0.5043 0.50999 0.0
O2684 O 0.48535 0.51578 0.4893 0.0
C2685 C 0.51873 0.55611 0.51253 0.0
O2686 O 0.53961 0.53195 0.49689 0.0
O2687 O 0.51726 0.51192 0.48993 0.0
C2688 C 0.58081 0.53558 0.53282 0.0
C2689 C 0.60175 0.51648 0.53027 0.0
C2690 C 0.58879 0.51422 0.51883 0.0
C2691 C 0.57842 0.5237 0.52008 0.0
C2692 C 0.59362 0.53782 0.5444 0.0
C2693 C 0.60412 0.52829 0.54311 0.0
C2694 C 0.56851 0.54374 0.53489 0.0
C2695 C 0.51221 0.5292 0.54491 0.0
C2696 C 0.52515 0.49611 0.5187 0.0
C2697 C 0.4615 0.51605 0.49865 0.0
C2698 C 0.43868 0.533 0.50091 0.0
C2699 C 0.45006 0.53415 0.51368 0.0
C2700 C 0.46146 0.5258 0.51254 0.0
C2701 C 0.45027 0.51505 0.48576 0.0
C2702 C 0.43889 0.52357 0.48686 0.0
C2703 C 0.47437 0.50851 0.49712 0.0
H2704 H 0.58658 0.50499 0.50898 0.0
H2705 H 0.5683 0.52151 0.51127 0.0
H2706 H 0.59532 0.54669 0.55449 0.0
H2707 H 0.61411 0.53021 0.55203 0.0
H2708 H 0.45022 0.54163 0.5245 0.0
H2709 H 0.47035 0.52715 0.52245 0.0
H2710 H 0.45047 0.50788 0.47485 0.0
H2711 H 0.43019 0.52268 0.47689 0.0
Dy2712 Dy 1.00091 0.52375 0.02084 0.0
Dy2713 Dy 0.04198 0.52857 0.01259 0.0
C2714 C 0.01436 0.52788 0.98808 0.0
O2715 O 0.00444 0.49937 0.0139 0.0
O2716 O 0.03126 0.50277 0.01047 0.0
O2717 O 0.9775 0.52062 0.00849 0.0
O2718 O 0.98118 0.52435 0.03387 0.0
O2719 O 0.03092 0.52458 0.03351 0.0
O2720 O 0.00939 0.52112 0.04509 0.0
O2721 O 0.03864 0.55309 0.0166 0.0
O2722 O 0.01443 0.54923 0.02732 0.0
O2723 O 0.06433 0.53002 0.02617 0.0
O2724 O 0.06306 0.5303 0.00096 0.0
C2725 C 0.0169 0.49387 0.01112 0.0
O2726 O 0.00932 0.53482 4e-05 0.0
O2727 O 0.0278 0.52397 0.98957 0.0
C2728 C 0.96163 0.5351 0.02211 0.0
C2729 C 0.94271 0.55697 0.02446 0.0
C2730 C 0.95069 0.55514 0.01117 0.0
C2731 C 0.96005 0.54434 0.01001 0.0
C2732 C 0.95375 0.53699 0.03538 0.0
C2733 C 0.9445 0.5478 0.03659 0.0
C2734 C 0.97137 0.5235 0.0214 0.0
C2735 C 0.02434 0.5222 0.04607 0.0
C2736 C 0.0275 0.55836 0.02321 0.0
C2737 C 0.08112 0.51701 0.01245 0.0
C2738 C 0.10028 0.49525 0.00994 0.0
C2739 C 0.09535 0.49974 0.02445 0.0
C2740 C 0.08593 0.51047 0.02569 0.0
C2741 C 0.08597 0.51246 0.99797 0.0
C2742 C 0.09531 0.5017 0.99671 0.0
C2743 C 0.07163 0.52892 0.01369 0.0
H2744 H 0.94947 0.56182 0.00149 0.0
H2745 H 0.96596 0.5432 -0.00039 0.0
H2746 H 0.95477 0.53007 0.04492 0.0
H2747 H 0.93881 0.54902 0.04712 0.0
H2748 H 0.09909 0.49528 0.03497 0.0
H2749 H 0.08258 0.51378 0.03709 0.0
H2750 H 0.08261 0.5173 0.98754 0.0
H2751 H 0.0986 0.49842 0.98529 0.0
H2752 H 0.02511 0.20061 0.98711 0.0
H2753 H 0.02792 0.17641 0.99708 0.0
H2754 H 0.98032 0.1527 0.97719 0.0
H2755 H 0.97755 0.17662 0.96649 0.0
H2756 H 0.98886 0.14503 0.0083 0.0
H2757 H 0.00771 0.1465 0.95759 0.0
H2758 H 0.02371 0.15905 0.93805 0.0
H2759 H 0.0662 0.16246 0.96831 0.0
H2760 H 0.0504 0.15015 0.98817 0.0
H2761 H 0.99097 0.06427 0.00195 0.0
H2762 H 0.98832 0.09042 0.99712 0.0
H2763 H 0.03744 0.11052 0.01436 0.0
H2764 H 0.04014 0.08435 0.01942 0.0
H2765 H 0.02902 0.12091 0.98625 0.0
H2766 H 0.01071 0.11823 0.0364 0.0
H2767 H 0.99503 0.10586 0.05625 0.0
H2768 H 0.95212 0.10474 0.02773 0.0
H2769 H 0.96756 0.11699 0.00761 0.0
C2770 C 0.01521 0.19028 0.98466 0.0
C2771 C 0.00116 0.19074 0.97564 0.0
C2772 C 0.01681 0.17643 0.99057 0.0
C2773 C 0.00438 0.16262 0.98783 0.0
C2774 C 0.99009 0.16318 0.97954 0.0
C2775 C 0.98852 0.17698 0.97344 0.0
C2776 C 0.00675 0.14736 0.99254 0.0
C2777 C 0.99752 0.13969 0.00336 0.0
C2778 C 0.01832 0.14048 0.98644 0.0
C2779 C 0.02788 0.14756 0.97442 0.0
C2780 C 0.02046 0.15002 0.96012 0.0
C2781 C 0.02949 0.15709 0.94899 0.0
C2782 C 0.04597 0.16159 0.95196 0.0
C2783 C 0.05344 0.15898 0.96605 0.0
C2784 C 0.04445 0.15196 0.97724 0.0
C2785 C 0.00122 0.07425 0.0048 0.0
C2786 C 0.01578 0.07214 0.01109 0.0
C2787 C 0.99966 0.08925 0.00208 0.0
C2788 C 0.01266 0.10255 0.00539 0.0
C2789 C 0.02722 0.1005 0.01169 0.0
C2790 C 0.02873 0.08551 0.01466 0.0
C2791 C 0.01104 0.11846 0.00192 0.0
C2792 C 0.02041 0.12627 0.9913 0.0
C2793 C 0.99966 0.12546 0.00826 0.0
C2794 C 0.99029 0.11842 0.02044 0.0
C2795 C 0.99792 0.11528 0.03432 0.0
C2796 C 0.98909 0.1083 0.04563 0.0
C2797 C 0.97259 0.10448 0.04324 0.0
C2798 C 0.9649 0.1077 0.02956 0.0
C2799 C 0.97369 0.1147 0.01821 0.0
H2800 H 0.96577 0.09905 0.05199 0.0
H2801 H 0.05294 0.16707 0.94332 0.0
H2802 H 0.13511 0.7839 0.13596 0.0
H2803 H 0.15877 0.78338 0.1528 0.0
H2804 H 0.13751 0.7964 0.19361 0.0
H2805 H 0.11394 0.79726 0.17676 0.0
H2806 H 0.16638 0.81173 0.19821 0.0
H2807 H 0.14193 0.75721 0.1817 0.0
H2808 H 0.12994 0.73338 0.16288 0.0
H2809 H 0.1734 0.73858 0.14233 0.0
H2810 H 0.18559 0.76259 0.16088 0.0
H2811 H 0.2214 0.79282 0.25441 0.0
H2812 H 0.19779 0.79324 0.23742 0.0
H2813 H 0.22109 0.78509 0.19662 0.0
H2814 H 0.24473 0.78442 0.21358 0.0
H2815 H 0.1912 0.76703 0.19217 0.0
H2816 H 0.21524 0.8221 0.20984 0.0
H2817 H 0.2265 0.84515 0.22982 0.0
H2818 H 0.18248 0.83764 0.24959 0.0
H2819 H 0.17103 0.8144 0.22986 0.0
C2820 C 0.13537 0.78655 0.14852 0.0
C2821 C 0.12242 0.79059 0.15488 0.0
C2822 C 0.14899 0.7862 0.15823 0.0
C2823 C 0.15008 0.78958 0.17469 0.0
C2824 C 0.13719 0.79373 0.18103 0.0
C2825 C 0.12363 0.79425 0.17132 0.0
C2826 C 0.16462 0.78906 0.18523 0.0
C2827 C 0.17161 0.80181 0.19695 0.0
C2828 C 0.17187 0.77631 0.18367 0.0
C2829 C 0.16462 0.7618 0.17258 0.0
C2830 C 0.1489 0.75334 0.1731 0.0
C2831 C 0.14207 0.73979 0.16248 0.0
C2832 C 0.15089 0.7345 0.15139 0.0
C2833 C 0.16658 0.74271 0.15091 0.0
C2834 C 0.17346 0.75628 0.16148 0.0
C2835 C 0.22164 0.79129 0.24183 0.0
C2836 C 0.23521 0.78875 0.23549 0.0
C2837 C 0.20803 0.79154 0.23205 0.0
C2838 C 0.2075 0.78937 0.21558 0.0
C2839 C 0.22103 0.78682 0.20922 0.0
C2840 C 0.23467 0.78656 0.219 0.0
C2841 C 0.19291 0.78972 0.20505 0.0
C2842 C 0.18593 0.77693 0.19337 0.0
C2843 C 0.18553 0.80232 0.20677 0.0
C2844 C 0.19232 0.81644 0.21845 0.0
C2845 C 0.20799 0.82532 0.2185 0.0
C2846 C 0.21441 0.83842 0.22977 0.0
C2847 C 0.20522 0.84284 0.24099 0.0
C2848 C 0.18959 0.8342 0.24091 0.0
C2849 C 0.18312 0.82107 0.22967 0.0
H2850 H 0.21022 0.85297 0.24972 0.0
H2851 H 0.14558 0.72401 0.14318 0.0
H2852 H 0.52655 0.84827 0.49709 0.0
H2853 H 0.52854 0.87605 0.50664 0.0
H2854 H 0.48826 0.87507 0.47388 0.0
H2855 H 0.48626 0.84761 0.46431 0.0
H2856 H 0.51412 0.90025 0.47254 0.0
H2857 H 0.48497 0.87442 0.51214 0.0
H2858 H 0.48074 0.85847 0.53399 0.0
H2859 H 0.52176 0.88952 0.56142 0.0
H2860 H 0.5264 0.9055 0.53962 0.0
H2861 H 0.49194 0.97073 0.49418 0.0
H2862 H 0.49093 0.94247 0.48946 0.0
H2863 H 0.53078 0.9495 0.52473 0.0
H2864 H 0.53203 0.97768 0.52917 0.0
H2865 H 0.50782 0.92183 0.52628 0.0
H2866 H 0.53784 0.94758 0.48944 0.0
H2867 H 0.54468 0.96449 0.46873 0.0
H2868 H 0.50614 0.9344 0.43715 0.0
H2869 H 0.4988 0.91753 0.45781 0.0
C2870 C 0.5181 0.85399 0.49199 0.0
C2871 C 0.50619 0.84565 0.47998 0.0
C2872 C 0.51918 0.86982 0.49752 0.0
C2873 C 0.50849 0.87764 0.49102 0.0
C2874 C 0.4966 0.86929 0.47912 0.0
C2875 C 0.49542 0.85353 0.47373 0.0
C2876 C 0.50999 0.89471 0.49579 0.0
C2877 C 0.51253 0.90491 0.48425 0.0
C2878 C 0.50869 0.90098 0.51126 0.0
C2879 C 0.50617 0.89102 0.52413 0.0
C2880 C 0.49323 0.87771 0.52272 0.0
C2881 C 0.49073 0.86869 0.53513 0.0
C2882 C 0.50101 0.87294 0.54906 0.0
C2883 C 0.51383 0.88621 0.55061 0.0
C2884 C 0.51641 0.89524 0.53822 0.0
C2885 C 0.50024 0.96613 0.50111 0.0
C2886 C 0.51202 0.97631 0.51205 0.0
C2887 C 0.49975 0.95005 0.49835 0.0
C2888 C 0.51087 0.94389 0.50668 0.0
C2889 C 0.52211 0.95396 0.51817 0.0
C2890 C 0.52281 0.97004 0.52068 0.0
C2891 C 0.5113 0.92716 0.50285 0.0
C2892 C 0.50933 0.91712 0.51456 0.0
C2893 C 0.51351 0.92107 0.48764 0.0
C2894 C 0.51761 0.93142 0.47527 0.0
C2895 C 0.53065 0.94471 0.47816 0.0
C2896 C 0.53465 0.95427 0.46642 0.0
C2897 C 0.5258 0.95058 0.45165 0.0
C2898 C 0.51293 0.93731 0.44861 0.0
C2899 C 0.50884 0.92774 0.46035 0.0
H2900 H 0.52897 0.95795 0.44255 0.0
H2901 H 0.49901 0.86598 0.55867 0.0
H2902 H 0.45493 0.28191 0.62826 0.0
H2903 H 0.43183 0.27889 0.6427 0.0
H2904 H 0.45859 0.26808 0.68252 0.0
H2905 H 0.48157 0.27075 0.66801 0.0
H2906 H 0.43071 0.24936 0.6794 0.0
H2907 H 0.44928 0.30565 0.67963 0.0
H2908 H 0.45701 0.33013 0.66751 0.0
H2909 H 0.41072 0.31995 0.64201 0.0
H2910 H 0.40277 0.2953 0.65384 0.0
H2911 H 0.38212 0.26155 0.73867 0.0
H2912 H 0.40318 0.26269 0.72187 0.0
H2913 H 0.37324 0.27215 0.68372 0.0
H2914 H 0.35202 0.27099 0.70052 0.0
H2915 H 0.40153 0.29074 0.68454 0.0
H2916 H 0.38252 0.23515 0.68518 0.0
H2917 H 0.37493 0.2101 0.69635 0.0
H2918 H 0.42198 0.21852 0.71968 0.0
H2919 H 0.42981 0.24372 0.7088 0.0
C2920 C 0.45595 0.279 0.64014 0.0
C2921 C 0.47024 0.27666 0.64693 0.0
C2922 C 0.44268 0.2773 0.64845 0.0
C2923 C 0.44337 0.2735 0.66393 0.0
C2924 C 0.4576 0.27101 0.67064 0.0
C2925 C 0.4708 0.27253 0.66229 0.0
C2926 C 0.42938 0.27203 0.67314 0.0
C2927 C 0.4245 0.25854 0.68068 0.0
C2928 C 0.42077 0.28368 0.6745 0.0
C2929 C 0.42548 0.29857 0.66752 0.0
C2930 C 0.44078 0.30859 0.67138 0.0
C2931 C 0.44519 0.3225 0.66456 0.0
C2932 C 0.43437 0.32657 0.65397 0.0
C2933 C 0.41909 0.31677 0.6502 0.0
C2934 C 0.41462 0.30284 0.65697 0.0
C2935 C 0.37986 0.26368 0.72666 0.0
C2936 C 0.36518 0.26611 0.72106 0.0
C2937 C 0.392 0.26432 0.71699 0.0
C2938 C 0.38989 0.26728 0.70132 0.0
C2939 C 0.37531 0.26984 0.69571 0.0
C2940 C 0.36314 0.26924 0.70541 0.0
C2941 C 0.40303 0.26818 0.69104 0.0
C2942 C 0.40772 0.28154 0.68326 0.0
C2943 C 0.41148 0.2564 0.68946 0.0
C2944 C 0.4067 0.24142 0.69631 0.0
C2945 C 0.3912 0.23175 0.69283 0.0
C2946 C 0.38687 0.21749 0.69908 0.0
C2947 C 0.39795 0.21274 0.70876 0.0
C2948 C 0.4134 0.22223 0.71221 0.0
C2949 C 0.41779 0.23649 0.70599 0.0
H2950 H 0.39458 0.20169 0.71356 0.0
H2951 H 0.43781 0.33734 0.6487 0.0
H2952 H 0.03279 0.81701 0.6084 0.0
H2953 H 0.03577 0.83954 0.59354 0.0
H2954 H 0.01479 0.86355 0.62859 0.0
H2955 H 0.0114 0.84085 0.64323 0.0
H2956 H 0.00311 0.86766 0.60157 0.0
H2957 H 0.05641 0.8731 0.6242 0.0
H2958 H 0.08064 0.86437 0.63007 0.0
H2959 H 0.08493 0.85684 0.58086 0.0
H2960 H 0.0606 0.86532 0.57468 0.0
H2961 H 0.02322 0.94323 0.57534 0.0
H2962 H 0.02181 0.92132 0.59086 0.0
H2963 H 0.04009 0.89623 0.5544 0.0
H2964 H 0.04149 0.91804 0.5388 0.0
H2965 H 0.05353 0.89286 0.58219 0.0
H2966 H 1.0001 0.88698 0.5597 0.0
H2967 H 0.97566 0.89533 0.55378 0.0
H2968 H 0.97171 0.90354 0.60302 0.0
H2969 H 0.99626 0.89544 0.60923 0.0
C2970 C 0.02891 0.82714 0.613 0.0
C2971 C 0.02185 0.82708 0.62705 0.0
C2972 C 0.03068 0.8401 0.6045 0.0
C2973 C 0.02575 0.85351 0.60997 0.0
C2974 C 0.0187 0.85343 0.62401 0.0
C2975 C 0.01674 0.8404 0.6324 0.0
C2976 C 0.02749 0.86741 0.60093 0.0
C2977 C 0.01424 0.87329 0.59759 0.0
C2978 C 0.04186 0.87465 0.59526 0.0
C2979 C 0.05659 0.86972 0.59897 0.0
C2980 C 0.06246 0.86949 0.61462 0.0
C2981 C 0.07622 0.8646 0.61801 0.0
C2982 C 0.08429 0.86002 0.60584 0.0
C2983 C 0.07865 0.86037 0.59027 0.0
C2984 C 0.06489 0.86524 0.58682 0.0
C2985 C 0.02683 0.93302 0.57052 0.0
C2986 C 0.0324 0.9325 0.55569 0.0
C2987 C 0.02605 0.92045 0.57946 0.0
C2988 C 0.03065 0.90691 0.57379 0.0
C2989 C 0.03648 0.90648 0.55913 0.0
C2990 C 0.0373 0.91905 0.5502 0.0
C2991 C 0.02918 0.89313 0.58297 0.0
C2992 C 0.04245 0.88726 0.58628 0.0
C2993 C 0.01485 0.88589 0.58865 0.0
C2994 C 1.0001 0.89076 0.58493 0.0
C2995 C 0.99408 0.89069 0.56927 0.0
C2996 C 0.9802 0.89536 0.56586 0.0
C2997 C 0.97216 0.90001 0.57802 0.0
C2998 C 0.97797 0.89996 0.59361 0.0
C2999 C 0.99186 0.89533 0.59708 0.0
H3000 H 0.96141 0.90362 0.57535 0.0
H3001 H 0.09494 0.85622 0.60849 0.0
H3002 H 0.45614 0.80988 0.79924 0.0
H3003 H 0.42857 0.80883 0.79087 0.0
H3004 H 0.41358 0.76477 0.80956 0.0
H3005 H 0.44102 0.76597 0.81854 0.0
H3006 H 0.39676 0.76532 0.78011 0.0
H3007 H 0.41127 0.79582 0.83078 0.0
H3008 H 0.42731 0.81696 0.8508 0.0
H3009 H 0.41829 0.85187 0.82257 0.0
H3010 H 0.40238 0.8309 0.80224 0.0
H3011 H 0.31741 0.7609 0.7896 0.0
H3012 H 0.34555 0.76307 0.79464 0.0
H3013 H 0.35596 0.80858 0.77806 0.0
H3014 H 0.32758 0.80661 0.77307 0.0
H3015 H 0.3755 0.80806 0.80446 0.0
H3016 H 0.35803 0.77614 0.75476 0.0
H3017 H 0.34008 0.75421 0.73697 0.0
H3018 H 0.35362 0.72089 0.7647 0.0
H3019 H 0.3714 0.74268 0.78292 0.0
C3020 C 0.44702 0.79996 0.80164 0.0
C3021 C 0.45093 0.7881 0.80976 0.0
C3022 C 0.43125 0.79934 0.79674 0.0
C3023 C 0.419 0.78679 0.7997 0.0
C3024 C 0.42284 0.77455 0.8071 0.0
C3025 C 0.4386 0.77524 0.81217 0.0
C3026 C 0.40219 0.78691 0.79597 0.0
C3027 C 0.39208 0.77461 0.78548 0.0
C3028 C 0.39612 0.79915 0.80281 0.0
C3029 C 0.40583 0.81179 0.81489 0.0
C3030 C 0.41287 0.808 0.82875 0.0
C3031 C 0.4219 0.81995 0.84017 0.0
C3032 C 0.42387 0.83575 0.83793 0.0
C3033 C 0.41679 0.83963 0.82427 0.0
C3034 C 0.40776 0.82771 0.81279 0.0
C3035 C 0.32561 0.77145 0.78705 0.0
C3036 C 0.32015 0.78353 0.78077 0.0
C3037 C 0.34175 0.77262 0.7899 0.0
C3038 C 0.35289 0.78582 0.78641 0.0
C3039 C 0.34757 0.79822 0.78073 0.0
C3040 C 0.33134 0.79709 0.77792 0.0
C3041 C 0.37003 0.78647 0.78862 0.0
C3042 C 0.38021 0.7989 0.79886 0.0
C3043 C 0.3761 0.77426 0.78164 0.0
C3044 C 0.36598 0.76108 0.77029 0.0
C3045 C 0.35716 0.76415 0.7571 0.0
C3046 C 0.347 0.75173 0.74694 0.0
C3047 C 0.3457 0.73615 0.74969 0.0
C3048 C 0.35464 0.73296 0.76258 0.0
C3049 C 0.36477 0.74535 0.77283 0.0
H3050 H 0.33777 0.72653 0.74187 0.0
H3051 H 0.43084 0.84499 0.84681 0.0
H3052 H 0.50795 0.18949 0.09938 0.0
H3053 H 0.50969 0.16588 0.0827 0.0
H3054 H 0.50523 0.13977 0.12249 0.0
H3055 H 0.50451 0.16369 0.13928 0.0
H3056 H 0.52603 0.13179 0.10763 0.0
H3057 H 0.47394 0.13668 0.08976 0.0
H3058 H 0.45471 0.1503 0.07917 0.0
H3059 H 0.4783 0.15585 0.03779 0.0
H3060 H 0.49778 0.14244 0.04821 0.0
H3061 H 0.50999 0.05501 0.0649 0.0
H3062 H 0.50667 0.07856 0.08055 0.0
H3063 H 0.51904 0.1058 0.04265 0.0
H3064 H 0.52239 0.08241 0.02698 0.0
H3065 H 0.49402 0.11301 0.05589 0.0
H3066 H 0.54592 0.109 0.07338 0.0
H3067 H 0.56544 0.09536 0.08319 0.0
H3068 H 0.54233 0.08839 0.12472 0.0
H3069 H 0.52253 0.10182 0.11503 0.0
C3070 C 0.50728 0.17865 0.10448 0.0
C3071 C 0.50603 0.17836 0.12057 0.0
C3072 C 0.50815 0.16509 0.09493 0.0
C3073 C 0.50727 0.15077 0.10115 0.0
C3074 C 0.50594 0.15055 0.11728 0.0
C3075 C 0.50546 0.16421 0.12689 0.0
C3076 C 0.50823 0.13615 0.09108 0.0
C3077 C 0.51877 0.12761 0.09646 0.0
C3078 C 0.49922 0.13075 0.07617 0.0
C3079 C 0.48739 0.13867 0.06983 0.0
C3080 C 0.47507 0.14088 0.07844 0.0
C3081 C 0.46412 0.14855 0.07246 0.0
C3082 C 0.4653 0.15397 0.05784 0.0
C3083 C 0.47741 0.15167 0.04913 0.0
C3084 C 0.48839 0.14401 0.05505 0.0
C3085 C 0.512 0.066 0.05988 0.0
C3086 C 0.51662 0.06678 0.0447 0.0
C3087 C 0.51011 0.07948 0.06886 0.0
C3088 C 0.51272 0.09405 0.06286 0.0
C3089 C 0.51696 0.09475 0.04758 0.0
C3090 C 0.51897 0.08134 0.03866 0.0
C3091 C 0.51155 0.10865 0.07265 0.0
C3092 C 0.5011 0.1172 0.06716 0.0
C3093 C 0.52064 0.1141 0.08743 0.0
C3094 C 0.53267 0.10628 0.09342 0.0
C3095 C 0.54495 0.10448 0.08457 0.0
C3096 C 0.55607 0.09679 0.0901 0.0
C3097 C 0.55511 0.09097 0.10455 0.0
C3098 C 0.54305 0.09289 0.11352 0.0
C3099 C 0.53189 0.10055 0.10802 0.0
H3100 H 0.56371 0.08501 0.10882 0.0
H3101 H 0.45683 0.15992 0.05324 0.0
H3102 H 0.12138 0.31559 0.32729 0.0
H3103 H 0.14545 0.31304 0.31627 0.0
H3104 H 0.11901 0.27088 0.28654 0.0
H3105 H 0.09484 0.27344 0.29735 0.0
H3106 H 0.14502 0.26589 0.30026 0.0
H3107 H 0.13386 0.30637 0.27177 0.0
H3108 H 0.12832 0.33179 0.26742 0.0
H3109 H 0.17232 0.35663 0.29451 0.0
H3110 H 0.17803 0.33137 0.29921 0.0
H3111 H 0.21103 0.25881 0.25906 0.0
H3112 H 0.1851 0.26133 0.26563 0.0
H3113 H 0.20743 0.30521 0.29485 0.0
H3114 H 0.23318 0.30298 0.28806 0.0
H3115 H 0.18239 0.3086 0.27939 0.0
H3116 H 0.19272 0.26828 0.30943 0.0
H3117 H 0.19827 0.24292 0.31404 0.0
H3118 H 0.15589 0.21792 0.28437 0.0
H3119 H 0.15019 0.24315 0.27943 0.0
C3120 C 0.12056 0.30591 0.3182 0.0
C3121 C 0.10602 0.29469 0.31334 0.0
C3122 C 0.13442 0.30445 0.31189 0.0
C3123 C 0.13417 0.29179 0.30045 0.0
C3124 C 0.11964 0.28073 0.29538 0.0
C3125 C 0.10578 0.28218 0.30167 0.0
C3126 C 0.14913 0.28959 0.29442 0.0
C3127 C 0.15305 0.27517 0.29546 0.0
C3128 C 0.15991 0.30175 0.28843 0.0
C3129 C 0.15628 0.31696 0.28599 0.0
C3130 C 0.14226 0.31725 0.27696 0.0
C3131 C 0.13911 0.33163 0.27439 0.0
C3132 C 0.14993 0.34581 0.28072 0.0
C3133 C 0.16393 0.34564 0.28964 0.0
C3134 C 0.16713 0.33129 0.29225 0.0
C3135 C 0.21043 0.26904 0.26683 0.0
C3136 C 0.22432 0.28066 0.27302 0.0
C3137 C 0.19554 0.27042 0.2707 0.0
C3138 C 0.19416 0.28338 0.28097 0.0
C3139 C 0.20802 0.29507 0.28693 0.0
C3140 C 0.22284 0.29374 0.28304 0.0
C3141 C 0.17842 0.28499 0.28549 0.0
C3142 C 0.17433 0.2993 0.28414 0.0
C3143 C 0.16752 0.27275 0.29125 0.0
C3144 C 0.17115 0.25761 0.29389 0.0
C3145 C 0.18468 0.25738 0.30375 0.0
C3146 C 0.18783 0.24303 0.30645 0.0
C3147 C 0.17747 0.22882 0.29946 0.0
C3148 C 0.16393 0.22893 0.28975 0.0
C3149 C 0.16073 0.24325 0.28699 0.0
H3150 H 0.17991 0.21772 0.3016 0.0
H3151 H 0.14749 0.35693 0.27869 0.0
H3152 H 0.96528 0.05417 0.18044 0.0
H3153 H 0.97541 0.05458 0.15503 0.0
H3154 H 0.99037 0.01235 0.16123 0.0
H3155 H 0.98083 0.01219 0.18707 0.0
H3156 H 0.01214 0.03338 0.14774 0.0
H3157 H 0.95584 0.01016 0.13905 0.0
H3158 H 0.92799 0.00942 0.14186 0.0
H3159 H 0.93262 0.05183 0.12025 0.0
H3160 H 0.96056 0.05292 0.11749 0.0
H3161 H 0.02073 0.01218 0.06801 0.0
H3162 H 0.01395 0.0133 0.09486 0.0
H3163 H 0.99056 0.04988 0.08633 0.0
H3164 H 0.99633 0.04783 0.05903 0.0
H3165 H 0.97359 0.03185 0.10168 0.0
H3166 H 0.02975 0.05537 0.10979 0.0
H3167 H 0.05786 0.05688 0.10756 0.0
H3168 H 0.0543 0.01539 0.1305 0.0
H3169 H 0.02613 0.01353 0.13272 0.0
C3170 C 0.97099 0.04511 0.1766 0.0
C3171 C 0.97213 0.03309 0.18585 0.0
C3172 C 0.97665 0.04529 0.16195 0.0
C3173 C 0.98342 0.03335 0.15608 0.0
C3174 C 0.9851 0.02163 0.16547 0.0
C3175 C 0.97949 0.02148 0.18018 0.0
C3176 C 0.98806 0.03275 0.13988 0.0
C3177 C 0.00371 0.0329 0.13762 0.0
C3178 C 0.97715 0.03246 0.12671 0.0
C3179 C 0.96031 0.03168 0.12817 0.0
C3180 C 0.95094 0.01937 0.13497 0.0
C3181 C 0.93514 0.01888 0.13655 0.0
C3182 C 0.92855 0.03058 0.13126 0.0
C3183 C 0.93774 0.04278 0.12435 0.0
C3184 C 0.95355 0.04333 0.12276 0.0
C3185 C 0.01413 0.02046 0.0719 0.0
C3186 C 0.00903 0.02992 0.06147 0.0
C3187 C 0.01041 0.02124 0.08734 0.0
C3188 C 0.00206 0.03197 0.09292 0.0
C3189 C 0.99703 0.0415 0.08243 0.0
C3190 C 1.00031 0.04034 0.06682 0.0
C3191 C 0.99785 0.03274 0.10936 0.0
C3192 C 0.98218 0.03249 0.11171 0.0
C3193 C 0.00882 0.0331 0.1226 0.0
C3194 C 0.02579 0.03424 0.1213 0.0
C3195 C 0.03494 0.04651 0.11427 0.0
C3196 C 0.05089 0.04744 0.11302 0.0
C3197 C 0.05785 0.03622 0.11885 0.0
C3198 C 0.04889 0.02407 0.12598 0.0
C3199 C 0.03294 0.02308 0.12726 0.0
H3200 H 0.0702 0.03696 0.11787 0.0
H3201 H 0.91632 0.03019 0.1325 0.0
H3202 H 0.28693 0.72623 0.48368 0.0
H3203 H 0.28676 0.74193 0.46161 0.0
H3204 H 0.26776 0.69903 0.42968 0.0
H3205 H 0.26769 0.6835 0.45162 0.0
H3206 H 0.29614 0.7202 0.42246 0.0
H3207 H 0.24363 0.71724 0.43639 0.0
H3208 H 0.22452 0.72098 0.45477 0.0
H3209 H 0.24549 0.77092 0.46154 0.0
H3210 H 0.26493 0.76742 0.44336 0.0
H3211 H 0.25384 0.72592 0.35171 0.0
H3212 H 0.26316 0.72111 0.37768 0.0
H3213 H 0.28057 0.77119 0.39194 0.0
H3214 H 0.27069 0.77614 0.36583 0.0
H3215 H 0.25908 0.75302 0.41105 0.0
H3216 H 0.31747 0.74906 0.40199 0.0
H3217 H 0.33582 0.73942 0.38576 0.0
H3218 H 0.29941 0.69733 0.36849 0.0
H3219 H 0.28119 0.70641 0.38519 0.0
C3220 C 0.28269 0.72033 0.47189 0.0
C3221 C 0.27738 0.70387 0.46901 0.0
C3222 C 0.28255 0.72919 0.45946 0.0
C3223 C 0.27729 0.72149 0.44423 0.0
C3224 C 0.27187 0.70503 0.44146 0.0
C3225 C 0.27181 0.69624 0.45385 0.0
C3226 C 0.27799 0.73031 0.43085 0.0
C3227 C 0.28823 0.72761 0.42002 0.0
C3228 C 0.26765 0.73988 0.42793 0.0
C3229 C 0.25589 0.74206 0.43872 0.0
C3230 C 0.24428 0.72901 0.44193 0.0
C3231 C 0.23337 0.73108 0.45228 0.0
C3232 C 0.23384 0.74617 0.45938 0.0
C3233 C 0.24518 0.75923 0.45607 0.0
C3234 C 0.25615 0.75721 0.44575 0.0
C3235 C 0.2599 0.73588 0.36031 0.0
C3236 C 0.26164 0.75136 0.35692 0.0
C3237 C 0.26546 0.73313 0.37501 0.0
C3238 C 0.27314 0.74579 0.3864 0.0
C3239 C 0.27498 0.76132 0.38307 0.0
C3240 C 0.26924 0.76411 0.36832 0.0
C3241 C 0.27696 0.74254 0.40235 0.0
C3242 C 0.26755 0.74629 0.41377 0.0
C3243 C 0.28763 0.73335 0.40564 0.0
C3244 C 0.2978 0.72874 0.39426 0.0
C3245 C 0.31335 0.73788 0.39452 0.0
C3246 C 0.32381 0.73237 0.38548 0.0
C3247 C 0.31875 0.71783 0.376 0.0
C3248 C 0.30328 0.70866 0.37571 0.0
C3249 C 0.2929 0.71397 0.38498 0.0
H3250 H 0.32681 0.71367 0.36889 0.0
H3251 H 0.22538 0.74776 0.46739 0.0
H3252 H 0.62125 0.01764 0.65919 0.0
H3253 H 0.60552 0.01651 0.634 0.0
H3254 H 0.58269 0.05021 0.65504 0.0
H3255 H 0.59845 0.05143 0.68025 0.0
H3256 H 0.56199 0.02237 0.63722 0.0
H3257 H 0.60838 0.06364 0.63313 0.0
H3258 H 0.63709 0.07512 0.63443 0.0
H3259 H 0.64012 0.03909 0.59828 0.0
H3260 H 0.61142 0.02727 0.59691 0.0
H3261 H 0.52555 0.04676 0.57214 0.0
H3262 H 0.54399 0.04786 0.59554 0.0
H3263 H 0.5625 0.01222 0.57142 0.0
H3264 H 0.54355 0.01064 0.54827 0.0
H3265 H 0.58608 0.03985 0.58995 0.0
H3266 H 0.53969 0.99884 0.59364 0.0
H3267 H 0.51099 0.98732 0.59234 0.0
H3268 H 0.50814 0.02255 0.62941 0.0
H3269 H 0.53682 0.03442 0.63076 0.0
C3270 C 0.61283 0.02475 0.65839 0.0
C3271 C 0.61096 0.03461 0.67151 0.0
C3272 C 0.60398 0.02416 0.64406 0.0
C3273 C 0.5931 0.03333 0.6428 0.0
C3274 C 0.59111 0.0431 0.65592 0.0
C3275 C 0.6001 0.04383 0.6702 0.0
C3276 C 0.58357 0.03254 0.6278 0.0
C3277 C 0.56721 0.02634 0.62692 0.0
C3278 C 0.59057 0.03733 0.61438 0.0
C3279 C 0.60779 0.04449 0.61502 0.0
C3280 C 0.61519 0.0581 0.62554 0.0
C3281 C 0.63145 0.06468 0.62627 0.0
C3282 C 0.64043 0.05782 0.61647 0.0
C3283 C 0.63315 0.04438 0.60587 0.0
C3284 C 0.61688 0.03775 0.6051 0.0
C3285 C 0.53367 0.03929 0.57187 0.0
C3286 C 0.53365 0.02897 0.55843 0.0
C3287 C 0.54417 0.03997 0.58511 0.0
C3288 C 0.5546 0.03023 0.58501 0.0
C3289 C 0.5547 0.02002 0.5715 0.0
C3290 C 0.54408 0.01926 0.55831 0.0
C3291 C 0.5645 0.02992 0.59947 0.0
C3292 C 0.5809 0.03583 0.60024 0.0
C3293 C 0.55757 0.02481 0.61282 0.0
C3294 C 0.54037 0.0176 0.6122 0.0
C3295 C 0.53292 0.00421 0.60143 0.0
C3296 C 0.51666 0.9976 0.6007 0.0
C3297 C 0.50774 0.00422 0.61076 0.0
C3298 C 0.51506 0.01744 0.62161 0.0
C3299 C 0.53133 0.0241 0.62238 0.0
H3300 H 0.49514 0.9991 0.61017 0.0
H3301 H 0.65303 0.06292 0.61706 0.0
H3302 H 0.25653 0.33832 0.93143 0.0
H3303 H 0.25864 0.32811 0.90457 0.0
H3304 H 0.2607 0.28334 0.91953 0.0
H3305 H 0.25936 0.2939 0.94667 0.0
H3306 H 0.28191 0.29076 0.90138 0.0
H3307 H 0.22702 0.28936 0.89621 0.0
H3308 H 0.20343 0.29945 0.89875 0.0
H3309 H 0.22094 0.3355 0.87015 0.0
H3310 H 0.24471 0.32576 0.86758 0.0
H3311 H 0.27709 0.25998 0.81898 0.0
H3312 H 0.27298 0.26422 0.84679 0.0
H3313 H 0.27461 0.31293 0.84264 0.0
H3314 H 0.2784 0.30868 0.81505 0.0
H3315 H 0.24878 0.29908 0.85511 0.0
H3316 H 0.30501 0.30209 0.86335 0.0
H3317 H 0.32822 0.29149 0.86027 0.0
H3318 H 0.30706 0.25138 0.88253 0.0
H3319 H 0.28366 0.26169 0.88562 0.0
C3320 C 0.25715 0.32621 0.92892 0.0
C3321 C 0.25767 0.31685 0.94108 0.0
C3322 C 0.25829 0.32034 0.91354 0.0
C3323 C 0.25954 0.30481 0.90987 0.0
C3324 C 0.25972 0.29533 0.922 0.0
C3325 C 0.2589 0.30133 0.93748 0.0
C3326 C 0.26166 0.29893 0.8936 0.0
C3327 C 0.27444 0.2923 0.89129 0.0
C3328 C 0.25206 0.30103 0.88033 0.0
C3329 C 0.2377 0.30687 0.88178 0.0
C3330 C 0.22588 0.2995 0.89054 0.0
C3331 C 0.21247 0.30514 0.89197 0.0
C3332 C 0.2107 0.31812 0.88463 0.0
C3333 C 0.22232 0.32545 0.87582 0.0
C3334 C 0.23575 0.31985 0.87435 0.0
C3335 C 0.277 0.27166 0.82418 0.0
C3336 C 0.27804 0.284 0.81491 0.0
C3337 C 0.27456 0.27406 0.84001 0.0
C3338 C 0.27335 0.28888 0.84676 0.0
C3339 C 0.2753 0.30136 0.83766 0.0
C3340 C 0.27758 0.29894 0.82192 0.0
C3341 C 0.26928 0.29146 0.86301 0.0
C3342 C 0.25608 0.29737 0.86526 0.0
C3343 C 0.2784 0.28862 0.87619 0.0
C3344 C 0.29256 0.28258 0.87459 0.0
C3345 C 0.30529 0.29097 0.86752 0.0
C3346 C 0.31848 0.28503 0.86579 0.0
C3347 C 0.3191 0.27075 0.87117 0.0
C3348 C 0.30656 0.26243 0.87836 0.0
C3349 C 0.29334 0.26833 0.88013 0.0
H3350 H 0.3293 0.26615 0.86979 0.0
H3351 H 0.20031 0.32248 0.88577 0.0
H3352 H 0.96584 0.05199 0.35084 0.0
H3353 H 0.97639 0.05072 0.37771 0.0
H3354 H 0.00577 0.02176 0.36019 0.0
H3355 H 0.99523 0.02298 0.33327 0.0
H3356 H 0.98888 0.00854 0.38188 0.0
H3357 H 0.02146 0.06016 0.37769 0.0
H3358 H 0.02729 0.08793 0.37272 0.0
H3359 H 0.99953 0.09844 0.40894 0.0
H3360 H 0.9933 0.07069 0.41396 0.0
H3361 H 0.02422 0.00611 0.45985 0.0
H3362 H 0.01924 0.00852 0.4318 0.0
H3363 H 0.99257 0.04241 0.44323 0.0
H3364 H 0.99814 0.04056 0.47099 0.0
H3365 H 0.01123 0.05324 0.42386 0.0
H3366 H 0.97527 0.00277 0.42596 0.0
H3367 H 0.96746 0.97517 0.43136 0.0
H3368 H 0.9988 0.9628 0.39967 0.0
H3369 H 0.00694 0.99039 0.39422 0.0
C3370 C 0.97483 0.04568 0.35269 0.0
C3371 C 0.97964 0.03751 0.33994 0.0
C3372 C 0.98085 0.04495 0.36807 0.0
C3373 C 0.99192 0.03618 0.37097 0.0
C3374 C 0.9972 0.02854 0.35823 0.0
C3375 C 0.99115 0.02923 0.34287 0.0
C3376 C 0.99691 0.03383 0.38725 0.0
C3377 C 0.99405 0.01832 0.39101 0.0
C3378 C 0.00319 0.04659 0.39926 0.0
C3379 C 0.0068 0.06327 0.3961 0.0
C3380 C 0.01646 0.06834 0.38449 0.0
C3381 C 0.01986 0.0841 0.38169 0.0
C3382 C 0.01375 0.09493 0.39048 0.0
C3383 C 0.00423 0.09004 0.40212 0.0
C3384 C 1.00078 0.07429 0.40495 0.0
C3385 C 0.01714 0.01388 0.45625 0.0
C3386 C 0.0116 0.02318 0.4675 0.0
C3387 C 0.01429 0.01527 0.44026 0.0
C3388 C 0.00552 0.02568 0.43535 0.0
C3389 C 0.99953 0.03446 0.44666 0.0
C3390 C 0.00264 0.03333 0.46253 0.0
C3391 C 0.00285 0.02797 0.41857 0.0
C3392 C 0.00619 0.04346 0.4147 0.0
C3393 C 0.99667 0.01523 0.40653 0.0
C3394 C 0.99185 0.99867 0.40984 0.0
C3395 C 0.98059 0.99419 0.42025 0.0
C3396 C 0.97609 0.97854 0.4233 0.0
C3397 C 0.98267 0.96725 0.41591 0.0
C3398 C 0.99374 0.97157 0.40541 0.0
C3399 C 0.9983 0.9872 0.40234 0.0
H3400 H 0.97916 0.95514 0.41827 0.0
H3401 H 0.01641 0.10712 0.3883 0.0
H3402 H 0.25961 0.6885 0.61542 0.0
H3403 H 0.26158 0.7031 0.64128 0.0
H3404 H 0.28977 0.74476 0.62545 0.0
H3405 H 0.28767 0.73017 0.59923 0.0
H3406 H 0.30285 0.73471 0.65342 0.0
H3407 H 0.25454 0.7457 0.63181 0.0
H3408 H 0.22779 0.7379 0.6173 0.0
H3409 H 0.21161 0.70687 0.65106 0.0
H3410 H 0.23831 0.71435 0.66568 0.0
H3411 H 0.29736 0.78759 0.71937 0.0
H3412 H 0.3004 0.77242 0.69498 0.0
H3413 H 0.26594 0.73198 0.70595 0.0
H3414 H 0.26211 0.74747 0.72966 0.0
H3415 H 0.25685 0.74206 0.67995 0.0
H3416 H 0.30272 0.72737 0.70015 0.0
H3417 H 0.32914 0.73069 0.71432 0.0
H3418 H 0.34934 0.76461 0.68458 0.0
H3419 H 0.323 0.76132 0.67007 0.0
C3420 C 0.26583 0.70089 0.61731 0.0
C3421 C 0.27342 0.70834 0.60546 0.0
C3422 C 0.26703 0.70914 0.63205 0.0
C3423 C 0.27576 0.72489 0.63501 0.0
C3424 C 0.28302 0.73255 0.62315 0.0
C3425 C 0.28179 0.72428 0.60832 0.0
C3426 C 0.27783 0.73294 0.65086 0.0
C3427 C 0.29293 0.7367 0.65924 0.0
C3428 C 0.26463 0.73468 0.65832 0.0
C3429 C 0.24844 0.73056 0.64981 0.0
C3430 C 0.24529 0.73719 0.63611 0.0
C3431 C 0.23013 0.73282 0.62787 0.0
C3432 C 0.21801 0.72189 0.63325 0.0
C3433 C 0.221 0.71535 0.64692 0.0
C3434 C 0.23613 0.71968 0.65521 0.0
C3435 C 0.29071 0.77537 0.71661 0.0
C3436 C 0.27963 0.76848 0.72622 0.0
C3437 C 0.29264 0.76667 0.70292 0.0
C3438 C 0.28349 0.75111 0.69889 0.0
C3439 C 0.27322 0.74394 0.70909 0.0
C3440 C 0.27112 0.7527 0.72261 0.0
C3441 C 0.28191 0.74376 0.68273 0.0
C3442 C 0.26687 0.7402 0.67422 0.0
C3443 C 0.2951 0.74188 0.67529 0.0
C3444 C 0.31089 0.74423 0.68415 0.0
C3445 C 0.31278 0.73564 0.69672 0.0
C3446 C 0.32775 0.73746 0.70477 0.0
C3447 C 0.34091 0.74794 0.70043 0.0
C3448 C 0.33913 0.75653 0.68795 0.0
C3449 C 0.3242 0.75463 0.67975 0.0
H3450 H 0.35248 0.74936 0.70672 0.0
H3451 H 0.2063 0.71849 0.62683 0.0
H3452 H 0.63214 0.03391 0.8314 0.0
H3453 H 0.62147 0.03839 0.85621 0.0
H3454 H 0.58338 0.05274 0.83174 0.0
H3455 H 0.59447 0.04885 0.80697 0.0
H3456 H 0.59632 0.07308 0.85668 0.0
H3457 H 0.57726 0.01649 0.84622 0.0
H3458 H 0.58017 0.98956 0.83956 0.0
H3459 H 0.61295 0.99547 0.881 0.0
H3460 H 0.61033 0.02251 0.88784 0.0
H3461 H 0.54165 0.06583 0.91219 0.0
H3462 H 0.55697 0.06508 0.89006 0.0
H3463 H 0.5942 0.05448 0.91965 0.0
H3464 H 0.57889 0.05531 0.94198 0.0
H3465 H 0.58423 0.0333 0.89358 0.0
H3466 H 0.60111 0.08961 0.90491 0.0
H3467 H 0.59767 0.11642 0.91099 0.0
H3468 H 0.56799 0.1107 0.86743 0.0
H3469 H 0.57115 0.08381 0.86114 0.0
C3470 C 0.62134 0.03776 0.83136 0.0
C3471 C 0.61401 0.04099 0.81744 0.0
C3472 C 0.61527 0.04031 0.84547 0.0
C3473 C 0.60158 0.04577 0.84575 0.0
C3474 C 0.59399 0.04858 0.83173 0.0
C3475 C 0.60024 0.04629 0.81765 0.0
C3476 C 0.59555 0.04921 0.86075 0.0
C3477 C 0.59349 0.06434 0.86468 0.0
C3478 C 0.59239 0.03793 0.87135 0.0
C3479 C 0.59368 0.02155 0.86748 0.0
C3480 C 0.58513 0.01206 0.85388 0.0
C3481 C 0.58672 0.99678 0.85008 0.0
C3482 C 0.59676 0.99082 0.85983 0.0
C3483 C 0.60517 0.00011 0.87345 0.0
C3484 C 0.60361 0.01539 0.87732 0.0
C3485 C 0.55329 0.0638 0.9141 0.0
C3486 C 0.55905 0.06053 0.92874 0.0
C3487 C 0.56203 0.06336 0.90146 0.0
C3488 C 0.57672 0.05979 0.90329 0.0
C3489 C 0.58286 0.05724 0.91806 0.0
C3490 C 0.5741 0.05766 0.93074 0.0
C3491 C 0.58474 0.0571 0.88939 0.0
C3492 C 0.5872 0.0421 0.88566 0.0
C3493 C 0.58814 0.06846 0.87891 0.0
C3494 C 0.58631 0.08467 0.8826 0.0
C3495 C 0.59378 0.09404 0.89667 0.0
C3496 C 0.5919 0.10926 0.90014 0.0
C3497 C 0.5826 0.11525 0.88962 0.0
C3498 C 0.5752 0.10605 0.87557 0.0
C3499 C 0.57707 0.09084 0.87203 0.0
H3500 H 0.58114 0.12702 0.89233 0.0
H3501 H 0.59801 0.979 0.85685 0.0
H3502 H 0.24264 0.30518 0.08905 0.0
H3503 H 0.24188 0.29463 0.11423 0.0
H3504 H 0.28478 0.3298 0.13279 0.0
H3505 H 0.28556 0.34049 0.10781 0.0
H3506 H 0.28558 0.30168 0.14172 0.0
H3507 H 0.24832 0.33387 0.14081 0.0
H3508 H 0.22502 0.34204 0.13023 0.0
H3509 H 0.1952 0.29631 0.13387 0.0
H3510 H 0.21838 0.2878 0.14427 0.0
H3511 H 0.28046 0.31043 0.22454 0.0
H3512 H 0.27954 0.3154 0.19701 0.0
H3513 H 0.24596 0.27035 0.18324 0.0
H3514 H 0.24732 0.26502 0.21067 0.0
H3515 H 0.23913 0.30003 0.17094 0.0
H3516 H 0.27599 0.26842 0.17368 0.0
H3517 H 0.29917 0.26027 0.18457 0.0
H3518 H 0.3296 0.30459 0.17752 0.0
H3519 H 0.30655 0.31314 0.16687 0.0
C3520 C 0.25188 0.31072 0.09851 0.0
C3521 C 0.26413 0.32376 0.09636 0.0
C3522 C 0.25145 0.30463 0.1129 0.0
C3523 C 0.2632 0.31151 0.12549 0.0
C3524 C 0.27561 0.32425 0.12326 0.0
C3525 C 0.27606 0.33033 0.10891 0.0
C3526 C 0.2624 0.30583 0.14117 0.0
C3527 C 0.27546 0.30143 0.14813 0.0
C3528 C 0.24902 0.30505 0.14943 0.0
C3529 C 0.2351 0.31014 0.14313 0.0
C3530 C 0.23681 0.32551 0.13922 0.0
C3531 C 0.22363 0.33021 0.13328 0.0
C3532 C 0.20865 0.31969 0.13133 0.0
C3533 C 0.20682 0.30444 0.13535 0.0
C3534 C 0.21997 0.29967 0.14127 0.0
C3535 C 0.27278 0.30166 0.21565 0.0
C3536 C 0.2639 0.28738 0.21972 0.0
C3537 C 0.27235 0.30446 0.19995 0.0
C3538 C 0.26274 0.2932 0.18812 0.0
C3539 C 0.25348 0.27914 0.19221 0.0
C3540 C 0.25426 0.27614 0.20785 0.0
C3541 C 0.26242 0.29624 0.17151 0.0
C3542 C 0.24916 0.30013 0.16442 0.0
C3543 C 0.27559 0.29653 0.16314 0.0
C3544 C 0.28949 0.29152 0.1697 0.0
C3545 C 0.28759 0.27653 0.17467 0.0
C3546 C 0.30072 0.27181 0.18075 0.0
C3547 C 0.31584 0.28193 0.1818 0.0
C3548 C 0.31787 0.29678 0.17674 0.0
C3549 C 0.30478 0.30157 0.17069 0.0
H3550 H 0.326 0.27825 0.18649 0.0
H3551 H 0.19845 0.32336 0.12674 0.0
H3552 H 0.2202 0.967 -0.00087 0.0
H3553 H 0.19957 0.9794 0.00723 0.0
H3554 H 0.16565 0.93387 -0.00089 0.0
H3555 H 0.18612 0.9217 0.99036 0.0
H3556 H 0.15307 0.95529 0.98949 0.0
H3557 H 0.18437 0.9506 0.03632 0.0
H3558 H 0.20881 0.95429 0.05423 0.0
H3559 H 0.21656 0.00454 0.05717 0.0
H3560 H 0.1923 0.00117 0.0391 0.0
H3561 H 0.09592 0.98355 0.0271 0.0
H3562 H 0.11486 0.96792 0.02236 0.0
H3563 H 0.15284 0.01051 0.02956 0.0
H3564 H 0.13405 0.0261 0.03477 0.0
H3565 H 0.16236 0.98803 0.04138 0.0
H3566 H 0.13279 0.99229 0.992 0.0
H3567 H 0.10928 0.98831 0.97269 0.0
H3568 H 0.09889 0.93832 0.97413 0.0
H3569 H 0.12222 0.94203 0.99357 0.0
C3570 C 0.20818 0.95986 0.9986 0.0
C3571 C 0.20445 0.94358 0.99396 0.0
C3572 C 0.19654 0.96682 0.00347 0.0
C3573 C 0.18127 0.95742 0.00414 0.0
C3574 C 0.17742 0.94125 -0.00127 0.0
C3575 C 0.18898 0.93436 0.9936 0.0
C3576 C 0.16925 0.96441 0.01045 0.0
C3577 C 0.15497 0.96224 0.00095 0.0
C3578 C 0.17195 0.97358 0.02533 0.0
C3579 C 0.18656 0.97562 0.03625 0.0
C3580 C 0.19134 0.96244 0.04069 0.0
C3581 C 0.20516 0.96448 0.05089 0.0
C3582 C 0.21425 0.97964 0.05681 0.0
C3583 C 0.20952 0.9928 0.05257 0.0
C3584 C 0.19573 0.99083 0.04236 0.0
C3585 C 0.10837 0.9895 0.02797 0.0
C3586 C 0.11358 0.00599 0.03127 0.0
C3587 C 0.11912 0.98059 0.0252 0.0
C3588 C 0.13515 0.98812 0.02533 0.0
C3589 C 0.14048 0.0045 0.02941 0.0
C3590 C 0.12977 0.01339 0.03242 0.0
C3591 C 0.14631 0.97919 0.02024 0.0
C3592 C 0.1604 0.98093 0.03 0.0
C3593 C 0.14346 0.96957 0.00559 0.0
C3594 C 0.1291 0.96747 0.9944 0.0
C3595 C 0.12537 0.98048 0.98834 0.0
C3596 C 0.1121 0.97826 0.97734 0.0
C3597 C 0.10256 0.96308 0.97223 0.0
C3598 C 0.10625 0.95008 0.97813 0.0
C3599 C 0.11948 0.95223 0.98914 0.0
H3600 H 0.09234 0.96138 0.96367 0.0
H3601 H 0.22493 0.98119 0.06471 0.0
H3602 H 0.68131 0.64745 0.01196 0.0
H3603 H 0.6549 0.63024 0.01218 0.0
H3604 H 0.67272 0.58943 0.00133 0.0
H3605 H 0.69906 0.60671 0.00052 0.0
H3606 H 0.64546 0.58483 0.98526 0.0
H3607 H 0.6645 0.60233 0.03972 0.0
H3608 H 0.67561 0.62177 0.06309 0.0
H3609 H 0.63602 0.64191 0.05729 0.0
H3610 H 0.62477 0.62273 0.03377 0.0
H3611 H 0.57685 0.5305 0.00569 0.0
H3612 H 0.6038 0.54606 0.00402 0.0
H3613 H 0.58888 0.58895 0.01262 0.0
H3614 H 0.56221 0.5736 0.01465 0.0
H3615 H 0.61523 0.59134 0.03031 0.0
H3616 H 0.59649 0.5742 0.97555 0.0
H3617 H 0.58525 0.55463 0.95231 0.0
H3618 H 0.62412 0.53358 0.95891 0.0
H3619 H 0.63548 0.55289 0.98231 0.0
C3620 C 0.67959 0.6348 0.00968 0.0
C3621 C 0.69228 0.62842 0.00632 0.0
C3622 C 0.66449 0.62494 0.00986 0.0
C3623 C 0.6618 0.60845 0.0071 0.0
C3624 C 0.67444 0.60208 0.00354 0.0
C3625 C 0.6895 0.61196 0.00309 0.0
C3626 C 0.64583 0.59788 0.00788 0.0
C3627 C 0.63896 0.58612 0.99523 0.0
C3628 C 0.63713 0.59966 0.02073 0.0
C3629 C 0.64387 0.61117 0.03491 0.0
C3630 C 0.65822 0.61097 0.04337 0.0
C3631 C 0.66453 0.62194 0.05665 0.0
C3632 C 0.65655 0.63309 0.06165 0.0
C3633 C 0.6422 0.63328 0.0534 0.0
C3634 C 0.63585 0.62235 0.0401 0.0
C3635 C 0.57931 0.54324 0.00714 0.0
C3636 C 0.56736 0.55078 0.01039 0.0
C3637 C 0.59472 0.55214 0.00612 0.0
C3638 C 0.5984 0.56872 0.00811 0.0
C3639 C 0.58641 0.5762 0.01113 0.0
C3640 C 0.57111 0.56736 0.01227 0.0
C3641 C 0.61479 0.57844 0.00762 0.0
C3642 C 0.62176 0.59002 0.02036 0.0
C3643 C 0.62355 0.57646 0.99488 0.0
C3644 C 0.61675 0.56489 0.98078 0.0
C3645 C 0.60258 0.56532 0.97211 0.0
C3646 C 0.59619 0.55429 0.9589 0.0
C3647 C 0.60394 0.54284 0.95416 0.0
C3648 C 0.61811 0.54243 0.9626 0.0
C3649 C 0.62453 0.55342 0.97584 0.0
H3650 H 0.59898 0.53431 0.94393 0.0
H3651 H 0.66145 0.64157 0.07193 0.0
H3652 H 0.63812 0.43979 0.26855 0.0
H3653 H 0.65249 0.41938 0.2651 0.0
H3654 H 0.69492 0.45507 0.26086 0.0
H3655 H 0.68029 0.47531 0.26345 0.0
H3656 H 0.69305 0.4319 0.24021 0.0
H3657 H 0.68757 0.4356 0.29535 0.0
H3658 H 0.67361 0.43527 0.31896 0.0
H3659 H 0.64692 0.38767 0.30303 0.0
H3660 H 0.6606 0.38778 0.27924 0.0
H3661 H 0.74933 0.38795 0.2601 0.0
H3662 H 0.73299 0.4068 0.25827 0.0
H3663 H 0.69088 0.3683 0.25191 0.0
H3664 H 0.70726 0.3495 0.25341 0.0
H3665 H 0.69158 0.39165 0.27656 0.0
H3666 H 0.69951 0.38801 0.22217 0.0
H3667 H 0.71454 0.38896 0.1993 0.0
H3668 H 0.73841 0.43741 0.21511 0.0
H3669 H 0.72368 0.43671 0.23819 0.0
C3670 C 0.65054 0.44322 0.26699 0.0
C3671 C 0.65815 0.45907 0.26632 0.0
C3672 C 0.65878 0.43158 0.26507 0.0
C3673 C 0.6749 0.43566 0.26294 0.0
C3674 C 0.68251 0.45158 0.26244 0.0
C3675 C 0.67418 0.46314 0.26399 0.0
C3676 C 0.68382 0.42339 0.26095 0.0
C3677 C 0.69288 0.42325 0.24831 0.0
C3678 C 0.68333 0.41178 0.27123 0.0
C3679 C 0.67498 0.41177 0.28544 0.0
C3680 C 0.67863 0.42511 0.29682 0.0
C3681 C 0.67078 0.42496 0.31025 0.0
C3682 C 0.65935 0.41148 0.31247 0.0
C3683 C 0.65576 0.39811 0.30128 0.0
C3684 C 0.66356 0.39821 0.28784 0.0
C3685 C 0.73659 0.38358 0.25807 0.0
C3686 C 0.72945 0.36739 0.25714 0.0
C3687 C 0.72729 0.3943 0.25696 0.0
C3688 C 0.71074 0.38893 0.25496 0.0
C3689 C 0.70364 0.37267 0.2535 0.0
C3690 C 0.71295 0.36196 0.25446 0.0
C3691 C 0.70089 0.40034 0.25599 0.0
C3692 C 0.69167 0.4003 0.26846 0.0
C3693 C 0.70146 0.41191 0.24571 0.0
C3694 C 0.7106 0.41225 0.23201 0.0
C3695 C 0.7081 0.39882 0.22088 0.0
C3696 C 0.71653 0.39932 0.20785 0.0
C3697 C 0.72746 0.41322 0.20578 0.0
C3698 C 0.72997 0.42665 0.21674 0.0
C3699 C 0.72157 0.4262 0.22979 0.0
H3700 H 0.73395 0.4136 0.19566 0.0
H3701 H 0.65331 0.41137 0.32288 0.0
H3702 H 0.84394 0.46529 0.52975 0.0
H3703 H 0.87188 0.47994 0.53378 0.0
H3704 H 0.87918 0.45654 0.48961 0.0
H3705 H 0.8514 0.44186 0.48559 0.0
H3706 H 0.90081 0.4556 0.51486 0.0
H3707 H 0.87737 0.49147 0.48968 0.0
H3708 H 0.85921 0.5083 0.48523 0.0
H3709 H 0.87728 0.53577 0.52999 0.0
H3710 H 0.89539 0.51891 0.53482 0.0
H3711 H 0.96952 0.50173 0.49177 0.0
H3712 H 0.94167 0.4894 0.49317 0.0
H3713 H 0.94555 0.51266 0.54042 0.0
H3714 H 0.97349 0.52502 0.53919 0.0
H3715 H 0.91886 0.51387 0.51771 0.0
H3716 H 0.94635 0.47794 0.53887 0.0
H3717 H 0.96563 0.46184 0.53841 0.0
H3718 H 0.94055 0.43452 0.49565 0.0
H3719 H 0.92126 0.45065 0.49568 0.0
C3720 C 0.8516 0.46342 0.52094 0.0
C3721 C 0.84584 0.45266 0.50738 0.0
C3722 C 0.86736 0.47171 0.52322 0.0
C3723 C 0.87728 0.46913 0.51196 0.0
C3724 C 0.87149 0.4585 0.49835 0.0
C3725 C 0.85575 0.45031 0.49602 0.0
C3726 C 0.89385 0.47737 0.51442 0.0
C3727 C 0.90485 0.46833 0.51549 0.0
C3728 C 0.89875 0.49392 0.51535 0.0
C3729 C 0.88751 0.50374 0.51274 0.0
C3730 C 0.87728 0.50093 0.49869 0.0
C3731 C 0.86705 0.51052 0.49607 0.0
C3732 C 0.86703 0.52305 0.50736 0.0
C3733 C 0.87726 0.52602 0.52129 0.0
C3734 C 0.8875 0.51644 0.52398 0.0
C3735 C 0.96433 0.5044 0.50232 0.0
C3736 C 0.97341 0.51414 0.51542 0.0
C3737 C 0.94861 0.49729 0.50315 0.0
C3738 C 0.94201 0.50005 0.517 0.0
C3739 C 0.95079 0.5104 0.52979 0.0
C3740 C 0.96657 0.51739 0.52904 0.0
C3741 C 0.92578 0.4921 0.51795 0.0
C3742 C 0.91483 0.50118 0.51752 0.0
C3743 C 0.92094 0.47554 0.5171 0.0
C3744 C 0.93239 0.4656 0.51724 0.0
C3745 C 0.94499 0.46859 0.5293 0.0
C3746 C 0.95592 0.45943 0.52913 0.0
C3747 C 0.95433 0.44718 0.51699 0.0
C3748 C 0.94177 0.44402 0.50504 0.0
C3749 C 0.93082 0.45315 0.50514 0.0
H3750 H 0.96281 0.44012 0.51687 0.0
H3751 H 0.85914 0.5305 0.50528 0.0
H3752 H 0.31839 0.06263 0.26436 0.0
H3753 H 0.3065 0.08415 0.25869 0.0
H3754 H 0.3435 0.11691 0.29052 0.0
H3755 H 0.35488 0.09528 0.29672 0.0
H3756 H 0.31709 0.12419 0.29286 0.0
H3757 H 0.34478 0.11064 0.2499 0.0
H3758 H 0.35068 0.09256 0.22888 0.0
H3759 H 0.30339 0.08395 0.20611 0.0
H3760 H 0.29711 0.10177 0.22715 0.0
H3761 H 0.31092 0.1948 0.26425 0.0
H3762 H 0.32231 0.17272 0.26874 0.0
H3763 H 0.2808 0.1402 0.24305 0.0
H3764 H 0.26909 0.16203 0.23894 0.0
H3765 H 0.30933 0.13274 0.23705 0.0
H3766 H 0.28216 0.14642 0.28071 0.0
H3767 H 0.27642 0.16357 0.30264 0.0
H3768 H 0.32403 0.17186 0.32449 0.0
H3769 H 0.33014 0.155 0.30253 0.0
C3770 C 0.32368 0.0744 0.27037 0.0
C3771 C 0.33747 0.07749 0.28091 0.0
C3772 C 0.31702 0.08666 0.26703 0.0
C3773 C 0.3244 0.10215 0.27386 0.0
C3774 C 0.3377 0.10504 0.28507 0.0
C3775 C 0.34415 0.09274 0.28864 0.0
C3776 C 0.31873 0.11552 0.26898 0.0
C3777 C 0.31561 0.12618 0.28067 0.0
C3778 C 0.31656 0.1179 0.25302 0.0
C3779 C 0.32044 0.10744 0.24018 0.0
C3780 C 0.33561 0.10483 0.24045 0.0
C3781 C 0.33903 0.09463 0.22854 0.0
C3782 C 0.32741 0.08709 0.21618 0.0
C3783 C 0.31237 0.08978 0.21569 0.0
C3784 C 0.30888 0.09994 0.22761 0.0
C3785 C 0.30425 0.18295 0.25949 0.0
C3786 C 0.28899 0.18012 0.25147 0.0
C3787 C 0.31081 0.1704 0.26198 0.0
C3788 C 0.30224 0.1549 0.2564 0.0
C3789 C 0.28753 0.15213 0.24744 0.0
C3790 C 0.28091 0.16463 0.24506 0.0
C3791 C 0.30794 0.14147 0.26098 0.0
C3792 C 0.31097 0.13078 0.24922 0.0
C3793 C 0.31022 0.13913 0.2769 0.0
C3794 C 0.30667 0.14965 0.28985 0.0
C3795 C 0.29147 0.15209 0.29007 0.0
C3796 C 0.28813 0.16172 0.30253 0.0
C3797 C 0.29987 0.16885 0.31492 0.0
C3798 C 0.31497 0.16638 0.31486 0.0
C3799 C 0.31837 0.15681 0.3024 0.0
H3800 H 0.29724 0.17625 0.32459 0.0
H3801 H 0.33007 0.07918 0.20698 0.0
H3802 H 0.35838 0.16111 0.52756 0.0
H3803 H 0.37862 0.1464 0.53077 0.0
H3804 H 0.3453 0.10409 0.50755 0.0
H3805 H 0.32519 0.11885 0.50399 0.0
H3806 H 0.36141 0.1005 0.53666 0.0
H3807 H 0.37247 0.12049 0.48805 0.0
H3808 H 0.37871 0.14073 0.47024 0.0
H3809 H 0.42173 0.16366 0.49993 0.0
H3810 H 0.41561 0.14365 0.51806 0.0
H3811 H 0.40798 0.04859 0.51485 0.0
H3812 H 0.3902 0.06593 0.51653 0.0
H3813 H 0.42892 0.10431 0.53876 0.0
H3814 H 0.44682 0.08681 0.53733 0.0
H3815 H 0.41162 0.11183 0.51265 0.0
H3816 H 0.4014 0.09063 0.56034 0.0
H3817 H 0.39498 0.07032 0.57808 0.0
H3818 H 0.35041 0.04964 0.5501 0.0
H3819 H 0.35663 0.06972 0.53209 0.0
C3820 C 0.35546 0.14868 0.52309 0.0
C3821 C 0.34028 0.14107 0.51553 0.0
C3822 C 0.367 0.14033 0.52488 0.0
C3823 C 0.36345 0.12416 0.5194 0.0
C3824 C 0.34827 0.11655 0.51186 0.0
C3825 C 0.33684 0.12498 0.50978 0.0
C3826 C 0.37542 0.11507 0.52186 0.0
C3827 C 0.37233 0.10287 0.5313 0.0
C3828 C 0.38988 0.11852 0.51526 0.0
C3829 C 0.39346 0.1307 0.50453 0.0
C3830 C 0.38316 0.12996 0.4909 0.0
C3831 C 0.3867 0.14136 0.48071 0.0
C3832 C 0.40058 0.15351 0.48399 0.0
C3833 C 0.41096 0.15426 0.49744 0.0
C3834 C 0.40746 0.1429 0.50767 0.0
C3835 C 0.41268 0.06068 0.52024 0.0
C3836 C 0.42882 0.06639 0.5258 0.0
C3837 C 0.4025 0.07056 0.52127 0.0
C3838 C 0.40822 0.08642 0.52776 0.0
C3839 C 0.42426 0.0921 0.5337 0.0
C3840 C 0.43445 0.0821 0.53292 0.0
C3841 C 0.39752 0.0971 0.5273 0.0
C3842 C 0.40081 0.10958 0.51819 0.0
C3843 C 0.38323 0.09392 0.53419 0.0
C3844 C 0.37956 0.08159 0.54478 0.0
C3845 C 0.3903 0.08164 0.55787 0.0
C3846 C 0.38668 0.0702 0.568 0.0
C3847 C 0.37231 0.05867 0.5652 0.0
C3848 C 0.36154 0.05857 0.55225 0.0
C3849 C 0.3651 0.06999 0.54209 0.0
H3850 H 0.36952 0.04984 0.57307 0.0
H3851 H 0.40332 0.16231 0.47607 0.0
H3852 H 0.69097 0.59892 0.28249 0.0
H3853 H 0.70868 0.62502 0.28205 0.0
H3854 H 0.66881 0.64221 0.26625 0.0
H3855 H 0.6512 0.61603 0.26623 0.0
H3856 H 0.69112 0.65251 0.2501 0.0
H3857 H 0.6887 0.65126 0.3052 0.0
H3858 H 0.6909 0.64117 0.3307 0.0
H3859 H 0.74023 0.64495 0.32811 0.0
H3860 H 0.73828 0.65486 0.30247 0.0
H3861 H 0.72486 0.73501 0.27064 0.0
H3862 H 0.70979 0.70792 0.27161 0.0
H3863 H 0.75245 0.69221 0.27048 0.0
H3864 H 0.76766 0.71936 0.2691 0.0
H3865 H 0.73051 0.68097 0.29486 0.0
H3866 H 0.73183 0.68371 0.23939 0.0
H3867 H 0.72852 0.69546 0.21498 0.0
H3868 H 0.67937 0.69038 0.21984 0.0
H3869 H 0.68246 0.67884 0.24444 0.0
C3870 C 0.686 0.60831 0.27902 0.0
C3871 C 0.6697 0.60542 0.27436 0.0
C3872 C 0.69612 0.62326 0.27883 0.0
C3873 C 0.69011 0.63572 0.27429 0.0
C3874 C 0.6738 0.63283 0.26975 0.0
C3875 C 0.66372 0.61785 0.26972 0.0
C3876 C 0.70078 0.65164 0.27375 0.0
C3877 C 0.69959 0.65875 0.25999 0.0
C3878 C 0.71214 0.65976 0.2865 0.0
C3879 C 0.7133 0.65361 0.30182 0.0
C3880 C 0.69998 0.64979 0.30999 0.0
C3881 C 0.70119 0.64413 0.32449 0.0
C3882 C 0.71568 0.64237 0.331 0.0
C3883 C 0.72901 0.64628 0.32303 0.0
C3884 C 0.72786 0.65193 0.30852 0.0
C3885 C 0.73108 0.72582 0.27064 0.0
C3886 C 0.74746 0.72932 0.26977 0.0
C3887 C 0.72243 0.71035 0.27116 0.0
C3888 C 0.73001 0.6981 0.27109 0.0
C3889 C 0.74641 0.70154 0.27054 0.0
C3890 C 0.75505 0.71701 0.26968 0.0
C3891 C 0.72063 0.6817 0.27134 0.0
C3892 C 0.72207 0.67458 0.285 0.0
C3893 C 0.70931 0.67366 0.25865 0.0
C3894 C 0.70742 0.68056 0.24384 0.0
C3895 C 0.72035 0.68524 0.23534 0.0
C3896 C 0.71851 0.69184 0.22145 0.0
C3897 C 0.70376 0.6937 0.21589 0.0
C3898 C 0.6908 0.68895 0.22418 0.0
C3899 C 0.69259 0.68237 0.23809 0.0
H3900 H 0.70235 0.6988 0.20513 0.0
H3901 H 0.7166 0.63801 0.34223 0.0
H3902 H 0.84771 0.44418 0.76593 0.0
H3903 H 0.84338 0.41841 0.77425 0.0
H3904 H 0.79297 0.41077 0.76294 0.0
H3905 H 0.79731 0.43756 0.75526 0.0
H3906 H 0.79938 0.40302 0.79074 0.0
H3907 H 0.81414 0.39142 0.74036 0.0
H3908 H 0.82942 0.39424 0.71772 0.0
H3909 H 0.8699 0.38826 0.74565 0.0
H3910 H 0.85491 0.38561 0.76856 0.0
H3911 H 0.77405 0.32818 0.75786 0.0
H3912 H 0.78794 0.35601 0.76404 0.0
H3913 H 0.81478 0.34586 0.80433 0.0
H3914 H 0.80034 0.31781 0.79839 0.0
H3915 H 0.82788 0.36388 0.77194 0.0
H3916 H 0.80397 0.36805 0.82033 0.0
H3917 H 0.78139 0.35682 0.83438 0.0
H3918 H 0.74972 0.36912 0.79997 0.0
H3919 H 0.7721 0.38028 0.78565 0.0
C3920 C 0.8357 0.43684 0.76466 0.0
C3921 C 0.82278 0.44252 0.75954 0.0
C3922 C 0.83327 0.42217 0.76953 0.0
C3923 C 0.81793 0.41274 0.76898 0.0
C3924 C 0.80491 0.41806 0.76337 0.0
C3925 C 0.80734 0.4331 0.7588 0.0
C3926 C 0.81576 0.39764 0.77504 0.0
C3927 C 0.80567 0.3945 0.7867 0.0
C3928 C 0.82429 0.38677 0.76994 0.0
C3929 C 0.83348 0.38859 0.75626 0.0
C3930 C 0.82636 0.3909 0.74174 0.0
C3931 C 0.83495 0.39242 0.72884 0.0
C3932 C 0.85065 0.39151 0.73027 0.0
C3933 C 0.85776 0.38902 0.74459 0.0
C3934 C 0.84922 0.38751 0.75754 0.0
C3935 C 0.78264 0.33204 0.7682 0.0
C3936 C 0.78623 0.32136 0.77781 0.0
C3937 C 0.79056 0.34771 0.77167 0.0
C3938 C 0.80226 0.3526 0.78455 0.0
C3939 C 0.80568 0.34201 0.79442 0.0
C3940 C 0.79744 0.32626 0.79112 0.0
C3941 C 0.81086 0.36898 0.78675 0.0
C3942 C 0.82241 0.37286 0.77666 0.0
C3943 C 0.80291 0.38002 0.79247 0.0
C3944 C 0.78975 0.37526 0.8021 0.0
C3945 C 0.79221 0.36858 0.81592 0.0
C3946 C 0.77944 0.36214 0.82387 0.0
C3947 C 0.76414 0.36234 0.81812 0.0
C3948 C 0.7616 0.3691 0.80448 0.0
C3949 C 0.77434 0.37557 0.79649 0.0
H3950 H 0.75424 0.35718 0.82419 0.0
H3951 H 0.85728 0.39267 0.72027 0.0
H3952 H 0.01908 0.86408 0.07065 0.0
H3953 H 0.01634 0.88766 0.05949 0.0
H3954 H 0.05505 0.88587 0.03261 0.0
H3955 H 0.05749 0.86173 0.04316 0.0
H3956 H 0.05792 0.91572 0.04915 0.0
H3957 H 0.01891 0.8776 0.01333 0.0
H3958 H 0.9957 0.8549 0.00589 0.0
H3959 H 0.96697 0.87984 0.03049 0.0
H3960 H 0.99004 0.90265 0.03819 0.0
H3961 H 0.0493 0.98253 0.01207 0.0
H3962 H 0.05203 0.9563 0.01671 0.0
H3963 H 0.00769 0.94706 0.0364 0.0
H3964 H 0.00458 0.97279 0.03109 0.0
H3965 H 0.00847 0.92154 0.02097 0.0
H3966 H 0.04686 0.95917 0.0578 0.0
H3967 H 0.07001 0.98138 0.06733 0.0
H3968 H 0.09996 0.95704 0.04396 0.0
H3969 H 0.0769 0.93504 0.03364 0.0
C3970 C 0.02684 0.86836 0.06211 0.0
C3971 C 0.03852 0.86072 0.05789 0.0
C3972 C 0.02528 0.88201 0.05576 0.0
C3973 C 0.03542 0.88858 0.04511 0.0
C3974 C 0.04708 0.88108 0.04083 0.0
C3975 C 0.04853 0.86728 0.04701 0.0
C3976 C 0.03427 0.90369 0.03914 0.0
C3977 C 0.04722 0.91695 0.0427 0.0
C3978 C 0.02016 0.90544 0.03112 0.0
C3979 C 0.00624 0.89179 0.02644 0.0
C3980 C 0.00766 0.8782 0.01724 0.0
C3981 C 0.99453 0.86533 0.01295 0.0
C3982 C 0.97988 0.86591 0.01774 0.0
C3983 C 0.97833 0.8794 0.02679 0.0
C3984 C 0.99142 0.89232 0.03109 0.0
C3985 C 0.04011 0.97488 0.01734 0.0
C3986 C 0.02674 0.97988 0.02125 0.0
C3987 C 0.04171 0.95984 0.02008 0.0
C3988 C 0.03021 0.94958 0.02721 0.0
C3989 C 0.01677 0.95456 0.03088 0.0
C3990 C 0.01503 0.96941 0.02788 0.0
C3991 C 0.03213 0.93384 0.03118 0.0
C3992 C 0.01929 0.9204 0.02726 0.0
C3993 C 0.04631 0.93198 0.03909 0.0
C3994 C 0.06009 0.94554 0.04475 0.0
C3995 C 0.05834 0.95868 0.05445 0.0
C3996 C 0.07145 0.97125 0.05998 0.0
C3997 C 0.08644 0.97067 0.05618 0.0
C3998 C 0.08833 0.95755 0.04678 0.0
C3999 C 0.07523 0.94507 0.04101 0.0
H4000 H 0.0966 0.98037 0.06055 0.0
H4001 H 0.96973 0.85593 0.01442 0.0
H4002 H 0.91574 0.23815 0.86616 0.0
H4003 H 0.89195 0.23877 0.84963 0.0
H4004 H 0.89681 0.28677 0.86962 0.0
H4005 H 0.91994 0.28593 0.88689 0.0
H4006 H 0.86702 0.27204 0.8664 0.0
H4007 H 0.9078 0.27467 0.83098 0.0
H4008 H 0.92798 0.2646 0.81809 0.0
H4009 H 0.89318 0.22167 0.79973 0.0
H4010 H 0.87283 0.23143 0.81264 0.0
H4011 H 0.81401 0.29365 0.81113 0.0
H4012 H 0.83687 0.2913 0.82823 0.0
H4013 H 0.83411 0.24596 0.80233 0.0
H4014 H 0.81216 0.24909 0.78448 0.0
H4015 H 0.86236 0.25796 0.80878 0.0
H4016 H 0.82166 0.25319 0.84269 0.0
H4017 H 0.80025 0.2609 0.85565 0.0
H4018 H 0.83276 0.30413 0.87723 0.0
H4019 H 0.85432 0.29673 0.86431 0.0
C4020 C 0.91171 0.24881 0.86727 0.0
C4021 C 0.92012 0.26203 0.87796 0.0
C4022 C 0.89811 0.24923 0.85755 0.0
C4023 C 0.89257 0.26295 0.85798 0.0
C4024 C 0.90075 0.27603 0.86883 0.0
C4025 C 0.91422 0.27558 0.87865 0.0
C4026 C 0.87833 0.26382 0.84727 0.0
C4027 C 0.86612 0.26911 0.85378 0.0
C4028 C 0.87662 0.25946 0.83079 0.0
C4029 C 0.88884 0.25373 0.82288 0.0
C4030 C 0.90448 0.26306 0.82425 0.0
C4031 C 0.91594 0.25741 0.81693 0.0
C4032 C 0.91187 0.2425 0.80812 0.0
C4033 C 0.89632 0.23322 0.80657 0.0
C4034 C 0.88482 0.23881 0.81386 0.0
C4035 C 0.8183 0.28319 0.80915 0.0
C4036 C 0.81124 0.27153 0.79651 0.0
C4037 C 0.83134 0.28173 0.81906 0.0
C4038 C 0.83723 0.26821 0.81704 0.0
C4039 C 0.83003 0.25655 0.80434 0.0
C4040 C 0.81737 0.25828 0.79412 0.0
C4041 C 0.851 0.26633 0.82786 0.0
C4042 C 0.86315 0.26084 0.82139 0.0
C4043 C 0.85244 0.27011 0.84443 0.0
C4044 C 0.83958 0.27445 0.85246 0.0
C4045 C 0.82422 0.26436 0.85017 0.0
C4046 C 0.81206 0.26867 0.85751 0.0
C4047 C 0.81514 0.283 0.86724 0.0
C4048 C 0.8304 0.29303 0.8697 0.0
C4049 C 0.8426 0.28877 0.8624 0.0
H4050 H 0.80571 0.28633 0.87288 0.0
H4051 H 0.92077 0.23814 0.80249 0.0
H4052 H 0.5482 0.20089 0.57405 0.0
H4053 H 0.54598 0.17342 0.56442 0.0
H4054 H 0.5202 0.17834 0.52115 0.0
H4055 H 0.52222 0.20605 0.53091 0.0
H4056 H 0.50748 0.15005 0.53098 0.0
H4057 H 0.55889 0.1777 0.52161 0.0
H4058 H 0.585 0.1967 0.52808 0.0
H4059 H 0.59661 0.17078 0.56493 0.0
H4060 H 0.5705 0.1517 0.55878 0.0
H4061 H 0.51547 0.07457 0.50002 0.0
H4062 H 0.5173 0.10292 0.50324 0.0
H4063 H 0.54575 0.10818 0.54783 0.0
H4064 H 0.54457 0.07992 0.54411 0.0
H4065 H 0.55679 0.13208 0.53316 0.0
H4066 H 0.50352 0.10504 0.54265 0.0
H4067 H 0.47764 0.08594 0.53463 0.0
H4068 H 0.46955 0.11073 0.49567 0.0
H4069 H 0.49547 0.12984 0.50333 0.0
C4070 C 0.54218 0.19623 0.56242 0.0
C4071 C 0.53564 0.20579 0.55315 0.0
C4072 C 0.54088 0.18046 0.55692 0.0
C4073 C 0.5332 0.17383 0.54191 0.0
C4074 C 0.52625 0.18318 0.53274 0.0
C4075 C 0.52744 0.19902 0.53832 0.0
C4076 C 0.53285 0.15723 0.53595 0.0
C4077 C 0.51827 0.14615 0.53122 0.0
C4078 C 0.54689 0.15206 0.53622 0.0
C4079 C 0.56272 0.16333 0.53978 0.0
C4080 C 0.56699 0.17609 0.53113 0.0
C4081 C 0.58179 0.18687 0.53474 0.0
C4082 C 0.59245 0.18496 0.54692 0.0
C4083 C 0.58835 0.17224 0.55549 0.0
C4084 C 0.57357 0.16142 0.55193 0.0
C4085 C 0.52234 0.0819 0.51035 0.0
C4086 C 0.53002 0.07522 0.52176 0.0
C4087 C 0.52323 0.09806 0.51229 0.0
C4088 C 0.53135 0.10772 0.52597 0.0
C4089 C 0.53937 0.10102 0.53719 0.0
C4090 C 0.53876 0.08491 0.53507 0.0
C4091 C 0.5314 0.12472 0.5288 0.0
C4092 C 0.54597 0.13593 0.53284 0.0
C4093 C 0.51734 0.12996 0.52771 0.0
C4094 C 0.5015 0.1188 0.52349 0.0
C4095 C 0.49623 0.1064 0.53236 0.0
C4096 C 0.48157 0.09556 0.52787 0.0
C4097 C 0.47199 0.09709 0.51462 0.0
C4098 C 0.47699 0.10954 0.50591 0.0
C4099 C 0.49166 0.12039 0.51033 0.0
H4100 H 0.46068 0.08864 0.5111 0.0
H4101 H 0.60389 0.19334 0.54972 0.0
H4102 H 0.55828 0.76221 0.36233 0.0
H4103 H 0.5813 0.76516 0.34791 0.0
H4104 H 0.6109 0.79269 0.38867 0.0
H4105 H 0.58776 0.78997 0.40312 0.0
H4106 H 0.61996 0.80539 0.36374 0.0
H4107 H 0.60982 0.75228 0.37647 0.0
H4108 H 0.59353 0.72538 0.37755 0.0
H4109 H 0.58436 0.71779 0.32728 0.0
H4110 H 0.60046 0.74471 0.32592 0.0
H4111 H 0.69201 0.80213 0.33177 0.0
H4112 H 0.67026 0.80065 0.34797 0.0
H4113 H 0.63871 0.76839 0.3111 0.0
H4114 H 0.66071 0.76911 0.29545 0.0
H4115 H 0.6313 0.75828 0.33561 0.0
H4116 H 0.64094 0.81176 0.32273 0.0
H4117 H 0.65643 0.839 0.32175 0.0
H4118 H 0.66608 0.84632 0.37199 0.0
H4119 H 0.6508 0.81907 0.37325 0.0
C4120 C 0.56968 0.76881 0.36832 0.0
C4121 C 0.57105 0.77572 0.38401 0.0
C4122 C 0.58294 0.77048 0.36002 0.0
C4123 C 0.59809 0.77889 0.36719 0.0
C4124 C 0.59945 0.78609 0.38277 0.0
C4125 C 0.58615 0.78454 0.39105 0.0
C4126 C 0.61239 0.78013 0.35844 0.0
C4127 C 0.62254 0.79505 0.35775 0.0
C4128 C 0.61579 0.76677 0.35031 0.0
C4129 C 0.60625 0.75053 0.35111 0.0
C4130 C 0.60426 0.74489 0.36566 0.0
C4131 C 0.59508 0.72964 0.36632 0.0
C4132 C 0.58789 0.71989 0.35249 0.0
C4133 C 0.58992 0.72536 0.33798 0.0
C4134 C 0.5991 0.7406 0.33725 0.0
C4135 C 0.68041 0.79473 0.32715 0.0
C4136 C 0.67814 0.78571 0.3123 0.0
C4137 C 0.66786 0.79399 0.33638 0.0
C4138 C 0.6525 0.78464 0.33081 0.0
C4139 C 0.6503 0.7757 0.31589 0.0
C4140 C 0.66292 0.77612 0.30687 0.0
C4141 C 0.63881 0.78363 0.34052 0.0
C4142 C 0.62878 0.76869 0.3415 0.0
C4143 C 0.63552 0.79701 0.34886 0.0
C4144 C 0.64488 0.81332 0.34806 0.0
C4145 C 0.64647 0.81914 0.33355 0.0
C4146 C 0.6552 0.83459 0.33295 0.0
C4147 C 0.66227 0.84437 0.34679 0.0
C4148 C 0.66063 0.83873 0.36127 0.0
C4149 C 0.65193 0.82329 0.36194 0.0
H4150 H 0.669 0.85633 0.3463 0.0
H4151 H 0.58077 0.7081 0.35303 0.0
H4152 H 0.0354 0.21373 0.3913 0.0
H4153 H 0.03191 0.19105 0.4061 0.0
H4154 H 1.00098 0.20997 0.43412 0.0
H4155 H 0.00436 0.23264 0.4193 0.0
H4156 H 0.02355 0.19984 0.45219 0.0
H4157 H 0.98531 0.17961 0.40774 0.0
H4158 H 0.97526 0.17352 0.37964 0.0
H4159 H 0.00675 0.14378 0.37277 0.0
H4160 H 0.0172 0.1499 0.40081 0.0
H4161 H 0.99738 0.1328 0.49101 0.0
H4162 H 0.99812 0.15419 0.47509 0.0
H4163 H 0.02436 0.13337 0.44287 0.0
H4164 H 0.023 0.11142 0.45838 0.0
H4165 H 0.00337 0.14457 0.42677 0.0
H4166 H 0.04222 0.16596 0.47153 0.0
H4167 H 0.05199 0.17248 0.4997 0.0
H4168 H 0.01874 0.2004 0.50598 0.0
H4169 H 0.00863 0.19387 0.47787 0.0
C4170 C 0.02788 0.21309 0.40063 0.0
C4171 C 0.02018 0.22506 0.40409 0.0
C4172 C 0.02581 0.20005 0.40903 0.0
C4173 C 0.01612 0.19869 0.42122 0.0
C4174 C 0.0085 0.21068 0.42478 0.0
C4175 C 0.01038 0.22362 0.41622 0.0
C4176 C 0.0142 0.18495 0.43043 0.0
C4177 C 0.01893 0.18777 0.44665 0.0
C4178 C 0.00844 0.16913 0.42323 0.0
C4179 C 0.00218 0.16537 0.40636 0.0
C4180 C 0.99022 0.17189 0.40022 0.0
C4181 C 0.98442 0.16841 0.3843 0.0
C4182 C 0.9904 0.15831 0.37442 0.0
C4183 C 0.00216 0.15163 0.38044 0.0
C4184 C 0.00801 0.1551 0.39635 0.0
C4185 C 0.00315 0.13256 0.48044 0.0
C4186 C 0.01017 0.12023 0.47613 0.0
C4187 C 0.00373 0.145 0.47139 0.0
C4188 C 0.01156 0.14569 0.45784 0.0
C4189 C 0.01833 0.13327 0.4533 0.0
C4190 C 0.01769 0.12075 0.46232 0.0
C4191 C 0.01287 0.15943 0.44858 0.0
C4192 C 0.008 0.15663 0.43233 0.0
C4193 C 0.01847 0.1753 0.45576 0.0
C4194 C 0.02458 0.1793 0.47264 0.0
C4195 C 0.03692 0.1734 0.47895 0.0
C4196 C 0.04253 0.17711 0.4949 0.0
C4197 C 0.03596 0.18682 0.50463 0.0
C4198 C 0.0238 0.19286 0.49843 0.0
C4199 C 0.01814 0.18917 0.48249 0.0
H4200 H 0.04032 0.18968 0.51698 0.0
H4201 H 0.9859 0.15562 0.3621 0.0
H4202 H 0.59593 0.24853 0.19832 0.0
H4203 H 0.62334 0.25006 0.20747 0.0
H4204 H 0.61875 0.27511 0.25172 0.0
H4205 H 0.59117 0.2738 0.24245 0.0
H4206 H 0.64664 0.28765 0.24352 0.0
H4207 H 0.61934 0.23614 0.24895 0.0
H4208 H 0.60061 0.20997 0.24202 0.0
H4209 H 0.62711 0.19928 0.20472 0.0
H4210 H 0.64589 0.2255 0.21129 0.0
H4211 H 0.72083 0.27744 0.27448 0.0
H4212 H 0.69229 0.27467 0.27045 0.0
H4213 H 0.69084 0.25373 0.2227 0.0
H4214 H 0.71942 0.25591 0.22704 0.0
H4215 H 0.66542 0.23901 0.23632 0.0
H4216 H 0.6931 0.29458 0.23417 0.0
H4217 H 0.71229 0.31889 0.24716 0.0
H4218 H 0.68417 0.32025 0.28529 0.0
H4219 H 0.66497 0.29583 0.27267 0.0
C4220 C 0.60066 0.25423 0.21007 0.0
C4221 C 0.59122 0.26082 0.21972 0.0
C4222 C 0.61639 0.25512 0.2153 0.0
C4223 C 0.62313 0.26242 0.23044 0.0
C4224 C 0.61387 0.26935 0.24002 0.0
C4225 C 0.59808 0.26858 0.23471 0.0
C4226 C 0.63978 0.2626 0.23605 0.0
C4227 C 0.65067 0.27697 0.24209 0.0
C4228 C 0.64515 0.24867 0.23455 0.0
C4229 C 0.63395 0.23285 0.23053 0.0
C4230 C 0.62111 0.22826 0.23919 0.0
C4231 C 0.6105 0.21341 0.23534 0.0
C4232 C 0.61265 0.20299 0.22291 0.0
C4233 C 0.62545 0.20738 0.21433 0.0
C4234 C 0.6361 0.22223 0.21813 0.0
C4235 C 0.71433 0.2721 0.26318 0.0
C4236 C 0.7222 0.26694 0.25103 0.0
C4237 C 0.69806 0.27061 0.26085 0.0
C4238 C 0.68941 0.26436 0.24614 0.0
C4239 C 0.69725 0.2587 0.23412 0.0
C4240 C 0.71354 0.25996 0.23656 0.0
C4241 C 0.67235 0.26411 0.24309 0.0
C4242 C 0.66136 0.24968 0.23766 0.0
C4243 C 0.66684 0.27789 0.24576 0.0
C4244 C 0.67766 0.29332 0.25253 0.0
C4245 C 0.69099 0.30011 0.24529 0.0
C4246 C 0.7019 0.31386 0.25262 0.0
C4247 C 0.6995 0.32102 0.2671 0.0
C4248 C 0.68604 0.31464 0.27412 0.0
C4249 C 0.67513 0.30086 0.26687 0.0
H4250 H 0.70805 0.33151 0.27289 0.0
H4251 H 0.60441 0.19149 0.21994 0.0
H4252 H 0.51025 0.8694 0.90947 0.0
H4253 H 0.50918 0.89288 0.92619 0.0
H4254 H 0.56007 0.90817 0.93253 0.0
H4255 H 0.56131 0.88397 0.91665 0.0
H4256 H 0.54971 0.91451 0.95921 0.0
H4257 H 0.5351 0.92406 0.90643 0.0
H4258 H 0.51953 0.91821 0.88032 0.0
H4259 H 0.47701 0.91697 0.90173 0.0
H4260 H 0.4923 0.92266 0.92796 0.0
H4261 H 0.55208 0.99267 0.99265 0.0
H4262 H 0.55509 0.96919 0.97676 0.0
H4263 H 0.50449 0.95412 0.96424 0.0
H4264 H 0.50179 0.97835 0.97903 0.0
H4265 H 0.51584 0.94784 0.94043 0.0
H4266 H 0.52962 0.93763 0.99324 0.0
H4267 H 0.54461 0.94283 0.01961 0.0
H4268 H 0.5877 0.94458 -0.00089 0.0
H4269 H 0.57299 0.93953 0.97262 0.0
C4270 C 0.52129 0.87754 0.91457 0.0
C4271 C 0.53589 0.87456 0.91161 0.0
C4272 C 0.52064 0.89121 0.92399 0.0
C4273 C 0.53453 0.90262 0.93044 0.0
C4274 C 0.54914 0.89968 0.92764 0.0
C4275 C 0.54982 0.88585 0.91836 0.0
C4276 C 0.53374 0.91752 0.94008 0.0
C4277 C 0.54244 0.92191 0.95503 0.0
C4278 C 0.52399 0.92708 0.93491 0.0
C4279 C 0.51483 0.92367 0.91914 0.0
C4280 C 0.52242 0.92245 0.90556 0.0
C4281 C 0.51364 0.91918 0.89074 0.0
C4282 C 0.49729 0.91719 0.88937 0.0
C4283 C 0.48967 0.9185 0.90281 0.0
C4284 C 0.49839 0.92177 0.91764 0.0
C4285 C 0.54165 0.98435 0.98637 0.0
C4286 C 0.52672 0.98736 0.98693 0.0
C4287 C 0.54332 0.97076 0.97745 0.0
C4288 C 0.53 0.95945 0.96945 0.0
C4289 C 0.51504 0.96253 0.97016 0.0
C4290 C 0.51345 0.97641 0.97861 0.0
C4291 C 0.53155 0.9448 0.95981 0.0
C4292 C 0.52306 0.94047 0.94476 0.0
C4293 C 0.54138 0.93524 0.965 0.0
C4294 C 0.55021 0.93836 0.98094 0.0
C4295 C 0.5423 0.93923 0.99436 0.0
C4296 C 0.55075 0.94213 0.00932 0.0
C4297 C 0.5671 0.94407 0.01103 0.0
C4298 C 0.57504 0.94309 0.99777 0.0
C4299 C 0.56665 0.94019 0.98278 0.0
H4300 H 0.57361 0.94631 0.02262 0.0
H4301 H 0.49052 0.91466 0.87789 0.0
H4302 H 0.91975 0.74396 0.69695 0.0
H4303 H 0.89521 0.74666 0.70721 0.0
H4304 H 0.92206 0.77233 0.75019 0.0
H4305 H 0.94671 0.77002 0.73972 0.0
H4306 H 0.8929 0.74913 0.75449 0.0
H4307 H 0.91082 0.79315 0.72696 0.0
H4308 H 0.921 0.80615 0.70464 0.0
H4309 H 0.87857 0.78129 0.67497 0.0
H4310 H 0.86825 0.76789 0.69707 0.0
H4311 H 0.83052 0.78463 0.7783 0.0
H4312 H 0.85627 0.78153 0.77125 0.0
H4313 H 0.8332 0.75323 0.72796 0.0
H4314 H 0.80744 0.75572 0.73533 0.0
H4315 H 0.86138 0.77889 0.72524 0.0
H4316 H 0.84377 0.73462 0.75322 0.0
H4317 H 0.83405 0.72164 0.77572 0.0
H4318 H 0.8763 0.74757 0.80508 0.0
H4319 H 0.88615 0.76096 0.7828 0.0
C4320 C 0.92039 0.75004 0.70864 0.0
C4321 C 0.93513 0.7568 0.71752 0.0
C4322 C 0.90637 0.7516 0.71451 0.0
C4323 C 0.90673 0.75973 0.72949 0.0
C4324 C 0.92143 0.76599 0.73863 0.0
C4325 C 0.93551 0.76472 0.73262 0.0
C4326 C 0.89184 0.7625 0.73507 0.0
C4327 C 0.88613 0.75583 0.74823 0.0
C4328 C 0.88286 0.77111 0.72687 0.0
C4329 C 0.88883 0.77939 0.71363 0.0
C4330 C 0.9037 0.79036 0.71564 0.0
C4331 C 0.9095 0.79781 0.70304 0.0
C4332 C 0.90045 0.79452 0.68838 0.0
C4333 C 0.88557 0.78381 0.68633 0.0
C4334 C 0.87974 0.77629 0.69889 0.0
C4335 C 0.83098 0.77766 0.76735 0.0
C4336 C 0.817 0.77029 0.75742 0.0
C4337 C 0.84568 0.7759 0.76332 0.0
C4338 C 0.84671 0.76714 0.74905 0.0
C4339 C 0.83273 0.76001 0.73902 0.0
C4340 C 0.81802 0.76136 0.74328 0.0
C4341 C 0.86231 0.76535 0.74453 0.0
C4342 C 0.86817 0.77226 0.73156 0.0
C4343 C 0.87144 0.75704 0.75298 0.0
C4344 C 0.8656 0.74897 0.76639 0.0
C4345 C 0.85092 0.7377 0.76452 0.0
C4346 C 0.84539 0.73024 0.77722 0.0
C4347 C 0.85453 0.73382 0.79184 0.0
C4348 C 0.86922 0.74484 0.79376 0.0
C4349 C 0.87478 0.75237 0.78109 0.0
H4350 H 0.85024 0.72802 0.80166 0.0
H4351 H 0.90497 0.80029 0.67862 0.0
H4352 H 0.08622 0.04108 0.85692 0.0
H4353 H 0.07585 0.04007 0.88224 0.0
H4354 H 0.04073 0.99711 0.86378 0.0
H4355 H 0.0509 0.99817 0.83818 0.0
H4356 H 0.02888 0.0186 0.88318 0.0
H4357 H 0.0716 0.99381 0.88507 0.0
H4358 H 0.0986 0.99165 0.88178 0.0
H4359 H 0.11782 0.03294 0.91526 0.0
H4360 H 0.09093 0.0355 0.91856 0.0
H4361 H 0.01214 0.00082 0.96061 0.0
H4362 H 0.01825 0.99926 0.93341 0.0
H4363 H 0.0587 0.03911 0.94631 0.0
H4364 H 0.05286 0.04061 0.97344 0.0
H4365 H 0.06643 0.01646 0.92881 0.0
H4366 H 0.02401 0.04215 0.92612 0.0
H4367 H 0.99716 0.04505 0.92895 0.0
H4368 H 0.97735 0.00271 0.89702 0.0
H4369 H 0.00409 0.99943 0.89417 0.0
C4370 C 0.07612 0.03154 0.85812 0.0
C4371 C 0.06943 0.01967 0.84551 0.0
C4372 C 0.07028 0.03093 0.87265 0.0
C4373 C 0.05762 0.01844 0.87494 0.0
C4374 C 0.05053 0.00684 0.86227 0.0
C4375 C 0.05644 0.00739 0.8477 0.0
C4376 C 0.05242 0.01723 0.8908 0.0
C4377 C 0.03698 0.01788 0.89314 0.0
C4378 C 0.06307 0.0165 0.90381 0.0
C4379 C 0.07926 0.01491 0.90196 0.0
C4380 C 0.08159 0.0025 0.89164 0.0
C4381 C 0.09688 0.00119 0.88979 0.0
C4382 C 0.10992 0.01217 0.89828 0.0
C4383 C 0.10771 0.02445 0.90868 0.0
C4384 C 0.09245 0.02583 0.91055 0.0
C4385 C 0.02235 0.00924 0.95766 0.0
C4386 C 0.03204 0.02081 0.96925 0.0
C4387 C 0.02576 0.0084 0.94207 0.0
C4388 C 0.03887 0.01915 0.93776 0.0
C4389 C 0.04854 0.03067 0.94933 0.0
C4390 C 0.04516 0.03152 0.96487 0.0
C4391 C 0.04296 0.01823 0.92136 0.0
C4392 C 0.05824 0.01709 0.91888 0.0
C4393 C 0.03214 0.01855 0.90828 0.0
C4394 C 0.01605 0.02043 0.91009 0.0
C4395 C 0.01392 0.03336 0.91983 0.0
C4396 C 0.99872 0.0351 0.92141 0.0
C4397 C 0.98556 0.02404 0.91321 0.0
C4398 C 0.98756 0.01124 0.90339 0.0
C4399 C 0.00274 0.00944 0.90179 0.0
H4400 H 0.9738 0.02542 0.91444 0.0
H4401 H 0.12175 0.01114 0.89683 0.0
H4402 H 0.77363 0.371 0.58196 0.0
H4403 H 0.77618 0.35352 0.60171 0.0
H4404 H 0.75935 0.31301 0.56629 0.0
H4405 H 0.75624 0.33063 0.54655 0.0
H4406 H 0.74474 0.31002 0.59296 0.0
H4407 H 0.79849 0.32448 0.58047 0.0
H4408 H 0.82299 0.34322 0.57567 0.0
H4409 H 0.82752 0.36712 0.62241 0.0
H4410 H 0.80298 0.34867 0.62743 0.0
H4411 H 0.77142 0.26986 0.6572 0.0
H4412 H 0.76504 0.27764 0.63138 0.0
H4413 H 0.77505 0.32616 0.65221 0.0
H4414 H 0.78175 0.31864 0.67777 0.0
H4415 H 0.79435 0.31885 0.62868 0.0
H4416 H 0.74035 0.3113 0.63978 0.0
H4417 H 0.71467 0.2963 0.64633 0.0
H4418 H 0.7096 0.26348 0.60472 0.0
H4419 H 0.73541 0.27819 0.59803 0.0
C4420 C 0.77048 0.35836 0.57851 0.0
C4421 C 0.76468 0.35194 0.56303 0.0
C4422 C 0.77207 0.34844 0.58965 0.0
C4423 C 0.76827 0.33208 0.58525 0.0
C4424 C 0.76243 0.32565 0.56973 0.0
C4425 C 0.7606 0.3356 0.5586 0.0
C4426 C 0.7696 0.32184 0.59729 0.0
C4427 C 0.75567 0.31154 0.60054 0.0
C4428 C 0.78385 0.32425 0.60723 0.0
C4429 C 0.79887 0.33514 0.60432 0.0
C4430 C 0.80469 0.33374 0.58971 0.0
C4431 C 0.81859 0.34433 0.58696 0.0
C4432 C 0.82681 0.35634 0.59873 0.0
C4433 C 0.82117 0.35778 0.61331 0.0
C4434 C 0.80729 0.34723 0.61613 0.0
C4435 C 0.77204 0.28213 0.65622 0.0
C4436 C 0.77733 0.29372 0.66929 0.0
C4437 C 0.76826 0.28649 0.6416 0.0
C4438 C 0.76976 0.30241 0.64011 0.0
C4439 C 0.7739 0.3138 0.65333 0.0
C4440 C 0.77767 0.30949 0.66786 0.0
C4441 C 0.76937 0.30771 0.62469 0.0
C4442 C 0.78355 0.3169 0.62077 0.0
C4443 C 0.75531 0.30467 0.61443 0.0
C4444 C 0.73994 0.29566 0.61856 0.0
C4445 C 0.73388 0.30075 0.63214 0.0
C4446 C 0.71927 0.29234 0.63585 0.0
C4447 C 0.71054 0.27889 0.62599 0.0
C4448 C 0.7164 0.27386 0.61238 0.0
C4449 C 0.73102 0.28223 0.60862 0.0
H4450 H 0.69922 0.27241 0.62886 0.0
H4451 H 0.83755 0.36454 0.59656 0.0
H4452 H 0.41474 0.02094 0.37408 0.0
H4453 H 0.43137 0.02215 0.39873 0.0
H4454 H 0.47004 0.01705 0.3727 0.0
H4455 H 0.45309 0.01512 0.34803 0.0
H4456 H 0.46731 0.99879 0.39524 0.0
H4457 H 0.46863 0.0532 0.39154 0.0
H4458 H 0.45639 0.07511 0.3878 0.0
H4459 H 0.43281 0.067 0.42888 0.0
H4460 H 0.44475 0.04491 0.43275 0.0
H4461 H 0.52884 0.02823 0.45915 0.0
H4462 H 0.51201 0.02763 0.4348 0.0
H4463 H 0.47057 0.01557 0.45893 0.0
H4464 H 0.48731 0.01473 0.48289 0.0
H4465 H 0.47507 0.04325 0.43784 0.0
H4466 H 0.47258 0.98823 0.44065 0.0
H4467 H 0.48443 0.96607 0.44433 0.0
H4468 H 0.50993 0.97538 0.40463 0.0
H4469 H 0.49852 0.99789 0.40097 0.0
C4470 C 0.42682 0.02013 0.37375 0.0
C4471 C 0.43284 0.01804 0.35943 0.0
C4472 C 0.43629 0.02087 0.38773 0.0
C4473 C 0.45198 0.01995 0.38748 0.0
C4474 C 0.45796 0.01781 0.37309 0.0
C4475 C 0.44838 0.01677 0.35909 0.0
C4476 C 0.46211 0.02099 0.40226 0.0
C4477 C 0.46918 0.00862 0.40445 0.0
C4478 C 0.46424 0.03369 0.41436 0.0
C4479 C 0.45752 0.04735 0.41238 0.0
C4480 C 0.46081 0.05607 0.39975 0.0
C4481 C 0.45392 0.06852 0.39761 0.0
C4482 C 0.44381 0.07243 0.40808 0.0
C4483 C 0.44064 0.06396 0.42077 0.0
C4484 C 0.4475 0.0515 0.42297 0.0
C4485 C 0.51614 0.02541 0.45923 0.0
C4486 C 0.50929 0.02211 0.473 0.0
C4487 C 0.50661 0.02519 0.44541 0.0
C4488 C 0.49019 0.02187 0.44532 0.0
C4489 C 0.4833 0.0185 0.459 0.0
C4490 C 0.49282 0.01826 0.4727 0.0
C4491 C 0.48016 0.02109 0.43066 0.0
C4492 C 0.47319 0.0335 0.42853 0.0
C4493 C 0.47811 0.00847 0.41861 0.0
C4494 C 0.48488 0.99488 0.42068 0.0
C4495 C 0.48088 0.98569 0.43284 0.0
C4496 C 0.48749 0.97305 0.4349 0.0
C4497 C 0.49796 0.96935 0.42474 0.0
C4498 C 0.50184 0.97829 0.41251 0.0
C4499 C 0.49532 0.991 0.41044 0.0
H4500 H 0.503 0.95952 0.42629 0.0
H4501 H 0.43845 0.08203 0.40637 0.0
H4502 H 0.75629 0.71409 0.09319 0.0
H4503 H 0.75471 0.72537 0.11976 0.0
H4504 H 0.79669 0.76229 0.11775 0.0
H4505 H 0.79811 0.75139 0.09073 0.0
H4506 H 0.79575 0.74656 0.14609 0.0
H4507 H 0.7648 0.77315 0.11533 0.0
H4508 H 0.74438 0.77429 0.09431 0.0
H4509 H 0.70893 0.74418 0.1165 0.0
H4510 H 0.72919 0.74273 0.13758 0.0
H4511 H 0.78971 0.78889 0.21708 0.0
H4512 H 0.79081 0.78323 0.18902 0.0
H4513 H 0.74556 0.74917 0.1846 0.0
H4514 H 0.74425 0.75507 0.21287 0.0
H4515 H 0.74888 0.76521 0.15897 0.0
H4516 H 0.77842 0.73644 0.18791 0.0
H4517 H 0.79793 0.73285 0.20862 0.0
H4518 H 0.83503 0.7645 0.18981 0.0
H4519 H 0.81568 0.76842 0.16904 0.0
C4520 C 0.76507 0.72477 0.09821 0.0
C4521 C 0.77719 0.73195 0.08965 0.0
C4522 C 0.76419 0.73113 0.11347 0.0
C4523 C 0.77547 0.74474 0.12063 0.0
C4524 C 0.78785 0.75178 0.11238 0.0
C4525 C 0.78866 0.7455 0.09697 0.0
C4526 C 0.77417 0.75142 0.13678 0.0
C4527 C 0.7857 0.75097 0.14888 0.0
C4528 C 0.76077 0.75666 0.14044 0.0
C4529 C 0.74851 0.75776 0.12798 0.0
C4530 C 0.75266 0.76671 0.11569 0.0
C4531 C 0.74111 0.76743 0.10377 0.0
C4532 C 0.72537 0.75929 0.10405 0.0
C4533 C 0.72113 0.75048 0.1163 0.0
C4534 C 0.73263 0.74973 0.12825 0.0
C4535 C 0.77985 0.78037 0.2101 0.0
C4536 C 0.76696 0.77227 0.21717 0.0
C4537 C 0.78052 0.77713 0.19407 0.0
C4538 C 0.76845 0.76552 0.18478 0.0
C4539 C 0.75505 0.75813 0.19159 0.0
C4540 C 0.75429 0.76151 0.2077 0.0
C4541 C 0.77048 0.76038 0.16833 0.0
C4542 C 0.75906 0.76103 0.15618 0.0
C4543 C 0.78389 0.75512 0.16463 0.0
C4544 C 0.7956 0.75281 0.17701 0.0
C4545 C 0.79072 0.74272 0.18825 0.0
C4546 C 0.80174 0.7406 0.19997 0.0
C4547 C 0.81767 0.74844 0.2005 0.0
C4548 C 0.82266 0.75843 0.18934 0.0
C4549 C 0.81168 0.76059 0.17758 0.0
H4550 H 0.82614 0.74667 0.2095 0.0
H4551 H 0.71645 0.75984 0.0948 0.0
H4552 H 0.04113 0.01508 0.69693 0.0
H4553 H 0.03095 0.01668 0.66978 0.0
H4554 H 0.07638 0.01572 0.65495 0.0
H4555 H 0.08645 0.01412 0.68198 0.0
H4556 H 0.06668 0.04036 0.64592 0.0
H4557 H 0.04523 0.98498 0.64416 0.0
H4558 H 0.02972 0.96007 0.65162 0.0
H4559 H 0.98707 0.97497 0.64335 0.0
H4560 H 0.00237 0.00011 0.63607 0.0
H4561 H 0.0535 0.02678 0.56385 0.0
H4562 H 0.05841 0.02458 0.59162 0.0
H4563 H 0.01261 0.03177 0.59883 0.0
H4564 H 0.00754 0.034 0.57071 0.0
H4565 H 0.01997 0.00537 0.61245 0.0
H4566 H 0.04324 0.06077 0.61223 0.0
H4567 H 0.06005 0.08379 0.60259 0.0
H4568 H 0.10092 0.06653 0.61304 0.0
H4569 H 0.08432 0.0433 0.62255 0.0
C4570 C 0.04876 0.01494 0.68775 0.0
C4571 C 0.06451 0.01448 0.69136 0.0
C4572 C 0.04297 0.01581 0.67229 0.0
C4573 C 0.05292 0.01634 0.66035 0.0
C4574 C 0.06851 0.01536 0.66398 0.0
C4575 C 0.07425 0.01441 0.67935 0.0
C4576 C 0.04766 0.01932 0.64437 0.0
C4577 C 0.05651 0.03263 0.6386 0.0
C4578 C 0.03417 0.00945 0.63494 0.0
C4579 C 0.025 0.99457 0.63983 0.0
C4580 C 0.03258 0.98307 0.64417 0.0
C4581 C 0.02381 0.96887 0.6483 0.0
C4582 C 0.00743 0.96597 0.64803 0.0
C4583 C 0.99978 0.97726 0.64361 0.0
C4584 C 0.00849 0.99149 0.63949 0.0
C4585 C 0.04448 0.02805 0.57132 0.0
C4586 C 0.03014 0.03061 0.5651 0.0
C4587 C 0.04733 0.0268 0.58721 0.0
C4588 C 0.03591 0.02807 0.59728 0.0
C4589 C 0.02158 0.03078 0.59121 0.0
C4590 C 0.01877 0.0322 0.57522 0.0
C4591 C 0.03912 0.02627 0.61406 0.0
C4592 C 0.02994 0.01321 0.61996 0.0
C4593 C 0.05247 0.03619 0.62358 0.0
C4594 C 0.06251 0.05026 0.61803 0.0
C4595 C 0.05579 0.06184 0.61239 0.0
C4596 C 0.06529 0.07493 0.60696 0.0
C4597 C 0.08154 0.07661 0.60718 0.0
C4598 C 0.08833 0.06522 0.61287 0.0
C4599 C 0.07889 0.0521 0.61831 0.0
H4600 H 0.08887 0.08675 0.60296 0.0
H4601 H 1.00066 0.95494 0.65118 0.0
H4602 H 0.76823 0.32394 0.43496 0.0
H4603 H 0.77048 0.31196 0.40864 0.0
H4604 H 0.74496 0.34258 0.38828 0.0
H4605 H 0.74254 0.35439 0.41443 0.0
H4606 H 0.73592 0.31332 0.37352 0.0
H4607 H 0.78388 0.35237 0.39164 0.0
H4608 H 0.80802 0.36627 0.40918 0.0
H4609 H 0.82573 0.32504 0.40371 0.0
H4610 H 0.80156 0.31077 0.38638 0.0
H4611 H 0.7551 0.30193 0.29825 0.0
H4612 H 0.75525 0.31596 0.32382 0.0
H4613 H 0.78019 0.28538 0.34507 0.0
H4614 H 0.78151 0.27212 0.31902 0.0
H4615 H 0.78986 0.31589 0.35898 0.0
H4616 H 0.73951 0.27695 0.34113 0.0
H4617 H 0.71588 0.26529 0.32204 0.0
H4618 H 0.7033 0.30947 0.32578 0.0
H4619 H 0.72695 0.32143 0.34476 0.0
C4620 C 0.7628 0.32776 0.42481 0.0
C4621 C 0.75518 0.33993 0.42649 0.0
C4622 C 0.76421 0.32108 0.40992 0.0
C4623 C 0.75816 0.32673 0.39676 0.0
C4624 C 0.74972 0.33821 0.39844 0.0
C4625 C 0.74821 0.3448 0.41329 0.0
C4626 C 0.76092 0.32093 0.38116 0.0
C4627 C 0.7477 0.31397 0.37027 0.0
C4628 C 0.77636 0.32194 0.37715 0.0
C4629 C 0.79078 0.33041 0.38788 0.0
C4630 C 0.79281 0.34618 0.39435 0.0
C4631 C 0.80653 0.35415 0.40422 0.0
C4632 C 0.81837 0.34652 0.40761 0.0
C4633 C 0.81652 0.33092 0.40112 0.0
C4634 C 0.80281 0.32288 0.39128 0.0
C4635 C 0.76116 0.29853 0.30824 0.0
C4636 C 0.76841 0.28604 0.30673 0.0
C4637 C 0.76102 0.30643 0.32284 0.0
C4638 C 0.7674 0.30137 0.33615 0.0
C4639 C 0.77513 0.28926 0.33476 0.0
C4640 C 0.77572 0.28163 0.32 0.0
C4641 C 0.76486 0.30793 0.35156 0.0
C4642 C 0.77811 0.31516 0.36234 0.0
C4643 C 0.74946 0.30743 0.35541 0.0
C4644 C 0.73503 0.30009 0.34429 0.0
C4645 C 0.73172 0.28417 0.33784 0.0
C4646 C 0.71833 0.27752 0.32704 0.0
C4647 C 0.70811 0.28664 0.32268 0.0
C4648 C 0.71122 0.30242 0.32917 0.0
C4649 C 0.7246 0.30913 0.33996 0.0
H4650 H 0.69777 0.28148 0.3143 0.0
H4651 H 0.829 0.35272 0.41522 0.0
H4652 H 0.43865 0.99158 0.2219 0.0
H4653 H 0.44939 0.9865 0.19722 0.0
H4654 H 0.43042 0.02233 0.17823 0.0
H4655 H 0.41949 0.02735 0.20285 0.0
H4656 H 0.42333 0.99367 0.15842 0.0
H4657 H 0.46817 0.03046 0.18881 0.0
H4658 H 0.48792 0.0406 0.21199 0.0
H4659 H 0.50481 0.99893 0.20562 0.0
H4660 H 0.48497 0.98841 0.18253 0.0
H4661 H 0.46613 0.00642 0.0929 0.0
H4662 H 0.45193 0.00625 0.11591 0.0
H4663 H 0.47752 0.97511 0.13501 0.0
H4664 H 0.49254 0.97608 0.11254 0.0
H4665 H 0.48053 -0.00015 0.15505 0.0
H4666 H 0.4366 0.96375 0.12319 0.0
H4667 H 0.41654 0.95372 0.10022 0.0
H4668 H 0.39763 0.99382 0.10917 0.0
H4669 H 0.41772 0.00424 0.13203 0.0
C4670 C 0.43688 0.99842 0.21247 0.0
C4671 C 0.4283 0.00985 0.21418 0.0
C4672 C 0.44301 0.99554 0.19845 0.0
C4673 C 0.44064 0.00406 0.18601 0.0
C4674 C 0.4323 0.01565 0.18777 0.0
C4675 C 0.42623 0.01861 0.20182 0.0
C4676 C 0.4467 0.00067 0.17105 0.0
C4677 C 0.43584 0.99515 0.15755 0.0
C4678 C 0.46295 0.00222 0.17021 0.0
C4679 C 0.47497 0.00858 0.18404 0.0
C4680 C 0.476 0.0234 0.19243 0.0
C4681 C 0.48722 0.02922 0.20554 0.0
C4682 C 0.49758 0.0204 0.2103 0.0
C4683 C 0.49676 0.00574 0.20193 0.0
C4684 C 0.48553 -0.00015 0.18883 0.0
C4685 C 0.46866 0.99944 0.10195 0.0
C4686 C 0.48069 0.99152 0.10105 0.0
C4687 C 0.46034 0.99915 0.11498 0.0
C4688 C 0.46367 0.99065 0.12716 0.0
C4689 C 0.47481 0.98177 0.12573 0.0
C4690 C 0.4833 0.98224 0.11281 0.0
C4691 C 0.45717 0.99276 0.14221 0.0
C4692 C 0.46797 0.99814 0.15581 0.0
C4693 C 0.44085 0.99108 0.14309 0.0
C4694 C 0.42878 0.98485 0.12927 0.0
C4695 C 0.42826 0.97052 0.12018 0.0
C4696 C 0.41686 0.96474 0.10719 0.0
C4697 C 0.40585 0.97315 0.10322 0.0
C4698 C 0.40618 0.98733 0.11225 0.0
C4699 C 0.41757 0.99317 0.12523 0.0
H4700 H 0.39703 0.96866 0.09317 0.0
H4701 H 0.50626 0.02493 0.22045 0.0
H4702 H 0.75447 0.722 0.92924 0.0
H4703 H 0.75502 0.73282 0.90443 0.0
H4704 H 0.80587 0.74851 0.9125 0.0
H4705 H 0.8054 0.73859 0.93797 0.0
H4706 H 0.794 0.76978 0.89863 0.0
H4707 H 0.78667 0.71344 0.88923 0.0
H4708 H 0.77356 0.68573 0.8914 0.0
H4709 H 0.73008 0.69131 0.86891 0.0
H4710 H 0.74288 0.71912 0.86681 0.0
H4711 H 0.80305 0.7771 0.81732 0.0
H4712 H 0.80472 0.77126 0.84453 0.0
H4713 H 0.75439 0.75035 0.83882 0.0
H4714 H 0.75286 0.75543 0.81159 0.0
H4715 H 0.76762 0.73195 0.85189 0.0
H4716 H 0.77418 0.78817 0.86139 0.0
H4717 H 0.78663 0.81615 0.85971 0.0
H4718 H 0.83057 0.8114 0.88192 0.0
H4719 H 0.81844 0.78333 0.88357 0.0
C4720 C 0.76579 0.72805 0.92601 0.0
C4721 C 0.77991 0.72926 0.93568 0.0
C4722 C 0.76609 0.73409 0.91165 0.0
C4723 C 0.78051 0.74117 0.90639 0.0
C4724 C 0.7946 0.74297 0.91623 0.0
C4725 C 0.79431 0.73709 0.93072 0.0
C4726 C 0.78086 0.74591 0.89031 0.0
C4727 C 0.78839 0.76149 0.88836 0.0
C4728 C 0.77334 0.73517 0.87692 0.0
C4729 C 0.76571 0.71838 0.87797 0.0
C4730 C 0.7743 0.70877 0.88482 0.0
C4731 C 0.76692 0.69305 0.88604 0.0
C4732 C 0.75099 0.68677 0.88032 0.0
C4733 C 0.74241 0.69619 0.87334 0.0
C4734 C 0.74973 0.71192 0.87212 0.0
C4735 C 0.79237 0.77128 0.82193 0.0
C4736 C 0.77786 0.76654 0.81227 0.0
C4737 C 0.7933 0.76807 0.83753 0.0
C4738 C 0.77965 0.76044 0.84387 0.0
C4739 C 0.76512 0.75612 0.83426 0.0
C4740 C 0.76426 0.75901 0.81865 0.0
C4741 C 0.78043 0.75599 0.8601 0.0
C4742 C 0.77321 0.74035 0.86209 0.0
C4743 C 0.78814 0.76673 0.87347 0.0
C4744 C 0.79544 0.7836 0.87244 0.0
C4745 C 0.78653 0.79305 0.8658 0.0
C4746 C 0.79352 0.80894 0.86488 0.0
C4747 C 0.80939 0.81554 0.87066 0.0
C4748 C 0.81829 0.80627 0.87742 0.0
C4749 C 0.81136 0.79038 0.87836 0.0
H4750 H 0.81478 0.82784 0.86994 0.0
H4751 H 0.7453 0.6746 0.88129 0.0
H4752 H 0.8616 0.13235 0.04038 0.0
H4753 H 0.88032 0.11741 0.03221 0.0
H4754 H 0.84183 0.0755 0.01986 0.0
H4755 H 0.8232 0.09042 0.02835 0.0
H4756 H 0.86799 0.06985 0.03509 0.0
H4757 H 0.85519 0.09565 0.99131 0.0
H4758 H 0.85155 0.11847 0.97852 0.0
H4759 H 0.90066 0.14193 0.99127 0.0
H4760 H 0.90455 0.11928 0.00428 0.0
H4761 H 0.90831 0.02558 0.99136 0.0
H4762 H 0.88907 0.04087 0.99567 0.0
H4763 H 0.92689 0.08277 0.01068 0.0
H4764 H 0.9463 0.06767 0.00588 0.0
H4765 H 0.90049 0.08827 0.99305 0.0
H4766 H 0.91256 0.06283 0.03807 0.0
H4767 H 0.91549 0.04058 0.05221 0.0
H4768 H 0.86682 0.01663 0.03744 0.0
H4769 H 0.86366 0.03869 0.0231 0.0
C4770 C 0.85734 0.11985 0.03631 0.0
C4771 C 0.84124 0.11229 0.03511 0.0
C4772 C 0.86789 0.11143 0.0315 0.0
C4773 C 0.8623 0.09551 0.02522 0.0
C4774 C 0.84625 0.08781 0.02467 0.0
C4775 C 0.83571 0.09621 0.02959 0.0
C4776 C 0.8732 0.08698 0.01896 0.0
C4777 C 0.87491 0.07369 0.02572 0.0
C4778 C 0.88233 0.09231 0.00695 0.0
C4779 C 0.88014 0.10581 -0.00116 0.0
C4780 C 0.8652 0.1057 0.99144 0.0
C4781 C 0.86309 0.1186 0.98414 0.0
C4782 C 0.87586 0.13165 0.9841 0.0
C4783 C 0.89078 0.1318 0.99131 0.0
C4784 C 0.89295 0.11892 0.99861 0.0
C4785 C 0.91254 0.03814 0.9951 0.0
C4786 C 0.92876 0.04542 0.9985 0.0
C4787 C 0.90156 0.04681 0.99764 0.0
C4788 C 0.90667 0.06279 0.00372 0.0
C4789 C 0.92282 0.07039 0.00604 0.0
C4790 C 0.93384 0.06173 0.00344 0.0
C4791 C 0.89523 0.07109 0.00919 0.0
C4792 C 0.89345 0.08436 0.00231 0.0
C4793 C 0.88594 0.06573 0.02108 0.0
C4794 C 0.88793 0.0523 0.02937 0.0
C4795 C 0.90254 0.05273 0.0377 0.0
C4796 C 0.90423 0.04019 0.04579 0.0
C4797 C 0.89136 0.02718 0.04568 0.0
C4798 C 0.87678 0.0267 0.03749 0.0
C4799 C 0.87503 0.03922 0.02939 0.0
H4800 H 0.89268 0.01749 0.05198 0.0
H4801 H 0.87421 0.14164 0.97847 0.0
H4802 H 0.34285 0.43814 0.00906 0.0
H4803 H 0.3693 0.45535 0.00905 0.0
H4804 H 0.38825 0.42857 0.04141 0.0
H4805 H 0.36171 0.41148 0.04167 0.0
H4806 H 0.40156 0.45878 0.04958 0.0
H4807 H 0.39197 0.42399 0.00123 0.0
H4808 H 0.37752 0.41063 0.97576 0.0
H4809 H 0.38145 0.45541 0.95887 0.0
H4810 H 0.39575 0.46906 0.98433 0.0
H4811 H 0.48239 0.48486 0.03628 0.0
H4812 H 0.45556 0.46932 0.03804 0.0
H4813 H 0.43669 0.49875 0.00875 0.0
H4814 H 0.46348 0.51434 0.00688 0.0
H4815 H 0.4234 0.46758 -0.00083 0.0
H4816 H 0.43365 0.50222 0.04761 0.0
H4817 H 0.44863 0.51526 0.07297 0.0
H4818 H 0.44399 0.47025 0.08954 0.0
H4819 H 0.42917 0.45692 0.06419 0.0
C4820 C 0.35266 0.43589 0.01614 0.0
C4821 C 0.35019 0.42338 0.02529 0.0
C4822 C 0.3678 0.44573 0.01611 0.0
C4823 C 0.38088 0.44312 0.02501 0.0
C4824 C 0.37838 0.43083 0.03442 0.0
C4825 C 0.3632 0.42108 0.03458 0.0
C4826 C 0.39714 0.45313 0.02443 0.0
C4827 C 0.40639 0.46052 0.03855 0.0
C4828 C 0.40341 0.45573 0.01005 0.0
C4829 C 0.39479 0.44755 0.99474 0.0
C4830 C 0.38964 0.43099 0.99213 0.0
C4831 C 0.3815 0.42337 0.97769 0.0
C4832 C 0.37853 0.43217 0.96572 0.0
C4833 C 0.38373 0.44861 0.96816 0.0
C4834 C 0.39187 0.4563 0.98259 0.0
C4835 C 0.47255 0.4881 0.03027 0.0
C4836 C 0.47513 0.50088 0.02144 0.0
C4837 C 0.45719 0.47923 0.03134 0.0
C4838 C 0.44408 0.48293 0.02362 0.0
C4839 C 0.44662 0.49568 0.01482 0.0
C4840 C 0.46196 0.50462 0.01381 0.0
C4841 C 0.42777 0.47319 0.02429 0.0
C4842 C 0.41853 0.46584 0.01018 0.0
C4843 C 0.42156 0.47057 0.03867 0.0
C4844 C 0.43043 0.47856 0.05395 0.0
C4845 C 0.43594 0.49509 0.05662 0.0
C4846 C 0.44438 0.50254 0.071 0.0
C4847 C 0.4473 0.49359 0.08284 0.0
C4848 C 0.44174 0.47717 0.08035 0.0
C4849 C 0.43331 0.46966 0.06598 0.0
H4850 H 0.45383 0.49938 0.09397 0.0
H4851 H 0.37223 0.42624 0.95454 0.0
H4852 H 0.36879 0.5847 0.7464 0.0
H4853 H 0.35457 0.60518 0.74902 0.0
H4854 H 0.38442 0.62681 0.79182 0.0
H4855 H 0.3992 0.60673 0.78902 0.0
H4856 H 0.35178 0.62364 0.7939 0.0
H4857 H 0.39087 0.64397 0.76088 0.0
H4858 H 0.40619 0.64372 0.7383 0.0
H4859 H 0.36369 0.63564 0.70664 0.0
H4860 H 0.34806 0.63557 0.72904 0.0
H4861 H 0.32078 0.69299 0.79401 0.0
H4862 H 0.33749 0.67449 0.79634 0.0
H4863 H 0.3182 0.65156 0.74969 0.0
H4864 H 0.30189 0.67006 0.74725 0.0
H4865 H 0.34857 0.65765 0.75204 0.0
H4866 H 0.30904 0.63556 0.78476 0.0
H4867 H 0.2934 0.63464 0.80718 0.0
H4868 H 0.33592 0.64512 0.83921 0.0
H4869 H 0.35184 0.64638 0.81699 0.0
C4870 C 0.37256 0.59391 0.75626 0.0
C4871 C 0.38525 0.59401 0.76745 0.0
C4872 C 0.36431 0.60557 0.75779 0.0
C4873 C 0.36848 0.61756 0.77058 0.0
C4874 C 0.38097 0.61763 0.78189 0.0
C4875 C 0.38936 0.60607 0.78029 0.0
C4876 C 0.35975 0.62999 0.77201 0.0
C4877 C 0.35123 0.63128 0.78489 0.0
C4878 C 0.35891 0.63978 0.76015 0.0
C4879 C 0.36827 0.63961 0.74665 0.0
C4880 C 0.38476 0.64196 0.74911 0.0
C4881 C 0.39351 0.64191 0.73633 0.0
C4882 C 0.38592 0.63962 0.72104 0.0
C4883 C 0.36955 0.63739 0.71849 0.0
C4884 C 0.36075 0.6374 0.73122 0.0
C4885 C 0.32004 0.68389 0.78434 0.0
C4886 C 0.31019 0.6831 0.77035 0.0
C4887 C 0.32955 0.67329 0.7857 0.0
C4888 C 0.32915 0.66159 0.77318 0.0
C4889 C 0.31888 0.66054 0.75947 0.0
C4890 C 0.30958 0.67116 0.75806 0.0
C4891 C 0.33997 0.65096 0.77365 0.0
C4892 C 0.34908 0.6501 0.76115 0.0
C4893 C 0.34122 0.64152 0.78583 0.0
C4894 C 0.33166 0.64132 0.79919 0.0
C4895 C 0.31508 0.63791 0.79658 0.0
C4896 C 0.30615 0.63727 0.80926 0.0
C4897 C 0.31366 0.63989 0.82461 0.0
C4898 C 0.33012 0.64316 0.82731 0.0
C4899 C 0.3391 0.64385 0.81468 0.0
H4900 H 0.30673 0.63933 0.8344 0.0
H4901 H 0.39271 0.63962 0.71117 0.0
H4902 H 0.18945 0.60971 0.50747 0.0
H4903 H 0.16193 0.59477 0.50455 0.0
H4904 H 0.171 0.57276 0.54568 0.0
H4905 H 0.19892 0.58725 0.54827 0.0
H4906 H 0.15525 0.5517 0.52083 0.0
H4907 H 0.15122 0.60039 0.54793 0.0
H4908 H 0.15509 0.62915 0.5534 0.0
H4909 H 0.1293 0.62929 0.50883 0.0
H4910 H 0.12547 0.60056 0.50297 0.0
H4911 H 0.07512 0.52596 0.53461 0.0
H4912 H 0.10356 0.53528 0.53395 0.0
H4913 H 0.0953 0.55566 0.49153 0.0
H4914 H 0.06686 0.54667 0.49231 0.0
H4915 H 0.11071 0.57696 0.51679 0.0
H4916 H 0.11422 0.52759 0.4903 0.0
H4917 H 0.10845 0.49858 0.4866 0.0
H4918 H 0.13385 0.49965 0.5317 0.0
H4919 H 0.13959 0.52868 0.53577 0.0
C4920 C 0.18559 0.60158 0.5158 0.0
C4921 C 0.19617 0.59933 0.52793 0.0
C4922 C 0.16991 0.59326 0.51424 0.0
C4923 C 0.16464 0.58287 0.525 0.0
C4924 C 0.17507 0.58082 0.53735 0.0
C4925 C 0.19085 0.58908 0.53884 0.0
C4926 C 0.14832 0.57361 0.52273 0.0
C4927 C 0.14544 0.55715 0.52015 0.0
C4928 C 0.13579 0.58096 0.52151 0.0
C4929 C 0.1382 0.59831 0.52495 0.0
C4930 C 0.14651 0.60657 0.53922 0.0
C4931 C 0.14867 0.62287 0.54241 0.0
C4932 C 0.14248 0.63105 0.53145 0.0
C4933 C 0.1341 0.62294 0.5173 0.0
C4934 C 0.13192 0.60665 0.51404 0.0
C4935 C 0.07943 0.53207 0.52496 0.0
C4936 C 0.0691 0.53608 0.51377 0.0
C4937 C 0.09557 0.53722 0.5245 0.0
C4938 C 0.10127 0.5461 0.5127 0.0
C4939 C 0.09091 0.54881 0.50069 0.0
C4940 C 0.0748 0.54385 0.50126 0.0
C4941 C 0.11766 0.55508 0.51468 0.0
C4942 C 0.12053 0.57152 0.51731 0.0
C4943 C 0.13011 0.54771 0.51607 0.0
C4944 C 0.1273 0.53031 0.51336 0.0
C4945 C 0.11856 0.52164 0.49944 0.0
C4946 C 0.11528 0.50519 0.49728 0.0
C4947 C 0.12077 0.49727 0.50892 0.0
C4948 C 0.12962 0.5058 0.52269 0.0
C4949 C 0.13293 0.52226 0.52492 0.0
H4950 H 0.11816 0.48453 0.50725 0.0
H4951 H 0.14415 0.64367 0.53395 0.0
H4952 H 0.71844 0.98687 0.77252 0.0
H4953 H 0.73173 0.96633 0.77775 0.0
H4954 H 0.70432 0.93635 0.73703 0.0
H4955 H 0.69048 0.95649 0.73215 0.0
H4956 H 0.70111 0.923 0.76399 0.0
H4957 H 0.74382 0.95149 0.738 0.0
H4958 H 0.76403 0.9752 0.73396 0.0
H4959 H 0.78623 0.97815 0.7809 0.0
H4960 H 0.76602 0.95458 0.78531 0.0
H4961 H 0.73572 0.85875 0.7607 0.0
H4962 H 0.72444 0.88088 0.75691 0.0
H4963 H 0.75727 0.90955 0.7951 0.0
H4964 H 0.76927 0.88779 0.79835 0.0
H4965 H 0.75808 0.9246 0.77103 0.0
H4966 H 0.71684 0.89625 0.79732 0.0
H4967 H 0.69583 0.87414 0.80327 0.0
H4968 H 0.67003 0.87229 0.7582 0.0
H4969 H 0.69106 0.89412 0.75181 0.0
C4970 C 0.71536 0.97594 0.76462 0.0
C4971 C 0.70322 0.97309 0.75212 0.0
C4972 C 0.72309 0.96433 0.7675 0.0
C4973 C 0.7189 0.94987 0.75779 0.0
C4974 C 0.70762 0.94747 0.74466 0.0
C4975 C 0.69981 0.959 0.74183 0.0
C4976 C 0.72475 0.93657 0.76236 0.0
C4977 C 0.71355 0.92316 0.76527 0.0
C4978 C 0.74101 0.93731 0.76479 0.0
C4979 C 0.75333 0.95133 0.76203 0.0
C4980 C 0.75295 0.95725 0.7475 0.0
C4981 C 0.76442 0.97065 0.74513 0.0
C4982 C 0.77639 0.97819 0.75717 0.0
C4983 C 0.77695 0.9723 0.77159 0.0
C4984 C 0.76551 0.95891 0.77402 0.0
C4985 C 0.74051 0.86974 0.76834 0.0
C4986 C 0.75351 0.87154 0.77972 0.0
C4987 C 0.73391 0.88232 0.76629 0.0
C4988 C 0.73999 0.89683 0.77577 0.0
C4989 C 0.75243 0.89843 0.78765 0.0
C4990 C 0.75917 0.88592 0.78959 0.0
C4991 C 0.73438 0.91071 0.77233 0.0
C4992 C 0.74562 0.92432 0.76974 0.0
C4993 C 0.71812 0.91023 0.77037 0.0
C4994 C 0.70566 0.89673 0.77401 0.0
C4995 C 0.70681 0.89099 0.78858 0.0
C4996 C 0.69487 0.87852 0.79205 0.0
C4997 C 0.68163 0.87179 0.7811 0.0
C4998 C 0.68032 0.87748 0.76665 0.0
C4999 C 0.69225 0.88989 0.7631 0.0
H5000 H 0.67237 0.86218 0.78384 0.0
H5001 H 0.78524 0.98858 0.75533 0.0
H5002 H 0.71926 0.93458 0.52008 0.0
H5003 H 0.69926 0.94932 0.51677 0.0
H5004 H 0.66287 0.90559 0.50648 0.0
H5005 H 0.68302 0.89083 0.50909 0.0
H5006 H 0.65626 0.9244 0.48798 0.0
H5007 H 0.67053 0.93071 0.54368 0.0
H5008 H 0.68815 0.93765 0.56862 0.0
H5009 H 0.70385 0.98538 0.55875 0.0
H5010 H 0.68645 0.97869 0.53368 0.0
H5011 H 0.59336 0.96143 0.50679 0.0
H5012 H 0.61222 0.94504 0.50522 0.0
H5013 H 0.65002 0.98655 0.50431 0.0
H5014 H 0.63139 0.00295 0.50594 0.0
H5015 H 0.6551 0.96834 0.52818 0.0
H5016 H 0.63952 0.96152 0.4726 0.0
H5017 H 0.62161 0.95398 0.44788 0.0
H5018 H 0.60729 0.90633 0.45831 0.0
H5019 H 0.62495 0.91362 0.48321 0.0
C5020 C 0.70698 0.92813 0.51716 0.0
C5021 C 0.70268 0.91157 0.51493 0.0
C5022 C 0.69552 0.93656 0.51534 0.0
C5023 C 0.67943 0.92863 0.51171 0.0
C5024 C 0.67516 0.91204 0.50932 0.0
C5025 C 0.68667 0.9036 0.51083 0.0
C5026 C 0.66712 0.93761 0.51029 0.0
C5027 C 0.65587 0.93384 0.49692 0.0
C5028 C 0.66669 0.95017 0.52176 0.0
C5029 C 0.6773 0.95416 0.53674 0.0
C5030 C 0.67784 0.94265 0.54677 0.0
C5031 C 0.68777 0.94655 0.56094 0.0
C5032 C 0.69715 0.96193 0.56525 0.0
C5033 C 0.6966 0.97347 0.5554 0.0
C5034 C 0.6867 0.96963 0.54122 0.0
C5035 C 0.60567 0.96704 0.50611 0.0
C5036 C 0.61087 0.98354 0.50659 0.0
C5037 C 0.6164 0.95764 0.50507 0.0
C5038 C 0.63252 0.96458 0.50462 0.0
C5039 C 0.63763 0.98095 0.50459 0.0
C5040 C 0.62693 0.99031 0.50547 0.0
C5041 C 0.64436 0.95516 0.5059 0.0
C5042 C 0.65548 0.95885 0.51929 0.0
C5043 C 0.64449 0.94243 0.49457 0.0
C5044 C 0.6334 0.93818 0.4799 0.0
C5045 C 0.63237 0.94949 0.46976 0.0
C5046 C 0.62231 0.94524 0.45567 0.0
C5047 C 0.61327 0.9297 0.45156 0.0
C5048 C 0.61426 0.91837 0.46153 0.0
C5049 C 0.6243 0.92256 0.47563 0.0
H5050 H 0.60554 0.92643 0.44062 0.0
H5051 H 0.70481 0.96493 0.57623 0.0
H5052 H 0.35228 0.45505 0.76333 0.0
H5053 H 0.33455 0.42884 0.76312 0.0
H5054 H 0.37074 0.40758 0.74736 0.0
H5055 H 0.38816 0.43384 0.74685 0.0
H5056 H 0.34447 0.39151 0.73287 0.0
H5057 H 0.36145 0.41079 0.78714 0.0
H5058 H 0.36582 0.42908 0.81166 0.0
H5059 H 0.31589 0.42434 0.81007 0.0
H5060 H 0.31123 0.40617 0.78543 0.0
H5061 H 0.31759 0.31653 0.75914 0.0
H5062 H 0.33222 0.3433 0.75631 0.0
H5063 H 0.28986 0.35923 0.75958 0.0
H5064 H 0.27499 0.33231 0.76223 0.0
H5065 H 0.31757 0.37795 0.77971 0.0
H5066 H 0.3016 0.35632 0.72554 0.0
H5067 H 0.29876 0.33654 0.70241 0.0
H5068 H 0.34918 0.3444 0.70553 0.0
H5069 H 0.35231 0.36406 0.72884 0.0
C5070 C 0.35638 0.44475 0.75976 0.0
C5071 C 0.37158 0.44643 0.75514 0.0
C5072 C 0.34629 0.42976 0.75974 0.0
C5073 C 0.35138 0.41614 0.75555 0.0
C5074 C 0.3665 0.41786 0.75066 0.0
C5075 C 0.37646 0.43285 0.75037 0.0
C5076 C 0.34099 0.40013 0.75626 0.0
C5077 C 0.33875 0.38856 0.7432 0.0
C5078 C 0.33323 0.39621 0.76961 0.0
C5079 C 0.33601 0.40727 0.78434 0.0
C5080 C 0.35141 0.41376 0.79194 0.0
C5081 C 0.35394 0.42408 0.80588 0.0
C5082 C 0.34115 0.42791 0.81239 0.0
C5083 C 0.32579 0.42139 0.805 0.0
C5084 C 0.3232 0.41108 0.79105 0.0
C5085 C 0.31135 0.32571 0.75925 0.0
C5086 C 0.29513 0.32232 0.76097 0.0
C5087 C 0.31972 0.34098 0.75754 0.0
C5088 C 0.3121 0.35321 0.75767 0.0
C5089 C 0.29593 0.34992 0.75942 0.0
C5090 C 0.28746 0.33455 0.76088 0.0
C5091 C 0.32123 0.36949 0.75642 0.0
C5092 C 0.32324 0.38105 0.76937 0.0
C5093 C 0.32904 0.37329 0.74314 0.0
C5094 C 0.32718 0.36158 0.72902 0.0
C5095 C 0.31208 0.35374 0.72137 0.0
C5096 C 0.31041 0.34257 0.70821 0.0
C5097 C 0.32377 0.33919 0.70252 0.0
C5098 C 0.33883 0.34702 0.70996 0.0
C5099 C 0.34056 0.35819 0.72313 0.0
H5100 H 0.32246 0.33053 0.69233 0.0
H5101 H 0.34313 0.43588 0.82319 0.0
H5102 H 0.23301 0.60274 0.2373 0.0
H5103 H 0.24054 0.62974 0.23302 0.0
H5104 H 0.24279 0.64414 0.28287 0.0
H5105 H 0.23114 0.61699 0.28635 0.0
H5106 H 0.22465 0.65664 0.27222 0.0
H5107 H 0.27456 0.65631 0.25391 0.0
H5108 H 0.29441 0.64778 0.23909 0.0
H5109 H 0.26683 0.64844 0.19567 0.0
H5110 H 0.24676 0.65686 0.21023 0.0
H5111 H 0.26951 0.73167 0.26847 0.0
H5112 H 0.25736 0.70392 0.26957 0.0
H5113 H 0.22534 0.70244 0.22817 0.0
H5114 H 0.2371 0.73082 0.22754 0.0
H5115 H 0.25012 0.68281 0.2296 0.0
H5116 H 0.2067 0.69357 0.25423 0.0
H5117 H 0.19502 0.70898 0.2731 0.0
H5118 H 0.22155 0.69603 0.31144 0.0
H5119 H 0.2336 0.68075 0.29286 0.0
C5120 C 0.23533 0.61168 0.24741 0.0
C5121 C 0.23001 0.60797 0.26176 0.0
C5122 C 0.24011 0.62734 0.24501 0.0
C5123 C 0.24163 0.63931 0.25753 0.0
C5124 C 0.24077 0.63516 0.27282 0.0
C5125 C 0.23445 0.61952 0.27491 0.0
C5126 C 0.24043 0.6552 0.25437 0.0
C5127 C 0.23071 0.66244 0.26318 0.0
C5128 C 0.24731 0.66259 0.24192 0.0
C5129 C 0.2591 0.65703 0.23316 0.0
C5130 C 0.27266 0.65447 0.24121 0.0
C5131 C 0.28397 0.6497 0.23285 0.0
C5132 C 0.28186 0.64752 0.21646 0.0
C5133 C 0.26844 0.65011 0.20837 0.0
C5134 C 0.25711 0.6549 0.21666 0.0
C5135 C 0.25996 0.72535 0.25956 0.0
C5136 C 0.25449 0.73283 0.24756 0.0
C5137 C 0.2528 0.70975 0.26043 0.0
C5138 C 0.24036 0.70148 0.24912 0.0
C5139 C 0.23476 0.70894 0.2371 0.0
C5140 C 0.24165 0.72482 0.23654 0.0
C5141 C 0.23598 0.68449 0.24843 0.0
C5142 C 0.24419 0.67671 0.2386 0.0
C5143 C 0.22893 0.67735 0.26078 0.0
C5144 C 0.22105 0.68592 0.27207 0.0
C5145 C 0.21007 0.694 0.26668 0.0
C5146 C 0.20338 0.70274 0.27734 0.0
C5147 C 0.20753 0.70347 0.29345 0.0
C5148 C 0.21831 0.69541 0.29895 0.0
C5149 C 0.22503 0.68666 0.28835 0.0
H5150 H 0.2024 0.7103 0.30168 0.0
H5151 H 0.29065 0.64386 0.21001 0.0
H5152 H 0.50634 0.70097 0.49793 0.0
H5153 H 0.50933 0.67691 0.50844 0.0
H5154 H 0.49959 0.65191 0.46152 0.0
H5155 H 0.49576 0.67562 0.45121 0.0
H5156 H 0.48528 0.63358 0.4788 0.0
H5157 H 0.53935 0.66798 0.48666 0.0
H5158 H 0.55989 0.69192 0.4982 0.0
H5159 H 0.55028 0.68166 0.5445 0.0
H5160 H 0.52956 0.65778 0.53323 0.0
H5161 H 0.5119 0.56597 0.48448 0.0
H5162 H 0.50954 0.59199 0.47925 0.0
H5163 H 0.51986 0.60876 0.52874 0.0
H5164 H 0.52337 0.58282 0.53386 0.0
H5165 H 0.53227 0.63179 0.51408 0.0
H5166 H 0.48035 0.59719 0.50759 0.0
H5167 H 0.46019 0.57256 0.49727 0.0
H5168 H 0.46482 0.58334 0.45021 0.0
H5169 H 0.48517 0.60789 0.46022 0.0
C5170 C 0.50481 0.6903 0.48988 0.0
C5171 C 0.50075 0.69025 0.47369 0.0
C5172 C 0.50667 0.67652 0.4959 0.0
C5173 C 0.50502 0.66243 0.48583 0.0
C5174 C 0.50093 0.66246 0.46968 0.0
C5175 C 0.49872 0.67609 0.46373 0.0
C5176 C 0.50715 0.64748 0.49181 0.0
C5177 C 0.4957 0.63327 0.48637 0.0
C5178 C 0.52027 0.64687 0.5024 0.0
C5179 C 0.53279 0.66119 0.50909 0.0
C5180 C 0.54156 0.67089 0.4993 0.0
C5181 C 0.55323 0.68444 0.50579 0.0
C5182 C 0.55635 0.68833 0.52207 0.0
C5183 C 0.54783 0.67865 0.53189 0.0
C5184 C 0.53613 0.66511 0.52546 0.0
C5185 C 0.51369 0.57519 0.49427 0.0
C5186 C 0.51759 0.57221 0.50961 0.0
C5187 C 0.51223 0.59012 0.49128 0.0
C5188 C 0.51392 0.6024 0.50362 0.0
C5189 C 0.5183 0.59957 0.51896 0.0
C5190 C 0.52025 0.58469 0.52191 0.0
C5191 C 0.5108 0.61791 0.50038 0.0
C5192 C 0.52189 0.63216 0.50651 0.0
C5193 C 0.49722 0.61866 0.4906 0.0
C5194 C 0.48435 0.60434 0.48465 0.0
C5195 C 0.47705 0.59431 0.49504 0.0
C5196 C 0.46561 0.58035 0.48924 0.0
C5197 C 0.46127 0.57638 0.47309 0.0
C5198 C 0.46821 0.58643 0.46271 0.0
C5199 C 0.47968 0.60038 0.46844 0.0
H5200 H 0.45255 0.56551 0.46857 0.0
H5201 H 0.56539 0.69883 0.52707 0.0
H5202 H 0.61171 0.29044 0.67576 0.0
H5203 H 0.63523 0.28877 0.69216 0.0
H5204 H 0.66023 0.28804 0.65133 0.0
H5205 H 0.63642 0.28889 0.63484 0.0
H5206 H 0.66889 0.26924 0.66739 0.0
H5207 H 0.66584 0.32214 0.68292 0.0
H5208 H 0.65332 0.3429 0.69248 0.0
H5209 H 0.64646 0.3225 0.73526 0.0
H5210 H 0.6588 0.30152 0.72589 0.0
H5211 H 0.74558 0.28359 0.71125 0.0
H5212 H 0.7226 0.28636 0.69451 0.0
H5213 H 0.6947 0.28044 0.73318 0.0
H5214 H 0.71753 0.27782 0.74993 0.0
H5215 H 0.68811 0.30321 0.71816 0.0
H5216 H 0.69104 0.25005 0.70168 0.0
H5217 H 0.70407 0.22983 0.69175 0.0
H5218 H 0.7121 0.25217 0.65017 0.0
H5219 H 0.69919 0.27257 0.65993 0.0
C5220 C 0.62225 0.29004 0.67027 0.0
C5221 C 0.62207 0.28988 0.6539 0.0
C5222 C 0.63585 0.28918 0.67973 0.0
C5223 C 0.64994 0.28862 0.67324 0.0
C5224 C 0.64971 0.28845 0.65685 0.0
C5225 C 0.63601 0.28897 0.64735 0.0
C5226 C 0.66471 0.28785 0.68333 0.0
C5227 C 0.67315 0.27692 0.67835 0.0
C5228 C 0.67043 0.29752 0.69793 0.0
C5229 C 0.66313 0.31019 0.70365 0.0
C5230 C 0.66159 0.32204 0.69433 0.0
C5231 C 0.65453 0.33385 0.69972 0.0
C5232 C 0.64906 0.33399 0.71445 0.0
C5233 C 0.65069 0.32236 0.72385 0.0
C5234 C 0.65773 0.31052 0.71852 0.0
C5235 C 0.73458 0.2829 0.71623 0.0
C5236 C 0.73358 0.28041 0.73205 0.0
C5237 C 0.72134 0.2844 0.70657 0.0
C5238 C 0.70665 0.28344 0.7124 0.0
C5239 C 0.70575 0.28123 0.72824 0.0
C5240 C 0.71892 0.27966 0.73786 0.0
C5241 C 0.69222 0.28468 0.70213 0.0
C5242 C 0.68385 0.29565 0.70713 0.0
C5243 C 0.68665 0.27519 0.68747 0.0
C5244 C 0.69431 0.2629 0.68159 0.0
C5245 C 0.69567 0.25069 0.69046 0.0
C5246 C 0.70301 0.23919 0.68486 0.0
C5247 C 0.70895 0.23974 0.67036 0.0
C5248 C 0.70751 0.25176 0.66141 0.0
C5249 C 0.70017 0.26328 0.66695 0.0
H5250 H 0.71463 0.23083 0.66605 0.0
H5251 H 0.64359 0.34314 0.71859 0.0
H5252 H 0.03515 0.35335 0.9859 0.0
H5253 H 0.03588 0.38075 0.99494 0.0
H5254 H 0.98499 0.36848 0.99159 0.0
H5255 H 0.9841 0.34139 0.98183 0.0
H5256 H 0.99456 0.39279 0.9772 0.0
H5257 H 0.01025 0.37937 0.0279 0.0
H5258 H 0.02632 0.37011 0.04796 0.0
H5259 H 0.0674 0.40566 0.04098 0.0
H5260 H 0.05164 0.41501 0.02075 0.0
H5261 H 0.98961 0.46961 0.00847 0.0
H5262 H 0.98742 0.44114 0.00509 0.0
H5263 H 0.03797 0.45036 0.00558 0.0
H5264 H 0.04032 0.47853 0.00902 0.0
H5265 H 0.02756 0.42744 0.02303 0.0
H5266 H 0.0143 0.43907 0.9715 0.0
H5267 H 0.99994 0.44934 0.95097 0.0
H5268 H 0.95633 0.4177 0.95849 0.0
H5269 H 0.97047 0.40737 0.97929 0.0
C5270 C 0.02409 0.35645 0.9871 0.0
C5271 C 0.00956 0.34503 0.98298 0.0
C5272 C 0.02455 0.37213 0.99251 0.0
C5273 C 0.01048 0.37677 0.99406 0.0
C5274 C 0.99602 0.36528 0.99053 0.0
C5275 C 0.99555 0.34966 0.98505 0.0
C5276 C 0.01065 0.39374 0.99784 0.0
C5277 C 0.00154 0.40023 0.98744 0.0
C5278 C 0.02019 0.40374 0.01086 0.0
C5279 C 0.02978 0.39777 0.02267 0.0
C5280 C 0.02275 0.38509 0.0305 0.0
C5281 C 0.0318 0.37986 0.04194 0.0
C5282 C 0.04788 0.38726 0.0457 0.0
C5283 C 0.05495 0.39991 0.03803 0.0
C5284 C 0.04596 0.40519 0.02659 0.0
C5285 C 1.00025 0.46558 0.00786 0.0
C5286 C 0.01511 0.47648 0.00893 0.0
C5287 C 0.99899 0.44929 0.00591 0.0
C5288 C 0.01254 0.44357 0.00503 0.0
C5289 C 0.02734 0.45442 0.00629 0.0
C5290 C 0.02862 0.47062 0.00815 0.0
C5291 C 0.01144 0.42632 0.00243 0.0
C5292 C 0.02042 0.41985 0.01296 0.0
C5293 C 0.00199 0.41635 0.98943 0.0
C5294 C 0.9934 0.42261 0.97708 0.0
C5295 C 0.00162 0.43442 0.96889 0.0
C5296 C 0.99352 0.44022 0.95717 0.0
C5297 C 0.97721 0.43423 0.95344 0.0
C5298 C 0.96896 0.42237 0.96142 0.0
C5299 C 0.97701 0.41653 0.97317 0.0
H5300 H 0.97096 0.43873 0.94433 0.0
H5301 H 0.05485 0.38322 0.05459 0.0
H5302 H 0.95486 0.75983 0.13021 0.0
H5303 H 0.93201 0.75733 0.14516 0.0
H5304 H 0.96074 0.79104 0.18258 0.0
H5305 H 0.98353 0.79371 0.16765 0.0
H5306 H 0.94247 0.76386 0.1932 0.0
H5307 H 0.93521 0.8023 0.15942 0.0
H5308 H 0.93204 0.81259 0.13415 0.0
H5309 H 0.89044 0.77484 0.11916 0.0
H5310 H 0.89351 0.76418 0.14427 0.0
H5311 H 0.88304 0.78694 0.23636 0.0
H5312 H 0.90475 0.78777 0.22003 0.0
H5313 H 0.87536 0.7487 0.18818 0.0
H5314 H 0.85387 0.74741 0.20478 0.0
H5315 H 0.89314 0.77723 0.17397 0.0
H5316 H 0.89975 0.73843 0.20644 0.0
H5317 H 0.9029 0.72628 0.2306 0.0
H5318 H 0.94532 0.76259 0.2469 0.0
H5319 H 0.94226 0.77514 0.22293 0.0
C5320 C 0.95632 0.76669 0.14164 0.0
C5321 C 0.97109 0.77699 0.14769 0.0
C5322 C 0.9432 0.76532 0.15015 0.0
C5323 C 0.94456 0.77404 0.16503 0.0
C5324 C 0.95933 0.78419 0.17115 0.0
C5325 C 0.97235 0.78577 0.16255 0.0
C5326 C 0.93073 0.77247 0.17436 0.0
C5327 C 0.93178 0.767 0.18906 0.0
C5328 C 0.91649 0.77601 0.16881 0.0
C5329 C 0.9147 0.78233 0.15365 0.0
C5330 C 0.92549 0.79609 0.15067 0.0
C5331 C 0.92369 0.80201 0.13639 0.0
C5332 C 0.91108 0.79434 0.12503 0.0
C5333 C 0.90023 0.78075 0.12795 0.0
C5334 C 0.90199 0.77476 0.14221 0.0
C5335 C 0.88119 0.77855 0.22586 0.0
C5336 C 0.86665 0.76714 0.2219 0.0
C5337 C 0.89363 0.77899 0.21656 0.0
C5338 C 0.89175 0.7683 0.20284 0.0
C5339 C 0.87715 0.75709 0.19868 0.0
C5340 C 0.86486 0.75636 0.20821 0.0
C5341 C 0.90501 0.76887 0.1929 0.0
C5342 C 0.90384 0.77412 0.1781 0.0
C5343 C 0.91909 0.76495 0.19826 0.0
C5344 C 0.9206 0.7579 0.21302 0.0
C5345 C 0.90958 0.74401 0.2153 0.0
C5346 C 0.9114 0.73699 0.22893 0.0
C5347 C 0.92426 0.7437 0.24032 0.0
C5348 C 0.93532 0.75745 0.2381 0.0
C5349 C 0.93355 0.76452 0.2245 0.0
H5350 H 0.92568 0.73821 0.25082 0.0
H5351 H 0.90969 0.79896 0.11399 0.0
H5352 H 0.53831 0.31952 0.11224 0.0
H5353 H 0.54138 0.34216 0.09752 0.0
H5354 H 0.50972 0.36026 0.12528 0.0
H5355 H 0.50654 0.33763 0.13997 0.0
H5356 H 0.50243 0.36255 0.09561 0.0
H5357 H 0.55092 0.37627 0.13037 0.0
H5358 H 0.57572 0.37208 0.14262 0.0
H5359 H 0.59273 0.36857 0.09757 0.0
H5360 H 0.56793 0.37252 0.08501 0.0
H5361 H 0.51759 0.4397 0.07326 0.0
H5362 H 0.5162 0.41752 0.08837 0.0
H5363 H 0.54596 0.39925 0.05831 0.0
H5364 H 0.54719 0.42121 0.04293 0.0
H5365 H 0.55464 0.39694 0.08879 0.0
H5366 H 0.50653 0.38295 0.05402 0.0
H5367 H 0.48162 0.38647 0.04131 0.0
H5368 H 0.46389 0.38986 0.08601 0.0
H5369 H 0.48881 0.3866 0.09903 0.0
C5370 C 0.53212 0.32839 0.11533 0.0
C5371 C 0.52216 0.32667 0.12733 0.0
C5372 C 0.53389 0.34138 0.10689 0.0
C5373 C 0.52593 0.35312 0.11034 0.0
C5374 C 0.51599 0.35141 0.12231 0.0
C5375 C 0.51414 0.3384 0.13069 0.0
C5376 C 0.5276 0.36697 0.1013 0.0
C5377 C 0.51386 0.37019 0.09435 0.0
C5378 C 0.54251 0.37676 0.09918 0.0
C5379 C 0.5575 0.37455 0.10673 0.0
C5380 C 0.55991 0.3745 0.12306 0.0
C5381 C 0.57397 0.37218 0.13006 0.0
C5382 C 0.58578 0.37002 0.12087 0.0
C5383 C 0.58357 0.37023 0.10467 0.0
C5384 C 0.56951 0.37252 0.0976 0.0
C5385 C 0.52374 0.43092 0.06971 0.0
C5386 C 0.53244 0.43234 0.05672 0.0
C5387 C 0.52298 0.41823 0.07845 0.0
C5388 C 0.53085 0.40655 0.07444 0.0
C5389 C 0.53981 0.40808 0.06171 0.0
C5390 C 0.54054 0.42074 0.05293 0.0
C5391 C 0.52945 0.39259 0.08329 0.0
C5392 C 0.54322 0.38932 0.09012 0.0
C5393 C 0.51458 0.3827 0.08529 0.0
C5394 C 0.4996 0.38471 0.07752 0.0
C5395 C 0.49738 0.38459 0.06116 0.0
C5396 C 0.48325 0.38652 0.05389 0.0
C5397 C 0.4712 0.38844 0.06285 0.0
C5398 C 0.47325 0.3884 0.07909 0.0
C5399 C 0.48737 0.38651 0.08642 0.0
H5400 H 0.46026 0.38991 0.0572 0.0
H5401 H 0.59666 0.36822 0.12632 0.0
H5402 H 0.95532 0.29825 0.28942 0.0
H5403 H 0.92789 0.29752 0.28041 0.0
H5404 H 0.91257 0.27495 0.32047 0.0
H5405 H 0.93981 0.27527 0.32923 0.0
H5406 H 0.89249 0.26199 0.29631 0.0
H5407 H 0.91808 0.31655 0.31737 0.0
H5408 H 0.93781 0.3421 0.31872 0.0
H5409 H 0.92251 0.34544 0.27083 0.0
H5410 H 0.90283 0.31981 0.26915 0.0
H5411 H 0.81712 0.27417 0.30002 0.0
H5412 H 0.84524 0.27571 0.30586 0.0
H5413 H 0.85505 0.29993 0.26538 0.0
H5414 H 0.82698 0.29933 0.26023 0.0
H5415 H 0.87809 0.31144 0.28666 0.0
H5416 H 0.85083 0.25798 0.26619 0.0
H5417 H 0.83028 0.23304 0.26526 0.0
H5418 H 0.84844 0.22749 0.31158 0.0
H5419 H 0.86892 0.25249 0.3129 0.0
C5420 C 0.94607 0.29307 0.29626 0.0
C5421 C 0.94978 0.28683 0.31006 0.0
C5422 C 0.93038 0.29272 0.29113 0.0
C5423 C 0.91808 0.28644 0.29989 0.0
C5424 C 0.92176 0.27987 0.31346 0.0
C5425 C 0.93738 0.28001 0.31846 0.0
C5426 C 0.90141 0.28684 0.29523 0.0
C5427 C 0.88935 0.27285 0.29433 0.0
C5428 C 0.89722 0.30086 0.29208 0.0
C5429 C 0.90912 0.31619 0.29309 0.0
C5430 C 0.91902 0.32268 0.3071 0.0
C5431 C 0.93017 0.33718 0.30793 0.0
C5432 C 0.93144 0.34536 0.29486 0.0
C5433 C 0.92154 0.33907 0.28093 0.0
C5434 C 0.91038 0.32457 0.28004 0.0
C5435 C 0.82537 0.2801 0.29259 0.0
C5436 C 0.81996 0.28668 0.27973 0.0
C5437 C 0.84142 0.28079 0.29578 0.0
C5438 C 0.8523 0.28744 0.28575 0.0
C5439 C 0.84695 0.29462 0.27324 0.0
C5440 C 0.83093 0.29434 0.27033 0.0
C5441 C 0.86914 0.28668 0.28817 0.0
C5442 C 0.88121 0.30055 0.28852 0.0
C5443 C 0.87335 0.27252 0.29073 0.0
C5444 C 0.86135 0.25718 0.28968 0.0
C5445 C 0.85042 0.25146 0.27619 0.0
C5446 C 0.83877 0.23732 0.2756 0.0
C5447 C 0.83803 0.22873 0.28838 0.0
C5448 C 0.84901 0.23417 0.30171 0.0
C5449 C 0.86065 0.24831 0.30238 0.0
H5450 H 0.82896 0.21787 0.288 0.0
H5451 H 0.94007 0.35659 0.29553 0.0
H5452 H 0.02679 0.68955 0.60984 0.0
H5453 H 0.02782 0.66566 0.59327 0.0
H5454 H 0.98617 0.63955 0.61095 0.0
H5455 H 0.98508 0.66346 0.6276 0.0
H5456 H 0.01012 0.62381 0.6109 0.0
H5457 H 0.98328 0.64921 0.5749 0.0
H5458 H 0.97948 0.67112 0.5607 0.0
H5459 H 0.02225 0.67212 0.53983 0.0
H5460 H 0.02646 0.65038 0.55411 0.0
H5461 H 1.00063 0.55379 0.55833 0.0
H5462 H 0.99635 0.57712 0.57353 0.0
H5463 H 0.0311 0.6071 0.54999 0.0
H5464 H 0.0344 0.58373 0.53401 0.0
H5465 H 0.00934 0.62076 0.5531 0.0
H5466 H 0.03768 0.59727 0.59016 0.0
H5467 H 0.04194 0.57515 0.60381 0.0
H5468 H 0.9977 0.57102 0.62269 0.0
H5469 H 0.99309 0.593 0.60899 0.0
C5470 C 0.01784 0.67873 0.61023 0.0
C5471 C 0.00585 0.67846 0.6201 0.0
C5472 C 0.01839 0.66507 0.60065 0.0
C5473 C 0.00703 0.65075 0.60076 0.0
C5474 C 0.99506 0.65043 0.61061 0.0
C5475 C 0.99439 0.66414 0.62006 0.0
C5476 C 0.0079 0.63609 0.59086 0.0
C5477 C 0.00974 0.62307 0.59824 0.0
C5478 C 0.00779 0.63519 0.57435 0.0
C5479 C 0.00527 0.64826 0.56572 0.0
C5480 C 0.99196 0.65419 0.5674 0.0
C5481 C 0.98971 0.66657 0.55931 0.0
C5482 C 1.00064 0.67304 0.5494 0.0
C5483 C 0.01381 0.66712 0.54753 0.0
C5484 C 0.01613 0.65476 0.55561 0.0
C5485 C 0.00744 0.56538 0.55657 0.0
C5486 C 0.0181 0.567 0.54529 0.0
C5487 C 0.00505 0.57876 0.56529 0.0
C5488 C 0.0137 0.59406 0.56333 0.0
C5489 C 0.02429 0.59556 0.5519 0.0
C5490 C 0.02632 0.5822 0.54286 0.0
C5491 C 0.0118 0.60845 0.57314 0.0
C5492 C 0.00975 0.62144 0.56576 0.0
C5493 C 0.01192 0.60943 0.58969 0.0
C5494 C 0.01499 0.5967 0.59848 0.0
C5495 C 0.02886 0.59163 0.59722 0.0
C5496 C 0.03133 0.57911 0.60495 0.0
C5497 C 0.02009 0.57166 0.61408 0.0
C5498 C 0.0064 0.57679 0.6156 0.0
C5499 C 0.00386 0.5893 0.60788 0.0
H5500 H 0.02199 0.56192 0.62 0.0
H5501 H 0.99888 0.68261 0.54314 0.0
H5502 H 0.59625 0.78589 0.79108 0.0
H5503 H 0.62044 0.78339 0.78018 0.0
H5504 H 0.6474 0.80224 0.82519 0.0
H5505 H 0.62333 0.80515 0.836 0.0
H5506 H 0.6634 0.81422 0.80336 0.0
H5507 H 0.63461 0.7604 0.80914 0.0
H5508 H 0.61136 0.73749 0.80366 0.0
H5509 H 0.61526 0.73597 0.75429 0.0
H5510 H 0.63842 0.75898 0.75947 0.0
H5511 H 0.73402 0.79194 0.79771 0.0
H5512 H 0.70839 0.79475 0.80429 0.0
H5513 H 0.68695 0.77212 0.75813 0.0
H5514 H 0.71267 0.76854 0.75176 0.0
H5515 H 0.66721 0.76272 0.77732 0.0
H5516 H 0.69604 0.81382 0.76995 0.0
H5517 H 0.7186 0.83731 0.77321 0.0
H5518 H 0.71374 0.84546 0.82222 0.0
H5519 H 0.69135 0.82178 0.81935 0.0
C5520 C 0.60733 0.78949 0.79867 0.0
C5521 C 0.60775 0.79567 0.81448 0.0
C5522 C 0.62121 0.78799 0.79242 0.0
C5523 C 0.63587 0.7923 0.80188 0.0
C5524 C 0.63633 0.79878 0.81757 0.0
C5525 C 0.6225 0.80047 0.82376 0.0
C5526 C 0.65076 0.79008 0.79565 0.0
C5527 C 0.66426 0.80289 0.79785 0.0
C5528 C 0.65185 0.77553 0.78771 0.0
C5529 C 0.63816 0.76148 0.78469 0.0
C5530 C 0.63047 0.7552 0.79712 0.0
C5531 C 0.61731 0.7422 0.79407 0.0
C5532 C 0.61181 0.7353 0.77864 0.0
C5533 C 0.61951 0.74134 0.76624 0.0
C5534 C 0.63266 0.75434 0.76922 0.0
C5535 C 0.72388 0.78758 0.7889 0.0
C5536 C 0.72551 0.78018 0.77411 0.0
C5537 C 0.70916 0.78928 0.79266 0.0
C5538 C 0.69562 0.78409 0.7816 0.0
C5539 C 0.69713 0.77637 0.7669 0.0
C5540 C 0.71188 0.77436 0.76323 0.0
C5541 C 0.68003 0.78675 0.78552 0.0
C5542 C 0.66639 0.77407 0.78281 0.0
C5543 C 0.67871 0.80154 0.79268 0.0
C5544 C 0.69206 0.81593 0.79444 0.0
C5545 C 0.69983 0.82056 0.78145 0.0
C5546 C 0.71259 0.83392 0.78322 0.0
C5547 C 0.71761 0.84289 0.79791 0.0
C5548 C 0.70985 0.83851 0.81085 0.0
C5549 C 0.69711 0.82511 0.80915 0.0
H5550 H 0.7275 0.85323 0.79926 0.0
H5551 H 0.6016 0.72526 0.7763 0.0
H5552 H 0.4903 0.52326 0.69136 0.0
H5553 H 0.49968 0.5235 0.66533 0.0
H5554 H 0.46361 0.54579 0.64972 0.0
H5555 H 0.45432 0.54572 0.67564 0.0
H5556 H 0.46516 0.51819 0.62968 0.0
H5557 H 0.49931 0.5672 0.6568 0.0
H5558 H 0.5192 0.58348 0.67779 0.0
H5559 H 0.55232 0.55707 0.6653 0.0
H5560 H 0.53254 0.54044 0.6444 0.0
H5561 H 0.48596 0.53689 0.5553 0.0
H5562 H 0.47922 0.53871 0.5823 0.0
H5563 H 0.52187 0.52612 0.59815 0.0
H5564 H 0.52884 0.52467 0.57146 0.0
H5565 H 0.51781 0.54825 0.61862 0.0
H5566 H 0.48591 0.49906 0.59312 0.0
H5567 H 0.46721 0.48091 0.57237 0.0
H5568 H 0.43128 0.5046 0.5824 0.0
H5569 H 0.44987 0.52305 0.60307 0.0
C5570 C 0.48445 0.52828 0.68238 0.0
C5571 C 0.4716 0.53452 0.68554 0.0
C5572 C 0.48985 0.52847 0.66756 0.0
C5573 C 0.48235 0.5347 0.65562 0.0
C5574 C 0.46957 0.54096 0.65879 0.0
C5575 C 0.46434 0.541 0.67362 0.0
C5576 C 0.48732 0.5342 0.63961 0.0
C5577 C 0.47659 0.52493 0.62721 0.0
C5578 C 0.50248 0.54248 0.63653 0.0
C5579 C 0.51436 0.55244 0.64915 0.0
C5580 C 0.51077 0.56474 0.65864 0.0
C5581 C 0.52204 0.57406 0.6705 0.0
C5582 C 0.537 0.57128 0.67291 0.0
C5583 C 0.54072 0.55919 0.66345 0.0
C5584 C 0.52948 0.54982 0.65159 0.0
C5585 C 0.4939 0.53454 0.56455 0.0
C5586 C 0.50788 0.53054 0.56116 0.0
C5587 C 0.49003 0.53555 0.57998 0.0
C5588 C 0.49995 0.53237 0.59228 0.0
C5589 C 0.51403 0.52866 0.58892 0.0
C5590 C 0.51795 0.52776 0.57358 0.0
C5591 C 0.4955 0.53248 0.60857 0.0
C5592 C 0.50635 0.54155 0.62104 0.0
C5593 C 0.4806 0.52369 0.61182 0.0
C5594 C 0.46932 0.51253 0.59953 0.0
C5595 C 0.47405 0.50046 0.59083 0.0
C5596 C 0.46348 0.49012 0.57909 0.0
C5597 C 0.44808 0.49163 0.57604 0.0
C5598 C 0.44322 0.50346 0.58476 0.0
C5599 C 0.45377 0.51386 0.5965 0.0
H5600 H 0.43991 0.48361 0.56694 0.0
H5601 H 0.54571 0.57852 0.68208 0.0
H5602 H 0.77363 0.18358 0.94899 0.0
H5603 H 0.77343 0.20098 0.92867 0.0
H5604 H 0.79065 0.24172 0.96374 0.0
H5605 H 0.79073 0.22414 0.9842 0.0
H5606 H 0.76323 0.24122 0.94115 0.0
H5607 H 0.81635 0.2342 0.94214 0.0
H5608 H 0.83469 0.21709 0.94331 0.0
H5609 H 0.81114 0.19002 0.89985 0.0
H5610 H 0.79253 0.2068 0.89852 0.0
H5611 H 0.7629 0.2758 0.86816 0.0
H5612 H 0.77265 0.27219 0.89477 0.0
H5613 H 0.76494 0.22237 0.87991 0.0
H5614 H 0.75507 0.22585 0.85357 0.0
H5615 H 0.79431 0.23628 0.89641 0.0
H5616 H 0.73915 0.23392 0.89748 0.0
H5617 H 0.71514 0.24362 0.89562 0.0
H5618 H 0.73614 0.28045 0.93341 0.0
H5619 H 0.76049 0.2712 0.93522 0.0
C5620 C 0.7775 0.19625 0.95223 0.0
C5621 C 0.78243 0.20275 0.96782 0.0
C5622 C 0.77738 0.20611 0.94075 0.0
C5623 C 0.78229 0.22251 0.94485 0.0
C5624 C 0.78702 0.22905 0.96051 0.0
C5625 C 0.78716 0.21912 0.97204 0.0
C5626 C 0.78216 0.23257 0.93246 0.0
C5627 C 0.77039 0.24075 0.93156 0.0
C5628 C 0.79124 0.23129 0.91992 0.0
C5629 C 0.80312 0.22186 0.92018 0.0
C5630 C 0.81513 0.22464 0.93279 0.0
C5631 C 0.82554 0.21497 0.93351 0.0
C5632 C 0.82411 0.2025 0.92164 0.0
C5633 C 0.81229 0.19972 0.909 0.0
C5634 C 0.80184 0.20935 0.90823 0.0
C5635 C 0.76319 0.26409 0.87072 0.0
C5636 C 0.75825 0.25105 0.85901 0.0
C5637 C 0.76883 0.2621 0.88577 0.0
C5638 C 0.76955 0.24708 0.88908 0.0
C5639 C 0.76463 0.23409 0.87738 0.0
C5640 C 0.75898 0.23605 0.86244 0.0
C5641 C 0.77495 0.24441 0.90481 0.0
C5642 C 0.78775 0.23763 0.90633 0.0
C5643 C 0.76628 0.24628 0.9176 0.0
C5644 C 0.75183 0.25213 0.91621 0.0
C5645 C 0.7388 0.24429 0.90518 0.0
C5646 C 0.72509 0.24966 0.90418 0.0
C5647 C 0.72416 0.26271 0.91432 0.0
C5648 C 0.73693 0.27041 0.92549 0.0
C5649 C 0.75071 0.26514 0.92648 0.0
H5650 H 0.71351 0.26681 0.91357 0.0
H5651 H 0.83213 0.19498 0.92226 0.0
H5652 H 0.1331 0.54502 0.16056 0.0
H5653 H 0.11718 0.54011 0.13495 0.0
H5654 H 0.07471 0.5347 0.15786 0.0
H5655 H 0.09061 0.53904 0.18343 0.0
H5656 H 0.07129 0.5115 0.135 0.0
H5657 H 0.08954 0.56794 0.14128 0.0
H5658 H 0.1096 0.59344 0.14684 0.0
H5659 H 0.13236 0.58091 0.10718 0.0
H5660 H 0.11251 0.55523 0.10149 0.0
H5661 H 0.01838 0.52826 0.07609 0.0
H5662 H 0.03694 0.53029 0.09964 0.0
H5663 H 0.07083 0.51755 0.07091 0.0
H5664 H 0.05215 0.51474 0.04755 0.0
H5665 H 0.08014 0.54818 0.09474 0.0
H5666 H 0.05871 0.4917 0.08783 0.0
H5667 H 0.03636 0.46798 0.0824 0.0
H5668 H 0.01722 0.48264 0.1238 0.0
H5669 H 0.03934 0.50662 0.12933 0.0
C5670 C 0.1204 0.5431 0.16004 0.0
C5671 C 0.11295 0.54251 0.17374 0.0
C5672 C 0.11135 0.54024 0.1455 0.0
C5673 C 0.09484 0.53712 0.14463 0.0
C5674 C 0.08745 0.53701 0.15838 0.0
C5675 C 0.09648 0.53962 0.17289 0.0
C5676 C 0.0852 0.53366 0.12936 0.0
C5677 C 0.07319 0.51955 0.12623 0.0
C5678 C 0.0879 0.54408 0.1179 0.0
C5679 C 0.09966 0.55962 0.12107 0.0
C5680 C 0.09888 0.5706 0.1338 0.0
C5681 C 0.1102 0.58508 0.13697 0.0
C5682 C 0.12228 0.58877 0.1274 0.0
C5683 C 0.12301 0.57802 0.11459 0.0
C5684 C 0.11172 0.56351 0.11138 0.0
C5685 C 0.02963 0.52555 0.07493 0.0
C5686 C 0.03402 0.5215 0.06023 0.0
C5687 C 0.0402 0.52684 0.08823 0.0
C5688 C 0.05509 0.52415 0.08673 0.0
C5689 C 0.05936 0.51977 0.07208 0.0
C5690 C 0.04875 0.51825 0.05886 0.0
C5691 C 0.06629 0.52624 0.10064 0.0
C5692 C 0.07854 0.54006 0.10347 0.0
C5693 C 0.06362 0.51572 0.1119 0.0
C5694 C 0.05067 0.50098 0.10898 0.0
C5695 C 0.04971 0.4899 0.09575 0.0
C5696 C 0.03708 0.47641 0.09265 0.0
C5697 C 0.02537 0.4738 0.10275 0.0
C5698 C 0.02631 0.48466 0.116 0.0
C5699 C 0.03891 0.4982 0.11914 0.0
H5700 H 0.01558 0.46337 0.10032 0.0
H5701 H 0.13105 0.59998 0.1299 0.0
H5702 H 0.78632 0.82304 0.44431 0.0
H5703 H 0.78822 0.81288 0.41746 0.0
H5704 H 0.73739 0.79905 0.40801 0.0
H5705 H 0.73535 0.80887 0.43525 0.0
H5706 H 0.75045 0.77668 0.39429 0.0
H5707 H 0.75657 0.83125 0.39533 0.0
H5708 H 0.76656 0.85957 0.40494 0.0
H5709 H 0.81347 0.85769 0.3963 0.0
H5710 H 0.8038 0.82925 0.38688 0.0
H5711 H 0.74924 0.77521 0.31134 0.0
H5712 H 0.74644 0.78011 0.33913 0.0
H5713 H 0.79693 0.78922 0.35038 0.0
H5714 H 0.79977 0.78417 0.32223 0.0
H5715 H 0.78318 0.81342 0.36296 0.0
H5716 H 0.77364 0.75657 0.36038 0.0
H5717 H 0.76022 0.72939 0.34853 0.0
H5718 H 0.71531 0.73735 0.35737 0.0
H5719 H 0.72844 0.76464 0.36912 0.0
C5720 C 0.7755 0.81759 0.43666 0.0
C5721 C 0.76067 0.81673 0.44198 0.0
C5722 C 0.77662 0.81191 0.42124 0.0
C5723 C 0.76296 0.80536 0.41067 0.0
C5724 C 0.74809 0.8041 0.41597 0.0
C5725 C 0.74694 0.80982 0.43148 0.0
C5726 C 0.76446 0.8004 0.39401 0.0
C5727 C 0.75749 0.78475 0.3874 0.0
C5728 C 0.77357 0.81094 0.38496 0.0
C5729 C 0.77949 0.82806 0.39056 0.0
C5730 C 0.76905 0.83683 0.39561 0.0
C5731 C 0.77464 0.85291 0.401 0.0
C5732 C 0.79065 0.86041 0.40128 0.0
C5733 C 0.80108 0.85185 0.39611 0.0
C5734 C 0.79555 0.83574 0.39074 0.0
C5735 C 0.75973 0.77793 0.31977 0.0
C5736 C 0.77473 0.77928 0.31473 0.0
C5737 C 0.7581 0.7807 0.33564 0.0
C5738 C 0.77146 0.78497 0.34682 0.0
C5739 C 0.78647 0.78587 0.34189 0.0
C5740 C 0.7881 0.78287 0.3259 0.0
C5741 C 0.76965 0.7896 0.36343 0.0
C5742 C 0.77637 0.8053 0.36996 0.0
C5743 C 0.75987 0.77924 0.37215 0.0
C5744 C 0.75203 0.76266 0.36558 0.0
C5745 C 0.7609 0.75253 0.35976 0.0
C5746 C 0.75334 0.73711 0.35306 0.0
C5747 C 0.73692 0.73165 0.35219 0.0
C5748 C 0.72803 0.74158 0.35807 0.0
C5749 C 0.73553 0.75702 0.36479 0.0
H5750 H 0.73109 0.71972 0.34696 0.0
H5751 H 0.79497 0.87287 0.40545 0.0
H5752 H 0.45338 0.53101 0.84885 0.0
H5753 H 0.46297 0.52918 0.8759 0.0
H5754 H 0.51109 0.54239 0.86487 0.0
H5755 H 0.5013 0.54356 0.83752 0.0
H5756 H 0.50802 0.51904 0.88107 0.0
H5757 H 0.49498 0.56811 0.88829 0.0
H5758 H 0.47891 0.58723 0.88586 0.0
H5759 H 0.4438 0.55979 0.91052 0.0
H5760 H 0.45957 0.54038 0.91293 0.0
H5761 H 0.53727 0.53625 0.96433 0.0
H5762 H 0.53061 0.53838 0.93652 0.0
H5763 H 0.48332 0.51005 0.93809 0.0
H5764 H 0.49017 0.5074 0.96578 0.0
H5765 H 0.48785 0.54257 0.92716 0.0
H5766 H 0.50224 0.4929 0.91826 0.0
H5767 H 0.52032 0.47574 0.92146 0.0
H5768 H 0.55565 0.50769 0.90083 0.0
H5769 H 0.53783 0.52514 0.89769 0.0
C5770 C 0.466 0.53372 0.85233 0.0
C5771 C 0.47666 0.53758 0.84132 0.0
C5772 C 0.4715 0.53275 0.86777 0.0
C5773 C 0.48779 0.5359 0.87255 0.0
C5774 C 0.49848 0.53995 0.8615 0.0
C5775 C 0.49294 0.54072 0.84595 0.0
C5776 C 0.4935 0.53415 0.88885 0.0
C5777 C 0.50378 0.52442 0.89113 0.0
C5778 C 0.48795 0.54105 0.90206 0.0
C5779 C 0.47841 0.55271 0.90068 0.0
C5780 C 0.48378 0.56608 0.8931 0.0
C5781 C 0.47473 0.57699 0.89174 0.0
C5782 C 0.46033 0.57471 0.898 0.0
C5783 C 0.45496 0.56153 0.90567 0.0
C5784 C 0.46396 0.55059 0.90706 0.0
C5785 C 0.52561 0.53012 0.95856 0.0
C5786 C 0.51427 0.52147 0.96699 0.0
C5787 C 0.5218 0.53141 0.94277 0.0
C5788 C 0.50648 0.5244 0.93534 0.0
C5789 C 0.49522 0.51547 0.94366 0.0
C5790 C 0.49916 0.51384 0.95936 0.0
C5791 C 0.50196 0.52724 0.91918 0.0
C5792 C 0.49204 0.53727 0.91702 0.0
C5793 C 0.50811 0.52093 0.90615 0.0
C5794 C 0.51877 0.51039 0.90788 0.0
C5795 C 0.51391 0.49633 0.91453 0.0
C5796 C 0.5241 0.48653 0.9163 0.0
C5797 C 0.53914 0.49064 0.91139 0.0
C5798 C 0.544 0.50453 0.90464 0.0
C5799 C 0.53386 0.51436 0.90284 0.0
H5800 H 0.54701 0.48305 0.91278 0.0
H5801 H 0.45334 0.58316 0.89693 0.0
H5802 H 0.78798 0.22971 0.10289 0.0
H5803 H 0.79069 0.24032 0.1307 0.0
H5804 H 0.77276 0.19325 0.14246 0.0
H5805 H 0.76975 0.18271 0.11478 0.0
H5806 H 0.75719 0.2143 0.15358 0.0
H5807 H 0.81134 0.21175 0.15157 0.0
H5808 H 0.83688 0.21718 0.14068 0.0
H5809 H 0.84197 0.26697 0.15072 0.0
H5810 H 0.81636 0.26187 0.16144 0.0
H5811 H 0.76168 0.24839 0.23104 0.0
H5812 H 0.76602 0.23063 0.20923 0.0
H5813 H 0.79293 0.27083 0.18988 0.0
H5814 H 0.79072 0.28813 0.21305 0.0
H5815 H 0.80574 0.24832 0.18507 0.0
H5816 H 0.75179 0.2533 0.17997 0.0
H5817 H 0.72536 0.25112 0.18854 0.0
H5818 H 0.7186 0.20122 0.1885 0.0
H5819 H 0.74512 0.20316 0.18022 0.0
C5820 C 0.78463 0.22176 0.11151 0.0
C5821 C 0.77839 0.20557 0.10697 0.0
C5822 C 0.78636 0.22771 0.12725 0.0
C5823 C 0.78214 0.21742 0.13842 0.0
C5824 C 0.77613 0.20123 0.13387 0.0
C5825 C 0.77424 0.19531 0.11817 0.0
C5826 C 0.78239 0.22374 0.15467 0.0
C5827 C 0.76783 0.22147 0.16066 0.0
C5828 C 0.7963 0.23336 0.16345 0.0
C5829 C 0.81188 0.2364 0.15728 0.0
C5830 C 0.81786 0.22385 0.1514 0.0
C5831 C 0.83236 0.22688 0.14525 0.0
C5832 C 0.84103 0.24241 0.145 0.0
C5833 C 0.83525 0.25495 0.15093 0.0
C5834 C 0.82076 0.25199 0.15707 0.0
C5835 C 0.76921 0.25317 0.22249 0.0
C5836 C 0.77656 0.26926 0.22387 0.0
C5837 C 0.77135 0.24317 0.20992 0.0
C5838 C 0.77974 0.24949 0.19799 0.0
C5839 C 0.78662 0.26575 0.19914 0.0
C5840 C 0.78515 0.27561 0.21214 0.0
C5841 C 0.78042 0.23947 0.1837 0.0
C5842 C 0.79515 0.24087 0.17813 0.0
C5843 C 0.76656 0.22959 0.17495 0.0
C5844 C 0.75051 0.22841 0.17968 0.0
C5845 C 0.7447 0.24188 0.18188 0.0
C5846 C 0.72971 0.24069 0.1867 0.0
C5847 C 0.72033 0.22605 0.18912 0.0
C5848 C 0.7259 0.21256 0.18667 0.0
C5849 C 0.74091 0.2137 0.18194 0.0
H5850 H 0.70873 0.22516 0.19285 0.0
H5851 H 0.85224 0.24472 0.14022 0.0
H5852 H 0.08929 0.54182 0.30739 0.0
H5853 H 0.0813 0.54914 0.33299 0.0
H5854 H 0.12319 0.54 0.35594 0.0
H5855 H 0.13114 0.53256 0.33044 0.0
H5856 H 0.09754 0.5276 0.36912 0.0
H5857 H 0.12093 0.57793 0.35276 0.0
H5858 H 0.12453 0.5985 0.33509 0.0
H5859 H 0.07636 0.60045 0.33679 0.0
H5860 H 0.07242 0.57976 0.35432 0.0
H5861 H 0.08249 0.55824 0.44354 0.0
H5862 H 0.09688 0.55627 0.42066 0.0
H5863 H 0.05811 0.56444 0.39128 0.0
H5864 H 0.0437 0.5663 0.41391 0.0
H5865 H 0.08571 0.57918 0.38276 0.0
H5866 H 0.06082 0.52754 0.39557 0.0
H5867 H 0.05525 0.50538 0.41128 0.0
H5868 H 0.104 0.50437 0.41438 0.0
H5869 H 0.10992 0.52671 0.39891 0.0
C5870 C 0.09666 0.54124 0.31794 0.0
C5871 C 0.11074 0.53655 0.31704 0.0
C5872 C 0.0922 0.54556 0.33248 0.0
C5873 C 0.10187 0.54542 0.34625 0.0
C5874 C 0.11566 0.54026 0.34539 0.0
C5875 C 0.12008 0.53585 0.33086 0.0
C5876 C 0.09732 0.5501 0.36163 0.0
C5877 C 0.09528 0.53901 0.37228 0.0
C5878 C 0.09402 0.56485 0.36544 0.0
C5879 C 0.09636 0.57721 0.35478 0.0
C5880 C 0.11107 0.58265 0.34927 0.0
C5881 C 0.11318 0.59436 0.33929 0.0
C5882 C 0.10067 0.60076 0.3348 0.0
C5883 C 0.08604 0.59548 0.34027 0.0
C5884 C 0.08387 0.58378 0.35024 0.0
C5885 C 0.07717 0.55983 0.43222 0.0
C5886 C 0.06195 0.56231 0.43044 0.0
C5887 C 0.08538 0.5587 0.41922 0.0
C5888 C 0.0784 0.55998 0.40433 0.0
C5889 C 0.06366 0.56345 0.40271 0.0
C5890 C 0.05548 0.56458 0.41567 0.0
C5891 C 0.08575 0.55659 0.39016 0.0
C5892 C 0.0883 0.56791 0.37974 0.0
C5893 C 0.0893 0.54194 0.38643 0.0
C5894 C 0.08587 0.529 0.39634 0.0
C5895 C 0.07041 0.52277 0.39983 0.0
C5896 C 0.06717 0.51013 0.40864 0.0
C5897 C 0.07928 0.50352 0.4139 0.0
C5898 C 0.09465 0.50955 0.41037 0.0
C5899 C 0.09795 0.52221 0.40161 0.0
H5900 H 0.07673 0.49369 0.42064 0.0
H5901 H 0.10233 0.60983 0.32709 0.0
H5902 H 0.76448 0.80113 0.58751 0.0
H5903 H 0.76409 0.7911 0.61314 0.0
H5904 H 0.76003 0.836 0.63491 0.0
H5905 H 0.76054 0.84594 0.60939 0.0
H5906 H 0.78256 0.82631 0.65095 0.0
H5907 H 0.72851 0.80278 0.62794 0.0
H5908 H 0.70752 0.78619 0.60811 0.0
H5909 H 0.72447 0.74559 0.61595 0.0
H5910 H 0.7457 0.762 0.63567 0.0
H5911 H 0.76337 0.81066 0.72616 0.0
H5912 H 0.76169 0.81695 0.69918 0.0
H5913 H 0.7652 0.77036 0.68223 0.0
H5914 H 0.76664 0.76389 0.70906 0.0
H5915 H 0.74385 0.77904 0.6631 0.0
H5916 H 0.79715 0.80103 0.68552 0.0
H5917 H 0.81871 0.81656 0.70536 0.0
H5918 H 0.80441 0.85871 0.69807 0.0
H5919 H 0.7826 0.84339 0.67834 0.0
C5920 C 0.76342 0.80874 0.59781 0.0
C5921 C 0.76252 0.82426 0.59662 0.0
C5922 C 0.76313 0.80302 0.6124 0.0
C5923 C 0.76193 0.81276 0.62597 0.0
C5924 C 0.76096 0.82826 0.62464 0.0
C5925 C 0.76121 0.83393 0.6101 0.0
C5926 C 0.76232 0.80723 0.64171 0.0
C5927 C 0.77395 0.81608 0.65363 0.0
C5928 C 0.75152 0.7935 0.64509 0.0
C5929 C 0.73882 0.78367 0.63315 0.0
C5930 C 0.72786 0.79035 0.62532 0.0
C5931 C 0.7159 0.78097 0.61412 0.0
C5932 C 0.71469 0.76486 0.61073 0.0
C5933 C 0.72543 0.75808 0.61856 0.0
C5934 C 0.73743 0.76742 0.62975 0.0
C5935 C 0.76369 0.80172 0.7167 0.0
C5936 C 0.76527 0.78682 0.71983 0.0
C5937 C 0.76277 0.80534 0.70127 0.0
C5938 C 0.76353 0.79419 0.68866 0.0
C5939 C 0.76461 0.77916 0.69172 0.0
C5940 C 0.76551 0.77552 0.70713 0.0
C5941 C 0.76378 0.79844 0.6724 0.0
C5942 C 0.75242 0.78927 0.66039 0.0
C5943 C 0.77496 0.81175 0.66881 0.0
C5944 C 0.78815 0.82104 0.68056 0.0
C5945 C 0.79853 0.8136 0.68823 0.0
C5946 C 0.81081 0.82236 0.69945 0.0
C5947 C 0.81291 0.8386 0.703 0.0
C5948 C 0.80276 0.84612 0.69532 0.0
C5949 C 0.79044 0.83741 0.68411 0.0
H5950 H 0.82242 0.84537 0.71169 0.0
H5951 H 0.70541 0.75761 0.60208 0.0
H5952 H 0.70204 0.43279 0.51991 0.0
H5953 H 0.68133 0.44496 0.52785 0.0
H5954 H 0.67529 0.45891 0.48161 0.0
H5955 H 0.69626 0.44677 0.47366 0.0
H5956 H 0.68139 0.48341 0.50662 0.0
H5957 H 0.6479 0.43046 0.4923 0.0
H5958 H 0.64158 0.40186 0.49372 0.0
H5959 H 0.63853 0.41016 0.54313 0.0
H5960 H 0.64514 0.43886 0.54206 0.0
H5961 H 0.61455 0.51019 0.50385 0.0
H5962 H 0.63293 0.49394 0.49994 0.0
H5963 H 0.63295 0.48487 0.54817 0.0
H5964 H 0.61403 0.50098 0.55211 0.0
H5965 H 0.63094 0.45783 0.52594 0.0
H5966 H 0.66304 0.50987 0.54089 0.0
H5967 H 0.67156 0.53868 0.54109 0.0
H5968 H 0.67918 0.53237 0.49263 0.0
H5969 H 0.67043 0.50351 0.49205 0.0
C5970 C 0.69607 0.43826 0.51142 0.0
C5971 C 0.70058 0.43906 0.49627 0.0
C5972 C 0.68428 0.44509 0.51591 0.0
C5973 C 0.67688 0.45268 0.50525 0.0
C5974 C 0.68096 0.45298 0.48989 0.0
C5975 C 0.69277 0.44607 0.48536 0.0
C5976 C 0.66586 0.46149 0.51059 0.0
C5977 C 0.67024 0.47784 0.51063 0.0
C5978 C 0.65186 0.45412 0.51662 0.0
C5979 C 0.64712 0.43683 0.51712 0.0
C5980 C 0.64593 0.4262 0.50348 0.0
C5981 C 0.64231 0.40997 0.50422 0.0
C5982 C 0.63969 0.4042 0.51851 0.0
C5983 C 0.64058 0.41465 0.53207 0.0
C5984 C 0.64424 0.4309 0.5314 0.0
C5985 C 0.61835 0.50463 0.51359 0.0
C5986 C 0.61299 0.50681 0.52829 0.0
C5987 C 0.62886 0.49543 0.51137 0.0
C5988 C 0.63431 0.48845 0.52384 0.0
C5989 C 0.62881 0.49031 0.53849 0.0
C5990 C 0.61822 0.49957 0.54075 0.0
C5991 C 0.64619 0.47969 0.52134 0.0
C5992 C 0.64211 0.4634 0.52199 0.0
C5993 C 0.66065 0.48712 0.51615 0.0
C5994 C 0.66596 0.5045 0.51641 0.0
C5995 C 0.66639 0.51462 0.53024 0.0
C5996 C 0.67129 0.53096 0.53042 0.0
C5997 C 0.67588 0.53735 0.51687 0.0
C5998 C 0.67561 0.5274 0.50311 0.0
C5999 C 0.67069 0.51104 0.50286 0.0
H6000 H 0.67967 0.55001 0.51704 0.0
H6001 H 0.63694 0.39163 0.51907 0.0
H6002 H 0.18562 0.12526 0.48119 0.0
H6003 H 0.15962 0.10751 0.48135 0.0
H6004 H 0.16688 0.11187 0.53188 0.0
H6005 H 0.19341 0.12863 0.53177 0.0
H6006 H 0.15345 0.08318 0.52196 0.0
H6007 H 0.14257 0.13163 0.51013 0.0
H6008 H 0.1436 0.15462 0.49583 0.0
H6009 H 0.12207 0.12387 0.45366 0.0
H6010 H 0.1211 0.10067 0.46767 0.0
H6011 H 0.07126 0.06315 0.53483 0.0
H6012 H 0.09829 0.07816 0.53264 0.0
H6013 H 0.095 0.05513 0.48549 0.0
H6014 H 0.06808 0.03959 0.48783 0.0
H6015 H 0.10601 0.09198 0.49246 0.0
H6016 H 0.11621 0.04342 0.50628 0.0
H6017 H 0.11418 0.02157 0.5223 0.0
H6018 H 0.13614 0.05446 0.56296 0.0
H6019 H 0.13805 0.07656 0.54721 0.0
C6020 C 0.18186 0.12229 0.49236 0.0
C6021 C 0.19178 0.1285 0.50648 0.0
C6022 C 0.1668 0.11229 0.49244 0.0
C6023 C 0.16106 0.10851 0.50664 0.0
C6024 C 0.17093 0.11461 0.52074 0.0
C6025 C 0.1861 0.12441 0.52066 0.0
C6026 C 0.14488 0.09807 0.50685 0.0
C6027 C 0.14311 0.08527 0.51561 0.0
C6028 C 0.13127 0.10049 0.49838 0.0
C6029 C 0.13193 0.11441 0.48991 0.0
C6030 C 0.13818 0.12976 0.49778 0.0
C6031 C 0.13873 0.14283 0.48973 0.0
C6032 C 0.13295 0.1407 0.47384 0.0
C6033 C 0.12657 0.1255 0.46597 0.0
C6034 C 0.12601 0.11239 0.47395 0.0
C6035 C 0.07634 0.06123 0.52402 0.0
C6036 C 0.06762 0.05022 0.51149 0.0
C6037 C 0.09176 0.06978 0.52281 0.0
C6038 C 0.0986 0.06774 0.50891 0.0
C6039 C 0.08991 0.05683 0.49632 0.0
C6040 C 0.0746 0.04794 0.49769 0.0
C6041 C 0.11475 0.07732 0.50756 0.0
C6042 C 0.11645 0.08994 0.49866 0.0
C6043 C 0.12823 0.07492 0.51611 0.0
C6044 C 0.1271 0.06166 0.5256 0.0
C6045 C 0.12044 0.04602 0.51867 0.0
C6046 C 0.11935 0.03358 0.52769 0.0
C6047 C 0.12498 0.03663 0.54365 0.0
C6048 C 0.13175 0.05212 0.5506 0.0
C6049 C 0.13285 0.06461 0.54163 0.0
H6050 H 0.12413 0.02698 0.55061 0.0
H6051 H 0.13337 0.15083 0.46764 0.0
H6052 H 0.14386 0.94466 0.74239 0.0
H6053 H 0.15894 0.92487 0.73955 0.0
H6054 H 0.18808 0.94622 0.78287 0.0
H6055 H 0.17355 0.96645 0.78545 0.0
H6056 H 0.20582 0.93968 0.76097 0.0
H6057 H 0.15815 0.91119 0.78029 0.0
H6058 H 0.12932 0.90075 0.77952 0.0
H6059 H 0.1275 0.87494 0.73413 0.0
H6060 H 0.15632 0.88535 0.73457 0.0
H6061 H 0.24026 0.88151 0.78593 0.0
H6062 H 0.22424 0.90017 0.78245 0.0
H6063 H 0.20259 0.8739 0.73774 0.0
H6064 H 0.21856 0.85494 0.74125 0.0
H6065 H 0.18066 0.88225 0.75598 0.0
H6066 H 0.22821 0.90851 0.73738 0.0
H6067 H 0.25692 0.91911 0.73736 0.0
H6068 H 0.25889 0.94915 0.7803 0.0
H6069 H 0.2302 0.93864 0.78064 0.0
C6070 C 0.15356 0.94525 0.75126 0.0
C6071 C 0.15746 0.95721 0.76416 0.0
C6072 C 0.16207 0.93379 0.7497 0.0
C6073 C 0.17457 0.93393 0.76107 0.0
C6074 C 0.17848 0.94583 0.77395 0.0
C6075 C 0.17003 0.95732 0.77549 0.0
C6076 C 0.18383 0.92191 0.75953 0.0
C6077 C 0.20031 0.92713 0.76003 0.0
C6078 C 0.17663 0.90549 0.75763 0.0
C6079 C 0.15934 0.89916 0.7574 0.0
C6080 C 0.15158 0.90336 0.7701 0.0
C6081 C 0.13525 0.89744 0.76974 0.0
C6082 C 0.12658 0.88722 0.75677 0.0
C6083 C 0.13423 0.88287 0.74416 0.0
C6084 C 0.15056 0.88876 0.74447 0.0
C6085 C 0.23202 0.8796 0.77539 0.0
C6086 C 0.23064 0.86667 0.76391 0.0
C6087 C 0.22297 0.89038 0.77335 0.0
C6088 C 0.21232 0.88854 0.75977 0.0
C6089 C 0.21078 0.87559 0.74829 0.0
C6090 C 0.21996 0.86481 0.75028 0.0
C6091 C 0.20267 0.90008 0.75796 0.0
C6092 C 0.18614 0.89479 0.75676 0.0
C6093 C 0.2098 0.91646 0.75913 0.0
C6094 C 0.22708 0.9227 0.75909 0.0
C6095 C 0.23479 0.91728 0.74688 0.0
C6096 C 0.25105 0.9233 0.74679 0.0
C6097 C 0.25973 0.93477 0.75883 0.0
C6098 C 0.25215 0.94026 0.77098 0.0
C6099 C 0.23589 0.9343 0.77111 0.0
H6100 H 0.27231 0.93942 0.75874 0.0
H6101 H 0.11393 0.88265 0.7565 0.0
H6102 H 0.35491 0.93371 0.0018 0.0
H6103 H 0.38249 0.94905 0.00614 0.0
H6104 H 0.3681 0.98975 0.0256 0.0
H6105 H 0.34028 0.97426 0.0211 0.0
H6106 H 0.38744 0.99412 0.00061 0.0
H6107 H 0.38713 0.97304 0.05028 0.0
H6108 H 0.38142 0.9518 0.0671 0.0
H6109 H 0.41072 0.92754 0.04255 0.0
H6110 H 0.41643 0.94851 0.02546 0.0
H6111 H 0.46907 0.0342 0.01735 0.0
H6112 H 0.44067 0.0237 0.01777 0.0
H6113 H 0.44551 0.97642 0.006 0.0
H6114 H 0.47397 0.98683 0.00619 0.0
H6115 H 0.43057 0.97861 0.03091 0.0
H6116 H 0.42784 0.99388 0.97932 0.0
H6117 H 0.43363 0.01206 0.95946 0.0
H6118 H 0.41003 0.04319 0.98322 0.0
H6119 H 0.40425 0.02526 0.00335 0.0
C6120 C 0.35777 0.94589 0.00715 0.0
C6121 C 0.34592 0.95305 0.01117 0.0
C6122 C 0.37337 0.95454 0.00972 0.0
C6123 C 0.3771 0.97033 0.0164 0.0
C6124 C 0.36522 0.97748 0.02058 0.0
C6125 C 0.34954 0.96877 0.01801 0.0
C6126 C 0.39339 0.97954 0.01759 0.0
C6127 C 0.39693 0.99112 0.00755 0.0
C6128 C 0.40551 0.97492 0.02617 0.0
C6129 C 0.40219 0.96237 0.03658 0.0
C6130 C 0.3923 0.96315 0.04843 0.0
C6131 C 0.38908 0.95116 0.05802 0.0
C6132 C 0.39572 0.93835 0.05591 0.0
C6133 C 0.40561 0.93749 0.0442 0.0
C6134 C 0.40887 0.94944 0.03458 0.0
C6135 C 0.46395 0.0216 0.01467 0.0
C6136 C 0.47343 0.0112 0.01193 0.0
C6137 C 0.44785 0.01567 0.01486 0.0
C6138 C 0.44121 0.99937 0.01193 0.0
C6139 C 0.45061 0.98905 0.00843 0.0
C6140 C 0.46673 0.99494 0.00855 0.0
C6141 C 0.42464 0.99292 0.01364 0.0
C6142 C 0.4211 0.98191 0.02425 0.0
C6143 C 0.41253 0.99763 0.00514 0.0
C6144 C 0.41577 0.00832 0.99294 0.0
C6145 C 0.42398 0.00466 0.98037 0.0
C6146 C 0.42724 0.01491 0.96905 0.0
C6147 C 0.42224 0.0288 0.9701 0.0
C6148 C 0.41391 0.03243 0.98244 0.0
C6149 C 0.41062 0.02223 0.99379 0.0
H6150 H 0.4248 0.03673 0.96134 0.0
H6151 H 0.39321 0.92908 0.06334 0.0
H6152 H 0.86253 0.60044 0.7863 0.0
H6153 H 0.84958 0.62067 0.77918 0.0
H6154 H 0.80414 0.58664 0.77383 0.0
H6155 H 0.81735 0.56614 0.7804 0.0
H6156 H 0.80846 0.60363 0.74904 0.0
H6157 H 0.81355 0.6151 0.80529 0.0
H6158 H 0.82919 0.61839 0.83113 0.0
H6159 H 0.86304 0.65783 0.81836 0.0
H6160 H 0.84764 0.6547 0.79238 0.0
H6161 H 0.76376 0.66042 0.74649 0.0
H6162 H 0.7759 0.63911 0.75141 0.0
H6163 H 0.82206 0.67183 0.7579 0.0
H6164 H 0.80999 0.6933 0.75276 0.0
H6165 H 0.81691 0.65501 0.7823 0.0
H6166 H 0.81181 0.64391 0.72629 0.0
H6167 H 0.79836 0.63879 0.69926 0.0
H6168 H 0.7657 0.59775 0.7107 0.0
H6169 H 0.77886 0.60271 0.73786 0.0
C6170 C 0.84975 0.59749 0.78403 0.0
C6171 C 0.84077 0.58208 0.78421 0.0
C6172 C 0.84238 0.60893 0.7799 0.0
C6173 C 0.82592 0.60513 0.77622 0.0
C6174 C 0.81686 0.58973 0.77675 0.0
C6175 C 0.8243 0.57818 0.78068 0.0
C6176 C 0.8184 0.61728 0.77136 0.0
C6177 C 0.80998 0.61476 0.75638 0.0
C6178 C 0.8209 0.63188 0.78085 0.0
C6179 C 0.82941 0.63471 0.79693 0.0
C6180 C 0.82426 0.62456 0.80805 0.0
C6181 C 0.83311 0.62636 0.8227 0.0
C6182 C 0.84709 0.63833 0.82639 0.0
C6183 C 0.85217 0.64861 0.8155 0.0
C6184 C 0.84335 0.64688 0.80084 0.0
C6185 C 0.77652 0.66303 0.74849 0.0
C6186 C 0.78592 0.67854 0.74928 0.0
C6187 C 0.78344 0.65084 0.75135 0.0
C6188 C 0.79984 0.65394 0.75498 0.0
C6189 C 0.80935 0.66927 0.75516 0.0
C6190 C 0.80244 0.68149 0.75227 0.0
C6191 C 0.80686 0.64141 0.75989 0.0
C6192 C 0.81522 0.64386 0.77494 0.0
C6193 C 0.80426 0.62673 0.75044 0.0
C6194 C 0.79622 0.62379 0.73415 0.0
C6195 C 0.80167 0.63388 0.72308 0.0
C6196 C 0.79412 0.63098 0.70773 0.0
C6197 C 0.78116 0.61798 0.70328 0.0
C6198 C 0.77573 0.60783 0.71417 0.0
C6199 C 0.78324 0.61067 0.72954 0.0
H6200 H 0.77533 0.61576 0.69138 0.0
H6201 H 0.854 0.63962 0.83769 0.0
H6202 H 0.85629 0.65475 0.00293 0.0
H6203 H 0.8768 0.64051 0.00582 0.0
H6204 H 0.84717 0.60793 0.03161 0.0
H6205 H 0.82683 0.6224 0.02908 0.0
H6206 H 0.87573 0.61521 0.04548 0.0
H6207 H 0.85315 0.59851 0.99195 0.0
H6208 H 0.84452 0.60153 0.96472 0.0
H6209 H 0.89202 0.62572 0.95889 0.0
H6210 H 0.90089 0.62302 0.98617 0.0
H6211 H 0.91433 0.55271 0.03672 0.0
H6212 H 0.89656 0.57004 0.03722 0.0
H6213 H 0.92915 0.60349 0.01491 0.0
H6214 H 0.9472 0.58633 0.01461 0.0
H6215 H 0.90006 0.59682 -0.00014 0.0
H6216 H 0.92255 0.61169 0.05366 0.0
H6217 H 0.93039 0.60846 0.08103 0.0
H6218 H 0.88212 0.58653 0.08631 0.0
H6219 H 0.87401 0.58947 0.05892 0.0
C6220 C 0.85411 0.64448 0.00911 0.0
C6221 C 0.83992 0.63969 0.01575 0.0
C6222 C 0.86584 0.63631 0.01074 0.0
C6223 C 0.86352 0.62297 0.01877 0.0
C6224 C 0.84933 0.61819 0.0254 0.0
C6225 C 0.83769 0.62647 0.02394 0.0
C6226 C 0.87591 0.6141 0.02045 0.0
C6227 C 0.88089 0.611 0.03546 0.0
C6228 C 0.883 0.60891 0.00748 0.0
C6229 C 0.87764 0.61072 0.99115 0.0
C6230 C 0.86172 0.6046 0.98491 0.0
C6231 C 0.85679 0.60623 0.96946 0.0
C6232 C 0.8677 0.61385 0.9601 0.0
C6233 C 0.88357 0.61985 0.96616 0.0
C6234 C 0.88856 0.61826 0.98161 0.0
C6235 C 0.91793 0.5639 0.0322 0.0
C6236 C 0.93224 0.56802 0.02553 0.0
C6237 C 0.90771 0.57383 0.03252 0.0
C6238 C 0.91151 0.58815 0.02618 0.0
C6239 C 0.92592 0.59249 0.01984 0.0
C6240 C 0.93619 0.58258 0.01957 0.0
C6241 C 0.89985 0.59786 0.02487 0.0
C6242 C 0.89496 0.60108 0.0099 0.0
C6243 C 0.89274 0.60298 0.03787 0.0
C6244 C 0.8977 0.60063 0.05415 0.0
C6245 C 0.91364 0.60599 0.06058 0.0
C6246 C 0.91812 0.60426 0.07612 0.0
C6247 C 0.90677 0.59725 0.08538 0.0
C6248 C 0.89091 0.59193 0.07912 0.0
C6249 C 0.88636 0.59363 0.06359 0.0
H6250 H 0.91026 0.59597 0.09743 0.0
H6251 H 0.86387 0.61508 0.94813 0.0
H6252 H 0.19138 0.09873 0.78197 0.0
H6253 H 0.20878 0.12497 0.78147 0.0
H6254 H 0.16837 0.14189 0.76689 0.0
H6255 H 0.15106 0.11553 0.76683 0.0
H6256 H 0.19016 0.15293 0.7506 0.0
H6257 H 0.18927 0.15058 0.80579 0.0
H6258 H 0.19227 0.13995 0.83091 0.0
H6259 H 0.24137 0.144 0.82665 0.0
H6260 H 0.23862 0.15447 0.8014 0.0
H6261 H 0.22476 0.23547 0.77205 0.0
H6262 H 0.20949 0.20838 0.77289 0.0
H6263 H 0.2517 0.19213 0.77002 0.0
H6264 H 0.26705 0.21923 0.76872 0.0
H6265 H 0.2305 0.18074 0.79484 0.0
H6266 H 0.23041 0.18432 0.73943 0.0
H6267 H 0.22654 0.19642 0.71535 0.0
H6268 H 0.17767 0.19135 0.72153 0.0
H6269 H 0.18133 0.17945 0.74581 0.0
C6270 C 0.18623 0.10809 0.77875 0.0
C6271 C 0.16986 0.10507 0.77443 0.0
C6272 C 0.19618 0.12312 0.77853 0.0
C6273 C 0.18993 0.13557 0.77435 0.0
C6274 C 0.17355 0.13254 0.77012 0.0
C6275 C 0.16364 0.11746 0.77008 0.0
C6276 C 0.20042 0.15162 0.77392 0.0
C6277 C 0.19882 0.15902 0.7604 0.0
C6278 C 0.21204 0.15959 0.78651 0.0
C6279 C 0.21369 0.15313 0.80161 0.0
C6280 C 0.20067 0.14906 0.81014 0.0
C6281 C 0.20234 0.1431 0.82442 0.0
C6282 C 0.21699 0.14125 0.83035 0.0
C6283 C 0.23002 0.1454 0.82203 0.0
C6284 C 0.22842 0.15136 0.80774 0.0
C6285 C 0.23082 0.22615 0.77164 0.0
C6286 C 0.24711 0.22948 0.7703 0.0
C6287 C 0.22207 0.21069 0.77209 0.0
C6288 C 0.22947 0.19828 0.77149 0.0
C6289 C 0.24579 0.20157 0.77049 0.0
C6290 C 0.25451 0.21702 0.76969 0.0
C6291 C 0.22002 0.18188 0.77167 0.0
C6292 C 0.22183 0.1745 0.7851 0.0
C6293 C 0.20842 0.17402 0.75914 0.0
C6294 C 0.20619 0.18116 0.74454 0.0
C6295 C 0.21888 0.18594 0.73575 0.0
C6296 C 0.21672 0.19273 0.72204 0.0
C6297 C 0.20188 0.19469 0.71694 0.0
C6298 C 0.18916 0.18984 0.72551 0.0
C6299 C 0.19128 0.18307 0.73924 0.0
H6300 H 0.20022 0.19994 0.70632 0.0
H6301 H 0.21826 0.13665 0.84141 0.0
H6302 H 0.33141 0.93043 0.24585 0.0
H6303 H 0.32024 0.90309 0.24878 0.0
H6304 H 0.28828 0.91668 0.27938 0.0
H6305 H 0.299 0.9443 0.27602 0.0
H6306 H 0.31455 0.9047 0.2934 0.0
H6307 H 0.2706 0.88952 0.25019 0.0
H6308 H 0.26195 0.89115 0.22254 0.0
H6309 H 0.29789 0.86946 0.2077 0.0
H6310 H 0.30655 0.86752 0.23523 0.0
H6311 H 0.27204 0.82289 0.30139 0.0
H6312 H 0.27915 0.85107 0.29897 0.0
H6313 H 0.3225 0.84675 0.28125 0.0
H6314 H 0.3157 0.81876 0.28422 0.0
H6315 H 0.29028 0.85351 0.2603 0.0
H6316 H 0.33815 0.874 0.29838 0.0
H6317 H 0.35037 0.86975 0.32389 0.0
H6318 H 0.31147 0.87973 0.34618 0.0
H6319 H 0.29899 0.88391 0.3207 0.0
C6320 C 0.32134 0.92764 0.2524 0.0
C6321 C 0.31644 0.9395 0.26121 0.0
C6322 C 0.31504 0.91196 0.25414 0.0
C6323 C 0.30383 0.90814 0.26461 0.0
C6324 C 0.29713 0.91964 0.27142 0.0
C6325 C 0.30326 0.93534 0.26949 0.0
C6326 C 0.30188 0.89318 0.27093 0.0
C6327 C 0.30888 0.89352 0.28631 0.0
C6328 C 0.29543 0.87875 0.26128 0.0
C6329 C 0.28912 0.87828 0.24471 0.0
C6330 C 0.27648 0.8849 0.24098 0.0
C6331 C 0.2716 0.8859 0.22534 0.0
C6332 C 0.27932 0.88037 0.21335 0.0
C6333 C 0.2918 0.87361 0.21696 0.0
C6334 C 0.29663 0.87245 0.23258 0.0
C6335 C 0.28362 0.82825 0.29819 0.0
C6336 C 0.29318 0.81893 0.29248 0.0
C6337 C 0.28748 0.84417 0.29646 0.0
C6338 C 0.30095 0.85047 0.28935 0.0
C6339 C 0.31193 0.84177 0.28649 0.0
C6340 C 0.30819 0.82596 0.28849 0.0
C6341 C 0.30225 0.86521 0.28289 0.0
C6342 C 0.29552 0.86476 0.26746 0.0
C6343 C 0.30938 0.87954 0.29223 0.0
C6344 C 0.31787 0.87966 0.3078 0.0
C6345 C 0.33242 0.87566 0.30882 0.0
C6346 C 0.33931 0.87311 0.32321 0.0
C6347 C 0.33176 0.87459 0.33667 0.0
C6348 C 0.31737 0.87874 0.33577 0.0
C6349 C 0.31042 0.88127 0.32137 0.0
H6350 H 0.337 0.87241 0.34778 0.0
H6351 H 0.27567 0.8814 0.20128 0.0
H6352 H 0.55912 0.36269 0.54398 0.0
H6353 H 0.55684 0.38693 0.53353 0.0
H6354 H 0.51726 0.38805 0.55937 0.0
H6355 H 0.51967 0.3642 0.5702 0.0
H6356 H 0.51172 0.39471 0.52935 0.0
H6357 H 0.55484 0.41126 0.5719 0.0
H6358 H 0.58093 0.41179 0.58536 0.0
H6359 H 0.60304 0.42737 0.54528 0.0
H6360 H 0.57703 0.42667 0.53149 0.0
H6361 H 0.50434 0.47273 0.53028 0.0
H6362 H 0.50718 0.44681 0.53519 0.0
H6363 H 0.55213 0.45645 0.51663 0.0
H6364 H 0.54969 0.48289 0.51252 0.0
H6365 H 0.55583 0.44314 0.5399 0.0
H6366 H 0.51522 0.42865 0.49728 0.0
H6367 H 0.49007 0.42714 0.48137 0.0
H6368 H 0.46422 0.40658 0.51733 0.0
H6369 H 0.48921 0.40818 0.53358 0.0
C6370 C 0.55001 0.36812 0.54761 0.0
C6371 C 0.53962 0.36128 0.55806 0.0
C6372 C 0.54867 0.38202 0.54153 0.0
C6373 C 0.53693 0.38949 0.5457 0.0
C6374 C 0.52639 0.38256 0.55587 0.0
C6375 C 0.52776 0.36877 0.56202 0.0
C6376 C 0.53567 0.40465 0.53984 0.0
C6377 C 0.52131 0.40536 0.53176 0.0
C6378 C 0.54838 0.41843 0.54231 0.0
C6379 C 0.56397 0.41872 0.55059 0.0
C6380 C 0.56524 0.41464 0.5659 0.0
C6381 C 0.58002 0.415 0.5736 0.0
C6382 C 0.59362 0.41956 0.56616 0.0
C6383 C 0.59248 0.42379 0.55101 0.0
C6384 C 0.57773 0.42342 0.54325 0.0
C6385 C 0.51482 0.46934 0.52715 0.0
C6386 C 0.5268 0.47998 0.521 0.0
C6387 C 0.51637 0.45434 0.52983 0.0
C6388 C 0.52975 0.44928 0.52604 0.0
C6389 C 0.54166 0.45988 0.51971 0.0
C6390 C 0.54026 0.47505 0.51732 0.0
C6391 C 0.5317 0.43342 0.52957 0.0
C6392 C 0.54621 0.43254 0.53724 0.0
C6393 C 0.51923 0.41937 0.52633 0.0
C6394 C 0.50413 0.41869 0.51673 0.0
C6395 C 0.50419 0.42396 0.50188 0.0
C6396 C 0.48995 0.42305 0.49278 0.0
C6397 C 0.47556 0.41681 0.49835 0.0
C6398 C 0.47538 0.41144 0.51304 0.0
C6399 C 0.48958 0.41234 0.5222 0.0
H6400 H 0.46455 0.41609 0.49128 0.0
H6401 H 0.60506 0.41985 0.57215 0.0
H6402 H 0.4241 0.74928 0.35668 0.0
H6403 H 0.40036 0.75012 0.33991 0.0
H6404 H 0.38465 0.7743 0.37887 0.0
H6405 H 0.40851 0.77369 0.39566 0.0
H6406 H 0.35945 0.74955 0.36044 0.0
H6407 H 0.39997 0.7952 0.353 0.0
H6408 H 0.42633 0.80918 0.3471 0.0
H6409 H 0.41774 0.78235 0.30137 0.0
H6410 H 0.3914 0.76801 0.3071 0.0
H6411 H 0.29829 0.77266 0.31616 0.0
H6412 H 0.32138 0.77237 0.33402 0.0
H6413 H 0.34481 0.75974 0.29464 0.0
H6414 H 0.32231 0.76167 0.27675 0.0
H6415 H 0.36598 0.77858 0.3141 0.0
H6416 H 0.32945 0.72914 0.32339 0.0
H6417 H 0.30184 0.71569 0.32617 0.0
H6418 H 0.30199 0.74999 0.36528 0.0
H6419 H 0.32988 0.76317 0.36319 0.0
C6420 C 0.41557 0.75468 0.36175 0.0
C6421 C 0.41838 0.76145 0.37761 0.0
C6422 C 0.40195 0.7552 0.3521 0.0
C6423 C 0.39054 0.76227 0.35802 0.0
C6424 C 0.39313 0.76871 0.37393 0.0
C6425 C 0.4069 0.76846 0.38352 0.0
C6426 C 0.37635 0.76353 0.34745 0.0
C6427 C 0.36094 0.75605 0.35043 0.0
C6428 C 0.378 0.77171 0.33409 0.0
C6429 C 0.39377 0.78041 0.33054 0.0
C6430 C 0.40375 0.79218 0.34173 0.0
C6431 C 0.41868 0.80019 0.33842 0.0
C6432 C 0.42372 0.79662 0.32389 0.0
C6433 C 0.41382 0.78508 0.31263 0.0
C6434 C 0.39888 0.77701 0.3159 0.0
C6435 C 0.30824 0.76952 0.31133 0.0
C6436 C 0.30826 0.76685 0.295 0.0
C6437 C 0.32151 0.7692 0.32161 0.0
C6438 C 0.33491 0.76539 0.31595 0.0
C6439 C 0.33478 0.76259 0.29956 0.0
C6440 C 0.32177 0.76352 0.28927 0.0
C6441 C 0.34906 0.76452 0.32697 0.0
C6442 C 0.36447 0.77204 0.32409 0.0
C6443 C 0.34744 0.75626 0.34028 0.0
C6444 C 0.33171 0.74704 0.3432 0.0
C6445 C 0.32368 0.73357 0.33281 0.0
C6446 C 0.308 0.72602 0.33425 0.0
C6447 C 0.30017 0.73199 0.3459 0.0
C6448 C 0.3081 0.74535 0.35631 0.0
C6449 C 0.32394 0.75269 0.3552 0.0
H6450 H 0.28797 0.72624 0.34688 0.0
H6451 H 0.43529 0.80283 0.32134 0.0
H6452 H 0.06128 0.71017 0.04715 0.0
H6453 H 0.0586 0.68246 0.0379 0.0
H6454 H 0.00831 0.67246 0.04006 0.0
H6455 H 0.01102 0.69988 0.05022 0.0
H6456 H 0.01821 0.65225 0.05357 0.0
H6457 H 0.02543 0.66985 0.00417 0.0
H6458 H 0.03723 0.68557 0.98414 0.0
H6459 H 0.07997 0.67087 0.99258 0.0
H6460 H 0.06849 0.65519 0.0128 0.0
H6461 H 0.00325 0.57243 0.02252 0.0
H6462 H 0.00451 0.60044 0.02446 0.0
H6463 H 0.05543 0.61149 0.02922 0.0
H6464 H 0.05422 0.58317 0.02661 0.0
H6465 H 0.04407 0.63075 0.0107 0.0
H6466 H 0.03438 0.61356 0.06191 0.0
H6467 H 0.01927 0.59588 0.07876 0.0
H6468 H 0.97707 0.60893 0.06313 0.0
H6469 H 0.99192 0.62659 0.0461 0.0
C6470 C 0.04963 0.7021 0.04569 0.0
C6471 C 0.03642 0.70738 0.04968 0.0
C6472 C 0.04807 0.68623 0.04012 0.0
C6473 C 0.03323 0.67523 0.03819 0.0
C6474 C 0.01993 0.68062 0.04147 0.0
C6475 C 0.02149 0.69643 0.04717 0.0
C6476 C 0.03179 0.65796 0.03433 0.0
C6477 C 0.02368 0.64762 0.044 0.0
C6478 C 0.03901 0.65171 0.02197 0.0
C6479 C 0.04616 0.66149 0.01015 0.0
C6480 C 0.03742 0.67012 0.0019 0.0
C6481 C 0.04403 0.67898 0.99047 0.0
C6482 C 0.05936 0.67926 0.98713 0.0
C6483 C 0.06811 0.67067 0.9952 0.0
C6484 C 0.06155 0.66178 0.00664 0.0
C6485 C 0.01477 0.58078 0.02409 0.0
C6486 C 0.02867 0.57555 0.02475 0.0
C6487 C 0.01545 0.59684 0.02515 0.0
C6488 C 0.03007 0.60816 0.02736 0.0
C6489 C 0.04401 0.603 0.02761 0.0
C6490 C 0.04332 0.58683 0.02623 0.0
C6491 C 0.03071 0.6253 0.03007 0.0
C6492 C 0.03864 0.63554 0.02021 0.0
C6493 C 0.02298 0.63146 0.042 0.0
C6494 C 0.01424 0.62134 0.05272 0.0
C6495 C 0.02188 0.61266 0.06209 0.0
C6496 C 0.01336 0.60263 0.07165 0.0
C6497 C 0.99722 0.60128 0.07201 0.0
C6498 C 0.98958 0.61001 0.06286 0.0
C6499 C 0.99804 0.62005 0.05328 0.0
H6500 H 0.99064 0.59347 0.07938 0.0
H6501 H 0.06444 0.6861 0.97825 0.0
H6502 H 0.07394 0.25102 0.88478 0.0
H6503 H 0.09659 0.25414 0.86993 0.0
H6504 H 0.09802 0.30323 0.86886 0.0
H6505 H 0.07471 0.29997 0.88293 0.0
H6506 H 0.10315 0.2924 0.84178 0.0
H6507 H 0.12593 0.28962 0.89303 0.0
H6508 H 0.12896 0.27897 0.91813 0.0
H6509 H 0.13531 0.23645 0.89372 0.0
H6510 H 0.13212 0.24677 0.86844 0.0
H6511 H 0.17962 0.31055 0.81437 0.0
H6512 H 0.15786 0.30924 0.8304 0.0
H6513 H 0.15023 0.25885 0.82767 0.0
H6514 H 0.17175 0.25996 0.81132 0.0
H6515 H 0.14903 0.27171 0.8574 0.0
H6516 H 0.12577 0.27614 0.80565 0.0
H6517 H 0.12307 0.28841 0.78146 0.0
H6518 H 0.11875 0.33046 0.80853 0.0
H6519 H 0.12164 0.31852 0.83291 0.0
C6520 C 0.07889 0.26248 0.88128 0.0
C6521 C 0.07224 0.27521 0.88513 0.0
C6522 C 0.09211 0.26432 0.87293 0.0
C6523 C 0.09937 0.27901 0.86837 0.0
C6524 C 0.09281 0.29175 0.87222 0.0
C6525 C 0.07948 0.2899 0.88047 0.0
C6526 C 0.11345 0.28092 0.85923 0.0
C6527 C 0.11327 0.28809 0.8454 0.0
C6528 C 0.12674 0.27518 0.86366 0.0
C6529 C 0.12864 0.26891 0.87883 0.0
C6530 C 0.12785 0.27795 0.89301 0.0
C6531 C 0.12962 0.27198 0.90727 0.0
C6532 C 0.13229 0.25703 0.90752 0.0
C6533 C 0.13323 0.24802 0.89351 0.0
C6534 C 0.13146 0.25393 0.87921 0.0
C6535 C 0.17325 0.29912 0.81696 0.0
C6536 C 0.17757 0.28535 0.81131 0.0
C6537 C 0.16075 0.29841 0.82624 0.0
C6538 C 0.15215 0.28392 0.83019 0.0
C6539 C 0.15661 0.27021 0.82485 0.0
C6540 C 0.16906 0.27089 0.81552 0.0
C6541 C 0.1386 0.28302 0.83991 0.0
C6542 C 0.13891 0.27606 0.85386 0.0
C6543 C 0.12558 0.28924 0.83575 0.0
C6544 C 0.12412 0.2965 0.82111 0.0
C6545 C 0.12442 0.28806 0.80646 0.0
C6546 C 0.12281 0.29495 0.79271 0.0
C6547 C 0.12079 0.31022 0.79346 0.0
C6548 C 0.12035 0.31864 0.80797 0.0
C6549 C 0.12197 0.31182 0.82175 0.0
H6550 H 0.11952 0.31551 0.7828 0.0
H6551 H 0.13366 0.25243 0.91857 0.0
H6552 H 0.50211 0.70957 0.88782 0.0
H6553 H 0.49877 0.68721 0.90294 0.0
H6554 H 0.53395 0.71535 0.93946 0.0
H6555 H 0.53726 0.73778 0.92453 0.0
H6556 H 0.53939 0.6872 0.93261 0.0
H6557 H 0.49379 0.70569 0.94371 0.0
H6558 H 0.46914 0.71339 0.93692 0.0
H6559 H 0.44782 0.66704 0.91257 0.0
H6560 H 0.47242 0.65911 0.91906 0.0
H6561 H 0.52943 0.63629 0.99123 0.0
H6562 H 0.53064 0.65846 0.97614 0.0
H6563 H 0.49244 0.62984 0.94275 0.0
H6564 H 0.49091 0.60774 0.95809 0.0
H6565 H 0.48804 0.65779 0.94721 0.0
H6566 H 0.53302 0.63912 0.93538 0.0
H6567 H 0.55765 0.63104 0.94116 0.0
H6568 H 0.58006 0.67718 0.96548 0.0
H6569 H 0.5555 0.68547 0.95999 0.0
C6570 C 0.509 0.71111 0.89916 0.0
C6571 C 0.52002 0.72558 0.90486 0.0
C6572 C 0.50707 0.69826 0.90782 0.0
C6573 C 0.51603 0.69953 0.92245 0.0
C6574 C 0.52693 0.71398 0.9282 0.0
C6575 C 0.52887 0.72682 0.91957 0.0
C6576 C 0.51452 0.68575 0.93155 0.0
C6577 C 0.52818 0.68092 0.93598 0.0
C6578 C 0.49984 0.67714 0.93556 0.0
C6579 C 0.485 0.68186 0.93175 0.0
C6580 C 0.48388 0.69717 0.93682 0.0
C6581 C 0.46991 0.70157 0.93304 0.0
C6582 C 0.45693 0.69072 0.92429 0.0
C6583 C 0.45789 0.67543 0.91934 0.0
C6584 C 0.47183 0.67098 0.92308 0.0
C6585 C 0.52137 0.63465 0.9806 0.0
C6586 C 0.51016 0.62014 0.97585 0.0
C6587 C 0.52207 0.64738 0.97193 0.0
C6588 C 0.51184 0.64587 0.95804 0.0
C6589 C 0.50051 0.63142 0.95337 0.0
C6590 C 0.49966 0.61874 0.96216 0.0
C6591 C 0.51298 0.65932 0.94843 0.0
C6592 C 0.49926 0.66405 0.94386 0.0
C6593 C 0.52759 0.66779 0.94414 0.0
C6594 C 0.54239 0.66286 0.9474 0.0
C6595 C 0.54317 0.6475 0.94204 0.0
C6596 C 0.55712 0.6429 0.94525 0.0
C6597 C 0.5704 0.65358 0.95371 0.0
C6598 C 0.56976 0.66891 0.95894 0.0
C6599 C 0.55584 0.67358 0.95577 0.0
H6600 H 0.58119 0.64999 0.95619 0.0
H6601 H 0.44613 0.69415 0.92137 0.0
H6602 H 0.09164 0.73934 0.7089 0.0
H6603 H 0.11887 0.74087 0.7187 0.0
H6604 H 0.12273 0.78602 0.74524 0.0
H6605 H 0.09513 0.78432 0.73609 0.0
H6606 H 0.14787 0.78591 0.72738 0.0
H6607 H 0.12233 0.75712 0.76514 0.0
H6608 H 0.10314 0.7365 0.77566 0.0
H6609 H 0.1215 0.70081 0.75203 0.0
H6610 H 0.14069 0.72123 0.74118 0.0
H6611 H 0.22347 0.79214 0.76603 0.0
H6612 H 0.19536 0.79018 0.76094 0.0
H6613 H 0.18766 0.7428 0.73768 0.0
H6614 H 0.21601 0.74451 0.74336 0.0
H6615 H 0.16425 0.74491 0.75519 0.0
H6616 H 0.18989 0.77604 0.71686 0.0
H6617 H 0.20993 0.79815 0.70938 0.0
H6618 H 0.19156 0.8312 0.73721 0.0
H6619 H 0.1715 0.80928 0.74497 0.0
C6620 C 0.09804 0.74946 0.71712 0.0
C6621 C 0.09096 0.76167 0.7217 0.0
C6622 C 0.11373 0.75035 0.72264 0.0
C6623 C 0.12286 0.76353 0.73274 0.0
C6624 C 0.11593 0.77575 0.7374 0.0
C6625 C 0.10013 0.77478 0.73206 0.0
C6626 C 0.1398 0.76469 0.73788 0.0
C6627 C 0.15144 0.77705 0.73363 0.0
C6628 C 0.14451 0.75308 0.74594 0.0
C6629 C 0.13283 0.7407 0.75218 0.0
C6630 C 0.12216 0.74487 0.76203 0.0
C6631 C 0.11131 0.73322 0.76809 0.0
C6632 C 0.11106 0.71735 0.76447 0.0
C6633 C 0.12169 0.71311 0.75479 0.0
C6634 C 0.13256 0.72472 0.74869 0.0
C6635 C 0.21585 0.78128 0.75976 0.0
C6636 C 0.22205 0.76856 0.75483 0.0
C6637 C 0.19972 0.7802 0.75684 0.0
C6638 C 0.18937 0.76651 0.74852 0.0
C6639 C 0.19541 0.75356 0.744 0.0
C6640 C 0.21161 0.75454 0.7472 0.0
C6641 C 0.17235 0.76594 0.74438 0.0
C6642 C 0.16068 0.75371 0.74886 0.0
C6643 C 0.16761 0.77782 0.73673 0.0
C6644 C 0.17925 0.79102 0.73155 0.0
C6645 C 0.19014 0.78802 0.72139 0.0
C6646 C 0.2015 0.80052 0.71711 0.0
C6647 C 0.20204 0.81607 0.72284 0.0
C6648 C 0.19114 0.81916 0.73278 0.0
C6649 C 0.17974 0.8067 0.73709 0.0
H6650 H 0.21089 0.82572 0.71957 0.0
H6651 H 0.10267 0.70835 0.7692 0.0
H6652 H 0.0499 0.39065 0.39787 0.0
H6653 H 0.04852 0.41456 0.41423 0.0
H6654 H 0.02284 0.38596 0.44595 0.0
H6655 H 0.02358 0.36212 0.42917 0.0
H6656 H 0.00949 0.40747 0.44251 0.0
H6657 H 0.06376 0.40885 0.4541 0.0
H6658 H 0.09085 0.40857 0.44895 0.0
H6659 H 0.0952 0.45076 0.42702 0.0
H6660 H 0.06804 0.45116 0.43182 0.0
H6661 H 0.01564 0.47056 0.50281 0.0
H6662 H 0.01926 0.44706 0.4877 0.0
H6663 H 0.03818 0.47493 0.45223 0.0
H6664 H 0.03492 0.4987 0.46754 0.0
H6665 H 0.05519 0.45393 0.45819 0.0
H6666 H 0.99929 0.45118 0.44781 0.0
H6667 H 0.97308 0.45113 0.45599 0.0
H6668 H 0.97307 0.41034 0.47924 0.0
H6669 H 0.99938 0.41027 0.47137 0.0
C6670 C 0.04411 0.3895 0.40843 0.0
C6671 C 0.03686 0.37448 0.41222 0.0
C6672 C 0.04337 0.40321 0.41786 0.0
C6673 C 0.03573 0.40225 0.43157 0.0
C6674 C 0.02875 0.38719 0.43547 0.0
C6675 C 0.02921 0.37351 0.42588 0.0
C6676 C 0.03443 0.41683 0.44149 0.0
C6677 C 0.0196 0.41749 0.44608 0.0
C6678 C 0.04746 0.43016 0.44614 0.0
C6679 C 0.06378 0.42993 0.44317 0.0
C6680 C 0.07044 0.41799 0.44805 0.0
C6681 C 0.08582 0.41782 0.44522 0.0
C6682 C 0.09472 0.42961 0.43762 0.0
C6683 C 0.08828 0.44161 0.43288 0.0
C6684 C 0.07289 0.44182 0.43566 0.0
C6685 C 0.02052 0.47176 0.49177 0.0
C6686 C 0.02481 0.48659 0.48635 0.0
C6687 C 0.02256 0.45823 0.48309 0.0
C6688 C 0.02875 0.45907 0.46863 0.0
C6689 C 0.03331 0.4739 0.4633 0.0
C6690 C 0.03134 0.4875 0.47203 0.0
C6691 C 0.03031 0.44448 0.45904 0.0
C6692 C 0.04515 0.44384 0.45455 0.0
C6693 C 0.01738 0.43102 0.45479 0.0
C6694 C 0.00135 0.43079 0.45909 0.0
C6695 C 0.99372 0.44223 0.45471 0.0
C6696 C 0.97885 0.44223 0.45929 0.0
C6697 C 0.97143 0.43076 0.46816 0.0
C6698 C 0.97883 0.41922 0.47238 0.0
C6699 C 0.99371 0.41919 0.46784 0.0
H6700 H 0.95994 0.43081 0.47173 0.0
H6701 H 0.10663 0.42947 0.43545 0.0
H6702 H 0.43251 0.27937 0.20665 0.0
H6703 H 0.40842 0.28133 0.21778 0.0
H6704 H 0.40779 0.23941 0.23961 0.0
H6705 H 0.43229 0.23759 0.22891 0.0
H6706 H 0.37819 0.23885 0.22546 0.0
H6707 H 0.4177 0.27398 0.2623 0.0
H6708 H 0.44154 0.29558 0.27132 0.0
H6709 H 0.41937 0.3284 0.2511 0.0
H6710 H 0.39543 0.30695 0.24181 0.0
H6711 H 0.31407 0.24894 0.26724 0.0
H6712 H 0.3399 0.24573 0.26127 0.0
H6713 H 0.34928 0.29002 0.2422 0.0
H6714 H 0.32384 0.29363 0.24885 0.0
H6715 H 0.37528 0.28797 0.25727 0.0
H6716 H 0.33622 0.25117 0.21859 0.0
H6717 H 0.31219 0.2293 0.2114 0.0
H6718 H 0.33376 0.19912 0.23683 0.0
H6719 H 0.3579 0.22086 0.24423 0.0
C6720 C 0.4275 0.27067 0.21403 0.0
C6721 C 0.43462 0.25837 0.21689 0.0
C6722 C 0.41358 0.27177 0.22034 0.0
C6723 C 0.40626 0.2606 0.22967 0.0
C6724 C 0.41314 0.24818 0.23243 0.0
C6725 C 0.42718 0.24713 0.22621 0.0
C6726 C 0.39138 0.26194 0.23638 0.0
C6727 C 0.37763 0.24952 0.2326 0.0
C6728 C 0.39048 0.27585 0.24564 0.0
C6729 C 0.40482 0.28883 0.25124 0.0
C6730 C 0.41795 0.28579 0.25968 0.0
C6731 C 0.43147 0.298 0.26486 0.0
C6732 C 0.43199 0.31335 0.26175 0.0
C6733 C 0.41896 0.31651 0.25349 0.0
C6734 C 0.40539 0.30433 0.24828 0.0
C6735 C 0.32166 0.25803 0.26183 0.0
C6736 C 0.31676 0.2715 0.25845 0.0
C6737 C 0.33645 0.25614 0.25831 0.0
C6738 C 0.34656 0.26744 0.2509 0.0
C6739 C 0.3418 0.28106 0.24785 0.0
C6740 C 0.32716 0.28309 0.25163 0.0
C6741 C 0.36192 0.26506 0.246 0.0
C6742 C 0.37581 0.27729 0.25015 0.0
C6743 C 0.36296 0.25092 0.23717 0.0
C6744 C 0.3488 0.23764 0.23203 0.0
C6745 C 0.33583 0.23985 0.22261 0.0
C6746 C 0.3222 0.22749 0.21852 0.0
C6747 C 0.32144 0.21284 0.22368 0.0
C6748 C 0.33437 0.21048 0.23283 0.0
C6749 C 0.34805 0.2228 0.23695 0.0
H6750 H 0.31083 0.20332 0.22059 0.0
H6751 H 0.44247 0.32279 0.26578 0.0
H6752 H 0.54814 0.52222 0.33768 0.0
H6753 H 0.53781 0.52158 0.36318 0.0
H6754 H 0.58194 0.51552 0.38431 0.0
H6755 H 0.59202 0.51562 0.35885 0.0
H6756 H 0.55936 0.49663 0.39481 0.0
H6757 H 0.57006 0.55198 0.38785 0.0
H6758 H 0.56741 0.57484 0.37457 0.0
H6759 H 0.51748 0.56272 0.37771 0.0
H6760 H 0.51981 0.53967 0.39084 0.0
H6761 H 0.55925 0.52596 0.47567 0.0
H6762 H 0.56482 0.5242 0.44819 0.0
H6763 H 0.51488 0.51221 0.43266 0.0
H6764 H 0.50922 0.51335 0.46004 0.0
H6765 H 0.53699 0.53872 0.41859 0.0
H6766 H 0.52668 0.48441 0.42681 0.0
H6767 H 0.52943 0.46194 0.44063 0.0
H6768 H 0.57892 0.47261 0.43532 0.0
H6769 H 0.57651 0.49534 0.4217 0.0
C6770 C 0.55561 0.52078 0.34781 0.0
C6771 C 0.57086 0.5189 0.34627 0.0
C6772 C 0.54973 0.52049 0.36239 0.0
C6773 C 0.55914 0.51867 0.37578 0.0
C6774 C 0.57438 0.51685 0.37419 0.0
C6775 C 0.58015 0.5169 0.35962 0.0
C6776 C 0.55321 0.51838 0.39146 0.0
C6777 C 0.55463 0.50596 0.40002 0.0
C6778 C 0.54649 0.53023 0.39816 0.0
C6779 C 0.54508 0.544 0.39015 0.0
C6780 C 0.5585 0.55411 0.38558 0.0
C6781 C 0.55706 0.56712 0.37811 0.0
C6782 C 0.54228 0.5702 0.37525 0.0
C6783 C 0.52891 0.5603 0.3799 0.0
C6784 C 0.53029 0.54727 0.38736 0.0
C6785 C 0.54949 0.52286 0.46638 0.0
C6786 C 0.53382 0.51969 0.46995 0.0
C6787 C 0.55266 0.52186 0.45073 0.0
C6788 C 0.54024 0.51808 0.43845 0.0
C6789 C 0.5246 0.51512 0.44199 0.0
C6790 C 0.52141 0.51569 0.45761 0.0
C6791 C 0.54367 0.5173 0.42192 0.0
C6792 C 0.54168 0.52943 0.41325 0.0
C6793 C 0.54992 0.50525 0.41511 0.0
C6794 C 0.55145 0.49171 0.42343 0.0
C6795 C 0.53819 0.4821 0.42878 0.0
C6796 C 0.53968 0.46928 0.43653 0.0
C6797 C 0.55435 0.46589 0.43891 0.0
C6798 C 0.56756 0.47528 0.43351 0.0
C6799 C 0.56614 0.48813 0.42577 0.0
H6800 H 0.55548 0.45594 0.44489 0.0
H6801 H 0.54119 0.58028 0.36948 0.0
H6802 H 0.28531 0.844 0.05726 0.0
H6803 H 0.28558 0.82696 0.07793 0.0
H6804 H 0.24373 0.83824 0.09323 0.0
H6805 H 0.24379 0.85577 0.07316 0.0
H6806 H 0.2677 0.84283 0.11647 0.0
H6807 H 0.24187 0.80253 0.07306 0.0
H6808 H 0.24033 0.78799 0.04675 0.0
H6809 H 0.28274 0.77453 0.0607 0.0
H6810 H 0.28466 0.78918 0.08703 0.0
H6811 H 0.25734 0.79644 0.17593 0.0
H6812 H 0.24927 0.80347 0.15033 0.0
H6813 H 0.28901 0.7903 0.13193 0.0
H6814 H 0.29692 0.78304 0.15733 0.0
H6815 H 0.26514 0.78567 0.10948 0.0
H6816 H 0.2929 0.82615 0.15097 0.0
H6817 H 0.29786 0.84262 0.17667 0.0
H6818 H 0.25603 0.8582 0.16584 0.0
H6819 H 0.25054 0.84147 0.14026 0.0
C6820 C 0.27624 0.84286 0.06511 0.0
C6821 C 0.26454 0.85115 0.06375 0.0
C6822 C 0.27628 0.833 0.07669 0.0
C6823 C 0.26453 0.83128 0.08681 0.0
C6824 C 0.25276 0.8394 0.08534 0.0
C6825 C 0.25279 0.84932 0.07389 0.0
C6826 C 0.26516 0.82214 0.09991 0.0
C6827 C 0.26679 0.83025 0.11499 0.0
C6828 C 0.26473 0.80597 0.09775 0.0
C6829 C 0.26346 0.79703 0.08197 0.0
C6830 C 0.25092 0.79655 0.07048 0.0
C6831 C 0.24998 0.78828 0.05557 0.0
C6832 C 0.26144 0.78036 0.05205 0.0
C6833 C 0.27387 0.78067 0.06344 0.0
C6834 C 0.27488 0.78894 0.07836 0.0
C6835 C 0.26399 0.79459 0.16623 0.0
C6836 C 0.2779 0.78958 0.16849 0.0
C6837 C 0.25938 0.79854 0.15169 0.0
C6838 C 0.26884 0.79776 0.13953 0.0
C6839 C 0.28166 0.79103 0.14129 0.0
C6840 C 0.28618 0.78692 0.15576 0.0
C6841 C 0.26713 0.80626 0.12607 0.0
C6842 C 0.26563 0.79816 0.11096 0.0
C6843 C 0.26806 0.8226 0.12817 0.0
C6844 C 0.27113 0.83227 0.14381 0.0
C6845 C 0.2846 0.83286 0.15417 0.0
C6846 C 0.28753 0.84228 0.1687 0.0
C6847 C 0.27721 0.85136 0.17289 0.0
C6848 C 0.26395 0.85107 0.1626 0.0
C6849 C 0.26089 0.84158 0.14811 0.0
H6850 H 0.27952 0.85867 0.18409 0.0
H6851 H 0.26069 0.77396 0.0405 0.0
H6852 H 0.91165 0.51882 0.87313 0.0
H6853 H 0.92928 0.52151 0.89743 0.0
H6854 H 0.96732 0.51675 0.87033 0.0
H6855 H 0.94941 0.51333 0.84603 0.0
H6856 H 0.9659 0.49949 0.89398 0.0
H6857 H 0.96505 0.55391 0.88825 0.0
H6858 H 0.95184 0.57524 0.88497 0.0
H6859 H 0.92977 0.56648 0.9268 0.0
H6860 H 0.9428 0.54507 0.93029 0.0
H6861 H 0.02513 0.52347 0.95954 0.0
H6862 H 0.01031 0.52218 0.93381 0.0
H6863 H 0.97003 0.5288 0.95641 0.0
H6864 H 0.98483 0.53086 0.98183 0.0
H6865 H 0.97422 0.54609 0.93416 0.0
H6866 H 0.9728 0.49228 0.94061 0.0
H6867 H 0.98448 0.47024 0.94538 0.0
H6868 H 0.00801 0.47593 0.90396 0.0
H6869 H 0.99668 0.49821 0.8991 0.0
C6870 C 0.92378 0.51831 0.87249 0.0
C6871 C 0.92936 0.5159 0.85799 0.0
C6872 C 0.93382 0.51995 0.88626 0.0
C6873 C 0.94963 0.51962 0.88557 0.0
C6874 C 0.95515 0.51707 0.87101 0.0
C6875 C 0.94501 0.51513 0.85724 0.0
C6876 C 0.96037 0.52171 0.90005 0.0
C6877 C 0.96795 0.50979 0.90268 0.0
C6878 C 0.96256 0.53492 0.91153 0.0
C6879 C 0.95482 0.54785 0.90946 0.0
C6880 C 0.95732 0.5565 0.8967 0.0
C6881 C 0.94989 0.56861 0.89482 0.0
C6882 C 0.93995 0.57219 0.90565 0.0
C6883 C 0.93747 0.56371 0.91842 0.0
C6884 C 0.94491 0.55161 0.92038 0.0
C6885 C 0.01314 0.52472 0.95893 0.0
C6886 C 0.00607 0.52724 0.97259 0.0
C6887 C 0.00472 0.52393 0.94431 0.0
C6888 C 0.98909 0.52526 0.94332 0.0
C6889 C 0.98211 0.52783 0.95698 0.0
C6890 C 0.99057 0.52893 0.97149 0.0
C6891 C 0.97969 0.52385 0.92813 0.0
C6892 C 0.97233 0.53587 0.92539 0.0
C6893 C 0.9774 0.51055 0.91677 0.0
C6894 C 0.98402 0.497 0.91957 0.0
C6895 C 0.98055 0.48889 0.93257 0.0
C6896 C 0.9871 0.47635 0.93529 0.0
C6897 C 0.997 0.47169 0.92498 0.0
C6898 C 1.00035 0.47956 0.91194 0.0
C6899 C 0.99387 0.49214 0.90919 0.0
H6900 H 0.00207 0.46198 0.92706 0.0
H6901 H 0.93419 0.58156 0.90416 0.0
H6902 H 0.30074 0.25001 0.59168 0.0
H6903 H 0.29962 0.26054 0.6189 0.0
H6904 H 0.25648 0.22479 0.62011 0.0
H6905 H 0.25769 0.214 0.59328 0.0
H6906 H 0.25418 0.25444 0.63086 0.0
H6907 H 0.29063 0.22197 0.63748 0.0
H6908 H 0.31491 0.21322 0.6346 0.0
H6909 H 0.34308 0.25848 0.65654 0.0
H6910 H 0.31898 0.26764 0.65921 0.0
H6911 H 0.24522 0.25479 0.71243 0.0
H6912 H 0.24734 0.24897 0.68437 0.0
H6913 H 0.29224 0.28372 0.68971 0.0
H6914 H 0.2903 0.28932 0.71761 0.0
H6915 H 0.29487 0.25695 0.67528 0.0
H6916 H 0.25955 0.28969 0.66935 0.0
H6917 H 0.23575 0.29899 0.67327 0.0
H6918 H 0.20634 0.25452 0.65069 0.0
H6919 H 0.22998 0.24486 0.64684 0.0
C6920 C 0.29111 0.24431 0.5978 0.0
C6921 C 0.27919 0.23128 0.59019 0.0
C6922 C 0.29047 0.25036 0.61334 0.0
C6923 C 0.27792 0.24346 0.62149 0.0
C6924 C 0.26617 0.23038 0.61398 0.0
C6925 C 0.26684 0.2243 0.59857 0.0
C6926 C 0.27665 0.24993 0.63774 0.0
C6927 C 0.26303 0.25489 0.64061 0.0
C6928 C 0.28845 0.25097 0.65035 0.0
C6929 C 0.30297 0.24559 0.64829 0.0
C6930 C 0.302 0.23015 0.64145 0.0
C6931 C 0.31574 0.2251 0.6399 0.0
C6932 C 0.33053 0.23531 0.64531 0.0
C6933 C 0.33162 0.25061 0.65228 0.0
C6934 C 0.31792 0.25574 0.65379 0.0
C6935 C 0.25531 0.26144 0.70749 0.0
C6936 C 0.26761 0.27243 0.71717 0.0
C6937 C 0.25656 0.25809 0.69149 0.0
C6938 C 0.27001 0.26588 0.68494 0.0
C6939 C 0.28185 0.27746 0.6945 0.0
C6940 C 0.28068 0.28069 0.71043 0.0
C6941 C 0.2723 0.26127 0.66844 0.0
C6942 C 0.2861 0.25667 0.66552 0.0
C6943 C 0.26078 0.26071 0.65576 0.0
C6944 C 0.24653 0.2665 0.65793 0.0
C6945 C 0.24801 0.28185 0.66532 0.0
C6946 C 0.23454 0.28719 0.66751 0.0
C6947 C 0.21954 0.27734 0.66226 0.0
C6948 C 0.21797 0.26214 0.65476 0.0
C6949 C 0.2314 0.25673 0.65256 0.0
H6950 H 0.20913 0.2815 0.66397 0.0
H6951 H 0.34114 0.23136 0.64416 0.0
H6952 H 0.54055 0.51216 0.19579 0.0
H6953 H 0.53014 0.51396 0.16879 0.0
H6954 H 0.57696 0.51947 0.15473 0.0
H6955 H 0.58731 0.51817 0.18168 0.0
H6956 H 0.56536 0.54181 0.14588 0.0
H6957 H 0.54637 0.48585 0.14283 0.0
H6958 H 0.5318 0.4603 0.14982 0.0
H6959 H 0.48805 0.47327 0.14185 0.0
H6960 H 0.50238 0.49902 0.13503 0.0
H6961 H 0.55374 0.52943 0.06391 0.0
H6962 H 0.55842 0.52714 0.09165 0.0
H6963 H 0.51142 0.53132 0.09796 0.0
H6964 H 0.50654 0.53354 0.06979 0.0
H6965 H 0.52005 0.50559 0.11156 0.0
H6966 H 0.54125 0.56161 0.11221 0.0
H6967 H 0.55749 0.58521 0.10296 0.0
H6968 H 0.59929 0.56953 0.11371 0.0
H6969 H 0.58329 0.54574 0.12283 0.0
C6970 C 0.54848 0.51351 0.1868 0.0
C6971 C 0.56469 0.51514 0.19067 0.0
C6972 C 0.54255 0.51448 0.1714 0.0
C6973 C 0.55277 0.51689 0.1597 0.0
C6974 C 0.56886 0.51774 0.16355 0.0
C6975 C 0.57477 0.51696 0.1789 0.0
C6976 C 0.54722 0.52001 0.14384 0.0
C6977 C 0.5555 0.53379 0.13838 0.0
C6978 C 0.53409 0.50979 0.13415 0.0
C6979 C 0.52549 0.49449 0.13866 0.0
C6980 C 0.53366 0.48336 0.14278 0.0
C6981 C 0.52544 0.46881 0.14666 0.0
C6982 C 0.50902 0.46519 0.14635 0.0
C6983 C 0.50078 0.47611 0.14214 0.0
C6984 C 0.50895 0.49069 0.13827 0.0
C6985 C 0.54441 0.53006 0.07119 0.0
C6986 C 0.52978 0.53174 0.06469 0.0
C6987 C 0.54713 0.52875 0.08707 0.0
C6988 C 0.53531 0.52912 0.09688 0.0
C6989 C 0.52071 0.53104 0.09056 0.0
C6990 C 0.51799 0.53248 0.07455 0.0
C6991 C 0.53842 0.52717 0.11365 0.0
C6992 C 0.5297 0.51368 0.11926 0.0
C6993 C 0.55139 0.53743 0.12342 0.0
C6994 C 0.56105 0.55187 0.11815 0.0
C6995 C 0.5539 0.56316 0.11253 0.0
C6996 C 0.56306 0.57658 0.10732 0.0
C6997 C 0.5794 0.57886 0.10774 0.0
C6998 C 0.58663 0.56775 0.1134 0.0
C6999 C 0.57752 0.55432 0.11862 0.0
H7000 H 0.58647 0.58925 0.10368 0.0
H7001 H 0.50267 0.45391 0.14931 0.0
H7002 H 0.2312 0.83468 0.91859 0.0
H7003 H 0.23167 0.82402 0.89143 0.0
H7004 H 0.28244 0.83271 0.89949 0.0
H7005 H 0.28214 0.84406 0.92638 0.0
H7006 H 0.27389 0.84419 0.87383 0.0
H7007 H 0.25985 0.79578 0.89549 0.0
H7008 H 0.24497 0.77586 0.9104 0.0
H7009 H 0.20257 0.77195 0.8798 0.0
H7010 H 0.21719 0.792 0.8648 0.0
H7011 H 0.28833 0.78536 0.81858 0.0
H7012 H 0.28531 0.8036 0.84089 0.0
H7013 H 0.2399 0.80496 0.81835 0.0
H7014 H 0.24316 0.78707 0.79582 0.0
H7015 H 0.24263 0.79126 0.84884 0.0
H7016 H 0.26181 0.83743 0.82414 0.0
H7017 H 0.28042 0.85462 0.80951 0.0
H7018 H 0.31779 0.85954 0.84664 0.0
H7019 H 0.2995 0.84226 0.8614 0.0
C7020 C 0.24241 0.83414 0.91456 0.0
C7021 C 0.25662 0.8402 0.92445 0.0
C7022 C 0.24266 0.82805 0.89914 0.0
C7023 C 0.2571 0.82775 0.89359 0.0
C7024 C 0.27123 0.83303 0.90366 0.0
C7025 C 0.271 0.83925 0.91903 0.0
C7026 C 0.25754 0.82239 0.8771 0.0
C7027 C 0.26713 0.8326 0.86833 0.0
C7028 C 0.24846 0.80741 0.87005 0.0
C7029 C 0.23955 0.79556 0.87918 0.0
C7030 C 0.24731 0.79081 0.89205 0.0
C7031 C 0.23894 0.77946 0.90049 0.0
C7032 C 0.22282 0.77269 0.89609 0.0
C7033 C 0.21505 0.77724 0.88322 0.0
C7034 C 0.22337 0.78859 0.87474 0.0
C7035 C 0.27782 0.78972 0.81848 0.0
C7036 C 0.26572 0.78472 0.80609 0.0
C7037 C 0.27625 0.80027 0.83092 0.0
C7038 C 0.26247 0.80558 0.83097 0.0
C7039 C 0.25065 0.80103 0.81823 0.0
C7040 C 0.25238 0.79071 0.80565 0.0
C7041 C 0.25916 0.8129 0.84568 0.0
C7042 C 0.24903 0.80303 0.85421 0.0
C7043 C 0.26824 0.8279 0.85261 0.0
C7044 C 0.27927 0.83846 0.84384 0.0
C7045 C 0.27402 0.84208 0.82913 0.0
C7046 C 0.2845 0.85186 0.82082 0.0
C7047 C 0.30026 0.85813 0.82712 0.0
C7048 C 0.30557 0.85468 0.84177 0.0
C7049 C 0.29514 0.84493 0.85013 0.0
H7050 H 0.30836 0.86568 0.82067 0.0
H7051 H 0.21636 0.76389 0.90262 0.0
H7052 H 0.93609 0.48916 0.72172 0.0
H7053 H 0.94697 0.48427 0.69709 0.0
H7054 H 0.93366 0.52434 0.68069 0.0
H7055 H 0.92244 0.52908 0.70514 0.0
H7056 H 0.92418 0.49765 0.65921 0.0
H7057 H 0.97122 0.5271 0.69237 0.0
H7058 H 0.99076 0.53301 0.7159 0.0
H7059 H 0.00111 0.48823 0.7054 0.0
H7060 H 0.98144 0.48194 0.68192 0.0
H7061 H 0.96978 0.51109 0.59583 0.0
H7062 H 0.95529 0.51081 0.61866 0.0
H7063 H 0.97446 0.47346 0.63386 0.0
H7064 H 0.98982 0.47441 0.61166 0.0
H7065 H 0.98002 0.49675 0.65609 0.0
H7066 H 0.93409 0.46808 0.62154 0.0
H7067 H 0.91424 0.46228 0.59825 0.0
H7068 H 0.90158 0.50548 0.61115 0.0
H7069 H 0.92151 0.51167 0.63439 0.0
C7070 C 0.93558 0.49695 0.71287 0.0
C7071 C 0.92848 0.50949 0.71525 0.0
C7072 C 0.94183 0.49419 0.6989 0.0
C7073 C 0.94109 0.50398 0.68719 0.0
C7074 C 0.93428 0.51669 0.68966 0.0
C7075 C 0.92806 0.51947 0.70364 0.0
C7076 C 0.94704 0.50071 0.67215 0.0
C7077 C 0.93642 0.49759 0.65842 0.0
C7078 C 0.96287 0.50019 0.67137 0.0
C7079 C 0.97472 0.50398 0.68548 0.0
C7080 C 0.97755 0.51845 0.69516 0.0
C7081 C 0.98867 0.52188 0.70847 0.0
C7082 C 0.99714 0.51098 0.71217 0.0
C7083 C 0.99452 0.49665 0.70254 0.0
C7084 C 0.9834 0.49315 0.68922 0.0
C7085 C 0.97087 0.50277 0.60401 0.0
C7086 C 0.98118 0.49298 0.60211 0.0
C7087 C 0.96236 0.50243 0.6169 0.0
C7088 C 0.96377 0.49206 0.62791 0.0
C7089 C 0.97323 0.48155 0.62548 0.0
C7090 C 0.98192 0.48204 0.61272 0.0
C7091 C 0.95719 0.49369 0.64295 0.0
C7092 C 0.96771 0.49658 0.65677 0.0
C7093 C 0.94127 0.49401 0.64376 0.0
C7094 C 0.92941 0.4904 0.62965 0.0
C7095 C 0.92719 0.47643 0.61933 0.0
C7096 C 0.91589 0.47305 0.60616 0.0
C7097 C 0.90668 0.48352 0.6032 0.0
C7098 C 0.90874 0.49739 0.61344 0.0
C7099 C 0.92002 0.50082 0.62662 0.0
H7100 H 0.89793 0.48087 0.59301 0.0
H7101 H 0.00575 0.51367 0.72248 0.0
H7102 H 0.25414 0.22067 0.42828 0.0
H7103 H 0.25482 0.23137 0.40341 0.0
H7104 H 0.30535 0.24978 0.41311 0.0
H7105 H 0.30469 0.23994 0.43862 0.0
H7106 H 0.29233 0.2701 0.39865 0.0
H7107 H 0.28895 0.21456 0.38956 0.0
H7108 H 0.27756 0.18646 0.39169 0.0
H7109 H 0.23335 0.18874 0.36788 0.0
H7110 H 0.2444 0.21692 0.36582 0.0
H7111 H 0.30169 0.27891 0.31765 0.0
H7112 H 0.30375 0.27265 0.34469 0.0
H7113 H 0.25397 0.24912 0.33856 0.0
H7114 H 0.25206 0.2547 0.3115 0.0
H7115 H 0.26877 0.23157 0.35157 0.0
H7116 H 0.2715 0.28716 0.36117 0.0
H7117 H 0.28238 0.31546 0.35956 0.0
H7118 H 0.32714 0.31347 0.38234 0.0
H7119 H 0.31659 0.28511 0.38391 0.0
C7120 C 0.2654 0.22729 0.42539 0.0
C7121 C 0.27939 0.22931 0.43554 0.0
C7122 C 0.26578 0.23326 0.411 0.0
C7123 C 0.28018 0.24108 0.4062 0.0
C7124 C 0.29411 0.24366 0.41649 0.0
C7125 C 0.29372 0.23784 0.43101 0.0
C7126 C 0.2807 0.24585 0.39014 0.0
C7127 C 0.28736 0.26166 0.38832 0.0
C7128 C 0.27404 0.23489 0.37666 0.0
C7129 C 0.26748 0.21787 0.37763 0.0
C7130 C 0.27678 0.20908 0.38484 0.0
C7131 C 0.27038 0.19315 0.38604 0.0
C7132 C 0.25474 0.18583 0.37994 0.0
C7133 C 0.24546 0.19443 0.3726 0.0
C7134 C 0.25179 0.21037 0.3714 0.0
C7135 C 0.2912 0.27244 0.32213 0.0
C7136 C 0.27675 0.26718 0.31241 0.0
C7137 C 0.29236 0.26897 0.33763 0.0
C7138 C 0.27898 0.2605 0.3438 0.0
C7139 C 0.2645 0.25557 0.33413 0.0
C7140 C 0.26342 0.25877 0.31862 0.0
C7141 C 0.28001 0.25597 0.35998 0.0
C7142 C 0.27375 0.2401 0.36184 0.0
C7143 C 0.28697 0.26692 0.37344 0.0
C7144 C 0.29331 0.28397 0.3725 0.0
C7145 C 0.2837 0.29273 0.36572 0.0
C7146 C 0.2898 0.30879 0.36484 0.0
C7147 C 0.30545 0.31624 0.3708 0.0
C7148 C 0.31503 0.30767 0.3777 0.0
C7149 C 0.30899 0.29161 0.3786 0.0
H7150 H 0.31015 0.32868 0.37011 0.0
H7151 H 0.2498 0.17349 0.38089 0.0
H7152 H 0.35371 0.62962 0.51682 0.0
H7153 H 0.37161 0.61344 0.51008 0.0
H7154 H 0.34869 0.57857 0.53795 0.0
H7155 H 0.3301 0.59434 0.54419 0.0
H7156 H 0.38546 0.59259 0.54203 0.0
H7157 H 0.33911 0.56627 0.505 0.0
H7158 H 0.31756 0.5664 0.48472 0.0
H7159 H 0.35152 0.58779 0.45531 0.0
H7160 H 0.37328 0.58794 0.47551 0.0
H7161 H 0.41924 0.53115 0.52342 0.0
H7162 H 0.40044 0.54687 0.52809 0.0
H7163 H 0.41235 0.56999 0.48735 0.0
H7164 H 0.43084 0.55371 0.48233 0.0
H7165 H 0.38135 0.56312 0.48896 0.0
H7166 H 0.42743 0.58941 0.52365 0.0
H7167 H 0.45016 0.59323 0.54383 0.0
H7168 H 0.41877 0.57606 0.57725 0.0
H7169 H 0.39586 0.57201 0.55722 0.0
C7170 C 0.35242 0.61846 0.52144 0.0
C7171 C 0.34051 0.6131 0.5309 0.0
C7172 C 0.36261 0.60931 0.51759 0.0
C7173 C 0.36113 0.59488 0.52339 0.0
C7174 C 0.34974 0.58972 0.53336 0.0
C7175 C 0.33933 0.59877 0.53702 0.0
C7176 C 0.37195 0.58546 0.51932 0.0
C7177 C 0.38449 0.58586 0.53056 0.0
C7178 C 0.37086 0.57755 0.50407 0.0
C7179 C 0.35781 0.57724 0.49182 0.0
C7180 C 0.34198 0.57111 0.49426 0.0
C7181 C 0.32973 0.5711 0.48277 0.0
C7182 C 0.33317 0.57713 0.46875 0.0
C7183 C 0.34887 0.58313 0.46618 0.0
C7184 C 0.36117 0.58315 0.47763 0.0
C7185 C 0.41772 0.53952 0.51543 0.0
C7186 C 0.42647 0.54147 0.50264 0.0
C7187 C 0.40712 0.54852 0.51814 0.0
C7188 C 0.40539 0.5598 0.50827 0.0
C7189 C 0.41369 0.56138 0.49512 0.0
C7190 C 0.42418 0.55216 0.49227 0.0
C7191 C 0.39481 0.56983 0.51187 0.0
C7192 C 0.38236 0.56973 0.50049 0.0
C7193 C 0.39617 0.57836 0.52694 0.0
C7194 C 0.40995 0.58025 0.53888 0.0
C7195 C 0.42539 0.58627 0.53524 0.0
C7196 C 0.4383 0.58853 0.54668 0.0
C7197 C 0.43592 0.58485 0.5618 0.0
C7198 C 0.42061 0.57889 0.56552 0.0
C7199 C 0.40766 0.57663 0.55414 0.0
H7200 H 0.44593 0.58665 0.57065 0.0
H7201 H 0.32367 0.57713 0.45988 0.0
H7202 H 0.84196 0.94222 0.51643 0.0
H7203 H 0.86833 0.95964 0.51646 0.0
H7204 H 0.88912 0.92487 0.53524 0.0
H7205 H 0.86271 0.90761 0.53564 0.0
H7206 H 0.90442 0.95236 0.54912 0.0
H7207 H 0.8878 0.93131 0.49507 0.0
H7208 H 0.87035 0.92513 0.47004 0.0
H7209 H 0.87476 0.97448 0.46828 0.0
H7210 H 0.89209 0.98094 0.49341 0.0
H7211 H 0.98235 0.98151 0.53013 0.0
H7212 H 0.95562 0.96594 0.53182 0.0
H7213 H 0.93672 0.0032 0.51612 0.0
H7214 H 0.9635 0.0188 0.51408 0.0
H7215 H 0.92035 0.97528 0.50103 0.0
H7216 H 0.93823 0.99593 0.55513 0.0
H7217 H 0.9565 0.00134 0.57958 0.0
H7218 H 0.95045 0.95165 0.5806 0.0
H7219 H 0.9323 0.94595 0.55604 0.0
C7220 C 0.85216 0.93829 0.52054 0.0
C7221 C 0.85024 0.9235 0.52597 0.0
C7222 C 0.86726 0.94824 0.5205 0.0
C7223 C 0.88082 0.9435 0.52556 0.0
C7224 C 0.8789 0.92883 0.53125 0.0
C7225 C 0.86378 0.91897 0.53149 0.0
C7226 C 0.89698 0.95379 0.52497 0.0
C7227 C 0.90793 0.9572 0.53853 0.0
C7228 C 0.90158 0.96046 0.51128 0.0
C7229 C 0.8911 0.95659 0.4962 0.0
C7230 C 0.88494 0.94083 0.48941 0.0
C7231 C 0.87509 0.93728 0.47519 0.0
C7232 C 0.87141 0.9494 0.4676 0.0
C7233 C 0.8776 0.9651 0.47419 0.0
C7234 C 0.88744 0.96872 0.48841 0.0
C7235 C 0.97255 0.98649 0.52711 0.0
C7236 C 0.97514 0.00147 0.522 0.0
C7237 C 0.95723 0.97756 0.52816 0.0
C7238 C 0.94411 0.98344 0.52431 0.0
C7239 C 0.94664 0.9984 0.5192 0.0
C7240 C 0.96198 0.00734 0.51808 0.0
C7241 C 0.92776 0.97378 0.52514 0.0
C7242 C 0.91679 0.97049 0.51163 0.0
C7243 C 0.9232 0.96711 0.53882 0.0
C7244 C 0.934 0.97052 0.55368 0.0
C7245 C 0.94087 0.98616 0.56052 0.0
C7246 C 0.95119 0.98928 0.5744 0.0
C7247 C 0.95466 0.97685 0.58162 0.0
C7248 C 0.94777 0.96127 0.57499 0.0
C7249 C 0.93744 0.95809 0.5611 0.0
H7250 H 0.96266 0.97929 0.59237 0.0
H7251 H 0.86379 0.94663 0.45659 0.0
H7252 H 0.8986 0.10984 0.25563 0.0
H7253 H 0.88348 0.12974 0.2589 0.0
H7254 H 0.85038 0.0986 0.28295 0.0
H7255 H 0.86571 0.07885 0.28004 0.0
H7256 H 0.83629 0.11239 0.25853 0.0
H7257 H 0.87374 0.12713 0.30419 0.0
H7258 H 0.90016 0.13392 0.31924 0.0
H7259 H 0.91431 0.17458 0.29532 0.0
H7260 H 0.88804 0.16785 0.27987 0.0
H7261 H 0.79444 0.16899 0.28011 0.0
H7262 H 0.80997 0.14969 0.28304 0.0
H7263 H 0.84845 0.17954 0.26386 0.0
H7264 H 0.83313 0.19902 0.26121 0.0
H7265 H 0.85931 0.16569 0.28795 0.0
H7266 H 0.82249 0.14961 0.24093 0.0
H7267 H 0.79616 0.14252 0.22561 0.0
H7268 H 0.78096 0.10401 0.25211 0.0
H7269 H 0.80713 0.11106 0.2678 0.0
C7270 C 0.8881 0.10728 0.26161 0.0
C7271 C 0.88329 0.09286 0.2676 0.0
C7272 C 0.87952 0.11865 0.26353 0.0
C7273 C 0.86586 0.11566 0.27124 0.0
C7274 C 0.86092 0.10115 0.27702 0.0
C7275 C 0.86967 0.08992 0.27539 0.0
C7276 C 0.85658 0.12759 0.27298 0.0
C7277 C 0.84121 0.12395 0.26518 0.0
C7278 C 0.86313 0.14275 0.28145 0.0
C7279 C 0.87896 0.14687 0.29072 0.0
C7280 C 0.88253 0.13742 0.302 0.0
C7281 C 0.89748 0.14128 0.31063 0.0
C7282 C 0.90893 0.15465 0.3082 0.0
C7283 C 0.90544 0.16421 0.29716 0.0
C7284 C 0.89052 0.16038 0.28846 0.0
C7285 C 0.80631 0.17158 0.27677 0.0
C7286 C 0.81246 0.18548 0.27024 0.0
C7287 C 0.81514 0.16049 0.27836 0.0
C7288 C 0.8303 0.16305 0.27344 0.0
C7289 C 0.83676 0.17726 0.26766 0.0
C7290 C 0.82792 0.18831 0.26601 0.0
C7291 C 0.83903 0.15056 0.27334 0.0
C7292 C 0.85432 0.15408 0.28142 0.0
C7293 C 0.83242 0.13527 0.26511 0.0
C7294 C 0.8167 0.13098 0.25566 0.0
C7295 C 0.81348 0.13972 0.24359 0.0
C7296 C 0.7986 0.1357 0.23483 0.0
C7297 C 0.78688 0.12285 0.23792 0.0
C7298 C 0.79003 0.11398 0.24976 0.0
C7299 C 0.80489 0.11799 0.25859 0.0
H7300 H 0.77536 0.11974 0.23111 0.0
H7301 H 0.92049 0.15762 0.31491 0.0
H7302 H 0.69222 0.10741 0.00752 0.0
H7303 H 0.66449 0.09289 0.00412 0.0
H7304 H 0.67081 0.07547 0.04863 0.0
H7305 H 0.69888 0.08979 0.05192 0.0
H7306 H 0.65588 0.05222 0.02464 0.0
H7307 H 0.65179 0.10294 0.04623 0.0
H7308 H 0.65563 0.13176 0.04915 0.0
H7309 H 0.63152 0.12831 0.00295 0.0
H7310 H 0.62777 0.09948 -0.00037 0.0
H7311 H 0.57504 0.03302 0.03825 0.0
H7312 H 0.6036 0.04145 0.03815 0.0
H7313 H 0.59719 0.05188 0.99058 0.0
H7314 H 0.56863 0.04342 0.99043 0.0
H7315 H 0.61211 0.07769 0.01495 0.0
H7316 H 0.61513 0.02625 0.99438 0.0
H7317 H 0.60905 0.99734 0.99343 0.0
H7318 H 0.63352 0.00229 0.0397 0.0
H7319 H 0.63953 0.03126 0.04104 0.0
C7320 C 0.68767 0.10041 0.01652 0.0
C7321 C 0.6975 0.0994 0.02986 0.0
C7322 C 0.67189 0.0923 0.01465 0.0
C7323 C 0.66581 0.08329 0.02618 0.0
C7324 C 0.67551 0.08246 0.03967 0.0
C7325 C 0.69137 0.0906 0.04156 0.0
C7326 C 0.6494 0.07421 0.02368 0.0
C7327 C 0.64625 0.05775 0.02272 0.0
C7328 C 0.63708 0.08161 0.02079 0.0
C7329 C 0.63968 0.09903 0.0226 0.0
C7330 C 0.64749 0.10833 0.0366 0.0
C7331 C 0.64961 0.12468 0.03835 0.0
C7332 C 0.64387 0.13187 0.02622 0.0
C7333 C 0.636 0.12273 0.01232 0.0
C7334 C 0.63388 0.10638 0.0105 0.0
C7335 C 0.57972 0.03685 0.02768 0.0
C7336 C 0.56975 0.038 0.0145 0.0
C7337 C 0.59595 0.04142 0.02759 0.0
C7338 C 0.60219 0.04716 0.01434 0.0
C7339 C 0.59233 0.04733 0.0008 0.0
C7340 C 0.57611 0.04265 0.00083 0.0
C7341 C 0.61866 0.05578 0.01584 0.0
C7342 C 0.6218 0.07219 0.01669 0.0
C7343 C 0.63086 0.04835 0.0188 0.0
C7344 C 0.62771 0.03094 0.01785 0.0
C7345 C 0.61915 0.02118 0.00439 0.0
C7346 C 0.61572 0.00478 0.00377 0.0
C7347 C 0.62087 0.99798 0.0165 0.0
C7348 C 0.62954 0.00758 0.02984 0.0
C7349 C 0.63299 0.02399 0.03053 0.0
H7350 H 0.61817 0.98528 0.01602 0.0
H7351 H 0.64549 0.14452 0.02762 0.0
H7352 H 0.20377 0.46816 0.23062 0.0
H7353 H 0.21691 0.44751 0.23564 0.0
H7354 H 0.21901 0.46066 0.28552 0.0
H7355 H 0.20713 0.48214 0.28062 0.0
H7356 H 0.24403 0.45223 0.27993 0.0
H7357 H 0.1887 0.43027 0.26452 0.0
H7358 H 0.16372 0.42595 0.24728 0.0
H7359 H 0.18331 0.40401 0.20992 0.0
H7360 H 0.20851 0.40842 0.22687 0.0
H7361 H 0.25412 0.37918 0.30142 0.0
H7362 H 0.24204 0.40102 0.29771 0.0
H7363 H 0.2436 0.39275 0.24777 0.0
H7364 H 0.2555 0.37093 0.25138 0.0
H7365 H 0.21591 0.39842 0.25443 0.0
H7366 H 0.27195 0.42135 0.2719 0.0
H7367 H 0.29618 0.42655 0.29047 0.0
H7368 H 0.27337 0.44678 0.32624 0.0
H7369 H 0.24893 0.44145 0.30796 0.0
C7370 C 0.2074 0.46693 0.24265 0.0
C7371 C 0.20407 0.47653 0.25524 0.0
C7372 C 0.21472 0.45499 0.2455 0.0
C7373 C 0.21842 0.45224 0.26095 0.0
C7374 C 0.21603 0.46244 0.27351 0.0
C7375 C 0.20904 0.47458 0.27067 0.0
C7376 C 0.22404 0.43828 0.26409 0.0
C7377 C 0.23778 0.44044 0.2745 0.0
C7378 C 0.21585 0.42292 0.257 0.0
C7379 C 0.20053 0.41977 0.24694 0.0
C7380 C 0.1877 0.42456 0.25262 0.0
C7381 C 0.17351 0.42211 0.24289 0.0
C7382 C 0.17194 0.41473 0.22751 0.0
C7383 C 0.18455 0.40972 0.22184 0.0
C7384 C 0.19878 0.41218 0.23151 0.0
C7385 C 0.25187 0.38206 0.28968 0.0
C7386 C 0.25581 0.37346 0.27669 0.0
C7387 C 0.24497 0.39448 0.28757 0.0
C7388 C 0.24214 0.39858 0.27248 0.0
C7389 C 0.24569 0.38974 0.25949 0.0
C7390 C 0.25247 0.37728 0.26157 0.0
C7391 C 0.236 0.41241 0.27013 0.0
C7392 C 0.22211 0.41021 0.2599 0.0
C7393 C 0.24386 0.42769 0.27766 0.0
C7394 C 0.25857 0.43084 0.28861 0.0
C7395 C 0.27207 0.42678 0.28376 0.0
C7396 C 0.28584 0.42977 0.29423 0.0
C7397 C 0.2863 0.43695 0.30953 0.0
C7398 C 0.27299 0.44118 0.31439 0.0
C7399 C 0.25918 0.43818 0.30399 0.0
H7400 H 0.29698 0.43927 0.31761 0.0
H7401 H 0.16096 0.41287 0.21999 0.0
H7402 H 0.18913 0.40108 0.03246 0.0
H7403 H 0.16896 0.41573 0.02938 0.0
H7404 H 0.19176 0.43756 0.99205 0.0
H7405 H 0.21208 0.4231 0.9952 0.0
H7406 H 0.18424 0.45901 0.01282 0.0
H7407 H 0.15809 0.40926 0.98374 0.0
H7408 H 0.14831 0.38031 0.97908 0.0
H7409 H 0.11866 0.38149 0.01594 0.0
H7410 H 0.12848 0.41046 0.02104 0.0
H7411 H 0.12434 0.49605 0.99135 0.0
H7412 H 0.14224 0.47893 0.98996 0.0
H7413 H 0.11911 0.45295 0.02478 0.0
H7414 H 0.10048 0.46947 0.02557 0.0
H7415 H 0.12677 0.43316 0.00362 0.0
H7416 H 0.15461 0.4831 0.03355 0.0
H7417 H 0.16495 0.51202 0.03808 0.0
H7418 H 0.19191 0.51026 -0.00094 0.0
H7419 H 0.18153 0.48134 0.99414 0.0
C7420 C 0.18989 0.40904 0.02363 0.0
C7421 C 0.20224 0.4109 0.01408 0.0
C7422 C 0.17826 0.41731 0.02178 0.0
C7423 C 0.17873 0.42766 0.01038 0.0
C7424 C 0.19109 0.4296 0.00089 0.0
C7425 C 0.20265 0.42125 0.00264 0.0
C7426 C 0.16662 0.43682 0.00869 0.0
C7427 C 0.17168 0.45334 0.01057 0.0
C7428 C 0.15021 0.42946 0.006 0.0
C7429 C 0.14415 0.41204 0.00288 0.0
C7430 C 0.14958 0.40335 0.99096 0.0
C7431 C 0.14402 0.38693 0.98822 0.0
C7432 C 0.1329 0.37906 0.99724 0.0
C7433 C 0.12729 0.3876 0.00898 0.0
C7434 C 0.13285 0.40403 0.0118 0.0
C7435 C 0.1228 0.48654 0.99853 0.0
C7436 C 0.11094 0.48433 0.0087 0.0
C7437 C 0.13323 0.47683 0.99785 0.0
C7438 C 0.13234 0.46482 0.00753 0.0
C7439 C 0.12019 0.46221 0.01728 0.0
C7440 C 0.10964 0.47183 0.01786 0.0
C7441 C 0.14439 0.45541 0.00795 0.0
C7442 C 0.13932 0.43884 0.00582 0.0
C7443 C 0.16085 0.46271 0.01037 0.0
C7444 C 0.16716 0.48008 0.01338 0.0
C7445 C 0.16266 0.48889 0.02587 0.0
C7446 C 0.16853 0.50528 0.02851 0.0
C7447 C 0.17904 0.51298 0.01884 0.0
C7448 C 0.18374 0.50429 0.00653 0.0
C7449 C 0.17787 0.4879 0.00381 0.0
H7450 H 0.18358 0.52567 0.02091 0.0
H7451 H 0.12861 0.36635 0.9951 0.0
H7452 H 0.85036 0.95479 0.25717 0.0
H7453 H 0.83278 0.92846 0.2569 0.0
H7454 H 0.87243 0.90808 0.25287 0.0
H7455 H 0.88975 0.93436 0.25216 0.0
H7456 H 0.84918 0.88996 0.23564 0.0
H7457 H 0.85503 0.91447 0.28891 0.0
H7458 H 0.85406 0.93463 0.31057 0.0
H7459 H 0.80421 0.92708 0.29775 0.0
H7460 H 0.80492 0.90701 0.27589 0.0
H7461 H 0.8186 0.81783 0.26506 0.0
H7462 H 0.83327 0.84444 0.26196 0.0
H7463 H 0.7896 0.85818 0.25504 0.0
H7464 H 0.7747 0.83143 0.2581 0.0
H7465 H 0.81309 0.87952 0.27663 0.0
H7466 H 0.80821 0.85267 0.22426 0.0
H7467 H 0.81038 0.83122 0.20456 0.0
H7468 H 0.86045 0.84221 0.21806 0.0
H7469 H 0.85854 0.86358 0.238 0.0
C7470 C 0.85522 0.94462 0.2561 0.0
C7471 C 0.87134 0.9465 0.25466 0.0
C7472 C 0.84523 0.92959 0.25609 0.0
C7473 C 0.85128 0.91621 0.25521 0.0
C7474 C 0.86741 0.91815 0.25356 0.0
C7475 C 0.87732 0.93314 0.25317 0.0
C7476 C 0.84089 0.90022 0.25599 0.0
C7477 C 0.84144 0.88771 0.24473 0.0
C7478 C 0.83048 0.89718 0.26763 0.0
C7479 C 0.83007 0.90938 0.28066 0.0
C7480 C 0.84389 0.91721 0.29063 0.0
C7481 C 0.84338 0.9286 0.30296 0.0
C7482 C 0.8291 0.93217 0.3055 0.0
C7483 C 0.81528 0.92433 0.29574 0.0
C7484 C 0.81572 0.91295 0.28339 0.0
C7485 C 0.81206 0.82647 0.2629 0.0
C7486 C 0.79545 0.82249 0.26187 0.0
C7487 C 0.82048 0.84167 0.26104 0.0
C7488 C 0.81252 0.85324 0.25814 0.0
C7489 C 0.79596 0.84939 0.25722 0.0
C7490 C 0.78747 0.8341 0.25894 0.0
C7491 C 0.82161 0.86942 0.25645 0.0
C7492 C 0.82079 0.8819 0.26751 0.0
C7493 C 0.83201 0.87237 0.24485 0.0
C7494 C 0.8332 0.85966 0.23271 0.0
C7495 C 0.81966 0.85045 0.2231 0.0
C7496 C 0.82085 0.83831 0.21188 0.0
C7497 C 0.83554 0.83534 0.21008 0.0
C7498 C 0.84908 0.84453 0.21947 0.0
C7499 C 0.84795 0.85666 0.23072 0.0
H7500 H 0.83643 0.82594 0.20139 0.0
H7501 H 0.82873 0.94098 0.31507 0.0
H7502 H 0.70909 0.1063 0.73336 0.0
H7503 H 0.70982 0.13372 0.73569 0.0
H7504 H 0.74375 0.14279 0.7771 0.0
H7505 H 0.74209 0.11438 0.77546 0.0
H7506 H 0.72137 0.15652 0.78257 0.0
H7507 H 0.75412 0.15629 0.74289 0.0
H7508 H 0.76461 0.14792 0.71882 0.0
H7509 H 0.72437 0.15433 0.69083 0.0
H7510 H 0.71346 0.16247 0.71478 0.0
H7511 H 0.7701 0.22164 0.77411 0.0
H7512 H 0.7504 0.19869 0.77846 0.0
H7513 H 0.71554 0.21149 0.74736 0.0
H7514 H 0.73575 0.23497 0.743 0.0
H7515 H 0.72467 0.18621 0.73666 0.0
H7516 H 0.7039 0.19948 0.78333 0.0
H7517 H 0.70652 0.21561 0.80897 0.0
H7518 H 0.74184 0.19398 0.82716 0.0
H7519 H 0.73955 0.17779 0.80166 0.0
C7520 C 0.71732 0.11412 0.74259 0.0
C7521 C 0.72572 0.1083 0.75417 0.0
C7522 C 0.71756 0.12983 0.744 0.0
C7523 C 0.72682 0.14021 0.75655 0.0
C7524 C 0.7364 0.13479 0.76743 0.0
C7525 C 0.73575 0.11876 0.76632 0.0
C7526 C 0.72569 0.15652 0.75828 0.0
C7527 C 0.72234 0.16321 0.77267 0.0
C7528 C 0.72649 0.16491 0.74518 0.0
C7529 C 0.73281 0.15973 0.73066 0.0
C7530 C 0.74738 0.15571 0.73162 0.0
C7531 C 0.75344 0.15105 0.71799 0.0
C7532 C 0.74512 0.15051 0.7033 0.0
C7533 C 0.73076 0.15468 0.70222 0.0
C7534 C 0.72463 0.15931 0.71582 0.0
C7535 C 0.75822 0.21948 0.76819 0.0
C7536 C 0.75442 0.22933 0.75766 0.0
C7537 C 0.74677 0.2068 0.77122 0.0
C7538 C 0.73137 0.20364 0.76355 0.0
C7539 C 0.7273 0.21403 0.75362 0.0
C7540 C 0.7389 0.22689 0.75059 0.0
C7541 C 0.7225 0.18719 0.76141 0.0
C7542 C 0.7232 0.17952 0.74657 0.0
C7543 C 0.72117 0.17881 0.77456 0.0
C7544 C 0.72133 0.18717 0.79054 0.0
C7545 C 0.71207 0.19799 0.79285 0.0
C7546 C 0.71356 0.20721 0.80735 0.0
C7547 C 0.72429 0.20578 0.8197 0.0
C7548 C 0.73343 0.19498 0.81762 0.0
C7549 C 0.73195 0.18568 0.80316 0.0
H7550 H 0.72557 0.21308 0.83085 0.0
H7551 H 0.74984 0.14692 0.69276 0.0
loop_
_geom_bond_atom_site_label_1
_geom_bond_atom_site_label_2
_geom_bond_distance
_geom_bond_site_symmetry_2
_ccdc_geom_bond_type
Li0 N17 1.990 1_455 S
Li0 O60 1.956 . S
Li0 O61 1.970 . S
Li0 O62 1.961 . S
Li1 N25 1.990 . S
Li1 O60 1.970 . S
Li1 O61 1.956 . S
Li1 O63 1.961 . S
Li2 N47 1.990 . S
Li2 O60 1.961 . S
Li2 O62 1.956 . S
Li2 O63 1.970 . S
Li3 N53 1.990 . S
Li3 O61 1.961 . S
Li3 O62 1.970 . S
Li3 O63 1.956 . S
C4 C6 1.348 . S
C4 C7 1.356 . S
C4 O60 1.325 . S
N5 C8 1.314 . S
N5 C9 1.279 . S
C6 C4 1.348 . S
C6 C8 1.353 . S
C6 H64 0.929 . S
C7 C4 1.356 . S
C7 C9 1.358 . S
C7 H65 0.930 . S
C8 N5 1.314 . S
C8 C6 1.353 . S
C8 H66 0.930 . S
C9 N5 1.279 . S
C9 C7 1.358 . S
C9 H67 0.930 . S
C10 C13 1.348 . S
C10 C14 1.356 . S
C10 O61 1.325 1_655 S
C11 N12 1.279 . S
C11 C14 1.358 . S
C11 H68 0.930 . S
N12 C11 1.279 . S
N12 C15 1.314 . S
C13 C10 1.348 . S
C13 C15 1.353 . S
C13 H69 0.929 . S
C14 C10 1.356 . S
C14 C11 1.358 . S
C14 H70 0.930 1_655 S
C15 N12 1.314 . S
C15 C13 1.353 . S
C15 H71 0.930 . S
C16 N17 1.314 . S
C16 C21 1.353 . S
C16 H22 0.930 . S
N17 Li0 1.990 1_655 S
N17 C16 1.314 . S
N17 C19 1.279 . S
C18 C19 1.358 . S
C18 C20 1.356 . S
C18 H72 0.930 . S
C19 N17 1.279 . S
C19 C18 1.358 . S
C19 H23 0.930 . S
C20 C18 1.356 . S
C20 C21 1.348 . S
C21 C16 1.353 . S
C21 C20 1.348 . S
C21 H73 0.929 . S
H22 C16 0.930 . S
H23 C19 0.930 . S
C24 N25 1.314 . S
C24 C26 1.353 . S
C24 H30 0.930 . S
N25 Li1 1.990 . S
N25 C24 1.314 . S
N25 C28 1.279 . S
C26 C24 1.353 . S
C26 C29 1.348 . S
C26 H74 0.929 . S
C27 C28 1.358 . S
C27 C29 1.356 . S
C27 H75 0.930 . S
C28 N25 1.279 . S
C28 C27 1.358 . S
C28 H31 0.930 . S
C29 C26 1.348 . S
C29 C27 1.356 . S
H30 C24 0.930 . S
H31 C28 0.930 . S
C32 C34 1.348 . S
C32 C35 1.356 . S
C32 O62 1.325 . S
N33 C36 1.314 . S
N33 C37 1.279 . S
C34 C32 1.348 . S
C34 C36 1.353 . S
C34 H76 0.929 . S
C35 C32 1.356 . S
C35 C37 1.358 . S
C35 H77 0.930 . S
C36 N33 1.314 . S
C36 C34 1.353 . S
C36 H78 0.930 . S
C37 N33 1.279 . S
C37 C35 1.358 . S
C37 H79 0.930 . S
C38 C39 1.348 . S
C38 C40 1.356 . S
C38 O63 1.325 . S
C39 C38 1.348 . S
C39 C41 1.353 . S
C39 H80 0.929 . S
C40 C38 1.356 . S
C40 C42 1.358 . S
C40 H81 0.930 . S
C41 C39 1.353 . S
C41 N43 1.314 . S
C41 H82 0.930 . S
C42 C40 1.358 . S
C42 N43 1.279 . S
C42 H83 0.930 . S
N43 C41 1.314 . S
N43 C42 1.279 . S
C44 C46 1.353 . S
C44 N47 1.314 . S
C44 H50 0.930 . S
C45 N47 1.279 . S
C45 C48 1.358 . S
C45 H51 0.930 . S
C46 C44 1.353 . S
C46 C49 1.348 . S
C46 H84 0.929 . S
N47 Li2 1.990 . S
N47 C44 1.314 . S
N47 C45 1.279 . S
C48 C45 1.358 . S
C48 C49 1.356 . S
C48 H85 0.930 . S
C49 C46 1.348 . S
C49 C48 1.356 . S
H50 C44 0.930 . S
H51 C45 0.930 . S
C52 N53 1.314 . S
C52 C54 1.353 . S
C52 H58 0.931 . S
N53 Li3 1.990 . S
N53 C52 1.314 . S
N53 C56 1.279 . S
C54 C52 1.353 . S
C54 C57 1.348 . S
C54 H86 0.929 1_455 S
C55 C56 1.358 . S
C55 C57 1.356 . S
C55 H87 0.930 . S
C56 N53 1.279 . S
C56 C55 1.358 . S
C56 H59 0.930 . S
C57 C54 1.348 . S
C57 C55 1.356 . S
H58 C52 0.931 . S
H59 C56 0.930 . S
O60 Li0 1.956 . S
O60 Li1 1.970 . S
O60 Li2 1.961 . S
O60 C4 1.325 . S
O61 Li0 1.970 . S
O61 Li1 1.956 . S
O61 Li3 1.961 . S
O61 C10 1.325 1_455 S
O62 Li0 1.961 . S
O62 Li2 1.956 . S
O62 Li3 1.970 . S
O62 C32 1.325 . S
O63 Li1 1.961 . S
O63 Li2 1.970 . S
O63 Li3 1.956 . S
O63 C38 1.325 . S
H64 C6 0.929 . S
H65 C7 0.930 . S
H66 C8 0.930 . S
H67 C9 0.930 . S
H68 C11 0.930 . S
H69 C13 0.929 . S
H70 C14 0.930 1_455 S
H71 C15 0.930 . S
H72 C18 0.930 . S
H73 C21 0.929 . S
H74 C26 0.929 . S
H75 C27 0.930 . S
H76 C34 0.929 . S
H77 C35 0.930 . S
H78 C36 0.930 . S
H79 C37 0.930 . S
H80 C39 0.929 . S
H81 C40 0.930 . S
H82 C41 0.930 . S
H83 C42 0.930 . S
H84 C46 0.929 . S
H85 C48 0.930 . S
H86 C54 0.929 1_655 S
H87 C55 0.930 . S
Li88 N105 1.990 . S
Li88 O148 1.956 . S
Li88 O149 1.970 . S
Li88 O150 1.961 1_455 S
Li89 N113 1.990 . S
Li89 O148 1.970 . S
Li89 O149 1.956 . S
Li89 O151 1.961 . S
Li90 N135 1.990 . S
Li90 O148 1.961 . S
Li90 O150 1.956 1_455 S
Li90 O151 1.970 . S
Li91 N141 1.990 1_455 S
Li91 O149 1.961 . S
Li91 O150 1.970 1_455 S
Li91 O151 1.956 . S
C92 C94 1.348 . S
C92 C95 1.356 . S
C92 O148 1.325 . S
N93 C96 1.314 . S
N93 C97 1.279 . S
C94 C92 1.348 . S
C94 C96 1.353 . S
C94 H152 0.929 . S
C95 C92 1.356 . S
C95 C97 1.358 . S
C95 H153 0.930 . S
C96 N93 1.314 . S
C96 C94 1.353 . S
C96 H154 0.930 . S
C97 N93 1.279 . S
C97 C95 1.358 . S
C97 H155 0.930 . S
C98 C101 1.348 . S
C98 C102 1.356 . S
C98 O149 1.325 . S
C99 N100 1.279 . S
C99 C102 1.358 . S
C99 H156 0.930 . S
N100 C99 1.279 . S
N100 C103 1.314 . S
C101 C98 1.348 . S
C101 C103 1.353 . S
C101 H157 0.929 . S
C102 C98 1.356 . S
C102 C99 1.358 . S
C102 H158 0.930 . S
C103 N100 1.314 . S
C103 C101 1.353 . S
C103 H159 0.930 . S
C104 N105 1.314 . S
C104 C109 1.353 . S
C104 H110 0.930 1_455 S
N105 Li88 1.990 . S
N105 C104 1.314 . S
N105 C107 1.279 . S
C106 C107 1.358 . S
C106 C108 1.356 . S
C106 H160 0.930 . S
C107 N105 1.279 . S
C107 C106 1.358 . S
C107 H111 0.930 . S
C108 C106 1.356 . S
C108 C109 1.348 . S
C109 C104 1.353 . S
C109 C108 1.348 . S
C109 H161 0.929 1_455 S
H110 C104 0.930 1_655 S
H111 C107 0.930 . S
C112 N113 1.314 . S
C112 C114 1.353 . S
C112 H118 0.930 . S
N113 Li89 1.990 . S
N113 C112 1.314 . S
N113 C116 1.279 . S
C114 C112 1.353 . S
C114 C117 1.348 . S
C114 H162 0.929 . S
C115 C116 1.358 . S
C115 C117 1.356 . S
C115 H163 0.930 . S
C116 N113 1.279 . S
C116 C115 1.358 . S
C116 H119 0.930 . S
C117 C114 1.348 . S
C117 C115 1.356 . S
H118 C112 0.930 . S
H119 C116 0.930 . S
C120 C122 1.348 . S
C120 C123 1.356 . S
C120 O150 1.325 . S
N121 C124 1.314 . S
N121 C125 1.279 . S
C122 C120 1.348 . S
C122 C124 1.353 . S
C122 H164 0.929 . S
C123 C120 1.356 . S
C123 C125 1.358 . S
C123 H165 0.930 . S
C124 N121 1.314 . S
C124 C122 1.353 . S
C124 H166 0.930 . S
C125 N121 1.279 . S
C125 C123 1.358 . S
C125 H167 0.930 . S
C126 C127 1.348 . S
C126 C128 1.356 . S
C126 O151 1.325 . S
C127 C126 1.348 . S
C127 C129 1.353 . S
C127 H168 0.929 . S
C128 C126 1.356 . S
C128 C130 1.358 . S
C128 H169 0.930 . S
C129 C127 1.353 . S
C129 N131 1.314 . S
C129 H170 0.930 . S
C130 C128 1.358 . S
C130 N131 1.279 . S
C130 H171 0.930 . S
N131 C129 1.314 . S
N131 C130 1.279 . S
C132 C134 1.353 . S
C132 N135 1.314 . S
C132 H138 0.930 . S
C133 N135 1.279 1_655 S
C133 C136 1.358 . S
C133 H139 0.930 . S
C134 C132 1.353 . S
C134 C137 1.348 . S
C134 H172 0.929 . S
N135 Li90 1.990 . S
N135 C132 1.314 . S
N135 C133 1.279 1_455 S
C136 C133 1.358 . S
C136 C137 1.356 1_655 S
C136 H173 0.930 . S
C137 C134 1.348 . S
C137 C136 1.356 1_455 S
H138 C132 0.930 . S
H139 C133 0.930 . S
C140 N141 1.314 . S
C140 C142 1.353 . S
C140 H146 0.930 . S
N141 Li91 1.990 1_655 S
N141 C140 1.314 . S
N141 C144 1.279 . S
C142 C140 1.353 . S
C142 C145 1.348 . S
C142 H174 0.929 . S
C143 C144 1.358 . S
C143 C145 1.356 . S
C143 H175 0.930 . S
C144 N141 1.279 . S
C144 C143 1.358 . S
C144 H147 0.930 . S
C145 C142 1.348 . S
C145 C143 1.356 . S
H146 C140 0.930 . S
H147 C144 0.930 . S
O148 Li88 1.956 . S
O148 Li89 1.970 . S
O148 Li90 1.961 . S
O148 C92 1.325 . S
O149 Li88 1.970 . S
O149 Li89 1.956 . S
O149 Li91 1.961 . S
O149 C98 1.325 . S
O150 Li88 1.961 1_655 S
O150 Li90 1.956 1_655 S
O150 Li91 1.970 1_655 S
O150 C120 1.325 . S
O151 Li89 1.961 . S
O151 Li90 1.970 . S
O151 Li91 1.956 . S
O151 C126 1.325 . S
H152 C94 0.929 . S
H153 C95 0.930 . S
H154 C96 0.930 . S
H155 C97 0.930 . S
H156 C99 0.930 . S
H157 C101 0.929 . S
H158 C102 0.930 . S
H159 C103 0.930 . S
H160 C106 0.930 . S
H161 C109 0.929 1_655 S
H162 C114 0.929 . S
H163 C115 0.930 . S
H164 C122 0.929 . S
H165 C123 0.930 . S
H166 C124 0.930 . S
H167 C125 0.930 . S
H168 C127 0.929 . S
H169 C128 0.930 . S
H170 C129 0.930 . S
H171 C130 0.930 . S
H172 C134 0.929 . S
H173 C136 0.930 . S
H174 C142 0.929 . S
H175 C143 0.930 . S
Li176 N193 1.990 . S
Li176 O236 1.956 . S
Li176 O237 1.970 . S
Li176 O238 1.961 . S
Li177 N201 1.990 . S
Li177 O236 1.970 . S
Li177 O237 1.956 . S
Li177 O239 1.961 . S
Li178 N223 1.990 . S
Li178 O236 1.961 . S
Li178 O238 1.956 . S
Li178 O239 1.970 . S
Li179 N229 1.990 . S
Li179 O237 1.961 . S
Li179 O238 1.970 . S
Li179 O239 1.956 . S
C180 C182 1.348 . S
C180 C183 1.356 . S
C180 O236 1.325 . S
N181 C184 1.314 . S
N181 C185 1.279 . S
C182 C180 1.348 . S
C182 C184 1.353 . S
C182 H240 0.929 . S
C183 C180 1.356 . S
C183 C185 1.358 . S
C183 H241 0.930 . S
C184 N181 1.314 . S
C184 C182 1.353 . S
C184 H242 0.930 . S
C185 N181 1.279 . S
C185 C183 1.358 . S
C185 H243 0.930 . S
C186 C189 1.348 . S
C186 C190 1.356 . S
C186 O237 1.325 . S
C187 N188 1.279 . S
C187 C190 1.358 . S
C187 H244 0.930 . S
N188 C187 1.279 . S
N188 C191 1.314 . S
C189 C186 1.348 . S
C189 C191 1.353 . S
C189 H245 0.929 . S
C190 C186 1.356 . S
C190 C187 1.358 . S
C190 H246 0.930 . S
C191 N188 1.314 . S
C191 C189 1.353 . S
C191 H247 0.930 . S
C192 N193 1.314 . S
C192 C197 1.353 . S
C192 H198 0.930 . S
N193 Li176 1.990 . S
N193 C192 1.314 . S
N193 C195 1.279 . S
C194 C195 1.358 . S
C194 C196 1.356 . S
C194 H248 0.930 . S
C195 N193 1.279 . S
C195 C194 1.358 . S
C195 H199 0.930 . S
C196 C194 1.356 . S
C196 C197 1.348 . S
C197 C192 1.353 . S
C197 C196 1.348 . S
C197 H249 0.929 . S
H198 C192 0.930 . S
H199 C195 0.930 . S
C200 N201 1.314 . S
C200 C202 1.353 . S
C200 H206 0.930 . S
N201 Li177 1.990 . S
N201 C200 1.314 . S
N201 C204 1.279 . S
C202 C200 1.353 . S
C202 C205 1.348 . S
C202 H250 0.929 . S
C203 C204 1.358 . S
C203 C205 1.356 . S
C203 H251 0.930 . S
C204 N201 1.279 . S
C204 C203 1.358 . S
C204 H207 0.930 . S
C205 C202 1.348 . S
C205 C203 1.356 . S
H206 C200 0.930 . S
H207 C204 0.930 . S
C208 C210 1.348 . S
C208 C211 1.356 . S
C208 O238 1.325 . S
N209 C212 1.314 . S
N209 C213 1.279 . S
C210 C208 1.348 . S
C210 C212 1.353 . S
C210 H252 0.929 . S
C211 C208 1.356 . S
C211 C213 1.358 . S
C211 H253 0.930 . S
C212 N209 1.314 . S
C212 C210 1.353 . S
C212 H254 0.930 . S
C213 N209 1.279 . S
C213 C211 1.358 . S
C213 H255 0.930 . S
C214 C215 1.348 . S
C214 C216 1.356 . S
C214 O239 1.325 . S
C215 C214 1.348 . S
C215 C217 1.353 . S
C215 H256 0.929 . S
C216 C214 1.356 . S
C216 C218 1.358 . S
C216 H257 0.930 . S
C217 C215 1.353 . S
C217 N219 1.314 . S
C217 H258 0.930 . S
C218 C216 1.358 . S
C218 N219 1.279 . S
C218 H259 0.930 . S
N219 C217 1.314 . S
N219 C218 1.279 . S
C220 C222 1.353 . S
C220 N223 1.314 . S
C220 H226 0.930 . S
C221 N223 1.279 . S
C221 C224 1.358 . S
C221 H227 0.930 . S
C222 C220 1.353 . S
C222 C225 1.348 . S
C222 H260 0.929 . S
N223 Li178 1.990 . S
N223 C220 1.314 . S
N223 C221 1.279 . S
C224 C221 1.358 . S
C224 C225 1.356 . S
C224 H261 0.930 . S
C225 C222 1.348 . S
C225 C224 1.356 . S
H226 C220 0.930 . S
H227 C221 0.930 . S
C228 N229 1.314 . S
C228 C230 1.353 . S
C228 H234 0.930 . S
N229 Li179 1.990 . S
N229 C228 1.314 . S
N229 C232 1.279 . S
C230 C228 1.353 . S
C230 C233 1.348 . S
C230 H262 0.929 . S
C231 C232 1.358 . S
C231 C233 1.356 . S
C231 H263 0.930 . S
C232 N229 1.279 . S
C232 C231 1.358 . S
C232 H235 0.930 . S
C233 C230 1.348 . S
C233 C231 1.356 . S
H234 C228 0.930 . S
H235 C232 0.930 . S
O236 Li176 1.956 . S
O236 Li177 1.970 . S
O236 Li178 1.961 . S
O236 C180 1.325 . S
O237 Li176 1.970 . S
O237 Li177 1.956 . S
O237 Li179 1.961 . S
O237 C186 1.325 . S
O238 Li176 1.961 . S
O238 Li178 1.956 . S
O238 Li179 1.970 . S
O238 C208 1.325 . S
O239 Li177 1.961 . S
O239 Li178 1.970 . S
O239 Li179 1.956 . S
O239 C214 1.325 . S
H240 C182 0.929 . S
H241 C183 0.930 . S
H242 C184 0.930 . S
H243 C185 0.930 . S
H244 C187 0.930 . S
H245 C189 0.929 . S
H246 C190 0.930 . S
H247 C191 0.930 . S
H248 C194 0.930 . S
H249 C197 0.929 . S
H250 C202 0.929 . S
H251 C203 0.930 . S
H252 C210 0.929 . S
H253 C211 0.930 . S
H254 C212 0.930 . S
H255 C213 0.930 . S
H256 C215 0.929 . S
H257 C216 0.930 . S
H258 C217 0.930 . S
H259 C218 0.930 . S
H260 C222 0.929 . S
H261 C224 0.930 . S
H262 C230 0.929 . S
H263 C231 0.930 . S
Li264 N281 1.990 . S
Li264 O324 1.956 . S
Li264 O325 1.970 . S
Li264 O326 1.961 . S
Li265 N289 1.990 . S
Li265 O324 1.970 . S
Li265 O325 1.956 . S
Li265 O327 1.961 . S
Li266 N311 1.990 . S
Li266 O324 1.961 . S
Li266 O326 1.956 . S
Li266 O327 1.970 . S
Li267 N317 1.990 . S
Li267 O325 1.961 . S
Li267 O326 1.970 . S
Li267 O327 1.956 . S
C268 C270 1.348 . S
C268 C271 1.356 . S
C268 O324 1.325 . S
N269 C272 1.314 . S
N269 C273 1.279 . S
C270 C268 1.348 . S
C270 C272 1.353 . S
C270 H328 0.929 . S
C271 C268 1.356 . S
C271 C273 1.358 . S
C271 H329 0.930 . S
C272 N269 1.314 . S
C272 C270 1.353 . S
C272 H330 0.930 . S
C273 N269 1.279 . S
C273 C271 1.358 . S
C273 H331 0.930 . S
C274 C277 1.348 . S
C274 C278 1.356 . S
C274 O325 1.325 . S
C275 N276 1.279 . S
C275 C278 1.358 . S
C275 H332 0.930 . S
N276 C275 1.279 . S
N276 C279 1.314 . S
C277 C274 1.348 . S
C277 C279 1.353 . S
C277 H333 0.929 . S
C278 C274 1.356 . S
C278 C275 1.358 . S
C278 H334 0.930 . S
C279 N276 1.314 . S
C279 C277 1.353 . S
C279 H335 0.930 . S
C280 N281 1.314 . S
C280 C285 1.353 . S
C280 H286 0.930 . S
N281 Li264 1.990 . S
N281 C280 1.314 . S
N281 C283 1.279 . S
C282 C283 1.358 . S
C282 C284 1.356 . S
C282 H336 0.930 . S
C283 N281 1.279 . S
C283 C282 1.358 . S
C283 H287 0.930 . S
C284 C282 1.356 . S
C284 C285 1.348 . S
C285 C280 1.353 . S
C285 C284 1.348 . S
C285 H337 0.929 . S
H286 C280 0.930 . S
H287 C283 0.930 . S
C288 N289 1.314 . S
C288 C290 1.353 . S
C288 H294 0.930 . S
N289 Li265 1.990 . S
N289 C288 1.314 . S
N289 C292 1.279 . S
C290 C288 1.353 . S
C290 C293 1.348 . S
C290 H338 0.929 . S
C291 C292 1.358 . S
C291 C293 1.356 . S
C291 H339 0.930 . S
C292 N289 1.279 . S
C292 C291 1.358 . S
C292 H295 0.930 . S
C293 C290 1.348 . S
C293 C291 1.356 . S
H294 C288 0.930 . S
H295 C292 0.930 . S
C296 C298 1.348 . S
C296 C299 1.356 . S
C296 O326 1.325 . S
N297 C300 1.314 . S
N297 C301 1.279 . S
C298 C296 1.348 . S
C298 C300 1.353 . S
C298 H340 0.929 . S
C299 C296 1.356 . S
C299 C301 1.358 . S
C299 H341 0.930 . S
C300 N297 1.314 . S
C300 C298 1.353 . S
C300 H342 0.930 . S
C301 N297 1.279 . S
C301 C299 1.358 . S
C301 H343 0.930 . S
C302 C303 1.348 . S
C302 C304 1.356 . S
C302 O327 1.325 . S
C303 C302 1.348 . S
C303 C305 1.353 . S
C303 H344 0.929 . S
C304 C302 1.356 . S
C304 C306 1.358 . S
C304 H345 0.930 . S
C305 C303 1.353 . S
C305 N307 1.314 . S
C305 H346 0.930 . S
C306 C304 1.358 . S
C306 N307 1.279 . S
C306 H347 0.930 . S
N307 C305 1.314 . S
N307 C306 1.279 . S
C308 C310 1.353 . S
C308 N311 1.314 . S
C308 H314 0.930 . S
C309 N311 1.279 . S
C309 C312 1.358 . S
C309 H315 0.930 . S
C310 C308 1.353 . S
C310 C313 1.348 . S
C310 H348 0.929 . S
N311 Li266 1.990 . S
N311 C308 1.314 . S
N311 C309 1.279 . S
C312 C309 1.358 . S
C312 C313 1.356 . S
C312 H349 0.930 . S
C313 C310 1.348 . S
C313 C312 1.356 . S
H314 C308 0.930 . S
H315 C309 0.930 . S
C316 N317 1.314 . S
C316 C318 1.353 . S
C316 H322 0.930 . S
N317 Li267 1.990 . S
N317 C316 1.314 . S
N317 C320 1.279 . S
C318 C316 1.353 . S
C318 C321 1.348 . S
C318 H350 0.929 . S
C319 C320 1.358 . S
C319 C321 1.356 . S
C319 H351 0.930 . S
C320 N317 1.279 . S
C320 C319 1.358 . S
C320 H323 0.930 . S
C321 C318 1.348 . S
C321 C319 1.356 . S
H322 C316 0.930 . S
H323 C320 0.930 . S
O324 Li264 1.956 . S
O324 Li265 1.970 . S
O324 Li266 1.961 . S
O324 C268 1.325 . S
O325 Li264 1.970 . S
O325 Li265 1.956 . S
O325 Li267 1.961 . S
O325 C274 1.325 . S
O326 Li264 1.961 . S
O326 Li266 1.956 . S
O326 Li267 1.970 . S
O326 C296 1.325 . S
O327 Li265 1.961 . S
O327 Li266 1.970 . S
O327 Li267 1.956 . S
O327 C302 1.325 . S
H328 C270 0.929 . S
H329 C271 0.930 . S
H330 C272 0.930 . S
H331 C273 0.930 . S
H332 C275 0.930 . S
H333 C277 0.929 . S
H334 C278 0.930 . S
H335 C279 0.930 . S
H336 C282 0.930 . S
H337 C285 0.929 . S
H338 C290 0.929 . S
H339 C291 0.930 . S
H340 C298 0.929 . S
H341 C299 0.930 . S
H342 C300 0.930 . S
H343 C301 0.930 . S
H344 C303 0.929 . S
H345 C304 0.930 . S
H346 C305 0.930 . S
H347 C306 0.930 . S
H348 C310 0.929 . S
H349 C312 0.930 . S
H350 C318 0.929 . S
H351 C319 0.930 . S
Li352 N369 1.990 . S
Li352 O412 1.956 . S
Li352 O413 1.970 . S
Li352 O414 1.961 . S
Li353 N377 1.990 . S
Li353 O412 1.970 . S
Li353 O413 1.956 . S
Li353 O415 1.961 . S
Li354 N399 1.990 . S
Li354 O412 1.961 . S
Li354 O414 1.956 . S
Li354 O415 1.970 . S
Li355 N405 1.990 . S
Li355 O413 1.961 . S
Li355 O414 1.970 . S
Li355 O415 1.956 . S
C356 C358 1.348 . S
C356 C359 1.356 . S
C356 O412 1.325 . S
N357 C360 1.314 . S
N357 C361 1.279 . S
C358 C356 1.348 . S
C358 C360 1.353 . S
C358 H416 0.929 . S
C359 C356 1.356 . S
C359 C361 1.358 . S
C359 H417 0.930 . S
C360 N357 1.314 . S
C360 C358 1.353 . S
C360 H418 0.930 . S
C361 N357 1.279 . S
C361 C359 1.358 . S
C361 H419 0.930 . S
C362 C365 1.348 . S
C362 C366 1.356 . S
C362 O413 1.325 . S
C363 N364 1.279 . S
C363 C366 1.358 . S
C363 H420 0.930 . S
N364 C363 1.279 . S
N364 C367 1.314 . S
C365 C362 1.348 . S
C365 C367 1.353 . S
C365 H421 0.929 . S
C366 C362 1.356 . S
C366 C363 1.358 . S
C366 H422 0.930 . S
C367 N364 1.314 . S
C367 C365 1.353 . S
C367 H423 0.930 . S
C368 N369 1.314 . S
C368 C373 1.353 . S
C368 H374 0.930 . S
N369 Li352 1.990 . S
N369 C368 1.314 . S
N369 C371 1.279 . S
C370 C371 1.358 . S
C370 C372 1.356 . S
C370 H424 0.930 . S
C371 N369 1.279 . S
C371 C370 1.358 . S
C371 H375 0.930 . S
C372 C370 1.356 . S
C372 C373 1.348 . S
C373 C368 1.353 . S
C373 C372 1.348 . S
C373 H425 0.929 . S
H374 C368 0.930 . S
H375 C371 0.930 . S
C376 N377 1.314 . S
C376 C378 1.353 . S
C376 H382 0.930 . S
N377 Li353 1.990 . S
N377 C376 1.314 . S
N377 C380 1.279 . S
C378 C376 1.353 . S
C378 C381 1.348 . S
C378 H426 0.929 . S
C379 C380 1.358 . S
C379 C381 1.356 . S
C379 H427 0.930 . S
C380 N377 1.279 . S
C380 C379 1.358 . S
C380 H383 0.930 . S
C381 C378 1.348 . S
C381 C379 1.356 . S
H382 C376 0.930 . S
H383 C380 0.930 . S
C384 C386 1.348 1_455 S
C384 C387 1.356 . S
C384 O414 1.325 . S
N385 C388 1.314 . S
N385 C389 1.279 . S
C386 C384 1.348 1_655 S
C386 C388 1.353 . S
C386 H428 0.929 . S
C387 C384 1.356 . S
C387 C389 1.358 1_455 S
C387 H429 0.930 . S
C388 N385 1.314 . S
C388 C386 1.353 . S
C388 H430 0.930 . S
C389 N385 1.279 . S
C389 C387 1.358 1_655 S
C389 H431 0.930 . S
C390 C391 1.348 . S
C390 C392 1.356 . S
C390 O415 1.325 . S
C391 C390 1.348 . S
C391 C393 1.353 . S
C391 H432 0.929 . S
C392 C390 1.356 . S
C392 C394 1.358 . S
C392 H433 0.930 . S
C393 C391 1.353 . S
C393 N395 1.314 . S
C393 H434 0.930 . S
C394 C392 1.358 . S
C394 N395 1.279 . S
C394 H435 0.930 . S
N395 C393 1.314 . S
N395 C394 1.279 . S
C396 C398 1.353 . S
C396 N399 1.314 . S
C396 H402 0.930 . S
C397 N399 1.279 . S
C397 C400 1.358 . S
C397 H403 0.930 . S
C398 C396 1.353 . S
C398 C401 1.348 . S
C398 H436 0.929 . S
N399 Li354 1.990 . S
N399 C396 1.314 . S
N399 C397 1.279 . S
C400 C397 1.358 . S
C400 C401 1.356 . S
C400 H437 0.930 . S
C401 C398 1.348 . S
C401 C400 1.356 . S
H402 C396 0.930 . S
H403 C397 0.930 . S
C404 N405 1.314 . S
C404 C406 1.353 1_455 S
C404 H410 0.930 . S
N405 Li355 1.990 . S
N405 C404 1.314 . S
N405 C408 1.279 . S
C406 C404 1.353 1_655 S
C406 C409 1.348 . S
C406 H438 0.929 . S
C407 C408 1.358 1_655 S
C407 C409 1.356 . S
C407 H439 0.930 . S
C408 N405 1.279 . S
C408 C407 1.358 1_455 S
C408 H411 0.930 . S
C409 C406 1.348 . S
C409 C407 1.356 . S
H410 C404 0.930 . S
H411 C408 0.930 . S
O412 Li352 1.956 . S
O412 Li353 1.970 . S
O412 Li354 1.961 . S
O412 C356 1.325 . S
O413 Li352 1.970 . S
O413 Li353 1.956 . S
O413 Li355 1.961 . S
O413 C362 1.325 . S
O414 Li352 1.961 . S
O414 Li354 1.956 . S
O414 Li355 1.970 . S
O414 C384 1.325 . S
O415 Li353 1.961 . S
O415 Li354 1.970 . S
O415 Li355 1.956 . S
O415 C390 1.325 . S
H416 C358 0.929 . S
H417 C359 0.930 . S
H418 C360 0.930 . S
H419 C361 0.930 . S
H420 C363 0.930 . S
H421 C365 0.929 . S
H422 C366 0.930 . S
H423 C367 0.930 . S
H424 C370 0.930 . S
H425 C373 0.929 . S
H426 C378 0.929 . S
H427 C379 0.930 . S
H428 C386 0.929 . S
H429 C387 0.930 . S
H430 C388 0.930 . S
H431 C389 0.930 . S
H432 C391 0.929 . S
H433 C392 0.930 . S
H434 C393 0.930 . S
H435 C394 0.930 . S
H436 C398 0.929 . S
H437 C400 0.930 . S
H438 C406 0.929 . S
H439 C407 0.930 . S
Li440 N457 1.990 . S
Li440 O500 1.956 . S
Li440 O501 1.970 . S
Li440 O502 1.961 . S
Li441 N465 1.990 . S
Li441 O500 1.970 . S
Li441 O501 1.956 . S
Li441 O503 1.961 . S
Li442 N487 1.990 . S
Li442 O500 1.961 . S
Li442 O502 1.956 . S
Li442 O503 1.970 . S
Li443 N493 1.990 . S
Li443 O501 1.961 . S
Li443 O502 1.970 . S
Li443 O503 1.956 . S
C444 C446 1.348 . S
C444 C447 1.356 . S
C444 O500 1.325 . S
N445 C448 1.314 . S
N445 C449 1.279 . S
C446 C444 1.348 . S
C446 C448 1.353 . S
C446 H504 0.929 . S
C447 C444 1.356 . S
C447 C449 1.358 . S
C447 H505 0.930 . S
C448 N445 1.314 . S
C448 C446 1.353 . S
C448 H506 0.930 . S
C449 N445 1.279 . S
C449 C447 1.358 . S
C449 H507 0.930 . S
C450 C453 1.348 . S
C450 C454 1.356 . S
C450 O501 1.325 . S
C451 N452 1.279 . S
C451 C454 1.358 . S
C451 H508 0.930 . S
N452 C451 1.279 . S
N452 C455 1.314 . S
C453 C450 1.348 . S
C453 C455 1.353 . S
C453 H509 0.929 . S
C454 C450 1.356 . S
C454 C451 1.358 . S
C454 H510 0.930 . S
C455 N452 1.314 . S
C455 C453 1.353 . S
C455 H511 0.930 . S
C456 N457 1.314 . S
C456 C461 1.353 . S
C456 H462 0.930 . S
N457 Li440 1.990 . S
N457 C456 1.314 . S
N457 C459 1.279 . S
C458 C459 1.358 . S
C458 C460 1.356 . S
C458 H512 0.930 . S
C459 N457 1.279 . S
C459 C458 1.358 . S
C459 H463 0.930 . S
C460 C458 1.356 . S
C460 C461 1.348 . S
C461 C456 1.353 . S
C461 C460 1.348 . S
C461 H513 0.929 . S
H462 C456 0.930 . S
H463 C459 0.930 . S
C464 N465 1.314 . S
C464 C466 1.353 . S
C464 H470 0.930 . S
N465 Li441 1.990 . S
N465 C464 1.314 . S
N465 C468 1.279 . S
C466 C464 1.353 . S
C466 C469 1.348 . S
C466 H514 0.929 . S
C467 C468 1.358 . S
C467 C469 1.356 . S
C467 H515 0.930 . S
C468 N465 1.279 . S
C468 C467 1.358 . S
C468 H471 0.930 . S
C469 C466 1.348 . S
C469 C467 1.356 . S
H470 C464 0.930 . S
H471 C468 0.930 . S
C472 C474 1.348 . S
C472 C475 1.356 . S
C472 O502 1.325 . S
N473 C476 1.314 . S
N473 C477 1.279 . S
C474 C472 1.348 . S
C474 C476 1.353 . S
C474 H516 0.929 . S
C475 C472 1.356 . S
C475 C477 1.358 . S
C475 H517 0.930 . S
C476 N473 1.314 . S
C476 C474 1.353 . S
C476 H518 0.930 . S
C477 N473 1.279 . S
C477 C475 1.358 . S
C477 H519 0.930 . S
C478 C479 1.348 . S
C478 C480 1.356 . S
C478 O503 1.325 . S
C479 C478 1.348 . S
C479 C481 1.353 . S
C479 H520 0.929 . S
C480 C478 1.356 . S
C480 C482 1.358 . S
C480 H521 0.930 . S
C481 C479 1.353 . S
C481 N483 1.314 . S
C481 H522 0.930 . S
C482 C480 1.358 . S
C482 N483 1.279 . S
C482 H523 0.930 . S
N483 C481 1.314 . S
N483 C482 1.279 . S
C484 C486 1.353 . S
C484 N487 1.314 . S
C484 H490 0.930 . S
C485 N487 1.279 . S
C485 C488 1.358 . S
C485 H491 0.930 . S
C486 C484 1.353 . S
C486 C489 1.348 . S
C486 H524 0.929 . S
N487 Li442 1.990 . S
N487 C484 1.314 . S
N487 C485 1.279 . S
C488 C485 1.358 . S
C488 C489 1.356 . S
C488 H525 0.930 . S
C489 C486 1.348 . S
C489 C488 1.356 . S
H490 C484 0.930 . S
H491 C485 0.930 . S
C492 N493 1.314 . S
C492 C494 1.353 . S
C492 H498 0.930 . S
N493 Li443 1.990 . S
N493 C492 1.314 . S
N493 C496 1.279 . S
C494 C492 1.353 . S
C494 C497 1.348 . S
C494 H526 0.929 . S
C495 C496 1.358 . S
C495 C497 1.356 . S
C495 H527 0.930 . S
C496 N493 1.279 . S
C496 C495 1.358 . S
C496 H499 0.930 . S
C497 C494 1.348 . S
C497 C495 1.356 . S
H498 C492 0.930 . S
H499 C496 0.930 . S
O500 Li440 1.956 . S
O500 Li441 1.970 . S
O500 Li442 1.961 . S
O500 C444 1.325 . S
O501 Li440 1.970 . S
O501 Li441 1.956 . S
O501 Li443 1.961 . S
O501 C450 1.325 . S
O502 Li440 1.961 . S
O502 Li442 1.956 . S
O502 Li443 1.970 . S
O502 C472 1.325 . S
O503 Li441 1.961 . S
O503 Li442 1.970 . S
O503 Li443 1.956 . S
O503 C478 1.325 . S
H504 C446 0.929 . S
H505 C447 0.930 . S
H506 C448 0.930 . S
H507 C449 0.930 . S
H508 C451 0.930 . S
H509 C453 0.929 . S
H510 C454 0.930 . S
H511 C455 0.930 . S
H512 C458 0.930 . S
H513 C461 0.929 . S
H514 C466 0.929 . S
H515 C467 0.930 . S
H516 C474 0.929 . S
H517 C475 0.930 . S
H518 C476 0.930 . S
H519 C477 0.930 . S
H520 C479 0.929 . S
H521 C480 0.930 . S
H522 C481 0.930 . S
H523 C482 0.930 . S
H524 C486 0.929 . S
H525 C488 0.930 . S
H526 C494 0.929 . S
H527 C495 0.930 . S
Li528 N545 1.990 . S
Li528 O588 1.956 . S
Li528 O589 1.970 . S
Li528 O590 1.961 . S
Li529 N553 1.990 . S
Li529 O588 1.970 . S
Li529 O589 1.956 . S
Li529 O591 1.961 . S
Li530 N575 1.990 . S
Li530 O588 1.961 . S
Li530 O590 1.956 . S
Li530 O591 1.970 . S
Li531 N581 1.990 . S
Li531 O589 1.961 . S
Li531 O590 1.970 . S
Li531 O591 1.956 . S
C532 C534 1.348 . S
C532 C535 1.356 . S
C532 O588 1.325 . S
N533 C536 1.314 . S
N533 C537 1.279 . S
C534 C532 1.348 . S
C534 C536 1.353 . S
C534 H592 0.929 . S
C535 C532 1.356 . S
C535 C537 1.358 . S
C535 H593 0.930 . S
C536 N533 1.314 . S
C536 C534 1.353 . S
C536 H594 0.930 . S
C537 N533 1.279 . S
C537 C535 1.358 . S
C537 H595 0.930 . S
C538 C541 1.348 . S
C538 C542 1.356 . S
C538 O589 1.325 . S
C539 N540 1.279 . S
C539 C542 1.358 . S
C539 H596 0.930 . S
N540 C539 1.279 . S
N540 C543 1.314 . S
C541 C538 1.348 . S
C541 C543 1.353 . S
C541 H597 0.929 . S
C542 C538 1.356 . S
C542 C539 1.358 . S
C542 H598 0.930 . S
C543 N540 1.314 . S
C543 C541 1.353 . S
C543 H599 0.930 . S
C544 N545 1.314 . S
C544 C549 1.353 . S
C544 H550 0.930 . S
N545 Li528 1.990 . S
N545 C544 1.314 . S
N545 C547 1.279 . S
C546 C547 1.358 . S
C546 C548 1.356 . S
C546 H600 0.930 . S
C547 N545 1.279 . S
C547 C546 1.358 . S
C547 H551 0.930 . S
C548 C546 1.356 . S
C548 C549 1.348 . S
C549 C544 1.353 . S
C549 C548 1.348 . S
C549 H601 0.929 . S
H550 C544 0.930 . S
H551 C547 0.930 . S
C552 N553 1.314 . S
C552 C554 1.353 . S
C552 H558 0.930 . S
N553 Li529 1.990 . S
N553 C552 1.314 . S
N553 C556 1.279 . S
C554 C552 1.353 . S
C554 C557 1.348 . S
C554 H602 0.929 . S
C555 C556 1.358 . S
C555 C557 1.356 . S
C555 H603 0.930 . S
C556 N553 1.279 . S
C556 C555 1.358 . S
C556 H559 0.930 . S
C557 C554 1.348 . S
C557 C555 1.356 . S
H558 C552 0.930 . S
H559 C556 0.930 . S
C560 C562 1.348 . S
C560 C563 1.356 . S
C560 O590 1.325 . S
N561 C564 1.314 . S
N561 C565 1.279 . S
C562 C560 1.348 . S
C562 C564 1.353 . S
C562 H604 0.929 . S
C563 C560 1.356 . S
C563 C565 1.358 . S
C563 H605 0.930 . S
C564 N561 1.314 . S
C564 C562 1.353 . S
C564 H606 0.930 . S
C565 N561 1.279 . S
C565 C563 1.358 . S
C565 H607 0.930 . S
C566 C567 1.348 . S
C566 C568 1.356 . S
C566 O591 1.325 . S
C567 C566 1.348 . S
C567 C569 1.353 . S
C567 H608 0.929 . S
C568 C566 1.356 . S
C568 C570 1.358 . S
C568 H609 0.930 . S
C569 C567 1.353 . S
C569 N571 1.314 . S
C569 H610 0.930 . S
C570 C568 1.358 . S
C570 N571 1.279 . S
C570 H611 0.930 . S
N571 C569 1.314 . S
N571 C570 1.279 . S
C572 C574 1.353 . S
C572 N575 1.314 . S
C572 H578 0.930 . S
C573 N575 1.279 . S
C573 C576 1.358 . S
C573 H579 0.930 . S
C574 C572 1.353 . S
C574 C577 1.348 . S
C574 H612 0.929 . S
N575 Li530 1.990 . S
N575 C572 1.314 . S
N575 C573 1.279 . S
C576 C573 1.358 . S
C576 C577 1.356 . S
C576 H613 0.930 . S
C577 C574 1.348 . S
C577 C576 1.356 . S
H578 C572 0.930 . S
H579 C573 0.930 . S
C580 N581 1.314 . S
C580 C582 1.353 . S
C580 H586 0.930 . S
N581 Li531 1.990 . S
N581 C580 1.314 . S
N581 C584 1.279 . S
C582 C580 1.353 . S
C582 C585 1.348 . S
C582 H614 0.929 . S
C583 C584 1.358 . S
C583 C585 1.356 . S
C583 H615 0.930 . S
C584 N581 1.279 . S
C584 C583 1.358 . S
C584 H587 0.930 . S
C585 C582 1.348 . S
C585 C583 1.356 . S
H586 C580 0.930 . S
H587 C584 0.930 . S
O588 Li528 1.956 . S
O588 Li529 1.970 . S
O588 Li530 1.961 . S
O588 C532 1.325 . S
O589 Li528 1.970 . S
O589 Li529 1.956 . S
O589 Li531 1.961 . S
O589 C538 1.325 . S
O590 Li528 1.961 . S
O590 Li530 1.956 . S
O590 Li531 1.970 . S
O590 C560 1.325 . S
O591 Li529 1.961 . S
O591 Li530 1.970 . S
O591 Li531 1.956 . S
O591 C566 1.325 . S
H592 C534 0.929 . S
H593 C535 0.930 . S
H594 C536 0.930 . S
H595 C537 0.930 . S
H596 C539 0.930 . S
H597 C541 0.929 . S
H598 C542 0.930 . S
H599 C543 0.930 . S
H600 C546 0.930 . S
H601 C549 0.929 . S
H602 C554 0.929 . S
H603 C555 0.930 . S
H604 C562 0.929 . S
H605 C563 0.930 . S
H606 C564 0.930 . S
H607 C565 0.930 . S
H608 C567 0.929 . S
H609 C568 0.930 . S
H610 C569 0.930 . S
H611 C570 0.930 . S
H612 C574 0.929 . S
H613 C576 0.930 . S
H614 C582 0.929 . S
H615 C583 0.930 . S
Li616 N633 1.990 . S
Li616 O676 1.956 1_455 S
Li616 O677 1.970 . S
Li616 O678 1.961 . S
Li617 N641 1.990 . S
Li617 O676 1.970 . S
Li617 O677 1.956 1_655 S
Li617 O679 1.961 . S
Li618 N663 1.986 . S
Li618 O676 2.003 . S
Li618 O678 1.925 1_655 S
Li618 O679 1.971 . S
Li619 N669 1.990 . S
Li619 O677 1.961 . S
Li619 O678 1.970 . S
Li619 O679 1.956 1_455 S
C620 C622 1.348 . S
C620 C623 1.356 . S
C620 O676 1.325 . S
N621 C624 1.314 . S
N621 C625 1.279 . S
C622 C620 1.348 . S
C622 C624 1.353 . S
C622 H680 0.929 . S
C623 C620 1.356 . S
C623 C625 1.358 . S
C623 H681 0.930 . S
C624 N621 1.314 . S
C624 C622 1.353 . S
C624 H682 0.930 . S
C625 N621 1.279 . S
C625 C623 1.358 . S
C625 H683 0.930 . S
C626 C629 1.351 . S
C626 C630 1.356 . S
C626 O677 1.325 . S
C627 N628 1.279 . S
C627 C630 1.358 . S
C627 H684 0.930 . S
N628 C627 1.279 . S
N628 C631 1.314 . S
C629 C626 1.351 . S
C629 C631 1.352 . S
C629 H685 0.926 1_455 S
C630 C626 1.356 . S
C630 C627 1.358 . S
C630 H686 0.930 . S
C631 N628 1.314 . S
C631 C629 1.352 . S
C631 H687 0.932 1_455 S
C632 N633 1.314 . S
C632 C637 1.353 . S
C632 H638 0.930 . S
N633 Li616 1.990 . S
N633 C632 1.314 . S
N633 C635 1.279 1_455 S
C634 C635 1.358 . S
C634 C636 1.356 1_655 S
C634 H688 0.930 . S
C635 N633 1.279 1_655 S
C635 C634 1.358 . S
C635 H639 0.930 . S
C636 C634 1.356 1_455 S
C636 C637 1.348 . S
C637 C632 1.353 . S
C637 C636 1.348 . S
C637 H689 0.929 . S
H638 C632 0.930 . S
H639 C635 0.930 . S
C640 N641 1.314 . S
C640 C642 1.353 . S
C640 H646 0.930 . S
N641 Li617 1.990 . S
N641 C640 1.314 . S
N641 C644 1.279 . S
C642 C640 1.353 . S
C642 C645 1.348 . S
C642 H690 0.929 . S
C643 C644 1.358 . S
C643 C645 1.356 . S
C643 H691 0.930 . S
C644 N641 1.279 . S
C644 C643 1.358 . S
C644 H647 0.930 . S
C645 C642 1.348 . S
C645 C643 1.356 . S
H646 C640 0.930 . S
H647 C644 0.930 . S
C648 C650 1.348 . S
C648 C651 1.356 . S
C648 O678 1.325 . S
N649 C652 1.314 . S
N649 C653 1.279 . S
C650 C648 1.348 . S
C650 C652 1.353 . S
C650 H692 0.929 . S
C651 C648 1.356 . S
C651 C653 1.358 . S
C651 H693 0.930 . S
C652 N649 1.314 . S
C652 C650 1.353 . S
C652 H694 0.930 . S
C653 N649 1.279 . S
C653 C651 1.358 . S
C653 H695 0.930 . S
C654 C655 1.348 . S
C654 C656 1.356 . S
C654 O679 1.325 . S
C655 C654 1.348 . S
C655 C657 1.353 . S
C655 H696 0.929 1_655 S
C656 C654 1.356 . S
C656 C658 1.358 . S
C656 H697 0.930 . S
C657 C655 1.353 . S
C657 N659 1.314 . S
C657 H698 0.930 . S
C658 C656 1.358 . S
C658 N659 1.279 . S
C658 H699 0.930 . S
N659 C657 1.314 . S
N659 C658 1.279 . S
C660 C662 1.353 . S
C660 N663 1.314 . S
C660 H666 0.930 . S
C661 N663 1.279 1_455 S
C661 C664 1.358 . S
C661 H667 0.930 . S
C662 C660 1.353 . S
C662 C665 1.348 . S
C662 H700 0.929 . S
N663 Li618 1.986 . S
N663 C660 1.314 . S
N663 C661 1.279 1_655 S
C664 C661 1.358 . S
C664 C665 1.356 1_455 S
C664 H701 0.930 . S
C665 C662 1.348 . S
C665 C664 1.356 1_655 S
H666 C660 0.930 . S
H667 C661 0.930 . S
C668 N669 1.314 . S
C668 C670 1.353 . S
C668 H674 0.930 . S
N669 Li619 1.990 . S
N669 C668 1.314 . S
N669 C672 1.279 . S
C670 C668 1.353 . S
C670 C673 1.348 . S
C670 H702 0.929 . S
C671 C672 1.358 . S
C671 C673 1.356 . S
C671 H703 0.930 . S
C672 N669 1.279 . S
C672 C671 1.358 . S
C672 H675 0.930 . S
C673 C670 1.348 . S
C673 C671 1.356 . S
H674 C668 0.930 . S
H675 C672 0.930 . S
O676 Li616 1.956 1_655 S
O676 Li617 1.970 . S
O676 Li618 2.003 . S
O676 C620 1.325 . S
O677 Li616 1.970 . S
O677 Li617 1.956 1_455 S
O677 Li619 1.961 . S
O677 C626 1.325 . S
O678 Li616 1.961 . S
O678 Li618 1.925 1_455 S
O678 Li619 1.970 . S
O678 C648 1.325 . S
O679 Li617 1.961 . S
O679 Li618 1.971 . S
O679 Li619 1.956 1_655 S
O679 C654 1.325 . S
H680 C622 0.929 . S
H681 C623 0.930 . S
H682 C624 0.930 . S
H683 C625 0.930 . S
H684 C627 0.930 . S
H685 C629 0.926 1_655 S
H686 C630 0.930 . S
H687 C631 0.932 1_655 S
H688 C634 0.930 . S
H689 C637 0.929 . S
H690 C642 0.929 . S
H691 C643 0.930 . S
H692 C650 0.929 . S
H693 C651 0.930 . S
H694 C652 0.930 . S
H695 C653 0.930 . S
H696 C655 0.929 1_455 S
H697 C656 0.930 . S
H698 C657 0.930 . S
H699 C658 0.930 . S
H700 C662 0.929 . S
H701 C664 0.930 . S
H702 C670 0.929 . S
H703 C671 0.930 . S
Li704 N721 1.990 . S
Li704 O764 1.956 1_545 S
Li704 O765 1.970 . S
Li704 O766 1.961 . S
Li705 N729 1.990 . S
Li705 O764 1.970 . S
Li705 O765 1.956 1_565 S
Li705 O767 1.961 . S
Li706 N751 1.990 . S
Li706 O764 1.961 1_545 S
Li706 O766 1.956 . S
Li706 O767 1.970 1_545 S
Li707 N757 1.990 . S
Li707 O765 1.961 . S
Li707 O766 1.970 . S
Li707 O767 1.956 1_545 S
C708 C710 1.348 . S
C708 C711 1.356 . S
C708 O764 1.325 . S
N709 C712 1.314 . S
N709 C713 1.279 . S
C710 C708 1.348 . S
C710 C712 1.353 . S
C710 H768 0.929 . S
C711 C708 1.356 . S
C711 C713 1.358 . S
C711 H769 0.930 . S
C712 N709 1.314 . S
C712 C710 1.353 . S
C712 H770 0.930 . S
C713 N709 1.279 . S
C713 C711 1.358 . S
C713 H771 0.930 . S
C714 C717 1.333 1_545 S
C714 C718 1.353 . S
C714 O765 1.326 . S
C715 N716 1.289 . S
C715 C718 1.360 1_565 S
C715 H772 0.916 1_565 S
N716 C715 1.289 . S
N716 C719 1.314 . S
C717 C714 1.333 1_565 S
C717 C719 1.353 . S
C717 H773 0.929 . S
C718 C714 1.353 . S
C718 C715 1.360 1_545 S
C718 H774 0.946 . S
C719 N716 1.314 . S
C719 C717 1.353 . S
C719 H775 0.930 . S
C720 N721 1.314 . S
C720 C725 1.353 . S
C720 H726 0.930 . S
N721 Li704 1.990 . S
N721 C720 1.314 . S
N721 C723 1.279 1_545 S
C722 C723 1.355 . S
C722 C724 1.334 1_565 S
C722 H776 0.955 . S
C723 N721 1.279 1_565 S
C723 C722 1.355 . S
C723 H727 0.930 . S
C724 C722 1.334 1_545 S
C724 C725 1.348 . S
C725 C720 1.353 . S
C725 C724 1.348 . S
C725 H777 0.929 . S
H726 C720 0.930 . S
H727 C723 0.930 . S
C728 N729 1.314 . S
C728 C730 1.353 . S
C728 H734 0.930 . S
N729 Li705 1.990 . S
N729 C728 1.314 . S
N729 C732 1.279 . S
C730 C728 1.353 . S
C730 C733 1.348 . S
C730 H778 0.929 . S
C731 C732 1.358 . S
C731 C733 1.356 . S
C731 H779 0.930 . S
C732 N729 1.279 . S
C732 C731 1.358 . S
C732 H735 0.930 . S
C733 C730 1.348 . S
C733 C731 1.356 . S
H734 C728 0.930 . S
H735 C732 0.930 . S
C736 C738 1.348 . S
C736 C739 1.356 . S
C736 O766 1.325 . S
N737 C740 1.314 . S
N737 C741 1.279 . S
C738 C736 1.348 . S
C738 C740 1.353 . S
C738 H780 0.929 . S
C739 C736 1.356 . S
C739 C741 1.358 . S
C739 H781 0.930 . S
C740 N737 1.314 . S
C740 C738 1.353 . S
C740 H782 0.930 . S
C741 N737 1.279 . S
C741 C739 1.358 . S
C741 H783 0.930 . S
C742 C743 1.348 1_565 S
C742 C744 1.356 . S
C742 O767 1.325 . S
C743 C742 1.348 1_545 S
C743 C745 1.353 1_545 S
C743 H784 0.929 . S
C744 C742 1.356 . S
C744 C746 1.358 . S
C744 H785 0.930 . S
C745 C743 1.353 1_565 S
C745 N747 1.314 . S
C745 H786 0.930 1_565 S
C746 C744 1.358 . S
C746 N747 1.279 . S
C746 H787 0.930 . S
N747 C745 1.314 . S
N747 C746 1.279 . S
C748 C750 1.353 . S
C748 N751 1.314 1_565 S
C748 H754 0.930 . S
C749 N751 1.279 . S
C749 C752 1.358 . S
C749 H755 0.930 . S
C750 C748 1.353 . S
C750 C753 1.348 1_565 S
C750 H788 0.929 . S
N751 Li706 1.990 . S
N751 C748 1.314 1_545 S
N751 C749 1.279 . S
C752 C749 1.358 . S
C752 C753 1.356 . S
C752 H789 0.930 . S
C753 C750 1.348 1_545 S
C753 C752 1.356 . S
H754 C748 0.930 . S
H755 C749 0.930 . S
C756 N757 1.314 . S
C756 C758 1.353 . S
C756 H762 0.930 . S
N757 Li707 1.990 . S
N757 C756 1.314 . S
N757 C760 1.279 . S
C758 C756 1.353 . S
C758 C761 1.348 . S
C758 H790 0.929 . S
C759 C760 1.358 . S
C759 C761 1.356 . S
C759 H791 0.930 . S
C760 N757 1.279 . S
C760 C759 1.358 . S
C760 H763 0.930 . S
C761 C758 1.348 . S
C761 C759 1.356 . S
H762 C756 0.930 . S
H763 C760 0.930 . S
O764 Li704 1.956 1_565 S
O764 Li705 1.970 . S
O764 Li706 1.961 1_565 S
O764 C708 1.325 . S
O765 Li704 1.970 . S
O765 Li705 1.956 1_545 S
O765 Li707 1.961 . S
O765 C714 1.326 . S
O766 Li704 1.961 . S
O766 Li706 1.956 . S
O766 Li707 1.970 . S
O766 C736 1.325 . S
O767 Li705 1.961 . S
O767 Li706 1.970 1_565 S
O767 Li707 1.956 1_565 S
O767 C742 1.325 . S
H768 C710 0.929 . S
H769 C711 0.930 . S
H770 C712 0.930 . S
H771 C713 0.930 . S
H772 C715 0.916 1_545 S
H773 C717 0.929 . S
H774 C718 0.946 . S
H775 C719 0.930 . S
H776 C722 0.955 . S
H777 C725 0.929 . S
H778 C730 0.929 . S
H779 C731 0.930 . S
H780 C738 0.929 . S
H781 C739 0.930 . S
H782 C740 0.930 . S
H783 C741 0.930 . S
H784 C743 0.929 . S
H785 C744 0.930 . S
H786 C745 0.930 1_545 S
H787 C746 0.930 . S
H788 C750 0.929 . S
H789 C752 0.930 . S
H790 C758 0.929 . S
H791 C759 0.930 . S
Li792 N809 1.990 . S
Li792 O852 1.956 . S
Li792 O853 1.970 . S
Li792 O854 1.961 . S
Li793 N817 1.990 . S
Li793 O852 1.970 . S
Li793 O853 1.956 . S
Li793 O855 1.961 . S
Li794 N839 1.990 . S
Li794 O852 1.961 . S
Li794 O854 1.956 . S
Li794 O855 1.970 . S
Li795 N845 1.990 . S
Li795 O853 1.961 . S
Li795 O854 1.970 . S
Li795 O855 1.956 . S
C796 C798 1.348 . S
C796 C799 1.356 . S
C796 O852 1.325 . S
N797 C800 1.314 . S
N797 C801 1.279 . S
C798 C796 1.348 . S
C798 C800 1.353 . S
C798 H856 0.929 . S
C799 C796 1.356 . S
C799 C801 1.358 . S
C799 H857 0.930 . S
C800 N797 1.314 . S
C800 C798 1.353 . S
C800 H858 0.930 . S
C801 N797 1.279 . S
C801 C799 1.358 . S
C801 H859 0.930 . S
C802 C805 1.348 . S
C802 C806 1.356 . S
C802 O853 1.325 . S
C803 N804 1.279 . S
C803 C806 1.358 . S
C803 H860 0.930 . S
N804 C803 1.279 . S
N804 C807 1.314 . S
C805 C802 1.348 . S
C805 C807 1.353 . S
C805 H861 0.929 . S
C806 C802 1.356 . S
C806 C803 1.358 . S
C806 H862 0.930 . S
C807 N804 1.314 . S
C807 C805 1.353 . S
C807 H863 0.930 . S
C808 N809 1.314 . S
C808 C813 1.353 . S
C808 H814 0.930 . S
N809 Li792 1.990 . S
N809 C808 1.314 . S
N809 C811 1.279 . S
C810 C811 1.358 . S
C810 C812 1.356 . S
C810 H864 0.930 . S
C811 N809 1.279 . S
C811 C810 1.358 . S
C811 H815 0.930 . S
C812 C810 1.356 . S
C812 C813 1.348 . S
C813 C808 1.353 . S
C813 C812 1.348 . S
C813 H865 0.929 . S
H814 C808 0.930 . S
H815 C811 0.930 . S
C816 N817 1.314 . S
C816 C818 1.353 . S
C816 H822 0.930 . S
N817 Li793 1.990 . S
N817 C816 1.314 . S
N817 C820 1.279 . S
C818 C816 1.353 . S
C818 C821 1.348 . S
C818 H866 0.929 . S
C819 C820 1.358 . S
C819 C821 1.356 . S
C819 H867 0.930 . S
C820 N817 1.279 . S
C820 C819 1.358 . S
C820 H823 0.930 . S
C821 C818 1.348 . S
C821 C819 1.356 . S
H822 C816 0.930 . S
H823 C820 0.930 . S
C824 C826 1.348 . S
C824 C827 1.356 . S
C824 O854 1.325 . S
N825 C828 1.314 . S
N825 C829 1.279 . S
C826 C824 1.348 . S
C826 C828 1.353 . S
C826 H868 0.929 . S
C827 C824 1.356 . S
C827 C829 1.358 . S
C827 H869 0.930 . S
C828 N825 1.314 . S
C828 C826 1.353 . S
C828 H870 0.930 . S
C829 N825 1.279 . S
C829 C827 1.358 . S
C829 H871 0.930 . S
C830 C831 1.348 . S
C830 C832 1.356 . S
C830 O855 1.325 . S
C831 C830 1.348 . S
C831 C833 1.353 . S
C831 H872 0.929 . S
C832 C830 1.356 . S
C832 C834 1.358 . S
C832 H873 0.930 . S
C833 C831 1.353 . S
C833 N835 1.314 . S
C833 H874 0.930 . S
C834 C832 1.358 . S
C834 N835 1.279 . S
C834 H875 0.930 . S
N835 C833 1.314 . S
N835 C834 1.279 . S
C836 C838 1.353 . S
C836 N839 1.314 . S
C836 H842 0.930 . S
C837 N839 1.279 . S
C837 C840 1.358 . S
C837 H843 0.930 . S
C838 C836 1.353 . S
C838 C841 1.348 . S
C838 H876 0.929 . S
N839 Li794 1.990 . S
N839 C836 1.314 . S
N839 C837 1.279 . S
C840 C837 1.358 . S
C840 C841 1.356 . S
C840 H877 0.930 . S
C841 C838 1.348 . S
C841 C840 1.356 . S
H842 C836 0.930 . S
H843 C837 0.930 . S
C844 N845 1.314 . S
C844 C846 1.353 . S
C844 H850 0.930 . S
N845 Li795 1.990 . S
N845 C844 1.314 . S
N845 C848 1.279 . S
C846 C844 1.353 . S
C846 C849 1.348 . S
C846 H878 0.929 . S
C847 C848 1.358 . S
C847 C849 1.356 . S
C847 H879 0.930 . S
C848 N845 1.279 . S
C848 C847 1.358 . S
C848 H851 0.930 . S
C849 C846 1.348 . S
C849 C847 1.356 . S
H850 C844 0.930 . S
H851 C848 0.930 . S
O852 Li792 1.956 . S
O852 Li793 1.970 . S
O852 Li794 1.961 . S
O852 C796 1.325 . S
O853 Li792 1.970 . S
O853 Li793 1.956 . S
O853 Li795 1.961 . S
O853 C802 1.325 . S
O854 Li792 1.961 . S
O854 Li794 1.956 . S
O854 Li795 1.970 . S
O854 C824 1.325 . S
O855 Li793 1.961 . S
O855 Li794 1.970 . S
O855 Li795 1.956 . S
O855 C830 1.325 . S
H856 C798 0.929 . S
H857 C799 0.930 . S
H858 C800 0.930 . S
H859 C801 0.930 . S
H860 C803 0.930 . S
H861 C805 0.929 . S
H862 C806 0.930 . S
H863 C807 0.930 . S
H864 C810 0.930 . S
H865 C813 0.929 . S
H866 C818 0.929 . S
H867 C819 0.930 . S
H868 C826 0.929 . S
H869 C827 0.930 . S
H870 C828 0.930 . S
H871 C829 0.930 . S
H872 C831 0.929 . S
H873 C832 0.930 . S
H874 C833 0.930 . S
H875 C834 0.930 . S
H876 C838 0.929 . S
H877 C840 0.930 . S
H878 C846 0.929 . S
H879 C847 0.930 . S
Li880 N897 1.990 . S
Li880 O940 1.956 . S
Li880 O941 1.970 . S
Li880 O942 1.961 . S
Li881 N905 1.990 . S
Li881 O940 1.970 . S
Li881 O941 1.956 . S
Li881 O943 1.961 . S
Li882 N927 1.990 1_545 S
Li882 O940 1.961 . S
Li882 O942 1.956 . S
Li882 O943 1.970 . S
Li883 N933 1.990 . S
Li883 O941 1.961 . S
Li883 O942 1.970 . S
Li883 O943 1.956 . S
C884 C886 1.348 . S
C884 C887 1.356 . S
C884 O940 1.325 . S
N885 C888 1.314 . S
N885 C889 1.279 . S
C886 C884 1.348 . S
C886 C888 1.353 . S
C886 H944 0.929 . S
C887 C884 1.356 . S
C887 C889 1.358 . S
C887 H945 0.930 . S
C888 N885 1.314 . S
C888 C886 1.353 . S
C888 H946 0.930 . S
C889 N885 1.279 . S
C889 C887 1.358 . S
C889 H947 0.930 . S
C890 C893 1.348 . S
C890 C894 1.356 . S
C890 O941 1.325 . S
C891 N892 1.279 . S
C891 C894 1.358 . S
C891 H948 0.930 . S
N892 C891 1.279 . S
N892 C895 1.314 . S
C893 C890 1.348 . S
C893 C895 1.353 . S
C893 H949 0.929 . S
C894 C890 1.356 . S
C894 C891 1.358 . S
C894 H950 0.930 . S
C895 N892 1.314 . S
C895 C893 1.353 . S
C895 H951 0.930 . S
C896 N897 1.314 . S
C896 C901 1.353 . S
C896 H902 0.930 . S
N897 Li880 1.990 . S
N897 C896 1.314 . S
N897 C899 1.279 . S
C898 C899 1.358 . S
C898 C900 1.356 . S
C898 H952 0.930 . S
C899 N897 1.279 . S
C899 C898 1.358 . S
C899 H903 0.930 . S
C900 C898 1.356 . S
C900 C901 1.348 . S
C901 C896 1.353 . S
C901 C900 1.348 . S
C901 H953 0.929 . S
H902 C896 0.930 . S
H903 C899 0.930 . S
C904 N905 1.314 . S
C904 C906 1.353 . S
C904 H910 0.930 . S
N905 Li881 1.990 . S
N905 C904 1.314 . S
N905 C908 1.279 . S
C906 C904 1.353 . S
C906 C909 1.348 . S
C906 H954 0.929 1_545 S
C907 C908 1.358 . S
C907 C909 1.356 . S
C907 H955 0.930 . S
C908 N905 1.279 . S
C908 C907 1.358 . S
C908 H911 0.930 . S
C909 C906 1.348 . S
C909 C907 1.356 . S
H910 C904 0.930 . S
H911 C908 0.930 . S
C912 C914 1.348 . S
C912 C915 1.356 . S
C912 O942 1.325 . S
N913 C916 1.314 . S
N913 C917 1.279 . S
C914 C912 1.348 . S
C914 C916 1.353 . S
C914 H956 0.929 . S
C915 C912 1.356 . S
C915 C917 1.358 . S
C915 H957 0.930 . S
C916 N913 1.314 . S
C916 C914 1.353 . S
C916 H958 0.930 . S
C917 N913 1.279 . S
C917 C915 1.358 . S
C917 H959 0.930 . S
C918 C919 1.348 . S
C918 C920 1.356 . S
C918 O943 1.325 1_565 S
C919 C918 1.348 . S
C919 C921 1.353 . S
C919 H960 0.929 . S
C920 C918 1.356 . S
C920 C922 1.358 . S
C920 H961 0.930 . S
C921 C919 1.353 . S
C921 N923 1.314 . S
C921 H962 0.930 . S
C922 C920 1.358 . S
C922 N923 1.279 . S
C922 H963 0.930 . S
N923 C921 1.314 . S
N923 C922 1.279 . S
C924 C926 1.353 . S
C924 N927 1.314 . S
C924 H930 0.930 . S
C925 N927 1.279 . S
C925 C928 1.358 . S
C925 H931 0.930 . S
C926 C924 1.353 . S
C926 C929 1.348 . S
C926 H964 0.929 . S
N927 Li882 1.990 1_565 S
N927 C924 1.314 . S
N927 C925 1.279 . S
C928 C925 1.358 . S
C928 C929 1.356 . S
C928 H965 0.930 . S
C929 C926 1.348 . S
C929 C928 1.356 . S
H930 C924 0.930 . S
H931 C925 0.930 . S
C932 N933 1.314 . S
C932 C934 1.353 . S
C932 H938 0.930 . S
N933 Li883 1.990 . S
N933 C932 1.314 . S
N933 C936 1.279 . S
C934 C932 1.353 . S
C934 C937 1.348 . S
C934 H966 0.929 . S
C935 C936 1.357 . S
C935 C937 1.371 . S
C935 H967 0.916 1_545 S
C936 N933 1.279 . S
C936 C935 1.357 . S
C936 H939 0.930 1_545 S
C937 C934 1.348 . S
C937 C935 1.371 . S
H938 C932 0.930 . S
H939 C936 0.930 1_565 S
O940 Li880 1.956 . S
O940 Li881 1.970 . S
O940 Li882 1.961 . S
O940 C884 1.325 . S
O941 Li880 1.970 . S
O941 Li881 1.956 . S
O941 Li883 1.961 . S
O941 C890 1.325 . S
O942 Li880 1.961 . S
O942 Li882 1.956 . S
O942 Li883 1.970 . S
O942 C912 1.325 . S
O943 Li881 1.961 . S
O943 Li882 1.970 . S
O943 Li883 1.956 . S
O943 C918 1.325 1_545 S
H944 C886 0.929 . S
H945 C887 0.930 . S
H946 C888 0.930 . S
H947 C889 0.930 . S
H948 C891 0.930 . S
H949 C893 0.929 . S
H950 C894 0.930 . S
H951 C895 0.930 . S
H952 C898 0.930 . S
H953 C901 0.929 . S
H954 C906 0.929 1_565 S
H955 C907 0.930 . S
H956 C914 0.929 . S
H957 C915 0.930 . S
H958 C916 0.930 . S
H959 C917 0.930 . S
H960 C919 0.929 . S
H961 C920 0.930 . S
H962 C921 0.930 . S
H963 C922 0.930 . S
H964 C926 0.929 . S
H965 C928 0.930 . S
H966 C934 0.929 . S
H967 C935 0.916 1_565 S
Li968 N985 1.992 . S
Li968 O1028 1.987 . S
Li968 O1029 1.971 1_554 S
Li968 O1030 1.926 1_554 S
Li969 N993 1.990 . S
Li969 O1028 1.970 . S
Li969 O1029 1.956 1_554 S
Li969 O1031 1.988 . S
Li970 N1015 1.990 . S
Li970 O1028 1.961 . S
Li970 O1030 1.956 1_554 S
Li970 O1031 1.968 . S
Li971 N1021 1.990 . S
Li971 O1029 1.961 . S
Li971 O1030 1.970 . S
Li971 O1031 1.931 1_556 S
C972 C974 1.348 . S
C972 C975 1.356 . S
C972 O1028 1.325 . S
N973 C976 1.314 . S
N973 C977 1.279 . S
C974 C972 1.348 . S
C974 C976 1.353 . S
C974 H1032 0.929 . S
C975 C972 1.356 . S
C975 C977 1.358 . S
C975 H1033 0.930 . S
C976 N973 1.314 . S
C976 C974 1.353 . S
C976 H1034 0.930 . S
C977 N973 1.279 . S
C977 C975 1.358 . S
C977 H1035 0.930 . S
C978 C981 1.348 1_556 S
C978 C982 1.356 . S
C978 O1029 1.325 . S
C979 N980 1.279 . S
C979 C982 1.358 . S
C979 H1036 0.930 . S
N980 C979 1.279 . S
N980 C983 1.319 . S
C981 C978 1.348 1_554 S
C981 C983 1.355 1_554 S
C981 H1037 0.929 . S
C982 C978 1.356 . S
C982 C979 1.358 . S
C982 H1038 0.930 . S
C983 N980 1.319 . S
C983 C981 1.355 1_556 S
C983 H1039 0.923 1_556 S
C984 N985 1.314 1_556 S
C984 C989 1.353 . S
C984 H990 0.930 . S
N985 Li968 1.992 . S
N985 C984 1.314 1_554 S
N985 C987 1.279 . S
C986 C987 1.358 . S
C986 C988 1.366 . S
C986 H1040 0.930 . S
C987 N985 1.279 . S
C987 C986 1.358 . S
C987 H991 0.930 . S
C988 C986 1.366 . S
C988 C989 1.337 1_554 S
C989 C984 1.353 . S
C989 C988 1.337 1_556 S
C989 H1041 0.929 . S
H990 C984 0.930 . S
H991 C987 0.930 . S
C992 N993 1.314 . S
C992 C994 1.353 . S
C992 H998 0.930 . S
N993 Li969 1.990 . S
N993 C992 1.314 . S
N993 C996 1.279 . S
C994 C992 1.353 . S
C994 C997 1.348 . S
C994 H1042 0.929 . S
C995 C996 1.358 . S
C995 C997 1.356 . S
C995 H1043 0.930 . S
C996 N993 1.279 . S
C996 C995 1.358 . S
C996 H999 0.930 . S
C997 C994 1.348 . S
C997 C995 1.356 . S
H998 C992 0.930 . S
H999 C996 0.930 . S
C1000 C1002 1.348 . S
C1000 C1003 1.356 . S
C1000 O1030 1.325 . S
N1001 C1004 1.314 . S
N1001 C1005 1.279 . S
C1002 C1000 1.348 . S
C1002 C1004 1.353 . S
C1002 H1044 0.929 . S
C1003 C1000 1.356 . S
C1003 C1005 1.358 . S
C1003 H1045 0.930 . S
C1004 N1001 1.314 . S
C1004 C1002 1.353 . S
C1004 H1046 0.930 . S
C1005 N1001 1.279 . S
C1005 C1003 1.358 . S
C1005 H1047 0.930 . S
C1006 C1007 1.348 1_554 S
C1006 C1008 1.356 . S
C1006 O1031 1.324 . S
C1007 C1006 1.348 1_556 S
C1007 C1009 1.353 . S
C1007 H1048 0.929 . S
C1008 C1006 1.356 . S
C1008 C1010 1.358 . S
C1008 H1049 0.930 . S
C1009 C1007 1.353 . S
C1009 N1011 1.314 . S
C1009 H1050 0.930 . S
C1010 C1008 1.358 . S
C1010 N1011 1.279 1_554 S
C1010 H1051 0.930 . S
N1011 C1009 1.314 . S
N1011 C1010 1.279 1_556 S
C1012 C1014 1.353 . S
C1012 N1015 1.314 . S
C1012 H1018 0.930 . S
C1013 N1015 1.279 1_556 S
C1013 C1016 1.358 . S
C1013 H1019 0.930 . S
C1014 C1012 1.353 . S
C1014 C1017 1.348 . S
C1014 H1052 0.929 . S
N1015 Li970 1.990 . S
N1015 C1012 1.314 . S
N1015 C1013 1.279 1_554 S
C1016 C1013 1.358 . S
C1016 C1017 1.356 1_556 S
C1016 H1053 0.930 . S
C1017 C1014 1.348 . S
C1017 C1016 1.356 1_554 S
H1018 C1012 0.930 . S
H1019 C1013 0.930 . S
C1020 N1021 1.314 . S
C1020 C1022 1.353 . S
C1020 H1026 0.930 . S
N1021 Li971 1.990 . S
N1021 C1020 1.314 . S
N1021 C1024 1.279 . S
C1022 C1020 1.353 . S
C1022 C1025 1.348 . S
C1022 H1054 0.929 . S
C1023 C1024 1.358 . S
C1023 C1025 1.356 . S
C1023 H1055 0.930 . S
C1024 N1021 1.279 . S
C1024 C1023 1.358 . S
C1024 H1027 0.930 . S
C1025 C1022 1.348 . S
C1025 C1023 1.356 . S
H1026 C1020 0.930 . S
H1027 C1024 0.930 . S
O1028 Li968 1.987 . S
O1028 Li969 1.970 . S
O1028 Li970 1.961 . S
O1028 C972 1.325 . S
O1029 Li968 1.971 1_556 S
O1029 Li969 1.956 1_556 S
O1029 Li971 1.961 . S
O1029 C978 1.325 . S
O1030 Li968 1.926 1_556 S
O1030 Li970 1.956 1_556 S
O1030 Li971 1.970 . S
O1030 C1000 1.325 . S
O1031 Li969 1.988 . S
O1031 Li970 1.968 . S
O1031 Li971 1.931 1_554 S
O1031 C1006 1.324 . S
H1032 C974 0.929 . S
H1033 C975 0.930 . S
H1034 C976 0.930 . S
H1035 C977 0.930 . S
H1036 C979 0.930 . S
H1037 C981 0.929 . S
H1038 C982 0.930 . S
H1039 C983 0.923 1_554 S
H1040 C986 0.930 . S
H1041 C989 0.929 . S
H1042 C994 0.929 . S
H1043 C995 0.930 . S
H1044 C1002 0.929 . S
H1045 C1003 0.930 . S
H1046 C1004 0.930 . S
H1047 C1005 0.930 . S
H1048 C1007 0.929 . S
H1049 C1008 0.930 . S
H1050 C1009 0.930 . S
H1051 C1010 0.930 . S
H1052 C1014 0.929 . S
H1053 C1016 0.930 . S
H1054 C1022 0.929 . S
H1055 C1023 0.930 . S
Li1056 N1073 1.990 . S
Li1056 O1116 1.956 . S
Li1056 O1117 1.970 . S
Li1056 O1118 1.961 . S
Li1057 N1081 1.990 . S
Li1057 O1116 1.970 . S
Li1057 O1117 1.956 . S
Li1057 O1119 1.961 . S
Li1058 N1103 1.990 . S
Li1058 O1116 1.961 . S
Li1058 O1118 1.956 . S
Li1058 O1119 1.970 . S
Li1059 N1109 1.990 1_554 S
Li1059 O1117 1.961 . S
Li1059 O1118 1.970 . S
Li1059 O1119 1.956 . S
C1060 C1062 1.348 . S
C1060 C1063 1.356 . S
C1060 O1116 1.325 . S
N1061 C1064 1.314 . S
N1061 C1065 1.279 . S
C1062 C1060 1.348 . S
C1062 C1064 1.353 . S
C1062 H1120 0.929 . S
C1063 C1060 1.356 . S
C1063 C1065 1.358 . S
C1063 H1121 0.930 . S
C1064 N1061 1.314 . S
C1064 C1062 1.353 . S
C1064 H1122 0.930 . S
C1065 N1061 1.279 . S
C1065 C1063 1.358 . S
C1065 H1123 0.930 . S
C1066 C1069 1.348 . S
C1066 C1070 1.356 . S
C1066 O1117 1.325 . S
C1067 N1068 1.279 . S
C1067 C1070 1.358 . S
C1067 H1124 0.930 . S
N1068 C1067 1.279 . S
N1068 C1071 1.314 . S
C1069 C1066 1.348 . S
C1069 C1071 1.353 . S
C1069 H1125 0.929 . S
C1070 C1066 1.356 . S
C1070 C1067 1.358 . S
C1070 H1126 0.930 . S
C1071 N1068 1.314 . S
C1071 C1069 1.353 . S
C1071 H1127 0.930 . S
C1072 N1073 1.314 . S
C1072 C1077 1.353 . S
C1072 H1078 0.880 1_554 S
N1073 Li1056 1.990 . S
N1073 C1072 1.314 . S
N1073 C1075 1.279 . S
C1074 C1075 1.358 . S
C1074 C1076 1.356 . S
C1074 H1128 0.930 . S
C1075 N1073 1.279 . S
C1075 C1074 1.358 . S
C1075 H1079 0.930 . S
C1076 C1074 1.356 . S
C1076 C1077 1.348 . S
C1077 C1072 1.353 . S
C1077 C1076 1.348 . S
C1077 H1129 0.929 1_554 S
H1078 C1072 0.880 1_556 S
H1079 C1075 0.930 . S
C1080 N1081 1.314 . S
C1080 C1082 1.353 . S
C1080 H1086 0.930 . S
N1081 Li1057 1.990 . S
N1081 C1080 1.314 . S
N1081 C1084 1.279 . S
C1082 C1080 1.353 . S
C1082 C1085 1.348 . S
C1082 H1130 0.929 . S
C1083 C1084 1.358 . S
C1083 C1085 1.356 . S
C1083 H1131 0.930 . S
C1084 N1081 1.279 . S
C1084 C1083 1.358 . S
C1084 H1087 0.930 . S
C1085 C1082 1.348 . S
C1085 C1083 1.356 . S
H1086 C1080 0.930 . S
H1087 C1084 0.930 . S
C1088 C1090 1.348 . S
C1088 C1091 1.356 . S
C1088 O1118 1.325 1_556 S
N1089 C1092 1.314 . S
N1089 C1093 1.279 . S
C1090 C1088 1.348 . S
C1090 C1092 1.353 . S
C1090 H1132 0.929 . S
C1091 C1088 1.356 . S
C1091 C1093 1.358 . S
C1091 H1133 0.930 1_556 S
C1092 N1089 1.314 . S
C1092 C1090 1.353 . S
C1092 H1134 0.930 . S
C1093 N1089 1.279 . S
C1093 C1091 1.358 . S
C1093 H1135 0.930 . S
C1094 C1095 1.348 . S
C1094 C1096 1.356 . S
C1094 O1119 1.325 . S
C1095 C1094 1.348 . S
C1095 C1097 1.353 . S
C1095 H1136 0.929 . S
C1096 C1094 1.356 . S
C1096 C1098 1.358 . S
C1096 H1137 0.930 . S
C1097 C1095 1.353 . S
C1097 N1099 1.314 . S
C1097 H1138 0.930 . S
C1098 C1096 1.358 . S
C1098 N1099 1.279 . S
C1098 H1139 0.930 . S
N1099 C1097 1.314 . S
N1099 C1098 1.279 . S
C1100 C1102 1.353 . S
C1100 N1103 1.314 . S
C1100 H1106 0.930 . S
C1101 N1103 1.279 . S
C1101 C1104 1.358 . S
C1101 H1107 0.930 . S
C1102 C1100 1.353 . S
C1102 C1105 1.348 . S
C1102 H1140 0.929 . S
N1103 Li1058 1.990 . S
N1103 C1100 1.314 . S
N1103 C1101 1.279 . S
C1104 C1101 1.358 . S
C1104 C1105 1.356 . S
C1104 H1141 0.930 . S
C1105 C1102 1.348 . S
C1105 C1104 1.356 . S
H1106 C1100 0.930 . S
H1107 C1101 0.930 . S
C1108 N1109 1.314 . S
C1108 C1110 1.353 . S
C1108 H1114 0.930 . S
N1109 Li1059 1.990 1_556 S
N1109 C1108 1.314 . S
N1109 C1112 1.279 . S
C1110 C1108 1.353 . S
C1110 C1113 1.348 . S
C1110 H1142 0.929 . S
C1111 C1112 1.358 . S
C1111 C1113 1.356 . S
C1111 H1143 0.930 . S
C1112 N1109 1.279 . S
C1112 C1111 1.358 . S
C1112 H1115 0.930 . S
C1113 C1110 1.348 . S
C1113 C1111 1.356 . S
H1114 C1108 0.930 . S
H1115 C1112 0.930 . S
O1116 Li1056 1.956 . S
O1116 Li1057 1.970 . S
O1116 Li1058 1.961 . S
O1116 C1060 1.325 . S
O1117 Li1056 1.970 . S
O1117 Li1057 1.956 . S
O1117 Li1059 1.961 . S
O1117 C1066 1.325 . S
O1118 Li1056 1.961 . S
O1118 Li1058 1.956 . S
O1118 Li1059 1.970 . S
O1118 C1088 1.325 1_554 S
O1119 Li1057 1.961 . S
O1119 Li1058 1.970 . S
O1119 Li1059 1.956 . S
O1119 C1094 1.325 . S
H1120 C1062 0.929 . S
H1121 C1063 0.930 . S
H1122 C1064 0.930 . S
H1123 C1065 0.930 . S
H1124 C1067 0.930 . S
H1125 C1069 0.929 . S
H1126 C1070 0.930 . S
H1127 C1071 0.930 . S
H1128 C1074 0.930 . S
H1129 C1077 0.929 1_556 S
H1130 C1082 0.929 . S
H1131 C1083 0.930 . S
H1132 C1090 0.929 . S
H1133 C1091 0.930 1_554 S
H1134 C1092 0.930 . S
H1135 C1093 0.930 . S
H1136 C1095 0.929 . S
H1137 C1096 0.930 . S
H1138 C1097 0.930 . S
H1139 C1098 0.930 . S
H1140 C1102 0.929 . S
H1141 C1104 0.930 . S
H1142 C1110 0.929 . S
H1143 C1111 0.930 . S
Li1144 N1161 1.990 . S
Li1144 O1204 1.956 . S
Li1144 O1205 1.970 . S
Li1144 O1206 1.961 . S
Li1145 N1169 1.990 . S
Li1145 O1204 1.970 . S
Li1145 O1205 1.956 . S
Li1145 O1207 1.961 . S
Li1146 N1191 1.990 . S
Li1146 O1204 1.961 . S
Li1146 O1206 1.956 . S
Li1146 O1207 1.970 . S
Li1147 N1197 1.990 . S
Li1147 O1205 1.961 . S
Li1147 O1206 1.970 . S
Li1147 O1207 1.956 . S
C1148 C1150 1.348 . S
C1148 C1151 1.356 . S
C1148 O1204 1.325 . S
N1149 C1152 1.314 . S
N1149 C1153 1.279 . S
C1150 C1148 1.348 . S
C1150 C1152 1.353 . S
C1150 H1208 0.929 . S
C1151 C1148 1.356 . S
C1151 C1153 1.358 . S
C1151 H1209 0.930 . S
C1152 N1149 1.314 . S
C1152 C1150 1.353 . S
C1152 H1210 0.930 . S
C1153 N1149 1.279 . S
C1153 C1151 1.358 . S
C1153 H1211 0.930 . S
C1154 C1157 1.348 . S
C1154 C1158 1.356 . S
C1154 O1205 1.325 . S
C1155 N1156 1.279 . S
C1155 C1158 1.358 . S
C1155 H1212 0.930 . S
N1156 C1155 1.279 . S
N1156 C1159 1.314 . S
C1157 C1154 1.348 . S
C1157 C1159 1.353 . S
C1157 H1213 0.929 . S
C1158 C1154 1.356 . S
C1158 C1155 1.358 . S
C1158 H1214 0.930 . S
C1159 N1156 1.314 . S
C1159 C1157 1.353 . S
C1159 H1215 0.930 . S
C1160 N1161 1.314 . S
C1160 C1165 1.353 . S
C1160 H1166 0.930 . S
N1161 Li1144 1.990 . S
N1161 C1160 1.314 . S
N1161 C1163 1.279 . S
C1162 C1163 1.358 . S
C1162 C1164 1.356 . S
C1162 H1216 0.930 . S
C1163 N1161 1.279 . S
C1163 C1162 1.358 . S
C1163 H1167 0.930 . S
C1164 C1162 1.356 . S
C1164 C1165 1.348 . S
C1165 C1160 1.353 . S
C1165 C1164 1.348 . S
C1165 H1217 0.929 . S
H1166 C1160 0.930 . S
H1167 C1163 0.930 . S
C1168 N1169 1.314 . S
C1168 C1170 1.353 . S
C1168 H1174 0.930 . S
N1169 Li1145 1.990 . S
N1169 C1168 1.314 . S
N1169 C1172 1.279 . S
C1170 C1168 1.353 . S
C1170 C1173 1.348 . S
C1170 H1218 0.929 . S
C1171 C1172 1.358 . S
C1171 C1173 1.356 . S
C1171 H1219 0.930 . S
C1172 N1169 1.279 . S
C1172 C1171 1.358 . S
C1172 H1175 0.930 . S
C1173 C1170 1.348 . S
C1173 C1171 1.356 . S
H1174 C1168 0.930 . S
H1175 C1172 0.930 . S
C1176 C1178 1.348 . S
C1176 C1179 1.356 . S
C1176 O1206 1.325 . S
N1177 C1180 1.314 . S
N1177 C1181 1.279 . S
C1178 C1176 1.348 . S
C1178 C1180 1.353 . S
C1178 H1220 0.929 . S
C1179 C1176 1.356 . S
C1179 C1181 1.358 . S
C1179 H1221 0.930 . S
C1180 N1177 1.314 . S
C1180 C1178 1.353 . S
C1180 H1222 0.930 . S
C1181 N1177 1.279 . S
C1181 C1179 1.358 . S
C1181 H1223 0.930 . S
C1182 C1183 1.348 1_554 S
C1182 C1184 1.356 . S
C1182 O1207 1.325 . S
C1183 C1182 1.348 1_556 S
C1183 C1185 1.353 . S
C1183 H1224 0.929 . S
C1184 C1182 1.356 . S
C1184 C1186 1.358 1_554 S
C1184 H1225 0.930 . S
C1185 C1183 1.353 . S
C1185 N1187 1.314 . S
C1185 H1226 0.930 . S
C1186 C1184 1.358 1_556 S
C1186 N1187 1.279 . S
C1186 H1227 0.930 . S
N1187 C1185 1.314 . S
N1187 C1186 1.279 . S
C1188 C1190 1.353 . S
C1188 N1191 1.314 1_556 S
C1188 H1194 0.930 . S
C1189 N1191 1.279 1_556 S
C1189 C1192 1.358 . S
C1189 H1195 0.930 1_556 S
C1190 C1188 1.353 . S
C1190 C1193 1.348 . S
C1190 H1228 0.929 . S
N1191 Li1146 1.990 . S
N1191 C1188 1.314 1_554 S
N1191 C1189 1.279 1_554 S
C1192 C1189 1.358 . S
C1192 C1193 1.356 . S
C1192 H1229 0.930 . S
C1193 C1190 1.348 . S
C1193 C1192 1.356 . S
H1194 C1188 0.930 . S
H1195 C1189 0.930 1_554 S
C1196 N1197 1.314 . S
C1196 C1198 1.353 . S
C1196 H1202 0.930 . S
N1197 Li1147 1.990 . S
N1197 C1196 1.314 . S
N1197 C1200 1.279 . S
C1198 C1196 1.353 . S
C1198 C1201 1.348 . S
C1198 H1230 0.929 . S
C1199 C1200 1.358 . S
C1199 C1201 1.356 . S
C1199 H1231 0.930 . S
C1200 N1197 1.279 . S
C1200 C1199 1.358 . S
C1200 H1203 0.930 . S
C1201 C1198 1.348 . S
C1201 C1199 1.356 . S
H1202 C1196 0.930 . S
H1203 C1200 0.930 . S
O1204 Li1144 1.956 . S
O1204 Li1145 1.970 . S
O1204 Li1146 1.961 . S
O1204 C1148 1.325 . S
O1205 Li1144 1.970 . S
O1205 Li1145 1.956 . S
O1205 Li1147 1.961 . S
O1205 C1154 1.325 . S
O1206 Li1144 1.961 . S
O1206 Li1146 1.956 . S
O1206 Li1147 1.970 . S
O1206 C1176 1.325 . S
O1207 Li1145 1.961 . S
O1207 Li1146 1.970 . S
O1207 Li1147 1.956 . S
O1207 C1182 1.325 . S
H1208 C1150 0.929 . S
H1209 C1151 0.930 . S
H1210 C1152 0.930 . S
H1211 C1153 0.930 . S
H1212 C1155 0.930 . S
H1213 C1157 0.929 . S
H1214 C1158 0.930 . S
H1215 C1159 0.930 . S
H1216 C1162 0.930 . S
H1217 C1165 0.929 . S
H1218 C1170 0.929 . S
H1219 C1171 0.930 . S
H1220 C1178 0.929 . S
H1221 C1179 0.930 . S
H1222 C1180 0.930 . S
H1223 C1181 0.930 . S
H1224 C1183 0.929 . S
H1225 C1184 0.930 . S
H1226 C1185 0.930 . S
H1227 C1186 0.930 . S
H1228 C1190 0.929 . S
H1229 C1192 0.930 . S
H1230 C1198 0.929 . S
H1231 C1199 0.930 . S
Li1232 N1249 1.990 . S
Li1232 O1292 1.956 . S
Li1232 O1293 1.970 . S
Li1232 O1294 1.961 . S
Li1233 N1257 1.990 . S
Li1233 O1292 1.970 . S
Li1233 O1293 1.956 . S
Li1233 O1295 1.961 . S
Li1234 N1279 1.990 . S
Li1234 O1292 1.961 . S
Li1234 O1294 1.956 . S
Li1234 O1295 1.970 . S
Li1235 N1285 1.990 . S
Li1235 O1293 1.961 . S
Li1235 O1294 1.970 . S
Li1235 O1295 1.956 . S
C1236 C1238 1.348 . S
C1236 C1239 1.356 . S
C1236 O1292 1.325 . S
N1237 C1240 1.314 . S
N1237 C1241 1.279 . S
C1238 C1236 1.348 . S
C1238 C1240 1.353 . S
C1238 H1296 0.929 . S
C1239 C1236 1.356 . S
C1239 C1241 1.358 . S
C1239 H1297 0.930 . S
C1240 N1237 1.314 . S
C1240 C1238 1.353 . S
C1240 H1298 0.930 . S
C1241 N1237 1.279 . S
C1241 C1239 1.358 . S
C1241 H1299 0.930 . S
C1242 C1245 1.348 . S
C1242 C1246 1.356 . S
C1242 O1293 1.325 . S
C1243 N1244 1.279 . S
C1243 C1246 1.358 . S
C1243 H1300 0.930 . S
N1244 C1243 1.279 . S
N1244 C1247 1.314 . S
C1245 C1242 1.348 . S
C1245 C1247 1.353 . S
C1245 H1301 0.929 . S
C1246 C1242 1.356 . S
C1246 C1243 1.358 . S
C1246 H1302 0.930 . S
C1247 N1244 1.314 . S
C1247 C1245 1.353 . S
C1247 H1303 0.930 . S
C1248 N1249 1.314 . S
C1248 C1253 1.353 . S
C1248 H1254 0.930 . S
N1249 Li1232 1.990 . S
N1249 C1248 1.314 . S
N1249 C1251 1.279 . S
C1250 C1251 1.358 . S
C1250 C1252 1.356 . S
C1250 H1304 0.930 . S
C1251 N1249 1.279 . S
C1251 C1250 1.358 . S
C1251 H1255 0.930 . S
C1252 C1250 1.356 . S
C1252 C1253 1.348 . S
C1253 C1248 1.353 . S
C1253 C1252 1.348 . S
C1253 H1305 0.929 . S
H1254 C1248 0.930 . S
H1255 C1251 0.930 . S
C1256 N1257 1.314 . S
C1256 C1258 1.353 . S
C1256 H1262 0.930 . S
N1257 Li1233 1.990 . S
N1257 C1256 1.314 . S
N1257 C1260 1.279 . S
C1258 C1256 1.353 . S
C1258 C1261 1.348 . S
C1258 H1306 0.929 . S
C1259 C1260 1.358 . S
C1259 C1261 1.356 . S
C1259 H1307 0.930 . S
C1260 N1257 1.279 . S
C1260 C1259 1.358 . S
C1260 H1263 0.930 . S
C1261 C1258 1.348 . S
C1261 C1259 1.356 . S
H1262 C1256 0.930 . S
H1263 C1260 0.930 . S
C1264 C1266 1.348 . S
C1264 C1267 1.356 . S
C1264 O1294 1.325 . S
N1265 C1268 1.314 . S
N1265 C1269 1.279 . S
C1266 C1264 1.348 . S
C1266 C1268 1.353 . S
C1266 H1308 0.929 . S
C1267 C1264 1.356 . S
C1267 C1269 1.358 . S
C1267 H1309 0.930 . S
C1268 N1265 1.314 . S
C1268 C1266 1.353 . S
C1268 H1310 0.930 . S
C1269 N1265 1.279 . S
C1269 C1267 1.358 . S
C1269 H1311 0.930 . S
C1270 C1271 1.348 . S
C1270 C1272 1.356 . S
C1270 O1295 1.325 . S
C1271 C1270 1.348 . S
C1271 C1273 1.353 . S
C1271 H1312 0.929 . S
C1272 C1270 1.356 . S
C1272 C1274 1.358 . S
C1272 H1313 0.930 . S
C1273 C1271 1.353 . S
C1273 N1275 1.314 . S
C1273 H1314 0.930 . S
C1274 C1272 1.358 . S
C1274 N1275 1.279 . S
C1274 H1315 0.930 . S
N1275 C1273 1.314 . S
N1275 C1274 1.279 . S
C1276 C1278 1.353 . S
C1276 N1279 1.314 . S
C1276 H1282 0.930 . S
C1277 N1279 1.279 . S
C1277 C1280 1.358 . S
C1277 H1283 0.930 . S
C1278 C1276 1.353 . S
C1278 C1281 1.348 . S
C1278 H1316 0.929 . S
N1279 Li1234 1.990 . S
N1279 C1276 1.314 . S
N1279 C1277 1.279 . S
C1280 C1277 1.358 . S
C1280 C1281 1.356 . S
C1280 H1317 0.930 . S
C1281 C1278 1.348 . S
C1281 C1280 1.356 . S
H1282 C1276 0.930 . S
H1283 C1277 0.930 . S
C1284 N1285 1.314 . S
C1284 C1286 1.353 . S
C1284 H1290 0.930 . S
N1285 Li1235 1.990 . S
N1285 C1284 1.314 . S
N1285 C1288 1.279 . S
C1286 C1284 1.353 . S
C1286 C1289 1.348 . S
C1286 H1318 0.929 . S
C1287 C1288 1.358 . S
C1287 C1289 1.356 . S
C1287 H1319 0.930 . S
C1288 N1285 1.279 . S
C1288 C1287 1.358 . S
C1288 H1291 0.930 . S
C1289 C1286 1.348 . S
C1289 C1287 1.356 . S
H1290 C1284 0.930 . S
H1291 C1288 0.930 . S
O1292 Li1232 1.956 . S
O1292 Li1233 1.970 . S
O1292 Li1234 1.961 . S
O1292 C1236 1.325 . S
O1293 Li1232 1.970 . S
O1293 Li1233 1.956 . S
O1293 Li1235 1.961 . S
O1293 C1242 1.325 . S
O1294 Li1232 1.961 . S
O1294 Li1234 1.956 . S
O1294 Li1235 1.970 . S
O1294 C1264 1.325 . S
O1295 Li1233 1.961 . S
O1295 Li1234 1.970 . S
O1295 Li1235 1.956 . S
O1295 C1270 1.325 . S
H1296 C1238 0.929 . S
H1297 C1239 0.930 . S
H1298 C1240 0.930 . S
H1299 C1241 0.930 . S
H1300 C1243 0.930 . S
H1301 C1245 0.929 . S
H1302 C1246 0.930 . S
H1303 C1247 0.930 . S
H1304 C1250 0.930 . S
H1305 C1253 0.929 . S
H1306 C1258 0.929 . S
H1307 C1259 0.930 . S
H1308 C1266 0.929 . S
H1309 C1267 0.930 . S
H1310 C1268 0.930 . S
H1311 C1269 0.930 . S
H1312 C1271 0.929 . S
H1313 C1272 0.930 . S
H1314 C1273 0.930 . S
H1315 C1274 0.930 . S
H1316 C1278 0.929 . S
H1317 C1280 0.930 . S
H1318 C1286 0.929 . S
H1319 C1287 0.930 . S
Li1320 N1337 1.990 . S
Li1320 O1380 1.956 . S
Li1320 O1381 1.970 . S
Li1320 O1382 1.961 . S
Li1321 N1345 1.990 . S
Li1321 O1380 1.970 . S
Li1321 O1381 1.956 . S
Li1321 O1383 1.961 . S
Li1322 N1367 1.990 . S
Li1322 O1380 1.961 . S
Li1322 O1382 1.956 . S
Li1322 O1383 1.970 . S
Li1323 N1373 1.990 . S
Li1323 O1381 1.961 . S
Li1323 O1382 1.970 . S
Li1323 O1383 1.956 . S
C1324 C1326 1.348 . S
C1324 C1327 1.356 . S
C1324 O1380 1.325 . S
N1325 C1328 1.314 . S
N1325 C1329 1.279 . S
C1326 C1324 1.348 . S
C1326 C1328 1.353 . S
C1326 H1384 0.929 . S
C1327 C1324 1.356 . S
C1327 C1329 1.358 . S
C1327 H1385 0.930 . S
C1328 N1325 1.314 . S
C1328 C1326 1.353 . S
C1328 H1386 0.930 . S
C1329 N1325 1.279 . S
C1329 C1327 1.358 . S
C1329 H1387 0.930 . S
C1330 C1333 1.348 . S
C1330 C1334 1.356 . S
C1330 O1381 1.325 . S
C1331 N1332 1.279 . S
C1331 C1334 1.358 . S
C1331 H1388 0.930 . S
N1332 C1331 1.279 . S
N1332 C1335 1.314 . S
C1333 C1330 1.348 . S
C1333 C1335 1.353 . S
C1333 H1389 0.929 . S
C1334 C1330 1.356 . S
C1334 C1331 1.358 . S
C1334 H1390 0.930 . S
C1335 N1332 1.314 . S
C1335 C1333 1.353 . S
C1335 H1391 0.930 . S
C1336 N1337 1.314 . S
C1336 C1341 1.353 . S
C1336 H1342 0.930 . S
N1337 Li1320 1.990 . S
N1337 C1336 1.314 . S
N1337 C1339 1.279 . S
C1338 C1339 1.358 . S
C1338 C1340 1.356 . S
C1338 H1392 0.930 . S
C1339 N1337 1.279 . S
C1339 C1338 1.358 . S
C1339 H1343 0.930 . S
C1340 C1338 1.356 . S
C1340 C1341 1.348 . S
C1341 C1336 1.353 . S
C1341 C1340 1.348 . S
C1341 H1393 0.929 . S
H1342 C1336 0.930 . S
H1343 C1339 0.930 . S
C1344 N1345 1.314 . S
C1344 C1346 1.353 . S
C1344 H1350 0.930 . S
N1345 Li1321 1.990 . S
N1345 C1344 1.314 . S
N1345 C1348 1.279 . S
C1346 C1344 1.353 . S
C1346 C1349 1.348 . S
C1346 H1394 0.929 . S
C1347 C1348 1.358 . S
C1347 C1349 1.356 . S
C1347 H1395 0.930 . S
C1348 N1345 1.279 . S
C1348 C1347 1.358 . S
C1348 H1351 0.930 . S
C1349 C1346 1.348 . S
C1349 C1347 1.356 . S
H1350 C1344 0.930 . S
H1351 C1348 0.930 . S
C1352 C1354 1.348 . S
C1352 C1355 1.356 . S
C1352 O1382 1.325 . S
N1353 C1356 1.314 . S
N1353 C1357 1.279 . S
C1354 C1352 1.348 . S
C1354 C1356 1.353 . S
C1354 H1396 0.929 . S
C1355 C1352 1.356 . S
C1355 C1357 1.358 . S
C1355 H1397 0.930 . S
C1356 N1353 1.314 . S
C1356 C1354 1.353 . S
C1356 H1398 0.930 . S
C1357 N1353 1.279 . S
C1357 C1355 1.358 . S
C1357 H1399 0.930 . S
C1358 C1359 1.348 . S
C1358 C1360 1.356 . S
C1358 O1383 1.325 . S
C1359 C1358 1.348 . S
C1359 C1361 1.353 . S
C1359 H1400 0.929 . S
C1360 C1358 1.356 . S
C1360 C1362 1.358 . S
C1360 H1401 0.930 . S
C1361 C1359 1.353 . S
C1361 N1363 1.314 . S
C1361 H1402 0.930 . S
C1362 C1360 1.358 . S
C1362 N1363 1.279 . S
C1362 H1403 0.930 . S
N1363 C1361 1.314 . S
N1363 C1362 1.279 . S
C1364 C1366 1.353 . S
C1364 N1367 1.314 . S
C1364 H1370 0.930 . S
C1365 N1367 1.279 . S
C1365 C1368 1.358 . S
C1365 H1371 0.930 . S
C1366 C1364 1.353 . S
C1366 C1369 1.348 . S
C1366 H1404 0.929 . S
N1367 Li1322 1.990 . S
N1367 C1364 1.314 . S
N1367 C1365 1.279 . S
C1368 C1365 1.358 . S
C1368 C1369 1.356 . S
C1368 H1405 0.930 . S
C1369 C1366 1.348 . S
C1369 C1368 1.356 . S
H1370 C1364 0.930 . S
H1371 C1365 0.930 . S
C1372 N1373 1.314 . S
C1372 C1374 1.353 . S
C1372 H1378 0.930 . S
N1373 Li1323 1.990 . S
N1373 C1372 1.314 . S
N1373 C1376 1.279 . S
C1374 C1372 1.353 . S
C1374 C1377 1.348 . S
C1374 H1406 0.929 . S
C1375 C1376 1.358 . S
C1375 C1377 1.356 . S
C1375 H1407 0.930 . S
C1376 N1373 1.279 . S
C1376 C1375 1.358 . S
C1376 H1379 0.930 . S
C1377 C1374 1.348 . S
C1377 C1375 1.356 . S
H1378 C1372 0.930 . S
H1379 C1376 0.930 . S
O1380 Li1320 1.956 . S
O1380 Li1321 1.970 . S
O1380 Li1322 1.961 . S
O1380 C1324 1.325 . S
O1381 Li1320 1.970 . S
O1381 Li1321 1.956 . S
O1381 Li1323 1.961 . S
O1381 C1330 1.325 . S
O1382 Li1320 1.961 . S
O1382 Li1322 1.956 . S
O1382 Li1323 1.970 . S
O1382 C1352 1.325 . S
O1383 Li1321 1.961 . S
O1383 Li1322 1.970 . S
O1383 Li1323 1.956 . S
O1383 C1358 1.325 . S
H1384 C1326 0.929 . S
H1385 C1327 0.930 . S
H1386 C1328 0.930 . S
H1387 C1329 0.930 . S
H1388 C1331 0.930 . S
H1389 C1333 0.929 . S
H1390 C1334 0.930 . S
H1391 C1335 0.930 . S
H1392 C1338 0.930 . S
H1393 C1341 0.929 . S
H1394 C1346 0.929 . S
H1395 C1347 0.930 . S
H1396 C1354 0.929 . S
H1397 C1355 0.930 . S
H1398 C1356 0.930 . S
H1399 C1357 0.930 . S
H1400 C1359 0.929 . S
H1401 C1360 0.930 . S
H1402 C1361 0.930 . S
H1403 C1362 0.930 . S
H1404 C1366 0.929 . S
H1405 C1368 0.930 . S
H1406 C1374 0.929 . S
H1407 C1375 0.930 . S
Li1408 N1425 1.990 . S
Li1408 O1468 1.956 . S
Li1408 O1469 1.970 . S
Li1408 O1470 1.961 . S
Li1409 N1433 1.990 1_545 S
Li1409 O1468 1.970 . S
Li1409 O1469 1.956 . S
Li1409 O1471 1.961 . S
Li1410 N1455 1.990 . S
Li1410 O1468 1.961 . S
Li1410 O1470 1.956 . S
Li1410 O1471 1.970 . S
Li1411 N1461 1.990 . S
Li1411 O1469 1.961 . S
Li1411 O1470 1.970 . S
Li1411 O1471 1.956 . S
C1412 C1414 1.348 1_545 S
C1412 C1415 1.356 . S
C1412 O1468 1.325 . S
N1413 C1416 1.314 . S
N1413 C1417 1.279 . S
C1414 C1412 1.348 1_565 S
C1414 C1416 1.353 . S
C1414 H1472 0.929 . S
C1415 C1412 1.356 . S
C1415 C1417 1.358 1_545 S
C1415 H1473 0.930 . S
C1416 N1413 1.314 . S
C1416 C1414 1.353 . S
C1416 H1474 0.930 . S
C1417 N1413 1.279 . S
C1417 C1415 1.358 1_565 S
C1417 H1475 0.930 . S
C1418 C1421 1.348 . S
C1418 C1422 1.356 . S
C1418 O1469 1.325 . S
C1419 N1420 1.279 . S
C1419 C1422 1.358 . S
C1419 H1476 0.930 . S
N1420 C1419 1.279 . S
N1420 C1423 1.314 . S
C1421 C1418 1.348 . S
C1421 C1423 1.353 . S
C1421 H1477 0.929 . S
C1422 C1418 1.356 . S
C1422 C1419 1.358 . S
C1422 H1478 0.930 . S
C1423 N1420 1.314 . S
C1423 C1421 1.353 . S
C1423 H1479 0.930 . S
C1424 N1425 1.314 . S
C1424 C1429 1.353 . S
C1424 H1430 0.930 . S
N1425 Li1408 1.990 . S
N1425 C1424 1.314 . S
N1425 C1427 1.279 . S
C1426 C1427 1.358 . S
C1426 C1428 1.356 . S
C1426 H1480 0.930 . S
C1427 N1425 1.279 . S
C1427 C1426 1.358 . S
C1427 H1431 0.930 . S
C1428 C1426 1.356 . S
C1428 C1429 1.348 . S
C1429 C1424 1.353 . S
C1429 C1428 1.348 . S
C1429 H1481 0.929 . S
H1430 C1424 0.930 . S
H1431 C1427 0.930 . S
C1432 N1433 1.314 . S
C1432 C1434 1.353 . S
C1432 H1438 0.930 . S
N1433 Li1409 1.990 1_565 S
N1433 C1432 1.314 . S
N1433 C1436 1.279 . S
C1434 C1432 1.353 . S
C1434 C1437 1.348 . S
C1434 H1482 0.929 . S
C1435 C1436 1.358 . S
C1435 C1437 1.356 . S
C1435 H1483 0.930 . S
C1436 N1433 1.279 . S
C1436 C1435 1.358 . S
C1436 H1439 0.930 . S
C1437 C1434 1.348 . S
C1437 C1435 1.356 . S
H1438 C1432 0.930 . S
H1439 C1436 0.930 . S
C1440 C1442 1.348 . S
C1440 C1443 1.356 . S
C1440 O1470 1.325 . S
N1441 C1444 1.314 . S
N1441 C1445 1.279 . S
C1442 C1440 1.348 . S
C1442 C1444 1.353 . S
C1442 H1484 0.929 . S
C1443 C1440 1.356 . S
C1443 C1445 1.358 . S
C1443 H1485 0.930 . S
C1444 N1441 1.314 . S
C1444 C1442 1.353 . S
C1444 H1486 0.930 . S
C1445 N1441 1.279 . S
C1445 C1443 1.358 . S
C1445 H1487 0.930 . S
C1446 C1447 1.348 . S
C1446 C1448 1.356 . S
C1446 O1471 1.325 . S
C1447 C1446 1.348 . S
C1447 C1449 1.353 . S
C1447 H1488 0.929 . S
C1448 C1446 1.356 . S
C1448 C1450 1.358 . S
C1448 H1489 0.930 . S
C1449 C1447 1.353 . S
C1449 N1451 1.314 . S
C1449 H1490 0.930 . S
C1450 C1448 1.358 . S
C1450 N1451 1.279 . S
C1450 H1491 0.930 . S
N1451 C1449 1.314 . S
N1451 C1450 1.279 . S
C1452 C1454 1.353 . S
C1452 N1455 1.314 . S
C1452 H1458 0.930 . S
C1453 N1455 1.279 . S
C1453 C1456 1.358 . S
C1453 H1459 0.930 . S
C1454 C1452 1.353 . S
C1454 C1457 1.348 . S
C1454 H1492 0.929 . S
N1455 Li1410 1.990 . S
N1455 C1452 1.314 . S
N1455 C1453 1.279 . S
C1456 C1453 1.358 . S
C1456 C1457 1.356 . S
C1456 H1493 0.930 . S
C1457 C1454 1.348 . S
C1457 C1456 1.356 . S
H1458 C1452 0.930 . S
H1459 C1453 0.930 . S
C1460 N1461 1.314 . S
C1460 C1462 1.353 . S
C1460 H1466 0.930 . S
N1461 Li1411 1.990 . S
N1461 C1460 1.314 . S
N1461 C1464 1.279 . S
C1462 C1460 1.353 . S
C1462 C1465 1.348 . S
C1462 H1494 0.929 . S
C1463 C1464 1.358 . S
C1463 C1465 1.356 . S
C1463 H1495 0.930 . S
C1464 N1461 1.279 . S
C1464 C1463 1.358 . S
C1464 H1467 0.930 . S
C1465 C1462 1.348 . S
C1465 C1463 1.356 . S
H1466 C1460 0.930 . S
H1467 C1464 0.930 . S
O1468 Li1408 1.956 . S
O1468 Li1409 1.970 . S
O1468 Li1410 1.961 . S
O1468 C1412 1.325 . S
O1469 Li1408 1.970 . S
O1469 Li1409 1.956 . S
O1469 Li1411 1.961 . S
O1469 C1418 1.325 . S
O1470 Li1408 1.961 . S
O1470 Li1410 1.956 . S
O1470 Li1411 1.970 . S
O1470 C1440 1.325 . S
O1471 Li1409 1.961 . S
O1471 Li1410 1.970 . S
O1471 Li1411 1.956 . S
O1471 C1446 1.325 . S
H1472 C1414 0.929 . S
H1473 C1415 0.930 . S
H1474 C1416 0.930 . S
H1475 C1417 0.930 . S
H1476 C1419 0.930 . S
H1477 C1421 0.929 . S
H1478 C1422 0.930 . S
H1479 C1423 0.930 . S
H1480 C1426 0.930 . S
H1481 C1429 0.929 . S
H1482 C1434 0.929 . S
H1483 C1435 0.930 . S
H1484 C1442 0.929 . S
H1485 C1443 0.930 . S
H1486 C1444 0.930 . S
H1487 C1445 0.930 . S
H1488 C1447 0.929 . S
H1489 C1448 0.930 . S
H1490 C1449 0.930 . S
H1491 C1450 0.930 . S
H1492 C1454 0.929 . S
H1493 C1456 0.930 . S
H1494 C1462 0.929 . S
H1495 C1463 0.930 . S
Li1496 N1513 1.990 . S
Li1496 O1556 1.956 . S
Li1496 O1557 1.970 . S
Li1496 O1558 1.961 . S
Li1497 N1521 1.990 . S
Li1497 O1556 1.970 . S
Li1497 O1557 1.956 . S
Li1497 O1559 1.961 . S
Li1498 N1543 1.990 . S
Li1498 O1556 1.961 . S
Li1498 O1558 1.956 . S
Li1498 O1559 1.970 . S
Li1499 N1549 1.990 . S
Li1499 O1557 1.961 . S
Li1499 O1558 1.970 . S
Li1499 O1559 1.956 . S
C1500 C1502 1.348 . S
C1500 C1503 1.356 . S
C1500 O1556 1.325 . S
N1501 C1504 1.314 . S
N1501 C1505 1.279 . S
C1502 C1500 1.348 . S
C1502 C1504 1.353 . S
C1502 H1560 0.929 . S
C1503 C1500 1.356 . S
C1503 C1505 1.358 . S
C1503 H1561 0.930 . S
C1504 N1501 1.314 . S
C1504 C1502 1.353 . S
C1504 H1562 0.930 . S
C1505 N1501 1.279 . S
C1505 C1503 1.358 . S
C1505 H1563 0.930 . S
C1506 C1509 1.348 . S
C1506 C1510 1.356 . S
C1506 O1557 1.325 . S
C1507 N1508 1.279 . S
C1507 C1510 1.358 . S
C1507 H1564 0.930 . S
N1508 C1507 1.279 . S
N1508 C1511 1.314 . S
C1509 C1506 1.348 . S
C1509 C1511 1.353 . S
C1509 H1565 0.929 . S
C1510 C1506 1.356 . S
C1510 C1507 1.358 . S
C1510 H1566 0.930 . S
C1511 N1508 1.314 . S
C1511 C1509 1.353 . S
C1511 H1567 0.930 . S
C1512 N1513 1.314 . S
C1512 C1517 1.353 . S
C1512 H1518 0.930 . S
N1513 Li1496 1.990 . S
N1513 C1512 1.314 . S
N1513 C1515 1.279 . S
C1514 C1515 1.358 . S
C1514 C1516 1.356 . S
C1514 H1568 0.930 . S
C1515 N1513 1.279 . S
C1515 C1514 1.358 . S
C1515 H1519 0.930 . S
C1516 C1514 1.356 . S
C1516 C1517 1.348 . S
C1517 C1512 1.353 . S
C1517 C1516 1.348 . S
C1517 H1569 0.929 . S
H1518 C1512 0.930 . S
H1519 C1515 0.930 . S
C1520 N1521 1.314 . S
C1520 C1522 1.353 . S
C1520 H1526 0.930 . S
N1521 Li1497 1.990 . S
N1521 C1520 1.314 . S
N1521 C1524 1.279 . S
C1522 C1520 1.353 . S
C1522 C1525 1.348 . S
C1522 H1570 0.929 . S
C1523 C1524 1.358 . S
C1523 C1525 1.356 . S
C1523 H1571 0.930 . S
C1524 N1521 1.279 . S
C1524 C1523 1.358 . S
C1524 H1527 0.930 . S
C1525 C1522 1.348 . S
C1525 C1523 1.356 . S
H1526 C1520 0.930 . S
H1527 C1524 0.930 . S
C1528 C1530 1.348 . S
C1528 C1531 1.356 . S
C1528 O1558 1.325 . S
N1529 C1532 1.314 . S
N1529 C1533 1.279 . S
C1530 C1528 1.348 . S
C1530 C1532 1.353 . S
C1530 H1572 0.929 . S
C1531 C1528 1.356 . S
C1531 C1533 1.358 . S
C1531 H1573 0.930 . S
C1532 N1529 1.314 . S
C1532 C1530 1.353 . S
C1532 H1574 0.930 . S
C1533 N1529 1.279 . S
C1533 C1531 1.358 . S
C1533 H1575 0.930 . S
C1534 C1535 1.348 . S
C1534 C1536 1.356 . S
C1534 O1559 1.325 . S
C1535 C1534 1.348 . S
C1535 C1537 1.353 . S
C1535 H1576 0.929 . S
C1536 C1534 1.356 . S
C1536 C1538 1.358 . S
C1536 H1577 0.930 . S
C1537 C1535 1.353 . S
C1537 N1539 1.314 . S
C1537 H1578 0.930 . S
C1538 C1536 1.358 . S
C1538 N1539 1.279 . S
C1538 H1579 0.930 . S
N1539 C1537 1.314 . S
N1539 C1538 1.279 . S
C1540 C1542 1.353 . S
C1540 N1543 1.314 . S
C1540 H1546 0.930 . S
C1541 N1543 1.279 . S
C1541 C1544 1.358 . S
C1541 H1547 0.930 . S
C1542 C1540 1.353 . S
C1542 C1545 1.348 . S
C1542 H1580 0.929 . S
N1543 Li1498 1.990 . S
N1543 C1540 1.314 . S
N1543 C1541 1.279 . S
C1544 C1541 1.358 . S
C1544 C1545 1.356 . S
C1544 H1581 0.930 . S
C1545 C1542 1.348 . S
C1545 C1544 1.356 . S
H1546 C1540 0.930 . S
H1547 C1541 0.930 . S
C1548 N1549 1.314 . S
C1548 C1550 1.353 . S
C1548 H1554 0.930 . S
N1549 Li1499 1.990 . S
N1549 C1548 1.314 . S
N1549 C1552 1.279 . S
C1550 C1548 1.353 . S
C1550 C1553 1.348 . S
C1550 H1582 0.929 . S
C1551 C1552 1.358 . S
C1551 C1553 1.356 . S
C1551 H1583 0.930 . S
C1552 N1549 1.279 . S
C1552 C1551 1.358 . S
C1552 H1555 0.930 . S
C1553 C1550 1.348 . S
C1553 C1551 1.356 . S
H1554 C1548 0.930 . S
H1555 C1552 0.930 . S
O1556 Li1496 1.956 . S
O1556 Li1497 1.970 . S
O1556 Li1498 1.961 . S
O1556 C1500 1.325 . S
O1557 Li1496 1.970 . S
O1557 Li1497 1.956 . S
O1557 Li1499 1.961 . S
O1557 C1506 1.325 . S
O1558 Li1496 1.961 . S
O1558 Li1498 1.956 . S
O1558 Li1499 1.970 . S
O1558 C1528 1.325 . S
O1559 Li1497 1.961 . S
O1559 Li1498 1.970 . S
O1559 Li1499 1.956 . S
O1559 C1534 1.325 . S
H1560 C1502 0.929 . S
H1561 C1503 0.930 . S
H1562 C1504 0.930 . S
H1563 C1505 0.930 . S
H1564 C1507 0.930 . S
H1565 C1509 0.929 . S
H1566 C1510 0.930 . S
H1567 C1511 0.930 . S
H1568 C1514 0.930 . S
H1569 C1517 0.929 . S
H1570 C1522 0.929 . S
H1571 C1523 0.930 . S
H1572 C1530 0.929 . S
H1573 C1531 0.930 . S
H1574 C1532 0.930 . S
H1575 C1533 0.930 . S
H1576 C1535 0.929 . S
H1577 C1536 0.930 . S
H1578 C1537 0.930 . S
H1579 C1538 0.930 . S
H1580 C1542 0.929 . S
H1581 C1544 0.930 . S
H1582 C1550 0.929 . S
H1583 C1551 0.930 . S
Li1584 N1601 1.990 . S
Li1584 O1644 1.956 . S
Li1584 O1645 1.970 . S
Li1584 O1646 1.961 . S
Li1585 N1609 1.990 . S
Li1585 O1644 1.970 . S
Li1585 O1645 1.956 . S
Li1585 O1647 1.961 . S
Li1586 N1631 1.990 . S
Li1586 O1644 1.961 . S
Li1586 O1646 1.956 . S
Li1586 O1647 1.970 . S
Li1587 N1637 1.990 . S
Li1587 O1645 1.961 . S
Li1587 O1646 1.970 . S
Li1587 O1647 1.956 . S
C1588 C1590 1.348 . S
C1588 C1591 1.356 . S
C1588 O1644 1.325 . S
N1589 C1592 1.314 . S
N1589 C1593 1.279 . S
C1590 C1588 1.348 . S
C1590 C1592 1.353 . S
C1590 H1648 0.929 . S
C1591 C1588 1.356 . S
C1591 C1593 1.358 . S
C1591 H1649 0.930 . S
C1592 N1589 1.314 . S
C1592 C1590 1.353 . S
C1592 H1650 0.930 . S
C1593 N1589 1.279 . S
C1593 C1591 1.358 . S
C1593 H1651 0.930 . S
C1594 C1597 1.348 . S
C1594 C1598 1.356 . S
C1594 O1645 1.325 . S
C1595 N1596 1.279 . S
C1595 C1598 1.358 . S
C1595 H1652 0.930 . S
N1596 C1595 1.279 . S
N1596 C1599 1.314 . S
C1597 C1594 1.348 . S
C1597 C1599 1.353 . S
C1597 H1653 0.929 . S
C1598 C1594 1.356 . S
C1598 C1595 1.358 . S
C1598 H1654 0.930 . S
C1599 N1596 1.314 . S
C1599 C1597 1.353 . S
C1599 H1655 0.930 . S
C1600 N1601 1.314 . S
C1600 C1605 1.353 . S
C1600 H1606 0.930 . S
N1601 Li1584 1.990 . S
N1601 C1600 1.314 . S
N1601 C1603 1.279 . S
C1602 C1603 1.358 . S
C1602 C1604 1.356 . S
C1602 H1656 0.930 . S
C1603 N1601 1.279 . S
C1603 C1602 1.358 . S
C1603 H1607 0.930 . S
C1604 C1602 1.356 . S
C1604 C1605 1.348 . S
C1605 C1600 1.353 . S
C1605 C1604 1.348 . S
C1605 H1657 0.929 . S
H1606 C1600 0.930 . S
H1607 C1603 0.930 . S
C1608 N1609 1.314 . S
C1608 C1610 1.353 . S
C1608 H1614 0.930 . S
N1609 Li1585 1.990 . S
N1609 C1608 1.314 . S
N1609 C1612 1.279 . S
C1610 C1608 1.353 . S
C1610 C1613 1.348 . S
C1610 H1658 0.929 . S
C1611 C1612 1.358 . S
C1611 C1613 1.356 . S
C1611 H1659 0.930 . S
C1612 N1609 1.279 . S
C1612 C1611 1.358 . S
C1612 H1615 0.930 . S
C1613 C1610 1.348 . S
C1613 C1611 1.356 . S
H1614 C1608 0.930 . S
H1615 C1612 0.930 . S
C1616 C1618 1.348 . S
C1616 C1619 1.356 . S
C1616 O1646 1.325 . S
N1617 C1620 1.314 . S
N1617 C1621 1.279 . S
C1618 C1616 1.348 . S
C1618 C1620 1.353 . S
C1618 H1660 0.929 . S
C1619 C1616 1.356 . S
C1619 C1621 1.358 . S
C1619 H1661 0.930 . S
C1620 N1617 1.314 . S
C1620 C1618 1.353 . S
C1620 H1662 0.930 . S
C1621 N1617 1.279 . S
C1621 C1619 1.358 . S
C1621 H1663 0.930 . S
C1622 C1623 1.348 . S
C1622 C1624 1.356 . S
C1622 O1647 1.325 . S
C1623 C1622 1.348 . S
C1623 C1625 1.353 . S
C1623 H1664 0.929 . S
C1624 C1622 1.356 . S
C1624 C1626 1.358 . S
C1624 H1665 0.930 . S
C1625 C1623 1.353 . S
C1625 N1627 1.314 . S
C1625 H1666 0.930 . S
C1626 C1624 1.358 . S
C1626 N1627 1.279 . S
C1626 H1667 0.930 . S
N1627 C1625 1.314 . S
N1627 C1626 1.279 . S
C1628 C1630 1.353 . S
C1628 N1631 1.314 . S
C1628 H1634 0.930 . S
C1629 N1631 1.279 . S
C1629 C1632 1.358 . S
C1629 H1635 0.930 . S
C1630 C1628 1.353 . S
C1630 C1633 1.348 . S
C1630 H1668 0.929 . S
N1631 Li1586 1.990 . S
N1631 C1628 1.314 . S
N1631 C1629 1.279 . S
C1632 C1629 1.358 . S
C1632 C1633 1.356 . S
C1632 H1669 0.930 . S
C1633 C1630 1.348 . S
C1633 C1632 1.356 . S
H1634 C1628 0.930 . S
H1635 C1629 0.930 . S
C1636 N1637 1.314 . S
C1636 C1638 1.353 . S
C1636 H1642 0.930 . S
N1637 Li1587 1.990 . S
N1637 C1636 1.314 . S
N1637 C1640 1.279 . S
C1638 C1636 1.353 . S
C1638 C1641 1.348 . S
C1638 H1670 0.929 . S
C1639 C1640 1.358 . S
C1639 C1641 1.356 . S
C1639 H1671 0.930 . S
C1640 N1637 1.279 . S
C1640 C1639 1.358 . S
C1640 H1643 0.930 . S
C1641 C1638 1.348 . S
C1641 C1639 1.356 . S
H1642 C1636 0.930 . S
H1643 C1640 0.930 . S
O1644 Li1584 1.956 . S
O1644 Li1585 1.970 . S
O1644 Li1586 1.961 . S
O1644 C1588 1.325 . S
O1645 Li1584 1.970 . S
O1645 Li1585 1.956 . S
O1645 Li1587 1.961 . S
O1645 C1594 1.325 . S
O1646 Li1584 1.961 . S
O1646 Li1586 1.956 . S
O1646 Li1587 1.970 . S
O1646 C1616 1.325 . S
O1647 Li1585 1.961 . S
O1647 Li1586 1.970 . S
O1647 Li1587 1.956 . S
O1647 C1622 1.325 . S
H1648 C1590 0.929 . S
H1649 C1591 0.930 . S
H1650 C1592 0.930 . S
H1651 C1593 0.930 . S
H1652 C1595 0.930 . S
H1653 C1597 0.929 . S
H1654 C1598 0.930 . S
H1655 C1599 0.930 . S
H1656 C1602 0.930 . S
H1657 C1605 0.929 . S
H1658 C1610 0.929 . S
H1659 C1611 0.930 . S
H1660 C1618 0.929 . S
H1661 C1619 0.930 . S
H1662 C1620 0.930 . S
H1663 C1621 0.930 . S
H1664 C1623 0.929 . S
H1665 C1624 0.930 . S
H1666 C1625 0.930 . S
H1667 C1626 0.930 . S
H1668 C1630 0.929 . S
H1669 C1632 0.930 . S
H1670 C1638 0.929 . S
H1671 C1639 0.930 . S
Li1672 N1689 1.990 . S
Li1672 O1732 1.956 . S
Li1672 O1733 1.970 . S
Li1672 O1734 1.961 . S
Li1673 N1697 1.990 . S
Li1673 O1732 1.970 . S
Li1673 O1733 1.956 . S
Li1673 O1735 1.961 . S
Li1674 N1719 1.990 . S
Li1674 O1732 1.961 . S
Li1674 O1734 1.956 . S
Li1674 O1735 1.970 . S
Li1675 N1725 1.990 . S
Li1675 O1733 1.961 . S
Li1675 O1734 1.970 . S
Li1675 O1735 1.956 . S
C1676 C1678 1.348 . S
C1676 C1679 1.356 . S
C1676 O1732 1.325 . S
N1677 C1680 1.314 . S
N1677 C1681 1.279 . S
C1678 C1676 1.348 . S
C1678 C1680 1.353 . S
C1678 H1736 0.929 . S
C1679 C1676 1.356 . S
C1679 C1681 1.358 . S
C1679 H1737 0.930 . S
C1680 N1677 1.314 . S
C1680 C1678 1.353 . S
C1680 H1738 0.930 . S
C1681 N1677 1.279 . S
C1681 C1679 1.358 . S
C1681 H1739 0.930 . S
C1682 C1685 1.348 . S
C1682 C1686 1.356 . S
C1682 O1733 1.325 . S
C1683 N1684 1.279 . S
C1683 C1686 1.358 . S
C1683 H1740 0.930 . S
N1684 C1683 1.279 . S
N1684 C1687 1.314 . S
C1685 C1682 1.348 . S
C1685 C1687 1.353 . S
C1685 H1741 0.929 . S
C1686 C1682 1.356 . S
C1686 C1683 1.358 . S
C1686 H1742 0.930 . S
C1687 N1684 1.314 . S
C1687 C1685 1.353 . S
C1687 H1743 0.930 . S
C1688 N1689 1.314 . S
C1688 C1693 1.353 . S
C1688 H1694 0.930 . S
N1689 Li1672 1.990 . S
N1689 C1688 1.314 . S
N1689 C1691 1.279 . S
C1690 C1691 1.358 . S
C1690 C1692 1.356 . S
C1690 H1744 0.930 . S
C1691 N1689 1.279 . S
C1691 C1690 1.358 . S
C1691 H1695 0.930 . S
C1692 C1690 1.356 . S
C1692 C1693 1.348 . S
C1693 C1688 1.353 . S
C1693 C1692 1.348 . S
C1693 H1745 0.929 . S
H1694 C1688 0.930 . S
H1695 C1691 0.930 . S
C1696 N1697 1.314 . S
C1696 C1698 1.353 . S
C1696 H1702 0.930 . S
N1697 Li1673 1.990 . S
N1697 C1696 1.314 . S
N1697 C1700 1.279 . S
C1698 C1696 1.353 . S
C1698 C1701 1.348 . S
C1698 H1746 0.929 . S
C1699 C1700 1.358 . S
C1699 C1701 1.356 . S
C1699 H1747 0.930 . S
C1700 N1697 1.279 . S
C1700 C1699 1.358 . S
C1700 H1703 0.930 . S
C1701 C1698 1.348 . S
C1701 C1699 1.356 . S
H1702 C1696 0.930 . S
H1703 C1700 0.930 . S
C1704 C1706 1.348 . S
C1704 C1707 1.356 . S
C1704 O1734 1.325 . S
N1705 C1708 1.314 . S
N1705 C1709 1.279 1_565 S
C1706 C1704 1.348 . S
C1706 C1708 1.353 1_545 S
C1706 H1748 0.929 . S
C1707 C1704 1.356 . S
C1707 C1709 1.358 . S
C1707 H1749 0.930 . S
C1708 N1705 1.314 . S
C1708 C1706 1.353 1_565 S
C1708 H1750 0.930 . S
C1709 N1705 1.279 1_545 S
C1709 C1707 1.358 . S
C1709 H1751 0.921 . S
C1710 C1711 1.348 . S
C1710 C1712 1.356 . S
C1710 O1735 1.325 . S
C1711 C1710 1.348 . S
C1711 C1713 1.353 . S
C1711 H1752 0.929 . S
C1712 C1710 1.356 . S
C1712 C1714 1.358 . S
C1712 H1753 0.930 . S
C1713 C1711 1.353 . S
C1713 N1715 1.314 . S
C1713 H1754 0.930 . S
C1714 C1712 1.358 . S
C1714 N1715 1.279 . S
C1714 H1755 0.930 . S
N1715 C1713 1.314 . S
N1715 C1714 1.279 . S
C1716 C1718 1.353 . S
C1716 N1719 1.314 . S
C1716 H1722 0.930 . S
C1717 N1719 1.279 . S
C1717 C1720 1.358 . S
C1717 H1723 0.930 . S
C1718 C1716 1.353 . S
C1718 C1721 1.348 . S
C1718 H1756 0.929 . S
N1719 Li1674 1.990 . S
N1719 C1716 1.314 . S
N1719 C1717 1.279 . S
C1720 C1717 1.358 . S
C1720 C1721 1.356 . S
C1720 H1757 0.930 . S
C1721 C1718 1.348 . S
C1721 C1720 1.356 . S
H1722 C1716 0.930 . S
H1723 C1717 0.930 . S
C1724 N1725 1.314 . S
C1724 C1726 1.353 . S
C1724 H1730 0.930 . S
N1725 Li1675 1.990 . S
N1725 C1724 1.314 . S
N1725 C1728 1.279 . S
C1726 C1724 1.353 . S
C1726 C1729 1.348 1_545 S
C1726 H1758 0.929 1_545 S
C1727 C1728 1.358 . S
C1727 C1729 1.356 1_545 S
C1727 H1759 0.930 . S
C1728 N1725 1.279 . S
C1728 C1727 1.358 . S
C1728 H1731 0.930 . S
C1729 C1726 1.348 1_565 S
C1729 C1727 1.356 1_565 S
H1730 C1724 0.930 . S
H1731 C1728 0.930 . S
O1732 Li1672 1.956 . S
O1732 Li1673 1.970 . S
O1732 Li1674 1.961 . S
O1732 C1676 1.325 . S
O1733 Li1672 1.970 . S
O1733 Li1673 1.956 . S
O1733 Li1675 1.961 . S
O1733 C1682 1.325 . S
O1734 Li1672 1.961 . S
O1734 Li1674 1.956 . S
O1734 Li1675 1.970 . S
O1734 C1704 1.325 . S
O1735 Li1673 1.961 . S
O1735 Li1674 1.970 . S
O1735 Li1675 1.956 . S
O1735 C1710 1.325 . S
H1736 C1678 0.929 . S
H1737 C1679 0.930 . S
H1738 C1680 0.930 . S
H1739 C1681 0.930 . S
H1740 C1683 0.930 . S
H1741 C1685 0.929 . S
H1742 C1686 0.930 . S
H1743 C1687 0.930 . S
H1744 C1690 0.930 . S
H1745 C1693 0.929 . S
H1746 C1698 0.929 . S
H1747 C1699 0.930 . S
H1748 C1706 0.929 . S
H1749 C1707 0.930 . S
H1750 C1708 0.930 . S
H1751 C1709 0.921 . S
H1752 C1711 0.929 . S
H1753 C1712 0.930 . S
H1754 C1713 0.930 . S
H1755 C1714 0.930 . S
H1756 C1718 0.929 . S
H1757 C1720 0.930 . S
H1758 C1726 0.929 1_565 S
H1759 C1727 0.930 . S
Li1760 N1777 1.990 . S
Li1760 O1820 1.956 . S
Li1760 O1821 1.970 . S
Li1760 O1822 1.961 . S
Li1761 N1785 1.990 . S
Li1761 O1820 1.970 . S
Li1761 O1821 1.956 . S
Li1761 O1823 1.961 1_554 S
Li1762 N1807 2.026 . S
Li1762 O1820 1.934 1_556 S
Li1762 O1822 1.925 1_556 S
Li1762 O1823 1.972 . S
Li1763 N1813 1.990 . S
Li1763 O1821 1.961 . S
Li1763 O1822 1.970 . S
Li1763 O1823 1.956 1_554 S
C1764 C1766 1.348 . S
C1764 C1767 1.356 . S
C1764 O1820 1.325 . S
N1765 C1768 1.314 . S
N1765 C1769 1.279 . S
C1766 C1764 1.348 . S
C1766 C1768 1.353 . S
C1766 H1824 0.929 . S
C1767 C1764 1.356 . S
C1767 C1769 1.358 . S
C1767 H1825 0.930 . S
C1768 N1765 1.314 . S
C1768 C1766 1.353 . S
C1768 H1826 0.930 . S
C1769 N1765 1.279 . S
C1769 C1767 1.358 . S
C1769 H1827 0.930 . S
C1770 C1773 1.348 . S
C1770 C1774 1.356 . S
C1770 O1821 1.325 . S
C1771 N1772 1.279 . S
C1771 C1774 1.358 . S
C1771 H1828 0.930 . S
N1772 C1771 1.279 . S
N1772 C1775 1.314 . S
C1773 C1770 1.348 . S
C1773 C1775 1.353 . S
C1773 H1829 0.929 . S
C1774 C1770 1.356 . S
C1774 C1771 1.358 . S
C1774 H1830 0.930 . S
C1775 N1772 1.314 . S
C1775 C1773 1.353 . S
C1775 H1831 0.930 . S
C1776 N1777 1.314 . S
C1776 C1781 1.353 . S
C1776 H1782 0.930 . S
N1777 Li1760 1.990 . S
N1777 C1776 1.314 . S
N1777 C1779 1.279 . S
C1778 C1779 1.358 . S
C1778 C1780 1.356 . S
C1778 H1832 0.930 . S
C1779 N1777 1.279 . S
C1779 C1778 1.358 . S
C1779 H1783 0.930 . S
C1780 C1778 1.356 . S
C1780 C1781 1.348 . S
C1781 C1776 1.353 . S
C1781 C1780 1.348 . S
C1781 H1833 0.929 . S
H1782 C1776 0.930 . S
H1783 C1779 0.930 . S
C1784 N1785 1.314 . S
C1784 C1786 1.353 . S
C1784 H1790 0.930 1_554 S
N1785 Li1761 1.990 . S
N1785 C1784 1.314 . S
N1785 C1788 1.279 . S
C1786 C1784 1.353 . S
C1786 C1789 1.348 . S
C1786 H1834 0.929 1_554 S
C1787 C1788 1.358 . S
C1787 C1789 1.356 . S
C1787 H1835 0.930 . S
C1788 N1785 1.279 . S
C1788 C1787 1.358 . S
C1788 H1791 0.930 . S
C1789 C1786 1.348 . S
C1789 C1787 1.356 . S
H1790 C1784 0.930 1_556 S
H1791 C1788 0.930 . S
C1792 C1794 1.348 . S
C1792 C1795 1.356 . S
C1792 O1822 1.325 . S
N1793 C1796 1.314 . S
N1793 C1797 1.279 . S
C1794 C1792 1.348 . S
C1794 C1796 1.353 . S
C1794 H1836 0.929 . S
C1795 C1792 1.356 . S
C1795 C1797 1.358 . S
C1795 H1837 0.930 . S
C1796 N1793 1.314 . S
C1796 C1794 1.353 . S
C1796 H1838 0.930 . S
C1797 N1793 1.279 . S
C1797 C1795 1.358 . S
C1797 H1839 0.930 . S
C1798 C1799 1.348 . S
C1798 C1800 1.356 . S
C1798 O1823 1.325 . S
C1799 C1798 1.348 . S
C1799 C1801 1.353 . S
C1799 H1840 0.929 . S
C1800 C1798 1.356 . S
C1800 C1802 1.358 . S
C1800 H1841 0.930 . S
C1801 C1799 1.353 . S
C1801 N1803 1.314 . S
C1801 H1842 0.930 . S
C1802 C1800 1.358 . S
C1802 N1803 1.279 . S
C1802 H1843 0.930 . S
N1803 C1801 1.314 . S
N1803 C1802 1.279 . S
C1804 C1806 1.353 . S
C1804 N1807 1.314 . S
C1804 H1810 0.930 . S
C1805 N1807 1.279 . S
C1805 C1808 1.358 . S
C1805 H1811 0.930 . S
C1806 C1804 1.353 . S
C1806 C1809 1.348 . S
C1806 H1844 0.929 . S
N1807 Li1762 2.026 . S
N1807 C1804 1.314 . S
N1807 C1805 1.279 . S
C1808 C1805 1.358 . S
C1808 C1809 1.356 . S
C1808 H1845 0.930 . S
C1809 C1806 1.348 . S
C1809 C1808 1.356 . S
H1810 C1804 0.930 . S
H1811 C1805 0.930 . S
C1812 N1813 1.314 . S
C1812 C1814 1.353 . S
C1812 H1818 0.930 . S
N1813 Li1763 1.990 . S
N1813 C1812 1.314 . S
N1813 C1816 1.279 1_554 S
C1814 C1812 1.353 . S
C1814 C1817 1.348 . S
C1814 H1846 0.929 . S
C1815 C1816 1.358 . S
C1815 C1817 1.356 1_556 S
C1815 H1847 0.930 . S
C1816 N1813 1.279 1_556 S
C1816 C1815 1.358 . S
C1816 H1819 0.930 . S
C1817 C1814 1.348 . S
C1817 C1815 1.356 1_554 S
H1818 C1812 0.930 . S
H1819 C1816 0.930 . S
O1820 Li1760 1.956 . S
O1820 Li1761 1.970 . S
O1820 Li1762 1.934 1_554 S
O1820 C1764 1.325 . S
O1821 Li1760 1.970 . S
O1821 Li1761 1.956 . S
O1821 Li1763 1.961 . S
O1821 C1770 1.325 . S
O1822 Li1760 1.961 . S
O1822 Li1762 1.925 1_554 S
O1822 Li1763 1.970 . S
O1822 C1792 1.325 . S
O1823 Li1761 1.961 1_556 S
O1823 Li1762 1.972 . S
O1823 Li1763 1.956 1_556 S
O1823 C1798 1.325 . S
H1824 C1766 0.929 . S
H1825 C1767 0.930 . S
H1826 C1768 0.930 . S
H1827 C1769 0.930 . S
H1828 C1771 0.930 . S
H1829 C1773 0.929 . S
H1830 C1774 0.930 . S
H1831 C1775 0.930 . S
H1832 C1778 0.930 . S
H1833 C1781 0.929 . S
H1834 C1786 0.929 1_556 S
H1835 C1787 0.930 . S
H1836 C1794 0.929 . S
H1837 C1795 0.930 . S
H1838 C1796 0.930 . S
H1839 C1797 0.930 . S
H1840 C1799 0.929 . S
H1841 C1800 0.930 . S
H1842 C1801 0.930 . S
H1843 C1802 0.930 . S
H1844 C1806 0.929 . S
H1845 C1808 0.930 . S
H1846 C1814 0.929 . S
H1847 C1815 0.930 . S
Li1848 N1865 1.990 . S
Li1848 O1908 1.956 . S
Li1848 O1909 1.970 . S
Li1848 O1910 1.961 . S
Li1849 N1873 1.990 . S
Li1849 O1908 1.970 . S
Li1849 O1909 1.956 . S
Li1849 O1911 1.961 . S
Li1850 N1895 1.990 . S
Li1850 O1908 1.961 . S
Li1850 O1910 1.956 . S
Li1850 O1911 1.970 . S
Li1851 N1901 1.990 . S
Li1851 O1909 1.961 . S
Li1851 O1910 1.970 . S
Li1851 O1911 1.956 . S
C1852 C1854 1.348 . S
C1852 C1855 1.356 . S
C1852 O1908 1.325 . S
N1853 C1856 1.314 . S
N1853 C1857 1.279 . S
C1854 C1852 1.348 . S
C1854 C1856 1.353 . S
C1854 H1912 0.929 . S
C1855 C1852 1.356 . S
C1855 C1857 1.358 . S
C1855 H1913 0.930 . S
C1856 N1853 1.314 . S
C1856 C1854 1.353 . S
C1856 H1914 0.930 . S
C1857 N1853 1.279 . S
C1857 C1855 1.358 . S
C1857 H1915 0.930 . S
C1858 C1861 1.348 . S
C1858 C1862 1.356 . S
C1858 O1909 1.325 . S
C1859 N1860 1.279 . S
C1859 C1862 1.358 . S
C1859 H1916 0.930 . S
N1860 C1859 1.279 . S
N1860 C1863 1.314 . S
C1861 C1858 1.348 . S
C1861 C1863 1.353 . S
C1861 H1917 0.929 . S
C1862 C1858 1.356 . S
C1862 C1859 1.358 . S
C1862 H1918 0.930 . S
C1863 N1860 1.314 . S
C1863 C1861 1.353 . S
C1863 H1919 0.930 . S
C1864 N1865 1.314 . S
C1864 C1869 1.353 . S
C1864 H1870 0.930 . S
N1865 Li1848 1.990 . S
N1865 C1864 1.314 . S
N1865 C1867 1.279 . S
C1866 C1867 1.358 . S
C1866 C1868 1.356 . S
C1866 H1920 0.930 . S
C1867 N1865 1.279 . S
C1867 C1866 1.358 . S
C1867 H1871 0.930 . S
C1868 C1866 1.356 . S
C1868 C1869 1.348 . S
C1869 C1864 1.353 . S
C1869 C1868 1.348 . S
C1869 H1921 0.929 . S
H1870 C1864 0.930 . S
H1871 C1867 0.930 . S
C1872 N1873 1.314 . S
C1872 C1874 1.353 . S
C1872 H1878 0.930 . S
N1873 Li1849 1.990 . S
N1873 C1872 1.314 . S
N1873 C1876 1.279 . S
C1874 C1872 1.353 . S
C1874 C1877 1.348 . S
C1874 H1922 0.929 . S
C1875 C1876 1.358 . S
C1875 C1877 1.356 . S
C1875 H1923 0.930 . S
C1876 N1873 1.279 . S
C1876 C1875 1.358 . S
C1876 H1879 0.930 . S
C1877 C1874 1.348 . S
C1877 C1875 1.356 . S
H1878 C1872 0.930 . S
H1879 C1876 0.930 . S
C1880 C1882 1.348 . S
C1880 C1883 1.356 . S
C1880 O1910 1.325 . S
N1881 C1884 1.314 . S
N1881 C1885 1.279 . S
C1882 C1880 1.348 . S
C1882 C1884 1.353 . S
C1882 H1924 0.929 . S
C1883 C1880 1.356 . S
C1883 C1885 1.358 . S
C1883 H1925 0.930 . S
C1884 N1881 1.314 . S
C1884 C1882 1.353 . S
C1884 H1926 0.930 . S
C1885 N1881 1.279 . S
C1885 C1883 1.358 . S
C1885 H1927 0.930 . S
C1886 C1887 1.348 . S
C1886 C1888 1.356 . S
C1886 O1911 1.325 . S
C1887 C1886 1.348 . S
C1887 C1889 1.353 . S
C1887 H1928 0.929 . S
C1888 C1886 1.356 . S
C1888 C1890 1.358 . S
C1888 H1929 0.930 . S
C1889 C1887 1.353 . S
C1889 N1891 1.314 . S
C1889 H1930 0.930 . S
C1890 C1888 1.358 . S
C1890 N1891 1.279 . S
C1890 H1931 0.930 . S
N1891 C1889 1.314 . S
N1891 C1890 1.279 . S
C1892 C1894 1.353 . S
C1892 N1895 1.314 . S
C1892 H1898 0.930 . S
C1893 N1895 1.279 . S
C1893 C1896 1.358 . S
C1893 H1899 0.930 . S
C1894 C1892 1.353 . S
C1894 C1897 1.348 . S
C1894 H1932 0.929 . S
N1895 Li1850 1.990 . S
N1895 C1892 1.314 . S
N1895 C1893 1.279 . S
C1896 C1893 1.358 . S
C1896 C1897 1.356 . S
C1896 H1933 0.930 . S
C1897 C1894 1.348 . S
C1897 C1896 1.356 . S
H1898 C1892 0.930 . S
H1899 C1893 0.930 . S
C1900 N1901 1.314 . S
C1900 C1902 1.353 . S
C1900 H1906 0.930 . S
N1901 Li1851 1.990 . S
N1901 C1900 1.314 . S
N1901 C1904 1.279 . S
C1902 C1900 1.353 . S
C1902 C1905 1.348 . S
C1902 H1934 0.929 . S
C1903 C1904 1.358 . S
C1903 C1905 1.356 . S
C1903 H1935 0.930 . S
C1904 N1901 1.279 . S
C1904 C1903 1.358 . S
C1904 H1907 0.930 . S
C1905 C1902 1.348 . S
C1905 C1903 1.356 . S
H1906 C1900 0.930 . S
H1907 C1904 0.930 . S
O1908 Li1848 1.956 . S
O1908 Li1849 1.970 . S
O1908 Li1850 1.961 . S
O1908 C1852 1.325 . S
O1909 Li1848 1.970 . S
O1909 Li1849 1.956 . S
O1909 Li1851 1.961 . S
O1909 C1858 1.325 . S
O1910 Li1848 1.961 . S
O1910 Li1850 1.956 . S
O1910 Li1851 1.970 . S
O1910 C1880 1.325 . S
O1911 Li1849 1.961 . S
O1911 Li1850 1.970 . S
O1911 Li1851 1.956 . S
O1911 C1886 1.325 . S
H1912 C1854 0.929 . S
H1913 C1855 0.930 . S
H1914 C1856 0.930 . S
H1915 C1857 0.930 . S
H1916 C1859 0.930 . S
H1917 C1861 0.929 . S
H1918 C1862 0.930 . S
H1919 C1863 0.930 . S
H1920 C1866 0.930 . S
H1921 C1869 0.929 . S
H1922 C1874 0.929 . S
H1923 C1875 0.930 . S
H1924 C1882 0.929 . S
H1925 C1883 0.930 . S
H1926 C1884 0.930 . S
H1927 C1885 0.930 . S
H1928 C1887 0.929 . S
H1929 C1888 0.930 . S
H1930 C1889 0.930 . S
H1931 C1890 0.930 . S
H1932 C1894 0.929 . S
H1933 C1896 0.930 . S
H1934 C1902 0.929 . S
H1935 C1903 0.930 . S
Li1936 N1953 1.990 . S
Li1936 O1996 1.956 . S
Li1936 O1997 1.970 . S
Li1936 O1998 1.961 . S
Li1937 N1961 1.990 . S
Li1937 O1996 1.970 . S
Li1937 O1997 1.956 . S
Li1937 O1999 1.961 . S
Li1938 N1983 1.990 . S
Li1938 O1996 1.961 . S
Li1938 O1998 1.956 . S
Li1938 O1999 1.970 . S
Li1939 N1989 1.990 . S
Li1939 O1997 1.961 . S
Li1939 O1998 1.970 . S
Li1939 O1999 1.956 . S
C1940 C1942 1.348 . S
C1940 C1943 1.356 . S
C1940 O1996 1.325 . S
N1941 C1944 1.314 . S
N1941 C1945 1.279 . S
C1942 C1940 1.348 . S
C1942 C1944 1.353 . S
C1942 H2000 0.929 . S
C1943 C1940 1.356 . S
C1943 C1945 1.358 . S
C1943 H2001 0.930 . S
C1944 N1941 1.314 . S
C1944 C1942 1.353 . S
C1944 H2002 0.930 . S
C1945 N1941 1.279 . S
C1945 C1943 1.358 . S
C1945 H2003 0.930 . S
C1946 C1949 1.348 . S
C1946 C1950 1.356 . S
C1946 O1997 1.325 . S
C1947 N1948 1.279 . S
C1947 C1950 1.358 . S
C1947 H2004 0.930 . S
N1948 C1947 1.279 . S
N1948 C1951 1.314 . S
C1949 C1946 1.348 . S
C1949 C1951 1.353 . S
C1949 H2005 0.929 . S
C1950 C1946 1.356 . S
C1950 C1947 1.358 . S
C1950 H2006 0.930 . S
C1951 N1948 1.314 . S
C1951 C1949 1.353 . S
C1951 H2007 0.930 . S
C1952 N1953 1.314 . S
C1952 C1957 1.353 . S
C1952 H1958 0.930 . S
N1953 Li1936 1.990 . S
N1953 C1952 1.314 . S
N1953 C1955 1.279 . S
C1954 C1955 1.358 . S
C1954 C1956 1.356 . S
C1954 H2008 0.930 . S
C1955 N1953 1.279 . S
C1955 C1954 1.358 . S
C1955 H1959 0.930 . S
C1956 C1954 1.356 . S
C1956 C1957 1.348 . S
C1957 C1952 1.353 . S
C1957 C1956 1.348 . S
C1957 H2009 0.929 . S
H1958 C1952 0.930 . S
H1959 C1955 0.930 . S
C1960 N1961 1.314 . S
C1960 C1962 1.353 . S
C1960 H1966 0.930 . S
N1961 Li1937 1.990 . S
N1961 C1960 1.314 . S
N1961 C1964 1.279 . S
C1962 C1960 1.353 . S
C1962 C1965 1.348 . S
C1962 H2010 0.929 . S
C1963 C1964 1.358 . S
C1963 C1965 1.356 . S
C1963 H2011 0.930 . S
C1964 N1961 1.279 . S
C1964 C1963 1.358 . S
C1964 H1967 0.930 . S
C1965 C1962 1.348 . S
C1965 C1963 1.356 . S
H1966 C1960 0.930 . S
H1967 C1964 0.930 . S
C1968 C1970 1.348 . S
C1968 C1971 1.356 . S
C1968 O1998 1.325 . S
N1969 C1972 1.314 . S
N1969 C1973 1.279 . S
C1970 C1968 1.348 . S
C1970 C1972 1.353 . S
C1970 H2012 0.929 . S
C1971 C1968 1.356 . S
C1971 C1973 1.358 . S
C1971 H2013 0.930 . S
C1972 N1969 1.314 . S
C1972 C1970 1.353 . S
C1972 H2014 0.930 . S
C1973 N1969 1.279 . S
C1973 C1971 1.358 . S
C1973 H2015 0.930 . S
C1974 C1975 1.348 . S
C1974 C1976 1.356 . S
C1974 O1999 1.325 . S
C1975 C1974 1.348 . S
C1975 C1977 1.353 . S
C1975 H2016 0.929 . S
C1976 C1974 1.356 . S
C1976 C1978 1.358 . S
C1976 H2017 0.930 . S
C1977 C1975 1.353 . S
C1977 N1979 1.314 . S
C1977 H2018 0.930 . S
C1978 C1976 1.358 . S
C1978 N1979 1.279 . S
C1978 H2019 0.930 . S
N1979 C1977 1.314 . S
N1979 C1978 1.279 . S
C1980 C1982 1.353 . S
C1980 N1983 1.314 . S
C1980 H1986 0.930 . S
C1981 N1983 1.279 . S
C1981 C1984 1.358 . S
C1981 H1987 0.930 . S
C1982 C1980 1.353 . S
C1982 C1985 1.348 . S
C1982 H2020 0.929 . S
N1983 Li1938 1.990 . S
N1983 C1980 1.314 . S
N1983 C1981 1.279 . S
C1984 C1981 1.358 . S
C1984 C1985 1.356 . S
C1984 H2021 0.930 . S
C1985 C1982 1.348 . S
C1985 C1984 1.356 . S
H1986 C1980 0.930 . S
H1987 C1981 0.930 . S
C1988 N1989 1.314 . S
C1988 C1990 1.353 . S
C1988 H1994 0.930 . S
N1989 Li1939 1.990 . S
N1989 C1988 1.314 . S
N1989 C1992 1.279 . S
C1990 C1988 1.353 . S
C1990 C1993 1.348 . S
C1990 H2022 0.929 . S
C1991 C1992 1.358 . S
C1991 C1993 1.356 . S
C1991 H2023 0.930 . S
C1992 N1989 1.279 . S
C1992 C1991 1.358 . S
C1992 H1995 0.930 . S
C1993 C1990 1.348 . S
C1993 C1991 1.356 . S
H1994 C1988 0.930 . S
H1995 C1992 0.930 . S
O1996 Li1936 1.956 . S
O1996 Li1937 1.970 . S
O1996 Li1938 1.961 . S
O1996 C1940 1.325 . S
O1997 Li1936 1.970 . S
O1997 Li1937 1.956 . S
O1997 Li1939 1.961 . S
O1997 C1946 1.325 . S
O1998 Li1936 1.961 . S
O1998 Li1938 1.956 . S
O1998 Li1939 1.970 . S
O1998 C1968 1.325 . S
O1999 Li1937 1.961 . S
O1999 Li1938 1.970 . S
O1999 Li1939 1.956 . S
O1999 C1974 1.325 . S
H2000 C1942 0.929 . S
H2001 C1943 0.930 . S
H2002 C1944 0.930 . S
H2003 C1945 0.930 . S
H2004 C1947 0.930 . S
H2005 C1949 0.929 . S
H2006 C1950 0.930 . S
H2007 C1951 0.930 . S
H2008 C1954 0.930 . S
H2009 C1957 0.929 . S
H2010 C1962 0.929 . S
H2011 C1963 0.930 . S
H2012 C1970 0.929 . S
H2013 C1971 0.930 . S
H2014 C1972 0.930 . S
H2015 C1973 0.930 . S
H2016 C1975 0.929 . S
H2017 C1976 0.930 . S
H2018 C1977 0.930 . S
H2019 C1978 0.930 . S
H2020 C1982 0.929 . S
H2021 C1984 0.930 . S
H2022 C1990 0.929 . S
H2023 C1991 0.930 . S
Li2024 N2041 1.990 . S
Li2024 O2084 1.956 . S
Li2024 O2085 1.970 . S
Li2024 O2086 1.961 . S
Li2025 N2049 1.990 . S
Li2025 O2084 1.970 . S
Li2025 O2085 1.956 . S
Li2025 O2087 1.961 . S
Li2026 N2071 1.990 . S
Li2026 O2084 1.961 . S
Li2026 O2086 1.956 . S
Li2026 O2087 1.970 . S
Li2027 N2077 1.990 . S
Li2027 O2085 1.961 . S
Li2027 O2086 1.970 . S
Li2027 O2087 1.956 . S
C2028 C2030 1.348 . S
C2028 C2031 1.356 . S
C2028 O2084 1.325 . S
N2029 C2032 1.314 . S
N2029 C2033 1.279 . S
C2030 C2028 1.348 . S
C2030 C2032 1.353 . S
C2030 H2088 0.929 . S
C2031 C2028 1.356 . S
C2031 C2033 1.358 . S
C2031 H2089 0.930 . S
C2032 N2029 1.314 . S
C2032 C2030 1.353 . S
C2032 H2090 0.930 . S
C2033 N2029 1.279 . S
C2033 C2031 1.358 . S
C2033 H2091 0.930 . S
C2034 C2037 1.348 . S
C2034 C2038 1.356 . S
C2034 O2085 1.325 . S
C2035 N2036 1.279 . S
C2035 C2038 1.358 . S
C2035 H2092 0.930 . S
N2036 C2035 1.279 . S
N2036 C2039 1.314 . S
C2037 C2034 1.348 . S
C2037 C2039 1.353 . S
C2037 H2093 0.929 . S
C2038 C2034 1.356 . S
C2038 C2035 1.358 . S
C2038 H2094 0.930 . S
C2039 N2036 1.314 . S
C2039 C2037 1.353 . S
C2039 H2095 0.930 . S
C2040 N2041 1.314 . S
C2040 C2045 1.353 . S
C2040 H2046 0.930 . S
N2041 Li2024 1.990 . S
N2041 C2040 1.314 . S
N2041 C2043 1.279 . S
C2042 C2043 1.358 . S
C2042 C2044 1.356 . S
C2042 H2096 0.930 . S
C2043 N2041 1.279 . S
C2043 C2042 1.358 . S
C2043 H2047 0.930 . S
C2044 C2042 1.356 . S
C2044 C2045 1.348 . S
C2045 C2040 1.353 . S
C2045 C2044 1.348 . S
C2045 H2097 0.929 . S
H2046 C2040 0.930 . S
H2047 C2043 0.930 . S
C2048 N2049 1.314 . S
C2048 C2050 1.353 . S
C2048 H2054 0.930 . S
N2049 Li2025 1.990 . S
N2049 C2048 1.314 . S
N2049 C2052 1.279 . S
C2050 C2048 1.353 . S
C2050 C2053 1.348 . S
C2050 H2098 0.929 . S
C2051 C2052 1.358 . S
C2051 C2053 1.356 . S
C2051 H2099 0.930 . S
C2052 N2049 1.279 . S
C2052 C2051 1.358 . S
C2052 H2055 0.930 . S
C2053 C2050 1.348 . S
C2053 C2051 1.356 . S
H2054 C2048 0.930 . S
H2055 C2052 0.930 . S
C2056 C2058 1.348 . S
C2056 C2059 1.356 . S
C2056 O2086 1.325 . S
N2057 C2060 1.314 . S
N2057 C2061 1.279 . S
C2058 C2056 1.348 . S
C2058 C2060 1.353 . S
C2058 H2100 0.929 . S
C2059 C2056 1.356 . S
C2059 C2061 1.358 . S
C2059 H2101 0.930 . S
C2060 N2057 1.314 . S
C2060 C2058 1.353 . S
C2060 H2102 0.930 . S
C2061 N2057 1.279 . S
C2061 C2059 1.358 . S
C2061 H2103 0.930 . S
C2062 C2063 1.348 . S
C2062 C2064 1.356 . S
C2062 O2087 1.325 . S
C2063 C2062 1.348 . S
C2063 C2065 1.353 . S
C2063 H2104 0.929 . S
C2064 C2062 1.356 . S
C2064 C2066 1.358 . S
C2064 H2105 0.930 . S
C2065 C2063 1.353 . S
C2065 N2067 1.314 . S
C2065 H2106 0.930 . S
C2066 C2064 1.358 . S
C2066 N2067 1.279 . S
C2066 H2107 0.930 . S
N2067 C2065 1.314 . S
N2067 C2066 1.279 . S
C2068 C2070 1.353 . S
C2068 N2071 1.314 . S
C2068 H2074 0.930 . S
C2069 N2071 1.279 . S
C2069 C2072 1.358 . S
C2069 H2075 0.930 . S
C2070 C2068 1.353 . S
C2070 C2073 1.348 . S
C2070 H2108 0.929 . S
N2071 Li2026 1.990 . S
N2071 C2068 1.314 . S
N2071 C2069 1.279 . S
C2072 C2069 1.358 . S
C2072 C2073 1.356 . S
C2072 H2109 0.930 . S
C2073 C2070 1.348 . S
C2073 C2072 1.356 . S
H2074 C2068 0.930 . S
H2075 C2069 0.930 . S
C2076 N2077 1.314 . S
C2076 C2078 1.353 . S
C2076 H2082 0.930 . S
N2077 Li2027 1.990 . S
N2077 C2076 1.314 . S
N2077 C2080 1.279 . S
C2078 C2076 1.353 . S
C2078 C2081 1.348 . S
C2078 H2110 0.929 . S
C2079 C2080 1.358 . S
C2079 C2081 1.356 . S
C2079 H2111 0.930 . S
C2080 N2077 1.279 . S
C2080 C2079 1.358 . S
C2080 H2083 0.930 . S
C2081 C2078 1.348 . S
C2081 C2079 1.356 . S
H2082 C2076 0.930 . S
H2083 C2080 0.930 . S
O2084 Li2024 1.956 . S
O2084 Li2025 1.970 . S
O2084 Li2026 1.961 . S
O2084 C2028 1.325 . S
O2085 Li2024 1.970 . S
O2085 Li2025 1.956 . S
O2085 Li2027 1.961 . S
O2085 C2034 1.325 . S
O2086 Li2024 1.961 . S
O2086 Li2026 1.956 . S
O2086 Li2027 1.970 . S
O2086 C2056 1.325 . S
O2087 Li2025 1.961 . S
O2087 Li2026 1.970 . S
O2087 Li2027 1.956 . S
O2087 C2062 1.325 . S
H2088 C2030 0.929 . S
H2089 C2031 0.930 . S
H2090 C2032 0.930 . S
H2091 C2033 0.930 . S
H2092 C2035 0.930 . S
H2093 C2037 0.929 . S
H2094 C2038 0.930 . S
H2095 C2039 0.930 . S
H2096 C2042 0.930 . S
H2097 C2045 0.929 . S
H2098 C2050 0.929 . S
H2099 C2051 0.930 . S
H2100 C2058 0.929 . S
H2101 C2059 0.930 . S
H2102 C2060 0.930 . S
H2103 C2061 0.930 . S
H2104 C2063 0.929 . S
H2105 C2064 0.930 . S
H2106 C2065 0.930 . S
H2107 C2066 0.930 . S
H2108 C2070 0.929 . S
H2109 C2072 0.930 . S
H2110 C2078 0.929 . S
H2111 C2079 0.930 . S
Dy2112 O2115 2.307 . S
Dy2112 O2117 2.395 . S
Dy2112 O2118 2.379 . S
Dy2112 O2120 2.339 . S
Dy2112 O2122 2.298 . S
Dy2112 O2126 2.330 . S
Dy2112 C2134 2.738 . S
Dy2113 O2116 2.298 1_655 S
Dy2113 O2119 2.275 1_655 S
Dy2113 O2121 2.307 1_645 S
Dy2113 O2123 2.395 . S
Dy2113 O2124 2.379 1_554 S
Dy2113 O2127 2.339 1_654 S
Dy2113 C2143 2.738 . S
C2114 O2126 1.199 1_556 S
C2114 O2127 1.257 . S
O2115 Dy2112 2.307 . S
O2115 C2125 1.266 . S
O2116 Dy2113 2.298 1_455 S
O2116 C2125 1.236 . S
O2117 Dy2112 2.395 . S
O2117 C2134 1.255 . S
O2118 Dy2112 2.379 . S
O2118 C2134 1.249 . S
O2119 Dy2113 2.275 1_455 S
O2119 C2135 1.254 . S
O2120 Dy2112 2.339 . S
O2120 C2135 1.257 . S
O2121 Dy2113 2.307 1_465 S
O2121 C2136 1.266 . S
O2122 Dy2112 2.298 . S
O2122 C2136 1.236 1_545 S
O2123 Dy2113 2.395 . S
O2123 C2143 1.255 . S
O2124 Dy2113 2.379 1_556 S
O2124 C2143 1.249 1_556 S
C2125 O2115 1.266 . S
C2125 O2116 1.236 . S
O2126 Dy2112 2.330 . S
O2126 C2114 1.199 1_554 S
O2127 Dy2113 2.339 1_456 S
O2127 C2114 1.257 . S
C2128 C2131 1.344 . S
C2128 C2132 1.328 . S
C2128 C2134 1.516 . S
C2129 C2130 1.304 . S
C2129 C2133 1.320 1_565 S
C2130 C2129 1.304 . S
C2130 C2131 1.371 1_565 S
C2130 H2144 0.930 . S
C2131 C2128 1.344 . S
C2131 C2130 1.371 1_545 S
C2131 H2145 0.932 1_545 S
C2132 C2128 1.328 . S
C2132 C2133 1.433 . S
C2132 H2146 0.931 . S
C2133 C2129 1.320 1_545 S
C2133 C2132 1.433 . S
C2133 H2147 0.933 . S
C2134 Dy2112 2.738 . S
C2134 O2117 1.255 . S
C2134 O2118 1.249 . S
C2134 C2128 1.516 . S
C2135 O2119 1.254 . S
C2135 O2120 1.257 . S
C2136 O2121 1.266 . S
C2136 O2122 1.236 1_565 S
C2137 C2140 1.344 . S
C2137 C2141 1.328 1_554 S
C2137 C2143 1.516 . S
C2138 C2139 1.304 . S
C2138 C2142 1.323 1_554 S
C2139 C2138 1.304 . S
C2139 C2140 1.371 . S
C2139 H2148 0.930 . S
C2140 C2137 1.344 . S
C2140 C2139 1.371 . S
C2140 H2149 0.931 . S
C2141 C2137 1.328 1_556 S
C2141 C2142 1.433 . S
C2141 H2150 0.931 . S
C2142 C2138 1.323 1_556 S
C2142 C2141 1.433 . S
C2142 H2151 0.933 . S
C2143 Dy2113 2.738 . S
C2143 O2123 1.255 . S
C2143 O2124 1.249 1_554 S
C2143 C2137 1.516 . S
H2144 C2130 0.930 . S
H2145 C2131 0.932 1_565 S
H2146 C2132 0.931 . S
H2147 C2133 0.933 . S
H2148 C2139 0.930 . S
H2149 C2140 0.931 . S
H2150 C2141 0.931 . S
H2151 C2142 0.933 . S
Dy2152 O2155 2.307 . S
Dy2152 O2157 2.395 . S
Dy2152 O2158 2.379 . S
Dy2152 O2160 2.339 . S
Dy2152 O2162 2.298 . S
Dy2152 O2166 2.275 . S
Dy2152 C2174 2.738 . S
Dy2153 O2156 2.298 . S
Dy2153 O2159 2.275 . S
Dy2153 O2161 2.307 . S
Dy2153 O2163 2.395 . S
Dy2153 O2164 2.379 . S
Dy2153 O2167 2.339 . S
Dy2153 C2183 2.738 . S
C2154 O2166 1.254 . S
C2154 O2167 1.257 . S
O2155 Dy2152 2.307 . S
O2155 C2165 1.266 . S
O2156 Dy2153 2.298 . S
O2156 C2165 1.236 . S
O2157 Dy2152 2.395 . S
O2157 C2174 1.255 . S
O2158 Dy2152 2.379 . S
O2158 C2174 1.249 . S
O2159 Dy2153 2.275 . S
O2159 C2175 1.254 . S
O2160 Dy2152 2.339 . S
O2160 C2175 1.257 . S
O2161 Dy2153 2.307 . S
O2161 C2176 1.266 . S
O2162 Dy2152 2.298 . S
O2162 C2176 1.236 . S
O2163 Dy2153 2.395 . S
O2163 C2183 1.255 . S
O2164 Dy2153 2.379 . S
O2164 C2183 1.249 . S
C2165 O2155 1.266 . S
C2165 O2156 1.236 . S
O2166 Dy2152 2.275 . S
O2166 C2154 1.254 . S
O2167 Dy2153 2.339 . S
O2167 C2154 1.257 . S
C2168 C2171 1.344 . S
C2168 C2172 1.328 . S
C2168 C2174 1.516 . S
C2169 C2170 1.304 . S
C2169 C2173 1.323 . S
C2170 C2169 1.304 . S
C2170 C2171 1.371 . S
C2170 H2184 0.930 . S
C2171 C2168 1.344 . S
C2171 C2170 1.371 . S
C2171 H2185 0.931 . S
C2172 C2168 1.328 . S
C2172 C2173 1.433 . S
C2172 H2186 0.931 . S
C2173 C2169 1.323 . S
C2173 C2172 1.433 . S
C2173 H2187 0.933 . S
C2174 Dy2152 2.738 . S
C2174 O2157 1.255 . S
C2174 O2158 1.249 . S
C2174 C2168 1.516 . S
C2175 O2159 1.254 . S
C2175 O2160 1.257 . S
C2176 O2161 1.266 . S
C2176 O2162 1.236 . S
C2177 C2180 1.344 . S
C2177 C2181 1.328 . S
C2177 C2183 1.516 . S
C2178 C2179 1.304 . S
C2178 C2182 1.323 . S
C2179 C2178 1.304 . S
C2179 C2180 1.371 . S
C2179 H2188 0.930 . S
C2180 C2177 1.344 . S
C2180 C2179 1.371 . S
C2180 H2189 0.931 . S
C2181 C2177 1.328 . S
C2181 C2182 1.433 . S
C2181 H2190 0.931 . S
C2182 C2178 1.323 . S
C2182 C2181 1.433 . S
C2182 H2191 0.933 . S
C2183 Dy2153 2.738 . S
C2183 O2163 1.255 . S
C2183 O2164 1.249 . S
C2183 C2177 1.516 . S
H2184 C2170 0.930 . S
H2185 C2171 0.931 . S
H2186 C2172 0.931 . S
H2187 C2173 0.933 . S
H2188 C2179 0.930 . S
H2189 C2180 0.931 . S
H2190 C2181 0.931 . S
H2191 C2182 0.933 . S
Dy2192 O2195 2.332 . S
Dy2192 O2197 2.395 . S
Dy2192 O2198 2.379 . S
Dy2192 O2200 2.339 . S
Dy2192 O2202 2.298 . S
Dy2192 O2206 2.275 . S
Dy2192 C2214 2.738 . S
Dy2193 O2196 2.298 . S
Dy2193 O2199 2.275 . S
Dy2193 O2201 2.307 . S
Dy2193 O2203 2.395 . S
Dy2193 O2204 2.379 . S
Dy2193 O2207 2.339 . S
Dy2193 C2223 2.738 . S
C2194 O2206 1.254 . S
C2194 O2207 1.257 . S
O2195 Dy2192 2.332 . S
O2195 C2205 1.253 1_545 S
O2196 Dy2193 2.298 . S
O2196 C2205 1.236 1_545 S
O2197 Dy2192 2.395 . S
O2197 C2214 1.255 . S
O2198 Dy2192 2.379 . S
O2198 C2214 1.249 . S
O2199 Dy2193 2.275 . S
O2199 C2215 1.254 . S
O2200 Dy2192 2.339 . S
O2200 C2215 1.257 . S
O2201 Dy2193 2.307 . S
O2201 C2216 1.266 . S
O2202 Dy2192 2.298 . S
O2202 C2216 1.236 . S
O2203 Dy2193 2.395 . S
O2203 C2223 1.255 . S
O2204 Dy2193 2.379 . S
O2204 C2223 1.249 . S
C2205 O2195 1.253 1_565 S
C2205 O2196 1.236 1_565 S
O2206 Dy2192 2.275 . S
O2206 C2194 1.254 . S
O2207 Dy2193 2.339 . S
O2207 C2194 1.257 . S
C2208 C2211 1.344 . S
C2208 C2212 1.328 . S
C2208 C2214 1.516 . S
C2209 C2210 1.304 . S
C2209 C2213 1.323 . S
C2210 C2209 1.304 . S
C2210 C2211 1.371 . S
C2210 H2224 0.930 . S
C2211 C2208 1.344 . S
C2211 C2210 1.371 . S
C2211 H2225 0.931 . S
C2212 C2208 1.328 . S
C2212 C2213 1.433 . S
C2212 H2226 0.931 . S
C2213 C2209 1.323 . S
C2213 C2212 1.433 . S
C2213 H2227 0.933 . S
C2214 Dy2192 2.738 . S
C2214 O2197 1.255 . S
C2214 O2198 1.249 . S
C2214 C2208 1.516 . S
C2215 O2199 1.254 . S
C2215 O2200 1.257 . S
C2216 O2201 1.266 . S
C2216 O2202 1.236 . S
C2217 C2220 1.344 1_545 S
C2217 C2221 1.328 . S
C2217 C2223 1.516 . S
C2218 C2219 1.304 . S
C2218 C2222 1.323 . S
C2219 C2218 1.304 . S
C2219 C2220 1.371 . S
C2219 H2228 0.930 . S
C2220 C2217 1.344 1_565 S
C2220 C2219 1.371 . S
C2220 H2229 0.931 . S
C2221 C2217 1.328 . S
C2221 C2222 1.433 1_545 S
C2221 H2230 0.931 . S
C2222 C2218 1.323 . S
C2222 C2221 1.433 1_565 S
C2222 H2231 0.933 . S
C2223 Dy2193 2.738 . S
C2223 O2203 1.255 . S
C2223 O2204 1.249 . S
C2223 C2217 1.516 . S
H2224 C2210 0.930 . S
H2225 C2211 0.931 . S
H2226 C2212 0.931 . S
H2227 C2213 0.933 . S
H2228 C2219 0.930 . S
H2229 C2220 0.931 . S
H2230 C2221 0.931 . S
H2231 C2222 0.933 . S
Dy2232 O2235 2.307 . S
Dy2232 O2237 2.395 . S
Dy2232 O2238 2.379 . S
Dy2232 O2240 2.339 . S
Dy2232 O2242 2.298 . S
Dy2232 O2246 2.275 . S
Dy2232 C2254 2.738 . S
Dy2233 O2236 2.298 . S
Dy2233 O2239 2.275 . S
Dy2233 O2241 2.307 . S
Dy2233 O2243 2.395 . S
Dy2233 O2244 2.379 . S
Dy2233 O2247 2.339 . S
Dy2233 C2263 2.738 . S
C2234 O2246 1.254 . S
C2234 O2247 1.257 . S
O2235 Dy2232 2.307 . S
O2235 C2245 1.266 . S
O2236 Dy2233 2.298 . S
O2236 C2245 1.236 . S
O2237 Dy2232 2.395 . S
O2237 C2254 1.255 . S
O2238 Dy2232 2.379 . S
O2238 C2254 1.249 . S
O2239 Dy2233 2.275 . S
O2239 C2255 1.254 . S
O2240 Dy2232 2.339 . S
O2240 C2255 1.257 . S
O2241 Dy2233 2.307 . S
O2241 C2256 1.266 . S
O2242 Dy2232 2.298 . S
O2242 C2256 1.236 . S
O2243 Dy2233 2.395 . S
O2243 C2263 1.255 . S
O2244 Dy2233 2.379 . S
O2244 C2263 1.249 . S
C2245 O2235 1.266 . S
C2245 O2236 1.236 . S
O2246 Dy2232 2.275 . S
O2246 C2234 1.254 . S
O2247 Dy2233 2.339 . S
O2247 C2234 1.257 . S
C2248 C2251 1.344 . S
C2248 C2252 1.328 . S
C2248 C2254 1.516 . S
C2249 C2250 1.304 . S
C2249 C2253 1.323 . S
C2250 C2249 1.304 . S
C2250 C2251 1.371 . S
C2250 H2264 0.930 . S
C2251 C2248 1.344 . S
C2251 C2250 1.371 . S
C2251 H2265 0.931 . S
C2252 C2248 1.328 . S
C2252 C2253 1.433 . S
C2252 H2266 0.931 . S
C2253 C2249 1.323 . S
C2253 C2252 1.433 . S
C2253 H2267 0.933 . S
C2254 Dy2232 2.738 . S
C2254 O2237 1.255 . S
C2254 O2238 1.249 . S
C2254 C2248 1.516 . S
C2255 O2239 1.254 . S
C2255 O2240 1.257 . S
C2256 O2241 1.266 . S
C2256 O2242 1.236 . S
C2257 C2260 1.344 . S
C2257 C2261 1.328 . S
C2257 C2263 1.516 . S
C2258 C2259 1.304 . S
C2258 C2262 1.323 . S
C2259 C2258 1.304 . S
C2259 C2260 1.371 . S
C2259 H2268 0.930 . S
C2260 C2257 1.344 . S
C2260 C2259 1.371 . S
C2260 H2269 0.931 . S
C2261 C2257 1.328 . S
C2261 C2262 1.433 . S
C2261 H2270 0.931 . S
C2262 C2258 1.323 . S
C2262 C2261 1.433 . S
C2262 H2271 0.933 . S
C2263 Dy2233 2.738 . S
C2263 O2243 1.255 . S
C2263 O2244 1.249 . S
C2263 C2257 1.516 . S
H2264 C2250 0.930 . S
H2265 C2251 0.931 . S
H2266 C2252 0.931 . S
H2267 C2253 0.933 . S
H2268 C2259 0.930 . S
H2269 C2260 0.931 . S
H2270 C2261 0.931 . S
H2271 C2262 0.933 . S
Dy2272 O2275 2.307 . S
Dy2272 O2277 2.395 1_545 S
Dy2272 O2278 2.379 1_545 S
Dy2272 O2280 2.339 . S
Dy2272 O2282 2.298 . S
Dy2272 O2286 2.275 . S
Dy2272 C2294 2.738 1_545 S
Dy2273 O2276 2.298 . S
Dy2273 O2279 2.275 . S
Dy2273 O2281 2.307 . S
Dy2273 O2283 2.395 . S
Dy2273 O2284 2.379 1_455 S
Dy2273 O2287 2.339 1_455 S
Dy2273 C2303 2.738 . S
C2274 O2286 1.254 1_655 S
C2274 O2287 1.257 . S
O2275 Dy2272 2.307 . S
O2275 C2285 1.266 . S
O2276 Dy2273 2.298 . S
O2276 C2285 1.236 . S
O2277 Dy2272 2.395 1_565 S
O2277 C2294 1.255 . S
O2278 Dy2272 2.379 1_565 S
O2278 C2294 1.249 . S
O2279 Dy2273 2.275 . S
O2279 C2295 1.254 . S
O2280 Dy2272 2.339 . S
O2280 C2295 1.257 . S
O2281 Dy2273 2.307 . S
O2281 C2296 1.266 . S
O2282 Dy2272 2.298 . S
O2282 C2296 1.236 . S
O2283 Dy2273 2.395 . S
O2283 C2303 1.255 . S
O2284 Dy2273 2.379 1_655 S
O2284 C2303 1.249 1_655 S
C2285 O2275 1.266 . S
C2285 O2276 1.236 . S
O2286 Dy2272 2.275 . S
O2286 C2274 1.254 1_455 S
O2287 Dy2273 2.339 1_655 S
O2287 C2274 1.257 . S
C2288 C2291 1.344 . S
C2288 C2292 1.328 . S
C2288 C2294 1.516 . S
C2289 C2290 1.304 . S
C2289 C2293 1.323 . S
C2290 C2289 1.304 . S
C2290 C2291 1.371 . S
C2290 H2304 0.930 . S
C2291 C2288 1.344 . S
C2291 C2290 1.371 . S
C2291 H2305 0.931 . S
C2292 C2288 1.328 . S
C2292 C2293 1.433 . S
C2292 H2306 0.931 . S
C2293 C2289 1.323 . S
C2293 C2292 1.433 . S
C2293 H2307 0.933 . S
C2294 Dy2272 2.738 1_565 S
C2294 O2277 1.255 . S
C2294 O2278 1.249 . S
C2294 C2288 1.516 . S
C2295 O2279 1.254 . S
C2295 O2280 1.257 . S
C2296 O2281 1.266 . S
C2296 O2282 1.236 . S
C2297 C2300 1.344 . S
C2297 C2301 1.328 1_455 S
C2297 C2303 1.516 . S
C2298 C2299 1.304 . S
C2298 C2302 1.323 1_455 S
C2299 C2298 1.304 . S
C2299 C2300 1.371 . S
C2299 H2308 0.930 . S
C2300 C2297 1.344 . S
C2300 C2299 1.371 . S
C2300 H2309 0.931 . S
C2301 C2297 1.328 1_655 S
C2301 C2302 1.433 . S
C2301 H2310 0.931 . S
C2302 C2298 1.323 1_655 S
C2302 C2301 1.433 . S
C2302 H2311 0.933 . S
C2303 Dy2273 2.738 . S
C2303 O2283 1.255 . S
C2303 O2284 1.249 1_455 S
C2303 C2297 1.516 . S
H2304 C2290 0.930 . S
H2305 C2291 0.931 . S
H2306 C2292 0.931 . S
H2307 C2293 0.933 . S
H2308 C2299 0.930 . S
H2309 C2300 0.931 . S
H2310 C2301 0.931 . S
H2311 C2302 0.933 . S
Dy2312 O2315 2.307 . S
Dy2312 O2317 2.395 . S
Dy2312 O2318 2.379 . S
Dy2312 O2320 2.339 . S
Dy2312 O2322 2.298 . S
Dy2312 O2326 2.275 . S
Dy2312 C2334 2.738 . S
Dy2313 O2316 2.298 . S
Dy2313 O2319 2.275 . S
Dy2313 O2321 2.307 . S
Dy2313 O2323 2.395 . S
Dy2313 O2324 2.379 . S
Dy2313 O2327 2.339 . S
Dy2313 C2343 2.738 . S
C2314 O2326 1.254 . S
C2314 O2327 1.257 . S
O2315 Dy2312 2.307 . S
O2315 C2325 1.266 . S
O2316 Dy2313 2.298 . S
O2316 C2325 1.236 . S
O2317 Dy2312 2.395 . S
O2317 C2334 1.255 . S
O2318 Dy2312 2.379 . S
O2318 C2334 1.249 . S
O2319 Dy2313 2.275 . S
O2319 C2335 1.254 . S
O2320 Dy2312 2.339 . S
O2320 C2335 1.257 . S
O2321 Dy2313 2.307 . S
O2321 C2336 1.266 . S
O2322 Dy2312 2.298 . S
O2322 C2336 1.236 . S
O2323 Dy2313 2.395 . S
O2323 C2343 1.255 . S
O2324 Dy2313 2.379 . S
O2324 C2343 1.249 . S
C2325 O2315 1.266 . S
C2325 O2316 1.236 . S
O2326 Dy2312 2.275 . S
O2326 C2314 1.254 . S
O2327 Dy2313 2.339 . S
O2327 C2314 1.257 . S
C2328 C2331 1.344 . S
C2328 C2332 1.328 . S
C2328 C2334 1.516 . S
C2329 C2330 1.304 . S
C2329 C2333 1.323 . S
C2330 C2329 1.304 . S
C2330 C2331 1.371 . S
C2330 H2344 0.930 . S
C2331 C2328 1.344 . S
C2331 C2330 1.371 . S
C2331 H2345 0.931 . S
C2332 C2328 1.328 . S
C2332 C2333 1.433 . S
C2332 H2346 0.931 . S
C2333 C2329 1.323 . S
C2333 C2332 1.433 . S
C2333 H2347 0.933 . S
C2334 Dy2312 2.738 . S
C2334 O2317 1.255 . S
C2334 O2318 1.249 . S
C2334 C2328 1.516 . S
C2335 O2319 1.254 . S
C2335 O2320 1.257 . S
C2336 O2321 1.266 . S
C2336 O2322 1.236 . S
C2337 C2340 1.344 . S
C2337 C2341 1.328 . S
C2337 C2343 1.516 . S
C2338 C2339 1.304 . S
C2338 C2342 1.323 . S
C2339 C2338 1.304 . S
C2339 C2340 1.371 . S
C2339 H2348 0.930 . S
C2340 C2337 1.344 . S
C2340 C2339 1.371 . S
C2340 H2349 0.931 . S
C2341 C2337 1.328 . S
C2341 C2342 1.433 . S
C2341 H2350 0.931 . S
C2342 C2338 1.323 . S
C2342 C2341 1.433 . S
C2342 H2351 0.933 . S
C2343 Dy2313 2.738 . S
C2343 O2323 1.255 . S
C2343 O2324 1.249 . S
C2343 C2337 1.516 . S
H2344 C2330 0.930 . S
H2345 C2331 0.931 . S
H2346 C2332 0.931 . S
H2347 C2333 0.933 . S
H2348 C2339 0.930 . S
H2349 C2340 0.931 . S
H2350 C2341 0.931 . S
H2351 C2342 0.933 . S
Dy2352 O2355 2.307 1_556 S
Dy2352 O2357 2.395 . S
Dy2352 O2358 2.379 . S
Dy2352 O2360 2.339 1_556 S
Dy2352 O2362 2.298 1_556 S
Dy2352 O2366 2.275 1_556 S
Dy2352 C2374 2.738 . S
Dy2353 O2356 2.298 . S
Dy2353 O2359 2.275 . S
Dy2353 O2361 2.307 . S
Dy2353 O2363 2.395 . S
Dy2353 O2364 2.347 1_545 S
Dy2353 O2367 2.339 1_545 S
Dy2353 C2383 2.738 . S
C2354 O2366 1.254 1_565 S
C2354 O2367 1.257 . S
O2355 Dy2352 2.307 1_554 S
O2355 C2365 1.266 . S
O2356 Dy2353 2.298 . S
O2356 C2365 1.236 . S
O2357 Dy2352 2.395 . S
O2357 C2374 1.255 . S
O2358 Dy2352 2.379 . S
O2358 C2374 1.249 . S
O2359 Dy2353 2.275 . S
O2359 C2375 1.254 . S
O2360 Dy2352 2.339 1_554 S
O2360 C2375 1.257 . S
O2361 Dy2353 2.307 . S
O2361 C2376 1.266 . S
O2362 Dy2352 2.298 1_554 S
O2362 C2376 1.236 . S
O2363 Dy2353 2.395 . S
O2363 C2383 1.255 . S
O2364 Dy2353 2.347 1_565 S
O2364 C2383 1.213 1_565 S
C2365 O2355 1.266 . S
C2365 O2356 1.236 . S
O2366 Dy2352 2.275 1_554 S
O2366 C2354 1.254 1_545 S
O2367 Dy2353 2.339 1_565 S
O2367 C2354 1.257 . S
C2368 C2371 1.344 . S
C2368 C2372 1.328 . S
C2368 C2374 1.516 . S
C2369 C2370 1.304 . S
C2369 C2373 1.323 . S
C2370 C2369 1.304 . S
C2370 C2371 1.371 . S
C2370 H2384 0.930 . S
C2371 C2368 1.344 . S
C2371 C2370 1.371 . S
C2371 H2385 0.931 . S
C2372 C2368 1.328 . S
C2372 C2373 1.433 . S
C2372 H2386 0.931 . S
C2373 C2369 1.323 . S
C2373 C2372 1.433 . S
C2373 H2387 0.933 . S
C2374 Dy2352 2.738 . S
C2374 O2357 1.255 . S
C2374 O2358 1.249 . S
C2374 C2368 1.516 . S
C2375 O2359 1.254 . S
C2375 O2360 1.257 . S
C2376 O2361 1.266 . S
C2376 O2362 1.236 . S
C2377 C2380 1.344 . S
C2377 C2381 1.328 1_545 S
C2377 C2383 1.516 . S
C2378 C2379 1.304 1_565 S
C2378 C2382 1.323 . S
C2379 C2378 1.304 1_545 S
C2379 C2380 1.371 . S
C2379 H2388 0.930 . S
C2380 C2377 1.344 . S
C2380 C2379 1.371 . S
C2380 H2389 0.931 . S
C2381 C2377 1.328 1_565 S
C2381 C2382 1.433 . S
C2381 H2390 0.931 . S
C2382 C2378 1.323 . S
C2382 C2381 1.433 . S
C2382 H2391 0.933 . S
C2383 Dy2353 2.738 . S
C2383 O2363 1.255 . S
C2383 O2364 1.213 1_545 S
C2383 C2377 1.516 . S
H2384 C2370 0.930 . S
H2385 C2371 0.931 . S
H2386 C2372 0.931 . S
H2387 C2373 0.933 . S
H2388 C2379 0.930 . S
H2389 C2380 0.931 . S
H2390 C2381 0.931 . S
H2391 C2382 0.933 . S
Dy2392 O2395 2.307 . S
Dy2392 O2397 2.395 . S
Dy2392 O2398 2.379 . S
Dy2392 O2400 2.339 . S
Dy2392 O2402 2.298 . S
Dy2392 O2406 2.275 . S
Dy2392 C2414 2.738 . S
Dy2393 O2396 2.298 . S
Dy2393 O2399 2.275 . S
Dy2393 O2401 2.307 . S
Dy2393 O2403 2.395 . S
Dy2393 O2404 2.379 . S
Dy2393 O2407 2.339 . S
Dy2393 C2423 2.738 . S
C2394 O2406 1.254 . S
C2394 O2407 1.257 . S
O2395 Dy2392 2.307 . S
O2395 C2405 1.266 . S
O2396 Dy2393 2.298 . S
O2396 C2405 1.236 . S
O2397 Dy2392 2.395 . S
O2397 C2414 1.255 . S
O2398 Dy2392 2.379 . S
O2398 C2414 1.249 . S
O2399 Dy2393 2.275 . S
O2399 C2415 1.254 . S
O2400 Dy2392 2.339 . S
O2400 C2415 1.257 . S
O2401 Dy2393 2.307 . S
O2401 C2416 1.266 . S
O2402 Dy2392 2.298 . S
O2402 C2416 1.236 . S
O2403 Dy2393 2.395 . S
O2403 C2423 1.255 . S
O2404 Dy2393 2.379 . S
O2404 C2423 1.249 . S
C2405 O2395 1.266 . S
C2405 O2396 1.236 . S
O2406 Dy2392 2.275 . S
O2406 C2394 1.254 . S
O2407 Dy2393 2.339 . S
O2407 C2394 1.257 . S
C2408 C2411 1.344 . S
C2408 C2412 1.328 . S
C2408 C2414 1.516 . S
C2409 C2410 1.304 . S
C2409 C2413 1.323 . S
C2410 C2409 1.304 . S
C2410 C2411 1.371 . S
C2410 H2424 0.930 . S
C2411 C2408 1.344 . S
C2411 C2410 1.371 . S
C2411 H2425 0.931 . S
C2412 C2408 1.328 . S
C2412 C2413 1.433 . S
C2412 H2426 0.931 . S
C2413 C2409 1.323 . S
C2413 C2412 1.433 . S
C2413 H2427 0.933 . S
C2414 Dy2392 2.738 . S
C2414 O2397 1.255 . S
C2414 O2398 1.249 . S
C2414 C2408 1.516 . S
C2415 O2399 1.254 . S
C2415 O2400 1.257 . S
C2416 O2401 1.266 . S
C2416 O2402 1.236 . S
C2417 C2420 1.344 . S
C2417 C2421 1.328 . S
C2417 C2423 1.516 . S
C2418 C2419 1.304 . S
C2418 C2422 1.323 . S
C2419 C2418 1.304 . S
C2419 C2420 1.371 . S
C2419 H2428 0.930 . S
C2420 C2417 1.344 . S
C2420 C2419 1.371 . S
C2420 H2429 0.931 . S
C2421 C2417 1.328 . S
C2421 C2422 1.433 . S
C2421 H2430 0.931 . S
C2422 C2418 1.323 . S
C2422 C2421 1.433 . S
C2422 H2431 0.933 . S
C2423 Dy2393 2.738 . S
C2423 O2403 1.255 . S
C2423 O2404 1.249 . S
C2423 C2417 1.516 . S
H2424 C2410 0.930 . S
H2425 C2411 0.931 . S
H2426 C2412 0.931 . S
H2427 C2413 0.933 . S
H2428 C2419 0.930 . S
H2429 C2420 0.931 . S
H2430 C2421 0.931 . S
H2431 C2422 0.933 . S
Dy2432 O2435 2.307 1_554 S
Dy2432 O2437 2.395 . S
Dy2432 O2438 2.379 . S
Dy2432 O2440 2.339 . S
Dy2432 O2442 2.298 . S
Dy2432 O2446 2.275 . S
Dy2432 C2454 2.738 . S
Dy2433 O2436 2.298 1_554 S
Dy2433 O2439 2.275 . S
Dy2433 O2441 2.307 . S
Dy2433 O2443 2.395 . S
Dy2433 O2444 2.379 . S
Dy2433 O2447 2.339 . S
Dy2433 C2463 2.738 . S
C2434 O2446 1.254 . S
C2434 O2447 1.257 . S
O2435 Dy2432 2.307 1_556 S
O2435 C2445 1.266 . S
O2436 Dy2433 2.298 1_556 S
O2436 C2445 1.236 . S
O2437 Dy2432 2.395 . S
O2437 C2454 1.255 . S
O2438 Dy2432 2.379 . S
O2438 C2454 1.249 . S
O2439 Dy2433 2.275 . S
O2439 C2455 1.254 . S
O2440 Dy2432 2.339 . S
O2440 C2455 1.257 . S
O2441 Dy2433 2.307 . S
O2441 C2456 1.266 . S
O2442 Dy2432 2.298 . S
O2442 C2456 1.236 . S
O2443 Dy2433 2.395 . S
O2443 C2463 1.255 . S
O2444 Dy2433 2.379 . S
O2444 C2463 1.249 . S
C2445 O2435 1.266 . S
C2445 O2436 1.236 . S
O2446 Dy2432 2.275 . S
O2446 C2434 1.254 . S
O2447 Dy2433 2.339 . S
O2447 C2434 1.257 . S
C2448 C2451 1.344 . S
C2448 C2452 1.328 . S
C2448 C2454 1.516 . S
C2449 C2450 1.304 . S
C2449 C2453 1.323 . S
C2450 C2449 1.304 . S
C2450 C2451 1.371 . S
C2450 H2464 0.930 . S
C2451 C2448 1.344 . S
C2451 C2450 1.371 . S
C2451 H2465 0.931 . S
C2452 C2448 1.328 . S
C2452 C2453 1.433 . S
C2452 H2466 0.931 . S
C2453 C2449 1.323 . S
C2453 C2452 1.433 . S
C2453 H2467 0.933 . S
C2454 Dy2432 2.738 . S
C2454 O2437 1.255 . S
C2454 O2438 1.249 . S
C2454 C2448 1.516 . S
C2455 O2439 1.254 . S
C2455 O2440 1.257 . S
C2456 O2441 1.266 . S
C2456 O2442 1.236 . S
C2457 C2460 1.344 . S
C2457 C2461 1.328 . S
C2457 C2463 1.516 1_556 S
C2458 C2459 1.304 . S
C2458 C2462 1.323 . S
C2459 C2458 1.304 . S
C2459 C2460 1.371 . S
C2459 H2468 0.930 . S
C2460 C2457 1.344 . S
C2460 C2459 1.371 . S
C2460 H2469 0.931 . S
C2461 C2457 1.328 . S
C2461 C2462 1.433 . S
C2461 H2470 0.929 . S
C2462 C2458 1.323 . S
C2462 C2461 1.433 . S
C2462 H2471 0.933 . S
C2463 Dy2433 2.738 . S
C2463 O2443 1.255 . S
C2463 O2444 1.249 . S
C2463 C2457 1.516 1_554 S
H2464 C2450 0.930 . S
H2465 C2451 0.931 . S
H2466 C2452 0.931 . S
H2467 C2453 0.933 . S
H2468 C2459 0.930 . S
H2469 C2460 0.931 . S
H2470 C2461 0.929 . S
H2471 C2462 0.933 . S
Dy2472 O2475 2.307 . S
Dy2472 O2477 2.395 . S
Dy2472 O2478 2.379 . S
Dy2472 O2480 2.339 . S
Dy2472 O2482 2.298 . S
Dy2472 O2486 2.275 . S
Dy2472 C2494 2.738 . S
Dy2473 O2476 2.298 . S
Dy2473 O2479 2.275 . S
Dy2473 O2481 2.307 . S
Dy2473 O2483 2.395 . S
Dy2473 O2484 2.379 . S
Dy2473 O2487 2.339 . S
Dy2473 C2503 2.738 . S
C2474 O2486 1.254 . S
C2474 O2487 1.257 . S
O2475 Dy2472 2.307 . S
O2475 C2485 1.266 . S
O2476 Dy2473 2.298 . S
O2476 C2485 1.236 . S
O2477 Dy2472 2.395 . S
O2477 C2494 1.255 . S
O2478 Dy2472 2.379 . S
O2478 C2494 1.249 . S
O2479 Dy2473 2.275 . S
O2479 C2495 1.254 . S
O2480 Dy2472 2.339 . S
O2480 C2495 1.257 . S
O2481 Dy2473 2.307 . S
O2481 C2496 1.266 . S
O2482 Dy2472 2.298 . S
O2482 C2496 1.236 . S
O2483 Dy2473 2.395 . S
O2483 C2503 1.255 . S
O2484 Dy2473 2.379 . S
O2484 C2503 1.249 . S
C2485 O2475 1.266 . S
C2485 O2476 1.236 . S
O2486 Dy2472 2.275 . S
O2486 C2474 1.254 . S
O2487 Dy2473 2.339 . S
O2487 C2474 1.257 . S
C2488 C2491 1.344 . S
C2488 C2492 1.328 . S
C2488 C2494 1.516 . S
C2489 C2490 1.304 . S
C2489 C2493 1.323 . S
C2490 C2489 1.304 . S
C2490 C2491 1.371 . S
C2490 H2504 0.930 . S
C2491 C2488 1.344 . S
C2491 C2490 1.371 . S
C2491 H2505 0.931 . S
C2492 C2488 1.328 . S
C2492 C2493 1.433 . S
C2492 H2506 0.931 . S
C2493 C2489 1.323 . S
C2493 C2492 1.433 . S
C2493 H2507 0.933 . S
C2494 Dy2472 2.738 . S
C2494 O2477 1.255 . S
C2494 O2478 1.249 . S
C2494 C2488 1.516 . S
C2495 O2479 1.254 . S
C2495 O2480 1.257 . S
C2496 O2481 1.266 . S
C2496 O2482 1.236 . S
C2497 C2500 1.344 . S
C2497 C2501 1.328 . S
C2497 C2503 1.516 . S
C2498 C2499 1.304 . S
C2498 C2502 1.323 . S
C2499 C2498 1.304 . S
C2499 C2500 1.371 . S
C2499 H2508 0.930 . S
C2500 C2497 1.344 . S
C2500 C2499 1.371 . S
C2500 H2509 0.931 . S
C2501 C2497 1.328 . S
C2501 C2502 1.433 . S
C2501 H2510 0.931 . S
C2502 C2498 1.323 . S
C2502 C2501 1.433 . S
C2502 H2511 0.933 . S
C2503 Dy2473 2.738 . S
C2503 O2483 1.255 . S
C2503 O2484 1.249 . S
C2503 C2497 1.516 . S
H2504 C2490 0.930 . S
H2505 C2491 0.931 . S
H2506 C2492 0.931 . S
H2507 C2493 0.933 . S
H2508 C2499 0.930 . S
H2509 C2500 0.931 . S
H2510 C2501 0.931 . S
H2511 C2502 0.933 . S
Dy2512 O2515 2.307 1_455 S
Dy2512 O2517 2.395 . S
Dy2512 O2518 2.379 . S
Dy2512 O2520 2.339 . S
Dy2512 O2522 2.298 . S
Dy2512 O2526 2.275 . S
Dy2512 C2534 2.738 . S
Dy2513 O2516 2.298 1_455 S
Dy2513 O2519 2.275 . S
Dy2513 O2521 2.307 . S
Dy2513 O2523 2.395 . S
Dy2513 O2524 2.379 . S
Dy2513 O2527 2.339 . S
Dy2513 C2543 2.738 . S
C2514 O2526 1.254 . S
C2514 O2527 1.257 . S
O2515 Dy2512 2.307 1_655 S
O2515 C2525 1.266 . S
O2516 Dy2513 2.298 1_655 S
O2516 C2525 1.236 . S
O2517 Dy2512 2.395 . S
O2517 C2534 1.255 . S
O2518 Dy2512 2.379 . S
O2518 C2534 1.249 . S
O2519 Dy2513 2.275 . S
O2519 C2535 1.254 . S
O2520 Dy2512 2.339 . S
O2520 C2535 1.257 . S
O2521 Dy2513 2.307 . S
O2521 C2536 1.266 . S
O2522 Dy2512 2.298 . S
O2522 C2536 1.236 . S
O2523 Dy2513 2.395 . S
O2523 C2543 1.255 . S
O2524 Dy2513 2.379 . S
O2524 C2543 1.249 . S
C2525 O2515 1.266 . S
C2525 O2516 1.236 . S
O2526 Dy2512 2.275 . S
O2526 C2514 1.254 . S
O2527 Dy2513 2.339 . S
O2527 C2514 1.257 . S
C2528 C2531 1.344 . S
C2528 C2532 1.328 . S
C2528 C2534 1.516 . S
C2529 C2530 1.304 . S
C2529 C2533 1.323 . S
C2530 C2529 1.304 . S
C2530 C2531 1.371 . S
C2530 H2544 0.930 . S
C2531 C2528 1.344 . S
C2531 C2530 1.371 . S
C2531 H2545 0.931 . S
C2532 C2528 1.328 . S
C2532 C2533 1.433 . S
C2532 H2546 0.931 . S
C2533 C2529 1.323 . S
C2533 C2532 1.433 . S
C2533 H2547 0.933 . S
C2534 Dy2512 2.738 . S
C2534 O2517 1.255 . S
C2534 O2518 1.249 . S
C2534 C2528 1.516 . S
C2535 O2519 1.254 . S
C2535 O2520 1.257 . S
C2536 O2521 1.266 . S
C2536 O2522 1.236 . S
C2537 C2540 1.344 . S
C2537 C2541 1.328 . S
C2537 C2543 1.516 1_655 S
C2538 C2539 1.304 . S
C2538 C2542 1.323 . S
C2539 C2538 1.304 . S
C2539 C2540 1.371 . S
C2539 H2548 0.930 . S
C2540 C2537 1.344 . S
C2540 C2539 1.371 . S
C2540 H2549 0.931 . S
C2541 C2537 1.328 . S
C2541 C2542 1.433 . S
C2541 H2550 0.901 1_655 S
C2542 C2538 1.323 . S
C2542 C2541 1.433 . S
C2542 H2551 0.933 . S
C2543 Dy2513 2.738 . S
C2543 O2523 1.255 . S
C2543 O2524 1.249 . S
C2543 C2537 1.516 1_455 S
H2544 C2530 0.930 . S
H2545 C2531 0.931 . S
H2546 C2532 0.931 . S
H2547 C2533 0.933 . S
H2548 C2539 0.930 . S
H2549 C2540 0.931 . S
H2550 C2541 0.901 1_455 S
H2551 C2542 0.933 . S
Dy2552 O2555 2.307 . S
Dy2552 O2557 2.395 . S
Dy2552 O2558 2.379 . S
Dy2552 O2560 2.339 . S
Dy2552 O2562 2.298 . S
Dy2552 O2566 2.275 . S
Dy2552 C2574 2.738 . S
Dy2553 O2556 2.298 . S
Dy2553 O2559 2.275 . S
Dy2553 O2561 2.307 . S
Dy2553 O2563 2.395 . S
Dy2553 O2564 2.379 . S
Dy2553 O2567 2.339 . S
Dy2553 C2583 2.738 . S
C2554 O2566 1.254 . S
C2554 O2567 1.257 . S
O2555 Dy2552 2.307 . S
O2555 C2565 1.266 . S
O2556 Dy2553 2.298 . S
O2556 C2565 1.236 . S
O2557 Dy2552 2.395 . S
O2557 C2574 1.255 . S
O2558 Dy2552 2.379 . S
O2558 C2574 1.249 . S
O2559 Dy2553 2.275 . S
O2559 C2575 1.254 . S
O2560 Dy2552 2.339 . S
O2560 C2575 1.257 . S
O2561 Dy2553 2.307 . S
O2561 C2576 1.266 . S
O2562 Dy2552 2.298 . S
O2562 C2576 1.236 . S
O2563 Dy2553 2.395 . S
O2563 C2583 1.255 . S
O2564 Dy2553 2.379 . S
O2564 C2583 1.249 . S
C2565 O2555 1.266 . S
C2565 O2556 1.236 . S
O2566 Dy2552 2.275 . S
O2566 C2554 1.254 . S
O2567 Dy2553 2.339 . S
O2567 C2554 1.257 . S
C2568 C2571 1.344 . S
C2568 C2572 1.328 . S
C2568 C2574 1.516 . S
C2569 C2570 1.304 . S
C2569 C2573 1.323 . S
C2570 C2569 1.304 . S
C2570 C2571 1.371 . S
C2570 H2584 0.930 . S
C2571 C2568 1.344 . S
C2571 C2570 1.371 . S
C2571 H2585 0.931 . S
C2572 C2568 1.328 . S
C2572 C2573 1.433 . S
C2572 H2586 0.931 . S
C2573 C2569 1.323 . S
C2573 C2572 1.433 . S
C2573 H2587 0.933 . S
C2574 Dy2552 2.738 . S
C2574 O2557 1.255 . S
C2574 O2558 1.249 . S
C2574 C2568 1.516 . S
C2575 O2559 1.254 . S
C2575 O2560 1.257 . S
C2576 O2561 1.266 . S
C2576 O2562 1.236 . S
C2577 C2580 1.344 . S
C2577 C2581 1.328 . S
C2577 C2583 1.516 . S
C2578 C2579 1.304 . S
C2578 C2582 1.323 . S
C2579 C2578 1.304 . S
C2579 C2580 1.371 . S
C2579 H2588 0.930 . S
C2580 C2577 1.344 . S
C2580 C2579 1.371 . S
C2580 H2589 0.931 . S
C2581 C2577 1.328 . S
C2581 C2582 1.433 . S
C2581 H2590 0.931 . S
C2582 C2578 1.323 . S
C2582 C2581 1.433 . S
C2582 H2591 0.933 . S
C2583 Dy2553 2.738 . S
C2583 O2563 1.255 . S
C2583 O2564 1.249 . S
C2583 C2577 1.516 . S
H2584 C2570 0.930 . S
H2585 C2571 0.931 . S
H2586 C2572 0.931 . S
H2587 C2573 0.933 . S
H2588 C2579 0.930 . S
H2589 C2580 0.931 . S
H2590 C2581 0.931 . S
H2591 C2582 0.933 . S
Dy2592 O2595 2.307 . S
Dy2592 O2597 2.395 . S
Dy2592 O2598 2.379 . S
Dy2592 O2600 2.339 . S
Dy2592 O2602 2.298 . S
Dy2592 O2606 2.275 . S
Dy2592 C2614 2.738 . S
Dy2593 O2596 2.298 . S
Dy2593 O2599 2.275 . S
Dy2593 O2601 2.307 . S
Dy2593 O2603 2.395 . S
Dy2593 O2604 2.379 . S
Dy2593 O2607 2.339 . S
Dy2593 C2623 2.738 . S
C2594 O2606 1.254 . S
C2594 O2607 1.257 . S
O2595 Dy2592 2.307 . S
O2595 C2605 1.266 . S
O2596 Dy2593 2.298 . S
O2596 C2605 1.236 . S
O2597 Dy2592 2.395 . S
O2597 C2614 1.255 . S
O2598 Dy2592 2.379 . S
O2598 C2614 1.249 . S
O2599 Dy2593 2.275 . S
O2599 C2615 1.254 . S
O2600 Dy2592 2.339 . S
O2600 C2615 1.257 . S
O2601 Dy2593 2.307 . S
O2601 C2616 1.266 . S
O2602 Dy2592 2.298 . S
O2602 C2616 1.236 . S
O2603 Dy2593 2.395 . S
O2603 C2623 1.255 . S
O2604 Dy2593 2.379 . S
O2604 C2623 1.249 . S
C2605 O2595 1.266 . S
C2605 O2596 1.236 . S
O2606 Dy2592 2.275 . S
O2606 C2594 1.254 . S
O2607 Dy2593 2.339 . S
O2607 C2594 1.257 . S
C2608 C2611 1.344 . S
C2608 C2612 1.328 . S
C2608 C2614 1.516 . S
C2609 C2610 1.304 . S
C2609 C2613 1.323 . S
C2610 C2609 1.304 . S
C2610 C2611 1.371 . S
C2610 H2624 0.930 . S
C2611 C2608 1.344 . S
C2611 C2610 1.371 . S
C2611 H2625 0.931 . S
C2612 C2608 1.328 . S
C2612 C2613 1.433 . S
C2612 H2626 0.931 . S
C2613 C2609 1.323 . S
C2613 C2612 1.433 . S
C2613 H2627 0.933 . S
C2614 Dy2592 2.738 . S
C2614 O2597 1.255 . S
C2614 O2598 1.249 . S
C2614 C2608 1.516 . S
C2615 O2599 1.254 . S
C2615 O2600 1.257 . S
C2616 O2601 1.266 . S
C2616 O2602 1.236 . S
C2617 C2620 1.344 . S
C2617 C2621 1.328 . S
C2617 C2623 1.516 . S
C2618 C2619 1.304 . S
C2618 C2622 1.323 . S
C2619 C2618 1.304 . S
C2619 C2620 1.371 . S
C2619 H2628 0.930 . S
C2620 C2617 1.344 . S
C2620 C2619 1.371 . S
C2620 H2629 0.931 . S
C2621 C2617 1.328 . S
C2621 C2622 1.433 . S
C2621 H2630 0.931 . S
C2622 C2618 1.323 . S
C2622 C2621 1.433 . S
C2622 H2631 0.933 . S
C2623 Dy2593 2.738 . S
C2623 O2603 1.255 . S
C2623 O2604 1.249 . S
C2623 C2617 1.516 . S
H2624 C2610 0.930 . S
H2625 C2611 0.931 . S
H2626 C2612 0.931 . S
H2627 C2613 0.933 . S
H2628 C2619 0.930 . S
H2629 C2620 0.931 . S
H2630 C2621 0.931 . S
H2631 C2622 0.933 . S
Dy2632 O2635 2.307 . S
Dy2632 O2637 2.395 . S
Dy2632 O2638 2.379 . S
Dy2632 O2640 2.339 . S
Dy2632 O2642 2.298 . S
Dy2632 O2646 2.275 . S
Dy2632 C2654 2.738 . S
Dy2633 O2636 2.298 . S
Dy2633 O2639 2.275 . S
Dy2633 O2641 2.307 . S
Dy2633 O2643 2.395 . S
Dy2633 O2644 2.379 . S
Dy2633 O2647 2.339 . S
Dy2633 C2663 2.738 . S
C2634 O2646 1.254 . S
C2634 O2647 1.257 . S
O2635 Dy2632 2.307 . S
O2635 C2645 1.266 . S
O2636 Dy2633 2.298 . S
O2636 C2645 1.236 . S
O2637 Dy2632 2.395 . S
O2637 C2654 1.255 . S
O2638 Dy2632 2.379 . S
O2638 C2654 1.249 . S
O2639 Dy2633 2.275 . S
O2639 C2655 1.254 . S
O2640 Dy2632 2.339 . S
O2640 C2655 1.257 . S
O2641 Dy2633 2.307 . S
O2641 C2656 1.266 . S
O2642 Dy2632 2.298 . S
O2642 C2656 1.236 . S
O2643 Dy2633 2.395 . S
O2643 C2663 1.255 . S
O2644 Dy2633 2.379 . S
O2644 C2663 1.249 . S
C2645 O2635 1.266 . S
C2645 O2636 1.236 . S
O2646 Dy2632 2.275 . S
O2646 C2634 1.254 . S
O2647 Dy2633 2.339 . S
O2647 C2634 1.257 . S
C2648 C2651 1.344 . S
C2648 C2652 1.328 . S
C2648 C2654 1.516 . S
C2649 C2650 1.304 . S
C2649 C2653 1.323 . S
C2650 C2649 1.304 . S
C2650 C2651 1.371 . S
C2650 H2664 0.930 . S
C2651 C2648 1.344 . S
C2651 C2650 1.371 . S
C2651 H2665 0.931 . S
C2652 C2648 1.328 . S
C2652 C2653 1.433 . S
C2652 H2666 0.931 . S
C2653 C2649 1.323 . S
C2653 C2652 1.433 . S
C2653 H2667 0.933 . S
C2654 Dy2632 2.738 . S
C2654 O2637 1.255 . S
C2654 O2638 1.249 . S
C2654 C2648 1.516 . S
C2655 O2639 1.254 . S
C2655 O2640 1.257 . S
C2656 O2641 1.266 . S
C2656 O2642 1.236 . S
C2657 C2660 1.344 . S
C2657 C2661 1.328 . S
C2657 C2663 1.516 . S
C2658 C2659 1.304 . S
C2658 C2662 1.323 . S
C2659 C2658 1.304 . S
C2659 C2660 1.371 . S
C2659 H2668 0.930 . S
C2660 C2657 1.344 . S
C2660 C2659 1.371 . S
C2660 H2669 0.931 . S
C2661 C2657 1.328 . S
C2661 C2662 1.433 . S
C2661 H2670 0.931 . S
C2662 C2658 1.323 . S
C2662 C2661 1.433 . S
C2662 H2671 0.933 . S
C2663 Dy2633 2.738 . S
C2663 O2643 1.255 . S
C2663 O2644 1.249 . S
C2663 C2657 1.516 . S
H2664 C2650 0.930 . S
H2665 C2651 0.931 . S
H2666 C2652 0.931 . S
H2667 C2653 0.933 . S
H2668 C2659 0.930 . S
H2669 C2660 0.931 . S
H2670 C2661 0.931 . S
H2671 C2662 0.933 . S
Dy2672 O2675 2.307 . S
Dy2672 O2677 2.395 . S
Dy2672 O2678 2.379 . S
Dy2672 O2680 2.339 . S
Dy2672 O2682 2.298 . S
Dy2672 O2686 2.275 . S
Dy2672 C2694 2.738 . S
Dy2673 O2676 2.298 . S
Dy2673 O2679 2.275 . S
Dy2673 O2681 2.307 . S
Dy2673 O2683 2.395 . S
Dy2673 O2684 2.379 . S
Dy2673 O2687 2.339 . S
Dy2673 C2703 2.738 . S
C2674 O2686 1.254 . S
C2674 O2687 1.257 . S
O2675 Dy2672 2.307 . S
O2675 C2685 1.266 . S
O2676 Dy2673 2.298 . S
O2676 C2685 1.236 . S
O2677 Dy2672 2.395 . S
O2677 C2694 1.255 . S
O2678 Dy2672 2.379 . S
O2678 C2694 1.249 . S
O2679 Dy2673 2.275 . S
O2679 C2695 1.254 . S
O2680 Dy2672 2.339 . S
O2680 C2695 1.257 . S
O2681 Dy2673 2.307 . S
O2681 C2696 1.266 . S
O2682 Dy2672 2.298 . S
O2682 C2696 1.236 . S
O2683 Dy2673 2.395 . S
O2683 C2703 1.255 . S
O2684 Dy2673 2.379 . S
O2684 C2703 1.249 . S
C2685 O2675 1.266 . S
C2685 O2676 1.236 . S
O2686 Dy2672 2.275 . S
O2686 C2674 1.254 . S
O2687 Dy2673 2.339 . S
O2687 C2674 1.257 . S
C2688 C2691 1.344 . S
C2688 C2692 1.328 . S
C2688 C2694 1.516 . S
C2689 C2690 1.304 . S
C2689 C2693 1.323 . S
C2690 C2689 1.304 . S
C2690 C2691 1.371 . S
C2690 H2704 0.930 . S
C2691 C2688 1.344 . S
C2691 C2690 1.371 . S
C2691 H2705 0.931 . S
C2692 C2688 1.328 . S
C2692 C2693 1.433 . S
C2692 H2706 0.931 . S
C2693 C2689 1.323 . S
C2693 C2692 1.433 . S
C2693 H2707 0.933 . S
C2694 Dy2672 2.738 . S
C2694 O2677 1.255 . S
C2694 O2678 1.249 . S
C2694 C2688 1.516 . S
C2695 O2679 1.254 . S
C2695 O2680 1.257 . S
C2696 O2681 1.266 . S
C2696 O2682 1.236 . S
C2697 C2700 1.344 . S
C2697 C2701 1.328 . S
C2697 C2703 1.516 . S
C2698 C2699 1.304 . S
C2698 C2702 1.323 . S
C2699 C2698 1.304 . S
C2699 C2700 1.371 . S
C2699 H2708 0.930 . S
C2700 C2697 1.344 . S
C2700 C2699 1.371 . S
C2700 H2709 0.931 . S
C2701 C2697 1.328 . S
C2701 C2702 1.433 . S
C2701 H2710 0.931 . S
C2702 C2698 1.323 . S
C2702 C2701 1.433 . S
C2702 H2711 0.933 . S
C2703 Dy2673 2.738 . S
C2703 O2683 1.255 . S
C2703 O2684 1.249 . S
C2703 C2697 1.516 . S
H2704 C2690 0.930 . S
H2705 C2691 0.931 . S
H2706 C2692 0.931 . S
H2707 C2693 0.933 . S
H2708 C2699 0.930 . S
H2709 C2700 0.931 . S
H2710 C2701 0.931 . S
H2711 C2702 0.933 . S
Dy2712 O2715 2.282 1_655 S
Dy2712 O2717 2.435 . S
Dy2712 O2718 2.416 . S
Dy2712 O2720 2.315 1_655 S
Dy2712 O2722 2.283 1_655 S
Dy2712 O2726 2.255 1_655 S
Dy2712 C2734 2.782 . S
Dy2713 O2716 2.298 . S
Dy2713 O2719 2.275 . S
Dy2713 O2721 2.307 . S
Dy2713 O2723 2.395 . S
Dy2713 O2724 2.379 1_554 S
Dy2713 O2727 2.339 1_554 S
Dy2713 C2743 2.738 . S
C2714 O2726 1.254 1_556 S
C2714 O2727 1.257 . S
O2715 Dy2712 2.282 1_455 S
O2715 C2725 1.266 . S
O2716 Dy2713 2.298 . S
O2716 C2725 1.236 . S
O2717 Dy2712 2.435 . S
O2717 C2734 1.255 . S
O2718 Dy2712 2.416 . S
O2718 C2734 1.249 . S
O2719 Dy2713 2.275 . S
O2719 C2735 1.254 . S
O2720 Dy2712 2.315 1_455 S
O2720 C2735 1.257 . S
O2721 Dy2713 2.307 . S
O2721 C2736 1.266 . S
O2722 Dy2712 2.283 1_455 S
O2722 C2736 1.236 . S
O2723 Dy2713 2.395 . S
O2723 C2743 1.255 . S
O2724 Dy2713 2.379 1_556 S
O2724 C2743 1.249 1_556 S
C2725 O2715 1.266 . S
C2725 O2716 1.236 . S
O2726 Dy2712 2.255 1_455 S
O2726 C2714 1.254 1_554 S
O2727 Dy2713 2.339 1_556 S
O2727 C2714 1.257 . S
C2728 C2731 1.344 . S
C2728 C2732 1.328 . S
C2728 C2734 1.516 . S
C2729 C2730 1.304 . S
C2729 C2733 1.323 . S
C2730 C2729 1.304 . S
C2730 C2731 1.371 . S
C2730 H2744 0.930 . S
C2731 C2728 1.344 . S
C2731 C2730 1.371 . S
C2731 H2745 0.931 . S
C2732 C2728 1.328 . S
C2732 C2733 1.433 . S
C2732 H2746 0.931 . S
C2733 C2729 1.323 . S
C2733 C2732 1.433 . S
C2733 H2747 0.933 . S
C2734 Dy2712 2.782 . S
C2734 O2717 1.255 . S
C2734 O2718 1.249 . S
C2734 C2728 1.516 . S
C2735 O2719 1.254 . S
C2735 O2720 1.257 . S
C2736 O2721 1.266 . S
C2736 O2722 1.236 . S
C2737 C2740 1.344 . S
C2737 C2741 1.328 1_554 S
C2737 C2743 1.516 . S
C2738 C2739 1.304 1_556 S
C2738 C2742 1.323 . S
C2739 C2738 1.304 1_554 S
C2739 C2740 1.371 . S
C2739 H2748 0.930 . S
C2740 C2737 1.344 . S
C2740 C2739 1.371 . S
C2740 H2749 0.931 . S
C2741 C2737 1.328 1_556 S
C2741 C2742 1.433 . S
C2741 H2750 0.931 . S
C2742 C2738 1.323 . S
C2742 C2741 1.433 . S
C2742 H2751 0.933 . S
C2743 Dy2713 2.738 . S
C2743 O2723 1.255 . S
C2743 O2724 1.249 1_554 S
C2743 C2737 1.516 . S
H2744 C2730 0.930 . S
H2745 C2731 0.931 . S
H2746 C2732 0.931 . S
H2747 C2733 0.933 . S
H2748 C2739 0.930 . S
H2749 C2740 0.931 . S
H2750 C2741 0.931 . S
H2751 C2742 0.933 . S
H2752 C2770 0.951 . S
H2753 C2772 0.951 . S
H2754 C2774 0.950 . S
H2755 C2775 0.950 . S
H2756 C2777 0.950 . S
H2757 C2780 0.950 . S
H2758 C2781 0.950 . S
H2759 C2783 0.950 . S
H2760 C2784 0.950 . S
H2761 C2785 0.951 1_655 S
H2762 C2787 0.888 1_655 S
H2763 C2789 0.950 . S
H2764 C2790 0.950 . S
H2765 C2792 0.950 . S
H2766 C2795 0.950 1_455 S
H2767 C2796 0.950 . S
H2768 C2798 0.950 . S
H2769 C2799 0.950 . S
C2770 H2752 0.951 . S
C2770 C2771 1.366 1_455 S
C2770 C2772 1.388 . S
C2771 C2770 1.366 1_655 S
C2771 C2775 1.385 . S
C2772 H2753 0.951 . S
C2772 C2770 1.388 . S
C2772 C2773 1.366 . S
C2773 C2772 1.366 . S
C2773 C2774 1.414 1_455 S
C2773 C2776 1.499 . S
C2774 H2754 0.950 . S
C2774 C2773 1.414 1_655 S
C2774 C2775 1.374 . S
C2775 H2755 0.950 . S
C2775 C2771 1.385 . S
C2775 C2774 1.374 . S
C2776 C2773 1.499 . S
C2776 C2777 1.373 1_456 S
C2776 C2778 1.389 . S
C2777 H2756 0.950 . S
C2777 C2776 1.373 1_654 S
C2777 C2793 1.377 . S
C2778 C2776 1.389 . S
C2778 C2779 1.524 . S
C2778 C2792 1.377 . S
C2779 C2778 1.524 . S
C2779 C2780 1.397 . S
C2779 C2784 1.363 . S
C2780 H2757 0.950 . S
C2780 C2779 1.397 . S
C2780 C2781 1.334 . S
C2781 H2758 0.950 . S
C2781 C2780 1.334 . S
C2781 C2782 1.287 . S
C2782 C2781 1.287 . S
C2782 C2783 1.524 . S
C2782 H2801 0.913 . S
C2783 H2759 0.950 . S
C2783 C2782 1.524 . S
C2783 C2784 1.415 . S
C2784 H2760 0.950 . S
C2784 C2779 1.363 . S
C2784 C2783 1.415 . S
C2785 H2761 0.951 1_455 S
C2785 C2786 1.366 . S
C2785 C2787 1.414 . S
C2786 C2785 1.366 . S
C2786 C2790 1.385 . S
C2787 H2762 0.888 1_455 S
C2787 C2785 1.414 . S
C2787 C2788 1.404 . S
C2788 C2787 1.404 . S
C2788 C2789 1.414 . S
C2788 C2791 1.499 . S
C2789 H2763 0.950 . S
C2789 C2788 1.414 . S
C2789 C2790 1.374 . S
C2790 H2764 0.950 . S
C2790 C2786 1.385 . S
C2790 C2789 1.374 . S
C2791 C2788 1.499 . S
C2791 C2792 1.373 1_554 S
C2791 C2793 1.389 1_455 S
C2792 H2765 0.950 . S
C2792 C2778 1.377 . S
C2792 C2791 1.373 1_556 S
C2793 C2777 1.377 . S
C2793 C2791 1.389 1_655 S
C2793 C2794 1.524 . S
C2794 C2793 1.524 . S
C2794 C2795 1.397 . S
C2794 C2799 1.363 . S
C2795 H2766 0.950 1_655 S
C2795 C2794 1.397 . S
C2795 C2796 1.334 . S
C2796 H2767 0.950 . S
C2796 C2795 1.334 . S
C2796 C2797 1.287 . S
C2797 C2796 1.287 . S
C2797 C2798 1.524 . S
C2797 H2800 0.999 . S
C2798 H2768 0.950 . S
C2798 C2797 1.524 . S
C2798 C2799 1.415 . S
C2799 H2769 0.950 . S
C2799 C2794 1.363 . S
C2799 C2798 1.415 . S
H2800 C2797 0.999 . S
H2801 C2782 0.913 . S
H2802 C2820 0.951 . S
H2803 C2822 0.951 . S
H2804 C2824 0.950 . S
H2805 C2825 0.950 . S
H2806 C2827 0.950 . S
H2807 C2830 0.950 . S
H2808 C2831 0.950 . S
H2809 C2833 0.950 . S
H2810 C2834 0.950 . S
H2811 C2835 0.951 . S
H2812 C2837 0.951 . S
H2813 C2839 0.950 . S
H2814 C2840 0.950 . S
H2815 C2842 0.950 . S
H2816 C2845 0.950 . S
H2817 C2846 0.950 . S
H2818 C2848 0.950 . S
H2819 C2849 0.950 . S
C2820 H2802 0.951 . S
C2820 C2821 1.366 . S
C2820 C2822 1.388 . S
C2821 C2820 1.366 . S
C2821 C2825 1.385 . S
C2822 H2803 0.951 . S
C2822 C2820 1.388 . S
C2822 C2823 1.366 . S
C2823 C2822 1.366 . S
C2823 C2824 1.414 . S
C2823 C2826 1.499 . S
C2824 H2804 0.950 . S
C2824 C2823 1.414 . S
C2824 C2825 1.374 . S
C2825 H2805 0.950 . S
C2825 C2821 1.385 . S
C2825 C2824 1.374 . S
C2826 C2823 1.499 . S
C2826 C2827 1.373 . S
C2826 C2828 1.389 . S
C2827 H2806 0.950 . S
C2827 C2826 1.373 . S
C2827 C2843 1.377 . S
C2828 C2826 1.389 . S
C2828 C2829 1.524 . S
C2828 C2842 1.377 . S
C2829 C2828 1.524 . S
C2829 C2830 1.397 . S
C2829 C2834 1.363 . S
C2830 H2807 0.950 . S
C2830 C2829 1.397 . S
C2830 C2831 1.334 . S
C2831 H2808 0.950 . S
C2831 C2830 1.334 . S
C2831 C2832 1.287 . S
C2832 C2831 1.287 . S
C2832 C2833 1.524 . S
C2832 H2851 0.913 . S
C2833 H2809 0.950 . S
C2833 C2832 1.524 . S
C2833 C2834 1.415 . S
C2834 H2810 0.950 . S
C2834 C2829 1.363 . S
C2834 C2833 1.415 . S
C2835 H2811 0.951 . S
C2835 C2836 1.366 . S
C2835 C2837 1.388 . S
C2836 C2835 1.366 . S
C2836 C2840 1.385 . S
C2837 H2812 0.951 . S
C2837 C2835 1.388 . S
C2837 C2838 1.366 . S
C2838 C2837 1.366 . S
C2838 C2839 1.414 . S
C2838 C2841 1.499 . S
C2839 H2813 0.950 . S
C2839 C2838 1.414 . S
C2839 C2840 1.374 . S
C2840 H2814 0.950 . S
C2840 C2836 1.385 . S
C2840 C2839 1.374 . S
C2841 C2838 1.499 . S
C2841 C2842 1.373 . S
C2841 C2843 1.389 . S
C2842 H2815 0.950 . S
C2842 C2828 1.377 . S
C2842 C2841 1.373 . S
C2843 C2827 1.377 . S
C2843 C2841 1.389 . S
C2843 C2844 1.524 . S
C2844 C2843 1.524 . S
C2844 C2845 1.397 . S
C2844 C2849 1.363 . S
C2845 H2816 0.950 . S
C2845 C2844 1.397 . S
C2845 C2846 1.334 . S
C2846 H2817 0.950 . S
C2846 C2845 1.334 . S
C2846 C2847 1.287 . S
C2847 C2846 1.287 . S
C2847 C2848 1.524 . S
C2847 H2850 0.999 . S
C2848 H2818 0.950 . S
C2848 C2847 1.524 . S
C2848 C2849 1.415 . S
C2849 H2819 0.950 . S
C2849 C2844 1.363 . S
C2849 C2848 1.415 . S
H2850 C2847 0.999 . S
H2851 C2832 0.913 . S
H2852 C2870 0.951 . S
H2853 C2872 0.951 . S
H2854 C2874 0.950 . S
H2855 C2875 0.950 . S
H2856 C2877 0.950 . S
H2857 C2880 0.950 . S
H2858 C2881 0.950 . S
H2859 C2883 0.950 . S
H2860 C2884 0.950 . S
H2861 C2885 0.951 . S
H2862 C2887 0.951 . S
H2863 C2889 0.950 . S
H2864 C2890 0.950 . S
H2865 C2892 0.950 . S
H2866 C2895 0.950 . S
H2867 C2896 0.950 . S
H2868 C2898 0.950 . S
H2869 C2899 0.950 . S
C2870 H2852 0.951 . S
C2870 C2871 1.366 . S
C2870 C2872 1.388 . S
C2871 C2870 1.366 . S
C2871 C2875 1.385 . S
C2872 H2853 0.951 . S
C2872 C2870 1.388 . S
C2872 C2873 1.366 . S
C2873 C2872 1.366 . S
C2873 C2874 1.414 . S
C2873 C2876 1.499 . S
C2874 H2854 0.950 . S
C2874 C2873 1.414 . S
C2874 C2875 1.374 . S
C2875 H2855 0.950 . S
C2875 C2871 1.385 . S
C2875 C2874 1.374 . S
C2876 C2873 1.499 . S
C2876 C2877 1.373 . S
C2876 C2878 1.389 . S
C2877 H2856 0.950 . S
C2877 C2876 1.373 . S
C2877 C2893 1.377 . S
C2878 C2876 1.389 . S
C2878 C2879 1.524 . S
C2878 C2892 1.377 . S
C2879 C2878 1.524 . S
C2879 C2880 1.397 . S
C2879 C2884 1.363 . S
C2880 H2857 0.950 . S
C2880 C2879 1.397 . S
C2880 C2881 1.334 . S
C2881 H2858 0.950 . S
C2881 C2880 1.334 . S
C2881 C2882 1.287 . S
C2882 C2881 1.287 . S
C2882 C2883 1.524 . S
C2882 H2901 0.913 . S
C2883 H2859 0.950 . S
C2883 C2882 1.524 . S
C2883 C2884 1.415 . S
C2884 H2860 0.950 . S
C2884 C2879 1.363 . S
C2884 C2883 1.415 . S
C2885 H2861 0.951 . S
C2885 C2886 1.366 . S
C2885 C2887 1.388 . S
C2886 C2885 1.366 . S
C2886 C2890 1.385 . S
C2887 H2862 0.951 . S
C2887 C2885 1.388 . S
C2887 C2888 1.366 . S
C2888 C2887 1.366 . S
C2888 C2889 1.414 . S
C2888 C2891 1.499 . S
C2889 H2863 0.950 . S
C2889 C2888 1.414 . S
C2889 C2890 1.374 . S
C2890 H2864 0.950 . S
C2890 C2886 1.385 . S
C2890 C2889 1.374 . S
C2891 C2888 1.499 . S
C2891 C2892 1.373 . S
C2891 C2893 1.389 . S
C2892 H2865 0.950 . S
C2892 C2878 1.377 . S
C2892 C2891 1.373 . S
C2893 C2877 1.377 . S
C2893 C2891 1.389 . S
C2893 C2894 1.524 . S
C2894 C2893 1.524 . S
C2894 C2895 1.397 . S
C2894 C2899 1.363 . S
C2895 H2866 0.950 . S
C2895 C2894 1.397 . S
C2895 C2896 1.334 . S
C2896 H2867 0.950 . S
C2896 C2895 1.334 . S
C2896 C2897 1.287 . S
C2897 C2896 1.287 . S
C2897 C2898 1.524 . S
C2897 H2900 0.999 . S
C2898 H2868 0.950 . S
C2898 C2897 1.524 . S
C2898 C2899 1.415 . S
C2899 H2869 0.950 . S
C2899 C2894 1.363 . S
C2899 C2898 1.415 . S
H2900 C2897 0.999 . S
H2901 C2882 0.913 . S
H2902 C2920 0.951 . S
H2903 C2922 0.951 . S
H2904 C2924 0.950 . S
H2905 C2925 0.950 . S
H2906 C2927 0.950 . S
H2907 C2930 0.950 . S
H2908 C2931 0.950 . S
H2909 C2933 0.950 . S
H2910 C2934 0.950 . S
H2911 C2935 0.951 . S
H2912 C2937 0.951 . S
H2913 C2939 0.950 . S
H2914 C2940 0.950 . S
H2915 C2942 0.950 . S
H2916 C2945 0.950 . S
H2917 C2946 0.950 . S
H2918 C2948 0.950 . S
H2919 C2949 0.950 . S
C2920 H2902 0.951 . S
C2920 C2921 1.366 . S
C2920 C2922 1.388 . S
C2921 C2920 1.366 . S
C2921 C2925 1.385 . S
C2922 H2903 0.951 . S
C2922 C2920 1.388 . S
C2922 C2923 1.366 . S
C2923 C2922 1.366 . S
C2923 C2924 1.414 . S
C2923 C2926 1.499 . S
C2924 H2904 0.950 . S
C2924 C2923 1.414 . S
C2924 C2925 1.374 . S
C2925 H2905 0.950 . S
C2925 C2921 1.385 . S
C2925 C2924 1.374 . S
C2926 C2923 1.499 . S
C2926 C2927 1.373 . S
C2926 C2928 1.389 . S
C2927 H2906 0.950 . S
C2927 C2926 1.373 . S
C2927 C2943 1.377 . S
C2928 C2926 1.389 . S
C2928 C2929 1.524 . S
C2928 C2942 1.377 . S
C2929 C2928 1.524 . S
C2929 C2930 1.397 . S
C2929 C2934 1.363 . S
C2930 H2907 0.950 . S
C2930 C2929 1.397 . S
C2930 C2931 1.334 . S
C2931 H2908 0.950 . S
C2931 C2930 1.334 . S
C2931 C2932 1.287 . S
C2932 C2931 1.287 . S
C2932 C2933 1.524 . S
C2932 H2951 0.913 . S
C2933 H2909 0.950 . S
C2933 C2932 1.524 . S
C2933 C2934 1.415 . S
C2934 H2910 0.950 . S
C2934 C2929 1.363 . S
C2934 C2933 1.415 . S
C2935 H2911 0.951 . S
C2935 C2936 1.366 . S
C2935 C2937 1.388 . S
C2936 C2935 1.366 . S
C2936 C2940 1.385 . S
C2937 H2912 0.951 . S
C2937 C2935 1.388 . S
C2937 C2938 1.366 . S
C2938 C2937 1.366 . S
C2938 C2939 1.414 . S
C2938 C2941 1.499 . S
C2939 H2913 0.950 . S
C2939 C2938 1.414 . S
C2939 C2940 1.374 . S
C2940 H2914 0.950 . S
C2940 C2936 1.385 . S
C2940 C2939 1.374 . S
C2941 C2938 1.499 . S
C2941 C2942 1.373 . S
C2941 C2943 1.389 . S
C2942 H2915 0.950 . S
C2942 C2928 1.377 . S
C2942 C2941 1.373 . S
C2943 C2927 1.377 . S
C2943 C2941 1.389 . S
C2943 C2944 1.524 . S
C2944 C2943 1.524 . S
C2944 C2945 1.397 . S
C2944 C2949 1.363 . S
C2945 H2916 0.950 . S
C2945 C2944 1.397 . S
C2945 C2946 1.334 . S
C2946 H2917 0.950 . S
C2946 C2945 1.334 . S
C2946 C2947 1.287 . S
C2947 C2946 1.287 . S
C2947 C2948 1.524 . S
C2947 H2950 0.999 . S
C2948 H2918 0.950 . S
C2948 C2947 1.524 . S
C2948 C2949 1.415 . S
C2949 H2919 0.950 . S
C2949 C2944 1.363 . S
C2949 C2948 1.415 . S
H2950 C2947 0.999 . S
H2951 C2932 0.913 . S
H2952 C2970 0.951 . S
H2953 C2972 0.951 . S
H2954 C2974 0.950 . S
H2955 C2975 0.950 . S
H2956 C2977 0.950 . S
H2957 C2980 0.950 . S
H2958 C2981 0.950 . S
H2959 C2983 0.950 . S
H2960 C2984 0.950 . S
H2961 C2985 0.951 . S
H2962 C2987 0.951 . S
H2963 C2989 0.950 . S
H2964 C2990 0.950 . S
H2965 C2992 0.950 . S
H2966 C2995 0.950 1_455 S
H2967 C2996 0.950 . S
H2968 C2998 0.950 . S
H2969 C2999 0.950 . S
C2970 H2952 0.951 . S
C2970 C2971 1.366 . S
C2970 C2972 1.388 . S
C2971 C2970 1.366 . S
C2971 C2975 1.385 . S
C2972 H2953 0.951 . S
C2972 C2970 1.388 . S
C2972 C2973 1.366 . S
C2973 C2972 1.366 . S
C2973 C2974 1.414 . S
C2973 C2976 1.499 . S
C2974 H2954 0.950 . S
C2974 C2973 1.414 . S
C2974 C2975 1.374 . S
C2975 H2955 0.950 . S
C2975 C2971 1.385 . S
C2975 C2974 1.374 . S
C2976 C2973 1.499 . S
C2976 C2977 1.373 . S
C2976 C2978 1.389 . S
C2977 H2956 0.950 . S
C2977 C2976 1.373 . S
C2977 C2993 1.377 . S
C2978 C2976 1.389 . S
C2978 C2979 1.524 . S
C2978 C2992 1.377 . S
C2979 C2978 1.524 . S
C2979 C2980 1.397 . S
C2979 C2984 1.363 . S
C2980 H2957 0.950 . S
C2980 C2979 1.397 . S
C2980 C2981 1.334 . S
C2981 H2958 0.950 . S
C2981 C2980 1.334 . S
C2981 C2982 1.287 . S
C2982 C2981 1.287 . S
C2982 C2983 1.524 . S
C2982 H3001 0.913 . S
C2983 H2959 0.950 . S
C2983 C2982 1.524 . S
C2983 C2984 1.415 . S
C2984 H2960 0.950 . S
C2984 C2979 1.363 . S
C2984 C2983 1.415 . S
C2985 H2961 0.951 . S
C2985 C2986 1.366 . S
C2985 C2987 1.388 . S
C2986 C2985 1.366 . S
C2986 C2990 1.385 . S
C2987 H2962 0.951 . S
C2987 C2985 1.388 . S
C2987 C2988 1.366 . S
C2988 C2987 1.366 . S
C2988 C2989 1.414 . S
C2988 C2991 1.499 . S
C2989 H2963 0.950 . S
C2989 C2988 1.414 . S
C2989 C2990 1.374 . S
C2990 H2964 0.950 . S
C2990 C2986 1.385 . S
C2990 C2989 1.374 . S
C2991 C2988 1.499 . S
C2991 C2992 1.373 . S
C2991 C2993 1.389 . S
C2992 H2965 0.950 . S
C2992 C2978 1.377 . S
C2992 C2991 1.373 . S
C2993 C2977 1.377 . S
C2993 C2991 1.389 . S
C2993 C2994 1.524 . S
C2994 C2993 1.524 . S
C2994 C2995 1.397 1_455 S
C2994 C2999 1.363 1_455 S
C2995 H2966 0.950 1_655 S
C2995 C2994 1.397 1_655 S
C2995 C2996 1.334 . S
C2996 H2967 0.950 . S
C2996 C2995 1.334 . S
C2996 C2997 1.287 . S
C2997 C2996 1.287 . S
C2997 C2998 1.524 . S
C2997 H3000 0.999 . S
C2998 H2968 0.950 . S
C2998 C2997 1.524 . S
C2998 C2999 1.415 . S
C2999 H2969 0.950 . S
C2999 C2994 1.363 1_655 S
C2999 C2998 1.415 . S
H3000 C2997 0.999 . S
H3001 C2982 0.913 . S
H3002 C3020 0.951 . S
H3003 C3022 0.951 . S
H3004 C3024 0.950 . S
H3005 C3025 0.950 . S
H3006 C3027 0.950 . S
H3007 C3030 0.950 . S
H3008 C3031 0.950 . S
H3009 C3033 0.950 . S
H3010 C3034 0.950 . S
H3011 C3035 0.951 . S
H3012 C3037 0.951 . S
H3013 C3039 0.950 . S
H3014 C3040 0.950 . S
H3015 C3042 0.950 . S
H3016 C3045 0.950 . S
H3017 C3046 0.950 . S
H3018 C3048 0.950 . S
H3019 C3049 0.950 . S
C3020 H3002 0.951 . S
C3020 C3021 1.366 . S
C3020 C3022 1.388 . S
C3021 C3020 1.366 . S
C3021 C3025 1.385 . S
C3022 H3003 0.951 . S
C3022 C3020 1.388 . S
C3022 C3023 1.366 . S
C3023 C3022 1.366 . S
C3023 C3024 1.414 . S
C3023 C3026 1.499 . S
C3024 H3004 0.950 . S
C3024 C3023 1.414 . S
C3024 C3025 1.374 . S
C3025 H3005 0.950 . S
C3025 C3021 1.385 . S
C3025 C3024 1.374 . S
C3026 C3023 1.499 . S
C3026 C3027 1.373 . S
C3026 C3028 1.389 . S
C3027 H3006 0.950 . S
C3027 C3026 1.373 . S
C3027 C3043 1.377 . S
C3028 C3026 1.389 . S
C3028 C3029 1.524 . S
C3028 C3042 1.377 . S
C3029 C3028 1.524 . S
C3029 C3030 1.397 . S
C3029 C3034 1.363 . S
C3030 H3007 0.950 . S
C3030 C3029 1.397 . S
C3030 C3031 1.334 . S
C3031 H3008 0.950 . S
C3031 C3030 1.334 . S
C3031 C3032 1.287 . S
C3032 C3031 1.287 . S
C3032 C3033 1.524 . S
C3032 H3051 0.913 . S
C3033 H3009 0.950 . S
C3033 C3032 1.524 . S
C3033 C3034 1.415 . S
C3034 H3010 0.950 . S
C3034 C3029 1.363 . S
C3034 C3033 1.415 . S
C3035 H3011 0.951 . S
C3035 C3036 1.366 . S
C3035 C3037 1.388 . S
C3036 C3035 1.366 . S
C3036 C3040 1.385 . S
C3037 H3012 0.951 . S
C3037 C3035 1.388 . S
C3037 C3038 1.366 . S
C3038 C3037 1.366 . S
C3038 C3039 1.414 . S
C3038 C3041 1.499 . S
C3039 H3013 0.950 . S
C3039 C3038 1.414 . S
C3039 C3040 1.374 . S
C3040 H3014 0.950 . S
C3040 C3036 1.385 . S
C3040 C3039 1.374 . S
C3041 C3038 1.499 . S
C3041 C3042 1.373 . S
C3041 C3043 1.389 . S
C3042 H3015 0.950 . S
C3042 C3028 1.377 . S
C3042 C3041 1.373 . S
C3043 C3027 1.377 . S
C3043 C3041 1.389 . S
C3043 C3044 1.524 . S
C3044 C3043 1.524 . S
C3044 C3045 1.397 . S
C3044 C3049 1.363 . S
C3045 H3016 0.950 . S
C3045 C3044 1.397 . S
C3045 C3046 1.334 . S
C3046 H3017 0.950 . S
C3046 C3045 1.334 . S
C3046 C3047 1.287 . S
C3047 C3046 1.287 . S
C3047 C3048 1.524 . S
C3047 H3050 0.999 . S
C3048 H3018 0.950 . S
C3048 C3047 1.524 . S
C3048 C3049 1.415 . S
C3049 H3019 0.950 . S
C3049 C3044 1.363 . S
C3049 C3048 1.415 . S
H3050 C3047 0.999 . S
H3051 C3032 0.913 . S
H3052 C3070 0.951 . S
H3053 C3072 0.951 . S
H3054 C3074 0.950 . S
H3055 C3075 0.950 . S
H3056 C3077 0.950 . S
H3057 C3080 0.950 . S
H3058 C3081 0.950 . S
H3059 C3083 0.950 . S
H3060 C3084 0.950 . S
H3061 C3085 0.951 . S
H3062 C3087 0.951 . S
H3063 C3089 0.950 . S
H3064 C3090 0.950 . S
H3065 C3092 0.950 . S
H3066 C3095 0.950 . S
H3067 C3096 0.950 . S
H3068 C3098 0.950 . S
H3069 C3099 0.950 . S
C3070 H3052 0.951 . S
C3070 C3071 1.366 . S
C3070 C3072 1.388 . S
C3071 C3070 1.366 . S
C3071 C3075 1.385 . S
C3072 H3053 0.951 . S
C3072 C3070 1.388 . S
C3072 C3073 1.366 . S
C3073 C3072 1.366 . S
C3073 C3074 1.414 . S
C3073 C3076 1.499 . S
C3074 H3054 0.950 . S
C3074 C3073 1.414 . S
C3074 C3075 1.374 . S
C3075 H3055 0.950 . S
C3075 C3071 1.385 . S
C3075 C3074 1.374 . S
C3076 C3073 1.499 . S
C3076 C3077 1.373 . S
C3076 C3078 1.389 . S
C3077 H3056 0.950 . S
C3077 C3076 1.373 . S
C3077 C3093 1.377 . S
C3078 C3076 1.389 . S
C3078 C3079 1.524 . S
C3078 C3092 1.377 . S
C3079 C3078 1.524 . S
C3079 C3080 1.397 . S
C3079 C3084 1.363 . S
C3080 H3057 0.950 . S
C3080 C3079 1.397 . S
C3080 C3081 1.334 . S
C3081 H3058 0.950 . S
C3081 C3080 1.334 . S
C3081 C3082 1.287 . S
C3082 C3081 1.287 . S
C3082 C3083 1.524 . S
C3082 H3101 0.913 . S
C3083 H3059 0.950 . S
C3083 C3082 1.524 . S
C3083 C3084 1.415 . S
C3084 H3060 0.950 . S
C3084 C3079 1.363 . S
C3084 C3083 1.415 . S
C3085 H3061 0.951 . S
C3085 C3086 1.366 . S
C3085 C3087 1.388 . S
C3086 C3085 1.366 . S
C3086 C3090 1.385 . S
C3087 H3062 0.951 . S
C3087 C3085 1.388 . S
C3087 C3088 1.366 . S
C3088 C3087 1.366 . S
C3088 C3089 1.414 . S
C3088 C3091 1.499 . S
C3089 H3063 0.950 . S
C3089 C3088 1.414 . S
C3089 C3090 1.374 . S
C3090 H3064 0.950 . S
C3090 C3086 1.385 . S
C3090 C3089 1.374 . S
C3091 C3088 1.499 . S
C3091 C3092 1.373 . S
C3091 C3093 1.389 . S
C3092 H3065 0.950 . S
C3092 C3078 1.377 . S
C3092 C3091 1.373 . S
C3093 C3077 1.377 . S
C3093 C3091 1.389 . S
C3093 C3094 1.524 . S
C3094 C3093 1.524 . S
C3094 C3095 1.397 . S
C3094 C3099 1.363 . S
C3095 H3066 0.950 . S
C3095 C3094 1.397 . S
C3095 C3096 1.334 . S
C3096 H3067 0.950 . S
C3096 C3095 1.334 . S
C3096 C3097 1.287 . S
C3097 C3096 1.287 . S
C3097 C3098 1.524 . S
C3097 H3100 0.999 . S
C3098 H3068 0.950 . S
C3098 C3097 1.524 . S
C3098 C3099 1.415 . S
C3099 H3069 0.950 . S
C3099 C3094 1.363 . S
C3099 C3098 1.415 . S
H3100 C3097 0.999 . S
H3101 C3082 0.913 . S
H3102 C3120 0.951 . S
H3103 C3122 0.951 . S
H3104 C3124 0.950 . S
H3105 C3125 0.950 . S
H3106 C3127 0.950 . S
H3107 C3130 0.950 . S
H3108 C3131 0.950 . S
H3109 C3133 0.950 . S
H3110 C3134 0.950 . S
H3111 C3135 0.951 . S
H3112 C3137 0.951 . S
H3113 C3139 0.950 . S
H3114 C3140 0.950 . S
H3115 C3142 0.950 . S
H3116 C3145 0.950 . S
H3117 C3146 0.950 . S
H3118 C3148 0.950 . S
H3119 C3149 0.950 . S
C3120 H3102 0.951 . S
C3120 C3121 1.366 . S
C3120 C3122 1.388 . S
C3121 C3120 1.366 . S
C3121 C3125 1.385 . S
C3122 H3103 0.951 . S
C3122 C3120 1.388 . S
C3122 C3123 1.366 . S
C3123 C3122 1.366 . S
C3123 C3124 1.414 . S
C3123 C3126 1.499 . S
C3124 H3104 0.950 . S
C3124 C3123 1.414 . S
C3124 C3125 1.374 . S
C3125 H3105 0.950 . S
C3125 C3121 1.385 . S
C3125 C3124 1.374 . S
C3126 C3123 1.499 . S
C3126 C3127 1.373 . S
C3126 C3128 1.389 . S
C3127 H3106 0.950 . S
C3127 C3126 1.373 . S
C3127 C3143 1.377 . S
C3128 C3126 1.389 . S
C3128 C3129 1.524 . S
C3128 C3142 1.377 . S
C3129 C3128 1.524 . S
C3129 C3130 1.397 . S
C3129 C3134 1.363 . S
C3130 H3107 0.950 . S
C3130 C3129 1.397 . S
C3130 C3131 1.334 . S
C3131 H3108 0.950 . S
C3131 C3130 1.334 . S
C3131 C3132 1.287 . S
C3132 C3131 1.287 . S
C3132 C3133 1.524 . S
C3132 H3151 0.913 . S
C3133 H3109 0.950 . S
C3133 C3132 1.524 . S
C3133 C3134 1.415 . S
C3134 H3110 0.950 . S
C3134 C3129 1.363 . S
C3134 C3133 1.415 . S
C3135 H3111 0.951 . S
C3135 C3136 1.366 . S
C3135 C3137 1.388 . S
C3136 C3135 1.366 . S
C3136 C3140 1.385 . S
C3137 H3112 0.951 . S
C3137 C3135 1.388 . S
C3137 C3138 1.366 . S
C3138 C3137 1.366 . S
C3138 C3139 1.414 . S
C3138 C3141 1.499 . S
C3139 H3113 0.950 . S
C3139 C3138 1.414 . S
C3139 C3140 1.374 . S
C3140 H3114 0.950 . S
C3140 C3136 1.385 . S
C3140 C3139 1.374 . S
C3141 C3138 1.499 . S
C3141 C3142 1.373 . S
C3141 C3143 1.389 . S
C3142 H3115 0.950 . S
C3142 C3128 1.377 . S
C3142 C3141 1.373 . S
C3143 C3127 1.377 . S
C3143 C3141 1.389 . S
C3143 C3144 1.524 . S
C3144 C3143 1.524 . S
C3144 C3145 1.397 . S
C3144 C3149 1.363 . S
C3145 H3116 0.950 . S
C3145 C3144 1.397 . S
C3145 C3146 1.334 . S
C3146 H3117 0.950 . S
C3146 C3145 1.334 . S
C3146 C3147 1.287 . S
C3147 C3146 1.287 . S
C3147 C3148 1.524 . S
C3147 H3150 0.999 . S
C3148 H3118 0.950 . S
C3148 C3147 1.524 . S
C3148 C3149 1.415 . S
C3149 H3119 0.950 . S
C3149 C3144 1.363 . S
C3149 C3148 1.415 . S
H3150 C3147 0.999 . S
H3151 C3132 0.913 . S
H3152 C3170 0.951 . S
H3153 C3172 0.951 . S
H3154 C3174 0.950 . S
H3155 C3175 0.950 . S
H3156 C3177 0.950 . S
H3157 C3180 0.950 . S
H3158 C3181 0.950 . S
H3159 C3183 0.950 . S
H3160 C3184 0.950 . S
H3161 C3185 0.951 . S
H3162 C3187 0.951 . S
H3163 C3189 0.919 1_655 S
H3164 C3190 0.950 . S
H3165 C3192 0.950 . S
H3166 C3195 0.950 . S
H3167 C3196 0.950 . S
H3168 C3198 0.950 . S
H3169 C3199 0.950 . S
C3170 H3152 0.951 . S
C3170 C3171 1.366 . S
C3170 C3172 1.388 . S
C3171 C3170 1.366 . S
C3171 C3175 1.385 . S
C3172 H3153 0.951 . S
C3172 C3170 1.388 . S
C3172 C3173 1.366 . S
C3173 C3172 1.366 . S
C3173 C3174 1.414 . S
C3173 C3176 1.499 . S
C3174 H3154 0.950 . S
C3174 C3173 1.414 . S
C3174 C3175 1.374 . S
C3175 H3155 0.950 . S
C3175 C3171 1.385 . S
C3175 C3174 1.374 . S
C3176 C3173 1.499 . S
C3176 C3177 1.373 1_655 S
C3176 C3178 1.389 . S
C3177 H3156 0.950 . S
C3177 C3176 1.373 1_455 S
C3177 C3193 1.377 . S
C3178 C3176 1.389 . S
C3178 C3179 1.524 . S
C3178 C3192 1.377 . S
C3179 C3178 1.524 . S
C3179 C3180 1.397 . S
C3179 C3184 1.363 . S
C3180 H3157 0.950 . S
C3180 C3179 1.397 . S
C3180 C3181 1.334 . S
C3181 H3158 0.950 . S
C3181 C3180 1.334 . S
C3181 C3182 1.287 . S
C3182 C3181 1.287 . S
C3182 C3183 1.524 . S
C3182 H3201 0.913 . S
C3183 H3159 0.950 . S
C3183 C3182 1.524 . S
C3183 C3184 1.415 . S
C3184 H3160 0.950 . S
C3184 C3179 1.363 . S
C3184 C3183 1.415 . S
C3185 H3161 0.951 . S
C3185 C3186 1.366 . S
C3185 C3187 1.388 . S
C3186 C3185 1.366 . S
C3186 C3190 1.385 . S
C3187 H3162 0.951 . S
C3187 C3185 1.388 . S
C3187 C3188 1.366 . S
C3188 C3187 1.366 . S
C3188 C3189 1.430 . S
C3188 C3191 1.499 1_455 S
C3189 H3163 0.919 1_455 S
C3189 C3188 1.430 . S
C3189 C3190 1.391 . S
C3190 H3164 0.950 . S
C3190 C3186 1.385 . S
C3190 C3189 1.391 . S
C3191 C3188 1.499 1_655 S
C3191 C3192 1.373 . S
C3191 C3193 1.389 1_655 S
C3192 H3165 0.950 . S
C3192 C3178 1.377 . S
C3192 C3191 1.373 . S
C3193 C3177 1.377 . S
C3193 C3191 1.389 1_455 S
C3193 C3194 1.524 . S
C3194 C3193 1.524 . S
C3194 C3195 1.397 . S
C3194 C3199 1.363 . S
C3195 H3166 0.950 . S
C3195 C3194 1.397 . S
C3195 C3196 1.334 . S
C3196 H3167 0.950 . S
C3196 C3195 1.334 . S
C3196 C3197 1.287 . S
C3197 C3196 1.287 . S
C3197 C3198 1.524 . S
C3197 H3200 0.999 . S
C3198 H3168 0.950 . S
C3198 C3197 1.524 . S
C3198 C3199 1.415 . S
C3199 H3169 0.950 . S
C3199 C3194 1.363 . S
C3199 C3198 1.415 . S
H3200 C3197 0.999 . S
H3201 C3182 0.913 . S
H3202 C3220 0.951 . S
H3203 C3222 0.951 . S
H3204 C3224 0.950 . S
H3205 C3225 0.950 . S
H3206 C3227 0.950 . S
H3207 C3230 0.950 . S
H3208 C3231 0.950 . S
H3209 C3233 0.950 . S
H3210 C3234 0.950 . S
H3211 C3235 0.951 . S
H3212 C3237 0.951 . S
H3213 C3239 0.950 . S
H3214 C3240 0.950 . S
H3215 C3242 0.950 . S
H3216 C3245 0.950 . S
H3217 C3246 0.950 . S
H3218 C3248 0.950 . S
H3219 C3249 0.950 . S
C3220 H3202 0.951 . S
C3220 C3221 1.366 . S
C3220 C3222 1.388 . S
C3221 C3220 1.366 . S
C3221 C3225 1.385 . S
C3222 H3203 0.951 . S
C3222 C3220 1.388 . S
C3222 C3223 1.366 . S
C3223 C3222 1.366 . S
C3223 C3224 1.414 . S
C3223 C3226 1.499 . S
C3224 H3204 0.950 . S
C3224 C3223 1.414 . S
C3224 C3225 1.374 . S
C3225 H3205 0.950 . S
C3225 C3221 1.385 . S
C3225 C3224 1.374 . S
C3226 C3223 1.499 . S
C3226 C3227 1.373 . S
C3226 C3228 1.389 . S
C3227 H3206 0.950 . S
C3227 C3226 1.373 . S
C3227 C3243 1.377 . S
C3228 C3226 1.389 . S
C3228 C3229 1.524 . S
C3228 C3242 1.377 . S
C3229 C3228 1.524 . S
C3229 C3230 1.397 . S
C3229 C3234 1.363 . S
C3230 H3207 0.950 . S
C3230 C3229 1.397 . S
C3230 C3231 1.334 . S
C3231 H3208 0.950 . S
C3231 C3230 1.334 . S
C3231 C3232 1.287 . S
C3232 C3231 1.287 . S
C3232 C3233 1.524 . S
C3232 H3251 0.913 . S
C3233 H3209 0.950 . S
C3233 C3232 1.524 . S
C3233 C3234 1.415 . S
C3234 H3210 0.950 . S
C3234 C3229 1.363 . S
C3234 C3233 1.415 . S
C3235 H3211 0.951 . S
C3235 C3236 1.366 . S
C3235 C3237 1.388 . S
C3236 C3235 1.366 . S
C3236 C3240 1.385 . S
C3237 H3212 0.951 . S
C3237 C3235 1.388 . S
C3237 C3238 1.366 . S
C3238 C3237 1.366 . S
C3238 C3239 1.414 . S
C3238 C3241 1.499 . S
C3239 H3213 0.950 . S
C3239 C3238 1.414 . S
C3239 C3240 1.374 . S
C3240 H3214 0.950 . S
C3240 C3236 1.385 . S
C3240 C3239 1.374 . S
C3241 C3238 1.499 . S
C3241 C3242 1.373 . S
C3241 C3243 1.389 . S
C3242 H3215 0.950 . S
C3242 C3228 1.377 . S
C3242 C3241 1.373 . S
C3243 C3227 1.377 . S
C3243 C3241 1.389 . S
C3243 C3244 1.524 . S
C3244 C3243 1.524 . S
C3244 C3245 1.397 . S
C3244 C3249 1.363 . S
C3245 H3216 0.950 . S
C3245 C3244 1.397 . S
C3245 C3246 1.334 . S
C3246 H3217 0.950 . S
C3246 C3245 1.334 . S
C3246 C3247 1.287 . S
C3247 C3246 1.287 . S
C3247 C3248 1.524 . S
C3247 H3250 0.999 . S
C3248 H3218 0.950 . S
C3248 C3247 1.524 . S
C3248 C3249 1.415 . S
C3249 H3219 0.950 . S
C3249 C3244 1.363 . S
C3249 C3248 1.415 . S
H3250 C3247 0.999 . S
H3251 C3232 0.913 . S
H3252 C3270 0.951 . S
H3253 C3272 0.951 . S
H3254 C3274 0.950 . S
H3255 C3275 0.950 . S
H3256 C3277 0.950 . S
H3257 C3280 0.950 . S
H3258 C3281 0.950 . S
H3259 C3283 0.950 . S
H3260 C3284 0.950 . S
H3261 C3285 0.951 . S
H3262 C3287 0.951 . S
H3263 C3289 0.950 . S
H3264 C3290 0.950 . S
H3265 C3292 0.950 . S
H3266 C3295 0.957 . S
H3267 C3296 0.950 . S
H3268 C3298 0.950 . S
H3269 C3299 0.950 . S
C3270 H3252 0.951 . S
C3270 C3271 1.366 . S
C3270 C3272 1.388 . S
C3271 C3270 1.366 . S
C3271 C3275 1.385 . S
C3272 H3253 0.951 . S
C3272 C3270 1.388 . S
C3272 C3273 1.366 . S
C3273 C3272 1.366 . S
C3273 C3274 1.414 . S
C3273 C3276 1.499 . S
C3274 H3254 0.950 . S
C3274 C3273 1.414 . S
C3274 C3275 1.374 . S
C3275 H3255 0.950 . S
C3275 C3271 1.385 . S
C3275 C3274 1.374 . S
C3276 C3273 1.499 . S
C3276 C3277 1.373 . S
C3276 C3278 1.389 . S
C3277 H3256 0.950 . S
C3277 C3276 1.373 . S
C3277 C3293 1.377 . S
C3278 C3276 1.389 . S
C3278 C3279 1.524 . S
C3278 C3292 1.377 . S
C3279 C3278 1.524 . S
C3279 C3280 1.397 . S
C3279 C3284 1.363 . S
C3280 H3257 0.950 . S
C3280 C3279 1.397 . S
C3280 C3281 1.334 . S
C3281 H3258 0.950 . S
C3281 C3280 1.334 . S
C3281 C3282 1.287 . S
C3282 C3281 1.287 . S
C3282 C3283 1.524 . S
C3282 H3301 0.913 . S
C3283 H3259 0.950 . S
C3283 C3282 1.524 . S
C3283 C3284 1.415 . S
C3284 H3260 0.950 . S
C3284 C3279 1.363 . S
C3284 C3283 1.415 . S
C3285 H3261 0.951 . S
C3285 C3286 1.366 . S
C3285 C3287 1.388 . S
C3286 C3285 1.366 . S
C3286 C3290 1.385 . S
C3287 H3262 0.951 . S
C3287 C3285 1.388 . S
C3287 C3288 1.366 . S
C3288 C3287 1.366 . S
C3288 C3289 1.414 . S
C3288 C3291 1.499 . S
C3289 H3263 0.950 . S
C3289 C3288 1.414 . S
C3289 C3290 1.374 . S
C3290 H3264 0.950 . S
C3290 C3286 1.385 . S
C3290 C3289 1.374 . S
C3291 C3288 1.499 . S
C3291 C3292 1.373 . S
C3291 C3293 1.389 . S
C3292 H3265 0.950 . S
C3292 C3278 1.377 . S
C3292 C3291 1.373 . S
C3293 C3277 1.377 . S
C3293 C3291 1.389 . S
C3293 C3294 1.524 . S
C3294 C3293 1.524 . S
C3294 C3295 1.397 . S
C3294 C3299 1.363 . S
C3295 H3266 0.957 . S
C3295 C3294 1.397 . S
C3295 C3296 1.334 1_545 S
C3296 H3267 0.950 . S
C3296 C3295 1.334 1_565 S
C3296 C3297 1.287 1_565 S
C3297 C3296 1.287 1_545 S
C3297 C3298 1.524 . S
C3297 H3300 0.999 1_545 S
C3298 H3268 0.950 . S
C3298 C3297 1.524 . S
C3298 C3299 1.415 . S
C3299 H3269 0.950 . S
C3299 C3294 1.363 . S
C3299 C3298 1.415 . S
H3300 C3297 0.999 1_565 S
H3301 C3282 0.913 . S
H3302 C3320 0.951 . S
H3303 C3322 0.951 . S
H3304 C3324 0.950 . S
H3305 C3325 0.950 . S
H3306 C3327 0.950 . S
H3307 C3330 0.950 . S
H3308 C3331 0.950 . S
H3309 C3333 0.950 . S
H3310 C3334 0.950 . S
H3311 C3335 0.951 . S
H3312 C3337 0.951 . S
H3313 C3339 0.950 . S
H3314 C3340 0.950 . S
H3315 C3342 0.950 . S
H3316 C3345 0.950 . S
H3317 C3346 0.950 . S
H3318 C3348 0.950 . S
H3319 C3349 0.950 . S
C3320 H3302 0.951 . S
C3320 C3321 1.366 . S
C3320 C3322 1.388 . S
C3321 C3320 1.366 . S
C3321 C3325 1.385 . S
C3322 H3303 0.951 . S
C3322 C3320 1.388 . S
C3322 C3323 1.366 . S
C3323 C3322 1.366 . S
C3323 C3324 1.414 . S
C3323 C3326 1.499 . S
C3324 H3304 0.950 . S
C3324 C3323 1.414 . S
C3324 C3325 1.374 . S
C3325 H3305 0.950 . S
C3325 C3321 1.385 . S
C3325 C3324 1.374 . S
C3326 C3323 1.499 . S
C3326 C3327 1.373 . S
C3326 C3328 1.389 . S
C3327 H3306 0.950 . S
C3327 C3326 1.373 . S
C3327 C3343 1.377 . S
C3328 C3326 1.389 . S
C3328 C3329 1.524 . S
C3328 C3342 1.377 . S
C3329 C3328 1.524 . S
C3329 C3330 1.397 . S
C3329 C3334 1.363 . S
C3330 H3307 0.950 . S
C3330 C3329 1.397 . S
C3330 C3331 1.334 . S
C3331 H3308 0.950 . S
C3331 C3330 1.334 . S
C3331 C3332 1.287 . S
C3332 C3331 1.287 . S
C3332 C3333 1.524 . S
C3332 H3351 0.913 . S
C3333 H3309 0.950 . S
C3333 C3332 1.524 . S
C3333 C3334 1.415 . S
C3334 H3310 0.950 . S
C3334 C3329 1.363 . S
C3334 C3333 1.415 . S
C3335 H3311 0.951 . S
C3335 C3336 1.366 . S
C3335 C3337 1.388 . S
C3336 C3335 1.366 . S
C3336 C3340 1.385 . S
C3337 H3312 0.951 . S
C3337 C3335 1.388 . S
C3337 C3338 1.366 . S
C3338 C3337 1.366 . S
C3338 C3339 1.414 . S
C3338 C3341 1.499 . S
C3339 H3313 0.950 . S
C3339 C3338 1.414 . S
C3339 C3340 1.374 . S
C3340 H3314 0.950 . S
C3340 C3336 1.385 . S
C3340 C3339 1.374 . S
C3341 C3338 1.499 . S
C3341 C3342 1.373 . S
C3341 C3343 1.389 . S
C3342 H3315 0.950 . S
C3342 C3328 1.377 . S
C3342 C3341 1.373 . S
C3343 C3327 1.377 . S
C3343 C3341 1.389 . S
C3343 C3344 1.524 . S
C3344 C3343 1.524 . S
C3344 C3345 1.397 . S
C3344 C3349 1.363 . S
C3345 H3316 0.950 . S
C3345 C3344 1.397 . S
C3345 C3346 1.334 . S
C3346 H3317 0.950 . S
C3346 C3345 1.334 . S
C3346 C3347 1.287 . S
C3347 C3346 1.287 . S
C3347 C3348 1.524 . S
C3347 H3350 0.999 . S
C3348 H3318 0.950 . S
C3348 C3347 1.524 . S
C3348 C3349 1.415 . S
C3349 H3319 0.950 . S
C3349 C3344 1.363 . S
C3349 C3348 1.415 . S
H3350 C3347 0.999 . S
H3351 C3332 0.913 . S
H3352 C3370 0.951 . S
H3353 C3372 0.951 . S
H3354 C3374 0.950 1_455 S
H3355 C3375 0.950 . S
H3356 C3377 0.950 . S
H3357 C3380 0.950 . S
H3358 C3381 0.950 . S
H3359 C3383 0.950 1_655 S
H3360 C3384 0.950 . S
H3361 C3385 0.951 . S
H3362 C3387 0.951 . S
H3363 C3389 0.950 . S
H3364 C3390 0.950 1_655 S
H3365 C3392 0.950 . S
H3366 C3395 0.950 1_545 S
H3367 C3396 0.950 . S
H3368 C3398 0.950 . S
H3369 C3399 0.950 1_455 S
C3370 H3352 0.951 . S
C3370 C3371 1.366 . S
C3370 C3372 1.388 . S
C3371 C3370 1.366 . S
C3371 C3375 1.385 . S
C3372 H3353 0.951 . S
C3372 C3370 1.388 . S
C3372 C3373 1.366 . S
C3373 C3372 1.366 . S
C3373 C3374 1.414 . S
C3373 C3376 1.499 . S
C3374 H3354 0.950 1_655 S
C3374 C3373 1.414 . S
C3374 C3375 1.374 . S
C3375 H3355 0.950 . S
C3375 C3371 1.385 . S
C3375 C3374 1.374 . S
C3376 C3373 1.499 . S
C3376 C3377 1.373 . S
C3376 C3378 1.394 . S
C3377 H3356 0.950 . S
C3377 C3376 1.373 . S
C3377 C3393 1.377 . S
C3378 C3376 1.394 . S
C3378 C3379 1.527 1_655 S
C3378 C3392 1.370 1_655 S
C3379 C3378 1.527 1_455 S
C3379 C3380 1.397 . S
C3379 C3384 1.363 1_455 S
C3380 H3357 0.950 . S
C3380 C3379 1.397 . S
C3380 C3381 1.334 . S
C3381 H3358 0.950 . S
C3381 C3380 1.334 . S
C3381 C3382 1.287 . S
C3382 C3381 1.287 . S
C3382 C3383 1.524 . S
C3382 H3401 0.913 . S
C3383 H3359 0.950 1_455 S
C3383 C3382 1.524 . S
C3383 C3384 1.415 1_455 S
C3384 H3360 0.950 . S
C3384 C3379 1.363 1_655 S
C3384 C3383 1.415 1_655 S
C3385 H3361 0.951 . S
C3385 C3386 1.366 . S
C3385 C3387 1.388 . S
C3386 C3385 1.366 . S
C3386 C3390 1.385 . S
C3387 H3362 0.951 . S
C3387 C3385 1.388 . S
C3387 C3388 1.366 . S
C3388 C3387 1.366 . S
C3388 C3389 1.414 1_455 S
C3388 C3391 1.495 1_455 S
C3389 H3363 0.950 . S
C3389 C3388 1.414 1_655 S
C3389 C3390 1.374 1_655 S
C3390 H3364 0.950 1_455 S
C3390 C3386 1.385 . S
C3390 C3389 1.374 1_455 S
C3391 C3388 1.495 1_655 S
C3391 C3392 1.375 1_655 S
C3391 C3393 1.390 . S
C3392 H3365 0.950 . S
C3392 C3378 1.370 1_455 S
C3392 C3391 1.375 1_455 S
C3393 C3377 1.377 . S
C3393 C3391 1.390 . S
C3393 C3394 1.524 . S
C3394 C3393 1.524 . S
C3394 C3395 1.397 1_545 S
C3394 C3399 1.363 1_545 S
C3395 H3366 0.950 1_565 S
C3395 C3394 1.397 1_565 S
C3395 C3396 1.334 . S
C3396 H3367 0.950 . S
C3396 C3395 1.334 . S
C3396 C3397 1.287 . S
C3397 C3396 1.287 . S
C3397 C3398 1.524 . S
C3397 H3400 0.999 . S
C3398 H3368 0.950 . S
C3398 C3397 1.524 . S
C3398 C3399 1.415 . S
C3399 H3369 0.950 1_655 S
C3399 C3394 1.363 1_565 S
C3399 C3398 1.415 . S
H3400 C3397 0.999 . S
H3401 C3382 0.913 . S
H3402 C3420 0.951 . S
H3403 C3422 0.951 . S
H3404 C3424 0.950 . S
H3405 C3425 0.950 . S
H3406 C3427 0.950 . S
H3407 C3430 0.950 . S
H3408 C3431 0.950 . S
H3409 C3433 0.950 . S
H3410 C3434 0.950 . S
H3411 C3435 0.951 . S
H3412 C3437 0.951 . S
H3413 C3439 0.950 . S
H3414 C3440 0.950 . S
H3415 C3442 0.950 . S
H3416 C3445 0.950 . S
H3417 C3446 0.950 . S
H3418 C3448 0.950 . S
H3419 C3449 0.950 . S
C3420 H3402 0.951 . S
C3420 C3421 1.366 . S
C3420 C3422 1.388 . S
C3421 C3420 1.366 . S
C3421 C3425 1.385 . S
C3422 H3403 0.951 . S
C3422 C3420 1.388 . S
C3422 C3423 1.366 . S
C3423 C3422 1.366 . S
C3423 C3424 1.414 . S
C3423 C3426 1.499 . S
C3424 H3404 0.950 . S
C3424 C3423 1.414 . S
C3424 C3425 1.374 . S
C3425 H3405 0.950 . S
C3425 C3421 1.385 . S
C3425 C3424 1.374 . S
C3426 C3423 1.499 . S
C3426 C3427 1.373 . S
C3426 C3428 1.389 . S
C3427 H3406 0.950 . S
C3427 C3426 1.373 . S
C3427 C3443 1.377 . S
C3428 C3426 1.389 . S
C3428 C3429 1.524 . S
C3428 C3442 1.377 . S
C3429 C3428 1.524 . S
C3429 C3430 1.397 . S
C3429 C3434 1.363 . S
C3430 H3407 0.950 . S
C3430 C3429 1.397 . S
C3430 C3431 1.334 . S
C3431 H3408 0.950 . S
C3431 C3430 1.334 . S
C3431 C3432 1.287 . S
C3432 C3431 1.287 . S
C3432 C3433 1.524 . S
C3432 H3451 0.913 . S
C3433 H3409 0.950 . S
C3433 C3432 1.524 . S
C3433 C3434 1.415 . S
C3434 H3410 0.950 . S
C3434 C3429 1.363 . S
C3434 C3433 1.415 . S
C3435 H3411 0.951 . S
C3435 C3436 1.366 . S
C3435 C3437 1.388 . S
C3436 C3435 1.366 . S
C3436 C3440 1.385 . S
C3437 H3412 0.951 . S
C3437 C3435 1.388 . S
C3437 C3438 1.366 . S
C3438 C3437 1.366 . S
C3438 C3439 1.414 . S
C3438 C3441 1.499 . S
C3439 H3413 0.950 . S
C3439 C3438 1.414 . S
C3439 C3440 1.374 . S
C3440 H3414 0.950 . S
C3440 C3436 1.385 . S
C3440 C3439 1.374 . S
C3441 C3438 1.499 . S
C3441 C3442 1.373 . S
C3441 C3443 1.389 . S
C3442 H3415 0.950 . S
C3442 C3428 1.377 . S
C3442 C3441 1.373 . S
C3443 C3427 1.377 . S
C3443 C3441 1.389 . S
C3443 C3444 1.524 . S
C3444 C3443 1.524 . S
C3444 C3445 1.397 . S
C3444 C3449 1.363 . S
C3445 H3416 0.950 . S
C3445 C3444 1.397 . S
C3445 C3446 1.334 . S
C3446 H3417 0.950 . S
C3446 C3445 1.334 . S
C3446 C3447 1.287 . S
C3447 C3446 1.287 . S
C3447 C3448 1.524 . S
C3447 H3450 0.999 . S
C3448 H3418 0.950 . S
C3448 C3447 1.524 . S
C3448 C3449 1.415 . S
C3449 H3419 0.950 . S
C3449 C3444 1.363 . S
C3449 C3448 1.415 . S
H3450 C3447 0.999 . S
H3451 C3432 0.913 . S
H3452 C3470 0.951 . S
H3453 C3472 0.951 . S
H3454 C3474 0.950 . S
H3455 C3475 0.950 . S
H3456 C3477 0.950 . S
H3457 C3480 0.950 . S
H3458 C3481 0.970 . S
H3459 C3483 0.950 1_565 S
H3460 C3484 0.950 . S
H3461 C3485 0.951 . S
H3462 C3487 0.951 . S
H3463 C3489 0.950 . S
H3464 C3490 0.950 . S
H3465 C3492 0.950 . S
H3466 C3495 0.950 . S
H3467 C3496 0.950 . S
H3468 C3498 0.950 . S
H3469 C3499 0.950 . S
C3470 H3452 0.951 . S
C3470 C3471 1.366 . S
C3470 C3472 1.388 . S
C3471 C3470 1.366 . S
C3471 C3475 1.385 . S
C3472 H3453 0.951 . S
C3472 C3470 1.388 . S
C3472 C3473 1.366 . S
C3473 C3472 1.366 . S
C3473 C3474 1.414 . S
C3473 C3476 1.499 . S
C3474 H3454 0.950 . S
C3474 C3473 1.414 . S
C3474 C3475 1.374 . S
C3475 H3455 0.950 . S
C3475 C3471 1.385 . S
C3475 C3474 1.374 . S
C3476 C3473 1.499 . S
C3476 C3477 1.373 . S
C3476 C3478 1.389 . S
C3477 H3456 0.950 . S
C3477 C3476 1.373 . S
C3477 C3493 1.377 . S
C3478 C3476 1.389 . S
C3478 C3479 1.524 . S
C3478 C3492 1.377 . S
C3479 C3478 1.524 . S
C3479 C3480 1.397 . S
C3479 C3484 1.363 . S
C3480 H3457 0.950 . S
C3480 C3479 1.397 . S
C3480 C3481 1.279 1_545 S
C3481 H3458 0.970 . S
C3481 C3480 1.279 1_565 S
C3481 C3482 1.324 . S
C3482 C3481 1.324 . S
C3482 C3483 1.524 1_565 S
C3482 H3501 0.913 . S
C3483 H3459 0.950 1_545 S
C3483 C3482 1.524 1_545 S
C3483 C3484 1.415 . S
C3484 H3460 0.950 . S
C3484 C3479 1.363 . S
C3484 C3483 1.415 . S
C3485 H3461 0.951 . S
C3485 C3486 1.366 . S
C3485 C3487 1.388 . S
C3486 C3485 1.366 . S
C3486 C3490 1.385 . S
C3487 H3462 0.951 . S
C3487 C3485 1.388 . S
C3487 C3488 1.366 . S
C3488 C3487 1.366 . S
C3488 C3489 1.414 . S
C3488 C3491 1.499 . S
C3489 H3463 0.950 . S
C3489 C3488 1.414 . S
C3489 C3490 1.374 . S
C3490 H3464 0.950 . S
C3490 C3486 1.385 . S
C3490 C3489 1.374 . S
C3491 C3488 1.499 . S
C3491 C3492 1.373 . S
C3491 C3493 1.389 . S
C3492 H3465 0.950 . S
C3492 C3478 1.377 . S
C3492 C3491 1.373 . S
C3493 C3477 1.377 . S
C3493 C3491 1.389 . S
C3493 C3494 1.524 . S
C3494 C3493 1.524 . S
C3494 C3495 1.397 . S
C3494 C3499 1.363 . S
C3495 H3466 0.950 . S
C3495 C3494 1.397 . S
C3495 C3496 1.334 . S
C3496 H3467 0.950 . S
C3496 C3495 1.334 . S
C3496 C3497 1.287 . S
C3497 C3496 1.287 . S
C3497 C3498 1.524 . S
C3497 H3500 0.999 . S
C3498 H3468 0.950 . S
C3498 C3497 1.524 . S
C3498 C3499 1.415 . S
C3499 H3469 0.950 . S
C3499 C3494 1.363 . S
C3499 C3498 1.415 . S
H3500 C3497 0.999 . S
H3501 C3482 0.913 . S
H3502 C3520 0.951 . S
H3503 C3522 0.951 . S
H3504 C3524 0.950 . S
H3505 C3525 0.950 . S
H3506 C3527 0.950 . S
H3507 C3530 0.950 . S
H3508 C3531 0.950 . S
H3509 C3533 0.950 . S
H3510 C3534 0.950 . S
H3511 C3535 0.951 . S
H3512 C3537 0.951 . S
H3513 C3539 0.950 . S
H3514 C3540 0.950 . S
H3515 C3542 0.950 . S
H3516 C3545 0.950 . S
H3517 C3546 0.950 . S
H3518 C3548 0.950 . S
H3519 C3549 0.950 . S
C3520 H3502 0.951 . S
C3520 C3521 1.366 . S
C3520 C3522 1.388 . S
C3521 C3520 1.366 . S
C3521 C3525 1.385 . S
C3522 H3503 0.951 . S
C3522 C3520 1.388 . S
C3522 C3523 1.366 . S
C3523 C3522 1.366 . S
C3523 C3524 1.414 . S
C3523 C3526 1.499 . S
C3524 H3504 0.950 . S
C3524 C3523 1.414 . S
C3524 C3525 1.374 . S
C3525 H3505 0.950 . S
C3525 C3521 1.385 . S
C3525 C3524 1.374 . S
C3526 C3523 1.499 . S
C3526 C3527 1.373 . S
C3526 C3528 1.389 . S
C3527 H3506 0.950 . S
C3527 C3526 1.373 . S
C3527 C3543 1.377 . S
C3528 C3526 1.389 . S
C3528 C3529 1.524 . S
C3528 C3542 1.377 . S
C3529 C3528 1.524 . S
C3529 C3530 1.397 . S
C3529 C3534 1.363 . S
C3530 H3507 0.950 . S
C3530 C3529 1.397 . S
C3530 C3531 1.334 . S
C3531 H3508 0.950 . S
C3531 C3530 1.334 . S
C3531 C3532 1.287 . S
C3532 C3531 1.287 . S
C3532 C3533 1.524 . S
C3532 H3551 0.913 . S
C3533 H3509 0.950 . S
C3533 C3532 1.524 . S
C3533 C3534 1.415 . S
C3534 H3510 0.950 . S
C3534 C3529 1.363 . S
C3534 C3533 1.415 . S
C3535 H3511 0.951 . S
C3535 C3536 1.366 . S
C3535 C3537 1.388 . S
C3536 C3535 1.366 . S
C3536 C3540 1.385 . S
C3537 H3512 0.951 . S
C3537 C3535 1.388 . S
C3537 C3538 1.366 . S
C3538 C3537 1.366 . S
C3538 C3539 1.414 . S
C3538 C3541 1.499 . S
C3539 H3513 0.950 . S
C3539 C3538 1.414 . S
C3539 C3540 1.374 . S
C3540 H3514 0.950 . S
C3540 C3536 1.385 . S
C3540 C3539 1.374 . S
C3541 C3538 1.499 . S
C3541 C3542 1.373 . S
C3541 C3543 1.389 . S
C3542 H3515 0.950 . S
C3542 C3528 1.377 . S
C3542 C3541 1.373 . S
C3543 C3527 1.377 . S
C3543 C3541 1.389 . S
C3543 C3544 1.524 . S
C3544 C3543 1.524 . S
C3544 C3545 1.397 . S
C3544 C3549 1.363 . S
C3545 H3516 0.950 . S
C3545 C3544 1.397 . S
C3545 C3546 1.334 . S
C3546 H3517 0.950 . S
C3546 C3545 1.334 . S
C3546 C3547 1.287 . S
C3547 C3546 1.287 . S
C3547 C3548 1.524 . S
C3547 H3550 0.999 . S
C3548 H3518 0.950 . S
C3548 C3547 1.524 . S
C3548 C3549 1.415 . S
C3549 H3519 0.950 . S
C3549 C3544 1.363 . S
C3549 C3548 1.415 . S
H3550 C3547 0.999 . S
H3551 C3532 0.913 . S
H3552 C3570 0.951 . S
H3553 C3572 0.951 . S
H3554 C3574 0.950 . S
H3555 C3575 0.946 1_556 S
H3556 C3577 0.950 1_556 S
H3557 C3580 0.950 . S
H3558 C3581 0.950 . S
H3559 C3583 0.950 1_545 S
H3560 C3584 0.972 . S
H3561 C3585 0.951 . S
H3562 C3587 0.951 . S
H3563 C3589 0.947 . S
H3564 C3590 0.950 . S
H3565 C3592 0.950 . S
H3566 C3595 0.950 . S
H3567 C3596 0.950 . S
H3568 C3598 0.950 . S
H3569 C3599 0.950 . S
C3570 H3552 0.951 . S
C3570 C3571 1.366 . S
C3570 C3572 1.388 . S
C3571 C3570 1.366 . S
C3571 C3575 1.372 . S
C3572 H3553 0.951 . S
C3572 C3570 1.388 . S
C3572 C3573 1.366 . S
C3573 C3572 1.366 . S
C3573 C3574 1.414 . S
C3573 C3576 1.499 . S
C3574 H3554 0.950 . S
C3574 C3573 1.414 . S
C3574 C3575 1.397 . S
C3575 H3555 0.946 1_554 S
C3575 C3571 1.372 . S
C3575 C3574 1.397 . S
C3576 C3573 1.499 . S
C3576 C3577 1.373 . S
C3576 C3578 1.389 . S
C3577 H3556 0.950 1_554 S
C3577 C3576 1.373 . S
C3577 C3593 1.377 . S
C3578 C3576 1.389 . S
C3578 C3579 1.524 . S
C3578 C3592 1.377 . S
C3579 C3578 1.524 . S
C3579 C3580 1.397 . S
C3579 C3584 1.363 . S
C3580 H3557 0.950 . S
C3580 C3579 1.397 . S
C3580 C3581 1.334 . S
C3581 H3558 0.950 . S
C3581 C3580 1.334 . S
C3581 C3582 1.287 . S
C3582 C3581 1.287 . S
C3582 C3583 1.524 . S
C3582 H3601 0.913 . S
C3583 H3559 0.950 1_565 S
C3583 C3582 1.524 . S
C3583 C3584 1.415 . S
C3584 H3560 0.972 . S
C3584 C3579 1.363 . S
C3584 C3583 1.415 . S
C3585 H3561 0.951 . S
C3585 C3586 1.366 . S
C3585 C3587 1.388 . S
C3586 C3585 1.366 . S
C3586 C3590 1.385 1_565 S
C3587 H3562 0.951 . S
C3587 C3585 1.388 . S
C3587 C3588 1.366 . S
C3588 C3587 1.366 . S
C3588 C3589 1.422 1_565 S
C3588 C3591 1.499 . S
C3589 H3563 0.947 . S
C3589 C3588 1.422 1_545 S
C3589 C3590 1.368 . S
C3590 H3564 0.950 . S
C3590 C3586 1.385 1_545 S
C3590 C3589 1.368 . S
C3591 C3588 1.499 . S
C3591 C3592 1.373 . S
C3591 C3593 1.389 . S
C3592 H3565 0.950 . S
C3592 C3578 1.377 . S
C3592 C3591 1.373 . S
C3593 C3577 1.377 . S
C3593 C3591 1.389 . S
C3593 C3594 1.524 1_554 S
C3594 C3593 1.524 1_556 S
C3594 C3595 1.397 . S
C3594 C3599 1.363 . S
C3595 H3566 0.950 . S
C3595 C3594 1.397 . S
C3595 C3596 1.334 . S
C3596 H3567 0.950 . S
C3596 C3595 1.334 . S
C3596 C3597 1.287 . S
C3597 C3596 1.287 . S
C3597 C3598 1.524 . S
C3597 H3600 0.999 . S
C3598 H3568 0.950 . S
C3598 C3597 1.524 . S
C3598 C3599 1.415 . S
C3599 H3569 0.950 . S
C3599 C3594 1.363 . S
C3599 C3598 1.415 . S
H3600 C3597 0.999 . S
H3601 C3582 0.913 . S
H3602 C3620 0.951 . S
H3603 C3622 0.951 . S
H3604 C3624 0.950 . S
H3605 C3625 0.950 . S
H3606 C3627 0.950 . S
H3607 C3630 0.950 . S
H3608 C3631 0.950 . S
H3609 C3633 0.950 . S
H3610 C3634 0.950 . S
H3611 C3635 0.951 . S
H3612 C3637 0.951 . S
H3613 C3639 0.950 . S
H3614 C3640 0.950 . S
H3615 C3642 0.950 . S
H3616 C3645 0.950 . S
H3617 C3646 0.950 . S
H3618 C3648 0.950 . S
H3619 C3649 0.950 . S
C3620 H3602 0.951 . S
C3620 C3621 1.366 . S
C3620 C3622 1.388 . S
C3621 C3620 1.366 . S
C3621 C3625 1.385 . S
C3622 H3603 0.951 . S
C3622 C3620 1.388 . S
C3622 C3623 1.366 . S
C3623 C3622 1.366 . S
C3623 C3624 1.414 . S
C3623 C3626 1.499 . S
C3624 H3604 0.950 . S
C3624 C3623 1.414 . S
C3624 C3625 1.374 . S
C3625 H3605 0.950 . S
C3625 C3621 1.385 . S
C3625 C3624 1.374 . S
C3626 C3623 1.499 . S
C3626 C3627 1.373 1_554 S
C3626 C3628 1.389 . S
C3627 H3606 0.950 . S
C3627 C3626 1.373 1_556 S
C3627 C3643 1.377 . S
C3628 C3626 1.389 . S
C3628 C3629 1.524 . S
C3628 C3642 1.377 . S
C3629 C3628 1.524 . S
C3629 C3630 1.397 . S
C3629 C3634 1.363 . S
C3630 H3607 0.950 . S
C3630 C3629 1.397 . S
C3630 C3631 1.334 . S
C3631 H3608 0.950 . S
C3631 C3630 1.334 . S
C3631 C3632 1.287 . S
C3632 C3631 1.287 . S
C3632 C3633 1.524 . S
C3632 H3651 0.913 . S
C3633 H3609 0.950 . S
C3633 C3632 1.524 . S
C3633 C3634 1.415 . S
C3634 H3610 0.950 . S
C3634 C3629 1.363 . S
C3634 C3633 1.415 . S
C3635 H3611 0.951 . S
C3635 C3636 1.366 . S
C3635 C3637 1.388 . S
C3636 C3635 1.366 . S
C3636 C3640 1.385 . S
C3637 H3612 0.951 . S
C3637 C3635 1.388 . S
C3637 C3638 1.366 . S
C3638 C3637 1.366 . S
C3638 C3639 1.414 . S
C3638 C3641 1.499 . S
C3639 H3613 0.950 . S
C3639 C3638 1.414 . S
C3639 C3640 1.374 . S
C3640 H3614 0.950 . S
C3640 C3636 1.385 . S
C3640 C3639 1.374 . S
C3641 C3638 1.499 . S
C3641 C3642 1.373 . S
C3641 C3643 1.389 1_554 S
C3642 H3615 0.950 . S
C3642 C3628 1.377 . S
C3642 C3641 1.373 . S
C3643 C3627 1.377 . S
C3643 C3641 1.389 1_556 S
C3643 C3644 1.524 . S
C3644 C3643 1.524 . S
C3644 C3645 1.397 . S
C3644 C3649 1.363 . S
C3645 H3616 0.950 . S
C3645 C3644 1.397 . S
C3645 C3646 1.334 . S
C3646 H3617 0.950 . S
C3646 C3645 1.334 . S
C3646 C3647 1.287 . S
C3647 C3646 1.287 . S
C3647 C3648 1.524 . S
C3647 H3650 0.999 . S
C3648 H3618 0.950 . S
C3648 C3647 1.524 . S
C3648 C3649 1.415 . S
C3649 H3619 0.950 . S
C3649 C3644 1.363 . S
C3649 C3648 1.415 . S
H3650 C3647 0.999 . S
H3651 C3632 0.913 . S
H3652 C3670 0.951 . S
H3653 C3672 0.951 . S
H3654 C3674 0.950 . S
H3655 C3675 0.950 . S
H3656 C3677 0.950 . S
H3657 C3680 0.950 . S
H3658 C3681 0.950 . S
H3659 C3683 0.950 . S
H3660 C3684 0.950 . S
H3661 C3685 0.951 . S
H3662 C3687 0.951 . S
H3663 C3689 0.950 . S
H3664 C3690 0.950 . S
H3665 C3692 0.950 . S
H3666 C3695 0.950 . S
H3667 C3696 0.950 . S
H3668 C3698 0.950 . S
H3669 C3699 0.950 . S
C3670 H3652 0.951 . S
C3670 C3671 1.366 . S
C3670 C3672 1.388 . S
C3671 C3670 1.366 . S
C3671 C3675 1.385 . S
C3672 H3653 0.951 . S
C3672 C3670 1.388 . S
C3672 C3673 1.366 . S
C3673 C3672 1.366 . S
C3673 C3674 1.414 . S
C3673 C3676 1.499 . S
C3674 H3654 0.950 . S
C3674 C3673 1.414 . S
C3674 C3675 1.374 . S
C3675 H3655 0.950 . S
C3675 C3671 1.385 . S
C3675 C3674 1.374 . S
C3676 C3673 1.499 . S
C3676 C3677 1.373 . S
C3676 C3678 1.389 . S
C3677 H3656 0.950 . S
C3677 C3676 1.373 . S
C3677 C3693 1.377 . S
C3678 C3676 1.389 . S
C3678 C3679 1.524 . S
C3678 C3692 1.377 . S
C3679 C3678 1.524 . S
C3679 C3680 1.397 . S
C3679 C3684 1.363 . S
C3680 H3657 0.950 . S
C3680 C3679 1.397 . S
C3680 C3681 1.334 . S
C3681 H3658 0.950 . S
C3681 C3680 1.334 . S
C3681 C3682 1.287 . S
C3682 C3681 1.287 . S
C3682 C3683 1.524 . S
C3682 H3701 0.913 . S
C3683 H3659 0.950 . S
C3683 C3682 1.524 . S
C3683 C3684 1.415 . S
C3684 H3660 0.950 . S
C3684 C3679 1.363 . S
C3684 C3683 1.415 . S
C3685 H3661 0.951 . S
C3685 C3686 1.366 . S
C3685 C3687 1.388 . S
C3686 C3685 1.366 . S
C3686 C3690 1.385 . S
C3687 H3662 0.951 . S
C3687 C3685 1.388 . S
C3687 C3688 1.366 . S
C3688 C3687 1.366 . S
C3688 C3689 1.414 . S
C3688 C3691 1.499 . S
C3689 H3663 0.950 . S
C3689 C3688 1.414 . S
C3689 C3690 1.374 . S
C3690 H3664 0.950 . S
C3690 C3686 1.385 . S
C3690 C3689 1.374 . S
C3691 C3688 1.499 . S
C3691 C3692 1.373 . S
C3691 C3693 1.389 . S
C3692 H3665 0.950 . S
C3692 C3678 1.377 . S
C3692 C3691 1.373 . S
C3693 C3677 1.377 . S
C3693 C3691 1.389 . S
C3693 C3694 1.524 . S
C3694 C3693 1.524 . S
C3694 C3695 1.397 . S
C3694 C3699 1.363 . S
C3695 H3666 0.950 . S
C3695 C3694 1.397 . S
C3695 C3696 1.334 . S
C3696 H3667 0.950 . S
C3696 C3695 1.334 . S
C3696 C3697 1.287 . S
C3697 C3696 1.287 . S
C3697 C3698 1.524 . S
C3697 H3700 0.999 . S
C3698 H3668 0.950 . S
C3698 C3697 1.524 . S
C3698 C3699 1.415 . S
C3699 H3669 0.950 . S
C3699 C3694 1.363 . S
C3699 C3698 1.415 . S
H3700 C3697 0.999 . S
H3701 C3682 0.913 . S
H3702 C3720 0.951 . S
H3703 C3722 0.951 . S
H3704 C3724 0.950 . S
H3705 C3725 0.950 . S
H3706 C3727 0.950 . S
H3707 C3730 0.950 . S
H3708 C3731 0.950 . S
H3709 C3733 0.950 . S
H3710 C3734 0.950 . S
H3711 C3735 0.951 . S
H3712 C3737 0.951 . S
H3713 C3739 0.950 . S
H3714 C3740 0.950 . S
H3715 C3742 0.950 . S
H3716 C3745 0.950 . S
H3717 C3746 0.950 . S
H3718 C3748 0.950 . S
H3719 C3749 0.950 . S
C3720 H3702 0.951 . S
C3720 C3721 1.366 . S
C3720 C3722 1.388 . S
C3721 C3720 1.366 . S
C3721 C3725 1.385 . S
C3722 H3703 0.951 . S
C3722 C3720 1.388 . S
C3722 C3723 1.366 . S
C3723 C3722 1.366 . S
C3723 C3724 1.414 . S
C3723 C3726 1.499 . S
C3724 H3704 0.950 . S
C3724 C3723 1.414 . S
C3724 C3725 1.374 . S
C3725 H3705 0.950 . S
C3725 C3721 1.385 . S
C3725 C3724 1.374 . S
C3726 C3723 1.499 . S
C3726 C3727 1.373 . S
C3726 C3728 1.389 . S
C3727 H3706 0.950 . S
C3727 C3726 1.373 . S
C3727 C3743 1.377 . S
C3728 C3726 1.389 . S
C3728 C3729 1.524 . S
C3728 C3742 1.377 . S
C3729 C3728 1.524 . S
C3729 C3730 1.397 . S
C3729 C3734 1.363 . S
C3730 H3707 0.950 . S
C3730 C3729 1.397 . S
C3730 C3731 1.334 . S
C3731 H3708 0.950 . S
C3731 C3730 1.334 . S
C3731 C3732 1.287 . S
C3732 C3731 1.287 . S
C3732 C3733 1.524 . S
C3732 H3751 0.913 . S
C3733 H3709 0.950 . S
C3733 C3732 1.524 . S
C3733 C3734 1.415 . S
C3734 H3710 0.950 . S
C3734 C3729 1.363 . S
C3734 C3733 1.415 . S
C3735 H3711 0.951 . S
C3735 C3736 1.366 . S
C3735 C3737 1.388 . S
C3736 C3735 1.366 . S
C3736 C3740 1.385 . S
C3737 H3712 0.951 . S
C3737 C3735 1.388 . S
C3737 C3738 1.366 . S
C3738 C3737 1.366 . S
C3738 C3739 1.414 . S
C3738 C3741 1.499 . S
C3739 H3713 0.950 . S
C3739 C3738 1.414 . S
C3739 C3740 1.374 . S
C3740 H3714 0.950 . S
C3740 C3736 1.385 . S
C3740 C3739 1.374 . S
C3741 C3738 1.499 . S
C3741 C3742 1.373 . S
C3741 C3743 1.389 . S
C3742 H3715 0.950 . S
C3742 C3728 1.377 . S
C3742 C3741 1.373 . S
C3743 C3727 1.377 . S
C3743 C3741 1.389 . S
C3743 C3744 1.524 . S
C3744 C3743 1.524 . S
C3744 C3745 1.397 . S
C3744 C3749 1.363 . S
C3745 H3716 0.950 . S
C3745 C3744 1.397 . S
C3745 C3746 1.334 . S
C3746 H3717 0.950 . S
C3746 C3745 1.334 . S
C3746 C3747 1.287 . S
C3747 C3746 1.287 . S
C3747 C3748 1.524 . S
C3747 H3750 0.999 . S
C3748 H3718 0.950 . S
C3748 C3747 1.524 . S
C3748 C3749 1.415 . S
C3749 H3719 0.950 . S
C3749 C3744 1.363 . S
C3749 C3748 1.415 . S
H3750 C3747 0.999 . S
H3751 C3732 0.913 . S
H3752 C3770 0.951 . S
H3753 C3772 0.951 . S
H3754 C3774 0.950 . S
H3755 C3775 0.950 . S
H3756 C3777 0.950 . S
H3757 C3780 0.950 . S
H3758 C3781 0.950 . S
H3759 C3783 0.950 . S
H3760 C3784 0.950 . S
H3761 C3785 0.951 . S
H3762 C3787 0.951 . S
H3763 C3789 0.950 . S
H3764 C3790 0.950 . S
H3765 C3792 0.950 . S
H3766 C3795 0.950 . S
H3767 C3796 0.950 . S
H3768 C3798 0.950 . S
H3769 C3799 0.950 . S
C3770 H3752 0.951 . S
C3770 C3771 1.366 . S
C3770 C3772 1.388 . S
C3771 C3770 1.366 . S
C3771 C3775 1.385 . S
C3772 H3753 0.951 . S
C3772 C3770 1.388 . S
C3772 C3773 1.366 . S
C3773 C3772 1.366 . S
C3773 C3774 1.414 . S
C3773 C3776 1.499 . S
C3774 H3754 0.950 . S
C3774 C3773 1.414 . S
C3774 C3775 1.374 . S
C3775 H3755 0.950 . S
C3775 C3771 1.385 . S
C3775 C3774 1.374 . S
C3776 C3773 1.499 . S
C3776 C3777 1.373 . S
C3776 C3778 1.389 . S
C3777 H3756 0.950 . S
C3777 C3776 1.373 . S
C3777 C3793 1.377 . S
C3778 C3776 1.389 . S
C3778 C3779 1.524 . S
C3778 C3792 1.377 . S
C3779 C3778 1.524 . S
C3779 C3780 1.397 . S
C3779 C3784 1.363 . S
C3780 H3757 0.950 . S
C3780 C3779 1.397 . S
C3780 C3781 1.334 . S
C3781 H3758 0.950 . S
C3781 C3780 1.334 . S
C3781 C3782 1.287 . S
C3782 C3781 1.287 . S
C3782 C3783 1.524 . S
C3782 H3801 0.913 . S
C3783 H3759 0.950 . S
C3783 C3782 1.524 . S
C3783 C3784 1.415 . S
C3784 H3760 0.950 . S
C3784 C3779 1.363 . S
C3784 C3783 1.415 . S
C3785 H3761 0.951 . S
C3785 C3786 1.366 . S
C3785 C3787 1.388 . S
C3786 C3785 1.366 . S
C3786 C3790 1.385 . S
C3787 H3762 0.951 . S
C3787 C3785 1.388 . S
C3787 C3788 1.366 . S
C3788 C3787 1.366 . S
C3788 C3789 1.414 . S
C3788 C3791 1.499 . S
C3789 H3763 0.950 . S
C3789 C3788 1.414 . S
C3789 C3790 1.374 . S
C3790 H3764 0.950 . S
C3790 C3786 1.385 . S
C3790 C3789 1.374 . S
C3791 C3788 1.499 . S
C3791 C3792 1.373 . S
C3791 C3793 1.389 . S
C3792 H3765 0.950 . S
C3792 C3778 1.377 . S
C3792 C3791 1.373 . S
C3793 C3777 1.377 . S
C3793 C3791 1.389 . S
C3793 C3794 1.524 . S
C3794 C3793 1.524 . S
C3794 C3795 1.397 . S
C3794 C3799 1.363 . S
C3795 H3766 0.950 . S
C3795 C3794 1.397 . S
C3795 C3796 1.334 . S
C3796 H3767 0.950 . S
C3796 C3795 1.334 . S
C3796 C3797 1.287 . S
C3797 C3796 1.287 . S
C3797 C3798 1.524 . S
C3797 H3800 0.999 . S
C3798 H3768 0.950 . S
C3798 C3797 1.524 . S
C3798 C3799 1.415 . S
C3799 H3769 0.950 . S
C3799 C3794 1.363 . S
C3799 C3798 1.415 . S
H3800 C3797 0.999 . S
H3801 C3782 0.913 . S
H3802 C3820 0.951 . S
H3803 C3822 0.951 . S
H3804 C3824 0.950 . S
H3805 C3825 0.950 . S
H3806 C3827 0.950 . S
H3807 C3830 0.950 . S
H3808 C3831 0.950 . S
H3809 C3833 0.950 . S
H3810 C3834 0.950 . S
H3811 C3835 0.951 . S
H3812 C3837 0.951 . S
H3813 C3839 0.950 . S
H3814 C3840 0.950 . S
H3815 C3842 0.950 . S
H3816 C3845 0.950 . S
H3817 C3846 0.950 . S
H3818 C3848 0.950 . S
H3819 C3849 0.950 . S
C3820 H3802 0.951 . S
C3820 C3821 1.366 . S
C3820 C3822 1.388 . S
C3821 C3820 1.366 . S
C3821 C3825 1.385 . S
C3822 H3803 0.951 . S
C3822 C3820 1.388 . S
C3822 C3823 1.366 . S
C3823 C3822 1.366 . S
C3823 C3824 1.414 . S
C3823 C3826 1.499 . S
C3824 H3804 0.950 . S
C3824 C3823 1.414 . S
C3824 C3825 1.374 . S
C3825 H3805 0.950 . S
C3825 C3821 1.385 . S
C3825 C3824 1.374 . S
C3826 C3823 1.499 . S
C3826 C3827 1.373 . S
C3826 C3828 1.389 . S
C3827 H3806 0.950 . S
C3827 C3826 1.373 . S
C3827 C3843 1.377 . S
C3828 C3826 1.389 . S
C3828 C3829 1.524 . S
C3828 C3842 1.377 . S
C3829 C3828 1.524 . S
C3829 C3830 1.397 . S
C3829 C3834 1.363 . S
C3830 H3807 0.950 . S
C3830 C3829 1.397 . S
C3830 C3831 1.334 . S
C3831 H3808 0.950 . S
C3831 C3830 1.334 . S
C3831 C3832 1.287 . S
C3832 C3831 1.287 . S
C3832 C3833 1.524 . S
C3832 H3851 0.913 . S
C3833 H3809 0.950 . S
C3833 C3832 1.524 . S
C3833 C3834 1.415 . S
C3834 H3810 0.950 . S
C3834 C3829 1.363 . S
C3834 C3833 1.415 . S
C3835 H3811 0.951 . S
C3835 C3836 1.366 . S
C3835 C3837 1.388 . S
C3836 C3835 1.366 . S
C3836 C3840 1.385 . S
C3837 H3812 0.951 . S
C3837 C3835 1.388 . S
C3837 C3838 1.366 . S
C3838 C3837 1.366 . S
C3838 C3839 1.414 . S
C3838 C3841 1.499 . S
C3839 H3813 0.950 . S
C3839 C3838 1.414 . S
C3839 C3840 1.374 . S
C3840 H3814 0.950 . S
C3840 C3836 1.385 . S
C3840 C3839 1.374 . S
C3841 C3838 1.499 . S
C3841 C3842 1.373 . S
C3841 C3843 1.389 . S
C3842 H3815 0.950 . S
C3842 C3828 1.377 . S
C3842 C3841 1.373 . S
C3843 C3827 1.377 . S
C3843 C3841 1.389 . S
C3843 C3844 1.524 . S
C3844 C3843 1.524 . S
C3844 C3845 1.397 . S
C3844 C3849 1.363 . S
C3845 H3816 0.950 . S
C3845 C3844 1.397 . S
C3845 C3846 1.334 . S
C3846 H3817 0.950 . S
C3846 C3845 1.334 . S
C3846 C3847 1.287 . S
C3847 C3846 1.287 . S
C3847 C3848 1.524 . S
C3847 H3850 0.999 . S
C3848 H3818 0.950 . S
C3848 C3847 1.524 . S
C3848 C3849 1.415 . S
C3849 H3819 0.950 . S
C3849 C3844 1.363 . S
C3849 C3848 1.415 . S
H3850 C3847 0.999 . S
H3851 C3832 0.913 . S
H3852 C3870 0.951 . S
H3853 C3872 0.951 . S
H3854 C3874 0.950 . S
H3855 C3875 0.950 . S
H3856 C3877 0.950 . S
H3857 C3880 0.950 . S
H3858 C3881 0.950 . S
H3859 C3883 0.950 . S
H3860 C3884 0.950 . S
H3861 C3885 0.951 . S
H3862 C3887 0.951 . S
H3863 C3889 0.950 . S
H3864 C3890 0.950 . S
H3865 C3892 0.950 . S
H3866 C3895 0.950 . S
H3867 C3896 0.950 . S
H3868 C3898 0.950 . S
H3869 C3899 0.950 . S
C3870 H3852 0.951 . S
C3870 C3871 1.366 . S
C3870 C3872 1.388 . S
C3871 C3870 1.366 . S
C3871 C3875 1.385 . S
C3872 H3853 0.951 . S
C3872 C3870 1.388 . S
C3872 C3873 1.366 . S
C3873 C3872 1.366 . S
C3873 C3874 1.414 . S
C3873 C3876 1.499 . S
C3874 H3854 0.950 . S
C3874 C3873 1.414 . S
C3874 C3875 1.374 . S
C3875 H3855 0.950 . S
C3875 C3871 1.385 . S
C3875 C3874 1.374 . S
C3876 C3873 1.499 . S
C3876 C3877 1.373 . S
C3876 C3878 1.389 . S
C3877 H3856 0.950 . S
C3877 C3876 1.373 . S
C3877 C3893 1.377 . S
C3878 C3876 1.389 . S
C3878 C3879 1.524 . S
C3878 C3892 1.377 . S
C3879 C3878 1.524 . S
C3879 C3880 1.397 . S
C3879 C3884 1.363 . S
C3880 H3857 0.950 . S
C3880 C3879 1.397 . S
C3880 C3881 1.334 . S
C3881 H3858 0.950 . S
C3881 C3880 1.334 . S
C3881 C3882 1.287 . S
C3882 C3881 1.287 . S
C3882 C3883 1.524 . S
C3882 H3901 0.913 . S
C3883 H3859 0.950 . S
C3883 C3882 1.524 . S
C3883 C3884 1.415 . S
C3884 H3860 0.950 . S
C3884 C3879 1.363 . S
C3884 C3883 1.415 . S
C3885 H3861 0.951 . S
C3885 C3886 1.366 . S
C3885 C3887 1.388 . S
C3886 C3885 1.366 . S
C3886 C3890 1.385 . S
C3887 H3862 0.951 . S
C3887 C3885 1.388 . S
C3887 C3888 1.366 . S
C3888 C3887 1.366 . S
C3888 C3889 1.414 . S
C3888 C3891 1.499 . S
C3889 H3863 0.950 . S
C3889 C3888 1.414 . S
C3889 C3890 1.374 . S
C3890 H3864 0.950 . S
C3890 C3886 1.385 . S
C3890 C3889 1.374 . S
C3891 C3888 1.499 . S
C3891 C3892 1.373 . S
C3891 C3893 1.389 . S
C3892 H3865 0.950 . S
C3892 C3878 1.377 . S
C3892 C3891 1.373 . S
C3893 C3877 1.377 . S
C3893 C3891 1.389 . S
C3893 C3894 1.524 . S
C3894 C3893 1.524 . S
C3894 C3895 1.397 . S
C3894 C3899 1.363 . S
C3895 H3866 0.950 . S
C3895 C3894 1.397 . S
C3895 C3896 1.334 . S
C3896 H3867 0.950 . S
C3896 C3895 1.334 . S
C3896 C3897 1.287 . S
C3897 C3896 1.287 . S
C3897 C3898 1.524 . S
C3897 H3900 0.999 . S
C3898 H3868 0.950 . S
C3898 C3897 1.524 . S
C3898 C3899 1.415 . S
C3899 H3869 0.950 . S
C3899 C3894 1.363 . S
C3899 C3898 1.415 . S
H3900 C3897 0.999 . S
H3901 C3882 0.913 . S
H3902 C3920 0.951 . S
H3903 C3922 0.951 . S
H3904 C3924 0.950 . S
H3905 C3925 0.950 . S
H3906 C3927 0.950 . S
H3907 C3930 0.950 . S
H3908 C3931 0.950 . S
H3909 C3933 0.950 . S
H3910 C3934 0.950 . S
H3911 C3935 0.951 . S
H3912 C3937 0.951 . S
H3913 C3939 0.950 . S
H3914 C3940 0.950 . S
H3915 C3942 0.950 . S
H3916 C3945 0.950 . S
H3917 C3946 0.950 . S
H3918 C3948 0.950 . S
H3919 C3949 0.950 . S
C3920 H3902 0.951 . S
C3920 C3921 1.366 . S
C3920 C3922 1.388 . S
C3921 C3920 1.366 . S
C3921 C3925 1.385 . S
C3922 H3903 0.951 . S
C3922 C3920 1.388 . S
C3922 C3923 1.366 . S
C3923 C3922 1.366 . S
C3923 C3924 1.414 . S
C3923 C3926 1.499 . S
C3924 H3904 0.950 . S
C3924 C3923 1.414 . S
C3924 C3925 1.374 . S
C3925 H3905 0.950 . S
C3925 C3921 1.385 . S
C3925 C3924 1.374 . S
C3926 C3923 1.499 . S
C3926 C3927 1.373 . S
C3926 C3928 1.389 . S
C3927 H3906 0.950 . S
C3927 C3926 1.373 . S
C3927 C3943 1.377 . S
C3928 C3926 1.389 . S
C3928 C3929 1.524 . S
C3928 C3942 1.377 . S
C3929 C3928 1.524 . S
C3929 C3930 1.397 . S
C3929 C3934 1.363 . S
C3930 H3907 0.950 . S
C3930 C3929 1.397 . S
C3930 C3931 1.334 . S
C3931 H3908 0.950 . S
C3931 C3930 1.334 . S
C3931 C3932 1.287 . S
C3932 C3931 1.287 . S
C3932 C3933 1.524 . S
C3932 H3951 0.913 . S
C3933 H3909 0.950 . S
C3933 C3932 1.524 . S
C3933 C3934 1.415 . S
C3934 H3910 0.950 . S
C3934 C3929 1.363 . S
C3934 C3933 1.415 . S
C3935 H3911 0.951 . S
C3935 C3936 1.366 . S
C3935 C3937 1.388 . S
C3936 C3935 1.366 . S
C3936 C3940 1.385 . S
C3937 H3912 0.951 . S
C3937 C3935 1.388 . S
C3937 C3938 1.366 . S
C3938 C3937 1.366 . S
C3938 C3939 1.414 . S
C3938 C3941 1.499 . S
C3939 H3913 0.950 . S
C3939 C3938 1.414 . S
C3939 C3940 1.374 . S
C3940 H3914 0.950 . S
C3940 C3936 1.385 . S
C3940 C3939 1.374 . S
C3941 C3938 1.499 . S
C3941 C3942 1.373 . S
C3941 C3943 1.389 . S
C3942 H3915 0.950 . S
C3942 C3928 1.377 . S
C3942 C3941 1.373 . S
C3943 C3927 1.377 . S
C3943 C3941 1.389 . S
C3943 C3944 1.524 . S
C3944 C3943 1.524 . S
C3944 C3945 1.397 . S
C3944 C3949 1.363 . S
C3945 H3916 0.950 . S
C3945 C3944 1.397 . S
C3945 C3946 1.334 . S
C3946 H3917 0.950 . S
C3946 C3945 1.334 . S
C3946 C3947 1.287 . S
C3947 C3946 1.287 . S
C3947 C3948 1.524 . S
C3947 H3950 0.999 . S
C3948 H3918 0.950 . S
C3948 C3947 1.524 . S
C3948 C3949 1.415 . S
C3949 H3919 0.950 . S
C3949 C3944 1.363 . S
C3949 C3948 1.415 . S
H3950 C3947 0.999 . S
H3951 C3932 0.913 . S
H3952 C3970 0.951 . S
H3953 C3972 0.951 . S
H3954 C3974 0.950 . S
H3955 C3975 0.950 . S
H3956 C3977 0.950 . S
H3957 C3980 0.950 . S
H3958 C3981 0.950 . S
H3959 C3983 0.950 . S
H3960 C3984 0.950 . S
H3961 C3985 0.951 . S
H3962 C3987 0.951 . S
H3963 C3989 0.950 . S
H3964 C3990 0.950 . S
H3965 C3992 0.950 . S
H3966 C3995 0.950 . S
H3967 C3996 0.950 . S
H3968 C3998 0.950 . S
H3969 C3999 0.950 . S
C3970 H3952 0.951 . S
C3970 C3971 1.366 . S
C3970 C3972 1.388 . S
C3971 C3970 1.366 . S
C3971 C3975 1.385 . S
C3972 H3953 0.951 . S
C3972 C3970 1.388 . S
C3972 C3973 1.366 . S
C3973 C3972 1.366 . S
C3973 C3974 1.414 . S
C3973 C3976 1.499 . S
C3974 H3954 0.950 . S
C3974 C3973 1.414 . S
C3974 C3975 1.374 . S
C3975 H3955 0.950 . S
C3975 C3971 1.385 . S
C3975 C3974 1.374 . S
C3976 C3973 1.499 . S
C3976 C3977 1.373 . S
C3976 C3978 1.389 . S
C3977 H3956 0.950 . S
C3977 C3976 1.373 . S
C3977 C3993 1.377 . S
C3978 C3976 1.389 . S
C3978 C3979 1.524 . S
C3978 C3992 1.377 . S
C3979 C3978 1.524 . S
C3979 C3980 1.397 . S
C3979 C3984 1.363 1_455 S
C3980 H3957 0.950 . S
C3980 C3979 1.397 . S
C3980 C3981 1.334 1_455 S
C3981 H3958 0.950 . S
C3981 C3980 1.334 1_655 S
C3981 C3982 1.287 . S
C3982 C3981 1.287 . S
C3982 C3983 1.524 . S
C3982 H4001 0.913 . S
C3983 H3959 0.950 . S
C3983 C3982 1.524 . S
C3983 C3984 1.415 . S
C3984 H3960 0.950 . S
C3984 C3979 1.363 1_655 S
C3984 C3983 1.415 . S
C3985 H3961 0.951 . S
C3985 C3986 1.366 . S
C3985 C3987 1.388 . S
C3986 C3985 1.366 . S
C3986 C3990 1.385 . S
C3987 H3962 0.951 . S
C3987 C3985 1.388 . S
C3987 C3988 1.366 . S
C3988 C3987 1.366 . S
C3988 C3989 1.414 . S
C3988 C3991 1.499 . S
C3989 H3963 0.950 . S
C3989 C3988 1.414 . S
C3989 C3990 1.374 . S
C3990 H3964 0.950 . S
C3990 C3986 1.385 . S
C3990 C3989 1.374 . S
C3991 C3988 1.499 . S
C3991 C3992 1.373 . S
C3991 C3993 1.389 . S
C3992 H3965 0.950 . S
C3992 C3978 1.377 . S
C3992 C3991 1.373 . S
C3993 C3977 1.377 . S
C3993 C3991 1.389 . S
C3993 C3994 1.524 . S
C3994 C3993 1.524 . S
C3994 C3995 1.397 . S
C3994 C3999 1.363 . S
C3995 H3966 0.950 . S
C3995 C3994 1.397 . S
C3995 C3996 1.334 . S
C3996 H3967 0.950 . S
C3996 C3995 1.334 . S
C3996 C3997 1.287 . S
C3997 C3996 1.287 . S
C3997 C3998 1.524 . S
C3997 H4000 0.999 . S
C3998 H3968 0.950 . S
C3998 C3997 1.524 . S
C3998 C3999 1.415 . S
C3999 H3969 0.950 . S
C3999 C3994 1.363 . S
C3999 C3998 1.415 . S
H4000 C3997 0.999 . S
H4001 C3982 0.913 . S
H4002 C4020 0.951 . S
H4003 C4022 0.951 . S
H4004 C4024 0.950 . S
H4005 C4025 0.950 . S
H4006 C4027 0.950 . S
H4007 C4030 0.950 . S
H4008 C4031 0.950 . S
H4009 C4033 0.950 . S
H4010 C4034 0.950 . S
H4011 C4035 0.951 . S
H4012 C4037 0.951 . S
H4013 C4039 0.950 . S
H4014 C4040 0.950 . S
H4015 C4042 0.950 . S
H4016 C4045 0.950 . S
H4017 C4046 0.950 . S
H4018 C4048 0.950 . S
H4019 C4049 0.950 . S
C4020 H4002 0.951 . S
C4020 C4021 1.366 . S
C4020 C4022 1.388 . S
C4021 C4020 1.366 . S
C4021 C4025 1.385 . S
C4022 H4003 0.951 . S
C4022 C4020 1.388 . S
C4022 C4023 1.366 . S
C4023 C4022 1.366 . S
C4023 C4024 1.414 . S
C4023 C4026 1.499 . S
C4024 H4004 0.950 . S
C4024 C4023 1.414 . S
C4024 C4025 1.374 . S
C4025 H4005 0.950 . S
C4025 C4021 1.385 . S
C4025 C4024 1.374 . S
C4026 C4023 1.499 . S
C4026 C4027 1.373 . S
C4026 C4028 1.389 . S
C4027 H4006 0.950 . S
C4027 C4026 1.373 . S
C4027 C4043 1.377 . S
C4028 C4026 1.389 . S
C4028 C4029 1.524 . S
C4028 C4042 1.377 . S
C4029 C4028 1.524 . S
C4029 C4030 1.397 . S
C4029 C4034 1.363 . S
C4030 H4007 0.950 . S
C4030 C4029 1.397 . S
C4030 C4031 1.334 . S
C4031 H4008 0.950 . S
C4031 C4030 1.334 . S
C4031 C4032 1.287 . S
C4032 C4031 1.287 . S
C4032 C4033 1.524 . S
C4032 H4051 0.913 . S
C4033 H4009 0.950 . S
C4033 C4032 1.524 . S
C4033 C4034 1.415 . S
C4034 H4010 0.950 . S
C4034 C4029 1.363 . S
C4034 C4033 1.415 . S
C4035 H4011 0.951 . S
C4035 C4036 1.366 . S
C4035 C4037 1.388 . S
C4036 C4035 1.366 . S
C4036 C4040 1.385 . S
C4037 H4012 0.951 . S
C4037 C4035 1.388 . S
C4037 C4038 1.366 . S
C4038 C4037 1.366 . S
C4038 C4039 1.414 . S
C4038 C4041 1.499 . S
C4039 H4013 0.950 . S
C4039 C4038 1.414 . S
C4039 C4040 1.374 . S
C4040 H4014 0.950 . S
C4040 C4036 1.385 . S
C4040 C4039 1.374 . S
C4041 C4038 1.499 . S
C4041 C4042 1.373 . S
C4041 C4043 1.389 . S
C4042 H4015 0.950 . S
C4042 C4028 1.377 . S
C4042 C4041 1.373 . S
C4043 C4027 1.377 . S
C4043 C4041 1.389 . S
C4043 C4044 1.524 . S
C4044 C4043 1.524 . S
C4044 C4045 1.397 . S
C4044 C4049 1.363 . S
C4045 H4016 0.950 . S
C4045 C4044 1.397 . S
C4045 C4046 1.334 . S
C4046 H4017 0.950 . S
C4046 C4045 1.334 . S
C4046 C4047 1.287 . S
C4047 C4046 1.287 . S
C4047 C4048 1.524 . S
C4047 H4050 0.999 . S
C4048 H4018 0.950 . S
C4048 C4047 1.524 . S
C4048 C4049 1.415 . S
C4049 H4019 0.950 . S
C4049 C4044 1.363 . S
C4049 C4048 1.415 . S
H4050 C4047 0.999 . S
H4051 C4032 0.913 . S
H4052 C4070 0.951 . S
H4053 C4072 0.951 . S
H4054 C4074 0.950 . S
H4055 C4075 0.950 . S
H4056 C4077 0.950 . S
H4057 C4080 0.950 . S
H4058 C4081 0.950 . S
H4059 C4083 0.950 . S
H4060 C4084 0.950 . S
H4061 C4085 0.951 . S
H4062 C4087 0.951 . S
H4063 C4089 0.950 . S
H4064 C4090 0.950 . S
H4065 C4092 0.950 . S
H4066 C4095 0.950 . S
H4067 C4096 0.950 . S
H4068 C4098 0.950 . S
H4069 C4099 0.950 . S
C4070 H4052 0.951 . S
C4070 C4071 1.366 . S
C4070 C4072 1.388 . S
C4071 C4070 1.366 . S
C4071 C4075 1.385 . S
C4072 H4053 0.951 . S
C4072 C4070 1.388 . S
C4072 C4073 1.366 . S
C4073 C4072 1.366 . S
C4073 C4074 1.414 . S
C4073 C4076 1.499 . S
C4074 H4054 0.950 . S
C4074 C4073 1.414 . S
C4074 C4075 1.374 . S
C4075 H4055 0.950 . S
C4075 C4071 1.385 . S
C4075 C4074 1.374 . S
C4076 C4073 1.499 . S
C4076 C4077 1.373 . S
C4076 C4078 1.389 . S
C4077 H4056 0.950 . S
C4077 C4076 1.373 . S
C4077 C4093 1.377 . S
C4078 C4076 1.389 . S
C4078 C4079 1.524 . S
C4078 C4092 1.377 . S
C4079 C4078 1.524 . S
C4079 C4080 1.397 . S
C4079 C4084 1.363 . S
C4080 H4057 0.950 . S
C4080 C4079 1.397 . S
C4080 C4081 1.334 . S
C4081 H4058 0.950 . S
C4081 C4080 1.334 . S
C4081 C4082 1.287 . S
C4082 C4081 1.287 . S
C4082 C4083 1.524 . S
C4082 H4101 0.913 . S
C4083 H4059 0.950 . S
C4083 C4082 1.524 . S
C4083 C4084 1.415 . S
C4084 H4060 0.950 . S
C4084 C4079 1.363 . S
C4084 C4083 1.415 . S
C4085 H4061 0.951 . S
C4085 C4086 1.366 . S
C4085 C4087 1.388 . S
C4086 C4085 1.366 . S
C4086 C4090 1.385 . S
C4087 H4062 0.951 . S
C4087 C4085 1.388 . S
C4087 C4088 1.366 . S
C4088 C4087 1.366 . S
C4088 C4089 1.414 . S
C4088 C4091 1.499 . S
C4089 H4063 0.950 . S
C4089 C4088 1.414 . S
C4089 C4090 1.374 . S
C4090 H4064 0.950 . S
C4090 C4086 1.385 . S
C4090 C4089 1.374 . S
C4091 C4088 1.499 . S
C4091 C4092 1.373 . S
C4091 C4093 1.389 . S
C4092 H4065 0.950 . S
C4092 C4078 1.377 . S
C4092 C4091 1.373 . S
C4093 C4077 1.377 . S
C4093 C4091 1.389 . S
C4093 C4094 1.524 . S
C4094 C4093 1.524 . S
C4094 C4095 1.397 . S
C4094 C4099 1.363 . S
C4095 H4066 0.950 . S
C4095 C4094 1.397 . S
C4095 C4096 1.334 . S
C4096 H4067 0.950 . S
C4096 C4095 1.334 . S
C4096 C4097 1.287 . S
C4097 C4096 1.287 . S
C4097 C4098 1.524 . S
C4097 H4100 0.999 . S
C4098 H4068 0.950 . S
C4098 C4097 1.524 . S
C4098 C4099 1.415 . S
C4099 H4069 0.950 . S
C4099 C4094 1.363 . S
C4099 C4098 1.415 . S
H4100 C4097 0.999 . S
H4101 C4082 0.913 . S
H4102 C4120 0.951 . S
H4103 C4122 0.951 . S
H4104 C4124 0.950 . S
H4105 C4125 0.950 . S
H4106 C4127 0.950 . S
H4107 C4130 0.950 . S
H4108 C4131 0.950 . S
H4109 C4133 0.950 . S
H4110 C4134 0.950 . S
H4111 C4135 0.951 . S
H4112 C4137 0.951 . S
H4113 C4139 0.950 . S
H4114 C4140 0.950 . S
H4115 C4142 0.950 . S
H4116 C4145 0.950 . S
H4117 C4146 0.950 . S
H4118 C4148 0.950 . S
H4119 C4149 0.950 . S
C4120 H4102 0.951 . S
C4120 C4121 1.366 . S
C4120 C4122 1.388 . S
C4121 C4120 1.366 . S
C4121 C4125 1.385 . S
C4122 H4103 0.951 . S
C4122 C4120 1.388 . S
C4122 C4123 1.366 . S
C4123 C4122 1.366 . S
C4123 C4124 1.414 . S
C4123 C4126 1.499 . S
C4124 H4104 0.950 . S
C4124 C4123 1.414 . S
C4124 C4125 1.374 . S
C4125 H4105 0.950 . S
C4125 C4121 1.385 . S
C4125 C4124 1.374 . S
C4126 C4123 1.499 . S
C4126 C4127 1.373 . S
C4126 C4128 1.389 . S
C4127 H4106 0.950 . S
C4127 C4126 1.373 . S
C4127 C4143 1.377 . S
C4128 C4126 1.389 . S
C4128 C4129 1.524 . S
C4128 C4142 1.377 . S
C4129 C4128 1.524 . S
C4129 C4130 1.397 . S
C4129 C4134 1.363 . S
C4130 H4107 0.950 . S
C4130 C4129 1.397 . S
C4130 C4131 1.334 . S
C4131 H4108 0.950 . S
C4131 C4130 1.334 . S
C4131 C4132 1.287 . S
C4132 C4131 1.287 . S
C4132 C4133 1.524 . S
C4132 H4151 0.913 . S
C4133 H4109 0.950 . S
C4133 C4132 1.524 . S
C4133 C4134 1.415 . S
C4134 H4110 0.950 . S
C4134 C4129 1.363 . S
C4134 C4133 1.415 . S
C4135 H4111 0.951 . S
C4135 C4136 1.366 . S
C4135 C4137 1.388 . S
C4136 C4135 1.366 . S
C4136 C4140 1.385 . S
C4137 H4112 0.951 . S
C4137 C4135 1.388 . S
C4137 C4138 1.366 . S
C4138 C4137 1.366 . S
C4138 C4139 1.414 . S
C4138 C4141 1.499 . S
C4139 H4113 0.950 . S
C4139 C4138 1.414 . S
C4139 C4140 1.374 . S
C4140 H4114 0.950 . S
C4140 C4136 1.385 . S
C4140 C4139 1.374 . S
C4141 C4138 1.499 . S
C4141 C4142 1.373 . S
C4141 C4143 1.389 . S
C4142 H4115 0.950 . S
C4142 C4128 1.377 . S
C4142 C4141 1.373 . S
C4143 C4127 1.377 . S
C4143 C4141 1.389 . S
C4143 C4144 1.524 . S
C4144 C4143 1.524 . S
C4144 C4145 1.397 . S
C4144 C4149 1.363 . S
C4145 H4116 0.950 . S
C4145 C4144 1.397 . S
C4145 C4146 1.334 . S
C4146 H4117 0.950 . S
C4146 C4145 1.334 . S
C4146 C4147 1.287 . S
C4147 C4146 1.287 . S
C4147 C4148 1.524 . S
C4147 H4150 0.999 . S
C4148 H4118 0.950 . S
C4148 C4147 1.524 . S
C4148 C4149 1.415 . S
C4149 H4119 0.950 . S
C4149 C4144 1.363 . S
C4149 C4148 1.415 . S
H4150 C4147 0.999 . S
H4151 C4132 0.913 . S
H4152 C4170 0.951 . S
H4153 C4172 0.951 . S
H4154 C4174 0.950 . S
H4155 C4175 0.950 . S
H4156 C4177 0.950 . S
H4157 C4180 0.950 . S
H4158 C4181 0.950 . S
H4159 C4183 0.934 1_455 S
H4160 C4184 0.950 . S
H4161 C4185 0.951 . S
H4162 C4187 0.963 . S
H4163 C4189 0.950 . S
H4164 C4190 0.950 . S
H4165 C4192 0.950 . S
H4166 C4195 0.950 . S
H4167 C4196 0.950 . S
H4168 C4198 0.950 . S
H4169 C4199 0.950 . S
C4170 H4152 0.951 . S
C4170 C4171 1.366 . S
C4170 C4172 1.388 . S
C4171 C4170 1.366 . S
C4171 C4175 1.385 . S
C4172 H4153 0.951 . S
C4172 C4170 1.388 . S
C4172 C4173 1.366 . S
C4173 C4172 1.366 . S
C4173 C4174 1.414 . S
C4173 C4176 1.499 . S
C4174 H4154 0.950 . S
C4174 C4173 1.414 . S
C4174 C4175 1.374 . S
C4175 H4155 0.950 . S
C4175 C4171 1.385 . S
C4175 C4174 1.374 . S
C4176 C4173 1.499 . S
C4176 C4177 1.373 . S
C4176 C4178 1.389 . S
C4177 H4156 0.950 . S
C4177 C4176 1.373 . S
C4177 C4193 1.377 . S
C4178 C4176 1.389 . S
C4178 C4179 1.532 . S
C4178 C4192 1.377 . S
C4179 C4178 1.532 . S
C4179 C4180 1.368 1_455 S
C4179 C4184 1.382 . S
C4180 H4157 0.950 . S
C4180 C4179 1.368 1_655 S
C4180 C4181 1.334 . S
C4181 H4158 0.950 . S
C4181 C4180 1.334 . S
C4181 C4182 1.287 . S
C4182 C4181 1.287 . S
C4182 C4183 1.550 . S
C4182 H4201 0.913 . S
C4183 H4159 0.934 1_655 S
C4183 C4182 1.550 . S
C4183 C4184 1.408 1_655 S
C4184 H4160 0.950 . S
C4184 C4179 1.382 . S
C4184 C4183 1.408 1_455 S
C4185 H4161 0.951 . S
C4185 C4186 1.366 1_655 S
C4185 C4187 1.387 . S
C4186 C4185 1.366 1_455 S
C4186 C4190 1.385 . S
C4187 H4162 0.963 . S
C4187 C4185 1.387 . S
C4187 C4188 1.354 1_655 S
C4188 C4187 1.354 1_455 S
C4188 C4189 1.414 . S
C4188 C4191 1.499 . S
C4189 H4163 0.950 . S
C4189 C4188 1.414 . S
C4189 C4190 1.374 . S
C4190 H4164 0.950 . S
C4190 C4186 1.385 . S
C4190 C4189 1.374 . S
C4191 C4188 1.499 . S
C4191 C4192 1.373 . S
C4191 C4193 1.389 . S
C4192 H4165 0.950 . S
C4192 C4178 1.377 . S
C4192 C4191 1.373 . S
C4193 C4177 1.377 . S
C4193 C4191 1.389 . S
C4193 C4194 1.524 . S
C4194 C4193 1.524 . S
C4194 C4195 1.397 . S
C4194 C4199 1.363 . S
C4195 H4166 0.950 . S
C4195 C4194 1.397 . S
C4195 C4196 1.334 . S
C4196 H4167 0.950 . S
C4196 C4195 1.334 . S
C4196 C4197 1.287 . S
C4197 C4196 1.287 . S
C4197 C4198 1.524 . S
C4197 H4200 0.999 . S
C4198 H4168 0.950 . S
C4198 C4197 1.524 . S
C4198 C4199 1.415 . S
C4199 H4169 0.950 . S
C4199 C4194 1.363 . S
C4199 C4198 1.415 . S
H4200 C4197 0.999 . S
H4201 C4182 0.913 . S
H4202 C4220 0.951 . S
H4203 C4222 0.951 . S
H4204 C4224 0.950 . S
H4205 C4225 0.950 . S
H4206 C4227 0.950 . S
H4207 C4230 0.950 . S
H4208 C4231 0.950 . S
H4209 C4233 0.950 . S
H4210 C4234 0.950 . S
H4211 C4235 0.951 . S
H4212 C4237 0.951 . S
H4213 C4239 0.950 . S
H4214 C4240 0.950 . S
H4215 C4242 0.950 . S
H4216 C4245 0.950 . S
H4217 C4246 0.950 . S
H4218 C4248 0.950 . S
H4219 C4249 0.950 . S
C4220 H4202 0.951 . S
C4220 C4221 1.366 . S
C4220 C4222 1.388 . S
C4221 C4220 1.366 . S
C4221 C4225 1.385 . S
C4222 H4203 0.951 . S
C4222 C4220 1.388 . S
C4222 C4223 1.366 . S
C4223 C4222 1.366 . S
C4223 C4224 1.414 . S
C4223 C4226 1.499 . S
C4224 H4204 0.950 . S
C4224 C4223 1.414 . S
C4224 C4225 1.374 . S
C4225 H4205 0.950 . S
C4225 C4221 1.385 . S
C4225 C4224 1.374 . S
C4226 C4223 1.499 . S
C4226 C4227 1.373 . S
C4226 C4228 1.389 . S
C4227 H4206 0.950 . S
C4227 C4226 1.373 . S
C4227 C4243 1.377 . S
C4228 C4226 1.389 . S
C4228 C4229 1.524 . S
C4228 C4242 1.377 . S
C4229 C4228 1.524 . S
C4229 C4230 1.397 . S
C4229 C4234 1.363 . S
C4230 H4207 0.950 . S
C4230 C4229 1.397 . S
C4230 C4231 1.334 . S
C4231 H4208 0.950 . S
C4231 C4230 1.334 . S
C4231 C4232 1.287 . S
C4232 C4231 1.287 . S
C4232 C4233 1.524 . S
C4232 H4251 0.913 . S
C4233 H4209 0.950 . S
C4233 C4232 1.524 . S
C4233 C4234 1.415 . S
C4234 H4210 0.950 . S
C4234 C4229 1.363 . S
C4234 C4233 1.415 . S
C4235 H4211 0.951 . S
C4235 C4236 1.366 . S
C4235 C4237 1.388 . S
C4236 C4235 1.366 . S
C4236 C4240 1.385 . S
C4237 H4212 0.951 . S
C4237 C4235 1.388 . S
C4237 C4238 1.366 . S
C4238 C4237 1.366 . S
C4238 C4239 1.414 . S
C4238 C4241 1.499 . S
C4239 H4213 0.950 . S
C4239 C4238 1.414 . S
C4239 C4240 1.374 . S
C4240 H4214 0.950 . S
C4240 C4236 1.385 . S
C4240 C4239 1.374 . S
C4241 C4238 1.499 . S
C4241 C4242 1.373 . S
C4241 C4243 1.389 . S
C4242 H4215 0.950 . S
C4242 C4228 1.377 . S
C4242 C4241 1.373 . S
C4243 C4227 1.377 . S
C4243 C4241 1.389 . S
C4243 C4244 1.524 . S
C4244 C4243 1.524 . S
C4244 C4245 1.397 . S
C4244 C4249 1.363 . S
C4245 H4216 0.950 . S
C4245 C4244 1.397 . S
C4245 C4246 1.334 . S
C4246 H4217 0.950 . S
C4246 C4245 1.334 . S
C4246 C4247 1.287 . S
C4247 C4246 1.287 . S
C4247 C4248 1.524 . S
C4247 H4250 0.999 . S
C4248 H4218 0.950 . S
C4248 C4247 1.524 . S
C4248 C4249 1.415 . S
C4249 H4219 0.950 . S
C4249 C4244 1.363 . S
C4249 C4248 1.415 . S
H4250 C4247 0.999 . S
H4251 C4232 0.913 . S
H4252 C4270 0.951 . S
H4253 C4272 0.951 . S
H4254 C4274 0.950 . S
H4255 C4275 0.950 . S
H4256 C4277 0.950 . S
H4257 C4280 0.950 . S
H4258 C4281 0.950 . S
H4259 C4283 0.950 . S
H4260 C4284 0.950 . S
H4261 C4285 0.951 . S
H4262 C4287 0.951 . S
H4263 C4289 0.950 . S
H4264 C4290 0.950 . S
H4265 C4292 0.950 . S
H4266 C4295 0.950 . S
H4267 C4296 0.950 . S
H4268 C4298 0.950 . S
H4269 C4299 0.950 . S
C4270 H4252 0.951 . S
C4270 C4271 1.366 . S
C4270 C4272 1.388 . S
C4271 C4270 1.366 . S
C4271 C4275 1.385 . S
C4272 H4253 0.951 . S
C4272 C4270 1.388 . S
C4272 C4273 1.366 . S
C4273 C4272 1.366 . S
C4273 C4274 1.414 . S
C4273 C4276 1.499 . S
C4274 H4254 0.950 . S
C4274 C4273 1.414 . S
C4274 C4275 1.374 . S
C4275 H4255 0.950 . S
C4275 C4271 1.385 . S
C4275 C4274 1.374 . S
C4276 C4273 1.499 . S
C4276 C4277 1.373 . S
C4276 C4278 1.389 . S
C4277 H4256 0.950 . S
C4277 C4276 1.373 . S
C4277 C4293 1.377 . S
C4278 C4276 1.389 . S
C4278 C4279 1.524 . S
C4278 C4292 1.377 . S
C4279 C4278 1.524 . S
C4279 C4280 1.397 . S
C4279 C4284 1.363 . S
C4280 H4257 0.950 . S
C4280 C4279 1.397 . S
C4280 C4281 1.334 . S
C4281 H4258 0.950 . S
C4281 C4280 1.334 . S
C4281 C4282 1.287 . S
C4282 C4281 1.287 . S
C4282 C4283 1.524 . S
C4282 H4301 0.913 . S
C4283 H4259 0.950 . S
C4283 C4282 1.524 . S
C4283 C4284 1.415 . S
C4284 H4260 0.950 . S
C4284 C4279 1.363 . S
C4284 C4283 1.415 . S
C4285 H4261 0.951 . S
C4285 C4286 1.366 . S
C4285 C4287 1.388 . S
C4286 C4285 1.366 . S
C4286 C4290 1.385 . S
C4287 H4262 0.951 . S
C4287 C4285 1.388 . S
C4287 C4288 1.366 . S
C4288 C4287 1.366 . S
C4288 C4289 1.414 . S
C4288 C4291 1.499 . S
C4289 H4263 0.950 . S
C4289 C4288 1.414 . S
C4289 C4290 1.374 . S
C4290 H4264 0.950 . S
C4290 C4286 1.385 . S
C4290 C4289 1.374 . S
C4291 C4288 1.499 . S
C4291 C4292 1.373 . S
C4291 C4293 1.389 . S
C4292 H4265 0.950 . S
C4292 C4278 1.377 . S
C4292 C4291 1.373 . S
C4293 C4277 1.377 . S
C4293 C4291 1.389 . S
C4293 C4294 1.524 . S
C4294 C4293 1.524 . S
C4294 C4295 1.397 . S
C4294 C4299 1.363 . S
C4295 H4266 0.950 . S
C4295 C4294 1.397 . S
C4295 C4296 1.334 1_556 S
C4296 H4267 0.950 . S
C4296 C4295 1.334 1_554 S
C4296 C4297 1.287 . S
C4297 C4296 1.287 . S
C4297 C4298 1.525 . S
C4297 H4300 0.999 . S
C4298 H4268 0.950 . S
C4298 C4297 1.525 . S
C4298 C4299 1.413 1_554 S
C4299 H4269 0.950 . S
C4299 C4294 1.363 . S
C4299 C4298 1.413 1_556 S
H4300 C4297 0.999 . S
H4301 C4282 0.913 . S
H4302 C4320 0.951 . S
H4303 C4322 0.951 . S
H4304 C4324 0.950 . S
H4305 C4325 0.950 . S
H4306 C4327 0.950 . S
H4307 C4330 0.950 . S
H4308 C4331 0.950 . S
H4309 C4333 0.950 . S
H4310 C4334 0.950 . S
H4311 C4335 0.951 . S
H4312 C4337 0.951 . S
H4313 C4339 0.950 . S
H4314 C4340 0.950 . S
H4315 C4342 0.950 . S
H4316 C4345 0.950 . S
H4317 C4346 0.950 . S
H4318 C4348 0.950 . S
H4319 C4349 0.950 . S
C4320 H4302 0.951 . S
C4320 C4321 1.366 . S
C4320 C4322 1.388 . S
C4321 C4320 1.366 . S
C4321 C4325 1.385 . S
C4322 H4303 0.951 . S
C4322 C4320 1.388 . S
C4322 C4323 1.366 . S
C4323 C4322 1.366 . S
C4323 C4324 1.414 . S
C4323 C4326 1.499 . S
C4324 H4304 0.950 . S
C4324 C4323 1.414 . S
C4324 C4325 1.374 . S
C4325 H4305 0.950 . S
C4325 C4321 1.385 . S
C4325 C4324 1.374 . S
C4326 C4323 1.499 . S
C4326 C4327 1.373 . S
C4326 C4328 1.389 . S
C4327 H4306 0.950 . S
C4327 C4326 1.373 . S
C4327 C4343 1.377 . S
C4328 C4326 1.389 . S
C4328 C4329 1.524 . S
C4328 C4342 1.377 . S
C4329 C4328 1.524 . S
C4329 C4330 1.397 . S
C4329 C4334 1.363 . S
C4330 H4307 0.950 . S
C4330 C4329 1.397 . S
C4330 C4331 1.334 . S
C4331 H4308 0.950 . S
C4331 C4330 1.334 . S
C4331 C4332 1.287 . S
C4332 C4331 1.287 . S
C4332 C4333 1.524 . S
C4332 H4351 0.913 . S
C4333 H4309 0.950 . S
C4333 C4332 1.524 . S
C4333 C4334 1.415 . S
C4334 H4310 0.950 . S
C4334 C4329 1.363 . S
C4334 C4333 1.415 . S
C4335 H4311 0.951 . S
C4335 C4336 1.366 . S
C4335 C4337 1.388 . S
C4336 C4335 1.366 . S
C4336 C4340 1.385 . S
C4337 H4312 0.951 . S
C4337 C4335 1.388 . S
C4337 C4338 1.366 . S
C4338 C4337 1.366 . S
C4338 C4339 1.414 . S
C4338 C4341 1.499 . S
C4339 H4313 0.950 . S
C4339 C4338 1.414 . S
C4339 C4340 1.374 . S
C4340 H4314 0.950 . S
C4340 C4336 1.385 . S
C4340 C4339 1.374 . S
C4341 C4338 1.499 . S
C4341 C4342 1.373 . S
C4341 C4343 1.389 . S
C4342 H4315 0.950 . S
C4342 C4328 1.377 . S
C4342 C4341 1.373 . S
C4343 C4327 1.377 . S
C4343 C4341 1.389 . S
C4343 C4344 1.524 . S
C4344 C4343 1.524 . S
C4344 C4345 1.397 . S
C4344 C4349 1.363 . S
C4345 H4316 0.950 . S
C4345 C4344 1.397 . S
C4345 C4346 1.334 . S
C4346 H4317 0.950 . S
C4346 C4345 1.334 . S
C4346 C4347 1.287 . S
C4347 C4346 1.287 . S
C4347 C4348 1.524 . S
C4347 H4350 0.999 . S
C4348 H4318 0.950 . S
C4348 C4347 1.524 . S
C4348 C4349 1.415 . S
C4349 H4319 0.950 . S
C4349 C4344 1.363 . S
C4349 C4348 1.415 . S
H4350 C4347 0.999 . S
H4351 C4332 0.913 . S
H4352 C4370 0.951 . S
H4353 C4372 0.951 . S
H4354 C4374 0.955 . S
H4355 C4375 0.976 . S
H4356 C4377 0.950 . S
H4357 C4380 0.950 1_565 S
H4358 C4381 0.950 1_565 S
H4359 C4383 0.950 . S
H4360 C4384 0.950 . S
H4361 C4385 0.954 1_565 S
H4362 C4387 0.971 . S
H4363 C4389 0.950 . S
H4364 C4390 0.950 . S
H4365 C4392 0.950 . S
H4366 C4395 0.950 . S
H4367 C4396 0.950 . S
H4368 C4398 0.950 . S
H4369 C4399 0.950 . S
C4370 H4352 0.951 . S
C4370 C4371 1.366 . S
C4370 C4372 1.388 . S
C4371 C4370 1.366 . S
C4371 C4375 1.385 . S
C4372 H4353 0.951 . S
C4372 C4370 1.388 . S
C4372 C4373 1.366 . S
C4373 C4372 1.366 . S
C4373 C4374 1.414 . S
C4373 C4376 1.499 . S
C4374 H4354 0.955 . S
C4374 C4373 1.414 . S
C4374 C4375 1.374 . S
C4375 H4355 0.976 . S
C4375 C4371 1.385 . S
C4375 C4374 1.374 . S
C4376 C4373 1.499 . S
C4376 C4377 1.373 . S
C4376 C4378 1.389 . S
C4377 H4356 0.950 . S
C4377 C4376 1.373 . S
C4377 C4393 1.377 . S
C4378 C4376 1.389 . S
C4378 C4379 1.524 . S
C4378 C4392 1.377 . S
C4379 C4378 1.524 . S
C4379 C4380 1.397 . S
C4379 C4384 1.363 . S
C4380 H4357 0.950 1_545 S
C4380 C4379 1.397 . S
C4380 C4381 1.334 . S
C4381 H4358 0.950 1_545 S
C4381 C4380 1.334 . S
C4381 C4382 1.287 . S
C4382 C4381 1.287 . S
C4382 C4383 1.524 . S
C4382 H4401 0.913 . S
C4383 H4359 0.950 . S
C4383 C4382 1.524 . S
C4383 C4384 1.415 . S
C4384 H4360 0.950 . S
C4384 C4379 1.363 . S
C4384 C4383 1.415 . S
C4385 H4361 0.954 1_545 S
C4385 C4386 1.366 . S
C4385 C4387 1.388 . S
C4386 C4385 1.366 . S
C4386 C4390 1.385 . S
C4387 H4362 0.971 . S
C4387 C4385 1.388 . S
C4387 C4388 1.366 . S
C4388 C4387 1.366 . S
C4388 C4389 1.414 . S
C4388 C4391 1.499 . S
C4389 H4363 0.950 . S
C4389 C4388 1.414 . S
C4389 C4390 1.374 . S
C4390 H4364 0.950 . S
C4390 C4386 1.385 . S
C4390 C4389 1.374 . S
C4391 C4388 1.499 . S
C4391 C4392 1.373 . S
C4391 C4393 1.389 . S
C4392 H4365 0.950 . S
C4392 C4378 1.377 . S
C4392 C4391 1.373 . S
C4393 C4377 1.377 . S
C4393 C4391 1.389 . S
C4393 C4394 1.524 . S
C4394 C4393 1.524 . S
C4394 C4395 1.397 . S
C4394 C4399 1.363 . S
C4395 H4366 0.950 . S
C4395 C4394 1.397 . S
C4395 C4396 1.334 1_455 S
C4396 H4367 0.950 . S
C4396 C4395 1.334 1_655 S
C4396 C4397 1.287 . S
C4397 C4396 1.287 . S
C4397 C4398 1.524 . S
C4397 H4400 0.999 . S
C4398 H4368 0.950 . S
C4398 C4397 1.524 . S
C4398 C4399 1.415 1_655 S
C4399 H4369 0.950 . S
C4399 C4394 1.363 . S
C4399 C4398 1.415 1_455 S
H4400 C4397 0.999 . S
H4401 C4382 0.913 . S
H4402 C4420 0.951 . S
H4403 C4422 0.951 . S
H4404 C4424 0.950 . S
H4405 C4425 0.950 . S
H4406 C4427 0.950 . S
H4407 C4430 0.950 . S
H4408 C4431 0.950 . S
H4409 C4433 0.950 . S
H4410 C4434 0.950 . S
H4411 C4435 0.951 . S
H4412 C4437 0.951 . S
H4413 C4439 0.950 . S
H4414 C4440 0.950 . S
H4415 C4442 0.950 . S
H4416 C4445 0.950 . S
H4417 C4446 0.950 . S
H4418 C4448 0.950 . S
H4419 C4449 0.950 . S
C4420 H4402 0.951 . S
C4420 C4421 1.366 . S
C4420 C4422 1.388 . S
C4421 C4420 1.366 . S
C4421 C4425 1.385 . S
C4422 H4403 0.951 . S
C4422 C4420 1.388 . S
C4422 C4423 1.366 . S
C4423 C4422 1.366 . S
C4423 C4424 1.414 . S
C4423 C4426 1.499 . S
C4424 H4404 0.950 . S
C4424 C4423 1.414 . S
C4424 C4425 1.374 . S
C4425 H4405 0.950 . S
C4425 C4421 1.385 . S
C4425 C4424 1.374 . S
C4426 C4423 1.499 . S
C4426 C4427 1.373 . S
C4426 C4428 1.389 . S
C4427 H4406 0.950 . S
C4427 C4426 1.373 . S
C4427 C4443 1.377 . S
C4428 C4426 1.389 . S
C4428 C4429 1.524 . S
C4428 C4442 1.377 . S
C4429 C4428 1.524 . S
C4429 C4430 1.397 . S
C4429 C4434 1.363 . S
C4430 H4407 0.950 . S
C4430 C4429 1.397 . S
C4430 C4431 1.334 . S
C4431 H4408 0.950 . S
C4431 C4430 1.334 . S
C4431 C4432 1.287 . S
C4432 C4431 1.287 . S
C4432 C4433 1.524 . S
C4432 H4451 0.913 . S
C4433 H4409 0.950 . S
C4433 C4432 1.524 . S
C4433 C4434 1.415 . S
C4434 H4410 0.950 . S
C4434 C4429 1.363 . S
C4434 C4433 1.415 . S
C4435 H4411 0.951 . S
C4435 C4436 1.366 . S
C4435 C4437 1.388 . S
C4436 C4435 1.366 . S
C4436 C4440 1.385 . S
C4437 H4412 0.951 . S
C4437 C4435 1.388 . S
C4437 C4438 1.366 . S
C4438 C4437 1.366 . S
C4438 C4439 1.414 . S
C4438 C4441 1.499 . S
C4439 H4413 0.950 . S
C4439 C4438 1.414 . S
C4439 C4440 1.374 . S
C4440 H4414 0.950 . S
C4440 C4436 1.385 . S
C4440 C4439 1.374 . S
C4441 C4438 1.499 . S
C4441 C4442 1.373 . S
C4441 C4443 1.389 . S
C4442 H4415 0.950 . S
C4442 C4428 1.377 . S
C4442 C4441 1.373 . S
C4443 C4427 1.377 . S
C4443 C4441 1.389 . S
C4443 C4444 1.524 . S
C4444 C4443 1.524 . S
C4444 C4445 1.397 . S
C4444 C4449 1.363 . S
C4445 H4416 0.950 . S
C4445 C4444 1.397 . S
C4445 C4446 1.334 . S
C4446 H4417 0.950 . S
C4446 C4445 1.334 . S
C4446 C4447 1.287 . S
C4447 C4446 1.287 . S
C4447 C4448 1.524 . S
C4447 H4450 0.999 . S
C4448 H4418 0.950 . S
C4448 C4447 1.524 . S
C4448 C4449 1.415 . S
C4449 H4419 0.950 . S
C4449 C4444 1.363 . S
C4449 C4448 1.415 . S
H4450 C4447 0.999 . S
H4451 C4432 0.913 . S
H4452 C4470 0.951 . S
H4453 C4472 0.951 . S
H4454 C4474 0.950 . S
H4455 C4475 0.950 . S
H4456 C4477 0.950 . S
H4457 C4480 0.950 . S
H4458 C4481 0.950 . S
H4459 C4483 0.950 . S
H4460 C4484 0.950 . S
H4461 C4485 0.951 . S
H4462 C4487 0.951 . S
H4463 C4489 0.950 . S
H4464 C4490 0.950 . S
H4465 C4492 0.950 . S
H4466 C4495 0.950 . S
H4467 C4496 0.950 . S
H4468 C4498 0.950 . S
H4469 C4499 0.950 . S
C4470 H4452 0.951 . S
C4470 C4471 1.366 . S
C4470 C4472 1.388 . S
C4471 C4470 1.366 . S
C4471 C4475 1.385 . S
C4472 H4453 0.951 . S
C4472 C4470 1.388 . S
C4472 C4473 1.366 . S
C4473 C4472 1.366 . S
C4473 C4474 1.414 . S
C4473 C4476 1.499 . S
C4474 H4454 0.950 . S
C4474 C4473 1.414 . S
C4474 C4475 1.374 . S
C4475 H4455 0.950 . S
C4475 C4471 1.385 . S
C4475 C4474 1.374 . S
C4476 C4473 1.499 . S
C4476 C4477 1.373 . S
C4476 C4478 1.389 . S
C4477 H4456 0.950 . S
C4477 C4476 1.373 . S
C4477 C4493 1.377 . S
C4478 C4476 1.389 . S
C4478 C4479 1.524 . S
C4478 C4492 1.377 . S
C4479 C4478 1.524 . S
C4479 C4480 1.397 . S
C4479 C4484 1.363 . S
C4480 H4457 0.950 . S
C4480 C4479 1.397 . S
C4480 C4481 1.334 . S
C4481 H4458 0.950 . S
C4481 C4480 1.334 . S
C4481 C4482 1.287 . S
C4482 C4481 1.287 . S
C4482 C4483 1.524 . S
C4482 H4501 0.913 . S
C4483 H4459 0.950 . S
C4483 C4482 1.524 . S
C4483 C4484 1.415 . S
C4484 H4460 0.950 . S
C4484 C4479 1.363 . S
C4484 C4483 1.415 . S
C4485 H4461 0.951 . S
C4485 C4486 1.366 . S
C4485 C4487 1.388 . S
C4486 C4485 1.366 . S
C4486 C4490 1.385 . S
C4487 H4462 0.951 . S
C4487 C4485 1.388 . S
C4487 C4488 1.366 . S
C4488 C4487 1.366 . S
C4488 C4489 1.414 . S
C4488 C4491 1.499 . S
C4489 H4463 0.950 . S
C4489 C4488 1.414 . S
C4489 C4490 1.374 . S
C4490 H4464 0.950 . S
C4490 C4486 1.385 . S
C4490 C4489 1.374 . S
C4491 C4488 1.499 . S
C4491 C4492 1.373 . S
C4491 C4493 1.389 . S
C4492 H4465 0.950 . S
C4492 C4478 1.377 . S
C4492 C4491 1.373 . S
C4493 C4477 1.377 . S
C4493 C4491 1.389 . S
C4493 C4494 1.524 1_545 S
C4494 C4493 1.524 1_565 S
C4494 C4495 1.397 . S
C4494 C4499 1.363 . S
C4495 H4466 0.950 . S
C4495 C4494 1.397 . S
C4495 C4496 1.334 . S
C4496 H4467 0.950 . S
C4496 C4495 1.334 . S
C4496 C4497 1.287 . S
C4497 C4496 1.287 . S
C4497 C4498 1.524 . S
C4497 H4500 0.999 . S
C4498 H4468 0.950 . S
C4498 C4497 1.524 . S
C4498 C4499 1.415 . S
C4499 H4469 0.950 . S
C4499 C4494 1.363 . S
C4499 C4498 1.415 . S
H4500 C4497 0.999 . S
H4501 C4482 0.913 . S
H4502 C4520 0.951 . S
H4503 C4522 0.951 . S
H4504 C4524 0.950 . S
H4505 C4525 0.950 . S
H4506 C4527 0.950 . S
H4507 C4530 0.950 . S
H4508 C4531 0.950 . S
H4509 C4533 0.950 . S
H4510 C4534 0.950 . S
H4511 C4535 0.951 . S
H4512 C4537 0.951 . S
H4513 C4539 0.950 . S
H4514 C4540 0.950 . S
H4515 C4542 0.950 . S
H4516 C4545 0.950 . S
H4517 C4546 0.950 . S
H4518 C4548 0.950 . S
H4519 C4549 0.950 . S
C4520 H4502 0.951 . S
C4520 C4521 1.366 . S
C4520 C4522 1.388 . S
C4521 C4520 1.366 . S
C4521 C4525 1.385 . S
C4522 H4503 0.951 . S
C4522 C4520 1.388 . S
C4522 C4523 1.366 . S
C4523 C4522 1.366 . S
C4523 C4524 1.414 . S
C4523 C4526 1.499 . S
C4524 H4504 0.950 . S
C4524 C4523 1.414 . S
C4524 C4525 1.374 . S
C4525 H4505 0.950 . S
C4525 C4521 1.385 . S
C4525 C4524 1.374 . S
C4526 C4523 1.499 . S
C4526 C4527 1.373 . S
C4526 C4528 1.389 . S
C4527 H4506 0.950 . S
C4527 C4526 1.373 . S
C4527 C4543 1.377 . S
C4528 C4526 1.389 . S
C4528 C4529 1.524 . S
C4528 C4542 1.377 . S
C4529 C4528 1.524 . S
C4529 C4530 1.397 . S
C4529 C4534 1.363 . S
C4530 H4507 0.950 . S
C4530 C4529 1.397 . S
C4530 C4531 1.334 . S
C4531 H4508 0.950 . S
C4531 C4530 1.334 . S
C4531 C4532 1.287 . S
C4532 C4531 1.287 . S
C4532 C4533 1.524 . S
C4532 H4551 0.913 . S
C4533 H4509 0.950 . S
C4533 C4532 1.524 . S
C4533 C4534 1.415 . S
C4534 H4510 0.950 . S
C4534 C4529 1.363 . S
C4534 C4533 1.415 . S
C4535 H4511 0.951 . S
C4535 C4536 1.366 . S
C4535 C4537 1.388 . S
C4536 C4535 1.366 . S
C4536 C4540 1.385 . S
C4537 H4512 0.951 . S
C4537 C4535 1.388 . S
C4537 C4538 1.366 . S
C4538 C4537 1.366 . S
C4538 C4539 1.414 . S
C4538 C4541 1.499 . S
C4539 H4513 0.950 . S
C4539 C4538 1.414 . S
C4539 C4540 1.374 . S
C4540 H4514 0.950 . S
C4540 C4536 1.385 . S
C4540 C4539 1.374 . S
C4541 C4538 1.499 . S
C4541 C4542 1.373 . S
C4541 C4543 1.389 . S
C4542 H4515 0.950 . S
C4542 C4528 1.377 . S
C4542 C4541 1.373 . S
C4543 C4527 1.377 . S
C4543 C4541 1.389 . S
C4543 C4544 1.524 . S
C4544 C4543 1.524 . S
C4544 C4545 1.397 . S
C4544 C4549 1.363 . S
C4545 H4516 0.950 . S
C4545 C4544 1.397 . S
C4545 C4546 1.334 . S
C4546 H4517 0.950 . S
C4546 C4545 1.334 . S
C4546 C4547 1.287 . S
C4547 C4546 1.287 . S
C4547 C4548 1.524 . S
C4547 H4550 0.999 . S
C4548 H4518 0.950 . S
C4548 C4547 1.524 . S
C4548 C4549 1.415 . S
C4549 H4519 0.950 . S
C4549 C4544 1.363 . S
C4549 C4548 1.415 . S
H4550 C4547 0.999 . S
H4551 C4532 0.913 . S
H4552 C4570 0.951 . S
H4553 C4572 0.951 . S
H4554 C4574 0.950 . S
H4555 C4575 0.950 . S
H4556 C4577 0.950 . S
H4557 C4580 0.950 . S
H4558 C4581 0.950 . S
H4559 C4583 0.950 . S
H4560 C4584 0.950 . S
H4561 C4585 0.951 . S
H4562 C4587 0.951 . S
H4563 C4589 0.950 . S
H4564 C4590 0.950 . S
H4565 C4592 0.950 . S
H4566 C4595 0.950 . S
H4567 C4596 0.950 . S
H4568 C4598 0.950 . S
H4569 C4599 0.950 . S
C4570 H4552 0.951 . S
C4570 C4571 1.366 . S
C4570 C4572 1.388 . S
C4571 C4570 1.366 . S
C4571 C4575 1.385 . S
C4572 H4553 0.951 . S
C4572 C4570 1.388 . S
C4572 C4573 1.366 . S
C4573 C4572 1.366 . S
C4573 C4574 1.414 . S
C4573 C4576 1.499 . S
C4574 H4554 0.950 . S
C4574 C4573 1.414 . S
C4574 C4575 1.374 . S
C4575 H4555 0.950 . S
C4575 C4571 1.385 . S
C4575 C4574 1.374 . S
C4576 C4573 1.499 . S
C4576 C4577 1.373 . S
C4576 C4578 1.389 . S
C4577 H4556 0.950 . S
C4577 C4576 1.373 . S
C4577 C4593 1.377 . S
C4578 C4576 1.389 . S
C4578 C4579 1.524 1_545 S
C4578 C4592 1.377 . S
C4579 C4578 1.524 1_565 S
C4579 C4580 1.397 . S
C4579 C4584 1.363 . S
C4580 H4557 0.950 . S
C4580 C4579 1.397 . S
C4580 C4581 1.334 . S
C4581 H4558 0.950 . S
C4581 C4580 1.334 . S
C4581 C4582 1.287 . S
C4582 C4581 1.287 . S
C4582 C4583 1.524 1_455 S
C4582 H4601 0.913 . S
C4583 H4559 0.950 . S
C4583 C4582 1.524 1_655 S
C4583 C4584 1.415 1_655 S
C4584 H4560 0.950 . S
C4584 C4579 1.363 . S
C4584 C4583 1.415 1_455 S
C4585 H4561 0.951 . S
C4585 C4586 1.366 . S
C4585 C4587 1.388 . S
C4586 C4585 1.366 . S
C4586 C4590 1.385 . S
C4587 H4562 0.951 . S
C4587 C4585 1.388 . S
C4587 C4588 1.366 . S
C4588 C4587 1.366 . S
C4588 C4589 1.414 . S
C4588 C4591 1.499 . S
C4589 H4563 0.950 . S
C4589 C4588 1.414 . S
C4589 C4590 1.374 . S
C4590 H4564 0.950 . S
C4590 C4586 1.385 . S
C4590 C4589 1.374 . S
C4591 C4588 1.499 . S
C4591 C4592 1.373 . S
C4591 C4593 1.389 . S
C4592 H4565 0.950 . S
C4592 C4578 1.377 . S
C4592 C4591 1.373 . S
C4593 C4577 1.377 . S
C4593 C4591 1.389 . S
C4593 C4594 1.524 . S
C4594 C4593 1.524 . S
C4594 C4595 1.397 . S
C4594 C4599 1.363 . S
C4595 H4566 0.950 . S
C4595 C4594 1.397 . S
C4595 C4596 1.334 . S
C4596 H4567 0.950 . S
C4596 C4595 1.334 . S
C4596 C4597 1.287 . S
C4597 C4596 1.287 . S
C4597 C4598 1.524 . S
C4597 H4600 0.999 . S
C4598 H4568 0.950 . S
C4598 C4597 1.524 . S
C4598 C4599 1.415 . S
C4599 H4569 0.950 . S
C4599 C4594 1.363 . S
C4599 C4598 1.415 . S
H4600 C4597 0.999 . S
H4601 C4582 0.913 . S
H4602 C4620 0.951 . S
H4603 C4622 0.951 . S
H4604 C4624 0.950 . S
H4605 C4625 0.950 . S
H4606 C4627 0.950 . S
H4607 C4630 0.950 . S
H4608 C4631 0.950 . S
H4609 C4633 0.950 . S
H4610 C4634 0.950 . S
H4611 C4635 0.951 . S
H4612 C4637 0.951 . S
H4613 C4639 0.950 . S
H4614 C4640 0.950 . S
H4615 C4642 0.950 . S
H4616 C4645 0.950 . S
H4617 C4646 0.950 . S
H4618 C4648 0.950 . S
H4619 C4649 0.950 . S
C4620 H4602 0.951 . S
C4620 C4621 1.366 . S
C4620 C4622 1.388 . S
C4621 C4620 1.366 . S
C4621 C4625 1.385 . S
C4622 H4603 0.951 . S
C4622 C4620 1.388 . S
C4622 C4623 1.366 . S
C4623 C4622 1.366 . S
C4623 C4624 1.414 . S
C4623 C4626 1.499 . S
C4624 H4604 0.950 . S
C4624 C4623 1.414 . S
C4624 C4625 1.374 . S
C4625 H4605 0.950 . S
C4625 C4621 1.385 . S
C4625 C4624 1.374 . S
C4626 C4623 1.499 . S
C4626 C4627 1.373 . S
C4626 C4628 1.389 . S
C4627 H4606 0.950 . S
C4627 C4626 1.373 . S
C4627 C4643 1.377 . S
C4628 C4626 1.389 . S
C4628 C4629 1.524 . S
C4628 C4642 1.377 . S
C4629 C4628 1.524 . S
C4629 C4630 1.397 . S
C4629 C4634 1.363 . S
C4630 H4607 0.950 . S
C4630 C4629 1.397 . S
C4630 C4631 1.334 . S
C4631 H4608 0.950 . S
C4631 C4630 1.334 . S
C4631 C4632 1.287 . S
C4632 C4631 1.287 . S
C4632 C4633 1.524 . S
C4632 H4651 0.913 . S
C4633 H4609 0.950 . S
C4633 C4632 1.524 . S
C4633 C4634 1.415 . S
C4634 H4610 0.950 . S
C4634 C4629 1.363 . S
C4634 C4633 1.415 . S
C4635 H4611 0.951 . S
C4635 C4636 1.366 . S
C4635 C4637 1.388 . S
C4636 C4635 1.366 . S
C4636 C4640 1.385 . S
C4637 H4612 0.951 . S
C4637 C4635 1.388 . S
C4637 C4638 1.366 . S
C4638 C4637 1.366 . S
C4638 C4639 1.414 . S
C4638 C4641 1.499 . S
C4639 H4613 0.950 . S
C4639 C4638 1.414 . S
C4639 C4640 1.374 . S
C4640 H4614 0.950 . S
C4640 C4636 1.385 . S
C4640 C4639 1.374 . S
C4641 C4638 1.499 . S
C4641 C4642 1.373 . S
C4641 C4643 1.389 . S
C4642 H4615 0.950 . S
C4642 C4628 1.377 . S
C4642 C4641 1.373 . S
C4643 C4627 1.377 . S
C4643 C4641 1.389 . S
C4643 C4644 1.524 . S
C4644 C4643 1.524 . S
C4644 C4645 1.397 . S
C4644 C4649 1.363 . S
C4645 H4616 0.950 . S
C4645 C4644 1.397 . S
C4645 C4646 1.334 . S
C4646 H4617 0.950 . S
C4646 C4645 1.334 . S
C4646 C4647 1.287 . S
C4647 C4646 1.287 . S
C4647 C4648 1.524 . S
C4647 H4650 0.999 . S
C4648 H4618 0.950 . S
C4648 C4647 1.524 . S
C4648 C4649 1.415 . S
C4649 H4619 0.950 . S
C4649 C4644 1.363 . S
C4649 C4648 1.415 . S
H4650 C4647 0.999 . S
H4651 C4632 0.913 . S
H4652 C4670 0.951 . S
H4653 C4672 0.951 . S
H4654 C4674 0.950 . S
H4655 C4675 0.950 . S
H4656 C4677 0.950 . S
H4657 C4680 0.950 . S
H4658 C4681 0.950 . S
H4659 C4683 0.950 . S
H4660 C4684 0.894 1_565 S
H4661 C4685 0.951 . S
H4662 C4687 0.951 . S
H4663 C4689 0.950 . S
H4664 C4690 0.950 . S
H4665 C4692 0.941 . S
H4666 C4695 0.950 . S
H4667 C4696 0.950 . S
H4668 C4698 0.950 . S
H4669 C4699 0.950 1_545 S
C4670 H4652 0.951 . S
C4670 C4671 1.366 1_565 S
C4670 C4672 1.388 . S
C4671 C4670 1.366 1_545 S
C4671 C4675 1.385 . S
C4672 H4653 0.951 . S
C4672 C4670 1.388 . S
C4672 C4673 1.366 1_565 S
C4673 C4672 1.366 1_545 S
C4673 C4674 1.414 . S
C4673 C4676 1.499 . S
C4674 H4654 0.950 . S
C4674 C4673 1.414 . S
C4674 C4675 1.374 . S
C4675 H4655 0.950 . S
C4675 C4671 1.385 . S
C4675 C4674 1.374 . S
C4676 C4673 1.499 . S
C4676 C4677 1.373 1_545 S
C4676 C4678 1.389 . S
C4677 H4656 0.950 . S
C4677 C4676 1.373 1_565 S
C4677 C4693 1.377 . S
C4678 C4676 1.389 . S
C4678 C4679 1.524 . S
C4678 C4692 1.390 . S
C4679 C4678 1.524 . S
C4679 C4680 1.397 . S
C4679 C4684 1.415 . S
C4680 H4657 0.950 . S
C4680 C4679 1.397 . S
C4680 C4681 1.334 . S
C4681 H4658 0.950 . S
C4681 C4680 1.334 . S
C4681 C4682 1.287 . S
C4682 C4681 1.287 . S
C4682 C4683 1.524 . S
C4682 H4701 0.913 . S
C4683 H4659 0.950 . S
C4683 C4682 1.524 . S
C4683 C4684 1.422 . S
C4684 H4660 0.894 1_545 S
C4684 C4679 1.415 . S
C4684 C4683 1.422 . S
C4685 H4661 0.951 . S
C4685 C4686 1.366 1_545 S
C4685 C4687 1.388 . S
C4686 C4685 1.366 1_565 S
C4686 C4690 1.385 . S
C4687 H4662 0.951 . S
C4687 C4685 1.388 . S
C4687 C4688 1.366 1_545 S
C4688 C4687 1.366 1_565 S
C4688 C4689 1.414 . S
C4688 C4691 1.499 . S
C4689 H4663 0.950 . S
C4689 C4688 1.414 . S
C4689 C4690 1.374 . S
C4690 H4664 0.950 . S
C4690 C4686 1.385 . S
C4690 C4689 1.374 . S
C4691 C4688 1.499 . S
C4691 C4692 1.375 1_565 S
C4691 C4693 1.389 . S
C4692 H4665 0.941 . S
C4692 C4678 1.390 . S
C4692 C4691 1.375 1_545 S
C4693 C4677 1.377 . S
C4693 C4691 1.389 . S
C4693 C4694 1.524 . S
C4694 C4693 1.524 . S
C4694 C4695 1.397 . S
C4694 C4699 1.363 . S
C4695 H4666 0.950 . S
C4695 C4694 1.397 . S
C4695 C4696 1.334 . S
C4696 H4667 0.950 . S
C4696 C4695 1.334 . S
C4696 C4697 1.287 . S
C4697 C4696 1.287 . S
C4697 C4698 1.524 . S
C4697 H4700 0.999 . S
C4698 H4668 0.950 . S
C4698 C4697 1.524 . S
C4698 C4699 1.415 . S
C4699 H4669 0.950 1_565 S
C4699 C4694 1.363 . S
C4699 C4698 1.415 . S
H4700 C4697 0.999 . S
H4701 C4682 0.913 . S
H4702 C4720 0.951 . S
H4703 C4722 0.951 . S
H4704 C4724 0.950 . S
H4705 C4725 0.950 . S
H4706 C4727 0.950 . S
H4707 C4730 0.950 . S
H4708 C4731 0.950 . S
H4709 C4733 0.950 . S
H4710 C4734 0.950 . S
H4711 C4735 0.951 . S
H4712 C4737 0.951 . S
H4713 C4739 0.950 . S
H4714 C4740 0.950 . S
H4715 C4742 0.950 . S
H4716 C4745 0.950 . S
H4717 C4746 0.950 . S
H4718 C4748 0.950 . S
H4719 C4749 0.950 . S
C4720 H4702 0.951 . S
C4720 C4721 1.366 . S
C4720 C4722 1.388 . S
C4721 C4720 1.366 . S
C4721 C4725 1.385 . S
C4722 H4703 0.951 . S
C4722 C4720 1.388 . S
C4722 C4723 1.366 . S
C4723 C4722 1.366 . S
C4723 C4724 1.414 . S
C4723 C4726 1.499 . S
C4724 H4704 0.950 . S
C4724 C4723 1.414 . S
C4724 C4725 1.374 . S
C4725 H4705 0.950 . S
C4725 C4721 1.385 . S
C4725 C4724 1.374 . S
C4726 C4723 1.499 . S
C4726 C4727 1.373 . S
C4726 C4728 1.389 . S
C4727 H4706 0.950 . S
C4727 C4726 1.373 . S
C4727 C4743 1.377 . S
C4728 C4726 1.389 . S
C4728 C4729 1.524 . S
C4728 C4742 1.377 . S
C4729 C4728 1.524 . S
C4729 C4730 1.397 . S
C4729 C4734 1.363 . S
C4730 H4707 0.950 . S
C4730 C4729 1.397 . S
C4730 C4731 1.334 . S
C4731 H4708 0.950 . S
C4731 C4730 1.334 . S
C4731 C4732 1.287 . S
C4732 C4731 1.287 . S
C4732 C4733 1.524 . S
C4732 H4751 0.913 . S
C4733 H4709 0.950 . S
C4733 C4732 1.524 . S
C4733 C4734 1.415 . S
C4734 H4710 0.950 . S
C4734 C4729 1.363 . S
C4734 C4733 1.415 . S
C4735 H4711 0.951 . S
C4735 C4736 1.366 . S
C4735 C4737 1.388 . S
C4736 C4735 1.366 . S
C4736 C4740 1.385 . S
C4737 H4712 0.951 . S
C4737 C4735 1.388 . S
C4737 C4738 1.366 . S
C4738 C4737 1.366 . S
C4738 C4739 1.414 . S
C4738 C4741 1.499 . S
C4739 H4713 0.950 . S
C4739 C4738 1.414 . S
C4739 C4740 1.374 . S
C4740 H4714 0.950 . S
C4740 C4736 1.385 . S
C4740 C4739 1.374 . S
C4741 C4738 1.499 . S
C4741 C4742 1.373 . S
C4741 C4743 1.389 . S
C4742 H4715 0.950 . S
C4742 C4728 1.377 . S
C4742 C4741 1.373 . S
C4743 C4727 1.377 . S
C4743 C4741 1.389 . S
C4743 C4744 1.524 . S
C4744 C4743 1.524 . S
C4744 C4745 1.397 . S
C4744 C4749 1.363 . S
C4745 H4716 0.950 . S
C4745 C4744 1.397 . S
C4745 C4746 1.334 . S
C4746 H4717 0.950 . S
C4746 C4745 1.334 . S
C4746 C4747 1.287 . S
C4747 C4746 1.287 . S
C4747 C4748 1.524 . S
C4747 H4750 0.999 . S
C4748 H4718 0.950 . S
C4748 C4747 1.524 . S
C4748 C4749 1.415 . S
C4749 H4719 0.950 . S
C4749 C4744 1.363 . S
C4749 C4748 1.415 . S
H4750 C4747 0.999 . S
H4751 C4732 0.913 . S
H4752 C4770 0.951 . S
H4753 C4772 0.951 . S
H4754 C4774 0.950 . S
H4755 C4775 0.950 . S
H4756 C4777 0.950 . S
H4757 C4780 0.950 . S
H4758 C4781 0.950 . S
H4759 C4783 0.950 . S
H4760 C4784 0.950 . S
H4761 C4785 0.951 . S
H4762 C4787 0.951 . S
H4763 C4789 0.950 . S
H4764 C4790 0.950 . S
H4765 C4792 0.995 . S
H4766 C4795 0.950 . S
H4767 C4796 0.950 . S
H4768 C4798 0.950 . S
H4769 C4799 0.950 . S
C4770 H4752 0.951 . S
C4770 C4771 1.366 . S
C4770 C4772 1.388 . S
C4771 C4770 1.366 . S
C4771 C4775 1.385 . S
C4772 H4753 0.951 . S
C4772 C4770 1.388 . S
C4772 C4773 1.366 . S
C4773 C4772 1.366 . S
C4773 C4774 1.414 . S
C4773 C4776 1.499 . S
C4774 H4754 0.950 . S
C4774 C4773 1.414 . S
C4774 C4775 1.374 . S
C4775 H4755 0.950 . S
C4775 C4771 1.385 . S
C4775 C4774 1.374 . S
C4776 C4773 1.499 . S
C4776 C4777 1.373 . S
C4776 C4778 1.389 . S
C4777 H4756 0.950 . S
C4777 C4776 1.373 . S
C4777 C4793 1.377 . S
C4778 C4776 1.389 . S
C4778 C4779 1.524 . S
C4778 C4792 1.377 . S
C4779 C4778 1.524 . S
C4779 C4780 1.397 1_554 S
C4779 C4784 1.363 . S
C4780 H4757 0.950 . S
C4780 C4779 1.397 1_556 S
C4780 C4781 1.334 . S
C4781 H4758 0.950 . S
C4781 C4780 1.334 . S
C4781 C4782 1.287 . S
C4782 C4781 1.287 . S
C4782 C4783 1.524 . S
C4782 H4801 0.913 . S
C4783 H4759 0.950 . S
C4783 C4782 1.524 . S
C4783 C4784 1.415 1_556 S
C4784 H4760 0.950 . S
C4784 C4779 1.363 . S
C4784 C4783 1.415 1_554 S
C4785 H4761 0.951 . S
C4785 C4786 1.365 . S
C4785 C4787 1.388 1_556 S
C4786 C4785 1.365 . S
C4786 C4790 1.383 1_556 S
C4787 H4762 0.951 . S
C4787 C4785 1.388 1_554 S
C4787 C4788 1.366 . S
C4788 C4787 1.366 . S
C4788 C4789 1.414 . S
C4788 C4791 1.499 . S
C4789 H4763 0.950 . S
C4789 C4788 1.414 . S
C4789 C4790 1.374 . S
C4790 H4764 0.950 . S
C4790 C4786 1.383 1_554 S
C4790 C4789 1.374 . S
C4791 C4788 1.499 . S
C4791 C4792 1.373 . S
C4791 C4793 1.389 . S
C4792 H4765 0.995 . S
C4792 C4778 1.377 . S
C4792 C4791 1.373 . S
C4793 C4777 1.377 . S
C4793 C4791 1.389 . S
C4793 C4794 1.524 . S
C4794 C4793 1.524 . S
C4794 C4795 1.397 . S
C4794 C4799 1.363 . S
C4795 H4766 0.950 . S
C4795 C4794 1.397 . S
C4795 C4796 1.334 . S
C4796 H4767 0.950 . S
C4796 C4795 1.334 . S
C4796 C4797 1.287 . S
C4797 C4796 1.287 . S
C4797 C4798 1.524 . S
C4797 H4800 0.999 . S
C4798 H4768 0.950 . S
C4798 C4797 1.524 . S
C4798 C4799 1.415 . S
C4799 H4769 0.950 . S
C4799 C4794 1.363 . S
C4799 C4798 1.415 . S
H4800 C4797 0.999 . S
H4801 C4782 0.913 . S
H4802 C4820 0.951 . S
H4803 C4822 0.951 . S
H4804 C4824 0.950 . S
H4805 C4825 0.950 . S
H4806 C4827 0.950 . S
H4807 C4830 0.950 1_554 S
H4808 C4831 0.950 . S
H4809 C4833 0.950 . S
H4810 C4834 0.950 . S
H4811 C4835 0.951 . S
H4812 C4837 0.951 . S
H4813 C4839 0.950 . S
H4814 C4840 0.950 . S
H4815 C4842 0.950 . S
H4816 C4845 0.950 . S
H4817 C4846 0.950 . S
H4818 C4848 0.950 . S
H4819 C4849 0.950 . S
C4820 H4802 0.951 . S
C4820 C4821 1.366 . S
C4820 C4822 1.388 . S
C4821 C4820 1.366 . S
C4821 C4825 1.385 . S
C4822 H4803 0.951 . S
C4822 C4820 1.388 . S
C4822 C4823 1.366 . S
C4823 C4822 1.366 . S
C4823 C4824 1.414 . S
C4823 C4826 1.499 . S
C4824 H4804 0.950 . S
C4824 C4823 1.414 . S
C4824 C4825 1.374 . S
C4825 H4805 0.950 . S
C4825 C4821 1.385 . S
C4825 C4824 1.374 . S
C4826 C4823 1.499 . S
C4826 C4827 1.373 . S
C4826 C4828 1.389 . S
C4827 H4806 0.950 . S
C4827 C4826 1.373 . S
C4827 C4843 1.377 . S
C4828 C4826 1.389 . S
C4828 C4829 1.524 1_554 S
C4828 C4842 1.377 . S
C4829 C4828 1.524 1_556 S
C4829 C4830 1.397 . S
C4829 C4834 1.363 . S
C4830 H4807 0.950 1_556 S
C4830 C4829 1.397 . S
C4830 C4831 1.334 . S
C4831 H4808 0.950 . S
C4831 C4830 1.334 . S
C4831 C4832 1.287 . S
C4832 C4831 1.287 . S
C4832 C4833 1.524 . S
C4832 H4851 0.913 . S
C4833 H4809 0.950 . S
C4833 C4832 1.524 . S
C4833 C4834 1.415 . S
C4834 H4810 0.950 . S
C4834 C4829 1.363 . S
C4834 C4833 1.415 . S
C4835 H4811 0.951 . S
C4835 C4836 1.366 . S
C4835 C4837 1.388 . S
C4836 C4835 1.366 . S
C4836 C4840 1.385 . S
C4837 H4812 0.951 . S
C4837 C4835 1.388 . S
C4837 C4838 1.366 . S
C4838 C4837 1.366 . S
C4838 C4839 1.414 . S
C4838 C4841 1.499 . S
C4839 H4813 0.950 . S
C4839 C4838 1.414 . S
C4839 C4840 1.374 . S
C4840 H4814 0.950 . S
C4840 C4836 1.385 . S
C4840 C4839 1.374 . S
C4841 C4838 1.499 . S
C4841 C4842 1.373 . S
C4841 C4843 1.389 . S
C4842 H4815 0.950 . S
C4842 C4828 1.377 . S
C4842 C4841 1.373 . S
C4843 C4827 1.377 . S
C4843 C4841 1.389 . S
C4843 C4844 1.524 . S
C4844 C4843 1.524 . S
C4844 C4845 1.397 . S
C4844 C4849 1.363 . S
C4845 H4816 0.950 . S
C4845 C4844 1.397 . S
C4845 C4846 1.334 . S
C4846 H4817 0.950 . S
C4846 C4845 1.334 . S
C4846 C4847 1.287 . S
C4847 C4846 1.287 . S
C4847 C4848 1.524 . S
C4847 H4850 0.999 . S
C4848 H4818 0.950 . S
C4848 C4847 1.524 . S
C4848 C4849 1.415 . S
C4849 H4819 0.950 . S
C4849 C4844 1.363 . S
C4849 C4848 1.415 . S
H4850 C4847 0.999 . S
H4851 C4832 0.913 . S
H4852 C4870 0.951 . S
H4853 C4872 0.951 . S
H4854 C4874 0.950 . S
H4855 C4875 0.950 . S
H4856 C4877 0.950 . S
H4857 C4880 0.950 . S
H4858 C4881 0.950 . S
H4859 C4883 0.950 . S
H4860 C4884 0.950 . S
H4861 C4885 0.951 . S
H4862 C4887 0.951 . S
H4863 C4889 0.950 . S
H4864 C4890 0.950 . S
H4865 C4892 0.950 . S
H4866 C4895 0.950 . S
H4867 C4896 0.950 . S
H4868 C4898 0.950 . S
H4869 C4899 0.950 . S
C4870 H4852 0.951 . S
C4870 C4871 1.366 . S
C4870 C4872 1.388 . S
C4871 C4870 1.366 . S
C4871 C4875 1.385 . S
C4872 H4853 0.951 . S
C4872 C4870 1.388 . S
C4872 C4873 1.366 . S
C4873 C4872 1.366 . S
C4873 C4874 1.414 . S
C4873 C4876 1.499 . S
C4874 H4854 0.950 . S
C4874 C4873 1.414 . S
C4874 C4875 1.374 . S
C4875 H4855 0.950 . S
C4875 C4871 1.385 . S
C4875 C4874 1.374 . S
C4876 C4873 1.499 . S
C4876 C4877 1.373 . S
C4876 C4878 1.389 . S
C4877 H4856 0.950 . S
C4877 C4876 1.373 . S
C4877 C4893 1.377 . S
C4878 C4876 1.389 . S
C4878 C4879 1.524 . S
C4878 C4892 1.377 . S
C4879 C4878 1.524 . S
C4879 C4880 1.397 . S
C4879 C4884 1.363 . S
C4880 H4857 0.950 . S
C4880 C4879 1.397 . S
C4880 C4881 1.334 . S
C4881 H4858 0.950 . S
C4881 C4880 1.334 . S
C4881 C4882 1.287 . S
C4882 C4881 1.287 . S
C4882 C4883 1.524 . S
C4882 H4901 0.913 . S
C4883 H4859 0.950 . S
C4883 C4882 1.524 . S
C4883 C4884 1.415 . S
C4884 H4860 0.950 . S
C4884 C4879 1.363 . S
C4884 C4883 1.415 . S
C4885 H4861 0.951 . S
C4885 C4886 1.366 . S
C4885 C4887 1.388 . S
C4886 C4885 1.366 . S
C4886 C4890 1.385 . S
C4887 H4862 0.951 . S
C4887 C4885 1.388 . S
C4887 C4888 1.366 . S
C4888 C4887 1.366 . S
C4888 C4889 1.414 . S
C4888 C4891 1.499 . S
C4889 H4863 0.950 . S
C4889 C4888 1.414 . S
C4889 C4890 1.374 . S
C4890 H4864 0.950 . S
C4890 C4886 1.385 . S
C4890 C4889 1.374 . S
C4891 C4888 1.499 . S
C4891 C4892 1.373 . S
C4891 C4893 1.389 . S
C4892 H4865 0.950 . S
C4892 C4878 1.377 . S
C4892 C4891 1.373 . S
C4893 C4877 1.377 . S
C4893 C4891 1.389 . S
C4893 C4894 1.524 . S
C4894 C4893 1.524 . S
C4894 C4895 1.397 . S
C4894 C4899 1.363 . S
C4895 H4866 0.950 . S
C4895 C4894 1.397 . S
C4895 C4896 1.334 . S
C4896 H4867 0.950 . S
C4896 C4895 1.334 . S
C4896 C4897 1.287 . S
C4897 C4896 1.287 . S
C4897 C4898 1.524 . S
C4897 H4900 0.999 . S
C4898 H4868 0.950 . S
C4898 C4897 1.524 . S
C4898 C4899 1.415 . S
C4899 H4869 0.950 . S
C4899 C4894 1.363 . S
C4899 C4898 1.415 . S
H4900 C4897 0.999 . S
H4901 C4882 0.913 . S
H4902 C4920 0.951 . S
H4903 C4922 0.951 . S
H4904 C4924 0.950 . S
H4905 C4925 0.950 . S
H4906 C4927 0.950 . S
H4907 C4930 0.950 . S
H4908 C4931 0.950 . S
H4909 C4933 0.950 . S
H4910 C4934 0.950 . S
H4911 C4935 0.951 . S
H4912 C4937 0.951 . S
H4913 C4939 0.950 . S
H4914 C4940 0.950 . S
H4915 C4942 0.950 . S
H4916 C4945 0.950 . S
H4917 C4946 0.950 . S
H4918 C4948 0.950 . S
H4919 C4949 0.950 . S
C4920 H4902 0.951 . S
C4920 C4921 1.366 . S
C4920 C4922 1.388 . S
C4921 C4920 1.366 . S
C4921 C4925 1.385 . S
C4922 H4903 0.951 . S
C4922 C4920 1.388 . S
C4922 C4923 1.366 . S
C4923 C4922 1.366 . S
C4923 C4924 1.414 . S
C4923 C4926 1.499 . S
C4924 H4904 0.950 . S
C4924 C4923 1.414 . S
C4924 C4925 1.374 . S
C4925 H4905 0.950 . S
C4925 C4921 1.385 . S
C4925 C4924 1.374 . S
C4926 C4923 1.499 . S
C4926 C4927 1.373 . S
C4926 C4928 1.389 . S
C4927 H4906 0.950 . S
C4927 C4926 1.373 . S
C4927 C4943 1.377 . S
C4928 C4926 1.389 . S
C4928 C4929 1.524 . S
C4928 C4942 1.377 . S
C4929 C4928 1.524 . S
C4929 C4930 1.397 . S
C4929 C4934 1.363 . S
C4930 H4907 0.950 . S
C4930 C4929 1.397 . S
C4930 C4931 1.334 . S
C4931 H4908 0.950 . S
C4931 C4930 1.334 . S
C4931 C4932 1.287 . S
C4932 C4931 1.287 . S
C4932 C4933 1.524 . S
C4932 H4951 0.913 . S
C4933 H4909 0.950 . S
C4933 C4932 1.524 . S
C4933 C4934 1.415 . S
C4934 H4910 0.950 . S
C4934 C4929 1.363 . S
C4934 C4933 1.415 . S
C4935 H4911 0.951 . S
C4935 C4936 1.366 . S
C4935 C4937 1.388 . S
C4936 C4935 1.366 . S
C4936 C4940 1.385 . S
C4937 H4912 0.951 . S
C4937 C4935 1.388 . S
C4937 C4938 1.366 . S
C4938 C4937 1.366 . S
C4938 C4939 1.414 . S
C4938 C4941 1.499 . S
C4939 H4913 0.950 . S
C4939 C4938 1.414 . S
C4939 C4940 1.374 . S
C4940 H4914 0.950 . S
C4940 C4936 1.385 . S
C4940 C4939 1.374 . S
C4941 C4938 1.499 . S
C4941 C4942 1.373 . S
C4941 C4943 1.389 . S
C4942 H4915 0.950 . S
C4942 C4928 1.377 . S
C4942 C4941 1.373 . S
C4943 C4927 1.377 . S
C4943 C4941 1.389 . S
C4943 C4944 1.524 . S
C4944 C4943 1.524 . S
C4944 C4945 1.397 . S
C4944 C4949 1.363 . S
C4945 H4916 0.950 . S
C4945 C4944 1.397 . S
C4945 C4946 1.334 . S
C4946 H4917 0.950 . S
C4946 C4945 1.334 . S
C4946 C4947 1.287 . S
C4947 C4946 1.287 . S
C4947 C4948 1.524 . S
C4947 H4950 0.999 . S
C4948 H4918 0.950 . S
C4948 C4947 1.524 . S
C4948 C4949 1.415 . S
C4949 H4919 0.950 . S
C4949 C4944 1.363 . S
C4949 C4948 1.415 . S
H4950 C4947 0.999 . S
H4951 C4932 0.913 . S
H4952 C4970 0.951 . S
H4953 C4972 0.951 . S
H4954 C4974 0.950 . S
H4955 C4975 0.950 . S
H4956 C4977 0.950 . S
H4957 C4980 0.950 . S
H4958 C4981 0.950 . S
H4959 C4983 0.950 . S
H4960 C4984 0.950 . S
H4961 C4985 0.951 . S
H4962 C4987 0.951 . S
H4963 C4989 0.950 . S
H4964 C4990 0.950 . S
H4965 C4992 0.950 . S
H4966 C4995 0.950 . S
H4967 C4996 0.950 . S
H4968 C4998 0.950 . S
H4969 C4999 0.950 . S
C4970 H4952 0.951 . S
C4970 C4971 1.366 . S
C4970 C4972 1.388 . S
C4971 C4970 1.366 . S
C4971 C4975 1.385 . S
C4972 H4953 0.951 . S
C4972 C4970 1.388 . S
C4972 C4973 1.366 . S
C4973 C4972 1.366 . S
C4973 C4974 1.414 . S
C4973 C4976 1.499 . S
C4974 H4954 0.950 . S
C4974 C4973 1.414 . S
C4974 C4975 1.374 . S
C4975 H4955 0.950 . S
C4975 C4971 1.385 . S
C4975 C4974 1.374 . S
C4976 C4973 1.499 . S
C4976 C4977 1.373 . S
C4976 C4978 1.389 . S
C4977 H4956 0.950 . S
C4977 C4976 1.373 . S
C4977 C4993 1.377 . S
C4978 C4976 1.389 . S
C4978 C4979 1.524 . S
C4978 C4992 1.377 . S
C4979 C4978 1.524 . S
C4979 C4980 1.397 . S
C4979 C4984 1.363 . S
C4980 H4957 0.950 . S
C4980 C4979 1.397 . S
C4980 C4981 1.334 . S
C4981 H4958 0.950 . S
C4981 C4980 1.334 . S
C4981 C4982 1.287 . S
C4982 C4981 1.287 . S
C4982 C4983 1.524 . S
C4982 H5001 0.913 . S
C4983 H4959 0.950 . S
C4983 C4982 1.524 . S
C4983 C4984 1.415 . S
C4984 H4960 0.950 . S
C4984 C4979 1.363 . S
C4984 C4983 1.415 . S
C4985 H4961 0.951 . S
C4985 C4986 1.366 . S
C4985 C4987 1.388 . S
C4986 C4985 1.366 . S
C4986 C4990 1.385 . S
C4987 H4962 0.951 . S
C4987 C4985 1.388 . S
C4987 C4988 1.366 . S
C4988 C4987 1.366 . S
C4988 C4989 1.414 . S
C4988 C4991 1.499 . S
C4989 H4963 0.950 . S
C4989 C4988 1.414 . S
C4989 C4990 1.374 . S
C4990 H4964 0.950 . S
C4990 C4986 1.385 . S
C4990 C4989 1.374 . S
C4991 C4988 1.499 . S
C4991 C4992 1.373 . S
C4991 C4993 1.389 . S
C4992 H4965 0.950 . S
C4992 C4978 1.377 . S
C4992 C4991 1.373 . S
C4993 C4977 1.377 . S
C4993 C4991 1.389 . S
C4993 C4994 1.524 . S
C4994 C4993 1.524 . S
C4994 C4995 1.397 . S
C4994 C4999 1.363 . S
C4995 H4966 0.950 . S
C4995 C4994 1.397 . S
C4995 C4996 1.334 . S
C4996 H4967 0.950 . S
C4996 C4995 1.334 . S
C4996 C4997 1.287 . S
C4997 C4996 1.287 . S
C4997 C4998 1.524 . S
C4997 H5000 0.999 . S
C4998 H4968 0.950 . S
C4998 C4997 1.524 . S
C4998 C4999 1.415 . S
C4999 H4969 0.950 . S
C4999 C4994 1.363 . S
C4999 C4998 1.415 . S
H5000 C4997 0.999 . S
H5001 C4982 0.913 . S
H5002 C5020 0.951 . S
H5003 C5022 0.951 . S
H5004 C5024 0.950 . S
H5005 C5025 0.950 . S
H5006 C5027 0.950 . S
H5007 C5030 0.950 . S
H5008 C5031 0.950 . S
H5009 C5033 0.950 . S
H5010 C5034 0.950 . S
H5011 C5035 0.951 . S
H5012 C5037 0.951 . S
H5013 C5039 0.950 . S
H5014 C5040 0.988 . S
H5015 C5042 0.950 . S
H5016 C5045 0.950 . S
H5017 C5046 0.950 . S
H5018 C5048 0.950 . S
H5019 C5049 0.950 . S
C5020 H5002 0.951 . S
C5020 C5021 1.366 . S
C5020 C5022 1.388 . S
C5021 C5020 1.366 . S
C5021 C5025 1.385 . S
C5022 H5003 0.951 . S
C5022 C5020 1.388 . S
C5022 C5023 1.366 . S
C5023 C5022 1.366 . S
C5023 C5024 1.414 . S
C5023 C5026 1.499 . S
C5024 H5004 0.950 . S
C5024 C5023 1.414 . S
C5024 C5025 1.374 . S
C5025 H5005 0.950 . S
C5025 C5021 1.385 . S
C5025 C5024 1.374 . S
C5026 C5023 1.499 . S
C5026 C5027 1.373 . S
C5026 C5028 1.389 . S
C5027 H5006 0.950 . S
C5027 C5026 1.373 . S
C5027 C5043 1.377 . S
C5028 C5026 1.389 . S
C5028 C5029 1.524 . S
C5028 C5042 1.377 . S
C5029 C5028 1.524 . S
C5029 C5030 1.397 . S
C5029 C5034 1.363 . S
C5030 H5007 0.950 . S
C5030 C5029 1.397 . S
C5030 C5031 1.334 . S
C5031 H5008 0.950 . S
C5031 C5030 1.334 . S
C5031 C5032 1.287 . S
C5032 C5031 1.287 . S
C5032 C5033 1.524 . S
C5032 H5051 0.913 . S
C5033 H5009 0.950 . S
C5033 C5032 1.524 . S
C5033 C5034 1.415 . S
C5034 H5010 0.950 . S
C5034 C5029 1.363 . S
C5034 C5033 1.415 . S
C5035 H5011 0.951 . S
C5035 C5036 1.366 . S
C5035 C5037 1.388 . S
C5036 C5035 1.366 . S
C5036 C5040 1.385 . S
C5037 H5012 0.951 . S
C5037 C5035 1.388 . S
C5037 C5038 1.366 . S
C5038 C5037 1.366 . S
C5038 C5039 1.414 . S
C5038 C5041 1.499 . S
C5039 H5013 0.950 . S
C5039 C5038 1.414 . S
C5039 C5040 1.374 . S
C5040 H5014 0.988 . S
C5040 C5036 1.385 . S
C5040 C5039 1.374 . S
C5041 C5038 1.499 . S
C5041 C5042 1.373 . S
C5041 C5043 1.389 . S
C5042 H5015 0.950 . S
C5042 C5028 1.377 . S
C5042 C5041 1.373 . S
C5043 C5027 1.377 . S
C5043 C5041 1.389 . S
C5043 C5044 1.524 . S
C5044 C5043 1.524 . S
C5044 C5045 1.397 . S
C5044 C5049 1.363 . S
C5045 H5016 0.950 . S
C5045 C5044 1.397 . S
C5045 C5046 1.334 . S
C5046 H5017 0.950 . S
C5046 C5045 1.334 . S
C5046 C5047 1.287 . S
C5047 C5046 1.287 . S
C5047 C5048 1.524 . S
C5047 H5050 0.999 . S
C5048 H5018 0.950 . S
C5048 C5047 1.524 . S
C5048 C5049 1.415 . S
C5049 H5019 0.950 . S
C5049 C5044 1.363 . S
C5049 C5048 1.415 . S
H5050 C5047 0.999 . S
H5051 C5032 0.913 . S
H5052 C5070 0.951 . S
H5053 C5072 0.951 . S
H5054 C5074 0.950 . S
H5055 C5075 0.950 . S
H5056 C5077 0.950 . S
H5057 C5080 0.950 . S
H5058 C5081 0.950 . S
H5059 C5083 0.950 . S
H5060 C5084 0.950 . S
H5061 C5085 0.951 . S
H5062 C5087 0.951 . S
H5063 C5089 0.950 . S
H5064 C5090 0.950 . S
H5065 C5092 0.950 . S
H5066 C5095 0.950 . S
H5067 C5096 0.950 . S
H5068 C5098 0.950 . S
H5069 C5099 0.950 . S
C5070 H5052 0.951 . S
C5070 C5071 1.366 . S
C5070 C5072 1.388 . S
C5071 C5070 1.366 . S
C5071 C5075 1.385 . S
C5072 H5053 0.951 . S
C5072 C5070 1.388 . S
C5072 C5073 1.366 . S
C5073 C5072 1.366 . S
C5073 C5074 1.414 . S
C5073 C5076 1.499 . S
C5074 H5054 0.950 . S
C5074 C5073 1.414 . S
C5074 C5075 1.374 . S
C5075 H5055 0.950 . S
C5075 C5071 1.385 . S
C5075 C5074 1.374 . S
C5076 C5073 1.499 . S
C5076 C5077 1.373 . S
C5076 C5078 1.389 . S
C5077 H5056 0.950 . S
C5077 C5076 1.373 . S
C5077 C5093 1.377 . S
C5078 C5076 1.389 . S
C5078 C5079 1.524 . S
C5078 C5092 1.377 . S
C5079 C5078 1.524 . S
C5079 C5080 1.397 . S
C5079 C5084 1.363 . S
C5080 H5057 0.950 . S
C5080 C5079 1.397 . S
C5080 C5081 1.334 . S
C5081 H5058 0.950 . S
C5081 C5080 1.334 . S
C5081 C5082 1.287 . S
C5082 C5081 1.287 . S
C5082 C5083 1.524 . S
C5082 H5101 0.913 . S
C5083 H5059 0.950 . S
C5083 C5082 1.524 . S
C5083 C5084 1.415 . S
C5084 H5060 0.950 . S
C5084 C5079 1.363 . S
C5084 C5083 1.415 . S
C5085 H5061 0.951 . S
C5085 C5086 1.366 . S
C5085 C5087 1.388 . S
C5086 C5085 1.366 . S
C5086 C5090 1.385 . S
C5087 H5062 0.951 . S
C5087 C5085 1.388 . S
C5087 C5088 1.366 . S
C5088 C5087 1.366 . S
C5088 C5089 1.414 . S
C5088 C5091 1.499 . S
C5089 H5063 0.950 . S
C5089 C5088 1.414 . S
C5089 C5090 1.374 . S
C5090 H5064 0.950 . S
C5090 C5086 1.385 . S
C5090 C5089 1.374 . S
C5091 C5088 1.499 . S
C5091 C5092 1.373 . S
C5091 C5093 1.389 . S
C5092 H5065 0.950 . S
C5092 C5078 1.377 . S
C5092 C5091 1.373 . S
C5093 C5077 1.377 . S
C5093 C5091 1.389 . S
C5093 C5094 1.524 . S
C5094 C5093 1.524 . S
C5094 C5095 1.397 . S
C5094 C5099 1.363 . S
C5095 H5066 0.950 . S
C5095 C5094 1.397 . S
C5095 C5096 1.334 . S
C5096 H5067 0.950 . S
C5096 C5095 1.334 . S
C5096 C5097 1.287 . S
C5097 C5096 1.287 . S
C5097 C5098 1.524 . S
C5097 H5100 0.999 . S
C5098 H5068 0.950 . S
C5098 C5097 1.524 . S
C5098 C5099 1.415 . S
C5099 H5069 0.950 . S
C5099 C5094 1.363 . S
C5099 C5098 1.415 . S
H5100 C5097 0.999 . S
H5101 C5082 0.913 . S
H5102 C5120 0.951 . S
H5103 C5122 0.951 . S
H5104 C5124 0.950 . S
H5105 C5125 0.950 . S
H5106 C5127 0.950 . S
H5107 C5130 0.950 . S
H5108 C5131 0.950 . S
H5109 C5133 0.950 . S
H5110 C5134 0.950 . S
H5111 C5135 0.951 . S
H5112 C5137 0.951 . S
H5113 C5139 0.950 . S
H5114 C5140 0.950 . S
H5115 C5142 0.950 . S
H5116 C5145 0.950 . S
H5117 C5146 0.950 . S
H5118 C5148 0.950 . S
H5119 C5149 0.950 . S
C5120 H5102 0.951 . S
C5120 C5121 1.366 . S
C5120 C5122 1.388 . S
C5121 C5120 1.366 . S
C5121 C5125 1.385 . S
C5122 H5103 0.951 . S
C5122 C5120 1.388 . S
C5122 C5123 1.366 . S
C5123 C5122 1.366 . S
C5123 C5124 1.414 . S
C5123 C5126 1.499 . S
C5124 H5104 0.950 . S
C5124 C5123 1.414 . S
C5124 C5125 1.374 . S
C5125 H5105 0.950 . S
C5125 C5121 1.385 . S
C5125 C5124 1.374 . S
C5126 C5123 1.499 . S
C5126 C5127 1.373 . S
C5126 C5128 1.389 . S
C5127 H5106 0.950 . S
C5127 C5126 1.373 . S
C5127 C5143 1.377 . S
C5128 C5126 1.389 . S
C5128 C5129 1.524 . S
C5128 C5142 1.377 . S
C5129 C5128 1.524 . S
C5129 C5130 1.397 . S
C5129 C5134 1.363 . S
C5130 H5107 0.950 . S
C5130 C5129 1.397 . S
C5130 C5131 1.334 . S
C5131 H5108 0.950 . S
C5131 C5130 1.334 . S
C5131 C5132 1.287 . S
C5132 C5131 1.287 . S
C5132 C5133 1.524 . S
C5132 H5151 0.913 . S
C5133 H5109 0.950 . S
C5133 C5132 1.524 . S
C5133 C5134 1.415 . S
C5134 H5110 0.950 . S
C5134 C5129 1.363 . S
C5134 C5133 1.415 . S
C5135 H5111 0.951 . S
C5135 C5136 1.366 . S
C5135 C5137 1.388 . S
C5136 C5135 1.366 . S
C5136 C5140 1.385 . S
C5137 H5112 0.951 . S
C5137 C5135 1.388 . S
C5137 C5138 1.366 . S
C5138 C5137 1.366 . S
C5138 C5139 1.414 . S
C5138 C5141 1.499 . S
C5139 H5113 0.950 . S
C5139 C5138 1.414 . S
C5139 C5140 1.374 . S
C5140 H5114 0.950 . S
C5140 C5136 1.385 . S
C5140 C5139 1.374 . S
C5141 C5138 1.499 . S
C5141 C5142 1.373 . S
C5141 C5143 1.389 . S
C5142 H5115 0.950 . S
C5142 C5128 1.377 . S
C5142 C5141 1.373 . S
C5143 C5127 1.377 . S
C5143 C5141 1.389 . S
C5143 C5144 1.524 . S
C5144 C5143 1.524 . S
C5144 C5145 1.397 . S
C5144 C5149 1.363 . S
C5145 H5116 0.950 . S
C5145 C5144 1.397 . S
C5145 C5146 1.334 . S
C5146 H5117 0.950 . S
C5146 C5145 1.334 . S
C5146 C5147 1.287 . S
C5147 C5146 1.287 . S
C5147 C5148 1.524 . S
C5147 H5150 0.999 . S
C5148 H5118 0.950 . S
C5148 C5147 1.524 . S
C5148 C5149 1.415 . S
C5149 H5119 0.950 . S
C5149 C5144 1.363 . S
C5149 C5148 1.415 . S
H5150 C5147 0.999 . S
H5151 C5132 0.913 . S
H5152 C5170 0.951 . S
H5153 C5172 0.951 . S
H5154 C5174 0.950 . S
H5155 C5175 0.950 . S
H5156 C5177 0.950 . S
H5157 C5180 0.950 . S
H5158 C5181 0.950 . S
H5159 C5183 0.950 . S
H5160 C5184 0.950 . S
H5161 C5185 0.951 . S
H5162 C5187 0.951 . S
H5163 C5189 0.950 . S
H5164 C5190 0.950 . S
H5165 C5192 0.950 . S
H5166 C5195 0.950 . S
H5167 C5196 0.950 . S
H5168 C5198 0.950 . S
H5169 C5199 0.950 . S
C5170 H5152 0.951 . S
C5170 C5171 1.366 . S
C5170 C5172 1.388 . S
C5171 C5170 1.366 . S
C5171 C5175 1.385 . S
C5172 H5153 0.951 . S
C5172 C5170 1.388 . S
C5172 C5173 1.366 . S
C5173 C5172 1.366 . S
C5173 C5174 1.414 . S
C5173 C5176 1.499 . S
C5174 H5154 0.950 . S
C5174 C5173 1.414 . S
C5174 C5175 1.374 . S
C5175 H5155 0.950 . S
C5175 C5171 1.385 . S
C5175 C5174 1.374 . S
C5176 C5173 1.499 . S
C5176 C5177 1.373 . S
C5176 C5178 1.389 . S
C5177 H5156 0.950 . S
C5177 C5176 1.373 . S
C5177 C5193 1.377 . S
C5178 C5176 1.389 . S
C5178 C5179 1.524 . S
C5178 C5192 1.377 . S
C5179 C5178 1.524 . S
C5179 C5180 1.397 . S
C5179 C5184 1.363 . S
C5180 H5157 0.950 . S
C5180 C5179 1.397 . S
C5180 C5181 1.334 . S
C5181 H5158 0.950 . S
C5181 C5180 1.334 . S
C5181 C5182 1.287 . S
C5182 C5181 1.287 . S
C5182 C5183 1.524 . S
C5182 H5201 0.913 . S
C5183 H5159 0.950 . S
C5183 C5182 1.524 . S
C5183 C5184 1.415 . S
C5184 H5160 0.950 . S
C5184 C5179 1.363 . S
C5184 C5183 1.415 . S
C5185 H5161 0.951 . S
C5185 C5186 1.366 . S
C5185 C5187 1.388 . S
C5186 C5185 1.366 . S
C5186 C5190 1.385 . S
C5187 H5162 0.951 . S
C5187 C5185 1.388 . S
C5187 C5188 1.366 . S
C5188 C5187 1.366 . S
C5188 C5189 1.414 . S
C5188 C5191 1.499 . S
C5189 H5163 0.950 . S
C5189 C5188 1.414 . S
C5189 C5190 1.374 . S
C5190 H5164 0.950 . S
C5190 C5186 1.385 . S
C5190 C5189 1.374 . S
C5191 C5188 1.499 . S
C5191 C5192 1.373 . S
C5191 C5193 1.389 . S
C5192 H5165 0.950 . S
C5192 C5178 1.377 . S
C5192 C5191 1.373 . S
C5193 C5177 1.377 . S
C5193 C5191 1.389 . S
C5193 C5194 1.524 . S
C5194 C5193 1.524 . S
C5194 C5195 1.397 . S
C5194 C5199 1.363 . S
C5195 H5166 0.950 . S
C5195 C5194 1.397 . S
C5195 C5196 1.334 . S
C5196 H5167 0.950 . S
C5196 C5195 1.334 . S
C5196 C5197 1.287 . S
C5197 C5196 1.287 . S
C5197 C5198 1.524 . S
C5197 H5200 0.999 . S
C5198 H5168 0.950 . S
C5198 C5197 1.524 . S
C5198 C5199 1.415 . S
C5199 H5169 0.950 . S
C5199 C5194 1.363 . S
C5199 C5198 1.415 . S
H5200 C5197 0.999 . S
H5201 C5182 0.913 . S
H5202 C5220 0.951 . S
H5203 C5222 0.951 . S
H5204 C5224 0.950 . S
H5205 C5225 0.950 . S
H5206 C5227 0.950 . S
H5207 C5230 0.950 . S
H5208 C5231 0.950 . S
H5209 C5233 0.950 . S
H5210 C5234 0.950 . S
H5211 C5235 0.951 . S
H5212 C5237 0.951 . S
H5213 C5239 0.950 . S
H5214 C5240 0.950 . S
H5215 C5242 0.950 . S
H5216 C5245 0.950 . S
H5217 C5246 0.950 . S
H5218 C5248 0.950 . S
H5219 C5249 0.950 . S
C5220 H5202 0.951 . S
C5220 C5221 1.366 . S
C5220 C5222 1.388 . S
C5221 C5220 1.366 . S
C5221 C5225 1.385 . S
C5222 H5203 0.951 . S
C5222 C5220 1.388 . S
C5222 C5223 1.366 . S
C5223 C5222 1.366 . S
C5223 C5224 1.414 . S
C5223 C5226 1.499 . S
C5224 H5204 0.950 . S
C5224 C5223 1.414 . S
C5224 C5225 1.374 . S
C5225 H5205 0.950 . S
C5225 C5221 1.385 . S
C5225 C5224 1.374 . S
C5226 C5223 1.499 . S
C5226 C5227 1.373 . S
C5226 C5228 1.389 . S
C5227 H5206 0.950 . S
C5227 C5226 1.373 . S
C5227 C5243 1.377 . S
C5228 C5226 1.389 . S
C5228 C5229 1.524 . S
C5228 C5242 1.377 . S
C5229 C5228 1.524 . S
C5229 C5230 1.397 . S
C5229 C5234 1.363 . S
C5230 H5207 0.950 . S
C5230 C5229 1.397 . S
C5230 C5231 1.334 . S
C5231 H5208 0.950 . S
C5231 C5230 1.334 . S
C5231 C5232 1.287 . S
C5232 C5231 1.287 . S
C5232 C5233 1.524 . S
C5232 H5251 0.913 . S
C5233 H5209 0.950 . S
C5233 C5232 1.524 . S
C5233 C5234 1.415 . S
C5234 H5210 0.950 . S
C5234 C5229 1.363 . S
C5234 C5233 1.415 . S
C5235 H5211 0.951 . S
C5235 C5236 1.366 . S
C5235 C5237 1.388 . S
C5236 C5235 1.366 . S
C5236 C5240 1.385 . S
C5237 H5212 0.951 . S
C5237 C5235 1.388 . S
C5237 C5238 1.366 . S
C5238 C5237 1.366 . S
C5238 C5239 1.414 . S
C5238 C5241 1.499 . S
C5239 H5213 0.950 . S
C5239 C5238 1.414 . S
C5239 C5240 1.374 . S
C5240 H5214 0.950 . S
C5240 C5236 1.385 . S
C5240 C5239 1.374 . S
C5241 C5238 1.499 . S
C5241 C5242 1.373 . S
C5241 C5243 1.389 . S
C5242 H5215 0.950 . S
C5242 C5228 1.377 . S
C5242 C5241 1.373 . S
C5243 C5227 1.377 . S
C5243 C5241 1.389 . S
C5243 C5244 1.524 . S
C5244 C5243 1.524 . S
C5244 C5245 1.397 . S
C5244 C5249 1.363 . S
C5245 H5216 0.950 . S
C5245 C5244 1.397 . S
C5245 C5246 1.334 . S
C5246 H5217 0.950 . S
C5246 C5245 1.334 . S
C5246 C5247 1.287 . S
C5247 C5246 1.287 . S
C5247 C5248 1.524 . S
C5247 H5250 0.999 . S
C5248 H5218 0.950 . S
C5248 C5247 1.524 . S
C5248 C5249 1.415 . S
C5249 H5219 0.950 . S
C5249 C5244 1.363 . S
C5249 C5248 1.415 . S
H5250 C5247 0.999 . S
H5251 C5232 0.913 . S
H5252 C5270 0.951 . S
H5253 C5272 0.951 . S
H5254 C5274 0.950 . S
H5255 C5275 0.950 . S
H5256 C5277 0.950 1_655 S
H5257 C5280 0.950 . S
H5258 C5281 0.950 . S
H5259 C5283 0.950 . S
H5260 C5284 0.950 . S
H5261 C5285 0.951 1_655 S
H5262 C5287 0.900 1_655 S
H5263 C5289 0.950 . S
H5264 C5290 0.950 . S
H5265 C5292 0.950 . S
H5266 C5295 0.950 . S
H5267 C5296 0.962 . S
H5268 C5298 0.950 . S
H5269 C5299 0.950 . S
C5270 H5252 0.951 . S
C5270 C5271 1.366 . S
C5270 C5272 1.388 . S
C5271 C5270 1.366 . S
C5271 C5275 1.385 1_455 S
C5272 H5253 0.951 . S
C5272 C5270 1.388 . S
C5272 C5273 1.366 . S
C5273 C5272 1.366 . S
C5273 C5274 1.414 1_455 S
C5273 C5276 1.499 1_556 S
C5274 H5254 0.950 . S
C5274 C5273 1.414 1_655 S
C5274 C5275 1.374 . S
C5275 H5255 0.950 . S
C5275 C5271 1.385 1_655 S
C5275 C5274 1.374 . S
C5276 C5273 1.499 1_554 S
C5276 C5277 1.373 1_554 S
C5276 C5278 1.389 . S
C5277 H5256 0.950 1_455 S
C5277 C5276 1.373 1_556 S
C5277 C5293 1.377 . S
C5278 C5276 1.389 . S
C5278 C5279 1.524 . S
C5278 C5292 1.377 . S
C5279 C5278 1.524 . S
C5279 C5280 1.397 . S
C5279 C5284 1.363 . S
C5280 H5257 0.950 . S
C5280 C5279 1.397 . S
C5280 C5281 1.334 . S
C5281 H5258 0.950 . S
C5281 C5280 1.334 . S
C5281 C5282 1.287 . S
C5282 C5281 1.287 . S
C5282 C5283 1.524 . S
C5282 H5301 0.913 . S
C5283 H5259 0.950 . S
C5283 C5282 1.524 . S
C5283 C5284 1.415 . S
C5284 H5260 0.950 . S
C5284 C5279 1.363 . S
C5284 C5283 1.415 . S
C5285 H5261 0.951 1_455 S
C5285 C5286 1.366 . S
C5285 C5287 1.372 . S
C5286 C5285 1.366 . S
C5286 C5290 1.385 . S
C5287 H5262 0.900 1_455 S
C5287 C5285 1.372 . S
C5287 C5288 1.435 . S
C5288 C5287 1.435 . S
C5288 C5289 1.414 . S
C5288 C5291 1.499 . S
C5289 H5263 0.950 . S
C5289 C5288 1.414 . S
C5289 C5290 1.374 . S
C5290 H5264 0.950 . S
C5290 C5286 1.385 . S
C5290 C5289 1.374 . S
C5291 C5288 1.499 . S
C5291 C5292 1.373 . S
C5291 C5293 1.389 1_554 S
C5292 H5265 0.950 . S
C5292 C5278 1.377 . S
C5292 C5291 1.373 . S
C5293 C5277 1.377 . S
C5293 C5291 1.389 1_556 S
C5293 C5294 1.524 1_455 S
C5294 C5293 1.524 1_655 S
C5294 C5295 1.397 1_655 S
C5294 C5299 1.363 . S
C5295 H5266 0.950 . S
C5295 C5294 1.397 1_455 S
C5295 C5296 1.334 1_455 S
C5296 H5267 0.962 . S
C5296 C5295 1.334 1_655 S
C5296 C5297 1.287 . S
C5297 C5296 1.287 . S
C5297 C5298 1.524 . S
C5297 H5300 0.999 . S
C5298 H5268 0.950 . S
C5298 C5297 1.524 . S
C5298 C5299 1.415 . S
C5299 H5269 0.950 . S
C5299 C5294 1.363 . S
C5299 C5298 1.415 . S
H5300 C5297 0.999 . S
H5301 C5282 0.913 . S
H5302 C5320 0.951 . S
H5303 C5322 0.951 . S
H5304 C5324 0.950 . S
H5305 C5325 0.950 . S
H5306 C5327 0.950 . S
H5307 C5330 0.950 . S
H5308 C5331 0.950 . S
H5309 C5333 0.950 . S
H5310 C5334 0.950 . S
H5311 C5335 0.951 . S
H5312 C5337 0.951 . S
H5313 C5339 0.950 . S
H5314 C5340 0.950 . S
H5315 C5342 0.950 . S
H5316 C5345 0.950 . S
H5317 C5346 0.950 . S
H5318 C5348 0.950 . S
H5319 C5349 0.950 . S
C5320 H5302 0.951 . S
C5320 C5321 1.366 . S
C5320 C5322 1.388 . S
C5321 C5320 1.366 . S
C5321 C5325 1.385 . S
C5322 H5303 0.951 . S
C5322 C5320 1.388 . S
C5322 C5323 1.366 . S
C5323 C5322 1.366 . S
C5323 C5324 1.414 . S
C5323 C5326 1.499 . S
C5324 H5304 0.950 . S
C5324 C5323 1.414 . S
C5324 C5325 1.374 . S
C5325 H5305 0.950 . S
C5325 C5321 1.385 . S
C5325 C5324 1.374 . S
C5326 C5323 1.499 . S
C5326 C5327 1.373 . S
C5326 C5328 1.389 . S
C5327 H5306 0.950 . S
C5327 C5326 1.373 . S
C5327 C5343 1.377 . S
C5328 C5326 1.389 . S
C5328 C5329 1.524 . S
C5328 C5342 1.377 . S
C5329 C5328 1.524 . S
C5329 C5330 1.397 . S
C5329 C5334 1.363 . S
C5330 H5307 0.950 . S
C5330 C5329 1.397 . S
C5330 C5331 1.334 . S
C5331 H5308 0.950 . S
C5331 C5330 1.334 . S
C5331 C5332 1.287 . S
C5332 C5331 1.287 . S
C5332 C5333 1.524 . S
C5332 H5351 0.913 . S
C5333 H5309 0.950 . S
C5333 C5332 1.524 . S
C5333 C5334 1.415 . S
C5334 H5310 0.950 . S
C5334 C5329 1.363 . S
C5334 C5333 1.415 . S
C5335 H5311 0.951 . S
C5335 C5336 1.366 . S
C5335 C5337 1.388 . S
C5336 C5335 1.366 . S
C5336 C5340 1.385 . S
C5337 H5312 0.951 . S
C5337 C5335 1.388 . S
C5337 C5338 1.366 . S
C5338 C5337 1.366 . S
C5338 C5339 1.414 . S
C5338 C5341 1.499 . S
C5339 H5313 0.950 . S
C5339 C5338 1.414 . S
C5339 C5340 1.374 . S
C5340 H5314 0.950 . S
C5340 C5336 1.385 . S
C5340 C5339 1.374 . S
C5341 C5338 1.499 . S
C5341 C5342 1.373 . S
C5341 C5343 1.389 . S
C5342 H5315 0.950 . S
C5342 C5328 1.377 . S
C5342 C5341 1.373 . S
C5343 C5327 1.377 . S
C5343 C5341 1.389 . S
C5343 C5344 1.524 . S
C5344 C5343 1.524 . S
C5344 C5345 1.397 . S
C5344 C5349 1.363 . S
C5345 H5316 0.950 . S
C5345 C5344 1.397 . S
C5345 C5346 1.334 . S
C5346 H5317 0.950 . S
C5346 C5345 1.334 . S
C5346 C5347 1.287 . S
C5347 C5346 1.287 . S
C5347 C5348 1.524 . S
C5347 H5350 0.999 . S
C5348 H5318 0.950 . S
C5348 C5347 1.524 . S
C5348 C5349 1.415 . S
C5349 H5319 0.950 . S
C5349 C5344 1.363 . S
C5349 C5348 1.415 . S
H5350 C5347 0.999 . S
H5351 C5332 0.913 . S
H5352 C5370 0.951 . S
H5353 C5372 0.951 . S
H5354 C5374 0.950 . S
H5355 C5375 0.950 . S
H5356 C5377 0.950 . S
H5357 C5380 0.950 . S
H5358 C5381 0.950 . S
H5359 C5383 0.950 . S
H5360 C5384 0.950 . S
H5361 C5385 0.951 . S
H5362 C5387 0.951 . S
H5363 C5389 0.950 . S
H5364 C5390 0.950 . S
H5365 C5392 0.950 . S
H5366 C5395 0.950 . S
H5367 C5396 0.950 . S
H5368 C5398 0.950 . S
H5369 C5399 0.950 . S
C5370 H5352 0.951 . S
C5370 C5371 1.366 . S
C5370 C5372 1.388 . S
C5371 C5370 1.366 . S
C5371 C5375 1.385 . S
C5372 H5353 0.951 . S
C5372 C5370 1.388 . S
C5372 C5373 1.366 . S
C5373 C5372 1.366 . S
C5373 C5374 1.414 . S
C5373 C5376 1.499 . S
C5374 H5354 0.950 . S
C5374 C5373 1.414 . S
C5374 C5375 1.374 . S
C5375 H5355 0.950 . S
C5375 C5371 1.385 . S
C5375 C5374 1.374 . S
C5376 C5373 1.499 . S
C5376 C5377 1.373 . S
C5376 C5378 1.389 . S
C5377 H5356 0.950 . S
C5377 C5376 1.373 . S
C5377 C5393 1.377 . S
C5378 C5376 1.389 . S
C5378 C5379 1.524 . S
C5378 C5392 1.377 . S
C5379 C5378 1.524 . S
C5379 C5380 1.397 . S
C5379 C5384 1.363 . S
C5380 H5357 0.950 . S
C5380 C5379 1.397 . S
C5380 C5381 1.334 . S
C5381 H5358 0.950 . S
C5381 C5380 1.334 . S
C5381 C5382 1.287 . S
C5382 C5381 1.287 . S
C5382 C5383 1.524 . S
C5382 H5401 0.913 . S
C5383 H5359 0.950 . S
C5383 C5382 1.524 . S
C5383 C5384 1.415 . S
C5384 H5360 0.950 . S
C5384 C5379 1.363 . S
C5384 C5383 1.415 . S
C5385 H5361 0.951 . S
C5385 C5386 1.366 . S
C5385 C5387 1.388 . S
C5386 C5385 1.366 . S
C5386 C5390 1.385 . S
C5387 H5362 0.951 . S
C5387 C5385 1.388 . S
C5387 C5388 1.366 . S
C5388 C5387 1.366 . S
C5388 C5389 1.414 . S
C5388 C5391 1.499 . S
C5389 H5363 0.950 . S
C5389 C5388 1.414 . S
C5389 C5390 1.374 . S
C5390 H5364 0.950 . S
C5390 C5386 1.385 . S
C5390 C5389 1.374 . S
C5391 C5388 1.499 . S
C5391 C5392 1.373 . S
C5391 C5393 1.389 . S
C5392 H5365 0.950 . S
C5392 C5378 1.377 . S
C5392 C5391 1.373 . S
C5393 C5377 1.377 . S
C5393 C5391 1.389 . S
C5393 C5394 1.524 . S
C5394 C5393 1.524 . S
C5394 C5395 1.397 . S
C5394 C5399 1.363 . S
C5395 H5366 0.950 . S
C5395 C5394 1.397 . S
C5395 C5396 1.334 . S
C5396 H5367 0.950 . S
C5396 C5395 1.334 . S
C5396 C5397 1.287 . S
C5397 C5396 1.287 . S
C5397 C5398 1.524 . S
C5397 H5400 0.999 . S
C5398 H5368 0.950 . S
C5398 C5397 1.524 . S
C5398 C5399 1.415 . S
C5399 H5369 0.950 . S
C5399 C5394 1.363 . S
C5399 C5398 1.415 . S
H5400 C5397 0.999 . S
H5401 C5382 0.913 . S
H5402 C5420 0.951 . S
H5403 C5422 0.951 . S
H5404 C5424 0.950 . S
H5405 C5425 0.950 . S
H5406 C5427 0.950 . S
H5407 C5430 0.950 . S
H5408 C5431 0.950 . S
H5409 C5433 0.950 . S
H5410 C5434 0.950 . S
H5411 C5435 0.951 . S
H5412 C5437 0.951 . S
H5413 C5439 0.950 . S
H5414 C5440 0.950 . S
H5415 C5442 0.950 . S
H5416 C5445 0.950 . S
H5417 C5446 0.950 . S
H5418 C5448 0.950 . S
H5419 C5449 0.950 . S
C5420 H5402 0.951 . S
C5420 C5421 1.366 . S
C5420 C5422 1.388 . S
C5421 C5420 1.366 . S
C5421 C5425 1.385 . S
C5422 H5403 0.951 . S
C5422 C5420 1.388 . S
C5422 C5423 1.366 . S
C5423 C5422 1.366 . S
C5423 C5424 1.414 . S
C5423 C5426 1.499 . S
C5424 H5404 0.950 . S
C5424 C5423 1.414 . S
C5424 C5425 1.374 . S
C5425 H5405 0.950 . S
C5425 C5421 1.385 . S
C5425 C5424 1.374 . S
C5426 C5423 1.499 . S
C5426 C5427 1.373 . S
C5426 C5428 1.389 . S
C5427 H5406 0.950 . S
C5427 C5426 1.373 . S
C5427 C5443 1.377 . S
C5428 C5426 1.389 . S
C5428 C5429 1.524 . S
C5428 C5442 1.377 . S
C5429 C5428 1.524 . S
C5429 C5430 1.397 . S
C5429 C5434 1.363 . S
C5430 H5407 0.950 . S
C5430 C5429 1.397 . S
C5430 C5431 1.334 . S
C5431 H5408 0.950 . S
C5431 C5430 1.334 . S
C5431 C5432 1.287 . S
C5432 C5431 1.287 . S
C5432 C5433 1.524 . S
C5432 H5451 0.913 . S
C5433 H5409 0.950 . S
C5433 C5432 1.524 . S
C5433 C5434 1.415 . S
C5434 H5410 0.950 . S
C5434 C5429 1.363 . S
C5434 C5433 1.415 . S
C5435 H5411 0.951 . S
C5435 C5436 1.366 . S
C5435 C5437 1.388 . S
C5436 C5435 1.366 . S
C5436 C5440 1.385 . S
C5437 H5412 0.951 . S
C5437 C5435 1.388 . S
C5437 C5438 1.366 . S
C5438 C5437 1.366 . S
C5438 C5439 1.414 . S
C5438 C5441 1.499 . S
C5439 H5413 0.950 . S
C5439 C5438 1.414 . S
C5439 C5440 1.374 . S
C5440 H5414 0.950 . S
C5440 C5436 1.385 . S
C5440 C5439 1.374 . S
C5441 C5438 1.499 . S
C5441 C5442 1.373 . S
C5441 C5443 1.389 . S
C5442 H5415 0.950 . S
C5442 C5428 1.377 . S
C5442 C5441 1.373 . S
C5443 C5427 1.377 . S
C5443 C5441 1.389 . S
C5443 C5444 1.524 . S
C5444 C5443 1.524 . S
C5444 C5445 1.397 . S
C5444 C5449 1.363 . S
C5445 H5416 0.950 . S
C5445 C5444 1.397 . S
C5445 C5446 1.334 . S
C5446 H5417 0.950 . S
C5446 C5445 1.334 . S
C5446 C5447 1.287 . S
C5447 C5446 1.287 . S
C5447 C5448 1.524 . S
C5447 H5450 0.999 . S
C5448 H5418 0.950 . S
C5448 C5447 1.524 . S
C5448 C5449 1.415 . S
C5449 H5419 0.950 . S
C5449 C5444 1.363 . S
C5449 C5448 1.415 . S
H5450 C5447 0.999 . S
H5451 C5432 0.913 . S
H5452 C5470 0.951 . S
H5453 C5472 0.951 . S
H5454 C5474 0.950 . S
H5455 C5475 0.950 . S
H5456 C5477 0.950 . S
H5457 C5480 0.950 . S
H5458 C5481 0.950 . S
H5459 C5483 0.950 . S
H5460 C5484 0.950 . S
H5461 C5485 0.951 1_655 S
H5462 C5487 0.951 1_655 S
H5463 C5489 0.950 . S
H5464 C5490 0.950 . S
H5465 C5492 0.950 . S
H5466 C5495 0.950 . S
H5467 C5496 0.950 . S
H5468 C5498 0.950 1_655 S
H5469 C5499 0.950 1_655 S
C5470 H5452 0.951 . S
C5470 C5471 1.366 . S
C5470 C5472 1.388 . S
C5471 C5470 1.366 . S
C5471 C5475 1.385 1_455 S
C5472 H5453 0.951 . S
C5472 C5470 1.388 . S
C5472 C5473 1.366 . S
C5473 C5472 1.366 . S
C5473 C5474 1.414 1_455 S
C5473 C5476 1.499 . S
C5474 H5454 0.950 . S
C5474 C5473 1.414 1_655 S
C5474 C5475 1.374 . S
C5475 H5455 0.950 . S
C5475 C5471 1.385 1_655 S
C5475 C5474 1.374 . S
C5476 C5473 1.499 . S
C5476 C5477 1.373 . S
C5476 C5478 1.389 . S
C5477 H5456 0.950 . S
C5477 C5476 1.373 . S
C5477 C5493 1.377 . S
C5478 C5476 1.389 . S
C5478 C5479 1.524 . S
C5478 C5492 1.377 . S
C5479 C5478 1.524 . S
C5479 C5480 1.397 1_455 S
C5479 C5484 1.363 . S
C5480 H5457 0.950 . S
C5480 C5479 1.397 1_655 S
C5480 C5481 1.334 . S
C5481 H5458 0.950 . S
C5481 C5480 1.334 . S
C5481 C5482 1.287 . S
C5482 C5481 1.287 . S
C5482 C5483 1.524 1_655 S
C5482 H5501 0.913 . S
C5483 H5459 0.950 . S
C5483 C5482 1.524 1_455 S
C5483 C5484 1.415 . S
C5484 H5460 0.950 . S
C5484 C5479 1.363 . S
C5484 C5483 1.415 . S
C5485 H5461 0.951 1_455 S
C5485 C5486 1.366 . S
C5485 C5487 1.388 . S
C5486 C5485 1.366 . S
C5486 C5490 1.385 . S
C5487 H5462 0.951 1_455 S
C5487 C5485 1.388 . S
C5487 C5488 1.366 . S
C5488 C5487 1.366 . S
C5488 C5489 1.414 . S
C5488 C5491 1.499 . S
C5489 H5463 0.950 . S
C5489 C5488 1.414 . S
C5489 C5490 1.374 . S
C5490 H5464 0.950 . S
C5490 C5486 1.385 . S
C5490 C5489 1.374 . S
C5491 C5488 1.499 . S
C5491 C5492 1.373 . S
C5491 C5493 1.389 . S
C5492 H5465 0.950 . S
C5492 C5478 1.377 . S
C5492 C5491 1.373 . S
C5493 C5477 1.377 . S
C5493 C5491 1.389 . S
C5493 C5494 1.524 . S
C5494 C5493 1.524 . S
C5494 C5495 1.397 . S
C5494 C5499 1.363 . S
C5495 H5466 0.950 . S
C5495 C5494 1.397 . S
C5495 C5496 1.334 . S
C5496 H5467 0.950 . S
C5496 C5495 1.334 . S
C5496 C5497 1.287 . S
C5497 C5496 1.287 . S
C5497 C5498 1.524 . S
C5497 H5500 0.999 . S
C5498 H5468 0.950 1_455 S
C5498 C5497 1.524 . S
C5498 C5499 1.415 . S
C5499 H5469 0.950 1_455 S
C5499 C5494 1.363 . S
C5499 C5498 1.415 . S
H5500 C5497 0.999 . S
H5501 C5482 0.913 . S
H5502 C5520 0.951 . S
H5503 C5522 0.951 . S
H5504 C5524 0.950 . S
H5505 C5525 0.950 . S
H5506 C5527 0.950 . S
H5507 C5530 0.950 . S
H5508 C5531 0.950 . S
H5509 C5533 0.950 . S
H5510 C5534 0.950 . S
H5511 C5535 0.951 . S
H5512 C5537 0.951 . S
H5513 C5539 0.950 . S
H5514 C5540 0.950 . S
H5515 C5542 0.950 . S
H5516 C5545 0.950 . S
H5517 C5546 0.950 . S
H5518 C5548 0.950 . S
H5519 C5549 0.950 . S
C5520 H5502 0.951 . S
C5520 C5521 1.366 . S
C5520 C5522 1.388 . S
C5521 C5520 1.366 . S
C5521 C5525 1.385 . S
C5522 H5503 0.951 . S
C5522 C5520 1.388 . S
C5522 C5523 1.366 . S
C5523 C5522 1.366 . S
C5523 C5524 1.414 . S
C5523 C5526 1.499 . S
C5524 H5504 0.950 . S
C5524 C5523 1.414 . S
C5524 C5525 1.374 . S
C5525 H5505 0.950 . S
C5525 C5521 1.385 . S
C5525 C5524 1.374 . S
C5526 C5523 1.499 . S
C5526 C5527 1.373 . S
C5526 C5528 1.389 . S
C5527 H5506 0.950 . S
C5527 C5526 1.373 . S
C5527 C5543 1.377 . S
C5528 C5526 1.389 . S
C5528 C5529 1.524 . S
C5528 C5542 1.377 . S
C5529 C5528 1.524 . S
C5529 C5530 1.397 . S
C5529 C5534 1.363 . S
C5530 H5507 0.950 . S
C5530 C5529 1.397 . S
C5530 C5531 1.334 . S
C5531 H5508 0.950 . S
C5531 C5530 1.334 . S
C5531 C5532 1.287 . S
C5532 C5531 1.287 . S
C5532 C5533 1.524 . S
C5532 H5551 0.913 . S
C5533 H5509 0.950 . S
C5533 C5532 1.524 . S
C5533 C5534 1.415 . S
C5534 H5510 0.950 . S
C5534 C5529 1.363 . S
C5534 C5533 1.415 . S
C5535 H5511 0.951 . S
C5535 C5536 1.366 . S
C5535 C5537 1.388 . S
C5536 C5535 1.366 . S
C5536 C5540 1.385 . S
C5537 H5512 0.951 . S
C5537 C5535 1.388 . S
C5537 C5538 1.366 . S
C5538 C5537 1.366 . S
C5538 C5539 1.414 . S
C5538 C5541 1.499 . S
C5539 H5513 0.950 . S
C5539 C5538 1.414 . S
C5539 C5540 1.374 . S
C5540 H5514 0.950 . S
C5540 C5536 1.385 . S
C5540 C5539 1.374 . S
C5541 C5538 1.499 . S
C5541 C5542 1.373 . S
C5541 C5543 1.389 . S
C5542 H5515 0.950 . S
C5542 C5528 1.377 . S
C5542 C5541 1.373 . S
C5543 C5527 1.377 . S
C5543 C5541 1.389 . S
C5543 C5544 1.524 . S
C5544 C5543 1.524 . S
C5544 C5545 1.397 . S
C5544 C5549 1.363 . S
C5545 H5516 0.950 . S
C5545 C5544 1.397 . S
C5545 C5546 1.334 . S
C5546 H5517 0.950 . S
C5546 C5545 1.334 . S
C5546 C5547 1.287 . S
C5547 C5546 1.287 . S
C5547 C5548 1.524 . S
C5547 H5550 0.999 . S
C5548 H5518 0.950 . S
C5548 C5547 1.524 . S
C5548 C5549 1.415 . S
C5549 H5519 0.950 . S
C5549 C5544 1.363 . S
C5549 C5548 1.415 . S
H5550 C5547 0.999 . S
H5551 C5532 0.913 . S
H5552 C5570 0.951 . S
H5553 C5572 0.951 . S
H5554 C5574 0.950 . S
H5555 C5575 0.950 . S
H5556 C5577 0.950 . S
H5557 C5580 0.950 . S
H5558 C5581 0.950 . S
H5559 C5583 0.950 . S
H5560 C5584 0.950 . S
H5561 C5585 0.951 . S
H5562 C5587 0.951 . S
H5563 C5589 0.950 . S
H5564 C5590 0.950 . S
H5565 C5592 0.950 . S
H5566 C5595 0.950 . S
H5567 C5596 0.950 . S
H5568 C5598 0.950 . S
H5569 C5599 0.950 . S
C5570 H5552 0.951 . S
C5570 C5571 1.366 . S
C5570 C5572 1.388 . S
C5571 C5570 1.366 . S
C5571 C5575 1.385 . S
C5572 H5553 0.951 . S
C5572 C5570 1.388 . S
C5572 C5573 1.366 . S
C5573 C5572 1.366 . S
C5573 C5574 1.414 . S
C5573 C5576 1.499 . S
C5574 H5554 0.950 . S
C5574 C5573 1.414 . S
C5574 C5575 1.374 . S
C5575 H5555 0.950 . S
C5575 C5571 1.385 . S
C5575 C5574 1.374 . S
C5576 C5573 1.499 . S
C5576 C5577 1.373 . S
C5576 C5578 1.389 . S
C5577 H5556 0.950 . S
C5577 C5576 1.373 . S
C5577 C5593 1.377 . S
C5578 C5576 1.389 . S
C5578 C5579 1.524 . S
C5578 C5592 1.377 . S
C5579 C5578 1.524 . S
C5579 C5580 1.397 . S
C5579 C5584 1.363 . S
C5580 H5557 0.950 . S
C5580 C5579 1.397 . S
C5580 C5581 1.334 . S
C5581 H5558 0.950 . S
C5581 C5580 1.334 . S
C5581 C5582 1.287 . S
C5582 C5581 1.287 . S
C5582 C5583 1.524 . S
C5582 H5601 0.913 . S
C5583 H5559 0.950 . S
C5583 C5582 1.524 . S
C5583 C5584 1.415 . S
C5584 H5560 0.950 . S
C5584 C5579 1.363 . S
C5584 C5583 1.415 . S
C5585 H5561 0.951 . S
C5585 C5586 1.366 . S
C5585 C5587 1.388 . S
C5586 C5585 1.366 . S
C5586 C5590 1.385 . S
C5587 H5562 0.951 . S
C5587 C5585 1.388 . S
C5587 C5588 1.366 . S
C5588 C5587 1.366 . S
C5588 C5589 1.414 . S
C5588 C5591 1.499 . S
C5589 H5563 0.950 . S
C5589 C5588 1.414 . S
C5589 C5590 1.374 . S
C5590 H5564 0.950 . S
C5590 C5586 1.385 . S
C5590 C5589 1.374 . S
C5591 C5588 1.499 . S
C5591 C5592 1.373 . S
C5591 C5593 1.389 . S
C5592 H5565 0.950 . S
C5592 C5578 1.377 . S
C5592 C5591 1.373 . S
C5593 C5577 1.377 . S
C5593 C5591 1.389 . S
C5593 C5594 1.524 . S
C5594 C5593 1.524 . S
C5594 C5595 1.397 . S
C5594 C5599 1.363 . S
C5595 H5566 0.950 . S
C5595 C5594 1.397 . S
C5595 C5596 1.334 . S
C5596 H5567 0.950 . S
C5596 C5595 1.334 . S
C5596 C5597 1.287 . S
C5597 C5596 1.287 . S
C5597 C5598 1.524 . S
C5597 H5600 0.999 . S
C5598 H5568 0.950 . S
C5598 C5597 1.524 . S
C5598 C5599 1.415 . S
C5599 H5569 0.950 . S
C5599 C5594 1.363 . S
C5599 C5598 1.415 . S
H5600 C5597 0.999 . S
H5601 C5582 0.913 . S
H5602 C5620 0.951 . S
H5603 C5622 0.951 . S
H5604 C5624 0.950 . S
H5605 C5625 0.950 . S
H5606 C5627 0.950 . S
H5607 C5630 0.950 . S
H5608 C5631 0.950 . S
H5609 C5633 0.950 . S
H5610 C5634 0.950 . S
H5611 C5635 0.951 . S
H5612 C5637 0.951 . S
H5613 C5639 0.950 . S
H5614 C5640 0.950 . S
H5615 C5642 0.950 . S
H5616 C5645 0.950 . S
H5617 C5646 0.950 . S
H5618 C5648 0.950 . S
H5619 C5649 0.950 . S
C5620 H5602 0.951 . S
C5620 C5621 1.366 . S
C5620 C5622 1.388 . S
C5621 C5620 1.366 . S
C5621 C5625 1.385 . S
C5622 H5603 0.951 . S
C5622 C5620 1.388 . S
C5622 C5623 1.366 . S
C5623 C5622 1.366 . S
C5623 C5624 1.414 . S
C5623 C5626 1.499 . S
C5624 H5604 0.950 . S
C5624 C5623 1.414 . S
C5624 C5625 1.374 . S
C5625 H5605 0.950 . S
C5625 C5621 1.385 . S
C5625 C5624 1.374 . S
C5626 C5623 1.499 . S
C5626 C5627 1.373 . S
C5626 C5628 1.389 . S
C5627 H5606 0.950 . S
C5627 C5626 1.373 . S
C5627 C5643 1.377 . S
C5628 C5626 1.389 . S
C5628 C5629 1.524 . S
C5628 C5642 1.377 . S
C5629 C5628 1.524 . S
C5629 C5630 1.397 . S
C5629 C5634 1.363 . S
C5630 H5607 0.950 . S
C5630 C5629 1.397 . S
C5630 C5631 1.334 . S
C5631 H5608 0.950 . S
C5631 C5630 1.334 . S
C5631 C5632 1.287 . S
C5632 C5631 1.287 . S
C5632 C5633 1.524 . S
C5632 H5651 0.913 . S
C5633 H5609 0.950 . S
C5633 C5632 1.524 . S
C5633 C5634 1.415 . S
C5634 H5610 0.950 . S
C5634 C5629 1.363 . S
C5634 C5633 1.415 . S
C5635 H5611 0.951 . S
C5635 C5636 1.366 . S
C5635 C5637 1.388 . S
C5636 C5635 1.366 . S
C5636 C5640 1.385 . S
C5637 H5612 0.951 . S
C5637 C5635 1.388 . S
C5637 C5638 1.366 . S
C5638 C5637 1.366 . S
C5638 C5639 1.414 . S
C5638 C5641 1.499 . S
C5639 H5613 0.950 . S
C5639 C5638 1.414 . S
C5639 C5640 1.374 . S
C5640 H5614 0.950 . S
C5640 C5636 1.385 . S
C5640 C5639 1.374 . S
C5641 C5638 1.499 . S
C5641 C5642 1.373 . S
C5641 C5643 1.389 . S
C5642 H5615 0.950 . S
C5642 C5628 1.377 . S
C5642 C5641 1.373 . S
C5643 C5627 1.377 . S
C5643 C5641 1.389 . S
C5643 C5644 1.524 . S
C5644 C5643 1.524 . S
C5644 C5645 1.397 . S
C5644 C5649 1.363 . S
C5645 H5616 0.950 . S
C5645 C5644 1.397 . S
C5645 C5646 1.334 . S
C5646 H5617 0.950 . S
C5646 C5645 1.334 . S
C5646 C5647 1.287 . S
C5647 C5646 1.287 . S
C5647 C5648 1.524 . S
C5647 H5650 0.999 . S
C5648 H5618 0.950 . S
C5648 C5647 1.524 . S
C5648 C5649 1.415 . S
C5649 H5619 0.950 . S
C5649 C5644 1.363 . S
C5649 C5648 1.415 . S
H5650 C5647 0.999 . S
H5651 C5632 0.913 . S
H5652 C5670 0.951 . S
H5653 C5672 0.951 . S
H5654 C5674 0.950 . S
H5655 C5675 0.950 . S
H5656 C5677 0.950 . S
H5657 C5680 0.950 . S
H5658 C5681 0.950 . S
H5659 C5683 0.950 . S
H5660 C5684 0.950 . S
H5661 C5685 0.951 . S
H5662 C5687 0.951 . S
H5663 C5689 0.950 . S
H5664 C5690 0.950 . S
H5665 C5692 0.950 . S
H5666 C5695 0.950 . S
H5667 C5696 0.950 . S
H5668 C5698 0.950 . S
H5669 C5699 0.950 . S
C5670 H5652 0.951 . S
C5670 C5671 1.366 . S
C5670 C5672 1.388 . S
C5671 C5670 1.366 . S
C5671 C5675 1.385 . S
C5672 H5653 0.951 . S
C5672 C5670 1.388 . S
C5672 C5673 1.366 . S
C5673 C5672 1.366 . S
C5673 C5674 1.414 . S
C5673 C5676 1.499 . S
C5674 H5654 0.950 . S
C5674 C5673 1.414 . S
C5674 C5675 1.374 . S
C5675 H5655 0.950 . S
C5675 C5671 1.385 . S
C5675 C5674 1.374 . S
C5676 C5673 1.499 . S
C5676 C5677 1.373 . S
C5676 C5678 1.389 . S
C5677 H5656 0.950 . S
C5677 C5676 1.373 . S
C5677 C5693 1.377 . S
C5678 C5676 1.389 . S
C5678 C5679 1.524 . S
C5678 C5692 1.377 . S
C5679 C5678 1.524 . S
C5679 C5680 1.397 . S
C5679 C5684 1.363 . S
C5680 H5657 0.950 . S
C5680 C5679 1.397 . S
C5680 C5681 1.334 . S
C5681 H5658 0.950 . S
C5681 C5680 1.334 . S
C5681 C5682 1.287 . S
C5682 C5681 1.287 . S
C5682 C5683 1.524 . S
C5682 H5701 0.913 . S
C5683 H5659 0.950 . S
C5683 C5682 1.524 . S
C5683 C5684 1.415 . S
C5684 H5660 0.950 . S
C5684 C5679 1.363 . S
C5684 C5683 1.415 . S
C5685 H5661 0.951 . S
C5685 C5686 1.366 . S
C5685 C5687 1.388 . S
C5686 C5685 1.366 . S
C5686 C5690 1.385 . S
C5687 H5662 0.951 . S
C5687 C5685 1.388 . S
C5687 C5688 1.366 . S
C5688 C5687 1.366 . S
C5688 C5689 1.414 . S
C5688 C5691 1.499 . S
C5689 H5663 0.950 . S
C5689 C5688 1.414 . S
C5689 C5690 1.374 . S
C5690 H5664 0.950 . S
C5690 C5686 1.385 . S
C5690 C5689 1.374 . S
C5691 C5688 1.499 . S
C5691 C5692 1.373 . S
C5691 C5693 1.389 . S
C5692 H5665 0.950 . S
C5692 C5678 1.377 . S
C5692 C5691 1.373 . S
C5693 C5677 1.377 . S
C5693 C5691 1.389 . S
C5693 C5694 1.524 . S
C5694 C5693 1.524 . S
C5694 C5695 1.397 . S
C5694 C5699 1.363 . S
C5695 H5666 0.950 . S
C5695 C5694 1.397 . S
C5695 C5696 1.334 . S
C5696 H5667 0.950 . S
C5696 C5695 1.334 . S
C5696 C5697 1.287 . S
C5697 C5696 1.287 . S
C5697 C5698 1.524 . S
C5697 H5700 0.999 . S
C5698 H5668 0.950 . S
C5698 C5697 1.524 . S
C5698 C5699 1.415 . S
C5699 H5669 0.950 . S
C5699 C5694 1.363 . S
C5699 C5698 1.415 . S
H5700 C5697 0.999 . S
H5701 C5682 0.913 . S
H5702 C5720 0.951 . S
H5703 C5722 0.951 . S
H5704 C5724 0.950 . S
H5705 C5725 0.950 . S
H5706 C5727 0.950 . S
H5707 C5730 0.950 . S
H5708 C5731 0.950 . S
H5709 C5733 0.950 . S
H5710 C5734 0.950 . S
H5711 C5735 0.951 . S
H5712 C5737 0.951 . S
H5713 C5739 0.950 . S
H5714 C5740 0.950 . S
H5715 C5742 0.950 . S
H5716 C5745 0.950 . S
H5717 C5746 0.950 . S
H5718 C5748 0.950 . S
H5719 C5749 0.950 . S
C5720 H5702 0.951 . S
C5720 C5721 1.366 . S
C5720 C5722 1.388 . S
C5721 C5720 1.366 . S
C5721 C5725 1.385 . S
C5722 H5703 0.951 . S
C5722 C5720 1.388 . S
C5722 C5723 1.366 . S
C5723 C5722 1.366 . S
C5723 C5724 1.414 . S
C5723 C5726 1.499 . S
C5724 H5704 0.950 . S
C5724 C5723 1.414 . S
C5724 C5725 1.374 . S
C5725 H5705 0.950 . S
C5725 C5721 1.385 . S
C5725 C5724 1.374 . S
C5726 C5723 1.499 . S
C5726 C5727 1.373 . S
C5726 C5728 1.389 . S
C5727 H5706 0.950 . S
C5727 C5726 1.373 . S
C5727 C5743 1.377 . S
C5728 C5726 1.389 . S
C5728 C5729 1.524 . S
C5728 C5742 1.377 . S
C5729 C5728 1.524 . S
C5729 C5730 1.397 . S
C5729 C5734 1.363 . S
C5730 H5707 0.950 . S
C5730 C5729 1.397 . S
C5730 C5731 1.334 . S
C5731 H5708 0.950 . S
C5731 C5730 1.334 . S
C5731 C5732 1.287 . S
C5732 C5731 1.287 . S
C5732 C5733 1.524 . S
C5732 H5751 0.913 . S
C5733 H5709 0.950 . S
C5733 C5732 1.524 . S
C5733 C5734 1.415 . S
C5734 H5710 0.950 . S
C5734 C5729 1.363 . S
C5734 C5733 1.415 . S
C5735 H5711 0.951 . S
C5735 C5736 1.366 . S
C5735 C5737 1.388 . S
C5736 C5735 1.366 . S
C5736 C5740 1.385 . S
C5737 H5712 0.951 . S
C5737 C5735 1.388 . S
C5737 C5738 1.366 . S
C5738 C5737 1.366 . S
C5738 C5739 1.414 . S
C5738 C5741 1.499 . S
C5739 H5713 0.950 . S
C5739 C5738 1.414 . S
C5739 C5740 1.374 . S
C5740 H5714 0.950 . S
C5740 C5736 1.385 . S
C5740 C5739 1.374 . S
C5741 C5738 1.499 . S
C5741 C5742 1.373 . S
C5741 C5743 1.389 . S
C5742 H5715 0.950 . S
C5742 C5728 1.377 . S
C5742 C5741 1.373 . S
C5743 C5727 1.377 . S
C5743 C5741 1.389 . S
C5743 C5744 1.524 . S
C5744 C5743 1.524 . S
C5744 C5745 1.397 . S
C5744 C5749 1.363 . S
C5745 H5716 0.950 . S
C5745 C5744 1.397 . S
C5745 C5746 1.334 . S
C5746 H5717 0.950 . S
C5746 C5745 1.334 . S
C5746 C5747 1.287 . S
C5747 C5746 1.287 . S
C5747 C5748 1.524 . S
C5747 H5750 0.999 . S
C5748 H5718 0.950 . S
C5748 C5747 1.524 . S
C5748 C5749 1.415 . S
C5749 H5719 0.950 . S
C5749 C5744 1.363 . S
C5749 C5748 1.415 . S
H5750 C5747 0.999 . S
H5751 C5732 0.913 . S
H5752 C5770 0.951 . S
H5753 C5772 0.951 . S
H5754 C5774 0.950 . S
H5755 C5775 0.950 . S
H5756 C5777 0.950 . S
H5757 C5780 0.950 . S
H5758 C5781 0.950 . S
H5759 C5783 0.950 . S
H5760 C5784 0.950 . S
H5761 C5785 0.951 . S
H5762 C5787 0.951 . S
H5763 C5789 0.950 . S
H5764 C5790 0.950 . S
H5765 C5792 0.950 . S
H5766 C5795 0.950 . S
H5767 C5796 0.950 . S
H5768 C5798 0.950 . S
H5769 C5799 0.950 . S
C5770 H5752 0.951 . S
C5770 C5771 1.366 . S
C5770 C5772 1.388 . S
C5771 C5770 1.366 . S
C5771 C5775 1.385 . S
C5772 H5753 0.951 . S
C5772 C5770 1.388 . S
C5772 C5773 1.366 . S
C5773 C5772 1.366 . S
C5773 C5774 1.414 . S
C5773 C5776 1.499 . S
C5774 H5754 0.950 . S
C5774 C5773 1.414 . S
C5774 C5775 1.374 . S
C5775 H5755 0.950 . S
C5775 C5771 1.385 . S
C5775 C5774 1.374 . S
C5776 C5773 1.499 . S
C5776 C5777 1.373 . S
C5776 C5778 1.389 . S
C5777 H5756 0.950 . S
C5777 C5776 1.373 . S
C5777 C5793 1.377 . S
C5778 C5776 1.389 . S
C5778 C5779 1.524 . S
C5778 C5792 1.377 . S
C5779 C5778 1.524 . S
C5779 C5780 1.397 . S
C5779 C5784 1.363 . S
C5780 H5757 0.950 . S
C5780 C5779 1.397 . S
C5780 C5781 1.334 . S
C5781 H5758 0.950 . S
C5781 C5780 1.334 . S
C5781 C5782 1.287 . S
C5782 C5781 1.287 . S
C5782 C5783 1.524 . S
C5782 H5801 0.913 . S
C5783 H5759 0.950 . S
C5783 C5782 1.524 . S
C5783 C5784 1.415 . S
C5784 H5760 0.950 . S
C5784 C5779 1.363 . S
C5784 C5783 1.415 . S
C5785 H5761 0.951 . S
C5785 C5786 1.366 . S
C5785 C5787 1.388 . S
C5786 C5785 1.366 . S
C5786 C5790 1.385 . S
C5787 H5762 0.951 . S
C5787 C5785 1.388 . S
C5787 C5788 1.366 . S
C5788 C5787 1.366 . S
C5788 C5789 1.414 . S
C5788 C5791 1.499 . S
C5789 H5763 0.950 . S
C5789 C5788 1.414 . S
C5789 C5790 1.374 . S
C5790 H5764 0.950 . S
C5790 C5786 1.385 . S
C5790 C5789 1.374 . S
C5791 C5788 1.499 . S
C5791 C5792 1.373 . S
C5791 C5793 1.389 . S
C5792 H5765 0.950 . S
C5792 C5778 1.377 . S
C5792 C5791 1.373 . S
C5793 C5777 1.377 . S
C5793 C5791 1.389 . S
C5793 C5794 1.524 . S
C5794 C5793 1.524 . S
C5794 C5795 1.397 . S
C5794 C5799 1.363 . S
C5795 H5766 0.950 . S
C5795 C5794 1.397 . S
C5795 C5796 1.334 . S
C5796 H5767 0.950 . S
C5796 C5795 1.334 . S
C5796 C5797 1.287 . S
C5797 C5796 1.287 . S
C5797 C5798 1.524 . S
C5797 H5800 0.999 . S
C5798 H5768 0.950 . S
C5798 C5797 1.524 . S
C5798 C5799 1.415 . S
C5799 H5769 0.950 . S
C5799 C5794 1.363 . S
C5799 C5798 1.415 . S
H5800 C5797 0.999 . S
H5801 C5782 0.913 . S
H5802 C5820 0.951 . S
H5803 C5822 0.951 . S
H5804 C5824 0.950 . S
H5805 C5825 0.950 . S
H5806 C5827 0.950 . S
H5807 C5830 0.950 . S
H5808 C5831 0.950 . S
H5809 C5833 0.950 . S
H5810 C5834 0.950 . S
H5811 C5835 0.951 . S
H5812 C5837 0.951 . S
H5813 C5839 0.950 . S
H5814 C5840 0.950 . S
H5815 C5842 0.950 . S
H5816 C5845 0.950 . S
H5817 C5846 0.950 . S
H5818 C5848 0.950 . S
H5819 C5849 0.950 . S
C5820 H5802 0.951 . S
C5820 C5821 1.366 . S
C5820 C5822 1.388 . S
C5821 C5820 1.366 . S
C5821 C5825 1.385 . S
C5822 H5803 0.951 . S
C5822 C5820 1.388 . S
C5822 C5823 1.366 . S
C5823 C5822 1.366 . S
C5823 C5824 1.414 . S
C5823 C5826 1.499 . S
C5824 H5804 0.950 . S
C5824 C5823 1.414 . S
C5824 C5825 1.374 . S
C5825 H5805 0.950 . S
C5825 C5821 1.385 . S
C5825 C5824 1.374 . S
C5826 C5823 1.499 . S
C5826 C5827 1.373 . S
C5826 C5828 1.389 . S
C5827 H5806 0.950 . S
C5827 C5826 1.373 . S
C5827 C5843 1.377 . S
C5828 C5826 1.389 . S
C5828 C5829 1.524 . S
C5828 C5842 1.377 . S
C5829 C5828 1.524 . S
C5829 C5830 1.397 . S
C5829 C5834 1.363 . S
C5830 H5807 0.950 . S
C5830 C5829 1.397 . S
C5830 C5831 1.334 . S
C5831 H5808 0.950 . S
C5831 C5830 1.334 . S
C5831 C5832 1.287 . S
C5832 C5831 1.287 . S
C5832 C5833 1.524 . S
C5832 H5851 0.913 . S
C5833 H5809 0.950 . S
C5833 C5832 1.524 . S
C5833 C5834 1.415 . S
C5834 H5810 0.950 . S
C5834 C5829 1.363 . S
C5834 C5833 1.415 . S
C5835 H5811 0.951 . S
C5835 C5836 1.366 . S
C5835 C5837 1.388 . S
C5836 C5835 1.366 . S
C5836 C5840 1.385 . S
C5837 H5812 0.951 . S
C5837 C5835 1.388 . S
C5837 C5838 1.366 . S
C5838 C5837 1.366 . S
C5838 C5839 1.414 . S
C5838 C5841 1.499 . S
C5839 H5813 0.950 . S
C5839 C5838 1.414 . S
C5839 C5840 1.374 . S
C5840 H5814 0.950 . S
C5840 C5836 1.385 . S
C5840 C5839 1.374 . S
C5841 C5838 1.499 . S
C5841 C5842 1.373 . S
C5841 C5843 1.389 . S
C5842 H5815 0.950 . S
C5842 C5828 1.377 . S
C5842 C5841 1.373 . S
C5843 C5827 1.377 . S
C5843 C5841 1.389 . S
C5843 C5844 1.524 . S
C5844 C5843 1.524 . S
C5844 C5845 1.397 . S
C5844 C5849 1.363 . S
C5845 H5816 0.950 . S
C5845 C5844 1.397 . S
C5845 C5846 1.334 . S
C5846 H5817 0.950 . S
C5846 C5845 1.334 . S
C5846 C5847 1.287 . S
C5847 C5846 1.287 . S
C5847 C5848 1.524 . S
C5847 H5850 0.999 . S
C5848 H5818 0.950 . S
C5848 C5847 1.524 . S
C5848 C5849 1.415 . S
C5849 H5819 0.950 . S
C5849 C5844 1.363 . S
C5849 C5848 1.415 . S
H5850 C5847 0.999 . S
H5851 C5832 0.913 . S
H5852 C5870 0.951 . S
H5853 C5872 0.951 . S
H5854 C5874 0.950 . S
H5855 C5875 0.950 . S
H5856 C5877 0.950 . S
H5857 C5880 0.950 . S
H5858 C5881 0.950 . S
H5859 C5883 0.950 . S
H5860 C5884 0.950 . S
H5861 C5885 0.951 . S
H5862 C5887 0.951 . S
H5863 C5889 0.950 . S
H5864 C5890 0.950 . S
H5865 C5892 0.950 . S
H5866 C5895 0.950 . S
H5867 C5896 0.950 . S
H5868 C5898 0.950 . S
H5869 C5899 0.950 . S
C5870 H5852 0.951 . S
C5870 C5871 1.366 . S
C5870 C5872 1.388 . S
C5871 C5870 1.366 . S
C5871 C5875 1.385 . S
C5872 H5853 0.951 . S
C5872 C5870 1.388 . S
C5872 C5873 1.366 . S
C5873 C5872 1.366 . S
C5873 C5874 1.414 . S
C5873 C5876 1.499 . S
C5874 H5854 0.950 . S
C5874 C5873 1.414 . S
C5874 C5875 1.374 . S
C5875 H5855 0.950 . S
C5875 C5871 1.385 . S
C5875 C5874 1.374 . S
C5876 C5873 1.499 . S
C5876 C5877 1.373 . S
C5876 C5878 1.389 . S
C5877 H5856 0.950 . S
C5877 C5876 1.373 . S
C5877 C5893 1.377 . S
C5878 C5876 1.389 . S
C5878 C5879 1.524 . S
C5878 C5892 1.377 . S
C5879 C5878 1.524 . S
C5879 C5880 1.397 . S
C5879 C5884 1.363 . S
C5880 H5857 0.950 . S
C5880 C5879 1.397 . S
C5880 C5881 1.334 . S
C5881 H5858 0.950 . S
C5881 C5880 1.334 . S
C5881 C5882 1.287 . S
C5882 C5881 1.287 . S
C5882 C5883 1.524 . S
C5882 H5901 0.913 . S
C5883 H5859 0.950 . S
C5883 C5882 1.524 . S
C5883 C5884 1.415 . S
C5884 H5860 0.950 . S
C5884 C5879 1.363 . S
C5884 C5883 1.415 . S
C5885 H5861 0.951 . S
C5885 C5886 1.366 . S
C5885 C5887 1.388 . S
C5886 C5885 1.366 . S
C5886 C5890 1.385 . S
C5887 H5862 0.951 . S
C5887 C5885 1.388 . S
C5887 C5888 1.366 . S
C5888 C5887 1.366 . S
C5888 C5889 1.414 . S
C5888 C5891 1.499 . S
C5889 H5863 0.950 . S
C5889 C5888 1.414 . S
C5889 C5890 1.374 . S
C5890 H5864 0.950 . S
C5890 C5886 1.385 . S
C5890 C5889 1.374 . S
C5891 C5888 1.499 . S
C5891 C5892 1.373 . S
C5891 C5893 1.389 . S
C5892 H5865 0.950 . S
C5892 C5878 1.377 . S
C5892 C5891 1.373 . S
C5893 C5877 1.377 . S
C5893 C5891 1.389 . S
C5893 C5894 1.524 . S
C5894 C5893 1.524 . S
C5894 C5895 1.397 . S
C5894 C5899 1.363 . S
C5895 H5866 0.950 . S
C5895 C5894 1.397 . S
C5895 C5896 1.334 . S
C5896 H5867 0.950 . S
C5896 C5895 1.334 . S
C5896 C5897 1.287 . S
C5897 C5896 1.287 . S
C5897 C5898 1.524 . S
C5897 H5900 0.999 . S
C5898 H5868 0.950 . S
C5898 C5897 1.524 . S
C5898 C5899 1.415 . S
C5899 H5869 0.950 . S
C5899 C5894 1.363 . S
C5899 C5898 1.415 . S
H5900 C5897 0.999 . S
H5901 C5882 0.913 . S
H5902 C5920 0.951 . S
H5903 C5922 0.951 . S
H5904 C5924 0.950 . S
H5905 C5925 0.950 . S
H5906 C5927 0.950 . S
H5907 C5930 0.950 . S
H5908 C5931 0.950 . S
H5909 C5933 0.950 . S
H5910 C5934 0.950 . S
H5911 C5935 0.951 . S
H5912 C5937 0.951 . S
H5913 C5939 0.950 . S
H5914 C5940 0.950 . S
H5915 C5942 0.950 . S
H5916 C5945 0.950 . S
H5917 C5946 0.950 . S
H5918 C5948 0.950 . S
H5919 C5949 0.950 . S
C5920 H5902 0.951 . S
C5920 C5921 1.366 . S
C5920 C5922 1.388 . S
C5921 C5920 1.366 . S
C5921 C5925 1.385 . S
C5922 H5903 0.951 . S
C5922 C5920 1.388 . S
C5922 C5923 1.366 . S
C5923 C5922 1.366 . S
C5923 C5924 1.414 . S
C5923 C5926 1.499 . S
C5924 H5904 0.950 . S
C5924 C5923 1.414 . S
C5924 C5925 1.374 . S
C5925 H5905 0.950 . S
C5925 C5921 1.385 . S
C5925 C5924 1.374 . S
C5926 C5923 1.499 . S
C5926 C5927 1.373 . S
C5926 C5928 1.389 . S
C5927 H5906 0.950 . S
C5927 C5926 1.373 . S
C5927 C5943 1.377 . S
C5928 C5926 1.389 . S
C5928 C5929 1.524 . S
C5928 C5942 1.377 . S
C5929 C5928 1.524 . S
C5929 C5930 1.397 . S
C5929 C5934 1.363 . S
C5930 H5907 0.950 . S
C5930 C5929 1.397 . S
C5930 C5931 1.334 . S
C5931 H5908 0.950 . S
C5931 C5930 1.334 . S
C5931 C5932 1.287 . S
C5932 C5931 1.287 . S
C5932 C5933 1.524 . S
C5932 H5951 0.913 . S
C5933 H5909 0.950 . S
C5933 C5932 1.524 . S
C5933 C5934 1.415 . S
C5934 H5910 0.950 . S
C5934 C5929 1.363 . S
C5934 C5933 1.415 . S
C5935 H5911 0.951 . S
C5935 C5936 1.366 . S
C5935 C5937 1.388 . S
C5936 C5935 1.366 . S
C5936 C5940 1.385 . S
C5937 H5912 0.951 . S
C5937 C5935 1.388 . S
C5937 C5938 1.366 . S
C5938 C5937 1.366 . S
C5938 C5939 1.414 . S
C5938 C5941 1.499 . S
C5939 H5913 0.950 . S
C5939 C5938 1.414 . S
C5939 C5940 1.374 . S
C5940 H5914 0.950 . S
C5940 C5936 1.385 . S
C5940 C5939 1.374 . S
C5941 C5938 1.499 . S
C5941 C5942 1.373 . S
C5941 C5943 1.389 . S
C5942 H5915 0.950 . S
C5942 C5928 1.377 . S
C5942 C5941 1.373 . S
C5943 C5927 1.377 . S
C5943 C5941 1.389 . S
C5943 C5944 1.524 . S
C5944 C5943 1.524 . S
C5944 C5945 1.397 . S
C5944 C5949 1.363 . S
C5945 H5916 0.950 . S
C5945 C5944 1.397 . S
C5945 C5946 1.334 . S
C5946 H5917 0.950 . S
C5946 C5945 1.334 . S
C5946 C5947 1.287 . S
C5947 C5946 1.287 . S
C5947 C5948 1.524 . S
C5947 H5950 0.999 . S
C5948 H5918 0.950 . S
C5948 C5947 1.524 . S
C5948 C5949 1.415 . S
C5949 H5919 0.950 . S
C5949 C5944 1.363 . S
C5949 C5948 1.415 . S
H5950 C5947 0.999 . S
H5951 C5932 0.913 . S
H5952 C5970 0.951 . S
H5953 C5972 0.951 . S
H5954 C5974 0.950 . S
H5955 C5975 0.950 . S
H5956 C5977 0.950 . S
H5957 C5980 0.950 . S
H5958 C5981 0.950 . S
H5959 C5983 0.950 . S
H5960 C5984 0.950 . S
H5961 C5985 0.951 . S
H5962 C5987 0.951 . S
H5963 C5989 0.950 . S
H5964 C5990 0.950 . S
H5965 C5992 0.950 . S
H5966 C5995 0.950 . S
H5967 C5996 0.950 . S
H5968 C5998 0.950 . S
H5969 C5999 0.950 . S
C5970 H5952 0.951 . S
C5970 C5971 1.366 . S
C5970 C5972 1.388 . S
C5971 C5970 1.366 . S
C5971 C5975 1.385 . S
C5972 H5953 0.951 . S
C5972 C5970 1.388 . S
C5972 C5973 1.366 . S
C5973 C5972 1.366 . S
C5973 C5974 1.414 . S
C5973 C5976 1.499 . S
C5974 H5954 0.950 . S
C5974 C5973 1.414 . S
C5974 C5975 1.374 . S
C5975 H5955 0.950 . S
C5975 C5971 1.385 . S
C5975 C5974 1.374 . S
C5976 C5973 1.499 . S
C5976 C5977 1.373 . S
C5976 C5978 1.389 . S
C5977 H5956 0.950 . S
C5977 C5976 1.373 . S
C5977 C5993 1.377 . S
C5978 C5976 1.389 . S
C5978 C5979 1.524 . S
C5978 C5992 1.377 . S
C5979 C5978 1.524 . S
C5979 C5980 1.397 . S
C5979 C5984 1.363 . S
C5980 H5957 0.950 . S
C5980 C5979 1.397 . S
C5980 C5981 1.334 . S
C5981 H5958 0.950 . S
C5981 C5980 1.334 . S
C5981 C5982 1.287 . S
C5982 C5981 1.287 . S
C5982 C5983 1.524 . S
C5982 H6001 0.913 . S
C5983 H5959 0.950 . S
C5983 C5982 1.524 . S
C5983 C5984 1.415 . S
C5984 H5960 0.950 . S
C5984 C5979 1.363 . S
C5984 C5983 1.415 . S
C5985 H5961 0.951 . S
C5985 C5986 1.366 . S
C5985 C5987 1.388 . S
C5986 C5985 1.366 . S
C5986 C5990 1.385 . S
C5987 H5962 0.951 . S
C5987 C5985 1.388 . S
C5987 C5988 1.366 . S
C5988 C5987 1.366 . S
C5988 C5989 1.414 . S
C5988 C5991 1.499 . S
C5989 H5963 0.950 . S
C5989 C5988 1.414 . S
C5989 C5990 1.374 . S
C5990 H5964 0.950 . S
C5990 C5986 1.385 . S
C5990 C5989 1.374 . S
C5991 C5988 1.499 . S
C5991 C5992 1.373 . S
C5991 C5993 1.389 . S
C5992 H5965 0.950 . S
C5992 C5978 1.377 . S
C5992 C5991 1.373 . S
C5993 C5977 1.377 . S
C5993 C5991 1.389 . S
C5993 C5994 1.524 . S
C5994 C5993 1.524 . S
C5994 C5995 1.397 . S
C5994 C5999 1.363 . S
C5995 H5966 0.950 . S
C5995 C5994 1.397 . S
C5995 C5996 1.334 . S
C5996 H5967 0.950 . S
C5996 C5995 1.334 . S
C5996 C5997 1.287 . S
C5997 C5996 1.287 . S
C5997 C5998 1.524 . S
C5997 H6000 0.999 . S
C5998 H5968 0.950 . S
C5998 C5997 1.524 . S
C5998 C5999 1.415 . S
C5999 H5969 0.950 . S
C5999 C5994 1.363 . S
C5999 C5998 1.415 . S
H6000 C5997 0.999 . S
H6001 C5982 0.913 . S
H6002 C6020 0.951 . S
H6003 C6022 0.951 . S
H6004 C6024 0.950 . S
H6005 C6025 0.950 . S
H6006 C6027 0.950 . S
H6007 C6030 0.950 . S
H6008 C6031 0.950 . S
H6009 C6033 0.950 . S
H6010 C6034 0.950 . S
H6011 C6035 0.951 . S
H6012 C6037 0.951 . S
H6013 C6039 0.950 . S
H6014 C6040 0.950 . S
H6015 C6042 0.950 . S
H6016 C6045 0.950 . S
H6017 C6046 0.950 . S
H6018 C6048 0.950 . S
H6019 C6049 0.950 . S
C6020 H6002 0.951 . S
C6020 C6021 1.366 . S
C6020 C6022 1.388 . S
C6021 C6020 1.366 . S
C6021 C6025 1.385 . S
C6022 H6003 0.951 . S
C6022 C6020 1.388 . S
C6022 C6023 1.366 . S
C6023 C6022 1.366 . S
C6023 C6024 1.414 . S
C6023 C6026 1.499 . S
C6024 H6004 0.950 . S
C6024 C6023 1.414 . S
C6024 C6025 1.374 . S
C6025 H6005 0.950 . S
C6025 C6021 1.385 . S
C6025 C6024 1.374 . S
C6026 C6023 1.499 . S
C6026 C6027 1.373 . S
C6026 C6028 1.389 . S
C6027 H6006 0.950 . S
C6027 C6026 1.373 . S
C6027 C6043 1.377 . S
C6028 C6026 1.389 . S
C6028 C6029 1.524 . S
C6028 C6042 1.377 . S
C6029 C6028 1.524 . S
C6029 C6030 1.397 . S
C6029 C6034 1.363 . S
C6030 H6007 0.950 . S
C6030 C6029 1.397 . S
C6030 C6031 1.334 . S
C6031 H6008 0.950 . S
C6031 C6030 1.334 . S
C6031 C6032 1.287 . S
C6032 C6031 1.287 . S
C6032 C6033 1.524 . S
C6032 H6051 0.913 . S
C6033 H6009 0.950 . S
C6033 C6032 1.524 . S
C6033 C6034 1.415 . S
C6034 H6010 0.950 . S
C6034 C6029 1.363 . S
C6034 C6033 1.415 . S
C6035 H6011 0.951 . S
C6035 C6036 1.366 . S
C6035 C6037 1.388 . S
C6036 C6035 1.366 . S
C6036 C6040 1.385 . S
C6037 H6012 0.951 . S
C6037 C6035 1.388 . S
C6037 C6038 1.366 . S
C6038 C6037 1.366 . S
C6038 C6039 1.414 . S
C6038 C6041 1.499 . S
C6039 H6013 0.950 . S
C6039 C6038 1.414 . S
C6039 C6040 1.374 . S
C6040 H6014 0.950 . S
C6040 C6036 1.385 . S
C6040 C6039 1.374 . S
C6041 C6038 1.499 . S
C6041 C6042 1.373 . S
C6041 C6043 1.389 . S
C6042 H6015 0.950 . S
C6042 C6028 1.377 . S
C6042 C6041 1.373 . S
C6043 C6027 1.377 . S
C6043 C6041 1.389 . S
C6043 C6044 1.524 . S
C6044 C6043 1.524 . S
C6044 C6045 1.397 . S
C6044 C6049 1.363 . S
C6045 H6016 0.950 . S
C6045 C6044 1.397 . S
C6045 C6046 1.334 . S
C6046 H6017 0.950 . S
C6046 C6045 1.334 . S
C6046 C6047 1.287 . S
C6047 C6046 1.287 . S
C6047 C6048 1.524 . S
C6047 H6050 0.999 . S
C6048 H6018 0.950 . S
C6048 C6047 1.524 . S
C6048 C6049 1.415 . S
C6049 H6019 0.950 . S
C6049 C6044 1.363 . S
C6049 C6048 1.415 . S
H6050 C6047 0.999 . S
H6051 C6032 0.913 . S
H6052 C6070 0.951 . S
H6053 C6072 0.951 . S
H6054 C6074 0.950 . S
H6055 C6075 0.950 . S
H6056 C6077 0.950 . S
H6057 C6080 0.950 . S
H6058 C6081 0.950 . S
H6059 C6083 0.950 . S
H6060 C6084 0.950 . S
H6061 C6085 0.951 . S
H6062 C6087 0.951 . S
H6063 C6089 0.950 . S
H6064 C6090 0.950 . S
H6065 C6092 0.950 . S
H6066 C6095 0.950 . S
H6067 C6096 0.950 . S
H6068 C6098 0.950 . S
H6069 C6099 0.950 . S
C6070 H6052 0.951 . S
C6070 C6071 1.366 . S
C6070 C6072 1.388 . S
C6071 C6070 1.366 . S
C6071 C6075 1.385 . S
C6072 H6053 0.951 . S
C6072 C6070 1.388 . S
C6072 C6073 1.366 . S
C6073 C6072 1.366 . S
C6073 C6074 1.414 . S
C6073 C6076 1.499 . S
C6074 H6054 0.950 . S
C6074 C6073 1.414 . S
C6074 C6075 1.374 . S
C6075 H6055 0.950 . S
C6075 C6071 1.385 . S
C6075 C6074 1.374 . S
C6076 C6073 1.499 . S
C6076 C6077 1.373 . S
C6076 C6078 1.389 . S
C6077 H6056 0.950 . S
C6077 C6076 1.373 . S
C6077 C6093 1.377 . S
C6078 C6076 1.389 . S
C6078 C6079 1.524 . S
C6078 C6092 1.377 . S
C6079 C6078 1.524 . S
C6079 C6080 1.397 . S
C6079 C6084 1.363 . S
C6080 H6057 0.950 . S
C6080 C6079 1.397 . S
C6080 C6081 1.334 . S
C6081 H6058 0.950 . S
C6081 C6080 1.334 . S
C6081 C6082 1.287 . S
C6082 C6081 1.287 . S
C6082 C6083 1.524 . S
C6082 H6101 0.913 . S
C6083 H6059 0.950 . S
C6083 C6082 1.524 . S
C6083 C6084 1.415 . S
C6084 H6060 0.950 . S
C6084 C6079 1.363 . S
C6084 C6083 1.415 . S
C6085 H6061 0.951 . S
C6085 C6086 1.366 . S
C6085 C6087 1.388 . S
C6086 C6085 1.366 . S
C6086 C6090 1.385 . S
C6087 H6062 0.951 . S
C6087 C6085 1.388 . S
C6087 C6088 1.366 . S
C6088 C6087 1.366 . S
C6088 C6089 1.414 . S
C6088 C6091 1.499 . S
C6089 H6063 0.950 . S
C6089 C6088 1.414 . S
C6089 C6090 1.374 . S
C6090 H6064 0.950 . S
C6090 C6086 1.385 . S
C6090 C6089 1.374 . S
C6091 C6088 1.499 . S
C6091 C6092 1.373 . S
C6091 C6093 1.389 . S
C6092 H6065 0.950 . S
C6092 C6078 1.377 . S
C6092 C6091 1.373 . S
C6093 C6077 1.377 . S
C6093 C6091 1.389 . S
C6093 C6094 1.524 . S
C6094 C6093 1.524 . S
C6094 C6095 1.397 . S
C6094 C6099 1.363 . S
C6095 H6066 0.950 . S
C6095 C6094 1.397 . S
C6095 C6096 1.334 . S
C6096 H6067 0.950 . S
C6096 C6095 1.334 . S
C6096 C6097 1.287 . S
C6097 C6096 1.287 . S
C6097 C6098 1.524 . S
C6097 H6100 0.999 . S
C6098 H6068 0.950 . S
C6098 C6097 1.524 . S
C6098 C6099 1.415 . S
C6099 H6069 0.950 . S
C6099 C6094 1.363 . S
C6099 C6098 1.415 . S
H6100 C6097 0.999 . S
H6101 C6082 0.913 . S
H6102 C6120 0.951 . S
H6103 C6122 0.951 . S
H6104 C6124 0.950 . S
H6105 C6125 0.950 . S
H6106 C6127 0.950 1_556 S
H6107 C6130 0.950 . S
H6108 C6131 0.950 . S
H6109 C6133 0.950 . S
H6110 C6134 0.950 . S
H6111 C6135 0.951 . S
H6112 C6137 0.951 . S
H6113 C6139 0.950 . S
H6114 C6140 0.950 . S
H6115 C6142 0.950 . S
H6116 C6145 0.950 1_565 S
H6117 C6146 0.950 . S
H6118 C6148 0.950 . S
H6119 C6149 0.950 1_554 S
C6120 H6102 0.951 . S
C6120 C6121 1.366 . S
C6120 C6122 1.388 . S
C6121 C6120 1.366 . S
C6121 C6125 1.385 . S
C6122 H6103 0.951 . S
C6122 C6120 1.388 . S
C6122 C6123 1.366 . S
C6123 C6122 1.366 . S
C6123 C6124 1.414 . S
C6123 C6126 1.499 . S
C6124 H6104 0.950 . S
C6124 C6123 1.414 . S
C6124 C6125 1.374 . S
C6125 H6105 0.950 . S
C6125 C6121 1.385 . S
C6125 C6124 1.374 . S
C6126 C6123 1.499 . S
C6126 C6127 1.373 . S
C6126 C6128 1.389 . S
C6127 H6106 0.950 1_554 S
C6127 C6126 1.373 . S
C6127 C6143 1.377 . S
C6128 C6126 1.389 . S
C6128 C6129 1.524 . S
C6128 C6142 1.377 . S
C6129 C6128 1.524 . S
C6129 C6130 1.397 . S
C6129 C6134 1.363 . S
C6130 H6107 0.950 . S
C6130 C6129 1.397 . S
C6130 C6131 1.334 . S
C6131 H6108 0.950 . S
C6131 C6130 1.334 . S
C6131 C6132 1.287 . S
C6132 C6131 1.287 . S
C6132 C6133 1.524 . S
C6132 H6151 0.913 . S
C6133 H6109 0.950 . S
C6133 C6132 1.524 . S
C6133 C6134 1.415 . S
C6134 H6110 0.950 . S
C6134 C6129 1.363 . S
C6134 C6133 1.415 . S
C6135 H6111 0.951 . S
C6135 C6136 1.366 . S
C6135 C6137 1.388 . S
C6136 C6135 1.366 . S
C6136 C6140 1.385 1_545 S
C6137 H6112 0.951 . S
C6137 C6135 1.388 . S
C6137 C6138 1.366 1_545 S
C6138 C6137 1.366 1_565 S
C6138 C6139 1.414 . S
C6138 C6141 1.499 . S
C6139 H6113 0.950 . S
C6139 C6138 1.414 . S
C6139 C6140 1.374 . S
C6140 H6114 0.950 . S
C6140 C6136 1.385 1_565 S
C6140 C6139 1.374 . S
C6141 C6138 1.499 . S
C6141 C6142 1.373 . S
C6141 C6143 1.389 . S
C6142 H6115 0.950 . S
C6142 C6128 1.377 . S
C6142 C6141 1.373 . S
C6143 C6127 1.377 . S
C6143 C6141 1.389 . S
C6143 C6144 1.524 1_564 S
C6144 C6143 1.524 1_546 S
C6144 C6145 1.397 . S
C6144 C6149 1.363 . S
C6145 H6116 0.950 1_545 S
C6145 C6144 1.397 . S
C6145 C6146 1.334 . S
C6146 H6117 0.950 . S
C6146 C6145 1.334 . S
C6146 C6147 1.287 . S
C6147 C6146 1.287 . S
C6147 C6148 1.524 . S
C6147 H6150 0.999 . S
C6148 H6118 0.950 . S
C6148 C6147 1.524 . S
C6148 C6149 1.415 . S
C6149 H6119 0.950 1_556 S
C6149 C6144 1.363 . S
C6149 C6148 1.415 . S
H6150 C6147 0.999 . S
H6151 C6132 0.913 . S
H6152 C6170 0.951 . S
H6153 C6172 0.951 . S
H6154 C6174 0.950 . S
H6155 C6175 0.950 . S
H6156 C6177 0.950 . S
H6157 C6180 0.950 . S
H6158 C6181 0.950 . S
H6159 C6183 0.950 . S
H6160 C6184 0.950 . S
H6161 C6185 0.951 . S
H6162 C6187 0.951 . S
H6163 C6189 0.950 . S
H6164 C6190 0.950 . S
H6165 C6192 0.950 . S
H6166 C6195 0.950 . S
H6167 C6196 0.950 . S
H6168 C6198 0.950 . S
H6169 C6199 0.950 . S
C6170 H6152 0.951 . S
C6170 C6171 1.366 . S
C6170 C6172 1.388 . S
C6171 C6170 1.366 . S
C6171 C6175 1.385 . S
C6172 H6153 0.951 . S
C6172 C6170 1.388 . S
C6172 C6173 1.366 . S
C6173 C6172 1.366 . S
C6173 C6174 1.414 . S
C6173 C6176 1.499 . S
C6174 H6154 0.950 . S
C6174 C6173 1.414 . S
C6174 C6175 1.374 . S
C6175 H6155 0.950 . S
C6175 C6171 1.385 . S
C6175 C6174 1.374 . S
C6176 C6173 1.499 . S
C6176 C6177 1.373 . S
C6176 C6178 1.389 . S
C6177 H6156 0.950 . S
C6177 C6176 1.373 . S
C6177 C6193 1.377 . S
C6178 C6176 1.389 . S
C6178 C6179 1.524 . S
C6178 C6192 1.377 . S
C6179 C6178 1.524 . S
C6179 C6180 1.397 . S
C6179 C6184 1.363 . S
C6180 H6157 0.950 . S
C6180 C6179 1.397 . S
C6180 C6181 1.334 . S
C6181 H6158 0.950 . S
C6181 C6180 1.334 . S
C6181 C6182 1.287 . S
C6182 C6181 1.287 . S
C6182 C6183 1.524 . S
C6182 H6201 0.913 . S
C6183 H6159 0.950 . S
C6183 C6182 1.524 . S
C6183 C6184 1.415 . S
C6184 H6160 0.950 . S
C6184 C6179 1.363 . S
C6184 C6183 1.415 . S
C6185 H6161 0.951 . S
C6185 C6186 1.366 . S
C6185 C6187 1.388 . S
C6186 C6185 1.366 . S
C6186 C6190 1.385 . S
C6187 H6162 0.951 . S
C6187 C6185 1.388 . S
C6187 C6188 1.366 . S
C6188 C6187 1.366 . S
C6188 C6189 1.414 . S
C6188 C6191 1.499 . S
C6189 H6163 0.950 . S
C6189 C6188 1.414 . S
C6189 C6190 1.374 . S
C6190 H6164 0.950 . S
C6190 C6186 1.385 . S
C6190 C6189 1.374 . S
C6191 C6188 1.499 . S
C6191 C6192 1.373 . S
C6191 C6193 1.389 . S
C6192 H6165 0.950 . S
C6192 C6178 1.377 . S
C6192 C6191 1.373 . S
C6193 C6177 1.377 . S
C6193 C6191 1.389 . S
C6193 C6194 1.524 . S
C6194 C6193 1.524 . S
C6194 C6195 1.397 . S
C6194 C6199 1.363 . S
C6195 H6166 0.950 . S
C6195 C6194 1.397 . S
C6195 C6196 1.334 . S
C6196 H6167 0.950 . S
C6196 C6195 1.334 . S
C6196 C6197 1.287 . S
C6197 C6196 1.287 . S
C6197 C6198 1.524 . S
C6197 H6200 0.999 . S
C6198 H6168 0.950 . S
C6198 C6197 1.524 . S
C6198 C6199 1.415 . S
C6199 H6169 0.950 . S
C6199 C6194 1.363 . S
C6199 C6198 1.415 . S
H6200 C6197 0.999 . S
H6201 C6182 0.913 . S
H6202 C6220 0.951 . S
H6203 C6222 0.951 . S
H6204 C6224 0.950 . S
H6205 C6225 0.950 . S
H6206 C6227 0.950 . S
H6207 C6230 0.950 . S
H6208 C6231 0.950 . S
H6209 C6233 0.950 . S
H6210 C6234 0.950 . S
H6211 C6235 0.951 . S
H6212 C6237 0.951 . S
H6213 C6239 0.950 . S
H6214 C6240 0.950 . S
H6215 C6242 0.950 . S
H6216 C6245 0.950 . S
H6217 C6246 0.950 . S
H6218 C6248 0.950 . S
H6219 C6249 0.950 . S
C6220 H6202 0.951 . S
C6220 C6221 1.366 . S
C6220 C6222 1.388 . S
C6221 C6220 1.366 . S
C6221 C6225 1.385 . S
C6222 H6203 0.951 . S
C6222 C6220 1.388 . S
C6222 C6223 1.366 . S
C6223 C6222 1.366 . S
C6223 C6224 1.414 . S
C6223 C6226 1.499 . S
C6224 H6204 0.950 . S
C6224 C6223 1.414 . S
C6224 C6225 1.374 . S
C6225 H6205 0.950 . S
C6225 C6221 1.385 . S
C6225 C6224 1.374 . S
C6226 C6223 1.499 . S
C6226 C6227 1.373 . S
C6226 C6228 1.389 . S
C6227 H6206 0.950 . S
C6227 C6226 1.373 . S
C6227 C6243 1.377 . S
C6228 C6226 1.389 . S
C6228 C6229 1.524 1_554 S
C6228 C6242 1.377 . S
C6229 C6228 1.524 1_556 S
C6229 C6230 1.397 . S
C6229 C6234 1.363 . S
C6230 H6207 0.950 . S
C6230 C6229 1.397 . S
C6230 C6231 1.334 . S
C6231 H6208 0.950 . S
C6231 C6230 1.334 . S
C6231 C6232 1.287 . S
C6232 C6231 1.287 . S
C6232 C6233 1.524 . S
C6232 H6251 0.913 . S
C6233 H6209 0.950 . S
C6233 C6232 1.524 . S
C6233 C6234 1.415 . S
C6234 H6210 0.950 . S
C6234 C6229 1.363 . S
C6234 C6233 1.415 . S
C6235 H6211 0.951 . S
C6235 C6236 1.366 . S
C6235 C6237 1.388 . S
C6236 C6235 1.366 . S
C6236 C6240 1.385 . S
C6237 H6212 0.951 . S
C6237 C6235 1.388 . S
C6237 C6238 1.366 . S
C6238 C6237 1.366 . S
C6238 C6239 1.414 . S
C6238 C6241 1.499 . S
C6239 H6213 0.950 . S
C6239 C6238 1.414 . S
C6239 C6240 1.374 . S
C6240 H6214 0.950 . S
C6240 C6236 1.385 . S
C6240 C6239 1.374 . S
C6241 C6238 1.499 . S
C6241 C6242 1.373 . S
C6241 C6243 1.389 . S
C6242 H6215 0.950 . S
C6242 C6228 1.377 . S
C6242 C6241 1.373 . S
C6243 C6227 1.377 . S
C6243 C6241 1.389 . S
C6243 C6244 1.524 . S
C6244 C6243 1.524 . S
C6244 C6245 1.397 . S
C6244 C6249 1.363 . S
C6245 H6216 0.950 . S
C6245 C6244 1.397 . S
C6245 C6246 1.334 . S
C6246 H6217 0.950 . S
C6246 C6245 1.334 . S
C6246 C6247 1.287 . S
C6247 C6246 1.287 . S
C6247 C6248 1.524 . S
C6247 H6250 0.999 . S
C6248 H6218 0.950 . S
C6248 C6247 1.524 . S
C6248 C6249 1.415 . S
C6249 H6219 0.950 . S
C6249 C6244 1.363 . S
C6249 C6248 1.415 . S
H6250 C6247 0.999 . S
H6251 C6232 0.913 . S
H6252 C6270 0.951 . S
H6253 C6272 0.951 . S
H6254 C6274 0.950 . S
H6255 C6275 0.950 . S
H6256 C6277 0.950 . S
H6257 C6280 0.950 . S
H6258 C6281 0.950 . S
H6259 C6283 0.950 . S
H6260 C6284 0.950 . S
H6261 C6285 0.951 . S
H6262 C6287 0.951 . S
H6263 C6289 0.950 . S
H6264 C6290 0.950 . S
H6265 C6292 0.950 . S
H6266 C6295 0.950 . S
H6267 C6296 0.950 . S
H6268 C6298 0.950 . S
H6269 C6299 0.950 . S
C6270 H6252 0.951 . S
C6270 C6271 1.366 . S
C6270 C6272 1.388 . S
C6271 C6270 1.366 . S
C6271 C6275 1.385 . S
C6272 H6253 0.951 . S
C6272 C6270 1.388 . S
C6272 C6273 1.366 . S
C6273 C6272 1.366 . S
C6273 C6274 1.414 . S
C6273 C6276 1.499 . S
C6274 H6254 0.950 . S
C6274 C6273 1.414 . S
C6274 C6275 1.374 . S
C6275 H6255 0.950 . S
C6275 C6271 1.385 . S
C6275 C6274 1.374 . S
C6276 C6273 1.499 . S
C6276 C6277 1.373 . S
C6276 C6278 1.389 . S
C6277 H6256 0.950 . S
C6277 C6276 1.373 . S
C6277 C6293 1.377 . S
C6278 C6276 1.389 . S
C6278 C6279 1.524 . S
C6278 C6292 1.377 . S
C6279 C6278 1.524 . S
C6279 C6280 1.397 . S
C6279 C6284 1.363 . S
C6280 H6257 0.950 . S
C6280 C6279 1.397 . S
C6280 C6281 1.334 . S
C6281 H6258 0.950 . S
C6281 C6280 1.334 . S
C6281 C6282 1.287 . S
C6282 C6281 1.287 . S
C6282 C6283 1.524 . S
C6282 H6301 0.913 . S
C6283 H6259 0.950 . S
C6283 C6282 1.524 . S
C6283 C6284 1.415 . S
C6284 H6260 0.950 . S
C6284 C6279 1.363 . S
C6284 C6283 1.415 . S
C6285 H6261 0.951 . S
C6285 C6286 1.366 . S
C6285 C6287 1.388 . S
C6286 C6285 1.366 . S
C6286 C6290 1.385 . S
C6287 H6262 0.951 . S
C6287 C6285 1.388 . S
C6287 C6288 1.366 . S
C6288 C6287 1.366 . S
C6288 C6289 1.414 . S
C6288 C6291 1.499 . S
C6289 H6263 0.950 . S
C6289 C6288 1.414 . S
C6289 C6290 1.374 . S
C6290 H6264 0.950 . S
C6290 C6286 1.385 . S
C6290 C6289 1.374 . S
C6291 C6288 1.499 . S
C6291 C6292 1.373 . S
C6291 C6293 1.389 . S
C6292 H6265 0.950 . S
C6292 C6278 1.377 . S
C6292 C6291 1.373 . S
C6293 C6277 1.377 . S
C6293 C6291 1.389 . S
C6293 C6294 1.524 . S
C6294 C6293 1.524 . S
C6294 C6295 1.397 . S
C6294 C6299 1.363 . S
C6295 H6266 0.950 . S
C6295 C6294 1.397 . S
C6295 C6296 1.334 . S
C6296 H6267 0.950 . S
C6296 C6295 1.334 . S
C6296 C6297 1.287 . S
C6297 C6296 1.287 . S
C6297 C6298 1.524 . S
C6297 H6300 0.999 . S
C6298 H6268 0.950 . S
C6298 C6297 1.524 . S
C6298 C6299 1.415 . S
C6299 H6269 0.950 . S
C6299 C6294 1.363 . S
C6299 C6298 1.415 . S
H6300 C6297 0.999 . S
H6301 C6282 0.913 . S
H6302 C6320 0.951 . S
H6303 C6322 0.951 . S
H6304 C6324 0.950 . S
H6305 C6325 0.950 . S
H6306 C6327 0.950 . S
H6307 C6330 0.950 . S
H6308 C6331 0.950 . S
H6309 C6333 0.950 . S
H6310 C6334 0.950 . S
H6311 C6335 0.951 . S
H6312 C6337 0.951 . S
H6313 C6339 0.950 . S
H6314 C6340 0.950 . S
H6315 C6342 0.950 . S
H6316 C6345 0.950 . S
H6317 C6346 0.950 . S
H6318 C6348 0.950 . S
H6319 C6349 0.950 . S
C6320 H6302 0.951 . S
C6320 C6321 1.366 . S
C6320 C6322 1.388 . S
C6321 C6320 1.366 . S
C6321 C6325 1.385 . S
C6322 H6303 0.951 . S
C6322 C6320 1.388 . S
C6322 C6323 1.366 . S
C6323 C6322 1.366 . S
C6323 C6324 1.414 . S
C6323 C6326 1.499 . S
C6324 H6304 0.950 . S
C6324 C6323 1.414 . S
C6324 C6325 1.374 . S
C6325 H6305 0.950 . S
C6325 C6321 1.385 . S
C6325 C6324 1.374 . S
C6326 C6323 1.499 . S
C6326 C6327 1.373 . S
C6326 C6328 1.389 . S
C6327 H6306 0.950 . S
C6327 C6326 1.373 . S
C6327 C6343 1.377 . S
C6328 C6326 1.389 . S
C6328 C6329 1.524 . S
C6328 C6342 1.377 . S
C6329 C6328 1.524 . S
C6329 C6330 1.397 . S
C6329 C6334 1.363 . S
C6330 H6307 0.950 . S
C6330 C6329 1.397 . S
C6330 C6331 1.334 . S
C6331 H6308 0.950 . S
C6331 C6330 1.334 . S
C6331 C6332 1.287 . S
C6332 C6331 1.287 . S
C6332 C6333 1.524 . S
C6332 H6351 0.913 . S
C6333 H6309 0.950 . S
C6333 C6332 1.524 . S
C6333 C6334 1.415 . S
C6334 H6310 0.950 . S
C6334 C6329 1.363 . S
C6334 C6333 1.415 . S
C6335 H6311 0.951 . S
C6335 C6336 1.366 . S
C6335 C6337 1.388 . S
C6336 C6335 1.366 . S
C6336 C6340 1.385 . S
C6337 H6312 0.951 . S
C6337 C6335 1.388 . S
C6337 C6338 1.366 . S
C6338 C6337 1.366 . S
C6338 C6339 1.414 . S
C6338 C6341 1.499 . S
C6339 H6313 0.950 . S
C6339 C6338 1.414 . S
C6339 C6340 1.374 . S
C6340 H6314 0.950 . S
C6340 C6336 1.385 . S
C6340 C6339 1.374 . S
C6341 C6338 1.499 . S
C6341 C6342 1.373 . S
C6341 C6343 1.389 . S
C6342 H6315 0.950 . S
C6342 C6328 1.377 . S
C6342 C6341 1.373 . S
C6343 C6327 1.377 . S
C6343 C6341 1.389 . S
C6343 C6344 1.524 . S
C6344 C6343 1.524 . S
C6344 C6345 1.397 . S
C6344 C6349 1.363 . S
C6345 H6316 0.950 . S
C6345 C6344 1.397 . S
C6345 C6346 1.334 . S
C6346 H6317 0.950 . S
C6346 C6345 1.334 . S
C6346 C6347 1.287 . S
C6347 C6346 1.287 . S
C6347 C6348 1.524 . S
C6347 H6350 0.999 . S
C6348 H6318 0.950 . S
C6348 C6347 1.524 . S
C6348 C6349 1.415 . S
C6349 H6319 0.950 . S
C6349 C6344 1.363 . S
C6349 C6348 1.415 . S
H6350 C6347 0.999 . S
H6351 C6332 0.913 . S
H6352 C6370 0.951 . S
H6353 C6372 0.951 . S
H6354 C6374 0.950 . S
H6355 C6375 0.950 . S
H6356 C6377 0.950 . S
H6357 C6380 0.950 . S
H6358 C6381 0.950 . S
H6359 C6383 0.950 . S
H6360 C6384 0.950 . S
H6361 C6385 0.951 . S
H6362 C6387 0.951 . S
H6363 C6389 0.950 . S
H6364 C6390 0.950 . S
H6365 C6392 0.950 . S
H6366 C6395 0.950 . S
H6367 C6396 0.950 . S
H6368 C6398 0.950 . S
H6369 C6399 0.950 . S
C6370 H6352 0.951 . S
C6370 C6371 1.366 . S
C6370 C6372 1.388 . S
C6371 C6370 1.366 . S
C6371 C6375 1.385 . S
C6372 H6353 0.951 . S
C6372 C6370 1.388 . S
C6372 C6373 1.366 . S
C6373 C6372 1.366 . S
C6373 C6374 1.414 . S
C6373 C6376 1.499 . S
C6374 H6354 0.950 . S
C6374 C6373 1.414 . S
C6374 C6375 1.374 . S
C6375 H6355 0.950 . S
C6375 C6371 1.385 . S
C6375 C6374 1.374 . S
C6376 C6373 1.499 . S
C6376 C6377 1.373 . S
C6376 C6378 1.389 . S
C6377 H6356 0.950 . S
C6377 C6376 1.373 . S
C6377 C6393 1.377 . S
C6378 C6376 1.389 . S
C6378 C6379 1.524 . S
C6378 C6392 1.377 . S
C6379 C6378 1.524 . S
C6379 C6380 1.397 . S
C6379 C6384 1.363 . S
C6380 H6357 0.950 . S
C6380 C6379 1.397 . S
C6380 C6381 1.334 . S
C6381 H6358 0.950 . S
C6381 C6380 1.334 . S
C6381 C6382 1.287 . S
C6382 C6381 1.287 . S
C6382 C6383 1.524 . S
C6382 H6401 0.913 . S
C6383 H6359 0.950 . S
C6383 C6382 1.524 . S
C6383 C6384 1.415 . S
C6384 H6360 0.950 . S
C6384 C6379 1.363 . S
C6384 C6383 1.415 . S
C6385 H6361 0.951 . S
C6385 C6386 1.366 . S
C6385 C6387 1.388 . S
C6386 C6385 1.366 . S
C6386 C6390 1.385 . S
C6387 H6362 0.951 . S
C6387 C6385 1.388 . S
C6387 C6388 1.366 . S
C6388 C6387 1.366 . S
C6388 C6389 1.414 . S
C6388 C6391 1.499 . S
C6389 H6363 0.950 . S
C6389 C6388 1.414 . S
C6389 C6390 1.374 . S
C6390 H6364 0.950 . S
C6390 C6386 1.385 . S
C6390 C6389 1.374 . S
C6391 C6388 1.499 . S
C6391 C6392 1.373 . S
C6391 C6393 1.389 . S
C6392 H6365 0.950 . S
C6392 C6378 1.377 . S
C6392 C6391 1.373 . S
C6393 C6377 1.377 . S
C6393 C6391 1.389 . S
C6393 C6394 1.524 . S
C6394 C6393 1.524 . S
C6394 C6395 1.397 . S
C6394 C6399 1.363 . S
C6395 H6366 0.950 . S
C6395 C6394 1.397 . S
C6395 C6396 1.334 . S
C6396 H6367 0.950 . S
C6396 C6395 1.334 . S
C6396 C6397 1.287 . S
C6397 C6396 1.287 . S
C6397 C6398 1.524 . S
C6397 H6400 0.999 . S
C6398 H6368 0.950 . S
C6398 C6397 1.524 . S
C6398 C6399 1.415 . S
C6399 H6369 0.950 . S
C6399 C6394 1.363 . S
C6399 C6398 1.415 . S
H6400 C6397 0.999 . S
H6401 C6382 0.913 . S
H6402 C6420 0.951 . S
H6403 C6422 0.951 . S
H6404 C6424 0.950 . S
H6405 C6425 0.950 . S
H6406 C6427 0.950 . S
H6407 C6430 0.950 . S
H6408 C6431 0.950 . S
H6409 C6433 0.950 . S
H6410 C6434 0.950 . S
H6411 C6435 0.951 . S
H6412 C6437 0.951 . S
H6413 C6439 0.950 . S
H6414 C6440 0.950 . S
H6415 C6442 0.950 . S
H6416 C6445 0.950 . S
H6417 C6446 0.950 . S
H6418 C6448 0.950 . S
H6419 C6449 0.950 . S
C6420 H6402 0.951 . S
C6420 C6421 1.366 . S
C6420 C6422 1.388 . S
C6421 C6420 1.366 . S
C6421 C6425 1.385 . S
C6422 H6403 0.951 . S
C6422 C6420 1.388 . S
C6422 C6423 1.366 . S
C6423 C6422 1.366 . S
C6423 C6424 1.414 . S
C6423 C6426 1.499 . S
C6424 H6404 0.950 . S
C6424 C6423 1.414 . S
C6424 C6425 1.374 . S
C6425 H6405 0.950 . S
C6425 C6421 1.385 . S
C6425 C6424 1.374 . S
C6426 C6423 1.499 . S
C6426 C6427 1.373 . S
C6426 C6428 1.389 . S
C6427 H6406 0.950 . S
C6427 C6426 1.373 . S
C6427 C6443 1.377 . S
C6428 C6426 1.389 . S
C6428 C6429 1.524 . S
C6428 C6442 1.377 . S
C6429 C6428 1.524 . S
C6429 C6430 1.397 . S
C6429 C6434 1.363 . S
C6430 H6407 0.950 . S
C6430 C6429 1.397 . S
C6430 C6431 1.334 . S
C6431 H6408 0.950 . S
C6431 C6430 1.334 . S
C6431 C6432 1.287 . S
C6432 C6431 1.287 . S
C6432 C6433 1.524 . S
C6432 H6451 0.913 . S
C6433 H6409 0.950 . S
C6433 C6432 1.524 . S
C6433 C6434 1.415 . S
C6434 H6410 0.950 . S
C6434 C6429 1.363 . S
C6434 C6433 1.415 . S
C6435 H6411 0.951 . S
C6435 C6436 1.366 . S
C6435 C6437 1.388 . S
C6436 C6435 1.366 . S
C6436 C6440 1.385 . S
C6437 H6412 0.951 . S
C6437 C6435 1.388 . S
C6437 C6438 1.366 . S
C6438 C6437 1.366 . S
C6438 C6439 1.414 . S
C6438 C6441 1.499 . S
C6439 H6413 0.950 . S
C6439 C6438 1.414 . S
C6439 C6440 1.374 . S
C6440 H6414 0.950 . S
C6440 C6436 1.385 . S
C6440 C6439 1.374 . S
C6441 C6438 1.499 . S
C6441 C6442 1.373 . S
C6441 C6443 1.389 . S
C6442 H6415 0.950 . S
C6442 C6428 1.377 . S
C6442 C6441 1.373 . S
C6443 C6427 1.377 . S
C6443 C6441 1.389 . S
C6443 C6444 1.524 . S
C6444 C6443 1.524 . S
C6444 C6445 1.397 . S
C6444 C6449 1.363 . S
C6445 H6416 0.950 . S
C6445 C6444 1.397 . S
C6445 C6446 1.334 . S
C6446 H6417 0.950 . S
C6446 C6445 1.334 . S
C6446 C6447 1.287 . S
C6447 C6446 1.287 . S
C6447 C6448 1.524 . S
C6447 H6450 0.999 . S
C6448 H6418 0.950 . S
C6448 C6447 1.524 . S
C6448 C6449 1.415 . S
C6449 H6419 0.950 . S
C6449 C6444 1.363 . S
C6449 C6448 1.415 . S
H6450 C6447 0.999 . S
H6451 C6432 0.913 . S
H6452 C6470 0.951 . S
H6453 C6472 0.951 . S
H6454 C6474 0.950 . S
H6455 C6475 0.950 . S
H6456 C6477 0.950 . S
H6457 C6480 0.950 . S
H6458 C6481 0.950 . S
H6459 C6483 0.950 . S
H6460 C6484 0.950 . S
H6461 C6485 0.951 . S
H6462 C6487 0.951 . S
H6463 C6489 0.950 . S
H6464 C6490 0.950 . S
H6465 C6492 0.950 . S
H6466 C6495 0.950 . S
H6467 C6496 0.950 . S
H6468 C6498 0.950 . S
H6469 C6499 0.950 . S
C6470 H6452 0.951 . S
C6470 C6471 1.366 . S
C6470 C6472 1.388 . S
C6471 C6470 1.366 . S
C6471 C6475 1.385 . S
C6472 H6453 0.951 . S
C6472 C6470 1.388 . S
C6472 C6473 1.366 . S
C6473 C6472 1.366 . S
C6473 C6474 1.414 . S
C6473 C6476 1.499 . S
C6474 H6454 0.950 . S
C6474 C6473 1.414 . S
C6474 C6475 1.374 . S
C6475 H6455 0.950 . S
C6475 C6471 1.385 . S
C6475 C6474 1.374 . S
C6476 C6473 1.499 . S
C6476 C6477 1.373 . S
C6476 C6478 1.389 . S
C6477 H6456 0.950 . S
C6477 C6476 1.373 . S
C6477 C6493 1.377 . S
C6478 C6476 1.389 . S
C6478 C6479 1.524 . S
C6478 C6492 1.377 . S
C6479 C6478 1.524 . S
C6479 C6480 1.397 . S
C6479 C6484 1.363 . S
C6480 H6457 0.950 . S
C6480 C6479 1.397 . S
C6480 C6481 1.334 1_554 S
C6481 H6458 0.950 . S
C6481 C6480 1.334 1_556 S
C6481 C6482 1.287 . S
C6482 C6481 1.287 . S
C6482 C6483 1.524 . S
C6482 H6501 0.913 . S
C6483 H6459 0.950 . S
C6483 C6482 1.524 . S
C6483 C6484 1.415 1_556 S
C6484 H6460 0.950 . S
C6484 C6479 1.363 . S
C6484 C6483 1.415 1_554 S
C6485 H6461 0.951 . S
C6485 C6486 1.366 . S
C6485 C6487 1.388 . S
C6486 C6485 1.366 . S
C6486 C6490 1.385 . S
C6487 H6462 0.951 . S
C6487 C6485 1.388 . S
C6487 C6488 1.366 . S
C6488 C6487 1.366 . S
C6488 C6489 1.414 . S
C6488 C6491 1.499 . S
C6489 H6463 0.950 . S
C6489 C6488 1.414 . S
C6489 C6490 1.374 . S
C6490 H6464 0.950 . S
C6490 C6486 1.385 . S
C6490 C6489 1.374 . S
C6491 C6488 1.499 . S
C6491 C6492 1.373 . S
C6491 C6493 1.389 . S
C6492 H6465 0.950 . S
C6492 C6478 1.377 . S
C6492 C6491 1.373 . S
C6493 C6477 1.377 . S
C6493 C6491 1.389 . S
C6493 C6494 1.524 . S
C6494 C6493 1.524 . S
C6494 C6495 1.397 . S
C6494 C6499 1.363 1_455 S
C6495 H6466 0.950 . S
C6495 C6494 1.397 . S
C6495 C6496 1.334 . S
C6496 H6467 0.950 . S
C6496 C6495 1.334 . S
C6496 C6497 1.287 1_455 S
C6497 C6496 1.287 1_655 S
C6497 C6498 1.524 . S
C6497 H6500 0.999 . S
C6498 H6468 0.950 . S
C6498 C6497 1.524 . S
C6498 C6499 1.415 . S
C6499 H6469 0.950 . S
C6499 C6494 1.363 1_655 S
C6499 C6498 1.415 . S
H6500 C6497 0.999 . S
H6501 C6482 0.913 . S
H6502 C6520 0.951 . S
H6503 C6522 0.951 . S
H6504 C6524 0.950 . S
H6505 C6525 0.950 . S
H6506 C6527 0.950 . S
H6507 C6530 0.950 . S
H6508 C6531 0.950 . S
H6509 C6533 0.950 . S
H6510 C6534 0.950 . S
H6511 C6535 0.951 . S
H6512 C6537 0.951 . S
H6513 C6539 0.950 . S
H6514 C6540 0.950 . S
H6515 C6542 0.950 . S
H6516 C6545 0.950 . S
H6517 C6546 0.950 . S
H6518 C6548 0.950 . S
H6519 C6549 0.950 . S
C6520 H6502 0.951 . S
C6520 C6521 1.366 . S
C6520 C6522 1.388 . S
C6521 C6520 1.366 . S
C6521 C6525 1.385 . S
C6522 H6503 0.951 . S
C6522 C6520 1.388 . S
C6522 C6523 1.366 . S
C6523 C6522 1.366 . S
C6523 C6524 1.414 . S
C6523 C6526 1.499 . S
C6524 H6504 0.950 . S
C6524 C6523 1.414 . S
C6524 C6525 1.374 . S
C6525 H6505 0.950 . S
C6525 C6521 1.385 . S
C6525 C6524 1.374 . S
C6526 C6523 1.499 . S
C6526 C6527 1.373 . S
C6526 C6528 1.389 . S
C6527 H6506 0.950 . S
C6527 C6526 1.373 . S
C6527 C6543 1.377 . S
C6528 C6526 1.389 . S
C6528 C6529 1.524 . S
C6528 C6542 1.377 . S
C6529 C6528 1.524 . S
C6529 C6530 1.397 . S
C6529 C6534 1.363 . S
C6530 H6507 0.950 . S
C6530 C6529 1.397 . S
C6530 C6531 1.334 . S
C6531 H6508 0.950 . S
C6531 C6530 1.334 . S
C6531 C6532 1.287 . S
C6532 C6531 1.287 . S
C6532 C6533 1.524 . S
C6532 H6551 0.913 . S
C6533 H6509 0.950 . S
C6533 C6532 1.524 . S
C6533 C6534 1.415 . S
C6534 H6510 0.950 . S
C6534 C6529 1.363 . S
C6534 C6533 1.415 . S
C6535 H6511 0.951 . S
C6535 C6536 1.366 . S
C6535 C6537 1.388 . S
C6536 C6535 1.366 . S
C6536 C6540 1.385 . S
C6537 H6512 0.951 . S
C6537 C6535 1.388 . S
C6537 C6538 1.366 . S
C6538 C6537 1.366 . S
C6538 C6539 1.414 . S
C6538 C6541 1.499 . S
C6539 H6513 0.950 . S
C6539 C6538 1.414 . S
C6539 C6540 1.374 . S
C6540 H6514 0.950 . S
C6540 C6536 1.385 . S
C6540 C6539 1.374 . S
C6541 C6538 1.499 . S
C6541 C6542 1.373 . S
C6541 C6543 1.389 . S
C6542 H6515 0.950 . S
C6542 C6528 1.377 . S
C6542 C6541 1.373 . S
C6543 C6527 1.377 . S
C6543 C6541 1.389 . S
C6543 C6544 1.524 . S
C6544 C6543 1.524 . S
C6544 C6545 1.397 . S
C6544 C6549 1.363 . S
C6545 H6516 0.950 . S
C6545 C6544 1.397 . S
C6545 C6546 1.334 . S
C6546 H6517 0.950 . S
C6546 C6545 1.334 . S
C6546 C6547 1.287 . S
C6547 C6546 1.287 . S
C6547 C6548 1.524 . S
C6547 H6550 0.999 . S
C6548 H6518 0.950 . S
C6548 C6547 1.524 . S
C6548 C6549 1.415 . S
C6549 H6519 0.950 . S
C6549 C6544 1.363 . S
C6549 C6548 1.415 . S
H6550 C6547 0.999 . S
H6551 C6532 0.913 . S
H6552 C6570 0.951 . S
H6553 C6572 0.951 . S
H6554 C6574 0.950 . S
H6555 C6575 0.950 . S
H6556 C6577 0.950 . S
H6557 C6580 0.950 . S
H6558 C6581 0.950 . S
H6559 C6583 0.950 . S
H6560 C6584 0.950 . S
H6561 C6585 0.951 . S
H6562 C6587 0.951 . S
H6563 C6589 0.950 . S
H6564 C6590 0.950 . S
H6565 C6592 0.950 . S
H6566 C6595 0.950 . S
H6567 C6596 0.950 . S
H6568 C6598 0.950 . S
H6569 C6599 0.950 . S
C6570 H6552 0.951 . S
C6570 C6571 1.366 . S
C6570 C6572 1.388 . S
C6571 C6570 1.366 . S
C6571 C6575 1.385 . S
C6572 H6553 0.951 . S
C6572 C6570 1.388 . S
C6572 C6573 1.366 . S
C6573 C6572 1.366 . S
C6573 C6574 1.414 . S
C6573 C6576 1.499 . S
C6574 H6554 0.950 . S
C6574 C6573 1.414 . S
C6574 C6575 1.374 . S
C6575 H6555 0.950 . S
C6575 C6571 1.385 . S
C6575 C6574 1.374 . S
C6576 C6573 1.499 . S
C6576 C6577 1.373 . S
C6576 C6578 1.389 . S
C6577 H6556 0.950 . S
C6577 C6576 1.373 . S
C6577 C6593 1.377 . S
C6578 C6576 1.389 . S
C6578 C6579 1.524 . S
C6578 C6592 1.377 . S
C6579 C6578 1.524 . S
C6579 C6580 1.397 . S
C6579 C6584 1.363 . S
C6580 H6557 0.950 . S
C6580 C6579 1.397 . S
C6580 C6581 1.334 . S
C6581 H6558 0.950 . S
C6581 C6580 1.334 . S
C6581 C6582 1.287 . S
C6582 C6581 1.287 . S
C6582 C6583 1.524 . S
C6582 H6601 0.913 . S
C6583 H6559 0.950 . S
C6583 C6582 1.524 . S
C6583 C6584 1.415 . S
C6584 H6560 0.950 . S
C6584 C6579 1.363 . S
C6584 C6583 1.415 . S
C6585 H6561 0.951 . S
C6585 C6586 1.366 . S
C6585 C6587 1.388 . S
C6586 C6585 1.366 . S
C6586 C6590 1.385 . S
C6587 H6562 0.951 . S
C6587 C6585 1.388 . S
C6587 C6588 1.366 . S
C6588 C6587 1.366 . S
C6588 C6589 1.414 . S
C6588 C6591 1.499 . S
C6589 H6563 0.950 . S
C6589 C6588 1.414 . S
C6589 C6590 1.374 . S
C6590 H6564 0.950 . S
C6590 C6586 1.385 . S
C6590 C6589 1.374 . S
C6591 C6588 1.499 . S
C6591 C6592 1.373 . S
C6591 C6593 1.389 . S
C6592 H6565 0.950 . S
C6592 C6578 1.377 . S
C6592 C6591 1.373 . S
C6593 C6577 1.377 . S
C6593 C6591 1.389 . S
C6593 C6594 1.524 . S
C6594 C6593 1.524 . S
C6594 C6595 1.397 . S
C6594 C6599 1.363 . S
C6595 H6566 0.950 . S
C6595 C6594 1.397 . S
C6595 C6596 1.334 . S
C6596 H6567 0.950 . S
C6596 C6595 1.334 . S
C6596 C6597 1.287 . S
C6597 C6596 1.287 . S
C6597 C6598 1.524 . S
C6597 H6600 0.999 . S
C6598 H6568 0.950 . S
C6598 C6597 1.524 . S
C6598 C6599 1.415 . S
C6599 H6569 0.950 . S
C6599 C6594 1.363 . S
C6599 C6598 1.415 . S
H6600 C6597 0.999 . S
H6601 C6582 0.913 . S
H6602 C6620 0.951 . S
H6603 C6622 0.951 . S
H6604 C6624 0.950 . S
H6605 C6625 0.950 . S
H6606 C6627 0.950 . S
H6607 C6630 0.950 . S
H6608 C6631 0.950 . S
H6609 C6633 0.950 . S
H6610 C6634 0.950 . S
H6611 C6635 0.951 . S
H6612 C6637 0.951 . S
H6613 C6639 0.950 . S
H6614 C6640 0.950 . S
H6615 C6642 0.950 . S
H6616 C6645 0.950 . S
H6617 C6646 0.950 . S
H6618 C6648 0.950 . S
H6619 C6649 0.950 . S
C6620 H6602 0.951 . S
C6620 C6621 1.366 . S
C6620 C6622 1.388 . S
C6621 C6620 1.366 . S
C6621 C6625 1.385 . S
C6622 H6603 0.951 . S
C6622 C6620 1.388 . S
C6622 C6623 1.366 . S
C6623 C6622 1.366 . S
C6623 C6624 1.414 . S
C6623 C6626 1.499 . S
C6624 H6604 0.950 . S
C6624 C6623 1.414 . S
C6624 C6625 1.374 . S
C6625 H6605 0.950 . S
C6625 C6621 1.385 . S
C6625 C6624 1.374 . S
C6626 C6623 1.499 . S
C6626 C6627 1.373 . S
C6626 C6628 1.389 . S
C6627 H6606 0.950 . S
C6627 C6626 1.373 . S
C6627 C6643 1.377 . S
C6628 C6626 1.389 . S
C6628 C6629 1.524 . S
C6628 C6642 1.377 . S
C6629 C6628 1.524 . S
C6629 C6630 1.397 . S
C6629 C6634 1.363 . S
C6630 H6607 0.950 . S
C6630 C6629 1.397 . S
C6630 C6631 1.334 . S
C6631 H6608 0.950 . S
C6631 C6630 1.334 . S
C6631 C6632 1.287 . S
C6632 C6631 1.287 . S
C6632 C6633 1.524 . S
C6632 H6651 0.913 . S
C6633 H6609 0.950 . S
C6633 C6632 1.524 . S
C6633 C6634 1.415 . S
C6634 H6610 0.950 . S
C6634 C6629 1.363 . S
C6634 C6633 1.415 . S
C6635 H6611 0.951 . S
C6635 C6636 1.366 . S
C6635 C6637 1.388 . S
C6636 C6635 1.366 . S
C6636 C6640 1.385 . S
C6637 H6612 0.951 . S
C6637 C6635 1.388 . S
C6637 C6638 1.366 . S
C6638 C6637 1.366 . S
C6638 C6639 1.414 . S
C6638 C6641 1.499 . S
C6639 H6613 0.950 . S
C6639 C6638 1.414 . S
C6639 C6640 1.374 . S
C6640 H6614 0.950 . S
C6640 C6636 1.385 . S
C6640 C6639 1.374 . S
C6641 C6638 1.499 . S
C6641 C6642 1.373 . S
C6641 C6643 1.389 . S
C6642 H6615 0.950 . S
C6642 C6628 1.377 . S
C6642 C6641 1.373 . S
C6643 C6627 1.377 . S
C6643 C6641 1.389 . S
C6643 C6644 1.524 . S
C6644 C6643 1.524 . S
C6644 C6645 1.397 . S
C6644 C6649 1.363 . S
C6645 H6616 0.950 . S
C6645 C6644 1.397 . S
C6645 C6646 1.334 . S
C6646 H6617 0.950 . S
C6646 C6645 1.334 . S
C6646 C6647 1.287 . S
C6647 C6646 1.287 . S
C6647 C6648 1.524 . S
C6647 H6650 0.999 . S
C6648 H6618 0.950 . S
C6648 C6647 1.524 . S
C6648 C6649 1.415 . S
C6649 H6619 0.950 . S
C6649 C6644 1.363 . S
C6649 C6648 1.415 . S
H6650 C6647 0.999 . S
H6651 C6632 0.913 . S
H6652 C6670 0.951 . S
H6653 C6672 0.951 . S
H6654 C6674 0.950 . S
H6655 C6675 0.950 . S
H6656 C6677 0.950 . S
H6657 C6680 0.950 . S
H6658 C6681 0.950 . S
H6659 C6683 0.950 . S
H6660 C6684 0.950 . S
H6661 C6685 0.951 . S
H6662 C6687 0.951 . S
H6663 C6689 0.950 . S
H6664 C6690 0.950 . S
H6665 C6692 0.950 . S
H6666 C6695 0.958 . S
H6667 C6696 0.950 . S
H6668 C6698 0.950 . S
H6669 C6699 0.950 . S
C6670 H6652 0.951 . S
C6670 C6671 1.366 . S
C6670 C6672 1.388 . S
C6671 C6670 1.366 . S
C6671 C6675 1.385 . S
C6672 H6653 0.951 . S
C6672 C6670 1.388 . S
C6672 C6673 1.366 . S
C6673 C6672 1.366 . S
C6673 C6674 1.414 . S
C6673 C6676 1.499 . S
C6674 H6654 0.950 . S
C6674 C6673 1.414 . S
C6674 C6675 1.374 . S
C6675 H6655 0.950 . S
C6675 C6671 1.385 . S
C6675 C6674 1.374 . S
C6676 C6673 1.499 . S
C6676 C6677 1.373 . S
C6676 C6678 1.389 . S
C6677 H6656 0.950 . S
C6677 C6676 1.373 . S
C6677 C6693 1.377 . S
C6678 C6676 1.389 . S
C6678 C6679 1.524 . S
C6678 C6692 1.377 . S
C6679 C6678 1.524 . S
C6679 C6680 1.397 . S
C6679 C6684 1.363 . S
C6680 H6657 0.950 . S
C6680 C6679 1.397 . S
C6680 C6681 1.334 . S
C6681 H6658 0.950 . S
C6681 C6680 1.334 . S
C6681 C6682 1.287 . S
C6682 C6681 1.287 . S
C6682 C6683 1.524 . S
C6682 H6701 0.913 . S
C6683 H6659 0.950 . S
C6683 C6682 1.524 . S
C6683 C6684 1.415 . S
C6684 H6660 0.950 . S
C6684 C6679 1.363 . S
C6684 C6683 1.415 . S
C6685 H6661 0.951 . S
C6685 C6686 1.366 . S
C6685 C6687 1.388 . S
C6686 C6685 1.366 . S
C6686 C6690 1.385 . S
C6687 H6662 0.951 . S
C6687 C6685 1.388 . S
C6687 C6688 1.366 . S
C6688 C6687 1.366 . S
C6688 C6689 1.414 . S
C6688 C6691 1.499 . S
C6689 H6663 0.950 . S
C6689 C6688 1.414 . S
C6689 C6690 1.374 . S
C6690 H6664 0.950 . S
C6690 C6686 1.385 . S
C6690 C6689 1.374 . S
C6691 C6688 1.499 . S
C6691 C6692 1.373 . S
C6691 C6693 1.389 . S
C6692 H6665 0.950 . S
C6692 C6678 1.377 . S
C6692 C6691 1.373 . S
C6693 C6677 1.377 . S
C6693 C6691 1.389 . S
C6693 C6694 1.546 . S
C6694 C6693 1.546 . S
C6694 C6695 1.384 1_455 S
C6694 C6699 1.355 1_455 S
C6695 H6666 0.958 . S
C6695 C6694 1.384 1_655 S
C6695 C6696 1.334 . S
C6696 H6667 0.950 . S
C6696 C6695 1.334 . S
C6696 C6697 1.287 . S
C6697 C6696 1.287 . S
C6697 C6698 1.524 . S
C6697 H6700 0.999 . S
C6698 H6668 0.950 . S
C6698 C6697 1.524 . S
C6698 C6699 1.415 . S
C6699 H6669 0.950 . S
C6699 C6694 1.355 1_655 S
C6699 C6698 1.415 . S
H6700 C6697 0.999 . S
H6701 C6682 0.913 . S
H6702 C6720 0.951 . S
H6703 C6722 0.951 . S
H6704 C6724 0.950 . S
H6705 C6725 0.950 . S
H6706 C6727 0.950 . S
H6707 C6730 0.950 . S
H6708 C6731 0.950 . S
H6709 C6733 0.950 . S
H6710 C6734 0.950 . S
H6711 C6735 0.951 . S
H6712 C6737 0.951 . S
H6713 C6739 0.950 . S
H6714 C6740 0.950 . S
H6715 C6742 0.950 . S
H6716 C6745 0.950 . S
H6717 C6746 0.950 . S
H6718 C6748 0.950 . S
H6719 C6749 0.950 . S
C6720 H6702 0.951 . S
C6720 C6721 1.366 . S
C6720 C6722 1.388 . S
C6721 C6720 1.366 . S
C6721 C6725 1.385 . S
C6722 H6703 0.951 . S
C6722 C6720 1.388 . S
C6722 C6723 1.366 . S
C6723 C6722 1.366 . S
C6723 C6724 1.414 . S
C6723 C6726 1.499 . S
C6724 H6704 0.950 . S
C6724 C6723 1.414 . S
C6724 C6725 1.374 . S
C6725 H6705 0.950 . S
C6725 C6721 1.385 . S
C6725 C6724 1.374 . S
C6726 C6723 1.499 . S
C6726 C6727 1.373 . S
C6726 C6728 1.389 . S
C6727 H6706 0.950 . S
C6727 C6726 1.373 . S
C6727 C6743 1.377 . S
C6728 C6726 1.389 . S
C6728 C6729 1.524 . S
C6728 C6742 1.377 . S
C6729 C6728 1.524 . S
C6729 C6730 1.397 . S
C6729 C6734 1.363 . S
C6730 H6707 0.950 . S
C6730 C6729 1.397 . S
C6730 C6731 1.334 . S
C6731 H6708 0.950 . S
C6731 C6730 1.334 . S
C6731 C6732 1.287 . S
C6732 C6731 1.287 . S
C6732 C6733 1.524 . S
C6732 H6751 0.913 . S
C6733 H6709 0.950 . S
C6733 C6732 1.524 . S
C6733 C6734 1.415 . S
C6734 H6710 0.950 . S
C6734 C6729 1.363 . S
C6734 C6733 1.415 . S
C6735 H6711 0.951 . S
C6735 C6736 1.366 . S
C6735 C6737 1.388 . S
C6736 C6735 1.366 . S
C6736 C6740 1.385 . S
C6737 H6712 0.951 . S
C6737 C6735 1.388 . S
C6737 C6738 1.366 . S
C6738 C6737 1.366 . S
C6738 C6739 1.414 . S
C6738 C6741 1.499 . S
C6739 H6713 0.950 . S
C6739 C6738 1.414 . S
C6739 C6740 1.374 . S
C6740 H6714 0.950 . S
C6740 C6736 1.385 . S
C6740 C6739 1.374 . S
C6741 C6738 1.499 . S
C6741 C6742 1.373 . S
C6741 C6743 1.389 . S
C6742 H6715 0.950 . S
C6742 C6728 1.377 . S
C6742 C6741 1.373 . S
C6743 C6727 1.377 . S
C6743 C6741 1.389 . S
C6743 C6744 1.524 . S
C6744 C6743 1.524 . S
C6744 C6745 1.397 . S
C6744 C6749 1.363 . S
C6745 H6716 0.950 . S
C6745 C6744 1.397 . S
C6745 C6746 1.334 . S
C6746 H6717 0.950 . S
C6746 C6745 1.334 . S
C6746 C6747 1.287 . S
C6747 C6746 1.287 . S
C6747 C6748 1.524 . S
C6747 H6750 0.999 . S
C6748 H6718 0.950 . S
C6748 C6747 1.524 . S
C6748 C6749 1.415 . S
C6749 H6719 0.950 . S
C6749 C6744 1.363 . S
C6749 C6748 1.415 . S
H6750 C6747 0.999 . S
H6751 C6732 0.913 . S
H6752 C6770 0.951 . S
H6753 C6772 0.951 . S
H6754 C6774 0.950 . S
H6755 C6775 0.950 . S
H6756 C6777 0.950 . S
H6757 C6780 0.950 . S
H6758 C6781 0.950 . S
H6759 C6783 0.950 . S
H6760 C6784 0.950 . S
H6761 C6785 0.951 . S
H6762 C6787 0.951 . S
H6763 C6789 0.950 . S
H6764 C6790 0.950 . S
H6765 C6792 0.950 . S
H6766 C6795 0.950 . S
H6767 C6796 0.950 . S
H6768 C6798 0.950 . S
H6769 C6799 0.950 . S
C6770 H6752 0.951 . S
C6770 C6771 1.366 . S
C6770 C6772 1.388 . S
C6771 C6770 1.366 . S
C6771 C6775 1.385 . S
C6772 H6753 0.951 . S
C6772 C6770 1.388 . S
C6772 C6773 1.366 . S
C6773 C6772 1.366 . S
C6773 C6774 1.414 . S
C6773 C6776 1.499 . S
C6774 H6754 0.950 . S
C6774 C6773 1.414 . S
C6774 C6775 1.374 . S
C6775 H6755 0.950 . S
C6775 C6771 1.385 . S
C6775 C6774 1.374 . S
C6776 C6773 1.499 . S
C6776 C6777 1.373 . S
C6776 C6778 1.389 . S
C6777 H6756 0.950 . S
C6777 C6776 1.373 . S
C6777 C6793 1.377 . S
C6778 C6776 1.389 . S
C6778 C6779 1.524 . S
C6778 C6792 1.377 . S
C6779 C6778 1.524 . S
C6779 C6780 1.397 . S
C6779 C6784 1.363 . S
C6780 H6757 0.950 . S
C6780 C6779 1.397 . S
C6780 C6781 1.334 . S
C6781 H6758 0.950 . S
C6781 C6780 1.334 . S
C6781 C6782 1.287 . S
C6782 C6781 1.287 . S
C6782 C6783 1.524 . S
C6782 H6801 0.913 . S
C6783 H6759 0.950 . S
C6783 C6782 1.524 . S
C6783 C6784 1.415 . S
C6784 H6760 0.950 . S
C6784 C6779 1.363 . S
C6784 C6783 1.415 . S
C6785 H6761 0.951 . S
C6785 C6786 1.366 . S
C6785 C6787 1.388 . S
C6786 C6785 1.366 . S
C6786 C6790 1.385 . S
C6787 H6762 0.951 . S
C6787 C6785 1.388 . S
C6787 C6788 1.366 . S
C6788 C6787 1.366 . S
C6788 C6789 1.414 . S
C6788 C6791 1.499 . S
C6789 H6763 0.950 . S
C6789 C6788 1.414 . S
C6789 C6790 1.374 . S
C6790 H6764 0.950 . S
C6790 C6786 1.385 . S
C6790 C6789 1.374 . S
C6791 C6788 1.499 . S
C6791 C6792 1.373 . S
C6791 C6793 1.389 . S
C6792 H6765 0.950 . S
C6792 C6778 1.377 . S
C6792 C6791 1.373 . S
C6793 C6777 1.377 . S
C6793 C6791 1.389 . S
C6793 C6794 1.524 . S
C6794 C6793 1.524 . S
C6794 C6795 1.397 . S
C6794 C6799 1.363 . S
C6795 H6766 0.950 . S
C6795 C6794 1.397 . S
C6795 C6796 1.334 . S
C6796 H6767 0.950 . S
C6796 C6795 1.334 . S
C6796 C6797 1.287 . S
C6797 C6796 1.287 . S
C6797 C6798 1.524 . S
C6797 H6800 0.999 . S
C6798 H6768 0.950 . S
C6798 C6797 1.524 . S
C6798 C6799 1.415 . S
C6799 H6769 0.950 . S
C6799 C6794 1.363 . S
C6799 C6798 1.415 . S
H6800 C6797 0.999 . S
H6801 C6782 0.913 . S
H6802 C6820 0.951 . S
H6803 C6822 0.951 . S
H6804 C6824 0.950 . S
H6805 C6825 0.950 . S
H6806 C6827 0.950 . S
H6807 C6830 0.950 . S
H6808 C6831 0.950 . S
H6809 C6833 0.950 . S
H6810 C6834 0.950 . S
H6811 C6835 0.951 . S
H6812 C6837 0.951 . S
H6813 C6839 0.950 . S
H6814 C6840 0.950 . S
H6815 C6842 0.950 . S
H6816 C6845 0.950 . S
H6817 C6846 0.950 . S
H6818 C6848 0.950 . S
H6819 C6849 0.950 . S
C6820 H6802 0.951 . S
C6820 C6821 1.366 . S
C6820 C6822 1.388 . S
C6821 C6820 1.366 . S
C6821 C6825 1.385 . S
C6822 H6803 0.951 . S
C6822 C6820 1.388 . S
C6822 C6823 1.366 . S
C6823 C6822 1.366 . S
C6823 C6824 1.414 . S
C6823 C6826 1.499 . S
C6824 H6804 0.950 . S
C6824 C6823 1.414 . S
C6824 C6825 1.374 . S
C6825 H6805 0.950 . S
C6825 C6821 1.385 . S
C6825 C6824 1.374 . S
C6826 C6823 1.499 . S
C6826 C6827 1.373 . S
C6826 C6828 1.389 . S
C6827 H6806 0.950 . S
C6827 C6826 1.373 . S
C6827 C6843 1.377 . S
C6828 C6826 1.389 . S
C6828 C6829 1.524 . S
C6828 C6842 1.377 . S
C6829 C6828 1.524 . S
C6829 C6830 1.397 . S
C6829 C6834 1.363 . S
C6830 H6807 0.950 . S
C6830 C6829 1.397 . S
C6830 C6831 1.334 . S
C6831 H6808 0.950 . S
C6831 C6830 1.334 . S
C6831 C6832 1.287 . S
C6832 C6831 1.287 . S
C6832 C6833 1.524 . S
C6832 H6851 0.913 . S
C6833 H6809 0.950 . S
C6833 C6832 1.524 . S
C6833 C6834 1.415 . S
C6834 H6810 0.950 . S
C6834 C6829 1.363 . S
C6834 C6833 1.415 . S
C6835 H6811 0.951 . S
C6835 C6836 1.366 . S
C6835 C6837 1.388 . S
C6836 C6835 1.366 . S
C6836 C6840 1.385 . S
C6837 H6812 0.951 . S
C6837 C6835 1.388 . S
C6837 C6838 1.366 . S
C6838 C6837 1.366 . S
C6838 C6839 1.414 . S
C6838 C6841 1.499 . S
C6839 H6813 0.950 . S
C6839 C6838 1.414 . S
C6839 C6840 1.374 . S
C6840 H6814 0.950 . S
C6840 C6836 1.385 . S
C6840 C6839 1.374 . S
C6841 C6838 1.499 . S
C6841 C6842 1.373 . S
C6841 C6843 1.389 . S
C6842 H6815 0.950 . S
C6842 C6828 1.377 . S
C6842 C6841 1.373 . S
C6843 C6827 1.377 . S
C6843 C6841 1.389 . S
C6843 C6844 1.524 . S
C6844 C6843 1.524 . S
C6844 C6845 1.397 . S
C6844 C6849 1.363 . S
C6845 H6816 0.950 . S
C6845 C6844 1.397 . S
C6845 C6846 1.334 . S
C6846 H6817 0.950 . S
C6846 C6845 1.334 . S
C6846 C6847 1.287 . S
C6847 C6846 1.287 . S
C6847 C6848 1.524 . S
C6847 H6850 0.999 . S
C6848 H6818 0.950 . S
C6848 C6847 1.524 . S
C6848 C6849 1.415 . S
C6849 H6819 0.950 . S
C6849 C6844 1.363 . S
C6849 C6848 1.415 . S
H6850 C6847 0.999 . S
H6851 C6832 0.913 . S
H6852 C6870 0.951 . S
H6853 C6872 0.951 . S
H6854 C6874 0.950 . S
H6855 C6875 0.950 . S
H6856 C6877 0.950 . S
H6857 C6880 0.950 . S
H6858 C6881 0.950 . S
H6859 C6883 0.950 . S
H6860 C6884 0.950 . S
H6861 C6885 0.951 . S
H6862 C6887 0.951 . S
H6863 C6889 0.950 . S
H6864 C6890 0.950 . S
H6865 C6892 0.950 . S
H6866 C6895 0.950 . S
H6867 C6896 0.950 . S
H6868 C6898 0.950 . S
H6869 C6899 0.950 . S
C6870 H6852 0.951 . S
C6870 C6871 1.366 . S
C6870 C6872 1.388 . S
C6871 C6870 1.366 . S
C6871 C6875 1.385 . S
C6872 H6853 0.951 . S
C6872 C6870 1.388 . S
C6872 C6873 1.366 . S
C6873 C6872 1.366 . S
C6873 C6874 1.414 . S
C6873 C6876 1.499 . S
C6874 H6854 0.950 . S
C6874 C6873 1.414 . S
C6874 C6875 1.374 . S
C6875 H6855 0.950 . S
C6875 C6871 1.385 . S
C6875 C6874 1.374 . S
C6876 C6873 1.499 . S
C6876 C6877 1.373 . S
C6876 C6878 1.389 . S
C6877 H6856 0.950 . S
C6877 C6876 1.373 . S
C6877 C6893 1.377 . S
C6878 C6876 1.389 . S
C6878 C6879 1.524 . S
C6878 C6892 1.377 . S
C6879 C6878 1.524 . S
C6879 C6880 1.397 . S
C6879 C6884 1.363 . S
C6880 H6857 0.950 . S
C6880 C6879 1.397 . S
C6880 C6881 1.334 . S
C6881 H6858 0.950 . S
C6881 C6880 1.334 . S
C6881 C6882 1.287 . S
C6882 C6881 1.287 . S
C6882 C6883 1.524 . S
C6882 H6901 0.913 . S
C6883 H6859 0.950 . S
C6883 C6882 1.524 . S
C6883 C6884 1.415 . S
C6884 H6860 0.950 . S
C6884 C6879 1.363 . S
C6884 C6883 1.415 . S
C6885 H6861 0.951 . S
C6885 C6886 1.366 . S
C6885 C6887 1.388 . S
C6886 C6885 1.366 . S
C6886 C6890 1.385 1_455 S
C6887 H6862 0.951 . S
C6887 C6885 1.388 . S
C6887 C6888 1.366 1_455 S
C6888 C6887 1.366 1_655 S
C6888 C6889 1.414 . S
C6888 C6891 1.499 . S
C6889 H6863 0.950 . S
C6889 C6888 1.414 . S
C6889 C6890 1.374 . S
C6890 H6864 0.950 . S
C6890 C6886 1.385 1_655 S
C6890 C6889 1.374 . S
C6891 C6888 1.499 . S
C6891 C6892 1.373 . S
C6891 C6893 1.389 . S
C6892 H6865 0.950 . S
C6892 C6878 1.377 . S
C6892 C6891 1.373 . S
C6893 C6877 1.377 . S
C6893 C6891 1.389 . S
C6893 C6894 1.524 . S
C6894 C6893 1.524 . S
C6894 C6895 1.397 . S
C6894 C6899 1.363 . S
C6895 H6866 0.950 . S
C6895 C6894 1.397 . S
C6895 C6896 1.334 . S
C6896 H6867 0.950 . S
C6896 C6895 1.334 . S
C6896 C6897 1.287 . S
C6897 C6896 1.287 . S
C6897 C6898 1.524 1_655 S
C6897 H6900 0.971 1_655 S
C6898 H6868 0.950 . S
C6898 C6897 1.524 1_455 S
C6898 C6899 1.415 1_455 S
C6899 H6869 0.950 . S
C6899 C6894 1.363 . S
C6899 C6898 1.415 1_655 S
H6900 C6897 0.971 1_455 S
H6901 C6882 0.913 . S
H6902 C6920 0.951 . S
H6903 C6922 0.951 . S
H6904 C6924 0.950 . S
H6905 C6925 0.950 . S
H6906 C6927 0.950 . S
H6907 C6930 0.950 . S
H6908 C6931 0.950 . S
H6909 C6933 0.950 . S
H6910 C6934 0.950 . S
H6911 C6935 0.951 . S
H6912 C6937 0.951 . S
H6913 C6939 0.950 . S
H6914 C6940 0.950 . S
H6915 C6942 0.950 . S
H6916 C6945 0.950 . S
H6917 C6946 0.950 . S
H6918 C6948 0.950 . S
H6919 C6949 0.950 . S
C6920 H6902 0.951 . S
C6920 C6921 1.366 . S
C6920 C6922 1.388 . S
C6921 C6920 1.366 . S
C6921 C6925 1.385 . S
C6922 H6903 0.951 . S
C6922 C6920 1.388 . S
C6922 C6923 1.366 . S
C6923 C6922 1.366 . S
C6923 C6924 1.414 . S
C6923 C6926 1.499 . S
C6924 H6904 0.950 . S
C6924 C6923 1.414 . S
C6924 C6925 1.374 . S
C6925 H6905 0.950 . S
C6925 C6921 1.385 . S
C6925 C6924 1.374 . S
C6926 C6923 1.499 . S
C6926 C6927 1.373 . S
C6926 C6928 1.389 . S
C6927 H6906 0.950 . S
C6927 C6926 1.373 . S
C6927 C6943 1.377 . S
C6928 C6926 1.389 . S
C6928 C6929 1.524 . S
C6928 C6942 1.377 . S
C6929 C6928 1.524 . S
C6929 C6930 1.397 . S
C6929 C6934 1.363 . S
C6930 H6907 0.950 . S
C6930 C6929 1.397 . S
C6930 C6931 1.334 . S
C6931 H6908 0.950 . S
C6931 C6930 1.334 . S
C6931 C6932 1.287 . S
C6932 C6931 1.287 . S
C6932 C6933 1.524 . S
C6932 H6951 0.913 . S
C6933 H6909 0.950 . S
C6933 C6932 1.524 . S
C6933 C6934 1.415 . S
C6934 H6910 0.950 . S
C6934 C6929 1.363 . S
C6934 C6933 1.415 . S
C6935 H6911 0.951 . S
C6935 C6936 1.366 . S
C6935 C6937 1.388 . S
C6936 C6935 1.366 . S
C6936 C6940 1.385 . S
C6937 H6912 0.951 . S
C6937 C6935 1.388 . S
C6937 C6938 1.366 . S
C6938 C6937 1.366 . S
C6938 C6939 1.414 . S
C6938 C6941 1.499 . S
C6939 H6913 0.950 . S
C6939 C6938 1.414 . S
C6939 C6940 1.374 . S
C6940 H6914 0.950 . S
C6940 C6936 1.385 . S
C6940 C6939 1.374 . S
C6941 C6938 1.499 . S
C6941 C6942 1.373 . S
C6941 C6943 1.389 . S
C6942 H6915 0.950 . S
C6942 C6928 1.377 . S
C6942 C6941 1.373 . S
C6943 C6927 1.377 . S
C6943 C6941 1.389 . S
C6943 C6944 1.524 . S
C6944 C6943 1.524 . S
C6944 C6945 1.397 . S
C6944 C6949 1.363 . S
C6945 H6916 0.950 . S
C6945 C6944 1.397 . S
C6945 C6946 1.334 . S
C6946 H6917 0.950 . S
C6946 C6945 1.334 . S
C6946 C6947 1.287 . S
C6947 C6946 1.287 . S
C6947 C6948 1.524 . S
C6947 H6950 0.999 . S
C6948 H6918 0.950 . S
C6948 C6947 1.524 . S
C6948 C6949 1.415 . S
C6949 H6919 0.950 . S
C6949 C6944 1.363 . S
C6949 C6948 1.415 . S
H6950 C6947 0.999 . S
H6951 C6932 0.913 . S
H6952 C6970 0.951 . S
H6953 C6972 0.951 . S
H6954 C6974 0.950 . S
H6955 C6975 0.950 . S
H6956 C6977 0.950 . S
H6957 C6980 0.950 . S
H6958 C6981 0.950 . S
H6959 C6983 0.950 . S
H6960 C6984 0.950 . S
H6961 C6985 0.951 . S
H6962 C6987 0.951 . S
H6963 C6989 0.950 . S
H6964 C6990 0.950 . S
H6965 C6992 0.950 . S
H6966 C6995 0.950 . S
H6967 C6996 0.950 . S
H6968 C6998 0.950 . S
H6969 C6999 0.950 . S
C6970 H6952 0.951 . S
C6970 C6971 1.366 . S
C6970 C6972 1.388 . S
C6971 C6970 1.366 . S
C6971 C6975 1.385 . S
C6972 H6953 0.951 . S
C6972 C6970 1.388 . S
C6972 C6973 1.366 . S
C6973 C6972 1.366 . S
C6973 C6974 1.414 . S
C6973 C6976 1.499 . S
C6974 H6954 0.950 . S
C6974 C6973 1.414 . S
C6974 C6975 1.374 . S
C6975 H6955 0.950 . S
C6975 C6971 1.385 . S
C6975 C6974 1.374 . S
C6976 C6973 1.499 . S
C6976 C6977 1.373 . S
C6976 C6978 1.389 . S
C6977 H6956 0.950 . S
C6977 C6976 1.373 . S
C6977 C6993 1.377 . S
C6978 C6976 1.389 . S
C6978 C6979 1.524 . S
C6978 C6992 1.377 . S
C6979 C6978 1.524 . S
C6979 C6980 1.397 . S
C6979 C6984 1.363 . S
C6980 H6957 0.950 . S
C6980 C6979 1.397 . S
C6980 C6981 1.334 . S
C6981 H6958 0.950 . S
C6981 C6980 1.334 . S
C6981 C6982 1.287 . S
C6982 C6981 1.287 . S
C6982 C6983 1.524 . S
C6982 H7001 0.913 . S
C6983 H6959 0.950 . S
C6983 C6982 1.524 . S
C6983 C6984 1.415 . S
C6984 H6960 0.950 . S
C6984 C6979 1.363 . S
C6984 C6983 1.415 . S
C6985 H6961 0.951 . S
C6985 C6986 1.366 . S
C6985 C6987 1.388 . S
C6986 C6985 1.366 . S
C6986 C6990 1.385 . S
C6987 H6962 0.951 . S
C6987 C6985 1.388 . S
C6987 C6988 1.366 . S
C6988 C6987 1.366 . S
C6988 C6989 1.414 . S
C6988 C6991 1.499 . S
C6989 H6963 0.950 . S
C6989 C6988 1.414 . S
C6989 C6990 1.374 . S
C6990 H6964 0.950 . S
C6990 C6986 1.385 . S
C6990 C6989 1.374 . S
C6991 C6988 1.499 . S
C6991 C6992 1.373 . S
C6991 C6993 1.389 . S
C6992 H6965 0.950 . S
C6992 C6978 1.377 . S
C6992 C6991 1.373 . S
C6993 C6977 1.377 . S
C6993 C6991 1.389 . S
C6993 C6994 1.524 . S
C6994 C6993 1.524 . S
C6994 C6995 1.397 . S
C6994 C6999 1.363 . S
C6995 H6966 0.950 . S
C6995 C6994 1.397 . S
C6995 C6996 1.334 . S
C6996 H6967 0.950 . S
C6996 C6995 1.334 . S
C6996 C6997 1.287 . S
C6997 C6996 1.287 . S
C6997 C6998 1.524 . S
C6997 H7000 0.999 . S
C6998 H6968 0.950 . S
C6998 C6997 1.524 . S
C6998 C6999 1.415 . S
C6999 H6969 0.950 . S
C6999 C6994 1.363 . S
C6999 C6998 1.415 . S
H7000 C6997 0.999 . S
H7001 C6982 0.913 . S
H7002 C7020 0.951 . S
H7003 C7022 0.951 . S
H7004 C7024 0.950 . S
H7005 C7025 0.950 . S
H7006 C7027 0.950 . S
H7007 C7030 0.950 . S
H7008 C7031 0.950 . S
H7009 C7033 0.950 . S
H7010 C7034 0.950 . S
H7011 C7035 0.951 . S
H7012 C7037 0.951 . S
H7013 C7039 0.950 . S
H7014 C7040 0.950 . S
H7015 C7042 0.950 . S
H7016 C7045 0.950 . S
H7017 C7046 0.950 . S
H7018 C7048 0.950 . S
H7019 C7049 0.950 . S
C7020 H7002 0.951 . S
C7020 C7021 1.366 . S
C7020 C7022 1.388 . S
C7021 C7020 1.366 . S
C7021 C7025 1.385 . S
C7022 H7003 0.951 . S
C7022 C7020 1.388 . S
C7022 C7023 1.366 . S
C7023 C7022 1.366 . S
C7023 C7024 1.414 . S
C7023 C7026 1.499 . S
C7024 H7004 0.950 . S
C7024 C7023 1.414 . S
C7024 C7025 1.374 . S
C7025 H7005 0.950 . S
C7025 C7021 1.385 . S
C7025 C7024 1.374 . S
C7026 C7023 1.499 . S
C7026 C7027 1.373 . S
C7026 C7028 1.389 . S
C7027 H7006 0.950 . S
C7027 C7026 1.373 . S
C7027 C7043 1.377 . S
C7028 C7026 1.389 . S
C7028 C7029 1.524 . S
C7028 C7042 1.377 . S
C7029 C7028 1.524 . S
C7029 C7030 1.397 . S
C7029 C7034 1.363 . S
C7030 H7007 0.950 . S
C7030 C7029 1.397 . S
C7030 C7031 1.334 . S
C7031 H7008 0.950 . S
C7031 C7030 1.334 . S
C7031 C7032 1.287 . S
C7032 C7031 1.287 . S
C7032 C7033 1.524 . S
C7032 H7051 0.913 . S
C7033 H7009 0.950 . S
C7033 C7032 1.524 . S
C7033 C7034 1.415 . S
C7034 H7010 0.950 . S
C7034 C7029 1.363 . S
C7034 C7033 1.415 . S
C7035 H7011 0.951 . S
C7035 C7036 1.366 . S
C7035 C7037 1.388 . S
C7036 C7035 1.366 . S
C7036 C7040 1.385 . S
C7037 H7012 0.951 . S
C7037 C7035 1.388 . S
C7037 C7038 1.366 . S
C7038 C7037 1.366 . S
C7038 C7039 1.414 . S
C7038 C7041 1.499 . S
C7039 H7013 0.950 . S
C7039 C7038 1.414 . S
C7039 C7040 1.374 . S
C7040 H7014 0.950 . S
C7040 C7036 1.385 . S
C7040 C7039 1.374 . S
C7041 C7038 1.499 . S
C7041 C7042 1.373 . S
C7041 C7043 1.389 . S
C7042 H7015 0.950 . S
C7042 C7028 1.377 . S
C7042 C7041 1.373 . S
C7043 C7027 1.377 . S
C7043 C7041 1.389 . S
C7043 C7044 1.524 . S
C7044 C7043 1.524 . S
C7044 C7045 1.397 . S
C7044 C7049 1.363 . S
C7045 H7016 0.950 . S
C7045 C7044 1.397 . S
C7045 C7046 1.334 . S
C7046 H7017 0.950 . S
C7046 C7045 1.334 . S
C7046 C7047 1.287 . S
C7047 C7046 1.287 . S
C7047 C7048 1.524 . S
C7047 H7050 0.999 . S
C7048 H7018 0.950 . S
C7048 C7047 1.524 . S
C7048 C7049 1.415 . S
C7049 H7019 0.950 . S
C7049 C7044 1.363 . S
C7049 C7048 1.415 . S
H7050 C7047 0.999 . S
H7051 C7032 0.913 . S
H7052 C7070 0.951 . S
H7053 C7072 0.951 . S
H7054 C7074 0.950 . S
H7055 C7075 0.950 . S
H7056 C7077 0.950 . S
H7057 C7080 0.950 . S
H7058 C7081 0.950 . S
H7059 C7083 0.950 . S
H7060 C7084 0.950 . S
H7061 C7085 0.951 . S
H7062 C7087 0.951 . S
H7063 C7089 0.950 . S
H7064 C7090 0.950 . S
H7065 C7092 0.950 . S
H7066 C7095 0.950 . S
H7067 C7096 0.950 . S
H7068 C7098 0.950 . S
H7069 C7099 0.950 . S
C7070 H7052 0.951 . S
C7070 C7071 1.366 . S
C7070 C7072 1.388 . S
C7071 C7070 1.366 . S
C7071 C7075 1.385 . S
C7072 H7053 0.951 . S
C7072 C7070 1.388 . S
C7072 C7073 1.366 . S
C7073 C7072 1.366 . S
C7073 C7074 1.414 . S
C7073 C7076 1.499 . S
C7074 H7054 0.950 . S
C7074 C7073 1.414 . S
C7074 C7075 1.374 . S
C7075 H7055 0.950 . S
C7075 C7071 1.385 . S
C7075 C7074 1.374 . S
C7076 C7073 1.499 . S
C7076 C7077 1.373 . S
C7076 C7078 1.389 . S
C7077 H7056 0.950 . S
C7077 C7076 1.373 . S
C7077 C7093 1.377 . S
C7078 C7076 1.389 . S
C7078 C7079 1.524 . S
C7078 C7092 1.377 . S
C7079 C7078 1.524 . S
C7079 C7080 1.397 . S
C7079 C7084 1.363 . S
C7080 H7057 0.950 . S
C7080 C7079 1.397 . S
C7080 C7081 1.334 . S
C7081 H7058 0.950 . S
C7081 C7080 1.334 . S
C7081 C7082 1.287 . S
C7082 C7081 1.287 . S
C7082 C7083 1.524 . S
C7082 H7101 0.946 . S
C7083 H7059 0.950 . S
C7083 C7082 1.524 . S
C7083 C7084 1.415 . S
C7084 H7060 0.950 . S
C7084 C7079 1.363 . S
C7084 C7083 1.415 . S
C7085 H7061 0.951 . S
C7085 C7086 1.366 . S
C7085 C7087 1.388 . S
C7086 C7085 1.366 . S
C7086 C7090 1.385 . S
C7087 H7062 0.951 . S
C7087 C7085 1.388 . S
C7087 C7088 1.366 . S
C7088 C7087 1.366 . S
C7088 C7089 1.414 . S
C7088 C7091 1.499 . S
C7089 H7063 0.950 . S
C7089 C7088 1.414 . S
C7089 C7090 1.374 . S
C7090 H7064 0.950 . S
C7090 C7086 1.385 . S
C7090 C7089 1.374 . S
C7091 C7088 1.499 . S
C7091 C7092 1.373 . S
C7091 C7093 1.389 . S
C7092 H7065 0.950 . S
C7092 C7078 1.377 . S
C7092 C7091 1.373 . S
C7093 C7077 1.377 . S
C7093 C7091 1.389 . S
C7093 C7094 1.524 . S
C7094 C7093 1.524 . S
C7094 C7095 1.397 . S
C7094 C7099 1.363 . S
C7095 H7066 0.950 . S
C7095 C7094 1.397 . S
C7095 C7096 1.334 . S
C7096 H7067 0.950 . S
C7096 C7095 1.334 . S
C7096 C7097 1.287 . S
C7097 C7096 1.287 . S
C7097 C7098 1.524 . S
C7097 H7100 0.999 . S
C7098 H7068 0.950 . S
C7098 C7097 1.524 . S
C7098 C7099 1.415 . S
C7099 H7069 0.950 . S
C7099 C7094 1.363 . S
C7099 C7098 1.415 . S
H7100 C7097 0.999 . S
H7101 C7082 0.946 . S
H7102 C7120 0.951 . S
H7103 C7122 0.951 . S
H7104 C7124 0.950 . S
H7105 C7125 0.950 . S
H7106 C7127 0.950 . S
H7107 C7130 0.950 . S
H7108 C7131 0.950 . S
H7109 C7133 0.950 . S
H7110 C7134 0.950 . S
H7111 C7135 0.951 . S
H7112 C7137 0.951 . S
H7113 C7139 0.950 . S
H7114 C7140 0.950 . S
H7115 C7142 0.950 . S
H7116 C7145 0.950 . S
H7117 C7146 0.950 . S
H7118 C7148 0.950 . S
H7119 C7149 0.950 . S
C7120 H7102 0.951 . S
C7120 C7121 1.366 . S
C7120 C7122 1.388 . S
C7121 C7120 1.366 . S
C7121 C7125 1.385 . S
C7122 H7103 0.951 . S
C7122 C7120 1.388 . S
C7122 C7123 1.366 . S
C7123 C7122 1.366 . S
C7123 C7124 1.414 . S
C7123 C7126 1.499 . S
C7124 H7104 0.950 . S
C7124 C7123 1.414 . S
C7124 C7125 1.374 . S
C7125 H7105 0.950 . S
C7125 C7121 1.385 . S
C7125 C7124 1.374 . S
C7126 C7123 1.499 . S
C7126 C7127 1.373 . S
C7126 C7128 1.389 . S
C7127 H7106 0.950 . S
C7127 C7126 1.373 . S
C7127 C7143 1.377 . S
C7128 C7126 1.389 . S
C7128 C7129 1.524 . S
C7128 C7142 1.377 . S
C7129 C7128 1.524 . S
C7129 C7130 1.397 . S
C7129 C7134 1.363 . S
C7130 H7107 0.950 . S
C7130 C7129 1.397 . S
C7130 C7131 1.334 . S
C7131 H7108 0.950 . S
C7131 C7130 1.334 . S
C7131 C7132 1.287 . S
C7132 C7131 1.287 . S
C7132 C7133 1.524 . S
C7132 H7151 0.913 . S
C7133 H7109 0.950 . S
C7133 C7132 1.524 . S
C7133 C7134 1.415 . S
C7134 H7110 0.950 . S
C7134 C7129 1.363 . S
C7134 C7133 1.415 . S
C7135 H7111 0.951 . S
C7135 C7136 1.366 . S
C7135 C7137 1.388 . S
C7136 C7135 1.366 . S
C7136 C7140 1.385 . S
C7137 H7112 0.951 . S
C7137 C7135 1.388 . S
C7137 C7138 1.366 . S
C7138 C7137 1.366 . S
C7138 C7139 1.414 . S
C7138 C7141 1.499 . S
C7139 H7113 0.950 . S
C7139 C7138 1.414 . S
C7139 C7140 1.374 . S
C7140 H7114 0.950 . S
C7140 C7136 1.385 . S
C7140 C7139 1.374 . S
C7141 C7138 1.499 . S
C7141 C7142 1.373 . S
C7141 C7143 1.389 . S
C7142 H7115 0.950 . S
C7142 C7128 1.377 . S
C7142 C7141 1.373 . S
C7143 C7127 1.377 . S
C7143 C7141 1.389 . S
C7143 C7144 1.524 . S
C7144 C7143 1.524 . S
C7144 C7145 1.397 . S
C7144 C7149 1.363 . S
C7145 H7116 0.950 . S
C7145 C7144 1.397 . S
C7145 C7146 1.334 . S
C7146 H7117 0.950 . S
C7146 C7145 1.334 . S
C7146 C7147 1.287 . S
C7147 C7146 1.287 . S
C7147 C7148 1.524 . S
C7147 H7150 0.999 . S
C7148 H7118 0.950 . S
C7148 C7147 1.524 . S
C7148 C7149 1.415 . S
C7149 H7119 0.950 . S
C7149 C7144 1.363 . S
C7149 C7148 1.415 . S
H7150 C7147 0.999 . S
H7151 C7132 0.913 . S
H7152 C7170 0.951 . S
H7153 C7172 0.951 . S
H7154 C7174 0.950 . S
H7155 C7175 0.950 . S
H7156 C7177 0.950 . S
H7157 C7180 0.950 . S
H7158 C7181 0.950 . S
H7159 C7183 0.950 . S
H7160 C7184 0.950 . S
H7161 C7185 0.951 . S
H7162 C7187 0.951 . S
H7163 C7189 0.950 . S
H7164 C7190 0.950 . S
H7165 C7192 0.950 . S
H7166 C7195 0.950 . S
H7167 C7196 0.950 . S
H7168 C7198 0.950 . S
H7169 C7199 0.950 . S
C7170 H7152 0.951 . S
C7170 C7171 1.366 . S
C7170 C7172 1.388 . S
C7171 C7170 1.366 . S
C7171 C7175 1.385 . S
C7172 H7153 0.951 . S
C7172 C7170 1.388 . S
C7172 C7173 1.366 . S
C7173 C7172 1.366 . S
C7173 C7174 1.414 . S
C7173 C7176 1.499 . S
C7174 H7154 0.950 . S
C7174 C7173 1.414 . S
C7174 C7175 1.374 . S
C7175 H7155 0.950 . S
C7175 C7171 1.385 . S
C7175 C7174 1.374 . S
C7176 C7173 1.499 . S
C7176 C7177 1.373 . S
C7176 C7178 1.389 . S
C7177 H7156 0.950 . S
C7177 C7176 1.373 . S
C7177 C7193 1.377 . S
C7178 C7176 1.389 . S
C7178 C7179 1.524 . S
C7178 C7192 1.377 . S
C7179 C7178 1.524 . S
C7179 C7180 1.397 . S
C7179 C7184 1.363 . S
C7180 H7157 0.950 . S
C7180 C7179 1.397 . S
C7180 C7181 1.334 . S
C7181 H7158 0.950 . S
C7181 C7180 1.334 . S
C7181 C7182 1.287 . S
C7182 C7181 1.287 . S
C7182 C7183 1.524 . S
C7182 H7201 0.913 . S
C7183 H7159 0.950 . S
C7183 C7182 1.524 . S
C7183 C7184 1.415 . S
C7184 H7160 0.950 . S
C7184 C7179 1.363 . S
C7184 C7183 1.415 . S
C7185 H7161 0.951 . S
C7185 C7186 1.366 . S
C7185 C7187 1.388 . S
C7186 C7185 1.366 . S
C7186 C7190 1.385 . S
C7187 H7162 0.951 . S
C7187 C7185 1.388 . S
C7187 C7188 1.366 . S
C7188 C7187 1.366 . S
C7188 C7189 1.414 . S
C7188 C7191 1.499 . S
C7189 H7163 0.950 . S
C7189 C7188 1.414 . S
C7189 C7190 1.374 . S
C7190 H7164 0.950 . S
C7190 C7186 1.385 . S
C7190 C7189 1.374 . S
C7191 C7188 1.499 . S
C7191 C7192 1.373 . S
C7191 C7193 1.389 . S
C7192 H7165 0.950 . S
C7192 C7178 1.377 . S
C7192 C7191 1.373 . S
C7193 C7177 1.377 . S
C7193 C7191 1.389 . S
C7193 C7194 1.524 . S
C7194 C7193 1.524 . S
C7194 C7195 1.397 . S
C7194 C7199 1.363 . S
C7195 H7166 0.950 . S
C7195 C7194 1.397 . S
C7195 C7196 1.334 . S
C7196 H7167 0.950 . S
C7196 C7195 1.334 . S
C7196 C7197 1.287 . S
C7197 C7196 1.287 . S
C7197 C7198 1.524 . S
C7197 H7200 0.999 . S
C7198 H7168 0.950 . S
C7198 C7197 1.524 . S
C7198 C7199 1.415 . S
C7199 H7169 0.950 . S
C7199 C7194 1.363 . S
C7199 C7198 1.415 . S
H7200 C7197 0.999 . S
H7201 C7182 0.913 . S
H7202 C7220 0.951 . S
H7203 C7222 0.951 . S
H7204 C7224 0.950 . S
H7205 C7225 0.950 . S
H7206 C7227 0.950 . S
H7207 C7230 0.950 . S
H7208 C7231 0.950 . S
H7209 C7233 0.950 . S
H7210 C7234 0.950 . S
H7211 C7235 0.951 . S
H7212 C7237 0.951 . S
H7213 C7239 0.925 1_545 S
H7214 C7240 0.950 . S
H7215 C7242 0.950 . S
H7216 C7245 0.950 . S
H7217 C7246 0.960 . S
H7218 C7248 0.950 . S
H7219 C7249 0.950 . S
C7220 H7202 0.951 . S
C7220 C7221 1.366 . S
C7220 C7222 1.388 . S
C7221 C7220 1.366 . S
C7221 C7225 1.385 . S
C7222 H7203 0.951 . S
C7222 C7220 1.388 . S
C7222 C7223 1.366 . S
C7223 C7222 1.366 . S
C7223 C7224 1.414 . S
C7223 C7226 1.499 . S
C7224 H7204 0.950 . S
C7224 C7223 1.414 . S
C7224 C7225 1.374 . S
C7225 H7205 0.950 . S
C7225 C7221 1.385 . S
C7225 C7224 1.374 . S
C7226 C7223 1.499 . S
C7226 C7227 1.373 . S
C7226 C7228 1.389 . S
C7227 H7206 0.950 . S
C7227 C7226 1.373 . S
C7227 C7243 1.377 . S
C7228 C7226 1.389 . S
C7228 C7229 1.524 . S
C7228 C7242 1.377 . S
C7229 C7228 1.524 . S
C7229 C7230 1.397 . S
C7229 C7234 1.363 . S
C7230 H7207 0.950 . S
C7230 C7229 1.397 . S
C7230 C7231 1.334 . S
C7231 H7208 0.950 . S
C7231 C7230 1.334 . S
C7231 C7232 1.287 . S
C7232 C7231 1.287 . S
C7232 C7233 1.524 . S
C7232 H7251 0.913 . S
C7233 H7209 0.950 . S
C7233 C7232 1.524 . S
C7233 C7234 1.415 . S
C7234 H7210 0.950 . S
C7234 C7229 1.363 . S
C7234 C7233 1.415 . S
C7235 H7211 0.951 . S
C7235 C7236 1.366 1_565 S
C7235 C7237 1.388 . S
C7236 C7235 1.366 1_545 S
C7236 C7240 1.385 . S
C7237 H7212 0.951 . S
C7237 C7235 1.388 . S
C7237 C7238 1.366 . S
C7238 C7237 1.366 . S
C7238 C7239 1.457 . S
C7238 C7241 1.499 . S
C7239 H7213 0.925 1_565 S
C7239 C7238 1.457 . S
C7239 C7240 1.358 1_565 S
C7240 H7214 0.950 . S
C7240 C7236 1.385 . S
C7240 C7239 1.358 1_545 S
C7241 C7238 1.499 . S
C7241 C7242 1.373 . S
C7241 C7243 1.389 . S
C7242 H7215 0.950 . S
C7242 C7228 1.377 . S
C7242 C7241 1.373 . S
C7243 C7227 1.377 . S
C7243 C7241 1.389 . S
C7243 C7244 1.524 . S
C7244 C7243 1.524 . S
C7244 C7245 1.397 . S
C7244 C7249 1.363 . S
C7245 H7216 0.950 . S
C7245 C7244 1.397 . S
C7245 C7246 1.334 . S
C7246 H7217 0.960 . S
C7246 C7245 1.334 . S
C7246 C7247 1.287 . S
C7247 C7246 1.287 . S
C7247 C7248 1.524 . S
C7247 H7250 0.999 . S
C7248 H7218 0.950 . S
C7248 C7247 1.524 . S
C7248 C7249 1.415 . S
C7249 H7219 0.950 . S
C7249 C7244 1.363 . S
C7249 C7248 1.415 . S
H7250 C7247 0.999 . S
H7251 C7232 0.913 . S
H7252 C7270 0.951 . S
H7253 C7272 0.951 . S
H7254 C7274 0.950 . S
H7255 C7275 0.950 . S
H7256 C7277 0.950 . S
H7257 C7280 0.950 . S
H7258 C7281 0.950 . S
H7259 C7283 0.950 . S
H7260 C7284 0.950 . S
H7261 C7285 0.951 . S
H7262 C7287 0.951 . S
H7263 C7289 0.950 . S
H7264 C7290 0.950 . S
H7265 C7292 0.950 . S
H7266 C7295 0.950 . S
H7267 C7296 0.950 . S
H7268 C7298 0.950 . S
H7269 C7299 0.950 . S
C7270 H7252 0.951 . S
C7270 C7271 1.366 . S
C7270 C7272 1.388 . S
C7271 C7270 1.366 . S
C7271 C7275 1.385 . S
C7272 H7253 0.951 . S
C7272 C7270 1.388 . S
C7272 C7273 1.366 . S
C7273 C7272 1.366 . S
C7273 C7274 1.414 . S
C7273 C7276 1.499 . S
C7274 H7254 0.950 . S
C7274 C7273 1.414 . S
C7274 C7275 1.374 . S
C7275 H7255 0.950 . S
C7275 C7271 1.385 . S
C7275 C7274 1.374 . S
C7276 C7273 1.499 . S
C7276 C7277 1.373 . S
C7276 C7278 1.389 . S
C7277 H7256 0.950 . S
C7277 C7276 1.373 . S
C7277 C7293 1.377 . S
C7278 C7276 1.389 . S
C7278 C7279 1.524 . S
C7278 C7292 1.377 . S
C7279 C7278 1.524 . S
C7279 C7280 1.397 . S
C7279 C7284 1.363 . S
C7280 H7257 0.950 . S
C7280 C7279 1.397 . S
C7280 C7281 1.334 . S
C7281 H7258 0.950 . S
C7281 C7280 1.334 . S
C7281 C7282 1.287 . S
C7282 C7281 1.287 . S
C7282 C7283 1.524 . S
C7282 H7301 0.913 . S
C7283 H7259 0.950 . S
C7283 C7282 1.524 . S
C7283 C7284 1.415 . S
C7284 H7260 0.950 . S
C7284 C7279 1.363 . S
C7284 C7283 1.415 . S
C7285 H7261 0.951 . S
C7285 C7286 1.366 . S
C7285 C7287 1.388 . S
C7286 C7285 1.366 . S
C7286 C7290 1.385 . S
C7287 H7262 0.951 . S
C7287 C7285 1.388 . S
C7287 C7288 1.366 . S
C7288 C7287 1.366 . S
C7288 C7289 1.414 . S
C7288 C7291 1.499 . S
C7289 H7263 0.950 . S
C7289 C7288 1.414 . S
C7289 C7290 1.374 . S
C7290 H7264 0.950 . S
C7290 C7286 1.385 . S
C7290 C7289 1.374 . S
C7291 C7288 1.499 . S
C7291 C7292 1.373 . S
C7291 C7293 1.389 . S
C7292 H7265 0.950 . S
C7292 C7278 1.377 . S
C7292 C7291 1.373 . S
C7293 C7277 1.377 . S
C7293 C7291 1.389 . S
C7293 C7294 1.524 . S
C7294 C7293 1.524 . S
C7294 C7295 1.397 . S
C7294 C7299 1.363 . S
C7295 H7266 0.950 . S
C7295 C7294 1.397 . S
C7295 C7296 1.334 . S
C7296 H7267 0.950 . S
C7296 C7295 1.334 . S
C7296 C7297 1.287 . S
C7297 C7296 1.287 . S
C7297 C7298 1.524 . S
C7297 H7300 0.999 . S
C7298 H7268 0.950 . S
C7298 C7297 1.524 . S
C7298 C7299 1.415 . S
C7299 H7269 0.950 . S
C7299 C7294 1.363 . S
C7299 C7298 1.415 . S
H7300 C7297 0.999 . S
H7301 C7282 0.913 . S
H7302 C7320 0.951 . S
H7303 C7322 0.951 . S
H7304 C7324 0.950 . S
H7305 C7325 0.950 . S
H7306 C7327 0.950 . S
H7307 C7330 0.950 . S
H7308 C7331 0.950 . S
H7309 C7333 0.950 . S
H7310 C7334 0.950 . S
H7311 C7335 0.951 . S
H7312 C7337 0.951 . S
H7313 C7339 0.961 . S
H7314 C7340 0.950 1_556 S
H7315 C7342 0.950 . S
H7316 C7345 0.950 . S
H7317 C7346 0.950 1_556 S
H7318 C7348 0.950 . S
H7319 C7349 0.950 . S
C7320 H7302 0.951 . S
C7320 C7321 1.366 . S
C7320 C7322 1.388 . S
C7321 C7320 1.366 . S
C7321 C7325 1.385 . S
C7322 H7303 0.951 . S
C7322 C7320 1.388 . S
C7322 C7323 1.366 . S
C7323 C7322 1.366 . S
C7323 C7324 1.414 . S
C7323 C7326 1.499 . S
C7324 H7304 0.950 . S
C7324 C7323 1.414 . S
C7324 C7325 1.374 . S
C7325 H7305 0.950 . S
C7325 C7321 1.385 . S
C7325 C7324 1.374 . S
C7326 C7323 1.499 . S
C7326 C7327 1.373 . S
C7326 C7328 1.389 . S
C7327 H7306 0.950 . S
C7327 C7326 1.373 . S
C7327 C7343 1.377 . S
C7328 C7326 1.389 . S
C7328 C7329 1.524 . S
C7328 C7342 1.377 . S
C7329 C7328 1.524 . S
C7329 C7330 1.397 . S
C7329 C7334 1.363 . S
C7330 H7307 0.950 . S
C7330 C7329 1.397 . S
C7330 C7331 1.334 . S
C7331 H7308 0.950 . S
C7331 C7330 1.334 . S
C7331 C7332 1.287 . S
C7332 C7331 1.287 . S
C7332 C7333 1.524 . S
C7332 H7351 0.913 . S
C7333 H7309 0.950 . S
C7333 C7332 1.524 . S
C7333 C7334 1.415 . S
C7334 H7310 0.950 . S
C7334 C7329 1.363 . S
C7334 C7333 1.415 . S
C7335 H7311 0.951 . S
C7335 C7336 1.366 . S
C7335 C7337 1.388 . S
C7336 C7335 1.366 . S
C7336 C7340 1.385 . S
C7337 H7312 0.951 . S
C7337 C7335 1.388 . S
C7337 C7338 1.366 . S
C7338 C7337 1.366 . S
C7338 C7339 1.414 . S
C7338 C7341 1.499 . S
C7339 H7313 0.961 . S
C7339 C7338 1.414 . S
C7339 C7340 1.374 . S
C7340 H7314 0.950 1_554 S
C7340 C7336 1.385 . S
C7340 C7339 1.374 . S
C7341 C7338 1.499 . S
C7341 C7342 1.373 . S
C7341 C7343 1.389 . S
C7342 H7315 0.950 . S
C7342 C7328 1.377 . S
C7342 C7341 1.373 . S
C7343 C7327 1.377 . S
C7343 C7341 1.389 . S
C7343 C7344 1.524 . S
C7344 C7343 1.524 . S
C7344 C7345 1.397 . S
C7344 C7349 1.363 . S
C7345 H7316 0.950 . S
C7345 C7344 1.397 . S
C7345 C7346 1.334 . S
C7346 H7317 0.950 1_554 S
C7346 C7345 1.334 . S
C7346 C7347 1.287 . S
C7347 C7346 1.287 . S
C7347 C7348 1.524 . S
C7347 H7350 0.999 1_545 S
C7348 H7318 0.950 . S
C7348 C7347 1.524 . S
C7348 C7349 1.415 . S
C7349 H7319 0.950 . S
C7349 C7344 1.363 . S
C7349 C7348 1.415 . S
H7350 C7347 0.999 1_565 S
H7351 C7332 0.913 . S
H7352 C7370 0.951 . S
H7353 C7372 0.951 . S
H7354 C7374 0.950 . S
H7355 C7375 0.950 . S
H7356 C7377 0.950 . S
H7357 C7380 0.950 . S
H7358 C7381 0.950 . S
H7359 C7383 0.950 . S
H7360 C7384 0.950 . S
H7361 C7385 0.951 . S
H7362 C7387 0.951 . S
H7363 C7389 0.950 . S
H7364 C7390 0.950 . S
H7365 C7392 0.950 . S
H7366 C7395 0.950 . S
H7367 C7396 0.950 . S
H7368 C7398 0.950 . S
H7369 C7399 0.950 . S
C7370 H7352 0.951 . S
C7370 C7371 1.366 . S
C7370 C7372 1.388 . S
C7371 C7370 1.366 . S
C7371 C7375 1.385 . S
C7372 H7353 0.951 . S
C7372 C7370 1.388 . S
C7372 C7373 1.366 . S
C7373 C7372 1.366 . S
C7373 C7374 1.414 . S
C7373 C7376 1.499 . S
C7374 H7354 0.950 . S
C7374 C7373 1.414 . S
C7374 C7375 1.374 . S
C7375 H7355 0.950 . S
C7375 C7371 1.385 . S
C7375 C7374 1.374 . S
C7376 C7373 1.499 . S
C7376 C7377 1.373 . S
C7376 C7378 1.389 . S
C7377 H7356 0.950 . S
C7377 C7376 1.373 . S
C7377 C7393 1.377 . S
C7378 C7376 1.389 . S
C7378 C7379 1.524 . S
C7378 C7392 1.377 . S
C7379 C7378 1.524 . S
C7379 C7380 1.397 . S
C7379 C7384 1.363 . S
C7380 H7357 0.950 . S
C7380 C7379 1.397 . S
C7380 C7381 1.334 . S
C7381 H7358 0.950 . S
C7381 C7380 1.334 . S
C7381 C7382 1.287 . S
C7382 C7381 1.287 . S
C7382 C7383 1.524 . S
C7382 H7401 0.913 . S
C7383 H7359 0.950 . S
C7383 C7382 1.524 . S
C7383 C7384 1.415 . S
C7384 H7360 0.950 . S
C7384 C7379 1.363 . S
C7384 C7383 1.415 . S
C7385 H7361 0.951 . S
C7385 C7386 1.366 . S
C7385 C7387 1.388 . S
C7386 C7385 1.366 . S
C7386 C7390 1.385 . S
C7387 H7362 0.951 . S
C7387 C7385 1.388 . S
C7387 C7388 1.366 . S
C7388 C7387 1.366 . S
C7388 C7389 1.414 . S
C7388 C7391 1.499 . S
C7389 H7363 0.950 . S
C7389 C7388 1.414 . S
C7389 C7390 1.374 . S
C7390 H7364 0.950 . S
C7390 C7386 1.385 . S
C7390 C7389 1.374 . S
C7391 C7388 1.499 . S
C7391 C7392 1.373 . S
C7391 C7393 1.389 . S
C7392 H7365 0.950 . S
C7392 C7378 1.377 . S
C7392 C7391 1.373 . S
C7393 C7377 1.377 . S
C7393 C7391 1.389 . S
C7393 C7394 1.524 . S
C7394 C7393 1.524 . S
C7394 C7395 1.397 . S
C7394 C7399 1.363 . S
C7395 H7366 0.950 . S
C7395 C7394 1.397 . S
C7395 C7396 1.334 . S
C7396 H7367 0.950 . S
C7396 C7395 1.334 . S
C7396 C7397 1.287 . S
C7397 C7396 1.287 . S
C7397 C7398 1.524 . S
C7397 H7400 0.999 . S
C7398 H7368 0.950 . S
C7398 C7397 1.524 . S
C7398 C7399 1.415 . S
C7399 H7369 0.950 . S
C7399 C7394 1.363 . S
C7399 C7398 1.415 . S
H7400 C7397 0.999 . S
H7401 C7382 0.913 . S
H7402 C7420 0.951 . S
H7403 C7422 0.951 . S
H7404 C7424 0.950 1_556 S
H7405 C7425 0.950 . S
H7406 C7427 0.950 . S
H7407 C7430 0.950 . S
H7408 C7431 0.950 . S
H7409 C7433 0.950 . S
H7410 C7434 0.950 . S
H7411 C7435 0.951 . S
H7412 C7437 0.951 . S
H7413 C7439 0.950 . S
H7414 C7440 0.950 . S
H7415 C7442 0.950 . S
H7416 C7445 0.950 . S
H7417 C7446 0.950 . S
H7418 C7448 0.950 . S
H7419 C7449 0.950 1_556 S
C7420 H7402 0.951 . S
C7420 C7421 1.366 . S
C7420 C7422 1.388 . S
C7421 C7420 1.366 . S
C7421 C7425 1.385 . S
C7422 H7403 0.951 . S
C7422 C7420 1.388 . S
C7422 C7423 1.366 . S
C7423 C7422 1.366 . S
C7423 C7424 1.414 . S
C7423 C7426 1.499 . S
C7424 H7404 0.950 1_554 S
C7424 C7423 1.414 . S
C7424 C7425 1.374 . S
C7425 H7405 0.950 . S
C7425 C7421 1.385 . S
C7425 C7424 1.374 . S
C7426 C7423 1.499 . S
C7426 C7427 1.373 . S
C7426 C7428 1.389 . S
C7427 H7406 0.950 . S
C7427 C7426 1.373 . S
C7427 C7443 1.377 . S
C7428 C7426 1.389 . S
C7428 C7429 1.524 . S
C7428 C7442 1.377 . S
C7429 C7428 1.524 . S
C7429 C7430 1.397 1_554 S
C7429 C7434 1.363 . S
C7430 H7407 0.950 . S
C7430 C7429 1.397 1_556 S
C7430 C7431 1.334 . S
C7431 H7408 0.950 . S
C7431 C7430 1.334 . S
C7431 C7432 1.287 . S
C7432 C7431 1.287 . S
C7432 C7433 1.524 1_556 S
C7432 H7451 0.913 . S
C7433 H7409 0.950 . S
C7433 C7432 1.524 1_554 S
C7433 C7434 1.415 . S
C7434 H7410 0.950 . S
C7434 C7429 1.363 . S
C7434 C7433 1.415 . S
C7435 H7411 0.951 . S
C7435 C7436 1.366 . S
C7435 C7437 1.388 . S
C7436 C7435 1.366 . S
C7436 C7440 1.385 1_556 S
C7437 H7412 0.951 . S
C7437 C7435 1.388 . S
C7437 C7438 1.366 1_556 S
C7438 C7437 1.366 1_554 S
C7438 C7439 1.414 . S
C7438 C7441 1.499 . S
C7439 H7413 0.950 . S
C7439 C7438 1.414 . S
C7439 C7440 1.374 . S
C7440 H7414 0.950 . S
C7440 C7436 1.385 1_554 S
C7440 C7439 1.374 . S
C7441 C7438 1.499 . S
C7441 C7442 1.373 . S
C7441 C7443 1.389 . S
C7442 H7415 0.950 . S
C7442 C7428 1.377 . S
C7442 C7441 1.373 . S
C7443 C7427 1.377 . S
C7443 C7441 1.389 . S
C7443 C7444 1.524 . S
C7444 C7443 1.524 . S
C7444 C7445 1.397 . S
C7444 C7449 1.363 . S
C7445 H7416 0.950 . S
C7445 C7444 1.397 . S
C7445 C7446 1.334 . S
C7446 H7417 0.950 . S
C7446 C7445 1.334 . S
C7446 C7447 1.287 . S
C7447 C7446 1.287 . S
C7447 C7448 1.524 . S
C7447 H7450 0.999 . S
C7448 H7418 0.950 . S
C7448 C7447 1.524 . S
C7448 C7449 1.415 . S
C7449 H7419 0.950 1_554 S
C7449 C7444 1.363 . S
C7449 C7448 1.415 . S
H7450 C7447 0.999 . S
H7451 C7432 0.913 . S
H7452 C7470 0.951 . S
H7453 C7472 0.951 . S
H7454 C7474 0.950 . S
H7455 C7475 0.950 . S
H7456 C7477 0.950 . S
H7457 C7480 0.950 . S
H7458 C7481 0.950 . S
H7459 C7483 0.950 . S
H7460 C7484 0.950 . S
H7461 C7485 0.951 . S
H7462 C7487 0.951 . S
H7463 C7489 0.950 . S
H7464 C7490 0.950 . S
H7465 C7492 0.950 . S
H7466 C7495 0.950 . S
H7467 C7496 0.950 . S
H7468 C7498 0.950 . S
H7469 C7499 0.950 . S
C7470 H7452 0.951 . S
C7470 C7471 1.366 . S
C7470 C7472 1.388 . S
C7471 C7470 1.366 . S
C7471 C7475 1.385 . S
C7472 H7453 0.951 . S
C7472 C7470 1.388 . S
C7472 C7473 1.366 . S
C7473 C7472 1.366 . S
C7473 C7474 1.414 . S
C7473 C7476 1.499 . S
C7474 H7454 0.950 . S
C7474 C7473 1.414 . S
C7474 C7475 1.374 . S
C7475 H7455 0.950 . S
C7475 C7471 1.385 . S
C7475 C7474 1.374 . S
C7476 C7473 1.499 . S
C7476 C7477 1.373 . S
C7476 C7478 1.389 . S
C7477 H7456 0.950 . S
C7477 C7476 1.373 . S
C7477 C7493 1.377 . S
C7478 C7476 1.389 . S
C7478 C7479 1.524 . S
C7478 C7492 1.377 . S
C7479 C7478 1.524 . S
C7479 C7480 1.397 . S
C7479 C7484 1.363 . S
C7480 H7457 0.950 . S
C7480 C7479 1.397 . S
C7480 C7481 1.334 . S
C7481 H7458 0.950 . S
C7481 C7480 1.334 . S
C7481 C7482 1.287 . S
C7482 C7481 1.287 . S
C7482 C7483 1.524 . S
C7482 H7501 0.913 . S
C7483 H7459 0.950 . S
C7483 C7482 1.524 . S
C7483 C7484 1.415 . S
C7484 H7460 0.950 . S
C7484 C7479 1.363 . S
C7484 C7483 1.415 . S
C7485 H7461 0.951 . S
C7485 C7486 1.366 . S
C7485 C7487 1.388 . S
C7486 C7485 1.366 . S
C7486 C7490 1.385 . S
C7487 H7462 0.951 . S
C7487 C7485 1.388 . S
C7487 C7488 1.366 . S
C7488 C7487 1.366 . S
C7488 C7489 1.414 . S
C7488 C7491 1.499 . S
C7489 H7463 0.950 . S
C7489 C7488 1.414 . S
C7489 C7490 1.374 . S
C7490 H7464 0.950 . S
C7490 C7486 1.385 . S
C7490 C7489 1.374 . S
C7491 C7488 1.499 . S
C7491 C7492 1.373 . S
C7491 C7493 1.389 . S
C7492 H7465 0.950 . S
C7492 C7478 1.377 . S
C7492 C7491 1.373 . S
C7493 C7477 1.377 . S
C7493 C7491 1.389 . S
C7493 C7494 1.524 . S
C7494 C7493 1.524 . S
C7494 C7495 1.397 . S
C7494 C7499 1.363 . S
C7495 H7466 0.950 . S
C7495 C7494 1.397 . S
C7495 C7496 1.334 . S
C7496 H7467 0.950 . S
C7496 C7495 1.334 . S
C7496 C7497 1.287 . S
C7497 C7496 1.287 . S
C7497 C7498 1.524 . S
C7497 H7500 0.999 . S
C7498 H7468 0.950 . S
C7498 C7497 1.524 . S
C7498 C7499 1.415 . S
C7499 H7469 0.950 . S
C7499 C7494 1.363 . S
C7499 C7498 1.415 . S
H7500 C7497 0.999 . S
H7501 C7482 0.913 . S
H7502 C7520 0.951 . S
H7503 C7522 0.951 . S
H7504 C7524 0.950 . S
H7505 C7525 0.950 . S
H7506 C7527 0.950 . S
H7507 C7530 0.950 . S
H7508 C7531 0.950 . S
H7509 C7533 0.950 . S
H7510 C7534 0.950 . S
H7511 C7535 0.951 . S
H7512 C7537 0.951 . S
H7513 C7539 0.950 . S
H7514 C7540 0.950 . S
H7515 C7542 0.950 . S
H7516 C7545 0.950 . S
H7517 C7546 0.950 . S
H7518 C7548 0.950 . S
H7519 C7549 0.950 . S
C7520 H7502 0.951 . S
C7520 C7521 1.366 . S
C7520 C7522 1.388 . S
C7521 C7520 1.366 . S
C7521 C7525 1.385 . S
C7522 H7503 0.951 . S
C7522 C7520 1.388 . S
C7522 C7523 1.366 . S
C7523 C7522 1.366 . S
C7523 C7524 1.414 . S
C7523 C7526 1.499 . S
C7524 H7504 0.950 . S
C7524 C7523 1.414 . S
C7524 C7525 1.374 . S
C7525 H7505 0.950 . S
C7525 C7521 1.385 . S
C7525 C7524 1.374 . S
C7526 C7523 1.499 . S
C7526 C7527 1.373 . S
C7526 C7528 1.389 . S
C7527 H7506 0.950 . S
C7527 C7526 1.373 . S
C7527 C7543 1.377 . S
C7528 C7526 1.389 . S
C7528 C7529 1.524 . S
C7528 C7542 1.377 . S
C7529 C7528 1.524 . S
C7529 C7530 1.397 . S
C7529 C7534 1.363 . S
C7530 H7507 0.950 . S
C7530 C7529 1.397 . S
C7530 C7531 1.334 . S
C7531 H7508 0.950 . S
C7531 C7530 1.334 . S
C7531 C7532 1.287 . S
C7532 C7531 1.287 . S
C7532 C7533 1.524 . S
C7532 H7551 0.913 . S
C7533 H7509 0.950 . S
C7533 C7532 1.524 . S
C7533 C7534 1.415 . S
C7534 H7510 0.950 . S
C7534 C7529 1.363 . S
C7534 C7533 1.415 . S
C7535 H7511 0.951 . S
C7535 C7536 1.366 . S
C7535 C7537 1.388 . S
C7536 C7535 1.366 . S
C7536 C7540 1.385 . S
C7537 H7512 0.951 . S
C7537 C7535 1.388 . S
C7537 C7538 1.366 . S
C7538 C7537 1.366 . S
C7538 C7539 1.414 . S
C7538 C7541 1.499 . S
C7539 H7513 0.950 . S
C7539 C7538 1.414 . S
C7539 C7540 1.374 . S
C7540 H7514 0.950 . S
C7540 C7536 1.385 . S
C7540 C7539 1.374 . S
C7541 C7538 1.499 . S
C7541 C7542 1.373 . S
C7541 C7543 1.389 . S
C7542 H7515 0.950 . S
C7542 C7528 1.377 . S
C7542 C7541 1.373 . S
C7543 C7527 1.377 . S
C7543 C7541 1.389 . S
C7543 C7544 1.524 . S
C7544 C7543 1.524 . S
C7544 C7545 1.397 . S
C7544 C7549 1.363 . S
C7545 H7516 0.950 . S
C7545 C7544 1.397 . S
C7545 C7546 1.334 . S
C7546 H7517 0.950 . S
C7546 C7545 1.334 . S
C7546 C7547 1.287 . S
C7547 C7546 1.287 . S
C7547 C7548 1.524 . S
C7547 H7550 0.999 . S
C7548 H7518 0.950 . S
C7548 C7547 1.524 . S
C7548 C7549 1.415 . S
C7549 H7519 0.950 . S
C7549 C7544 1.363 . S
C7549 C7548 1.415 . S
H7550 C7547 0.999 . S
H7551 C7532 0.913 . S
C2771 C665 1.865 . S
C2786 C2125 1.885 . S
C2821 C381 1.971 . S
C2836 C2176 1.964 . S
C2871 C460 1.318 . S
C2886 C2205 1.352 . S
C2936 C2249 1.448 . S
C2921 C585 1.484 . S
C2971 C108 1.336 . S
C2986 C2289 1.308 . S
C3036 C2325 1.338 . S
C3021 C196 1.319 . S
C3086 C2375 1.603 . S
C3071 C313 1.604 . S
C3121 C49 2.036 . S
C3136 C2405 2.049 . S
C3186 C2135 1.680 . S
C3171 C1457 1.703 . S
C3221 C1545 0.153 . S
C3236 C2178 0.321 . S
C3286 C2215 1.079 . S
C3271 C1721 1.091 . S
C3336 C2245 1.284 . S
C3321 C1113 1.260 . S
C3371 C1428 1.307 . S
C3386 C2285 1.330 . S
C3436 C2335 0.797 . S
C3421 C1516 0.799 . S
C3486 C2369 0.546 . S
C3471 C1692 0.509 . S
C3536 C2415 1.684 . S
C3521 C1085 1.705 . S
C3586 C2129 0.791 . S
C3571 C988 0.791 . S
C3621 C1817 1.618 . S
C3636 C2455 1.600 . S
C3686 C2489 1.275 . S
C3671 C2081 1.307 . S
C3736 C2525 0.793 . S
C3721 C1993 0.793 . S
C3771 C761 1.210 . S
C3786 C2409 1.189 . S
C3821 C821 1.378 . S
C3836 C2209 1.339 . S
C3871 C2053 1.535 . S
C3886 C2575 1.519 . S
C3936 C2594 0.244 . S
C3921 C1868 0.273 . S
C3986 C2136 1.882 . S
C3971 C372 1.863 . S
C4036 C2605 1.960 . S
C4021 C645 1.971 . S
C4071 C577 1.313 . S
C4086 C2216 1.344 . S
C4121 C497 1.482 . S
C4136 C2578 1.446 . S
C4186 C2298 1.305 . S
C4171 C57 1.334 . S
C4221 C293 1.313 . S
C4236 C2496 1.332 . S
C4286 C2354 1.599 1_556 S
C4271 C205 1.598 . S
C4336 C2656 2.043 . S
C4321 C145 2.035 . S
C4386 C2114 1.675 . S
C4371 C909 1.698 . S
C4436 C2609 0.322 . S
C4421 C1956 0.141 . S
C4471 C724 1.086 . S
C4486 C2194 1.075 . S
C4521 C1780 1.256 . S
C4536 C2576 1.277 . S
C4571 C937 1.303 . S
C4586 C2296 1.322 . S
C4636 C2474 0.793 . S
C4621 C1985 0.794 . S
C4671 C753 0.504 . S
C4686 C2378 0.545 . S
C4721 C1809 1.700 . S
C4736 C2634 1.679 . S
C4771 C1173 0.790 . S
C4786 C2138 0.785 1_556 S
C4821 C1105 1.612 . S
C4836 C2434 1.596 . S
C4871 C1633 1.307 . S
C4886 C2338 1.273 . S
C4921 C1553 0.788 . S
C4936 C2536 0.786 . S
C4986 C2658 1.185 . S
C4971 C1729 1.208 . S
C5021 C1340 1.378 . S
C5036 C2218 1.337 . S
C5086 C2234 1.515 . S
C5071 C1604 1.530 . S
C5136 C2175 0.245 . S
C5121 C1252 0.270 . S
C5171 C489 1.865 . S
C5186 C2685 1.888 . S
C5236 C2616 1.964 . S
C5221 C557 1.971 . S
C5271 C636 1.318 . S
C5286 C2725 1.354 . S
C5321 C409 1.484 . S
C5336 C2569 1.449 . S
C5371 C284 1.336 . S
C5386 C2449 1.307 . S
C5436 C2485 1.339 . S
C5421 C20 1.318 . S
C5486 C2535 1.603 . S
C5471 C137 1.604 . S
C5536 C2645 2.049 . S
C5521 C225 2.037 . S
C5586 C2695 1.679 . S
C5571 C1641 1.702 . S
C5621 C1193 0.151 . S
C5636 C2618 0.319 . S
C5686 C2735 1.079 . S
C5671 C1289 1.091 . S
C5736 C2565 1.284 . S
C5721 C1377 1.261 . S
C5786 C2445 1.330 . S
C5771 C1613 1.308 . S
C5821 C1164 0.799 . S
C5836 C2495 0.797 . S
C5886 C2529 0.549 . S
C5871 C1261 0.510 . S
C5921 C1349 1.705 . S
C5936 C2655 1.683 . S
C5986 C2689 0.786 . S
C5971 C1965 0.791 . S
C6021 C849 1.617 . S
C6036 C2295 1.600 . S
C6086 C2329 1.275 . S
C6071 C929 1.307 . S
C6136 C2365 0.792 . S
C6121 C1017 0.793 . S
C6186 C2649 1.188 . S
C6171 C1897 1.209 . S
C6221 C1789 1.378 . S
C6236 C2729 1.339 . S
C6286 C2255 1.519 . S
C6271 C900 1.535 . S
C6336 C2154 0.243 . S
C6321 C733 0.272 . S
C6371 C548 1.863 . S
C6386 C2696 1.882 . S
C6436 C2165 1.960 . S
C6421 C469 1.964 . S
C6471 C401 1.312 . S
C6486 C2736 1.344 . S
C6521 C673 1.482 . S
C6536 C2258 1.438 . S
C6571 C233 1.334 . S
C6586 C2458 1.305 . S
C6636 C2336 1.332 . S
C6621 C117 1.313 . S
C6671 C29 1.598 . S
C6686 C2514 1.599 . S
C6721 C321 2.035 . S
C6736 C2416 2.044 . S
C6786 C2674 1.674 . S
C6771 C2044 1.697 . S
C6821 C997 0.139 . S
C6836 C2169 0.318 . S
C6886 C2714 1.075 . S
C6871 C1877 1.086 . S
C6921 C812 1.256 . S
C6936 C2256 1.277 . S
C6971 C2073 1.303 . S
C6986 C2456 1.323 . S
C7036 C2314 0.792 . S
C7021 C1025 0.800 . S
C7071 C1905 0.504 . S
C7086 C2538 0.545 . S
C7136 C2394 1.679 . S
C7121 C841 1.700 . S
C7186 C2698 0.786 . S
C7171 C1525 0.790 . S
C7236 C2274 1.596 . S
C7221 C1369 1.613 . S
C7271 C1465 1.307 . S
C7286 C2498 1.274 . S
C7336 C2376 0.786 . S
C7321 C1201 0.788 . S
C7371 C1281 1.209 . S
C7386 C2418 1.185 . S
C7421 C1076 1.378 . S
C7436 C2738 1.338 . S
C7486 C2554 1.515 . S
C7471 C1437 1.530 . S
C7536 C2615 0.244 . S
C7521 C1701 0.271 . S
