# Generated by pormake.
# Topology eea, (3,6)-cn, num edge types: 1
# Building blocks:
#     Node 0, Type 0, BuildingBlock: OLANEW_clean_sbu_2, # of connection points: 3
#     Node 1, Type 0, BuildingBlock: OLANEW_clean_sbu_2, # of connection points: 3
#     Node 2, Type 0, BuildingBlock: OLANEW_clean_sbu_2, # of connection points: 3
#     Node 3, Type 0, BuildingBlock: OLANEW_clean_sbu_2, # of connection points: 3
#     Node 4, Type 0, BuildingBlock: OLANEW_clean_sbu_2, # of connection points: 3
#     Node 5, Type 0, BuildingBlock: OLANEW_clean_sbu_2, # of connection points: 3
#     Node 6, Type 0, BuildingBlock: OLANEW_clean_sbu_2, # of connection points: 3
#     Node 7, Type 0, BuildingBlock: OLANEW_clean_sbu_2, # of connection points: 3
#     Node 8, Type 0, BuildingBlock: OLANEW_clean_sbu_2, # of connection points: 3
#     Node 9, Type 0, BuildingBlock: OLANEW_clean_sbu_2, # of connection points: 3
#     Node 10, Type 0, BuildingBlock: OLANEW_clean_sbu_2, # of connection points: 3
#     Node 11, Type 0, BuildingBlock: OLANEW_clean_sbu_2, # of connection points: 3
#     Node 12, Type 0, BuildingBlock: OLANEW_clean_sbu_2, # of connection points: 3
#     Node 13, Type 0, BuildingBlock: OLANEW_clean_sbu_2, # of connection points: 3
#     Node 14, Type 0, BuildingBlock: OLANEW_clean_sbu_2, # of connection points: 3
#     Node 15, Type 0, BuildingBlock: OLANEW_clean_sbu_2, # of connection points: 3
#     Node 16, Type 0, BuildingBlock: OLANEW_clean_sbu_2, # of connection points: 3
#     Node 17, Type 0, BuildingBlock: OLANEW_clean_sbu_2, # of connection points: 3
#     Node 18, Type 1, BuildingBlock: CIFDUS_clean_sbu_1, # of connection points: 6
#     Node 19, Type 1, BuildingBlock: CIFDUS_clean_sbu_1, # of connection points: 6
#     Node 20, Type 1, BuildingBlock: CIFDUS_clean_sbu_1, # of connection points: 6
#     Node 21, Type 1, BuildingBlock: CIFDUS_clean_sbu_1, # of connection points: 6
#     Node 22, Type 1, BuildingBlock: CIFDUS_clean_sbu_1, # of connection points: 6
#     Node 23, Type 1, BuildingBlock: CIFDUS_clean_sbu_1, # of connection points: 6
#     Node 24, Type 1, BuildingBlock: CIFDUS_clean_sbu_1, # of connection points: 6
#     Node 25, Type 1, BuildingBlock: CIFDUS_clean_sbu_1, # of connection points: 6
#     Node 26, Type 1, BuildingBlock: CIFDUS_clean_sbu_1, # of connection points: 6
#     Edge 27, Type (0, 1), BuildingBlock: UVAHIK_clean_linker_0, # of connection points: 2
#     Edge 28, Type (0, 1), BuildingBlock: UVAHIK_clean_linker_0, # of connection points: 2
#     Edge 29, Type (0, 1), BuildingBlock: UVAHIK_clean_linker_0, # of connection points: 2
#     Edge 30, Type (0, 1), BuildingBlock: UVAHIK_clean_linker_0, # of connection points: 2
#     Edge 31, Type (0, 1), BuildingBlock: UVAHIK_clean_linker_0, # of connection points: 2
#     Edge 32, Type (0, 1), BuildingBlock: UVAHIK_clean_linker_0, # of connection points: 2
#     Edge 33, Type (0, 1), BuildingBlock: UVAHIK_clean_linker_0, # of connection points: 2
#     Edge 34, Type (0, 1), BuildingBlock: UVAHIK_clean_linker_0, # of connection points: 2
#     Edge 35, Type (0, 1), BuildingBlock: UVAHIK_clean_linker_0, # of connection points: 2
#     Edge 36, Type (0, 1), BuildingBlock: UVAHIK_clean_linker_0, # of connection points: 2
#     Edge 37, Type (0, 1), BuildingBlock: UVAHIK_clean_linker_0, # of connection points: 2
#     Edge 38, Type (0, 1), BuildingBlock: UVAHIK_clean_linker_0, # of connection points: 2
#     Edge 39, Type (0, 1), BuildingBlock: UVAHIK_clean_linker_0, # of connection points: 2
#     Edge 40, Type (0, 1), BuildingBlock: UVAHIK_clean_linker_0, # of connection points: 2
#     Edge 41, Type (0, 1), BuildingBlock: UVAHIK_clean_linker_0, # of connection points: 2
#     Edge 42, Type (0, 1), BuildingBlock: UVAHIK_clean_linker_0, # of connection points: 2
#     Edge 43, Type (0, 1), BuildingBlock: UVAHIK_clean_linker_0, # of connection points: 2
#     Edge 44, Type (0, 1), BuildingBlock: UVAHIK_clean_linker_0, # of connection points: 2
#     Edge 45, Type (0, 1), BuildingBlock: UVAHIK_clean_linker_0, # of connection points: 2
#     Edge 46, Type (0, 1), BuildingBlock: UVAHIK_clean_linker_0, # of connection points: 2
#     Edge 47, Type (0, 1), BuildingBlock: UVAHIK_clean_linker_0, # of connection points: 2
#     Edge 48, Type (0, 1), BuildingBlock: UVAHIK_clean_linker_0, # of connection points: 2
#     Edge 49, Type (0, 1), BuildingBlock: UVAHIK_clean_linker_0, # of connection points: 2
#     Edge 50, Type (0, 1), BuildingBlock: UVAHIK_clean_linker_0, # of connection points: 2
#     Edge 51, Type (0, 1), BuildingBlock: UVAHIK_clean_linker_0, # of connection points: 2
#     Edge 52, Type (0, 1), BuildingBlock: UVAHIK_clean_linker_0, # of connection points: 2
#     Edge 53, Type (0, 1), BuildingBlock: UVAHIK_clean_linker_0, # of connection points: 2
#     Edge 54, Type (0, 1), BuildingBlock: UVAHIK_clean_linker_0, # of connection points: 2
#     Edge 55, Type (0, 1), BuildingBlock: UVAHIK_clean_linker_0, # of connection points: 2
#     Edge 56, Type (0, 1), BuildingBlock: UVAHIK_clean_linker_0, # of connection points: 2
#     Edge 57, Type (0, 1), BuildingBlock: UVAHIK_clean_linker_0, # of connection points: 2
#     Edge 58, Type (0, 1), BuildingBlock: UVAHIK_clean_linker_0, # of connection points: 2
#     Edge 59, Type (0, 1), BuildingBlock: UVAHIK_clean_linker_0, # of connection points: 2
#     Edge 60, Type (0, 1), BuildingBlock: UVAHIK_clean_linker_0, # of connection points: 2
#     Edge 61, Type (0, 1), BuildingBlock: UVAHIK_clean_linker_0, # of connection points: 2
#     Edge 62, Type (0, 1), BuildingBlock: UVAHIK_clean_linker_0, # of connection points: 2
#     Edge 63, Type (0, 1), BuildingBlock: UVAHIK_clean_linker_0, # of connection points: 2
#     Edge 64, Type (0, 1), BuildingBlock: UVAHIK_clean_linker_0, # of connection points: 2
#     Edge 65, Type (0, 1), BuildingBlock: UVAHIK_clean_linker_0, # of connection points: 2
#     Edge 66, Type (0, 1), BuildingBlock: UVAHIK_clean_linker_0, # of connection points: 2
#     Edge 67, Type (0, 1), BuildingBlock: UVAHIK_clean_linker_0, # of connection points: 2
#     Edge 68, Type (0, 1), BuildingBlock: UVAHIK_clean_linker_0, # of connection points: 2
#     Edge 69, Type (0, 1), BuildingBlock: UVAHIK_clean_linker_0, # of connection points: 2
#     Edge 70, Type (0, 1), BuildingBlock: UVAHIK_clean_linker_0, # of connection points: 2
#     Edge 71, Type (0, 1), BuildingBlock: UVAHIK_clean_linker_0, # of connection points: 2
#     Edge 72, Type (0, 1), BuildingBlock: UVAHIK_clean_linker_0, # of connection points: 2
#     Edge 73, Type (0, 1), BuildingBlock: UVAHIK_clean_linker_0, # of connection points: 2
#     Edge 74, Type (0, 1), BuildingBlock: UVAHIK_clean_linker_0, # of connection points: 2
#     Edge 75, Type (0, 1), BuildingBlock: UVAHIK_clean_linker_0, # of connection points: 2
#     Edge 76, Type (0, 1), BuildingBlock: UVAHIK_clean_linker_0, # of connection points: 2
#     Edge 77, Type (0, 1), BuildingBlock: UVAHIK_clean_linker_0, # of connection points: 2
#     Edge 78, Type (0, 1), BuildingBlock: UVAHIK_clean_linker_0, # of connection points: 2
#     Edge 79, Type (0, 1), BuildingBlock: UVAHIK_clean_linker_0, # of connection points: 2
#     Edge 80, Type (0, 1), BuildingBlock: UVAHIK_clean_linker_0, # of connection points: 2
# Relax obj value: 0.064
# Max RMSD: 0.118
# Mean RMSD: 0.083
data_MOF--net-eea--node1-OLANEW_clean_sbu_2--node2-CIFDUS_clean_sbu_1--edge1-UVAHIK_clean_linker_0
_symmetry_space_group_name_H-M    P1
_symmetry_Int_Tables_number       1
_symmetry_cell_setting            triclinic
loop_
_symmetry_equiv_pos_as_xyz
'x, y, z'
_cell_length_a     80.104748
_cell_length_b     78.47028
_cell_length_c     58.31307
_cell_angle_alpha  94.682738
_cell_angle_beta   90.23862
_cell_angle_gamma 120.41752
loop_
_atom_site_label
_atom_site_type_symbol
_atom_site_fract_x
_atom_site_fract_y
_atom_site_fract_z
_atom_type_partial_charge
O0 O 0.16513 0.10403 0.49551 0.0
Cd1 Cd 0.14103 0.09648 0.46437 0.0
O2 O 0.17643 0.08525 0.48064 0.0
Cd3 Cd 0.15626 0.06904 0.45087 0.0
O4 O 0.14858 0.04282 0.4269 0.0
C5 C 0.1375 0.02547 0.43287 0.0
O6 O 0.1293 0.02355 0.45271 0.0
C7 C 0.17697 0.09777 0.49637 0.0
C8 C 0.14654 0.13069 0.44557 0.0
O9 O 0.13635 0.12453 0.46318 0.0
O10 O 0.15415 0.12078 0.43701 0.0
O11 O 0.92499 0.10509 0.41114 0.0
Cd12 Cd 0.94323 0.09675 0.38342 0.0
O13 O 0.92021 0.08021 0.43006 0.0
Cd14 Cd 0.90643 0.05688 0.4533 0.0
O15 O 0.88462 0.02913 0.46572 0.0
C16 C 0.87068 0.02909 0.47603 0.0
O17 O 0.87102 0.04596 0.48038 0.0
C18 C 0.91714 0.09437 0.42752 0.0
C19 C 0.97723 0.12952 0.37118 0.0
O20 O 0.96076 0.12473 0.36175 0.0
O21 O 0.97762 0.11894 0.38657 0.0
O22 O 0.89576 0.78039 0.41445 0.0
Cd23 Cd 0.90169 0.79731 0.37928 0.0
O24 O 0.87004 0.75347 0.39834 0.0
Cd25 Cd 0.86569 0.76965 0.37238 0.0
O26 O 0.84727 0.78239 0.36735 0.0
C27 C 0.83906 0.78342 0.3856 0.0
O28 O 0.84287 0.77752 0.40436 0.0
C29 C 0.88258 0.76232 0.41507 0.0
C30 C 0.93632 0.80335 0.36085 0.0
O31 O 0.93594 0.81702 0.37405 0.0
O32 O 0.92033 0.78694 0.35617 0.0
O33 O 0.13139 0.22634 0.59692 0.0
Cd34 Cd 0.11501 0.20986 0.63074 0.0
O35 O 0.117 0.24397 0.59705 0.0
Cd36 Cd 0.0952 0.22862 0.62211 0.0
O37 O 0.06687 0.219 0.63669 0.0
C38 C 0.05167 0.20591 0.62495 0.0
O39 O 0.05358 0.19781 0.60525 0.0
C40 C 0.1294 0.23985 0.58893 0.0
C41 C 0.14062 0.2056 0.65922 0.0
O42 O 0.12879 0.19133 0.64458 0.0
O43 O 0.14016 0.22174 0.66061 0.0
O44 O 0.85562 0.89883 0.5423 0.0
Cd45 Cd 0.88669 0.90048 0.549 0.0
O46 O 0.86994 0.93017 0.53564 0.0
Cd47 Cd 0.87075 0.958 0.53102 0.0
O48 O 0.87033 0.98571 0.53266 0.0
C49 C 0.85399 0.9847 0.53279 0.0
O50 O 0.83815 0.96713 0.53122 0.0
C51 C 0.85444 0.91375 0.5376 0.0
C52 C 0.88231 0.86576 0.56485 0.0
O53 O 0.88217 0.87926 0.57864 0.0
O54 O 0.88449 0.86858 0.54346 0.0
O55 O 0.10077 0.91127 0.58389 0.0
Cd56 Cd 0.091 0.92108 0.62007 0.0
O57 O 0.12082 0.90484 0.60193 0.0
Cd58 Cd 0.1205 0.92113 0.6338 0.0
O59 O 0.13516 0.94979 0.65431 0.0
C60 C 0.13578 0.96465 0.64622 0.0
O61 O 0.12619 0.96193 0.62665 0.0
C62 C 0.11233 0.90461 0.58334 0.0
C63 C 0.0623 0.88776 0.63942 0.0
O64 O 0.05784 0.89735 0.62629 0.0
O65 O 0.08031 0.89403 0.64357 0.0
O66 O 0.81984 0.42348 0.81937 0.0
Cd67 Cd 0.79683 0.4188 0.78813 0.0
O68 O 0.82596 0.40016 0.80569 0.0
Cd69 Cd 0.8064 0.38607 0.77506 0.0
O70 O 0.79975 0.36056 0.75039 0.0
C71 C 0.78987 0.3431 0.75659 0.0
O72 O 0.78234 0.34076 0.77687 0.0
C73 C 0.82887 0.4141 0.82089 0.0
C74 C 0.8047 0.45447 0.77101 0.0
O75 O 0.79412 0.44815 0.78829 0.0
O76 O 0.81166 0.44407 0.76202 0.0
O77 O 0.59665 0.4308 0.7437 0.0
Cd78 Cd 0.61462 0.42162 0.71649 0.0
O79 O 0.59184 0.40639 0.76354 0.0
Cd80 Cd 0.57792 0.38373 0.78756 0.0
O81 O 0.55552 0.35664 0.80065 0.0
C82 C 0.54243 0.35756 0.81191 0.0
O83 O 0.54397 0.37496 0.81685 0.0
C84 C 0.58887 0.42054 0.76044 0.0
C85 C 0.64817 0.45402 0.70277 0.0
O86 O 0.63154 0.44869 0.69339 0.0
O87 O 0.64895 0.44413 0.71877 0.0
O88 O 0.55098 0.10203 0.74306 0.0
Cd89 Cd 0.55992 0.12033 0.70871 0.0
O90 O 0.52509 0.07673 0.72481 0.0
Cd91 Cd 0.5237 0.09502 0.69936 0.0
O92 O 0.50742 0.11021 0.69522 0.0
C93 C 0.5009 0.11312 0.71406 0.0
O94 O 0.5052 0.10767 0.73288 0.0
C95 C 0.53682 0.08428 0.74242 0.0
C96 C 0.59479 0.12542 0.692 0.0
O97 O 0.59452 0.13911 0.70531 0.0
O98 O 0.57862 0.10939 0.68655 0.0
O99 O 0.80366 0.56797 0.94323 0.0
Cd100 Cd 0.78979 0.55053 0.97727 0.0
O101 O 0.78938 0.58573 0.94477 0.0
Cd102 Cd 0.76878 0.57006 0.97073 0.0
O103 O 0.73995 0.55886 0.98434 0.0
C104 C 0.72545 0.54491 0.97235 0.0
O105 O 0.72853 0.53699 0.95329 0.0
C106 C 0.80136 0.58143 0.93569 0.0
C107 C 0.81823 0.54509 0.99744 0.0
O108 O 0.80569 0.53209 0.98223 0.0
O109 O 0.81687 0.56034 0.00381 0.0
O110 O 0.52042 0.22247 0.86639 0.0
Cd111 Cd 0.54987 0.2201 0.86412 0.0
O112 O 0.53624 0.25441 0.86222 0.0
Cd113 Cd 0.53854 0.28348 0.86172 0.0
O114 O 0.53906 0.31175 0.86598 0.0
C115 C 0.52301 0.31119 0.86799 0.0
O116 O 0.50696 0.29383 0.86698 0.0
C117 C 0.52034 0.23849 0.86458 0.0
C118 C 0.54808 0.18844 0.88541 0.0
O119 O 0.55524 0.20576 0.89625 0.0
O120 O 0.54151 0.18596 0.86458 0.0
O121 O 0.75986 0.23652 0.90776 0.0
Cd122 Cd 0.74871 0.24535 0.94345 0.0
O123 O 0.78679 0.24115 0.92424 0.0
Cd124 Cd 0.78518 0.25797 0.95494 0.0
O125 O 0.80137 0.28711 0.97445 0.0
C126 C 0.80617 0.30225 0.96365 0.0
O127 O 0.79987 0.29957 0.94207 0.0
C128 C 0.77515 0.23542 0.90666 0.0
C129 C 0.71616 0.21197 0.958 0.0
O130 O 0.71444 0.2226 0.94368 0.0
O131 O 0.73328 0.21721 0.96567 0.0
O132 O 0.50119 0.75847 0.15336 0.0
Cd133 Cd 0.48004 0.75217 0.11933 0.0
O134 O 0.51357 0.74036 0.1397 0.0
Cd135 Cd 0.49391 0.72395 0.10956 0.0
O136 O 0.48295 0.69574 0.08804 0.0
C137 C 0.48701 0.68366 0.0963 0.0
O138 O 0.49659 0.68888 0.1164 0.0
C139 C 0.51315 0.75244 0.15528 0.0
C140 C 0.48547 0.78788 0.10497 0.0
O141 O 0.47215 0.77811 0.11866 0.0
O142 O 0.49605 0.78073 0.09803 0.0
O143 O 0.25653 0.75903 0.09533 0.0
Cd144 Cd 0.27152 0.74662 0.06724 0.0
O145 O 0.24682 0.73501 0.11809 0.0
Cd146 Cd 0.25453 0.7166 0.09589 0.0
O147 O 0.2373 0.68578 0.08132 0.0
C148 C 0.2245 0.67467 0.09454 0.0
O149 O 0.22411 0.68225 0.11535 0.0
C150 C 0.24829 0.75123 0.11337 0.0
C151 C 0.3044 0.77771 0.04981 0.0
O152 O 0.28733 0.77217 0.04168 0.0
O153 O 0.30599 0.76855 0.06614 0.0
O154 O 0.22482 0.43742 0.0685 0.0
Cd155 Cd 0.23171 0.45347 0.03258 0.0
O156 O 0.20462 0.40805 0.05061 0.0
Cd157 Cd 0.2006 0.42149 0.02132 0.0
O158 O 0.18162 0.43317 0.0144 0.0
C159 C 0.17267 0.43377 0.03212 0.0
O160 O 0.17612 0.42798 0.0512 0.0
C161 C 0.21418 0.41871 0.06885 0.0
C162 C 0.26525 0.45653 0.01424 0.0
O163 O 0.26599 0.47096 0.02713 0.0
O164 O 0.24866 0.44076 0.00985 0.0
O165 O 0.464 0.88895 0.26435 0.0
Cd166 Cd 0.44737 0.87435 0.29888 0.0
O167 O 0.45518 0.9114 0.26746 0.0
Cd168 Cd 0.43379 0.89861 0.29363 0.0
O169 O 0.407 0.89439 0.30854 0.0
C170 C 0.392 0.8775 0.31018 0.0
O171 O 0.39262 0.86137 0.30392 0.0
C172 C 0.46484 0.90436 0.25761 0.0
C173 C 0.47246 0.86991 0.32792 0.0
O174 O 0.4601 0.85537 0.31395 0.0
O175 O 0.47271 0.88639 0.32846 0.0
O176 O 0.19969 0.58278 0.21816 0.0
Cd177 Cd 0.22786 0.583 0.23559 0.0
O178 O 0.21667 0.61436 0.2121 0.0
Cd179 Cd 0.21851 0.64189 0.20299 0.0
O180 O 0.21817 0.66972 0.20332 0.0
C181 C 0.20204 0.6688 0.19983 0.0
O182 O 0.1864 0.65127 0.19516 0.0
C183 C 0.20058 0.59805 0.2108 0.0
C184 C 0.22105 0.54588 0.24666 0.0
O185 O 0.21703 0.55673 0.26047 0.0
O186 O 0.228 0.55238 0.2274 0.0
O187 O 0.43281 0.5781 0.23228 0.0
Cd188 Cd 0.4222 0.58886 0.26711 0.0
O189 O 0.45356 0.57328 0.25134 0.0
Cd190 Cd 0.45195 0.58928 0.28276 0.0
O191 O 0.46625 0.61687 0.30535 0.0
C192 C 0.46833 0.63261 0.29799 0.0
O193 O 0.46036 0.63143 0.27774 0.0
C194 C 0.44493 0.57216 0.23246 0.0
C195 C 0.3918 0.55625 0.2857 0.0
O196 O 0.38859 0.56493 0.27002 0.0
O197 O 0.40942 0.56312 0.29282 0.0
O198 O 0.48727 0.96376 0.9987 0.0
Mn199 Mn 0.51503 0.98906 0.99956 0.0
O200 O 0.4681 0.97256 0.01788 0.0
Mn201 Mn 0.48815 0.997 0.03047 0.0
O202 O 0.54281 0.01407 -7e-05 0.0
O203 O 0.52554 0.97116 0.99054 0.0
Mn204 Mn 0.54008 0.97961 0.96673 0.0
O205 O 0.51025 0.992 0.96505 0.0
O206 O 0.55997 0.0052 0.97644 0.0
O207 O 0.51979 0.98627 0.03415 0.0
O208 O 0.50226 0.99622 0.05519 0.0
O209 O 0.5409 0.95769 0.9745 0.0
O210 O 0.52392 0.97815 0.9429 0.0
C211 C 0.50105 0.02158 0.00983 0.0
C212 C 0.47061 0.95984 0.00575 0.0
C213 C 0.5585 0.01803 0.98991 0.0
C214 C 0.52981 0.95735 0.99076 0.0
C215 C 0.51356 0.98619 0.94521 0.0
C216 C 0.51435 0.99021 0.05362 0.0
O217 O 0.50463 0.00718 0.00863 0.0
O218 O 0.48876 0.02005 0.02506 0.0
O219 O 0.02037 0.49321 0.0346 0.0
Mn220 Mn 0.0059 0.50889 0.03542 0.0
O221 O 0.01603 0.48065 0.06906 0.0
Mn222 Mn 1.00003 0.48952 0.08192 0.0
O223 O 0.99127 0.52457 0.03639 0.0
O224 O 0.02369 0.52609 0.01246 0.0
Mn225 Mn 0.01113 0.52887 0.98969 0.0
O226 O 0.986 0.48938 0.00902 0.0
O227 O 0.99798 0.5404 0.00406 0.0
O228 O 0.02554 0.52832 0.06246 0.0
O229 O 0.01357 0.5153 0.09576 0.0
O230 O 0.03732 0.54328 0.98393 0.0
O231 O 0.99488 0.50344 0.97571 0.0
C232 C 0.97204 0.47741 0.06375 0.0
C233 C 0.02345 0.4836 0.04929 0.0
C234 C 0.98958 0.536 0.02312 0.0
C235 C 0.03964 0.53731 0.00306 0.0
C236 C 0.9839 0.48891 0.98706 0.0
C237 C 0.0259 0.52936 0.0847 0.0
O238 O 0.98823 0.49156 0.05792 0.0
O239 O 0.97345 0.47164 0.08341 0.0
O240 O 0.52023 0.50212 0.9736 0.0
Mn241 Mn 0.49057 0.49161 0.96959 0.0
O242 O 0.53528 0.52777 0.95182 0.0
Mn243 Mn 0.51312 0.52512 0.93748 0.0
O244 O 0.46097 0.48143 0.96601 0.0
O245 O 0.48503 0.46571 0.98016 0.0
Mn246 Mn 0.46834 0.45814 0.00191 0.0
O247 O 0.49063 0.50292 0.00348 0.0
O248 O 0.4462 0.45642 0.9888 0.0
O249 O 0.49039 0.48009 0.93569 0.0
O250 O 0.5021 0.5053 0.91327 0.0
O251 O 0.47352 0.43784 0.99491 0.0
O252 O 0.48054 0.47785 0.02606 0.0
C253 C 0.49563 0.53355 0.9579 0.0
C254 C 0.53567 0.51634 0.96601 0.0
C255 C 0.44574 0.46776 0.97458 0.0
C256 C 0.48436 0.44894 0.97964 0.0
C257 C 0.48747 0.49615 0.02338 0.0
C258 C 0.49453 0.48689 0.91582 0.0
O259 O 0.4961 0.51747 0.95888 0.0
O260 O 0.50643 0.54454 0.94254 0.0
O261 O 0.16684 0.31371 0.3352 0.0
Mn262 Mn 0.19528 0.33757 0.33732 0.0
O263 O 0.14848 0.32438 0.35317 0.0
Mn264 Mn 0.16883 0.34866 0.36606 0.0
O265 O 0.22376 0.36161 0.3393 0.0
O266 O 0.20423 0.31805 0.32952 0.0
Mn267 Mn 0.22122 0.3269 0.30796 0.0
O268 O 0.19278 0.34118 0.30254 0.0
O269 O 0.24179 0.35113 0.32027 0.0
O270 O 0.1977 0.33427 0.37232 0.0
O271 O 0.18163 0.34707 0.39168 0.0
O272 O 0.21867 0.30315 0.31443 0.0
O273 O 0.20825 0.32819 0.28237 0.0
C274 C 0.18398 0.3717 0.34345 0.0
C275 C 0.15037 0.31101 0.3415 0.0
C276 C 0.24011 0.36455 0.33211 0.0
C277 C 0.20626 0.30267 0.3289 0.0
C278 C 0.19779 0.33617 0.28341 0.0
C279 C 0.19216 0.33912 0.39121 0.0
O280 O 0.18614 0.35667 0.345 0.0
O281 O 0.17187 0.37238 0.35754 0.0
O282 O 0.67855 0.83112 0.40034 0.0
Mn283 Mn 0.65901 0.84118 0.40341 0.0
O284 O 0.67108 0.80942 0.42714 0.0
Mn285 Mn 0.65081 0.81143 0.44023 0.0
O286 O 0.63916 0.85084 0.40635 0.0
O287 O 0.67774 0.86586 0.38945 0.0
Mn288 Mn 0.66679 0.871 0.36697 0.0
O289 O 0.64584 0.8269 0.37096 0.0
O290 O 0.64684 0.87326 0.38044 0.0
O291 O 0.67205 0.85554 0.43601 0.0
O292 O 0.65896 0.83306 0.46185 0.0
O293 O 0.69218 0.89199 0.37122 0.0
O294 O 0.65836 0.84943 0.34505 0.0
C295 C 0.62459 0.80025 0.41883 0.0
C296 C 0.68149 0.81902 0.41092 0.0
C297 C 0.63629 0.86317 0.39623 0.0
C298 C 0.69334 0.88258 0.38779 0.0
C299 C 0.64766 0.83166 0.35014 0.0
C300 C 0.67004 0.85082 0.45692 0.0
O301 O 0.64046 0.81664 0.41732 0.0
O302 O 0.62511 0.79076 0.43565 0.0
O303 O 0.19141 0.84905 0.31931 0.0
Mn304 Mn 0.16194 0.83971 0.31492 0.0
O305 O 0.20789 0.87747 0.30229 0.0
Mn306 Mn 0.1866 0.87634 0.28766 0.0
O307 O 0.13263 0.83068 0.31106 0.0
O308 O 0.15514 0.81242 0.32164 0.0
Mn309 Mn 0.13788 0.80329 0.3427 0.0
O310 O 0.16146 0.84817 0.34981 0.0
O311 O 0.11648 0.80371 0.33069 0.0
O312 O 0.16232 0.83111 0.28017 0.0
O313 O 0.17667 0.85858 0.26138 0.0
O314 O 0.14229 0.78296 0.33234 0.0
O315 O 0.15003 0.8208 0.36877 0.0
C316 C 0.16827 0.88309 0.30875 0.0
C317 C 0.20736 0.86419 0.31412 0.0
C318 C 0.11689 0.81662 0.31828 0.0
C319 C 0.15374 0.79531 0.31842 0.0
C320 C 0.15755 0.83952 0.36853 0.0
C321 C 0.16799 0.83975 0.26157 0.0
O322 O 0.16851 0.86679 0.30769 0.0
O323 O 0.17996 0.89557 0.29513 0.0
O324 O 0.83334 0.64284 0.67027 0.0
Mn325 Mn 0.86101 0.6679 0.67503 0.0
O326 O 0.81262 0.65103 0.68679 0.0
Mn327 Mn 0.83112 0.67592 0.70068 0.0
O328 O 0.88874 0.69314 0.67982 0.0
O329 O 0.872 0.65005 0.66832 0.0
Mn330 Mn 0.89128 0.66097 0.64973 0.0
O331 O 0.86079 0.67243 0.64034 0.0
O332 O 0.90991 0.68461 0.66578 0.0
O333 O 0.86149 0.66406 0.71018 0.0
O334 O 0.84343 0.67548 0.72744 0.0
O335 O 0.88849 0.63683 0.65517 0.0
O336 O 0.88083 0.66387 0.62276 0.0
C337 C 0.84624 0.69925 0.67843 0.0
C338 C 0.81615 0.63871 0.67532 0.0
C339 C 0.90614 0.69709 0.67626 0.0
C340 C 0.87441 0.63492 0.66764 0.0
C341 C 0.8688 0.66997 0.62233 0.0
C342 C 0.85479 0.66854 0.72829 0.0
O343 O 0.84963 0.6852 0.68121 0.0
O344 O 0.83288 0.69883 0.69113 0.0
O345 O 0.34566 0.16774 0.7364 0.0
Mn346 Mn 0.32647 0.17817 0.74052 0.0
O347 O 0.33809 0.14537 0.76239 0.0
Mn348 Mn 0.31805 0.14745 0.77606 0.0
O349 O 0.30687 0.18813 0.74433 0.0
O350 O 0.34545 0.20314 0.72734 0.0
Mn351 Mn 0.33482 0.20926 0.70551 0.0
O352 O 0.31321 0.16487 0.70784 0.0
O353 O 0.31499 0.21143 0.71947 0.0
O354 O 0.33972 0.19167 0.77335 0.0
O355 O 0.32646 0.16859 0.79843 0.0
O356 O 0.36039 0.22985 0.71023 0.0
O357 O 0.32612 0.18818 0.68284 0.0
C358 C 0.2917 0.13692 0.75525 0.0
C359 C 0.34845 0.15526 0.74631 0.0
C360 C 0.30421 0.20086 0.73481 0.0
C361 C 0.36128 0.21973 0.72613 0.0
C362 C 0.31514 0.17026 0.68729 0.0
C363 C 0.33775 0.18645 0.79404 0.0
O364 O 0.30766 0.15325 0.75371 0.0
O365 O 0.29228 0.12706 0.77164 0.0
O366 O 0.8499 0.17175 0.64272 0.0
Mn367 Mn 0.82027 0.16189 0.63999 0.0
O368 O 0.86487 0.19797 0.62173 0.0
Mn369 Mn 0.84269 0.19607 0.60847 0.0
O370 O 0.79077 0.15239 0.63767 0.0
O371 O 0.81439 0.13566 0.64969 0.0
Mn372 Mn 0.79821 0.1281 0.67198 0.0
O373 O 0.82137 0.17296 0.67427 0.0
O374 O 0.77606 0.12718 0.66018 0.0
O375 O 0.81916 0.1508 0.60564 0.0
O376 O 0.83098 0.17657 0.58399 0.0
O377 O 0.80273 0.10748 0.66367 0.0
O378 O 0.81128 0.14749 0.69624 0.0
C379 C 0.82554 0.20407 0.63034 0.0
C380 C 0.8653 0.186 0.63506 0.0
C381 C 0.77558 0.13892 0.64655 0.0
C382 C 0.8134 0.11873 0.6484 0.0
C383 C 0.81851 0.16592 0.694 0.0
C384 C 0.82314 0.15802 0.58598 0.0
O385 O 0.82604 0.18797 0.63019 0.0
O386 O 0.83623 0.21558 0.61531 0.0
C387 C 0.3201 0.80868 0.02959 0.0
C388 C 0.32172 0.79441 0.04087 0.0
C389 C 0.33655 0.82495 0.02199 0.0
C390 C 0.39055 0.85328 0.03052 0.0
H391 H 0.38658 0.87959 0.97904 0.0
C392 C 0.45647 0.92291 0.99935 0.0
C393 C 0.4538 0.93935 0.00173 0.0
C394 C 0.44066 0.90365 0.00011 0.0
C395 C 0.38789 0.87227 0.99333 0.0
H396 H 0.34172 0.78555 0.05228 0.0
H397 H 0.37029 0.81329 0.03805 0.0
H398 H 0.35853 0.84849 0.98814 0.0
H399 H 0.43229 0.94832 0.00471 0.0
H400 H 0.4047 0.91468 0.00508 0.0
H401 H 0.42009 0.87707 0.03531 0.0
C402 C 0.35648 0.81248 0.0358 0.0
C403 C 0.37177 0.85455 0.99876 0.0
C404 C 0.34006 0.79644 0.04386 0.0
C405 C 0.43485 0.93599 0.00302 0.0
C406 C 0.41904 0.91674 0.00316 0.0
C407 C 0.40676 0.87076 0.02474 0.0
C408 C 0.35503 0.82715 0.02502 0.0
C409 C 0.37271 0.84502 0.0178 0.0
C410 C 0.42187 0.90047 0.00248 0.0
C411 C 0.40546 0.88062 0.00642 0.0
H412 H 0.30616 0.80759 0.02718 0.0
H413 H 0.33474 0.83603 0.01428 0.0
H414 H 0.39191 0.84674 0.04553 0.0
H415 H 0.47082 0.92495 0.99812 0.0
H416 H 0.44317 0.89129 0.99942 0.0
C417 C 0.15408 0.44652 0.01147 0.0
C418 C 0.15825 0.44027 0.03154 0.0
C419 C 0.14015 0.45231 0.0113 0.0
C420 C 0.11373 0.46862 0.05108 0.0
H421 H 0.07588 0.45081 0.99979 0.0
C422 C 0.04261 0.46815 0.0606 0.0
C423 C 0.03755 0.47702 0.04401 0.0
C424 C 0.05757 0.46417 0.05708 0.0
C425 C 0.08649 0.45604 0.01411 0.0
H426 H 0.15097 0.43512 0.06711 0.0
H427 H 0.1267 0.44483 0.06671 0.0
H428 H 0.10228 0.44363 0.99741 0.0
H429 H 0.04384 0.48789 0.01017 0.0
H430 H 0.06987 0.48058 0.00396 0.0
H431 H 0.09769 0.48051 0.06803 0.0
C432 C 0.13437 0.44568 0.05119 0.0
C433 C 0.10164 0.45201 0.01274 0.0
C434 C 0.14824 0.43996 0.05137 0.0
C435 C 0.0473 0.48101 0.02332 0.0
C436 C 0.06221 0.47684 0.01972 0.0
C437 C 0.09857 0.47248 0.05251 0.0
C438 C 0.13017 0.45199 0.03122 0.0
C439 C 0.1152 0.4579 0.03144 0.0
C440 C 0.06776 0.46881 0.03683 0.0
C441 C 0.08458 0.4659 0.03425 0.0
H442 H 0.16155 0.44692 0.9959 0.0
H443 H 0.13733 0.45722 0.99568 0.0
H444 H 0.1242 0.47384 0.06556 0.0
H445 H 0.03543 0.46478 0.0767 0.0
H446 H 0.06134 0.45767 0.0704 0.0
C447 C 0.47161 0.65839 0.06185 0.0
C448 C 0.48215 0.66457 0.08319 0.0
C449 C 0.4681 0.64087 0.04909 0.0
C450 C 0.47029 0.59466 0.05319 0.0
H451 H 0.47782 0.59754 0.98771 0.0
C452 C 0.49324 0.54654 0.99715 0.0
C453 C 0.48613 0.54075 0.97416 0.0
C454 C 0.48815 0.5583 0.0113 0.0
C455 C 0.47529 0.59629 0.00589 0.0
H456 H 0.49687 0.65689 0.10809 0.0
H457 H 0.49122 0.62681 0.08575 0.0
H458 H 0.47768 0.62474 0.01063 0.0
H459 H 0.468 0.54226 0.9478 0.0
H460 H 0.45857 0.56236 0.97263 0.0
H461 H 0.46878 0.56651 0.04844 0.0
C462 C 0.48528 0.63518 0.07896 0.0
C463 C 0.47519 0.61192 0.01908 0.0
C464 C 0.48868 0.65259 0.09172 0.0
C465 C 0.47328 0.54621 0.96569 0.0
C466 C 0.46809 0.55788 0.97982 0.0
C467 C 0.47053 0.57906 0.04 0.0
C468 C 0.47514 0.62918 0.05734 0.0
C469 C 0.47306 0.61151 0.04299 0.0
C470 C 0.47596 0.56459 0.00258 0.0
C471 C 0.47335 0.57986 0.01625 0.0
H472 H 0.46625 0.66721 0.05486 0.0
H473 H 0.45999 0.63657 0.03268 0.0
H474 H 0.46823 0.59363 0.07147 0.0
H475 H 0.50377 0.54313 0.00375 0.0
H476 H 0.49472 0.56348 0.0286 0.0
C477 C 0.8269 0.33899 0.96157 0.0
C478 C 0.82077 0.32236 0.97404 0.0
C479 C 0.84239 0.35756 0.97012 0.0
C480 C 0.88628 0.37861 0.00768 0.0
H481 H 0.88843 0.42892 0.00496 0.0
C482 C 0.9372 0.46239 0.05176 0.0
C483 C 0.95541 0.46467 0.04764 0.0
C484 C 0.92055 0.44684 0.03979 0.0
C485 C 0.88799 0.41496 0.00577 0.0
H486 H 0.82546 0.31248 0.00586 0.0
H487 H 0.85241 0.34485 0.02075 0.0
H488 H 0.85871 0.39783 0.99147 0.0
H489 H 0.97082 0.4529 0.02802 0.0
H490 H 0.9418 0.42576 0.00704 0.0
H491 H 0.91532 0.3955 0.02214 0.0
C492 C 0.8454 0.34345 0.00421 0.0
C493 C 0.87106 0.39721 0.99799 0.0
C494 C 0.82987 0.32492 0.99573 0.0
C495 C 0.95691 0.45165 0.03101 0.0
C496 C 0.94031 0.43599 0.01927 0.0
C497 C 0.90317 0.39627 0.01523 0.0
C498 C 0.85212 0.35984 0.99125 0.0
C499 C 0.86998 0.37884 0.99914 0.0
C500 C 0.9219 0.43309 0.02401 0.0
C501 C 0.9042 0.41463 0.01451 0.0
H502 H 0.82015 0.33754 0.94483 0.0
H503 H 0.84729 0.36991 0.95973 0.0
H504 H 0.88601 0.36473 0.00843 0.0
H505 H 0.93577 0.47203 0.06498 0.0
H506 H 0.90654 0.44483 0.04398 0.0
C507 C 0.68953 0.52466 0.96393 0.0
C508 C 0.70539 0.53925 0.97817 0.0
C509 C 0.67077 0.52082 0.96773 0.0
C510 C 0.64577 0.54573 0.99272 0.0
H511 H 0.59996 0.49373 0.97896 0.0
C512 C 0.55639 0.50574 0.98611 0.0
C513 C 0.55486 0.51926 0.97308 0.0
C514 C 0.57451 0.50779 0.991 0.0
C515 C 0.61258 0.50831 0.98321 0.0
H516 H 0.71378 0.56052 0.00832 0.0
H517 H 0.68098 0.55368 0.01507 0.0
H518 H 0.63193 0.49699 0.98045 0.0
H519 H 0.5714 0.546 0.95576 0.0
H520 H 0.6027 0.54949 0.96422 0.0
H521 H 0.62648 0.55709 0.99525 0.0
C522 C 0.68312 0.54543 0.00073 0.0
C523 C 0.63092 0.51021 0.98382 0.0
C524 C 0.70192 0.54927 0.99694 0.0
C525 C 0.57194 0.53524 0.96578 0.0
C526 C 0.58997 0.53735 0.97078 0.0
C527 C 0.62746 0.54384 0.9921 0.0
C528 C 0.66737 0.53145 0.98587 0.0
C529 C 0.64777 0.52901 0.98807 0.0
C530 C 0.59149 0.52354 0.98319 0.0
C531 C 0.61067 0.52517 0.98679 0.0
H532 H 0.69165 0.51662 0.94934 0.0
H533 H 0.65905 0.51011 0.95578 0.0
H534 H 0.65841 0.56046 0.99587 0.0
H535 H 0.54359 0.49333 0.99216 0.0
H536 H 0.57521 0.49701 0.0008 0.0
C537 C 0.55718 0.17539 0.91814 0.0
C538 C 0.54732 0.1718 0.89671 0.0
C539 C 0.55597 0.15969 0.92924 0.0
C540 C 0.53977 0.10553 0.9212 0.0
H541 H 0.533 0.10899 0.98684 0.0
C542 C 0.50173 0.05124 0.99696 0.0
C543 C 0.50931 0.0385 0.99543 0.0
C544 C 0.50913 0.06766 0.98439 0.0
C545 C 0.53493 0.10779 0.96852 0.0
H546 H 0.52885 0.14891 0.86984 0.0
H547 H 0.52619 0.12144 0.88953 0.0
H548 H 0.54057 0.13712 0.96561 0.0
H549 H 0.5305 0.03298 0.97893 0.0
H550 H 0.5437 0.06207 0.95678 0.0
H551 H 0.53304 0.0756 0.92426 0.0
C552 C 0.53522 0.13642 0.89759 0.0
C553 C 0.5395 0.12405 0.95633 0.0
C554 C 0.5366 0.15218 0.88637 0.0
C555 C 0.52446 0.04254 0.98067 0.0
C556 C 0.53192 0.05914 0.9679 0.0
C557 C 0.53512 0.08915 0.93348 0.0
C558 C 0.54467 0.13994 0.91935 0.0
C559 C 0.54163 0.12307 0.93242 0.0
C560 C 0.52443 0.07199 0.9699 0.0
C561 C 0.53217 0.08997 0.95719 0.0
H562 H 0.56579 0.19035 0.92645 0.0
H563 H 0.56378 0.16306 0.94573 0.0
H564 H 0.54159 0.10433 0.90286 0.0
H565 H 0.48994 0.04857 0.00795 0.0
H566 H 0.50271 0.07695 0.98596 0.0
C567 C 0.70057 0.18344 0.98248 0.0
C568 C 0.69895 0.19381 0.96484 0.0
C569 C 0.68451 0.16566 0.98794 0.0
C570 C 0.64002 0.12379 0.96093 0.0
H571 H 0.62603 0.10968 0.02312 0.0
C572 C 0.57405 0.05443 0.004 0.0
C573 C 0.57521 0.03874 0.99208 0.0
C574 C 0.58898 0.07418 0.00314 0.0
C575 C 0.62974 0.11352 0.00569 0.0
H576 H 0.67905 0.19391 0.93957 0.0
H577 H 0.65117 0.16276 0.94889 0.0
H578 H 0.65226 0.14329 0.01698 0.0
H579 H 0.59357 0.03164 0.97089 0.0
H580 H 0.61919 0.06582 0.96928 0.0
H581 H 0.61796 0.09399 0.9496 0.0
C582 C 0.66486 0.16841 0.95847 0.0
C583 C 0.64478 0.13264 0.00218 0.0
C584 C 0.68082 0.18627 0.95319 0.0
C585 C 0.592 0.04324 0.98017 0.0
C586 C 0.60671 0.06286 0.97913 0.0
C587 C 0.62527 0.10467 0.96444 0.0
C588 C 0.66658 0.15778 0.9757 0.0
C589 C 0.65011 0.13792 0.97974 0.0
C590 C 0.60519 0.07854 0.99016 0.0
C591 C 0.62009 0.09928 0.98683 0.0
H592 H 0.71431 0.18889 0.99183 0.0
H593 H 0.68631 0.15771 0.00117 0.0
H594 H 0.64391 0.12735 0.94346 0.0
H595 H 0.56135 0.05154 0.01332 0.0
H596 H 0.58749 0.08605 0.01179 0.0
C597 C 0.83759 0.52812 0.99606 0.0
C598 C 0.83468 0.54329 0.00594 0.0
C599 C 0.8544 0.52786 0.00174 0.0
C600 C 0.89604 0.54692 0.04342 0.0
H601 H 0.92221 0.54156 0.98989 0.0
C602 C 0.97363 0.55533 0.0146 0.0
C603 C 0.97511 0.54211 0.02821 0.0
C604 C 0.95745 0.5576 0.01538 0.0
C605 C 0.91517 0.54324 0.00502 0.0
H606 H 0.84664 0.56945 0.03056 0.0
H607 H 0.87602 0.56887 0.04059 0.0
H608 H 0.89118 0.53976 0.98471 0.0
H609 H 0.96147 0.52224 0.05481 0.0
H610 H 0.93322 0.52636 0.0562 0.0
H611 H 0.92017 0.55024 0.06369 0.0
C612 C 0.86527 0.55723 0.02841 0.0
C613 C 0.89728 0.54196 0.00206 0.0
C614 C 0.84848 0.55759 0.02258 0.0
C615 C 0.96082 0.53255 0.04408 0.0
C616 C 0.94461 0.53488 0.04489 0.0
C617 C 0.91392 0.54795 0.04641 0.0
C618 C 0.86863 0.54267 0.01754 0.0
C619 C 0.8875 0.54376 0.02118 0.0
C620 C 0.9424 0.54678 0.02983 0.0
C621 C 0.9237 0.54623 0.02719 0.0
H622 H 0.82722 0.51682 0.98327 0.0
H623 H 0.8565 0.5163 0.99334 0.0
H624 H 0.88877 0.54832 0.05845 0.0
H625 H 0.98445 0.56314 0.00238 0.0
H626 H 0.95629 0.56719 0.0039 0.0
C627 C 0.5044 0.32864 0.8748 0.0
C628 C 0.52231 0.32968 0.8724 0.0
C629 C 0.50356 0.34582 0.88027 0.0
C630 C 0.53193 0.39558 0.9103 0.0
H631 H 0.48804 0.39926 0.88911 0.0
C632 C 0.51099 0.45103 0.95497 0.0
C633 C 0.49166 0.44084 0.96128 0.0
C634 C 0.51777 0.44153 0.9394 0.0
C635 C 0.50056 0.39865 0.895 0.0
H636 H 0.55342 0.34973 0.87294 0.0
H637 H 0.55193 0.37986 0.88268 0.0
H638 H 0.49478 0.37502 0.86928 0.0
H639 H 0.46417 0.41327 0.95603 0.0
H640 H 0.47569 0.39702 0.92869 0.0
H641 H 0.53724 0.41882 0.93656 0.0
C642 C 0.53855 0.36566 0.88048 0.0
C643 C 0.50434 0.38468 0.88373 0.0
C644 C 0.53939 0.34841 0.87489 0.0
C645 C 0.47912 0.42145 0.95133 0.0
C646 C 0.4857 0.41219 0.93556 0.0
C647 C 0.52825 0.40975 0.92147 0.0
C648 C 0.52062 0.36452 0.88353 0.0
C649 C 0.51947 0.38229 0.89196 0.0
C650 C 0.50514 0.42195 0.92964 0.0
C651 C 0.51199 0.41078 0.91456 0.0
H652 H 0.49095 0.31449 0.87284 0.0
H653 H 0.4895 0.34432 0.88278 0.0
H654 H 0.54369 0.39411 0.91712 0.0
H655 H 0.52092 0.46595 0.9626 0.0
H656 H 0.53283 0.44938 0.93511 0.0
C657 C 0.19253 0.64435 0.09915 0.0
C658 C 0.20852 0.65471 0.0857 0.0
C659 C 0.17603 0.62702 0.0898 0.0
C660 C 0.15084 0.60328 0.03315 0.0
H661 H 0.11432 0.56324 0.07047 0.0
C662 C 0.07255 0.5417 0.00101 0.0
C663 C 0.05901 0.54449 0.01343 0.0
C664 C 0.09195 0.55127 0.00919 0.0
C665 C 0.12448 0.57427 0.05987 0.0
H666 H 0.22035 0.65415 0.05247 0.0
H667 H 0.19174 0.62351 0.0363 0.0
H668 H 0.14724 0.58665 0.08624 0.0
H669 H 0.05501 0.56012 0.04314 0.0
H670 H 0.08894 0.57681 0.0576 0.0
H671 H 0.1278 0.59091 0.00697 0.0
C672 C 0.1917 0.62913 0.05387 0.0
C673 C 0.14328 0.58773 0.06886 0.0
C674 C 0.20817 0.64663 0.06318 0.0
C675 C 0.06506 0.55706 0.03393 0.0
C676 C 0.08441 0.56664 0.04208 0.0
C677 C 0.13211 0.58964 0.02409 0.0
C678 C 0.17518 0.61947 0.06682 0.0
C679 C 0.1565 0.6029 0.05592 0.0
C680 C 0.09798 0.56383 0.0298 0.0
C681 C 0.11862 0.5755 0.03768 0.0
H682 H 0.19232 0.65012 0.1166 0.0
H683 H 0.16359 0.62022 0.10029 0.0
H684 H 0.16045 0.61484 0.02272 0.0
H685 H 0.06821 0.53251 0.98473 0.0
H686 H 0.10229 0.54921 0.99924 0.0
C687 C 0.28279 0.4406 0.99569 0.0
C688 C 0.28309 0.45778 0.00527 0.0
C689 C 0.29984 0.44151 0.98851 0.0
C690 C 0.34917 0.47476 0.97093 0.0
H691 H 0.36079 0.43737 0.99574 0.0
C692 C 0.4255 0.48328 0.96955 0.0
C693 C 0.42683 0.46613 0.96987 0.0
C694 C 0.40739 0.48196 0.97014 0.0
C695 C 0.35769 0.44766 0.98814 0.0
H696 H 0.30138 0.48953 0.01406 0.0
H697 H 0.33114 0.49113 0.00119 0.0
H698 H 0.33028 0.43564 0.00359 0.0
H699 H 0.41039 0.4341 0.96912 0.0
H700 H 0.37884 0.4316 0.96868 0.0
H701 H 0.3765 0.48668 0.95524 0.0
C702 C 0.3177 0.47697 0.99934 0.0
C703 C 0.34018 0.44671 0.99281 0.0
C704 C 0.30069 0.47601 0.00683 0.0
C705 C 0.40974 0.44756 0.96906 0.0
C706 C 0.39167 0.44619 0.96911 0.0
C707 C 0.36663 0.47553 0.96593 0.0
C708 C 0.31749 0.45967 0.99045 0.0
C709 C 0.33579 0.46032 0.98443 0.0
C710 C 0.39025 0.46342 0.97066 0.0
C711 C 0.37121 0.46206 0.97461 0.0
H712 H 0.26948 0.42633 0.99422 0.0
H713 H 0.29924 0.42797 0.98157 0.0
H714 H 0.34608 0.48536 0.96412 0.0
H715 H 0.43849 0.49782 0.97044 0.0
H716 H 0.407 0.49559 0.97148 0.0
C717 C 0.47563 0.81353 0.1024 0.0
C718 C 0.48874 0.80693 0.09749 0.0
C719 C 0.47887 0.83154 0.09517 0.0
C720 C 0.51791 0.87919 0.07742 0.0
H721 H 0.47736 0.8812 0.0433 0.0
C722 C 0.53461 0.93307 0.01007 0.0
C723 C 0.52415 0.94288 0.00817 0.0
C724 C 0.52944 0.91865 0.02531 0.0
C725 C 0.48871 0.88101 0.05325 0.0
H726 H 0.51554 0.81413 0.08123 0.0
H727 H 0.5212 0.84541 0.06881 0.0
H728 H 0.46972 0.85125 0.06176 0.0
H729 H 0.50026 0.9455 0.02136 0.0
H730 H 0.49066 0.91951 0.04779 0.0
H731 H 0.53705 0.90857 0.06831 0.0
C732 C 0.50848 0.83678 0.07835 0.0
C733 C 0.48436 0.86386 0.06375 0.0
C734 C 0.50516 0.81875 0.08533 0.0
C735 C 0.50841 0.93803 0.02219 0.0
C736 C 0.50297 0.92321 0.03734 0.0
C737 C 0.52223 0.89627 0.06702 0.0
C738 C 0.49541 0.84342 0.08319 0.0
C739 C 0.4991 0.86252 0.07521 0.0
C740 C 0.51352 0.91341 0.03904 0.0
C741 C 0.50786 0.8971 0.05407 0.0
H742 H 0.46282 0.80475 0.11171 0.0
H743 H 0.46856 0.83628 0.09919 0.0
H744 H 0.52949 0.8788 0.0866 0.0
H745 H 0.54685 0.93643 0.9996 0.0
H746 H 0.53768 0.91119 0.02589 0.0
C747 C 0.0132 0.14796 0.36809 0.0
C748 C 0.99527 0.14673 0.36445 0.0
C749 C 0.03028 0.16424 0.36173 0.0
C750 C 0.04863 0.20858 0.32806 0.0
H751 H 0.09513 0.22773 0.36717 0.0
C752 C 0.11436 0.28878 0.33741 0.0
C753 C 0.13293 0.29106 0.3369 0.0
C754 C 0.09785 0.26989 0.33646 0.0
C755 C 0.08231 0.22237 0.35591 0.0
H756 H 0.98111 0.16157 0.35145 0.0
H757 H 0.01089 0.19046 0.34153 0.0
H758 H 0.06571 0.19747 0.3749 0.0
H759 H 0.14865 0.27526 0.33378 0.0
H760 H 0.11975 0.24221 0.33307 0.0
H761 H 0.06522 0.23445 0.3101 0.0
C762 C 0.01185 0.17858 0.34845 0.0
C763 C 0.06541 0.20496 0.36025 0.0
C764 C 0.99473 0.16208 0.35434 0.0
C765 C 0.13458 0.27401 0.33435 0.0
C766 C 0.11808 0.25511 0.33397 0.0
C767 C 0.06545 0.22624 0.32405 0.0
C768 C 0.0299 0.17993 0.35207 0.0
C769 C 0.04824 0.19789 0.34653 0.0
C770 C 0.09962 0.25295 0.33545 0.0
C771 C 0.08237 0.23334 0.33806 0.0
H772 H 0.01401 0.1362 0.3756 0.0
H773 H 0.04376 0.16444 0.36434 0.0
H774 H 0.03591 0.20344 0.31674 0.0
H775 H 0.1126 0.30162 0.33922 0.0
H776 H 0.08376 0.26858 0.33773 0.0
C777 C 0.82012 0.79639 0.3661 0.0
C778 C 0.82488 0.79029 0.3859 0.0
C779 C 0.80619 0.80221 0.36668 0.0
C780 C 0.77996 0.81791 0.40793 0.0
H781 H 0.74072 0.7987 0.35799 0.0
C782 C 0.70527 0.80867 0.42063 0.0
C783 C 0.6984 0.81687 0.40519 0.0
C784 C 0.72187 0.80765 0.41633 0.0
C785 C 0.75175 0.80439 0.37189 0.0
H786 H 0.81877 0.7856 0.42181 0.0
H787 H 0.7945 0.79531 0.42269 0.0
H788 H 0.76811 0.79317 0.35411 0.0
H789 H 0.70347 0.8301 0.3728 0.0
H790 H 0.73241 0.82779 0.365 0.0
H791 H 0.76315 0.82829 0.4261 0.0
C792 C 0.8017 0.79604 0.40681 0.0
C793 C 0.76746 0.80128 0.36968 0.0
C794 C 0.81556 0.7903 0.40625 0.0
C795 C 0.70837 0.82368 0.38503 0.0
C796 C 0.72488 0.82235 0.38054 0.0
C797 C 0.76422 0.8208 0.41021 0.0
C798 C 0.79679 0.80208 0.38708 0.0
C799 C 0.78148 0.80755 0.38795 0.0
C800 C 0.73191 0.81457 0.39635 0.0
C801 C 0.74972 0.81365 0.39247 0.0
H802 H 0.82705 0.79656 0.35015 0.0
H803 H 0.80285 0.8069 0.35121 0.0
H804 H 0.79075 0.82342 0.42209 0.0
H805 H 0.69808 0.80337 0.43639 0.0
H806 H 0.72686 0.80138 0.42867 0.0
C807 C 0.12362 0.98863 0.42559 0.0
C808 C 0.13612 0.00791 0.41937 0.0
C809 C 0.12403 0.97231 0.41458 0.0
C810 C 0.1577 0.96061 0.38541 0.0
H811 H 0.11242 0.91051 0.36258 0.0
C812 C 0.14315 0.89176 0.31805 0.0
C813 C 0.1581 0.88888 0.32561 0.0
C814 C 0.13732 0.90284 0.33227 0.0
C815 C 0.12516 0.92438 0.36902 0.0
H816 H 0.15826 0.02499 0.396 0.0
H817 H 0.15904 0.99658 0.37699 0.0
H818 H 0.1084 0.93752 0.3806 0.0
H819 H 0.17847 0.89476 0.35381 0.0
H820 H 0.16823 0.91401 0.37886 0.0
H821 H 0.17453 0.94782 0.37367 0.0
C822 C 0.14903 0.99413 0.39049 0.0
C823 C 0.12286 0.93979 0.37936 0.0
C824 C 0.14848 0.01038 0.40129 0.0
C825 C 0.16657 0.89643 0.34789 0.0
C826 C 0.16087 0.90762 0.36207 0.0
C827 C 0.15998 0.9452 0.37539 0.0
C828 C 0.1371 0.97499 0.39733 0.0
C829 C 0.13916 0.95818 0.38728 0.0
C830 C 0.14672 0.91161 0.35405 0.0
C831 C 0.14378 0.92699 0.36682 0.0
H832 H 0.11388 0.9862 0.4394 0.0
H833 H 0.1147 0.95772 0.42021 0.0
H834 H 0.1705 0.97452 0.39164 0.0
H835 H 0.13683 0.8865 0.30063 0.0
H836 H 0.12654 0.90581 0.3255 0.0
C837 C 0.49314 0.65358 0.32978 0.0
C838 C 0.48192 0.65223 0.31039 0.0
C839 C 0.50782 0.67204 0.33966 0.0
C840 C 0.52679 0.72568 0.34502 0.0
H841 H 0.57592 0.72841 0.35601 0.0
C842 C 0.61192 0.78324 0.37988 0.0
C843 C 0.60879 0.7907 0.40104 0.0
C844 C 0.59621 0.76931 0.36529 0.0
C845 C 0.56241 0.72804 0.35273 0.0
H846 H 0.47656 0.66928 0.28699 0.0
H847 H 0.50221 0.70164 0.30451 0.0
H848 H 0.54828 0.69766 0.33882 0.0
H849 H 0.58717 0.7902 0.42347 0.0
H850 H 0.55955 0.76603 0.3978 0.0
H851 H 0.541 0.7561 0.35946 0.0
C852 C 0.49965 0.68834 0.3119 0.0
C853 C 0.5465 0.71032 0.34318 0.0
C854 C 0.48502 0.66982 0.30186 0.0
C855 C 0.58983 0.78493 0.40692 0.0
C856 C 0.57408 0.77112 0.39223 0.0
C857 C 0.54274 0.74345 0.35484 0.0
C858 C 0.51153 0.68956 0.33048 0.0
C859 C 0.52846 0.70884 0.33957 0.0
C860 C 0.57711 0.76255 0.37172 0.0
C861 C 0.56066 0.74472 0.359 0.0
H862 H 0.49108 0.64035 0.33688 0.0
H863 H 0.51657 0.67259 0.35424 0.0
H864 H 0.51303 0.72492 0.34236 0.0
H865 H 0.62645 0.7871 0.37536 0.0
H866 H 0.59899 0.7631 0.3495 0.0
C867 C 0.37228 0.89345 0.31998 0.0
C868 C 0.37349 0.87616 0.31658 0.0
C869 C 0.35447 0.89219 0.32349 0.0
C870 C 0.30417 0.85987 0.33948 0.0
H871 H 0.29312 0.89075 0.29999 0.0
C872 C 0.2273 0.84933 0.3255 0.0
C873 C 0.22615 0.86599 0.32067 0.0
C874 C 0.24536 0.85068 0.32806 0.0
C875 C 0.29602 0.8823 0.31152 0.0
H876 H 0.357 0.84402 0.3154 0.0
H877 H 0.32584 0.84188 0.32166 0.0
H878 H 0.32443 0.89297 0.29932 0.0
H879 H 0.24311 0.89755 0.31698 0.0
H880 H 0.27436 0.90009 0.32242 0.0
H881 H 0.27569 0.84928 0.35178 0.0
C882 C 0.33873 0.85638 0.32156 0.0
C883 C 0.314 0.88354 0.31104 0.0
C884 C 0.35657 0.85762 0.31787 0.0
C885 C 0.24343 0.8843 0.32018 0.0
C886 C 0.2614 0.88573 0.32312 0.0
C887 C 0.28615 0.85877 0.34015 0.0
C888 C 0.33744 0.87364 0.32384 0.0
C889 C 0.31831 0.87237 0.325 0.0
C890 C 0.26265 0.86882 0.32624 0.0
C891 C 0.28186 0.87002 0.32618 0.0
H892 H 0.38501 0.90798 0.31924 0.0
H893 H 0.35397 0.90577 0.32553 0.0
H894 H 0.30713 0.85114 0.35049 0.0
H895 H 0.21429 0.83504 0.32628 0.0
H896 H 0.2457 0.83732 0.33044 0.0
C897 C 0.22606 0.51671 0.24035 0.0
C898 C 0.21801 0.52661 0.25301 0.0
C899 C 0.22358 0.49878 0.24681 0.0
C900 C 0.19142 0.45622 0.27835 0.0
H901 H 0.23528 0.44842 0.28464 0.0
C902 C 0.20951 0.40383 0.3308 0.0
C903 C 0.19211 0.38576 0.32587 0.0
C904 C 0.21435 0.41969 0.31757 0.0
C905 C 0.22289 0.45036 0.28283 0.0
H906 H 0.20092 0.52531 0.28227 0.0
H907 H 0.19636 0.49395 0.29328 0.0
H908 H 0.23994 0.47911 0.27062 0.0
H909 H 0.16641 0.36966 0.30308 0.0
H910 H 0.17492 0.39716 0.27967 0.0
H911 H 0.17441 0.42783 0.29098 0.0
C912 C 0.2046 0.50006 0.27838 0.0
C913 C 0.22553 0.46786 0.2747 0.0
C914 C 0.20729 0.51808 0.27212 0.0
C915 C 0.18009 0.38339 0.30688 0.0
C916 C 0.18487 0.39919 0.29368 0.0
C917 C 0.18874 0.4387 0.2862 0.0
C918 C 0.21275 0.49022 0.26585 0.0
C919 C 0.20987 0.47111 0.27277 0.0
C920 C 0.20164 0.41779 0.29948 0.0
C921 C 0.20447 0.43564 0.28884 0.0
H922 H 0.23445 0.52292 0.22557 0.0
H923 H 0.22993 0.49149 0.23675 0.0
H924 H 0.17904 0.45821 0.27685 0.0
H925 H 0.2186 0.40619 0.3459 0.0
H926 H 0.22726 0.43386 0.32266 0.0
C927 C 0.37886 0.53024 0.31364 0.0
C928 C 0.3757 0.53837 0.29462 0.0
C929 C 0.36388 0.51261 0.32104 0.0
C930 C 0.32074 0.46719 0.298 0.0
H931 H 0.30789 0.45791 0.36162 0.0
C932 C 0.25626 0.40106 0.34558 0.0
C933 C 0.25733 0.38493 0.33484 0.0
C934 C 0.27131 0.42061 0.34398 0.0
C935 C 0.31134 0.46038 0.34381 0.0
H936 H 0.35418 0.53469 0.2689 0.0
H937 H 0.3282 0.5038 0.28159 0.0
H938 H 0.33263 0.49121 0.35217 0.0
H939 H 0.27595 0.3768 0.31576 0.0
H940 H 0.30189 0.41066 0.31299 0.0
H941 H 0.29984 0.43645 0.28957 0.0
C942 C 0.34225 0.51109 0.29077 0.0
C943 C 0.32551 0.47932 0.33842 0.0
C944 C 0.35713 0.5288 0.28356 0.0
C945 C 0.27441 0.38877 0.32402 0.0
C946 C 0.2893 0.4082 0.32231 0.0
C947 C 0.30689 0.44828 0.3034 0.0
C948 C 0.34555 0.50266 0.30937 0.0
C949 C 0.3303 0.48288 0.31543 0.0
C950 C 0.28763 0.4243 0.33156 0.0
C951 C 0.30211 0.44465 0.32633 0.0
H952 H 0.39299 0.5373 0.32259 0.0
H953 H 0.36684 0.50636 0.33533 0.0
H954 H 0.32426 0.46944 0.28016 0.0
H955 H 0.24345 0.39863 0.35433 0.0
H956 H 0.26973 0.43281 0.35134 0.0
C957 C 0.5036 0.88502 0.35171 0.0
C958 C 0.48665 0.868 0.34219 0.0
C959 C 0.51786 0.88332 0.36346 0.0
C960 C 0.53493 0.84767 0.36846 0.0
H961 H 0.57052 0.88837 0.41518 0.0
C962 C 0.60126 0.84677 0.40482 0.0
C963 C 0.61859 0.86406 0.40068 0.0
C964 C 0.58359 0.84634 0.40359 0.0
C965 C 0.56058 0.87682 0.40229 0.0
H966 H 0.47085 0.83583 0.33857 0.0
H967 H 0.49531 0.83279 0.35988 0.0
H968 H 0.54177 0.88872 0.40182 0.0
H969 H 0.63128 0.89484 0.39389 0.0
H970 H 0.60053 0.89424 0.39243 0.0
H971 H 0.55385 0.83586 0.36897 0.0
C972 C 0.49798 0.84751 0.35761 0.0
C973 C 0.54419 0.87708 0.39445 0.0
C974 C 0.48387 0.84923 0.34551 0.0
C975 C 0.61813 0.88132 0.39714 0.0
C976 C 0.60054 0.88099 0.39638 0.0
C977 C 0.55112 0.84723 0.37659 0.0
C978 C 0.51539 0.86455 0.36633 0.0
C979 C 0.53142 0.86284 0.37693 0.0
C980 C 0.58304 0.8633 0.39871 0.0
C981 C 0.56437 0.86208 0.39313 0.0
H982 H 0.50621 0.89971 0.34934 0.0
H983 H 0.53113 0.89682 0.36949 0.0
H984 H 0.52572 0.83662 0.35472 0.0
H985 H 0.60115 0.83319 0.40736 0.0
H986 H 0.57028 0.83254 0.40552 0.0
C987 C 0.18214 0.68511 0.2036 0.0
C988 C 0.20047 0.68688 0.20345 0.0
C989 C 0.1803 0.70165 0.20958 0.0
C990 C 0.20632 0.7506 0.24352 0.0
H991 H 0.16031 0.75114 0.22405 0.0
C992 C 0.17998 0.80084 0.29088 0.0
C993 C 0.16155 0.78861 0.29907 0.0
C994 C 0.1876 0.79295 0.2743 0.0
C995 C 0.17348 0.75154 0.22935 0.0
H996 H 0.23139 0.70774 0.20806 0.0
H997 H 0.2282 0.73681 0.21801 0.0
H998 H 0.1693 0.72948 0.20229 0.0
H999 H 0.13623 0.75903 0.29548 0.0
H1000 H 0.14908 0.74562 0.26622 0.0
H1001 H 0.21021 0.77259 0.27081 0.0
C1002 C 0.21519 0.72249 0.21406 0.0
C1003 C 0.1785 0.73889 0.21709 0.0
C1004 C 0.21702 0.70583 0.20824 0.0
C1005 C 0.15053 0.76878 0.2896 0.0
C1006 C 0.15784 0.76112 0.27273 0.0
C1007 C 0.20152 0.76363 0.25549 0.0
C1008 C 0.19676 0.72053 0.21536 0.0
C1009 C 0.19435 0.73741 0.22476 0.0
C1010 C 0.17656 0.77294 0.26521 0.0
C1011 C 0.18454 0.76352 0.24915 0.0
H1012 H 0.16907 0.67076 0.2 0.0
H1013 H 0.16582 0.69934 0.21075 0.0
H1014 H 0.21859 0.74989 0.25006 0.0
H1015 H 0.18866 0.8162 0.29775 0.0
H1016 H 0.20207 0.80239 0.26868 0.0
C1017 C 0.85245 0.99198 0.47568 0.0
C1018 C 0.85275 0.01009 0.47869 0.0
C1019 C 0.83484 0.97394 0.47432 0.0
C1020 C 0.78098 0.95301 0.47751 0.0
H1021 H 0.77834 0.91594 0.42737 0.0
C1022 C 0.71773 0.91266 0.41139 0.0
C1023 C 0.70983 0.89233 0.40487 0.0
C1024 C 0.73425 0.92307 0.42605 0.0
C1025 C 0.77886 0.92594 0.44168 0.0
H1026 H 0.835 0.0235 0.48422 0.0
H1027 H 0.80458 0.99258 0.48059 0.0
H1028 H 0.80978 0.94176 0.44447 0.0
H1029 H 0.71287 0.86678 0.40851 0.0
H1030 H 0.74256 0.88537 0.43405 0.0
H1031 H 0.75026 0.9389 0.47249 0.0
C1032 C 0.81772 0.99188 0.47993 0.0
C1033 C 0.79692 0.94074 0.45166 0.0
C1034 C 0.83528 0.00981 0.48177 0.0
C1035 C 0.71865 0.88243 0.4135 0.0
C1036 C 0.73563 0.89305 0.4279 0.0
C1037 C 0.7631 0.93882 0.4669 0.0
C1038 C 0.81715 0.97366 0.47543 0.0
C1039 C 0.79825 0.95507 0.46901 0.0
C1040 C 0.74355 0.9135 0.43423 0.0
C1041 C 0.76189 0.9255 0.44846 0.0
H1042 H 0.86578 0.99176 0.47365 0.0
H1043 H 0.8351 0.96026 0.47156 0.0
H1044 H 0.78126 0.96315 0.49146 0.0
H1045 H 0.71118 0.92061 0.40495 0.0
H1046 H 0.74014 0.93883 0.43043 0.0
C1047 C 0.97135 0.82523 0.3529 0.0
C1048 C 0.95473 0.80622 0.35175 0.0
C1049 C 0.9889 0.8278 0.34504 0.0
C1050 C 0.0102 0.80148 0.31093 0.0
H1051 H 0.05733 0.84009 0.34637 0.0
C1052 C 0.08069 0.79843 0.31434 0.0
C1053 C 0.09848 0.8163 0.31421 0.0
C1054 C 0.06325 0.79845 0.31445 0.0
C1055 C 0.04433 0.82947 0.33607 0.0
H1056 H 0.94347 0.77501 0.34134 0.0
H1057 H 0.97409 0.77931 0.3285 0.0
H1058 H 0.0267 0.83769 0.35587 0.0
H1059 H 0.11191 0.84812 0.31327 0.0
H1060 H 0.08137 0.84818 0.31391 0.0
H1061 H 0.02791 0.79261 0.29199 0.0
C1062 C 0.97357 0.79239 0.3348 0.0
C1063 C 0.02672 0.82809 0.34146 0.0
C1064 C 0.95598 0.78987 0.34234 0.0
C1065 C 0.09842 0.8341 0.31317 0.0
C1066 C 0.08097 0.83417 0.31373 0.0
C1067 C 0.02779 0.80267 0.30577 0.0
C1068 C 0.99034 0.81139 0.33614 0.0
C1069 C 0.00933 0.81388 0.32919 0.0
C1070 C 0.06325 0.81637 0.31485 0.0
C1071 C 0.04499 0.81651 0.31848 0.0
H1072 H 0.97082 0.83816 0.35988 0.0
H1073 H 0.00133 0.8427 0.34598 0.0
H1074 H 0.99726 0.79066 0.30071 0.0
H1075 H 0.08028 0.78448 0.31515 0.0
H1076 H 0.04984 0.78453 0.31547 0.0
C1077 C 0.15844 0.15349 0.41425 0.0
C1078 C 0.14928 0.14853 0.43517 0.0
C1079 C 0.16079 0.17001 0.40406 0.0
C1080 C 0.16419 0.21835 0.41583 0.0
H1081 H 0.15647 0.21315 0.34937 0.0
C1082 C 0.18296 0.28446 0.35961 0.0
C1083 C 0.19558 0.28536 0.34244 0.0
C1084 C 0.1737 0.26779 0.37225 0.0
C1085 C 0.15852 0.21482 0.36797 0.0
H1086 H 0.13563 0.15729 0.46195 0.0
H1087 H 0.13994 0.18641 0.44411 0.0
H1088 H 0.14726 0.18374 0.36923 0.0
H1089 H 0.20798 0.2692 0.32479 0.0
H1090 H 0.19178 0.24049 0.34618 0.0
H1091 H 0.17616 0.2497 0.41424 0.0
C1092 C 0.14523 0.17738 0.43564 0.0
C1093 C 0.15336 0.19799 0.37933 0.0
C1094 C 0.14271 0.16068 0.44579 0.0
C1095 C 0.19841 0.26916 0.33789 0.0
C1096 C 0.18903 0.25256 0.35009 0.0
C1097 C 0.16938 0.23529 0.40438 0.0
C1098 C 0.15414 0.18211 0.41453 0.0
C1099 C 0.15681 0.19963 0.40327 0.0
C1100 C 0.17659 0.25163 0.3674 0.0
C1101 C 0.16726 0.23372 0.38023 0.0
H1102 H 0.16373 0.14452 0.40562 0.0
H1103 H 0.16804 0.17344 0.388 0.0
H1104 H 0.16698 0.22008 0.43431 0.0
H1105 H 0.18024 0.29652 0.36333 0.0
H1106 H 0.16414 0.26742 0.38553 0.0
C1107 C 0.6841 0.47295 0.69932 0.0
C1108 C 0.66596 0.47116 0.69541 0.0
C1109 C 0.70095 0.48928 0.69259 0.0
C1110 C 0.7183 0.53289 0.6578 0.0
H1111 H 0.76456 0.55424 0.69802 0.0
C1112 C 0.78061 0.61458 0.66896 0.0
C1113 C 0.79972 0.61828 0.66947 0.0
C1114 C 0.76491 0.59515 0.66716 0.0
C1115 C 0.75183 0.54825 0.68643 0.0
H1116 H 0.65115 0.485 0.68144 0.0
H1117 H 0.6805 0.51399 0.67085 0.0
H1118 H 0.73582 0.52328 0.7055 0.0
H1119 H 0.81729 0.60446 0.66693 0.0
H1120 H 0.78977 0.57042 0.66485 0.0
H1121 H 0.73419 0.55887 0.63982 0.0
C1122 C 0.68183 0.5025 0.67828 0.0
C1123 C 0.73532 0.53044 0.69063 0.0
C1124 C 0.66495 0.48595 0.68455 0.0
C1125 C 0.80277 0.60211 0.66686 0.0
C1126 C 0.78705 0.58264 0.66564 0.0
C1127 C 0.73471 0.55094 0.65393 0.0
C1128 C 0.70011 0.50446 0.68226 0.0
C1129 C 0.71819 0.52262 0.67659 0.0
C1130 C 0.76802 0.57905 0.66626 0.0
C1131 C 0.75152 0.55887 0.66838 0.0
H1132 H 0.68527 0.46162 0.70741 0.0
H1133 H 0.71463 0.48994 0.69551 0.0
H1134 H 0.70562 0.52717 0.64623 0.0
H1135 H 0.77777 0.62672 0.67075 0.0
H1136 H 0.75036 0.59274 0.66777 0.0
C1137 C 0.48007 0.12317 0.73599 0.0
C1138 C 0.48779 0.12132 0.71497 0.0
C1139 C 0.4669 0.12983 0.7371 0.0
C1140 C 0.43145 0.13436 0.70137 0.0
H1141 H 0.43068 0.16446 0.75712 0.0
C1142 C 0.37431 0.15908 0.71916 0.0
C1143 C 0.36515 0.15294 0.73993 0.0
C1144 C 0.39052 0.15738 0.71389 0.0
C1145 C 0.43077 0.15613 0.74141 0.0
H1146 H 0.48798 0.12544 0.67863 0.0
H1147 H 0.46508 0.13744 0.68064 0.0
H1148 H 0.45756 0.15858 0.75179 0.0
H1149 H 0.36599 0.14042 0.77149 0.0
H1150 H 0.3943 0.13786 0.76244 0.0
H1151 H 0.40447 0.13197 0.69118 0.0
C1152 C 0.46907 0.13344 0.69622 0.0
C1153 C 0.4461 0.15265 0.73838 0.0
C1154 C 0.48227 0.12667 0.69509 0.0
C1155 C 0.37256 0.14515 0.75527 0.0
C1156 C 0.38888 0.14382 0.75019 0.0
C1157 C 0.41618 0.13808 0.7043 0.0
C1158 C 0.46114 0.13499 0.71726 0.0
C1159 C 0.44633 0.14115 0.71869 0.0
C1160 C 0.39806 0.14996 0.72953 0.0
C1161 C 0.41544 0.14847 0.72467 0.0
H1162 H 0.48391 0.11911 0.75164 0.0
H1163 H 0.46084 0.1304 0.75351 0.0
H1164 H 0.43106 0.12536 0.68606 0.0
H1165 H 0.36897 0.16516 0.70701 0.0
H1166 H 0.39738 0.16222 0.69783 0.0
C1167 C 0.77802 0.30667 0.74928 0.0
C1168 C 0.78929 0.32606 0.74277 0.0
C1169 C 0.77927 0.29094 0.73795 0.0
C1170 C 0.81378 0.28187 0.70655 0.0
H1171 H 0.76971 0.23005 0.6862 0.0
C1172 C 0.80036 0.2125 0.64039 0.0
C1173 C 0.81606 0.21061 0.64739 0.0
C1174 C 0.7945 0.22354 0.65462 0.0
C1175 C 0.78213 0.24443 0.69192 0.0
H1176 H 0.81009 0.34395 0.7186 0.0
H1177 H 0.81233 0.31657 0.69899 0.0
H1178 H 0.76438 0.25605 0.70459 0.0
H1179 H 0.83783 0.2183 0.67457 0.0
H1180 H 0.82764 0.23765 0.69958 0.0
H1181 H 0.83157 0.27053 0.69374 0.0
C1182 C 0.80264 0.31357 0.71296 0.0
C1183 C 0.77909 0.25926 0.70247 0.0
C1184 C 0.80125 0.32923 0.72411 0.0
C1185 C 0.8254 0.21925 0.6691 0.0
C1186 C 0.8197 0.23048 0.68324 0.0
C1187 C 0.81682 0.26704 0.6963 0.0
C1188 C 0.79196 0.29435 0.72006 0.0
C1189 C 0.7949 0.27823 0.70956 0.0
C1190 C 0.80461 0.23328 0.67581 0.0
C1191 C 0.80106 0.24821 0.68864 0.0
H1192 H 0.76862 0.3037 0.76355 0.0
H1193 H 0.7709 0.27629 0.7438 0.0
H1194 H 0.82626 0.29626 0.71212 0.0
H1195 H 0.79332 0.20633 0.62341 0.0
H1196 H 0.78296 0.2256 0.6483 0.0
C1197 C 0.16252 0.98805 0.67494 0.0
C1198 C 0.14937 0.985 0.65685 0.0
C1199 C 0.17706 0.00722 0.68298 0.0
C1200 C 0.19262 0.05994 0.68656 0.0
H1201 H 0.24391 0.06659 0.69191 0.0
C1202 C 0.27825 0.12121 0.71601 0.0
C1203 C 0.27553 0.12781 0.73795 0.0
C1204 C 0.2623 0.10721 0.70176 0.0
C1205 C 0.22977 0.06515 0.69013 0.0
H1206 H 0.14049 0.99974 0.63391 0.0
H1207 H 0.16589 0.03337 0.64829 0.0
H1208 H 0.21661 0.03466 0.67693 0.0
H1209 H 0.25434 0.12582 0.76207 0.0
H1210 H 0.22634 0.10144 0.73716 0.0
H1211 H 0.20586 0.09043 0.70045 0.0
C1212 C 0.16495 0.02085 0.65604 0.0
C1213 C 0.21409 0.04675 0.68186 0.0
C1214 C 0.15046 0.0016 0.64781 0.0
C1215 C 0.25667 0.12122 0.74494 0.0
C1216 C 0.24069 0.10729 0.73066 0.0
C1217 C 0.20836 0.0784 0.6951 0.0
C1218 C 0.17869 0.02377 0.67327 0.0
C1219 C 0.19531 0.04384 0.68044 0.0
C1220 C 0.24339 0.09944 0.70939 0.0
C1221 C 0.22706 0.08108 0.6973 0.0
H1222 H 0.16205 0.97562 0.68238 0.0
H1223 H 0.18729 0.00911 0.69657 0.0
H1224 H 0.17826 0.05806 0.68556 0.0
H1225 H 0.29269 0.12564 0.7106 0.0
H1226 H 0.26482 0.10157 0.68537 0.0
C1227 C 0.01553 0.18753 0.61823 0.0
C1228 C 0.03214 0.20132 0.632 0.0
C1229 C 0.99729 0.18458 0.62345 0.0
C1230 C 0.97501 0.21085 0.65268 0.0
H1231 H 0.92764 0.15999 0.63987 0.0
C1232 C 0.88597 0.17404 0.65253 0.0
C1233 C 0.88445 0.18818 0.64073 0.0
C1234 C 0.90393 0.17527 0.6557 0.0
C1235 C 0.94071 0.17426 0.64388 0.0
H1236 H 0.04242 0.22217 0.6627 0.0
H1237 H 0.01053 0.21689 0.67191 0.0
H1238 H 0.95895 0.16182 0.63816 0.0
H1239 H 0.90095 0.21523 0.62393 0.0
H1240 H 0.93196 0.21732 0.62944 0.0
H1241 H 0.95682 0.22332 0.65818 0.0
C1242 C 0.01168 0.20857 0.65686 0.0
C1243 C 0.95868 0.17535 0.64263 0.0
C1244 C 0.02995 0.21152 0.65165 0.0
C1245 C 0.90145 0.204 0.63304 0.0
C1246 C 0.91934 0.2053 0.63633 0.0
C1247 C 0.95707 0.20977 0.65389 0.0
C1248 C 0.99516 0.19533 0.64258 0.0
C1249 C 0.97606 0.19372 0.64653 0.0
C1250 C 0.92079 0.19081 0.64738 0.0
C1251 C 0.93971 0.19154 0.64899 0.0
H1252 H 0.01666 0.1794 0.60298 0.0
H1253 H 0.98496 0.17445 0.6119 0.0
H1254 H 0.98806 0.22528 0.65563 0.0
H1255 H 0.87325 0.16175 0.65889 0.0
H1256 H 0.9046 0.16399 0.66451 0.0
C1257 C 0.87167 0.84161 0.59466 0.0
C1258 C 0.87991 0.84743 0.57341 0.0
C1259 C 0.86908 0.82418 0.60271 0.0
C1260 C 0.88765 0.79068 0.6015 0.0
H1261 H 0.83664 0.75246 0.62024 0.0
C1262 C 0.84316 0.70909 0.64018 0.0
C1263 C 0.8543 0.71306 0.66064 0.0
C1264 C 0.84789 0.72405 0.62564 0.0
C1265 C 0.85091 0.76286 0.61482 0.0
H1266 H 0.89227 0.83977 0.54414 0.0
H1267 H 0.88821 0.80947 0.55866 0.0
H1268 H 0.84139 0.78184 0.60298 0.0
H1269 H 0.87877 0.73553 0.68229 0.0
H1270 H 0.88772 0.76158 0.65633 0.0
H1271 H 0.89731 0.77204 0.61436 0.0
C1272 C 0.88357 0.81835 0.56885 0.0
C1273 C 0.85364 0.77973 0.60513 0.0
C1274 C 0.88579 0.8356 0.56054 0.0
C1275 C 0.87063 0.73194 0.666 0.0
C1276 C 0.87558 0.74684 0.65127 0.0
C1277 C 0.88499 0.77394 0.61164 0.0
C1278 C 0.87502 0.81241 0.58991 0.0
C1279 C 0.87205 0.7939 0.59861 0.0
C1280 C 0.86384 0.74322 0.63138 0.0
C1281 C 0.86661 0.75996 0.61856 0.0
H1282 H 0.86697 0.85038 0.60496 0.0
H1283 H 0.86256 0.81996 0.61908 0.0
H1284 H 0.902 0.80146 0.59666 0.0
H1285 H 0.83021 0.69473 0.63607 0.0
H1286 H 0.83863 0.72086 0.6104 0.0
C1287 C 0.05195 0.85719 0.65959 0.0
C1288 C 0.04709 0.86966 0.64896 0.0
C1289 C 0.03748 0.83946 0.66731 0.0
C1290 C 0.98658 0.81275 0.68343 0.0
H1291 H 0.98828 0.76554 0.66237 0.0
C1292 C 0.91973 0.73376 0.68016 0.0
C1293 C 0.92248 0.7176 0.6818 0.0
C1294 C 0.93562 0.75307 0.6808 0.0
C1295 C 0.98772 0.77854 0.66893 0.0
H1296 H 0.02329 0.87365 0.63881 0.0
H1297 H 0.99805 0.84275 0.65247 0.0
H1298 H 0.01482 0.79795 0.65484 0.0
H1299 H 0.94392 0.70906 0.68713 0.0
H1300 H 0.97165 0.74278 0.68929 0.0
H1301 H 0.95945 0.79336 0.6975 0.0
C1302 C 0.01306 0.84671 0.65483 0.0
C1303 C 0.00295 0.79716 0.66447 0.0
C1304 C 0.02751 0.86433 0.64686 0.0
C1305 C 0.94138 0.72124 0.68564 0.0
C1306 C 0.95727 0.74057 0.68666 0.0
C1307 C 0.97142 0.79411 0.68814 0.0
C1308 C 0.01787 0.83395 0.66481 0.0
C1309 C 0.0024 0.81443 0.67134 0.0
C1310 C 0.95466 0.75667 0.68339 0.0
C1311 C 0.97163 0.77671 0.68061 0.0
H1312 H 0.0669 0.86088 0.6615 0.0
H1313 H 0.04161 0.82998 0.67511 0.0
H1314 H 0.9859 0.82586 0.68915 0.0
H1315 H 0.9054 0.73134 0.67677 0.0
H1316 H 0.93295 0.76496 0.67792 0.0
C1317 C 0.17126 0.22079 0.68404 0.0
C1318 C 0.15486 0.20376 0.67349 0.0
C1319 C 0.18546 0.21923 0.69615 0.0
C1320 C 0.20371 0.18449 0.70124 0.0
H1321 H 0.23652 0.22398 0.75064 0.0
C1322 C 0.26883 0.1837 0.74161 0.0
C1323 C 0.28628 0.20138 0.73892 0.0
C1324 C 0.25107 0.18297 0.73933 0.0
C1325 C 0.22736 0.21277 0.73699 0.0
H1326 H 0.14 0.17165 0.66826 0.0
H1327 H 0.16431 0.1688 0.69015 0.0
H1328 H 0.20808 0.22404 0.73553 0.0
H1329 H 0.29896 0.23249 0.73373 0.0
H1330 H 0.26801 0.23136 0.73049 0.0
H1331 H 0.22309 0.17328 0.70277 0.0
C1332 C 0.16663 0.18347 0.68846 0.0
C1333 C 0.21115 0.21288 0.72814 0.0
C1334 C 0.1526 0.18507 0.676 0.0
C1335 C 0.28573 0.21868 0.73592 0.0
C1336 C 0.26802 0.21804 0.7341 0.0
C1337 C 0.21971 0.18418 0.71035 0.0
C1338 C 0.18346 0.20056 0.69835 0.0
C1339 C 0.19938 0.19906 0.70971 0.0
C1340 C 0.2505 0.20001 0.73482 0.0
C1341 C 0.23196 0.1986 0.72793 0.0
H1342 H 0.17347 0.23543 0.68231 0.0
H1343 H 0.1983 0.23279 0.70308 0.0
H1344 H 0.19531 0.1738 0.68683 0.0
H1345 H 0.26878 0.17008 0.74368 0.0
H1346 H 0.23775 0.16891 0.74006 0.0
C1347 C 0.83464 0.00144 0.53853 0.0
C1348 C 0.85276 0.00291 0.5364 0.0
C1349 C 0.83337 0.01838 0.54397 0.0
C1350 C 0.8614 0.06809 0.57455 0.0
H1351 H 0.81602 0.07024 0.55612 0.0
C1352 C 0.83948 0.12165 0.62219 0.0
C1353 C 0.82051 0.11086 0.62955 0.0
C1354 C 0.8462 0.11261 0.6059 0.0
C1355 C 0.82896 0.07007 0.56121 0.0
H1356 H 0.88377 0.0235 0.53697 0.0
H1357 H 0.88153 0.05319 0.54647 0.0
H1358 H 0.82323 0.04689 0.53487 0.0
H1359 H 0.79355 0.08266 0.62541 0.0
H1360 H 0.80495 0.06719 0.59678 0.0
H1361 H 0.86674 0.09094 0.60134 0.0
C1362 C 0.86832 0.03885 0.54425 0.0
C1363 C 0.833 0.05659 0.54915 0.0
C1364 C 0.86958 0.02184 0.53879 0.0
C1365 C 0.80823 0.0913 0.61994 0.0
C1366 C 0.81472 0.08248 0.60344 0.0
C1367 C 0.85749 0.08181 0.58644 0.0
C1368 C 0.85021 0.03727 0.54739 0.0
C1369 C 0.84869 0.05471 0.55642 0.0
C1370 C 0.83383 0.09288 0.59644 0.0
C1371 C 0.84072 0.08226 0.58054 0.0
H1372 H 0.82137 0.98712 0.53662 0.0
H1373 H 0.81918 0.0165 0.54652 0.0
H1374 H 0.87358 0.06701 0.58069 0.0
H1375 H 0.8492 0.13672 0.62948 0.0
H1376 H 0.861 0.12094 0.60078 0.0
C1377 C 0.50719 0.34009 0.8188 0.0
C1378 C 0.52399 0.33918 0.81496 0.0
C1379 C 0.48908 0.32279 0.81718 0.0
C1380 C 0.46542 0.27178 0.78799 0.0
H1381 H 0.42053 0.27269 0.81077 0.0
C1382 C 0.3861 0.21756 0.75046 0.0
C1383 C 0.37796 0.22845 0.74289 0.0
C1384 C 0.40324 0.22715 0.76461 0.0
C1385 C 0.43285 0.27186 0.8046 0.0
H1386 H 0.53528 0.31936 0.80884 0.0
H1387 H 0.50365 0.28896 0.80715 0.0
H1388 H 0.4522 0.29539 0.82932 0.0
H1389 H 0.38075 0.25746 0.74455 0.0
H1390 H 0.41005 0.27393 0.76959 0.0
H1391 H 0.44568 0.24784 0.76349 0.0
C1392 C 0.50433 0.30309 0.81033 0.0
C1393 C 0.45112 0.28514 0.81499 0.0
C1394 C 0.52249 0.3205 0.81146 0.0
C1395 C 0.38675 0.24875 0.75019 0.0
C1396 C 0.40347 0.25815 0.7646 0.0
C1397 C 0.44697 0.2579 0.77818 0.0
C1398 C 0.48729 0.30404 0.81215 0.0
C1399 C 0.46781 0.28622 0.80585 0.0
C1400 C 0.41205 0.24758 0.77173 0.0
C1401 C 0.43064 0.25851 0.78565 0.0
H1402 H 0.50785 0.35424 0.82165 0.0
H1403 H 0.47647 0.32441 0.81843 0.0
H1404 H 0.47782 0.27206 0.7803 0.0
H1405 H 0.37966 0.20193 0.74482 0.0
H1406 H 0.40961 0.21869 0.76994 0.0
C1407 C 0.6143 0.11141 0.6743 0.0
C1408 C 0.61322 0.12795 0.68339 0.0
C1409 C 0.63182 0.11367 0.66684 0.0
C1410 C 0.68516 0.14935 0.67232 0.0
H1411 H 0.68556 0.11297 0.62344 0.0
C1412 C 0.75635 0.15557 0.64129 0.0
C1413 C 0.75686 0.13807 0.64299 0.0
C1414 C 0.73877 0.15534 0.64248 0.0
C1415 C 0.68565 0.12328 0.63705 0.0
H1416 H 0.62957 0.15991 0.69113 0.0
H1417 H 0.65992 0.16401 0.67729 0.0
H1418 H 0.65503 0.11105 0.63283 0.0
H1419 H 0.7393 0.10644 0.6458 0.0
H1420 H 0.70858 0.10594 0.6471 0.0
H1421 H 0.71588 0.16165 0.67626 0.0
C1422 C 0.64743 0.14916 0.67658 0.0
C1423 C 0.66813 0.1221 0.64262 0.0
C1424 C 0.62997 0.14685 0.68441 0.0
C1425 C 0.73934 0.12015 0.64443 0.0
C1426 C 0.72176 0.11985 0.64512 0.0
C1427 C 0.70269 0.15073 0.66647 0.0
C1428 C 0.64869 0.13258 0.66789 0.0
C1429 C 0.66756 0.13486 0.66066 0.0
C1430 C 0.72136 0.13753 0.64486 0.0
C1431 C 0.70307 0.13748 0.64907 0.0
H1432 H 0.60167 0.09662 0.67342 0.0
H1433 H 0.63217 0.10046 0.66074 0.0
H1434 H 0.6854 0.15924 0.68656 0.0
H1435 H 0.76964 0.16962 0.64043 0.0
H1436 H 0.73885 0.16916 0.64215 0.0
C1437 C 0.80238 0.4854 0.77237 0.0
C1438 C 0.80858 0.47303 0.76143 0.0
C1439 C 0.80594 0.50278 0.76301 0.0
C1440 C 0.81705 0.52602 0.70814 0.0
H1441 H 0.83942 0.57622 0.74622 0.0
C1442 C 0.86412 0.5998 0.67181 0.0
C1443 C 0.8623 0.61636 0.67865 0.0
C1444 C 0.85384 0.58224 0.68219 0.0
C1445 C 0.83279 0.56225 0.73544 0.0
H1446 H 0.82342 0.46935 0.73212 0.0
H1447 H 0.82957 0.49948 0.71589 0.0
H1448 H 0.82878 0.5454 0.76425 0.0
H1449 H 0.84769 0.6271 0.70149 0.0
H1450 H 0.82996 0.59627 0.7204 0.0
H1451 H 0.82163 0.54281 0.67931 0.0
C1452 C 0.82181 0.49569 0.73157 0.0
C1453 C 0.82675 0.54461 0.74574 0.0
C1454 C 0.8184 0.47846 0.74098 0.0
C1455 C 0.84964 0.61477 0.69606 0.0
C1456 C 0.83946 0.59711 0.70682 0.0
C1457 C 0.82304 0.54355 0.6979 0.0
C1458 C 0.81557 0.50804 0.74239 0.0
C1459 C 0.81944 0.52639 0.7321 0.0
C1460 C 0.84149 0.58066 0.69991 0.0
C1461 C 0.83161 0.56195 0.71133 0.0
H1462 H 0.79479 0.48165 0.78816 0.0
H1463 H 0.80091 0.51194 0.77172 0.0
H1464 H 0.81102 0.51218 0.69719 0.0
H1465 H 0.87368 0.60039 0.65841 0.0
H1466 H 0.85598 0.56998 0.67668 0.0
C1467 C 0.48452 0.90481 0.22379 0.0
C1468 C 0.47681 0.91414 0.23816 0.0
C1469 C 0.49495 0.91385 0.20477 0.0
C1470 C 0.52067 0.96231 0.17987 0.0
H1471 H 0.50359 0.93077 0.12072 0.0
C1472 C 0.51781 0.99362 0.09652 0.0
C1473 C 0.5204 0.98566 0.07528 0.0
C1474 C 0.51917 0.9863 0.11699 0.0
C1475 C 0.50894 0.93973 0.13712 0.0
H1476 H 0.47453 0.94053 0.24415 0.0
H1477 H 0.49258 0.95615 0.21122 0.0
H1478 H 0.49273 0.91451 0.15609 0.0
H1479 H 0.52858 0.96525 0.05923 0.0
H1480 H 0.5303 0.95184 0.09511 0.0
H1481 H 0.53608 0.98762 0.16089 0.0
C1482 C 0.49073 0.94195 0.21465 0.0
C1483 C 0.50267 0.9304 0.1574 0.0
C1484 C 0.4802 0.93288 0.23344 0.0
C1485 C 0.52604 0.97135 0.07522 0.0
C1486 C 0.52705 0.9637 0.09576 0.0
C1487 C 0.52693 0.97161 0.15964 0.0
C1488 C 0.49808 0.93249 0.19995 0.0
C1489 C 0.50781 0.9417 0.17894 0.0
C1490 C 0.52303 0.97071 0.11678 0.0
C1491 C 0.52046 0.96052 0.13801 0.0
H1492 H 0.48218 0.89037 0.22696 0.0
H1493 H 0.50048 0.90622 0.19378 0.0
H1494 H 0.52523 0.97137 0.19624 0.0
H1495 H 0.5137 0.00485 0.09726 0.0
H1496 H 0.51588 0.99198 0.13281 0.0
C1497 C 0.16558 0.58743 0.21235 0.0
C1498 C 0.18294 0.59675 0.20103 0.0
C1499 C 0.14854 0.58513 0.20245 0.0
C1500 C 0.12913 0.59839 0.15179 0.0
H1501 H 0.08187 0.55019 0.1634 0.0
C1502 C 0.06166 0.54869 0.09024 0.0
C1503 C 0.04362 0.54473 0.09802 0.0
C1504 C 0.07851 0.56 0.10434 0.0
C1505 C 0.0949 0.5639 0.16033 0.0
H1506 H 0.19636 0.61111 0.17067 0.0
H1507 H 0.16655 0.60587 0.15245 0.0
H1508 H 0.11164 0.5596 0.18508 0.0
H1509 H 0.02887 0.54878 0.12716 0.0
H1510 H 0.0585 0.568 0.15244 0.0
H1511 H 0.11225 0.60123 0.12523 0.0
C1512 C 0.16595 0.6011 0.16947 0.0
C1513 C 0.11208 0.56944 0.17286 0.0
C1514 C 0.18311 0.60399 0.17979 0.0
C1515 C 0.04272 0.55223 0.12044 0.0
C1516 C 0.05958 0.56315 0.13486 0.0
C1517 C 0.112 0.59247 0.1388 0.0
C1518 C 0.14829 0.59139 0.18051 0.0
C1519 C 0.12959 0.58663 0.16859 0.0
C1520 C 0.07756 0.5669 0.12693 0.0
C1521 C 0.09482 0.57509 0.14286 0.0
H1522 H 0.16519 0.58194 0.22891 0.0
H1523 H 0.13555 0.57821 0.212 0.0
H1524 H 0.14205 0.61197 0.14824 0.0
H1525 H 0.06252 0.54153 0.07403 0.0
H1526 H 0.09209 0.56206 0.09825 0.0
C1527 C 0.46246 0.55751 0.2109 0.0
C1528 C 0.44975 0.56492 0.21066 0.0
C1529 C 0.4678 0.55161 0.19031 0.0
C1530 C 0.45276 0.53665 0.12844 0.0
H1531 H 0.50569 0.54838 0.12263 0.0
C1532 C 0.47783 0.51896 0.04255 0.0
C1533 C 0.48816 0.50899 0.04364 0.0
C1534 C 0.47505 0.5281 0.06251 0.0
C1535 C 0.49084 0.54493 0.12405 0.0
H1536 H 0.43263 0.57188 0.1885 0.0
H1537 H 0.44212 0.56184 0.15261 0.0
H1538 H 0.49652 0.55924 0.15838 0.0
H1539 H 0.50364 0.50056 0.06629 0.0
H1540 H 0.49886 0.51661 0.10143 0.0
H1541 H 0.44703 0.52228 0.09421 0.0
C1542 C 0.44776 0.5603 0.16873 0.0
C1543 C 0.48556 0.55108 0.14454 0.0
C1544 C 0.44235 0.56612 0.18933 0.0
C1545 C 0.49602 0.5086 0.065 0.0
C1546 C 0.49328 0.51779 0.08505 0.0
C1547 C 0.45805 0.53058 0.10796 0.0
C1548 C 0.46061 0.55305 0.16896 0.0
C1549 C 0.46641 0.54691 0.14703 0.0
C1550 C 0.48233 0.52721 0.08407 0.0
C1551 C 0.47713 0.53458 0.10555 0.0
H1552 H 0.46839 0.55632 0.22703 0.0
H1553 H 0.47746 0.54577 0.19114 0.0
H1554 H 0.43782 0.53287 0.12988 0.0
H1555 H 0.47076 0.51852 0.02647 0.0
H1556 H 0.46659 0.53525 0.06116 0.0
C1557 C 0.85743 0.41418 0.83834 0.0
C1558 C 0.84291 0.41915 0.84048 0.0
C1559 C 0.87061 0.41853 0.85674 0.0
C1560 C 0.89044 0.45008 0.91238 0.0
H1561 H 0.91335 0.41727 0.91864 0.0
C1562 C 0.94802 0.46936 0.98402 0.0
C1563 C 0.96571 0.47318 0.97505 0.0
C1564 C 0.9308 0.45868 0.97038 0.0
C1565 C 0.90695 0.42646 0.91716 0.0
H1566 H 0.83058 0.43227 0.86375 0.0
H1567 H 0.8531 0.43922 0.89628 0.0
H1568 H 0.88705 0.4069 0.88966 0.0
H1569 H 0.97929 0.46831 0.94524 0.0
H1570 H 0.94901 0.44916 0.92141 0.0
H1571 H 0.91027 0.46948 0.9401 0.0
C1572 C 0.85473 0.43248 0.88014 0.0
C1573 C 0.89201 0.42067 0.90042 0.0
C1574 C 0.84175 0.42845 0.86153 0.0
C1575 C 0.96576 0.46519 0.95265 0.0
C1576 C 0.94847 0.45428 0.93907 0.0
C1577 C 0.90508 0.45563 0.92938 0.0
C1578 C 0.86942 0.42765 0.87798 0.0
C1579 C 0.88388 0.43267 0.89739 0.0
C1580 C 0.93098 0.45163 0.94752 0.0
C1581 C 0.91375 0.4441 0.9316 0.0
H1582 H 0.85881 0.40714 0.82227 0.0
H1583 H 0.88195 0.41504 0.85407 0.0
H1584 H 0.88486 0.45992 0.91046 0.0
H1585 H 0.94769 0.47589 0.00099 0.0
H1586 H 0.9175 0.45682 0.97728 0.0
C1587 C 0.57182 0.41883 0.79725 0.0
C1588 C 0.57558 0.42438 0.77468 0.0
C1589 C 0.55923 0.42265 0.81033 0.0
C1590 C 0.54176 0.45731 0.81713 0.0
H1591 H 0.50053 0.41797 0.85084 0.0
C1592 C 0.49764 0.48074 0.87364 0.0
C1593 C 0.49414 0.47384 0.89563 0.0
C1594 C 0.50309 0.47157 0.85611 0.0
C1595 C 0.51209 0.42922 0.84175 0.0
H1596 H 0.56927 0.4386 0.74832 0.0
H1597 H 0.54775 0.44567 0.77133 0.0
H1598 H 0.52013 0.40859 0.8269 0.0
H1599 H 0.49084 0.45023 0.91523 0.0
H1600 H 0.50154 0.43505 0.88541 0.0
H1601 H 0.53481 0.47827 0.8327 0.0
C1602 C 0.55433 0.43812 0.77877 0.0
C1603 C 0.52326 0.42378 0.82797 0.0
C1604 C 0.5667 0.4341 0.76564 0.0
C1605 C 0.49403 0.45626 0.89879 0.0
C1606 C 0.5 0.44739 0.88147 0.0
C1607 C 0.5309 0.46284 0.83118 0.0
C1608 C 0.55047 0.43246 0.80125 0.0
C1609 C 0.53822 0.43782 0.81555 0.0
C1610 C 0.50558 0.45555 0.86028 0.0
C1611 C 0.51591 0.44892 0.84379 0.0
H1612 H 0.57903 0.41213 0.80514 0.0
H1613 H 0.55682 0.41851 0.82781 0.0
H1614 H 0.5534 0.46851 0.80802 0.0
H1615 H 0.49736 0.49398 0.87034 0.0
H1616 H 0.50634 0.47777 0.83968 0.0
C1617 C 0.52233 0.05195 0.75989 0.0
C1618 C 0.53315 0.07282 0.76259 0.0
C1619 C 0.51795 0.04113 0.7791 0.0
C1620 C 0.50873 0.04271 0.83939 0.0
H1621 H 0.52638 0.00537 0.84452 0.0
C1622 C 0.50762 0.00955 0.9247 0.0
C1623 C 0.50812 0.9919 0.92408 0.0
C1624 C 0.50765 0.01781 0.90432 0.0
C1625 C 0.52082 0.01529 0.84325 0.0
H1626 H 0.54771 0.09871 0.7875 0.0
H1627 H 0.53954 0.0797 0.82117 0.0
H1628 H 0.53279 0.02302 0.81028 0.0
H1629 H 0.50667 0.96779 0.90155 0.0
H1630 H 0.50511 0.98122 0.866 0.0
H1631 H 0.49618 0.0347 0.87188 0.0
C1632 C 0.5347 0.07181 0.80413 0.0
C1633 C 0.52473 0.02557 0.82365 0.0
C1634 C 0.53949 0.08264 0.78488 0.0
C1635 C 0.50661 0.9816 0.90259 0.0
C1636 C 0.50603 0.98952 0.88218 0.0
C1637 C 0.50438 0.03209 0.85879 0.0
C1638 C 0.52389 0.05098 0.80137 0.0
C1639 C 0.51897 0.03954 0.82171 0.0
C1640 C 0.50755 0.00824 0.88273 0.0
C1641 C 0.5106 0.01839 0.86119 0.0
H1642 H 0.51725 0.04399 0.74292 0.0
H1643 H 0.50961 0.02506 0.7766 0.0
H1644 H 0.50398 0.05332 0.83811 0.0
H1645 H 0.50863 0.01776 0.94095 0.0
H1646 H 0.50891 0.03226 0.90572 0.0
C1647 C 0.15157 0.2438 0.55668 0.0
C1648 C 0.14145 0.25093 0.57015 0.0
C1649 C 0.16234 0.25412 0.53848 0.0
C1650 C 0.18592 0.30347 0.51647 0.0
H1651 H 0.17488 0.27488 0.45573 0.0
C1652 C 0.1915 0.34002 0.43411 0.0
C1653 C 0.19573 0.33299 0.41328 0.0
C1654 C 0.19053 0.3313 0.45433 0.0
C1655 C 0.17855 0.28308 0.47262 0.0
H1656 H 0.1351 0.27473 0.57537 0.0
H1657 H 0.15397 0.29272 0.54396 0.0
H1658 H 0.16197 0.25652 0.48938 0.0
H1659 H 0.20415 0.31249 0.39801 0.0
H1660 H 0.2022 0.29701 0.43343 0.0
H1661 H 0.20202 0.33004 0.4998 0.0
C1662 C 0.15361 0.27918 0.54743 0.0
C1663 C 0.17108 0.27254 0.4919 0.0
C1664 C 0.14266 0.26877 0.56533 0.0
C1665 C 0.20051 0.31805 0.41363 0.0
C1666 C 0.19934 0.30913 0.43392 0.0
C1667 C 0.19348 0.31399 0.49728 0.0
C1668 C 0.16348 0.27194 0.5337 0.0
C1669 C 0.1741 0.28269 0.51391 0.0
C1670 C 0.19374 0.31527 0.45435 0.0
C1671 C 0.18926 0.30398 0.475 0.0
H1672 H 0.1509 0.23008 0.55993 0.0
H1673 H 0.16981 0.2482 0.52818 0.0
H1674 H 0.1888 0.31167 0.5333 0.0
H1675 H 0.18792 0.35163 0.4346 0.0
H1676 H 0.18604 0.33636 0.46963 0.0
C1677 C 0.8202 0.89913 0.54875 0.0
C1678 C 0.83518 0.91193 0.53541 0.0
C1679 C 0.80164 0.89637 0.54606 0.0
C1680 C 0.77291 0.91608 0.52063 0.0
H1681 H 0.73197 0.86087 0.51651 0.0
C1682 C 0.69978 0.88335 0.46989 0.0
C1683 C 0.68439 0.86501 0.47527 0.0
C1684 C 0.71694 0.8931 0.48377 0.0
C1685 C 0.74305 0.87645 0.51822 0.0
H1686 H 0.8424 0.9317 0.50851 0.0
H1687 H 0.80987 0.92677 0.50363 0.0
H1688 H 0.7648 0.86971 0.52702 0.0
H1689 H 0.67357 0.84464 0.50189 0.0
H1690 H 0.70336 0.86182 0.526 0.0
H1691 H 0.75095 0.92262 0.51129 0.0
C1692 C 0.81262 0.91928 0.51665 0.0
C1693 C 0.76199 0.88152 0.52415 0.0
C1694 C 0.83128 0.92214 0.51947 0.0
C1695 C 0.68536 0.85842 0.49673 0.0
C1696 C 0.70253 0.8682 0.51055 0.0
C1697 C 0.75382 0.91099 0.51482 0.0
C1698 C 0.79751 0.90613 0.52971 0.0
C1699 C 0.77722 0.90133 0.5251 0.0
C1700 C 0.71902 0.88479 0.50325 0.0
C1701 C 0.73871 0.89104 0.51312 0.0
H1702 H 0.82282 0.89114 0.56125 0.0
H1703 H 0.79042 0.88635 0.55662 0.0
H1704 H 0.7843 0.93152 0.52145 0.0
H1705 H 0.69931 0.88923 0.45391 0.0
H1706 H 0.72911 0.90605 0.47798 0.0
C1707 C 0.12799 0.88849 0.56061 0.0
C1708 C 0.11695 0.89784 0.56109 0.0
C1709 C 0.13355 0.88336 0.53971 0.0
C1710 C 0.12227 0.87554 0.47664 0.0
H1711 H 0.17345 0.88182 0.47364 0.0
C1712 C 0.15101 0.86373 0.39061 0.0
C1713 C 0.15837 0.85086 0.39033 0.0
C1714 C 0.14808 0.87166 0.41145 0.0
C1715 C 0.15911 0.87995 0.47426 0.0
H1716 H 0.10295 0.909 0.53994 0.0
H1717 H 0.11294 0.90042 0.50353 0.0
H1718 H 0.16336 0.89066 0.50997 0.0
H1719 H 0.16874 0.83636 0.41151 0.0
H1720 H 0.16371 0.85033 0.44816 0.0
H1721 H 0.11808 0.86494 0.44091 0.0
C1722 C 0.11703 0.8967 0.51927 0.0
C1723 C 0.15326 0.8849 0.49508 0.0
C1724 C 0.11133 0.90168 0.54017 0.0
C1725 C 0.16335 0.84653 0.41131 0.0
C1726 C 0.1605 0.85454 0.43222 0.0
C1727 C 0.12817 0.87076 0.45581 0.0
C1728 C 0.12833 0.8876 0.51878 0.0
C1729 C 0.13471 0.88264 0.49656 0.0
C1730 C 0.15231 0.86673 0.43248 0.0
C1731 C 0.14661 0.87283 0.45442 0.0
H1732 H 0.13248 0.88523 0.57642 0.0
H1733 H 0.1419 0.87601 0.53998 0.0
H1734 H 0.10778 0.87327 0.47719 0.0
H1735 H 0.14618 0.86649 0.37473 0.0
H1736 H 0.14181 0.88106 0.41111 0.0
C1737 C 0.52196 0.76541 0.19693 0.0
C1738 C 0.52656 0.75917 0.17589 0.0
C1739 C 0.53434 0.77093 0.21658 0.0
C1740 C 0.57676 0.76842 0.23972 0.0
H1741 H 0.58106 0.80993 0.28453 0.0
C1742 C 0.63942 0.81528 0.30982 0.0
C1743 C 0.63357 0.81736 0.33202 0.0
C1744 C 0.62558 0.8051 0.2915 0.0
C1745 C 0.57985 0.79818 0.27224 0.0
H1746 H 0.54794 0.75427 0.15875 0.0
H1747 H 0.56999 0.76488 0.19251 0.0
H1748 H 0.55888 0.79939 0.25087 0.0
H1749 H 0.60891 0.81077 0.35254 0.0
H1750 H 0.58476 0.79298 0.3206 0.0
H1751 H 0.59867 0.76818 0.26084 0.0
C1752 C 0.5565 0.76479 0.19428 0.0
C1753 C 0.56705 0.79202 0.25296 0.0
C1754 C 0.54392 0.75887 0.17479 0.0
C1755 C 0.61372 0.8087 0.33575 0.0
C1756 C 0.59994 0.7988 0.31745 0.0
C1757 C 0.58988 0.7749 0.25881 0.0
C1758 C 0.55184 0.77077 0.21553 0.0
C1759 C 0.56529 0.77705 0.23637 0.0
C1760 C 0.60578 0.79737 0.29507 0.0
C1761 C 0.59149 0.7898 0.27524 0.0
H1762 H 0.50857 0.76559 0.19835 0.0
H1763 H 0.52998 0.77505 0.23264 0.0
H1764 H 0.57559 0.75657 0.22767 0.0
H1765 H 0.65468 0.82224 0.30648 0.0
H1766 H 0.63042 0.80434 0.27432 0.0
C1767 C 0.22736 0.75008 0.14585 0.0
C1768 C 0.23904 0.76016 0.12795 0.0
C1769 C 0.21734 0.75772 0.15837 0.0
C1770 C 0.21771 0.80409 0.17432 0.0
H1771 H 0.16366 0.76976 0.18663 0.0
C1772 C 0.17773 0.83766 0.22122 0.0
C1773 C 0.16787 0.82793 0.24031 0.0
C1774 C 0.18297 0.82794 0.2042 0.0
C1775 C 0.17876 0.77952 0.18343 0.0
H1776 H 0.24957 0.78637 0.10952 0.0
H1777 H 0.23225 0.79974 0.13148 0.0
H1778 H 0.181 0.75593 0.16522 0.0
H1779 H 0.15304 0.79944 0.25438 0.0
H1780 H 0.16232 0.7826 0.2248 0.0
H1781 H 0.21588 0.82751 0.19306 0.0
C1782 C 0.23086 0.78593 0.13582 0.0
C1783 C 0.18869 0.77159 0.17121 0.0
C1784 C 0.24077 0.77825 0.12321 0.0
C1785 C 0.16117 0.80756 0.24032 0.0
C1786 C 0.16646 0.79785 0.22327 0.0
C1787 C 0.20788 0.81195 0.18667 0.0
C1788 C 0.21891 0.77567 0.15338 0.0
C1789 C 0.20827 0.78384 0.1665 0.0
C1790 C 0.17849 0.80832 0.20586 0.0
C1791 C 0.18826 0.79981 0.19136 0.0
H1792 H 0.22566 0.73609 0.14996 0.0
H1793 H 0.20845 0.74963 0.17203 0.0
H1794 H 0.23287 0.81383 0.1713 0.0
H1795 H 0.18272 0.85323 0.22024 0.0
H1796 H 0.19152 0.83621 0.19044 0.0
C1797 C 0.21764 0.42125 0.11194 0.0
C1798 C 0.2119 0.4095 0.09068 0.0
C1799 C 0.21421 0.41244 0.13263 0.0
C1800 C 0.20669 0.36802 0.15753 0.0
H1801 H 0.18304 0.38346 0.20659 0.0
C1802 C 0.18957 0.32989 0.24111 0.0
C1803 C 0.19357 0.34208 0.26177 0.0
C1804 C 0.18905 0.33692 0.22003 0.0
C1805 C 0.18984 0.3791 0.19319 0.0
H1806 H 0.19844 0.37931 0.07449 0.0
H1807 H 0.19288 0.36399 0.11065 0.0
H1808 H 0.18879 0.39867 0.17036 0.0
H1809 H 0.20004 0.37104 0.27672 0.0
H1810 H 0.19952 0.38357 0.24004 0.0
H1811 H 0.20853 0.34907 0.18037 0.0
C1812 C 0.19988 0.38 0.11125 0.0
C1813 C 0.19309 0.38781 0.17243 0.0
C1814 C 0.20305 0.38878 0.09057 0.0
C1815 C 0.19634 0.36116 0.26107 0.0
C1816 C 0.19614 0.36835 0.23996 0.0
C1817 C 0.20371 0.35952 0.17836 0.0
C1818 C 0.20525 0.39173 0.13248 0.0
C1819 C 0.20158 0.38237 0.15442 0.0
C1820 C 0.193 0.35649 0.21909 0.0
C1821 C 0.19525 0.36494 0.19652 0.0
H1822 H 0.22441 0.43725 0.11264 0.0
H1823 H 0.21868 0.42184 0.14877 0.0
H1824 H 0.21347 0.36373 0.14403 0.0
H1825 H 0.1874 0.3151 0.24124 0.0
H1826 H 0.18606 0.32715 0.20441 0.0
C1827 C 0.8227 0.58492 0.90278 0.0
C1828 C 0.81246 0.59199 0.91611 0.0
C1829 C 0.8325 0.5945 0.88374 0.0
C1830 C 0.85274 0.64195 0.85761 0.0
H1831 H 0.84127 0.60969 0.79928 0.0
C1832 C 0.85421 0.67163 0.77116 0.0
C1833 C 0.85857 0.66374 0.75111 0.0
C1834 C 0.85409 0.66455 0.79234 0.0
C1835 C 0.84506 0.61893 0.81548 0.0
H1836 H 0.80491 0.61496 0.92019 0.0
H1837 H 0.82205 0.63167 0.88714 0.0
H1838 H 0.83019 0.59367 0.83473 0.0
H1839 H 0.86782 0.64333 0.73803 0.0
H1840 H 0.86751 0.63081 0.77521 0.0
H1841 H 0.86715 0.66721 0.83837 0.0
C1842 C 0.82256 0.61877 0.89144 0.0
C1843 C 0.83864 0.60973 0.83579 0.0
C1844 C 0.8126 0.60909 0.91028 0.0
C1845 C 0.86418 0.64957 0.75308 0.0
C1846 C 0.86392 0.64233 0.77436 0.0
C1847 C 0.85927 0.65114 0.83735 0.0
C1848 C 0.83248 0.6115 0.87784 0.0
C1849 C 0.84185 0.62116 0.85695 0.0
C1850 C 0.85833 0.64936 0.79411 0.0
C1851 C 0.8549 0.63975 0.81594 0.0
H1852 H 0.82288 0.57178 0.9068 0.0
H1853 H 0.84007 0.58861 0.87361 0.0
H1854 H 0.85575 0.65113 0.87374 0.0
H1855 H 0.85 0.6827 0.77036 0.0
H1856 H 0.84954 0.67021 0.80708 0.0
C1857 C 0.4871 0.2257 0.87881 0.0
C1858 C 0.50179 0.2383 0.86501 0.0
C1859 C 0.46894 0.22414 0.87788 0.0
C1860 C 0.44137 0.24676 0.85635 0.0
H1861 H 0.39867 0.19235 0.85156 0.0
C1862 C 0.36821 0.21817 0.80748 0.0
C1863 C 0.35239 0.19998 0.81252 0.0
C1864 C 0.38547 0.22703 0.82114 0.0
C1865 C 0.41027 0.20772 0.8535 0.0
H1866 H 0.5089 0.25896 0.83916 0.0
H1867 H 0.47711 0.25611 0.83731 0.0
H1868 H 0.43115 0.19937 0.86061 0.0
H1869 H 0.34103 0.17906 0.83853 0.0
H1870 H 0.37099 0.19466 0.86225 0.0
H1871 H 0.42027 0.25492 0.8486 0.0
C1872 C 0.4798 0.24788 0.8494 0.0
C1873 C 0.42901 0.21174 0.85861 0.0
C1874 C 0.49804 0.24956 0.85049 0.0
C1875 C 0.35314 0.19273 0.8336 0.0
C1876 C 0.37041 0.20159 0.84719 0.0
C1877 C 0.42249 0.24272 0.85136 0.0
C1878 C 0.46492 0.23491 0.86283 0.0
C1879 C 0.44486 0.23124 0.85967 0.0
C1880 C 0.38721 0.21794 0.84006 0.0
C1881 C 0.40675 0.22307 0.84936 0.0
H1882 H 0.4896 0.21687 0.89017 0.0
H1883 H 0.4579 0.2142 0.88867 0.0
H1884 H 0.45324 0.26198 0.85731 0.0
H1885 H 0.36794 0.22457 0.79184 0.0
H1886 H 0.3979 0.23986 0.81554 0.0
C1887 C 0.77122 0.22835 0.86369 0.0
C1888 C 0.78008 0.22862 0.88466 0.0
C1889 C 0.77691 0.22335 0.84279 0.0
C1890 C 0.81699 0.21828 0.81719 0.0
H1891 H 0.77872 0.18921 0.76667 0.0
C1892 C 0.82717 0.17705 0.7359 0.0
C1893 C 0.81991 0.17867 0.71474 0.0
C1894 C 0.82466 0.18591 0.75638 0.0
C1895 C 0.78962 0.19755 0.78054 0.0
H1896 H 0.80146 0.2233 0.9002 0.0
H1897 H 0.8108 0.21376 0.86389 0.0
H1898 H 0.76879 0.19784 0.80303 0.0
H1899 H 0.80414 0.19044 0.69835 0.0
H1900 H 0.80011 0.2063 0.73398 0.0
H1901 H 0.83763 0.21716 0.79469 0.0
C1902 C 0.79992 0.21806 0.86344 0.0
C1903 C 0.78394 0.20255 0.80141 0.0
C1904 C 0.79443 0.22335 0.88432 0.0
C1905 C 0.81065 0.18978 0.7143 0.0
C1906 C 0.80798 0.19847 0.73474 0.0
C1907 C 0.8226 0.21301 0.79637 0.0
C1908 C 0.79139 0.2182 0.84236 0.0
C1909 C 0.79753 0.21298 0.82005 0.0
C1910 C 0.81449 0.19616 0.75604 0.0
C1911 C 0.80896 0.20262 0.77784 0.0
H1912 H 0.76026 0.23255 0.86336 0.0
H1913 H 0.77021 0.22396 0.82696 0.0
H1914 H 0.82795 0.22663 0.83096 0.0
H1915 H 0.83403 0.16822 0.73666 0.0
H1916 H 0.82966 0.18374 0.77258 0.0
C1917 C 0.18752 0.11077 0.53773 0.0
C1918 C 0.19123 0.1045 0.51611 0.0
C1919 C 0.2005 0.11591 0.55668 0.0
C1920 C 0.24273 0.11167 0.57658 0.0
H1921 H 0.24892 0.15253 0.62371 0.0
C1922 C 0.30646 0.1553 0.64639 0.0
C1923 C 0.30085 0.15664 0.66892 0.0
C1924 C 0.29248 0.146 0.62808 0.0
C1925 C 0.24719 0.14097 0.61075 0.0
H1926 H 0.21169 0.09927 0.49717 0.0
H1927 H 0.2348 0.10926 0.52974 0.0
H1928 H 0.2263 0.1435 0.59081 0.0
H1929 H 0.27642 0.14962 0.69005 0.0
H1930 H 0.25202 0.13336 0.65815 0.0
H1931 H 0.26455 0.11009 0.5963 0.0
C1932 C 0.22155 0.10945 0.53249 0.0
C1933 C 0.23414 0.13568 0.59191 0.0
C1934 C 0.20837 0.1039 0.51369 0.0
C1935 C 0.28106 0.14807 0.67297 0.0
C1936 C 0.26714 0.13907 0.6547 0.0
C1937 C 0.25611 0.1173 0.59523 0.0
C1938 C 0.21773 0.11534 0.55435 0.0
C1939 C 0.23166 0.12091 0.57453 0.0
C1940 C 0.27276 0.13843 0.63205 0.0
C1941 C 0.25837 0.13193 0.6125 0.0
H1942 H 0.17432 0.11116 0.54017 0.0
H1943 H 0.19678 0.11997 0.57324 0.0
H1944 H 0.24101 0.09996 0.56388 0.0
H1945 H 0.32168 0.16221 0.64283 0.0
H1946 H 0.29714 0.14583 0.6107 0.0
C1947 C 0.89492 0.10781 0.43344 0.0
C1948 C 0.90367 0.09776 0.44196 0.0
C1949 C 0.88245 0.11148 0.44679 0.0
C1950 C 0.85082 0.09593 0.49537 0.0
H1951 H 0.86311 0.15067 0.50244 0.0
C1952 C 0.82151 0.12719 0.56751 0.0
C1953 C 0.82227 0.14523 0.56523 0.0
C1954 C 0.82728 0.11851 0.54976 0.0
C1955 C 0.85899 0.13518 0.50027 0.0
H1956 H 0.90666 0.08449 0.47173 0.0
H1957 H 0.88424 0.09025 0.49472 0.0
H1958 H 0.88173 0.14129 0.47735 0.0
H1959 H 0.82623 0.16634 0.54092 0.0
H1960 H 0.83486 0.15049 0.5095 0.0
H1961 H 0.82783 0.08969 0.51799 0.0
C1962 C 0.88687 0.09494 0.47749 0.0
C1963 C 0.86987 0.12987 0.48598 0.0
C1964 C 0.8996 0.09148 0.46421 0.0
C1965 C 0.82606 0.15275 0.54358 0.0
C1966 C 0.83132 0.14378 0.52561 0.0
C1967 C 0.83962 0.10117 0.50939 0.0
C1968 C 0.87831 0.10514 0.46895 0.0
C1969 C 0.86606 0.11027 0.48355 0.0
C1970 C 0.83332 0.12733 0.529 0.0
C1971 C 0.84368 0.12095 0.51226 0.0
H1972 H 0.89771 0.11286 0.41638 0.0
H1973 H 0.87602 0.11934 0.43976 0.0
H1974 H 0.8475 0.08066 0.49366 0.0
H1975 H 0.81797 0.12062 0.58364 0.0
H1976 H 0.82834 0.10575 0.55305 0.0
C1977 C 0.87058 0.73106 0.43439 0.0
C1978 C 0.88106 0.75192 0.43571 0.0
C1979 C 0.86826 0.72126 0.45416 0.0
C1980 C 0.86534 0.72685 0.51605 0.0
H1981 H 0.88001 0.68691 0.51835 0.0
C1982 C 0.86941 0.69646 0.60129 0.0
C1983 C 0.86618 0.67714 0.60083 0.0
C1984 C 0.86956 0.7046 0.58082 0.0
C1985 C 0.8754 0.69768 0.51794 0.0
H1986 H 0.8973 0.77885 0.45877 0.0
H1987 H 0.8928 0.76167 0.49341 0.0
H1988 H 0.88374 0.70295 0.48315 0.0
H1989 H 0.86029 0.65093 0.57889 0.0
H1990 H 0.85947 0.66461 0.54298 0.0
H1991 H 0.85643 0.72134 0.55045 0.0
C1992 C 0.88657 0.75297 0.47701 0.0
C1993 C 0.87772 0.70698 0.49777 0.0
C1994 C 0.88925 0.76277 0.45718 0.0
C1995 C 0.86267 0.66584 0.5796 0.0
C1996 C 0.86244 0.67382 0.55907 0.0
C1997 C 0.86265 0.71729 0.53608 0.0
C1998 C 0.87601 0.73214 0.47568 0.0
C1999 C 0.87294 0.72181 0.49676 0.0
C2000 C 0.86629 0.69348 0.55934 0.0
C2001 C 0.86788 0.70273 0.53745 0.0
H2002 H 0.86412 0.7223 0.41808 0.0
H2003 H 0.86003 0.70518 0.45273 0.0
H2004 H 0.86132 0.73809 0.51556 0.0
H2005 H 0.87292 0.70569 0.61745 0.0
H2006 H 0.87306 0.71991 0.58191 0.0
loop_
_geom_bond_atom_site_label_1
_geom_bond_atom_site_label_2
_geom_bond_distance
_geom_bond_site_symmetry_2
_ccdc_geom_bond_type
O0 Cd1 2.300 . S
O0 C7 1.275 . S
Cd1 O0 2.300 . S
Cd1 O9 2.381 . S
Cd1 O10 2.378 . S
O2 Cd3 2.385 . S
O2 C7 1.255 . S
Cd3 O2 2.385 . S
Cd3 O4 2.317 . S
O4 Cd3 2.317 . S
O4 C5 1.232 . S
C5 O4 1.232 . S
C5 O6 1.218 . S
O6 C5 1.218 . S
C7 O0 1.275 . S
C7 O2 1.255 . S
C8 O9 1.258 . S
C8 O10 1.256 . S
O9 Cd1 2.381 . S
O9 C8 1.258 . S
O10 Cd1 2.378 . S
O10 C8 1.256 . S
O11 Cd12 2.300 . S
O11 C18 1.275 . S
Cd12 O11 2.300 . S
Cd12 O20 2.381 . S
Cd12 O21 2.378 . S
O13 Cd14 2.385 . S
O13 C18 1.255 . S
Cd14 O13 2.385 . S
Cd14 O15 2.317 . S
O15 Cd14 2.317 . S
O15 C16 1.232 . S
C16 O15 1.232 . S
C16 O17 1.218 . S
O17 C16 1.218 . S
C18 O11 1.275 . S
C18 O13 1.255 . S
C19 O20 1.258 . S
C19 O21 1.256 . S
O20 Cd12 2.381 . S
O20 C19 1.258 . S
O21 Cd12 2.378 . S
O21 C19 1.256 . S
O22 Cd23 2.300 . S
O22 C29 1.275 . S
Cd23 O22 2.300 . S
Cd23 O31 2.381 . S
Cd23 O32 2.378 . S
O24 Cd25 2.385 . S
O24 C29 1.255 . S
Cd25 O24 2.385 . S
Cd25 O26 2.317 . S
O26 Cd25 2.317 . S
O26 C27 1.232 . S
C27 O26 1.232 . S
C27 O28 1.218 . S
O28 C27 1.218 . S
C29 O22 1.275 . S
C29 O24 1.255 . S
C30 O31 1.258 . S
C30 O32 1.256 . S
O31 Cd23 2.381 . S
O31 C30 1.258 . S
O32 Cd23 2.378 . S
O32 C30 1.256 . S
O33 Cd34 2.300 . S
O33 C40 1.275 . S
Cd34 O33 2.300 . S
Cd34 O42 2.381 . S
Cd34 O43 2.378 . S
O35 Cd36 2.385 . S
O35 C40 1.255 . S
Cd36 O35 2.385 . S
Cd36 O37 2.317 . S
O37 Cd36 2.317 . S
O37 C38 1.232 . S
C38 O37 1.232 . S
C38 O39 1.218 . S
O39 C38 1.218 . S
C40 O33 1.275 . S
C40 O35 1.255 . S
C41 O42 1.258 . S
C41 O43 1.256 . S
O42 Cd34 2.381 . S
O42 C41 1.258 . S
O43 Cd34 2.378 . S
O43 C41 1.256 . S
O44 Cd45 2.300 . S
O44 C51 1.275 . S
Cd45 O44 2.300 . S
Cd45 O53 2.381 . S
Cd45 O54 2.378 . S
O46 Cd47 2.385 . S
O46 C51 1.255 . S
Cd47 O46 2.385 . S
Cd47 O48 2.317 . S
O48 Cd47 2.317 . S
O48 C49 1.232 . S
C49 O48 1.232 . S
C49 O50 1.218 . S
O50 C49 1.218 . S
C51 O44 1.275 . S
C51 O46 1.255 . S
C52 O53 1.258 . S
C52 O54 1.256 . S
O53 Cd45 2.381 . S
O53 C52 1.258 . S
O54 Cd45 2.378 . S
O54 C52 1.256 . S
O55 Cd56 2.300 . S
O55 C62 1.275 . S
Cd56 O55 2.300 . S
Cd56 O64 2.381 . S
Cd56 O65 2.378 . S
O57 Cd58 2.385 . S
O57 C62 1.255 . S
Cd58 O57 2.385 . S
Cd58 O59 2.317 . S
O59 Cd58 2.317 . S
O59 C60 1.232 . S
C60 O59 1.232 . S
C60 O61 1.218 . S
O61 C60 1.218 . S
C62 O55 1.275 . S
C62 O57 1.255 . S
C63 O64 1.258 . S
C63 O65 1.256 . S
O64 Cd56 2.381 . S
O64 C63 1.258 . S
O65 Cd56 2.378 . S
O65 C63 1.256 . S
O66 Cd67 2.300 . S
O66 C73 1.275 . S
Cd67 O66 2.300 . S
Cd67 O75 2.381 . S
Cd67 O76 2.378 . S
O68 Cd69 2.385 . S
O68 C73 1.255 . S
Cd69 O68 2.385 . S
Cd69 O70 2.317 . S
O70 Cd69 2.317 . S
O70 C71 1.232 . S
C71 O70 1.232 . S
C71 O72 1.218 . S
O72 C71 1.218 . S
C73 O66 1.275 . S
C73 O68 1.255 . S
C74 O75 1.258 . S
C74 O76 1.256 . S
O75 Cd67 2.381 . S
O75 C74 1.258 . S
O76 Cd67 2.378 . S
O76 C74 1.256 . S
O77 Cd78 2.300 . S
O77 C84 1.275 . S
Cd78 O77 2.300 . S
Cd78 O86 2.381 . S
Cd78 O87 2.378 . S
O79 Cd80 2.385 . S
O79 C84 1.255 . S
Cd80 O79 2.385 . S
Cd80 O81 2.317 . S
O81 Cd80 2.317 . S
O81 C82 1.232 . S
C82 O81 1.232 . S
C82 O83 1.218 . S
O83 C82 1.218 . S
C84 O77 1.275 . S
C84 O79 1.255 . S
C85 O86 1.258 . S
C85 O87 1.256 . S
O86 Cd78 2.381 . S
O86 C85 1.258 . S
O87 Cd78 2.378 . S
O87 C85 1.256 . S
O88 Cd89 2.300 . S
O88 C95 1.275 . S
Cd89 O88 2.300 . S
Cd89 O97 2.381 . S
Cd89 O98 2.378 . S
O90 Cd91 2.385 . S
O90 C95 1.255 . S
Cd91 O90 2.385 . S
Cd91 O92 2.317 . S
O92 Cd91 2.317 . S
O92 C93 1.232 . S
C93 O92 1.232 . S
C93 O94 1.218 . S
O94 C93 1.218 . S
C95 O88 1.275 . S
C95 O90 1.255 . S
C96 O97 1.258 . S
C96 O98 1.256 . S
O97 Cd89 2.381 . S
O97 C96 1.258 . S
O98 Cd89 2.378 . S
O98 C96 1.256 . S
O99 Cd100 2.300 1_556 S
O99 C106 1.275 . S
Cd100 O99 2.300 1_554 S
Cd100 O108 2.381 1_554 S
Cd100 O109 2.378 . S
O101 Cd102 2.385 1_556 S
O101 C106 1.255 . S
Cd102 O101 2.385 1_554 S
Cd102 O103 2.317 . S
O103 Cd102 2.317 . S
O103 C104 1.232 . S
C104 O103 1.232 . S
C104 O105 1.218 . S
O105 C104 1.218 . S
C106 O99 1.275 . S
C106 O101 1.255 . S
C107 O108 1.258 1_554 S
C107 O109 1.256 . S
O108 Cd100 2.381 1_556 S
O108 C107 1.258 1_556 S
O109 Cd100 2.378 . S
O109 C107 1.256 . S
O110 Cd111 2.300 . S
O110 C117 1.275 . S
Cd111 O110 2.300 . S
Cd111 O119 2.381 1_556 S
Cd111 O120 2.378 1_556 S
O112 Cd113 2.385 . S
O112 C117 1.255 . S
Cd113 O112 2.385 . S
Cd113 O114 2.317 1_556 S
O114 Cd113 2.317 1_554 S
O114 C115 1.232 . S
C115 O114 1.232 . S
C115 O116 1.218 1_554 S
O116 C115 1.218 1_556 S
C117 O110 1.275 . S
C117 O112 1.255 . S
C118 O119 1.258 . S
C118 O120 1.256 . S
O119 Cd111 2.381 1_554 S
O119 C118 1.258 . S
O120 Cd111 2.378 1_554 S
O120 C118 1.256 . S
O121 Cd122 2.300 . S
O121 C128 1.275 . S
Cd122 O121 2.300 . S
Cd122 O130 2.381 . S
Cd122 O131 2.378 1_556 S
O123 Cd124 2.385 1_556 S
O123 C128 1.255 . S
Cd124 O123 2.385 1_554 S
Cd124 O125 2.317 . S
O125 Cd124 2.317 . S
O125 C126 1.232 . S
C126 O125 1.232 . S
C126 O127 1.218 1_554 S
O127 C126 1.218 1_556 S
C128 O121 1.275 . S
C128 O123 1.255 . S
C129 O130 1.258 1_554 S
C129 O131 1.256 . S
O130 Cd122 2.381 . S
O130 C129 1.258 1_556 S
O131 Cd122 2.378 1_554 S
O131 C129 1.256 . S
O132 Cd133 2.300 . S
O132 C139 1.275 . S
Cd133 O132 2.300 . S
Cd133 O141 2.381 . S
Cd133 O142 2.378 1_554 S
O134 Cd135 2.385 . S
O134 C139 1.255 . S
Cd135 O134 2.385 . S
Cd135 O136 2.317 . S
O136 Cd135 2.317 . S
O136 C137 1.232 . S
C137 O136 1.232 . S
C137 O138 1.218 . S
O138 C137 1.218 . S
C139 O132 1.275 . S
C139 O134 1.255 . S
C140 O141 1.258 . S
C140 O142 1.256 1_554 S
O141 Cd133 2.381 . S
O141 C140 1.258 . S
O142 Cd133 2.378 1_556 S
O142 C140 1.256 1_556 S
O143 Cd144 2.300 . S
O143 C150 1.275 . S
Cd144 O143 2.300 . S
Cd144 O152 2.381 . S
Cd144 O153 2.378 . S
O145 Cd146 2.385 . S
O145 C150 1.255 . S
Cd146 O145 2.385 . S
Cd146 O147 2.317 . S
O147 Cd146 2.317 . S
O147 C148 1.232 . S
C148 O147 1.232 . S
C148 O149 1.218 . S
O149 C148 1.218 . S
C150 O143 1.275 . S
C150 O145 1.255 . S
C151 O152 1.258 . S
C151 O153 1.256 . S
O152 Cd144 2.381 . S
O152 C151 1.258 . S
O153 Cd144 2.378 . S
O153 C151 1.256 . S
O154 Cd155 2.300 . S
O154 C161 1.275 . S
Cd155 O154 2.300 . S
Cd155 O163 2.381 . S
Cd155 O164 2.378 1_554 S
O156 Cd157 2.385 . S
O156 C161 1.255 . S
Cd157 O156 2.385 . S
Cd157 O158 2.317 . S
O158 Cd157 2.317 . S
O158 C159 1.232 . S
C159 O158 1.232 . S
C159 O160 1.218 . S
O160 C159 1.218 . S
C161 O154 1.275 . S
C161 O156 1.255 . S
C162 O163 1.258 . S
C162 O164 1.256 1_554 S
O163 Cd155 2.381 . S
O163 C162 1.258 . S
O164 Cd155 2.378 1_556 S
O164 C162 1.256 1_556 S
O165 Cd166 2.300 . S
O165 C172 1.275 . S
Cd166 O165 2.300 . S
Cd166 O174 2.381 . S
Cd166 O175 2.378 . S
O167 Cd168 2.385 . S
O167 C172 1.255 . S
Cd168 O167 2.385 . S
Cd168 O169 2.317 . S
O169 Cd168 2.317 . S
O169 C170 1.232 . S
C170 O169 1.232 . S
C170 O171 1.218 . S
O171 C170 1.218 . S
C172 O165 1.275 . S
C172 O167 1.255 . S
C173 O174 1.258 . S
C173 O175 1.256 . S
O174 Cd166 2.381 . S
O174 C173 1.258 . S
O175 Cd166 2.378 . S
O175 C173 1.256 . S
O176 Cd177 2.300 . S
O176 C183 1.275 . S
Cd177 O176 2.300 . S
Cd177 O185 2.381 . S
Cd177 O186 2.378 . S
O178 Cd179 2.385 . S
O178 C183 1.255 . S
Cd179 O178 2.385 . S
Cd179 O180 2.317 . S
O180 Cd179 2.317 . S
O180 C181 1.232 . S
C181 O180 1.232 . S
C181 O182 1.218 . S
O182 C181 1.218 . S
C183 O176 1.275 . S
C183 O178 1.255 . S
C184 O185 1.258 . S
C184 O186 1.256 . S
O185 Cd177 2.381 . S
O185 C184 1.258 . S
O186 Cd177 2.378 . S
O186 C184 1.256 . S
O187 Cd188 2.300 . S
O187 C194 1.275 . S
Cd188 O187 2.300 . S
Cd188 O196 2.381 . S
Cd188 O197 2.378 . S
O189 Cd190 2.385 . S
O189 C194 1.255 . S
Cd190 O189 2.385 . S
Cd190 O191 2.317 . S
O191 Cd190 2.317 . S
O191 C192 1.232 . S
C192 O191 1.232 . S
C192 O193 1.218 . S
O193 C192 1.218 . S
C194 O187 1.275 . S
C194 O189 1.255 . S
C195 O196 1.258 . S
C195 O197 1.256 . S
O196 Cd188 2.381 . S
O196 C195 1.258 . S
O197 Cd188 2.378 . S
O197 C195 1.256 . S
O198 Mn199 2.163 1_565 S
O198 C212 1.244 . S
Mn199 O198 2.163 1_545 S
Mn199 O202 2.160 . S
Mn199 O203 2.221 1_545 S
Mn199 O205 2.163 1_554 S
Mn199 O207 2.158 1_545 S
Mn199 O217 2.221 . S
O200 Mn201 2.087 1_565 S
O200 C212 1.256 . S
Mn201 O200 2.087 1_545 S
Mn201 O208 2.089 1_545 S
Mn201 O217 2.290 . S
Mn201 O218 2.251 . S
O202 Mn199 2.160 . S
O202 C213 1.239 . S
O203 Mn199 2.221 1_565 S
O203 Mn204 2.290 1_554 S
O203 C214 1.265 1_554 S
Mn204 O203 2.290 1_556 S
Mn204 O206 2.089 1_565 S
Mn204 O209 2.251 . S
Mn204 O210 2.087 . S
O205 Mn199 2.163 1_556 S
O205 C215 1.244 . S
O206 Mn204 2.089 1_545 S
O206 C213 1.256 1_556 S
O207 Mn199 2.158 1_565 S
O207 C216 1.239 . S
O208 Mn201 2.089 1_565 S
O208 C216 1.256 . S
O209 Mn204 2.251 . S
O209 C214 1.280 . S
O210 Mn204 2.087 . S
O210 C215 1.256 1_565 S
C211 O217 1.278 . S
C211 O218 1.241 . S
C212 O198 1.244 . S
C212 O200 1.256 . S
C213 O202 1.239 . S
C213 O206 1.256 1_554 S
C214 O203 1.265 1_556 S
C214 O209 1.280 . S
C215 O205 1.244 . S
C215 O210 1.256 1_545 S
C216 O207 1.239 . S
C216 O208 1.256 . S
O217 Mn199 2.221 . S
O217 Mn201 2.290 . S
O217 C211 1.278 . S
O218 Mn201 2.251 . S
O218 C211 1.241 . S
O219 Mn220 2.163 . S
O219 C233 1.244 . S
Mn220 O219 2.163 . S
Mn220 O223 2.160 1_455 S
Mn220 O224 2.221 . S
Mn220 O226 2.163 1_454 S
Mn220 O228 2.160 . S
Mn220 O238 2.221 1_455 S
O221 Mn222 2.108 . S
O221 C233 1.256 . S
Mn222 O221 2.108 . S
Mn222 O229 2.091 . S
Mn222 O238 2.267 1_455 S
Mn222 O239 2.238 1_455 S
O223 Mn220 2.160 1_655 S
O223 C234 1.239 . S
O224 Mn220 2.221 . S
O224 Mn225 2.290 1_554 S
O224 C235 1.278 . S
Mn225 O224 2.290 1_556 S
Mn225 O227 2.085 1_456 S
Mn225 O230 2.251 . S
Mn225 O231 2.087 . S
O226 Mn220 2.163 1_656 S
O226 C236 1.244 . S
O227 Mn225 2.085 1_654 S
O227 C234 1.264 . S
O228 Mn220 2.160 . S
O228 C237 1.239 . S
O229 Mn222 2.091 . S
O229 C237 1.256 . S
O230 Mn225 2.251 . S
O230 C235 1.241 1_556 S
O231 Mn225 2.087 . S
O231 C236 1.256 1_455 S
C232 O238 1.278 . S
C232 O239 1.241 . S
C233 O219 1.244 . S
C233 O221 1.256 . S
C234 O223 1.239 . S
C234 O227 1.264 . S
C235 O224 1.278 . S
C235 O230 1.241 1_554 S
C236 O226 1.244 . S
C236 O231 1.256 1_655 S
C237 O228 1.239 . S
C237 O229 1.256 . S
O238 Mn220 2.221 1_655 S
O238 Mn222 2.267 1_655 S
O238 C232 1.278 . S
O239 Mn222 2.238 1_655 S
O239 C232 1.241 . S
O240 Mn241 2.158 1_554 S
O240 C254 1.243 . S
Mn241 O240 2.158 1_556 S
Mn241 O244 2.167 . S
Mn241 O245 2.209 1_556 S
Mn241 O247 2.116 1_556 S
Mn241 O249 2.209 . S
Mn241 O259 2.237 . S
O242 Mn243 2.087 . S
O242 C254 1.258 1_556 S
Mn243 O242 2.087 . S
Mn243 O250 2.089 . S
Mn243 O259 2.290 . S
Mn243 O260 2.251 . S
O244 Mn241 2.167 . S
O244 C255 1.239 1_556 S
O245 Mn241 2.209 1_554 S
O245 Mn246 2.290 . S
O245 C256 1.278 . S
Mn246 O245 2.290 . S
Mn246 O248 2.089 . S
Mn246 O251 2.251 . S
Mn246 O252 2.087 . S
O247 Mn241 2.116 1_554 S
O247 C257 1.244 . S
O248 Mn246 2.089 . S
O248 C255 1.256 . S
O249 Mn241 2.209 . S
O249 C258 1.239 . S
O250 Mn243 2.089 . S
O250 C258 1.256 . S
O251 Mn246 2.251 . S
O251 C256 1.241 . S
O252 Mn246 2.087 . S
O252 C257 1.256 . S
C253 O259 1.271 1_554 S
C253 O260 1.236 1_554 S
C254 O240 1.243 . S
C254 O242 1.258 1_554 S
C255 O244 1.239 1_554 S
C255 O248 1.256 . S
C256 O245 1.278 . S
C256 O251 1.241 . S
C257 O247 1.244 . S
C257 O252 1.256 . S
C258 O249 1.239 . S
C258 O250 1.256 . S
O259 Mn241 2.237 . S
O259 Mn243 2.290 . S
O259 C253 1.271 1_556 S
O260 Mn243 2.251 . S
O260 C253 1.236 1_556 S
O261 Mn262 2.163 . S
O261 C275 1.244 . S
Mn262 O261 2.163 . S
Mn262 O265 2.160 . S
Mn262 O266 2.221 . S
Mn262 O268 2.163 . S
Mn262 O270 2.160 . S
Mn262 O280 2.221 . S
O263 Mn264 2.087 . S
O263 C275 1.256 . S
Mn264 O263 2.087 . S
Mn264 O271 2.089 . S
Mn264 O280 2.290 . S
Mn264 O281 2.251 . S
O265 Mn262 2.160 . S
O265 C276 1.239 . S
O266 Mn262 2.221 . S
O266 Mn267 2.290 . S
O266 C277 1.278 . S
Mn267 O266 2.290 . S
Mn267 O269 2.089 . S
Mn267 O272 2.251 . S
Mn267 O273 2.087 . S
O268 Mn262 2.163 . S
O268 C278 1.244 . S
O269 Mn267 2.089 . S
O269 C276 1.256 . S
O270 Mn262 2.160 . S
O270 C279 1.239 . S
O271 Mn264 2.089 . S
O271 C279 1.256 . S
O272 Mn267 2.251 . S
O272 C277 1.241 . S
O273 Mn267 2.087 . S
O273 C278 1.256 . S
C274 O280 1.278 . S
C274 O281 1.241 . S
C275 O261 1.244 . S
C275 O263 1.256 . S
C276 O265 1.239 . S
C276 O269 1.256 . S
C277 O266 1.278 . S
C277 O272 1.241 . S
C278 O268 1.244 . S
C278 O273 1.256 . S
C279 O270 1.239 . S
C279 O271 1.256 . S
O280 Mn262 2.221 . S
O280 Mn264 2.290 . S
O280 C274 1.278 . S
O281 Mn264 2.251 . S
O281 C274 1.241 . S
O282 Mn283 2.163 . S
O282 C296 1.244 . S
Mn283 O282 2.163 . S
Mn283 O286 2.160 . S
Mn283 O287 2.221 . S
Mn283 O289 2.163 . S
Mn283 O291 2.160 . S
Mn283 O301 2.221 . S
O284 Mn285 2.087 . S
O284 C296 1.256 . S
Mn285 O284 2.087 . S
Mn285 O292 2.089 . S
Mn285 O301 2.290 . S
Mn285 O302 2.251 . S
O286 Mn283 2.160 . S
O286 C297 1.239 . S
O287 Mn283 2.221 . S
O287 Mn288 2.290 . S
O287 C298 1.278 . S
Mn288 O287 2.290 . S
Mn288 O290 2.089 . S
Mn288 O293 2.251 . S
Mn288 O294 2.087 . S
O289 Mn283 2.163 . S
O289 C299 1.244 . S
O290 Mn288 2.089 . S
O290 C297 1.256 . S
O291 Mn283 2.160 . S
O291 C300 1.239 . S
O292 Mn285 2.089 . S
O292 C300 1.256 . S
O293 Mn288 2.251 . S
O293 C298 1.241 . S
O294 Mn288 2.087 . S
O294 C299 1.256 . S
C295 O301 1.278 . S
C295 O302 1.241 . S
C296 O282 1.244 . S
C296 O284 1.256 . S
C297 O286 1.239 . S
C297 O290 1.256 . S
C298 O287 1.278 . S
C298 O293 1.241 . S
C299 O289 1.244 . S
C299 O294 1.256 . S
C300 O291 1.239 . S
C300 O292 1.256 . S
O301 Mn283 2.221 . S
O301 Mn285 2.290 . S
O301 C295 1.278 . S
O302 Mn285 2.251 . S
O302 C295 1.241 . S
O303 Mn304 2.163 . S
O303 C317 1.244 . S
Mn304 O303 2.163 . S
Mn304 O307 2.160 . S
Mn304 O308 2.221 . S
Mn304 O310 2.163 . S
Mn304 O312 2.160 . S
Mn304 O322 2.221 . S
O305 Mn306 2.087 . S
O305 C317 1.256 . S
Mn306 O305 2.087 . S
Mn306 O313 2.089 . S
Mn306 O322 2.290 . S
Mn306 O323 2.251 . S
O307 Mn304 2.160 . S
O307 C318 1.239 . S
O308 Mn304 2.221 . S
O308 Mn309 2.290 . S
O308 C319 1.278 . S
Mn309 O308 2.290 . S
Mn309 O311 2.089 . S
Mn309 O314 2.251 . S
Mn309 O315 2.087 . S
O310 Mn304 2.163 . S
O310 C320 1.244 . S
O311 Mn309 2.089 . S
O311 C318 1.256 . S
O312 Mn304 2.160 . S
O312 C321 1.239 . S
O313 Mn306 2.089 . S
O313 C321 1.256 . S
O314 Mn309 2.251 . S
O314 C319 1.241 . S
O315 Mn309 2.087 . S
O315 C320 1.256 . S
C316 O322 1.278 . S
C316 O323 1.241 . S
C317 O303 1.244 . S
C317 O305 1.256 . S
C318 O307 1.239 . S
C318 O311 1.256 . S
C319 O308 1.278 . S
C319 O314 1.241 . S
C320 O310 1.244 . S
C320 O315 1.256 . S
C321 O312 1.239 . S
C321 O313 1.256 . S
O322 Mn304 2.221 . S
O322 Mn306 2.290 . S
O322 C316 1.278 . S
O323 Mn306 2.251 . S
O323 C316 1.241 . S
O324 Mn325 2.163 . S
O324 C338 1.244 . S
Mn325 O324 2.163 . S
Mn325 O328 2.160 . S
Mn325 O329 2.221 . S
Mn325 O331 2.163 . S
Mn325 O333 2.160 . S
Mn325 O343 2.221 . S
O326 Mn327 2.087 . S
O326 C338 1.256 . S
Mn327 O326 2.087 . S
Mn327 O334 2.089 . S
Mn327 O343 2.290 . S
Mn327 O344 2.251 . S
O328 Mn325 2.160 . S
O328 C339 1.239 . S
O329 Mn325 2.221 . S
O329 Mn330 2.290 . S
O329 C340 1.278 . S
Mn330 O329 2.290 . S
Mn330 O332 2.089 . S
Mn330 O335 2.251 . S
Mn330 O336 2.087 . S
O331 Mn325 2.163 . S
O331 C341 1.244 . S
O332 Mn330 2.089 . S
O332 C339 1.256 . S
O333 Mn325 2.160 . S
O333 C342 1.239 . S
O334 Mn327 2.089 . S
O334 C342 1.256 . S
O335 Mn330 2.251 . S
O335 C340 1.241 . S
O336 Mn330 2.087 . S
O336 C341 1.256 . S
C337 O343 1.278 . S
C337 O344 1.241 . S
C338 O324 1.244 . S
C338 O326 1.256 . S
C339 O328 1.239 . S
C339 O332 1.256 . S
C340 O329 1.278 . S
C340 O335 1.241 . S
C341 O331 1.244 . S
C341 O336 1.256 . S
C342 O333 1.239 . S
C342 O334 1.256 . S
O343 Mn325 2.221 . S
O343 Mn327 2.290 . S
O343 C337 1.278 . S
O344 Mn327 2.251 . S
O344 C337 1.241 . S
O345 Mn346 2.163 . S
O345 C359 1.244 . S
Mn346 O345 2.163 . S
Mn346 O349 2.160 . S
Mn346 O350 2.221 . S
Mn346 O352 2.163 . S
Mn346 O354 2.160 . S
Mn346 O364 2.221 . S
O347 Mn348 2.087 . S
O347 C359 1.256 . S
Mn348 O347 2.087 . S
Mn348 O355 2.089 . S
Mn348 O364 2.290 . S
Mn348 O365 2.251 . S
O349 Mn346 2.160 . S
O349 C360 1.239 . S
O350 Mn346 2.221 . S
O350 Mn351 2.290 . S
O350 C361 1.278 . S
Mn351 O350 2.290 . S
Mn351 O353 2.089 . S
Mn351 O356 2.251 . S
Mn351 O357 2.087 . S
O352 Mn346 2.163 . S
O352 C362 1.244 . S
O353 Mn351 2.089 . S
O353 C360 1.256 . S
O354 Mn346 2.160 . S
O354 C363 1.239 . S
O355 Mn348 2.089 . S
O355 C363 1.256 . S
O356 Mn351 2.251 . S
O356 C361 1.241 . S
O357 Mn351 2.087 . S
O357 C362 1.256 . S
C358 O364 1.278 . S
C358 O365 1.241 . S
C359 O345 1.244 . S
C359 O347 1.256 . S
C360 O349 1.239 . S
C360 O353 1.256 . S
C361 O350 1.278 . S
C361 O356 1.241 . S
C362 O352 1.244 . S
C362 O357 1.256 . S
C363 O354 1.239 . S
C363 O355 1.256 . S
O364 Mn346 2.221 . S
O364 Mn348 2.290 . S
O364 C358 1.278 . S
O365 Mn348 2.251 . S
O365 C358 1.241 . S
O366 Mn367 2.163 . S
O366 C380 1.244 . S
Mn367 O366 2.163 . S
Mn367 O370 2.160 . S
Mn367 O371 2.221 . S
Mn367 O373 2.163 . S
Mn367 O375 2.160 . S
Mn367 O385 2.221 . S
O368 Mn369 2.087 . S
O368 C380 1.256 . S
Mn369 O368 2.087 . S
Mn369 O376 2.089 . S
Mn369 O385 2.290 . S
Mn369 O386 2.251 . S
O370 Mn367 2.160 . S
O370 C381 1.239 . S
O371 Mn367 2.221 . S
O371 Mn372 2.290 . S
O371 C382 1.278 . S
Mn372 O371 2.290 . S
Mn372 O374 2.089 . S
Mn372 O377 2.251 . S
Mn372 O378 2.087 . S
O373 Mn367 2.163 . S
O373 C383 1.244 . S
O374 Mn372 2.089 . S
O374 C381 1.256 . S
O375 Mn367 2.160 . S
O375 C384 1.239 . S
O376 Mn369 2.089 . S
O376 C384 1.256 . S
O377 Mn372 2.251 . S
O377 C382 1.241 . S
O378 Mn372 2.087 . S
O378 C383 1.256 . S
C379 O385 1.278 . S
C379 O386 1.241 . S
C380 O366 1.244 . S
C380 O368 1.256 . S
C381 O370 1.239 . S
C381 O374 1.256 . S
C382 O371 1.278 . S
C382 O377 1.241 . S
C383 O373 1.244 . S
C383 O378 1.256 . S
C384 O375 1.239 . S
C384 O376 1.256 . S
O385 Mn367 2.221 . S
O385 Mn369 2.290 . S
O385 C379 1.278 . S
O386 Mn369 2.251 . S
O386 C379 1.241 . S
C387 C388 1.347 . S
C387 C389 1.327 . S
C387 H412 0.950 . S
C388 C387 1.347 . S
C388 C404 1.350 1_556 S
C389 C387 1.327 . S
C389 C408 1.429 1_556 S
C389 H413 0.950 . S
C390 C407 1.574 . S
C390 C409 1.368 . S
C390 H414 0.949 . S
H391 C395 0.949 . S
C392 C393 1.349 . S
C392 C394 1.327 . S
C392 H415 0.950 . S
C393 C392 1.349 . S
C393 C405 1.349 1_554 S
C394 C392 1.327 . S
C394 C410 1.429 . S
C394 H416 0.950 . S
C395 H391 0.949 . S
C395 C403 1.574 . S
C395 C411 1.368 1_556 S
H396 C404 0.950 . S
H397 C402 0.950 . S
H398 C403 0.949 . S
H399 C405 0.950 . S
H400 C406 0.950 . S
H401 C407 0.949 . S
C402 H397 0.950 . S
C402 C404 1.327 . S
C402 C408 1.429 . S
C403 C395 1.574 . S
C403 H398 0.949 . S
C403 C409 1.368 1_556 S
C404 C388 1.350 1_554 S
C404 H396 0.950 . S
C404 C402 1.327 . S
C405 C393 1.349 1_556 S
C405 H399 0.950 . S
C405 C406 1.327 . S
C406 H400 0.950 . S
C406 C405 1.327 . S
C406 C410 1.429 1_556 S
C407 C390 1.574 . S
C407 H401 0.949 . S
C407 C411 1.368 . S
C408 C389 1.429 1_554 S
C408 C402 1.429 . S
C408 C409 1.523 . S
C409 C390 1.368 . S
C409 C403 1.368 1_554 S
C409 C408 1.523 . S
C410 C394 1.429 . S
C410 C406 1.429 1_554 S
C410 C411 1.523 . S
C411 C395 1.368 1_554 S
C411 C407 1.368 . S
C411 C410 1.523 . S
H412 C387 0.950 . S
H413 C389 0.950 . S
H414 C390 0.949 . S
H415 C392 0.950 . S
H416 C394 0.950 . S
C417 C418 1.349 1_556 S
C417 C419 1.327 . S
C417 H442 0.950 . S
C418 C417 1.349 1_554 S
C418 C434 1.349 . S
C419 C417 1.327 . S
C419 C438 1.429 1_556 S
C419 H443 0.950 . S
C420 C437 1.574 . S
C420 C439 1.368 . S
C420 H444 0.949 . S
H421 C425 0.949 . S
C422 C423 1.349 . S
C422 C424 1.327 . S
C422 H445 0.950 . S
C423 C422 1.349 . S
C423 C435 1.365 . S
C424 C422 1.327 . S
C424 C440 1.429 . S
C424 H446 0.950 . S
C425 H421 0.949 . S
C425 C433 1.574 . S
C425 C441 1.368 1_556 S
H426 C434 0.950 . S
H427 C432 0.950 . S
H428 C433 0.949 . S
H429 C435 0.934 1_556 S
H430 C436 0.953 . S
H431 C437 0.949 . S
C432 H427 0.950 . S
C432 C434 1.327 . S
C432 C438 1.429 . S
C433 C425 1.574 . S
C433 H428 0.949 . S
C433 C439 1.368 1_556 S
C434 C418 1.349 . S
C434 H426 0.950 . S
C434 C432 1.327 . S
C435 C423 1.365 . S
C435 H429 0.934 1_554 S
C435 C436 1.327 1_554 S
C436 H430 0.953 . S
C436 C435 1.327 1_556 S
C436 C440 1.426 1_556 S
C437 C420 1.574 . S
C437 H431 0.949 . S
C437 C441 1.368 . S
C438 C419 1.429 1_554 S
C438 C432 1.429 . S
C438 C439 1.523 . S
C439 C420 1.368 . S
C439 C433 1.368 1_554 S
C439 C438 1.523 . S
C440 C424 1.429 . S
C440 C436 1.426 1_554 S
C440 C441 1.523 . S
C441 C425 1.368 1_554 S
C441 C437 1.368 . S
C441 C440 1.523 . S
H442 C417 0.950 . S
H443 C419 0.950 . S
H444 C420 0.949 . S
H445 C422 0.950 . S
H446 C424 0.950 . S
C447 C448 1.349 1_556 S
C447 C449 1.327 . S
C447 H472 0.950 . S
C448 C447 1.349 1_554 S
C448 C464 1.349 . S
C449 C447 1.327 . S
C449 C468 1.429 1_556 S
C449 H473 0.950 . S
C450 C467 1.574 . S
C450 C469 1.368 . S
C450 H474 0.949 . S
H451 C455 0.949 . S
C452 C453 1.349 . S
C452 C454 1.327 . S
C452 H475 0.950 . S
C453 C452 1.349 . S
C453 C465 1.349 1_554 S
C454 C452 1.327 . S
C454 C470 1.429 . S
C454 H476 0.950 . S
C455 H451 0.949 . S
C455 C463 1.574 . S
C455 C471 1.368 1_556 S
H456 C464 0.950 . S
H457 C462 0.950 . S
H458 C463 0.949 . S
H459 C465 0.950 . S
H460 C466 0.950 . S
H461 C467 0.949 . S
C462 H457 0.950 . S
C462 C464 1.327 . S
C462 C468 1.429 . S
C463 C455 1.574 . S
C463 H458 0.949 . S
C463 C469 1.368 1_556 S
C464 C448 1.349 . S
C464 H456 0.950 . S
C464 C462 1.327 . S
C465 C453 1.349 1_556 S
C465 H459 0.950 . S
C465 C466 1.327 . S
C466 H460 0.950 . S
C466 C465 1.327 . S
C466 C470 1.429 1_556 S
C467 C450 1.574 . S
C467 H461 0.949 . S
C467 C471 1.368 . S
C468 C449 1.429 1_554 S
C468 C462 1.429 . S
C468 C469 1.523 . S
C469 C450 1.368 . S
C469 C463 1.368 1_554 S
C469 C468 1.523 . S
C470 C454 1.429 . S
C470 C466 1.429 1_554 S
C470 C471 1.523 . S
C471 C455 1.368 1_554 S
C471 C467 1.368 . S
C471 C470 1.523 . S
H472 C447 0.950 . S
H473 C449 0.950 . S
H474 C450 0.949 . S
H475 C452 0.950 . S
H476 C454 0.950 . S
C477 C478 1.349 1_556 S
C477 C479 1.327 . S
C477 H502 0.950 . S
C478 C477 1.349 1_554 S
C478 C494 1.349 . S
C479 C477 1.327 . S
C479 C498 1.429 1_556 S
C479 H503 0.950 . S
C480 C497 1.574 . S
C480 C499 1.368 . S
C480 H504 0.949 . S
H481 C485 0.949 . S
C482 C483 1.349 . S
C482 C484 1.327 . S
C482 H505 0.950 . S
C483 C482 1.349 . S
C483 C495 1.349 1_554 S
C484 C482 1.327 . S
C484 C500 1.429 . S
C484 H506 0.950 . S
C485 H481 0.949 . S
C485 C493 1.574 . S
C485 C501 1.368 1_556 S
H486 C494 0.950 . S
H487 C492 0.950 . S
H488 C493 0.949 . S
H489 C495 0.950 . S
H490 C496 0.950 . S
H491 C497 0.949 . S
C492 H487 0.950 . S
C492 C494 1.327 . S
C492 C498 1.429 . S
C493 C485 1.574 . S
C493 H488 0.949 . S
C493 C499 1.368 1_556 S
C494 C478 1.349 . S
C494 H486 0.950 . S
C494 C492 1.327 . S
C495 C483 1.349 1_556 S
C495 H489 0.950 . S
C495 C496 1.327 . S
C496 H490 0.950 . S
C496 C495 1.327 . S
C496 C500 1.429 1_556 S
C497 C480 1.574 . S
C497 H491 0.949 . S
C497 C501 1.368 . S
C498 C479 1.429 1_554 S
C498 C492 1.429 . S
C498 C499 1.523 . S
C499 C480 1.368 . S
C499 C493 1.368 1_554 S
C499 C498 1.523 . S
C500 C484 1.429 . S
C500 C496 1.429 1_554 S
C500 C501 1.523 . S
C501 C485 1.368 1_554 S
C501 C497 1.368 . S
C501 C500 1.523 . S
H502 C477 0.950 . S
H503 C479 0.950 . S
H504 C480 0.949 . S
H505 C482 0.950 . S
H506 C484 0.950 . S
C507 C508 1.349 1_556 S
C507 C509 1.327 . S
C507 H532 0.950 . S
C508 C507 1.349 1_554 S
C508 C524 1.349 . S
C509 C507 1.327 . S
C509 C528 1.429 1_556 S
C509 H533 0.950 . S
C510 C527 1.574 . S
C510 C529 1.368 . S
C510 H534 0.949 . S
H511 C515 0.949 . S
C512 C513 1.349 . S
C512 C514 1.327 . S
C512 H535 0.950 . S
C513 C512 1.349 . S
C513 C525 1.349 1_554 S
C514 C512 1.327 . S
C514 C530 1.429 . S
C514 H536 0.950 . S
C515 H511 0.949 . S
C515 C523 1.574 . S
C515 C531 1.368 1_556 S
H516 C524 0.950 . S
H517 C522 0.950 . S
H518 C523 0.949 . S
H519 C525 0.950 . S
H520 C526 0.950 . S
H521 C527 0.949 . S
C522 H517 0.950 . S
C522 C524 1.327 . S
C522 C528 1.429 . S
C523 C515 1.574 . S
C523 H518 0.949 . S
C523 C529 1.368 1_556 S
C524 C508 1.349 . S
C524 H516 0.950 . S
C524 C522 1.327 . S
C525 C513 1.349 1_556 S
C525 H519 0.950 . S
C525 C526 1.327 . S
C526 H520 0.950 . S
C526 C525 1.327 . S
C526 C530 1.429 1_556 S
C527 C510 1.574 . S
C527 H521 0.949 . S
C527 C531 1.368 . S
C528 C509 1.429 1_554 S
C528 C522 1.429 . S
C528 C529 1.523 . S
C529 C510 1.368 . S
C529 C523 1.368 1_554 S
C529 C528 1.523 . S
C530 C514 1.429 . S
C530 C526 1.429 1_554 S
C530 C531 1.523 . S
C531 C515 1.368 1_554 S
C531 C527 1.368 . S
C531 C530 1.523 . S
H532 C507 0.950 . S
H533 C509 0.950 . S
H534 C510 0.949 . S
H535 C512 0.950 . S
H536 C514 0.950 . S
C537 C538 1.349 . S
C537 C539 1.327 . S
C537 H562 0.950 . S
C538 C537 1.349 . S
C538 C554 1.349 . S
C539 C537 1.327 . S
C539 C558 1.429 . S
C539 H563 0.950 . S
C540 C557 1.574 . S
C540 C559 1.353 1_556 S
C540 H564 0.963 . S
H541 C545 0.949 . S
C542 C543 1.349 1_556 S
C542 C544 1.327 . S
C542 H565 0.950 . S
C543 C542 1.349 1_554 S
C543 C555 1.349 . S
C544 C542 1.327 . S
C544 C560 1.429 1_556 S
C544 H566 0.950 . S
C545 H541 0.949 . S
C545 C553 1.574 . S
C545 C561 1.368 . S
H546 C554 0.950 1_556 S
H547 C552 0.950 1_556 S
H548 C553 0.949 . S
H549 C555 0.950 . S
H550 C556 0.950 . S
H551 C557 0.949 . S
C552 H547 0.950 1_554 S
C552 C554 1.327 . S
C552 C558 1.429 . S
C553 C545 1.574 . S
C553 H548 0.949 . S
C553 C559 1.368 . S
C554 C538 1.349 . S
C554 H546 0.950 1_554 S
C554 C552 1.327 . S
C555 C543 1.349 . S
C555 H549 0.950 . S
C555 C556 1.327 . S
C556 H550 0.950 . S
C556 C555 1.327 . S
C556 C560 1.429 . S
C557 C540 1.574 . S
C557 H551 0.949 . S
C557 C561 1.368 1_556 S
C558 C539 1.429 . S
C558 C552 1.429 . S
C558 C559 1.523 . S
C559 C540 1.353 1_554 S
C559 C553 1.368 . S
C559 C558 1.523 . S
C560 C544 1.429 1_554 S
C560 C556 1.429 . S
C560 C561 1.523 . S
C561 C545 1.368 . S
C561 C557 1.368 1_554 S
C561 C560 1.523 . S
H562 C537 0.950 . S
H563 C539 0.950 . S
H564 C540 0.963 . S
H565 C542 0.950 . S
H566 C544 0.950 . S
C567 C568 1.349 1_556 S
C567 C569 1.327 . S
C567 H592 0.950 . S
C568 C567 1.349 1_554 S
C568 C584 1.349 . S
C569 C567 1.327 . S
C569 C588 1.429 1_556 S
C569 H593 0.950 . S
C570 C587 1.574 . S
C570 C589 1.368 . S
C570 H594 0.949 . S
H571 C575 0.949 . S
C572 C573 1.349 . S
C572 C574 1.327 . S
C572 H595 0.950 . S
C573 C572 1.349 . S
C573 C585 1.349 1_554 S
C574 C572 1.327 . S
C574 C590 1.429 . S
C574 H596 0.950 . S
C575 H571 0.949 . S
C575 C583 1.574 . S
C575 C591 1.368 1_556 S
H576 C584 0.950 . S
H577 C582 0.950 . S
H578 C583 0.949 . S
H579 C585 0.950 . S
H580 C586 0.950 . S
H581 C587 0.949 . S
C582 H577 0.950 . S
C582 C584 1.327 . S
C582 C588 1.429 . S
C583 C575 1.574 . S
C583 H578 0.949 . S
C583 C589 1.368 1_556 S
C584 C568 1.349 . S
C584 H576 0.950 . S
C584 C582 1.327 . S
C585 C573 1.349 1_556 S
C585 H579 0.950 . S
C585 C586 1.327 . S
C586 H580 0.950 . S
C586 C585 1.327 . S
C586 C590 1.429 1_556 S
C587 C570 1.574 . S
C587 H581 0.949 . S
C587 C591 1.368 . S
C588 C569 1.429 1_554 S
C588 C582 1.429 . S
C588 C589 1.523 . S
C589 C570 1.368 . S
C589 C583 1.368 1_554 S
C589 C588 1.523 . S
C590 C574 1.429 . S
C590 C586 1.429 1_554 S
C590 C591 1.523 . S
C591 C575 1.368 1_554 S
C591 C587 1.368 . S
C591 C590 1.523 . S
H592 C567 0.950 . S
H593 C569 0.950 . S
H594 C570 0.949 . S
H595 C572 0.950 . S
H596 C574 0.950 . S
C597 C598 1.349 . S
C597 C599 1.327 . S
C597 H622 0.950 . S
C598 C597 1.349 . S
C598 C614 1.349 . S
C599 C597 1.327 . S
C599 C618 1.429 . S
C599 H623 0.950 . S
C600 C617 1.574 . S
C600 C619 1.368 . S
C600 H624 0.949 1_554 S
H601 C605 0.949 . S
C602 C603 1.349 . S
C602 C604 1.327 . S
C602 H625 0.950 1_554 S
C603 C602 1.349 . S
C603 C615 1.349 . S
C604 C602 1.327 . S
C604 C620 1.429 . S
C604 H626 0.950 1_554 S
C605 H601 0.949 . S
C605 C613 1.574 . S
C605 C621 1.368 . S
H606 C614 0.950 1_556 S
H607 C612 0.950 1_556 S
H608 C613 0.949 . S
H609 C615 0.950 . S
H610 C616 0.950 . S
H611 C617 0.949 1_556 S
C612 H607 0.950 1_554 S
C612 C614 1.327 . S
C612 C618 1.429 . S
C613 C605 1.574 . S
C613 H608 0.949 . S
C613 C619 1.368 . S
C614 C598 1.349 . S
C614 H606 0.950 1_554 S
C614 C612 1.327 . S
C615 C603 1.349 . S
C615 H609 0.950 . S
C615 C616 1.327 . S
C616 H610 0.950 . S
C616 C615 1.327 . S
C616 C620 1.429 . S
C617 C600 1.574 . S
C617 H611 0.949 1_554 S
C617 C621 1.368 . S
C618 C599 1.429 . S
C618 C612 1.429 . S
C618 C619 1.523 . S
C619 C600 1.368 . S
C619 C613 1.368 . S
C619 C618 1.523 . S
C620 C604 1.429 . S
C620 C616 1.429 . S
C620 C621 1.523 . S
C621 C605 1.368 . S
C621 C617 1.368 . S
C621 C620 1.523 . S
H622 C597 0.950 . S
H623 C599 0.950 . S
H624 C600 0.949 1_556 S
H625 C602 0.950 1_556 S
H626 C604 0.950 1_556 S
C627 C628 1.349 1_556 S
C627 C629 1.327 . S
C627 H652 0.950 . S
C628 C627 1.349 1_554 S
C628 C644 1.349 . S
C629 C627 1.327 . S
C629 C648 1.429 1_556 S
C629 H653 0.950 . S
C630 C647 1.574 . S
C630 C649 1.368 . S
C630 H654 0.949 . S
H631 C635 0.949 . S
C632 C633 1.349 . S
C632 C634 1.327 . S
C632 H655 0.950 . S
C633 C632 1.349 . S
C633 C645 1.349 1_554 S
C634 C632 1.327 . S
C634 C650 1.429 . S
C634 H656 0.950 . S
C635 H631 0.949 . S
C635 C643 1.574 . S
C635 C651 1.368 1_556 S
H636 C644 0.950 . S
H637 C642 0.950 . S
H638 C643 0.949 . S
H639 C645 0.950 . S
H640 C646 0.950 . S
H641 C647 0.949 . S
C642 H637 0.950 . S
C642 C644 1.327 . S
C642 C648 1.429 . S
C643 C635 1.574 . S
C643 H638 0.949 . S
C643 C649 1.368 1_556 S
C644 C628 1.349 . S
C644 H636 0.950 . S
C644 C642 1.327 . S
C645 C633 1.349 1_556 S
C645 H639 0.950 . S
C645 C646 1.327 . S
C646 H640 0.950 . S
C646 C645 1.327 . S
C646 C650 1.429 1_556 S
C647 C630 1.574 . S
C647 H641 0.949 . S
C647 C651 1.368 . S
C648 C629 1.429 1_554 S
C648 C642 1.429 . S
C648 C649 1.523 . S
C649 C630 1.368 . S
C649 C643 1.368 1_554 S
C649 C648 1.523 . S
C650 C634 1.429 . S
C650 C646 1.429 1_554 S
C650 C651 1.523 . S
C651 C635 1.368 1_554 S
C651 C647 1.368 . S
C651 C650 1.523 . S
H652 C627 0.950 . S
H653 C629 0.950 . S
H654 C630 0.949 . S
H655 C632 0.950 . S
H656 C634 0.950 . S
C657 C658 1.349 . S
C657 C659 1.327 . S
C657 H682 0.950 . S
C658 C657 1.349 . S
C658 C674 1.349 1_554 S
C659 C657 1.327 . S
C659 C678 1.429 . S
C659 H683 0.950 . S
C660 C677 1.574 . S
C660 C679 1.368 1_556 S
C660 H684 0.949 . S
H661 C665 0.949 . S
C662 C663 1.349 1_556 S
C662 C664 1.327 . S
C662 H685 0.950 . S
C663 C662 1.349 1_554 S
C663 C675 1.349 . S
C664 C662 1.327 . S
C664 C680 1.429 1_556 S
C664 H686 0.950 . S
C665 H661 0.949 . S
C665 C673 1.574 . S
C665 C681 1.368 . S
H666 C674 0.950 . S
H667 C672 0.950 . S
H668 C673 0.949 . S
H669 C675 0.950 . S
H670 C676 0.950 . S
H671 C677 0.949 . S
C672 H667 0.950 . S
C672 C674 1.327 . S
C672 C678 1.429 1_556 S
C673 C665 1.574 . S
C673 H668 0.949 . S
C673 C679 1.368 . S
C674 C658 1.349 1_556 S
C674 H666 0.950 . S
C674 C672 1.327 . S
C675 C663 1.349 . S
C675 H669 0.950 . S
C675 C676 1.327 . S
C676 H670 0.950 . S
C676 C675 1.327 . S
C676 C680 1.429 . S
C677 C660 1.574 . S
C677 H671 0.949 . S
C677 C681 1.368 1_556 S
C678 C659 1.429 . S
C678 C672 1.429 1_554 S
C678 C679 1.523 . S
C679 C660 1.368 1_554 S
C679 C673 1.368 . S
C679 C678 1.523 . S
C680 C664 1.429 1_554 S
C680 C676 1.429 . S
C680 C681 1.523 . S
C681 C665 1.368 . S
C681 C677 1.368 1_554 S
C681 C680 1.523 . S
H682 C657 0.950 . S
H683 C659 0.950 . S
H684 C660 0.949 . S
H685 C662 0.950 . S
H686 C664 0.950 . S
C687 C688 1.349 . S
C687 C689 1.327 . S
C687 H712 0.950 . S
C688 C687 1.349 . S
C688 C704 1.349 1_554 S
C689 C687 1.327 . S
C689 C708 1.429 . S
C689 H713 0.950 . S
C690 C707 1.574 . S
C690 C709 1.368 1_556 S
C690 H714 0.949 . S
H691 C695 0.949 . S
C692 C693 1.372 . S
C692 C694 1.327 . S
C692 H715 0.950 . S
C693 C692 1.372 . S
C693 C705 1.324 1_556 S
C694 C692 1.327 . S
C694 C710 1.419 1_556 S
C694 H716 0.950 . S
C695 H691 0.949 . S
C695 C703 1.574 . S
C695 C711 1.368 . S
H696 C704 0.950 . S
H697 C702 0.950 . S
H698 C703 0.949 . S
H699 C705 0.950 . S
H700 C706 0.950 . S
H701 C707 0.949 . S
C702 H697 0.950 . S
C702 C704 1.327 . S
C702 C708 1.429 1_556 S
C703 C695 1.574 . S
C703 H698 0.949 . S
C703 C709 1.368 . S
C704 C688 1.349 1_556 S
C704 H696 0.950 . S
C704 C702 1.327 . S
C705 C693 1.324 1_554 S
C705 H699 0.950 . S
C705 C706 1.327 . S
C706 H700 0.950 . S
C706 C705 1.327 . S
C706 C710 1.438 . S
C707 C690 1.574 . S
C707 H701 0.949 . S
C707 C711 1.368 1_556 S
C708 C689 1.429 . S
C708 C702 1.429 1_554 S
C708 C709 1.523 . S
C709 C690 1.368 1_554 S
C709 C703 1.368 . S
C709 C708 1.523 . S
C710 C694 1.419 1_554 S
C710 C706 1.438 . S
C710 C711 1.524 . S
C711 C695 1.368 . S
C711 C707 1.368 1_554 S
C711 C710 1.524 . S
H712 C687 0.950 . S
H713 C689 0.950 . S
H714 C690 0.949 . S
H715 C692 0.950 . S
H716 C694 0.950 . S
C717 C718 1.349 1_556 S
C717 C719 1.327 . S
C717 H742 0.950 . S
C718 C717 1.349 1_554 S
C718 C734 1.349 . S
C719 C717 1.327 . S
C719 C738 1.429 1_556 S
C719 H743 0.950 . S
C720 C737 1.574 . S
C720 C739 1.368 . S
C720 H744 0.949 . S
H721 C725 0.949 . S
C722 C723 1.349 . S
C722 C724 1.327 . S
C722 H745 0.950 . S
C723 C722 1.349 . S
C723 C735 1.349 1_554 S
C724 C722 1.327 . S
C724 C740 1.429 . S
C724 H746 0.950 . S
C725 H721 0.949 . S
C725 C733 1.574 . S
C725 C741 1.368 1_556 S
H726 C734 0.950 . S
H727 C732 0.950 . S
H728 C733 0.949 . S
H729 C735 0.950 . S
H730 C736 0.950 . S
H731 C737 0.949 . S
C732 H727 0.950 . S
C732 C734 1.327 . S
C732 C738 1.429 . S
C733 C725 1.574 . S
C733 H728 0.949 . S
C733 C739 1.368 1_556 S
C734 C718 1.349 . S
C734 H726 0.950 . S
C734 C732 1.327 . S
C735 C723 1.349 1_556 S
C735 H729 0.950 . S
C735 C736 1.327 . S
C736 H730 0.950 . S
C736 C735 1.327 . S
C736 C740 1.429 1_556 S
C737 C720 1.574 . S
C737 H731 0.949 . S
C737 C741 1.368 . S
C738 C719 1.429 1_554 S
C738 C732 1.429 . S
C738 C739 1.523 . S
C739 C720 1.368 . S
C739 C733 1.368 1_554 S
C739 C738 1.523 . S
C740 C724 1.429 . S
C740 C736 1.429 1_554 S
C740 C741 1.523 . S
C741 C725 1.368 1_554 S
C741 C737 1.368 . S
C741 C740 1.523 . S
H742 C717 0.950 . S
H743 C719 0.950 . S
H744 C720 0.949 . S
H745 C722 0.950 . S
H746 C724 0.950 . S
C747 C748 1.349 . S
C747 C749 1.327 . S
C747 H772 0.950 . S
C748 C747 1.349 . S
C748 C764 1.349 . S
C749 C747 1.327 . S
C749 C768 1.429 . S
C749 H773 0.950 . S
C750 C767 1.574 . S
C750 C769 1.368 . S
C750 H774 0.949 . S
H751 C755 0.949 . S
C752 C753 1.349 . S
C752 C754 1.327 . S
C752 H775 0.950 . S
C753 C752 1.349 . S
C753 C765 1.349 . S
C754 C752 1.327 . S
C754 C770 1.429 . S
C754 H776 0.950 . S
C755 H751 0.949 . S
C755 C763 1.574 . S
C755 C771 1.368 . S
H756 C764 0.950 . S
H757 C762 0.950 . S
H758 C763 0.949 . S
H759 C765 0.950 . S
H760 C766 0.950 . S
H761 C767 0.949 . S
C762 H757 0.950 . S
C762 C764 1.327 . S
C762 C768 1.429 . S
C763 C755 1.574 . S
C763 H758 0.949 . S
C763 C769 1.368 . S
C764 C748 1.349 . S
C764 H756 0.950 . S
C764 C762 1.327 . S
C765 C753 1.349 . S
C765 H759 0.950 . S
C765 C766 1.327 . S
C766 H760 0.950 . S
C766 C765 1.327 . S
C766 C770 1.429 . S
C767 C750 1.574 . S
C767 H761 0.949 . S
C767 C771 1.368 . S
C768 C749 1.429 . S
C768 C762 1.429 . S
C768 C769 1.523 1_655 S
C769 C750 1.368 . S
C769 C763 1.368 . S
C769 C768 1.523 1_455 S
C770 C754 1.429 . S
C770 C766 1.429 . S
C770 C771 1.523 . S
C771 C755 1.368 . S
C771 C767 1.368 . S
C771 C770 1.523 . S
H772 C747 0.950 . S
H773 C749 0.950 . S
H774 C750 0.949 . S
H775 C752 0.950 . S
H776 C754 0.950 . S
C777 C778 1.349 . S
C777 C779 1.327 . S
C777 H802 0.950 . S
C778 C777 1.349 . S
C778 C794 1.349 . S
C779 C777 1.327 . S
C779 C798 1.429 . S
C779 H803 0.950 . S
C780 C797 1.574 . S
C780 C799 1.368 . S
C780 H804 0.949 . S
H781 C785 0.949 . S
C782 C783 1.349 . S
C782 C784 1.327 . S
C782 H805 0.950 . S
C783 C782 1.349 . S
C783 C795 1.349 . S
C784 C782 1.327 . S
C784 C800 1.429 . S
C784 H806 0.950 . S
C785 H781 0.949 . S
C785 C793 1.574 . S
C785 C801 1.368 . S
H786 C794 0.950 . S
H787 C792 0.950 . S
H788 C793 0.949 . S
H789 C795 0.950 . S
H790 C796 0.950 . S
H791 C797 0.949 . S
C792 H787 0.950 . S
C792 C794 1.327 . S
C792 C798 1.429 . S
C793 C785 1.574 . S
C793 H788 0.949 . S
C793 C799 1.368 . S
C794 C778 1.349 . S
C794 H786 0.950 . S
C794 C792 1.327 . S
C795 C783 1.349 . S
C795 H789 0.950 . S
C795 C796 1.327 . S
C796 H790 0.950 . S
C796 C795 1.327 . S
C796 C800 1.429 . S
C797 C780 1.574 . S
C797 H791 0.949 . S
C797 C801 1.368 . S
C798 C779 1.429 . S
C798 C792 1.429 . S
C798 C799 1.523 . S
C799 C780 1.368 . S
C799 C793 1.368 . S
C799 C798 1.523 . S
C800 C784 1.429 . S
C800 C796 1.429 . S
C800 C801 1.523 . S
C801 C785 1.368 . S
C801 C797 1.368 . S
C801 C800 1.523 . S
H802 C777 0.950 . S
H803 C779 0.950 . S
H804 C780 0.949 . S
H805 C782 0.950 . S
H806 C784 0.950 . S
C807 C808 1.349 . S
C807 C809 1.327 . S
C807 H832 0.950 . S
C808 C807 1.349 . S
C808 C824 1.349 . S
C809 C807 1.327 . S
C809 C828 1.429 . S
C809 H833 0.950 . S
C810 C827 1.574 . S
C810 C829 1.368 . S
C810 H834 0.949 . S
H811 C815 0.949 . S
C812 C813 1.349 . S
C812 C814 1.327 . S
C812 H835 0.950 . S
C813 C812 1.349 . S
C813 C825 1.349 . S
C814 C812 1.327 . S
C814 C830 1.429 . S
C814 H836 0.950 . S
C815 H811 0.949 . S
C815 C823 1.574 . S
C815 C831 1.368 . S
H816 C824 0.950 . S
H817 C822 0.950 . S
H818 C823 0.949 . S
H819 C825 0.950 . S
H820 C826 0.950 . S
H821 C827 0.949 . S
C822 H817 0.950 . S
C822 C824 1.327 . S
C822 C828 1.429 . S
C823 C815 1.574 . S
C823 H818 0.949 . S
C823 C829 1.368 . S
C824 C808 1.349 . S
C824 H816 0.950 . S
C824 C822 1.327 . S
C825 C813 1.349 . S
C825 H819 0.950 . S
C825 C826 1.327 . S
C826 H820 0.950 . S
C826 C825 1.327 . S
C826 C830 1.429 . S
C827 C810 1.574 . S
C827 H821 0.949 . S
C827 C831 1.368 . S
C828 C809 1.429 . S
C828 C822 1.429 . S
C828 C829 1.523 1_545 S
C829 C810 1.368 . S
C829 C823 1.368 . S
C829 C828 1.523 1_565 S
C830 C814 1.429 . S
C830 C826 1.429 . S
C830 C831 1.523 . S
C831 C815 1.368 . S
C831 C827 1.368 . S
C831 C830 1.523 . S
H832 C807 0.950 . S
H833 C809 0.950 . S
H834 C810 0.949 . S
H835 C812 0.950 . S
H836 C814 0.950 . S
C837 C838 1.349 . S
C837 C839 1.327 . S
C837 H862 0.950 . S
C838 C837 1.349 . S
C838 C854 1.349 . S
C839 C837 1.327 . S
C839 C858 1.429 . S
C839 H863 0.950 . S
C840 C857 1.574 . S
C840 C859 1.368 . S
C840 H864 0.949 . S
H841 C845 0.949 . S
C842 C843 1.349 . S
C842 C844 1.327 . S
C842 H865 0.950 . S
C843 C842 1.349 . S
C843 C855 1.349 . S
C844 C842 1.327 . S
C844 C860 1.429 . S
C844 H866 0.950 . S
C845 H841 0.949 . S
C845 C853 1.574 . S
C845 C861 1.368 . S
H846 C854 0.950 . S
H847 C852 0.950 . S
H848 C853 0.949 . S
H849 C855 0.950 . S
H850 C856 0.950 . S
H851 C857 0.949 . S
C852 H847 0.950 . S
C852 C854 1.327 . S
C852 C858 1.429 . S
C853 C845 1.574 . S
C853 H848 0.949 . S
C853 C859 1.368 . S
C854 C838 1.349 . S
C854 H846 0.950 . S
C854 C852 1.327 . S
C855 C843 1.349 . S
C855 H849 0.950 . S
C855 C856 1.327 . S
C856 H850 0.950 . S
C856 C855 1.327 . S
C856 C860 1.429 . S
C857 C840 1.574 . S
C857 H851 0.949 . S
C857 C861 1.368 . S
C858 C839 1.429 . S
C858 C852 1.429 . S
C858 C859 1.523 . S
C859 C840 1.368 . S
C859 C853 1.368 . S
C859 C858 1.523 . S
C860 C844 1.429 . S
C860 C856 1.429 . S
C860 C861 1.523 . S
C861 C845 1.368 . S
C861 C857 1.368 . S
C861 C860 1.523 . S
H862 C837 0.950 . S
H863 C839 0.950 . S
H864 C840 0.949 . S
H865 C842 0.950 . S
H866 C844 0.950 . S
C867 C868 1.349 . S
C867 C869 1.327 . S
C867 H892 0.950 . S
C868 C867 1.349 . S
C868 C884 1.349 . S
C869 C867 1.327 . S
C869 C888 1.429 . S
C869 H893 0.950 . S
C870 C887 1.574 . S
C870 C889 1.368 . S
C870 H894 0.949 . S
H871 C875 0.949 . S
C872 C873 1.349 . S
C872 C874 1.327 . S
C872 H895 0.950 . S
C873 C872 1.349 . S
C873 C885 1.349 . S
C874 C872 1.327 . S
C874 C890 1.429 . S
C874 H896 0.950 . S
C875 H871 0.949 . S
C875 C883 1.574 . S
C875 C891 1.368 . S
H876 C884 0.950 . S
H877 C882 0.950 . S
H878 C883 0.949 . S
H879 C885 0.950 . S
H880 C886 0.950 . S
H881 C887 0.949 . S
C882 H877 0.950 . S
C882 C884 1.327 . S
C882 C888 1.429 . S
C883 C875 1.574 . S
C883 H878 0.949 . S
C883 C889 1.368 . S
C884 C868 1.349 . S
C884 H876 0.950 . S
C884 C882 1.327 . S
C885 C873 1.349 . S
C885 H879 0.950 . S
C885 C886 1.327 . S
C886 H880 0.950 . S
C886 C885 1.327 . S
C886 C890 1.429 . S
C887 C870 1.574 . S
C887 H881 0.949 . S
C887 C891 1.368 . S
C888 C869 1.429 . S
C888 C882 1.429 . S
C888 C889 1.523 . S
C889 C870 1.368 . S
C889 C883 1.368 . S
C889 C888 1.523 . S
C890 C874 1.429 . S
C890 C886 1.429 . S
C890 C891 1.523 . S
C891 C875 1.368 . S
C891 C887 1.368 . S
C891 C890 1.523 . S
H892 C867 0.950 . S
H893 C869 0.950 . S
H894 C870 0.949 . S
H895 C872 0.950 . S
H896 C874 0.950 . S
C897 C898 1.349 . S
C897 C899 1.327 . S
C897 H922 0.950 . S
C898 C897 1.349 . S
C898 C914 1.349 . S
C899 C897 1.327 . S
C899 C918 1.429 . S
C899 H923 0.950 . S
C900 C917 1.574 . S
C900 C919 1.368 . S
C900 H924 0.949 . S
H901 C905 0.949 . S
C902 C903 1.349 . S
C902 C904 1.327 . S
C902 H925 0.950 . S
C903 C902 1.349 . S
C903 C915 1.349 . S
C904 C902 1.327 . S
C904 C920 1.429 . S
C904 H926 0.950 . S
C905 H901 0.949 . S
C905 C913 1.574 . S
C905 C921 1.368 . S
H906 C914 0.950 . S
H907 C912 0.950 . S
H908 C913 0.949 . S
H909 C915 0.950 . S
H910 C916 0.950 . S
H911 C917 0.949 . S
C912 H907 0.950 . S
C912 C914 1.327 . S
C912 C918 1.429 . S
C913 C905 1.574 . S
C913 H908 0.949 . S
C913 C919 1.368 . S
C914 C898 1.349 . S
C914 H906 0.950 . S
C914 C912 1.327 . S
C915 C903 1.349 . S
C915 H909 0.950 . S
C915 C916 1.327 . S
C916 H910 0.950 . S
C916 C915 1.327 . S
C916 C920 1.429 . S
C917 C900 1.574 . S
C917 H911 0.949 . S
C917 C921 1.368 . S
C918 C899 1.429 . S
C918 C912 1.429 . S
C918 C919 1.523 . S
C919 C900 1.368 . S
C919 C913 1.368 . S
C919 C918 1.523 . S
C920 C904 1.429 . S
C920 C916 1.429 . S
C920 C921 1.523 . S
C921 C905 1.368 . S
C921 C917 1.368 . S
C921 C920 1.523 . S
H922 C897 0.950 . S
H923 C899 0.950 . S
H924 C900 0.949 . S
H925 C902 0.950 . S
H926 C904 0.950 . S
C927 C928 1.349 . S
C927 C929 1.327 . S
C927 H952 0.950 . S
C928 C927 1.349 . S
C928 C944 1.349 . S
C929 C927 1.327 . S
C929 C948 1.429 . S
C929 H953 0.950 . S
C930 C947 1.574 . S
C930 C949 1.368 . S
C930 H954 0.949 . S
H931 C935 0.949 . S
C932 C933 1.349 . S
C932 C934 1.327 . S
C932 H955 0.950 . S
C933 C932 1.349 . S
C933 C945 1.349 . S
C934 C932 1.327 . S
C934 C950 1.429 . S
C934 H956 0.950 . S
C935 H931 0.949 . S
C935 C943 1.574 . S
C935 C951 1.368 . S
H936 C944 0.950 . S
H937 C942 0.950 . S
H938 C943 0.949 . S
H939 C945 0.950 . S
H940 C946 0.950 . S
H941 C947 0.949 . S
C942 H937 0.950 . S
C942 C944 1.327 . S
C942 C948 1.429 . S
C943 C935 1.574 . S
C943 H938 0.949 . S
C943 C949 1.368 . S
C944 C928 1.349 . S
C944 H936 0.950 . S
C944 C942 1.327 . S
C945 C933 1.349 . S
C945 H939 0.950 . S
C945 C946 1.327 . S
C946 H940 0.950 . S
C946 C945 1.327 . S
C946 C950 1.429 . S
C947 C930 1.574 . S
C947 H941 0.949 . S
C947 C951 1.368 . S
C948 C929 1.429 . S
C948 C942 1.429 . S
C948 C949 1.523 . S
C949 C930 1.368 . S
C949 C943 1.368 . S
C949 C948 1.523 . S
C950 C934 1.429 . S
C950 C946 1.429 . S
C950 C951 1.523 . S
C951 C935 1.368 . S
C951 C947 1.368 . S
C951 C950 1.523 . S
H952 C927 0.950 . S
H953 C929 0.950 . S
H954 C930 0.949 . S
H955 C932 0.950 . S
H956 C934 0.950 . S
C957 C958 1.349 . S
C957 C959 1.327 . S
C957 H982 0.950 . S
C958 C957 1.349 . S
C958 C974 1.349 . S
C959 C957 1.327 . S
C959 C978 1.429 . S
C959 H983 0.950 . S
C960 C977 1.574 . S
C960 C979 1.368 . S
C960 H984 0.949 . S
H961 C965 0.949 . S
C962 C963 1.349 . S
C962 C964 1.327 . S
C962 H985 0.950 . S
C963 C962 1.349 . S
C963 C975 1.349 . S
C964 C962 1.327 . S
C964 C980 1.429 . S
C964 H986 0.950 . S
C965 H961 0.949 . S
C965 C973 1.574 . S
C965 C981 1.368 . S
H966 C974 0.950 . S
H967 C972 0.950 . S
H968 C973 0.949 . S
H969 C975 0.950 . S
H970 C976 0.950 . S
H971 C977 0.949 . S
C972 H967 0.950 . S
C972 C974 1.327 . S
C972 C978 1.429 . S
C973 C965 1.574 . S
C973 H968 0.949 . S
C973 C979 1.368 . S
C974 C958 1.349 . S
C974 H966 0.950 . S
C974 C972 1.327 . S
C975 C963 1.349 . S
C975 H969 0.950 . S
C975 C976 1.327 . S
C976 H970 0.950 . S
C976 C975 1.327 . S
C976 C980 1.429 . S
C977 C960 1.574 . S
C977 H971 0.949 . S
C977 C981 1.368 . S
C978 C959 1.429 . S
C978 C972 1.429 . S
C978 C979 1.523 . S
C979 C960 1.368 . S
C979 C973 1.368 . S
C979 C978 1.523 . S
C980 C964 1.429 . S
C980 C976 1.429 . S
C980 C981 1.523 . S
C981 C965 1.368 . S
C981 C977 1.368 . S
C981 C980 1.523 . S
H982 C957 0.950 . S
H983 C959 0.950 . S
H984 C960 0.949 . S
H985 C962 0.950 . S
H986 C964 0.950 . S
C987 C988 1.349 . S
C987 C989 1.327 . S
C987 H1012 0.950 . S
C988 C987 1.349 . S
C988 C1004 1.349 . S
C989 C987 1.327 . S
C989 C1008 1.429 . S
C989 H1013 0.950 . S
C990 C1007 1.574 . S
C990 C1009 1.368 . S
C990 H1014 0.949 . S
H991 C995 0.949 . S
C992 C993 1.349 . S
C992 C994 1.327 . S
C992 H1015 0.950 . S
C993 C992 1.349 . S
C993 C1005 1.349 . S
C994 C992 1.327 . S
C994 C1010 1.429 . S
C994 H1016 0.950 . S
C995 H991 0.949 . S
C995 C1003 1.574 . S
C995 C1011 1.368 . S
H996 C1004 0.950 . S
H997 C1002 0.950 . S
H998 C1003 0.949 . S
H999 C1005 0.950 . S
H1000 C1006 0.950 . S
H1001 C1007 0.949 . S
C1002 H997 0.950 . S
C1002 C1004 1.327 . S
C1002 C1008 1.429 . S
C1003 C995 1.574 . S
C1003 H998 0.949 . S
C1003 C1009 1.368 . S
C1004 C988 1.349 . S
C1004 H996 0.950 . S
C1004 C1002 1.327 . S
C1005 C993 1.349 . S
C1005 H999 0.950 . S
C1005 C1006 1.327 . S
C1006 H1000 0.950 . S
C1006 C1005 1.327 . S
C1006 C1010 1.429 . S
C1007 C990 1.574 . S
C1007 H1001 0.949 . S
C1007 C1011 1.368 . S
C1008 C989 1.429 . S
C1008 C1002 1.429 . S
C1008 C1009 1.523 . S
C1009 C990 1.368 . S
C1009 C1003 1.368 . S
C1009 C1008 1.523 . S
C1010 C994 1.429 . S
C1010 C1006 1.429 . S
C1010 C1011 1.523 . S
C1011 C995 1.368 . S
C1011 C1007 1.368 . S
C1011 C1010 1.523 . S
H1012 C987 0.950 . S
H1013 C989 0.950 . S
H1014 C990 0.949 . S
H1015 C992 0.950 . S
H1016 C994 0.950 . S
C1017 C1018 1.349 . S
C1017 C1019 1.327 . S
C1017 H1042 0.950 . S
C1018 C1017 1.349 . S
C1018 C1034 1.349 . S
C1019 C1017 1.327 . S
C1019 C1038 1.429 . S
C1019 H1043 0.950 . S
C1020 C1037 1.574 . S
C1020 C1039 1.368 . S
C1020 H1044 0.949 . S
H1021 C1025 0.949 . S
C1022 C1023 1.349 . S
C1022 C1024 1.327 . S
C1022 H1045 0.950 . S
C1023 C1022 1.349 . S
C1023 C1035 1.349 . S
C1024 C1022 1.327 . S
C1024 C1040 1.429 . S
C1024 H1046 0.950 . S
C1025 H1021 0.949 . S
C1025 C1033 1.574 . S
C1025 C1041 1.368 . S
H1026 C1034 0.950 . S
H1027 C1032 0.950 . S
H1028 C1033 0.949 . S
H1029 C1035 0.950 . S
H1030 C1036 0.950 . S
H1031 C1037 0.949 . S
C1032 H1027 0.950 . S
C1032 C1034 1.327 . S
C1032 C1038 1.429 . S
C1033 C1025 1.574 . S
C1033 H1028 0.949 . S
C1033 C1039 1.368 . S
C1034 C1018 1.349 . S
C1034 H1026 0.950 . S
C1034 C1032 1.327 . S
C1035 C1023 1.349 . S
C1035 H1029 0.950 . S
C1035 C1036 1.327 . S
C1036 H1030 0.950 . S
C1036 C1035 1.327 . S
C1036 C1040 1.429 . S
C1037 C1020 1.574 . S
C1037 H1031 0.949 . S
C1037 C1041 1.368 . S
C1038 C1019 1.429 . S
C1038 C1032 1.429 . S
C1038 C1039 1.523 1_545 S
C1039 C1020 1.368 . S
C1039 C1033 1.368 . S
C1039 C1038 1.523 1_565 S
C1040 C1024 1.429 . S
C1040 C1036 1.429 . S
C1040 C1041 1.523 . S
C1041 C1025 1.368 . S
C1041 C1037 1.368 . S
C1041 C1040 1.523 . S
H1042 C1017 0.950 . S
H1043 C1019 0.950 . S
H1044 C1020 0.949 . S
H1045 C1022 0.950 . S
H1046 C1024 0.950 . S
C1047 C1048 1.349 . S
C1047 C1049 1.327 . S
C1047 H1072 0.950 . S
C1048 C1047 1.349 . S
C1048 C1064 1.349 . S
C1049 C1047 1.327 . S
C1049 C1068 1.429 . S
C1049 H1073 0.950 . S
C1050 C1067 1.574 . S
C1050 C1069 1.368 . S
C1050 H1074 0.949 . S
H1051 C1055 0.949 . S
C1052 C1053 1.349 . S
C1052 C1054 1.327 . S
C1052 H1075 0.950 . S
C1053 C1052 1.349 . S
C1053 C1065 1.349 . S
C1054 C1052 1.327 . S
C1054 C1070 1.429 . S
C1054 H1076 0.950 . S
C1055 H1051 0.949 . S
C1055 C1063 1.574 . S
C1055 C1071 1.368 . S
H1056 C1064 0.950 . S
H1057 C1062 0.950 . S
H1058 C1063 0.949 . S
H1059 C1065 0.950 . S
H1060 C1066 0.950 . S
H1061 C1067 0.949 . S
C1062 H1057 0.950 . S
C1062 C1064 1.327 . S
C1062 C1068 1.429 . S
C1063 C1055 1.574 . S
C1063 H1058 0.949 . S
C1063 C1069 1.368 . S
C1064 C1048 1.349 . S
C1064 H1056 0.950 . S
C1064 C1062 1.327 . S
C1065 C1053 1.349 . S
C1065 H1059 0.950 . S
C1065 C1066 1.327 . S
C1066 H1060 0.950 . S
C1066 C1065 1.327 . S
C1066 C1070 1.429 . S
C1067 C1050 1.574 . S
C1067 H1061 0.949 . S
C1067 C1071 1.368 . S
C1068 C1049 1.429 . S
C1068 C1062 1.429 . S
C1068 C1069 1.523 1_655 S
C1069 C1050 1.368 . S
C1069 C1063 1.368 . S
C1069 C1068 1.523 1_455 S
C1070 C1054 1.429 . S
C1070 C1066 1.429 . S
C1070 C1071 1.523 . S
C1071 C1055 1.368 . S
C1071 C1067 1.368 . S
C1071 C1070 1.523 . S
H1072 C1047 0.950 . S
H1073 C1049 0.950 . S
H1074 C1050 0.949 . S
H1075 C1052 0.950 . S
H1076 C1054 0.950 . S
C1077 C1078 1.349 . S
C1077 C1079 1.327 . S
C1077 H1102 0.950 . S
C1078 C1077 1.349 . S
C1078 C1094 1.349 . S
C1079 C1077 1.327 . S
C1079 C1098 1.429 . S
C1079 H1103 0.950 . S
C1080 C1097 1.574 . S
C1080 C1099 1.368 . S
C1080 H1104 0.949 . S
H1081 C1085 0.949 . S
C1082 C1083 1.349 . S
C1082 C1084 1.327 . S
C1082 H1105 0.950 . S
C1083 C1082 1.349 . S
C1083 C1095 1.349 . S
C1084 C1082 1.327 . S
C1084 C1100 1.429 . S
C1084 H1106 0.950 . S
C1085 H1081 0.949 . S
C1085 C1093 1.574 . S
C1085 C1101 1.368 . S
H1086 C1094 0.950 . S
H1087 C1092 0.950 . S
H1088 C1093 0.949 . S
H1089 C1095 0.950 . S
H1090 C1096 0.950 . S
H1091 C1097 0.949 . S
C1092 H1087 0.950 . S
C1092 C1094 1.327 . S
C1092 C1098 1.429 . S
C1093 C1085 1.574 . S
C1093 H1088 0.949 . S
C1093 C1099 1.368 . S
C1094 C1078 1.349 . S
C1094 H1086 0.950 . S
C1094 C1092 1.327 . S
C1095 C1083 1.349 . S
C1095 H1089 0.950 . S
C1095 C1096 1.327 . S
C1096 H1090 0.950 . S
C1096 C1095 1.327 . S
C1096 C1100 1.429 . S
C1097 C1080 1.574 . S
C1097 H1091 0.949 . S
C1097 C1101 1.368 . S
C1098 C1079 1.429 . S
C1098 C1092 1.429 . S
C1098 C1099 1.523 . S
C1099 C1080 1.368 . S
C1099 C1093 1.368 . S
C1099 C1098 1.523 . S
C1100 C1084 1.429 . S
C1100 C1096 1.429 . S
C1100 C1101 1.523 . S
C1101 C1085 1.368 . S
C1101 C1097 1.368 . S
C1101 C1100 1.523 . S
H1102 C1077 0.950 . S
H1103 C1079 0.950 . S
H1104 C1080 0.949 . S
H1105 C1082 0.950 . S
H1106 C1084 0.950 . S
C1107 C1108 1.349 . S
C1107 C1109 1.327 . S
C1107 H1132 0.950 . S
C1108 C1107 1.349 . S
C1108 C1124 1.349 . S
C1109 C1107 1.327 . S
C1109 C1128 1.429 . S
C1109 H1133 0.950 . S
C1110 C1127 1.574 . S
C1110 C1129 1.368 . S
C1110 H1134 0.949 . S
H1111 C1115 0.949 . S
C1112 C1113 1.349 . S
C1112 C1114 1.327 . S
C1112 H1135 0.950 . S
C1113 C1112 1.349 . S
C1113 C1125 1.349 . S
C1114 C1112 1.327 . S
C1114 C1130 1.429 . S
C1114 H1136 0.950 . S
C1115 H1111 0.949 . S
C1115 C1123 1.574 . S
C1115 C1131 1.368 . S
H1116 C1124 0.950 . S
H1117 C1122 0.950 . S
H1118 C1123 0.949 . S
H1119 C1125 0.950 . S
H1120 C1126 0.950 . S
H1121 C1127 0.949 . S
C1122 H1117 0.950 . S
C1122 C1124 1.327 . S
C1122 C1128 1.429 . S
C1123 C1115 1.574 . S
C1123 H1118 0.949 . S
C1123 C1129 1.368 . S
C1124 C1108 1.349 . S
C1124 H1116 0.950 . S
C1124 C1122 1.327 . S
C1125 C1113 1.349 . S
C1125 H1119 0.950 . S
C1125 C1126 1.327 . S
C1126 H1120 0.950 . S
C1126 C1125 1.327 . S
C1126 C1130 1.429 . S
C1127 C1110 1.574 . S
C1127 H1121 0.949 . S
C1127 C1131 1.368 . S
C1128 C1109 1.429 . S
C1128 C1122 1.429 . S
C1128 C1129 1.523 . S
C1129 C1110 1.368 . S
C1129 C1123 1.368 . S
C1129 C1128 1.523 . S
C1130 C1114 1.429 . S
C1130 C1126 1.429 . S
C1130 C1131 1.523 . S
C1131 C1115 1.368 . S
C1131 C1127 1.368 . S
C1131 C1130 1.523 . S
H1132 C1107 0.950 . S
H1133 C1109 0.950 . S
H1134 C1110 0.949 . S
H1135 C1112 0.950 . S
H1136 C1114 0.950 . S
C1137 C1138 1.349 . S
C1137 C1139 1.327 . S
C1137 H1162 0.950 . S
C1138 C1137 1.349 . S
C1138 C1154 1.349 . S
C1139 C1137 1.327 . S
C1139 C1158 1.429 . S
C1139 H1163 0.950 . S
C1140 C1157 1.574 . S
C1140 C1159 1.368 . S
C1140 H1164 0.949 . S
H1141 C1145 0.949 . S
C1142 C1143 1.349 . S
C1142 C1144 1.327 . S
C1142 H1165 0.950 . S
C1143 C1142 1.349 . S
C1143 C1155 1.349 . S
C1144 C1142 1.327 . S
C1144 C1160 1.429 . S
C1144 H1166 0.950 . S
C1145 H1141 0.949 . S
C1145 C1153 1.574 . S
C1145 C1161 1.368 . S
H1146 C1154 0.950 . S
H1147 C1152 0.950 . S
H1148 C1153 0.949 . S
H1149 C1155 0.950 . S
H1150 C1156 0.950 . S
H1151 C1157 0.949 . S
C1152 H1147 0.950 . S
C1152 C1154 1.327 . S
C1152 C1158 1.429 . S
C1153 C1145 1.574 . S
C1153 H1148 0.949 . S
C1153 C1159 1.368 . S
C1154 C1138 1.349 . S
C1154 H1146 0.950 . S
C1154 C1152 1.327 . S
C1155 C1143 1.349 . S
C1155 H1149 0.950 . S
C1155 C1156 1.327 . S
C1156 H1150 0.950 . S
C1156 C1155 1.327 . S
C1156 C1160 1.429 . S
C1157 C1140 1.574 . S
C1157 H1151 0.949 . S
C1157 C1161 1.368 . S
C1158 C1139 1.429 . S
C1158 C1152 1.429 . S
C1158 C1159 1.523 . S
C1159 C1140 1.368 . S
C1159 C1153 1.368 . S
C1159 C1158 1.523 . S
C1160 C1144 1.429 . S
C1160 C1156 1.429 . S
C1160 C1161 1.523 . S
C1161 C1145 1.368 . S
C1161 C1157 1.368 . S
C1161 C1160 1.523 . S
H1162 C1137 0.950 . S
H1163 C1139 0.950 . S
H1164 C1140 0.949 . S
H1165 C1142 0.950 . S
H1166 C1144 0.950 . S
C1167 C1168 1.349 . S
C1167 C1169 1.327 . S
C1167 H1192 0.950 . S
C1168 C1167 1.349 . S
C1168 C1184 1.349 . S
C1169 C1167 1.327 . S
C1169 C1188 1.429 . S
C1169 H1193 0.950 . S
C1170 C1187 1.574 . S
C1170 C1189 1.368 . S
C1170 H1194 0.949 . S
H1171 C1175 0.949 . S
C1172 C1173 1.349 . S
C1172 C1174 1.327 . S
C1172 H1195 0.950 . S
C1173 C1172 1.349 . S
C1173 C1185 1.349 . S
C1174 C1172 1.327 . S
C1174 C1190 1.429 . S
C1174 H1196 0.950 . S
C1175 H1171 0.949 . S
C1175 C1183 1.574 . S
C1175 C1191 1.368 . S
H1176 C1184 0.950 . S
H1177 C1182 0.950 . S
H1178 C1183 0.949 . S
H1179 C1185 0.950 . S
H1180 C1186 0.950 . S
H1181 C1187 0.949 . S
C1182 H1177 0.950 . S
C1182 C1184 1.327 . S
C1182 C1188 1.429 . S
C1183 C1175 1.574 . S
C1183 H1178 0.949 . S
C1183 C1189 1.368 . S
C1184 C1168 1.349 . S
C1184 H1176 0.950 . S
C1184 C1182 1.327 . S
C1185 C1173 1.349 . S
C1185 H1179 0.950 . S
C1185 C1186 1.327 . S
C1186 H1180 0.950 . S
C1186 C1185 1.327 . S
C1186 C1190 1.429 . S
C1187 C1170 1.574 . S
C1187 H1181 0.949 . S
C1187 C1191 1.368 . S
C1188 C1169 1.429 . S
C1188 C1182 1.429 . S
C1188 C1189 1.523 . S
C1189 C1170 1.368 . S
C1189 C1183 1.368 . S
C1189 C1188 1.523 . S
C1190 C1174 1.429 . S
C1190 C1186 1.429 . S
C1190 C1191 1.523 . S
C1191 C1175 1.368 . S
C1191 C1187 1.368 . S
C1191 C1190 1.523 . S
H1192 C1167 0.950 . S
H1193 C1169 0.950 . S
H1194 C1170 0.949 . S
H1195 C1172 0.950 . S
H1196 C1174 0.950 . S
C1197 C1198 1.349 . S
C1197 C1199 1.327 . S
C1197 H1222 0.950 . S
C1198 C1197 1.349 . S
C1198 C1214 1.349 . S
C1199 C1197 1.327 . S
C1199 C1218 1.429 . S
C1199 H1223 0.950 . S
C1200 C1217 1.574 . S
C1200 C1219 1.368 . S
C1200 H1224 0.949 . S
H1201 C1205 0.949 . S
C1202 C1203 1.349 . S
C1202 C1204 1.327 . S
C1202 H1225 0.950 . S
C1203 C1202 1.349 . S
C1203 C1215 1.349 . S
C1204 C1202 1.327 . S
C1204 C1220 1.429 . S
C1204 H1226 0.950 . S
C1205 H1201 0.949 . S
C1205 C1213 1.574 . S
C1205 C1221 1.368 . S
H1206 C1214 0.950 . S
H1207 C1212 0.950 . S
H1208 C1213 0.949 . S
H1209 C1215 0.950 . S
H1210 C1216 0.950 . S
H1211 C1217 0.949 . S
C1212 H1207 0.950 . S
C1212 C1214 1.327 . S
C1212 C1218 1.429 . S
C1213 C1205 1.574 . S
C1213 H1208 0.949 . S
C1213 C1219 1.368 . S
C1214 C1198 1.349 . S
C1214 H1206 0.950 . S
C1214 C1212 1.327 . S
C1215 C1203 1.349 . S
C1215 H1209 0.950 . S
C1215 C1216 1.327 . S
C1216 H1210 0.950 . S
C1216 C1215 1.327 . S
C1216 C1220 1.429 . S
C1217 C1200 1.574 . S
C1217 H1211 0.949 . S
C1217 C1221 1.368 . S
C1218 C1199 1.429 . S
C1218 C1212 1.429 . S
C1218 C1219 1.523 1_565 S
C1219 C1200 1.368 . S
C1219 C1213 1.368 . S
C1219 C1218 1.523 1_545 S
C1220 C1204 1.429 . S
C1220 C1216 1.429 . S
C1220 C1221 1.523 . S
C1221 C1205 1.368 . S
C1221 C1217 1.368 . S
C1221 C1220 1.523 . S
H1222 C1197 0.950 . S
H1223 C1199 0.950 . S
H1224 C1200 0.949 . S
H1225 C1202 0.950 . S
H1226 C1204 0.950 . S
C1227 C1228 1.349 . S
C1227 C1229 1.327 . S
C1227 H1252 0.950 . S
C1228 C1227 1.349 . S
C1228 C1244 1.349 . S
C1229 C1227 1.327 . S
C1229 C1248 1.429 . S
C1229 H1253 0.950 . S
C1230 C1247 1.640 . S
C1230 C1249 1.330 1_655 S
C1230 H1254 0.927 1_655 S
H1231 C1235 0.949 . S
C1232 C1233 1.349 . S
C1232 C1234 1.327 . S
C1232 H1255 0.950 . S
C1233 C1232 1.349 . S
C1233 C1245 1.349 . S
C1234 C1232 1.327 . S
C1234 C1250 1.429 . S
C1234 H1256 0.950 . S
C1235 H1231 0.949 . S
C1235 C1243 1.574 . S
C1235 C1251 1.368 . S
H1236 C1244 0.950 . S
H1237 C1242 0.950 . S
H1238 C1243 0.938 1_455 S
H1239 C1245 0.950 . S
H1240 C1246 0.950 . S
H1241 C1247 0.949 . S
C1242 H1237 0.950 . S
C1242 C1244 1.327 . S
C1242 C1248 1.429 . S
C1243 C1235 1.574 . S
C1243 H1238 0.938 1_655 S
C1243 C1249 1.368 1_655 S
C1244 C1228 1.349 . S
C1244 H1236 0.950 . S
C1244 C1242 1.327 . S
C1245 C1233 1.349 . S
C1245 H1239 0.950 . S
C1245 C1246 1.327 . S
C1246 H1240 0.950 . S
C1246 C1245 1.327 . S
C1246 C1250 1.429 . S
C1247 C1230 1.640 . S
C1247 H1241 0.949 . S
C1247 C1251 1.368 . S
C1248 C1229 1.429 . S
C1248 C1242 1.429 . S
C1248 C1249 1.523 . S
C1249 C1230 1.330 1_455 S
C1249 C1243 1.368 1_455 S
C1249 C1248 1.523 . S
C1250 C1234 1.429 . S
C1250 C1246 1.429 . S
C1250 C1251 1.523 . S
C1251 C1235 1.368 . S
C1251 C1247 1.368 . S
C1251 C1250 1.523 . S
H1252 C1227 0.950 . S
H1253 C1229 0.950 . S
H1254 C1230 0.927 1_455 S
H1255 C1232 0.950 . S
H1256 C1234 0.950 . S
C1257 C1258 1.349 . S
C1257 C1259 1.327 . S
C1257 H1282 0.950 . S
C1258 C1257 1.349 . S
C1258 C1274 1.349 . S
C1259 C1257 1.327 . S
C1259 C1278 1.429 . S
C1259 H1283 0.950 . S
C1260 C1277 1.574 . S
C1260 C1279 1.368 . S
C1260 H1284 0.949 . S
H1261 C1265 0.949 . S
C1262 C1263 1.349 . S
C1262 C1264 1.327 . S
C1262 H1285 0.950 . S
C1263 C1262 1.349 . S
C1263 C1275 1.349 . S
C1264 C1262 1.327 . S
C1264 C1280 1.429 . S
C1264 H1286 0.950 . S
C1265 H1261 0.949 . S
C1265 C1273 1.574 . S
C1265 C1281 1.368 . S
H1266 C1274 0.950 . S
H1267 C1272 0.950 . S
H1268 C1273 0.949 . S
H1269 C1275 0.950 . S
H1270 C1276 0.950 . S
H1271 C1277 0.949 . S
C1272 H1267 0.950 . S
C1272 C1274 1.327 . S
C1272 C1278 1.429 . S
C1273 C1265 1.574 . S
C1273 H1268 0.949 . S
C1273 C1279 1.368 . S
C1274 C1258 1.349 . S
C1274 H1266 0.950 . S
C1274 C1272 1.327 . S
C1275 C1263 1.349 . S
C1275 H1269 0.950 . S
C1275 C1276 1.327 . S
C1276 H1270 0.950 . S
C1276 C1275 1.327 . S
C1276 C1280 1.429 . S
C1277 C1260 1.574 . S
C1277 H1271 0.949 . S
C1277 C1281 1.368 . S
C1278 C1259 1.429 . S
C1278 C1272 1.429 . S
C1278 C1279 1.523 . S
C1279 C1260 1.368 . S
C1279 C1273 1.368 . S
C1279 C1278 1.523 . S
C1280 C1264 1.429 . S
C1280 C1276 1.429 . S
C1280 C1281 1.523 . S
C1281 C1265 1.368 . S
C1281 C1277 1.368 . S
C1281 C1280 1.523 . S
H1282 C1257 0.950 . S
H1283 C1259 0.950 . S
H1284 C1260 0.949 . S
H1285 C1262 0.950 . S
H1286 C1264 0.950 . S
C1287 C1288 1.349 . S
C1287 C1289 1.327 . S
C1287 H1312 0.950 . S
C1288 C1287 1.349 . S
C1288 C1304 1.349 . S
C1289 C1287 1.327 . S
C1289 C1308 1.429 . S
C1289 H1313 0.950 . S
C1290 C1307 1.574 . S
C1290 C1309 1.368 . S
C1290 H1314 0.949 . S
H1291 C1295 0.949 . S
C1292 C1293 1.349 . S
C1292 C1294 1.327 . S
C1292 H1315 0.950 . S
C1293 C1292 1.349 . S
C1293 C1305 1.349 . S
C1294 C1292 1.327 . S
C1294 C1310 1.429 . S
C1294 H1316 0.950 . S
C1295 H1291 0.949 . S
C1295 C1303 1.574 . S
C1295 C1311 1.368 . S
H1296 C1304 0.950 . S
H1297 C1302 0.950 . S
H1298 C1303 0.949 . S
H1299 C1305 0.950 . S
H1300 C1306 0.950 . S
H1301 C1307 0.949 . S
C1302 H1297 0.950 . S
C1302 C1304 1.327 . S
C1302 C1308 1.429 . S
C1303 C1295 1.574 . S
C1303 H1298 0.949 . S
C1303 C1309 1.368 . S
C1304 C1288 1.349 . S
C1304 H1296 0.950 . S
C1304 C1302 1.327 . S
C1305 C1293 1.349 . S
C1305 H1299 0.950 . S
C1305 C1306 1.327 . S
C1306 H1300 0.950 . S
C1306 C1305 1.327 . S
C1306 C1310 1.429 . S
C1307 C1290 1.574 . S
C1307 H1301 0.949 . S
C1307 C1311 1.368 . S
C1308 C1289 1.429 . S
C1308 C1302 1.429 . S
C1308 C1309 1.523 1_455 S
C1309 C1290 1.368 . S
C1309 C1303 1.368 . S
C1309 C1308 1.523 1_655 S
C1310 C1294 1.429 . S
C1310 C1306 1.429 . S
C1310 C1311 1.523 . S
C1311 C1295 1.368 . S
C1311 C1307 1.368 . S
C1311 C1310 1.523 . S
H1312 C1287 0.950 . S
H1313 C1289 0.950 . S
H1314 C1290 0.949 . S
H1315 C1292 0.950 . S
H1316 C1294 0.950 . S
C1317 C1318 1.349 . S
C1317 C1319 1.327 . S
C1317 H1342 0.950 . S
C1318 C1317 1.349 . S
C1318 C1334 1.349 . S
C1319 C1317 1.327 . S
C1319 C1338 1.429 . S
C1319 H1343 0.950 . S
C1320 C1337 1.574 . S
C1320 C1339 1.368 . S
C1320 H1344 0.949 . S
H1321 C1325 0.949 . S
C1322 C1323 1.349 . S
C1322 C1324 1.327 . S
C1322 H1345 0.950 . S
C1323 C1322 1.349 . S
C1323 C1335 1.349 . S
C1324 C1322 1.327 . S
C1324 C1340 1.429 . S
C1324 H1346 0.950 . S
C1325 H1321 0.949 . S
C1325 C1333 1.574 . S
C1325 C1341 1.368 . S
H1326 C1334 0.950 . S
H1327 C1332 0.950 . S
H1328 C1333 0.949 . S
H1329 C1335 0.950 . S
H1330 C1336 0.950 . S
H1331 C1337 0.949 . S
C1332 H1327 0.950 . S
C1332 C1334 1.327 . S
C1332 C1338 1.429 . S
C1333 C1325 1.574 . S
C1333 H1328 0.949 . S
C1333 C1339 1.368 . S
C1334 C1318 1.349 . S
C1334 H1326 0.950 . S
C1334 C1332 1.327 . S
C1335 C1323 1.349 . S
C1335 H1329 0.950 . S
C1335 C1336 1.327 . S
C1336 H1330 0.950 . S
C1336 C1335 1.327 . S
C1336 C1340 1.429 . S
C1337 C1320 1.574 . S
C1337 H1331 0.949 . S
C1337 C1341 1.368 . S
C1338 C1319 1.429 . S
C1338 C1332 1.429 . S
C1338 C1339 1.523 . S
C1339 C1320 1.368 . S
C1339 C1333 1.368 . S
C1339 C1338 1.523 . S
C1340 C1324 1.429 . S
C1340 C1336 1.429 . S
C1340 C1341 1.523 . S
C1341 C1325 1.368 . S
C1341 C1337 1.368 . S
C1341 C1340 1.523 . S
H1342 C1317 0.950 . S
H1343 C1319 0.950 . S
H1344 C1320 0.949 . S
H1345 C1322 0.950 . S
H1346 C1324 0.950 . S
C1347 C1348 1.349 . S
C1347 C1349 1.327 . S
C1347 H1372 0.950 . S
C1348 C1347 1.349 . S
C1348 C1364 1.349 . S
C1349 C1347 1.327 . S
C1349 C1368 1.429 . S
C1349 H1373 0.950 . S
C1350 C1367 1.574 . S
C1350 C1369 1.368 . S
C1350 H1374 0.949 . S
H1351 C1355 0.949 . S
C1352 C1353 1.349 . S
C1352 C1354 1.327 . S
C1352 H1375 0.950 . S
C1353 C1352 1.349 . S
C1353 C1365 1.349 . S
C1354 C1352 1.327 . S
C1354 C1370 1.429 . S
C1354 H1376 0.950 . S
C1355 H1351 0.949 . S
C1355 C1363 1.574 . S
C1355 C1371 1.368 . S
H1356 C1364 0.950 . S
H1357 C1362 0.950 . S
H1358 C1363 0.949 . S
H1359 C1365 0.950 . S
H1360 C1366 0.950 . S
H1361 C1367 0.949 . S
C1362 H1357 0.950 . S
C1362 C1364 1.327 . S
C1362 C1368 1.429 . S
C1363 C1355 1.574 . S
C1363 H1358 0.949 . S
C1363 C1369 1.368 . S
C1364 C1348 1.349 . S
C1364 H1356 0.950 . S
C1364 C1362 1.327 . S
C1365 C1353 1.349 . S
C1365 H1359 0.950 . S
C1365 C1366 1.327 . S
C1366 H1360 0.950 . S
C1366 C1365 1.327 . S
C1366 C1370 1.429 . S
C1367 C1350 1.574 . S
C1367 H1361 0.949 . S
C1367 C1371 1.368 . S
C1368 C1349 1.429 . S
C1368 C1362 1.429 . S
C1368 C1369 1.523 1_565 S
C1369 C1350 1.368 . S
C1369 C1363 1.368 . S
C1369 C1368 1.523 1_545 S
C1370 C1354 1.429 . S
C1370 C1366 1.429 . S
C1370 C1371 1.523 . S
C1371 C1355 1.368 . S
C1371 C1367 1.368 . S
C1371 C1370 1.523 . S
H1372 C1347 0.950 . S
H1373 C1349 0.950 . S
H1374 C1350 0.949 . S
H1375 C1352 0.950 . S
H1376 C1354 0.950 . S
C1377 C1378 1.349 . S
C1377 C1379 1.327 . S
C1377 H1402 0.950 . S
C1378 C1377 1.349 . S
C1378 C1394 1.349 . S
C1379 C1377 1.327 . S
C1379 C1398 1.429 . S
C1379 H1403 0.950 . S
C1380 C1397 1.574 . S
C1380 C1399 1.368 . S
C1380 H1404 0.949 . S
H1381 C1385 0.949 . S
C1382 C1383 1.349 . S
C1382 C1384 1.327 . S
C1382 H1405 0.950 . S
C1383 C1382 1.349 . S
C1383 C1395 1.349 . S
C1384 C1382 1.327 . S
C1384 C1400 1.429 . S
C1384 H1406 0.950 . S
C1385 H1381 0.949 . S
C1385 C1393 1.574 . S
C1385 C1401 1.368 . S
H1386 C1394 0.950 . S
H1387 C1392 0.950 . S
H1388 C1393 0.949 . S
H1389 C1395 0.950 . S
H1390 C1396 0.950 . S
H1391 C1397 0.949 . S
C1392 H1387 0.950 . S
C1392 C1394 1.327 . S
C1392 C1398 1.429 . S
C1393 C1385 1.574 . S
C1393 H1388 0.949 . S
C1393 C1399 1.368 . S
C1394 C1378 1.349 . S
C1394 H1386 0.950 . S
C1394 C1392 1.327 . S
C1395 C1383 1.349 . S
C1395 H1389 0.950 . S
C1395 C1396 1.327 . S
C1396 H1390 0.950 . S
C1396 C1395 1.327 . S
C1396 C1400 1.429 . S
C1397 C1380 1.574 . S
C1397 H1391 0.949 . S
C1397 C1401 1.368 . S
C1398 C1379 1.429 . S
C1398 C1392 1.429 . S
C1398 C1399 1.523 . S
C1399 C1380 1.368 . S
C1399 C1393 1.368 . S
C1399 C1398 1.523 . S
C1400 C1384 1.429 . S
C1400 C1396 1.429 . S
C1400 C1401 1.523 . S
C1401 C1385 1.368 . S
C1401 C1397 1.368 . S
C1401 C1400 1.523 . S
H1402 C1377 0.950 . S
H1403 C1379 0.950 . S
H1404 C1380 0.949 . S
H1405 C1382 0.950 . S
H1406 C1384 0.950 . S
C1407 C1408 1.349 . S
C1407 C1409 1.327 . S
C1407 H1432 0.950 . S
C1408 C1407 1.349 . S
C1408 C1424 1.349 . S
C1409 C1407 1.327 . S
C1409 C1428 1.429 . S
C1409 H1433 0.950 . S
C1410 C1427 1.574 . S
C1410 C1429 1.368 . S
C1410 H1434 0.949 . S
H1411 C1415 0.949 . S
C1412 C1413 1.349 . S
C1412 C1414 1.327 . S
C1412 H1435 0.950 . S
C1413 C1412 1.349 . S
C1413 C1425 1.349 . S
C1414 C1412 1.327 . S
C1414 C1430 1.429 . S
C1414 H1436 0.950 . S
C1415 H1411 0.949 . S
C1415 C1423 1.574 . S
C1415 C1431 1.368 . S
H1416 C1424 0.950 . S
H1417 C1422 0.950 . S
H1418 C1423 0.949 . S
H1419 C1425 0.950 . S
H1420 C1426 0.950 . S
H1421 C1427 0.949 . S
C1422 H1417 0.950 . S
C1422 C1424 1.327 . S
C1422 C1428 1.429 . S
C1423 C1415 1.574 . S
C1423 H1418 0.949 . S
C1423 C1429 1.368 . S
C1424 C1408 1.349 . S
C1424 H1416 0.950 . S
C1424 C1422 1.327 . S
C1425 C1413 1.349 . S
C1425 H1419 0.950 . S
C1425 C1426 1.327 . S
C1426 H1420 0.950 . S
C1426 C1425 1.327 . S
C1426 C1430 1.429 . S
C1427 C1410 1.574 . S
C1427 H1421 0.949 . S
C1427 C1431 1.368 . S
C1428 C1409 1.429 . S
C1428 C1422 1.429 . S
C1428 C1429 1.523 . S
C1429 C1410 1.368 . S
C1429 C1423 1.368 . S
C1429 C1428 1.523 . S
C1430 C1414 1.429 . S
C1430 C1426 1.429 . S
C1430 C1431 1.523 . S
C1431 C1415 1.368 . S
C1431 C1427 1.368 . S
C1431 C1430 1.523 . S
H1432 C1407 0.950 . S
H1433 C1409 0.950 . S
H1434 C1410 0.949 . S
H1435 C1412 0.950 . S
H1436 C1414 0.950 . S
C1437 C1438 1.349 . S
C1437 C1439 1.327 . S
C1437 H1462 0.950 . S
C1438 C1437 1.349 . S
C1438 C1454 1.349 . S
C1439 C1437 1.327 . S
C1439 C1458 1.429 . S
C1439 H1463 0.950 . S
C1440 C1457 1.574 . S
C1440 C1459 1.368 . S
C1440 H1464 0.949 . S
H1441 C1445 0.949 . S
C1442 C1443 1.349 . S
C1442 C1444 1.327 . S
C1442 H1465 0.950 . S
C1443 C1442 1.349 . S
C1443 C1455 1.349 . S
C1444 C1442 1.327 . S
C1444 C1460 1.429 . S
C1444 H1466 0.950 . S
C1445 H1441 0.949 . S
C1445 C1453 1.574 . S
C1445 C1461 1.368 . S
H1446 C1454 0.950 . S
H1447 C1452 0.950 . S
H1448 C1453 0.949 . S
H1449 C1455 0.950 . S
H1450 C1456 0.950 . S
H1451 C1457 0.949 . S
C1452 H1447 0.950 . S
C1452 C1454 1.327 . S
C1452 C1458 1.429 . S
C1453 C1445 1.574 . S
C1453 H1448 0.949 . S
C1453 C1459 1.368 . S
C1454 C1438 1.349 . S
C1454 H1446 0.950 . S
C1454 C1452 1.327 . S
C1455 C1443 1.349 . S
C1455 H1449 0.950 . S
C1455 C1456 1.327 . S
C1456 H1450 0.950 . S
C1456 C1455 1.327 . S
C1456 C1460 1.429 . S
C1457 C1440 1.574 . S
C1457 H1451 0.949 . S
C1457 C1461 1.368 . S
C1458 C1439 1.429 . S
C1458 C1452 1.429 . S
C1458 C1459 1.523 . S
C1459 C1440 1.368 . S
C1459 C1453 1.368 . S
C1459 C1458 1.523 . S
C1460 C1444 1.429 . S
C1460 C1456 1.429 . S
C1460 C1461 1.523 . S
C1461 C1445 1.368 . S
C1461 C1457 1.368 . S
C1461 C1460 1.523 . S
H1462 C1437 0.950 . S
H1463 C1439 0.950 . S
H1464 C1440 0.949 . S
H1465 C1442 0.950 . S
H1466 C1444 0.950 . S
C1467 C1468 1.349 . S
C1467 C1469 1.327 . S
C1467 H1492 0.950 . S
C1468 C1467 1.349 . S
C1468 C1484 1.349 . S
C1469 C1467 1.327 . S
C1469 C1488 1.429 . S
C1469 H1493 0.950 . S
C1470 C1487 1.574 . S
C1470 C1489 1.368 . S
C1470 H1494 0.949 . S
H1471 C1475 0.949 . S
C1472 C1473 1.343 1_545 S
C1472 C1474 1.314 1_545 S
C1472 H1495 0.972 . S
C1473 C1472 1.343 1_565 S
C1473 C1485 1.349 . S
C1474 C1472 1.314 1_565 S
C1474 C1490 1.429 . S
C1474 H1496 0.950 1_565 S
C1475 H1471 0.949 . S
C1475 C1483 1.574 . S
C1475 C1491 1.368 . S
H1476 C1484 0.950 . S
H1477 C1482 0.950 . S
H1478 C1483 0.949 . S
H1479 C1485 0.950 . S
H1480 C1486 0.950 . S
H1481 C1487 0.949 . S
C1482 H1477 0.950 . S
C1482 C1484 1.327 . S
C1482 C1488 1.429 . S
C1483 C1475 1.574 . S
C1483 H1478 0.949 . S
C1483 C1489 1.368 . S
C1484 C1468 1.349 . S
C1484 H1476 0.950 . S
C1484 C1482 1.327 . S
C1485 C1473 1.349 . S
C1485 H1479 0.950 . S
C1485 C1486 1.327 . S
C1486 H1480 0.950 . S
C1486 C1485 1.327 . S
C1486 C1490 1.429 . S
C1487 C1470 1.574 . S
C1487 H1481 0.949 . S
C1487 C1491 1.368 . S
C1488 C1469 1.429 . S
C1488 C1482 1.429 . S
C1488 C1489 1.523 . S
C1489 C1470 1.368 . S
C1489 C1483 1.368 . S
C1489 C1488 1.523 . S
C1490 C1474 1.429 . S
C1490 C1486 1.429 . S
C1490 C1491 1.523 . S
C1491 C1475 1.368 . S
C1491 C1487 1.368 . S
C1491 C1490 1.523 . S
H1492 C1467 0.950 . S
H1493 C1469 0.950 . S
H1494 C1470 0.949 . S
H1495 C1472 0.972 . S
H1496 C1474 0.950 1_545 S
C1497 C1498 1.349 . S
C1497 C1499 1.327 . S
C1497 H1522 0.950 . S
C1498 C1497 1.349 . S
C1498 C1514 1.349 . S
C1499 C1497 1.327 . S
C1499 C1518 1.429 . S
C1499 H1523 0.950 . S
C1500 C1517 1.574 . S
C1500 C1519 1.368 . S
C1500 H1524 0.949 . S
H1501 C1505 0.949 . S
C1502 C1503 1.349 . S
C1502 C1504 1.327 . S
C1502 H1525 0.950 . S
C1503 C1502 1.349 . S
C1503 C1515 1.349 . S
C1504 C1502 1.327 . S
C1504 C1520 1.429 . S
C1504 H1526 0.950 . S
C1505 H1501 0.949 . S
C1505 C1513 1.574 . S
C1505 C1521 1.368 . S
H1506 C1514 0.950 . S
H1507 C1512 0.950 . S
H1508 C1513 0.949 . S
H1509 C1515 0.939 1_655 S
H1510 C1516 0.950 . S
H1511 C1517 0.949 . S
C1512 H1507 0.950 . S
C1512 C1514 1.327 . S
C1512 C1518 1.429 . S
C1513 C1505 1.574 . S
C1513 H1508 0.949 . S
C1513 C1519 1.368 . S
C1514 C1498 1.349 . S
C1514 H1506 0.950 . S
C1514 C1512 1.327 . S
C1515 C1503 1.349 . S
C1515 H1509 0.939 1_455 S
C1515 C1516 1.327 . S
C1516 H1510 0.950 . S
C1516 C1515 1.327 . S
C1516 C1520 1.429 . S
C1517 C1500 1.574 . S
C1517 H1511 0.949 . S
C1517 C1521 1.368 . S
C1518 C1499 1.429 . S
C1518 C1512 1.429 . S
C1518 C1519 1.523 . S
C1519 C1500 1.368 . S
C1519 C1513 1.368 . S
C1519 C1518 1.523 . S
C1520 C1504 1.429 . S
C1520 C1516 1.429 . S
C1520 C1521 1.523 . S
C1521 C1505 1.368 . S
C1521 C1517 1.368 . S
C1521 C1520 1.523 . S
H1522 C1497 0.950 . S
H1523 C1499 0.950 . S
H1524 C1500 0.949 . S
H1525 C1502 0.950 . S
H1526 C1504 0.950 . S
C1527 C1528 1.349 . S
C1527 C1529 1.327 . S
C1527 H1552 0.950 . S
C1528 C1527 1.349 . S
C1528 C1544 1.349 . S
C1529 C1527 1.327 . S
C1529 C1548 1.429 . S
C1529 H1553 0.950 . S
C1530 C1547 1.574 . S
C1530 C1549 1.368 . S
C1530 H1554 0.949 . S
H1531 C1535 0.949 . S
C1532 C1533 1.349 . S
C1532 C1534 1.327 . S
C1532 H1555 0.950 . S
C1533 C1532 1.349 . S
C1533 C1545 1.349 . S
C1534 C1532 1.327 . S
C1534 C1550 1.429 . S
C1534 H1556 0.950 . S
C1535 H1531 0.949 . S
C1535 C1543 1.574 . S
C1535 C1551 1.368 . S
H1536 C1544 0.950 . S
H1537 C1542 0.950 . S
H1538 C1543 0.949 . S
H1539 C1545 0.950 . S
H1540 C1546 0.950 . S
H1541 C1547 0.949 . S
C1542 H1537 0.950 . S
C1542 C1544 1.327 . S
C1542 C1548 1.429 . S
C1543 C1535 1.574 . S
C1543 H1538 0.949 . S
C1543 C1549 1.368 . S
C1544 C1528 1.349 . S
C1544 H1536 0.950 . S
C1544 C1542 1.327 . S
C1545 C1533 1.349 . S
C1545 H1539 0.950 . S
C1545 C1546 1.327 . S
C1546 H1540 0.950 . S
C1546 C1545 1.327 . S
C1546 C1550 1.429 . S
C1547 C1530 1.574 . S
C1547 H1541 0.949 . S
C1547 C1551 1.368 . S
C1548 C1529 1.429 . S
C1548 C1542 1.429 . S
C1548 C1549 1.523 . S
C1549 C1530 1.368 . S
C1549 C1543 1.368 . S
C1549 C1548 1.523 . S
C1550 C1534 1.429 . S
C1550 C1546 1.429 . S
C1550 C1551 1.523 . S
C1551 C1535 1.368 . S
C1551 C1547 1.368 . S
C1551 C1550 1.523 . S
H1552 C1527 0.950 . S
H1553 C1529 0.950 . S
H1554 C1530 0.949 . S
H1555 C1532 0.950 . S
H1556 C1534 0.950 . S
C1557 C1558 1.349 . S
C1557 C1559 1.327 . S
C1557 H1582 0.950 . S
C1558 C1557 1.349 . S
C1558 C1574 1.349 . S
C1559 C1557 1.327 . S
C1559 C1578 1.429 . S
C1559 H1583 0.950 . S
C1560 C1577 1.574 . S
C1560 C1579 1.368 . S
C1560 H1584 0.949 . S
H1561 C1565 0.949 . S
C1562 C1563 1.349 . S
C1562 C1564 1.327 . S
C1562 H1585 0.950 . S
C1563 C1562 1.349 . S
C1563 C1575 1.349 . S
C1564 C1562 1.327 . S
C1564 C1580 1.429 . S
C1564 H1586 0.950 . S
C1565 H1561 0.949 . S
C1565 C1573 1.574 . S
C1565 C1581 1.368 . S
H1566 C1574 0.950 . S
H1567 C1572 0.950 . S
H1568 C1573 0.949 . S
H1569 C1575 0.950 . S
H1570 C1576 0.950 . S
H1571 C1577 0.949 . S
C1572 H1567 0.950 . S
C1572 C1574 1.327 . S
C1572 C1578 1.429 . S
C1573 C1565 1.574 . S
C1573 H1568 0.949 . S
C1573 C1579 1.368 . S
C1574 C1558 1.349 . S
C1574 H1566 0.950 . S
C1574 C1572 1.327 . S
C1575 C1563 1.349 . S
C1575 H1569 0.950 . S
C1575 C1576 1.327 . S
C1576 H1570 0.950 . S
C1576 C1575 1.327 . S
C1576 C1580 1.429 . S
C1577 C1560 1.574 . S
C1577 H1571 0.949 . S
C1577 C1581 1.368 . S
C1578 C1559 1.429 . S
C1578 C1572 1.429 . S
C1578 C1579 1.523 . S
C1579 C1560 1.368 . S
C1579 C1573 1.368 . S
C1579 C1578 1.523 . S
C1580 C1564 1.429 . S
C1580 C1576 1.429 . S
C1580 C1581 1.523 . S
C1581 C1565 1.368 . S
C1581 C1577 1.368 . S
C1581 C1580 1.523 . S
H1582 C1557 0.950 . S
H1583 C1559 0.950 . S
H1584 C1560 0.949 . S
H1585 C1562 0.950 . S
H1586 C1564 0.950 . S
C1587 C1588 1.349 . S
C1587 C1589 1.327 . S
C1587 H1612 0.950 . S
C1588 C1587 1.349 . S
C1588 C1604 1.349 . S
C1589 C1587 1.327 . S
C1589 C1608 1.429 . S
C1589 H1613 0.950 . S
C1590 C1607 1.574 . S
C1590 C1609 1.368 . S
C1590 H1614 0.949 . S
H1591 C1595 0.949 . S
C1592 C1593 1.349 . S
C1592 C1594 1.327 . S
C1592 H1615 0.950 . S
C1593 C1592 1.349 . S
C1593 C1605 1.349 . S
C1594 C1592 1.327 . S
C1594 C1610 1.429 . S
C1594 H1616 0.950 . S
C1595 H1591 0.949 . S
C1595 C1603 1.574 . S
C1595 C1611 1.368 . S
H1596 C1604 0.950 . S
H1597 C1602 0.950 . S
H1598 C1603 0.949 . S
H1599 C1605 0.950 . S
H1600 C1606 0.950 . S
H1601 C1607 0.949 . S
C1602 H1597 0.950 . S
C1602 C1604 1.327 . S
C1602 C1608 1.429 . S
C1603 C1595 1.574 . S
C1603 H1598 0.949 . S
C1603 C1609 1.368 . S
C1604 C1588 1.349 . S
C1604 H1596 0.950 . S
C1604 C1602 1.327 . S
C1605 C1593 1.349 . S
C1605 H1599 0.950 . S
C1605 C1606 1.327 . S
C1606 H1600 0.950 . S
C1606 C1605 1.327 . S
C1606 C1610 1.429 . S
C1607 C1590 1.574 . S
C1607 H1601 0.949 . S
C1607 C1611 1.368 . S
C1608 C1589 1.429 . S
C1608 C1602 1.429 . S
C1608 C1609 1.523 . S
C1609 C1590 1.368 . S
C1609 C1603 1.368 . S
C1609 C1608 1.523 . S
C1610 C1594 1.429 . S
C1610 C1606 1.429 . S
C1610 C1611 1.523 . S
C1611 C1595 1.368 . S
C1611 C1607 1.368 . S
C1611 C1610 1.523 . S
H1612 C1587 0.950 . S
H1613 C1589 0.950 . S
H1614 C1590 0.949 . S
H1615 C1592 0.950 . S
H1616 C1594 0.950 . S
C1617 C1618 1.349 . S
C1617 C1619 1.327 . S
C1617 H1642 0.950 . S
C1618 C1617 1.349 . S
C1618 C1634 1.349 . S
C1619 C1617 1.327 . S
C1619 C1638 1.429 . S
C1619 H1643 0.950 . S
C1620 C1637 1.574 . S
C1620 C1639 1.368 . S
C1620 H1644 0.949 . S
H1621 C1625 0.949 . S
C1622 C1623 1.349 . S
C1622 C1624 1.327 . S
C1622 H1645 0.950 . S
C1623 C1622 1.349 . S
C1623 C1635 1.349 . S
C1624 C1622 1.327 . S
C1624 C1640 1.429 . S
C1624 H1646 0.950 . S
C1625 H1621 0.949 . S
C1625 C1633 1.574 . S
C1625 C1641 1.368 . S
H1626 C1634 0.950 . S
H1627 C1632 0.950 . S
H1628 C1633 0.949 . S
H1629 C1635 0.950 1_565 S
H1630 C1636 0.930 1_565 S
H1631 C1637 0.949 . S
C1632 H1627 0.950 . S
C1632 C1634 1.327 . S
C1632 C1638 1.429 . S
C1633 C1625 1.574 . S
C1633 H1628 0.949 . S
C1633 C1639 1.368 . S
C1634 C1618 1.349 . S
C1634 H1626 0.950 . S
C1634 C1632 1.327 . S
C1635 C1623 1.349 . S
C1635 H1629 0.950 1_545 S
C1635 C1636 1.327 . S
C1636 H1630 0.930 1_545 S
C1636 C1635 1.327 . S
C1636 C1640 1.429 . S
C1637 C1620 1.574 . S
C1637 H1631 0.949 . S
C1637 C1641 1.368 . S
C1638 C1619 1.429 . S
C1638 C1632 1.429 . S
C1638 C1639 1.523 . S
C1639 C1620 1.368 . S
C1639 C1633 1.368 . S
C1639 C1638 1.523 . S
C1640 C1624 1.429 . S
C1640 C1636 1.429 . S
C1640 C1641 1.523 . S
C1641 C1625 1.368 . S
C1641 C1637 1.368 . S
C1641 C1640 1.523 . S
H1642 C1617 0.950 . S
H1643 C1619 0.950 . S
H1644 C1620 0.949 . S
H1645 C1622 0.950 . S
H1646 C1624 0.950 . S
C1647 C1648 1.349 . S
C1647 C1649 1.327 . S
C1647 H1672 0.950 . S
C1648 C1647 1.349 . S
C1648 C1664 1.349 . S
C1649 C1647 1.327 . S
C1649 C1668 1.429 . S
C1649 H1673 0.950 . S
C1650 C1667 1.574 . S
C1650 C1669 1.368 . S
C1650 H1674 0.949 . S
H1651 C1655 0.949 . S
C1652 C1653 1.349 . S
C1652 C1654 1.327 . S
C1652 H1675 0.950 . S
C1653 C1652 1.349 . S
C1653 C1665 1.349 . S
C1654 C1652 1.327 . S
C1654 C1670 1.429 . S
C1654 H1676 0.950 . S
C1655 H1651 0.949 . S
C1655 C1663 1.574 . S
C1655 C1671 1.368 . S
H1656 C1664 0.950 . S
H1657 C1662 0.950 . S
H1658 C1663 0.949 . S
H1659 C1665 0.950 . S
H1660 C1666 0.950 . S
H1661 C1667 0.949 . S
C1662 H1657 0.950 . S
C1662 C1664 1.327 . S
C1662 C1668 1.429 . S
C1663 C1655 1.574 . S
C1663 H1658 0.949 . S
C1663 C1669 1.368 . S
C1664 C1648 1.349 . S
C1664 H1656 0.950 . S
C1664 C1662 1.327 . S
C1665 C1653 1.349 . S
C1665 H1659 0.950 . S
C1665 C1666 1.327 . S
C1666 H1660 0.950 . S
C1666 C1665 1.327 . S
C1666 C1670 1.429 . S
C1667 C1650 1.574 . S
C1667 H1661 0.949 . S
C1667 C1671 1.368 . S
C1668 C1649 1.429 . S
C1668 C1662 1.429 . S
C1668 C1669 1.523 . S
C1669 C1650 1.368 . S
C1669 C1663 1.368 . S
C1669 C1668 1.523 . S
C1670 C1654 1.429 . S
C1670 C1666 1.429 . S
C1670 C1671 1.523 . S
C1671 C1655 1.368 . S
C1671 C1667 1.368 . S
C1671 C1670 1.523 . S
H1672 C1647 0.950 . S
H1673 C1649 0.950 . S
H1674 C1650 0.949 . S
H1675 C1652 0.950 . S
H1676 C1654 0.950 . S
C1677 C1678 1.349 . S
C1677 C1679 1.327 . S
C1677 H1702 0.950 . S
C1678 C1677 1.349 . S
C1678 C1694 1.349 . S
C1679 C1677 1.327 . S
C1679 C1698 1.429 . S
C1679 H1703 0.950 . S
C1680 C1697 1.574 . S
C1680 C1699 1.368 . S
C1680 H1704 0.949 . S
H1681 C1685 0.949 . S
C1682 C1683 1.349 . S
C1682 C1684 1.327 . S
C1682 H1705 0.950 . S
C1683 C1682 1.349 . S
C1683 C1695 1.349 . S
C1684 C1682 1.327 . S
C1684 C1700 1.429 . S
C1684 H1706 0.950 . S
C1685 H1681 0.949 . S
C1685 C1693 1.574 . S
C1685 C1701 1.368 . S
H1686 C1694 0.950 . S
H1687 C1692 0.950 . S
H1688 C1693 0.949 . S
H1689 C1695 0.950 . S
H1690 C1696 0.950 . S
H1691 C1697 0.949 . S
C1692 H1687 0.950 . S
C1692 C1694 1.327 . S
C1692 C1698 1.429 . S
C1693 C1685 1.574 . S
C1693 H1688 0.949 . S
C1693 C1699 1.368 . S
C1694 C1678 1.349 . S
C1694 H1686 0.950 . S
C1694 C1692 1.327 . S
C1695 C1683 1.349 . S
C1695 H1689 0.950 . S
C1695 C1696 1.327 . S
C1696 H1690 0.950 . S
C1696 C1695 1.327 . S
C1696 C1700 1.429 . S
C1697 C1680 1.574 . S
C1697 H1691 0.949 . S
C1697 C1701 1.368 . S
C1698 C1679 1.429 . S
C1698 C1692 1.429 . S
C1698 C1699 1.523 . S
C1699 C1680 1.368 . S
C1699 C1693 1.368 . S
C1699 C1698 1.523 . S
C1700 C1684 1.429 . S
C1700 C1696 1.429 . S
C1700 C1701 1.523 . S
C1701 C1685 1.368 . S
C1701 C1697 1.368 . S
C1701 C1700 1.523 . S
H1702 C1677 0.950 . S
H1703 C1679 0.950 . S
H1704 C1680 0.949 . S
H1705 C1682 0.950 . S
H1706 C1684 0.950 . S
C1707 C1708 1.349 . S
C1707 C1709 1.327 . S
C1707 H1732 0.950 . S
C1708 C1707 1.349 . S
C1708 C1724 1.349 . S
C1709 C1707 1.327 . S
C1709 C1728 1.429 . S
C1709 H1733 0.950 . S
C1710 C1727 1.574 . S
C1710 C1729 1.368 . S
C1710 H1734 0.949 . S
H1711 C1715 0.949 . S
C1712 C1713 1.349 . S
C1712 C1714 1.327 . S
C1712 H1735 0.950 . S
C1713 C1712 1.349 . S
C1713 C1725 1.349 . S
C1714 C1712 1.327 . S
C1714 C1730 1.429 . S
C1714 H1736 0.950 . S
C1715 H1711 0.949 . S
C1715 C1723 1.574 . S
C1715 C1731 1.368 . S
H1716 C1724 0.950 . S
H1717 C1722 0.950 . S
H1718 C1723 0.949 . S
H1719 C1725 0.950 . S
H1720 C1726 0.950 . S
H1721 C1727 0.949 . S
C1722 H1717 0.950 . S
C1722 C1724 1.327 . S
C1722 C1728 1.429 . S
C1723 C1715 1.574 . S
C1723 H1718 0.949 . S
C1723 C1729 1.368 . S
C1724 C1708 1.349 . S
C1724 H1716 0.950 . S
C1724 C1722 1.327 . S
C1725 C1713 1.349 . S
C1725 H1719 0.950 . S
C1725 C1726 1.327 . S
C1726 H1720 0.950 . S
C1726 C1725 1.327 . S
C1726 C1730 1.429 . S
C1727 C1710 1.574 . S
C1727 H1721 0.949 . S
C1727 C1731 1.368 . S
C1728 C1709 1.429 . S
C1728 C1722 1.429 . S
C1728 C1729 1.523 . S
C1729 C1710 1.368 . S
C1729 C1723 1.368 . S
C1729 C1728 1.523 . S
C1730 C1714 1.429 . S
C1730 C1726 1.429 . S
C1730 C1731 1.523 . S
C1731 C1715 1.368 . S
C1731 C1727 1.368 . S
C1731 C1730 1.523 . S
H1732 C1707 0.950 . S
H1733 C1709 0.950 . S
H1734 C1710 0.949 . S
H1735 C1712 0.950 . S
H1736 C1714 0.950 . S
C1737 C1738 1.349 . S
C1737 C1739 1.327 . S
C1737 H1762 0.950 . S
C1738 C1737 1.349 . S
C1738 C1754 1.349 . S
C1739 C1737 1.327 . S
C1739 C1758 1.429 . S
C1739 H1763 0.950 . S
C1740 C1757 1.574 . S
C1740 C1759 1.368 . S
C1740 H1764 0.949 . S
H1741 C1745 0.949 . S
C1742 C1743 1.349 . S
C1742 C1744 1.327 . S
C1742 H1765 0.950 . S
C1743 C1742 1.349 . S
C1743 C1755 1.349 . S
C1744 C1742 1.327 . S
C1744 C1760 1.429 . S
C1744 H1766 0.950 . S
C1745 H1741 0.949 . S
C1745 C1753 1.574 . S
C1745 C1761 1.368 . S
H1746 C1754 0.950 . S
H1747 C1752 0.950 . S
H1748 C1753 0.949 . S
H1749 C1755 0.950 . S
H1750 C1756 0.950 . S
H1751 C1757 0.949 . S
C1752 H1747 0.950 . S
C1752 C1754 1.327 . S
C1752 C1758 1.429 . S
C1753 C1745 1.574 . S
C1753 H1748 0.949 . S
C1753 C1759 1.368 . S
C1754 C1738 1.349 . S
C1754 H1746 0.950 . S
C1754 C1752 1.327 . S
C1755 C1743 1.349 . S
C1755 H1749 0.950 . S
C1755 C1756 1.327 . S
C1756 H1750 0.950 . S
C1756 C1755 1.327 . S
C1756 C1760 1.429 . S
C1757 C1740 1.574 . S
C1757 H1751 0.949 . S
C1757 C1761 1.368 . S
C1758 C1739 1.429 . S
C1758 C1752 1.429 . S
C1758 C1759 1.523 . S
C1759 C1740 1.368 . S
C1759 C1753 1.368 . S
C1759 C1758 1.523 . S
C1760 C1744 1.429 . S
C1760 C1756 1.429 . S
C1760 C1761 1.523 . S
C1761 C1745 1.368 . S
C1761 C1757 1.368 . S
C1761 C1760 1.523 . S
H1762 C1737 0.950 . S
H1763 C1739 0.950 . S
H1764 C1740 0.949 . S
H1765 C1742 0.950 . S
H1766 C1744 0.950 . S
C1767 C1768 1.349 . S
C1767 C1769 1.327 . S
C1767 H1792 0.950 . S
C1768 C1767 1.349 . S
C1768 C1784 1.349 . S
C1769 C1767 1.327 . S
C1769 C1788 1.429 . S
C1769 H1793 0.950 . S
C1770 C1787 1.574 . S
C1770 C1789 1.368 . S
C1770 H1794 0.949 . S
H1771 C1775 0.949 . S
C1772 C1773 1.349 . S
C1772 C1774 1.327 . S
C1772 H1795 0.950 . S
C1773 C1772 1.349 . S
C1773 C1785 1.349 . S
C1774 C1772 1.327 . S
C1774 C1790 1.429 . S
C1774 H1796 0.950 . S
C1775 H1771 0.949 . S
C1775 C1783 1.574 . S
C1775 C1791 1.368 . S
H1776 C1784 0.950 . S
H1777 C1782 0.950 . S
H1778 C1783 0.949 . S
H1779 C1785 0.950 . S
H1780 C1786 0.950 . S
H1781 C1787 0.949 . S
C1782 H1777 0.950 . S
C1782 C1784 1.327 . S
C1782 C1788 1.429 . S
C1783 C1775 1.574 . S
C1783 H1778 0.949 . S
C1783 C1789 1.368 . S
C1784 C1768 1.349 . S
C1784 H1776 0.950 . S
C1784 C1782 1.327 . S
C1785 C1773 1.349 . S
C1785 H1779 0.950 . S
C1785 C1786 1.327 . S
C1786 H1780 0.950 . S
C1786 C1785 1.327 . S
C1786 C1790 1.429 . S
C1787 C1770 1.574 . S
C1787 H1781 0.949 . S
C1787 C1791 1.368 . S
C1788 C1769 1.429 . S
C1788 C1782 1.429 . S
C1788 C1789 1.523 . S
C1789 C1770 1.368 . S
C1789 C1783 1.368 . S
C1789 C1788 1.523 . S
C1790 C1774 1.429 . S
C1790 C1786 1.429 . S
C1790 C1791 1.523 . S
C1791 C1775 1.368 . S
C1791 C1787 1.368 . S
C1791 C1790 1.523 . S
H1792 C1767 0.950 . S
H1793 C1769 0.950 . S
H1794 C1770 0.949 . S
H1795 C1772 0.950 . S
H1796 C1774 0.950 . S
C1797 C1798 1.349 . S
C1797 C1799 1.327 . S
C1797 H1822 0.950 . S
C1798 C1797 1.349 . S
C1798 C1814 1.349 . S
C1799 C1797 1.327 . S
C1799 C1818 1.429 . S
C1799 H1823 0.950 . S
C1800 C1817 1.574 . S
C1800 C1819 1.368 . S
C1800 H1824 0.949 . S
H1801 C1805 0.949 . S
C1802 C1803 1.349 . S
C1802 C1804 1.327 . S
C1802 H1825 0.950 . S
C1803 C1802 1.349 . S
C1803 C1815 1.349 . S
C1804 C1802 1.327 . S
C1804 C1820 1.429 . S
C1804 H1826 0.950 . S
C1805 H1801 0.949 . S
C1805 C1813 1.574 . S
C1805 C1821 1.368 . S
H1806 C1814 0.950 . S
H1807 C1812 0.950 . S
H1808 C1813 0.949 . S
H1809 C1815 0.950 . S
H1810 C1816 0.950 . S
H1811 C1817 0.949 . S
C1812 H1807 0.950 . S
C1812 C1814 1.327 . S
C1812 C1818 1.429 . S
C1813 C1805 1.574 . S
C1813 H1808 0.949 . S
C1813 C1819 1.368 . S
C1814 C1798 1.349 . S
C1814 H1806 0.950 . S
C1814 C1812 1.327 . S
C1815 C1803 1.349 . S
C1815 H1809 0.950 . S
C1815 C1816 1.327 . S
C1816 H1810 0.950 . S
C1816 C1815 1.327 . S
C1816 C1820 1.429 . S
C1817 C1800 1.574 . S
C1817 H1811 0.949 . S
C1817 C1821 1.368 . S
C1818 C1799 1.429 . S
C1818 C1812 1.429 . S
C1818 C1819 1.523 . S
C1819 C1800 1.368 . S
C1819 C1813 1.368 . S
C1819 C1818 1.523 . S
C1820 C1804 1.429 . S
C1820 C1816 1.429 . S
C1820 C1821 1.523 . S
C1821 C1805 1.368 . S
C1821 C1817 1.368 . S
C1821 C1820 1.523 . S
H1822 C1797 0.950 . S
H1823 C1799 0.950 . S
H1824 C1800 0.949 . S
H1825 C1802 0.950 . S
H1826 C1804 0.950 . S
C1827 C1828 1.349 . S
C1827 C1829 1.327 . S
C1827 H1852 0.950 . S
C1828 C1827 1.349 . S
C1828 C1844 1.349 . S
C1829 C1827 1.327 . S
C1829 C1848 1.429 . S
C1829 H1853 0.950 . S
C1830 C1847 1.574 . S
C1830 C1849 1.368 . S
C1830 H1854 0.949 . S
H1831 C1835 0.949 . S
C1832 C1833 1.349 . S
C1832 C1834 1.327 . S
C1832 H1855 0.950 . S
C1833 C1832 1.349 . S
C1833 C1845 1.349 . S
C1834 C1832 1.327 . S
C1834 C1850 1.429 . S
C1834 H1856 0.950 . S
C1835 H1831 0.949 . S
C1835 C1843 1.574 . S
C1835 C1851 1.368 . S
H1836 C1844 0.950 . S
H1837 C1842 0.950 . S
H1838 C1843 0.949 . S
H1839 C1845 0.950 . S
H1840 C1846 0.950 . S
H1841 C1847 0.949 . S
C1842 H1837 0.950 . S
C1842 C1844 1.327 . S
C1842 C1848 1.429 . S
C1843 C1835 1.574 . S
C1843 H1838 0.949 . S
C1843 C1849 1.368 . S
C1844 C1828 1.349 . S
C1844 H1836 0.950 . S
C1844 C1842 1.327 . S
C1845 C1833 1.349 . S
C1845 H1839 0.950 . S
C1845 C1846 1.327 . S
C1846 H1840 0.950 . S
C1846 C1845 1.327 . S
C1846 C1850 1.429 . S
C1847 C1830 1.574 . S
C1847 H1841 0.949 . S
C1847 C1851 1.368 . S
C1848 C1829 1.429 . S
C1848 C1842 1.429 . S
C1848 C1849 1.523 . S
C1849 C1830 1.368 . S
C1849 C1843 1.368 . S
C1849 C1848 1.523 . S
C1850 C1834 1.429 . S
C1850 C1846 1.429 . S
C1850 C1851 1.523 . S
C1851 C1835 1.368 . S
C1851 C1847 1.368 . S
C1851 C1850 1.523 . S
H1852 C1827 0.950 . S
H1853 C1829 0.950 . S
H1854 C1830 0.949 . S
H1855 C1832 0.950 . S
H1856 C1834 0.950 . S
C1857 C1858 1.349 . S
C1857 C1859 1.327 . S
C1857 H1882 0.950 . S
C1858 C1857 1.349 . S
C1858 C1874 1.349 . S
C1859 C1857 1.327 . S
C1859 C1878 1.429 . S
C1859 H1883 0.950 . S
C1860 C1877 1.574 . S
C1860 C1879 1.368 . S
C1860 H1884 0.949 . S
H1861 C1865 0.949 . S
C1862 C1863 1.349 . S
C1862 C1864 1.327 . S
C1862 H1885 0.950 . S
C1863 C1862 1.349 . S
C1863 C1875 1.349 . S
C1864 C1862 1.327 . S
C1864 C1880 1.429 . S
C1864 H1886 0.950 . S
C1865 H1861 0.949 . S
C1865 C1873 1.574 . S
C1865 C1881 1.368 . S
H1866 C1874 0.950 . S
H1867 C1872 0.950 . S
H1868 C1873 0.949 . S
H1869 C1875 0.950 . S
H1870 C1876 0.950 . S
H1871 C1877 0.949 . S
C1872 H1867 0.950 . S
C1872 C1874 1.327 . S
C1872 C1878 1.429 . S
C1873 C1865 1.574 . S
C1873 H1868 0.949 . S
C1873 C1879 1.368 . S
C1874 C1858 1.349 . S
C1874 H1866 0.950 . S
C1874 C1872 1.327 . S
C1875 C1863 1.349 . S
C1875 H1869 0.950 . S
C1875 C1876 1.327 . S
C1876 H1870 0.950 . S
C1876 C1875 1.327 . S
C1876 C1880 1.429 . S
C1877 C1860 1.574 . S
C1877 H1871 0.949 . S
C1877 C1881 1.368 . S
C1878 C1859 1.429 . S
C1878 C1872 1.429 . S
C1878 C1879 1.523 . S
C1879 C1860 1.368 . S
C1879 C1873 1.368 . S
C1879 C1878 1.523 . S
C1880 C1864 1.429 . S
C1880 C1876 1.429 . S
C1880 C1881 1.523 . S
C1881 C1865 1.368 . S
C1881 C1877 1.368 . S
C1881 C1880 1.523 . S
H1882 C1857 0.950 . S
H1883 C1859 0.950 . S
H1884 C1860 0.949 . S
H1885 C1862 0.950 . S
H1886 C1864 0.950 . S
C1887 C1888 1.349 . S
C1887 C1889 1.327 . S
C1887 H1912 0.950 . S
C1888 C1887 1.349 . S
C1888 C1904 1.349 . S
C1889 C1887 1.327 . S
C1889 C1908 1.429 . S
C1889 H1913 0.950 . S
C1890 C1907 1.574 . S
C1890 C1909 1.368 . S
C1890 H1914 0.949 . S
H1891 C1895 0.949 . S
C1892 C1893 1.349 . S
C1892 C1894 1.327 . S
C1892 H1915 0.950 . S
C1893 C1892 1.349 . S
C1893 C1905 1.349 . S
C1894 C1892 1.327 . S
C1894 C1910 1.429 . S
C1894 H1916 0.950 . S
C1895 H1891 0.949 . S
C1895 C1903 1.574 . S
C1895 C1911 1.368 . S
H1896 C1904 0.950 . S
H1897 C1902 0.950 . S
H1898 C1903 0.949 . S
H1899 C1905 0.950 . S
H1900 C1906 0.950 . S
H1901 C1907 0.949 . S
C1902 H1897 0.950 . S
C1902 C1904 1.327 . S
C1902 C1908 1.429 . S
C1903 C1895 1.574 . S
C1903 H1898 0.949 . S
C1903 C1909 1.368 . S
C1904 C1888 1.349 . S
C1904 H1896 0.950 . S
C1904 C1902 1.327 . S
C1905 C1893 1.349 . S
C1905 H1899 0.950 . S
C1905 C1906 1.327 . S
C1906 H1900 0.950 . S
C1906 C1905 1.327 . S
C1906 C1910 1.429 . S
C1907 C1890 1.574 . S
C1907 H1901 0.949 . S
C1907 C1911 1.368 . S
C1908 C1889 1.429 . S
C1908 C1902 1.429 . S
C1908 C1909 1.523 . S
C1909 C1890 1.368 . S
C1909 C1903 1.368 . S
C1909 C1908 1.523 . S
C1910 C1894 1.429 . S
C1910 C1906 1.429 . S
C1910 C1911 1.523 . S
C1911 C1895 1.368 . S
C1911 C1907 1.368 . S
C1911 C1910 1.523 . S
H1912 C1887 0.950 . S
H1913 C1889 0.950 . S
H1914 C1890 0.949 . S
H1915 C1892 0.950 . S
H1916 C1894 0.950 . S
C1917 C1918 1.349 . S
C1917 C1919 1.327 . S
C1917 H1942 0.950 . S
C1918 C1917 1.349 . S
C1918 C1934 1.349 . S
C1919 C1917 1.327 . S
C1919 C1938 1.429 . S
C1919 H1943 0.950 . S
C1920 C1937 1.574 . S
C1920 C1939 1.368 . S
C1920 H1944 0.949 . S
H1921 C1925 0.949 . S
C1922 C1923 1.349 . S
C1922 C1924 1.327 . S
C1922 H1945 0.950 . S
C1923 C1922 1.349 . S
C1923 C1935 1.349 . S
C1924 C1922 1.327 . S
C1924 C1940 1.429 . S
C1924 H1946 0.950 . S
C1925 H1921 0.949 . S
C1925 C1933 1.574 . S
C1925 C1941 1.368 . S
H1926 C1934 0.950 . S
H1927 C1932 0.950 . S
H1928 C1933 0.949 . S
H1929 C1935 0.950 . S
H1930 C1936 0.950 . S
H1931 C1937 0.949 . S
C1932 H1927 0.950 . S
C1932 C1934 1.327 . S
C1932 C1938 1.429 . S
C1933 C1925 1.574 . S
C1933 H1928 0.949 . S
C1933 C1939 1.368 . S
C1934 C1918 1.349 . S
C1934 H1926 0.950 . S
C1934 C1932 1.327 . S
C1935 C1923 1.349 . S
C1935 H1929 0.950 . S
C1935 C1936 1.327 . S
C1936 H1930 0.950 . S
C1936 C1935 1.327 . S
C1936 C1940 1.429 . S
C1937 C1920 1.574 . S
C1937 H1931 0.949 . S
C1937 C1941 1.368 . S
C1938 C1919 1.429 . S
C1938 C1932 1.429 . S
C1938 C1939 1.523 . S
C1939 C1920 1.368 . S
C1939 C1933 1.368 . S
C1939 C1938 1.523 . S
C1940 C1924 1.429 . S
C1940 C1936 1.429 . S
C1940 C1941 1.523 . S
C1941 C1925 1.368 . S
C1941 C1937 1.368 . S
C1941 C1940 1.523 . S
H1942 C1917 0.950 . S
H1943 C1919 0.950 . S
H1944 C1920 0.949 . S
H1945 C1922 0.950 . S
H1946 C1924 0.950 . S
C1947 C1948 1.349 . S
C1947 C1949 1.327 . S
C1947 H1972 0.950 . S
C1948 C1947 1.349 . S
C1948 C1964 1.349 . S
C1949 C1947 1.327 . S
C1949 C1968 1.429 . S
C1949 H1973 0.950 . S
C1950 C1967 1.574 . S
C1950 C1969 1.368 . S
C1950 H1974 0.949 . S
H1951 C1955 0.949 . S
C1952 C1953 1.349 . S
C1952 C1954 1.327 . S
C1952 H1975 0.950 . S
C1953 C1952 1.349 . S
C1953 C1965 1.349 . S
C1954 C1952 1.327 . S
C1954 C1970 1.429 . S
C1954 H1976 0.950 . S
C1955 H1951 0.949 . S
C1955 C1963 1.574 . S
C1955 C1971 1.368 . S
H1956 C1964 0.950 . S
H1957 C1962 0.950 . S
H1958 C1963 0.949 . S
H1959 C1965 0.950 . S
H1960 C1966 0.950 . S
H1961 C1967 0.949 . S
C1962 H1957 0.950 . S
C1962 C1964 1.327 . S
C1962 C1968 1.429 . S
C1963 C1955 1.574 . S
C1963 H1958 0.949 . S
C1963 C1969 1.368 . S
C1964 C1948 1.349 . S
C1964 H1956 0.950 . S
C1964 C1962 1.327 . S
C1965 C1953 1.349 . S
C1965 H1959 0.950 . S
C1965 C1966 1.327 . S
C1966 H1960 0.950 . S
C1966 C1965 1.327 . S
C1966 C1970 1.429 . S
C1967 C1950 1.574 . S
C1967 H1961 0.949 . S
C1967 C1971 1.368 . S
C1968 C1949 1.429 . S
C1968 C1962 1.429 . S
C1968 C1969 1.523 . S
C1969 C1950 1.368 . S
C1969 C1963 1.368 . S
C1969 C1968 1.523 . S
C1970 C1954 1.429 . S
C1970 C1966 1.429 . S
C1970 C1971 1.523 . S
C1971 C1955 1.368 . S
C1971 C1967 1.368 . S
C1971 C1970 1.523 . S
H1972 C1947 0.950 . S
H1973 C1949 0.950 . S
H1974 C1950 0.949 . S
H1975 C1952 0.950 . S
H1976 C1954 0.950 . S
C1977 C1978 1.349 . S
C1977 C1979 1.327 . S
C1977 H2002 0.950 . S
C1978 C1977 1.349 . S
C1978 C1994 1.349 . S
C1979 C1977 1.327 . S
C1979 C1998 1.429 . S
C1979 H2003 0.950 . S
C1980 C1997 1.574 . S
C1980 C1999 1.368 . S
C1980 H2004 0.949 . S
H1981 C1985 0.949 . S
C1982 C1983 1.349 . S
C1982 C1984 1.327 . S
C1982 H2005 0.950 . S
C1983 C1982 1.349 . S
C1983 C1995 1.349 . S
C1984 C1982 1.327 . S
C1984 C2000 1.429 . S
C1984 H2006 0.950 . S
C1985 H1981 0.949 . S
C1985 C1993 1.574 . S
C1985 C2001 1.368 . S
H1986 C1994 0.950 . S
H1987 C1992 0.950 . S
H1988 C1993 0.949 . S
H1989 C1995 0.950 . S
H1990 C1996 0.950 . S
H1991 C1997 0.949 . S
C1992 H1987 0.950 . S
C1992 C1994 1.327 . S
C1992 C1998 1.429 . S
C1993 C1985 1.574 . S
C1993 H1988 0.949 . S
C1993 C1999 1.368 . S
C1994 C1978 1.349 . S
C1994 H1986 0.950 . S
C1994 C1992 1.327 . S
C1995 C1983 1.349 . S
C1995 H1989 0.950 . S
C1995 C1996 1.327 . S
C1996 H1990 0.950 . S
C1996 C1995 1.327 . S
C1996 C2000 1.429 . S
C1997 C1980 1.574 . S
C1997 H1991 0.949 . S
C1997 C2001 1.368 . S
C1998 C1979 1.429 . S
C1998 C1992 1.429 . S
C1998 C1999 1.523 . S
C1999 C1980 1.368 . S
C1999 C1993 1.368 . S
C1999 C1998 1.523 . S
C2000 C1984 1.429 . S
C2000 C1996 1.429 . S
C2000 C2001 1.523 . S
C2001 C1985 1.368 . S
C2001 C1997 1.368 . S
C2001 C2000 1.523 . S
H2002 C1977 0.950 . S
H2003 C1979 0.950 . S
H2004 C1980 0.949 . S
H2005 C1982 0.950 . S
H2006 C1984 0.950 . S
C388 C151 1.209 1_556 S
C393 C212 1.222 . S
C418 C159 1.644 . S
C423 C233 1.715 . S
C448 C137 1.238 . S
C453 C253 1.197 . S
C478 C126 1.246 . S
C483 C232 1.183 . S
C513 C254 1.748 . S
C508 C104 1.686 . S
C538 C118 1.159 . S
C543 C211 1.051 . S
C573 C213 1.316 . S
C568 C129 1.370 . S
C603 C234 1.450 . S
C598 C107 1.505 . S
C628 C115 1.128 . S
C633 C256 1.204 . S
C658 C148 1.108 . S
C663 C235 1.185 . S
C688 C162 1.479 . S
C693 C255 1.416 1_556 S
C723 C214 1.202 1_554 S
C718 C140 1.410 . S
C753 C275 1.222 . S
C748 C19 1.208 . S
C778 C27 1.645 . S
C783 C296 1.716 . S
C808 C5 1.237 . S
C813 C316 1.191 . S
C838 C192 1.246 . S
C843 C295 1.183 . S
C868 C170 1.687 . S
C873 C317 1.748 . S
C898 C184 1.159 . S
C903 C274 1.051 . S
C928 C195 1.370 . S
C933 C276 1.316 . S
C958 C173 1.505 . S
C963 C297 1.450 . S
C993 C319 1.204 . S
C988 C181 1.128 . S
C1018 C16 1.108 . S
C1023 C298 1.185 . S
C1053 C318 1.421 . S
C1048 C30 1.478 . S
C1078 C8 1.410 . S
C1083 C277 1.220 . S
C1113 C338 1.222 . S
C1108 C85 1.208 . S
C1138 C93 1.644 . S
C1143 C359 1.716 . S
C1173 C379 1.191 . S
C1168 C71 1.238 . S
C1203 C358 1.183 . S
C1198 C60 1.246 . S
C1233 C380 1.748 . S
C1228 C38 1.686 . S
C1258 C52 1.159 . S
C1263 C337 1.051 . S
C1288 C63 1.370 . S
C1293 C339 1.316 . S
C1318 C41 1.505 . S
C1323 C360 1.450 . S
C1353 C382 1.204 . S
C1348 C49 1.128 . S
C1378 C82 1.108 . S
C1383 C361 1.185 . S
C1408 C96 1.479 . S
C1413 C381 1.421 . S
C1438 C74 1.410 . S
C1443 C340 1.220 . S
C1468 C172 1.605 . S
C1473 C216 1.602 . S
C1503 C237 1.262 . S
C1498 C183 1.224 . S
C1528 C194 1.527 . S
C1533 C257 1.510 . S
C1558 C73 1.601 . S
C1563 C236 1.587 . S
C1588 C84 1.262 . S
C1593 C258 1.297 . S
C1623 C215 1.713 . S
C1618 C95 1.718 . S
C1648 C40 1.605 . S
C1653 C279 1.602 . S
C1678 C51 1.224 . S
C1683 C300 1.262 . S
C1708 C62 1.527 . S
C1713 C320 1.510 . S
C1738 C139 1.600 . S
C1743 C299 1.587 . S
C1773 C321 1.297 . S
C1768 C150 1.262 . S
C1798 C161 1.718 . S
C1803 C278 1.713 . S
C1828 C106 1.605 . S
C1833 C342 1.601 . S
C1858 C117 1.224 . S
C1863 C363 1.262 . S
C1893 C383 1.510 . S
C1888 C128 1.527 . S
C1918 C7 1.600 . S
C1923 C362 1.587 . S
C1948 C18 1.262 . S
C1953 C384 1.297 . S
C1978 C29 1.718 . S
C1983 C341 1.713 . S
