# Generated by pormake.
# Topology nia, (6,6)-cn, num edge types: 1
# Building blocks:
#     Node 0, Type 0, BuildingBlock: PAMTOO_clean_sbu_0, # of connection points: 6
#     Node 1, Type 0, BuildingBlock: PAMTOO_clean_sbu_0, # of connection points: 6
#     Node 2, Type 1, BuildingBlock: MIDCAF_clean_sbu_0, # of connection points: 6
#     Node 3, Type 1, BuildingBlock: MIDCAF_clean_sbu_0, # of connection points: 6
#     Edge 4, Type (0, 1), BuildingBlock: XIVTED_clean_linker_0, # of connection points: 2
#     Edge 5, Type (0, 1), BuildingBlock: XIVTED_clean_linker_0, # of connection points: 2
#     Edge 6, Type (0, 1), BuildingBlock: XIVTED_clean_linker_0, # of connection points: 2
#     Edge 7, Type (0, 1), BuildingBlock: XIVTED_clean_linker_0, # of connection points: 2
#     Edge 8, Type (0, 1), BuildingBlock: XIVTED_clean_linker_0, # of connection points: 2
#     Edge 9, Type (0, 1), BuildingBlock: XIVTED_clean_linker_0, # of connection points: 2
#     Edge 10, Type (0, 1), BuildingBlock: XIVTED_clean_linker_0, # of connection points: 2
#     Edge 11, Type (0, 1), BuildingBlock: XIVTED_clean_linker_0, # of connection points: 2
#     Edge 12, Type (0, 1), BuildingBlock: XIVTED_clean_linker_0, # of connection points: 2
#     Edge 13, Type (0, 1), BuildingBlock: XIVTED_clean_linker_0, # of connection points: 2
#     Edge 14, Type (0, 1), BuildingBlock: XIVTED_clean_linker_0, # of connection points: 2
#     Edge 15, Type (0, 1), BuildingBlock: XIVTED_clean_linker_0, # of connection points: 2
# Relax obj value: 0.175
# Max RMSD: 0.276
# Mean RMSD: 0.196
data_MOF--net-nia--node1-PAMTOO_clean_sbu_0--node2-MIDCAF_clean_sbu_0--edge1-XIVTED_clean_linker_0
_symmetry_space_group_name_H-M    P1
_symmetry_Int_Tables_number       1
_symmetry_cell_setting            triclinic
loop_
_symmetry_equiv_pos_as_xyz
'x, y, z'
_cell_length_a     29.004552
_cell_length_b     29.249035
_cell_length_c     32.126307
_cell_angle_alpha  90.421738
_cell_angle_beta   91.020263
_cell_angle_gamma 136.13543
loop_
_atom_site_label
_atom_site_type_symbol
_atom_site_fract_x
_atom_site_fract_y
_atom_site_fract_z
_atom_type_partial_charge
Dy0 Dy -0.00702 0.95727 0.08765 0.0
Dy1 Dy 0.95985 0.00466 1.01037 0.0
C2 C 0.09318 0.04116 1.01334 0.0
O3 O 0.0056 0.03625 0.11422 0.0
O4 O 0.03055 0.09175 0.05431 0.0
O5 O 0.05389 -0.02167 0.14017 0.0
O6 O 0.95848 0.87762 0.12584 0.0
O7 O 0.89317 -0.02137 0.06097 0.0
O8 O 0.88664 0.9031 0.09007 0.0
O9 O 0.90348 0.89964 0.99929 0.0
O10 O -0.02472 0.90099 1.0312 0.0
O11 O 0.88887 -0.02131 0.9643 0.0
O12 O -0.00847 0.07533 0.964 0.0
C13 C 0.03195 0.08977 0.09515 0.0
O14 O 0.0882 0.03252 0.0538 0.0
O15 O 0.04306 0.01999 0.98988 0.0
C16 C 0.03923 0.89103 0.16242 0.0
C17 C 0.08889 0.84205 0.19129 0.0
C18 C 0.12896 0.89966 0.16791 0.0
C19 C 0.10427 0.92393 0.15346 0.0
C20 C -0.0006 0.83372 0.18577 0.0
C21 C 0.02385 0.80935 0.19999 0.0
C22 C 0.01213 0.91635 0.14984 0.0
C23 C 0.86455 0.92931 0.08585 0.0
C24 C 0.92957 0.8774 1.00239 0.0
C25 C 0.90912 0.06524 0.93392 0.0
C26 C 0.86076 0.1143 0.9024 0.0
C27 C 0.83077 0.07229 0.9365 0.0
C28 C 0.85487 0.04804 0.95224 0.0
C29 C 0.93954 0.10772 0.90027 0.0
C30 C 0.91574 0.1322 0.88469 0.0
C31 C 0.93195 0.03599 0.9469 0.0
H32 H 0.17904 0.92543 0.16035 0.0
H33 H 0.136 0.96834 0.1355 0.0
H34 H 0.94933 0.80803 0.19337 0.0
H35 H -0.00791 0.76535 0.21834 0.0
H36 H 0.78898 0.05853 0.95117 0.0
H37 H 0.83062 0.0153 0.97829 0.0
H38 H -0.01893 0.12101 0.8855 0.0
H39 H 0.93953 0.16407 0.85822 0.0
Dy40 Dy 0.03275 -0.00878 0.52329 0.0
Dy41 Dy 0.93801 -0.01061 0.57936 0.0
C42 C 0.93139 0.87552 0.58696 0.0
O43 O 0.92981 0.91377 0.49459 0.0
O44 O 0.8978 0.96287 0.5141 0.0
O45 O 0.06165 -0.01689 0.46448 0.0
O46 O 0.12235 0.01502 0.52056 0.0
O47 O 0.00456 0.08619 0.54697 0.0
O48 O 0.03781 0.06297 0.49379 0.0
O49 O 0.01641 0.01406 0.62025 0.0
O50 O 0.09412 0.0733 0.57132 0.0
O51 O 0.93038 0.03056 0.63092 0.0
O52 O 0.8407 0.94293 0.59738 0.0
C53 C 0.89257 0.92366 0.48897 0.0
O54 O -0.01101 0.9122 0.56909 0.0
O55 O 0.89806 0.89032 0.58617 0.0
C56 C 0.13051 0.96684 0.46637 0.0
C57 C 0.16804 0.90545 0.44124 0.0
C58 C 0.10612 0.86843 0.45942 0.0
C59 C 0.08752 0.89909 0.47212 0.0
C60 C 0.19142 0.00338 0.4475 0.0
C61 C 0.21009 0.97304 0.43502 0.0
C62 C 0.11475 0.00171 0.48071 0.0
C63 C 0.0316 0.09927 0.51052 0.0
C64 C 0.0787 0.06096 0.61051 0.0
C65 C 0.83658 0.01222 0.63113 0.0
C66 C 0.78471 0.06182 0.64999 0.0
C67 C 0.84674 0.10214 0.6313 0.0
C68 C 0.87246 0.07746 0.6218 0.0
C69 C 0.77374 0.9713 0.64837 0.0
C70 C 0.74786 -0.00422 0.65765 0.0
C71 C 0.86567 -0.01268 0.62679 0.0
H72 H 0.073 0.81634 0.4648 0.0
H73 H 0.04033 0.87037 0.48684 0.0
H74 H 0.225 0.05575 0.4428 0.0
H75 H 0.2576 0.00255 0.42055 0.0
H76 H 0.87571 0.15296 0.62452 0.0
H77 H 0.921 0.1098 0.60825 0.0
H78 H 0.74557 0.9209 0.65594 0.0
H79 H 0.7002 0.96374 0.67232 0.0
Zn80 Zn 0.33019 0.63339 0.23133 0.0
Zn81 Zn 0.3616 0.64469 0.38136 0.0
Zn82 Zn 0.34324 0.63157 0.30527 0.0
C83 C 0.47503 0.68912 0.35097 0.0
C84 C 0.25341 0.51106 0.36555 0.0
O85 O 0.29881 0.66799 0.29012 0.0
O86 O 0.25993 0.62975 0.2257 0.0
C87 C 0.46232 0.72621 0.2416 0.0
O88 O 0.44859 0.68841 0.31802 0.0
O89 O 0.44321 0.66516 0.3841 0.0
O90 O 0.27727 0.55361 0.39416 0.0
O91 O 0.27633 0.5298 0.32861 0.0
O92 O 0.42148 0.71651 0.21694 0.0
O93 O 0.44171 0.69443 0.27581 0.0
O94 O 0.27846 0.52803 0.28479 0.0
O95 O 0.30554 0.55193 0.219 0.0
C96 C 0.27833 0.51096 0.24774 0.0
O97 O 0.31527 0.67819 0.33295 0.0
O98 O 0.36705 0.7148 0.39472 0.0
C99 C 0.26461 0.65763 0.25804 0.0
C100 C 0.33262 0.711 0.36734 0.0
Zn101 Zn 0.66109 0.36485 0.87587 0.0
Zn102 Zn 0.59645 0.32328 0.71974 0.0
Zn103 Zn 0.62274 0.34461 0.79802 0.0
C104 C 0.70098 0.45796 0.72951 0.0
C105 C 0.48523 0.27948 0.75845 0.0
O106 O 0.66111 0.30204 0.81225 0.0
O107 O 0.69152 0.32331 0.87916 0.0
C108 C 0.73552 0.48784 0.84373 0.0
O109 O 0.68463 0.44157 0.76775 0.0
O110 O 0.6742 0.41406 0.70134 0.0
O111 O 0.51123 0.29501 0.72336 0.0
O112 O 0.51708 0.28899 0.79163 0.0
O113 O 0.73087 0.46131 0.87639 0.0
O114 O 0.69814 0.45231 0.81132 0.0
O115 O 0.53257 0.29377 0.83476 0.0
O116 O 0.57431 0.31872 0.89917 0.0
C117 C 0.52517 0.29054 0.87451 0.0
O118 O 0.64321 0.29104 0.76977 0.0
O119 O 0.59459 0.25606 0.70695 0.0
C120 C 0.68521 0.29839 0.84463 0.0
C121 C 0.62651 0.25816 0.73547 0.0
H122 H 0.2112 0.90929 0.22717 0.0
H123 H 0.14063 0.59041 0.22939 0.0
H124 H 0.02353 0.7135 0.1892 0.0
H125 H 0.32039 0.77896 0.28225 0.0
H126 H 0.09499 0.63421 0.21814 0.0
H127 H 0.25142 0.86296 0.25023 0.0
C128 C 0.17856 0.85661 0.22364 0.0
C129 C 0.11404 0.81518 0.20609 0.0
C130 C 0.14406 0.66595 0.23274 0.0
C131 C 0.15941 0.76192 0.23256 0.0
C132 C 0.16994 0.64086 0.23921 0.0
C133 C 0.23384 0.6811 0.2571 0.0
C134 C 0.18304 0.73229 0.24342 0.0
C135 C 0.27043 0.74629 0.26888 0.0
C136 C 0.20131 0.83016 0.23709 0.0
C137 C 0.07342 0.7472 0.20283 0.0
N138 N 0.24469 0.77019 0.26151 0.0
N139 N 0.09693 0.72281 0.21569 0.0
H140 H 0.07421 0.01417 0.68508 0.0
H141 H 0.45164 0.3435 0.74675 0.0
H142 H 0.20235 0.18746 0.61028 0.0
H143 H 0.36845 0.15045 0.76593 0.0
H144 H 0.34261 0.29194 0.72018 0.0
H145 H 0.16669 0.07031 0.73625 0.0
C146 C 0.12144 0.06444 0.67987 0.0
C147 C 0.13131 0.09622 0.64331 0.0
C148 C 0.34771 0.26104 0.7318 0.0
C149 C 0.23558 0.16057 0.70183 0.0
C150 C 0.40944 0.2903 0.74736 0.0
C151 C 0.41822 0.25095 0.75921 0.0
C152 C 0.29481 0.19208 0.72808 0.0
C153 C 0.3629 0.18225 0.75807 0.0
C154 C 0.17384 0.0962 0.70898 0.0
C155 C 0.19322 0.16112 0.63786 0.0
N156 N 0.30335 0.15473 0.74225 0.0
N157 N 0.2432 0.19125 0.66684 0.0
H158 H 0.12879 0.21699 0.07087 0.0
H159 H 0.159 0.39084 0.2734 0.0
H160 H 0.0142 0.099 0.17711 0.0
H161 H 0.32394 0.48077 0.19457 0.0
H162 H 0.09727 0.28293 0.23929 0.0
H163 H 0.19117 0.31648 0.11433 0.0
C164 C 0.11641 0.21207 0.10327 0.0
C165 C 0.06653 0.14987 0.12049 0.0
C166 C 0.14754 0.32631 0.23026 0.0
C167 C 0.13767 0.26328 0.17036 0.0
C168 C 0.18283 0.38744 0.24992 0.0
C169 C 0.24627 0.44436 0.2365 0.0
C170 C 0.17597 0.32335 0.19677 0.0
C171 C 0.27474 0.43796 0.20543 0.0
C172 C 0.1524 0.26875 0.12815 0.0
C173 C 0.05274 0.14628 0.16279 0.0
N174 N 0.23902 0.3788 0.18616 0.0
N175 N 0.08795 0.20242 0.18639 0.0
H176 H 0.65821 0.00536 0.64076 0.0
H177 H 0.74632 0.30539 0.75601 0.0
H178 H 0.85422 0.17987 0.69032 0.0
H179 H 0.55622 0.14038 0.69554 0.0
H180 H 0.78401 0.25534 0.73796 0.0
H181 H 0.61743 0.05 0.66534 0.0
C182 C 0.6926 0.05305 0.65686 0.0
C183 C 0.75973 0.08917 0.66332 0.0
C184 C 0.73388 0.22978 0.72888 0.0
C185 C 0.71356 0.14052 0.69155 0.0
C186 C 0.71218 0.25793 0.73963 0.0
C187 C 0.64779 0.22613 0.72791 0.0
C188 C 0.69097 0.16984 0.70579 0.0
C189 C 0.60613 0.16602 0.70539 0.0
C190 C 0.66938 0.07857 0.67082 0.0
C191 C 0.80231 0.15091 0.68411 0.0
N192 N 0.62845 0.13976 0.69502 0.0
N193 N 0.77848 0.17463 0.69753 0.0
H194 H 0.80182 0.96787 0.08555 0.0
H195 H 0.54505 0.71328 0.25924 0.0
H196 H 0.8007 0.83516 0.14507 0.0
H197 H 0.53316 0.83088 0.1907 0.0
H198 H 0.64912 0.76953 0.22524 0.0
H199 H 0.71138 0.9277 0.12963 0.0
C200 C 0.78251 0.93021 0.10777 0.0
C201 C 0.80853 0.90445 0.11129 0.0
C202 C 0.62426 0.78372 0.21808 0.0
C203 C 0.70552 0.85876 0.16219 0.0
C204 C 0.56539 0.75227 0.23795 0.0
C205 C 0.53081 0.7678 0.22792 0.0
C206 C 0.64825 0.83059 0.18779 0.0
C207 C 0.55831 0.81739 0.1992 0.0
C208 C 0.73105 0.90748 0.13307 0.0
C209 C 0.78185 0.85608 0.14094 0.0
N210 N 0.61511 0.84665 0.1799 0.0
N211 N 0.73178 0.83475 0.16515 0.0
H212 H 0.96815 0.81116 0.58513 0.0
H213 H 0.70687 0.55102 0.75563 0.0
H214 H 0.83305 0.80819 0.64348 0.0
H215 H 0.79695 0.51943 0.67229 0.0
H216 H 0.77124 0.65877 0.725 0.0
H217 H 0.92158 0.71538 0.62558 0.0
C218 C 0.92882 0.79049 0.60641 0.0
C219 C 0.90397 0.81731 0.61054 0.0
C220 C 0.77781 0.62877 0.71391 0.0
C221 C 0.85143 0.70871 0.65732 0.0
C222 C 0.74202 0.56793 0.73195 0.0
C223 C 0.74758 0.5271 0.71692 0.0
C224 C 0.8193 0.64861 0.68058 0.0
C225 C 0.79156 0.54982 0.68478 0.0
C226 C 0.90238 0.73595 0.62951 0.0
C227 C 0.85321 0.78869 0.63881 0.0
N228 N 0.82558 0.60897 0.66753 0.0
N229 N 0.82871 0.73608 0.66109 0.0
H230 H 0.09682 0.78694 0.4001 0.0
H231 H 0.40106 0.82737 0.40862 0.0
H232 H 0.29004 0.95462 0.45652 0.0
H233 H 0.21168 0.662 0.34758 0.0
H234 H 0.3606 0.87477 0.42612 0.0
H235 H 0.13688 0.7395 0.38042 0.0
C236 C 0.14749 0.81351 0.40852 0.0
C237 C 0.19029 0.87484 0.42981 0.0
C238 C 0.32793 0.82835 0.4086 0.0
C239 C 0.23644 0.8213 0.40738 0.0
C240 C 0.35107 0.80142 0.39865 0.0
C241 C 0.30995 0.74153 0.376 0.0
C242 C 0.26284 0.7946 0.39628 0.0
C243 C 0.24534 0.7092 0.36421 0.0
C244 C 0.17045 0.78668 0.3971 0.0
C245 C 0.25568 0.90762 0.43962 0.0
N246 N 0.22364 0.73616 0.3745 0.0
N247 N 0.27668 0.88041 0.42837 0.0
H248 H 0.21616 0.11468 0.05053 0.0
H249 H 0.39967 0.19273 0.83845 0.0
H250 H 0.11439 0.04588 0.9301 0.0
H251 H 0.50258 0.30316 0.95355 0.0
H252 H 0.29311 0.13079 0.87144 0.0
H253 H 0.32076 0.175 1.01593 0.0
C254 C 0.21571 0.11194 1.01686 0.0
C255 C 0.15646 0.07542 0.99321 0.0
C256 C 0.33915 0.16901 0.8893 0.0
C257 C 0.27596 0.1443 0.95339 0.0
C258 C 0.39982 0.20484 0.87023 0.0
C259 C 0.46001 0.25398 0.8928 0.0
C260 C 0.33891 0.18186 0.93152 0.0
C261 C 0.45743 0.26576 0.93477 0.0
C262 C 0.27548 0.14665 0.9971 0.0
C263 C 0.15895 0.07379 0.9496 0.0
N264 N 0.39803 0.2299 0.95275 0.0
N265 N 0.21767 0.10766 0.9311 0.0
H266 H 0.02519 0.18663 0.52982 0.0
H267 H 0.23647 0.4118 0.33468 0.0
H268 H 0.09042 0.1393 0.43514 0.0
H269 H 0.16166 0.45337 0.42504 0.0
H270 H 0.17177 0.30457 0.36622 0.0
H271 H 0.06631 0.27956 0.48855 0.0
C272 C 0.048 0.19563 0.50044 0.0
C273 C 0.05488 0.15538 0.48626 0.0
C274 C 0.16856 0.33667 0.3787 0.0
C275 C 0.1017 0.26131 0.43871 0.0
C276 C 0.20479 0.39744 0.36028 0.0
C277 C 0.20425 0.44127 0.37725 0.0
C278 C 0.13226 0.32026 0.41451 0.0
C279 C 0.16373 0.42103 0.4112 0.0
C280 C 0.07122 0.2485 0.47675 0.0
C281 C 0.08438 0.16914 0.44765 0.0
N282 N 0.13002 0.36241 0.42901 0.0
N283 N 0.10698 0.22103 0.42544 0.0
H284 H 0.93315 0.24026 0.87961 0.0
H285 H 0.61587 0.17039 0.82599 0.0
H286 H 0.73108 0.04732 0.88693 0.0
H287 H 0.81178 0.36206 0.8582 0.0
H288 H 0.6593 0.12281 0.83195 0.0
H289 H 0.89086 0.28369 0.85528 0.0
C290 C 0.87987 0.20688 0.87567 0.0
C291 C 0.83551 0.14025 0.88571 0.0
C292 C 0.6928 0.17538 0.83718 0.0
C293 C 0.7868 0.1897 0.85812 0.0
C294 C 0.66817 0.20234 0.83361 0.0
C295 C 0.71065 0.26987 0.84174 0.0
C296 C 0.76014 0.21665 0.84878 0.0
C297 C 0.77779 0.30965 0.85179 0.0
C298 C 0.85576 0.23174 0.86195 0.0
C299 C 0.7669 0.0993 0.88026 0.0
N300 N 0.8005 0.28243 0.85514 0.0
N301 N 0.74454 0.12476 0.867 0.0
H302 H 0.8179 0.80064 0.45392 0.0
H303 H 0.58768 0.81247 0.32649 0.0
H304 H 0.85599 0.97252 0.44493 0.0
H305 H 0.51664 0.63686 0.37988 0.0
H306 H 0.70226 0.87184 0.34613 0.0
H307 H 0.72347 0.74167 0.40385 0.0
C308 C 0.80724 0.82629 0.44068 0.0
C309 C 0.84344 0.89078 0.45409 0.0
C310 C 0.66164 0.81981 0.35246 0.0
C311 C 0.73713 0.82464 0.39688 0.0
C312 C 0.59659 0.78602 0.34106 0.0
C313 C 0.5433 0.7202 0.35202 0.0
C314 C 0.67278 0.78715 0.37479 0.0
C315 C 0.55684 0.68793 0.3713 0.0
C316 C 0.75355 0.79277 0.41225 0.0
C317 C 0.8281 0.92218 0.436 0.0
N318 N 0.62031 0.72194 0.38255 0.0
N319 N 0.77568 0.88861 0.40858 0.0
H320 H -0.01505 0.83259 0.99037 0.0
H321 H 0.70084 0.55118 0.82927 0.0
H322 H 0.83063 0.81207 0.9422 0.0
H323 H 0.86514 0.58302 0.8686 0.0
H324 H 0.75971 0.6597 0.85879 0.0
H325 H 0.9516 0.75183 0.9378 0.0
C326 C 0.94395 0.81098 0.96882 0.0
C327 C 0.90974 0.82817 0.97117 0.0
C328 C 0.78401 0.64403 0.85982 0.0
C329 C 0.87173 0.73627 0.91061 0.0
C330 C 0.75091 0.58265 0.84217 0.0
C331 C 0.77876 0.55894 0.84622 0.0
C332 C 0.84442 0.6807 0.88236 0.0
C333 C 0.84239 0.6001 0.86486 0.0
C334 C 0.92534 0.76536 0.93851 0.0
C335 C 0.85785 0.7996 0.94191 0.0
N336 N 0.87263 0.65857 0.88301 0.0
N337 N 0.83999 0.75455 0.91311 0.0
loop_
_geom_bond_atom_site_label_1
_geom_bond_atom_site_label_2
_geom_bond_distance
_geom_bond_site_symmetry_2
_ccdc_geom_bond_type
Dy0 O3 2.307 1_565 S
Dy0 O5 2.395 . S
Dy0 O6 2.379 . S
Dy0 O8 2.339 1_455 S
Dy0 O10 2.313 1_455 S
Dy0 O14 2.275 1_564 S
Dy0 C22 2.738 . S
Dy1 O4 2.298 1_656 S
Dy1 O7 2.275 1_546 S
Dy1 O9 2.307 1_545 S
Dy1 O11 2.395 . S
Dy1 O12 2.379 . S
Dy1 O15 2.339 1_655 S
Dy1 C31 2.738 . S
C2 O14 1.254 . S
C2 O15 1.257 . S
O3 Dy0 2.307 1_545 S
O3 C13 1.266 . S
O4 Dy1 2.298 1_454 S
O4 C13 1.236 . S
O5 Dy0 2.395 . S
O5 C22 1.255 . S
O6 Dy0 2.379 . S
O6 C22 1.249 . S
O7 Dy1 2.275 1_564 S
O7 C23 1.254 . S
O8 Dy0 2.339 1_655 S
O8 C23 1.257 . S
O9 Dy1 2.307 1_565 S
O9 C24 1.266 . S
O10 Dy0 2.313 1_655 S
O10 C24 1.212 1_554 S
O11 Dy1 2.395 . S
O11 C31 1.255 . S
O12 Dy1 2.379 . S
O12 C31 1.249 . S
C13 O3 1.266 . S
C13 O4 1.236 . S
O14 Dy0 2.275 1_546 S
O14 C2 1.254 . S
O15 Dy1 2.339 1_455 S
O15 C2 1.257 . S
C16 C19 1.344 . S
C16 C20 1.328 . S
C16 C22 1.516 . S
C17 C18 1.304 . S
C17 C21 1.323 . S
C18 C17 1.304 . S
C18 C19 1.371 . S
C18 H32 0.930 . S
C19 C16 1.344 . S
C19 C18 1.371 . S
C19 H33 0.931 . S
C20 C16 1.328 . S
C20 C21 1.433 . S
C20 H34 0.931 . S
C21 C17 1.323 . S
C21 C20 1.433 . S
C21 H35 0.933 . S
C22 Dy0 2.738 . S
C22 O5 1.255 . S
C22 O6 1.249 . S
C22 C16 1.516 . S
C23 O7 1.254 . S
C23 O8 1.257 . S
C24 O9 1.266 . S
C24 O10 1.212 1_556 S
C25 C28 1.344 . S
C25 C29 1.328 . S
C25 C31 1.516 . S
C26 C27 1.304 . S
C26 C30 1.323 . S
C27 C26 1.304 . S
C27 C28 1.371 . S
C27 H36 0.930 . S
C28 C25 1.344 . S
C28 C27 1.371 . S
C28 H37 0.931 . S
C29 C25 1.328 . S
C29 C30 1.433 . S
C29 H38 0.931 . S
C30 C26 1.323 . S
C30 C29 1.433 . S
C30 H39 0.933 . S
C31 Dy1 2.738 . S
C31 O11 1.255 . S
C31 O12 1.249 . S
C31 C25 1.516 . S
H32 C18 0.930 . S
H33 C19 0.931 . S
H34 C20 0.931 . S
H35 C21 0.933 . S
H36 C27 0.930 . S
H37 C28 0.931 . S
H38 C29 0.931 . S
H39 C30 0.933 . S
Dy40 O43 2.307 1_455 S
Dy40 O45 2.395 . S
Dy40 O46 2.379 1_565 S
Dy40 O48 2.339 1_565 S
Dy40 O50 2.298 1_565 S
Dy40 O54 2.275 1_455 S
Dy40 C62 2.738 . S
Dy41 O44 2.298 1_445 S
Dy41 O47 2.275 . S
Dy41 O49 2.307 . S
Dy41 O51 2.395 1_455 S
Dy41 O52 2.379 1_455 S
Dy41 O55 2.339 1_445 S
Dy41 C71 2.738 1_455 S
C42 O54 1.254 . S
C42 O55 1.257 . S
O43 Dy40 2.307 1_655 S
O43 C53 1.266 . S
O44 Dy41 2.298 1_665 S
O44 C53 1.236 . S
O45 Dy40 2.395 . S
O45 C62 1.255 . S
O46 Dy40 2.379 1_545 S
O46 C62 1.249 1_545 S
O47 Dy41 2.275 . S
O47 C63 1.254 . S
O48 Dy40 2.339 1_545 S
O48 C63 1.257 . S
O49 Dy41 2.307 . S
O49 C64 1.266 . S
O50 Dy40 2.298 1_545 S
O50 C64 1.236 . S
O51 Dy41 2.395 1_655 S
O51 C71 1.255 . S
O52 Dy41 2.379 1_655 S
O52 C71 1.249 . S
C53 O43 1.266 . S
C53 O44 1.236 . S
O54 Dy40 2.275 1_655 S
O54 C42 1.254 . S
O55 Dy41 2.339 1_665 S
O55 C42 1.257 . S
C56 C59 1.344 . S
C56 C60 1.328 . S
C56 C62 1.516 . S
C57 C58 1.304 . S
C57 C61 1.323 . S
C58 C57 1.304 . S
C58 C59 1.371 . S
C58 H72 0.930 . S
C59 C56 1.344 . S
C59 C58 1.371 . S
C59 H73 0.931 . S
C60 C56 1.328 . S
C60 C61 1.433 . S
C60 H74 0.931 . S
C61 C57 1.323 . S
C61 C60 1.433 . S
C61 H75 0.933 . S
C62 Dy40 2.738 . S
C62 O45 1.255 . S
C62 O46 1.249 1_565 S
C62 C56 1.516 . S
C63 O47 1.254 . S
C63 O48 1.257 . S
C64 O49 1.266 . S
C64 O50 1.236 . S
C65 C68 1.344 . S
C65 C69 1.328 . S
C65 C71 1.516 . S
C66 C67 1.304 . S
C66 C70 1.323 . S
C67 C66 1.304 . S
C67 C68 1.371 . S
C67 H76 0.930 . S
C68 C65 1.344 . S
C68 C67 1.371 . S
C68 H77 0.931 . S
C69 C65 1.328 . S
C69 C70 1.433 . S
C69 H78 0.931 . S
C70 C66 1.323 . S
C70 C69 1.433 . S
C70 H79 0.933 . S
C71 Dy41 2.738 1_655 S
C71 O51 1.255 . S
C71 O52 1.249 . S
C71 C65 1.516 . S
H72 C58 0.930 . S
H73 C59 0.931 . S
H74 C60 0.931 . S
H75 C61 0.933 . S
H76 C67 0.930 . S
H77 C68 0.931 . S
H78 C69 0.931 . S
H79 C70 0.933 . S
Zn80 O86 1.920 . S
Zn80 O92 1.898 . S
Zn80 O95 1.905 . S
Zn81 O89 1.905 . S
Zn81 O90 1.898 . S
Zn81 O98 1.920 . S
Zn82 O85 2.080 . S
Zn82 O88 2.114 . S
Zn82 O91 2.120 . S
Zn82 O93 2.120 . S
Zn82 O94 2.114 . S
Zn82 O97 2.080 . S
C83 O88 1.166 . S
C83 O89 1.182 . S
C84 O90 1.167 . S
C84 O91 1.299 . S
O85 Zn82 2.080 . S
O85 C99 1.305 . S
O86 Zn80 1.920 . S
O86 C99 1.234 . S
C87 O92 1.167 . S
C87 O93 1.299 . S
O88 Zn82 2.114 . S
O88 C83 1.166 . S
O89 Zn81 1.905 . S
O89 C83 1.182 . S
O90 Zn81 1.898 . S
O90 C84 1.167 . S
O91 Zn82 2.120 . S
O91 C84 1.299 . S
O92 Zn80 1.898 . S
O92 C87 1.167 . S
O93 Zn82 2.120 . S
O93 C87 1.299 . S
O94 Zn82 2.114 . S
O94 C96 1.166 . S
O95 Zn80 1.905 . S
O95 C96 1.182 . S
C96 O94 1.166 . S
C96 O95 1.182 . S
O97 Zn82 2.080 . S
O97 C100 1.305 . S
O98 Zn81 1.920 . S
O98 C100 1.234 . S
C99 O85 1.305 . S
C99 O86 1.234 . S
C100 O97 1.305 . S
C100 O98 1.234 . S
Zn101 O107 1.920 . S
Zn101 O113 1.898 . S
Zn101 O116 1.905 . S
Zn102 O110 1.905 . S
Zn102 O111 1.898 . S
Zn102 O119 1.920 . S
Zn103 O106 2.080 . S
Zn103 O109 2.114 . S
Zn103 O112 2.120 . S
Zn103 O114 2.120 . S
Zn103 O115 2.114 . S
Zn103 O118 2.080 . S
C104 O109 1.166 . S
C104 O110 1.182 . S
C105 O111 1.167 . S
C105 O112 1.299 . S
O106 Zn103 2.080 . S
O106 C120 1.305 . S
O107 Zn101 1.920 . S
O107 C120 1.234 . S
C108 O113 1.167 . S
C108 O114 1.299 . S
O109 Zn103 2.114 . S
O109 C104 1.166 . S
O110 Zn102 1.905 . S
O110 C104 1.182 . S
O111 Zn102 1.898 . S
O111 C105 1.167 . S
O112 Zn103 2.120 . S
O112 C105 1.299 . S
O113 Zn101 1.898 . S
O113 C108 1.167 . S
O114 Zn103 2.120 . S
O114 C108 1.299 . S
O115 Zn103 2.114 . S
O115 C117 1.166 . S
O116 Zn101 1.905 . S
O116 C117 1.182 . S
C117 O115 1.166 . S
C117 O116 1.182 . S
O118 Zn103 2.080 . S
O118 C121 1.305 . S
O119 Zn102 1.920 . S
O119 C121 1.234 . S
C120 O106 1.305 . S
C120 O107 1.234 . S
C121 O118 1.305 . S
C121 O119 1.234 . S
H122 C128 0.930 . S
H123 C132 0.930 . S
H124 C137 0.929 . S
H125 C135 0.929 . S
H126 C130 0.929 . S
H127 C136 0.929 . S
C128 H122 0.930 . S
C128 C129 1.367 . S
C128 C136 1.378 . S
C129 C128 1.367 . S
C129 C137 1.433 . S
C130 H126 0.929 . S
C130 C132 1.378 . S
C130 C134 1.350 . S
C131 C134 1.463 . S
C131 C136 1.350 . S
C131 N139 1.427 . S
C132 H123 0.930 . S
C132 C130 1.378 . S
C132 C133 1.367 . S
C133 C132 1.367 . S
C133 C135 1.433 . S
C134 C130 1.350 . S
C134 C131 1.463 . S
C134 N138 1.427 . S
C135 H125 0.929 . S
C135 C133 1.433 . S
C135 N138 1.384 . S
C136 H127 0.929 . S
C136 C128 1.378 . S
C136 C131 1.350 . S
C137 H124 0.929 . S
C137 C129 1.433 . S
C137 N139 1.384 . S
N138 C134 1.427 . S
N138 C135 1.384 . S
N139 C131 1.427 . S
N139 C137 1.384 . S
H140 C146 0.930 . S
H141 C150 0.930 . S
H142 C155 0.929 . S
H143 C153 0.929 . S
H144 C148 0.929 . S
H145 C154 0.929 . S
C146 H140 0.930 . S
C146 C147 1.367 . S
C146 C154 1.378 . S
C147 C146 1.367 . S
C147 C155 1.433 . S
C148 H144 0.929 . S
C148 C150 1.378 . S
C148 C152 1.350 . S
C149 C152 1.463 . S
C149 C154 1.350 . S
C149 N157 1.427 . S
C150 H141 0.930 . S
C150 C148 1.378 . S
C150 C151 1.367 . S
C151 C150 1.367 . S
C151 C153 1.433 . S
C152 C148 1.350 . S
C152 C149 1.463 . S
C152 N156 1.427 . S
C153 H143 0.929 . S
C153 C151 1.433 . S
C153 N156 1.384 . S
C154 H145 0.929 . S
C154 C146 1.378 . S
C154 C149 1.350 . S
C155 H142 0.929 . S
C155 C147 1.433 . S
C155 N157 1.384 . S
N156 C152 1.427 . S
N156 C153 1.384 . S
N157 C149 1.427 . S
N157 C155 1.384 . S
H158 C164 0.930 . S
H159 C168 0.930 . S
H160 C173 0.929 . S
H161 C171 0.929 . S
H162 C166 0.929 . S
H163 C172 0.929 . S
C164 H158 0.930 . S
C164 C165 1.367 . S
C164 C172 1.378 . S
C165 C164 1.367 . S
C165 C173 1.433 . S
C166 H162 0.929 . S
C166 C168 1.378 . S
C166 C170 1.350 . S
C167 C170 1.463 . S
C167 C172 1.350 . S
C167 N175 1.427 . S
C168 H159 0.930 . S
C168 C166 1.378 . S
C168 C169 1.367 . S
C169 C168 1.367 . S
C169 C171 1.433 . S
C170 C166 1.350 . S
C170 C167 1.463 . S
C170 N174 1.427 . S
C171 H161 0.929 . S
C171 C169 1.433 . S
C171 N174 1.384 . S
C172 H163 0.929 . S
C172 C164 1.378 . S
C172 C167 1.350 . S
C173 H160 0.929 . S
C173 C165 1.433 . S
C173 N175 1.384 . S
N174 C170 1.427 . S
N174 C171 1.384 . S
N175 C167 1.427 . S
N175 C173 1.384 . S
H176 C182 0.930 . S
H177 C186 0.930 . S
H178 C191 0.929 . S
H179 C189 0.929 . S
H180 C184 0.929 . S
H181 C190 0.929 . S
C182 H176 0.930 . S
C182 C183 1.367 . S
C182 C190 1.378 . S
C183 C182 1.367 . S
C183 C191 1.433 . S
C184 H180 0.929 . S
C184 C186 1.378 . S
C184 C188 1.350 . S
C185 C188 1.463 . S
C185 C190 1.350 . S
C185 N193 1.427 . S
C186 H177 0.930 . S
C186 C184 1.378 . S
C186 C187 1.367 . S
C187 C186 1.367 . S
C187 C189 1.433 . S
C188 C184 1.350 . S
C188 C185 1.463 . S
C188 N192 1.427 . S
C189 H179 0.929 . S
C189 C187 1.433 . S
C189 N192 1.384 . S
C190 H181 0.929 . S
C190 C182 1.378 . S
C190 C185 1.350 . S
C191 H178 0.929 . S
C191 C183 1.433 . S
C191 N193 1.384 . S
N192 C188 1.427 . S
N192 C189 1.384 . S
N193 C185 1.427 . S
N193 C191 1.384 . S
H194 C200 0.930 . S
H195 C204 0.930 . S
H196 C209 0.929 . S
H197 C207 0.929 . S
H198 C202 0.929 . S
H199 C208 0.929 . S
C200 H194 0.930 . S
C200 C201 1.367 . S
C200 C208 1.378 . S
C201 C200 1.367 . S
C201 C209 1.433 . S
C202 H198 0.929 . S
C202 C204 1.378 . S
C202 C206 1.350 . S
C203 C206 1.463 . S
C203 C208 1.350 . S
C203 N211 1.427 . S
C204 H195 0.930 . S
C204 C202 1.378 . S
C204 C205 1.367 . S
C205 C204 1.367 . S
C205 C207 1.433 . S
C206 C202 1.350 . S
C206 C203 1.463 . S
C206 N210 1.427 . S
C207 H197 0.929 . S
C207 C205 1.433 . S
C207 N210 1.384 . S
C208 H199 0.929 . S
C208 C200 1.378 . S
C208 C203 1.350 . S
C209 H196 0.929 . S
C209 C201 1.433 . S
C209 N211 1.384 . S
N210 C206 1.427 . S
N210 C207 1.384 . S
N211 C203 1.427 . S
N211 C209 1.384 . S
H212 C218 0.930 . S
H213 C222 0.930 . S
H214 C227 0.929 . S
H215 C225 0.929 . S
H216 C220 0.929 . S
H217 C226 0.929 . S
C218 H212 0.930 . S
C218 C219 1.367 . S
C218 C226 1.378 . S
C219 C218 1.367 . S
C219 C227 1.433 . S
C220 H216 0.929 . S
C220 C222 1.378 . S
C220 C224 1.350 . S
C221 C224 1.463 . S
C221 C226 1.350 . S
C221 N229 1.427 . S
C222 H213 0.930 . S
C222 C220 1.378 . S
C222 C223 1.367 . S
C223 C222 1.367 . S
C223 C225 1.433 . S
C224 C220 1.350 . S
C224 C221 1.463 . S
C224 N228 1.427 . S
C225 H215 0.929 . S
C225 C223 1.433 . S
C225 N228 1.384 . S
C226 H217 0.929 . S
C226 C218 1.378 . S
C226 C221 1.350 . S
C227 H214 0.929 . S
C227 C219 1.433 . S
C227 N229 1.384 . S
N228 C224 1.427 . S
N228 C225 1.384 . S
N229 C221 1.427 . S
N229 C227 1.384 . S
H230 C236 0.930 . S
H231 C240 0.930 . S
H232 C245 0.929 . S
H233 C243 0.929 . S
H234 C238 0.929 . S
H235 C244 0.929 . S
C236 H230 0.930 . S
C236 C237 1.367 . S
C236 C244 1.378 . S
C237 C236 1.367 . S
C237 C245 1.433 . S
C238 H234 0.929 . S
C238 C240 1.378 . S
C238 C242 1.350 . S
C239 C242 1.463 . S
C239 C244 1.350 . S
C239 N247 1.427 . S
C240 H231 0.930 . S
C240 C238 1.378 . S
C240 C241 1.367 . S
C241 C240 1.367 . S
C241 C243 1.433 . S
C242 C238 1.350 . S
C242 C239 1.463 . S
C242 N246 1.427 . S
C243 H233 0.929 . S
C243 C241 1.433 . S
C243 N246 1.384 . S
C244 H235 0.929 . S
C244 C236 1.378 . S
C244 C239 1.350 . S
C245 H232 0.929 . S
C245 C237 1.433 . S
C245 N247 1.384 . S
N246 C242 1.427 . S
N246 C243 1.384 . S
N247 C239 1.427 . S
N247 C245 1.384 . S
H248 C254 0.930 . S
H249 C258 0.930 . S
H250 C263 0.929 . S
H251 C261 0.929 . S
H252 C256 0.929 . S
H253 C262 0.929 . S
C254 H248 0.930 . S
C254 C255 1.367 . S
C254 C262 1.378 . S
C255 C254 1.367 . S
C255 C263 1.433 . S
C256 H252 0.929 . S
C256 C258 1.378 . S
C256 C260 1.350 . S
C257 C260 1.463 . S
C257 C262 1.350 . S
C257 N265 1.427 . S
C258 H249 0.930 . S
C258 C256 1.378 . S
C258 C259 1.367 . S
C259 C258 1.367 . S
C259 C261 1.433 . S
C260 C256 1.350 . S
C260 C257 1.463 . S
C260 N264 1.427 . S
C261 H251 0.929 . S
C261 C259 1.433 . S
C261 N264 1.384 . S
C262 H253 0.929 . S
C262 C254 1.378 . S
C262 C257 1.350 . S
C263 H250 0.929 . S
C263 C255 1.433 . S
C263 N265 1.384 . S
N264 C260 1.427 . S
N264 C261 1.384 . S
N265 C257 1.427 . S
N265 C263 1.384 . S
H266 C272 0.930 . S
H267 C276 0.930 . S
H268 C281 0.929 . S
H269 C279 0.929 . S
H270 C274 0.929 . S
H271 C280 0.929 . S
C272 H266 0.930 . S
C272 C273 1.367 . S
C272 C280 1.378 . S
C273 C272 1.367 . S
C273 C281 1.433 . S
C274 H270 0.929 . S
C274 C276 1.378 . S
C274 C278 1.350 . S
C275 C278 1.463 . S
C275 C280 1.350 . S
C275 N283 1.427 . S
C276 H267 0.930 . S
C276 C274 1.378 . S
C276 C277 1.367 . S
C277 C276 1.367 . S
C277 C279 1.433 . S
C278 C274 1.350 . S
C278 C275 1.463 . S
C278 N282 1.427 . S
C279 H269 0.929 . S
C279 C277 1.433 . S
C279 N282 1.384 . S
C280 H271 0.929 . S
C280 C272 1.378 . S
C280 C275 1.350 . S
C281 H268 0.929 . S
C281 C273 1.433 . S
C281 N283 1.384 . S
N282 C278 1.427 . S
N282 C279 1.384 . S
N283 C275 1.427 . S
N283 C281 1.384 . S
H284 C290 0.930 . S
H285 C294 0.930 . S
H286 C299 0.929 . S
H287 C297 0.929 . S
H288 C292 0.929 . S
H289 C298 0.929 . S
C290 H284 0.930 . S
C290 C291 1.367 . S
C290 C298 1.378 . S
C291 C290 1.367 . S
C291 C299 1.433 . S
C292 H288 0.929 . S
C292 C294 1.378 . S
C292 C296 1.350 . S
C293 C296 1.463 . S
C293 C298 1.350 . S
C293 N301 1.427 . S
C294 H285 0.930 . S
C294 C292 1.378 . S
C294 C295 1.367 . S
C295 C294 1.367 . S
C295 C297 1.433 . S
C296 C292 1.350 . S
C296 C293 1.463 . S
C296 N300 1.427 . S
C297 H287 0.929 . S
C297 C295 1.433 . S
C297 N300 1.384 . S
C298 H289 0.929 . S
C298 C290 1.378 . S
C298 C293 1.350 . S
C299 H286 0.929 . S
C299 C291 1.433 . S
C299 N301 1.384 . S
N300 C296 1.427 . S
N300 C297 1.384 . S
N301 C293 1.427 . S
N301 C299 1.384 . S
H302 C308 0.930 . S
H303 C312 0.930 . S
H304 C317 0.929 . S
H305 C315 0.929 . S
H306 C310 0.929 . S
H307 C316 0.929 . S
C308 H302 0.930 . S
C308 C309 1.367 . S
C308 C316 1.378 . S
C309 C308 1.367 . S
C309 C317 1.433 . S
C310 H306 0.929 . S
C310 C312 1.378 . S
C310 C314 1.350 . S
C311 C314 1.463 . S
C311 C316 1.350 . S
C311 N319 1.427 . S
C312 H303 0.930 . S
C312 C310 1.378 . S
C312 C313 1.367 . S
C313 C312 1.367 . S
C313 C315 1.433 . S
C314 C310 1.350 . S
C314 C311 1.463 . S
C314 N318 1.427 . S
C315 H305 0.929 . S
C315 C313 1.433 . S
C315 N318 1.384 . S
C316 H307 0.929 . S
C316 C308 1.378 . S
C316 C311 1.350 . S
C317 H304 0.929 . S
C317 C309 1.433 . S
C317 N319 1.384 . S
N318 C314 1.427 . S
N318 C315 1.384 . S
N319 C311 1.427 . S
N319 C317 1.384 . S
H320 C326 0.930 . S
H321 C330 0.930 . S
H322 C335 0.929 . S
H323 C333 0.929 . S
H324 C328 0.929 . S
H325 C334 0.929 . S
C326 H320 0.930 . S
C326 C327 1.367 . S
C326 C334 1.378 . S
C327 C326 1.367 . S
C327 C335 1.433 . S
C328 H324 0.929 . S
C328 C330 1.378 . S
C328 C332 1.350 . S
C329 C332 1.463 . S
C329 C334 1.350 . S
C329 N337 1.427 . S
C330 H321 0.930 . S
C330 C328 1.378 . S
C330 C331 1.367 . S
C331 C330 1.367 . S
C331 C333 1.433 . S
C332 C328 1.350 . S
C332 C329 1.463 . S
C332 N336 1.427 . S
C333 H323 0.929 . S
C333 C331 1.433 . S
C333 N336 1.384 . S
C334 H325 0.929 . S
C334 C326 1.378 . S
C334 C329 1.350 . S
C335 H322 0.929 . S
C335 C327 1.433 . S
C335 N337 1.384 . S
N336 C332 1.427 . S
N336 C333 1.384 . S
N337 C329 1.427 . S
N337 C335 1.384 . S
C129 C17 1.331 . S
C133 C99 1.244 . S
C147 C64 1.362 . S
C151 C105 1.196 . S
C165 C13 1.443 . S
C169 C96 1.320 . S
C183 C66 1.395 . S
C187 C121 1.296 . S
C201 C23 1.792 . S
C205 C87 1.612 . S
C223 C104 1.720 . S
C219 C42 1.844 . S
C237 C57 1.331 . S
C241 C100 1.247 . S
C259 C117 1.720 . S
C255 C2 1.844 . S
C277 C84 1.626 . S
C273 C63 1.791 . S
C295 C120 1.282 . S
C291 C26 1.393 . S
C313 C83 1.322 . S
C309 C53 1.444 . S
C331 C108 1.222 . S
C327 C24 1.361 . S
