# Generated by pormake.
# Topology gar, (4,6)-cn, num edge types: 1
# Building blocks:
#     Node 0, Type 0, BuildingBlock: NAHDIM_clean_sbu_0, # of connection points: 4
#     Node 1, Type 0, BuildingBlock: NAHDIM_clean_sbu_0, # of connection points: 4
#     Node 2, Type 0, BuildingBlock: NAHDIM_clean_sbu_0, # of connection points: 4
#     Node 3, Type 0, BuildingBlock: NAHDIM_clean_sbu_0, # of connection points: 4
#     Node 4, Type 0, BuildingBlock: NAHDIM_clean_sbu_0, # of connection points: 4
#     Node 5, Type 0, BuildingBlock: NAHDIM_clean_sbu_0, # of connection points: 4
#     Node 6, Type 0, BuildingBlock: NAHDIM_clean_sbu_0, # of connection points: 4
#     Node 7, Type 0, BuildingBlock: NAHDIM_clean_sbu_0, # of connection points: 4
#     Node 8, Type 0, BuildingBlock: NAHDIM_clean_sbu_0, # of connection points: 4
#     Node 9, Type 0, BuildingBlock: NAHDIM_clean_sbu_0, # of connection points: 4
#     Node 10, Type 0, BuildingBlock: NAHDIM_clean_sbu_0, # of connection points: 4
#     Node 11, Type 0, BuildingBlock: NAHDIM_clean_sbu_0, # of connection points: 4
#     Node 12, Type 0, BuildingBlock: NAHDIM_clean_sbu_0, # of connection points: 4
#     Node 13, Type 0, BuildingBlock: NAHDIM_clean_sbu_0, # of connection points: 4
#     Node 14, Type 0, BuildingBlock: NAHDIM_clean_sbu_0, # of connection points: 4
#     Node 15, Type 0, BuildingBlock: NAHDIM_clean_sbu_0, # of connection points: 4
#     Node 16, Type 0, BuildingBlock: NAHDIM_clean_sbu_0, # of connection points: 4
#     Node 17, Type 0, BuildingBlock: NAHDIM_clean_sbu_0, # of connection points: 4
#     Node 18, Type 0, BuildingBlock: NAHDIM_clean_sbu_0, # of connection points: 4
#     Node 19, Type 0, BuildingBlock: NAHDIM_clean_sbu_0, # of connection points: 4
#     Node 20, Type 0, BuildingBlock: NAHDIM_clean_sbu_0, # of connection points: 4
#     Node 21, Type 0, BuildingBlock: NAHDIM_clean_sbu_0, # of connection points: 4
#     Node 22, Type 0, BuildingBlock: NAHDIM_clean_sbu_0, # of connection points: 4
#     Node 23, Type 0, BuildingBlock: NAHDIM_clean_sbu_0, # of connection points: 4
#     Node 24, Type 1, BuildingBlock: KUMJIN_clean_sbu_0, # of connection points: 6
#     Node 25, Type 1, BuildingBlock: KUMJIN_clean_sbu_0, # of connection points: 6
#     Node 26, Type 1, BuildingBlock: KUMJIN_clean_sbu_0, # of connection points: 6
#     Node 27, Type 1, BuildingBlock: KUMJIN_clean_sbu_0, # of connection points: 6
#     Node 28, Type 1, BuildingBlock: KUMJIN_clean_sbu_0, # of connection points: 6
#     Node 29, Type 1, BuildingBlock: KUMJIN_clean_sbu_0, # of connection points: 6
#     Node 30, Type 1, BuildingBlock: KUMJIN_clean_sbu_0, # of connection points: 6
#     Node 31, Type 1, BuildingBlock: KUMJIN_clean_sbu_0, # of connection points: 6
#     Node 32, Type 1, BuildingBlock: KUMJIN_clean_sbu_0, # of connection points: 6
#     Node 33, Type 1, BuildingBlock: KUMJIN_clean_sbu_0, # of connection points: 6
#     Node 34, Type 1, BuildingBlock: KUMJIN_clean_sbu_0, # of connection points: 6
#     Node 35, Type 1, BuildingBlock: KUMJIN_clean_sbu_0, # of connection points: 6
#     Node 36, Type 1, BuildingBlock: KUMJIN_clean_sbu_0, # of connection points: 6
#     Node 37, Type 1, BuildingBlock: KUMJIN_clean_sbu_0, # of connection points: 6
#     Node 38, Type 1, BuildingBlock: KUMJIN_clean_sbu_0, # of connection points: 6
#     Node 39, Type 1, BuildingBlock: KUMJIN_clean_sbu_0, # of connection points: 6
#     Edge 40, Type (0, 1), BuildingBlock: AJUNOK_clean_linker_0, # of connection points: 2
#     Edge 41, Type (0, 1), BuildingBlock: AJUNOK_clean_linker_0, # of connection points: 2
#     Edge 42, Type (0, 1), BuildingBlock: AJUNOK_clean_linker_0, # of connection points: 2
#     Edge 43, Type (0, 1), BuildingBlock: AJUNOK_clean_linker_0, # of connection points: 2
#     Edge 44, Type (0, 1), BuildingBlock: AJUNOK_clean_linker_0, # of connection points: 2
#     Edge 45, Type (0, 1), BuildingBlock: AJUNOK_clean_linker_0, # of connection points: 2
#     Edge 46, Type (0, 1), BuildingBlock: AJUNOK_clean_linker_0, # of connection points: 2
#     Edge 47, Type (0, 1), BuildingBlock: AJUNOK_clean_linker_0, # of connection points: 2
#     Edge 48, Type (0, 1), BuildingBlock: AJUNOK_clean_linker_0, # of connection points: 2
#     Edge 49, Type (0, 1), BuildingBlock: AJUNOK_clean_linker_0, # of connection points: 2
#     Edge 50, Type (0, 1), BuildingBlock: AJUNOK_clean_linker_0, # of connection points: 2
#     Edge 51, Type (0, 1), BuildingBlock: AJUNOK_clean_linker_0, # of connection points: 2
#     Edge 52, Type (0, 1), BuildingBlock: AJUNOK_clean_linker_0, # of connection points: 2
#     Edge 53, Type (0, 1), BuildingBlock: AJUNOK_clean_linker_0, # of connection points: 2
#     Edge 54, Type (0, 1), BuildingBlock: AJUNOK_clean_linker_0, # of connection points: 2
#     Edge 55, Type (0, 1), BuildingBlock: AJUNOK_clean_linker_0, # of connection points: 2
#     Edge 56, Type (0, 1), BuildingBlock: AJUNOK_clean_linker_0, # of connection points: 2
#     Edge 57, Type (0, 1), BuildingBlock: AJUNOK_clean_linker_0, # of connection points: 2
#     Edge 58, Type (0, 1), BuildingBlock: AJUNOK_clean_linker_0, # of connection points: 2
#     Edge 59, Type (0, 1), BuildingBlock: AJUNOK_clean_linker_0, # of connection points: 2
#     Edge 60, Type (0, 1), BuildingBlock: AJUNOK_clean_linker_0, # of connection points: 2
#     Edge 61, Type (0, 1), BuildingBlock: AJUNOK_clean_linker_0, # of connection points: 2
#     Edge 62, Type (0, 1), BuildingBlock: AJUNOK_clean_linker_0, # of connection points: 2
#     Edge 63, Type (0, 1), BuildingBlock: AJUNOK_clean_linker_0, # of connection points: 2
#     Edge 64, Type (0, 1), BuildingBlock: AJUNOK_clean_linker_0, # of connection points: 2
#     Edge 65, Type (0, 1), BuildingBlock: AJUNOK_clean_linker_0, # of connection points: 2
#     Edge 66, Type (0, 1), BuildingBlock: AJUNOK_clean_linker_0, # of connection points: 2
#     Edge 67, Type (0, 1), BuildingBlock: AJUNOK_clean_linker_0, # of connection points: 2
#     Edge 68, Type (0, 1), BuildingBlock: AJUNOK_clean_linker_0, # of connection points: 2
#     Edge 69, Type (0, 1), BuildingBlock: AJUNOK_clean_linker_0, # of connection points: 2
#     Edge 70, Type (0, 1), BuildingBlock: AJUNOK_clean_linker_0, # of connection points: 2
#     Edge 71, Type (0, 1), BuildingBlock: AJUNOK_clean_linker_0, # of connection points: 2
#     Edge 72, Type (0, 1), BuildingBlock: AJUNOK_clean_linker_0, # of connection points: 2
#     Edge 73, Type (0, 1), BuildingBlock: AJUNOK_clean_linker_0, # of connection points: 2
#     Edge 74, Type (0, 1), BuildingBlock: AJUNOK_clean_linker_0, # of connection points: 2
#     Edge 75, Type (0, 1), BuildingBlock: AJUNOK_clean_linker_0, # of connection points: 2
#     Edge 76, Type (0, 1), BuildingBlock: AJUNOK_clean_linker_0, # of connection points: 2
#     Edge 77, Type (0, 1), BuildingBlock: AJUNOK_clean_linker_0, # of connection points: 2
#     Edge 78, Type (0, 1), BuildingBlock: AJUNOK_clean_linker_0, # of connection points: 2
#     Edge 79, Type (0, 1), BuildingBlock: AJUNOK_clean_linker_0, # of connection points: 2
#     Edge 80, Type (0, 1), BuildingBlock: AJUNOK_clean_linker_0, # of connection points: 2
#     Edge 81, Type (0, 1), BuildingBlock: AJUNOK_clean_linker_0, # of connection points: 2
#     Edge 82, Type (0, 1), BuildingBlock: AJUNOK_clean_linker_0, # of connection points: 2
#     Edge 83, Type (0, 1), BuildingBlock: AJUNOK_clean_linker_0, # of connection points: 2
#     Edge 84, Type (0, 1), BuildingBlock: AJUNOK_clean_linker_0, # of connection points: 2
#     Edge 85, Type (0, 1), BuildingBlock: AJUNOK_clean_linker_0, # of connection points: 2
#     Edge 86, Type (0, 1), BuildingBlock: AJUNOK_clean_linker_0, # of connection points: 2
#     Edge 87, Type (0, 1), BuildingBlock: AJUNOK_clean_linker_0, # of connection points: 2
#     Edge 88, Type (0, 1), BuildingBlock: AJUNOK_clean_linker_0, # of connection points: 2
#     Edge 89, Type (0, 1), BuildingBlock: AJUNOK_clean_linker_0, # of connection points: 2
#     Edge 90, Type (0, 1), BuildingBlock: AJUNOK_clean_linker_0, # of connection points: 2
#     Edge 91, Type (0, 1), BuildingBlock: AJUNOK_clean_linker_0, # of connection points: 2
#     Edge 92, Type (0, 1), BuildingBlock: AJUNOK_clean_linker_0, # of connection points: 2
#     Edge 93, Type (0, 1), BuildingBlock: AJUNOK_clean_linker_0, # of connection points: 2
#     Edge 94, Type (0, 1), BuildingBlock: AJUNOK_clean_linker_0, # of connection points: 2
#     Edge 95, Type (0, 1), BuildingBlock: AJUNOK_clean_linker_0, # of connection points: 2
#     Edge 96, Type (0, 1), BuildingBlock: AJUNOK_clean_linker_0, # of connection points: 2
#     Edge 97, Type (0, 1), BuildingBlock: AJUNOK_clean_linker_0, # of connection points: 2
#     Edge 98, Type (0, 1), BuildingBlock: AJUNOK_clean_linker_0, # of connection points: 2
#     Edge 99, Type (0, 1), BuildingBlock: AJUNOK_clean_linker_0, # of connection points: 2
#     Edge 100, Type (0, 1), BuildingBlock: AJUNOK_clean_linker_0, # of connection points: 2
#     Edge 101, Type (0, 1), BuildingBlock: AJUNOK_clean_linker_0, # of connection points: 2
#     Edge 102, Type (0, 1), BuildingBlock: AJUNOK_clean_linker_0, # of connection points: 2
#     Edge 103, Type (0, 1), BuildingBlock: AJUNOK_clean_linker_0, # of connection points: 2
#     Edge 104, Type (0, 1), BuildingBlock: AJUNOK_clean_linker_0, # of connection points: 2
#     Edge 105, Type (0, 1), BuildingBlock: AJUNOK_clean_linker_0, # of connection points: 2
#     Edge 106, Type (0, 1), BuildingBlock: AJUNOK_clean_linker_0, # of connection points: 2
#     Edge 107, Type (0, 1), BuildingBlock: AJUNOK_clean_linker_0, # of connection points: 2
#     Edge 108, Type (0, 1), BuildingBlock: AJUNOK_clean_linker_0, # of connection points: 2
#     Edge 109, Type (0, 1), BuildingBlock: AJUNOK_clean_linker_0, # of connection points: 2
#     Edge 110, Type (0, 1), BuildingBlock: AJUNOK_clean_linker_0, # of connection points: 2
#     Edge 111, Type (0, 1), BuildingBlock: AJUNOK_clean_linker_0, # of connection points: 2
#     Edge 112, Type (0, 1), BuildingBlock: AJUNOK_clean_linker_0, # of connection points: 2
#     Edge 113, Type (0, 1), BuildingBlock: AJUNOK_clean_linker_0, # of connection points: 2
#     Edge 114, Type (0, 1), BuildingBlock: AJUNOK_clean_linker_0, # of connection points: 2
#     Edge 115, Type (0, 1), BuildingBlock: AJUNOK_clean_linker_0, # of connection points: 2
#     Edge 116, Type (0, 1), BuildingBlock: AJUNOK_clean_linker_0, # of connection points: 2
#     Edge 117, Type (0, 1), BuildingBlock: AJUNOK_clean_linker_0, # of connection points: 2
#     Edge 118, Type (0, 1), BuildingBlock: AJUNOK_clean_linker_0, # of connection points: 2
#     Edge 119, Type (0, 1), BuildingBlock: AJUNOK_clean_linker_0, # of connection points: 2
#     Edge 120, Type (0, 1), BuildingBlock: AJUNOK_clean_linker_0, # of connection points: 2
#     Edge 121, Type (0, 1), BuildingBlock: AJUNOK_clean_linker_0, # of connection points: 2
#     Edge 122, Type (0, 1), BuildingBlock: AJUNOK_clean_linker_0, # of connection points: 2
#     Edge 123, Type (0, 1), BuildingBlock: AJUNOK_clean_linker_0, # of connection points: 2
#     Edge 124, Type (0, 1), BuildingBlock: AJUNOK_clean_linker_0, # of connection points: 2
#     Edge 125, Type (0, 1), BuildingBlock: AJUNOK_clean_linker_0, # of connection points: 2
#     Edge 126, Type (0, 1), BuildingBlock: AJUNOK_clean_linker_0, # of connection points: 2
#     Edge 127, Type (0, 1), BuildingBlock: AJUNOK_clean_linker_0, # of connection points: 2
#     Edge 128, Type (0, 1), BuildingBlock: AJUNOK_clean_linker_0, # of connection points: 2
#     Edge 129, Type (0, 1), BuildingBlock: AJUNOK_clean_linker_0, # of connection points: 2
#     Edge 130, Type (0, 1), BuildingBlock: AJUNOK_clean_linker_0, # of connection points: 2
#     Edge 131, Type (0, 1), BuildingBlock: AJUNOK_clean_linker_0, # of connection points: 2
#     Edge 132, Type (0, 1), BuildingBlock: AJUNOK_clean_linker_0, # of connection points: 2
#     Edge 133, Type (0, 1), BuildingBlock: AJUNOK_clean_linker_0, # of connection points: 2
#     Edge 134, Type (0, 1), BuildingBlock: AJUNOK_clean_linker_0, # of connection points: 2
#     Edge 135, Type (0, 1), BuildingBlock: AJUNOK_clean_linker_0, # of connection points: 2
# Relax obj value: 0.158
# Max RMSD: 0.344
# Mean RMSD: 0.182
data_MOF--net-gar--node1-NAHDIM_clean_sbu_0--node2-KUMJIN_clean_sbu_0--edge1-AJUNOK_clean_linker_0
_symmetry_space_group_name_H-M    P1
_symmetry_Int_Tables_number       1
_symmetry_cell_setting            triclinic
loop_
_symmetry_equiv_pos_as_xyz
'x, y, z'
_cell_length_a     48.300018
_cell_length_b     42.073437
_cell_length_c     41.15868
_cell_angle_alpha  101.87873
_cell_angle_beta   94.252649
_cell_angle_gamma 103.23565
loop_
_atom_site_label
_atom_site_type_symbol
_atom_site_fract_x
_atom_site_fract_y
_atom_site_fract_z
_atom_type_partial_charge
C0 C 0.20317 0.34627 0.36709 0.0
O1 O 0.2086 0.35489 0.39992 0.0
O2 O 0.13948 0.30909 0.40503 0.0
Zn3 Zn 0.15026 0.34833 0.38476 0.0
O4 O 0.16528 0.3892 0.42071 0.0
C5 C 0.09112 0.34507 0.37301 0.0
O6 O 0.08931 0.32751 0.396 0.0
O7 O 0.17789 0.34203 0.35343 0.0
C8 C 0.16209 0.41664 0.41519 0.0
O9 O 0.15778 0.41946 0.38416 0.0
C10 C 0.14167 0.31472 0.43666 0.0
O11 O 0.1534 0.34489 0.45498 0.0
O12 O 0.11496 0.35491 0.3626 0.0
C13 C 0.96112 0.75018 0.69762 0.0
O14 O 0.95397 0.7289 0.66835 0.0
O15 O 0.99982 0.70133 0.6515 0.0
Zn16 Zn 1.01117 0.75049 0.67296 0.0
O17 O 1.00981 0.77903 0.63967 0.0
C18 C 0.0666 0.74166 0.68101 0.0
O19 O 0.0583 0.72337 0.65044 0.0
O20 O 0.98735 0.76337 0.70762 0.0
C21 C 0.03373 0.79402 0.63282 0.0
O22 O 0.05745 0.78852 0.64523 0.0
C23 C 0.99474 0.69051 0.61999 0.0
O24 O 0.99046 0.71119 0.60131 0.0
O25 O 0.05033 0.75804 0.69576 0.0
C26 C 0.70271 0.84934 0.86916 0.0
O27 O 0.70723 0.86828 0.89965 0.0
O28 O 0.63722 0.80107 0.90867 0.0
Zn29 Zn 0.64674 0.83765 0.88495 0.0
O30 O 0.65465 0.88042 0.91958 0.0
C31 C 0.59085 0.84255 0.87078 0.0
O32 O 0.59266 0.84851 0.90358 0.0
O33 O 0.67746 0.83295 0.85705 0.0
C34 C 0.65566 0.9092 0.91428 0.0
O35 O 0.6559 0.91352 0.88358 0.0
C36 C 0.64612 0.80832 0.93969 0.0
O37 O 0.66466 0.83697 0.95329 0.0
O38 O 0.61204 0.83645 0.85647 0.0
C39 C 0.46269 0.24611 0.21032 0.0
O40 O 0.46404 0.21493 0.20811 0.0
O41 O 0.49549 0.19983 0.14638 0.0
Zn42 Zn 0.50576 0.24868 0.16675 0.0
O43 O 0.51057 0.27364 0.13127 0.0
C44 C 0.56308 0.24791 0.17982 0.0
O45 O 0.5581 0.23348 0.1478 0.0
O46 O 0.47802 0.26425 0.19418 0.0
C47 C 0.52684 0.30287 0.13889 0.0
O48 O 0.53977 0.31531 0.16963 0.0
C49 C 0.49419 0.19154 0.11481 0.0
O50 O 0.48886 0.21239 0.09688 0.0
O51 O 0.54334 0.25788 0.1944 0.0
C52 C 0.07115 0.81731 0.1335 0.0
O53 O 0.06645 0.81149 0.10071 0.0
O54 O 0.12356 0.77687 0.09331 0.0
Zn55 Zn 0.12995 0.8281 0.11826 0.0
O56 O 0.12175 0.8667 0.09249 0.0
C57 C 0.18692 0.81952 0.14581 0.0
O58 O 0.18167 0.79671 0.11754 0.0
O59 O 0.09706 0.82527 0.14754 0.0
C60 C 0.13461 0.88954 0.07814 0.0
O61 O 0.16184 0.89223 0.07488 0.0
C62 C 0.11329 0.75478 0.06607 0.0
O63 O 0.10163 0.76403 0.04085 0.0
O64 O 0.16932 0.83828 0.15137 0.0
C65 C 0.58959 0.77874 0.42297 0.0
O66 O 0.59674 0.77838 0.45427 0.0
O67 O 0.53178 0.73107 0.46305 0.0
Zn68 Zn 0.53128 0.77603 0.44274 0.0
O69 O 0.54331 0.82569 0.4748 0.0
C70 C 0.46771 0.75875 0.40447 0.0
O71 O 0.45937 0.73849 0.4242 0.0
O72 O 0.56362 0.77761 0.41319 0.0
C73 C 0.5313 0.84847 0.4684 0.0
O74 O 0.50892 0.83905 0.44536 0.0
C75 C 0.54896 0.72673 0.4866 0.0
O76 O 0.56788 0.75327 0.50464 0.0
O77 O 0.49435 0.7743 0.40831 0.0
C78 C 0.57342 0.32585 0.64006 0.0
O79 O 0.56715 0.32562 0.60837 0.0
O80 O 0.61919 0.27935 0.59283 0.0
Zn81 Zn 0.63054 0.3305 0.61972 0.0
O82 O 0.6228 0.37178 0.59769 0.0
C83 C 0.68846 0.3198 0.64674 0.0
O84 O 0.68253 0.29496 0.62006 0.0
O85 O 0.59943 0.32826 0.6511 0.0
C86 C 0.62388 0.38112 0.56971 0.0
O87 O 0.63329 0.36287 0.54518 0.0
C88 C 0.6238 0.25907 0.5671 0.0
O89 O 0.6404 0.27122 0.54638 0.0
O90 O 0.6709 0.33877 0.65137 0.0
C91 C 0.087 0.27132 0.916 0.0
O92 O 0.08732 0.24739 0.93195 0.0
O93 O 0.03672 0.23016 0.96078 0.0
Zn94 Zn 0.03203 0.27596 0.94376 0.0
O95 O 0.04332 0.32479 0.97743 0.0
C96 C 0.96899 0.25316 0.89935 0.0
O97 O 0.96373 0.22381 0.90716 0.0
O98 O 0.06572 0.28461 0.91627 0.0
C99 C 0.02903 0.34632 0.97335 0.0
O100 O 1.00446 0.33512 0.95387 0.0
C101 C 0.03816 0.22116 0.989 0.0
O102 O 0.03452 0.24208 0.01583 0.0
O103 O 0.99343 0.27399 0.91107 0.0
C104 C 0.41279 0.11211 0.34527 0.0
O105 O 0.43998 0.1199 0.34094 0.0
O106 O 0.44274 0.05607 0.29994 0.0
Zn107 Zn 0.42246 0.05176 0.34131 0.0
O108 O 0.44961 0.05171 0.37695 0.0
C109 C 0.39621 0.98784 0.30665 0.0
O110 O 0.4172 0.99423 0.28869 0.0
O111 O 0.40371 0.08696 0.35709 0.0
C112 C 0.46325 0.02931 0.37475 0.0
O113 O 0.45518 1.00225 0.35037 0.0
C114 C 0.46995 0.06326 0.3018 0.0
O115 O 0.48515 0.07504 0.33141 0.0
O116 O 0.39391 1.00923 0.33202 0.0
C117 C 0.36317 0.18559 0.51798 0.0
O118 O 0.36962 0.21818 0.52067 0.0
O119 O 0.31247 0.22381 0.5608 0.0
Zn120 Zn 0.30814 0.19712 0.5112 0.0
O121 O 0.32104 0.22344 0.47529 0.0
C122 C 0.24905 0.16718 0.51867 0.0
O123 O 0.25702 0.1899 0.54692 0.0
O124 O 0.33695 0.16937 0.51259 0.0
C125 C 0.3132 0.24757 0.46629 0.0
O126 O 0.2935 0.25953 0.48144 0.0
C127 C 0.30976 0.25205 0.57712 0.0
O128 O 0.30343 0.2736 0.56066 0.0
O129 O 0.26719 0.16481 0.49785 0.0
C130 C 0.23059 0.95031 0.77252 0.0
O131 O 0.20388 0.93256 0.76832 0.0
O132 O 0.17807 0.01995 0.72459 0.0
Zn133 Zn 0.20522 0.02237 0.77563 0.0
O134 O 0.18045 0.02073 0.82252 0.0
C135 C 0.22969 0.1016 0.78455 0.0
O136 O 0.20269 0.10239 0.78489 0.0
O137 O 0.23455 0.9829 0.77497 0.0
C138 C 0.16433 0.03787 0.83905 0.0
O139 O 0.15838 0.0626 0.82728 0.0
C140 C 0.15894 0.03601 0.71721 0.0
O141 O 0.15127 0.05508 0.74263 0.0
O142 O 0.23566 0.07276 0.78228 0.0
C143 C 0.31211 0.9906 0.0101 0.0
O144 O 0.30992 0.95875 1.00936 0.0
O145 O 0.36193 0.96203 0.0479 0.0
Zn146 Zn 0.36508 0.98453 1.00932 0.0
O147 O 0.35388 0.9474 0.97048 0.0
C148 C 0.4233 0.02212 0.02827 0.0
O149 O 0.41593 0.0306 0.05836 0.0
O150 O 0.33633 1.00981 1.00934 0.0
C151 C 0.36861 0.92593 0.96769 0.0
O152 O 0.39166 0.93102 0.98886 0.0
C153 C 0.38256 0.95368 0.06174 0.0
O154 O 0.40832 0.96222 0.05312 0.0
O155 O 0.40396 1.00795 1.00396 0.0
C156 C 0.29574 0.41886 0.04198 0.0
O157 O 0.28873 0.38712 0.04329 0.0
O158 O 0.34511 0.38919 0.08731 0.0
Zn159 Zn 0.35113 0.40647 0.04404 0.0
O160 O 0.33998 0.37164 0.99811 0.0
C161 C 0.41348 0.43991 0.06488 0.0
O162 O 0.41104 0.41975 0.08558 0.0
O163 O 0.32203 0.43343 0.04277 0.0
C164 C 0.35868 0.36283 0.98038 0.0
O165 O 0.38566 0.37237 0.99371 0.0
C166 C 0.341 0.35948 0.0918 0.0
O167 O 0.34277 0.3352 0.06685 0.0
O168 O 0.39125 0.43901 0.04559 0.0
C169 C 0.84962 0.11381 0.05897 0.0
O170 O 0.85368 0.14652 0.06832 0.0
O171 O 0.79629 0.15234 0.08887 0.0
Zn172 Zn 0.79713 0.12265 0.04652 0.0
O173 O 0.81225 0.15383 0.01918 0.0
C174 C 0.74171 0.08985 0.04939 0.0
O175 O 0.75322 0.09101 0.07968 0.0
O176 O 0.82428 0.09545 0.05082 0.0
C177 C 0.80069 0.14839 0.98947 0.0
O178 O 0.78135 0.12012 0.97665 0.0
C179 C 0.78705 0.17839 0.08999 0.0
O180 O 0.77407 0.18294 0.06276 0.0
O181 O 0.75767 0.09846 0.02816 0.0
C182 C 0.24642 0.49233 0.21777 0.0
O183 O 0.21916 0.48567 0.22206 0.0
O184 O 0.20222 0.54276 0.19037 0.0
Zn185 Zn 0.23673 0.55289 0.22076 0.0
O186 O 0.22462 0.55608 0.26689 0.0
C187 C 0.25524 0.61748 0.2078 0.0
O188 O 0.22956 0.61163 0.19139 0.0
O189 O 0.2567 0.51858 0.20811 0.0
C190 C 0.22775 0.5843 0.28717 0.0
O191 O 0.24375 0.61123 0.28036 0.0
C192 C 0.18193 0.55569 0.19903 0.0
O193 O 0.1852 0.57802 0.22739 0.0
O194 O 0.26271 0.59469 0.21925 0.0
C195 C 0.79567 0.92034 0.54086 0.0
O196 O 0.78874 0.8886 0.54219 0.0
O197 O 0.84178 0.88772 0.58742 0.0
Zn198 Zn 0.85157 0.90952 0.54764 0.0
O199 O 0.84933 0.88095 0.49912 0.0
C200 C 0.91361 0.93268 0.55381 0.0
O201 O 0.91064 0.90017 0.5443 0.0
O202 O 0.82198 0.93564 0.54373 0.0
C203 C 0.84795 0.85192 0.48088 0.0
O204 O 0.84699 0.82647 0.495 0.0
C205 C 0.84223 0.85849 0.59082 0.0
O206 O 0.84981 0.83795 0.56655 0.0
O207 O 0.89115 0.9432 0.55833 0.0
C208 C 0.93039 0.15722 0.28868 0.0
O209 O 0.95744 0.174 0.29443 0.0
O210 O 0.97733 0.0826 0.23171 0.0
Zn211 Zn 0.95391 0.08356 0.28031 0.0
O212 O 0.9813 0.08639 0.33167 0.0
C213 C 0.92915 1.00448 0.26857 0.0
O214 O 0.95573 1.00398 0.26433 0.0
O215 O 0.9255 0.12423 0.28319 0.0
C216 C 0.99536 0.0658 0.34123 0.0
O217 O 0.9964 0.03951 0.31829 0.0
C218 C 1.00089 0.07498 0.2225 0.0
O219 O 0.01656 0.06611 0.24486 0.0
O220 O 0.92304 0.0334 0.27371 0.0
C221 C 0.34737 0.60477 0.55617 0.0
O222 O 0.35662 0.63766 0.5636 0.0
O223 O 0.30197 0.65881 0.58386 0.0
Zn224 Zn 0.29891 0.62333 0.54305 0.0
O225 O 0.31453 0.64468 0.50753 0.0
C226 C 0.24262 0.5891 0.54508 0.0
O227 O 0.25401 0.58585 0.57385 0.0
O228 O 0.32065 0.59186 0.55105 0.0
C229 C 0.29861 0.66329 0.50146 0.0
O230 O 0.27717 0.66595 0.51862 0.0
C231 C 0.28226 0.67252 0.59359 0.0
O232 O 0.25632 0.66183 0.57713 0.0
O233 O 0.2588 0.60135 0.52577 0.0
C234 C 0.42831 0.65379 0.77827 0.0
O235 O 0.45114 0.66486 0.76442 0.0
O236 O 0.47896 0.58467 0.73449 0.0
Zn237 Zn 0.45579 0.58519 0.7833 0.0
O238 O 0.48516 0.5896 0.83295 0.0
C239 C 0.42668 0.5052 0.76461 0.0
O240 O 0.44787 0.50263 0.74682 0.0
O241 O 0.42684 0.62534 0.7877 0.0
C242 C 0.49507 0.56625 0.84318 0.0
O243 O 0.4892 0.53677 0.82223 0.0
C244 C 0.49865 0.57035 0.72239 0.0
O245 O 0.50906 0.55272 0.74084 0.0
O246 O 0.42565 0.53504 0.77982 0.0
C247 C 0.74559 0.99376 0.72114 0.0
O248 O 0.7182 0.98692 0.72468 0.0
O249 O 0.70413 0.04332 0.68735 0.0
Zn250 Zn 0.73506 0.05282 0.72167 0.0
O251 O 0.71548 0.04935 0.76192 0.0
C252 C 0.75588 0.11572 0.70686 0.0
O253 O 0.73697 0.10317 0.68002 0.0
O254 O 0.75623 0.01934 0.7105 0.0
C255 C 0.72103 0.07208 0.78859 0.0
O256 O 0.74305 0.09802 0.79213 0.0
C257 C 0.68201 0.05347 0.69359 0.0
O258 O 0.68202 0.07411 0.72225 0.0
O259 O 0.75964 0.0978 0.72714 0.0
C260 C 0.86197 0.67962 0.01386 0.0
O261 O 0.87184 0.70703 1.00339 0.0
O262 O 0.80761 0.72746 0.06117 0.0
Zn263 Zn 0.80748 0.69999 0.0132 0.0
O264 O 0.82276 0.72726 0.97913 0.0
C265 C 0.7461 0.67 0.01488 0.0
O266 O 0.75079 0.69458 0.04166 0.0
O267 O 0.83573 0.67195 0.01869 0.0
C268 C 0.80769 0.74066 0.9621 0.0
O269 O 0.78074 0.73793 0.96688 0.0
C270 C 0.826 0.7525 0.07994 0.0
O271 O 0.84869 0.76673 0.06759 0.0
O272 O 0.76656 0.66736 0.9973 0.0
C273 C 0.91852 0.61523 0.8417 0.0
O274 O 0.94627 0.61864 0.84187 0.0
O275 O 0.93863 0.55648 0.78898 0.0
Zn276 Zn 0.92175 0.55273 0.83202 0.0
O277 O 0.95395 0.56134 0.86587 0.0
C278 C 0.89666 0.48561 0.80323 0.0
O279 O 0.91017 0.4938 0.7786 0.0
O280 O 0.90316 0.58807 0.8459 0.0
C281 C 0.96044 0.53703 0.87518 0.0
O282 O 0.94331 0.50684 0.86654 0.0
C283 C 0.96164 0.54686 0.78737 0.0
O284 O 0.96987 0.5324 0.8102 0.0
O285 O 0.89628 0.50777 0.829 0.0
C286 C 0.81559 0.49785 0.50471 0.0
O287 O 0.80715 0.46551 0.49126 0.0
O288 O 0.87686 0.47031 0.54954 0.0
Zn289 Zn 0.86999 0.48456 0.50737 0.0
O290 O 0.85705 0.44291 0.47282 0.0
C291 C 0.92585 0.51997 0.522 0.0
O292 O 0.91755 0.52761 0.55169 0.0
O293 O 0.84216 0.51174 0.51155 0.0
C294 C 0.87239 0.42202 0.47209 0.0
O295 O 0.89575 0.4291 0.49341 0.0
C296 C 0.85897 0.4456 0.55516 0.0
O297 O 0.83445 0.43346 0.53556 0.0
O298 O 0.9071 0.50726 0.49677 0.0
C299 C 0.73004 0.4461 0.26522 0.0
O300 O 0.70735 0.43074 0.24326 0.0
O301 O 0.67631 0.51465 0.22693 0.0
Zn302 Zn 0.7034 0.51885 0.27874 0.0
O303 O 0.67694 0.51708 0.32376 0.0
C304 C 0.73285 0.5945 0.27215 0.0
O305 O 0.71379 0.58706 0.24556 0.0
O306 O 0.73173 0.4778 0.27973 0.0
C307 C 0.66591 0.53909 0.34219 0.0
O308 O 0.66899 0.56823 0.33414 0.0
C309 C 0.65858 0.53216 0.21896 0.0
O310 O 0.65299 0.55396 0.24377 0.0
O311 O 0.73287 0.57149 0.28904 0.0
Eu312 Eu 0.04449 0.02624 1.00547 0.0
C313 C 0.13657 0.14735 0.08487 0.0
C314 C 0.14991 0.17756 0.04199 0.0
C315 C 0.15986 0.20722 0.10025 0.0
C316 C 0.13741 0.14745 0.05147 0.0
C317 C 0.14759 0.17738 0.10959 0.0
C318 C 0.16118 0.20726 0.06652 0.0
C319 C 0.13664 0.14603 0.15176 0.0
N320 N 0.12576 0.11791 0.09342 0.0
C321 C 0.12699 0.11679 0.12658 0.0
C322 C 0.14648 0.17658 0.14315 0.0
Eu323 Eu 0.1103 0.06841 0.04939 0.0
N324 N 0.12651 0.11824 0.02828 0.0
C325 C 0.12754 0.11822 0.995 0.0
C326 C 0.15106 0.17707 1.00815 0.0
C327 C 0.13971 0.14725 0.98457 0.0
H328 H 0.1205 0.09317 0.13385 0.0
H329 H 0.14 0.14659 0.95816 0.0
H330 H 0.17099 0.2304 0.05964 0.0
H331 H 0.13673 0.14489 0.1778 0.0
H332 H 0.11789 0.09661 0.97553 0.0
H333 H 0.99199 0.96439 0.09882 0.0
H334 H 0.16051 0.19957 0.99997 0.0
H335 H 0.03987 0.99124 0.92342 0.0
H336 H 0.02503 1.00763 0.08167 0.0
H337 H 0.03343 0.93624 0.88568 0.0
H338 H 0.16875 0.23032 0.11899 0.0
H339 H 0.97294 0.90893 0.06049 0.0
H340 H 0.97207 0.87079 1.00551 0.0
H341 H 0.15372 0.19942 0.16251 0.0
H342 H 0.98595 0.86216 0.94883 0.0
N343 N 0.02368 0.98074 0.03106 0.0
C344 C 0.01636 0.98528 0.06304 0.0
C345 C 0.98714 0.92868 0.05206 0.0
C346 C 0.99568 0.92301 0.02021 0.0
C347 C 0.99763 0.95995 0.07359 0.0
C348 C 0.01375 0.9499 0.01005 0.0
H349 H 1.01074 0.88567 0.90482 0.0
N350 N 0.03396 0.9726 0.96707 0.0
C351 C 0.03 0.93815 0.91163 0.0
C352 C 0.02035 0.94538 0.9777 0.0
C353 C 0.0358 0.96948 0.93364 0.0
C354 C 0.01723 0.90979 0.92251 0.0
C355 C 1.01077 0.91343 0.95536 0.0
O356 O 0.01154 0.02207 0.96479 0.0
O357 O 0.0699 0.07938 0.02762 0.0
O358 O 0.07999 0.07358 0.09042 0.0
O359 O 0.03559 0.05297 0.05901 0.0
O360 O 0.05385 0.06757 0.97725 0.0
O361 O 1.00262 0.03248 0.0171 0.0
O362 O 0.14227 0.06211 0.08586 0.0
O363 O 0.08431 1.01506 0.02679 0.0
O364 O 0.07627 0.0252 0.9643 0.0
O365 O 0.12065 0.0491 0.99504 0.0
O366 O 0.09692 0.0267 0.07702 0.0
O367 O 0.15094 0.06017 0.03457 0.0
C368 C 0.06635 0.09198 1.00213 0.0
C369 C 0.96411 0.02702 0.97421 0.0
C370 C 0.92079 0.04372 0.98557 0.0
C371 C 0.94818 0.04223 0.9967 0.0
C372 C 0.90903 0.0296 0.95226 0.0
C373 C 0.95255 1.013 0.94074 0.0
C374 C 0.92516 1.01468 0.92977 0.0
C375 C 0.05164 0.06699 0.08875 0.0
C376 C 0.99305 0.02675 0.98549 0.0
C377 C 0.99386 0.88655 0.96584 0.0
C378 C 0.98594 0.89148 0.99804 0.0
C379 C 0.08589 1.00181 0.05201 0.0
C380 C 0.19071 0.07321 0.07619 0.0
C381 C 0.20957 0.05797 0.05878 0.0
C382 C 0.23833 0.06578 0.07156 0.0
C383 C 0.24869 0.08976 0.10167 0.0
C384 C 0.2009 0.09775 0.10606 0.0
C385 C 0.23001 0.10612 0.11862 0.0
C386 C 0.10481 0.03445 0.96549 0.0
C387 C 0.16044 0.0588 0.06455 0.0
H388 H 0.95737 0.05404 0.02244 0.0
H389 H 0.88779 0.03127 0.94406 0.0
H390 H 0.9648 1.00128 0.92302 0.0
H391 H 0.91719 1.00545 0.90363 0.0
H392 H 0.2015 0.03833 0.03619 0.0
H393 H 0.27101 0.0955 0.11204 0.0
H394 H 0.18641 0.10959 0.12006 0.0
H395 H 0.23792 0.12459 0.14191 0.0
Eu396 Eu 0.34617 0.7864 0.23801 0.0
C397 C 0.30986 0.88462 0.35201 0.0
C398 C 0.35327 0.91479 0.38952 0.0
C399 C 0.31226 0.93879 0.3892 0.0
C400 C 0.33779 0.88628 0.36468 0.0
C401 C 0.29651 0.91023 0.36557 0.0
C402 C 0.34064 0.9412 0.40091 0.0
C403 C 0.25127 0.87485 0.33725 0.0
N404 N 0.29459 0.85645 0.32962 0.0
C405 C 0.26533 0.85057 0.32407 0.0
C406 C 0.26704 0.90528 0.35724 0.0
Eu407 Eu 0.31678 0.81138 0.31678 0.0
N408 N 0.34908 0.85939 0.35477 0.0
C409 C 0.37576 0.86012 0.36971 0.0
C410 C 0.38063 0.91554 0.40354 0.0
C411 C 0.39183 0.88805 0.39368 0.0
H412 H 0.25233 0.82652 0.31006 0.0
H413 H 0.4129 0.88819 0.40479 0.0
H414 H 0.35227 0.96302 0.41995 0.0
H415 H 0.22815 0.86971 0.33253 0.0
H416 H 0.38602 0.84015 0.36347 0.0
H417 H 0.24795 0.70005 0.16342 0.0
H418 H 0.39303 0.93689 0.4226 0.0
H419 H 0.41256 0.77335 0.24895 0.0
H420 H 0.27431 0.74684 0.20811 0.0
H421 H 0.43913 0.73421 0.2229 0.0
H422 H 0.30231 0.95857 0.39962 0.0
H423 H 0.27268 0.65989 0.13351 0.0
H424 H 0.31776 0.64145 0.12634 0.0
H425 H 0.256 0.92393 0.3678 0.0
H426 H 0.36928 0.65022 0.143 0.0
N427 N 0.31525 0.73613 0.20312 0.0
C428 C 0.2863 0.731 0.19481 0.0
C429 C 0.28479 0.68104 0.15297 0.0
C430 C 0.31407 0.68546 0.16211 0.0
C431 C 0.27081 0.70374 0.16963 0.0
C432 C 0.32891 0.71336 0.18784 0.0
H433 H 0.41435 0.68426 0.17894 0.0
N434 N 0.37152 0.74423 0.22332 0.0
C435 C 0.41615 0.72877 0.2162 0.0
C436 C 0.35781 0.71765 0.19806 0.0
C437 C 0.40063 0.75051 0.23164 0.0
C438 C 0.40215 0.70081 0.19122 0.0
C439 C 0.37275 0.69502 0.18167 0.0
O440 O 0.38769 0.81383 0.22705 0.0
O441 O 0.34904 0.82665 0.28397 0.0
O442 O 0.28778 0.81942 0.27155 0.0
O443 O 0.30503 0.79954 0.22149 0.0
O444 O 0.34642 0.83917 0.2372 0.0
O445 O 0.35149 0.78905 0.18701 0.0
O446 O 0.27449 0.78416 0.32498 0.0
O447 O 0.31396 0.7719 0.27088 0.0
O448 O 0.37587 0.78064 0.28257 0.0
O449 O 0.35602 0.79359 0.33255 0.0
O450 O 0.31389 0.75688 0.31606 0.0
O451 O 0.30675 0.81298 0.36732 0.0
C452 C 0.34834 0.84972 0.26907 0.0
C453 C 0.39328 0.82106 0.17088 0.0
C454 C 0.39422 0.85311 0.12848 0.0
C455 C 0.38059 0.84043 0.15354 0.0
C456 C 0.42045 0.84639 0.12077 0.0
C457 C 0.41963 0.81472 0.1635 0.0
C458 C 0.43315 0.82733 0.13839 0.0
C459 C 0.28589 0.8123 0.23793 0.0
C460 C 0.37849 0.80518 0.195 0.0
C461 C 0.3581 0.6677 0.1558 0.0
C462 C 0.32881 0.6628 0.14622 0.0
C463 C 0.31315 0.74743 0.2841 0.0
C464 C 0.26687 0.77502 0.37896 0.0
C465 C 0.2814 0.75506 0.39304 0.0
C466 C 0.26907 0.73845 0.41639 0.0
C467 C 0.24231 0.74177 0.42576 0.0
C468 C 0.24008 0.77828 0.38809 0.0
C469 C 0.22784 0.76166 0.41153 0.0
C470 C 0.37643 0.78434 0.31563 0.0
C471 C 0.28031 0.79545 0.35739 0.0
H472 H 0.36031 0.84559 0.15946 0.0
H473 H 0.43137 0.85658 0.1017 0.0
H474 H 0.42945 0.79955 0.17677 0.0
H475 H 0.45348 0.8224 0.13264 0.0
H476 H 0.30232 0.75292 0.38634 0.0
H477 H 0.23282 0.72917 0.44422 0.0
H478 H 0.22899 0.79428 0.37764 0.0
H479 H 0.20732 0.76447 0.41889 0.0
Eu480 Eu 0.61704 0.05427 0.50838 0.0
C481 C 0.5155 0.99646 0.57357 0.0
C482 C 0.48572 0.95269 0.52859 0.0
C483 C 0.48611 0.94624 0.58596 0.0
C484 C 0.50628 0.98369 0.53969 0.0
C485 C 0.50483 0.9783 0.59714 0.0
C486 C 0.47648 0.93351 0.55175 0.0
C487 C 0.52831 0.02683 0.64112 0.0
N488 N 0.53291 0.02789 0.58366 0.0
C489 C 0.53785 0.04405 0.61681 0.0
C490 C 0.51218 0.99356 0.63127 0.0
Eu491 Eu 0.54963 0.05414 0.54061 0.0
N492 N 0.51543 1.00289 0.51793 0.0
C493 C 0.50293 0.99427 0.48549 0.0
C494 C 0.47398 0.94272 0.49485 0.0
C495 C 0.48211 0.964 0.47338 0.0
H496 H 0.55009 0.06992 0.62433 0.0
H497 H 0.47255 0.957 0.44749 0.0
H498 H 0.46104 0.9094 0.54362 0.0
H499 H 0.53321 0.03929 0.66739 0.0
H500 H 0.50917 1.01063 0.46888 0.0
H501 H 0.68517 0.16456 0.60022 0.0
H502 H 0.45793 0.91924 0.4854 0.0
H503 H 0.61341 0.03819 0.42312 0.0
H504 H 0.6527 0.10958 0.58253 0.0
H505 H 0.62985 0.06712 0.3797 0.0
H506 H 0.47798 0.93172 0.60367 0.0
H507 H 0.70244 0.1966 0.55876 0.0
H508 H 0.70339 0.19972 0.49925 0.0
H509 H 0.5045 0.98038 0.65015 0.0
H510 H 0.6879 0.17381 0.4397 0.0
N511 N 0.64921 0.10875 0.52989 0.0
C512 C 0.65916 0.12228 0.5632 0.0
C513 C 0.68772 0.17201 0.55038 0.0
C514 C 0.67862 0.15794 0.51641 0.0
C515 C 0.67802 0.15402 0.57382 0.0
C516 C 0.65917 0.12582 0.50665 0.0
H517 H 0.66042 0.12496 0.39518 0.0
N518 N 0.63152 0.08049 0.46392 0.0
C519 C 0.63526 0.08015 0.40578 0.0
C520 C 0.64991 0.11149 0.47295 0.0
C521 C 0.62548 0.0641 0.43076 0.0
C522 C 0.65258 0.1127 0.41462 0.0
C523 C 0.66061 0.12855 0.44843 0.0
O524 O 0.63344 0.01846 0.47435 0.0
O525 O 0.5726 0.0203 0.50873 0.0
O526 O 0.57647 0.03687 0.57657 0.0
O527 O 0.62167 0.05925 0.5635 0.0
O528 O 0.60812 1.00356 0.52106 0.0
O529 O 0.65882 0.04545 0.52245 0.0
O530 O 0.5328 0.09425 0.56741 0.0
O531 O 0.5887 0.08852 0.52807 0.0
O532 O 0.58278 0.04134 0.46482 0.0
O533 O 0.55091 0.06762 0.49095 0.0
O534 O 0.57789 0.09975 0.57623 0.0
O535 O 0.50874 0.06222 0.52133 0.0
C536 C 0.58065 0.99531 0.51603 0.0
C537 C 0.68235 1.01653 0.48099 0.0
C538 C 0.72137 0.98927 0.48368 0.0
C539 C 0.69961 1.00142 0.49853 0.0
C540 C 0.7265 0.99328 0.45146 0.0
C541 C 0.68772 0.02078 0.44891 0.0
C542 C 0.70992 1.00933 0.43434 0.0
C543 C 0.60443 0.04605 0.58301 0.0
C544 C 0.65656 0.0226 0.4949 0.0
C545 C 0.67962 0.16046 0.45821 0.0
C546 C 0.68853 0.17514 0.4921 0.0
C547 C 0.59354 0.11144 0.5551 0.0
C548 C 0.48323 0.08998 0.56033 0.0
C549 C 0.46527 0.10665 0.54596 0.0
C550 C 0.44208 0.1141 0.56179 0.0
C551 C 0.43653 0.10414 0.59167 0.0
C552 C 0.47726 0.0797 0.58996 0.0
C553 C 0.45393 0.08673 0.6055 0.0
C554 C 0.56185 0.05617 0.46405 0.0
C555 C 0.50978 0.08737 0.54618 0.0
H556 H 0.6951 0.99739 0.52299 0.0
H557 H 0.74314 0.98374 0.43953 0.0
H558 H 0.67434 0.03198 0.43482 0.0
H559 H 0.71383 1.01216 0.40941 0.0
H560 H 0.47008 0.11515 0.52337 0.0
H561 H 0.41884 0.11004 0.60435 0.0
H562 H 0.49097 0.06707 0.60154 0.0
H563 H 0.44965 0.07926 0.62864 0.0
Eu564 Eu 0.29518 0.31452 0.77933 0.0
C565 C 0.39366 0.27422 0.84329 0.0
C566 C 0.41802 0.32557 0.88343 0.0
C567 C 0.41744 0.27192 0.89675 0.0
C568 C 0.40102 0.30882 0.85252 0.0
C569 C 0.40278 0.25542 0.86483 0.0
C570 C 0.4251 0.30698 0.90602 0.0
C571 C 0.38691 0.2061 0.81969 0.0
N572 N 0.38041 0.25911 0.81187 0.0
C573 C 0.3787 0.22588 0.79919 0.0
C574 C 0.39841 0.22081 0.85293 0.0
Eu575 Eu 0.36446 0.29367 0.77923 0.0
N576 N 0.39417 0.32602 0.8299 0.0
C577 C 0.40627 0.35984 0.83554 0.0
C578 C 0.42893 0.36032 0.88993 0.0
C579 C 0.42371 0.37735 0.86543 0.0
H580 H 0.37032 0.21445 0.77325 0.0
H581 H 0.43281 0.40412 0.8697 0.0
H582 H 0.43768 0.31946 0.93006 0.0
H583 H 0.3846 0.1796 0.80973 0.0
H584 H 0.40303 0.37406 0.8174 0.0
H585 H 0.24078 0.20321 0.68021 0.0
H586 H 0.44228 0.37402 0.91317 0.0
H587 H 0.28852 0.3933 0.78747 0.0
H588 H 0.26801 0.23312 0.73402 0.0
H589 H 0.26959 0.42771 0.75385 0.0
H590 H 0.42421 0.25786 0.91378 0.0
H591 H 0.22368 0.2343 0.64149 0.0
H592 H 0.21874 0.28911 0.63053 0.0
H593 H 0.40514 0.20553 0.86867 0.0
H594 H 0.22661 0.3501 0.65041 0.0
N595 N 0.26759 0.28216 0.72732 0.0
C596 C 0.26082 0.24776 0.71831 0.0
C597 C 0.23574 0.24792 0.66552 0.0
C598 C 0.24129 0.28283 0.67534 0.0
C599 C 0.24527 0.23031 0.68731 0.0
C600 C 0.2573 0.29945 0.70686 0.0
H601 H 0.24535 0.40184 0.69628 0.0
N602 N 0.27692 0.34885 0.74849 0.0
C603 C 0.26764 0.40142 0.74322 0.0
C604 C 0.26208 0.33379 0.7178 0.0
C605 C 0.27856 0.3819 0.76203 0.0
C606 C 0.25393 0.38672 0.71078 0.0
C607 C 0.25053 0.35241 0.69789 0.0
O608 O 0.27317 0.33942 0.81743 0.0
O609 O 0.33176 0.30756 0.81178 0.0
O610 O 0.33232 0.24513 0.78472 0.0
O611 O 0.28917 0.26075 0.78788 0.0
O612 O 0.31867 0.35165 0.82602 0.0
O613 O 0.25424 0.28796 0.79248 0.0
O614 O 0.3838 0.2684 0.73862 0.0
O615 O 0.32829 0.30145 0.74657 0.0
O616 O 0.32657 0.36333 0.77393 0.0
O617 O 0.3699 0.34798 0.77164 0.0
O618 O 0.34056 0.25645 0.73339 0.0
O619 O 0.407 0.31718 0.76688 0.0
C620 C 0.33551 0.33424 0.83457 0.0
C621 C 0.22294 0.32071 0.81494 0.0
C622 C 0.17856 0.31911 0.8405 0.0
C623 C 0.20463 0.30957 0.83772 0.0
C624 C 0.17101 0.3395 0.82 0.0
C625 C 0.21454 0.34045 0.79437 0.0
C626 C 0.18883 0.34992 0.79704 0.0
C627 C 0.30437 0.238 0.78748 0.0
C628 C 0.25152 0.31371 0.81454 0.0
C629 C 0.23538 0.33615 0.66616 0.0
C630 C 0.23086 0.30144 0.65486 0.0
C631 C 0.32489 0.2747 0.72379 0.0
C632 C 0.43408 0.28122 0.7389 0.0
C633 C 0.45568 0.29809 0.72261 0.0
C634 C 0.48019 0.28584 0.71663 0.0
C635 C 0.48239 0.25632 0.72637 0.0
C636 C 0.4372 0.25207 0.74872 0.0
C637 C 0.4611 0.23968 0.74233 0.0
C638 C 0.35461 0.37067 0.77198 0.0
C639 C 0.40717 0.29205 0.74257 0.0
H640 H 0.21091 0.29423 0.85369 0.0
H641 H 0.151 0.34692 0.82133 0.0
H642 H 0.22793 0.34889 0.77646 0.0
H643 H 0.18269 0.36544 0.78126 0.0
H644 H 0.45337 0.32038 0.71449 0.0
H645 H 0.50058 0.24589 0.72129 0.0
H646 H 0.42082 0.23832 0.7606 0.0
H647 H 0.463 0.21684 0.74948 0.0
Eu648 Eu 0.07159 0.08994 0.54754 0.0
C649 C 0.08921 0.97783 0.43503 0.0
C650 C 0.04083 0.95521 0.40604 0.0
C651 C 0.08093 0.94164 0.37897 0.0
C652 C 0.05995 0.97466 0.43462 0.0
C653 C 0.09992 0.96112 0.40718 0.0
C654 C 0.05148 0.93873 0.37838 0.0
C655 C 0.14743 0.98212 0.43776 0.0
N656 N 0.10714 0.99643 0.4628 0.0
C657 C 0.13586 0.9978 0.46483 0.0
C658 C 0.12941 0.96381 0.40872 0.0
Eu659 Eu 0.08509 1.01541 0.51025 0.0
N660 N 0.05016 0.99065 0.46187 0.0
C661 C 0.02124 0.9875 0.46193 0.0
C662 C 0.01149 0.9527 0.40602 0.0
C663 C 1.0017 0.96906 0.43405 0.0
H664 H 0.14983 1.01004 0.48794 0.0
H665 H 0.979 0.96725 0.43436 0.0
H666 H 0.03708 0.92358 0.35641 0.0
H667 H 0.17017 0.98349 0.43963 0.0
H668 H 0.01266 0.99963 0.48302 0.0
H669 H 0.17625 0.13581 0.62812 0.0
H670 H 0.99622 0.93812 0.38454 0.0
H671 H 1.00805 0.10138 0.5659 0.0
H672 H 0.14387 0.10485 0.57838 0.0
H673 H 0.98642 0.12813 0.61313 0.0
H674 H 0.0888 0.92855 0.3575 0.0
H675 H 0.15806 0.16467 0.67725 0.0
H676 H 0.11664 0.17938 0.70394 0.0
H677 H 0.13837 0.95123 0.38792 0.0
H678 H 0.0651 0.1764 0.70039 0.0
N679 N 0.10583 0.11563 0.59705 0.0
C680 C 0.13471 0.11747 0.59861 0.0
C681 C 0.1433 0.1511 0.655 0.0
C682 C 0.11405 0.14953 0.65366 0.0
C683 C 0.15362 0.13493 0.62735 0.0
C684 C 0.09561 0.13148 0.62402 0.0
H685 H 0.01651 0.15713 0.66696 0.0
N686 N 0.04948 0.11254 0.59339 0.0
C687 C 1.00893 0.1284 0.61623 0.0
C688 C 0.06659 0.12959 0.62221 0.0
C689 C 0.02118 0.11284 0.5897 0.0
C690 C 0.02599 0.14481 0.64649 0.0
C691 C 0.05525 0.146 0.64966 0.0
O692 O 0.04668 0.12284 0.53226 0.0
O693 O 0.07091 0.05884 0.49439 0.0
O694 O 0.12324 0.0537 0.49909 0.0
O695 O 0.11523 0.10204 0.53011 0.0
O696 O 0.03354 0.0716 0.50634 0.0
O697 O 0.0932 0.13739 0.53761 0.0
O698 O 0.10899 0.97906 0.51797 0.0
O699 O 0.086 0.04606 0.56329 0.0
O700 O 0.03423 0.05315 0.56113 0.0
O701 O 0.0428 1.00413 0.53178 0.0
O702 O 0.12245 0.03071 0.55202 0.0
O703 O 0.06189 0.9656 0.51472 0.0
C704 C 0.04596 0.0601 0.48141 0.0
C705 C 0.06912 0.17963 0.535 0.0
C706 C 0.08259 0.2312 0.51628 0.0
C707 C 0.08049 0.19696 0.51173 0.0
C708 C 0.07126 0.24756 0.54365 0.0
C709 C 0.05798 0.19577 0.56232 0.0
C710 C 0.05876 0.22976 0.56632 0.0
C711 C 0.13134 0.0864 0.51172 0.0
C712 C 0.06942 0.14466 0.5289 0.0
C713 C 0.07346 0.16371 0.67911 0.0
C714 C 0.10279 0.16549 0.68109 0.0
C715 C 0.11065 0.04407 0.5766 0.0
C716 C 0.08663 0.92294 0.52119 0.0
C717 C 0.06837 0.90709 0.541 0.0
C718 C 0.06937 0.87509 0.54441 0.0
C719 C 0.08831 0.85875 0.52769 0.0
C720 C 0.1058 0.90684 0.50475 0.0
C721 C 0.10648 0.87465 0.50788 0.0
C722 C 0.0267 0.02026 0.54996 0.0
C723 C 0.08568 0.95625 0.51766 0.0
H724 H 0.08765 0.18345 0.48989 0.0
H725 H 0.07243 0.27412 0.54783 0.0
H726 H 0.04878 0.18225 0.58026 0.0
H727 H 0.05006 0.24246 0.58725 0.0
H728 H 0.05409 0.91991 0.55448 0.0
H729 H 0.08965 0.83419 0.53086 0.0
H730 H 0.12005 0.91906 0.48938 0.0
H731 H 0.12133 0.86222 0.49532 0.0
Eu732 Eu 0.36155 0.8223 0.77511 0.0
C733 C 0.29003 0.72257 0.83516 0.0
C734 C 0.29656 0.67095 0.80116 0.0
C735 C 0.28691 0.67338 0.85857 0.0
C736 C 0.29556 0.70479 0.80496 0.0
C737 C 0.2848 0.70659 0.86191 0.0
C738 C 0.29279 0.65563 0.82829 0.0
C739 C 0.27111 0.75528 0.89147 0.0
N740 N 0.28729 0.75438 0.83749 0.0
C741 C 0.27584 0.76971 0.86408 0.0
C742 C 0.27612 0.72381 0.89065 0.0
Eu743 Eu 0.2946 0.77587 0.78884 0.0
N744 N 0.29815 0.71972 0.77867 0.0
C745 C 0.30079 0.70203 0.74778 0.0
C746 C 0.30036 0.6531 0.76983 0.0
C747 C 0.30228 0.66866 0.74297 0.0
H748 H 0.27048 0.79321 0.86404 0.0
H749 H 0.30464 0.65489 0.71848 0.0
H750 H 0.29355 0.62971 0.82581 0.0
H751 H 0.263 0.76811 0.91285 0.0
H752 H 0.30175 0.71357 0.72678 0.0
H753 H 0.35194 0.94604 0.84117 0.0
H754 H 0.30117 0.62708 0.76594 0.0
H755 H 0.37844 0.7986 0.69603 0.0
H756 H 0.34608 0.88596 0.83264 0.0
H757 H 0.39007 0.82335 0.6485 0.0
H758 H 0.28308 0.66082 0.8789 0.0
H759 H 0.36826 0.97521 0.79719 0.0
H760 H 0.38308 0.97225 0.74021 0.0
H761 H 0.27189 0.71235 0.91165 0.0
H762 H 0.39157 0.93875 0.68738 0.0
N763 N 0.35915 0.87931 0.78356 0.0
C764 C 0.35355 0.89753 0.8129 0.0
C765 C 0.36573 0.94837 0.79307 0.0
C766 C 0.37116 0.92986 0.76301 0.0
C767 C 0.35659 0.93204 0.81795 0.0
C768 C 0.36747 0.89484 0.75873 0.0
H769 H 0.39304 0.8834 0.65261 0.0
N770 N 0.36964 0.84246 0.72562 0.0
C771 C 0.38465 0.83831 0.67067 0.0
C772 C 0.37222 0.87585 0.7288 0.0
C773 C 0.37709 0.82408 0.69752 0.0
C774 C 0.38643 0.8722 0.67316 0.0
C775 C 0.38087 0.89159 0.70267 0.0
O776 O 0.40097 0.81235 0.75808 0.0
O777 O 0.33849 0.76781 0.77466 0.0
O778 O 0.31978 0.79915 0.83934 0.0
O779 O 0.35981 0.8367 0.82948 0.0
O780 O 0.37658 0.78713 0.80441 0.0
O781 O 0.40284 0.85103 0.80307 0.0
O782 O 0.253 0.78297 0.79763 0.0
O783 O 0.31592 0.82807 0.78134 0.0
O784 O 0.34031 0.78502 0.72762 0.0
O785 O 0.29267 0.77559 0.73428 0.0
O786 O 0.27653 0.82178 0.79682 0.0
O787 O 0.25588 0.73974 0.75946 0.0
C788 C 0.35755 0.75931 0.7929 0.0
C789 C 0.44512 0.85273 0.77724 0.0
C790 C 0.49642 0.8648 0.79193 0.0
C791 C 0.4687 0.85114 0.79794 0.0
C792 C 0.5006 0.88111 0.76551 0.0
C793 C 0.44912 0.86913 0.75093 0.0
C794 C 0.47693 0.88352 0.74527 0.0
C795 C 0.34299 0.82358 0.84926 0.0
C796 C 0.41713 0.83473 0.78301 0.0
C797 C 0.38467 0.92633 0.70705 0.0
C798 C 0.37997 0.94542 0.73718 0.0
C799 C 0.29509 0.84334 0.78644 0.0
C800 C 0.21131 0.74004 0.78189 0.0
C801 C 0.18823 0.73894 0.75908 0.0
C802 C 0.16073 0.73365 0.76827 0.0
C803 C 0.1558 0.72801 0.79994 0.0
C804 C 0.20658 0.73392 0.81359 0.0
C805 C 0.17877 0.72773 0.82247 0.0
C806 C 0.31311 0.77491 0.71525 0.0
C807 C 0.23928 0.75669 0.77489 0.0
H808 H 0.46549 0.83784 0.8179 0.0
H809 H 0.52206 0.8916 0.76043 0.0
H810 H 0.43101 0.87039 0.73463 0.0
H811 H 0.48015 0.89599 0.72483 0.0
H812 H 0.19186 0.7447 0.73495 0.0
H813 H 0.1344 0.72427 0.80721 0.0
H814 H 0.22429 0.73534 0.83184 0.0
H815 H 0.17516 0.72381 0.84715 0.0
Eu816 Eu 0.58389 0.03135 0.07064 0.0
C817 C 0.51709 0.06609 0.95138 0.0
C818 C 0.49676 1.01233 0.91304 0.0
C819 C 0.47272 0.05728 0.91475 0.0
C820 C 0.51783 0.0332 0.93911 0.0
C821 C 0.49484 0.0787 0.93879 0.0
C822 C 0.47382 0.02423 0.90166 0.0
C823 C 0.5205 0.13404 0.97005 0.0
N824 N 0.53941 0.08657 0.97339 0.0
C825 C 0.54235 0.12046 0.98089 0.0
C826 C 0.49631 0.11293 0.94937 0.0
Eu827 Eu 0.57573 0.06249 0.99195 0.0
N828 N 0.54018 0.02233 0.95088 0.0
C829 C 0.54289 0.9909 0.93677 0.0
C830 C 0.49979 0.98046 0.89841 0.0
C831 C 0.52299 0.96975 0.91032 0.0
H832 H 0.56168 0.13697 0.99544 0.0
H833 H 0.52547 0.94505 0.8993 0.0
H834 H 0.45722 1.00833 0.88211 0.0
H835 H 0.52261 0.1608 0.9771 0.0
H836 H 0.56034 0.98151 0.94522 0.0
H837 H 0.65051 0.1541 0.14319 0.0
H838 H 0.48431 0.96391 0.87805 0.0
H839 H 0.59378 0.95516 0.0682 0.0
H840 H 0.61062 0.1167 0.10429 0.0
H841 H 0.62916 0.92873 0.09124 0.0
H842 H 0.45534 0.06644 0.90504 0.0
H843 H 0.68685 0.13161 0.16987 0.0
H844 H 0.7051 0.08208 0.17644 0.0
H845 H 0.47962 0.12353 0.9404 0.0
H846 H 0.6998 0.02116 0.1618 0.0
N847 N 0.62212 0.07136 0.1091 0.0
C848 C 0.62514 0.10542 0.11618 0.0
C849 C 0.66871 0.11452 0.1532 0.0
C850 C 0.66579 0.0799 0.14608 0.0
C851 C 0.64827 0.12728 0.13819 0.0
C852 C 0.64181 0.05864 0.12403 0.0
H853 H 0.67184 0.96399 0.12987 0.0
N854 N 0.6167 1.00478 0.09283 0.0
C855 C 0.63229 0.95567 0.09815 0.0
C856 C 0.63904 0.02436 0.11553 0.0
C857 C 0.61239 0.9707 0.0851 0.0
C858 C 0.65629 0.97564 0.12003 0.0
C859 C 0.65981 1.01038 0.12921 0.0
O860 O 0.55421 0.99173 0.08579 0.0
O861 O 0.5562 0.03444 0.027 0.0
O862 O 0.55452 0.09123 0.03028 0.0
O863 O 0.56814 0.07887 0.08143 0.0
O864 O 0.54829 0.98889 0.03796 0.0
O865 O 0.56273 0.04301 0.11525 0.0
O866 O 0.60094 0.10446 0.97552 0.0
O867 O 0.60402 0.05899 0.03455 0.0
O868 O 0.6058 1.00113 0.03387 0.0
O869 O 0.59593 1.01817 0.98411 0.0
O870 O 0.61088 0.10523 0.02337 0.0
O871 O 0.59834 0.05312 0.94865 0.0
C872 C 0.5384 1.00653 0.01989 0.0
C873 C 0.54492 0.99878 0.14198 0.0
C874 C 0.5233 1.00067 0.19341 0.0
C875 C 0.52974 1.01394 0.16564 0.0
C876 C 0.53184 0.97186 0.19742 0.0
C877 C 0.55358 0.97 0.14615 0.0
C878 C 0.54692 0.95658 0.17377 0.0
C879 C 0.55691 0.09643 0.06324 0.0
C880 C 0.54887 1.01172 0.11186 0.0
C881 C 0.68353 0.03143 0.15127 0.0
C882 C 0.68652 0.0661 0.15966 0.0
C883 C 0.62156 0.08717 0.04024 0.0
C884 C 0.60985 0.09586 0.91924 0.0
C885 C 0.6277 0.08328 0.89774 0.0
C886 C 0.63351 0.09603 0.86971 0.0
C887 C 0.62046 0.12068 0.86226 0.0
C888 C 0.59687 0.12073 0.91215 0.0
C889 C 0.60207 0.13291 0.88347 0.0
C890 C 0.6068 0.99965 1.00157 0.0
C891 C 0.60843 0.08511 0.95052 0.0
H892 H 0.52296 0.03613 0.16252 0.0
H893 H 0.52714 0.96152 0.21899 0.0
H894 H 0.56507 0.95766 0.12794 0.0
H895 H 0.55348 0.93434 0.17687 0.0
H896 H 0.63824 0.06461 0.90366 0.0
H897 H 0.62525 0.13117 0.84079 0.0
H898 H 0.58335 0.13119 0.92897 0.0
H899 H 0.59248 0.15245 0.87817 0.0
Eu900 Eu 0.35514 0.3524 0.30149 0.0
C901 C 0.24689 0.24114 0.23604 0.0
C902 C 0.22001 0.23266 0.28242 0.0
C903 C 0.19703 0.20885 0.22557 0.0
C904 C 0.24603 0.24491 0.27021 0.0
C905 C 0.22234 0.22251 0.21335 0.0
C906 C 0.19567 0.21448 0.25993 0.0
C907 C 0.2501 0.22924 0.16791 0.0
N908 N 0.27204 0.25365 0.22492 0.0
C909 C 0.27384 0.24722 0.19114 0.0
C910 C 0.22426 0.2167 0.17903 0.0
Eu911 Eu 0.31351 0.26768 0.26532 0.0
N912 N 0.27054 0.26009 0.29149 0.0
C913 C 0.26948 0.26644 0.32529 0.0
C914 C 0.21926 0.23841 0.31693 0.0
C915 C 0.24402 0.25599 0.33844 0.0
H916 H 0.2941 0.25336 0.18165 0.0
H917 H 0.24361 0.26137 0.36525 0.0
H918 H 0.1758 0.2041 0.26888 0.0
H919 H 0.25213 0.22379 0.14144 0.0
H920 H 0.28768 0.28071 0.34257 0.0
H921 H 0.42443 0.37383 0.20374 0.0
H922 H 0.19965 0.22967 0.32718 0.0
H923 H 0.37372 0.36284 0.38528 0.0
H924 H 0.38011 0.35289 0.22438 0.0
H925 H 0.4151 0.392 0.42603 0.0
H926 H 0.1784 0.19351 0.20878 0.0
H927 H 0.46866 0.40021 0.24295 0.0
H928 H 0.49179 0.42155 0.30161 0.0
H929 H 0.20624 0.20175 0.16092 0.0
H930 H 0.48816 0.42864 0.3613 0.0
N931 N 0.39801 0.36255 0.27564 0.0
C932 C 0.39878 0.36228 0.24237 0.0
C933 C 0.44916 0.38928 0.25232 0.0
C934 C 0.44838 0.3909 0.28641 0.0
C935 C 0.42428 0.3746 0.23018 0.0
C936 C 0.4225 0.376 0.29752 0.0
H937 H 0.46081 0.41657 0.40769 0.0
N938 N 0.39615 0.36418 0.34212 0.0
C939 C 0.41743 0.38738 0.39963 0.0
C940 C 0.42138 0.37765 0.33158 0.0
C941 C 0.39403 0.3695 0.3759 0.0
C942 C 0.44317 0.40125 0.38916 0.0
C943 C 0.44542 0.39663 0.35497 0.0
O944 O 0.34645 0.38712 0.34454 0.0
O945 O 0.31277 0.31636 0.29752 0.0
O946 O 0.31706 0.29922 0.22586 0.0
O947 O 0.33934 0.35567 0.24924 0.0
O948 O 0.3123 0.36222 0.2875 0.0
O949 O 0.37244 0.40604 0.30854 0.0
O950 O 0.32406 0.23385 0.22287 0.0
O951 O 0.3564 0.30372 0.26867 0.0
O952 O 0.34969 0.32025 0.34095 0.0
O953 O 0.32727 0.26378 0.31776 0.0
O954 O 0.3559 0.25848 0.28159 0.0
O955 O 0.29659 0.21393 0.25738 0.0
C956 C 0.29643 0.33405 0.29051 0.0
C957 C 0.3512 0.44328 0.34198 0.0
C958 C 0.32413 0.47733 0.32045 0.0
C959 C 0.33367 0.44823 0.31622 0.0
C960 C 0.33182 0.50176 0.35046 0.0
C961 C 0.35904 0.46744 0.37235 0.0
C962 C 0.3491 0.49659 0.37655 0.0
C963 C 0.32601 0.3308 0.22355 0.0
C964 C 0.36202 0.41347 0.33672 0.0
C965 C 0.4704 0.41254 0.34376 0.0
C966 C 0.47222 0.40895 0.30968 0.0
C967 C 0.37213 0.28574 0.27692 0.0
C968 C 0.31712 0.17656 0.22269 0.0
C969 C 0.33389 0.16918 0.24756 0.0
C970 C 0.34131 0.13859 0.242 0.0
C971 C 0.33208 0.11532 0.21115 0.0
C972 C 0.30772 0.15346 0.19185 0.0
C973 C 0.31529 0.12285 0.1861 0.0
C974 C 0.34061 0.28864 0.34337 0.0
C975 C 0.3077 0.20728 0.22954 0.0
H976 H 0.32743 0.42948 0.29277 0.0
H977 H 0.32414 0.52434 0.35379 0.0
H978 H 0.3727 0.46373 0.39262 0.0
H979 H 0.35431 0.51499 0.39999 0.0
H980 H 0.34056 0.18694 0.2716 0.0
H981 H 0.33795 0.09158 0.20645 0.0
H982 H 0.29432 0.15894 0.1725 0.0
H983 H 0.30805 0.10492 0.16237 0.0
Eu984 Eu 0.57363 0.58956 0.04824 0.0
C985 C 0.58951 0.47796 0.93641 0.0
C986 C 0.54091 0.45542 0.90795 0.0
C987 C 0.58088 0.44417 0.87919 0.0
C988 C 0.56021 0.47419 0.93668 0.0
C989 C 0.60004 0.46262 0.90766 0.0
C990 C 0.55142 0.44053 0.87936 0.0
C991 C 0.64771 0.48229 0.93783 0.0
N992 N 0.60769 0.49568 0.96435 0.0
C993 C 0.63638 0.49664 0.96577 0.0
C994 C 0.62951 0.46547 0.90851 0.0
Eu995 Eu 0.58566 0.51381 0.01235 0.0
N996 N 0.55052 0.48965 0.96436 0.0
C997 C 0.52171 0.48698 0.96463 0.0
C998 C 0.51156 0.45262 0.90846 0.0
C999 C 0.50197 0.46864 0.93686 0.0
H1000 H 0.65065 0.50808 0.98884 0.0
H1001 H 0.47931 0.46697 0.93738 0.0
H1002 H 0.53691 0.42619 0.85716 0.0
H1003 H 0.67043 0.48364 0.93917 0.0
H1004 H 0.51342 0.49951 0.98572 0.0
H1005 H 0.67648 0.64373 0.1293 0.0
H1006 H 0.49617 0.4385 0.88692 0.0
H1007 H 0.50772 0.59637 0.06483 0.0
H1008 H 0.64463 0.60789 0.08056 0.0
H1009 H 0.48419 0.61984 0.11186 0.0
H1010 H 0.58865 0.43232 0.85697 0.0
H1011 H 0.65639 0.671 0.17777 0.0
H1012 H 0.61323 0.67974 0.20468 0.0
H1013 H 0.63832 0.45399 0.88697 0.0
H1014 H 0.56096 0.67127 0.2008 0.0
N1015 N 0.60604 0.61613 0.0984 0.0
C1016 C 0.63515 0.62052 0.10019 0.0
C1017 C 0.64211 0.65578 0.15573 0.0
C1018 C 0.61238 0.65071 0.15445 0.0
C1019 C 0.65352 0.64054 0.12844 0.0
C1020 C 0.59466 0.63089 0.12493 0.0
H1021 H 0.51283 0.64889 0.16655 0.0
N1022 N 0.54896 0.60881 0.09339 0.0
C1023 C 0.50694 0.62144 0.11543 0.0
C1024 C 0.56526 0.62636 0.12265 0.0
C1025 C 0.52032 0.60774 0.089 0.0
C1026 C 0.52318 0.63788 0.1462 0.0
C1027 C 0.55277 0.64121 0.14992 0.0
O1028 O 0.54975 0.62211 0.03245 0.0
O1029 O 0.57328 0.55813 0.99516 0.0
O1030 O 0.62379 0.55051 1.00052 0.0
O1031 O 0.61775 0.60064 0.03023 0.0
O1032 O 0.53686 0.57373 1.0057 0.0
O1033 O 0.59613 0.64076 0.04574 0.0
O1034 O 0.6108 0.47879 0.02039 0.0
O1035 O 0.58638 0.54534 0.06525 0.0
O1036 O 0.53516 0.55258 0.05982 0.0
O1037 O 0.54357 0.50203 0.03437 0.0
O1038 O 0.62207 0.52845 0.05554 0.0
O1039 O 0.56366 0.46234 0.01349 0.0
C1040 C 0.54896 0.56062 0.98128 0.0
C1041 C 0.56807 0.68054 0.04067 0.0
C1042 C 0.57758 0.73098 0.01922 0.0
C1043 C 0.586 0.70316 0.02627 0.0
C1044 C 0.55161 0.73707 0.02912 0.0
C1045 C 0.54297 0.68765 0.05196 0.0
C1046 C 0.53497 0.7161 0.04643 0.0
C1047 C 0.63291 0.58305 0.01221 0.0
C1048 C 0.57219 0.64673 0.03494 0.0
C1049 C 0.57022 0.65989 0.17962 0.0
C1050 C 0.59998 0.66481 0.18179 0.0
C1051 C 0.61054 0.54309 0.07966 0.0
C1052 C 0.59028 0.421 0.01974 0.0
C1053 C 0.57042 0.40206 0.03568 0.0
C1054 C 0.57448 0.37201 0.04223 0.0
C1055 C 0.5974 0.35972 0.03012 0.0
C1056 C 0.61329 0.40886 1.0081 0.0
C1057 C 0.61652 0.37797 0.01282 0.0
C1058 C 0.52745 0.51956 0.05077 0.0
C1059 C 0.58806 0.45439 0.01745 0.0
H1060 H 0.60557 0.69751 0.01818 0.0
H1061 H 0.54358 0.75723 0.02265 0.0
H1062 H 0.52871 0.67024 0.06305 0.0
H1063 H 0.51504 0.7209 0.05395 0.0
H1064 H 0.55266 0.41156 0.04439 0.0
H1065 H 0.60117 0.33667 0.0351 0.0
H1066 H 0.62881 0.42336 0.99563 0.0
H1067 H 0.63435 0.36865 1.00398 0.0
Eu1068 Eu 0.85826 0.32161 0.27309 0.0
C1069 C 0.78692 0.22427 0.34024 0.0
C1070 C 0.7922 0.17092 0.30954 0.0
C1071 C 0.78584 0.17852 0.36831 0.0
C1072 C 0.79196 0.20474 0.31111 0.0
C1073 C 0.78238 0.21081 0.36867 0.0
C1074 C 0.79066 0.15853 0.33869 0.0
C1075 C 0.76454 0.25843 0.39241 0.0
N1076 N 0.78229 0.2546 0.33919 0.0
C1077 C 0.76882 0.2702 0.36333 0.0
C1078 C 0.77225 0.2291 0.39557 0.0
Eu1079 Eu 0.79371 0.27584 0.29146 0.0
N1080 N 0.79245 0.21727 0.28323 0.0
C1081 C 0.78977 0.19582 0.25245 0.0
C1082 C 0.79152 0.14978 0.27836 0.0
C1083 C 0.78912 0.16199 0.24962 0.0
H1084 H 0.76149 0.29183 0.35998 0.0
H1085 H 0.78718 0.14548 0.22517 0.0
H1086 H 0.79139 0.13286 0.33806 0.0
H1087 H 0.75488 0.27165 0.41206 0.0
H1088 H 0.78741 0.20375 0.22943 0.0
H1089 H 0.85386 0.44755 0.33897 0.0
H1090 H 0.7912 0.12357 0.27605 0.0
H1091 H 0.87927 0.29727 0.19792 0.0
H1092 H 0.85181 0.38833 0.33333 0.0
H1093 H 0.8917 0.32087 0.14901 0.0
H1094 H 0.78295 0.16799 0.3901 0.0
H1095 H 0.86221 0.47361 0.29087 0.0
H1096 H 0.87256 0.46816 0.2317 0.0
H1097 H 0.76843 0.21961 0.41782 0.0
H1098 H 0.88272 0.43389 0.18019 0.0
N1099 N 0.85874 0.37936 0.2818 0.0
C1100 C 0.85569 0.39869 0.31181 0.0
C1101 C 0.86133 0.44721 0.28804 0.0
C1102 C 0.86544 0.42776 0.25773 0.0
C1103 C 0.85672 0.43265 0.31526 0.0
C1104 C 0.86411 0.39344 0.25528 0.0
H1105 H 0.89011 0.37926 0.14931 0.0
N1106 N 0.86944 0.34143 0.22469 0.0
C1107 C 0.88532 0.33597 0.17036 0.0
C1108 C 0.86968 0.37401 0.22603 0.0
C1109 C 0.87826 0.32271 0.19798 0.0
C1110 C 0.88438 0.36893 0.17064 0.0
C1111 C 0.87693 0.38855 0.19883 0.0
O1112 O 0.89911 0.31017 0.26529 0.0
O1113 O 0.84113 0.27394 0.29196 0.0
O1114 O 0.81865 0.29738 0.34244 0.0
O1115 O 0.85702 0.33441 0.32872 0.0
O1116 O 0.86545 0.26968 0.25385 0.0
O1117 O 0.89774 0.35333 0.3041 0.0
O1118 O 0.75275 0.28839 0.29569 0.0
O1119 O 0.81106 0.32355 0.27296 0.0
O1120 O 0.83022 0.30439 0.22358 0.0
O1121 O 0.79984 0.26024 0.2374 0.0
O1122 O 0.78808 0.32887 0.31255 0.0
O1123 O 0.7551 0.24559 0.25781 0.0
C1124 C 0.85303 0.25277 0.27388 0.0
C1125 C 0.94206 0.35204 0.28261 0.0
C1126 C 0.99333 0.36462 0.29922 0.0
C1127 C 0.96518 0.3548 0.30634 0.0
C1128 C 0.99821 0.37272 0.26831 0.0
C1129 C 0.94705 0.36043 0.25192 0.0
C1130 C 0.97511 0.3709 0.24492 0.0
C1131 C 0.84181 0.32229 0.35062 0.0
C1132 C 0.91366 0.33532 0.28887 0.0
C1133 C 0.87736 0.42238 0.2009 0.0
C1134 C 0.87159 0.44191 0.23025 0.0
C1135 C 0.79975 0.34497 0.29147 0.0
C1136 C 0.71035 0.24644 0.27755 0.0
C1137 C 0.68704 0.24758 0.25618 0.0
C1138 C 0.65925 0.23715 0.26378 0.0
C1139 C 0.65458 0.22509 0.29274 0.0
C1140 C 0.70576 0.23331 0.30597 0.0
C1141 C 0.67788 0.22283 0.31361 0.0
C1142 C 0.81098 0.2757 0.21514 0.0
C1143 C 0.73874 0.26352 0.27174 0.0
H1144 H 0.96123 0.34764 0.32979 0.0
H1145 H 0.01977 0.37926 0.26178 0.0
H1146 H 0.92948 0.35804 0.2331 0.0
H1147 H 0.97895 0.37661 0.22093 0.0
H1148 H 0.69053 0.25806 0.23438 0.0
H1149 H 0.63306 0.21754 0.29911 0.0
H1150 H 0.72352 0.23171 0.32246 0.0
H1151 H 0.67438 0.21346 0.33595 0.0
Eu1152 Eu 0.08639 0.5348 0.56912 0.0
C1153 C 0.0211 0.57061 0.44852 0.0
C1154 C 0.99633 0.51649 0.41308 0.0
C1155 C 0.97711 0.5649 0.41251 0.0
C1156 C 0.01887 0.53658 0.43781 0.0
C1157 C 1.00081 0.58531 0.43501 0.0
C1158 C 0.97489 0.53054 0.40154 0.0
C1159 C 0.0306 0.63976 0.46387 0.0
N1160 N 0.04439 0.58983 0.46991 0.0
C1161 C 0.05 0.62404 0.47678 0.0
C1162 C 1.00568 0.62029 0.44326 0.0
Eu1163 Eu 0.07744 0.56217 0.48881 0.0
N1164 N 0.03997 0.52371 0.44938 0.0
C1165 C 0.04056 0.49135 0.43568 0.0
C1166 C 0.99677 0.48337 0.39933 0.0
C1167 C 0.01926 0.47093 0.4103 0.0
H1168 H 0.06937 0.63905 0.49266 0.0
H1169 H 0.01993 0.44539 0.39964 0.0
H1170 H 0.95712 0.51531 0.3831 0.0
H1171 H 0.03486 0.66684 0.46983 0.0
H1172 H 0.05731 0.48068 0.44378 0.0
H1173 H 0.15115 0.65818 0.64133 0.0
H1174 H 0.98009 0.46733 0.37996 0.0
H1175 H 0.09732 0.45915 0.56704 0.0
H1176 H 0.11139 0.61969 0.60234 0.0
H1177 H 0.13246 0.43339 0.59165 0.0
H1178 H 0.96103 0.57567 0.40238 0.0
H1179 H 0.18692 0.63655 0.67019 0.0
H1180 H 0.20522 0.58746 0.67861 0.0
H1181 H 0.99069 0.63253 0.43321 0.0
H1182 H 0.20069 0.52666 0.66451 0.0
N1183 N 0.12318 0.57515 0.60889 0.0
C1184 C 0.126 0.60908 0.61504 0.0
C1185 C 0.16904 0.61911 0.65338 0.0
C1186 C 0.16627 0.58453 0.64714 0.0
C1187 C 0.14892 0.63139 0.6371 0.0
C1188 C 0.1427 0.56287 0.62476 0.0
H1189 H 0.17392 0.46919 0.6319 0.0
N1190 N 0.11903 0.50889 0.59269 0.0
C1191 C 0.1351 0.46025 0.59867 0.0
C1192 C 0.14053 0.5287 0.61635 0.0
C1193 C 0.11532 0.47489 0.58476 0.0
C1194 C 0.15839 0.48052 0.62149 0.0
C1195 C 0.16127 0.51516 0.63076 0.0
O1196 O 0.05668 0.49404 0.58172 0.0
O1197 O 0.05858 0.53472 0.52451 0.0
O1198 O 0.05107 0.58727 0.52377 0.0
O1199 O 0.069 0.58178 0.57639 0.0
O1200 O 0.05225 0.49011 0.53725 0.0
O1201 O 0.06433 0.54461 0.61334 0.0
O1202 O 0.10528 0.59971 0.46907 0.0
O1203 O 0.10589 0.5618 0.53259 0.0
O1204 O 0.11078 0.50687 0.53426 0.0
O1205 O 0.09448 0.51563 0.48231 0.0
O1206 O 0.11205 0.60668 0.51915 0.0
O1207 O 0.09737 0.54667 0.44452 0.0
C1208 C 0.0415 0.50634 0.51828 0.0
C1209 C 0.04479 0.49781 0.63605 0.0
C1210 C 0.01791 0.49501 0.68255 0.0
C1211 C 0.02721 0.51075 0.65748 0.0
C1212 C 0.02596 0.46588 0.68636 0.0
C1213 C 0.05305 0.46858 0.6395 0.0
C1214 C 0.0435 0.45262 0.66466 0.0
C1215 C 0.0534 0.59457 0.55687 0.0
C1216 C 0.05055 0.51296 0.60791 0.0
C1217 C 0.18442 0.53657 0.65344 0.0
C1218 C 0.18694 0.57117 0.66156 0.0
C1219 C 0.12298 0.59012 0.53766 0.0
C1220 C 0.10926 0.58626 0.41189 0.0
C1221 C 0.13244 0.58356 0.39431 0.0
C1222 C 0.13452 0.59473 0.3648 0.0
C1223 C 0.11297 0.60818 0.35246 0.0
C1224 C 0.08736 0.59908 0.39944 0.0
C1225 C 0.08927 0.61002 0.36967 0.0
C1226 C 0.10853 0.50118 0.50135 0.0
C1227 C 0.10986 0.57758 0.44417 0.0
H1228 H 0.02081 0.53332 0.65481 0.0
H1229 H 0.01915 0.45396 0.70638 0.0
H1230 H 0.06631 0.45781 0.62253 0.0
H1231 H 0.04975 0.4301 0.6674 0.0
H1232 H 0.14939 0.57371 0.40412 0.0
H1233 H 0.11447 0.61705 0.32959 0.0
H1234 H 0.0692 0.60113 0.41286 0.0
H1235 H 0.07257 0.62026 0.36016 0.0
Eu1236 Eu 0.79477 0.81276 0.27939 0.0
C1237 C 0.89493 0.7709 0.34187 0.0
C1238 C 0.91618 0.82148 0.38463 0.0
C1239 C 0.91989 0.76757 0.39423 0.0
C1240 C 0.90038 0.80527 0.35288 0.0
C1241 C 0.90536 0.75177 0.36209 0.0
C1242 C 0.92528 0.80238 0.40548 0.0
C1243 C 0.88936 0.70338 0.31593 0.0
N1244 N 0.88114 0.75639 0.31056 0.0
C1245 C 0.87963 0.72343 0.2968 0.0
C1246 C 0.90183 0.71749 0.34895 0.0
Eu1247 Eu 0.86383 0.79132 0.2796 0.0
N1248 N 0.89136 0.82301 0.33205 0.0
C1249 C 0.89889 0.85742 0.34124 0.0
C1250 C 0.92304 0.85647 0.39423 0.0
C1251 C 0.91467 0.87451 0.37221 0.0
H1252 H 0.87049 0.71247 0.271 0.0
H1253 H 0.91982 0.90164 0.37931 0.0
H1254 H 0.93715 0.81439 0.43001 0.0
H1255 H 0.88741 0.67713 0.30511 0.0
H1256 H 0.89159 0.8724 0.32612 0.0
H1257 H 0.72647 0.70131 0.18964 0.0
H1258 H 0.93509 0.8698 0.41834 0.0
H1259 H 0.78818 0.89115 0.28686 0.0
H1260 H 0.75795 0.73128 0.24044 0.0
H1261 H 0.76882 0.92529 0.25314 0.0
H1262 H 0.92777 0.75322 0.41021 0.0
H1263 H 0.7136 0.73159 0.1478 0.0
H1264 H 0.71528 0.78621 0.13223 0.0
H1265 H 0.90956 0.70197 0.36367 0.0
H1266 H 0.72706 0.84771 0.14947 0.0
N1267 N 0.76448 0.77983 0.22914 0.0
C1268 C 0.75334 0.74577 0.22317 0.0
C1269 C 0.72778 0.74533 0.17045 0.0
C1270 C 0.7378 0.7802 0.17722 0.0
C1271 C 0.7349 0.7282 0.19403 0.0
C1272 C 0.75585 0.79704 0.20745 0.0
H1273 H 0.74595 0.89961 0.19501 0.0
N1274 N 0.77693 0.84679 0.24794 0.0
C1275 C 0.76727 0.8991 0.24245 0.0
C1276 C 0.76238 0.83162 0.21714 0.0
C1277 C 0.77825 0.87972 0.26141 0.0
C1278 C 0.75446 0.88454 0.20966 0.0
C1279 C 0.75117 0.85023 0.19689 0.0
O1280 O 0.77599 0.83896 0.32 0.0
O1281 O 0.83092 0.80516 0.31216 0.0
O1282 O 0.83218 0.74256 0.28437 0.0
O1283 O 0.78898 0.75815 0.28708 0.0
O1284 O 0.81896 0.85041 0.32488 0.0
O1285 O 0.75292 0.78932 0.29328 0.0
O1286 O 0.88521 0.7666 0.24059 0.0
O1287 O 0.82773 0.79939 0.2475 0.0
O1288 O 0.8264 0.86005 0.26911 0.0
O1289 O 0.87014 0.84574 0.27304 0.0
O1290 O 0.83935 0.75496 0.23263 0.0
O1291 O 0.90513 0.81737 0.26651 0.0
C1292 C 0.83461 0.83219 0.33457 0.0
C1293 C 0.72573 0.82536 0.3208 0.0
C1294 C 0.6796 0.81944 0.34302 0.0
C1295 C 0.70443 0.80794 0.337 0.0
C1296 C 0.67665 0.84871 0.33325 0.0
C1297 C 0.72198 0.85438 0.31117 0.0
C1298 C 0.69765 0.86593 0.31739 0.0
C1299 C 0.80425 0.73537 0.28687 0.0
C1300 C 0.75286 0.81508 0.31698 0.0
C1301 C 0.73542 0.83375 0.16554 0.0
C1302 C 0.72872 0.79875 0.15572 0.0
C1303 C 0.82342 0.77335 0.22395 0.0
C1304 C 0.93548 0.78432 0.24143 0.0
C1305 C 0.95428 0.79772 0.22001 0.0
C1306 C 0.98043 0.78839 0.2165 0.0
C1307 C 0.9872 0.76535 0.23407 0.0
C1308 C 0.94308 0.76163 0.25889 0.0
C1309 C 0.96864 0.75206 0.25501 0.0
C1310 C 0.85495 0.86786 0.26963 0.0
C1311 C 0.90714 0.79198 0.24352 0.0
H1312 H 0.70726 0.78582 0.3451 0.0
H1313 H 0.65821 0.85862 0.33841 0.0
H1314 H 0.73813 0.86873 0.29963 0.0
H1315 H 0.69525 0.88864 0.31029 0.0
H1316 H 0.94855 0.81501 0.20607 0.0
H1317 H 1.00686 0.75736 0.23129 0.0
H1318 H 0.92908 0.75089 0.27519 0.0
H1319 H 0.97403 0.73409 0.26818 0.0
Eu1320 Eu 0.84898 0.28435 0.7383 0.0
C1321 C 0.80434 0.38509 0.85182 0.0
C1322 C 0.84773 0.41824 0.88761 0.0
C1323 C 0.80416 0.43753 0.89022 0.0
C1324 C 0.83288 0.38935 0.86301 0.0
C1325 C 0.78949 0.40884 0.86585 0.0
C1326 C 0.83326 0.44231 0.90094 0.0
C1327 C 0.74586 0.3723 0.8339 0.0
N1328 N 0.79056 0.3567 0.82887 0.0
C1329 C 0.7614 0.3494 0.82114 0.0
C1330 C 0.76002 0.40235 0.85615 0.0
Eu1331 Eu 0.81584 0.3146 0.81431 0.0
N1332 N 0.84589 0.36484 0.85073 0.0
C1333 C 0.87395 0.36819 0.86244 0.0
C1334 C 0.87652 0.42179 0.89878 0.0
C1335 C 0.88971 0.39666 0.88598 0.0
H1336 H 0.74991 0.32521 0.8058 0.0
H1337 H 0.91203 0.39904 0.89437 0.0
H1338 H 0.84426 0.46438 0.92004 0.0
H1339 H 0.72285 0.36631 0.82729 0.0
H1340 H 0.88499 0.34978 0.8531 0.0
H1341 H 0.75735 0.20583 0.64544 0.0
H1342 H 0.88865 0.44362 0.91747 0.0
H1343 H 0.91427 0.27173 0.74971 0.0
H1344 H 0.78274 0.25428 0.68765 0.0
H1345 H 0.94012 0.22819 0.73208 0.0
H1346 H 0.79306 0.45588 0.90136 0.0
H1347 H 0.77858 0.15785 0.62904 0.0
H1348 H 0.82021 0.13287 0.63437 0.0
H1349 H 0.74785 0.41979 0.8666 0.0
H1350 H 0.86975 0.13865 0.65809 0.0
N1351 N 0.82008 0.23623 0.6973 0.0
C1352 C 0.79358 0.2348 0.68147 0.0
C1353 C 0.79043 0.17965 0.64795 0.0
C1354 C 0.81777 0.18134 0.66288 0.0
C1355 C 0.77847 0.20669 0.65703 0.0
C1356 C 0.83234 0.21031 0.68761 0.0
H1357 H 0.91461 0.17413 0.69404 0.0
N1358 N 0.87387 0.24183 0.72388 0.0
C1359 C 0.91747 0.22338 0.72366 0.0
C1360 C 0.85998 0.2132 0.70138 0.0
C1361 C 0.90265 0.24784 0.7338 0.0
C1362 C 0.90301 0.19294 0.70219 0.0
C1363 C 0.87408 0.18773 0.6903 0.0
O1364 O 0.88739 0.3097 0.72088 0.0
O1365 O 0.84223 0.3269 0.77563 0.0
O1366 O 0.79137 0.32875 0.7713 0.0
O1367 O 0.80753 0.30048 0.72431 0.0
O1368 O 0.88431 0.32826 0.76701 0.0
O1369 O 0.84537 0.30398 0.69339 0.0
O1370 O 0.77811 0.29123 0.83359 0.0
O1371 O 0.82201 0.27147 0.77688 0.0
O1372 O 0.8719 0.26908 0.78165 0.0
O1373 O 0.85712 0.29792 0.82967 0.0
O1374 O 0.78032 0.26973 0.7879 0.0
O1375 O 0.82051 0.30312 0.86381 0.0
C1376 C 0.86751 0.34423 0.78238 0.0
C1377 C 0.88681 0.32058 0.6667 0.0
C1378 C 0.8949 0.354 0.62548 0.0
C1379 C 0.8802 0.34481 0.65129 0.0
C1380 C 0.91657 0.33851 0.61486 0.0
C1381 C 0.90832 0.30485 0.65619 0.0
C1382 C 0.92313 0.31385 0.63015 0.0
C1383 C 0.78942 0.31733 0.73829 0.0
C1384 C 0.87304 0.31625 0.6962 0.0
C1385 C 0.85932 0.15851 0.66669 0.0
C1386 C 0.83117 0.15526 0.65311 0.0
C1387 C 0.79657 0.25426 0.77099 0.0
C1388 C 0.77792 0.28122 0.88814 0.0
C1389 C 0.79062 0.26345 0.90694 0.0
C1390 C 0.77612 0.25009 0.93075 0.0
C1391 C 0.74919 0.25543 0.9369 0.0
C1392 C 0.75083 0.28663 0.89365 0.0
C1393 C 0.73661 0.27394 0.91837 0.0
C1394 C 0.87485 0.28099 0.81466 0.0
C1395 C 0.79265 0.29239 0.86178 0.0
H1396 H 0.86397 0.35741 0.66016 0.0
H1397 H 0.92805 0.34512 0.59461 0.0
H1398 H 0.91394 0.28629 0.66838 0.0
H1399 H 0.93983 0.30193 0.62198 0.0
H1400 H 0.81118 0.25847 0.90191 0.0
H1401 H 0.73763 0.24437 0.95508 0.0
H1402 H 0.74074 0.30036 0.87881 0.0
H1403 H 0.71563 0.27776 0.92259 0.0
Eu1404 Eu 0.85511 0.85077 0.80078 0.0
C1405 C 0.74761 0.74586 0.73638 0.0
C1406 C 0.71967 0.73514 0.78159 0.0
C1407 C 0.69663 0.7175 0.72456 0.0
C1408 C 0.74628 0.74719 0.77031 0.0
C1409 C 0.72264 0.73015 0.71318 0.0
C1410 C 0.695 0.72063 0.7586 0.0
C1411 C 0.75096 0.73683 0.66832 0.0
N1412 N 0.77338 0.75715 0.72576 0.0
C1413 C 0.77507 0.75206 0.69182 0.0
C1414 C 0.72466 0.72579 0.67899 0.0
Eu1415 Eu 0.81399 0.76618 0.76694 0.0
N1416 N 0.77086 0.7587 0.7921 0.0
C1417 C 0.76986 0.75741 0.82489 0.0
C1418 C 0.71871 0.73643 0.81562 0.0
C1419 C 0.74402 0.74757 0.83737 0.0
H1420 H 0.79525 0.75635 0.6818 0.0
H1421 H 0.74386 0.747 0.86354 0.0
H1422 H 0.67468 0.71059 0.76683 0.0
H1423 H 0.75299 0.73219 0.64184 0.0
H1424 H 0.78862 0.76163 0.84146 0.0
H1425 H 0.92868 0.87053 0.70853 0.0
H1426 H 0.69872 0.72755 0.8251 0.0
H1427 H 0.87084 0.85941 0.88698 0.0
H1428 H 0.8832 0.85094 0.72813 0.0
H1429 H 0.91084 0.88811 0.92901 0.0
H1430 H 0.67763 0.70452 0.7073 0.0
H1431 H 0.97165 0.8975 0.74966 0.0
H1432 H 0.992 0.92088 0.80918 0.0
H1433 H 0.70629 0.71292 0.66052 0.0
H1434 H 0.98538 0.92895 0.86823 0.0
N1435 N 0.89964 0.8584 0.77869 0.0
C1436 C 0.90167 0.85832 0.74581 0.0
C1437 C 0.9518 0.8861 0.75802 0.0
C1438 C 0.94953 0.88828 0.79197 0.0
C1439 C 0.92769 0.87084 0.73478 0.0
C1440 C 0.92313 0.87294 0.80176 0.0
H1441 H 0.95701 0.91456 0.91299 0.0
N1442 N 0.89442 0.86162 0.84453 0.0
C1443 C 0.91404 0.88405 0.90286 0.0
C1444 C 0.92033 0.87529 0.8355 0.0
C1445 C 0.89136 0.86607 0.87816 0.0
C1446 C 0.94002 0.89903 0.89374 0.0
C1447 C 0.94344 0.89489 0.85991 0.0
O1448 O 0.85574 0.89205 0.84271 0.0
O1449 O 0.812 0.81525 0.79885 0.0
O1450 O 0.82432 0.79422 0.72491 0.0
O1451 O 0.83904 0.85159 0.74756 0.0
O1452 O 0.81214 0.86059 0.78751 0.0
O1453 O 0.86927 0.90239 0.7961 0.0
O1454 O 0.8128 0.72595 0.72386 0.0
O1455 O 0.85687 0.80193 0.76856 0.0
O1456 O 0.84383 0.82241 0.84219 0.0
O1457 O 0.83224 0.76519 0.8192 0.0
O1458 O 0.85728 0.75694 0.78015 0.0
O1459 O 0.79847 0.71373 0.76916 0.0
C1460 C 0.79583 0.83325 0.79182 0.0
C1461 C 0.85695 0.94571 0.83407 0.0
C1462 C 0.83332 0.98463 0.81569 0.0
C1463 C 0.83935 0.95319 0.81011 0.0
C1464 C 0.84557 1.00893 0.84499 0.0
C1465 C 0.86738 0.96892 0.86447 0.0
C1466 C 0.86218 1.0008 0.86952 0.0
C1467 C 0.8297 0.8257 0.72167 0.0
C1468 C 0.86625 0.91488 0.82703 0.0
C1469 C 0.96874 0.91172 0.84999 0.0
C1470 C 0.97219 0.90764 0.81625 0.0
C1471 C 0.87339 0.78433 0.77551 0.0
C1472 C 0.81102 0.67176 0.72978 0.0
C1473 C 0.83217 0.66686 0.75136 0.0
C1474 C 0.84074 0.63703 0.74472 0.0
C1475 C 0.82872 0.6122 0.71559 0.0
C1476 C 0.79893 0.64727 0.70044 0.0
C1477 C 0.80792 0.61754 0.69333 0.0
C1478 C 0.84046 0.79103 0.84529 0.0
C1479 C 0.80131 0.70224 0.73793 0.0
H1480 H 0.82998 0.9343 0.7874 0.0
H1481 H 0.84168 0.03372 0.84929 0.0
H1482 H 0.87987 0.96231 0.88379 0.0
H1483 H 0.87085 0.01943 0.89216 0.0
H1484 H 0.84182 0.68623 0.77367 0.0
H1485 H 0.83512 0.5888 0.71034 0.0
H1486 H 0.78254 0.65109 0.68326 0.0
H1487 H 0.79863 0.59856 0.67082 0.0
Eu1488 Eu 0.54648 0.52623 0.50648 0.0
C1489 C 0.6373 0.65177 0.58384 0.0
C1490 C 0.65161 0.67928 0.53929 0.0
C1491 C 0.66268 0.71093 0.5969 0.0
C1492 C 0.63855 0.65022 0.55011 0.0
C1493 C 0.64904 0.68234 0.60749 0.0
C1494 C 0.66409 0.70936 0.56287 0.0
C1495 C 0.63539 0.65398 0.65124 0.0
N1496 N 0.62461 0.6236 0.59363 0.0
C1497 C 0.62494 0.62408 0.62709 0.0
C1498 C 0.64692 0.68339 0.64126 0.0
Eu1499 Eu 0.61106 0.57292 0.55135 0.0
N1500 N 0.62584 0.6209 0.52781 0.0
C1501 C 0.62505 0.61969 0.49422 0.0
C1502 C 0.65135 0.67755 0.50503 0.0
C1503 C 0.63765 0.64769 0.48241 0.0
H1504 H 0.61751 0.60123 0.63549 0.0
H1505 H 0.63665 0.64619 0.45575 0.0
H1506 H 0.67449 0.7317 0.555 0.0
H1507 H 0.63485 0.65421 0.67753 0.0
H1508 H 0.61389 0.59775 0.47595 0.0
H1509 H 0.51529 0.45343 0.60109 0.0
H1510 H 0.66109 0.69928 0.49581 0.0
H1511 H 0.5468 0.49543 0.42229 0.0
H1512 H 0.53981 0.50167 0.58187 0.0
H1513 H 0.53614 0.44188 0.38223 0.0
H1514 H 0.6722 0.73441 0.61486 0.0
H1515 H 0.4937 0.3997 0.56062 0.0
H1516 H 0.4846 0.36648 0.50167 0.0
H1517 H 0.65446 0.70683 0.65969 0.0
H1518 H 0.49149 0.36295 0.44267 0.0
N1519 N 0.53148 0.47792 0.52985 0.0
C1520 C 0.52985 0.47949 0.56324 0.0
C1521 C 0.50435 0.42131 0.55177 0.0
C1522 C 0.50695 0.41906 0.51789 0.0
C1523 C 0.51633 0.45155 0.5746 0.0
C1524 C 0.52104 0.44803 0.50755 0.0
H1525 H 0.51258 0.39005 0.39871 0.0
N1526 N 0.53747 0.47449 0.46488 0.0
C1527 C 0.53274 0.44257 0.40804 0.0
C1528 C 0.52467 0.44612 0.47431 0.0
C1529 C 0.54007 0.47305 0.43159 0.0
C1530 C 0.51956 0.41346 0.41744 0.0
C1531 C 0.51467 0.41508 0.45065 0.0
O1532 O 0.51425 0.52165 0.46499 0.0
O1533 O 0.56918 0.58099 0.52971 0.0
O1534 O 0.57889 0.57812 0.59091 0.0
O1535 O 0.53543 0.54716 0.56067 0.0
O1536 O 0.55418 0.56795 0.47916 0.0
O1537 O 0.50306 0.5292 0.51622 0.0
O1538 O 0.64189 0.56891 0.59037 0.0
O1539 O 0.58797 0.51886 0.52805 0.0
O1540 O 0.57882 0.52759 0.46708 0.0
O1541 O 0.62298 0.5516 0.49814 0.0
O1542 O 0.60141 0.53099 0.57892 0.0
O1543 O 0.6556 0.57495 0.5418 0.0
C1544 C 0.56441 0.59303 0.50411 0.0
C1545 C 0.4657 0.52413 0.47116 0.0
C1546 C 0.42114 0.53924 0.4803 0.0
C1547 C 0.44746 0.53547 0.49299 0.0
C1548 C 0.41311 0.53154 0.44558 0.0
C1549 C 0.45703 0.51505 0.43646 0.0
C1550 C 0.4307 0.51877 0.42375 0.0
C1551 C 0.55073 0.56572 0.58964 0.0
C1552 C 0.49472 0.52507 0.48443 0.0
C1553 C 0.49988 0.38666 0.46067 0.0
C1554 C 0.49591 0.38869 0.49421 0.0
C1555 C 0.59102 0.5064 0.55353 0.0
C1556 C 0.69157 0.57249 0.58537 0.0
C1557 C 0.70996 0.5609 0.5638 0.0
C1558 C 0.73731 0.56004 0.57673 0.0
C1559 C 0.74611 0.57081 0.61137 0.0
C1560 C 0.70066 0.58366 0.6199 0.0
C1561 C 0.72793 0.58287 0.6328 0.0
C1562 C 0.6072 0.53641 0.4687 0.0
C1563 C 0.66268 0.57223 0.57212 0.0
H1564 H 0.45403 0.54235 0.51981 0.0
H1565 H 0.3936 0.53625 0.43552 0.0
H1566 H 0.47089 0.50606 0.41917 0.0
H1567 H 0.42428 0.51262 0.39699 0.0
H1568 H 0.70296 0.55225 0.53711 0.0
H1569 H 0.76689 0.56938 0.62182 0.0
H1570 H 0.68667 0.5929 0.63686 0.0
H1571 H 0.73486 0.59126 0.65944 0.0
Eu1572 Eu 0.11536 0.5544 1.00601 0.0
C1573 C 0.01681 0.49782 0.08299 0.0
C1574 C 0.98463 0.45538 0.03865 0.0
C1575 C 0.98528 0.44934 0.09611 0.0
C1576 C 1.00662 0.48529 0.04917 0.0
C1577 C 1.00566 0.48032 0.10683 0.0
C1578 C 0.97471 0.43697 0.06212 0.0
C1579 C 0.03264 0.52739 0.15047 0.0
N1580 N 0.03597 0.52825 0.09285 0.0
C1581 C 0.04286 0.54397 0.12596 0.0
C1582 C 0.01433 0.49519 0.14087 0.0
Eu1583 Eu 0.05081 0.55454 0.04961 0.0
N1584 N 0.01659 0.5035 0.02689 0.0
C1585 C 1.0042 0.4946 0.99446 0.0
C1586 C 0.97223 0.44572 1.00515 0.0
C1587 C 0.98155 0.46591 0.98316 0.0
H1588 H 0.05676 0.56906 0.13327 0.0
H1589 H 0.97209 0.45875 0.95721 0.0
H1590 H 0.95815 0.41371 0.0544 0.0
H1591 H 0.03868 0.53954 0.17671 0.0
H1592 H 0.01258 0.50875 0.97697 0.0
H1593 H 0.19125 0.65783 0.09649 0.0
H1594 H 0.95511 0.42312 0.99619 0.0
H1595 H 0.11044 0.54011 0.92248 0.0
H1596 H 0.15827 0.60268 0.07733 0.0
H1597 H 0.12525 0.57019 0.87864 0.0
H1598 H 0.97671 0.43539 0.11406 0.0
H1599 H 0.20221 0.69503 0.05748 0.0
H1600 H 0.19733 0.70287 0.99899 0.0
H1601 H 1.00619 0.48256 0.15992 0.0
H1602 H 0.1793 0.67905 0.93949 0.0
N1603 N 0.14846 0.60788 0.02735 0.0
C1604 C 0.16202 0.61818 0.05958 0.0
C1605 C 0.18715 0.67071 0.04877 0.0
C1606 C 0.17473 0.6594 0.01539 0.0
C1607 C 0.18112 0.64975 0.0708 0.0
C1608 C 0.1552 0.62746 1.00526 0.0
H1609 H 0.15283 0.62951 0.89438 0.0
N1610 N 0.12765 0.58263 0.96272 0.0
C1611 C 0.13047 0.58314 0.90475 0.0
C1612 C 0.14459 0.61436 0.97188 0.0
C1613 C 0.12194 0.56629 0.92969 0.0
C1614 C 0.14595 0.61661 0.91373 0.0
C1615 C 0.15386 0.63241 0.94761 0.0
O1616 O 0.13462 0.52201 0.97235 0.0
O1617 O 0.07412 0.52253 0.01658 0.0
O1618 O 0.07931 0.53548 0.08086 0.0
O1619 O 0.12282 0.55388 0.06082 0.0
O1620 O 0.09929 0.49805 0.98786 0.0
O1621 O 0.15483 0.54202 0.02423 0.0
O1622 O 0.03563 0.59563 0.07791 0.0
O1623 O 0.08895 0.58643 0.03377 0.0
O1624 O 0.07843 0.55149 0.96727 0.0
O1625 O 0.05067 0.57513 1.00366 0.0
O1626 O 0.08147 0.60106 0.08296 0.0
O1627 O 1.00798 0.56023 0.03577 0.0
C1628 C 0.07672 0.4932 1.00251 0.0
C1629 C 0.18179 0.51606 0.98381 0.0
C1630 C 0.22003 0.48837 0.99039 0.0
C1631 C 0.19793 0.50138 1.00331 0.0
C1632 C 0.22636 0.49045 0.95808 0.0
C1633 C 0.18848 0.51842 0.95155 0.0
C1634 C 0.21074 0.50565 0.93883 0.0
C1635 C 0.10727 0.54285 0.08315 0.0
C1636 C 0.15512 0.52258 0.99507 0.0
C1637 C 0.17212 0.6648 0.95776 0.0
C1638 C 0.18244 0.67833 0.99162 0.0
C1639 C 0.09675 0.60997 0.0601 0.0
C1640 C 0.98604 0.59481 0.07347 0.0
C1641 C 0.96611 0.60603 0.05483 0.0
C1642 C 0.94301 0.61576 0.06938 0.0
C1643 C 0.94043 0.61455 0.10296 0.0
C1644 C 0.98275 0.59322 0.10668 0.0
C1645 C 0.96005 0.60317 0.12133 0.0
C1646 C 0.05601 0.56365 0.97338 0.0
C1647 C 1.01127 0.58774 0.05856 0.0
H1648 H 0.19243 0.4986 0.02784 0.0
H1649 H 0.24315 0.47994 0.94768 0.0
H1650 H 0.17591 0.52899 0.93575 0.0
H1651 H 0.21547 0.50682 0.91374 0.0
H1652 H 0.96873 0.60744 0.02917 0.0
H1653 H 0.92339 0.62285 0.11518 0.0
H1654 H 0.99802 0.58495 0.12146 0.0
H1655 H 0.95784 0.60247 0.14716 0.0
C1656 C 0.05927 0.17023 0.96899 0.0
C1657 C 0.0455 0.18822 0.99285 0.0
C1658 C 0.06691 0.14036 0.97314 0.0
C1659 C 0.06201 0.12687 1.00173 0.0
H1660 H 0.06418 0.17921 0.94673 0.0
H1661 H 0.07657 0.12735 0.95331 0.0
S1662 S 0.02359 0.16125 0.07002 0.0
N1663 N 0.02527 0.18782 0.04529 0.0
N1664 N 0.0401 0.13291 0.05291 0.0
C1665 C 0.04802 0.14429 0.02557 0.0
C1666 C 0.0398 0.17445 0.02121 0.0
C1667 C 0.23323 0.80376 0.15942 0.0
C1668 C 0.21256 0.82104 0.17042 0.0
C1669 C 0.25647 0.80197 0.18127 0.0
C1670 C 0.26075 0.81706 0.21592 0.0
H1671 H 0.23144 0.791 0.13338 0.0
H1672 H 0.27106 0.78793 0.17049 0.0
S1673 S 0.21387 0.86767 0.25764 0.0
N1674 N 0.19849 0.85475 0.21848 0.0
N1675 N 0.24244 0.85241 0.25917 0.0
C1676 C 0.24062 0.83535 0.22714 0.0
C1677 C 0.21665 0.83709 0.20466 0.0
C1678 C 0.53305 0.90917 0.4682 0.0
C1679 C 0.54319 0.88581 0.4832 0.0
C1680 C 0.54466 0.94423 0.479 0.0
C1681 C 0.56547 0.95832 0.50706 0.0
H1682 H 0.51681 0.90033 0.44658 0.0
H1683 H 0.53852 0.96017 0.46384 0.0
S1684 S 0.60232 0.90914 0.55333 0.0
N1685 N 0.57824 0.88007 0.52559 0.0
N1686 N 0.59794 0.94551 0.5477 0.0
C1687 C 0.57611 0.93532 0.52216 0.0
C1688 C 0.56534 0.89944 0.51013 0.0
C1689 C 0.52093 0.3141 0.64771 0.0
C1690 C 0.5499 0.32055 0.66158 0.0
C1691 C 0.49822 0.30521 0.66634 0.0
C1692 C 0.50362 0.30246 0.69955 0.0
H1693 H 0.51563 0.31462 0.62182 0.0
H1694 H 0.47637 0.2987 0.65411 0.0
S1695 S 0.57502 0.32126 0.74927 0.0
N1696 N 0.58227 0.32685 0.71197 0.0
N1697 N 0.53972 0.31032 0.74667 0.0
C1698 C 0.5323 0.31095 0.71434 0.0
C1699 C 0.55538 0.31993 0.69548 0.0
C1700 C 0.022 0.81124 0.58048 0.0
C1701 C 0.03595 0.8194 0.61333 0.0
C1702 C 0.03114 0.83149 0.55832 0.0
C1703 C 0.05391 0.86032 0.569 0.0
H1704 H 1.00598 0.78773 0.57109 0.0
H1705 H 0.02193 0.82334 0.53226 0.0
S1706 S 0.09346 0.89484 0.65418 0.0
N1707 N 0.07063 0.8599 0.6567 0.0
N1708 N 0.08742 0.89835 0.61519 0.0
C1709 C 0.06568 0.87049 0.6027 0.0
C1710 C 0.05673 0.84979 0.62495 0.0
C1711 C 0.54777 0.86525 0.86591 0.0
C1712 C 0.56578 0.84621 0.85079 0.0
C1713 C 0.5254 0.87153 0.84662 0.0
C1714 C 0.52063 0.8592 0.81174 0.0
H1715 H 0.55132 0.87598 0.89263 0.0
H1716 H 0.5119 0.88632 0.85893 0.0
S1717 S 0.55869 0.80384 0.76101 0.0
N1718 N 0.57528 0.81211 0.79946 0.0
N1719 N 0.53325 0.82427 0.76337 0.0
C1720 C 0.53762 0.83905 0.79658 0.0
C1721 C 0.56022 0.83246 0.81611 0.0
C1722 C 0.50578 0.13655 0.11105 0.0
C1723 C 0.51017 0.16726 0.10141 0.0
C1724 C 0.52243 0.11414 0.10048 0.0
C1725 C 0.54393 0.12215 0.08024 0.0
H1726 H 0.48919 0.12971 0.1265 0.0
H1727 H 0.5179 0.09022 0.10743 0.0
S1728 S 0.56926 0.203 0.05649 0.0
N1729 N 0.54078 0.20679 0.07533 0.0
N1730 N 0.57288 0.16506 0.05714 0.0
C1731 C 0.55021 0.15386 0.07305 0.0
C1732 C 0.53299 0.17634 0.08307 0.0
C1733 C 0.25444 0.34947 0.36225 0.0
C1734 C 0.22619 0.34198 0.34649 0.0
C1735 C 0.27689 0.34647 0.34355 0.0
C1736 C 0.27189 0.33578 0.30855 0.0
H1737 H 0.25939 0.3579 0.3892 0.0
H1738 H 0.29837 0.35241 0.35661 0.0
S1739 S 0.20216 0.31172 0.25509 0.0
N1740 N 0.19434 0.32223 0.29361 0.0
N1741 N 0.23732 0.31725 0.25856 0.0
C1742 C 0.24399 0.32802 0.2923 0.0
C1743 C 0.22089 0.33084 0.31131 0.0
C1744 C 0.03945 0.06779 0.18261 0.0
C1745 C 0.01233 0.07496 0.18745 0.0
C1746 C 0.05161 0.06629 0.15175 0.0
C1747 C 0.0377 0.07123 0.12228 0.0
H1748 H 0.05189 0.06298 0.20321 0.0
H1749 H 0.0722 0.06025 0.1509 0.0
S1750 S 0.9669 0.09267 0.11938 0.0
N1751 N 0.97263 0.08879 0.15834 0.0
N1752 N 0.99471 0.08492 0.10096 0.0
C1753 C 1.01059 0.07865 0.12637 0.0
C1754 C 0.9983 0.08082 0.15834 0.0
C1755 C 0.28175 0.66393 0.44466 0.0
C1756 C 0.30127 0.67924 0.47363 0.0
C1757 C 0.27325 0.68326 0.42399 0.0
C1758 C 0.28419 0.71814 0.43197 0.0
H1759 H 0.2707 0.6376 0.44 0.0
H1760 H 0.25635 0.67131 0.40338 0.0
S1761 S 0.33852 0.76898 0.50281 0.0
N1762 N 0.33344 0.73011 0.50759 0.0
N1763 N 0.31772 0.76681 0.46825 0.0
C1764 C 0.30586 0.73321 0.45893 0.0
C1765 C 0.31441 0.71351 0.48 0.0
C1766 C 0.63502 0.05992 0.67134 0.0
C1767 C 0.65811 0.04493 0.6671 0.0
C1768 C 0.61515 0.05733 0.64399 0.0
C1769 C 0.61823 0.0398 0.61226 0.0
H1770 H 0.63335 0.07549 0.69523 0.0
H1771 H 0.59904 0.07148 0.64715 0.0
S1772 S 0.67226 0.99233 0.58889 0.0
N1773 N 0.68039 1.00809 0.62948 0.0
N1774 N 0.64377 1.00495 0.57815 0.0
C1775 C 0.63966 0.02253 0.60825 0.0
C1776 C 0.65949 0.02459 0.63584 0.0
C1777 C 0.36666 0.37497 0.92479 0.0
C1778 C 0.35225 0.35308 0.94314 0.0
C1779 C 0.36125 0.36815 0.88977 0.0
C1780 C 0.34324 0.33774 0.87108 0.0
H1781 H 0.38148 0.39843 0.93776 0.0
H1782 H 0.37093 0.38731 0.87722 0.0
S1783 S 0.29611 0.27448 0.90686 0.0
N1784 N 0.31528 0.30202 0.94009 0.0
N1785 N 0.30739 0.28766 0.87384 0.0
C1786 C 0.32793 0.31584 0.88902 0.0
C1787 C 0.33209 0.32376 0.92509 0.0
C1788 C 1.0003 0.08121 0.40768 0.0
C1789 C 1.01052 0.06862 0.37743 0.0
C1790 C 0.01208 0.07846 0.44002 0.0
C1791 C 0.03554 0.06367 0.44526 0.0
H1792 H 0.98218 0.09223 0.40642 0.0
H1793 H 1.00225 0.08806 0.46148 0.0
S1794 S 0.07311 0.03014 0.37535 0.0
N1795 N 0.04715 0.04171 0.35613 0.0
N1796 N 0.07012 0.03975 0.41569 0.0
C1797 C 0.04697 0.05282 0.41542 0.0
C1798 C 0.03435 0.05441 0.38235 0.0
C1799 C 0.31804 0.71308 0.63768 0.0
C1800 C 0.28941 0.7012 0.62261 0.0
C1801 C 0.32579 0.73877 0.66635 0.0
C1802 C 0.30528 0.75373 0.68119 0.0
H1803 H 0.33467 0.70183 0.62794 0.0
H1804 H 0.34779 0.7453 0.67791 0.0
S1805 S 0.22777 0.73408 0.64989 0.0
N1806 N 0.24063 0.70785 0.6232 0.0
N1807 N 0.2554 0.75675 0.67746 0.0
C1808 C 0.27676 0.74339 0.66551 0.0
C1809 C 0.26877 0.71696 0.63614 0.0
C1810 C 0.66982 0.0621 0.79752 0.0
C1811 C 0.69897 0.07317 0.81109 0.0
C1812 C 0.64844 0.06903 0.81683 0.0
C1813 C 0.6556 0.08606 0.85046 0.0
H1814 H 0.6635 0.04956 0.77141 0.0
H1815 H 0.62631 0.06165 0.80534 0.0
S1816 S 0.72765 0.11302 0.8996 0.0
N1817 N 0.73336 0.09769 0.86109 0.0
N1818 N 0.69276 0.10904 0.89809 0.0
C1819 C 0.68422 0.09426 0.86516 0.0
C1820 C 0.70608 0.08819 0.84526 0.0
C1821 C 0.33535 0.32073 0.13132 0.0
C1822 C 0.33441 0.35212 0.12495 0.0
C1823 C 0.33062 0.31342 0.16255 0.0
C1824 C 0.32546 0.33736 0.18924 0.0
H1825 H 0.34043 0.30173 0.11229 0.0
H1826 H 0.33236 0.28919 0.16614 0.0
S1827 S 0.31439 0.42045 0.18393 0.0
N1828 N 0.32293 0.40535 0.14672 0.0
N1829 N 0.31529 0.39177 0.20575 0.0
C1830 C 0.32266 0.36801 0.18276 0.0
C1831 C 0.32689 0.37535 0.15064 0.0
C1832 C 0.28287 1.0035 0.05458 0.0
C1833 C 0.28996 1.00584 0.0226 0.0
C1834 C 0.26639 0.02359 0.0706 0.0
C1835 C 0.2564 0.04599 0.05469 0.0
H1836 H 0.29126 0.9873 0.06789 0.0
H1837 H 0.2615 0.02173 0.09552 0.0
S1838 S 0.26571 0.05703 0.96882 0.0
N1839 N 0.2841 0.0295 0.97431 0.0
N1840 N 0.25171 0.06648 1.00392 0.0
C1841 C 0.26178 0.0468 0.02179 0.0
C1842 C 0.27907 0.02687 1.00582 0.0
C1843 C 0.71197 0.62737 0.03616 0.0
C1844 C 0.71895 0.64307 1.00976 0.0
C1845 C 0.6848 0.60595 0.03535 0.0
C1846 C 0.66286 0.60042 1.0088 0.0
H1847 H 0.72755 0.63229 0.05809 0.0
H1848 H 0.68083 0.59435 0.05625 0.0
S1849 S 0.67091 0.63213 0.93154 0.0
N1850 N 0.7026 0.64848 0.95436 0.0
N1851 N 0.65092 0.60956 0.95372 0.0
C1852 C 0.66995 0.6144 0.98133 0.0
C1853 C 0.69808 0.63551 0.98167 0.0
C1854 C 0.7677 0.42587 0.30266 0.0
C1855 C 0.75207 0.42406 0.27126 0.0
C1856 C 0.78369 0.40163 0.30816 0.0
C1857 C 0.78656 0.37401 0.2827 0.0
H1858 H 0.7665 0.44532 0.32389 0.0
H1859 H 0.7936 0.40428 0.33337 0.0
S1860 S 0.75056 0.35632 0.19551 0.0
N1861 N 0.74123 0.39035 0.21404 0.0
N1862 N 0.77128 0.34734 0.22426 0.0
C1863 C 0.77177 0.37245 0.2511 0.0
C1864 C 0.75488 0.39647 0.24559 0.0
C1865 C 0.97662 0.53366 0.54598 0.0
C1866 C 0.95512 0.5161 0.51961 0.0
C1867 C 1.00393 0.52822 0.54618 0.0
C1868 C 1.01118 0.50609 0.51953 0.0
H1869 H 0.97231 0.55151 0.56682 0.0
H1870 H 0.01944 0.5415 0.56756 0.0
S1871 S 0.96036 0.44553 0.4513 0.0
N1872 N 0.94128 0.4702 0.46977 0.0
N1873 N 0.99303 0.45966 0.4718 0.0
C1874 C 0.98935 0.48581 0.49502 0.0
C1875 C 0.96131 0.49131 0.49439 0.0
C1876 C 0.40046 0.1497 0.31108 0.0
C1877 C 0.39224 0.12012 0.32234 0.0
C1878 C 0.38379 0.15538 0.28487 0.0
C1879 C 0.3585 0.13153 0.26907 0.0
H1880 H 0.42032 0.16812 0.32196 0.0
H1881 H 0.39102 0.17832 0.27644 0.0
S1882 S 0.32639 0.05086 0.29031 0.0
N1883 N 0.35625 0.06702 0.31649 0.0
N1884 N 0.3248 0.07847 0.26743 0.0
C1885 C 0.3494 0.10236 0.28069 0.0
C1886 C 0.36626 0.0965 0.30745 0.0
C1887 C 0.38539 0.13679 0.50882 0.0
C1888 C 0.38559 0.16915 0.5268 0.0
C1889 C 0.40485 0.11957 0.51925 0.0
C1890 C 0.42448 0.13396 0.5484 0.0
H1891 H 0.36983 0.12456 0.48691 0.0
H1892 H 0.4038 0.09442 0.50528 0.0
S1893 S 0.4346 0.21846 0.60324 0.0
N1894 N 0.4082 0.2155 0.57399 0.0
N1895 N 0.44408 0.18267 0.59402 0.0
C1896 C 0.42554 0.16662 0.56587 0.0
C1897 C 0.40624 0.18438 0.55492 0.0
C1898 C 0.76625 0.64094 0.25192 0.0
C1899 C 0.75456 0.62913 0.27916 0.0
C1900 C 0.78289 0.67437 0.25508 0.0
C1901 C 0.78839 0.69887 0.28553 0.0
H1902 H 0.76202 0.62414 0.22735 0.0
H1903 H 0.79072 0.68144 0.23293 0.0
S1904 S 0.7627 0.68286 0.36501 0.0
N1905 N 0.75027 0.6461 0.33829 0.0
N1906 N 0.78044 0.70853 0.34384 0.0
C1907 C 0.77699 0.68769 0.31312 0.0
C1908 C 0.76049 0.65321 0.3101 0.0
C1909 C 0.86036 0.4328 0.79731 0.0
C1910 C 0.88906 0.45073 0.80443 0.0
C1911 C 0.85333 0.39794 0.79122 0.0
C1912 C 0.87487 0.38057 0.79303 0.0
H1913 H 0.84352 0.44556 0.79451 0.0
H1914 H 0.83105 0.38461 0.78394 0.0
S1915 S 0.9529 0.4173 0.81532 0.0
N1916 N 0.93898 0.44971 0.81554 0.0
N1917 N 0.92552 0.38391 0.8055 0.0
C1918 C 0.90347 0.39858 0.80225 0.0
C1919 C 0.91065 0.43392 0.80783 0.0
C1920 C 0.13495 0.94064 0.05247 0.0
C1921 C 0.12003 0.91529 0.06746 0.0
C1922 C 0.1229 0.96667 0.04501 0.0
C1923 C 0.09523 0.96933 0.05227 0.0
H1924 H 0.15664 0.94105 0.0472 0.0
H1925 H 0.13603 0.98586 0.03486 0.0
S1926 S 0.04663 0.90934 0.09083 0.0
N1927 N 0.07513 0.89415 0.08752 0.0
N1928 N 0.05376 0.9435 0.07597 0.0
C1929 C 0.0801 0.94389 0.06684 0.0
C1930 C 0.09203 0.91691 0.07363 0.0
C1931 C 0.92078 0.23619 0.86183 0.0
C1932 C 0.94586 0.26138 0.87727 0.0
C1933 C 0.89838 0.24265 0.84175 0.0
C1934 C 0.89942 0.27478 0.83606 0.0
H1935 H 0.91828 0.21089 0.86523 0.0
H1936 H 0.87986 0.22219 0.83076 0.0
S1937 S 0.96093 0.34958 0.86808 0.0
N1938 N 0.97041 0.31999 0.88379 0.0
N1939 N 0.9293 0.33171 0.84569 0.0
C1940 C 0.9247 0.30008 0.8505 0.0
C1941 C 0.94751 0.29354 0.87109 0.0
C1942 C 0.61801 0.19874 0.53422 0.0
C1943 C 0.61349 0.22136 0.56278 0.0
C1944 C 0.61042 0.16347 0.531 0.0
C1945 C 0.59991 0.14902 0.55709 0.0
H1946 H 0.62736 0.20827 0.51395 0.0
H1947 H 0.6127 0.1475 0.50776 0.0
S1948 S 0.57728 0.19615 0.6334 0.0
N1949 N 0.59188 0.22554 0.61439 0.0
N1950 N 0.5803 0.16056 0.60997 0.0
C1951 C 0.59354 0.17131 0.58477 0.0
C1952 C 0.59987 0.20695 0.58728 0.0
C1953 C 0.64142 0.78984 0.4129 0.0
C1954 C 0.6122 0.78382 0.40036 0.0
C1955 C 0.66335 0.79902 0.3934 0.0
C1956 C 0.65685 0.8025 0.36065 0.0
H1957 H 0.64755 0.78886 0.43846 0.0
H1958 H 0.68547 0.80526 0.40467 0.0
S1959 S 0.58424 0.78451 0.31403 0.0
N1960 N 0.57829 0.77829 0.35148 0.0
N1961 N 0.61943 0.7954 0.31515 0.0
C1962 C 0.62787 0.79424 0.34704 0.0
C1963 C 0.60558 0.78494 0.36678 0.0
C1964 C 0.09925 0.29451 0.46303 0.0
C1965 C 0.1253 0.29019 0.4524 0.0
C1966 C 0.08497 0.27428 0.48256 0.0
C1967 C 0.09673 0.2497 0.49263 0.0
H1968 H 0.09025 0.3142 0.45698 0.0
H1969 H 0.06492 0.27843 0.4904 0.0
S1970 S 0.16391 0.22765 0.46802 0.0
N1971 N 0.16146 0.2588 0.45024 0.0
N1972 N 0.1355 0.221 0.48809 0.0
C1973 C 0.12235 0.24431 0.48054 0.0
C1974 C 0.13652 0.26467 0.46019 0.0
C1975 C 0.60247 0.221 0.19052 0.0
C1976 C 0.58941 0.24762 0.19973 0.0
C1977 C 0.62521 0.21768 0.21155 0.0
C1978 C 0.63541 0.2409 0.24216 0.0
H1979 H 0.59442 0.20197 0.1676 0.0
H1980 H 0.63457 0.19663 0.20415 0.0
S1981 S 0.61206 0.31794 0.27471 0.0
N1982 N 0.59059 0.29962 0.23941 0.0
N1983 N 0.6336 0.29328 0.27889 0.0
C1984 C 0.62373 0.26856 0.25074 0.0
C1985 C 0.60059 0.27195 0.22945 0.0
C1986 C 0.62908 0.92215 0.9627 0.0
C1987 C 0.6477 0.9338 0.94044 0.0
C1988 C 0.6169 0.94399 0.984 0.0
C1989 C 0.62306 0.97803 0.98364 0.0
H1990 H 0.62255 0.89569 0.96241 0.0
H1991 H 0.60146 0.93392 0.99942 0.0
S1992 S 0.67486 0.02227 0.93567 0.0
N1993 N 0.67471 0.9823 0.92298 0.0
N1994 N 0.65199 0.02359 0.96354 0.0
C1995 C 0.64326 0.9905 0.96358 0.0
C1996 C 0.65556 0.96827 0.94177 0.0
C1997 C 0.94648 0.78035 0.75022 0.0
C1998 C 0.9391 0.76045 0.71722 0.0
C1999 C 0.92533 0.78953 0.76915 0.0
C2000 C 0.89647 0.7798 0.75516 0.0
H2001 H 0.96858 0.78815 0.76179 0.0
H2002 H 0.93145 0.80354 0.79488 0.0
S2003 S 0.86605 0.72782 0.67019 0.0
N2004 N 0.90082 0.73141 0.67181 0.0
N2005 N 0.86185 0.74973 0.70673 0.0
C2006 C 0.88918 0.76078 0.72209 0.0
C2007 C 0.91031 0.75086 0.70321 0.0
C2008 C 0.16485 0.03986 0.90358 0.0
C2009 C 0.14997 0.03045 0.8705 0.0
C2010 C 0.15046 0.04015 0.93323 0.0
C2011 C 0.11996 0.03154 0.93244 0.0
H2012 H 0.188 0.04843 0.90684 0.0
H2013 H 0.16365 0.0482 0.9573 0.0
S2014 S 0.07043 1.00607 0.85214 0.0
N2015 N 0.10247 1.01238 0.83956 0.0
N2016 N 0.07615 1.01421 0.89337 0.0
C2017 C 0.1051 0.02214 0.89928 0.0
C2018 C 0.11973 0.02143 0.86927 0.0
C2019 C 0.84841 0.39809 0.58307 0.0
C2020 C 0.86836 0.42582 0.57749 0.0
C2021 C 0.85732 0.37517 0.59882 0.0
C2022 C 0.88648 0.37918 0.60957 0.0
H2023 H 0.82583 0.39332 0.57422 0.0
H2024 H 0.8413 0.35362 0.60184 0.0
S2025 S 0.94688 0.44997 0.60544 0.0
N2026 N 0.91845 0.45781 0.58699 0.0
N2027 N 0.93492 0.41461 0.61722 0.0
C2028 C 0.90651 0.40774 0.60603 0.0
C2029 C 0.89749 0.43121 0.58996 0.0
C2030 C 0.50869 1.01515 0.39101 0.0
C2031 C 0.49158 0.03825 0.39408 0.0
C2032 C 0.53536 0.02315 0.41036 0.0
C2033 C 0.54522 0.05442 0.43289 0.0
H2034 H 0.50086 0.99023 0.37501 0.0
H2035 H 0.54659 1.00363 0.41046 0.0
S2036 S 0.51138 0.12563 0.44635 0.0
N2037 N 0.48819 0.09512 0.41921 0.0
N2038 N 0.53926 0.11043 0.45322 0.0
C2039 C 0.53026 0.07914 0.43281 0.0
C2040 C 0.50279 0.07077 0.4145 0.0
C2041 C 0.80152 0.7427 0.13019 0.0
C2042 C 0.82345 0.76224 0.11662 0.0
C2043 C 0.80084 0.74762 0.16491 0.0
C2044 C 0.82057 0.77387 0.18779 0.0
H2045 H 0.7857 0.72185 0.11405 0.0
H2046 H 0.7858 0.72926 0.17388 0.0
S2047 S 0.88366 0.83101 0.16635 0.0
N2048 N 0.86697 0.80777 0.12973 0.0
N2049 N 0.86394 0.81847 0.19461 0.0
C2050 C 0.84226 0.79424 0.17473 0.0
C2051 C 0.84394 0.78828 0.13934 0.0
C2052 C 0.15641 0.0245 0.65106 0.0
C2053 C 0.1453 0.03591 0.68102 0.0
C2054 C 0.14497 0.02742 0.6187 0.0
C2055 C 0.12107 0.04137 0.61304 0.0
H2056 H 0.17467 1.01377 0.65255 0.0
H2057 H 0.15535 0.01842 0.5975 0.0
S2058 S 0.08175 0.07304 0.68194 0.0
N2059 N 0.1075 0.06144 0.70154 0.0
N2060 N 0.08573 0.06446 0.64183 0.0
C2061 C 0.10906 0.05169 0.64255 0.0
C2062 C 0.12113 0.04962 0.67573 0.0
C2063 C 0.88606 0.38097 0.42778 0.0
C2064 C 0.86489 0.39139 0.44572 0.0
C2065 C 0.87843 0.35644 0.39783 0.0
C2066 C 0.84943 0.34134 0.38548 0.0
H2067 H 0.90846 0.39329 0.43567 0.0
H2068 H 0.89522 0.35054 0.3834 0.0
S2069 S 0.78638 0.35847 0.42557 0.0
N2070 N 0.81432 0.38309 0.45136 0.0
N2071 N 0.79984 0.33818 0.39446 0.0
C2072 C 0.82832 0.35031 0.40453 0.0
C2073 C 0.8361 0.37508 0.43492 0.0
C2074 C 0.46718 0.02981 0.243 0.0
C2075 C 0.48392 0.05125 0.27231 0.0
C2076 C 0.47997 1.01373 0.21706 0.0
C2077 C 0.50984 0.01867 0.21964 0.0
H2078 H 0.444 0.02442 0.24049 0.0
H2079 H 0.46647 0.9968 0.19526 0.0
S2080 S 0.56356 0.07476 0.28831 0.0
N2081 N 0.53236 0.07839 0.30042 0.0
N2082 N 0.55597 0.04809 0.25146 0.0
C2083 C 0.52686 0.04108 0.24765 0.0
C2084 C 0.51401 0.05745 0.27405 0.0
C2085 C 0.84151 0.7477 0.91828 0.0
C2086 C 0.81968 0.75761 0.93581 0.0
C2087 C 0.84962 0.76003 0.89 0.0
C2088 C 0.8372 0.78389 0.87919 0.0
H2089 H 0.85116 0.7288 0.92518 0.0
H2090 H 0.86498 0.75002 0.87584 0.0
S2091 S 0.78053 0.8193 0.91777 0.0
N2092 N 0.78663 0.7933 0.94075 0.0
N2093 N 0.8032 0.8181 0.88972 0.0
C2094 C 0.81714 0.79589 0.89829 0.0
C2095 C 0.80794 0.78222 0.9259 0.0
C2096 C 0.8743 0.0681 0.05059 0.0
C2097 C 0.87259 0.09982 0.04613 0.0
C2098 C 0.89106 0.0503 0.03175 0.0
C2099 C 0.90587 0.06367 1.00767 0.0
H2100 H 0.86162 0.05645 0.06762 0.0
H2101 H 0.89145 0.02546 0.0349 0.0
S2102 S 0.90936 0.146 0.98738 0.0
N2103 N 0.88814 0.14446 0.01701 0.0
N2104 N 0.91937 0.11047 0.98126 0.0
C2105 C 0.90538 0.09583 1.00396 0.0
C2106 C 0.88876 0.11417 0.02341 0.0
C2107 C 0.44641 0.49335 0.056 0.0
C2108 C 0.44246 0.46093 0.06218 0.0
C2109 C 0.47406 0.51296 0.05394 0.0
C2110 C 0.49875 0.50062 0.05718 0.0
H2111 H 0.42808 0.50372 0.05293 0.0
H2112 H 0.47593 0.53747 0.04863 0.0
S2113 S 0.49961 0.41691 0.07246 0.0
N2114 N 0.46557 0.41754 0.07115 0.0
N2115 N 0.51687 0.45359 0.06666 0.0
C2116 C 0.49484 0.46822 0.0632 0.0
C2117 C 0.46696 0.44867 0.06588 0.0
C2118 C 0.38953 0.68297 0.80768 0.0
C2119 C 0.40522 0.67556 0.78019 0.0
C2120 C 0.37271 0.70785 0.81058 0.0
C2121 C 0.36923 0.72664 0.78583 0.0
H2122 H 0.39145 0.67083 0.82821 0.0
H2123 H 0.36301 0.71322 0.83331 0.0
S2124 S 0.40461 0.71751 0.7084 0.0
N2125 N 0.41492 0.69042 0.72738 0.0
N2126 N 0.38373 0.73472 0.73263 0.0
C2127 C 0.38401 0.71862 0.758 0.0
C2128 C 0.40151 0.69404 0.75528 0.0
C2129 C 0.19308 0.56782 0.55563 0.0
C2130 C 0.21204 0.5879 0.53981 0.0
C2131 C 0.16457 0.56901 0.55426 0.0
C2132 C 0.15409 0.59209 0.53995 0.0
H2133 H 0.20013 0.55053 0.56858 0.0
H2134 H 0.15046 0.55064 0.56342 0.0
S2135 S 0.19409 0.64541 0.48862 0.0
N2136 N 0.21753 0.62706 0.50309 0.0
N2137 N 0.16437 0.63209 0.50449 0.0
C2138 C 0.17266 0.61146 0.52257 0.0
C2139 C 0.2015 0.6087 0.52178 0.0
C2140 C 0.79016 0.9785 0.73439 0.0
C2141 C 0.76542 0.98689 0.74518 0.0
C2142 C 0.81307 0.97979 0.75755 0.0
C2143 C 0.81189 0.98994 0.79203 0.0
H2144 H 0.792 0.97168 0.70792 0.0
H2145 H 0.83172 0.97246 0.74851 0.0
S2146 S 0.75317 0.01851 0.83267 0.0
N2147 N 0.7417 1.00805 0.7922 0.0
N2148 N 0.78516 1.01093 0.83592 0.0
C2149 C 0.78773 0.9997 0.80311 0.0
C2150 C 0.76423 0.99782 0.77957 0.0
C2151 C 0.77592 0.97052 0.54297 0.0
C2152 C 0.77365 0.93627 0.52977 0.0
C2153 C 0.75785 0.98733 0.52899 0.0
C2154 C 0.73761 0.97053 0.5009 0.0
H2155 H 0.79224 0.98454 0.56364 0.0
H2156 H 0.76056 1.01389 0.53924 0.0
S2157 S 0.72149 0.88048 0.45883 0.0
N2158 N 0.74793 0.88565 0.48882 0.0
N2159 N 0.71461 0.91762 0.46205 0.0
C2160 C 0.73418 0.93605 0.48855 0.0
C2161 C 0.75206 0.91878 0.50316 0.0
C2162 C 0.39422 0.46617 0.79594 0.0
C2163 C 0.40492 0.47257 0.7661 0.0
C2164 C 0.37735 0.43382 0.79759 0.0
C2165 C 0.37019 0.40605 0.76954 0.0
H2166 H 0.39987 0.4859 0.8186 0.0
H2167 H 0.37061 0.43026 0.8214 0.0
S2168 S 0.39045 0.40938 0.68492 0.0
N2169 N 0.40495 0.4478 0.70734 0.0
N2170 N 0.37436 0.38829 0.71083 0.0
C2171 C 0.38012 0.41243 0.73964 0.0
C2172 C 0.39704 0.44511 0.73785 0.0
C2173 C 0.2555 0.67512 0.23569 0.0
C2174 C 0.27094 0.65149 0.22412 0.0
C2175 C 0.26944 0.70584 0.25684 0.0
C2176 C 0.2991 0.71369 0.26642 0.0
H2177 H 0.23249 0.66961 0.22906 0.0
H2178 H 0.25719 0.724 0.26492 0.0
S2179 S 0.34839 0.65915 0.24641 0.0
N2180 N 0.31696 0.63695 0.22584 0.0
N2181 N 0.34309 0.69525 0.26607 0.0
C2182 C 0.3146 0.69004 0.25639 0.0
C2183 C 0.30051 0.65878 0.23478 0.0
C2184 C 0.56912 0.68928 0.51956 0.0
C2185 C 0.55005 0.69215 0.49282 0.0
C2186 C 0.57233 0.65778 0.5249 0.0
C2187 C 0.55796 0.62707 0.50279 0.0
H2188 H 0.58197 0.71177 0.53677 0.0
H2189 H 0.58648 0.65773 0.54635 0.0
S2190 S 0.50084 0.61925 0.43312 0.0
N2191 N 0.51296 0.66017 0.4475 0.0
N2192 N 0.51988 0.60199 0.45607 0.0
C2193 C 0.53748 0.62953 0.47723 0.0
C2194 C 0.5335 0.66152 0.47249 0.0
C2195 C 0.71546 0.3298 0.70575 0.0
C2196 C 0.71533 0.32409 0.67069 0.0
C2197 C 0.73952 0.32871 0.7274 0.0
C2198 C 0.76488 0.32202 0.71533 0.0
H2199 H 0.69637 0.33371 0.7165 0.0
H2200 H 0.73766 0.33212 0.75373 0.0
S2201 S 0.77682 0.30935 0.62574 0.0
N2202 N 0.74374 0.31383 0.62531 0.0
N2203 N 0.7885 0.3128 0.66532 0.0
C2204 C 0.76527 0.31782 0.68037 0.0
C2205 C 0.74077 0.31854 0.65841 0.0
C2206 C 0.02649 0.40537 0.97193 0.0
C2207 C 0.04055 0.38413 0.98557 0.0
C2208 C 0.03775 0.44044 0.97856 0.0
C2209 C 0.06149 0.4575 1.00259 0.0
H2210 H 1.0077 0.39466 0.95351 0.0
H2211 H 0.0293 0.45374 0.96206 0.0
S2212 S 0.11192 0.41387 0.03677 0.0
N2213 N 0.08428 0.38284 0.01771 0.0
N2214 N 0.10346 0.44881 0.03243 0.0
C2215 C 0.07686 0.43647 0.01494 0.0
C2216 C 0.06653 0.40019 1.00654 0.0
C2217 C 0.05077 0.82716 0.18825 0.0
C2218 C 0.04649 0.81318 0.15354 0.0
C2219 C 0.0285 0.82118 0.20813 0.0
C2220 C 1.00099 0.80114 0.19413 0.0
H2221 H 0.07171 0.84214 0.20039 0.0
H2222 H 0.03316 0.83114 0.23494 0.0
S2223 S 0.97791 0.75939 0.10466 0.0
N2224 N 0.01188 0.77912 0.10595 0.0
N2225 N 0.97037 0.76807 0.1435 0.0
C2226 C 0.99598 0.78819 0.15937 0.0
C2227 C 0.01862 0.79418 0.13905 0.0
C2228 C 0.53563 0.30316 0.08033 0.0
C2229 C 0.53379 0.32095 0.11265 0.0
C2230 C 0.54711 0.32012 0.05668 0.0
C2231 C 0.55698 0.35526 0.06467 0.0
H2232 H 0.52976 0.27597 0.07391 0.0
H2233 H 0.54951 0.30559 0.03253 0.0
S2234 S 0.55153 0.41302 0.14416 0.0
N2235 N 0.53835 0.37509 0.14993 0.0
N2236 N 0.56089 0.40734 0.10602 0.0
C2237 C 0.55291 0.37332 0.09606 0.0
C2238 C 0.54111 0.35599 0.11999 0.0
C2239 C 0.03935 0.328 0.35186 0.0
C2240 C 0.06549 0.35242 0.3584 0.0
C2241 C 0.01561 0.33278 0.33378 0.0
C2242 C 0.01729 0.36235 0.32223 0.0
H2243 H 0.03764 0.30438 0.35919 0.0
H2244 H 0.99629 0.31253 0.32746 0.0
S2245 S 0.07918 0.43678 0.33993 0.0
N2246 N 0.09071 0.40899 0.3567 0.0
N2247 N 0.04569 0.41837 0.32327 0.0
C2248 C 0.04266 0.38803 0.33112 0.0
C2249 C 0.0669 0.38298 0.34915 0.0
C2250 C 0.02484 0.65028 0.62357 0.0
C2251 C 1.00418 0.66041 0.60495 0.0
C2252 C 0.04047 0.62876 0.60787 0.0
C2253 C 0.0352 0.61548 0.57313 0.0
H2254 H 0.03026 0.66063 0.65022 0.0
H2255 H 0.0573 0.62326 0.623 0.0
S2256 S 0.97518 0.62365 0.51602 0.0
N2257 N 0.97451 0.64957 0.55181 0.0
N2258 N 1.002 0.60652 0.52255 0.0
C2259 C 0.01175 0.6217 0.55513 0.0
C2260 C 0.99658 0.64465 0.571 0.0
C2261 C 0.72102 0.82607 0.81643 0.0
C2262 C 0.7265 0.84624 0.84932 0.0
C2263 C 0.74342 0.82243 0.79733 0.0
C2264 C 0.77196 0.83721 0.81117 0.0
H2265 H 0.69929 0.81328 0.80515 0.0
H2266 H 0.73833 0.80822 0.77166 0.0
S2267 S 0.79751 0.89684 0.89365 0.0
N2268 N 0.76243 0.88508 0.89278 0.0
N2269 N 0.80424 0.87587 0.85791 0.0
C2270 C 0.77753 0.85835 0.84339 0.0
C2271 C 0.75487 0.86323 0.86233 0.0
C2272 C 0.52703 0.54798 0.67528 0.0
C2273 C 0.5105 0.57095 0.68764 0.0
C2274 C 0.53964 0.54698 0.64472 0.0
C2275 C 0.53666 0.56852 0.62306 0.0
H2276 H 0.53058 0.53008 0.68961 0.0
H2277 H 0.55209 0.52879 0.63811 0.0
S2278 S 0.49845 0.63638 0.64322 0.0
N2279 N 0.49409 0.61804 0.67505 0.0
N2280 N 0.51697 0.61576 0.61821 0.0
C2281 C 0.52069 0.5922 0.63504 0.0
C2282 C 0.50791 0.59345 0.66666 0.0
C2283 C 0.79248 0.16969 0.9393 0.0
C2284 C 0.8025 0.17659 0.97346 0.0
C2285 C 0.78488 0.19432 0.9253 0.0
C2286 C 0.78749 0.22642 0.94517 0.0
H2287 H 0.78881 0.14458 0.92385 0.0
H2288 H 0.77563 0.18785 0.89926 0.0
S2289 S 0.82046 0.26009 0.03299 0.0
N2290 N 0.82034 0.21991 0.0251 0.0
N2291 N 0.80612 0.26639 0.99791 0.0
C2292 C 0.80078 0.23499 0.97806 0.0
C2293 C 0.80854 0.20995 0.99248 0.0
C2294 C 0.14821 0.57803 0.16813 0.0
C2295 C 0.1578 0.55041 0.17392 0.0
C2296 C 0.13065 0.57501 0.13868 0.0
C2297 C 0.12227 0.5443 0.11504 0.0
H2298 H 0.15595 0.60248 0.18509 0.0
H2299 H 0.12461 0.59698 0.13369 0.0
S2300 S 0.13905 0.46426 0.12064 0.0
N2301 N 0.15594 0.49113 0.15534 0.0
N2302 N 0.12227 0.48563 0.10009 0.0
C2303 C 0.13006 0.5162 0.12158 0.0
C2304 C 0.14805 0.51921 0.15123 0.0
C2305 C 0.84172 0.81451 0.42229 0.0
C2306 C 0.84709 0.84696 0.44349 0.0
C2307 C 0.83925 0.80947 0.387 0.0
C2308 C 0.84217 0.83672 0.37148 0.0
H2309 H 0.83864 0.79267 0.43297 0.0
H2310 H 0.83399 0.78408 0.37182 0.0
S2311 S 0.85886 0.92675 0.41493 0.0
N2312 N 0.85717 0.90677 0.44555 0.0
N2313 N 0.85231 0.89729 0.38002 0.0
C2314 C 0.84847 0.86919 0.39236 0.0
C2315 C 0.85106 0.87434 0.42803 0.0
C2316 C 0.52633 0.54382 0.88311 0.0
C2317 C 0.51235 0.56927 0.87817 0.0
C2318 C 0.54034 0.54283 0.91483 0.0
C2319 C 0.54029 0.5659 0.94518 0.0
H2320 H 0.52649 0.52381 0.8619 0.0
H2321 H 0.55092 0.52323 0.91522 0.0
S2322 S 0.51284 0.64251 0.94672 0.0
N2323 N 0.50457 0.62214 0.90705 0.0
N2324 N 0.52844 0.61911 0.96584 0.0
C2325 C 0.52797 0.59282 0.94025 0.0
C2326 C 0.51469 0.59466 0.90752 0.0
C2327 C 0.78108 0.23178 0.12584 0.0
C2328 C 0.79439 0.20494 0.12086 0.0
C2329 C 0.78771 0.25642 0.15597 0.0
C2330 C 0.80808 0.25494 0.18137 0.0
H2331 H 0.76494 0.23322 0.10685 0.0
H2332 H 0.77619 0.27588 0.1599 0.0
S2333 S 0.85067 0.19162 0.17935 0.0
N2334 N 0.83022 0.17992 0.14309 0.0
N2335 N 0.84223 0.22566 0.19896 0.0
C2336 C 0.82215 0.22901 0.17599 0.0
C2337 C 0.81544 0.2041 0.14584 0.0
C2338 C 0.18687 0.55871 0.31482 0.0
C2339 C 0.20721 0.5876 0.3119 0.0
C2340 C 0.16353 0.56123 0.33242 0.0
C2341 C 0.15969 0.59269 0.34751 0.0
H2342 H 0.18826 0.53393 0.30229 0.0
H2343 H 0.14792 0.53851 0.33344 0.0
S2344 S 0.20861 0.67564 0.35251 0.0
N2345 N 0.22346 0.64867 0.32951 0.0
N2346 N 0.17922 0.6529 0.3625 0.0
C2347 C 0.18057 0.62161 0.34689 0.0
C2348 C 0.20452 0.61919 0.32917 0.0
C2349 C 0.81689 0.85843 0.64281 0.0
C2350 C 0.83798 0.84918 0.62349 0.0
C2351 C 0.81376 0.85016 0.67423 0.0
C2352 C 0.83134 0.83202 0.68722 0.0
H2353 H 0.8028 0.87219 0.63363 0.0
H2354 H 0.79756 0.85808 0.68847 0.0
S2355 S 0.89194 0.80582 0.64804 0.0
N2356 N 0.87826 0.82399 0.6212 0.0
N2357 N 0.8714 0.80666 0.67833 0.0
C2358 C 0.85224 0.82257 0.66778 0.0
C2359 C 0.85586 0.83167 0.63649 0.0
C2360 C 0.76576 0.49981 0.51498 0.0
C2361 C 0.79499 0.51637 0.51827 0.0
C2362 C 0.74672 0.51482 0.53275 0.0
C2363 C 0.75641 0.54675 0.55439 0.0
H2364 H 0.75773 0.47451 0.49984 0.0
H2365 H 0.72466 0.50068 0.53087 0.0
S2366 S 0.82966 0.6026 0.56824 0.0
N2367 N 0.83193 0.56804 0.54223 0.0
N2368 N 0.79587 0.59604 0.57528 0.0
C2369 C 0.785 0.56447 0.55613 0.0
C2370 C 0.80438 0.54935 0.53809 0.0
C2371 C 0.2111 0.11179 0.49812 0.0
C2372 C 0.21868 0.14675 0.51149 0.0
C2373 C 0.18263 0.09233 0.49671 0.0
C2374 C 0.16061 0.10714 0.50834 0.0
H2375 H 0.2275 0.09916 0.4903 0.0
H2376 H 0.17822 0.06544 0.48768 0.0
S2377 S 0.16988 0.19855 0.54397 0.0
N2378 N 0.20194 0.19546 0.53499 0.0
N2379 N 0.14926 0.16013 0.53196 0.0
C2380 C 0.16814 0.1425 0.52021 0.0
C2381 C 0.19687 0.16191 0.52189 0.0
C2382 C 0.25139 0.91185 0.80394 0.0
C2383 C 0.25413 0.93068 0.77891 0.0
C2384 C 0.26706 0.88723 0.80709 0.0
C2385 C 0.28686 0.87767 0.78514 0.0
H2386 H 0.23567 0.91513 0.82097 0.0
H2387 H 0.26197 0.87374 0.82648 0.0
S2388 S 0.30164 0.91691 0.71258 0.0
N2389 N 0.27915 0.93706 0.73069 0.0
N2390 N 0.30637 0.88969 0.73496 0.0
C2391 C 0.28997 0.89624 0.75956 0.0
C2392 C 0.27438 0.92249 0.75691 0.0
C2393 C 0.47461 0.03447 0.05058 0.0
C2394 C 0.45258 0.01843 0.02435 0.0
C2395 C 0.50181 0.02881 0.0491 0.0
C2396 C 0.50834 1.00752 0.02127 0.0
H2397 H 0.47077 0.05114 0.07266 0.0
H2398 H 0.51791 0.041 0.0702 0.0
S2399 S 0.45651 0.95242 0.95041 0.0
N2400 N 0.43804 0.97612 0.97166 0.0
N2401 N 0.48935 0.96472 0.97062 0.0
C2402 C 0.48619 0.98925 0.99612 0.0
C2403 C 0.45834 0.99523 0.99709 0.0
C2404 C 0.87816 0.63738 0.82779 0.0
C2405 C 0.90387 0.63005 0.81924 0.0
C2406 C 0.85749 0.63871 0.80317 0.0
C2407 C 0.86199 0.63272 0.76933 0.0
H2408 H 0.87325 0.63979 0.85333 0.0
H2409 H 0.83754 0.64376 0.81051 0.0
S2410 S 0.92608 0.61335 0.73419 0.0
N2411 N 0.93335 0.61781 0.77496 0.0
N2412 N 0.89394 0.62015 0.7284 0.0
C2413 C 0.88788 0.62628 0.76048 0.0
C2414 C 0.90916 0.62536 0.78563 0.0
C2415 C 0.91155 0.67035 0.02143 0.0
C2416 C 0.88193 0.65993 0.02356 0.0
C2417 C 0.93121 0.65477 0.03459 0.0
C2418 C 0.92196 0.6283 0.05046 0.0
H2419 H 0.91982 0.69149 0.01065 0.0
H2420 H 0.95388 0.66459 0.03381 0.0
S2421 S 0.84665 0.58789 0.05764 0.0
N2422 N 0.8443 0.61871 0.03931 0.0
N2423 N 0.88117 0.58958 0.06367 0.0
C2424 C 0.89236 0.61616 0.05059 0.0
C2425 C 0.87238 0.63191 0.03724 0.0
C2426 C 0.24716 0.16505 0.80658 0.0
C2427 C 0.25189 0.1351 0.78744 0.0
C2428 C 0.26459 0.19744 0.80722 0.0
C2429 C 0.28814 0.20236 0.78876 0.0
H2430 H 0.22923 0.16356 0.82101 0.0
H2431 H 0.25921 0.21904 0.82214 0.0
S2432 S 0.30872 0.13331 0.73136 0.0
N2433 N 0.2815 0.11339 0.74761 0.0
N2434 N 0.31396 0.17364 0.74876 0.0
C2435 C 0.29326 0.17271 0.76937 0.0
C2436 C 0.27537 0.1395 0.76871 0.0
C2437 C 0.39095 0.93265 0.31808 0.0
C2438 C 0.37987 0.95395 0.3018 0.0
C2439 C 0.37942 0.89829 0.30836 0.0
C2440 C 0.35536 0.88497 0.2842 0.0
H2441 H 0.41 0.9423 0.33631 0.0
H2442 H 0.39087 0.88203 0.31761 0.0
S2443 S 0.3206 0.93084 0.23267 0.0
N2444 N 0.3459 0.96015 0.25863 0.0
N2445 N 0.32194 0.89514 0.24271 0.0
C2446 C 0.34369 0.9063 0.26842 0.0
C2447 C 0.35642 0.94113 0.27697 0.0
C2448 C 0.60153 0.43088 0.58873 0.0
C2449 C 0.61399 0.41204 0.56407 0.0
C2450 C 0.59301 0.46005 0.58418 0.0
C2451 C 0.59579 0.47195 0.55446 0.0
H2452 H 0.59873 0.42341 0.61217 0.0
H2453 H 0.58454 0.47389 0.60463 0.0
S2454 S 0.62716 0.43285 0.48173 0.0
N2455 N 0.6287 0.40852 0.50827 0.0
N2456 N 0.61218 0.46225 0.49998 0.0
C2457 C 0.60754 0.45309 0.52927 0.0
C2458 C 0.61668 0.42362 0.534 0.0
C2459 C 0.45006 0.79306 0.36573 0.0
C2460 C 0.44554 0.76403 0.37903 0.0
C2461 C 0.4282 0.79912 0.34433 0.0
C2462 C 0.40079 0.77646 0.33518 0.0
H2463 H 0.47033 0.81177 0.37269 0.0
H2464 H 0.43252 0.82221 0.3357 0.0
S2465 S 0.37853 0.69523 0.35937 0.0
N2466 N 0.41166 0.71118 0.3783 0.0
N2467 N 0.37131 0.72304 0.33922 0.0
C2468 C 0.39643 0.74706 0.3472 0.0
C2469 C 0.41851 0.74074 0.36871 0.0
C2470 C 0.09916 0.69336 0.03432 0.0
C2471 C 0.11237 0.71803 0.06362 0.0
C2472 C 0.09585 0.65864 0.03238 0.0
C2473 C 0.10528 0.64673 0.0598 0.0
H2474 H 0.09055 0.7008 0.01282 0.0
H2475 H 0.08465 0.64097 1.0097 0.0
S2476 S 0.14407 0.70009 0.14092 0.0
N2477 N 0.13747 0.72729 0.11954 0.0
N2478 N 0.13005 0.66259 0.11629 0.0
C2479 C 0.11935 0.67101 0.08869 0.0
C2480 C 0.12327 0.70635 0.09048 0.0
C2481 C 0.12465 0.26134 0.87897 0.0
C2482 C 0.112 0.2839 0.8992 0.0
C2483 C 0.14732 0.27289 0.86132 0.0
C2484 C 0.15837 0.30741 0.86373 0.0
H2485 H 0.11625 0.23456 0.87577 0.0
H2486 H 0.15542 0.25468 0.84461 0.0
S2487 S 0.13699 0.3767 0.91925 0.0
N2488 N 0.1149 0.34229 0.92435 0.0
N2489 N 0.15784 0.36398 0.89195 0.0
C2490 C 0.14731 0.33018 0.88588 0.0
C2491 C 0.12403 0.31844 0.90341 0.0
C2492 C 0.62486 0.75443 0.95385 0.0
C2493 C 0.62993 0.78936 0.96099 0.0
C2494 C 0.60767 0.73579 0.97262 0.0
C2495 C 0.59502 0.75156 0.99923 0.0
H2496 H 0.63412 0.74147 0.93355 0.0
H2497 H 0.60397 0.70875 0.9658 0.0
S2498 S 0.5998 0.84275 0.02498 0.0
N2499 N 0.61937 0.83912 0.99385 0.0
N2500 N 0.58801 0.80439 0.03039 0.0
C2501 C 0.59961 0.78663 1.00599 0.0
C2502 C 0.61694 0.8055 0.98663 0.0
C2503 C 0.10925 0.76901 0.72271 0.0
C2504 C 0.09281 0.74019 0.69972 0.0
C2505 C 0.13168 0.76685 0.74488 0.0
C2506 C 0.13759 0.73573 0.74484 0.0
H2507 H 0.10434 0.79308 0.72398 0.0
H2508 H 0.14407 0.78935 0.76251 0.0
S2509 S 0.10149 0.65359 0.68915 0.0
N2510 N 0.08478 0.68021 0.6773 0.0
N2511 N 0.12676 0.67623 0.71969 0.0
C2512 C 0.12211 0.70714 0.72131 0.0
C2513 C 0.09966 0.70937 0.69842 0.0
C2514 C 0.16121 0.47283 0.44767 0.0
C2515 C 0.15109 0.43789 0.4411 0.0
C2516 C 0.14813 0.49343 0.46914 0.0
C2517 C 0.12461 0.47943 0.48418 0.0
H2518 H 0.17875 0.48419 0.43548 0.0
H2519 H 0.15574 0.52044 0.4731 0.0
S2520 S 0.08886 0.38986 0.47348 0.0
N2521 N 0.11556 0.39028 0.45057 0.0
N2522 N 0.09112 0.42952 0.49093 0.0
C2523 C 0.11454 0.44476 0.47838 0.0
C2524 C 0.1278 0.42375 0.45669 0.0
C2525 C 0.43962 0.25851 0.26181 0.0
C2526 C 0.44126 0.25924 0.22811 0.0
C2527 C 0.41846 0.27032 0.27854 0.0
C2528 C 0.3981 0.2824 0.26174 0.0
H2529 H 0.45454 0.24848 0.27511 0.0
H2530 H 0.41711 0.26847 0.30427 0.0
S2531 S 0.3924 0.28606 0.17216 0.0
N2532 N 0.42148 0.27279 0.17839 0.0
N2533 N 0.37953 0.29095 0.20843 0.0
C2534 C 0.39953 0.2827 0.22779 0.0
C2535 C 0.42176 0.27215 0.21131 0.0
C2536 C 0.65731 0.51814 0.39805 0.0
C2537 C 0.64917 0.53399 0.37273 0.0
C2538 C 0.6441 0.51875 0.42854 0.0
C2539 C 0.62121 0.53434 0.43548 0.0
H2540 H 0.67488 0.50622 0.39499 0.0
H2541 H 0.65199 0.50679 0.44692 0.0
S2542 S 0.59055 0.5786 0.37787 0.0
N2543 N 0.61592 0.56579 0.35807 0.0
N2544 N 0.59087 0.56511 0.41278 0.0
C2545 C 0.61232 0.5491 0.40987 0.0
C2546 C 0.62622 0.54943 0.37957 0.0
C2547 C 0.383 0.9343 0.11421 0.0
C2548 C 0.37652 0.92678 0.07935 0.0
C2549 C 0.38582 0.90908 0.13067 0.0
C2550 C 0.38284 0.87613 0.11239 0.0
H2551 H 0.38788 0.96005 0.12846 0.0
H2552 H 0.39276 0.9159 0.15737 0.0
S2553 S 0.36133 0.84317 0.02126 0.0
N2554 N 0.36316 0.88371 0.02755 0.0
N2555 N 0.36954 0.83636 0.05851 0.0
C2556 C 0.37389 0.86784 0.0779 0.0
C2557 C 0.37046 0.89332 0.06129 0.0
C2558 C 0.98193 0.54987 0.93189 0.0
C2559 C 0.98557 0.54395 0.89839 0.0
C2560 C 1.00557 0.56003 0.95571 0.0
C2561 C 0.0334 0.56141 0.94691 0.0
H2562 H 0.96073 0.54738 0.93976 0.0
H2563 H 1.00136 0.56497 0.98116 0.0
S2564 S 0.05392 0.5574 0.8619 0.0
N2565 N 0.01851 0.54806 0.85655 0.0
N2566 N 0.06345 0.56338 0.90244 0.0
C2567 C 0.03737 0.55788 0.91328 0.0
C2568 C 0.01317 0.54966 0.88867 0.0
C2569 C 0.31312 0.23314 0.63105 0.0
C2570 C 0.31204 0.25918 0.61468 0.0
C2571 C 0.31566 0.23856 0.66605 0.0
C2572 C 0.3177 0.2704 0.68681 0.0
H2573 H 0.31213 0.20814 0.61675 0.0
H2574 H 0.31671 0.21749 0.67702 0.0
S2575 S 0.3155 0.3473 0.65704 0.0
N2576 N 0.31208 0.31814 0.62228 0.0
N2577 N 0.3186 0.32858 0.68821 0.0
C2578 C 0.31645 0.29676 0.67099 0.0
C2579 C 0.31318 0.29107 0.63502 0.0
C2580 C 0.63603 0.56079 0.17728 0.0
C2581 C 0.64527 0.5322 0.18274 0.0
C2582 C 0.62286 0.56315 0.1457 0.0
C2583 C 0.61836 0.53774 0.11593 0.0
H2584 H 0.63908 0.58233 0.198 0.0
H2585 H 0.61638 0.5856 0.1451 0.0
S2586 S 0.63175 0.45369 0.11612 0.0
N2587 N 0.64367 0.47493 0.15505 0.0
N2588 N 0.6206 0.47987 0.09648 0.0
C2589 C 0.626 0.50807 0.12131 0.0
C2590 C 0.63895 0.50527 0.15391 0.0
C2591 C 0.38062 0.87815 0.93055 0.0
C2592 C 0.36025 0.89605 0.94047 0.0
C2593 C 0.37412 0.8521 0.90195 0.0
C2594 C 0.34695 0.84299 0.88325 0.0
H2595 H 0.40216 0.88543 0.94378 0.0
H2596 H 0.3908 0.84025 0.89341 0.0
S2597 S 0.28609 0.88143 0.89916 0.0
N2598 N 0.31151 0.90191 0.9303 0.0
N2599 N 0.29978 0.85352 0.87592 0.0
C2600 C 0.32607 0.85967 0.89366 0.0
C2601 C 0.33263 0.88617 0.92257 0.0
C2602 C 0.9598 0.52399 0.72706 0.0
C2603 C 0.97566 0.54367 0.75736 0.0
C2604 C 0.97363 0.50838 0.70211 0.0
C2605 C 1.00335 0.51224 0.70739 0.0
H2606 H 0.93658 0.51829 0.72384 0.0
H2607 H 0.96101 0.49214 0.67942 0.0
S2608 S 0.05461 0.56707 0.77888 0.0
N2609 N 0.02273 0.5706 0.7888 0.0
N2610 N 0.04861 0.54103 0.74172 0.0
C2611 C 0.01955 0.53441 0.73596 0.0
C2612 C 1.00566 0.55037 0.76107 0.0
C2613 C 0.31656 0.28837 0.42886 0.0
C2614 C 0.32459 0.26061 0.43731 0.0
C2615 C 0.32422 0.29916 0.39989 0.0
C2616 C 0.33936 0.28198 0.37742 0.0
H2617 H 0.3035 0.3014 0.44421 0.0
H2618 H 0.3165 0.31975 0.3939 0.0
S2619 S 0.37056 0.21233 0.3905 0.0
N2620 N 0.35296 0.21978 0.42304 0.0
N2621 N 0.36568 0.23909 0.36767 0.0
C2622 C 0.34921 0.25575 0.38645 0.0
C2623 C 0.34222 0.2453 0.41656 0.0
C2624 C 0.39615 0.5985 0.54669 0.0
C2625 C 0.36643 0.58428 0.54235 0.0
C2626 C 0.41406 0.58299 0.52745 0.0
C2627 C 0.40271 0.55292 0.50326 0.0
H2628 H 0.40544 0.62259 0.56376 0.0
H2629 H 0.43666 0.59548 0.53031 0.0
S2630 S 0.32713 0.5034 0.48485 0.0
N2631 N 0.32691 0.53665 0.51407 0.0
N2632 N 0.36091 0.50769 0.47821 0.0
C2633 C 0.37347 0.53732 0.50022 0.0
C2634 C 0.35522 0.5529 0.51982 0.0
C2635 C 0.96563 0.94321 0.54602 0.0
C2636 C 0.94251 0.95624 0.55624 0.0
C2637 C 0.99266 0.96414 0.54552 0.0
C2638 C 0.99829 0.99943 0.55528 0.0
H2639 H 0.9628 0.9164 0.53749 0.0
H2640 H 1.00915 0.95221 0.53662 0.0
S2641 S 0.94553 0.04659 0.58657 0.0
N2642 N 0.92733 1.0069 0.5781 0.0
N2643 N 0.97815 0.04622 0.57732 0.0
C2644 C 0.97558 1.01286 0.56675 0.0
C2645 C 0.94779 0.99137 0.56713 0.0
C2646 C 0.88047 0.16923 0.2684 0.0
C2647 C 0.90739 0.17906 0.28904 0.0
C2648 C 0.86239 0.19202 0.2655 0.0
C2649 C 0.86854 0.22618 0.28407 0.0
H2650 H 0.87395 0.14415 0.25257 0.0
H2651 H 0.84392 0.18289 0.24683 0.0
S2652 S 0.93642 0.26637 0.34141 0.0
N2653 N 0.93905 0.22751 0.32802 0.0
N2654 N 0.90524 0.268 0.3234 0.0
C2655 C 0.89508 0.236 0.30519 0.0
C2656 C 0.91397 0.21333 0.30753 0.0
C2657 C 0.69191 0.06476 0.05634 0.0
C2658 C 0.71109 0.08744 0.04323 0.0
C2659 C 0.66302 0.06455 0.05401 0.0
C2660 C 0.65258 0.08892 0.04189 0.0
H2661 H 0.69916 0.04666 0.06789 0.0
H2662 H 0.64873 0.04457 0.06113 0.0
S2663 S 0.69355 0.14896 0.99729 0.0
N2664 N 0.71726 0.13053 0.01104 0.0
N2665 N 0.66318 0.13258 0.01041 0.0
C2666 C 0.67142 0.11067 0.02681 0.0
C2667 C 0.70067 0.10944 0.02695 0.0
C2668 C 0.25657 0.46707 0.26498 0.0
C2669 C 0.26664 0.48195 0.23909 0.0
C2670 C 0.27553 0.46646 0.29186 0.0
C2671 C 0.3049 0.48057 0.29342 0.0
H2672 H 0.23384 0.45758 0.26561 0.0
H2673 H 0.2672 0.45529 0.31177 0.0
S2674 S 0.34284 0.51786 0.23025 0.0
N2675 N 0.30856 0.50766 0.21505 0.0
N2676 N 0.34403 0.50636 0.26624 0.0
C2677 C 0.31563 0.49346 0.26698 0.0
C2678 C 0.29649 0.49397 0.23945 0.0
C2679 C 0.28078 0.47155 0.04097 0.0
C2680 C 0.27347 0.43627 0.03476 0.0
C2681 C 0.26226 0.48865 0.02856 0.0
C2682 C 0.2359 0.47101 1.00964 0.0
H2683 H 0.30154 0.48598 0.05416 0.0
H2684 H 0.26925 0.51566 0.0322 0.0
S2685 S 0.20473 0.37927 0.9898 0.0
N2686 N 0.23645 0.38464 0.01119 0.0
N2687 N 0.20179 0.4172 0.98789 0.0
C2688 C 0.22724 0.43613 1.00539 0.0
C2689 C 0.246 0.4186 0.01806 0.0
C2690 C 0.91946 0.94561 0.27913 0.0
C2691 C 0.90827 0.97106 0.26951 0.0
C2692 C 0.90225 0.9132 0.27844 0.0
C2693 C 0.8722 0.90349 0.26853 0.0
H2694 H 0.9422 0.95063 0.28727 0.0
H2695 H 0.9131 0.89549 0.28578 0.0
S2696 S 0.83193 0.95885 0.23662 0.0
N2697 N 0.86491 0.98298 0.24705 0.0
N2698 N 0.83274 0.92256 0.24571 0.0
C2699 C 0.86065 0.92853 0.25816 0.0
C2700 C 0.87842 0.9619 0.25879 0.0
C2701 C 0.79488 0.1641 0.73656 0.0
C2702 C 0.7673 0.15176 0.71853 0.0
C2703 C 0.80463 0.1978 0.75304 0.0
C2704 C 0.78685 0.21975 0.75215 0.0
H2705 H 0.80874 0.14744 0.73843 0.0
H2706 H 0.82591 0.20657 0.76702 0.0
S2707 S 0.71283 0.19965 0.70906 0.0
N2708 N 0.72239 0.16385 0.70078 0.0
N2709 N 0.74061 0.22733 0.73266 0.0
C2710 C 0.75917 0.2077 0.73463 0.0
C2711 C 0.74948 0.17362 0.71723 0.0
loop_
_geom_bond_atom_site_label_1
_geom_bond_atom_site_label_2
_geom_bond_distance
_geom_bond_site_symmetry_2
_ccdc_geom_bond_type
C0 O1 1.160 . S
C0 O7 1.185 . S
O1 C0 1.160 . S
O2 Zn3 1.899 . S
O2 C10 1.284 . S
Zn3 O2 1.899 . S
Zn3 O4 2.032 . S
Zn3 O7 2.086 . S
Zn3 O12 1.977 . S
O4 Zn3 2.032 . S
O4 C8 1.278 . S
C5 O6 1.203 . S
C5 O12 1.267 . S
O6 C5 1.203 . S
O7 C0 1.185 . S
O7 Zn3 2.086 . S
C8 O4 1.278 . S
C8 O9 1.211 . S
O9 C8 1.211 . S
C10 O2 1.284 . S
C10 O11 1.273 . S
O11 C10 1.273 . S
O12 Zn3 1.977 . S
O12 C5 1.267 . S
C13 O14 1.160 . S
C13 O20 1.185 . S
O14 C13 1.160 . S
O15 Zn16 1.899 . S
O15 C23 1.284 . S
Zn16 O15 1.899 . S
Zn16 O17 2.032 . S
Zn16 O20 2.086 . S
Zn16 O25 1.977 1_655 S
O17 Zn16 2.032 . S
O17 C21 1.278 1_655 S
C18 O19 1.203 . S
C18 O25 1.267 . S
O19 C18 1.203 . S
O20 C13 1.185 . S
O20 Zn16 2.086 . S
C21 O17 1.278 1_455 S
C21 O22 1.211 . S
O22 C21 1.211 . S
C23 O15 1.284 . S
C23 O24 1.273 1_655 S
O24 C23 1.273 1_455 S
O25 Zn16 1.977 1_455 S
O25 C18 1.267 . S
C26 O27 1.160 . S
C26 O33 1.185 . S
O27 C26 1.160 . S
O28 Zn29 1.899 . S
O28 C36 1.284 . S
Zn29 O28 1.899 . S
Zn29 O30 2.032 . S
Zn29 O33 2.086 . S
Zn29 O38 1.977 . S
O30 Zn29 2.032 . S
O30 C34 1.278 . S
C31 O32 1.203 . S
C31 O38 1.267 . S
O32 C31 1.203 . S
O33 C26 1.185 . S
O33 Zn29 2.086 . S
C34 O30 1.278 . S
C34 O35 1.211 . S
O35 C34 1.211 . S
C36 O28 1.284 . S
C36 O37 1.273 . S
O37 C36 1.273 . S
O38 Zn29 1.977 . S
O38 C31 1.267 . S
C39 O40 1.160 . S
C39 O46 1.185 . S
O40 C39 1.160 . S
O41 Zn42 1.899 . S
O41 C49 1.284 . S
Zn42 O41 1.899 . S
Zn42 O43 2.032 . S
Zn42 O46 2.086 . S
Zn42 O51 1.977 . S
O43 Zn42 2.032 . S
O43 C47 1.278 . S
C44 O45 1.203 . S
C44 O51 1.267 . S
O45 C44 1.203 . S
O46 C39 1.185 . S
O46 Zn42 2.086 . S
C47 O43 1.278 . S
C47 O48 1.211 . S
O48 C47 1.211 . S
C49 O41 1.284 . S
C49 O50 1.273 . S
O50 C49 1.273 . S
O51 Zn42 1.977 . S
O51 C44 1.267 . S
C52 O53 1.160 . S
C52 O59 1.185 . S
O53 C52 1.160 . S
O54 Zn55 1.899 . S
O54 C62 1.284 . S
Zn55 O54 1.899 . S
Zn55 O56 2.032 . S
Zn55 O59 2.086 . S
Zn55 O64 1.977 . S
O56 Zn55 2.032 . S
O56 C60 1.278 . S
C57 O58 1.203 . S
C57 O64 1.267 . S
O58 C57 1.203 . S
O59 C52 1.185 . S
O59 Zn55 2.086 . S
C60 O56 1.278 . S
C60 O61 1.211 . S
O61 C60 1.211 . S
C62 O54 1.284 . S
C62 O63 1.273 . S
O63 C62 1.273 . S
O64 Zn55 1.977 . S
O64 C57 1.267 . S
C65 O66 1.160 . S
C65 O72 1.185 . S
O66 C65 1.160 . S
O67 Zn68 1.899 . S
O67 C75 1.284 . S
Zn68 O67 1.899 . S
Zn68 O69 2.032 . S
Zn68 O72 2.086 . S
Zn68 O77 1.977 . S
O69 Zn68 2.032 . S
O69 C73 1.278 . S
C70 O71 1.203 . S
C70 O77 1.267 . S
O71 C70 1.203 . S
O72 C65 1.185 . S
O72 Zn68 2.086 . S
C73 O69 1.278 . S
C73 O74 1.211 . S
O74 C73 1.211 . S
C75 O67 1.284 . S
C75 O76 1.273 . S
O76 C75 1.273 . S
O77 Zn68 1.977 . S
O77 C70 1.267 . S
C78 O79 1.160 . S
C78 O85 1.185 . S
O79 C78 1.160 . S
O80 Zn81 1.899 . S
O80 C88 1.284 . S
Zn81 O80 1.899 . S
Zn81 O82 2.032 . S
Zn81 O85 2.086 . S
Zn81 O90 1.977 . S
O82 Zn81 2.032 . S
O82 C86 1.278 . S
C83 O84 1.203 . S
C83 O90 1.267 . S
O84 C83 1.203 . S
O85 C78 1.185 . S
O85 Zn81 2.086 . S
C86 O82 1.278 . S
C86 O87 1.211 . S
O87 C86 1.211 . S
C88 O80 1.284 . S
C88 O89 1.273 . S
O89 C88 1.273 . S
O90 Zn81 1.977 . S
O90 C83 1.267 . S
C91 O92 1.160 . S
C91 O98 1.185 . S
O92 C91 1.160 . S
O93 Zn94 1.899 . S
O93 C101 1.284 . S
Zn94 O93 1.899 . S
Zn94 O95 2.032 . S
Zn94 O98 2.086 . S
Zn94 O103 1.977 1_455 S
O95 Zn94 2.032 . S
O95 C99 1.278 . S
C96 O97 1.203 . S
C96 O103 1.267 . S
O97 C96 1.203 . S
O98 C91 1.185 . S
O98 Zn94 2.086 . S
C99 O95 1.278 . S
C99 O100 1.211 . S
O100 C99 1.211 . S
C101 O93 1.284 . S
C101 O102 1.287 . S
O102 C101 1.287 . S
O103 Zn94 1.977 1_655 S
O103 C96 1.267 . S
C104 O105 1.160 . S
C104 O111 1.185 . S
O105 C104 1.160 . S
O106 Zn107 1.899 . S
O106 C114 1.277 1_545 S
Zn107 O106 1.899 . S
Zn107 O108 2.032 . S
Zn107 O111 2.086 . S
Zn107 O116 1.977 1_545 S
O108 Zn107 2.032 . S
O108 C112 1.278 . S
C109 O110 1.203 . S
C109 O116 1.267 . S
O110 C109 1.203 . S
O111 C104 1.185 . S
O111 Zn107 2.086 . S
C112 O108 1.278 . S
C112 O113 1.211 1_545 S
O113 C112 1.211 1_565 S
C114 O106 1.277 1_565 S
C114 O115 1.284 . S
O115 C114 1.284 . S
O116 Zn107 1.977 1_565 S
O116 C109 1.267 . S
C117 O118 1.160 . S
C117 O124 1.185 . S
O118 C117 1.160 . S
O119 Zn120 1.899 . S
O119 C127 1.284 . S
Zn120 O119 1.899 . S
Zn120 O121 2.032 . S
Zn120 O124 2.086 . S
Zn120 O129 1.977 . S
O121 Zn120 2.032 . S
O121 C125 1.278 . S
C122 O123 1.203 . S
C122 O129 1.267 . S
O123 C122 1.203 . S
O124 C117 1.185 . S
O124 Zn120 2.086 . S
C125 O121 1.278 . S
C125 O126 1.211 . S
O126 C125 1.211 . S
C127 O119 1.284 . S
C127 O128 1.273 . S
O128 C127 1.273 . S
O129 Zn120 1.977 . S
O129 C122 1.267 . S
C130 O131 1.160 . S
C130 O137 1.185 . S
O131 C130 1.160 . S
O132 Zn133 1.899 . S
O132 C140 1.284 . S
Zn133 O132 1.899 . S
Zn133 O134 2.032 . S
Zn133 O137 2.086 . S
Zn133 O142 1.977 1_565 S
O134 Zn133 2.032 . S
O134 C138 1.278 1_565 S
C135 O136 1.203 . S
C135 O142 1.267 . S
O136 C135 1.203 . S
O137 C130 1.185 . S
O137 Zn133 2.086 . S
C138 O134 1.278 1_545 S
C138 O139 1.211 . S
O139 C138 1.211 . S
C140 O132 1.284 . S
C140 O141 1.273 1_565 S
O141 C140 1.273 1_545 S
O142 Zn133 1.977 1_545 S
O142 C135 1.267 . S
C143 O144 1.160 . S
C143 O150 1.185 . S
O144 C143 1.160 . S
O145 Zn146 1.899 . S
O145 C153 1.284 . S
Zn146 O145 1.899 . S
Zn146 O147 2.032 1_554 S
Zn146 O150 2.086 . S
Zn146 O155 1.977 . S
O147 Zn146 2.032 1_556 S
O147 C151 1.278 . S
C148 O149 1.203 . S
C148 O155 1.267 . S
O149 C148 1.203 . S
O150 C143 1.185 . S
O150 Zn146 2.086 . S
C151 O147 1.278 . S
C151 O152 1.211 . S
O152 C151 1.211 . S
C153 O145 1.284 . S
C153 O154 1.273 . S
O154 C153 1.273 . S
O155 Zn146 1.977 . S
O155 C148 1.267 . S
C156 O157 1.160 . S
C156 O163 1.185 . S
O157 C156 1.160 . S
O158 Zn159 1.899 . S
O158 C166 1.284 . S
Zn159 O158 1.899 . S
Zn159 O160 2.032 . S
Zn159 O163 2.086 . S
Zn159 O168 1.977 . S
O160 Zn159 2.032 . S
O160 C164 1.278 1_554 S
C161 O162 1.203 . S
C161 O168 1.267 . S
O162 C161 1.203 . S
O163 C156 1.185 . S
O163 Zn159 2.086 . S
C164 O160 1.278 1_556 S
C164 O165 1.211 . S
O165 C164 1.211 . S
C166 O158 1.284 . S
C166 O167 1.273 . S
O167 C166 1.273 . S
O168 Zn159 1.977 . S
O168 C161 1.267 . S
C169 O170 1.160 . S
C169 O176 1.185 . S
O170 C169 1.160 . S
O171 Zn172 1.899 . S
O171 C179 1.284 . S
Zn172 O171 1.899 . S
Zn172 O173 2.032 . S
Zn172 O176 2.086 . S
Zn172 O181 1.977 . S
O173 Zn172 2.032 . S
O173 C177 1.278 1_554 S
C174 O175 1.203 . S
C174 O181 1.267 . S
O175 C174 1.203 . S
O176 C169 1.185 . S
O176 Zn172 2.086 . S
C177 O173 1.278 1_556 S
C177 O178 1.211 . S
O178 C177 1.211 . S
C179 O171 1.284 . S
C179 O180 1.273 . S
O180 C179 1.273 . S
O181 Zn172 1.977 . S
O181 C174 1.267 . S
C182 O183 1.160 . S
C182 O189 1.185 . S
O183 C182 1.160 . S
O184 Zn185 1.899 . S
O184 C192 1.284 . S
Zn185 O184 1.899 . S
Zn185 O186 2.032 . S
Zn185 O189 2.086 . S
Zn185 O194 1.977 . S
O186 Zn185 2.032 . S
O186 C190 1.278 . S
C187 O188 1.203 . S
C187 O194 1.267 . S
O188 C187 1.203 . S
O189 C182 1.185 . S
O189 Zn185 2.086 . S
C190 O186 1.278 . S
C190 O191 1.211 . S
O191 C190 1.211 . S
C192 O184 1.284 . S
C192 O193 1.273 . S
O193 C192 1.273 . S
O194 Zn185 1.977 . S
O194 C187 1.267 . S
C195 O196 1.160 . S
C195 O202 1.185 . S
O196 C195 1.160 . S
O197 Zn198 1.899 . S
O197 C205 1.284 . S
Zn198 O197 1.899 . S
Zn198 O199 2.032 . S
Zn198 O202 2.086 . S
Zn198 O207 1.977 . S
O199 Zn198 2.032 . S
O199 C203 1.278 . S
C200 O201 1.203 . S
C200 O207 1.267 . S
O201 C200 1.203 . S
O202 C195 1.185 . S
O202 Zn198 2.086 . S
C203 O199 1.278 . S
C203 O204 1.211 . S
O204 C203 1.211 . S
C205 O197 1.284 . S
C205 O206 1.273 . S
O206 C205 1.273 . S
O207 Zn198 1.977 . S
O207 C200 1.267 . S
C208 O209 1.160 . S
C208 O215 1.185 . S
O209 C208 1.160 . S
O210 Zn211 1.899 . S
O210 C218 1.284 . S
Zn211 O210 1.899 . S
Zn211 O212 2.032 . S
Zn211 O215 2.086 . S
Zn211 O220 1.977 . S
O212 Zn211 2.032 . S
O212 C216 1.278 . S
C213 O214 1.197 1_545 S
C213 O220 1.285 . S
O214 C213 1.197 1_565 S
O215 C208 1.185 . S
O215 Zn211 2.086 . S
C216 O212 1.278 . S
C216 O217 1.211 . S
O217 C216 1.211 . S
C218 O210 1.284 . S
C218 O219 1.273 1_655 S
O219 C218 1.273 1_455 S
O220 Zn211 1.977 . S
O220 C213 1.285 . S
C221 O222 1.160 . S
C221 O228 1.185 . S
O222 C221 1.160 . S
O223 Zn224 1.899 . S
O223 C231 1.284 . S
Zn224 O223 1.899 . S
Zn224 O225 2.032 . S
Zn224 O228 2.086 . S
Zn224 O233 1.977 . S
O225 Zn224 2.032 . S
O225 C229 1.278 . S
C226 O227 1.203 . S
C226 O233 1.267 . S
O227 C226 1.203 . S
O228 C221 1.185 . S
O228 Zn224 2.086 . S
C229 O225 1.278 . S
C229 O230 1.211 . S
O230 C229 1.211 . S
C231 O223 1.284 . S
C231 O232 1.273 . S
O232 C231 1.273 . S
O233 Zn224 1.977 . S
O233 C226 1.267 . S
C234 O235 1.160 . S
C234 O241 1.185 . S
O235 C234 1.160 . S
O236 Zn237 1.899 . S
O236 C244 1.284 . S
Zn237 O236 1.899 . S
Zn237 O238 2.032 . S
Zn237 O241 2.086 . S
Zn237 O246 1.977 . S
O238 Zn237 2.032 . S
O238 C242 1.278 . S
C239 O240 1.203 . S
C239 O246 1.267 . S
O240 C239 1.203 . S
O241 C234 1.185 . S
O241 Zn237 2.086 . S
C242 O238 1.278 . S
C242 O243 1.211 . S
O243 C242 1.211 . S
C244 O236 1.284 . S
C244 O245 1.273 . S
O245 C244 1.273 . S
O246 Zn237 1.977 . S
O246 C239 1.267 . S
C247 O248 1.160 1_545 S
C247 O254 1.185 . S
O248 C247 1.160 1_565 S
O249 Zn250 1.899 . S
O249 C257 1.284 . S
Zn250 O249 1.899 . S
Zn250 O251 2.032 . S
Zn250 O254 2.086 . S
Zn250 O259 1.977 . S
O251 Zn250 2.032 . S
O251 C255 1.278 . S
C252 O253 1.203 . S
C252 O259 1.267 . S
O253 C252 1.203 . S
O254 C247 1.185 . S
O254 Zn250 2.086 . S
C255 O251 1.278 . S
C255 O256 1.211 . S
O256 C255 1.211 . S
C257 O249 1.284 . S
C257 O258 1.273 . S
O258 C257 1.273 . S
O259 Zn250 1.977 . S
O259 C252 1.267 . S
C260 O261 1.160 . S
C260 O267 1.185 1_554 S
O261 C260 1.160 . S
O262 Zn263 1.899 . S
O262 C270 1.284 . S
Zn263 O262 1.899 . S
Zn263 O264 2.032 1_554 S
Zn263 O267 2.086 1_554 S
Zn263 O272 1.977 1_554 S
O264 Zn263 2.032 1_556 S
O264 C268 1.278 . S
C265 O266 1.203 1_556 S
C265 O272 1.267 . S
O266 C265 1.203 1_554 S
O267 C260 1.185 1_556 S
O267 Zn263 2.086 1_556 S
C268 O264 1.278 . S
C268 O269 1.211 . S
O269 C268 1.211 . S
C270 O262 1.284 . S
C270 O271 1.273 . S
O271 C270 1.273 . S
O272 Zn263 1.977 1_556 S
O272 C265 1.267 . S
C273 O274 1.160 . S
C273 O280 1.185 . S
O274 C273 1.160 . S
O275 Zn276 1.899 . S
O275 C283 1.284 . S
Zn276 O275 1.899 . S
Zn276 O277 2.032 . S
Zn276 O280 2.086 . S
Zn276 O285 1.977 . S
O277 Zn276 2.032 . S
O277 C281 1.278 . S
C278 O279 1.203 . S
C278 O285 1.267 . S
O279 C278 1.203 . S
O280 C273 1.185 . S
O280 Zn276 2.086 . S
C281 O277 1.278 . S
C281 O282 1.211 . S
O282 C281 1.211 . S
C283 O275 1.284 . S
C283 O284 1.273 . S
O284 C283 1.273 . S
O285 Zn276 1.977 . S
O285 C278 1.267 . S
C286 O287 1.160 . S
C286 O293 1.185 . S
O287 C286 1.160 . S
O288 Zn289 1.899 . S
O288 C296 1.284 . S
Zn289 O288 1.899 . S
Zn289 O290 2.032 . S
Zn289 O293 2.086 . S
Zn289 O298 1.977 . S
O290 Zn289 2.032 . S
O290 C294 1.278 . S
C291 O292 1.203 . S
C291 O298 1.267 . S
O292 C291 1.203 . S
O293 C286 1.185 . S
O293 Zn289 2.086 . S
C294 O290 1.278 . S
C294 O295 1.211 . S
O295 C294 1.211 . S
C296 O288 1.284 . S
C296 O297 1.273 . S
O297 C296 1.273 . S
O298 Zn289 1.977 . S
O298 C291 1.267 . S
C299 O300 1.160 . S
C299 O306 1.185 . S
O300 C299 1.160 . S
O301 Zn302 1.899 . S
O301 C309 1.284 . S
Zn302 O301 1.899 . S
Zn302 O303 2.032 . S
Zn302 O306 2.086 . S
Zn302 O311 1.977 . S
O303 Zn302 2.032 . S
O303 C307 1.278 . S
C304 O305 1.203 . S
C304 O311 1.267 . S
O305 C304 1.203 . S
O306 C299 1.185 . S
O306 Zn302 2.086 . S
C307 O303 1.278 . S
C307 O308 1.211 . S
O308 C307 1.211 . S
C309 O301 1.284 . S
C309 O310 1.273 . S
O310 C309 1.273 . S
O311 Zn302 1.977 . S
O311 C304 1.267 . S
Eu312 N343 2.657 1_546 S
Eu312 N350 2.609 1_545 S
Eu312 O356 2.558 1_455 S
Eu312 O357 2.612 1_556 S
Eu312 O359 2.339 1_556 S
Eu312 O360 2.563 . S
Eu312 O361 2.419 1_456 S
Eu312 O363 2.380 1_546 S
Eu312 O364 2.432 . S
Eu312 C376 2.848 1_455 S
C313 C316 1.429 . S
C313 C317 1.411 . S
C313 N320 1.377 . S
C314 C316 1.420 . S
C314 C318 1.423 . S
C314 C326 1.392 1_554 S
C315 C317 1.420 . S
C315 C318 1.351 . S
C315 H338 0.931 . S
C316 C313 1.429 . S
C316 C314 1.420 . S
C316 N324 1.362 . S
C317 C313 1.411 . S
C317 C315 1.420 . S
C317 C322 1.395 . S
C318 C314 1.423 . S
C318 C315 1.351 . S
C318 H330 0.930 . S
C319 C321 1.400 . S
C319 C322 1.386 . S
C319 H331 0.930 . S
N320 C313 1.377 . S
N320 C321 1.321 . S
N320 Eu323 2.609 . S
C321 C319 1.400 . S
C321 N320 1.321 . S
C321 H328 0.930 . S
C322 C317 1.395 . S
C322 C319 1.386 . S
C322 H341 0.930 . S
Eu323 N320 2.609 . S
Eu323 N324 2.657 . S
Eu323 O357 2.380 . S
Eu323 O358 2.432 . S
Eu323 O362 2.558 . S
Eu323 O363 2.612 1_545 S
Eu323 O365 2.339 1_554 S
Eu323 O366 2.563 1_545 S
Eu323 O367 2.419 . S
Eu323 C387 2.848 . S
N324 C316 1.362 . S
N324 Eu323 2.657 . S
N324 C325 1.334 1_554 S
C325 N324 1.334 1_556 S
C325 C327 1.413 . S
C325 H332 0.929 . S
C326 C314 1.392 1_556 S
C326 C327 1.367 . S
C326 H334 0.930 . S
C327 C325 1.413 . S
C327 C326 1.367 . S
C327 H329 0.930 . S
H328 C321 0.930 . S
H329 C327 0.930 . S
H330 C318 0.930 . S
H331 C319 0.930 . S
H332 C325 0.929 . S
H333 C347 0.930 . S
H334 C326 0.930 . S
H335 C353 0.930 . S
H336 C344 0.929 . S
H337 C351 0.930 . S
H338 C315 0.931 . S
H339 C345 0.930 . S
H340 C378 0.930 . S
H341 C322 0.930 . S
H342 C377 0.931 . S
N343 Eu312 2.657 1_564 S
N343 C344 1.334 . S
N343 C348 1.362 1_454 S
C344 H336 0.929 . S
C344 N343 1.334 . S
C344 C347 1.413 1_455 S
C345 H339 0.930 . S
C345 C346 1.392 . S
C345 C347 1.367 . S
C346 C345 1.392 . S
C346 C348 1.420 1_554 S
C346 C378 1.423 1_554 S
C347 H333 0.930 . S
C347 C344 1.413 1_655 S
C347 C345 1.367 . S
C348 N343 1.362 1_656 S
C348 C346 1.420 1_556 S
C348 C352 1.429 . S
H349 C354 0.930 . S
N350 Eu312 2.609 1_565 S
N350 C352 1.377 1_455 S
N350 C353 1.321 . S
C351 H337 0.930 . S
C351 C353 1.400 1_655 S
C351 C354 1.386 . S
C352 C348 1.429 . S
C352 N350 1.377 1_655 S
C352 C355 1.411 . S
C353 H335 0.930 . S
C353 N350 1.321 . S
C353 C351 1.400 1_455 S
C354 H349 0.930 . S
C354 C351 1.386 . S
C354 C355 1.395 . S
C355 C352 1.411 . S
C355 C354 1.395 . S
C355 C377 1.420 . S
O356 Eu312 2.558 1_655 S
O356 C376 1.257 . S
O357 Eu312 2.612 1_554 S
O357 Eu323 2.380 . S
O357 C368 1.276 . S
O358 Eu323 2.432 . S
O358 C375 1.264 . S
O359 Eu312 2.339 1_554 S
O359 C375 1.254 . S
O360 Eu312 2.563 . S
O360 C368 1.235 1_556 S
O361 Eu312 2.419 1_654 S
O361 C376 1.249 1_554 S
O362 Eu323 2.558 . S
O362 C387 1.257 . S
O363 Eu312 2.380 1_564 S
O363 Eu323 2.612 1_565 S
O363 C379 1.276 . S
O364 Eu312 2.432 . S
O364 C386 1.264 . S
O365 Eu323 2.339 1_556 S
O365 C386 1.254 . S
O366 Eu323 2.563 1_565 S
O366 C379 1.235 . S
O367 Eu323 2.419 . S
O367 C387 1.249 . S
C368 O357 1.276 . S
C368 O360 1.235 1_554 S
C369 C371 1.393 . S
C369 C373 1.395 1_545 S
C369 C376 1.492 . S
C370 C371 1.392 . S
C370 C372 1.386 . S
C371 C369 1.393 . S
C371 C370 1.392 . S
C371 H388 0.930 1_556 S
C372 C370 1.386 . S
C372 C374 1.395 . S
C372 H389 0.930 . S
C373 C369 1.395 1_565 S
C373 C374 1.379 1_565 S
C373 H390 0.930 . S
C374 C372 1.395 . S
C374 C373 1.379 1_545 S
C374 H391 0.930 1_545 S
C375 O358 1.264 . S
C375 O359 1.254 . S
C376 Eu312 2.848 1_655 S
C376 O356 1.257 . S
C376 O361 1.249 1_556 S
C376 C369 1.492 . S
C377 H342 0.931 . S
C377 C355 1.420 . S
C377 C378 1.351 . S
C378 H340 0.930 . S
C378 C346 1.423 1_556 S
C378 C377 1.351 . S
C379 O363 1.276 . S
C379 O366 1.235 . S
C380 C381 1.393 . S
C380 C384 1.395 . S
C380 C387 1.492 . S
C381 C380 1.393 . S
C381 C382 1.392 . S
C381 H392 0.930 . S
C382 C381 1.392 . S
C382 C383 1.386 . S
C383 C382 1.386 . S
C383 C385 1.395 . S
C383 H393 0.930 . S
C384 C380 1.395 . S
C384 C385 1.379 . S
C384 H394 0.930 . S
C385 C383 1.395 . S
C385 C384 1.379 . S
C385 H395 0.930 . S
C386 O364 1.264 . S
C386 O365 1.254 . S
C387 Eu323 2.848 . S
C387 O362 1.257 . S
C387 O367 1.249 . S
C387 C380 1.492 . S
H388 C371 0.930 1_554 S
H389 C372 0.930 . S
H390 C373 0.930 . S
H391 C374 0.930 1_565 S
H392 C381 0.930 . S
H393 C383 0.930 . S
H394 C384 0.930 . S
H395 C385 0.930 . S
Eu396 N427 2.657 . S
Eu396 N434 2.609 . S
Eu396 O440 2.558 . S
Eu396 O441 2.612 . S
Eu396 O443 2.339 . S
Eu396 O444 2.563 . S
Eu396 O445 2.419 . S
Eu396 O447 2.380 . S
Eu396 O448 2.432 . S
Eu396 C460 2.848 . S
C397 C400 1.429 . S
C397 C401 1.411 . S
C397 N404 1.377 . S
C398 C400 1.420 . S
C398 C402 1.423 . S
C398 C410 1.392 . S
C399 C401 1.420 . S
C399 C402 1.351 . S
C399 H422 0.931 . S
C400 C397 1.429 . S
C400 C398 1.420 . S
C400 N408 1.362 . S
C401 C397 1.411 . S
C401 C399 1.420 . S
C401 C406 1.395 . S
C402 C398 1.423 . S
C402 C399 1.351 . S
C402 H414 0.930 . S
C403 C405 1.400 . S
C403 C406 1.386 . S
C403 H415 0.930 . S
N404 C397 1.377 . S
N404 C405 1.321 . S
N404 Eu407 2.609 . S
C405 C403 1.400 . S
C405 N404 1.321 . S
C405 H412 0.930 . S
C406 C401 1.395 . S
C406 C403 1.386 . S
C406 H425 0.930 . S
Eu407 N404 2.609 . S
Eu407 N408 2.657 . S
Eu407 O441 2.380 . S
Eu407 O442 2.432 . S
Eu407 O446 2.558 . S
Eu407 O447 2.612 . S
Eu407 O449 2.339 . S
Eu407 O450 2.563 . S
Eu407 O451 2.419 . S
Eu407 C471 2.848 . S
N408 C400 1.362 . S
N408 Eu407 2.657 . S
N408 C409 1.334 . S
C409 N408 1.334 . S
C409 C411 1.413 . S
C409 H416 0.929 . S
C410 C398 1.392 . S
C410 C411 1.367 . S
C410 H418 0.930 . S
C411 C409 1.413 . S
C411 C410 1.367 . S
C411 H413 0.930 . S
H412 C405 0.930 . S
H413 C411 0.930 . S
H414 C402 0.930 . S
H415 C403 0.930 . S
H416 C409 0.929 . S
H417 C431 0.930 . S
H418 C410 0.930 . S
H419 C437 0.930 . S
H420 C428 0.929 . S
H421 C435 0.930 . S
H422 C399 0.931 . S
H423 C429 0.930 . S
H424 C462 0.930 . S
H425 C406 0.930 . S
H426 C461 0.931 . S
N427 Eu396 2.657 . S
N427 C428 1.334 . S
N427 C432 1.362 . S
C428 H420 0.929 . S
C428 N427 1.334 . S
C428 C431 1.413 . S
C429 H423 0.930 . S
C429 C430 1.392 . S
C429 C431 1.367 . S
C430 C429 1.392 . S
C430 C432 1.420 . S
C430 C462 1.423 . S
C431 H417 0.930 . S
C431 C428 1.413 . S
C431 C429 1.367 . S
C432 N427 1.362 . S
C432 C430 1.420 . S
C432 C436 1.429 . S
H433 C438 0.930 . S
N434 Eu396 2.609 . S
N434 C436 1.377 . S
N434 C437 1.321 . S
C435 H421 0.930 . S
C435 C437 1.400 . S
C435 C438 1.386 . S
C436 C432 1.429 . S
C436 N434 1.377 . S
C436 C439 1.411 . S
C437 H419 0.930 . S
C437 N434 1.321 . S
C437 C435 1.400 . S
C438 H433 0.930 . S
C438 C435 1.386 . S
C438 C439 1.395 . S
C439 C436 1.411 . S
C439 C438 1.395 . S
C439 C461 1.420 . S
O440 Eu396 2.558 . S
O440 C460 1.257 . S
O441 Eu396 2.612 . S
O441 Eu407 2.380 . S
O441 C452 1.276 . S
O442 Eu407 2.432 . S
O442 C459 1.264 . S
O443 Eu396 2.339 . S
O443 C459 1.254 . S
O444 Eu396 2.563 . S
O444 C452 1.235 . S
O445 Eu396 2.419 . S
O445 C460 1.249 . S
O446 Eu407 2.558 . S
O446 C471 1.257 . S
O447 Eu396 2.380 . S
O447 Eu407 2.612 . S
O447 C463 1.276 . S
O448 Eu396 2.432 . S
O448 C470 1.264 . S
O449 Eu407 2.339 . S
O449 C470 1.254 . S
O450 Eu407 2.563 . S
O450 C463 1.235 . S
O451 Eu407 2.419 . S
O451 C471 1.249 . S
C452 O441 1.276 . S
C452 O444 1.235 . S
C453 C455 1.393 . S
C453 C457 1.395 . S
C453 C460 1.492 . S
C454 C455 1.392 . S
C454 C456 1.386 . S
C455 C453 1.393 . S
C455 C454 1.392 . S
C455 H472 0.930 . S
C456 C454 1.386 . S
C456 C458 1.395 . S
C456 H473 0.930 . S
C457 C453 1.395 . S
C457 C458 1.379 . S
C457 H474 0.930 . S
C458 C456 1.395 . S
C458 C457 1.379 . S
C458 H475 0.930 . S
C459 O442 1.264 . S
C459 O443 1.254 . S
C460 Eu396 2.848 . S
C460 O440 1.257 . S
C460 O445 1.249 . S
C460 C453 1.492 . S
C461 H426 0.931 . S
C461 C439 1.420 . S
C461 C462 1.351 . S
C462 H424 0.930 . S
C462 C430 1.423 . S
C462 C461 1.351 . S
C463 O447 1.276 . S
C463 O450 1.235 . S
C464 C465 1.393 . S
C464 C468 1.395 . S
C464 C471 1.492 . S
C465 C464 1.393 . S
C465 C466 1.392 . S
C465 H476 0.930 . S
C466 C465 1.392 . S
C466 C467 1.386 . S
C467 C466 1.386 . S
C467 C469 1.395 . S
C467 H477 0.930 . S
C468 C464 1.395 . S
C468 C469 1.379 . S
C468 H478 0.930 . S
C469 C467 1.395 . S
C469 C468 1.379 . S
C469 H479 0.930 . S
C470 O448 1.264 . S
C470 O449 1.254 . S
C471 Eu407 2.848 . S
C471 O446 1.257 . S
C471 O451 1.249 . S
C471 C464 1.492 . S
H472 C455 0.930 . S
H473 C456 0.930 . S
H474 C457 0.930 . S
H475 C458 0.930 . S
H476 C465 0.930 . S
H477 C467 0.930 . S
H478 C468 0.930 . S
H479 C469 0.930 . S
Eu480 N511 2.657 . S
Eu480 N518 2.609 . S
Eu480 O524 2.558 . S
Eu480 O525 2.612 . S
Eu480 O527 2.339 . S
Eu480 O528 2.563 1_545 S
Eu480 O529 2.419 . S
Eu480 O531 2.380 . S
Eu480 O532 2.432 . S
Eu480 C544 2.848 . S
C481 C484 1.429 . S
C481 C485 1.411 . S
C481 N488 1.377 1_565 S
C482 C484 1.420 . S
C482 C486 1.423 . S
C482 C494 1.392 . S
C483 C485 1.420 . S
C483 C486 1.351 . S
C483 H506 0.931 . S
C484 C481 1.429 . S
C484 C482 1.420 . S
C484 N492 1.362 . S
C485 C481 1.411 . S
C485 C483 1.420 . S
C485 C490 1.395 . S
C486 C482 1.423 . S
C486 C483 1.351 . S
C486 H498 0.930 . S
C487 C489 1.383 1_565 S
C487 C490 1.407 . S
C487 H499 0.925 1_565 S
N488 C481 1.377 1_545 S
N488 C489 1.321 . S
N488 Eu491 2.609 . S
C489 C487 1.383 1_545 S
C489 N488 1.321 . S
C489 H496 0.930 . S
C490 C485 1.395 . S
C490 C487 1.407 . S
C490 H509 0.930 . S
Eu491 N488 2.609 . S
Eu491 N492 2.657 1_545 S
Eu491 O525 2.380 . S
Eu491 O526 2.432 . S
Eu491 O530 2.558 . S
Eu491 O531 2.612 . S
Eu491 O533 2.339 . S
Eu491 O534 2.563 . S
Eu491 O535 2.419 . S
Eu491 C555 2.848 . S
N492 C484 1.362 . S
N492 Eu491 2.657 1_565 S
N492 C493 1.334 . S
C493 N492 1.334 . S
C493 C495 1.413 . S
C493 H500 0.929 . S
C494 C482 1.392 . S
C494 C495 1.367 . S
C494 H502 0.930 . S
C495 C493 1.413 . S
C495 C494 1.367 . S
C495 H497 0.930 . S
H496 C489 0.930 . S
H497 C495 0.930 . S
H498 C486 0.930 . S
H499 C487 0.925 1_545 S
H500 C493 0.929 . S
H501 C515 0.930 . S
H502 C494 0.930 . S
H503 C521 0.930 . S
H504 C512 0.929 . S
H505 C519 0.930 . S
H506 C483 0.931 . S
H507 C513 0.930 . S
H508 C546 0.930 . S
H509 C490 0.930 . S
H510 C545 0.931 . S
N511 Eu480 2.657 . S
N511 C512 1.334 . S
N511 C516 1.362 . S
C512 H504 0.929 . S
C512 N511 1.334 . S
C512 C515 1.413 . S
C513 H507 0.930 . S
C513 C514 1.392 . S
C513 C515 1.367 . S
C514 C513 1.392 . S
C514 C516 1.420 . S
C514 C546 1.423 . S
C515 H501 0.930 . S
C515 C512 1.413 . S
C515 C513 1.367 . S
C516 N511 1.362 . S
C516 C514 1.420 . S
C516 C520 1.429 . S
H517 C522 0.930 . S
N518 Eu480 2.609 . S
N518 C520 1.377 . S
N518 C521 1.321 . S
C519 H505 0.930 . S
C519 C521 1.400 . S
C519 C522 1.386 . S
C520 C516 1.429 . S
C520 N518 1.377 . S
C520 C523 1.411 . S
C521 H503 0.930 . S
C521 N518 1.321 . S
C521 C519 1.400 . S
C522 H517 0.930 . S
C522 C519 1.386 . S
C522 C523 1.395 . S
C523 C520 1.411 . S
C523 C522 1.395 . S
C523 C545 1.420 . S
O524 Eu480 2.558 . S
O524 C544 1.257 . S
O525 Eu480 2.612 . S
O525 Eu491 2.380 . S
O525 C536 1.276 1_545 S
O526 Eu491 2.432 . S
O526 C543 1.264 . S
O527 Eu480 2.339 . S
O527 C543 1.254 . S
O528 Eu480 2.563 1_565 S
O528 C536 1.235 . S
O529 Eu480 2.419 . S
O529 C544 1.249 . S
O530 Eu491 2.558 . S
O530 C555 1.257 . S
O531 Eu480 2.380 . S
O531 Eu491 2.612 . S
O531 C547 1.276 . S
O532 Eu480 2.432 . S
O532 C554 1.264 . S
O533 Eu491 2.339 . S
O533 C554 1.254 . S
O534 Eu491 2.563 . S
O534 C547 1.235 . S
O535 Eu491 2.419 . S
O535 C555 1.249 . S
C536 O525 1.276 1_565 S
C536 O528 1.235 . S
C537 C539 1.393 . S
C537 C541 1.395 . S
C537 C544 1.492 1_565 S
C538 C539 1.392 . S
C538 C540 1.386 . S
C539 C537 1.393 . S
C539 C538 1.392 . S
C539 H556 0.930 . S
C540 C538 1.386 . S
C540 C542 1.395 . S
C540 H557 0.930 . S
C541 C537 1.395 . S
C541 C542 1.379 . S
C541 H558 0.930 . S
C542 C540 1.395 . S
C542 C541 1.379 . S
C542 H559 0.930 . S
C543 O526 1.264 . S
C543 O527 1.254 . S
C544 Eu480 2.848 . S
C544 O524 1.257 . S
C544 O529 1.249 . S
C544 C537 1.492 1_545 S
C545 H510 0.931 . S
C545 C523 1.420 . S
C545 C546 1.351 . S
C546 H508 0.930 . S
C546 C514 1.423 . S
C546 C545 1.351 . S
C547 O531 1.276 . S
C547 O534 1.235 . S
C548 C549 1.393 . S
C548 C552 1.395 . S
C548 C555 1.492 . S
C549 C548 1.393 . S
C549 C550 1.392 . S
C549 H560 0.930 . S
C550 C549 1.392 . S
C550 C551 1.386 . S
C551 C550 1.386 . S
C551 C553 1.395 . S
C551 H561 0.930 . S
C552 C548 1.395 . S
C552 C553 1.379 . S
C552 H562 0.930 . S
C553 C551 1.395 . S
C553 C552 1.379 . S
C553 H563 0.930 . S
C554 O532 1.264 . S
C554 O533 1.254 . S
C555 Eu491 2.848 . S
C555 O530 1.257 . S
C555 O535 1.249 . S
C555 C548 1.492 . S
H556 C539 0.930 . S
H557 C540 0.930 . S
H558 C541 0.930 . S
H559 C542 0.930 . S
H560 C549 0.930 . S
H561 C551 0.930 . S
H562 C552 0.930 . S
H563 C553 0.930 . S
Eu564 N595 2.657 . S
Eu564 N602 2.609 . S
Eu564 O608 2.558 . S
Eu564 O609 2.612 . S
Eu564 O611 2.339 . S
Eu564 O612 2.563 . S
Eu564 O613 2.419 . S
Eu564 O615 2.380 . S
Eu564 O616 2.432 . S
Eu564 C628 2.848 . S
C565 C568 1.429 . S
C565 C569 1.411 . S
C565 N572 1.377 . S
C566 C568 1.420 . S
C566 C570 1.423 . S
C566 C578 1.392 . S
C567 C569 1.420 . S
C567 C570 1.351 . S
C567 H590 0.931 . S
C568 C565 1.429 . S
C568 C566 1.420 . S
C568 N576 1.362 . S
C569 C565 1.411 . S
C569 C567 1.420 . S
C569 C574 1.395 . S
C570 C566 1.423 . S
C570 C567 1.351 . S
C570 H582 0.930 . S
C571 C573 1.400 . S
C571 C574 1.386 . S
C571 H583 0.930 . S
N572 C565 1.377 . S
N572 C573 1.321 . S
N572 Eu575 2.609 . S
C573 C571 1.400 . S
C573 N572 1.321 . S
C573 H580 0.930 . S
C574 C569 1.395 . S
C574 C571 1.386 . S
C574 H593 0.930 . S
Eu575 N572 2.609 . S
Eu575 N576 2.657 . S
Eu575 O609 2.380 . S
Eu575 O610 2.432 . S
Eu575 O614 2.558 . S
Eu575 O615 2.612 . S
Eu575 O617 2.339 . S
Eu575 O618 2.563 . S
Eu575 O619 2.419 . S
Eu575 C639 2.848 . S
N576 C568 1.362 . S
N576 Eu575 2.657 . S
N576 C577 1.334 . S
C577 N576 1.334 . S
C577 C579 1.413 . S
C577 H584 0.929 . S
C578 C566 1.392 . S
C578 C579 1.367 . S
C578 H586 0.930 . S
C579 C577 1.413 . S
C579 C578 1.367 . S
C579 H581 0.930 . S
H580 C573 0.930 . S
H581 C579 0.930 . S
H582 C570 0.930 . S
H583 C571 0.930 . S
H584 C577 0.929 . S
H585 C599 0.930 . S
H586 C578 0.930 . S
H587 C605 0.930 . S
H588 C596 0.929 . S
H589 C603 0.930 . S
H590 C567 0.931 . S
H591 C597 0.930 . S
H592 C630 0.930 . S
H593 C574 0.930 . S
H594 C629 0.931 . S
N595 Eu564 2.657 . S
N595 C596 1.334 . S
N595 C600 1.362 . S
C596 H588 0.929 . S
C596 N595 1.334 . S
C596 C599 1.413 . S
C597 H591 0.930 . S
C597 C598 1.392 . S
C597 C599 1.367 . S
C598 C597 1.392 . S
C598 C600 1.420 . S
C598 C630 1.423 . S
C599 H585 0.930 . S
C599 C596 1.413 . S
C599 C597 1.367 . S
C600 N595 1.362 . S
C600 C598 1.420 . S
C600 C604 1.429 . S
H601 C606 0.930 . S
N602 Eu564 2.609 . S
N602 C604 1.377 . S
N602 C605 1.321 . S
C603 H589 0.930 . S
C603 C605 1.400 . S
C603 C606 1.386 . S
C604 C600 1.429 . S
C604 N602 1.377 . S
C604 C607 1.411 . S
C605 H587 0.930 . S
C605 N602 1.321 . S
C605 C603 1.400 . S
C606 H601 0.930 . S
C606 C603 1.386 . S
C606 C607 1.395 . S
C607 C604 1.411 . S
C607 C606 1.395 . S
C607 C629 1.420 . S
O608 Eu564 2.558 . S
O608 C628 1.257 . S
O609 Eu564 2.612 . S
O609 Eu575 2.380 . S
O609 C620 1.276 . S
O610 Eu575 2.432 . S
O610 C627 1.264 . S
O611 Eu564 2.339 . S
O611 C627 1.254 . S
O612 Eu564 2.563 . S
O612 C620 1.235 . S
O613 Eu564 2.419 . S
O613 C628 1.249 . S
O614 Eu575 2.558 . S
O614 C639 1.257 . S
O615 Eu564 2.380 . S
O615 Eu575 2.612 . S
O615 C631 1.276 . S
O616 Eu564 2.432 . S
O616 C638 1.264 . S
O617 Eu575 2.339 . S
O617 C638 1.254 . S
O618 Eu575 2.563 . S
O618 C631 1.235 . S
O619 Eu575 2.419 . S
O619 C639 1.249 . S
C620 O609 1.276 . S
C620 O612 1.235 . S
C621 C623 1.393 . S
C621 C625 1.395 . S
C621 C628 1.492 . S
C622 C623 1.392 . S
C622 C624 1.386 . S
C623 C621 1.393 . S
C623 C622 1.392 . S
C623 H640 0.930 . S
C624 C622 1.386 . S
C624 C626 1.395 . S
C624 H641 0.930 . S
C625 C621 1.395 . S
C625 C626 1.379 . S
C625 H642 0.930 . S
C626 C624 1.395 . S
C626 C625 1.379 . S
C626 H643 0.930 . S
C627 O610 1.264 . S
C627 O611 1.254 . S
C628 Eu564 2.848 . S
C628 O608 1.257 . S
C628 O613 1.249 . S
C628 C621 1.492 . S
C629 H594 0.931 . S
C629 C607 1.420 . S
C629 C630 1.351 . S
C630 H592 0.930 . S
C630 C598 1.423 . S
C630 C629 1.351 . S
C631 O615 1.276 . S
C631 O618 1.235 . S
C632 C633 1.393 . S
C632 C636 1.395 . S
C632 C639 1.492 . S
C633 C632 1.393 . S
C633 C634 1.392 . S
C633 H644 0.930 . S
C634 C633 1.392 . S
C634 C635 1.386 . S
C635 C634 1.386 . S
C635 C637 1.395 . S
C635 H645 0.930 . S
C636 C632 1.395 . S
C636 C637 1.379 . S
C636 H646 0.930 . S
C637 C635 1.395 . S
C637 C636 1.379 . S
C637 H647 0.930 . S
C638 O616 1.264 . S
C638 O617 1.254 . S
C639 Eu575 2.848 . S
C639 O614 1.257 . S
C639 O619 1.249 . S
C639 C632 1.492 . S
H640 C623 0.930 . S
H641 C624 0.930 . S
H642 C625 0.930 . S
H643 C626 0.930 . S
H644 C633 0.930 . S
H645 C635 0.930 . S
H646 C636 0.930 . S
H647 C637 0.930 . S
Eu648 N679 2.657 . S
Eu648 N686 2.609 . S
Eu648 O692 2.558 . S
Eu648 O693 2.612 . S
Eu648 O695 2.339 . S
Eu648 O696 2.563 . S
Eu648 O697 2.419 . S
Eu648 O699 2.380 . S
Eu648 O700 2.432 . S
Eu648 C712 2.848 . S
C649 C652 1.429 . S
C649 C653 1.411 . S
C649 N656 1.377 . S
C650 C652 1.420 . S
C650 C654 1.423 . S
C650 C662 1.392 1_455 S
C651 C653 1.420 . S
C651 C654 1.351 . S
C651 H674 0.931 . S
C652 C649 1.429 . S
C652 C650 1.420 . S
C652 N660 1.362 . S
C653 C649 1.411 . S
C653 C651 1.420 . S
C653 C658 1.395 . S
C654 C650 1.423 . S
C654 C651 1.351 . S
C654 H666 0.930 . S
C655 C657 1.400 . S
C655 C658 1.386 . S
C655 H667 0.930 . S
N656 C649 1.377 . S
N656 C657 1.321 . S
N656 Eu659 2.609 . S
C657 C655 1.400 . S
C657 N656 1.321 . S
C657 H664 0.930 . S
C658 C653 1.395 . S
C658 C655 1.386 . S
C658 H677 0.930 . S
Eu659 N656 2.609 . S
Eu659 N660 2.657 . S
Eu659 O693 2.380 1_565 S
Eu659 O694 2.432 1_565 S
Eu659 O698 2.558 . S
Eu659 O699 2.612 1_565 S
Eu659 O701 2.339 . S
Eu659 O702 2.563 . S
Eu659 O703 2.419 . S
Eu659 C723 2.848 . S
N660 C652 1.362 . S
N660 Eu659 2.657 . S
N660 C661 1.334 . S
C661 N660 1.334 . S
C661 C663 1.413 1_455 S
C661 H668 0.943 . S
C662 C650 1.392 1_655 S
C662 C663 1.367 . S
C662 H670 0.930 . S
C663 C661 1.413 1_655 S
C663 C662 1.367 . S
C663 H665 0.930 . S
H664 C657 0.930 . S
H665 C663 0.930 . S
H666 C654 0.930 . S
H667 C655 0.930 . S
H668 C661 0.943 . S
H669 C683 0.930 . S
H670 C662 0.930 . S
H671 C689 0.930 . S
H672 C680 0.929 . S
H673 C687 0.930 1_655 S
H674 C651 0.931 . S
H675 C681 0.930 . S
H676 C714 0.930 . S
H677 C658 0.930 . S
H678 C713 0.931 . S
N679 Eu648 2.657 . S
N679 C680 1.334 . S
N679 C684 1.362 . S
C680 H672 0.929 . S
C680 N679 1.334 . S
C680 C683 1.413 . S
C681 H675 0.930 . S
C681 C682 1.392 . S
C681 C683 1.367 . S
C682 C681 1.392 . S
C682 C684 1.420 . S
C682 C714 1.423 . S
C683 H669 0.930 . S
C683 C680 1.413 . S
C683 C681 1.367 . S
C684 N679 1.362 . S
C684 C682 1.420 . S
C684 C688 1.429 . S
H685 C690 0.930 . S
N686 Eu648 2.609 . S
N686 C688 1.377 . S
N686 C689 1.321 . S
C687 H673 0.930 1_455 S
C687 C689 1.400 . S
C687 C690 1.386 . S
C688 C684 1.429 . S
C688 N686 1.377 . S
C688 C691 1.411 . S
C689 H671 0.930 . S
C689 N686 1.321 . S
C689 C687 1.400 . S
C690 H685 0.930 . S
C690 C687 1.386 . S
C690 C691 1.395 . S
C691 C688 1.411 . S
C691 C690 1.395 . S
C691 C713 1.420 . S
O692 Eu648 2.558 . S
O692 C712 1.257 . S
O693 Eu648 2.612 . S
O693 Eu659 2.380 1_545 S
O693 C704 1.276 . S
O694 Eu659 2.432 1_545 S
O694 C711 1.264 . S
O695 Eu648 2.339 . S
O695 C711 1.254 . S
O696 Eu648 2.563 . S
O696 C704 1.235 . S
O697 Eu648 2.419 . S
O697 C712 1.249 . S
O698 Eu659 2.558 . S
O698 C723 1.257 . S
O699 Eu648 2.380 . S
O699 Eu659 2.612 1_545 S
O699 C715 1.276 . S
O700 Eu648 2.432 . S
O700 C722 1.264 . S
O701 Eu659 2.339 . S
O701 C722 1.254 1_565 S
O702 Eu659 2.563 . S
O702 C715 1.235 1_565 S
O703 Eu659 2.419 . S
O703 C723 1.249 . S
C704 O693 1.276 . S
C704 O696 1.235 . S
C705 C707 1.393 . S
C705 C709 1.395 . S
C705 C712 1.492 . S
C706 C707 1.392 . S
C706 C708 1.386 . S
C707 C705 1.393 . S
C707 C706 1.392 . S
C707 H724 0.930 . S
C708 C706 1.386 . S
C708 C710 1.395 . S
C708 H725 0.930 . S
C709 C705 1.395 . S
C709 C710 1.379 . S
C709 H726 0.930 . S
C710 C708 1.395 . S
C710 C709 1.379 . S
C710 H727 0.930 . S
C711 O694 1.264 . S
C711 O695 1.254 . S
C712 Eu648 2.848 . S
C712 O692 1.257 . S
C712 O697 1.249 . S
C712 C705 1.492 . S
C713 H678 0.931 . S
C713 C691 1.420 . S
C713 C714 1.351 . S
C714 H676 0.930 . S
C714 C682 1.423 . S
C714 C713 1.351 . S
C715 O699 1.276 . S
C715 O702 1.235 1_545 S
C716 C717 1.393 . S
C716 C720 1.395 . S
C716 C723 1.492 . S
C717 C716 1.393 . S
C717 C718 1.392 . S
C717 H728 0.930 . S
C718 C717 1.392 . S
C718 C719 1.386 . S
C719 C718 1.386 . S
C719 C721 1.395 . S
C719 H729 0.930 . S
C720 C716 1.395 . S
C720 C721 1.379 . S
C720 H730 0.930 . S
C721 C719 1.395 . S
C721 C720 1.379 . S
C721 H731 0.930 . S
C722 O700 1.264 . S
C722 O701 1.254 1_545 S
C723 Eu659 2.848 . S
C723 O698 1.257 . S
C723 O703 1.249 . S
C723 C716 1.492 . S
H724 C707 0.930 . S
H725 C708 0.930 . S
H726 C709 0.930 . S
H727 C710 0.930 . S
H728 C717 0.930 . S
H729 C719 0.930 . S
H730 C720 0.930 . S
H731 C721 0.930 . S
Eu732 N763 2.657 . S
Eu732 N770 2.609 . S
Eu732 O776 2.558 . S
Eu732 O777 2.612 . S
Eu732 O779 2.339 . S
Eu732 O780 2.563 . S
Eu732 O781 2.419 . S
Eu732 O783 2.380 . S
Eu732 O784 2.432 . S
Eu732 C796 2.848 . S
C733 C736 1.429 . S
C733 C737 1.411 . S
C733 N740 1.377 . S
C734 C736 1.420 . S
C734 C738 1.423 . S
C734 C746 1.392 . S
C735 C737 1.420 . S
C735 C738 1.351 . S
C735 H758 0.931 . S
C736 C733 1.429 . S
C736 C734 1.420 . S
C736 N744 1.362 . S
C737 C733 1.411 . S
C737 C735 1.420 . S
C737 C742 1.395 . S
C738 C734 1.423 . S
C738 C735 1.351 . S
C738 H750 0.930 . S
C739 C741 1.400 . S
C739 C742 1.386 . S
C739 H751 0.930 . S
N740 C733 1.377 . S
N740 C741 1.321 . S
N740 Eu743 2.609 . S
C741 C739 1.400 . S
C741 N740 1.321 . S
C741 H748 0.930 . S
C742 C737 1.395 . S
C742 C739 1.386 . S
C742 H761 0.930 . S
Eu743 N740 2.609 . S
Eu743 N744 2.657 . S
Eu743 O777 2.380 . S
Eu743 O778 2.432 . S
Eu743 O782 2.558 . S
Eu743 O783 2.612 . S
Eu743 O785 2.339 . S
Eu743 O786 2.563 . S
Eu743 O787 2.419 . S
Eu743 C807 2.848 . S
N744 C736 1.362 . S
N744 Eu743 2.657 . S
N744 C745 1.334 . S
C745 N744 1.334 . S
C745 C747 1.413 . S
C745 H752 0.929 . S
C746 C734 1.392 . S
C746 C747 1.367 . S
C746 H754 0.930 . S
C747 C745 1.413 . S
C747 C746 1.367 . S
C747 H749 0.930 . S
H748 C741 0.930 . S
H749 C747 0.930 . S
H750 C738 0.930 . S
H751 C739 0.930 . S
H752 C745 0.929 . S
H753 C767 0.930 . S
H754 C746 0.930 . S
H755 C773 0.930 . S
H756 C764 0.929 . S
H757 C771 0.930 . S
H758 C735 0.931 . S
H759 C765 0.930 . S
H760 C798 0.930 . S
H761 C742 0.930 . S
H762 C797 0.931 . S
N763 Eu732 2.657 . S
N763 C764 1.334 . S
N763 C768 1.362 . S
C764 H756 0.929 . S
C764 N763 1.334 . S
C764 C767 1.413 . S
C765 H759 0.930 . S
C765 C766 1.392 . S
C765 C767 1.367 . S
C766 C765 1.392 . S
C766 C768 1.420 . S
C766 C798 1.423 . S
C767 H753 0.930 . S
C767 C764 1.413 . S
C767 C765 1.367 . S
C768 N763 1.362 . S
C768 C766 1.420 . S
C768 C772 1.429 . S
H769 C774 0.930 . S
N770 Eu732 2.609 . S
N770 C772 1.377 . S
N770 C773 1.321 . S
C771 H757 0.930 . S
C771 C773 1.400 . S
C771 C774 1.386 . S
C772 C768 1.429 . S
C772 N770 1.377 . S
C772 C775 1.411 . S
C773 H755 0.930 . S
C773 N770 1.321 . S
C773 C771 1.400 . S
C774 H769 0.930 . S
C774 C771 1.386 . S
C774 C775 1.395 . S
C775 C772 1.411 . S
C775 C774 1.395 . S
C775 C797 1.420 . S
O776 Eu732 2.558 . S
O776 C796 1.257 . S
O777 Eu732 2.612 . S
O777 Eu743 2.380 . S
O777 C788 1.276 . S
O778 Eu743 2.432 . S
O778 C795 1.264 . S
O779 Eu732 2.339 . S
O779 C795 1.254 . S
O780 Eu732 2.563 . S
O780 C788 1.235 . S
O781 Eu732 2.419 . S
O781 C796 1.249 . S
O782 Eu743 2.558 . S
O782 C807 1.257 . S
O783 Eu732 2.380 . S
O783 Eu743 2.612 . S
O783 C799 1.276 . S
O784 Eu732 2.432 . S
O784 C806 1.264 . S
O785 Eu743 2.339 . S
O785 C806 1.254 . S
O786 Eu743 2.563 . S
O786 C799 1.235 . S
O787 Eu743 2.419 . S
O787 C807 1.249 . S
C788 O777 1.276 . S
C788 O780 1.235 . S
C789 C791 1.393 . S
C789 C793 1.395 . S
C789 C796 1.492 . S
C790 C791 1.392 . S
C790 C792 1.386 . S
C791 C789 1.393 . S
C791 C790 1.392 . S
C791 H808 0.930 . S
C792 C790 1.386 . S
C792 C794 1.395 . S
C792 H809 0.930 . S
C793 C789 1.395 . S
C793 C794 1.379 . S
C793 H810 0.930 . S
C794 C792 1.395 . S
C794 C793 1.379 . S
C794 H811 0.930 . S
C795 O778 1.264 . S
C795 O779 1.254 . S
C796 Eu732 2.848 . S
C796 O776 1.257 . S
C796 O781 1.249 . S
C796 C789 1.492 . S
C797 H762 0.931 . S
C797 C775 1.420 . S
C797 C798 1.351 . S
C798 H760 0.930 . S
C798 C766 1.423 . S
C798 C797 1.351 . S
C799 O783 1.276 . S
C799 O786 1.235 . S
C800 C801 1.393 . S
C800 C804 1.395 . S
C800 C807 1.492 . S
C801 C800 1.393 . S
C801 C802 1.392 . S
C801 H812 0.930 . S
C802 C801 1.392 . S
C802 C803 1.386 . S
C803 C802 1.386 . S
C803 C805 1.395 . S
C803 H813 0.930 . S
C804 C800 1.395 . S
C804 C805 1.379 . S
C804 H814 0.930 . S
C805 C803 1.395 . S
C805 C804 1.379 . S
C805 H815 0.930 . S
C806 O784 1.264 . S
C806 O785 1.254 . S
C807 Eu743 2.848 . S
C807 O782 1.257 . S
C807 O787 1.249 . S
C807 C800 1.492 . S
H808 C791 0.930 . S
H809 C792 0.930 . S
H810 C793 0.930 . S
H811 C794 0.930 . S
H812 C801 0.930 . S
H813 C803 0.930 . S
H814 C804 0.930 . S
H815 C805 0.930 . S
Eu816 N847 2.657 . S
Eu816 N854 2.609 1_545 S
Eu816 O860 2.558 1_545 S
Eu816 O861 2.612 . S
Eu816 O863 2.339 . S
Eu816 O864 2.563 1_545 S
Eu816 O865 2.419 . S
Eu816 O867 2.380 . S
Eu816 O868 2.432 1_545 S
Eu816 C880 2.848 1_545 S
C817 C820 1.429 . S
C817 C821 1.411 . S
C817 N824 1.377 . S
C818 C820 1.420 1_565 S
C818 C822 1.423 1_565 S
C818 C830 1.392 . S
C819 C821 1.420 . S
C819 C822 1.351 . S
C819 H842 0.931 . S
C820 C817 1.429 . S
C820 C818 1.420 1_545 S
C820 N828 1.362 . S
C821 C817 1.411 . S
C821 C819 1.420 . S
C821 C826 1.395 . S
C822 C818 1.423 1_545 S
C822 C819 1.351 . S
C822 H834 0.930 1_545 S
C823 C825 1.400 . S
C823 C826 1.386 . S
C823 H835 0.930 . S
N824 C817 1.377 . S
N824 C825 1.321 . S
N824 Eu827 2.609 . S
C825 C823 1.400 . S
C825 N824 1.321 . S
C825 H832 0.930 . S
C826 C821 1.395 . S
C826 C823 1.386 . S
C826 H845 0.930 . S
Eu827 N824 2.609 . S
Eu827 N828 2.657 . S
Eu827 O861 2.380 1_556 S
Eu827 O862 2.432 1_556 S
Eu827 O866 2.558 . S
Eu827 O867 2.612 1_556 S
Eu827 O869 2.339 1_545 S
Eu827 O870 2.563 . S
Eu827 O871 2.419 . S
Eu827 C891 2.848 . S
N828 C820 1.362 . S
N828 Eu827 2.657 . S
N828 C829 1.334 1_545 S
C829 N828 1.334 1_565 S
C829 C831 1.413 . S
C829 H836 0.929 . S
C830 C818 1.392 . S
C830 C831 1.367 . S
C830 H838 0.930 . S
C831 C829 1.413 . S
C831 C830 1.367 . S
C831 H833 0.930 . S
H832 C825 0.930 . S
H833 C831 0.930 . S
H834 C822 0.930 1_565 S
H835 C823 0.930 . S
H836 C829 0.929 . S
H837 C851 0.930 . S
H838 C830 0.930 . S
H839 C857 0.930 . S
H840 C848 0.929 . S
H841 C855 0.930 . S
H842 C819 0.931 . S
H843 C849 0.930 . S
H844 C882 0.930 . S
H845 C826 0.930 . S
H846 C881 0.931 . S
N847 Eu816 2.657 . S
N847 C848 1.334 . S
N847 C852 1.362 . S
C848 H840 0.929 . S
C848 N847 1.334 . S
C848 C851 1.413 . S
C849 H843 0.930 . S
C849 C850 1.392 . S
C849 C851 1.367 . S
C850 C849 1.392 . S
C850 C852 1.420 . S
C850 C882 1.423 . S
C851 H837 0.930 . S
C851 C848 1.413 . S
C851 C849 1.367 . S
C852 N847 1.362 . S
C852 C850 1.420 . S
C852 C856 1.429 . S
H853 C858 0.930 . S
N854 Eu816 2.609 1_565 S
N854 C856 1.377 1_565 S
N854 C857 1.321 . S
C855 H841 0.930 . S
C855 C857 1.400 . S
C855 C858 1.386 . S
C856 C852 1.429 . S
C856 N854 1.377 1_545 S
C856 C859 1.411 1_545 S
C857 H839 0.930 . S
C857 N854 1.321 . S
C857 C855 1.400 . S
C858 H853 0.930 . S
C858 C855 1.386 . S
C858 C859 1.395 . S
C859 C856 1.411 1_565 S
C859 C858 1.395 . S
C859 C881 1.420 1_565 S
O860 Eu816 2.558 1_565 S
O860 C880 1.257 . S
O861 Eu816 2.612 . S
O861 Eu827 2.380 1_554 S
O861 C872 1.276 . S
O862 Eu827 2.432 1_554 S
O862 C879 1.264 . S
O863 Eu816 2.339 . S
O863 C879 1.254 . S
O864 Eu816 2.563 1_565 S
O864 C872 1.235 1_565 S
O865 Eu816 2.419 . S
O865 C880 1.249 1_545 S
O866 Eu827 2.558 . S
O866 C891 1.257 . S
O867 Eu816 2.380 . S
O867 Eu827 2.612 1_554 S
O867 C883 1.276 . S
O868 Eu816 2.432 1_565 S
O868 C890 1.264 1_554 S
O869 Eu827 2.339 1_565 S
O869 C890 1.254 . S
O870 Eu827 2.563 . S
O870 C883 1.235 1_556 S
O871 Eu827 2.419 . S
O871 C891 1.249 . S
C872 O861 1.276 . S
C872 O864 1.235 1_545 S
C873 C875 1.393 1_565 S
C873 C877 1.395 . S
C873 C880 1.492 . S
C874 C875 1.392 1_565 S
C874 C876 1.386 . S
C875 C873 1.393 1_545 S
C875 C874 1.392 1_545 S
C875 H892 0.930 . S
C876 C874 1.386 . S
C876 C878 1.395 . S
C876 H893 0.930 . S
C877 C873 1.395 . S
C877 C878 1.379 . S
C877 H894 0.930 . S
C878 C876 1.395 . S
C878 C877 1.379 . S
C878 H895 0.930 . S
C879 O862 1.264 . S
C879 O863 1.254 . S
C880 Eu816 2.848 1_565 S
C880 O860 1.257 . S
C880 O865 1.249 1_565 S
C880 C873 1.492 . S
C881 H846 0.931 . S
C881 C859 1.420 1_545 S
C881 C882 1.351 . S
C882 H844 0.930 . S
C882 C850 1.423 . S
C882 C881 1.351 . S
C883 O867 1.276 . S
C883 O870 1.235 1_554 S
C884 C885 1.393 . S
C884 C888 1.395 . S
C884 C891 1.492 . S
C885 C884 1.393 . S
C885 C886 1.392 . S
C885 H896 0.930 . S
C886 C885 1.392 . S
C886 C887 1.386 . S
C887 C886 1.386 . S
C887 C889 1.395 . S
C887 H897 0.930 . S
C888 C884 1.395 . S
C888 C889 1.379 . S
C888 H898 0.930 . S
C889 C887 1.395 . S
C889 C888 1.379 . S
C889 H899 0.930 . S
C890 O868 1.264 1_556 S
C890 O869 1.254 . S
C891 Eu827 2.848 . S
C891 O866 1.257 . S
C891 O871 1.249 . S
C891 C884 1.492 . S
H892 C875 0.930 . S
H893 C876 0.930 . S
H894 C877 0.930 . S
H895 C878 0.930 . S
H896 C885 0.930 . S
H897 C887 0.930 . S
H898 C888 0.930 . S
H899 C889 0.930 . S
Eu900 N931 2.657 . S
Eu900 N938 2.609 . S
Eu900 O944 2.558 . S
Eu900 O945 2.612 . S
Eu900 O947 2.339 . S
Eu900 O948 2.563 . S
Eu900 O949 2.419 . S
Eu900 O951 2.380 . S
Eu900 O952 2.432 . S
Eu900 C964 2.848 . S
C901 C904 1.429 . S
C901 C905 1.411 . S
C901 N908 1.377 . S
C902 C904 1.420 . S
C902 C906 1.423 . S
C902 C914 1.392 . S
C903 C905 1.420 . S
C903 C906 1.351 . S
C903 H926 0.931 . S
C904 C901 1.429 . S
C904 C902 1.420 . S
C904 N912 1.362 . S
C905 C901 1.411 . S
C905 C903 1.420 . S
C905 C910 1.395 . S
C906 C902 1.423 . S
C906 C903 1.351 . S
C906 H918 0.930 . S
C907 C909 1.400 . S
C907 C910 1.386 . S
C907 H919 0.930 . S
N908 C901 1.377 . S
N908 C909 1.321 . S
N908 Eu911 2.609 . S
C909 C907 1.400 . S
C909 N908 1.321 . S
C909 H916 0.930 . S
C910 C905 1.395 . S
C910 C907 1.386 . S
C910 H929 0.930 . S
Eu911 N908 2.609 . S
Eu911 N912 2.657 . S
Eu911 O945 2.380 . S
Eu911 O946 2.432 . S
Eu911 O950 2.558 . S
Eu911 O951 2.612 . S
Eu911 O953 2.339 . S
Eu911 O954 2.563 . S
Eu911 O955 2.419 . S
Eu911 C975 2.848 . S
N912 C904 1.362 . S
N912 Eu911 2.657 . S
N912 C913 1.334 . S
C913 N912 1.334 . S
C913 C915 1.413 . S
C913 H920 0.929 . S
C914 C902 1.392 . S
C914 C915 1.367 . S
C914 H922 0.930 . S
C915 C913 1.413 . S
C915 C914 1.367 . S
C915 H917 0.930 . S
H916 C909 0.930 . S
H917 C915 0.930 . S
H918 C906 0.930 . S
H919 C907 0.930 . S
H920 C913 0.929 . S
H921 C935 0.930 . S
H922 C914 0.930 . S
H923 C941 0.930 . S
H924 C932 0.929 . S
H925 C939 0.930 . S
H926 C903 0.931 . S
H927 C933 0.930 . S
H928 C966 0.930 . S
H929 C910 0.930 . S
H930 C965 0.931 . S
N931 Eu900 2.657 . S
N931 C932 1.334 . S
N931 C936 1.362 . S
C932 H924 0.929 . S
C932 N931 1.334 . S
C932 C935 1.413 . S
C933 H927 0.930 . S
C933 C934 1.392 . S
C933 C935 1.367 . S
C934 C933 1.392 . S
C934 C936 1.420 . S
C934 C966 1.423 . S
C935 H921 0.930 . S
C935 C932 1.413 . S
C935 C933 1.367 . S
C936 N931 1.362 . S
C936 C934 1.420 . S
C936 C940 1.429 . S
H937 C942 0.930 . S
N938 Eu900 2.609 . S
N938 C940 1.377 . S
N938 C941 1.321 . S
C939 H925 0.930 . S
C939 C941 1.400 . S
C939 C942 1.386 . S
C940 C936 1.429 . S
C940 N938 1.377 . S
C940 C943 1.411 . S
C941 H923 0.930 . S
C941 N938 1.321 . S
C941 C939 1.400 . S
C942 H937 0.930 . S
C942 C939 1.386 . S
C942 C943 1.395 . S
C943 C940 1.411 . S
C943 C942 1.395 . S
C943 C965 1.420 . S
O944 Eu900 2.558 . S
O944 C964 1.257 . S
O945 Eu900 2.612 . S
O945 Eu911 2.380 . S
O945 C956 1.276 . S
O946 Eu911 2.432 . S
O946 C963 1.264 . S
O947 Eu900 2.339 . S
O947 C963 1.254 . S
O948 Eu900 2.563 . S
O948 C956 1.235 . S
O949 Eu900 2.419 . S
O949 C964 1.249 . S
O950 Eu911 2.558 . S
O950 C975 1.257 . S
O951 Eu900 2.380 . S
O951 Eu911 2.612 . S
O951 C967 1.276 . S
O952 Eu900 2.432 . S
O952 C974 1.264 . S
O953 Eu911 2.339 . S
O953 C974 1.254 . S
O954 Eu911 2.563 . S
O954 C967 1.235 . S
O955 Eu911 2.419 . S
O955 C975 1.249 . S
C956 O945 1.276 . S
C956 O948 1.235 . S
C957 C959 1.393 . S
C957 C961 1.395 . S
C957 C964 1.492 . S
C958 C959 1.392 . S
C958 C960 1.386 . S
C959 C957 1.393 . S
C959 C958 1.392 . S
C959 H976 0.930 . S
C960 C958 1.386 . S
C960 C962 1.395 . S
C960 H977 0.930 . S
C961 C957 1.395 . S
C961 C962 1.379 . S
C961 H978 0.930 . S
C962 C960 1.395 . S
C962 C961 1.379 . S
C962 H979 0.930 . S
C963 O946 1.264 . S
C963 O947 1.254 . S
C964 Eu900 2.848 . S
C964 O944 1.257 . S
C964 O949 1.249 . S
C964 C957 1.492 . S
C965 H930 0.931 . S
C965 C943 1.420 . S
C965 C966 1.351 . S
C966 H928 0.930 . S
C966 C934 1.423 . S
C966 C965 1.351 . S
C967 O951 1.276 . S
C967 O954 1.235 . S
C968 C969 1.393 . S
C968 C972 1.395 . S
C968 C975 1.492 . S
C969 C968 1.393 . S
C969 C970 1.392 . S
C969 H980 0.930 . S
C970 C969 1.392 . S
C970 C971 1.386 . S
C971 C970 1.386 . S
C971 C973 1.395 . S
C971 H981 0.930 . S
C972 C968 1.395 . S
C972 C973 1.379 . S
C972 H982 0.930 . S
C973 C971 1.395 . S
C973 C972 1.379 . S
C973 H983 0.930 . S
C974 O952 1.264 . S
C974 O953 1.254 . S
C975 Eu911 2.848 . S
C975 O950 1.257 . S
C975 O955 1.249 . S
C975 C968 1.492 . S
H976 C959 0.930 . S
H977 C960 0.930 . S
H978 C961 0.930 . S
H979 C962 0.930 . S
H980 C969 0.930 . S
H981 C971 0.930 . S
H982 C972 0.930 . S
H983 C973 0.930 . S
Eu984 N1015 2.657 . S
Eu984 N1022 2.609 . S
Eu984 O1028 2.558 . S
Eu984 O1029 2.612 1_554 S
Eu984 O1031 2.339 . S
Eu984 O1032 2.563 1_554 S
Eu984 O1033 2.419 . S
Eu984 O1035 2.380 . S
Eu984 O1036 2.432 . S
Eu984 C1048 2.848 . S
C985 C988 1.429 . S
C985 C989 1.411 . S
C985 N992 1.377 . S
C986 C988 1.420 . S
C986 C990 1.423 . S
C986 C998 1.392 . S
C987 C989 1.420 . S
C987 C990 1.351 . S
C987 H1010 0.931 . S
C988 C985 1.429 . S
C988 C986 1.420 . S
C988 N996 1.362 . S
C989 C985 1.411 . S
C989 C987 1.420 . S
C989 C994 1.395 . S
C990 C986 1.423 . S
C990 C987 1.351 . S
C990 H1002 0.930 . S
C991 C993 1.400 . S
C991 C994 1.386 . S
C991 H1003 0.930 . S
N992 C985 1.377 . S
N992 C993 1.321 . S
N992 Eu995 2.609 1_556 S
C993 C991 1.400 . S
C993 N992 1.321 . S
C993 H1000 0.930 . S
C994 C989 1.395 . S
C994 C991 1.386 . S
C994 H1013 0.930 . S
Eu995 N992 2.609 1_554 S
Eu995 N996 2.657 1_554 S
Eu995 O1029 2.380 1_554 S
Eu995 O1030 2.432 . S
Eu995 O1034 2.558 . S
Eu995 O1035 2.612 . S
Eu995 O1037 2.339 . S
Eu995 O1038 2.563 . S
Eu995 O1039 2.419 . S
Eu995 C1059 2.848 . S
N996 C988 1.362 . S
N996 Eu995 2.657 1_556 S
N996 C997 1.334 . S
C997 N996 1.334 . S
C997 C999 1.413 . S
C997 H1004 0.929 . S
C998 C986 1.392 . S
C998 C999 1.367 . S
C998 H1006 0.930 . S
C999 C997 1.413 . S
C999 C998 1.367 . S
C999 H1001 0.930 . S
H1000 C993 0.930 . S
H1001 C999 0.930 . S
H1002 C990 0.930 . S
H1003 C991 0.930 . S
H1004 C997 0.929 . S
H1005 C1019 0.930 . S
H1006 C998 0.930 . S
H1007 C1025 0.930 . S
H1008 C1016 0.929 . S
H1009 C1023 0.930 . S
H1010 C987 0.931 . S
H1011 C1017 0.930 . S
H1012 C1050 0.930 . S
H1013 C994 0.930 . S
H1014 C1049 0.931 . S
N1015 Eu984 2.657 . S
N1015 C1016 1.334 . S
N1015 C1020 1.362 . S
C1016 H1008 0.929 . S
C1016 N1015 1.334 . S
C1016 C1019 1.413 . S
C1017 H1011 0.930 . S
C1017 C1018 1.392 . S
C1017 C1019 1.367 . S
C1018 C1017 1.392 . S
C1018 C1020 1.420 . S
C1018 C1050 1.423 . S
C1019 H1005 0.930 . S
C1019 C1016 1.413 . S
C1019 C1017 1.367 . S
C1020 N1015 1.362 . S
C1020 C1018 1.420 . S
C1020 C1024 1.429 . S
H1021 C1026 0.930 . S
N1022 Eu984 2.609 . S
N1022 C1024 1.377 . S
N1022 C1025 1.321 . S
C1023 H1009 0.930 . S
C1023 C1025 1.400 . S
C1023 C1026 1.386 . S
C1024 C1020 1.429 . S
C1024 N1022 1.377 . S
C1024 C1027 1.411 . S
C1025 H1007 0.930 . S
C1025 N1022 1.321 . S
C1025 C1023 1.400 . S
C1026 H1021 0.930 . S
C1026 C1023 1.386 . S
C1026 C1027 1.395 . S
C1027 C1024 1.411 . S
C1027 C1026 1.395 . S
C1027 C1049 1.420 . S
O1028 Eu984 2.558 . S
O1028 C1048 1.257 . S
O1029 Eu984 2.612 1_556 S
O1029 Eu995 2.380 1_556 S
O1029 C1040 1.276 . S
O1030 Eu995 2.432 . S
O1030 C1047 1.264 . S
O1031 Eu984 2.339 . S
O1031 C1047 1.254 . S
O1032 Eu984 2.563 1_556 S
O1032 C1040 1.235 . S
O1033 Eu984 2.419 . S
O1033 C1048 1.249 . S
O1034 Eu995 2.558 . S
O1034 C1059 1.257 . S
O1035 Eu984 2.380 . S
O1035 Eu995 2.612 . S
O1035 C1051 1.276 . S
O1036 Eu984 2.432 . S
O1036 C1058 1.264 . S
O1037 Eu995 2.339 . S
O1037 C1058 1.254 . S
O1038 Eu995 2.563 . S
O1038 C1051 1.235 . S
O1039 Eu995 2.419 . S
O1039 C1059 1.249 . S
C1040 O1029 1.276 . S
C1040 O1032 1.235 . S
C1041 C1043 1.393 . S
C1041 C1045 1.395 . S
C1041 C1048 1.492 . S
C1042 C1043 1.392 1_556 S
C1042 C1044 1.386 1_556 S
C1043 C1041 1.393 . S
C1043 C1042 1.392 1_554 S
C1043 H1060 0.930 1_554 S
C1044 C1042 1.386 1_554 S
C1044 C1046 1.395 . S
C1044 H1061 0.930 . S
C1045 C1041 1.395 . S
C1045 C1046 1.379 . S
C1045 H1062 0.930 . S
C1046 C1044 1.395 . S
C1046 C1045 1.379 . S
C1046 H1063 0.930 . S
C1047 O1030 1.264 . S
C1047 O1031 1.254 . S
C1048 Eu984 2.848 . S
C1048 O1028 1.257 . S
C1048 O1033 1.249 . S
C1048 C1041 1.492 . S
C1049 H1014 0.931 . S
C1049 C1027 1.420 . S
C1049 C1050 1.351 . S
C1050 H1012 0.930 . S
C1050 C1018 1.423 . S
C1050 C1049 1.351 . S
C1051 O1035 1.276 . S
C1051 O1038 1.235 . S
C1052 C1053 1.393 . S
C1052 C1056 1.395 . S
C1052 C1059 1.492 . S
C1053 C1052 1.393 . S
C1053 C1054 1.392 . S
C1053 H1064 0.930 . S
C1054 C1053 1.392 . S
C1054 C1055 1.386 . S
C1055 C1054 1.386 . S
C1055 C1057 1.395 . S
C1055 H1065 0.930 . S
C1056 C1052 1.395 . S
C1056 C1057 1.379 . S
C1056 H1066 0.930 1_554 S
C1057 C1055 1.395 . S
C1057 C1056 1.379 . S
C1057 H1067 0.930 . S
C1058 O1036 1.264 . S
C1058 O1037 1.254 . S
C1059 Eu995 2.848 . S
C1059 O1034 1.257 . S
C1059 O1039 1.249 . S
C1059 C1052 1.492 . S
H1060 C1043 0.930 1_556 S
H1061 C1044 0.930 . S
H1062 C1045 0.930 . S
H1063 C1046 0.930 . S
H1064 C1053 0.930 . S
H1065 C1055 0.930 . S
H1066 C1056 0.930 1_556 S
H1067 C1057 0.930 . S
Eu1068 N1099 2.657 . S
Eu1068 N1106 2.609 . S
Eu1068 O1112 2.558 . S
Eu1068 O1113 2.612 . S
Eu1068 O1115 2.339 . S
Eu1068 O1116 2.563 . S
Eu1068 O1117 2.419 . S
Eu1068 O1119 2.380 . S
Eu1068 O1120 2.432 . S
Eu1068 C1132 2.848 . S
C1069 C1072 1.429 . S
C1069 C1073 1.411 . S
C1069 N1076 1.377 . S
C1070 C1072 1.420 . S
C1070 C1074 1.423 . S
C1070 C1082 1.392 . S
C1071 C1073 1.420 . S
C1071 C1074 1.351 . S
C1071 H1094 0.931 . S
C1072 C1069 1.429 . S
C1072 C1070 1.420 . S
C1072 N1080 1.362 . S
C1073 C1069 1.411 . S
C1073 C1071 1.420 . S
C1073 C1078 1.395 . S
C1074 C1070 1.423 . S
C1074 C1071 1.351 . S
C1074 H1086 0.930 . S
C1075 C1077 1.400 . S
C1075 C1078 1.386 . S
C1075 H1087 0.930 . S
N1076 C1069 1.377 . S
N1076 C1077 1.321 . S
N1076 Eu1079 2.609 . S
C1077 C1075 1.400 . S
C1077 N1076 1.321 . S
C1077 H1084 0.930 . S
C1078 C1073 1.395 . S
C1078 C1075 1.386 . S
C1078 H1097 0.930 . S
Eu1079 N1076 2.609 . S
Eu1079 N1080 2.657 . S
Eu1079 O1113 2.380 . S
Eu1079 O1114 2.432 . S
Eu1079 O1118 2.558 . S
Eu1079 O1119 2.612 . S
Eu1079 O1121 2.339 . S
Eu1079 O1122 2.563 . S
Eu1079 O1123 2.419 . S
Eu1079 C1143 2.848 . S
N1080 C1072 1.362 . S
N1080 Eu1079 2.657 . S
N1080 C1081 1.334 . S
C1081 N1080 1.334 . S
C1081 C1083 1.413 . S
C1081 H1088 0.929 . S
C1082 C1070 1.392 . S
C1082 C1083 1.367 . S
C1082 H1090 0.930 . S
C1083 C1081 1.413 . S
C1083 C1082 1.367 . S
C1083 H1085 0.930 . S
H1084 C1077 0.930 . S
H1085 C1083 0.930 . S
H1086 C1074 0.930 . S
H1087 C1075 0.930 . S
H1088 C1081 0.929 . S
H1089 C1103 0.930 . S
H1090 C1082 0.930 . S
H1091 C1109 0.930 . S
H1092 C1100 0.929 . S
H1093 C1107 0.930 . S
H1094 C1071 0.931 . S
H1095 C1101 0.930 . S
H1096 C1134 0.930 . S
H1097 C1078 0.930 . S
H1098 C1133 0.931 . S
N1099 Eu1068 2.657 . S
N1099 C1100 1.334 . S
N1099 C1104 1.362 . S
C1100 H1092 0.929 . S
C1100 N1099 1.334 . S
C1100 C1103 1.413 . S
C1101 H1095 0.930 . S
C1101 C1102 1.392 . S
C1101 C1103 1.367 . S
C1102 C1101 1.392 . S
C1102 C1104 1.420 . S
C1102 C1134 1.423 . S
C1103 H1089 0.930 . S
C1103 C1100 1.413 . S
C1103 C1101 1.367 . S
C1104 N1099 1.362 . S
C1104 C1102 1.420 . S
C1104 C1108 1.429 . S
H1105 C1110 0.930 . S
N1106 Eu1068 2.609 . S
N1106 C1108 1.377 . S
N1106 C1109 1.321 . S
C1107 H1093 0.930 . S
C1107 C1109 1.400 . S
C1107 C1110 1.386 . S
C1108 C1104 1.429 . S
C1108 N1106 1.377 . S
C1108 C1111 1.411 . S
C1109 H1091 0.930 . S
C1109 N1106 1.321 . S
C1109 C1107 1.400 . S
C1110 H1105 0.930 . S
C1110 C1107 1.386 . S
C1110 C1111 1.395 . S
C1111 C1108 1.411 . S
C1111 C1110 1.395 . S
C1111 C1133 1.420 . S
O1112 Eu1068 2.558 . S
O1112 C1132 1.257 . S
O1113 Eu1068 2.612 . S
O1113 Eu1079 2.380 . S
O1113 C1124 1.276 . S
O1114 Eu1079 2.432 . S
O1114 C1131 1.264 . S
O1115 Eu1068 2.339 . S
O1115 C1131 1.254 . S
O1116 Eu1068 2.563 . S
O1116 C1124 1.235 . S
O1117 Eu1068 2.419 . S
O1117 C1132 1.249 . S
O1118 Eu1079 2.558 . S
O1118 C1143 1.257 . S
O1119 Eu1068 2.380 . S
O1119 Eu1079 2.612 . S
O1119 C1135 1.276 . S
O1120 Eu1068 2.432 . S
O1120 C1142 1.264 . S
O1121 Eu1079 2.339 . S
O1121 C1142 1.254 . S
O1122 Eu1079 2.563 . S
O1122 C1135 1.235 . S
O1123 Eu1079 2.419 . S
O1123 C1143 1.249 . S
C1124 O1113 1.276 . S
C1124 O1116 1.235 . S
C1125 C1127 1.393 . S
C1125 C1129 1.395 . S
C1125 C1132 1.492 . S
C1126 C1127 1.392 . S
C1126 C1128 1.386 1_655 S
C1127 C1125 1.393 . S
C1127 C1126 1.392 . S
C1127 H1144 0.930 . S
C1128 C1126 1.386 1_455 S
C1128 C1130 1.395 1_455 S
C1128 H1145 0.930 . S
C1129 C1125 1.395 . S
C1129 C1130 1.379 . S
C1129 H1146 0.930 . S
C1130 C1128 1.395 1_655 S
C1130 C1129 1.379 . S
C1130 H1147 0.930 1_655 S
C1131 O1114 1.264 . S
C1131 O1115 1.254 . S
C1132 Eu1068 2.848 . S
C1132 O1112 1.257 . S
C1132 O1117 1.249 . S
C1132 C1125 1.492 . S
C1133 H1098 0.931 . S
C1133 C1111 1.420 . S
C1133 C1134 1.351 . S
C1134 H1096 0.930 . S
C1134 C1102 1.423 . S
C1134 C1133 1.351 . S
C1135 O1119 1.276 . S
C1135 O1122 1.235 . S
C1136 C1137 1.393 . S
C1136 C1140 1.395 . S
C1136 C1143 1.492 . S
C1137 C1136 1.393 . S
C1137 C1138 1.392 . S
C1137 H1148 0.930 . S
C1138 C1137 1.392 . S
C1138 C1139 1.386 . S
C1139 C1138 1.386 . S
C1139 C1141 1.395 . S
C1139 H1149 0.930 . S
C1140 C1136 1.395 . S
C1140 C1141 1.379 . S
C1140 H1150 0.930 . S
C1141 C1139 1.395 . S
C1141 C1140 1.379 . S
C1141 H1151 0.930 . S
C1142 O1120 1.264 . S
C1142 O1121 1.254 . S
C1143 Eu1079 2.848 . S
C1143 O1118 1.257 . S
C1143 O1123 1.249 . S
C1143 C1136 1.492 . S
H1144 C1127 0.930 . S
H1145 C1128 0.930 . S
H1146 C1129 0.930 . S
H1147 C1130 0.930 1_455 S
H1148 C1137 0.930 . S
H1149 C1139 0.930 . S
H1150 C1140 0.930 . S
H1151 C1141 0.930 . S
Eu1152 N1183 2.657 . S
Eu1152 N1190 2.609 . S
Eu1152 O1196 2.558 . S
Eu1152 O1197 2.612 . S
Eu1152 O1199 2.339 . S
Eu1152 O1200 2.563 . S
Eu1152 O1201 2.419 . S
Eu1152 O1203 2.380 . S
Eu1152 O1204 2.432 . S
Eu1152 C1216 2.848 . S
C1153 C1156 1.429 . S
C1153 C1157 1.411 1_455 S
C1153 N1160 1.377 . S
C1154 C1156 1.420 1_655 S
C1154 C1158 1.423 . S
C1154 C1166 1.392 . S
C1155 C1157 1.420 . S
C1155 C1158 1.351 . S
C1155 H1178 0.931 . S
C1156 C1153 1.429 . S
C1156 C1154 1.420 1_455 S
C1156 N1164 1.362 . S
C1157 C1153 1.411 1_655 S
C1157 C1155 1.420 . S
C1157 C1162 1.395 . S
C1158 C1154 1.423 . S
C1158 C1155 1.351 . S
C1158 H1170 0.930 . S
C1159 C1161 1.400 . S
C1159 C1162 1.386 1_455 S
C1159 H1171 0.930 . S
N1160 C1153 1.377 . S
N1160 C1161 1.321 . S
N1160 Eu1163 2.609 . S
C1161 C1159 1.400 . S
C1161 N1160 1.321 . S
C1161 H1168 0.930 . S
C1162 C1157 1.395 . S
C1162 C1159 1.386 1_655 S
C1162 H1181 0.930 . S
Eu1163 N1160 2.609 . S
Eu1163 N1164 2.657 . S
Eu1163 O1197 2.380 . S
Eu1163 O1198 2.432 . S
Eu1163 O1202 2.558 . S
Eu1163 O1203 2.612 . S
Eu1163 O1205 2.339 . S
Eu1163 O1206 2.563 . S
Eu1163 O1207 2.419 . S
Eu1163 C1227 2.848 . S
N1164 C1156 1.362 . S
N1164 Eu1163 2.657 . S
N1164 C1165 1.334 . S
C1165 N1164 1.334 . S
C1165 C1167 1.413 1_455 S
C1165 H1172 0.929 . S
C1166 C1154 1.392 . S
C1166 C1167 1.367 . S
C1166 H1174 0.930 . S
C1167 C1165 1.413 1_655 S
C1167 C1166 1.367 . S
C1167 H1169 0.930 . S
H1168 C1161 0.930 . S
H1169 C1167 0.930 . S
H1170 C1158 0.930 . S
H1171 C1159 0.930 . S
H1172 C1165 0.929 . S
H1173 C1187 0.930 . S
H1174 C1166 0.930 . S
H1175 C1193 0.930 . S
H1176 C1184 0.929 . S
H1177 C1191 0.930 . S
H1178 C1155 0.931 . S
H1179 C1185 0.930 . S
H1180 C1218 0.930 . S
H1181 C1162 0.930 . S
H1182 C1217 0.931 . S
N1183 Eu1152 2.657 . S
N1183 C1184 1.334 . S
N1183 C1188 1.362 . S
C1184 H1176 0.929 . S
C1184 N1183 1.334 . S
C1184 C1187 1.413 . S
C1185 H1179 0.930 . S
C1185 C1186 1.392 . S
C1185 C1187 1.367 . S
C1186 C1185 1.392 . S
C1186 C1188 1.420 . S
C1186 C1218 1.423 . S
C1187 H1173 0.930 . S
C1187 C1184 1.413 . S
C1187 C1185 1.367 . S
C1188 N1183 1.362 . S
C1188 C1186 1.420 . S
C1188 C1192 1.429 . S
H1189 C1194 0.930 . S
N1190 Eu1152 2.609 . S
N1190 C1192 1.377 . S
N1190 C1193 1.321 . S
C1191 H1177 0.930 . S
C1191 C1193 1.400 . S
C1191 C1194 1.386 . S
C1192 C1188 1.429 . S
C1192 N1190 1.377 . S
C1192 C1195 1.411 . S
C1193 H1175 0.930 . S
C1193 N1190 1.321 . S
C1193 C1191 1.400 . S
C1194 H1189 0.930 . S
C1194 C1191 1.386 . S
C1194 C1195 1.395 . S
C1195 C1192 1.411 . S
C1195 C1194 1.395 . S
C1195 C1217 1.420 . S
O1196 Eu1152 2.558 . S
O1196 C1216 1.257 . S
O1197 Eu1152 2.612 . S
O1197 Eu1163 2.380 . S
O1197 C1208 1.276 . S
O1198 Eu1163 2.432 . S
O1198 C1215 1.264 . S
O1199 Eu1152 2.339 . S
O1199 C1215 1.254 . S
O1200 Eu1152 2.563 . S
O1200 C1208 1.235 . S
O1201 Eu1152 2.419 . S
O1201 C1216 1.249 . S
O1202 Eu1163 2.558 . S
O1202 C1227 1.257 . S
O1203 Eu1152 2.380 . S
O1203 Eu1163 2.612 . S
O1203 C1219 1.276 . S
O1204 Eu1152 2.432 . S
O1204 C1226 1.264 . S
O1205 Eu1163 2.339 . S
O1205 C1226 1.254 . S
O1206 Eu1163 2.563 . S
O1206 C1219 1.235 . S
O1207 Eu1163 2.419 . S
O1207 C1227 1.249 . S
C1208 O1197 1.276 . S
C1208 O1200 1.235 . S
C1209 C1211 1.393 . S
C1209 C1213 1.395 . S
C1209 C1216 1.492 . S
C1210 C1211 1.392 . S
C1210 C1212 1.386 . S
C1211 C1209 1.393 . S
C1211 C1210 1.392 . S
C1211 H1228 0.930 . S
C1212 C1210 1.386 . S
C1212 C1214 1.395 . S
C1212 H1229 0.915 1_455 S
C1213 C1209 1.395 . S
C1213 C1214 1.379 . S
C1213 H1230 0.930 . S
C1214 C1212 1.395 . S
C1214 C1213 1.379 . S
C1214 H1231 0.930 . S
C1215 O1198 1.264 . S
C1215 O1199 1.254 . S
C1216 Eu1152 2.848 . S
C1216 O1196 1.257 . S
C1216 O1201 1.249 . S
C1216 C1209 1.492 . S
C1217 H1182 0.931 . S
C1217 C1195 1.420 . S
C1217 C1218 1.351 . S
C1218 H1180 0.930 . S
C1218 C1186 1.423 . S
C1218 C1217 1.351 . S
C1219 O1203 1.276 . S
C1219 O1206 1.235 . S
C1220 C1221 1.393 . S
C1220 C1224 1.395 . S
C1220 C1227 1.492 . S
C1221 C1220 1.393 . S
C1221 C1222 1.392 . S
C1221 H1232 0.930 . S
C1222 C1221 1.392 . S
C1222 C1223 1.386 . S
C1223 C1222 1.386 . S
C1223 C1225 1.395 . S
C1223 H1233 0.930 . S
C1224 C1220 1.395 . S
C1224 C1225 1.379 . S
C1224 H1234 0.930 . S
C1225 C1223 1.395 . S
C1225 C1224 1.379 . S
C1225 H1235 0.930 . S
C1226 O1204 1.264 . S
C1226 O1205 1.254 . S
C1227 Eu1163 2.848 . S
C1227 O1202 1.257 . S
C1227 O1207 1.249 . S
C1227 C1220 1.492 . S
H1228 C1211 0.930 . S
H1229 C1212 0.915 1_655 S
H1230 C1213 0.930 . S
H1231 C1214 0.930 . S
H1232 C1221 0.930 . S
H1233 C1223 0.930 . S
H1234 C1224 0.930 . S
H1235 C1225 0.930 . S
Eu1236 N1267 2.657 . S
Eu1236 N1274 2.609 . S
Eu1236 O1280 2.558 . S
Eu1236 O1281 2.612 . S
Eu1236 O1283 2.339 . S
Eu1236 O1284 2.563 . S
Eu1236 O1285 2.419 . S
Eu1236 O1287 2.380 . S
Eu1236 O1288 2.432 . S
Eu1236 C1300 2.848 . S
C1237 C1240 1.429 . S
C1237 C1241 1.411 . S
C1237 N1244 1.377 . S
C1238 C1240 1.420 . S
C1238 C1242 1.423 . S
C1238 C1250 1.392 . S
C1239 C1241 1.420 . S
C1239 C1242 1.351 . S
C1239 H1262 0.931 . S
C1240 C1237 1.429 . S
C1240 C1238 1.420 . S
C1240 N1248 1.362 . S
C1241 C1237 1.411 . S
C1241 C1239 1.420 . S
C1241 C1246 1.395 . S
C1242 C1238 1.423 . S
C1242 C1239 1.351 . S
C1242 H1254 0.930 . S
C1243 C1245 1.400 . S
C1243 C1246 1.386 . S
C1243 H1255 0.930 . S
N1244 C1237 1.377 . S
N1244 C1245 1.321 . S
N1244 Eu1247 2.609 . S
C1245 C1243 1.400 . S
C1245 N1244 1.321 . S
C1245 H1252 0.930 . S
C1246 C1241 1.395 . S
C1246 C1243 1.386 . S
C1246 H1265 0.930 . S
Eu1247 N1244 2.609 . S
Eu1247 N1248 2.657 . S
Eu1247 O1281 2.380 . S
Eu1247 O1282 2.432 . S
Eu1247 O1286 2.558 . S
Eu1247 O1287 2.612 . S
Eu1247 O1289 2.339 . S
Eu1247 O1290 2.563 . S
Eu1247 O1291 2.419 . S
Eu1247 C1311 2.848 . S
N1248 C1240 1.362 . S
N1248 Eu1247 2.657 . S
N1248 C1249 1.334 . S
C1249 N1248 1.334 . S
C1249 C1251 1.413 . S
C1249 H1256 0.929 . S
C1250 C1238 1.392 . S
C1250 C1251 1.367 . S
C1250 H1258 0.930 . S
C1251 C1249 1.413 . S
C1251 C1250 1.367 . S
C1251 H1253 0.930 . S
H1252 C1245 0.930 . S
H1253 C1251 0.930 . S
H1254 C1242 0.930 . S
H1255 C1243 0.930 . S
H1256 C1249 0.929 . S
H1257 C1271 0.930 . S
H1258 C1250 0.930 . S
H1259 C1277 0.930 . S
H1260 C1268 0.929 . S
H1261 C1275 0.930 . S
H1262 C1239 0.931 . S
H1263 C1269 0.930 . S
H1264 C1302 0.930 . S
H1265 C1246 0.930 . S
H1266 C1301 0.931 . S
N1267 Eu1236 2.657 . S
N1267 C1268 1.334 . S
N1267 C1272 1.362 . S
C1268 H1260 0.929 . S
C1268 N1267 1.334 . S
C1268 C1271 1.413 . S
C1269 H1263 0.930 . S
C1269 C1270 1.392 . S
C1269 C1271 1.367 . S
C1270 C1269 1.392 . S
C1270 C1272 1.420 . S
C1270 C1302 1.423 . S
C1271 H1257 0.930 . S
C1271 C1268 1.413 . S
C1271 C1269 1.367 . S
C1272 N1267 1.362 . S
C1272 C1270 1.420 . S
C1272 C1276 1.429 . S
H1273 C1278 0.930 . S
N1274 Eu1236 2.609 . S
N1274 C1276 1.377 . S
N1274 C1277 1.321 . S
C1275 H1261 0.930 . S
C1275 C1277 1.400 . S
C1275 C1278 1.386 . S
C1276 C1272 1.429 . S
C1276 N1274 1.377 . S
C1276 C1279 1.411 . S
C1277 H1259 0.930 . S
C1277 N1274 1.321 . S
C1277 C1275 1.400 . S
C1278 H1273 0.930 . S
C1278 C1275 1.386 . S
C1278 C1279 1.395 . S
C1279 C1276 1.411 . S
C1279 C1278 1.395 . S
C1279 C1301 1.420 . S
O1280 Eu1236 2.558 . S
O1280 C1300 1.257 . S
O1281 Eu1236 2.612 . S
O1281 Eu1247 2.380 . S
O1281 C1292 1.276 . S
O1282 Eu1247 2.432 . S
O1282 C1299 1.264 . S
O1283 Eu1236 2.339 . S
O1283 C1299 1.254 . S
O1284 Eu1236 2.563 . S
O1284 C1292 1.235 . S
O1285 Eu1236 2.419 . S
O1285 C1300 1.249 . S
O1286 Eu1247 2.558 . S
O1286 C1311 1.257 . S
O1287 Eu1236 2.380 . S
O1287 Eu1247 2.612 . S
O1287 C1303 1.276 . S
O1288 Eu1236 2.432 . S
O1288 C1310 1.264 . S
O1289 Eu1247 2.339 . S
O1289 C1310 1.254 . S
O1290 Eu1247 2.563 . S
O1290 C1303 1.235 . S
O1291 Eu1247 2.419 . S
O1291 C1311 1.249 . S
C1292 O1281 1.276 . S
C1292 O1284 1.235 . S
C1293 C1295 1.393 . S
C1293 C1297 1.395 . S
C1293 C1300 1.492 . S
C1294 C1295 1.392 . S
C1294 C1296 1.386 . S
C1295 C1293 1.393 . S
C1295 C1294 1.392 . S
C1295 H1312 0.930 . S
C1296 C1294 1.386 . S
C1296 C1298 1.395 . S
C1296 H1313 0.930 . S
C1297 C1293 1.395 . S
C1297 C1298 1.379 . S
C1297 H1314 0.930 . S
C1298 C1296 1.395 . S
C1298 C1297 1.379 . S
C1298 H1315 0.930 . S
C1299 O1282 1.264 . S
C1299 O1283 1.254 . S
C1300 Eu1236 2.848 . S
C1300 O1280 1.257 . S
C1300 O1285 1.249 . S
C1300 C1293 1.492 . S
C1301 H1266 0.931 . S
C1301 C1279 1.420 . S
C1301 C1302 1.351 . S
C1302 H1264 0.930 . S
C1302 C1270 1.423 . S
C1302 C1301 1.351 . S
C1303 O1287 1.276 . S
C1303 O1290 1.235 . S
C1304 C1305 1.393 . S
C1304 C1308 1.395 . S
C1304 C1311 1.492 . S
C1305 C1304 1.393 . S
C1305 C1306 1.392 . S
C1305 H1316 0.930 . S
C1306 C1305 1.392 . S
C1306 C1307 1.386 . S
C1307 C1306 1.386 . S
C1307 C1309 1.395 . S
C1307 H1317 0.930 . S
C1308 C1304 1.395 . S
C1308 C1309 1.379 . S
C1308 H1318 0.930 . S
C1309 C1307 1.395 . S
C1309 C1308 1.379 . S
C1309 H1319 0.930 . S
C1310 O1288 1.264 . S
C1310 O1289 1.254 . S
C1311 Eu1247 2.848 . S
C1311 O1286 1.257 . S
C1311 O1291 1.249 . S
C1311 C1304 1.492 . S
H1312 C1295 0.930 . S
H1313 C1296 0.930 . S
H1314 C1297 0.930 . S
H1315 C1298 0.930 . S
H1316 C1305 0.930 . S
H1317 C1307 0.930 . S
H1318 C1308 0.930 . S
H1319 C1309 0.930 . S
Eu1320 N1351 2.657 . S
Eu1320 N1358 2.609 . S
Eu1320 O1364 2.558 . S
Eu1320 O1365 2.612 . S
Eu1320 O1367 2.339 . S
Eu1320 O1368 2.563 . S
Eu1320 O1369 2.419 . S
Eu1320 O1371 2.380 . S
Eu1320 O1372 2.432 . S
Eu1320 C1384 2.848 . S
C1321 C1324 1.429 . S
C1321 C1325 1.411 . S
C1321 N1328 1.377 . S
C1322 C1324 1.420 . S
C1322 C1326 1.423 . S
C1322 C1334 1.392 . S
C1323 C1325 1.420 . S
C1323 C1326 1.351 . S
C1323 H1346 0.931 . S
C1324 C1321 1.429 . S
C1324 C1322 1.420 . S
C1324 N1332 1.362 . S
C1325 C1321 1.411 . S
C1325 C1323 1.420 . S
C1325 C1330 1.395 . S
C1326 C1322 1.423 . S
C1326 C1323 1.351 . S
C1326 H1338 0.930 . S
C1327 C1329 1.400 . S
C1327 C1330 1.386 . S
C1327 H1339 0.930 . S
N1328 C1321 1.377 . S
N1328 C1329 1.321 . S
N1328 Eu1331 2.609 . S
C1329 C1327 1.400 . S
C1329 N1328 1.321 . S
C1329 H1336 0.930 . S
C1330 C1325 1.395 . S
C1330 C1327 1.386 . S
C1330 H1349 0.930 . S
Eu1331 N1328 2.609 . S
Eu1331 N1332 2.657 . S
Eu1331 O1365 2.380 . S
Eu1331 O1366 2.432 . S
Eu1331 O1370 2.558 . S
Eu1331 O1371 2.612 . S
Eu1331 O1373 2.339 . S
Eu1331 O1374 2.563 . S
Eu1331 O1375 2.419 . S
Eu1331 C1395 2.848 . S
N1332 C1324 1.362 . S
N1332 Eu1331 2.657 . S
N1332 C1333 1.334 . S
C1333 N1332 1.334 . S
C1333 C1335 1.413 . S
C1333 H1340 0.929 . S
C1334 C1322 1.392 . S
C1334 C1335 1.367 . S
C1334 H1342 0.930 . S
C1335 C1333 1.413 . S
C1335 C1334 1.367 . S
C1335 H1337 0.930 . S
H1336 C1329 0.930 . S
H1337 C1335 0.930 . S
H1338 C1326 0.930 . S
H1339 C1327 0.930 . S
H1340 C1333 0.929 . S
H1341 C1355 0.930 . S
H1342 C1334 0.930 . S
H1343 C1361 0.930 . S
H1344 C1352 0.929 . S
H1345 C1359 0.930 . S
H1346 C1323 0.931 . S
H1347 C1353 0.930 . S
H1348 C1386 0.930 . S
H1349 C1330 0.930 . S
H1350 C1385 0.931 . S
N1351 Eu1320 2.657 . S
N1351 C1352 1.334 . S
N1351 C1356 1.362 . S
C1352 H1344 0.929 . S
C1352 N1351 1.334 . S
C1352 C1355 1.413 . S
C1353 H1347 0.930 . S
C1353 C1354 1.392 . S
C1353 C1355 1.367 . S
C1354 C1353 1.392 . S
C1354 C1356 1.420 . S
C1354 C1386 1.423 . S
C1355 H1341 0.930 . S
C1355 C1352 1.413 . S
C1355 C1353 1.367 . S
C1356 N1351 1.362 . S
C1356 C1354 1.420 . S
C1356 C1360 1.429 . S
H1357 C1362 0.930 . S
N1358 Eu1320 2.609 . S
N1358 C1360 1.377 . S
N1358 C1361 1.321 . S
C1359 H1345 0.930 . S
C1359 C1361 1.400 . S
C1359 C1362 1.386 . S
C1360 C1356 1.429 . S
C1360 N1358 1.377 . S
C1360 C1363 1.411 . S
C1361 H1343 0.930 . S
C1361 N1358 1.321 . S
C1361 C1359 1.400 . S
C1362 H1357 0.930 . S
C1362 C1359 1.386 . S
C1362 C1363 1.395 . S
C1363 C1360 1.411 . S
C1363 C1362 1.395 . S
C1363 C1385 1.420 . S
O1364 Eu1320 2.558 . S
O1364 C1384 1.257 . S
O1365 Eu1320 2.612 . S
O1365 Eu1331 2.380 . S
O1365 C1376 1.276 . S
O1366 Eu1331 2.432 . S
O1366 C1383 1.264 . S
O1367 Eu1320 2.339 . S
O1367 C1383 1.254 . S
O1368 Eu1320 2.563 . S
O1368 C1376 1.235 . S
O1369 Eu1320 2.419 . S
O1369 C1384 1.249 . S
O1370 Eu1331 2.558 . S
O1370 C1395 1.257 . S
O1371 Eu1320 2.380 . S
O1371 Eu1331 2.612 . S
O1371 C1387 1.276 . S
O1372 Eu1320 2.432 . S
O1372 C1394 1.264 . S
O1373 Eu1331 2.339 . S
O1373 C1394 1.254 . S
O1374 Eu1331 2.563 . S
O1374 C1387 1.235 . S
O1375 Eu1331 2.419 . S
O1375 C1395 1.249 . S
C1376 O1365 1.276 . S
C1376 O1368 1.235 . S
C1377 C1379 1.393 . S
C1377 C1381 1.395 . S
C1377 C1384 1.492 . S
C1378 C1379 1.392 . S
C1378 C1380 1.386 . S
C1379 C1377 1.393 . S
C1379 C1378 1.392 . S
C1379 H1396 0.930 . S
C1380 C1378 1.386 . S
C1380 C1382 1.395 . S
C1380 H1397 0.930 . S
C1381 C1377 1.395 . S
C1381 C1382 1.379 . S
C1381 H1398 0.930 . S
C1382 C1380 1.395 . S
C1382 C1381 1.379 . S
C1382 H1399 0.930 . S
C1383 O1366 1.264 . S
C1383 O1367 1.254 . S
C1384 Eu1320 2.848 . S
C1384 O1364 1.257 . S
C1384 O1369 1.249 . S
C1384 C1377 1.492 . S
C1385 H1350 0.931 . S
C1385 C1363 1.420 . S
C1385 C1386 1.351 . S
C1386 H1348 0.930 . S
C1386 C1354 1.423 . S
C1386 C1385 1.351 . S
C1387 O1371 1.276 . S
C1387 O1374 1.235 . S
C1388 C1389 1.393 . S
C1388 C1392 1.395 . S
C1388 C1395 1.492 . S
C1389 C1388 1.393 . S
C1389 C1390 1.392 . S
C1389 H1400 0.930 . S
C1390 C1389 1.392 . S
C1390 C1391 1.386 . S
C1391 C1390 1.386 . S
C1391 C1393 1.395 . S
C1391 H1401 0.930 . S
C1392 C1388 1.395 . S
C1392 C1393 1.379 . S
C1392 H1402 0.930 . S
C1393 C1391 1.395 . S
C1393 C1392 1.379 . S
C1393 H1403 0.930 . S
C1394 O1372 1.264 . S
C1394 O1373 1.254 . S
C1395 Eu1331 2.848 . S
C1395 O1370 1.257 . S
C1395 O1375 1.249 . S
C1395 C1388 1.492 . S
H1396 C1379 0.930 . S
H1397 C1380 0.930 . S
H1398 C1381 0.930 . S
H1399 C1382 0.930 . S
H1400 C1389 0.930 . S
H1401 C1391 0.930 . S
H1402 C1392 0.930 . S
H1403 C1393 0.930 . S
Eu1404 N1435 2.657 . S
Eu1404 N1442 2.609 . S
Eu1404 O1448 2.558 . S
Eu1404 O1449 2.612 . S
Eu1404 O1451 2.339 . S
Eu1404 O1452 2.563 . S
Eu1404 O1453 2.419 . S
Eu1404 O1455 2.380 . S
Eu1404 O1456 2.432 . S
Eu1404 C1468 2.848 . S
C1405 C1408 1.429 . S
C1405 C1409 1.411 . S
C1405 N1412 1.377 . S
C1406 C1408 1.420 . S
C1406 C1410 1.423 . S
C1406 C1418 1.392 . S
C1407 C1409 1.420 . S
C1407 C1410 1.351 . S
C1407 H1430 0.931 . S
C1408 C1405 1.429 . S
C1408 C1406 1.420 . S
C1408 N1416 1.362 . S
C1409 C1405 1.411 . S
C1409 C1407 1.420 . S
C1409 C1414 1.395 . S
C1410 C1406 1.423 . S
C1410 C1407 1.351 . S
C1410 H1422 0.930 . S
C1411 C1413 1.400 . S
C1411 C1414 1.386 . S
C1411 H1423 0.930 . S
N1412 C1405 1.377 . S
N1412 C1413 1.321 . S
N1412 Eu1415 2.609 . S
C1413 C1411 1.400 . S
C1413 N1412 1.321 . S
C1413 H1420 0.930 . S
C1414 C1409 1.395 . S
C1414 C1411 1.386 . S
C1414 H1433 0.930 . S
Eu1415 N1412 2.609 . S
Eu1415 N1416 2.657 . S
Eu1415 O1449 2.380 . S
Eu1415 O1450 2.432 . S
Eu1415 O1454 2.558 . S
Eu1415 O1455 2.612 . S
Eu1415 O1457 2.339 . S
Eu1415 O1458 2.563 . S
Eu1415 O1459 2.419 . S
Eu1415 C1479 2.848 . S
N1416 C1408 1.362 . S
N1416 Eu1415 2.657 . S
N1416 C1417 1.334 . S
C1417 N1416 1.334 . S
C1417 C1419 1.413 . S
C1417 H1424 0.929 . S
C1418 C1406 1.392 . S
C1418 C1419 1.367 . S
C1418 H1426 0.930 . S
C1419 C1417 1.413 . S
C1419 C1418 1.367 . S
C1419 H1421 0.930 . S
H1420 C1413 0.930 . S
H1421 C1419 0.930 . S
H1422 C1410 0.930 . S
H1423 C1411 0.930 . S
H1424 C1417 0.929 . S
H1425 C1439 0.930 . S
H1426 C1418 0.930 . S
H1427 C1445 0.930 . S
H1428 C1436 0.929 . S
H1429 C1443 0.930 . S
H1430 C1407 0.931 . S
H1431 C1437 0.930 . S
H1432 C1470 0.930 . S
H1433 C1414 0.930 . S
H1434 C1469 0.931 . S
N1435 Eu1404 2.657 . S
N1435 C1436 1.334 . S
N1435 C1440 1.362 . S
C1436 H1428 0.929 . S
C1436 N1435 1.334 . S
C1436 C1439 1.413 . S
C1437 H1431 0.930 . S
C1437 C1438 1.392 . S
C1437 C1439 1.367 . S
C1438 C1437 1.392 . S
C1438 C1440 1.420 . S
C1438 C1470 1.423 . S
C1439 H1425 0.930 . S
C1439 C1436 1.413 . S
C1439 C1437 1.367 . S
C1440 N1435 1.362 . S
C1440 C1438 1.420 . S
C1440 C1444 1.429 . S
H1441 C1446 0.930 . S
N1442 Eu1404 2.609 . S
N1442 C1444 1.377 . S
N1442 C1445 1.321 . S
C1443 H1429 0.930 . S
C1443 C1445 1.400 . S
C1443 C1446 1.386 . S
C1444 C1440 1.429 . S
C1444 N1442 1.377 . S
C1444 C1447 1.411 . S
C1445 H1427 0.930 . S
C1445 N1442 1.321 . S
C1445 C1443 1.400 . S
C1446 H1441 0.930 . S
C1446 C1443 1.386 . S
C1446 C1447 1.395 . S
C1447 C1444 1.411 . S
C1447 C1446 1.395 . S
C1447 C1469 1.420 . S
O1448 Eu1404 2.558 . S
O1448 C1468 1.257 . S
O1449 Eu1404 2.612 . S
O1449 Eu1415 2.380 . S
O1449 C1460 1.276 . S
O1450 Eu1415 2.432 . S
O1450 C1467 1.264 . S
O1451 Eu1404 2.339 . S
O1451 C1467 1.254 . S
O1452 Eu1404 2.563 . S
O1452 C1460 1.235 . S
O1453 Eu1404 2.419 . S
O1453 C1468 1.249 . S
O1454 Eu1415 2.558 . S
O1454 C1479 1.257 . S
O1455 Eu1404 2.380 . S
O1455 Eu1415 2.612 . S
O1455 C1471 1.276 . S
O1456 Eu1404 2.432 . S
O1456 C1478 1.264 . S
O1457 Eu1415 2.339 . S
O1457 C1478 1.254 . S
O1458 Eu1415 2.563 . S
O1458 C1471 1.235 . S
O1459 Eu1415 2.419 . S
O1459 C1479 1.249 . S
C1460 O1449 1.276 . S
C1460 O1452 1.235 . S
C1461 C1463 1.393 . S
C1461 C1465 1.395 . S
C1461 C1468 1.492 . S
C1462 C1463 1.392 . S
C1462 C1464 1.372 1_565 S
C1463 C1461 1.393 . S
C1463 C1462 1.392 . S
C1463 H1480 0.930 . S
C1464 C1462 1.372 1_545 S
C1464 C1466 1.373 1_545 S
C1464 H1481 0.967 . S
C1465 C1461 1.395 . S
C1465 C1466 1.379 . S
C1465 H1482 0.930 . S
C1466 C1464 1.373 1_565 S
C1466 C1465 1.379 . S
C1466 H1483 0.930 1_565 S
C1467 O1450 1.264 . S
C1467 O1451 1.254 . S
C1468 Eu1404 2.848 . S
C1468 O1448 1.257 . S
C1468 O1453 1.249 . S
C1468 C1461 1.492 . S
C1469 H1434 0.931 . S
C1469 C1447 1.420 . S
C1469 C1470 1.351 . S
C1470 H1432 0.930 . S
C1470 C1438 1.423 . S
C1470 C1469 1.351 . S
C1471 O1455 1.276 . S
C1471 O1458 1.235 . S
C1472 C1473 1.393 . S
C1472 C1476 1.395 . S
C1472 C1479 1.492 . S
C1473 C1472 1.393 . S
C1473 C1474 1.392 . S
C1473 H1484 0.930 . S
C1474 C1473 1.392 . S
C1474 C1475 1.386 . S
C1475 C1474 1.386 . S
C1475 C1477 1.395 . S
C1475 H1485 0.930 . S
C1476 C1472 1.395 . S
C1476 C1477 1.379 . S
C1476 H1486 0.930 . S
C1477 C1475 1.395 . S
C1477 C1476 1.379 . S
C1477 H1487 0.930 . S
C1478 O1456 1.264 . S
C1478 O1457 1.254 . S
C1479 Eu1415 2.848 . S
C1479 O1454 1.257 . S
C1479 O1459 1.249 . S
C1479 C1472 1.492 . S
H1480 C1463 0.930 . S
H1481 C1464 0.967 . S
H1482 C1465 0.930 . S
H1483 C1466 0.930 1_545 S
H1484 C1473 0.930 . S
H1485 C1475 0.930 . S
H1486 C1476 0.930 . S
H1487 C1477 0.930 . S
Eu1488 N1519 2.657 . S
Eu1488 N1526 2.609 . S
Eu1488 O1532 2.558 . S
Eu1488 O1533 2.612 . S
Eu1488 O1535 2.339 . S
Eu1488 O1536 2.563 . S
Eu1488 O1537 2.419 . S
Eu1488 O1539 2.380 . S
Eu1488 O1540 2.432 . S
Eu1488 C1552 2.848 . S
C1489 C1492 1.429 . S
C1489 C1493 1.411 . S
C1489 N1496 1.377 . S
C1490 C1492 1.420 . S
C1490 C1494 1.423 . S
C1490 C1502 1.392 . S
C1491 C1493 1.420 . S
C1491 C1494 1.351 . S
C1491 H1514 0.931 . S
C1492 C1489 1.429 . S
C1492 C1490 1.420 . S
C1492 N1500 1.362 . S
C1493 C1489 1.411 . S
C1493 C1491 1.420 . S
C1493 C1498 1.395 . S
C1494 C1490 1.423 . S
C1494 C1491 1.351 . S
C1494 H1506 0.930 . S
C1495 C1497 1.400 . S
C1495 C1498 1.386 . S
C1495 H1507 0.930 . S
N1496 C1489 1.377 . S
N1496 C1497 1.321 . S
N1496 Eu1499 2.609 . S
C1497 C1495 1.400 . S
C1497 N1496 1.321 . S
C1497 H1504 0.930 . S
C1498 C1493 1.395 . S
C1498 C1495 1.386 . S
C1498 H1517 0.930 . S
Eu1499 N1496 2.609 . S
Eu1499 N1500 2.657 . S
Eu1499 O1533 2.380 . S
Eu1499 O1534 2.432 . S
Eu1499 O1538 2.558 . S
Eu1499 O1539 2.612 . S
Eu1499 O1541 2.339 . S
Eu1499 O1542 2.563 . S
Eu1499 O1543 2.419 . S
Eu1499 C1563 2.848 . S
N1500 C1492 1.362 . S
N1500 Eu1499 2.657 . S
N1500 C1501 1.334 . S
C1501 N1500 1.334 . S
C1501 C1503 1.413 . S
C1501 H1508 0.929 . S
C1502 C1490 1.392 . S
C1502 C1503 1.367 . S
C1502 H1510 0.930 . S
C1503 C1501 1.413 . S
C1503 C1502 1.367 . S
C1503 H1505 0.930 . S
H1504 C1497 0.930 . S
H1505 C1503 0.930 . S
H1506 C1494 0.930 . S
H1507 C1495 0.930 . S
H1508 C1501 0.929 . S
H1509 C1523 0.930 . S
H1510 C1502 0.930 . S
H1511 C1529 0.930 . S
H1512 C1520 0.929 . S
H1513 C1527 0.930 . S
H1514 C1491 0.931 . S
H1515 C1521 0.930 . S
H1516 C1554 0.930 . S
H1517 C1498 0.930 . S
H1518 C1553 0.931 . S
N1519 Eu1488 2.657 . S
N1519 C1520 1.334 . S
N1519 C1524 1.362 . S
C1520 H1512 0.929 . S
C1520 N1519 1.334 . S
C1520 C1523 1.413 . S
C1521 H1515 0.930 . S
C1521 C1522 1.392 . S
C1521 C1523 1.367 . S
C1522 C1521 1.392 . S
C1522 C1524 1.420 . S
C1522 C1554 1.423 . S
C1523 H1509 0.930 . S
C1523 C1520 1.413 . S
C1523 C1521 1.367 . S
C1524 N1519 1.362 . S
C1524 C1522 1.420 . S
C1524 C1528 1.429 . S
H1525 C1530 0.930 . S
N1526 Eu1488 2.609 . S
N1526 C1528 1.377 . S
N1526 C1529 1.321 . S
C1527 H1513 0.930 . S
C1527 C1529 1.400 . S
C1527 C1530 1.386 . S
C1528 C1524 1.429 . S
C1528 N1526 1.377 . S
C1528 C1531 1.411 . S
C1529 H1511 0.930 . S
C1529 N1526 1.321 . S
C1529 C1527 1.400 . S
C1530 H1525 0.930 . S
C1530 C1527 1.386 . S
C1530 C1531 1.395 . S
C1531 C1528 1.411 . S
C1531 C1530 1.395 . S
C1531 C1553 1.420 . S
O1532 Eu1488 2.558 . S
O1532 C1552 1.257 . S
O1533 Eu1488 2.612 . S
O1533 Eu1499 2.380 . S
O1533 C1544 1.276 . S
O1534 Eu1499 2.432 . S
O1534 C1551 1.264 . S
O1535 Eu1488 2.339 . S
O1535 C1551 1.254 . S
O1536 Eu1488 2.563 . S
O1536 C1544 1.235 . S
O1537 Eu1488 2.419 . S
O1537 C1552 1.249 . S
O1538 Eu1499 2.558 . S
O1538 C1563 1.257 . S
O1539 Eu1488 2.380 . S
O1539 Eu1499 2.612 . S
O1539 C1555 1.276 . S
O1540 Eu1488 2.432 . S
O1540 C1562 1.264 . S
O1541 Eu1499 2.339 . S
O1541 C1562 1.254 . S
O1542 Eu1499 2.563 . S
O1542 C1555 1.235 . S
O1543 Eu1499 2.419 . S
O1543 C1563 1.249 . S
C1544 O1533 1.276 . S
C1544 O1536 1.235 . S
C1545 C1547 1.393 . S
C1545 C1549 1.395 . S
C1545 C1552 1.492 . S
C1546 C1547 1.392 . S
C1546 C1548 1.386 . S
C1547 C1545 1.393 . S
C1547 C1546 1.392 . S
C1547 H1564 0.930 . S
C1548 C1546 1.386 . S
C1548 C1550 1.395 . S
C1548 H1565 0.930 . S
C1549 C1545 1.395 . S
C1549 C1550 1.379 . S
C1549 H1566 0.930 . S
C1550 C1548 1.395 . S
C1550 C1549 1.379 . S
C1550 H1567 0.930 . S
C1551 O1534 1.264 . S
C1551 O1535 1.254 . S
C1552 Eu1488 2.848 . S
C1552 O1532 1.257 . S
C1552 O1537 1.249 . S
C1552 C1545 1.492 . S
C1553 H1518 0.931 . S
C1553 C1531 1.420 . S
C1553 C1554 1.351 . S
C1554 H1516 0.930 . S
C1554 C1522 1.423 . S
C1554 C1553 1.351 . S
C1555 O1539 1.276 . S
C1555 O1542 1.235 . S
C1556 C1557 1.393 . S
C1556 C1560 1.395 . S
C1556 C1563 1.492 . S
C1557 C1556 1.393 . S
C1557 C1558 1.392 . S
C1557 H1568 0.930 . S
C1558 C1557 1.392 . S
C1558 C1559 1.386 . S
C1559 C1558 1.386 . S
C1559 C1561 1.395 . S
C1559 H1569 0.930 . S
C1560 C1556 1.395 . S
C1560 C1561 1.379 . S
C1560 H1570 0.930 . S
C1561 C1559 1.395 . S
C1561 C1560 1.379 . S
C1561 H1571 0.930 . S
C1562 O1540 1.264 . S
C1562 O1541 1.254 . S
C1563 Eu1499 2.848 . S
C1563 O1538 1.257 . S
C1563 O1543 1.249 . S
C1563 C1556 1.492 . S
H1564 C1547 0.930 . S
H1565 C1548 0.930 . S
H1566 C1549 0.930 . S
H1567 C1550 0.930 . S
H1568 C1557 0.930 . S
H1569 C1559 0.930 . S
H1570 C1560 0.930 . S
H1571 C1561 0.930 . S
Eu1572 N1603 2.657 1_556 S
Eu1572 N1610 2.609 . S
Eu1572 O1616 2.558 . S
Eu1572 O1617 2.612 1_556 S
Eu1572 O1619 2.339 1_556 S
Eu1572 O1620 2.563 . S
Eu1572 O1621 2.419 1_556 S
Eu1572 O1623 2.380 1_556 S
Eu1572 O1624 2.432 . S
Eu1572 C1636 2.848 . S
C1573 C1576 1.429 . S
C1573 C1577 1.411 . S
C1573 N1580 1.377 1_655 S
C1574 C1576 1.420 . S
C1574 C1578 1.423 . S
C1574 C1586 1.392 1_554 S
C1575 C1577 1.420 . S
C1575 C1578 1.351 . S
C1575 H1598 0.931 . S
C1576 C1573 1.429 . S
C1576 C1574 1.420 . S
C1576 N1584 1.367 . S
C1577 C1573 1.411 . S
C1577 C1575 1.420 . S
C1577 C1582 1.395 . S
C1578 C1574 1.423 . S
C1578 C1575 1.351 . S
C1578 H1590 0.930 . S
C1579 C1581 1.400 . S
C1579 C1582 1.386 1_455 S
C1579 H1591 0.930 . S
N1580 C1573 1.377 1_455 S
N1580 C1581 1.321 . S
N1580 Eu1583 2.609 . S
C1581 C1579 1.400 . S
C1581 N1580 1.321 . S
C1581 H1588 0.930 . S
C1582 C1577 1.395 . S
C1582 C1579 1.386 1_655 S
C1582 H1601 0.930 . S
Eu1583 N1580 2.609 . S
Eu1583 N1584 2.650 1_455 S
Eu1583 O1617 2.380 . S
Eu1583 O1618 2.432 . S
Eu1583 O1622 2.558 . S
Eu1583 O1623 2.612 . S
Eu1583 O1625 2.339 1_554 S
Eu1583 O1626 2.563 . S
Eu1583 O1627 2.419 1_455 S
Eu1583 C1647 2.848 1_455 S
N1584 C1576 1.367 . S
N1584 Eu1583 2.650 1_655 S
N1584 C1585 1.336 1_554 S
C1585 N1584 1.336 1_556 S
C1585 C1587 1.413 . S
C1585 H1592 0.929 . S
C1586 C1574 1.392 1_556 S
C1586 C1587 1.367 . S
C1586 H1594 0.930 . S
C1587 C1585 1.413 . S
C1587 C1586 1.367 . S
C1587 H1589 0.930 . S
H1588 C1581 0.930 . S
H1589 C1587 0.930 . S
H1590 C1578 0.930 . S
H1591 C1579 0.930 . S
H1592 C1585 0.929 . S
H1593 C1607 0.930 . S
H1594 C1586 0.930 . S
H1595 C1613 0.930 . S
H1596 C1604 0.929 . S
H1597 C1611 0.930 . S
H1598 C1575 0.931 . S
H1599 C1605 0.930 . S
H1600 C1638 0.930 . S
H1601 C1582 0.930 . S
H1602 C1637 0.931 . S
N1603 Eu1572 2.657 1_554 S
N1603 C1604 1.334 . S
N1603 C1608 1.362 1_554 S
C1604 H1596 0.929 . S
C1604 N1603 1.334 . S
C1604 C1607 1.413 . S
C1605 H1599 0.930 . S
C1605 C1606 1.392 . S
C1605 C1607 1.367 . S
C1606 C1605 1.392 . S
C1606 C1608 1.420 1_554 S
C1606 C1638 1.423 1_554 S
C1607 H1593 0.930 . S
C1607 C1604 1.413 . S
C1607 C1605 1.367 . S
C1608 N1603 1.362 1_556 S
C1608 C1606 1.420 1_556 S
C1608 C1612 1.429 . S
H1609 C1614 0.930 . S
N1610 Eu1572 2.609 . S
N1610 C1612 1.377 . S
N1610 C1613 1.321 . S
C1611 H1597 0.930 . S
C1611 C1613 1.400 . S
C1611 C1614 1.386 . S
C1612 C1608 1.429 . S
C1612 N1610 1.377 . S
C1612 C1615 1.411 . S
C1613 H1595 0.930 . S
C1613 N1610 1.321 . S
C1613 C1611 1.400 . S
C1614 H1609 0.930 . S
C1614 C1611 1.386 . S
C1614 C1615 1.395 . S
C1615 C1612 1.411 . S
C1615 C1614 1.395 . S
C1615 C1637 1.420 . S
O1616 Eu1572 2.558 . S
O1616 C1636 1.257 . S
O1617 Eu1572 2.612 1_554 S
O1617 Eu1583 2.380 . S
O1617 C1628 1.276 . S
O1618 Eu1583 2.432 . S
O1618 C1635 1.264 . S
O1619 Eu1572 2.339 1_554 S
O1619 C1635 1.254 . S
O1620 Eu1572 2.563 . S
O1620 C1628 1.235 1_556 S
O1621 Eu1572 2.419 1_554 S
O1621 C1636 1.249 1_554 S
O1622 Eu1583 2.558 . S
O1622 C1647 1.257 1_455 S
O1623 Eu1572 2.380 1_554 S
O1623 Eu1583 2.612 . S
O1623 C1639 1.276 . S
O1624 Eu1572 2.432 . S
O1624 C1646 1.264 . S
O1625 Eu1583 2.339 1_556 S
O1625 C1646 1.254 . S
O1626 Eu1583 2.563 . S
O1626 C1639 1.235 . S
O1627 Eu1583 2.419 1_655 S
O1627 C1647 1.249 . S
C1628 O1617 1.276 . S
C1628 O1620 1.235 1_554 S
C1629 C1631 1.393 . S
C1629 C1633 1.395 . S
C1629 C1636 1.492 . S
C1630 C1631 1.392 . S
C1630 C1632 1.386 . S
C1631 C1629 1.393 . S
C1631 C1630 1.392 . S
C1631 H1648 0.930 1_556 S
C1632 C1630 1.386 . S
C1632 C1634 1.395 . S
C1632 H1649 0.930 . S
C1633 C1629 1.395 . S
C1633 C1634 1.379 . S
C1633 H1650 0.930 . S
C1634 C1632 1.395 . S
C1634 C1633 1.379 . S
C1634 H1651 0.930 . S
C1635 O1618 1.264 . S
C1635 O1619 1.254 . S
C1636 Eu1572 2.848 . S
C1636 O1616 1.257 . S
C1636 O1621 1.249 1_556 S
C1636 C1629 1.492 . S
C1637 H1602 0.931 . S
C1637 C1615 1.420 . S
C1637 C1638 1.351 . S
C1638 H1600 0.930 . S
C1638 C1606 1.423 1_556 S
C1638 C1637 1.351 . S
C1639 O1623 1.276 . S
C1639 O1626 1.235 . S
C1640 C1641 1.393 . S
C1640 C1644 1.395 . S
C1640 C1647 1.492 . S
C1641 C1640 1.393 . S
C1641 C1642 1.392 . S
C1641 H1652 0.930 . S
C1642 C1641 1.392 . S
C1642 C1643 1.386 . S
C1643 C1642 1.386 . S
C1643 C1645 1.395 . S
C1643 H1653 0.930 . S
C1644 C1640 1.395 . S
C1644 C1645 1.379 . S
C1644 H1654 0.930 . S
C1645 C1643 1.395 . S
C1645 C1644 1.379 . S
C1645 H1655 0.930 . S
C1646 O1624 1.264 . S
C1646 O1625 1.254 . S
C1647 Eu1583 2.848 1_655 S
C1647 O1622 1.257 1_655 S
C1647 O1627 1.249 . S
C1647 C1640 1.492 . S
H1648 C1631 0.930 1_554 S
H1649 C1632 0.930 . S
H1650 C1633 0.930 . S
H1651 C1634 0.930 . S
H1652 C1641 0.930 . S
H1653 C1643 0.930 . S
H1654 C1644 0.930 . S
H1655 C1645 0.930 . S
C1656 C1657 1.369 . S
C1656 C1658 1.419 . S
C1656 H1660 0.930 . S
C1657 C1656 1.369 . S
C1657 C1666 1.429 1_556 S
C1658 C1656 1.419 . S
C1658 C1659 1.363 1_556 S
C1658 H1661 0.929 . S
C1659 C1658 1.363 1_554 S
C1659 C1665 1.428 . S
H1660 C1656 0.930 . S
H1661 C1658 0.929 . S
S1662 N1663 1.613 . S
S1662 N1664 1.610 1_655 S
N1663 S1662 1.613 . S
N1663 C1666 1.350 1_655 S
N1664 S1662 1.610 1_455 S
N1664 C1665 1.351 . S
C1665 C1659 1.428 . S
C1665 N1664 1.351 . S
C1665 C1666 1.434 . S
C1666 C1657 1.429 1_554 S
C1666 N1663 1.350 1_455 S
C1666 C1665 1.434 . S
C1667 C1668 1.369 . S
C1667 C1669 1.419 . S
C1667 H1671 0.930 . S
C1668 C1667 1.369 . S
C1668 C1677 1.429 . S
C1669 C1667 1.419 . S
C1669 C1670 1.363 . S
C1669 H1672 0.929 . S
C1670 C1669 1.363 . S
C1670 C1676 1.428 . S
H1671 C1667 0.930 . S
H1672 C1669 0.929 . S
S1673 N1674 1.613 . S
S1673 N1675 1.610 . S
N1674 S1673 1.613 . S
N1674 C1677 1.350 . S
N1675 S1673 1.610 . S
N1675 C1676 1.351 . S
C1676 C1670 1.428 . S
C1676 N1675 1.351 . S
C1676 C1677 1.434 . S
C1677 C1668 1.429 . S
C1677 N1674 1.350 . S
C1677 C1676 1.434 . S
C1678 C1679 1.369 . S
C1678 C1680 1.419 . S
C1678 H1682 0.930 . S
C1679 C1678 1.369 . S
C1679 C1688 1.429 . S
C1680 C1678 1.419 . S
C1680 C1681 1.363 . S
C1680 H1683 0.929 . S
C1681 C1680 1.363 . S
C1681 C1687 1.428 . S
H1682 C1678 0.930 . S
H1683 C1680 0.929 . S
S1684 N1685 1.613 . S
S1684 N1686 1.610 . S
N1685 S1684 1.613 . S
N1685 C1688 1.350 . S
N1686 S1684 1.610 . S
N1686 C1687 1.351 . S
C1687 C1681 1.428 . S
C1687 N1686 1.351 . S
C1687 C1688 1.434 . S
C1688 C1679 1.429 . S
C1688 N1685 1.350 . S
C1688 C1687 1.434 . S
C1689 C1690 1.369 . S
C1689 C1691 1.419 . S
C1689 H1693 0.930 . S
C1690 C1689 1.369 . S
C1690 C1699 1.429 . S
C1691 C1689 1.419 . S
C1691 C1692 1.363 . S
C1691 H1694 0.929 . S
C1692 C1691 1.363 . S
C1692 C1698 1.428 . S
H1693 C1689 0.930 . S
H1694 C1691 0.929 . S
S1695 N1696 1.613 . S
S1695 N1697 1.610 . S
N1696 S1695 1.613 . S
N1696 C1699 1.350 . S
N1697 S1695 1.610 . S
N1697 C1698 1.351 . S
C1698 C1692 1.428 . S
C1698 N1697 1.351 . S
C1698 C1699 1.434 . S
C1699 C1690 1.429 . S
C1699 N1696 1.350 . S
C1699 C1698 1.434 . S
C1700 C1701 1.369 . S
C1700 C1702 1.419 . S
C1700 H1704 0.930 1_455 S
C1701 C1700 1.369 . S
C1701 C1710 1.429 . S
C1702 C1700 1.419 . S
C1702 C1703 1.363 . S
C1702 H1705 0.929 . S
C1703 C1702 1.363 . S
C1703 C1709 1.428 . S
H1704 C1700 0.930 1_655 S
H1705 C1702 0.929 . S
S1706 N1707 1.613 . S
S1706 N1708 1.610 . S
N1707 S1706 1.613 . S
N1707 C1710 1.350 . S
N1708 S1706 1.610 . S
N1708 C1709 1.351 . S
C1709 C1703 1.428 . S
C1709 N1708 1.351 . S
C1709 C1710 1.434 . S
C1710 C1701 1.429 . S
C1710 N1707 1.350 . S
C1710 C1709 1.434 . S
C1711 C1712 1.369 . S
C1711 C1713 1.419 . S
C1711 H1715 0.930 . S
C1712 C1711 1.369 . S
C1712 C1721 1.429 . S
C1713 C1711 1.419 . S
C1713 C1714 1.363 . S
C1713 H1716 0.929 . S
C1714 C1713 1.363 . S
C1714 C1720 1.428 . S
H1715 C1711 0.930 . S
H1716 C1713 0.929 . S
S1717 N1718 1.613 . S
S1717 N1719 1.610 . S
N1718 S1717 1.613 . S
N1718 C1721 1.350 . S
N1719 S1717 1.610 . S
N1719 C1720 1.351 . S
C1720 C1714 1.428 . S
C1720 N1719 1.351 . S
C1720 C1721 1.434 . S
C1721 C1712 1.429 . S
C1721 N1718 1.350 . S
C1721 C1720 1.434 . S
C1722 C1723 1.369 . S
C1722 C1724 1.419 . S
C1722 H1726 0.930 . S
C1723 C1722 1.369 . S
C1723 C1732 1.429 . S
C1724 C1722 1.419 . S
C1724 C1725 1.363 . S
C1724 H1727 0.929 . S
C1725 C1724 1.363 . S
C1725 C1731 1.428 . S
H1726 C1722 0.930 . S
H1727 C1724 0.929 . S
S1728 N1729 1.613 . S
S1728 N1730 1.610 . S
N1729 S1728 1.613 . S
N1729 C1732 1.350 . S
N1730 S1728 1.610 . S
N1730 C1731 1.351 . S
C1731 C1725 1.428 . S
C1731 N1730 1.351 . S
C1731 C1732 1.434 . S
C1732 C1723 1.429 . S
C1732 N1729 1.350 . S
C1732 C1731 1.434 . S
C1733 C1734 1.369 . S
C1733 C1735 1.419 . S
C1733 H1737 0.930 . S
C1734 C1733 1.369 . S
C1734 C1743 1.429 . S
C1735 C1733 1.419 . S
C1735 C1736 1.363 . S
C1735 H1738 0.929 . S
C1736 C1735 1.363 . S
C1736 C1742 1.428 . S
H1737 C1733 0.930 . S
H1738 C1735 0.929 . S
S1739 N1740 1.613 . S
S1739 N1741 1.610 . S
N1740 S1739 1.613 . S
N1740 C1743 1.350 . S
N1741 S1739 1.610 . S
N1741 C1742 1.351 . S
C1742 C1736 1.428 . S
C1742 N1741 1.351 . S
C1742 C1743 1.434 . S
C1743 C1734 1.429 . S
C1743 N1740 1.350 . S
C1743 C1742 1.434 . S
C1744 C1745 1.369 . S
C1744 C1746 1.419 . S
C1744 H1748 0.930 . S
C1745 C1744 1.369 . S
C1745 C1754 1.429 1_455 S
C1746 C1744 1.419 . S
C1746 C1747 1.363 . S
C1746 H1749 0.929 . S
C1747 C1746 1.363 . S
C1747 C1753 1.428 . S
H1748 C1744 0.930 . S
H1749 C1746 0.929 . S
S1750 N1751 1.613 . S
S1750 N1752 1.610 . S
N1751 S1750 1.613 . S
N1751 C1754 1.350 . S
N1752 S1750 1.610 . S
N1752 C1753 1.351 1_655 S
C1753 C1747 1.428 . S
C1753 N1752 1.351 1_455 S
C1753 C1754 1.434 1_455 S
C1754 C1745 1.429 1_655 S
C1754 N1751 1.350 . S
C1754 C1753 1.434 1_655 S
C1755 C1756 1.369 . S
C1755 C1757 1.419 . S
C1755 H1759 0.930 . S
C1756 C1755 1.369 . S
C1756 C1765 1.429 . S
C1757 C1755 1.419 . S
C1757 C1758 1.363 . S
C1757 H1760 0.929 . S
C1758 C1757 1.363 . S
C1758 C1764 1.428 . S
H1759 C1755 0.930 . S
H1760 C1757 0.929 . S
S1761 N1762 1.613 . S
S1761 N1763 1.610 . S
N1762 S1761 1.613 . S
N1762 C1765 1.350 . S
N1763 S1761 1.610 . S
N1763 C1764 1.351 . S
C1764 C1758 1.428 . S
C1764 N1763 1.351 . S
C1764 C1765 1.434 . S
C1765 C1756 1.429 . S
C1765 N1762 1.350 . S
C1765 C1764 1.434 . S
C1766 C1767 1.369 . S
C1766 C1768 1.419 . S
C1766 H1770 0.930 . S
C1767 C1766 1.369 . S
C1767 C1776 1.429 . S
C1768 C1766 1.419 . S
C1768 C1769 1.363 . S
C1768 H1771 0.929 . S
C1769 C1768 1.363 . S
C1769 C1775 1.428 . S
H1770 C1766 0.930 . S
H1771 C1768 0.929 . S
S1772 N1773 1.613 1_565 S
S1772 N1774 1.610 1_565 S
N1773 S1772 1.613 1_545 S
N1773 C1776 1.350 . S
N1774 S1772 1.610 1_545 S
N1774 C1775 1.351 . S
C1775 C1769 1.428 . S
C1775 N1774 1.351 . S
C1775 C1776 1.434 . S
C1776 C1767 1.429 . S
C1776 N1773 1.350 . S
C1776 C1775 1.434 . S
C1777 C1778 1.369 . S
C1777 C1779 1.419 . S
C1777 H1781 0.930 . S
C1778 C1777 1.369 . S
C1778 C1787 1.429 . S
C1779 C1777 1.419 . S
C1779 C1780 1.363 . S
C1779 H1782 0.929 . S
C1780 C1779 1.363 . S
C1780 C1786 1.428 . S
H1781 C1777 0.930 . S
H1782 C1779 0.929 . S
S1783 N1784 1.613 . S
S1783 N1785 1.610 . S
N1784 S1783 1.613 . S
N1784 C1787 1.350 . S
N1785 S1783 1.610 . S
N1785 C1786 1.351 . S
C1786 C1780 1.428 . S
C1786 N1785 1.351 . S
C1786 C1787 1.434 . S
C1787 C1778 1.429 . S
C1787 N1784 1.350 . S
C1787 C1786 1.434 . S
C1788 C1789 1.369 . S
C1788 C1790 1.419 . S
C1788 H1792 0.930 . S
C1789 C1788 1.369 . S
C1789 C1798 1.429 . S
C1790 C1788 1.419 . S
C1790 C1791 1.363 . S
C1790 H1793 0.929 . S
C1791 C1790 1.363 . S
C1791 C1797 1.428 . S
H1792 C1788 0.930 . S
H1793 C1790 0.929 . S
S1794 N1795 1.613 1_565 S
S1794 N1796 1.610 1_565 S
N1795 S1794 1.613 1_545 S
N1795 C1798 1.350 . S
N1796 S1794 1.610 1_545 S
N1796 C1797 1.351 . S
C1797 C1791 1.428 . S
C1797 N1796 1.351 . S
C1797 C1798 1.434 . S
C1798 C1789 1.429 . S
C1798 N1795 1.350 . S
C1798 C1797 1.434 . S
C1799 C1800 1.369 . S
C1799 C1801 1.419 . S
C1799 H1803 0.930 . S
C1800 C1799 1.369 . S
C1800 C1809 1.429 . S
C1801 C1799 1.419 . S
C1801 C1802 1.363 . S
C1801 H1804 0.929 . S
C1802 C1801 1.363 . S
C1802 C1808 1.428 . S
H1803 C1799 0.930 . S
H1804 C1801 0.929 . S
S1805 N1806 1.613 . S
S1805 N1807 1.610 . S
N1806 S1805 1.613 . S
N1806 C1809 1.350 . S
N1807 S1805 1.610 . S
N1807 C1808 1.351 . S
C1808 C1802 1.428 . S
C1808 N1807 1.351 . S
C1808 C1809 1.434 . S
C1809 C1800 1.429 . S
C1809 N1806 1.350 . S
C1809 C1808 1.434 . S
C1810 C1811 1.369 . S
C1810 C1812 1.419 . S
C1810 H1814 0.930 . S
C1811 C1810 1.369 . S
C1811 C1820 1.429 . S
C1812 C1810 1.419 . S
C1812 C1813 1.363 . S
C1812 H1815 0.929 . S
C1813 C1812 1.363 . S
C1813 C1819 1.428 . S
H1814 C1810 0.930 . S
H1815 C1812 0.929 . S
S1816 N1817 1.613 . S
S1816 N1818 1.610 . S
N1817 S1816 1.613 . S
N1817 C1820 1.350 . S
N1818 S1816 1.610 . S
N1818 C1819 1.351 . S
C1819 C1813 1.428 . S
C1819 N1818 1.351 . S
C1819 C1820 1.434 . S
C1820 C1811 1.429 . S
C1820 N1817 1.350 . S
C1820 C1819 1.434 . S
C1821 C1822 1.369 . S
C1821 C1823 1.419 . S
C1821 H1825 0.930 . S
C1822 C1821 1.369 . S
C1822 C1831 1.429 . S
C1823 C1821 1.419 . S
C1823 C1824 1.363 . S
C1823 H1826 0.929 . S
C1824 C1823 1.363 . S
C1824 C1830 1.428 . S
H1825 C1821 0.930 . S
H1826 C1823 0.929 . S
S1827 N1828 1.613 . S
S1827 N1829 1.610 . S
N1828 S1827 1.613 . S
N1828 C1831 1.350 . S
N1829 S1827 1.610 . S
N1829 C1830 1.351 . S
C1830 C1824 1.428 . S
C1830 N1829 1.351 . S
C1830 C1831 1.434 . S
C1831 C1822 1.429 . S
C1831 N1828 1.350 . S
C1831 C1830 1.434 . S
C1832 C1833 1.369 . S
C1832 C1834 1.419 . S
C1832 H1836 0.930 . S
C1833 C1832 1.369 . S
C1833 C1842 1.411 1_564 S
C1834 C1832 1.419 . S
C1834 C1835 1.363 1_565 S
C1834 H1837 0.929 . S
C1835 C1834 1.363 1_545 S
C1835 C1841 1.428 1_554 S
H1836 C1832 0.930 . S
H1837 C1834 0.929 . S
S1838 N1839 1.613 . S
S1838 N1840 1.610 . S
N1839 S1838 1.613 . S
N1839 C1842 1.359 . S
N1840 S1838 1.610 . S
N1840 C1841 1.351 . S
C1841 C1835 1.428 1_556 S
C1841 N1840 1.351 . S
C1841 C1842 1.446 . S
C1842 C1833 1.411 1_546 S
C1842 N1839 1.359 . S
C1842 C1841 1.446 . S
C1843 C1844 1.369 1_554 S
C1843 C1845 1.419 . S
C1843 H1847 0.930 . S
C1844 C1843 1.369 1_556 S
C1844 C1853 1.429 . S
C1845 C1843 1.419 . S
C1845 C1846 1.363 1_554 S
C1845 H1848 0.929 . S
C1846 C1845 1.363 1_556 S
C1846 C1852 1.428 . S
H1847 C1843 0.930 . S
H1848 C1845 0.929 . S
S1849 N1850 1.613 . S
S1849 N1851 1.610 . S
N1850 S1849 1.613 . S
N1850 C1853 1.350 . S
N1851 S1849 1.610 . S
N1851 C1852 1.351 . S
C1852 C1846 1.428 . S
C1852 N1851 1.351 . S
C1852 C1853 1.434 . S
C1853 C1844 1.429 . S
C1853 N1850 1.350 . S
C1853 C1852 1.434 . S
C1854 C1855 1.369 . S
C1854 C1856 1.419 . S
C1854 H1858 0.930 . S
C1855 C1854 1.369 . S
C1855 C1864 1.429 . S
C1856 C1854 1.419 . S
C1856 C1857 1.363 . S
C1856 H1859 0.929 . S
C1857 C1856 1.363 . S
C1857 C1863 1.428 . S
H1858 C1854 0.930 . S
H1859 C1856 0.929 . S
S1860 N1861 1.613 . S
S1860 N1862 1.610 . S
N1861 S1860 1.613 . S
N1861 C1864 1.350 . S
N1862 S1860 1.610 . S
N1862 C1863 1.351 . S
C1863 C1857 1.428 . S
C1863 N1862 1.351 . S
C1863 C1864 1.434 . S
C1864 C1855 1.429 . S
C1864 N1861 1.350 . S
C1864 C1863 1.434 . S
C1865 C1866 1.369 . S
C1865 C1867 1.419 . S
C1865 H1869 0.930 . S
C1866 C1865 1.369 . S
C1866 C1875 1.429 . S
C1867 C1865 1.419 . S
C1867 C1868 1.363 1_655 S
C1867 H1870 0.929 1_655 S
C1868 C1867 1.363 1_455 S
C1868 C1874 1.428 1_455 S
H1869 C1865 0.930 . S
H1870 C1867 0.929 1_455 S
S1871 N1872 1.613 . S
S1871 N1873 1.610 . S
N1872 S1871 1.613 . S
N1872 C1875 1.350 . S
N1873 S1871 1.610 . S
N1873 C1874 1.351 . S
C1874 C1868 1.428 1_655 S
C1874 N1873 1.351 . S
C1874 C1875 1.434 . S
C1875 C1866 1.429 . S
C1875 N1872 1.350 . S
C1875 C1874 1.434 . S
C1876 C1877 1.369 . S
C1876 C1878 1.419 . S
C1876 H1880 0.930 . S
C1877 C1876 1.369 . S
C1877 C1886 1.429 . S
C1878 C1876 1.419 . S
C1878 C1879 1.363 . S
C1878 H1881 0.929 . S
C1879 C1878 1.363 . S
C1879 C1885 1.428 . S
H1880 C1876 0.930 . S
H1881 C1878 0.929 . S
S1882 N1883 1.613 . S
S1882 N1884 1.610 . S
N1883 S1882 1.613 . S
N1883 C1886 1.350 . S
N1884 S1882 1.610 . S
N1884 C1885 1.351 . S
C1885 C1879 1.428 . S
C1885 N1884 1.351 . S
C1885 C1886 1.434 . S
C1886 C1877 1.429 . S
C1886 N1883 1.350 . S
C1886 C1885 1.434 . S
C1887 C1888 1.369 . S
C1887 C1889 1.419 . S
C1887 H1891 0.930 . S
C1888 C1887 1.369 . S
C1888 C1897 1.429 . S
C1889 C1887 1.419 . S
C1889 C1890 1.363 . S
C1889 H1892 0.929 . S
C1890 C1889 1.363 . S
C1890 C1896 1.428 . S
H1891 C1887 0.930 . S
H1892 C1889 0.929 . S
S1893 N1894 1.613 . S
S1893 N1895 1.610 . S
N1894 S1893 1.613 . S
N1894 C1897 1.350 . S
N1895 S1893 1.610 . S
N1895 C1896 1.351 . S
C1896 C1890 1.428 . S
C1896 N1895 1.351 . S
C1896 C1897 1.434 . S
C1897 C1888 1.429 . S
C1897 N1894 1.350 . S
C1897 C1896 1.434 . S
C1898 C1899 1.369 . S
C1898 C1900 1.419 . S
C1898 H1902 0.930 . S
C1899 C1898 1.369 . S
C1899 C1908 1.429 . S
C1900 C1898 1.419 . S
C1900 C1901 1.363 . S
C1900 H1903 0.929 . S
C1901 C1900 1.363 . S
C1901 C1907 1.428 . S
H1902 C1898 0.930 . S
H1903 C1900 0.929 . S
S1904 N1905 1.613 . S
S1904 N1906 1.610 . S
N1905 S1904 1.613 . S
N1905 C1908 1.350 . S
N1906 S1904 1.610 . S
N1906 C1907 1.351 . S
C1907 C1901 1.428 . S
C1907 N1906 1.351 . S
C1907 C1908 1.434 . S
C1908 C1899 1.429 . S
C1908 N1905 1.350 . S
C1908 C1907 1.434 . S
C1909 C1910 1.369 . S
C1909 C1911 1.419 . S
C1909 H1913 0.930 . S
C1910 C1909 1.369 . S
C1910 C1919 1.429 . S
C1911 C1909 1.419 . S
C1911 C1912 1.363 . S
C1911 H1914 0.929 . S
C1912 C1911 1.363 . S
C1912 C1918 1.428 . S
H1913 C1909 0.930 . S
H1914 C1911 0.929 . S
S1915 N1916 1.613 . S
S1915 N1917 1.610 . S
N1916 S1915 1.613 . S
N1916 C1919 1.350 . S
N1917 S1915 1.610 . S
N1917 C1918 1.351 . S
C1918 C1912 1.428 . S
C1918 N1917 1.351 . S
C1918 C1919 1.434 . S
C1919 C1910 1.429 . S
C1919 N1916 1.350 . S
C1919 C1918 1.434 . S
C1920 C1921 1.369 . S
C1920 C1922 1.419 . S
C1920 H1924 0.930 . S
C1921 C1920 1.369 . S
C1921 C1930 1.429 . S
C1922 C1920 1.419 . S
C1922 C1923 1.363 . S
C1922 H1925 0.929 . S
C1923 C1922 1.363 . S
C1923 C1929 1.428 . S
H1924 C1920 0.930 . S
H1925 C1922 0.929 . S
S1926 N1927 1.613 . S
S1926 N1928 1.610 . S
N1927 S1926 1.613 . S
N1927 C1930 1.350 . S
N1928 S1926 1.610 . S
N1928 C1929 1.351 . S
C1929 C1923 1.428 . S
C1929 N1928 1.351 . S
C1929 C1930 1.434 . S
C1930 C1921 1.429 . S
C1930 N1927 1.350 . S
C1930 C1929 1.434 . S
C1931 C1932 1.369 . S
C1931 C1933 1.419 . S
C1931 H1935 0.930 . S
C1932 C1931 1.369 . S
C1932 C1941 1.429 . S
C1933 C1931 1.419 . S
C1933 C1934 1.363 . S
C1933 H1936 0.929 . S
C1934 C1933 1.363 . S
C1934 C1940 1.428 . S
H1935 C1931 0.930 . S
H1936 C1933 0.929 . S
S1937 N1938 1.613 . S
S1937 N1939 1.610 . S
N1938 S1937 1.613 . S
N1938 C1941 1.350 . S
N1939 S1937 1.610 . S
N1939 C1940 1.351 . S
C1940 C1934 1.428 . S
C1940 N1939 1.351 . S
C1940 C1941 1.434 . S
C1941 C1932 1.429 . S
C1941 N1938 1.350 . S
C1941 C1940 1.434 . S
C1942 C1943 1.369 . S
C1942 C1944 1.419 . S
C1942 H1946 0.930 . S
C1943 C1942 1.369 . S
C1943 C1952 1.429 . S
C1944 C1942 1.419 . S
C1944 C1945 1.363 . S
C1944 H1947 0.929 . S
C1945 C1944 1.363 . S
C1945 C1951 1.428 . S
H1946 C1942 0.930 . S
H1947 C1944 0.929 . S
S1948 N1949 1.613 . S
S1948 N1950 1.610 . S
N1949 S1948 1.613 . S
N1949 C1952 1.350 . S
N1950 S1948 1.610 . S
N1950 C1951 1.351 . S
C1951 C1945 1.428 . S
C1951 N1950 1.351 . S
C1951 C1952 1.434 . S
C1952 C1943 1.429 . S
C1952 N1949 1.350 . S
C1952 C1951 1.434 . S
C1953 C1954 1.369 . S
C1953 C1955 1.419 . S
C1953 H1957 0.930 . S
C1954 C1953 1.369 . S
C1954 C1963 1.429 . S
C1955 C1953 1.419 . S
C1955 C1956 1.363 . S
C1955 H1958 0.929 . S
C1956 C1955 1.363 . S
C1956 C1962 1.428 . S
H1957 C1953 0.930 . S
H1958 C1955 0.929 . S
S1959 N1960 1.613 . S
S1959 N1961 1.610 . S
N1960 S1959 1.613 . S
N1960 C1963 1.350 . S
N1961 S1959 1.610 . S
N1961 C1962 1.351 . S
C1962 C1956 1.428 . S
C1962 N1961 1.351 . S
C1962 C1963 1.434 . S
C1963 C1954 1.429 . S
C1963 N1960 1.350 . S
C1963 C1962 1.434 . S
C1964 C1965 1.369 . S
C1964 C1966 1.419 . S
C1964 H1968 0.930 . S
C1965 C1964 1.369 . S
C1965 C1974 1.429 . S
C1966 C1964 1.419 . S
C1966 C1967 1.363 . S
C1966 H1969 0.929 . S
C1967 C1966 1.363 . S
C1967 C1973 1.428 . S
H1968 C1964 0.930 . S
H1969 C1966 0.929 . S
S1970 N1971 1.613 . S
S1970 N1972 1.610 . S
N1971 S1970 1.613 . S
N1971 C1974 1.350 . S
N1972 S1970 1.610 . S
N1972 C1973 1.351 . S
C1973 C1967 1.428 . S
C1973 N1972 1.351 . S
C1973 C1974 1.434 . S
C1974 C1965 1.429 . S
C1974 N1971 1.350 . S
C1974 C1973 1.434 . S
C1975 C1976 1.369 . S
C1975 C1977 1.419 . S
C1975 H1979 0.930 . S
C1976 C1975 1.369 . S
C1976 C1985 1.429 . S
C1977 C1975 1.419 . S
C1977 C1978 1.363 . S
C1977 H1980 0.929 . S
C1978 C1977 1.363 . S
C1978 C1984 1.428 . S
H1979 C1975 0.930 . S
H1980 C1977 0.929 . S
S1981 N1982 1.613 . S
S1981 N1983 1.610 . S
N1982 S1981 1.613 . S
N1982 C1985 1.350 . S
N1983 S1981 1.610 . S
N1983 C1984 1.351 . S
C1984 C1978 1.428 . S
C1984 N1983 1.351 . S
C1984 C1985 1.434 . S
C1985 C1976 1.429 . S
C1985 N1982 1.350 . S
C1985 C1984 1.434 . S
C1986 C1987 1.369 . S
C1986 C1988 1.419 . S
C1986 H1990 0.930 . S
C1987 C1986 1.369 . S
C1987 C1996 1.429 . S
C1988 C1986 1.419 . S
C1988 C1989 1.363 . S
C1988 H1991 0.929 . S
C1989 C1988 1.363 . S
C1989 C1995 1.428 . S
H1990 C1986 0.930 . S
H1991 C1988 0.929 . S
S1992 N1993 1.613 1_545 S
S1992 N1994 1.610 . S
N1993 S1992 1.613 1_565 S
N1993 C1996 1.350 . S
N1994 S1992 1.610 . S
N1994 C1995 1.351 1_545 S
C1995 C1989 1.428 . S
C1995 N1994 1.351 1_565 S
C1995 C1996 1.434 . S
C1996 C1987 1.429 . S
C1996 N1993 1.350 . S
C1996 C1995 1.434 . S
C1997 C1998 1.369 . S
C1997 C1999 1.419 . S
C1997 H2001 0.930 . S
C1998 C1997 1.369 . S
C1998 C2007 1.429 . S
C1999 C1997 1.419 . S
C1999 C2000 1.363 . S
C1999 H2002 0.929 . S
C2000 C1999 1.363 . S
C2000 C2006 1.428 . S
H2001 C1997 0.930 . S
H2002 C1999 0.929 . S
S2003 N2004 1.613 . S
S2003 N2005 1.610 . S
N2004 S2003 1.613 . S
N2004 C2007 1.350 . S
N2005 S2003 1.610 . S
N2005 C2006 1.351 . S
C2006 C2000 1.428 . S
C2006 N2005 1.351 . S
C2006 C2007 1.434 . S
C2007 C1998 1.429 . S
C2007 N2004 1.350 . S
C2007 C2006 1.434 . S
C2008 C2009 1.371 . S
C2008 C2010 1.419 . S
C2008 H2012 0.930 . S
C2009 C2008 1.371 . S
C2009 C2018 1.425 1_545 S
C2010 C2008 1.419 . S
C2010 C2011 1.363 . S
C2010 H2013 0.929 . S
C2011 C2010 1.363 . S
C2011 C2017 1.428 1_545 S
H2012 C2008 0.930 . S
H2013 C2010 0.929 . S
S2014 N2015 1.613 . S
S2014 N2016 1.610 . S
N2015 S2014 1.613 . S
N2015 C2018 1.350 . S
N2016 S2014 1.610 . S
N2016 C2017 1.351 . S
C2017 C2011 1.428 1_565 S
C2017 N2016 1.351 . S
C2017 C2018 1.434 . S
C2018 C2009 1.425 1_565 S
C2018 N2015 1.350 . S
C2018 C2017 1.434 . S
C2019 C2020 1.369 . S
C2019 C2021 1.419 . S
C2019 H2023 0.930 . S
C2020 C2019 1.369 . S
C2020 C2029 1.429 . S
C2021 C2019 1.419 . S
C2021 C2022 1.363 . S
C2021 H2024 0.929 . S
C2022 C2021 1.363 . S
C2022 C2028 1.428 . S
H2023 C2019 0.930 . S
H2024 C2021 0.929 . S
S2025 N2026 1.613 . S
S2025 N2027 1.610 . S
N2026 S2025 1.613 . S
N2026 C2029 1.350 . S
N2027 S2025 1.610 . S
N2027 C2028 1.351 . S
C2028 C2022 1.428 . S
C2028 N2027 1.351 . S
C2028 C2029 1.434 . S
C2029 C2020 1.429 . S
C2029 N2026 1.350 . S
C2029 C2028 1.434 . S
C2030 C2031 1.369 . S
C2030 C2032 1.419 . S
C2030 H2034 0.930 1_545 S
C2031 C2030 1.369 . S
C2031 C2040 1.429 . S
C2032 C2030 1.419 . S
C2032 C2033 1.363 . S
C2032 H2035 0.929 1_545 S
C2033 C2032 1.363 . S
C2033 C2039 1.428 . S
H2034 C2030 0.930 1_565 S
H2035 C2032 0.929 1_565 S
S2036 N2037 1.613 . S
S2036 N2038 1.610 . S
N2037 S2036 1.613 . S
N2037 C2040 1.350 . S
N2038 S2036 1.610 . S
N2038 C2039 1.351 . S
C2039 C2033 1.428 . S
C2039 N2038 1.351 . S
C2039 C2040 1.434 . S
C2040 C2031 1.429 . S
C2040 N2037 1.350 . S
C2040 C2039 1.434 . S
C2041 C2042 1.369 . S
C2041 C2043 1.419 . S
C2041 H2045 0.930 . S
C2042 C2041 1.369 . S
C2042 C2051 1.429 . S
C2043 C2041 1.419 . S
C2043 C2044 1.363 . S
C2043 H2046 0.929 . S
C2044 C2043 1.363 . S
C2044 C2050 1.428 . S
H2045 C2041 0.930 . S
H2046 C2043 0.929 . S
S2047 N2048 1.613 . S
S2047 N2049 1.610 . S
N2048 S2047 1.613 . S
N2048 C2051 1.350 . S
N2049 S2047 1.610 . S
N2049 C2050 1.351 . S
C2050 C2044 1.428 . S
C2050 N2049 1.351 . S
C2050 C2051 1.434 . S
C2051 C2042 1.429 . S
C2051 N2048 1.350 . S
C2051 C2050 1.434 . S
C2052 C2053 1.369 . S
C2052 C2054 1.419 . S
C2052 H2056 0.930 . S
C2053 C2052 1.369 . S
C2053 C2062 1.429 1_565 S
C2054 C2052 1.419 . S
C2054 C2055 1.363 1_565 S
C2054 H2057 0.929 . S
C2055 C2054 1.363 1_545 S
C2055 C2061 1.428 . S
H2056 C2052 0.930 . S
H2057 C2054 0.929 . S
S2058 N2059 1.613 . S
S2058 N2060 1.610 . S
N2059 S2058 1.613 . S
N2059 C2062 1.350 . S
N2060 S2058 1.610 . S
N2060 C2061 1.351 . S
C2061 C2055 1.428 . S
C2061 N2060 1.351 . S
C2061 C2062 1.434 . S
C2062 C2053 1.429 1_545 S
C2062 N2059 1.350 . S
C2062 C2061 1.434 . S
C2063 C2064 1.369 . S
C2063 C2065 1.419 . S
C2063 H2067 0.930 . S
C2064 C2063 1.369 . S
C2064 C2073 1.429 . S
C2065 C2063 1.419 . S
C2065 C2066 1.363 . S
C2065 H2068 0.929 . S
C2066 C2065 1.363 . S
C2066 C2072 1.428 . S
H2067 C2063 0.930 . S
H2068 C2065 0.929 . S
S2069 N2070 1.613 . S
S2069 N2071 1.610 . S
N2070 S2069 1.613 . S
N2070 C2073 1.350 . S
N2071 S2069 1.610 . S
N2071 C2072 1.351 . S
C2072 C2066 1.428 . S
C2072 N2071 1.351 . S
C2072 C2073 1.434 . S
C2073 C2064 1.429 . S
C2073 N2070 1.350 . S
C2073 C2072 1.434 . S
C2074 C2075 1.369 . S
C2074 C2076 1.419 . S
C2074 H2078 0.930 . S
C2075 C2074 1.369 . S
C2075 C2084 1.429 1_565 S
C2076 C2074 1.419 . S
C2076 C2077 1.362 1_565 S
C2076 H2079 0.929 . S
C2077 C2076 1.362 1_545 S
C2077 C2083 1.428 . S
H2078 C2074 0.930 . S
H2079 C2076 0.929 . S
S2080 N2081 1.613 . S
S2080 N2082 1.610 . S
N2081 S2080 1.613 . S
N2081 C2084 1.350 . S
N2082 S2080 1.610 . S
N2082 C2083 1.351 . S
C2083 C2077 1.428 . S
C2083 N2082 1.351 . S
C2083 C2084 1.434 . S
C2084 C2075 1.429 1_545 S
C2084 N2081 1.350 . S
C2084 C2083 1.434 . S
C2085 C2086 1.369 . S
C2085 C2087 1.419 . S
C2085 H2089 0.930 . S
C2086 C2085 1.369 . S
C2086 C2095 1.429 . S
C2087 C2085 1.419 . S
C2087 C2088 1.363 . S
C2087 H2090 0.929 . S
C2088 C2087 1.363 . S
C2088 C2094 1.428 . S
H2089 C2085 0.930 . S
H2090 C2087 0.929 . S
S2091 N2092 1.613 . S
S2091 N2093 1.610 . S
N2092 S2091 1.613 . S
N2092 C2095 1.350 . S
N2093 S2091 1.610 . S
N2093 C2094 1.351 . S
C2094 C2088 1.428 . S
C2094 N2093 1.351 . S
C2094 C2095 1.434 . S
C2095 C2086 1.429 . S
C2095 N2092 1.350 . S
C2095 C2094 1.434 . S
C2096 C2097 1.369 . S
C2096 C2098 1.419 . S
C2096 H2100 0.930 . S
C2097 C2096 1.369 . S
C2097 C2106 1.429 . S
C2098 C2096 1.419 . S
C2098 C2099 1.363 . S
C2098 H2101 0.929 . S
C2099 C2098 1.363 . S
C2099 C2105 1.428 1_554 S
H2100 C2096 0.930 . S
H2101 C2098 0.929 . S
S2102 N2103 1.613 . S
S2102 N2104 1.610 . S
N2103 S2102 1.613 . S
N2103 C2106 1.350 1_556 S
N2104 S2102 1.610 . S
N2104 C2105 1.351 . S
C2105 C2099 1.428 1_556 S
C2105 N2104 1.351 . S
C2105 C2106 1.434 1_556 S
C2106 C2097 1.429 . S
C2106 N2103 1.350 1_554 S
C2106 C2105 1.434 1_554 S
C2107 C2108 1.369 . S
C2107 C2109 1.419 . S
C2107 H2111 0.930 . S
C2108 C2107 1.369 . S
C2108 C2117 1.429 . S
C2109 C2107 1.419 . S
C2109 C2110 1.363 . S
C2109 H2112 0.929 . S
C2110 C2109 1.363 . S
C2110 C2116 1.428 . S
H2111 C2107 0.930 . S
H2112 C2109 0.929 . S
S2113 N2114 1.613 . S
S2113 N2115 1.610 . S
N2114 S2113 1.613 . S
N2114 C2117 1.350 . S
N2115 S2113 1.610 . S
N2115 C2116 1.351 . S
C2116 C2110 1.428 . S
C2116 N2115 1.351 . S
C2116 C2117 1.434 . S
C2117 C2108 1.429 . S
C2117 N2114 1.350 . S
C2117 C2116 1.434 . S
C2118 C2119 1.369 . S
C2118 C2120 1.419 . S
C2118 H2122 0.930 . S
C2119 C2118 1.369 . S
C2119 C2128 1.429 . S
C2120 C2118 1.419 . S
C2120 C2121 1.363 . S
C2120 H2123 0.929 . S
C2121 C2120 1.363 . S
C2121 C2127 1.428 . S
H2122 C2118 0.930 . S
H2123 C2120 0.929 . S
S2124 N2125 1.613 . S
S2124 N2126 1.610 . S
N2125 S2124 1.613 . S
N2125 C2128 1.350 . S
N2126 S2124 1.610 . S
N2126 C2127 1.351 . S
C2127 C2121 1.428 . S
C2127 N2126 1.351 . S
C2127 C2128 1.434 . S
C2128 C2119 1.429 . S
C2128 N2125 1.350 . S
C2128 C2127 1.434 . S
C2129 C2130 1.369 . S
C2129 C2131 1.419 . S
C2129 H2133 0.930 . S
C2130 C2129 1.369 . S
C2130 C2139 1.429 . S
C2131 C2129 1.419 . S
C2131 C2132 1.363 . S
C2131 H2134 0.929 . S
C2132 C2131 1.363 . S
C2132 C2138 1.428 . S
H2133 C2129 0.930 . S
H2134 C2131 0.929 . S
S2135 N2136 1.613 . S
S2135 N2137 1.610 . S
N2136 S2135 1.613 . S
N2136 C2139 1.350 . S
N2137 S2135 1.610 . S
N2137 C2138 1.351 . S
C2138 C2132 1.428 . S
C2138 N2137 1.351 . S
C2138 C2139 1.434 . S
C2139 C2130 1.429 . S
C2139 N2136 1.350 . S
C2139 C2138 1.434 . S
C2140 C2141 1.369 . S
C2140 C2142 1.419 . S
C2140 H2144 0.930 . S
C2141 C2140 1.369 . S
C2141 C2150 1.429 1_565 S
C2142 C2140 1.419 . S
C2142 C2143 1.363 . S
C2142 H2145 0.929 . S
C2143 C2142 1.363 . S
C2143 C2149 1.428 1_565 S
H2144 C2140 0.930 . S
H2145 C2142 0.929 . S
S2146 N2147 1.613 . S
S2146 N2148 1.610 . S
N2147 S2146 1.613 . S
N2147 C2150 1.350 . S
N2148 S2146 1.610 . S
N2148 C2149 1.351 . S
C2149 C2143 1.428 1_545 S
C2149 N2148 1.351 . S
C2149 C2150 1.434 . S
C2150 C2141 1.429 1_545 S
C2150 N2147 1.350 . S
C2150 C2149 1.434 . S
C2151 C2152 1.369 . S
C2151 C2153 1.419 . S
C2151 H2155 0.930 . S
C2152 C2151 1.369 . S
C2152 C2161 1.429 . S
C2153 C2151 1.419 . S
C2153 C2154 1.363 . S
C2153 H2156 0.929 . S
C2154 C2153 1.363 . S
C2154 C2160 1.428 . S
H2155 C2151 0.930 . S
H2156 C2153 0.929 . S
S2157 N2158 1.613 . S
S2157 N2159 1.610 . S
N2158 S2157 1.613 . S
N2158 C2161 1.350 . S
N2159 S2157 1.610 . S
N2159 C2160 1.351 . S
C2160 C2154 1.428 . S
C2160 N2159 1.351 . S
C2160 C2161 1.434 . S
C2161 C2152 1.429 . S
C2161 N2158 1.350 . S
C2161 C2160 1.434 . S
C2162 C2163 1.369 . S
C2162 C2164 1.419 . S
C2162 H2166 0.930 . S
C2163 C2162 1.369 . S
C2163 C2172 1.429 . S
C2164 C2162 1.419 . S
C2164 C2165 1.363 . S
C2164 H2167 0.929 . S
C2165 C2164 1.363 . S
C2165 C2171 1.428 . S
H2166 C2162 0.930 . S
H2167 C2164 0.929 . S
S2168 N2169 1.613 . S
S2168 N2170 1.610 . S
N2169 S2168 1.613 . S
N2169 C2172 1.350 . S
N2170 S2168 1.610 . S
N2170 C2171 1.351 . S
C2171 C2165 1.428 . S
C2171 N2170 1.351 . S
C2171 C2172 1.434 . S
C2172 C2163 1.429 . S
C2172 N2169 1.350 . S
C2172 C2171 1.434 . S
C2173 C2174 1.369 . S
C2173 C2175 1.419 . S
C2173 H2177 0.930 . S
C2174 C2173 1.369 . S
C2174 C2183 1.429 . S
C2175 C2173 1.419 . S
C2175 C2176 1.363 . S
C2175 H2178 0.929 . S
C2176 C2175 1.363 . S
C2176 C2182 1.428 . S
H2177 C2173 0.930 . S
H2178 C2175 0.929 . S
S2179 N2180 1.613 . S
S2179 N2181 1.610 . S
N2180 S2179 1.613 . S
N2180 C2183 1.350 . S
N2181 S2179 1.610 . S
N2181 C2182 1.351 . S
C2182 C2176 1.428 . S
C2182 N2181 1.351 . S
C2182 C2183 1.434 . S
C2183 C2174 1.429 . S
C2183 N2180 1.350 . S
C2183 C2182 1.434 . S
C2184 C2185 1.369 . S
C2184 C2186 1.419 . S
C2184 H2188 0.930 . S
C2185 C2184 1.369 . S
C2185 C2194 1.429 . S
C2186 C2184 1.419 . S
C2186 C2187 1.363 . S
C2186 H2189 0.929 . S
C2187 C2186 1.363 . S
C2187 C2193 1.428 . S
H2188 C2184 0.930 . S
H2189 C2186 0.929 . S
S2190 N2191 1.613 . S
S2190 N2192 1.610 . S
N2191 S2190 1.613 . S
N2191 C2194 1.350 . S
N2192 S2190 1.610 . S
N2192 C2193 1.351 . S
C2193 C2187 1.428 . S
C2193 N2192 1.351 . S
C2193 C2194 1.434 . S
C2194 C2185 1.429 . S
C2194 N2191 1.350 . S
C2194 C2193 1.434 . S
C2195 C2196 1.369 . S
C2195 C2197 1.419 . S
C2195 H2199 0.930 . S
C2196 C2195 1.369 . S
C2196 C2205 1.429 . S
C2197 C2195 1.419 . S
C2197 C2198 1.363 . S
C2197 H2200 0.929 . S
C2198 C2197 1.363 . S
C2198 C2204 1.428 . S
H2199 C2195 0.930 . S
H2200 C2197 0.929 . S
S2201 N2202 1.613 . S
S2201 N2203 1.610 . S
N2202 S2201 1.613 . S
N2202 C2205 1.350 . S
N2203 S2201 1.610 . S
N2203 C2204 1.351 . S
C2204 C2198 1.428 . S
C2204 N2203 1.351 . S
C2204 C2205 1.434 . S
C2205 C2196 1.429 . S
C2205 N2202 1.350 . S
C2205 C2204 1.434 . S
C2206 C2207 1.369 . S
C2206 C2208 1.419 . S
C2206 H2210 0.930 . S
C2207 C2206 1.369 . S
C2207 C2216 1.429 1_556 S
C2208 C2206 1.419 . S
C2208 C2209 1.363 1_556 S
C2208 H2211 0.929 . S
C2209 C2208 1.363 1_554 S
C2209 C2215 1.428 . S
H2210 C2206 0.930 . S
H2211 C2208 0.929 . S
S2212 N2213 1.613 . S
S2212 N2214 1.610 . S
N2213 S2212 1.613 . S
N2213 C2216 1.350 . S
N2214 S2212 1.610 . S
N2214 C2215 1.351 . S
C2215 C2209 1.428 . S
C2215 N2214 1.351 . S
C2215 C2216 1.434 . S
C2216 C2207 1.429 1_554 S
C2216 N2213 1.350 . S
C2216 C2215 1.434 . S
C2217 C2218 1.369 . S
C2217 C2219 1.419 . S
C2217 H2221 0.930 . S
C2218 C2217 1.369 . S
C2218 C2227 1.429 . S
C2219 C2217 1.419 . S
C2219 C2220 1.363 1_455 S
C2219 H2222 0.929 . S
C2220 C2219 1.363 1_655 S
C2220 C2226 1.428 . S
H2221 C2217 0.930 . S
H2222 C2219 0.929 . S
S2223 N2224 1.613 1_655 S
S2223 N2225 1.610 . S
N2224 S2223 1.613 1_455 S
N2224 C2227 1.350 . S
N2225 S2223 1.610 . S
N2225 C2226 1.351 . S
C2226 C2220 1.428 . S
C2226 N2225 1.351 . S
C2226 C2227 1.434 1_655 S
C2227 C2218 1.429 . S
C2227 N2224 1.350 . S
C2227 C2226 1.434 1_455 S
C2228 C2229 1.369 . S
C2228 C2230 1.419 . S
C2228 H2232 0.930 . S
C2229 C2228 1.369 . S
C2229 C2238 1.429 . S
C2230 C2228 1.419 . S
C2230 C2231 1.363 . S
C2230 H2233 0.929 . S
C2231 C2230 1.363 . S
C2231 C2237 1.428 . S
H2232 C2228 0.930 . S
H2233 C2230 0.929 . S
S2234 N2235 1.613 . S
S2234 N2236 1.610 . S
N2235 S2234 1.613 . S
N2235 C2238 1.350 . S
N2236 S2234 1.610 . S
N2236 C2237 1.351 . S
C2237 C2231 1.428 . S
C2237 N2236 1.351 . S
C2237 C2238 1.434 . S
C2238 C2229 1.429 . S
C2238 N2235 1.350 . S
C2238 C2237 1.434 . S
C2239 C2240 1.369 . S
C2239 C2241 1.419 . S
C2239 H2243 0.930 . S
C2240 C2239 1.369 . S
C2240 C2249 1.429 . S
C2241 C2239 1.419 . S
C2241 C2242 1.363 . S
C2241 H2244 0.929 1_455 S
C2242 C2241 1.363 . S
C2242 C2248 1.428 . S
H2243 C2239 0.930 . S
H2244 C2241 0.929 1_655 S
S2245 N2246 1.613 . S
S2245 N2247 1.610 . S
N2246 S2245 1.613 . S
N2246 C2249 1.350 . S
N2247 S2245 1.610 . S
N2247 C2248 1.351 . S
C2248 C2242 1.428 . S
C2248 N2247 1.351 . S
C2248 C2249 1.434 . S
C2249 C2240 1.429 . S
C2249 N2246 1.350 . S
C2249 C2248 1.434 . S
C2250 C2251 1.352 1_455 S
C2250 C2252 1.419 . S
C2250 H2254 0.930 . S
C2251 C2250 1.352 1_655 S
C2251 C2260 1.423 1_655 S
C2252 C2250 1.419 . S
C2252 C2253 1.363 . S
C2252 H2255 0.929 . S
C2253 C2252 1.363 . S
C2253 C2259 1.428 . S
H2254 C2250 0.930 . S
H2255 C2252 0.929 . S
S2256 N2257 1.613 . S
S2256 N2258 1.610 1_655 S
N2257 S2256 1.613 . S
N2257 C2260 1.350 1_655 S
N2258 S2256 1.610 1_455 S
N2258 C2259 1.351 . S
C2259 C2253 1.428 . S
C2259 N2258 1.351 . S
C2259 C2260 1.434 . S
C2260 C2251 1.423 1_455 S
C2260 N2257 1.350 1_455 S
C2260 C2259 1.434 . S
C2261 C2262 1.369 . S
C2261 C2263 1.419 . S
C2261 H2265 0.930 . S
C2262 C2261 1.369 . S
C2262 C2271 1.429 . S
C2263 C2261 1.419 . S
C2263 C2264 1.363 . S
C2263 H2266 0.929 . S
C2264 C2263 1.363 . S
C2264 C2270 1.428 . S
H2265 C2261 0.930 . S
H2266 C2263 0.929 . S
S2267 N2268 1.613 . S
S2267 N2269 1.610 . S
N2268 S2267 1.613 . S
N2268 C2271 1.350 . S
N2269 S2267 1.610 . S
N2269 C2270 1.351 . S
C2270 C2264 1.428 . S
C2270 N2269 1.351 . S
C2270 C2271 1.434 . S
C2271 C2262 1.429 . S
C2271 N2268 1.350 . S
C2271 C2270 1.434 . S
C2272 C2273 1.369 . S
C2272 C2274 1.419 . S
C2272 H2276 0.930 . S
C2273 C2272 1.369 . S
C2273 C2282 1.429 . S
C2274 C2272 1.419 . S
C2274 C2275 1.363 . S
C2274 H2277 0.929 . S
C2275 C2274 1.363 . S
C2275 C2281 1.428 . S
H2276 C2272 0.930 . S
H2277 C2274 0.929 . S
S2278 N2279 1.613 . S
S2278 N2280 1.610 . S
N2279 S2278 1.613 . S
N2279 C2282 1.350 . S
N2280 S2278 1.610 . S
N2280 C2281 1.351 . S
C2281 C2275 1.428 . S
C2281 N2280 1.351 . S
C2281 C2282 1.434 . S
C2282 C2273 1.429 . S
C2282 N2279 1.350 . S
C2282 C2281 1.434 . S
C2283 C2284 1.369 . S
C2283 C2285 1.419 . S
C2283 H2287 0.930 . S
C2284 C2283 1.369 . S
C2284 C2293 1.429 . S
C2285 C2283 1.419 . S
C2285 C2286 1.363 . S
C2285 H2288 0.929 . S
C2286 C2285 1.363 . S
C2286 C2292 1.428 . S
H2287 C2283 0.930 . S
H2288 C2285 0.929 . S
S2289 N2290 1.613 . S
S2289 N2291 1.610 1_554 S
N2290 S2289 1.613 . S
N2290 C2293 1.350 1_554 S
N2291 S2289 1.610 1_556 S
N2291 C2292 1.351 . S
C2292 C2286 1.428 . S
C2292 N2291 1.351 . S
C2292 C2293 1.434 . S
C2293 C2284 1.429 . S
C2293 N2290 1.350 1_556 S
C2293 C2292 1.434 . S
C2294 C2295 1.369 . S
C2294 C2296 1.419 . S
C2294 H2298 0.930 . S
C2295 C2294 1.369 . S
C2295 C2304 1.429 . S
C2296 C2294 1.419 . S
C2296 C2297 1.363 . S
C2296 H2299 0.929 . S
C2297 C2296 1.363 . S
C2297 C2303 1.428 . S
H2298 C2294 0.930 . S
H2299 C2296 0.929 . S
S2300 N2301 1.613 . S
S2300 N2302 1.610 . S
N2301 S2300 1.613 . S
N2301 C2304 1.350 . S
N2302 S2300 1.610 . S
N2302 C2303 1.351 . S
C2303 C2297 1.428 . S
C2303 N2302 1.351 . S
C2303 C2304 1.434 . S
C2304 C2295 1.429 . S
C2304 N2301 1.350 . S
C2304 C2303 1.434 . S
C2305 C2306 1.369 . S
C2305 C2307 1.419 . S
C2305 H2309 0.930 . S
C2306 C2305 1.369 . S
C2306 C2315 1.429 . S
C2307 C2305 1.419 . S
C2307 C2308 1.363 . S
C2307 H2310 0.929 . S
C2308 C2307 1.363 . S
C2308 C2314 1.428 . S
H2309 C2305 0.930 . S
H2310 C2307 0.929 . S
S2311 N2312 1.613 . S
S2311 N2313 1.610 . S
N2312 S2311 1.613 . S
N2312 C2315 1.350 . S
N2313 S2311 1.610 . S
N2313 C2314 1.351 . S
C2314 C2308 1.428 . S
C2314 N2313 1.351 . S
C2314 C2315 1.434 . S
C2315 C2306 1.429 . S
C2315 N2312 1.350 . S
C2315 C2314 1.434 . S
C2316 C2317 1.369 . S
C2316 C2318 1.419 . S
C2316 H2320 0.930 . S
C2317 C2316 1.369 . S
C2317 C2326 1.429 . S
C2318 C2316 1.419 . S
C2318 C2319 1.363 . S
C2318 H2321 0.929 . S
C2319 C2318 1.363 . S
C2319 C2325 1.428 . S
H2320 C2316 0.930 . S
H2321 C2318 0.929 . S
S2322 N2323 1.613 . S
S2322 N2324 1.610 . S
N2323 S2322 1.613 . S
N2323 C2326 1.350 . S
N2324 S2322 1.610 . S
N2324 C2325 1.351 . S
C2325 C2319 1.428 . S
C2325 N2324 1.351 . S
C2325 C2326 1.434 . S
C2326 C2317 1.429 . S
C2326 N2323 1.350 . S
C2326 C2325 1.434 . S
C2327 C2328 1.369 . S
C2327 C2329 1.419 . S
C2327 H2331 0.930 . S
C2328 C2327 1.369 . S
C2328 C2337 1.429 . S
C2329 C2327 1.419 . S
C2329 C2330 1.363 . S
C2329 H2332 0.929 . S
C2330 C2329 1.363 . S
C2330 C2336 1.428 . S
H2331 C2327 0.930 . S
H2332 C2329 0.929 . S
S2333 N2334 1.613 . S
S2333 N2335 1.610 . S
N2334 S2333 1.613 . S
N2334 C2337 1.350 . S
N2335 S2333 1.610 . S
N2335 C2336 1.351 . S
C2336 C2330 1.428 . S
C2336 N2335 1.351 . S
C2336 C2337 1.434 . S
C2337 C2328 1.429 . S
C2337 N2334 1.350 . S
C2337 C2336 1.434 . S
C2338 C2339 1.369 . S
C2338 C2340 1.419 . S
C2338 H2342 0.930 . S
C2339 C2338 1.369 . S
C2339 C2348 1.429 . S
C2340 C2338 1.419 . S
C2340 C2341 1.363 . S
C2340 H2343 0.929 . S
C2341 C2340 1.363 . S
C2341 C2347 1.428 . S
H2342 C2338 0.930 . S
H2343 C2340 0.929 . S
S2344 N2345 1.613 . S
S2344 N2346 1.610 . S
N2345 S2344 1.613 . S
N2345 C2348 1.350 . S
N2346 S2344 1.610 . S
N2346 C2347 1.351 . S
C2347 C2341 1.428 . S
C2347 N2346 1.351 . S
C2347 C2348 1.434 . S
C2348 C2339 1.429 . S
C2348 N2345 1.350 . S
C2348 C2347 1.434 . S
C2349 C2350 1.369 . S
C2349 C2351 1.419 . S
C2349 H2353 0.930 . S
C2350 C2349 1.369 . S
C2350 C2359 1.429 . S
C2351 C2349 1.419 . S
C2351 C2352 1.363 . S
C2351 H2354 0.929 . S
C2352 C2351 1.363 . S
C2352 C2358 1.428 . S
H2353 C2349 0.930 . S
H2354 C2351 0.929 . S
S2355 N2356 1.613 . S
S2355 N2357 1.610 . S
N2356 S2355 1.613 . S
N2356 C2359 1.350 . S
N2357 S2355 1.610 . S
N2357 C2358 1.351 . S
C2358 C2352 1.428 . S
C2358 N2357 1.351 . S
C2358 C2359 1.434 . S
C2359 C2350 1.429 . S
C2359 N2356 1.350 . S
C2359 C2358 1.434 . S
C2360 C2361 1.369 . S
C2360 C2362 1.419 . S
C2360 H2364 0.930 . S
C2361 C2360 1.369 . S
C2361 C2370 1.429 . S
C2362 C2360 1.419 . S
C2362 C2363 1.363 . S
C2362 H2365 0.929 . S
C2363 C2362 1.363 . S
C2363 C2369 1.428 . S
H2364 C2360 0.930 . S
H2365 C2362 0.929 . S
S2366 N2367 1.613 . S
S2366 N2368 1.610 . S
N2367 S2366 1.613 . S
N2367 C2370 1.350 . S
N2368 S2366 1.610 . S
N2368 C2369 1.351 . S
C2369 C2363 1.428 . S
C2369 N2368 1.351 . S
C2369 C2370 1.434 . S
C2370 C2361 1.429 . S
C2370 N2367 1.350 . S
C2370 C2369 1.434 . S
C2371 C2372 1.369 . S
C2371 C2373 1.419 . S
C2371 H2375 0.930 . S
C2372 C2371 1.369 . S
C2372 C2381 1.429 . S
C2373 C2371 1.419 . S
C2373 C2374 1.363 . S
C2373 H2376 0.929 . S
C2374 C2373 1.363 . S
C2374 C2380 1.428 . S
H2375 C2371 0.930 . S
H2376 C2373 0.929 . S
S2377 N2378 1.613 . S
S2377 N2379 1.610 . S
N2378 S2377 1.613 . S
N2378 C2381 1.350 . S
N2379 S2377 1.610 . S
N2379 C2380 1.351 . S
C2380 C2374 1.428 . S
C2380 N2379 1.351 . S
C2380 C2381 1.434 . S
C2381 C2372 1.429 . S
C2381 N2378 1.350 . S
C2381 C2380 1.434 . S
C2382 C2383 1.369 . S
C2382 C2384 1.419 . S
C2382 H2386 0.930 . S
C2383 C2382 1.369 . S
C2383 C2392 1.429 . S
C2384 C2382 1.419 . S
C2384 C2385 1.363 . S
C2384 H2387 0.929 . S
C2385 C2384 1.363 . S
C2385 C2391 1.428 . S
H2386 C2382 0.930 . S
H2387 C2384 0.929 . S
S2388 N2389 1.613 . S
S2388 N2390 1.610 . S
N2389 S2388 1.613 . S
N2389 C2392 1.350 . S
N2390 S2388 1.610 . S
N2390 C2391 1.351 . S
C2391 C2385 1.428 . S
C2391 N2390 1.351 . S
C2391 C2392 1.434 . S
C2392 C2383 1.429 . S
C2392 N2389 1.350 . S
C2392 C2391 1.434 . S
C2393 C2394 1.369 1_545 S
C2393 C2395 1.419 . S
C2393 H2397 0.930 . S
C2394 C2393 1.369 1_565 S
C2394 C2403 1.429 1_554 S
C2395 C2393 1.419 . S
C2395 C2396 1.363 . S
C2395 H2398 0.929 . S
C2396 C2395 1.363 . S
C2396 C2402 1.428 1_544 S
H2397 C2393 0.930 . S
H2398 C2395 0.929 . S
S2399 N2400 1.613 . S
S2399 N2401 1.610 . S
N2400 S2399 1.613 . S
N2400 C2403 1.350 . S
N2401 S2399 1.610 . S
N2401 C2402 1.351 . S
C2402 C2396 1.428 1_566 S
C2402 N2401 1.351 . S
C2402 C2403 1.434 . S
C2403 C2394 1.429 1_556 S
C2403 N2400 1.350 . S
C2403 C2402 1.434 . S
C2404 C2405 1.369 . S
C2404 C2406 1.419 . S
C2404 H2408 0.930 . S
C2405 C2404 1.369 . S
C2405 C2414 1.429 . S
C2406 C2404 1.419 . S
C2406 C2407 1.363 . S
C2406 H2409 0.929 . S
C2407 C2406 1.363 . S
C2407 C2413 1.428 . S
H2408 C2404 0.930 . S
H2409 C2406 0.929 . S
S2410 N2411 1.613 . S
S2410 N2412 1.610 . S
N2411 S2410 1.613 . S
N2411 C2414 1.350 . S
N2412 S2410 1.610 . S
N2412 C2413 1.351 . S
C2413 C2407 1.428 . S
C2413 N2412 1.351 . S
C2413 C2414 1.434 . S
C2414 C2405 1.429 . S
C2414 N2411 1.350 . S
C2414 C2413 1.434 . S
C2415 C2416 1.369 1_556 S
C2415 C2417 1.419 1_556 S
C2415 H2419 0.930 . S
C2416 C2415 1.369 1_554 S
C2416 C2425 1.429 . S
C2417 C2415 1.419 1_554 S
C2417 C2418 1.363 . S
C2417 H2420 0.929 . S
C2418 C2417 1.363 . S
C2418 C2424 1.428 . S
H2419 C2415 0.930 . S
H2420 C2417 0.929 . S
S2421 N2422 1.613 . S
S2421 N2423 1.610 . S
N2422 S2421 1.613 . S
N2422 C2425 1.350 . S
N2423 S2421 1.610 . S
N2423 C2424 1.351 . S
C2424 C2418 1.428 . S
C2424 N2423 1.351 . S
C2424 C2425 1.434 . S
C2425 C2416 1.429 . S
C2425 N2422 1.350 . S
C2425 C2424 1.434 . S
C2426 C2427 1.369 . S
C2426 C2428 1.419 . S
C2426 H2430 0.930 . S
C2427 C2426 1.369 . S
C2427 C2436 1.429 . S
C2428 C2426 1.419 . S
C2428 C2429 1.363 . S
C2428 H2431 0.929 . S
C2429 C2428 1.363 . S
C2429 C2435 1.428 . S
H2430 C2426 0.930 . S
H2431 C2428 0.929 . S
S2432 N2433 1.613 . S
S2432 N2434 1.610 . S
N2433 S2432 1.613 . S
N2433 C2436 1.350 . S
N2434 S2432 1.610 . S
N2434 C2435 1.351 . S
C2435 C2429 1.428 . S
C2435 N2434 1.351 . S
C2435 C2436 1.434 . S
C2436 C2427 1.429 . S
C2436 N2433 1.350 . S
C2436 C2435 1.434 . S
C2437 C2438 1.369 . S
C2437 C2439 1.419 . S
C2437 H2441 0.930 . S
C2438 C2437 1.369 . S
C2438 C2447 1.429 . S
C2439 C2437 1.419 . S
C2439 C2440 1.363 . S
C2439 H2442 0.929 . S
C2440 C2439 1.363 . S
C2440 C2446 1.428 . S
H2441 C2437 0.930 . S
H2442 C2439 0.929 . S
S2443 N2444 1.613 . S
S2443 N2445 1.610 . S
N2444 S2443 1.613 . S
N2444 C2447 1.350 . S
N2445 S2443 1.610 . S
N2445 C2446 1.351 . S
C2446 C2440 1.428 . S
C2446 N2445 1.351 . S
C2446 C2447 1.434 . S
C2447 C2438 1.429 . S
C2447 N2444 1.350 . S
C2447 C2446 1.434 . S
C2448 C2449 1.369 . S
C2448 C2450 1.419 . S
C2448 H2452 0.930 . S
C2449 C2448 1.369 . S
C2449 C2458 1.429 . S
C2450 C2448 1.419 . S
C2450 C2451 1.363 . S
C2450 H2453 0.929 . S
C2451 C2450 1.363 . S
C2451 C2457 1.428 . S
H2452 C2448 0.930 . S
H2453 C2450 0.929 . S
S2454 N2455 1.613 . S
S2454 N2456 1.610 . S
N2455 S2454 1.613 . S
N2455 C2458 1.350 . S
N2456 S2454 1.610 . S
N2456 C2457 1.351 . S
C2457 C2451 1.428 . S
C2457 N2456 1.351 . S
C2457 C2458 1.434 . S
C2458 C2449 1.429 . S
C2458 N2455 1.350 . S
C2458 C2457 1.434 . S
C2459 C2460 1.369 . S
C2459 C2461 1.419 . S
C2459 H2463 0.930 . S
C2460 C2459 1.369 . S
C2460 C2469 1.429 . S
C2461 C2459 1.419 . S
C2461 C2462 1.363 . S
C2461 H2464 0.929 . S
C2462 C2461 1.363 . S
C2462 C2468 1.428 . S
H2463 C2459 0.930 . S
H2464 C2461 0.929 . S
S2465 N2466 1.613 . S
S2465 N2467 1.610 . S
N2466 S2465 1.613 . S
N2466 C2469 1.350 . S
N2467 S2465 1.610 . S
N2467 C2468 1.351 . S
C2468 C2462 1.428 . S
C2468 N2467 1.351 . S
C2468 C2469 1.434 . S
C2469 C2460 1.429 . S
C2469 N2466 1.350 . S
C2469 C2468 1.434 . S
C2470 C2471 1.369 . S
C2470 C2472 1.419 . S
C2470 H2474 0.930 . S
C2471 C2470 1.369 . S
C2471 C2480 1.429 . S
C2472 C2470 1.419 . S
C2472 C2473 1.363 . S
C2472 H2475 0.929 1_554 S
C2473 C2472 1.363 . S
C2473 C2479 1.428 . S
H2474 C2470 0.930 . S
H2475 C2472 0.929 1_556 S
S2476 N2477 1.613 . S
S2476 N2478 1.610 . S
N2477 S2476 1.613 . S
N2477 C2480 1.350 . S
N2478 S2476 1.610 . S
N2478 C2479 1.351 . S
C2479 C2473 1.428 . S
C2479 N2478 1.351 . S
C2479 C2480 1.434 . S
C2480 C2471 1.429 . S
C2480 N2477 1.350 . S
C2480 C2479 1.434 . S
C2481 C2482 1.369 . S
C2481 C2483 1.419 . S
C2481 H2485 0.930 . S
C2482 C2481 1.369 . S
C2482 C2491 1.429 . S
C2483 C2481 1.419 . S
C2483 C2484 1.363 . S
C2483 H2486 0.929 . S
C2484 C2483 1.363 . S
C2484 C2490 1.428 . S
H2485 C2481 0.930 . S
H2486 C2483 0.929 . S
S2487 N2488 1.613 . S
S2487 N2489 1.610 . S
N2488 S2487 1.613 . S
N2488 C2491 1.350 . S
N2489 S2487 1.610 . S
N2489 C2490 1.351 . S
C2490 C2484 1.428 . S
C2490 N2489 1.351 . S
C2490 C2491 1.434 . S
C2491 C2482 1.429 . S
C2491 N2488 1.350 . S
C2491 C2490 1.434 . S
C2492 C2493 1.369 . S
C2492 C2494 1.419 . S
C2492 H2496 0.930 . S
C2493 C2492 1.369 . S
C2493 C2502 1.429 . S
C2494 C2492 1.419 . S
C2494 C2495 1.363 . S
C2494 H2497 0.929 . S
C2495 C2494 1.363 . S
C2495 C2501 1.428 . S
H2496 C2492 0.930 . S
H2497 C2494 0.929 . S
S2498 N2499 1.613 . S
S2498 N2500 1.610 . S
N2499 S2498 1.613 . S
N2499 C2502 1.350 . S
N2500 S2498 1.610 . S
N2500 C2501 1.351 . S
C2501 C2495 1.428 . S
C2501 N2500 1.351 . S
C2501 C2502 1.434 . S
C2502 C2493 1.429 . S
C2502 N2499 1.350 . S
C2502 C2501 1.434 . S
C2503 C2504 1.369 . S
C2503 C2505 1.419 . S
C2503 H2507 0.930 . S
C2504 C2503 1.369 . S
C2504 C2513 1.429 . S
C2505 C2503 1.419 . S
C2505 C2506 1.363 . S
C2505 H2508 0.929 . S
C2506 C2505 1.363 . S
C2506 C2512 1.428 . S
H2507 C2503 0.930 . S
H2508 C2505 0.929 . S
S2509 N2510 1.613 . S
S2509 N2511 1.610 . S
N2510 S2509 1.613 . S
N2510 C2513 1.350 . S
N2511 S2509 1.610 . S
N2511 C2512 1.351 . S
C2512 C2506 1.428 . S
C2512 N2511 1.351 . S
C2512 C2513 1.434 . S
C2513 C2504 1.429 . S
C2513 N2510 1.350 . S
C2513 C2512 1.434 . S
C2514 C2515 1.369 . S
C2514 C2516 1.419 . S
C2514 H2518 0.930 . S
C2515 C2514 1.369 . S
C2515 C2524 1.429 . S
C2516 C2514 1.419 . S
C2516 C2517 1.363 . S
C2516 H2519 0.929 . S
C2517 C2516 1.363 . S
C2517 C2523 1.428 . S
H2518 C2514 0.930 . S
H2519 C2516 0.929 . S
S2520 N2521 1.613 . S
S2520 N2522 1.610 . S
N2521 S2520 1.613 . S
N2521 C2524 1.350 . S
N2522 S2520 1.610 . S
N2522 C2523 1.351 . S
C2523 C2517 1.428 . S
C2523 N2522 1.351 . S
C2523 C2524 1.434 . S
C2524 C2515 1.429 . S
C2524 N2521 1.350 . S
C2524 C2523 1.434 . S
C2525 C2526 1.369 . S
C2525 C2527 1.419 . S
C2525 H2529 0.930 . S
C2526 C2525 1.369 . S
C2526 C2535 1.429 . S
C2527 C2525 1.419 . S
C2527 C2528 1.363 . S
C2527 H2530 0.929 . S
C2528 C2527 1.363 . S
C2528 C2534 1.428 . S
H2529 C2525 0.930 . S
H2530 C2527 0.929 . S
S2531 N2532 1.613 . S
S2531 N2533 1.610 . S
N2532 S2531 1.613 . S
N2532 C2535 1.350 . S
N2533 S2531 1.610 . S
N2533 C2534 1.351 . S
C2534 C2528 1.428 . S
C2534 N2533 1.351 . S
C2534 C2535 1.434 . S
C2535 C2526 1.429 . S
C2535 N2532 1.350 . S
C2535 C2534 1.434 . S
C2536 C2537 1.369 . S
C2536 C2538 1.419 . S
C2536 H2540 0.930 . S
C2537 C2536 1.369 . S
C2537 C2546 1.429 . S
C2538 C2536 1.419 . S
C2538 C2539 1.363 . S
C2538 H2541 0.929 . S
C2539 C2538 1.363 . S
C2539 C2545 1.428 . S
H2540 C2536 0.930 . S
H2541 C2538 0.929 . S
S2542 N2543 1.613 . S
S2542 N2544 1.610 . S
N2543 S2542 1.613 . S
N2543 C2546 1.350 . S
N2544 S2542 1.610 . S
N2544 C2545 1.351 . S
C2545 C2539 1.428 . S
C2545 N2544 1.351 . S
C2545 C2546 1.434 . S
C2546 C2537 1.429 . S
C2546 N2543 1.350 . S
C2546 C2545 1.434 . S
C2547 C2548 1.369 . S
C2547 C2549 1.419 . S
C2547 H2551 0.930 . S
C2548 C2547 1.369 . S
C2548 C2557 1.429 . S
C2549 C2547 1.419 . S
C2549 C2550 1.363 . S
C2549 H2552 0.929 . S
C2550 C2549 1.363 . S
C2550 C2556 1.428 . S
H2551 C2547 0.930 . S
H2552 C2549 0.929 . S
S2553 N2554 1.613 . S
S2553 N2555 1.610 . S
N2554 S2553 1.613 . S
N2554 C2557 1.350 . S
N2555 S2553 1.610 . S
N2555 C2556 1.351 . S
C2556 C2550 1.428 . S
C2556 N2555 1.351 . S
C2556 C2557 1.434 . S
C2557 C2548 1.429 . S
C2557 N2554 1.350 . S
C2557 C2556 1.434 . S
C2558 C2559 1.369 . S
C2558 C2560 1.409 1_655 S
C2558 H2562 0.930 . S
C2559 C2558 1.369 . S
C2559 C2568 1.429 1_655 S
C2560 C2558 1.409 1_455 S
C2560 C2561 1.374 . S
C2560 H2563 0.928 1_455 S
C2561 C2560 1.374 . S
C2561 C2567 1.428 . S
H2562 C2558 0.930 . S
H2563 C2560 0.928 1_655 S
S2564 N2565 1.613 . S
S2564 N2566 1.610 . S
N2565 S2564 1.613 . S
N2565 C2568 1.350 . S
N2566 S2564 1.610 . S
N2566 C2567 1.351 . S
C2567 C2561 1.428 . S
C2567 N2566 1.351 . S
C2567 C2568 1.434 . S
C2568 C2559 1.429 1_455 S
C2568 N2565 1.350 . S
C2568 C2567 1.434 . S
C2569 C2570 1.369 . S
C2569 C2571 1.419 . S
C2569 H2573 0.930 . S
C2570 C2569 1.369 . S
C2570 C2579 1.429 . S
C2571 C2569 1.419 . S
C2571 C2572 1.363 . S
C2571 H2574 0.929 . S
C2572 C2571 1.363 . S
C2572 C2578 1.428 . S
H2573 C2569 0.930 . S
H2574 C2571 0.929 . S
S2575 N2576 1.613 . S
S2575 N2577 1.610 . S
N2576 S2575 1.613 . S
N2576 C2579 1.350 . S
N2577 S2575 1.610 . S
N2577 C2578 1.351 . S
C2578 C2572 1.428 . S
C2578 N2577 1.351 . S
C2578 C2579 1.434 . S
C2579 C2570 1.429 . S
C2579 N2576 1.350 . S
C2579 C2578 1.434 . S
C2580 C2581 1.369 . S
C2580 C2582 1.419 . S
C2580 H2584 0.930 . S
C2581 C2580 1.369 . S
C2581 C2590 1.429 . S
C2582 C2580 1.419 . S
C2582 C2583 1.363 . S
C2582 H2585 0.929 . S
C2583 C2582 1.363 . S
C2583 C2589 1.428 . S
H2584 C2580 0.930 . S
H2585 C2582 0.929 . S
S2586 N2587 1.613 . S
S2586 N2588 1.610 . S
N2587 S2586 1.613 . S
N2587 C2590 1.350 . S
N2588 S2586 1.610 . S
N2588 C2589 1.351 . S
C2589 C2583 1.428 . S
C2589 N2588 1.351 . S
C2589 C2590 1.434 . S
C2590 C2581 1.429 . S
C2590 N2587 1.350 . S
C2590 C2589 1.434 . S
C2591 C2592 1.369 . S
C2591 C2593 1.419 . S
C2591 H2595 0.930 . S
C2592 C2591 1.369 . S
C2592 C2601 1.429 . S
C2593 C2591 1.419 . S
C2593 C2594 1.363 . S
C2593 H2596 0.929 . S
C2594 C2593 1.363 . S
C2594 C2600 1.428 . S
H2595 C2591 0.930 . S
H2596 C2593 0.929 . S
S2597 N2598 1.613 . S
S2597 N2599 1.610 . S
N2598 S2597 1.613 . S
N2598 C2601 1.350 . S
N2599 S2597 1.610 . S
N2599 C2600 1.351 . S
C2600 C2594 1.428 . S
C2600 N2599 1.351 . S
C2600 C2601 1.434 . S
C2601 C2592 1.429 . S
C2601 N2598 1.350 . S
C2601 C2600 1.434 . S
C2602 C2603 1.369 . S
C2602 C2604 1.419 . S
C2602 H2606 0.930 . S
C2603 C2602 1.369 . S
C2603 C2612 1.429 . S
C2604 C2602 1.419 . S
C2604 C2605 1.363 . S
C2604 H2607 0.929 . S
C2605 C2604 1.363 . S
C2605 C2611 1.428 1_655 S
H2606 C2602 0.930 . S
H2607 C2604 0.929 . S
S2608 N2609 1.613 . S
S2608 N2610 1.610 . S
N2609 S2608 1.613 . S
N2609 C2612 1.350 1_455 S
N2610 S2608 1.610 . S
N2610 C2611 1.351 . S
C2611 C2605 1.428 1_455 S
C2611 N2610 1.351 . S
C2611 C2612 1.434 1_455 S
C2612 C2603 1.429 . S
C2612 N2609 1.350 1_655 S
C2612 C2611 1.434 1_655 S
C2613 C2614 1.369 . S
C2613 C2615 1.419 . S
C2613 H2617 0.930 . S
C2614 C2613 1.369 . S
C2614 C2623 1.429 . S
C2615 C2613 1.419 . S
C2615 C2616 1.363 . S
C2615 H2618 0.929 . S
C2616 C2615 1.363 . S
C2616 C2622 1.428 . S
H2617 C2613 0.930 . S
H2618 C2615 0.929 . S
S2619 N2620 1.613 . S
S2619 N2621 1.610 . S
N2620 S2619 1.613 . S
N2620 C2623 1.350 . S
N2621 S2619 1.610 . S
N2621 C2622 1.351 . S
C2622 C2616 1.428 . S
C2622 N2621 1.351 . S
C2622 C2623 1.434 . S
C2623 C2614 1.429 . S
C2623 N2620 1.350 . S
C2623 C2622 1.434 . S
C2624 C2625 1.369 . S
C2624 C2626 1.419 . S
C2624 H2628 0.930 . S
C2625 C2624 1.369 . S
C2625 C2634 1.429 . S
C2626 C2624 1.419 . S
C2626 C2627 1.363 . S
C2626 H2629 0.929 . S
C2627 C2626 1.363 . S
C2627 C2633 1.428 . S
H2628 C2624 0.930 . S
H2629 C2626 0.929 . S
S2630 N2631 1.613 . S
S2630 N2632 1.610 . S
N2631 S2630 1.613 . S
N2631 C2634 1.350 . S
N2632 S2630 1.610 . S
N2632 C2633 1.351 . S
C2633 C2627 1.428 . S
C2633 N2632 1.351 . S
C2633 C2634 1.434 . S
C2634 C2625 1.429 . S
C2634 N2631 1.350 . S
C2634 C2633 1.434 . S
C2635 C2636 1.369 . S
C2635 C2637 1.419 . S
C2635 H2639 0.930 . S
C2636 C2635 1.369 . S
C2636 C2645 1.429 . S
C2637 C2635 1.419 . S
C2637 C2638 1.363 . S
C2637 H2640 0.929 . S
C2638 C2637 1.363 . S
C2638 C2644 1.428 . S
H2639 C2635 0.930 . S
H2640 C2637 0.929 . S
S2641 N2642 1.613 1_545 S
S2641 N2643 1.610 . S
N2642 S2641 1.613 1_565 S
N2642 C2645 1.350 . S
N2643 S2641 1.610 . S
N2643 C2644 1.351 1_545 S
C2644 C2638 1.428 . S
C2644 N2643 1.351 1_565 S
C2644 C2645 1.434 . S
C2645 C2636 1.429 . S
C2645 N2642 1.350 . S
C2645 C2644 1.434 . S
C2646 C2647 1.369 . S
C2646 C2648 1.419 . S
C2646 H2650 0.930 . S
C2647 C2646 1.369 . S
C2647 C2656 1.429 . S
C2648 C2646 1.419 . S
C2648 C2649 1.363 . S
C2648 H2651 0.929 . S
C2649 C2648 1.363 . S
C2649 C2655 1.428 . S
H2650 C2646 0.930 . S
H2651 C2648 0.929 . S
S2652 N2653 1.613 . S
S2652 N2654 1.610 . S
N2653 S2652 1.613 . S
N2653 C2656 1.350 . S
N2654 S2652 1.610 . S
N2654 C2655 1.351 . S
C2655 C2649 1.428 . S
C2655 N2654 1.351 . S
C2655 C2656 1.434 . S
C2656 C2647 1.429 . S
C2656 N2653 1.350 . S
C2656 C2655 1.434 . S
C2657 C2658 1.369 . S
C2657 C2659 1.419 . S
C2657 H2661 0.930 . S
C2658 C2657 1.369 . S
C2658 C2667 1.429 . S
C2659 C2657 1.419 . S
C2659 C2660 1.363 . S
C2659 H2662 0.929 . S
C2660 C2659 1.363 . S
C2660 C2666 1.452 . S
H2661 C2657 0.930 . S
H2662 C2659 0.929 . S
S2663 N2664 1.613 . S
S2663 N2665 1.610 . S
N2664 S2663 1.613 . S
N2664 C2667 1.350 1_556 S
N2665 S2663 1.610 . S
N2665 C2666 1.329 1_556 S
C2666 C2660 1.452 . S
C2666 N2665 1.329 1_554 S
C2666 C2667 1.431 . S
C2667 C2658 1.429 . S
C2667 N2664 1.350 1_554 S
C2667 C2666 1.431 . S
C2668 C2669 1.369 . S
C2668 C2670 1.419 . S
C2668 H2672 0.930 . S
C2669 C2668 1.369 . S
C2669 C2678 1.429 . S
C2670 C2668 1.419 . S
C2670 C2671 1.363 . S
C2670 H2673 0.929 . S
C2671 C2670 1.363 . S
C2671 C2677 1.428 . S
H2672 C2668 0.930 . S
H2673 C2670 0.929 . S
S2674 N2675 1.613 . S
S2674 N2676 1.610 . S
N2675 S2674 1.613 . S
N2675 C2678 1.350 . S
N2676 S2674 1.610 . S
N2676 C2677 1.351 . S
C2677 C2671 1.428 . S
C2677 N2676 1.351 . S
C2677 C2678 1.434 . S
C2678 C2669 1.429 . S
C2678 N2675 1.350 . S
C2678 C2677 1.434 . S
C2679 C2680 1.369 . S
C2679 C2681 1.419 . S
C2679 H2683 0.930 . S
C2680 C2679 1.369 . S
C2680 C2689 1.429 . S
C2681 C2679 1.419 . S
C2681 C2682 1.359 1_554 S
C2681 H2684 0.929 . S
C2682 C2681 1.359 1_556 S
C2682 C2688 1.427 . S
H2683 C2679 0.930 . S
H2684 C2681 0.929 . S
S2685 N2686 1.613 1_556 S
S2685 N2687 1.610 . S
N2686 S2685 1.613 1_554 S
N2686 C2689 1.350 . S
N2687 S2685 1.610 . S
N2687 C2688 1.351 . S
C2688 C2682 1.427 . S
C2688 N2687 1.351 . S
C2688 C2689 1.434 1_556 S
C2689 C2680 1.429 . S
C2689 N2686 1.350 . S
C2689 C2688 1.434 1_554 S
C2690 C2691 1.369 . S
C2690 C2692 1.419 . S
C2690 H2694 0.930 . S
C2691 C2690 1.369 . S
C2691 C2700 1.429 . S
C2692 C2690 1.419 . S
C2692 C2693 1.363 . S
C2692 H2695 0.929 . S
C2693 C2692 1.363 . S
C2693 C2699 1.428 . S
H2694 C2690 0.930 . S
H2695 C2692 0.929 . S
S2696 N2697 1.613 . S
S2696 N2698 1.610 . S
N2697 S2696 1.613 . S
N2697 C2700 1.350 . S
N2698 S2696 1.610 . S
N2698 C2699 1.351 . S
C2699 C2693 1.428 . S
C2699 N2698 1.351 . S
C2699 C2700 1.434 . S
C2700 C2691 1.429 . S
C2700 N2697 1.350 . S
C2700 C2699 1.434 . S
C2701 C2702 1.369 . S
C2701 C2703 1.419 . S
C2701 H2705 0.930 . S
C2702 C2701 1.369 . S
C2702 C2711 1.429 . S
C2703 C2701 1.419 . S
C2703 C2704 1.363 . S
C2703 H2706 0.929 . S
C2704 C2703 1.363 . S
C2704 C2710 1.428 . S
H2705 C2701 0.930 . S
H2706 C2703 0.929 . S
S2707 N2708 1.613 . S
S2707 N2709 1.610 . S
N2708 S2707 1.613 . S
N2708 C2711 1.350 . S
N2709 S2707 1.610 . S
N2709 C2710 1.351 . S
C2710 C2704 1.428 . S
C2710 N2709 1.351 . S
C2710 C2711 1.434 . S
C2711 C2702 1.429 . S
C2711 N2708 1.350 . S
C2711 C2710 1.434 . S
C1657 C101 2.083 . S
C1659 C368 1.979 . S
C1668 C57 2.198 . S
C1670 C459 2.189 . S
C1679 C73 1.770 . S
C1681 C536 1.816 . S
C1692 C634 1.322 . S
C1690 C78 1.393 . S
C1701 C21 1.486 . S
C1703 C718 1.580 . S
C1714 C790 1.019 . S
C1712 C31 1.091 . S
C1725 C879 1.344 . S
C1723 C49 1.221 . S
C1734 C0 1.576 . S
C1736 C956 1.500 . S
C1747 C375 2.106 . S
C1745 C218 2.212 1_455 S
C1756 C229 0.828 . S
C1758 C466 0.812 . S
C1769 C543 1.168 . S
C1767 C257 1.205 . S
C1780 C620 1.702 . S
C1778 C164 1.678 . S
C1789 C216 2.049 1_455 S
C1791 C704 2.035 . S
C1802 C806 1.217 . S
C1800 C231 1.294 . S
C1813 C886 0.832 . S
C1811 C255 0.860 . S
C1824 C963 1.683 . S
C1822 C166 1.855 . S
C1835 C382 1.397 . S
C1833 C143 1.359 . S
C1844 C265 1.890 . S
C1846 C1047 1.858 1_556 S
C1857 C1135 2.233 . S
C1855 C299 2.398 . S
C1868 C1208 0.773 . S
C1866 C291 0.754 . S
C1877 C104 1.103 . S
C1879 C970 1.295 . S
C1888 C117 1.400 . S
C1890 C550 1.510 . S
C1899 C304 2.093 . S
C1901 C1299 2.069 . S
C1912 C1376 0.712 . S
C1910 C278 0.708 . S
C1923 C379 1.926 . S
C1921 C60 2.069 . S
C1934 C1394 2.129 . S
C1932 C96 2.198 . S
C1943 C88 1.778 . S
C1945 C547 1.717 . S
C1954 C65 1.369 . S
C1956 C1294 1.271 . S
C1967 C706 1.556 . S
C1965 C10 1.526 . S
C1976 C44 1.036 . S
C1978 C1138 0.999 . S
C1989 C890 1.230 . S
C1987 C34 1.029 . S
C2000 C1471 1.460 . S
C1998 C13 1.779 . S
C2011 C386 2.049 . S
C2009 C138 2.128 . S
C2022 C1378 0.784 . S
C2020 C296 0.794 . S
C2031 C112 1.191 . S
C2033 C554 1.143 . S
C2042 C270 1.698 . S
C2044 C1303 1.618 . S
C2053 C140 2.123 . S
C2055 C715 1.971 . S
C2066 C1131 1.172 . S
C2064 C294 1.287 . S
C2075 C114 0.802 . S
C2077 C874 0.772 1_545 S
C2086 C268 1.821 . S
C2088 C1478 1.619 . S
C2097 C169 1.421 . S
C2099 C370 1.385 1_554 S
C2108 C161 1.862 . S
C2110 C1058 1.809 . S
C2119 C234 2.382 . S
C2121 C788 2.181 . S
C2130 C226 0.663 . S
C2132 C1219 0.647 . S
C2143 C1462 1.467 . S
C2141 C247 1.421 1_565 S
C2152 C195 1.545 . S
C2154 C538 1.528 . S
C2165 C638 2.010 . S
C2163 C239 2.045 . S
C2176 C463 0.714 . S
C2174 C187 0.676 . S
C2185 C75 2.084 . S
C2187 C1544 1.975 . S
C2198 C1383 2.186 . S
C2196 C83 2.193 . S
C2207 C99 1.770 . S
C2209 C1628 1.816 . S
C2218 C52 1.392 . S
C2220 C1306 1.328 . S
C2229 C47 1.492 . S
C2231 C1054 1.584 . S
C2242 C1126 1.028 1_455 S
C2240 C5 1.082 . S
C2253 C1215 1.344 . S
C2251 C23 1.241 . S
C2264 C1460 1.488 . S
C2262 C26 1.583 . S
C2275 C1551 2.107 . S
C2273 C244 2.212 . S
C2284 C177 0.827 . S
C2286 C1390 0.809 . S
C2297 C1635 1.172 . S
C2295 C192 1.203 . S
C2308 C1292 1.699 . S
C2306 C203 1.670 . S
C2319 C1040 2.029 . S
C2317 C242 2.059 . S
C2328 C179 1.300 . S
C2330 C1142 1.205 . S
C2341 C1222 0.817 . S
C2339 C190 0.857 . S
C2350 C205 1.858 . S
C2352 C1467 1.674 . S
C2363 C1558 1.392 . S
C2361 C286 1.349 . S
C2372 C122 1.886 . S
C2374 C711 1.857 . S
C2385 C799 2.237 . S
C2383 C130 2.403 . S
C2396 C872 0.774 . S
C2394 C148 0.756 . S
C2407 C1474 1.295 . S
C2405 C273 1.101 . S
C2416 C260 1.399 . S
C2418 C1642 1.505 . S
C2429 C627 2.063 . S
C2427 C135 2.090 . S
C2440 C452 0.722 . S
C2438 C109 0.713 . S
C2449 C86 2.070 . S
C2451 C1555 1.922 . S
C2462 C470 2.133 . S
C2460 C70 2.200 . S
C2471 C62 1.780 . S
C2473 C1639 1.721 . S
C2482 C91 1.371 . S
C2484 C622 1.268 . S
C2493 C36 1.517 . S
C2495 C1042 1.552 . S
C2506 C802 1.003 . S
C2504 C18 1.022 . S
C2515 C8 1.005 . S
C2517 C1226 1.230 . S
C2526 C39 1.776 . S
C2528 C967 1.465 . S
C2539 C1562 2.047 . S
C2537 C307 2.118 . S
C2548 C153 0.790 . S
C2550 C454 0.791 . S
C2561 C1646 1.141 . S
C2559 C281 1.185 . S
C2570 C127 1.700 . S
C2572 C631 1.629 . S
C2581 C309 2.129 . S
C2583 C1051 1.964 . S
C2594 C795 1.169 . S
C2592 C151 1.288 . S
C2603 C283 0.803 . S
C2605 C1210 0.786 1_655 S
C2616 C974 1.625 . S
C2614 C125 1.822 . S
C2627 C1546 1.383 . S
C2625 C221 1.424 . S
C2638 C722 1.808 1_665 S
C2636 C200 1.866 . S
C2647 C208 2.385 . S
C2649 C1124 2.184 . S
C2660 C883 0.647 . S
C2658 C174 0.665 . S
C2669 C182 1.428 . S
C2671 C958 1.467 . S
C2680 C156 1.545 . S
C2682 C1630 1.535 . S
C2693 C1310 2.008 . S
C2691 C213 2.032 1_565 S
C2704 C1387 0.704 . S
C2702 C252 0.674 . S
