# Generated by pormake.
# Topology gar, (4,6)-cn, num edge types: 1
# Building blocks:
#     Node 0, Type 0, BuildingBlock: KUFVIS_clean_sbu_0, # of connection points: 4
#     Node 1, Type 0, BuildingBlock: KUFVIS_clean_sbu_0, # of connection points: 4
#     Node 2, Type 0, BuildingBlock: KUFVIS_clean_sbu_0, # of connection points: 4
#     Node 3, Type 0, BuildingBlock: KUFVIS_clean_sbu_0, # of connection points: 4
#     Node 4, Type 0, BuildingBlock: KUFVIS_clean_sbu_0, # of connection points: 4
#     Node 5, Type 0, BuildingBlock: KUFVIS_clean_sbu_0, # of connection points: 4
#     Node 6, Type 0, BuildingBlock: KUFVIS_clean_sbu_0, # of connection points: 4
#     Node 7, Type 0, BuildingBlock: KUFVIS_clean_sbu_0, # of connection points: 4
#     Node 8, Type 0, BuildingBlock: KUFVIS_clean_sbu_0, # of connection points: 4
#     Node 9, Type 0, BuildingBlock: KUFVIS_clean_sbu_0, # of connection points: 4
#     Node 10, Type 0, BuildingBlock: KUFVIS_clean_sbu_0, # of connection points: 4
#     Node 11, Type 0, BuildingBlock: KUFVIS_clean_sbu_0, # of connection points: 4
#     Node 12, Type 0, BuildingBlock: KUFVIS_clean_sbu_0, # of connection points: 4
#     Node 13, Type 0, BuildingBlock: KUFVIS_clean_sbu_0, # of connection points: 4
#     Node 14, Type 0, BuildingBlock: KUFVIS_clean_sbu_0, # of connection points: 4
#     Node 15, Type 0, BuildingBlock: KUFVIS_clean_sbu_0, # of connection points: 4
#     Node 16, Type 0, BuildingBlock: KUFVIS_clean_sbu_0, # of connection points: 4
#     Node 17, Type 0, BuildingBlock: KUFVIS_clean_sbu_0, # of connection points: 4
#     Node 18, Type 0, BuildingBlock: KUFVIS_clean_sbu_0, # of connection points: 4
#     Node 19, Type 0, BuildingBlock: KUFVIS_clean_sbu_0, # of connection points: 4
#     Node 20, Type 0, BuildingBlock: KUFVIS_clean_sbu_0, # of connection points: 4
#     Node 21, Type 0, BuildingBlock: KUFVIS_clean_sbu_0, # of connection points: 4
#     Node 22, Type 0, BuildingBlock: KUFVIS_clean_sbu_0, # of connection points: 4
#     Node 23, Type 0, BuildingBlock: KUFVIS_clean_sbu_0, # of connection points: 4
#     Node 24, Type 1, BuildingBlock: KUMBUR_clean_sbu_1, # of connection points: 6
#     Node 25, Type 1, BuildingBlock: KUMBUR_clean_sbu_1, # of connection points: 6
#     Node 26, Type 1, BuildingBlock: KUMBUR_clean_sbu_1, # of connection points: 6
#     Node 27, Type 1, BuildingBlock: KUMBUR_clean_sbu_1, # of connection points: 6
#     Node 28, Type 1, BuildingBlock: KUMBUR_clean_sbu_1, # of connection points: 6
#     Node 29, Type 1, BuildingBlock: KUMBUR_clean_sbu_1, # of connection points: 6
#     Node 30, Type 1, BuildingBlock: KUMBUR_clean_sbu_1, # of connection points: 6
#     Node 31, Type 1, BuildingBlock: KUMBUR_clean_sbu_1, # of connection points: 6
#     Node 32, Type 1, BuildingBlock: KUMBUR_clean_sbu_1, # of connection points: 6
#     Node 33, Type 1, BuildingBlock: KUMBUR_clean_sbu_1, # of connection points: 6
#     Node 34, Type 1, BuildingBlock: KUMBUR_clean_sbu_1, # of connection points: 6
#     Node 35, Type 1, BuildingBlock: KUMBUR_clean_sbu_1, # of connection points: 6
#     Node 36, Type 1, BuildingBlock: KUMBUR_clean_sbu_1, # of connection points: 6
#     Node 37, Type 1, BuildingBlock: KUMBUR_clean_sbu_1, # of connection points: 6
#     Node 38, Type 1, BuildingBlock: KUMBUR_clean_sbu_1, # of connection points: 6
#     Node 39, Type 1, BuildingBlock: KUMBUR_clean_sbu_1, # of connection points: 6
#     Edge 40, Type (0, 1), BuildingBlock: KIFKEQ_clean_linker_1, # of connection points: 2
#     Edge 41, Type (0, 1), BuildingBlock: KIFKEQ_clean_linker_1, # of connection points: 2
#     Edge 42, Type (0, 1), BuildingBlock: KIFKEQ_clean_linker_1, # of connection points: 2
#     Edge 43, Type (0, 1), BuildingBlock: KIFKEQ_clean_linker_1, # of connection points: 2
#     Edge 44, Type (0, 1), BuildingBlock: KIFKEQ_clean_linker_1, # of connection points: 2
#     Edge 45, Type (0, 1), BuildingBlock: KIFKEQ_clean_linker_1, # of connection points: 2
#     Edge 46, Type (0, 1), BuildingBlock: KIFKEQ_clean_linker_1, # of connection points: 2
#     Edge 47, Type (0, 1), BuildingBlock: KIFKEQ_clean_linker_1, # of connection points: 2
#     Edge 48, Type (0, 1), BuildingBlock: KIFKEQ_clean_linker_1, # of connection points: 2
#     Edge 49, Type (0, 1), BuildingBlock: KIFKEQ_clean_linker_1, # of connection points: 2
#     Edge 50, Type (0, 1), BuildingBlock: KIFKEQ_clean_linker_1, # of connection points: 2
#     Edge 51, Type (0, 1), BuildingBlock: KIFKEQ_clean_linker_1, # of connection points: 2
#     Edge 52, Type (0, 1), BuildingBlock: KIFKEQ_clean_linker_1, # of connection points: 2
#     Edge 53, Type (0, 1), BuildingBlock: KIFKEQ_clean_linker_1, # of connection points: 2
#     Edge 54, Type (0, 1), BuildingBlock: KIFKEQ_clean_linker_1, # of connection points: 2
#     Edge 55, Type (0, 1), BuildingBlock: KIFKEQ_clean_linker_1, # of connection points: 2
#     Edge 56, Type (0, 1), BuildingBlock: KIFKEQ_clean_linker_1, # of connection points: 2
#     Edge 57, Type (0, 1), BuildingBlock: KIFKEQ_clean_linker_1, # of connection points: 2
#     Edge 58, Type (0, 1), BuildingBlock: KIFKEQ_clean_linker_1, # of connection points: 2
#     Edge 59, Type (0, 1), BuildingBlock: KIFKEQ_clean_linker_1, # of connection points: 2
#     Edge 60, Type (0, 1), BuildingBlock: KIFKEQ_clean_linker_1, # of connection points: 2
#     Edge 61, Type (0, 1), BuildingBlock: KIFKEQ_clean_linker_1, # of connection points: 2
#     Edge 62, Type (0, 1), BuildingBlock: KIFKEQ_clean_linker_1, # of connection points: 2
#     Edge 63, Type (0, 1), BuildingBlock: KIFKEQ_clean_linker_1, # of connection points: 2
#     Edge 64, Type (0, 1), BuildingBlock: KIFKEQ_clean_linker_1, # of connection points: 2
#     Edge 65, Type (0, 1), BuildingBlock: KIFKEQ_clean_linker_1, # of connection points: 2
#     Edge 66, Type (0, 1), BuildingBlock: KIFKEQ_clean_linker_1, # of connection points: 2
#     Edge 67, Type (0, 1), BuildingBlock: KIFKEQ_clean_linker_1, # of connection points: 2
#     Edge 68, Type (0, 1), BuildingBlock: KIFKEQ_clean_linker_1, # of connection points: 2
#     Edge 69, Type (0, 1), BuildingBlock: KIFKEQ_clean_linker_1, # of connection points: 2
#     Edge 70, Type (0, 1), BuildingBlock: KIFKEQ_clean_linker_1, # of connection points: 2
#     Edge 71, Type (0, 1), BuildingBlock: KIFKEQ_clean_linker_1, # of connection points: 2
#     Edge 72, Type (0, 1), BuildingBlock: KIFKEQ_clean_linker_1, # of connection points: 2
#     Edge 73, Type (0, 1), BuildingBlock: KIFKEQ_clean_linker_1, # of connection points: 2
#     Edge 74, Type (0, 1), BuildingBlock: KIFKEQ_clean_linker_1, # of connection points: 2
#     Edge 75, Type (0, 1), BuildingBlock: KIFKEQ_clean_linker_1, # of connection points: 2
#     Edge 76, Type (0, 1), BuildingBlock: KIFKEQ_clean_linker_1, # of connection points: 2
#     Edge 77, Type (0, 1), BuildingBlock: KIFKEQ_clean_linker_1, # of connection points: 2
#     Edge 78, Type (0, 1), BuildingBlock: KIFKEQ_clean_linker_1, # of connection points: 2
#     Edge 79, Type (0, 1), BuildingBlock: KIFKEQ_clean_linker_1, # of connection points: 2
#     Edge 80, Type (0, 1), BuildingBlock: KIFKEQ_clean_linker_1, # of connection points: 2
#     Edge 81, Type (0, 1), BuildingBlock: KIFKEQ_clean_linker_1, # of connection points: 2
#     Edge 82, Type (0, 1), BuildingBlock: KIFKEQ_clean_linker_1, # of connection points: 2
#     Edge 83, Type (0, 1), BuildingBlock: KIFKEQ_clean_linker_1, # of connection points: 2
#     Edge 84, Type (0, 1), BuildingBlock: KIFKEQ_clean_linker_1, # of connection points: 2
#     Edge 85, Type (0, 1), BuildingBlock: KIFKEQ_clean_linker_1, # of connection points: 2
#     Edge 86, Type (0, 1), BuildingBlock: KIFKEQ_clean_linker_1, # of connection points: 2
#     Edge 87, Type (0, 1), BuildingBlock: KIFKEQ_clean_linker_1, # of connection points: 2
#     Edge 88, Type (0, 1), BuildingBlock: KIFKEQ_clean_linker_1, # of connection points: 2
#     Edge 89, Type (0, 1), BuildingBlock: KIFKEQ_clean_linker_1, # of connection points: 2
#     Edge 90, Type (0, 1), BuildingBlock: KIFKEQ_clean_linker_1, # of connection points: 2
#     Edge 91, Type (0, 1), BuildingBlock: KIFKEQ_clean_linker_1, # of connection points: 2
#     Edge 92, Type (0, 1), BuildingBlock: KIFKEQ_clean_linker_1, # of connection points: 2
#     Edge 93, Type (0, 1), BuildingBlock: KIFKEQ_clean_linker_1, # of connection points: 2
#     Edge 94, Type (0, 1), BuildingBlock: KIFKEQ_clean_linker_1, # of connection points: 2
#     Edge 95, Type (0, 1), BuildingBlock: KIFKEQ_clean_linker_1, # of connection points: 2
#     Edge 96, Type (0, 1), BuildingBlock: KIFKEQ_clean_linker_1, # of connection points: 2
#     Edge 97, Type (0, 1), BuildingBlock: KIFKEQ_clean_linker_1, # of connection points: 2
#     Edge 98, Type (0, 1), BuildingBlock: KIFKEQ_clean_linker_1, # of connection points: 2
#     Edge 99, Type (0, 1), BuildingBlock: KIFKEQ_clean_linker_1, # of connection points: 2
#     Edge 100, Type (0, 1), BuildingBlock: KIFKEQ_clean_linker_1, # of connection points: 2
#     Edge 101, Type (0, 1), BuildingBlock: KIFKEQ_clean_linker_1, # of connection points: 2
#     Edge 102, Type (0, 1), BuildingBlock: KIFKEQ_clean_linker_1, # of connection points: 2
#     Edge 103, Type (0, 1), BuildingBlock: KIFKEQ_clean_linker_1, # of connection points: 2
#     Edge 104, Type (0, 1), BuildingBlock: KIFKEQ_clean_linker_1, # of connection points: 2
#     Edge 105, Type (0, 1), BuildingBlock: KIFKEQ_clean_linker_1, # of connection points: 2
#     Edge 106, Type (0, 1), BuildingBlock: KIFKEQ_clean_linker_1, # of connection points: 2
#     Edge 107, Type (0, 1), BuildingBlock: KIFKEQ_clean_linker_1, # of connection points: 2
#     Edge 108, Type (0, 1), BuildingBlock: KIFKEQ_clean_linker_1, # of connection points: 2
#     Edge 109, Type (0, 1), BuildingBlock: KIFKEQ_clean_linker_1, # of connection points: 2
#     Edge 110, Type (0, 1), BuildingBlock: KIFKEQ_clean_linker_1, # of connection points: 2
#     Edge 111, Type (0, 1), BuildingBlock: KIFKEQ_clean_linker_1, # of connection points: 2
#     Edge 112, Type (0, 1), BuildingBlock: KIFKEQ_clean_linker_1, # of connection points: 2
#     Edge 113, Type (0, 1), BuildingBlock: KIFKEQ_clean_linker_1, # of connection points: 2
#     Edge 114, Type (0, 1), BuildingBlock: KIFKEQ_clean_linker_1, # of connection points: 2
#     Edge 115, Type (0, 1), BuildingBlock: KIFKEQ_clean_linker_1, # of connection points: 2
#     Edge 116, Type (0, 1), BuildingBlock: KIFKEQ_clean_linker_1, # of connection points: 2
#     Edge 117, Type (0, 1), BuildingBlock: KIFKEQ_clean_linker_1, # of connection points: 2
#     Edge 118, Type (0, 1), BuildingBlock: KIFKEQ_clean_linker_1, # of connection points: 2
#     Edge 119, Type (0, 1), BuildingBlock: KIFKEQ_clean_linker_1, # of connection points: 2
#     Edge 120, Type (0, 1), BuildingBlock: KIFKEQ_clean_linker_1, # of connection points: 2
#     Edge 121, Type (0, 1), BuildingBlock: KIFKEQ_clean_linker_1, # of connection points: 2
#     Edge 122, Type (0, 1), BuildingBlock: KIFKEQ_clean_linker_1, # of connection points: 2
#     Edge 123, Type (0, 1), BuildingBlock: KIFKEQ_clean_linker_1, # of connection points: 2
#     Edge 124, Type (0, 1), BuildingBlock: KIFKEQ_clean_linker_1, # of connection points: 2
#     Edge 125, Type (0, 1), BuildingBlock: KIFKEQ_clean_linker_1, # of connection points: 2
#     Edge 126, Type (0, 1), BuildingBlock: KIFKEQ_clean_linker_1, # of connection points: 2
#     Edge 127, Type (0, 1), BuildingBlock: KIFKEQ_clean_linker_1, # of connection points: 2
#     Edge 128, Type (0, 1), BuildingBlock: KIFKEQ_clean_linker_1, # of connection points: 2
#     Edge 129, Type (0, 1), BuildingBlock: KIFKEQ_clean_linker_1, # of connection points: 2
#     Edge 130, Type (0, 1), BuildingBlock: KIFKEQ_clean_linker_1, # of connection points: 2
#     Edge 131, Type (0, 1), BuildingBlock: KIFKEQ_clean_linker_1, # of connection points: 2
#     Edge 132, Type (0, 1), BuildingBlock: KIFKEQ_clean_linker_1, # of connection points: 2
#     Edge 133, Type (0, 1), BuildingBlock: KIFKEQ_clean_linker_1, # of connection points: 2
#     Edge 134, Type (0, 1), BuildingBlock: KIFKEQ_clean_linker_1, # of connection points: 2
#     Edge 135, Type (0, 1), BuildingBlock: KIFKEQ_clean_linker_1, # of connection points: 2
# Relax obj value: 0.065
# Max RMSD: 0.180
# Mean RMSD: 0.107
data_MOF--net-gar--node1-KUFVIS_clean_sbu_0--node2-KUMBUR_clean_sbu_1--edge1-KIFKEQ_clean_linker_1
_symmetry_space_group_name_H-M    P1
_symmetry_Int_Tables_number       1
_symmetry_cell_setting            triclinic
loop_
_symmetry_equiv_pos_as_xyz
'x, y, z'
_cell_length_a     60.190129
_cell_length_b     60.518287
_cell_length_c     57.836523
_cell_angle_alpha  95.931979
_cell_angle_beta   96.146919
_cell_angle_gamma 101.32566
loop_
_atom_site_label
_atom_site_type_symbol
_atom_site_fract_x
_atom_site_fract_y
_atom_site_fract_z
_atom_type_partial_charge
Mn0 Mn 0.05185 0.31636 0.37746 0.0
Mn1 Mn 0.05167 0.3504 0.33527 0.0
C2 C 0.0154 0.32107 0.35895 0.0
C3 C 0.05255 0.28184 0.39317 0.0
C4 C 0.06126 0.36894 0.38765 0.0
O5 O 0.08512 0.31863 0.36743 0.0
O6 O 0.0822 0.33967 0.33802 0.0
C7 C 0.0527 0.31763 0.29378 0.0
N8 N 0.04244 0.33301 0.30502 0.0
C9 C 1.01311 0.32848 0.27211 0.0
C10 C 0.02351 0.31278 0.26012 0.0
C11 C 0.04336 0.30731 0.27103 0.0
C12 C 0.02332 0.3384 0.29467 0.0
H13 H 0.06788 0.31324 0.30207 0.0
C14 C 0.09352 0.32773 0.35017 0.0
O15 O 0.05989 0.30148 0.40548 0.0
O16 O 0.04562 0.28195 0.37108 0.0
N17 N 0.02402 0.36134 0.32972 0.0
C18 C 0.01499 0.37538 0.34431 0.0
C19 C 0.99451 0.38164 0.33644 0.0
C20 C 0.98354 0.37352 0.31363 0.0
C21 C 0.99311 0.3591 0.29893 0.0
C22 C 0.0136 0.35344 0.30772 0.0
H23 H 0.02316 0.38159 0.36194 0.0
O24 O 0.01815 0.3148 0.37964 0.0
O25 O 0.0345 0.32438 0.34925 0.0
O26 O 0.05891 0.34933 0.39443 0.0
O27 O 0.06052 0.3713 0.36583 0.0
C28 C 0.98276 0.3496 0.27613 0.0
C29 C 0.99277 0.33433 0.26272 0.0
H30 H 0.01628 0.30467 0.24263 0.0
H31 H 0.05141 0.29511 0.26194 0.0
H32 H 0.98714 0.39263 0.34797 0.0
H33 H 0.96763 0.37823 0.30769 0.0
H34 H 0.96691 0.35364 0.26889 0.0
H35 H 0.9845 0.32692 0.24532 0.0
Mn36 Mn 0.03323 0.75325 0.69596 0.0
Mn37 Mn 0.04675 0.79519 0.74168 0.0
C38 C 0.0726 0.76486 0.7145 0.0
C39 C 0.02384 0.7151 0.67527 0.0
C40 C 0.0379 0.80413 0.69114 0.0
O41 O 1.00036 0.75528 0.70709 0.0
O42 O 1.01265 0.78199 0.7384 0.0
C43 C 0.03759 0.76919 0.78144 0.0
N44 N 0.05238 0.78335 0.77057 0.0
C45 C 0.08226 0.78768 0.80289 0.0
C46 C 0.06734 0.77318 0.81448 0.0
C47 C 0.04493 0.76386 0.80368 0.0
C48 C 0.07398 0.79241 0.7808 0.0
H49 H 0.02031 0.76215 0.77326 0.0
C50 C 0.99616 0.7682 0.72491 0.0
O51 O 0.01999 0.73265 0.66587 0.0
O52 O 0.03059 0.71905 0.69775 0.0
N53 N 0.0784 0.80972 0.74704 0.0
C54 C 0.0908 0.82291 0.73322 0.0
C55 C 0.11378 0.83302 0.74115 0.0
C56 C 0.12368 0.82968 0.76329 0.0
C57 C 0.11052 0.81616 0.77725 0.0
C58 C 0.08774 0.80641 0.76836 0.0
H59 H 0.08328 0.8256 0.71622 0.0
O60 O 0.06695 0.75511 0.69309 0.0
O61 O 0.05471 0.7678 0.72487 0.0
O62 O 0.03478 0.78349 0.68223 0.0
O63 O 0.04181 0.81028 0.71319 0.0
C64 C 0.11918 0.81176 0.79952 0.0
C65 C 0.10505 0.79757 0.81236 0.0
H66 H 0.07291 0.76906 0.83164 0.0
H67 H 0.03331 0.75269 0.81253 0.0
H68 H 0.12381 0.84339 0.73025 0.0
H69 H 0.14142 0.8375 0.76934 0.0
H70 H 0.13671 0.81911 0.8069 0.0
H71 H 0.11191 0.79428 0.82945 0.0
Mn72 Mn 0.5514 0.81811 0.87776 0.0
Mn73 Mn 0.55137 0.8516 0.83523 0.0
C74 C 0.51493 0.82265 0.85875 0.0
C75 C 0.55182 0.78356 0.89371 0.0
C76 C 0.56096 0.87075 0.88758 0.0
O77 O 0.5851 0.82068 0.868 0.0
O78 O 0.58174 0.84033 0.83747 0.0
C79 C 0.55071 0.81776 0.79411 0.0
N80 N 0.54108 0.83365 0.80537 0.0
C81 C 0.51003 0.82763 0.77394 0.0
C82 C 0.51989 0.81155 0.76183 0.0
C83 C 0.54027 0.80654 0.772 0.0
C84 C 0.52132 0.83843 0.79583 0.0
H85 H 0.56613 0.81353 0.80198 0.0
C86 C 0.59334 0.82902 0.85021 0.0
O87 O 0.55911 0.80327 0.90592 0.0
O88 O 0.54528 0.7836 0.87152 0.0
N89 N 0.52383 0.86289 0.83024 0.0
C90 C 0.51585 0.87805 0.8446 0.0
C91 C 0.49517 0.88422 0.83733 0.0
C92 C 0.48288 0.87484 0.81536 0.0
C93 C 0.49144 0.8594 0.80082 0.0
C94 C 0.51223 0.85395 0.80895 0.0
H95 H 0.52502 0.88529 0.86159 0.0
O96 O 0.51736 0.81635 0.87944 0.0
O97 O 0.53425 0.82596 0.8495 0.0
O98 O 0.55796 0.85118 0.89451 0.0
O99 O 0.56107 0.87288 0.86572 0.0
C100 C 0.47995 0.84894 0.77873 0.0
C101 C 0.48925 0.83308 0.76529 0.0
H102 H 0.51182 0.80276 0.74483 0.0
H103 H 0.54786 0.79397 0.76288 0.0
H104 H 0.48864 0.89609 0.8487 0.0
H105 H 0.46682 0.87949 0.8099 0.0
H106 H 0.46384 0.8528 0.77201 0.0
H107 H 0.48015 0.825 0.74842 0.0
Mn108 Mn 0.53282 0.25191 0.20091 0.0
Mn109 Mn 0.4898 0.24149 0.15545 0.0
C110 C 0.51946 0.2145 0.1796 0.0
C111 C 0.57447 0.25987 0.21506 0.0
C112 C 0.48108 0.25429 0.2061 0.0
O113 O 0.53353 0.28368 0.18938 0.0
O114 O 0.50724 0.2732 0.15689 0.0
C115 C 0.51567 0.2442 0.11469 0.0
N116 N 0.50025 0.2321 0.12667 0.0
C117 C 0.49334 0.19967 0.09702 0.0
C118 C 0.50895 0.2119 0.08424 0.0
C119 C 0.52019 0.23424 0.09314 0.0
C120 C 0.48931 0.21059 0.11825 0.0
H121 H 0.52454 0.26127 0.12158 0.0
C122 C 0.52277 0.28802 0.17034 0.0
O123 O 0.55924 0.26393 0.22833 0.0
O124 O 0.56575 0.2522 0.19364 0.0
N125 N 0.47258 0.21096 0.15268 0.0
C126 C 0.45946 0.20091 0.16805 0.0
C127 C 0.44793 0.17814 0.16238 0.0
C128 C 0.45002 0.16593 0.14098 0.0
C129 C 0.46373 0.17659 0.12551 0.0
C130 C 0.47475 0.19935 0.13208 0.0
H131 H 0.45788 0.21016 0.18457 0.0
O132 O 0.52913 0.21735 0.20118 0.0
O133 O 0.51638 0.2333 0.17231 0.0
O134 O 0.50147 0.25376 0.21582 0.0
O135 O 0.47594 0.25081 0.18383 0.0
C136 C 0.46729 0.16537 0.10407 0.0
C137 C 0.48205 0.17692 0.08981 0.0
H138 H 0.51263 0.20421 0.06771 0.0
H139 H 0.53238 0.24373 0.08346 0.0
H140 H 0.43752 0.16999 0.17449 0.0
H141 H 0.44121 0.14832 0.13674 0.0
H142 H 0.459 0.14776 0.09853 0.0
H143 H 0.48488 0.16802 0.07351 0.0
Mn144 Mn 0.08064 0.80082 0.12657 0.0
Mn145 Mn 0.03805 0.78806 0.08092 0.0
C146 C 0.06744 0.76201 0.10844 0.0
C147 C 0.11959 0.80917 0.14588 0.0
C148 C 0.02969 0.79837 0.13132 0.0
O149 O 0.07959 0.83333 0.11488 0.0
O150 O 0.05257 0.82137 0.08354 0.0
C151 C 0.06452 0.79502 0.04109 0.0
N152 N 0.04984 0.78112 0.05231 0.0
C153 C 0.04461 0.75053 0.02083 0.0
C154 C 0.05963 0.76454 0.00889 0.0
C155 C 0.0697 0.78684 0.01911 0.0
C156 C 0.04023 0.75956 0.04274 0.0
H157 H 0.07207 0.81225 0.04879 0.0
C158 C 0.06682 0.83752 0.09686 0.0
O159 O 0.10273 0.814 0.15608 0.0
O160 O 0.11444 0.8018 0.12363 0.0
N161 N 0.02224 0.75695 0.07627 0.0
C162 C 1.00749 0.74591 0.0897 0.0
C163 C 0.99594 0.72343 0.08197 0.0
C164 C 0.99943 0.71263 0.06038 0.0
C165 C 0.01442 0.72444 0.04671 0.0
C166 C 0.02554 0.74679 0.05538 0.0
H167 H 1.00452 0.75417 0.1062 0.0
O168 O 0.07761 0.76715 0.12977 0.0
O169 O 0.06507 0.77988 0.09812 0.0
O170 O 0.05039 0.80064 0.14036 0.0
O171 O 0.02334 0.79436 0.10929 0.0
C172 C 0.01854 0.71503 0.02467 0.0
C173 C 0.03362 0.72806 0.01174 0.0
H174 H 0.06351 0.75837 0.99185 0.0
H175 H 0.08127 0.79777 0.00998 0.0
H176 H 0.98428 0.7145 0.09255 0.0
H177 H 0.9904 0.69532 0.05441 0.0
H178 H 1.0101 0.69783 0.01745 0.0
H179 H 0.03656 0.72067 0.99476 0.0
Mn180 Mn 0.50673 0.77232 0.45137 0.0
Mn181 Mn 0.50293 0.80483 0.40624 0.0
C182 C 0.47027 0.773 0.42905 0.0
C183 C 0.51182 0.7351 0.46527 0.0
C184 C 0.51318 0.82635 0.45757 0.0
O185 O 0.53983 0.77891 0.44203 0.0
O186 O 0.53303 0.79656 0.41015 0.0
C187 C 0.50553 0.77262 0.36501 0.0
N188 N 0.49438 0.78717 0.37619 0.0
C189 C 0.46831 0.786 0.34127 0.0
C190 C 0.47943 0.77089 0.32939 0.0
C191 C 0.49803 0.76406 0.34135 0.0
C192 C 0.47633 0.79368 0.36491 0.0
H193 H 0.52023 0.76788 0.37402 0.0
C194 C 0.54616 0.78804 0.42395 0.0
O195 O 0.51599 0.75436 0.4788 0.0
O196 O 0.50467 0.73731 0.44383 0.0
N197 N 0.47462 0.8144 0.40058 0.0
C198 C 0.46528 0.82842 0.41485 0.0
C199 C 0.44607 0.83625 0.40583 0.0
C200 C 0.43698 0.83002 0.38213 0.0
C201 C 0.44704 0.81577 0.36774 0.0
C202 C 0.46591 0.80818 0.37782 0.0
H203 H 0.47239 0.83358 0.43298 0.0
O204 O 0.47149 0.7666 0.44984 0.0
O205 O 0.49002 0.77891 0.42206 0.0
O206 O 0.51105 0.80765 0.46726 0.0
O207 O 0.51152 0.82568 0.43541 0.0
C208 C 0.43909 0.80878 0.3438 0.0
C209 C 0.44968 0.79387 0.33059 0.0
H210 H 0.47387 0.76446 0.31108 0.0
H211 H 0.50677 0.75251 0.33225 0.0
H212 H 0.43841 0.84723 0.41707 0.0
H213 H 0.42224 0.8362 0.37518 0.0
H214 H 0.42466 0.81454 0.33545 0.0
H215 H 0.44323 0.7884 0.31225 0.0
Mn216 Mn 0.58072 0.30122 0.62656 0.0
Mn217 Mn 0.53736 0.28573 0.58181 0.0
C218 C 0.56803 0.26173 0.61003 0.0
C219 C 0.6198 0.30958 0.64578 0.0
C220 C 0.52925 0.29546 0.63215 0.0
O221 O 0.57986 0.33305 0.61355 0.0
O222 O 0.54904 0.31995 0.58652 0.0
C223 C 0.5632 0.29849 0.54272 0.0
N224 N 0.54943 0.28254 0.55269 0.0
C225 C 0.54561 0.25497 0.51859 0.0
C226 C 0.55971 0.27113 0.50794 0.0
C227 C 0.56858 0.29296 0.52009 0.0
C228 C 0.54083 0.26147 0.54115 0.0
H229 H 0.56989 0.31535 0.55189 0.0
C230 C 0.56443 0.33666 0.59766 0.0
O231 O 0.60314 0.3152 0.65578 0.0
O232 O 0.61441 0.30146 0.62375 0.0
N233 N 0.52408 0.25396 0.57465 0.0
C234 C 0.51139 0.24008 0.58765 0.0
C235 C 0.50176 0.21746 0.57833 0.0
C236 C 0.50502 0.20939 0.55557 0.0
C237 C 0.51801 0.22401 0.54243 0.0
C238 C 0.52728 0.24638 0.55273 0.0
H239 H 0.50893 0.24613 0.60512 0.0
O240 O 0.57762 0.26802 0.63145 0.0
O241 O 0.56539 0.27887 0.59852 0.0
O242 O 0.55032 0.30244 0.64033 0.0
O243 O 0.52255 0.28779 0.61065 0.0
C244 C 0.52242 0.21719 0.51964 0.0
C245 C 0.53618 0.23266 0.50772 0.0
H246 H 0.56385 0.26696 0.49047 0.0
H247 H 0.57945 0.30553 0.51197 0.0
H248 H 0.49186 0.20628 0.58866 0.0
H249 H 0.4976 0.19191 0.54842 0.0
H250 H 0.51543 0.20003 0.5112 0.0
H251 H 0.53951 0.22719 0.49023 0.0
Mn252 Mn 1.00782 0.27281 0.9511 0.0
Mn253 Mn 1.00403 0.30877 0.9089 0.0
C254 C 0.97129 0.27506 0.92959 0.0
C255 C 1.01255 0.23509 0.96413 0.0
C256 C 0.0153 0.32703 0.96085 0.0
O257 O 0.04069 0.27901 0.94053 0.0
O258 O 0.03366 0.29967 0.91127 0.0
C259 C 1.00604 0.27904 0.86553 0.0
N260 N 0.99516 0.29301 0.87798 0.0
C261 C 0.96969 0.29515 0.84364 0.0
C262 C 0.98052 0.28068 0.83045 0.0
C263 C 0.99865 0.27244 0.84149 0.0
C264 C 0.97748 0.30075 0.8676 0.0
H265 H 0.02043 0.27329 0.87383 0.0
C266 C 0.04666 0.28919 0.92287 0.0
O267 O 0.01743 0.25427 0.97777 0.0
O268 O 1.0049 0.2376 0.94288 0.0
N269 N 0.97583 0.31872 0.90469 0.0
C270 C 0.96639 0.33136 0.92026 0.0
C271 C 0.94722 0.33985 0.91236 0.0
C272 C 0.93838 0.33577 0.88846 0.0
C273 C 0.94854 0.32287 0.87277 0.0
C274 C 0.96719 0.31433 0.88178 0.0
H275 H 0.97347 0.33501 0.93853 0.0
O276 O 0.97254 0.26765 0.94993 0.0
O277 O 0.99104 0.28135 0.92278 0.0
O278 O 1.01295 0.30741 0.96869 0.0
O279 O 1.01336 0.32849 0.93902 0.0
C280 C 0.94098 0.3182 0.84854 0.0
C281 C 0.95155 0.30435 0.83397 0.0
H282 H 0.97508 0.27581 0.81185 0.0
H283 H 1.00716 0.26137 0.8314 0.0
H284 H 0.9395 0.3498 0.92459 0.0
H285 H 0.92378 0.34259 0.88237 0.0
H286 H 0.92681 0.32486 0.84096 0.0
H287 H 0.94535 0.30059 0.81542 0.0
Mn288 Mn 0.39761 0.02609 0.30861 0.0
Mn289 Mn 0.35855 0.0117 0.3451 0.0
C290 C 0.3841 0.98885 0.31196 0.0
C291 C 0.40744 0.03421 0.27261 0.0
C292 C 0.40872 0.03073 0.36125 0.0
O293 O 0.38578 0.05462 0.31542 0.0
O294 O 0.35709 0.04239 0.33635 0.0
C295 C 0.31584 1.00761 0.3129 0.0
N296 N 0.32931 0.99825 0.3278 0.0
C297 C 0.3011 0.96333 0.32321 0.0
C298 C 0.28679 0.97273 0.30807 0.0
C299 C 0.29425 0.99492 0.3028 0.0
C300 C 0.32241 0.9768 0.33277 0.0
H301 H 0.32157 0.02459 0.30873 0.0
C302 C 0.369 0.05759 0.32621 0.0
O303 O 0.42155 0.0417 0.29163 0.0
O304 O 0.38706 0.02324 0.27462 0.0
N305 N 0.35826 0.98223 0.35459 0.0
C306 C 0.3747 0.97515 0.36828 0.0
C307 C 0.3704 0.95293 0.37425 0.0
C308 C 0.34917 0.9383 0.36631 0.0
C309 C 0.33246 0.94602 0.3524 0.0
C310 C 0.33774 0.96832 0.34697 0.0
H311 H 0.39102 0.98631 0.37452 0.0
O312 O 0.4035 0.99491 0.30411 0.0
O313 O 0.37316 1.0047 0.31737 0.0
O314 O 0.41494 0.03143 0.34105 0.0
O315 O 0.38797 0.02462 0.3648 0.0
C316 C 0.31087 0.93237 0.34349 0.0
C317 C 0.29521 0.94101 0.32889 0.0
H318 H 0.27014 0.96298 0.30021 0.0
H319 H 0.28337 1.00221 0.29098 0.0
H320 H 0.38341 0.9471 0.38495 0.0
H321 H 0.34594 0.92115 0.37089 0.0
H322 H 0.30627 0.91508 0.34747 0.0
H323 H 0.2788 0.93023 0.32185 0.0
Mn324 Mn 0.26626 0.19195 0.52562 0.0
Mn325 Mn 0.25699 0.14693 0.48295 0.0
C326 C 0.2292 0.16952 0.51366 0.0
C327 C 0.27292 0.20757 0.56657 0.0
C328 C 0.2691 0.1961 0.47245 0.0
O329 O 0.29802 0.18351 0.52595 0.0
O330 O 0.28888 0.15232 0.49864 0.0
C331 C 0.26155 0.1088 0.51009 0.0
N332 N 0.24874 0.11862 0.49497 0.0
C333 C 0.21766 0.08598 0.48977 0.0
C334 C 0.23051 0.07554 0.5053 0.0
C335 C 0.25254 0.087 0.5155 0.0
C336 C 0.22762 0.10762 0.48484 0.0
H337 H 0.27853 0.1175 0.51789 0.0
C338 C 0.30304 0.16625 0.51426 0.0
O339 O 0.27761 0.21996 0.54997 0.0
O340 O 0.26529 0.18613 0.55952 0.0
N341 N 0.22641 0.14024 0.46714 0.0
C342 C 0.2157 0.15334 0.45383 0.0
C343 C 0.19311 0.14482 0.44323 0.0
C344 C 0.18181 0.12293 0.44638 0.0
C345 C 0.19318 0.10979 0.46018 0.0
C346 C 0.21571 0.11916 0.47026 0.0
H347 H 0.22428 0.1702 0.4514 0.0
O348 O 0.23204 0.19058 0.52278 0.0
O349 O 0.24796 0.16286 0.51054 0.0
O350 O 0.26945 0.20574 0.49347 0.0
O351 O 0.26503 0.17454 0.46765 0.0
C352 C 0.18292 0.08792 0.46467 0.0
C353 C 0.19517 0.07599 0.47938 0.0
H354 H 0.22357 0.05879 0.50965 0.0
H355 H 0.26256 0.07904 0.5275 0.0
H356 H 0.18443 0.15511 0.43269 0.0
H357 H 0.16434 0.11646 0.43828 0.0
H358 H 0.16552 0.08022 0.45711 0.0
H359 H 0.18701 0.05929 0.4829 0.0
Mn360 Mn 0.139 0.06336 0.79453 0.0
Mn361 Mn 0.18343 0.07394 0.8384 0.0
C362 C 0.16072 0.10059 0.80622 0.0
C363 C 0.12421 0.05587 0.75342 0.0
C364 C 0.13356 0.06106 0.84736 0.0
O365 O 0.1479 0.03218 0.79536 0.0
O366 O 0.17924 0.0421 0.82288 0.0
C367 C 0.22339 0.07031 0.81353 0.0
N368 N 0.21241 0.08284 0.82755 0.0
C369 C 0.24468 0.11441 0.83373 0.0
C370 C 0.25622 0.10187 0.8192 0.0
C371 C 0.24553 0.07971 0.80909 0.0
C372 C 0.22274 0.10404 0.83774 0.0
H373 H 0.21539 0.05321 0.80596 0.0
C374 C 0.16541 0.02772 0.80732 0.0
O375 O 0.1114 0.05124 0.76971 0.0
O376 O 0.14563 0.06398 0.7609 0.0
N377 N 0.18893 0.10451 0.85364 0.0
C378 C 0.17459 0.11515 0.86516 0.0
C379 C 0.18224 0.13781 0.87541 0.0
C380 C 0.20447 0.14937 0.87353 0.0
C381 C 0.21876 0.13823 0.86115 0.0
C382 C 0.21022 0.11559 0.85139 0.0
H383 H 0.15732 0.10656 0.86615 0.0
O384 O 0.13964 0.0972 0.79652 0.0
O385 O 0.16782 0.08226 0.81005 0.0
O386 O 0.12439 0.06023 0.82605 0.0
O387 O 0.15517 0.06551 0.85299 0.0
C388 C 0.2409 0.1489 0.85759 0.0
C389 C 0.2539 0.13696 0.84398 0.0
H390 H 0.27325 0.10912 0.81561 0.0
H391 H 0.25437 0.06988 0.79794 0.0
H392 H 0.17096 0.1464 0.88457 0.0
H393 H 0.21025 0.16692 0.88129 0.0
H394 H 0.24798 0.16638 0.86496 0.0
H395 H 0.27081 0.14543 0.84116 0.0
Mn396 Mn 0.30892 0.93189 0.00728 0.0
Mn397 Mn 0.32165 0.97422 0.97373 0.0
C398 C 0.34589 0.94864 1.00609 0.0
C399 C 0.30017 0.91767 0.04141 0.0
C400 C 0.30706 0.92483 0.95466 0.0
O401 O 0.2791 0.9415 1.00063 0.0
O402 O 0.28956 0.97121 0.98061 0.0
C403 C 0.31949 0.01422 0.00686 0.0
N404 N 0.33144 1.00306 0.99264 0.0
C405 C 0.3638 0.03456 0.99979 0.0
C406 C 0.3518 0.04641 0.01447 0.0
C407 C 0.32958 0.03617 0.01807 0.0
C408 C 0.35285 0.01278 0.98906 0.0
H409 H 0.30236 1.00646 0.00952 0.0
C410 C 0.27477 0.95794 0.99007 0.0
O411 O 0.29456 0.9053 0.02117 0.0
O412 O 0.30963 0.93898 0.04176 0.0
N413 N 0.35226 0.97884 0.96595 0.0
C414 C 0.36182 0.96488 0.95188 0.0
C415 C 0.38429 0.97224 0.94714 0.0
C416 C 0.39661 0.99405 0.9566 0.0
C417 C 0.38631 1.00828 0.97072 0.0
C418 C 0.36386 0.99996 0.97488 0.0
H419 H 0.35238 0.94826 0.94432 0.0
O420 O 0.34092 0.92842 0.01227 0.0
O421 O 0.32915 0.9587 1.00096 0.0
O422 O 0.30558 0.91714 0.97406 0.0
O423 O 0.31254 0.94575 0.95225 0.0
C424 C 0.39753 0.03028 0.98107 0.0
C425 C 0.38627 0.04342 0.99558 0.0
H426 H 0.35951 0.06333 0.02315 0.0
H427 H 0.32024 0.04522 0.02939 0.0
H428 H 0.39206 0.96117 0.93614 0.0
H429 H 0.41396 0.99968 0.95295 0.0
H430 H 0.41488 0.03717 0.97816 0.0
H431 H 0.39514 0.06025 1.00359 0.0
Mn432 Mn 0.31715 0.38669 0.05031 0.0
Mn433 Mn 0.32266 0.4288 0.0149 0.0
C434 C 0.3537 0.40826 0.0461 0.0
C435 C 0.31108 0.37257 0.08754 0.0
C436 C 0.31084 0.37861 0.99567 0.0
O437 O 0.28468 0.39404 0.04575 0.0
O438 O 0.29246 0.42425 0.02574 0.0
C439 C 0.32194 0.46824 0.04945 0.0
N440 N 0.33248 0.45802 0.03299 0.0
C441 C 0.36177 0.49176 0.0348 0.0
C442 C 0.35126 0.50266 0.0518 0.0
C443 C 0.33132 0.49081 0.05925 0.0
C444 C 0.35183 0.46916 0.02595 0.0
H445 H 0.30642 0.45926 0.05493 0.0
C446 C 0.279 0.41073 0.03614 0.0
O447 O 0.30647 0.35966 0.06758 0.0
O448 O 0.31905 0.39389 0.08605 0.0
N449 N 0.35122 0.43521 1.00275 0.0
C450 C 0.35918 0.42223 0.98616 0.0
C451 C 0.37871 0.43167 0.97642 0.0
C452 C 0.38961 0.45446 0.98353 0.0
C453 C 0.38114 0.46749 1.00066 0.0
C454 C 0.36157 0.45717 0.00967 0.0
H455 H 0.35056 0.40488 0.98015 0.0
O456 O 0.35157 0.38848 0.05349 0.0
O457 O 0.33467 0.41484 0.04156 0.0
O458 O 0.3131 0.37089 0.01549 0.0
O459 O 0.31278 0.39972 0.99398 0.0
C460 C 0.3912 0.49037 0.00897 0.0
C461 C 0.38166 0.50243 0.0262 0.0
H462 H 0.35832 0.52013 0.05924 0.0
H463 H 0.32308 0.49913 0.07232 0.0
H464 H 0.38514 0.42152 0.96321 0.0
H465 H 0.40438 0.46177 0.97561 0.0
H466 H 0.40635 0.49883 1.00233 0.0
H467 H 0.38968 0.51994 0.03262 0.0
Mn468 Mn 0.77322 0.14749 0.06673 0.0
Mn469 Mn 0.75605 0.10529 0.0216 0.0
C470 C 0.73528 0.13516 0.05283 0.0
C471 C 0.78283 0.16133 0.10566 0.0
C472 C 0.7762 0.15349 0.01544 0.0
O473 O 0.80093 0.13337 0.06624 0.0
O474 O 0.78747 0.10623 0.03561 0.0
C475 C 0.75603 0.06617 0.0484 0.0
N476 N 0.74484 0.07741 0.03331 0.0
C477 C 0.71204 0.0465 0.02588 0.0
C478 C 0.7232 0.03456 0.04132 0.0
C479 C 0.74523 0.04451 0.05275 0.0
C480 C 0.72351 0.06817 0.02254 0.0
H481 H 0.77313 0.07357 0.05687 0.0
C482 C 0.80307 0.11668 0.05199 0.0
O483 O 0.79051 0.1729 0.08949 0.0
O484 O 0.77002 0.14122 0.09933 0.0
N485 N 0.72557 0.10204 1.00633 0.0
C486 C 0.71685 0.11617 0.99269 0.0
C487 C 0.69458 0.10911 0.9807 0.0
C488 C 0.68182 0.08736 0.98229 0.0
C489 C 0.69134 0.07297 0.9961 0.0
C490 C 0.71335 0.08115 0.00812 0.0
H491 H 0.72681 0.13271 0.99104 0.0
O492 O 0.74256 0.15542 0.06415 0.0
O493 O 0.75027 0.12268 0.05007 0.0
O494 O 0.77971 0.16115 0.03706 0.0
O495 O 0.76702 0.13293 0.00744 0.0
C496 C 0.67988 0.05081 0.99839 0.0
C497 C 0.69009 0.03769 0.01349 0.0
H498 H 0.71504 0.01774 0.04451 0.0
H499 H 0.75399 0.03539 0.06466 0.0
H500 H 0.68737 0.12029 0.97005 0.0
H501 H 0.66473 0.08188 0.97285 0.0
H502 H 0.663 0.04384 0.98895 0.0
H503 H 0.6809 0.02085 0.01546 0.0
Mn504 Mn 0.18607 0.56272 0.25538 0.0
Mn505 Mn 0.23279 0.57591 0.29585 0.0
C506 C 0.20121 0.59972 0.27005 0.0
C507 C 0.16936 0.55481 0.21727 0.0
C508 C 0.18532 0.55613 0.30649 0.0
O509 O 0.19858 0.53423 0.25291 0.0
O510 O 0.2313 0.54583 0.27791 0.0
C511 C 0.26926 0.58035 0.26504 0.0
N512 N 0.25917 0.58938 0.28265 0.0
C513 C 0.2892 0.62295 0.29011 0.0
C514 C 0.30001 0.61393 0.27216 0.0
C515 C 0.28991 0.59261 0.25947 0.0
C516 C 0.26856 0.61004 0.29474 0.0
H517 H 0.26163 0.56389 0.25538 0.0
C518 C 0.21764 0.53132 0.26246 0.0
O519 O 0.15858 0.54735 0.23411 0.0
O520 O 0.1901 0.56666 0.22252 0.0
N521 N 0.23637 0.60493 0.31412 0.0
C522 C 0.22272 0.61208 0.32939 0.0
C523 C 0.22965 0.6337 0.3425 0.0
C524 C 0.25069 0.64757 0.34006 0.0
C525 C 0.26445 0.63981 0.32428 0.0
C526 C 0.25648 0.61828 0.31142 0.0
H527 H 0.20657 0.60148 0.33137 0.0
O528 O 0.18004 0.59395 0.26045 0.0
O529 O 0.21277 0.5838 0.2705 0.0
O530 O 0.17502 0.55577 0.2861 0.0
O531 O 0.2069 0.56275 0.31187 0.0
C532 C 0.28565 0.65269 0.32062 0.0
C533 C 0.29798 0.64431 0.30348 0.0
H534 H 0.31599 0.62329 0.26788 0.0
H535 H 0.29811 0.58557 0.24553 0.0
H536 H 0.21884 0.63962 0.35451 0.0
H537 H 0.256 0.66421 0.35024 0.0
H538 H 0.29239 0.6693 0.3305 0.0
H539 H 0.31403 0.6546 0.30046 0.0
Mn540 Mn 0.81595 0.88781 0.54934 0.0
Mn541 Mn 0.82374 0.93087 0.51522 0.0
C542 C 0.85326 0.90849 0.54573 0.0
C543 C 0.80961 0.87413 0.5869 0.0
C544 C 0.8109 0.88091 0.49432 0.0
O545 O 0.78412 0.89653 0.54523 0.0
O546 O 0.79302 0.92628 0.52491 0.0
C547 C 0.82242 0.96951 0.55056 0.0
N548 N 0.8333 0.95967 0.53415 0.0
C549 C 0.86254 0.99359 0.53694 0.0
C550 C 0.8517 1.0041 0.55393 0.0
C551 C 0.83162 0.99195 0.56087 0.0
C552 C 0.85282 0.97106 0.52766 0.0
H553 H 0.80677 0.96033 0.55559 0.0
C554 C 0.77905 0.91325 0.53525 0.0
O555 O 0.80401 0.86111 0.567 0.0
O556 O 0.81866 0.89508 0.58509 0.0
N557 N 0.85275 0.93751 0.50406 0.0
C558 C 0.86112 0.92483 0.48754 0.0
C559 C 0.88054 0.93471 0.47793 0.0
C560 C 0.89102 0.95757 0.4852 0.0
C561 C 0.88242 0.97017 0.50259 0.0
C562 C 0.86288 0.95945 0.51137 0.0
H563 H 0.85292 0.90739 0.48154 0.0
O564 O 0.85026 0.88835 0.55234 0.0
O565 O 0.83465 0.9158 0.54136 0.0
O566 O 0.81104 0.87235 0.51387 0.0
O567 O 0.81451 0.90231 0.4937 0.0
C568 C 0.89224 0.99301 0.51132 0.0
C569 C 0.88248 1.00462 0.5287 0.0
H570 H 0.85859 0.0215 0.56171 0.0
H571 H 0.82312 0.99998 0.57391 0.0
H572 H 0.8872 0.92484 0.46467 0.0
H573 H 0.9056 0.96527 0.47722 0.0
H574 H 0.90737 1.00178 0.50487 0.0
H575 H 0.89033 0.0221 0.53544 0.0
Mn576 Mn 0.94316 0.01074 0.26663 0.0
Mn577 Mn 0.89875 1.00676 0.29894 0.0
C578 C 0.92084 0.97468 0.27092 0.0
C579 C 0.95749 0.01629 0.22951 0.0
C580 C 0.94873 0.01846 0.32111 0.0
O581 O 0.93632 0.043 0.26988 0.0
O582 O 0.9035 0.03622 0.28618 0.0
C583 C 0.85982 1.00578 0.26266 0.0
N584 N 0.86985 0.99603 0.28002 0.0
C585 C 0.83595 0.9669 0.27849 0.0
C586 C 0.82526 0.97661 0.26055 0.0
C587 C 0.83728 0.99607 0.25255 0.0
C588 C 0.85849 0.9772 0.28774 0.0
H589 H 0.8689 0.02094 0.25673 0.0
C590 C 0.91856 0.04901 0.27673 0.0
O591 O 0.97057 0.02138 0.24948 0.0
O592 O 0.93622 1.00785 0.23094 0.0
N593 N 0.89208 0.97904 0.3125 0.0
C594 C 0.90494 0.9716 0.32973 0.0
C595 C 0.8954 0.95238 0.33977 0.0
C596 C 0.87265 0.94118 0.33225 0.0
C597 C 0.85977 0.94907 0.31444 0.0
C598 C 0.8702 0.96833 0.30509 0.0
H599 H 0.92231 0.98027 0.33589 0.0
O600 O 0.94112 0.97649 0.26451 0.0
O601 O 0.91425 0.99373 0.27432 0.0
O602 O 0.95788 0.01546 0.30219 0.0
O603 O 0.9273 0.01736 0.32071 0.0
C604 C 0.83697 0.93863 0.30565 0.0
C605 C 0.82511 0.94746 0.28759 0.0
H606 H 0.80783 0.96928 0.25283 0.0
H607 H 0.82911 1.0037 0.23877 0.0
H608 H 0.90548 0.94635 0.35345 0.0
H609 H 0.86528 0.92656 0.34031 0.0
H610 H 0.82843 0.92373 0.31255 0.0
H611 H 0.80765 0.93917 0.28085 0.0
Mn612 Mn 0.27224 0.64887 0.56773 0.0
Mn613 Mn 0.26212 0.60513 0.52409 0.0
C614 C 0.2357 0.63261 0.55188 0.0
C615 C 0.27961 0.66339 0.60648 0.0
C616 C 0.2784 0.65412 0.5171 0.0
O617 O 0.30218 0.63879 0.56907 0.0
O618 O 0.29293 0.60796 0.54158 0.0
C619 C 0.26065 0.56692 0.5524 0.0
N620 N 0.25046 0.57728 0.53568 0.0
C621 C 0.21756 0.5464 0.52811 0.0
C622 C 0.22775 0.53536 0.5452 0.0
C623 C 0.24934 0.54571 0.55745 0.0
C624 C 0.22962 0.56754 0.52389 0.0
H625 H 0.27729 0.57478 0.56176 0.0
C626 C 0.30667 0.62141 0.55781 0.0
O627 O 0.28627 0.67557 0.59035 0.0
O628 O 0.26877 0.64248 0.60023 0.0
N629 N 0.23271 0.60042 0.50582 0.0
C630 C 0.22471 0.61385 0.49079 0.0
C631 C 0.20297 0.60631 0.47773 0.0
C632 C 0.18984 0.58491 0.47996 0.0
C633 C 0.19856 0.57127 0.49531 0.0
C634 C 0.22028 0.57973 0.50797 0.0
H635 H 0.23477 0.63026 0.48889 0.0
O636 O 0.24024 0.65297 0.56324 0.0
O637 O 0.25252 0.62216 0.55069 0.0
O638 O 0.27813 0.66244 0.53807 0.0
O639 O 0.27349 0.63287 0.50992 0.0
C640 C 0.18644 0.54973 0.49874 0.0
C641 C 0.19586 0.53736 0.51525 0.0
H642 H 0.2191 0.51899 0.54913 0.0
H643 H 0.25729 0.5373 0.57069 0.0
H644 H 0.19636 0.61696 0.46595 0.0
H645 H 0.17306 0.57918 0.46991 0.0
H646 H 0.16969 0.54267 0.48906 0.0
H647 H 0.18618 0.521 0.51805 0.0
Mn648 Mn 0.4431 0.51246 0.76781 0.0
Mn649 Mn 0.40158 0.50862 0.80397 0.0
C650 C 0.42037 0.47669 0.77199 0.0
C651 C 0.45633 0.51837 0.73021 0.0
C652 C 0.45225 0.51812 0.82237 0.0
O653 O 0.43745 0.54524 0.77307 0.0
O654 O 0.40727 0.53903 0.79353 0.0
C655 C 0.36194 0.51136 0.77017 0.0
N656 N 0.37189 0.50014 0.78623 0.0
C657 C 0.33738 0.47164 0.78384 0.0
C658 C 0.32674 0.48288 0.76727 0.0
C659 C 0.3391 0.50278 0.76034 0.0
C660 C 0.36023 0.48087 0.79284 0.0
H661 H 0.37134 0.5268 0.76502 0.0
C662 C 0.42137 0.55182 0.78307 0.0
O663 O 0.46992 0.52222 0.74982 0.0
O664 O 0.43492 0.51118 0.73228 0.0
N665 N 0.3942 0.48005 0.81574 0.0
C666 C 0.40703 0.47123 0.83183 0.0
C667 C 0.39711 0.45154 0.84092 0.0
C668 C 0.37406 0.4413 0.83362 0.0
C669 C 0.36119 0.45066 0.81703 0.0
C670 C 0.37196 0.4704 0.80871 0.0
H671 H 0.42463 0.47925 0.83789 0.0
O672 O 0.43999 0.47812 0.76416 0.0
O673 O 0.41459 0.49601 0.77694 0.0
O674 O 0.45956 0.51559 0.80237 0.0
O675 O 0.43121 0.51708 0.82446 0.0
C676 C 0.33809 0.44124 0.80848 0.0
C677 C 0.32624 0.45163 0.79177 0.0
H678 H 0.30909 0.4764 0.75975 0.0
H679 H 0.33099 0.51157 0.74759 0.0
H680 H 0.40715 0.44441 0.85371 0.0
H681 H 0.3664 0.42634 0.84098 0.0
H682 H 0.32933 0.42592 0.81451 0.0
H683 H 0.30855 0.44411 0.78517 0.0
Mn684 Mn 0.68507 0.06228 0.75724 0.0
Mn685 Mn 0.73252 0.07347 0.79689 0.0
C686 C 0.70261 0.09884 0.77084 0.0
C687 C 0.66598 0.05493 0.72006 0.0
C688 C 0.68497 0.05752 0.80892 0.0
O689 O 0.69522 0.03256 0.75501 0.0
O690 O 0.72794 0.04214 0.78038 0.0
C691 C 0.768 0.07301 0.76522 0.0
N692 N 0.75907 0.08406 0.7825 0.0
C693 C 0.79065 0.11619 0.78712 0.0
C694 C 0.80021 0.10514 0.76939 0.0
C695 C 0.78879 0.08349 0.75834 0.0
C696 C 0.76987 0.10494 0.79317 0.0
H697 H 0.75937 0.05628 0.75687 0.0
C698 C 0.7133 0.02818 0.76529 0.0
O699 O 0.65618 0.04854 0.73785 0.0
O700 O 0.68753 0.06474 0.72364 0.0
N701 N 0.73878 0.1033 0.81404 0.0
C702 C 0.7266 0.1122 0.82984 0.0
C703 C 0.73523 0.13411 0.84184 0.0
C704 C 0.75643 0.1465 0.83775 0.0
C705 C 0.76873 0.13691 0.82156 0.0
C706 C 0.75916 0.11509 0.80996 0.0
H707 H 0.71031 0.10276 0.83308 0.0
O708 O 0.68124 0.09414 0.76196 0.0
O709 O 0.7132 0.08211 0.77123 0.0
O710 O 0.67471 0.05695 0.78852 0.0
O711 O 0.7066 0.06331 0.81407 0.0
C712 C 0.78997 0.14823 0.81627 0.0
C713 C 0.80087 0.13796 0.79896 0.0
H714 H 0.81627 0.11313 0.76408 0.0
H715 H 0.79608 0.07486 0.74466 0.0
H716 H 0.72557 0.14143 0.85422 0.0
H717 H 0.76302 0.16342 0.84701 0.0
H718 H 0.79791 0.16503 0.82515 0.0
H719 H 0.81701 0.14702 0.79476 0.0
Mn720 Mn 0.7663 0.69234 0.02499 0.0
Mn721 Mn 0.75716 0.64786 0.98177 0.0
C722 C 0.72929 0.66948 0.01306 0.0
C723 C 0.77289 0.70763 0.0661 0.0
C724 C 0.76935 0.69732 0.972 0.0
O725 O 0.79829 0.68415 0.02481 0.0
O726 O 0.78897 0.65287 0.99759 0.0
C727 C 0.76089 0.60937 0.00864 0.0
N728 N 0.74842 0.61943 0.99345 0.0
C729 C 0.71671 0.58739 0.98836 0.0
C730 C 0.72922 0.57669 1.00395 0.0
C731 C 0.75139 0.58774 0.01414 0.0
C732 C 0.72713 0.60887 0.9834 0.0
H733 H 0.77795 0.61779 0.01648 0.0
C734 C 0.80329 0.66688 0.01304 0.0
O735 O 0.77742 0.72019 0.04961 0.0
O736 O 0.7656 0.68616 0.05887 0.0
N737 N 0.72663 0.64166 0.96581 0.0
C738 C 0.71631 0.65495 0.95239 0.0
C739 C 0.69372 0.64679 0.94166 0.0
C740 C 0.68199 0.62506 0.94481 0.0
C741 C 0.69296 0.61171 0.95871 0.0
C742 C 0.71555 0.62069 0.96886 0.0
H743 H 0.72521 0.67168 0.94995 0.0
O744 O 0.73189 0.6904 0.02249 0.0
O745 O 0.74819 0.66333 0.0096 0.0
O746 O 0.76911 0.70658 0.99305 0.0
O747 O 0.76566 0.67579 0.96689 0.0
C748 C 0.68224 0.59 0.96322 0.0
C749 C 0.69412 0.57782 0.978 0.0
H750 H 0.7219 0.56008 0.00837 0.0
H751 H 0.76112 0.57959 0.02622 0.0
H752 H 0.68535 0.65724 0.93102 0.0
H753 H 0.66451 0.61888 0.93662 0.0
H754 H 0.66477 0.58263 0.95566 0.0
H755 H 0.68559 0.56127 0.98157 0.0
Mn756 Mn 0.89977 0.52548 0.81091 0.0
Mn757 Mn 0.85935 0.51201 0.84635 0.0
C758 C 0.8843 0.48841 0.81307 0.0
C759 C 0.91184 0.53469 0.7759 0.0
C760 C 0.90948 0.5284 0.86363 0.0
O761 O 0.88923 0.55472 0.8179 0.0
O762 O 0.86027 0.54343 0.83872 0.0
C763 C 0.81755 0.51159 0.81414 0.0
N764 N 0.83002 0.50068 0.82839 0.0
C765 C 0.79996 0.46711 0.82228 0.0
C766 C 0.78676 0.47802 0.80759 0.0
C767 C 0.79563 0.50033 0.80345 0.0
C768 C 0.82168 0.47918 0.83243 0.0
H769 H 0.82428 0.52878 0.81103 0.0
C770 C 0.87268 0.55841 0.82873 0.0
O771 O 0.92521 0.54058 0.79561 0.0
O772 O 0.89088 0.52437 0.77664 0.0
N773 N 0.85681 0.48192 0.85483 0.0
C774 C 0.87211 0.47347 0.86863 0.0
C775 C 0.86615 0.4511 0.8739 0.0
C776 C 0.84447 0.43774 0.86516 0.0
C777 C 0.82894 0.44688 0.85119 0.0
C778 C 0.83585 0.46927 0.84649 0.0
H779 H 0.88876 0.48368 0.87552 0.0
O780 O 0.90411 0.49383 0.80584 0.0
O781 O 0.87398 0.50477 0.81854 0.0
O782 O 0.91604 0.52937 0.84363 0.0
O783 O 0.88861 0.52284 0.86682 0.0
C784 C 0.80696 0.43459 0.84158 0.0
C785 C 0.7925 0.44467 0.82708 0.0
H786 H 0.76985 0.4694 0.79932 0.0
H787 H 0.78556 0.50883 0.7921 0.0
H788 H 0.87824 0.44418 0.8847 0.0
H789 H 0.83995 0.42047 0.86921 0.0
H790 H 0.8011 0.41728 0.845 0.0
H791 H 0.77574 0.43494 0.81955 0.0
Mn792 Mn 0.81108 0.43232 0.5102 0.0
Mn793 Mn 0.82065 0.47185 0.47335 0.0
C794 C 0.84729 0.44833 0.5056 0.0
C795 C 0.80439 0.42243 0.54653 0.0
C796 C 0.80511 0.4216 0.45747 0.0
O797 O 0.78125 0.44167 0.50468 0.0
O798 O 0.78943 0.47023 0.48267 0.0
C799 C 0.82127 0.51367 0.50507 0.0
N800 N 0.832 0.50136 0.49055 0.0
C801 C 0.86542 0.5316 0.49565 0.0
C802 C 0.85467 0.54465 0.51057 0.0
C803 C 0.83252 0.53562 0.51532 0.0
C804 C 0.8533 0.50991 0.4858 0.0
H805 H 0.80424 0.5068 0.50875 0.0
C806 C 0.77592 0.45761 0.49403 0.0
O807 O 0.79771 0.4079 0.52773 0.0
O808 O 0.81437 0.44296 0.54416 0.0
N809 N 0.85042 0.47497 0.46351 0.0
C810 C 0.85893 0.4597 0.4499 0.0
C811 C 0.88125 0.46576 0.44421 0.0
C812 C 0.89456 0.48747 0.45249 0.0
C813 C 0.88543 0.50291 0.46644 0.0
C814 C 0.86306 0.49593 0.47148 0.0
H815 H 0.8489 0.44292 0.44363 0.0
O816 O 0.84313 0.42883 0.51356 0.0
O817 O 0.83014 0.4579 0.50083 0.0
O818 O 0.80547 0.41521 0.47769 0.0
O819 O 0.8098 0.44232 0.45385 0.0
C820 C 0.8978 0.52481 0.47585 0.0
C821 C 0.88779 0.53916 0.49042 0.0
H822 H 0.86332 0.56155 0.51859 0.0
H823 H 0.82414 0.54558 0.52687 0.0
H824 H 0.88821 0.45369 0.43356 0.0
H825 H 0.91182 0.49204 0.4482 0.0
H826 H 0.91512 0.53069 0.47222 0.0
H827 H 0.89757 0.55587 0.49777 0.0
Mn828 Mn 0.63897 0.56202 0.29288 0.0
Mn829 Mn 0.68339 0.57213 0.33677 0.0
C830 C 0.6612 0.59918 0.30487 0.0
C831 C 0.62393 0.55496 0.25162 0.0
C832 C 0.63344 0.55897 0.34567 0.0
O833 O 0.64789 0.53064 0.29354 0.0
O834 O 0.67977 0.54062 0.32045 0.0
C835 C 0.72412 0.56985 0.31273 0.0
N836 N 0.71244 0.58196 0.32634 0.0
C837 C 0.74421 0.61407 0.33347 0.0
C838 C 0.7564 0.602 0.31925 0.0
C839 C 0.74632 0.57978 0.30888 0.0
C840 C 0.72221 0.60321 0.33683 0.0
H841 H 0.71667 0.55265 0.30515 0.0
C842 C 0.66581 0.52626 0.30493 0.0
O843 O 0.61123 0.55038 0.26799 0.0
O844 O 0.64543 0.56269 0.25906 0.0
N845 N 0.68817 0.60244 0.3526 0.0
C846 C 0.67352 0.61241 0.36435 0.0
C847 C 0.6807 0.63493 0.37517 0.0
C848 C 0.70281 0.64704 0.37365 0.0
C849 C 0.71741 0.63661 0.36102 0.0
C850 C 0.70929 0.61411 0.35059 0.0
H851 H 0.65635 0.60342 0.36517 0.0
O852 O 0.64018 0.59609 0.2951 0.0
O853 O 0.66789 0.58065 0.30854 0.0
O854 O 0.62429 0.55892 0.32449 0.0
O855 O 0.65507 0.56279 0.3511 0.0
C856 C 0.73954 0.6478 0.358 0.0
C857 C 0.75297 0.6365 0.34432 0.0
H858 H 0.77352 0.60961 0.31623 0.0
H859 H 0.75571 0.57026 0.29807 0.0
H860 H 0.66916 0.64298 0.38453 0.0
H861 H 0.70826 0.66445 0.38193 0.0
H862 H 0.74632 0.66516 0.36595 0.0
H863 H 0.76993 0.64532 0.34205 0.0
Tb864 Tb 0.06853 0.04964 0.0506 0.0
C865 C 0.99863 0.97116 0.99198 0.0
N866 N 1.00818 0.9923 0.98725 0.0
C867 C 1.01057 0.97688 0.94779 0.0
C868 C 0.99506 0.95203 0.97482 0.0
C869 C 0.01368 0.99539 0.96526 0.0
C870 C 1.00131 0.95511 0.95259 0.0
C871 C 0.98242 0.94704 0.01968 0.0
C872 C 0.99227 0.96869 0.01415 0.0
C873 C 0.97891 0.928 1.00262 0.0
C874 C 0.98517 0.93049 0.98026 0.0
Tb875 Tb 1.00968 0.02107 0.01689 0.0
N876 N 0.99621 0.98744 0.03042 0.0
C877 C 0.9764 0.94517 0.0422 0.0
C878 C 0.98926 0.98578 0.052 0.0
C879 C 0.97972 0.96466 0.05837 0.0
H880 H 0.01942 0.01212 0.96055 0.0
H881 H 0.97447 0.9635 0.07561 0.0
H882 H 0.05786 0.06242 0.10605 0.0
H883 H 0.11999 0.09872 0.99549 0.0
H884 H 0.99016 1.00063 0.06408 0.0
H885 H 0.96882 0.92885 0.04713 0.0
H886 H 0.09805 0.06396 0.00734 0.0
H887 H 0.0149 0.97951 0.93045 0.0
H888 H 0.9713 0.91126 1.00655 0.0
H889 H 0.98224 0.91564 0.96726 0.0
H890 H 0.06395 0.0964 0.13466 0.0
H891 H 0.99873 0.94086 0.93891 0.0
H892 H 0.12601 0.13522 0.02127 0.0
N893 N 0.07257 0.07991 0.07925 0.0
C894 C 0.0847 0.09996 0.07429 0.0
C895 C 0.06955 0.09771 0.11759 0.0
C896 C 0.08919 0.1198 0.09061 0.0
C897 C 0.06564 0.07844 0.10093 0.0
C898 C 0.08118 0.11852 0.11235 0.0
N899 N 0.08902 0.08086 0.03791 0.0
C900 C 0.09922 0.0799 0.01798 0.0
C901 C 0.1066 0.12061 0.04745 0.0
C902 C 0.09337 0.1004 0.05302 0.0
C903 C 0.11572 0.12007 0.02619 0.0
C904 C 0.11226 0.09954 0.01153 0.0
H905 H 0.08438 0.13335 0.12541 0.0
H906 H 0.10555 0.15551 0.09727 0.0
H907 H 0.12073 0.15622 0.05945 0.0
O908 O 0.0965 0.03542 0.043 0.0
O909 O 0.05029 0.07598 0.03677 0.0
O910 O 0.01746 0.05809 0.01184 0.0
O911 O 0.09582 0.05348 0.07768 0.0
O912 O 0.0666 0.03341 0.0138 0.0
O913 O 0.03309 0.03833 0.99477 0.0
O914 O 0.97641 0.02169 0.02385 0.0
O915 O 0.03379 0.9978 0.0263 0.0
O916 O 0.05486 0.0156 0.06064 0.0
O917 O 0.9839 0.01735 0.9884 0.0
O918 O 1.00889 0.03844 0.0528 0.0
O919 O 0.04302 0.03591 0.07277 0.0
C920 C 0.03234 0.07696 0.02156 0.0
C921 C 0.12917 0.03766 0.07239 0.0
C922 C 0.16203 0.02228 0.06393 0.0
C923 C 0.17179 0.0284 0.08742 0.0
C924 C 0.13885 0.04358 0.09597 0.0
C925 C 0.1601 0.03888 0.10343 0.0
C926 C 0.14074 0.02679 0.05652 0.0
C927 C 0.05468 0.03758 0.99485 0.0
C928 C 0.10678 0.04208 0.06432 0.0
C929 C 0.10197 0.1401 0.08496 0.0
C930 C 0.11063 0.14051 0.06342 0.0
C931 C 0.04624 0.99665 0.04641 0.0
C932 C 0.95765 0.04022 0.99671 0.0
C933 C 0.93533 0.06715 0.01009 0.0
C934 C 0.93848 0.07804 0.99 0.0
C935 C 0.96048 0.05099 0.97648 0.0
C936 C 0.94489 0.04828 0.01321 0.0
C937 C 0.95094 0.06988 0.97324 0.0
C938 C 0.02164 0.03778 0.07267 0.0
C939 C 0.96896 0.02157 1.00185 0.0
H940 H 0.18831 0.02493 0.09333 0.0
H941 H 0.13001 0.05172 0.10862 0.0
H942 H 0.16752 0.04341 0.1216 0.0
H943 H 0.13342 0.02211 0.03828 0.0
H944 H 0.93087 0.09246 0.987 0.0
H945 H 0.97035 0.04514 0.96342 0.0
H946 H 0.9427 0.04003 0.02885 0.0
H947 H 0.95326 0.07823 0.95773 0.0
Tb948 Tb 0.27663 0.78825 0.30998 0.0
C949 C 0.33768 0.75382 0.22517 0.0
N950 N 0.34422 0.76982 0.24424 0.0
C951 C 0.38078 0.75947 0.24977 0.0
C952 C 0.3522 0.73944 0.21811 0.0
C953 C 0.3657 0.7732 0.25617 0.0
C954 C 0.37391 0.74233 0.23081 0.0
C955 C 0.30866 0.73524 0.19303 0.0
C956 C 0.31631 0.75186 0.21272 0.0
C957 C 0.32286 0.72059 0.18616 0.0
C958 C 0.3446 0.7227 0.19865 0.0
Tb959 Tb 0.31768 0.79028 0.25427 0.0
N960 N 0.30272 0.76579 0.22052 0.0
C961 C 0.28692 0.73375 0.18094 0.0
C962 C 0.28186 0.76499 0.20803 0.0
C963 C 0.2736 0.74887 0.18833 0.0
H964 H 0.37143 0.7869 0.27036 0.0
H965 H 0.25691 0.74815 0.17883 0.0
H966 H 0.22324 0.79113 0.29301 0.0
H967 H 0.34288 0.84466 0.37237 0.0
H968 H 0.27132 0.77661 0.21285 0.0
H969 H 0.28038 0.72119 0.16576 0.0
H970 H 0.32815 0.81417 0.34043 0.0
H971 H 0.39772 0.76218 0.25941 0.0
H972 H 0.3172 0.7076 0.17119 0.0
H973 H 0.35541 0.71135 0.19309 0.0
H974 H 0.19546 0.81342 0.30545 0.0
H975 H 0.38558 0.73164 0.22595 0.0
H976 H 0.31696 0.867 0.38928 0.0
N977 N 0.25003 0.80848 0.31959 0.0
C978 C 0.25655 0.8251 0.33803 0.0
C979 C 0.21261 0.81691 0.31476 0.0
C980 C 0.24133 0.83851 0.34552 0.0
C981 C 0.22845 0.80436 0.30772 0.0
C982 C 0.21904 0.83403 0.33378 0.0
N983 N 0.29324 0.81687 0.33989 0.0
C984 C 0.3161 0.82253 0.34807 0.0
C985 C 0.28694 0.84782 0.3666 0.0
C986 C 0.27893 0.82948 0.34857 0.0
C987 C 0.31011 0.85296 0.37556 0.0
C988 C 0.32477 0.84038 0.36609 0.0
H989 H 0.20681 0.84389 0.33904 0.0
H990 H 0.23755 0.86675 0.37 0.0
H991 H 0.27761 0.87508 0.38831 0.0
O992 O 0.27835 0.76392 0.33288 0.0
O993 O 0.28792 0.82196 0.30086 0.0
O994 O 0.31793 0.81057 0.28766 0.0
O995 O 0.2464 0.76494 0.31274 0.0
O996 O 0.31049 0.77899 0.31886 0.0
O997 O 0.3353 0.78479 0.2895 0.0
O998 O 0.31583 0.81642 0.23335 0.0
O999 O 0.30085 0.75494 0.25455 0.0
O1000 O 0.28927 0.77504 0.28084 0.0
O1001 O 0.34827 0.81112 0.24844 0.0
O1002 O 0.28307 0.80022 0.24844 0.0
O1003 O 0.2575 0.78503 0.27413 0.0
C1004 C 0.30608 0.82634 0.29026 0.0
C1005 C 0.24556 0.75442 0.35102 0.0
C1006 C 0.24727 0.74357 0.39026 0.0
C1007 C 0.22837 0.75318 0.39411 0.0
C1008 C 0.22643 0.76376 0.3548 0.0
C1009 C 0.21786 0.76303 0.37629 0.0
C1010 C 0.25557 0.74398 0.36866 0.0
C1011 C 0.33063 0.77923 0.31078 0.0
C1012 C 0.25634 0.7562 0.32956 0.0
C1013 C 0.24898 0.85625 0.36402 0.0
C1014 C 0.27177 0.86095 0.37448 0.0
C1015 C 0.28817 0.75484 0.27087 0.0
C1016 C 0.34649 0.82401 0.21125 0.0
C1017 C 0.34438 0.83932 0.17417 0.0
C1018 C 0.36248 0.82948 0.16799 0.0
C1019 C 0.36462 0.81407 0.20496 0.0
C1020 C 0.33649 0.83665 0.19575 0.0
C1021 C 0.37255 0.81687 0.18339 0.0
C1022 C 0.26202 0.79442 0.25475 0.0
C1023 C 0.33791 0.82188 0.23391 0.0
H1024 H 0.22162 0.75281 0.41072 0.0
H1025 H 0.21827 0.77179 0.34138 0.0
H1026 H 0.20316 0.77026 0.37921 0.0
H1027 H 0.27034 0.73674 0.36582 0.0
H1028 H 0.36866 0.83145 0.15125 0.0
H1029 H 0.37268 0.80422 0.21661 0.0
H1030 H 0.32252 0.84441 0.20042 0.0
H1031 H 0.3865 0.80923 0.1786 0.0
Tb1032 Tb 0.51177 0.03911 0.54846 0.0
C1033 C 0.59388 0.09003 0.4994 0.0
N1034 N 0.58091 0.06865 0.49325 0.0
C1035 C 0.57916 0.07415 0.45259 0.0
C1036 C 0.59929 0.10455 0.48232 0.0
C1037 C 0.57456 0.06021 0.47007 0.0
C1038 C 0.59129 0.09651 0.45875 0.0
C1039 C 0.61742 0.11851 0.52961 0.0
C1040 C 0.60291 0.097 0.52279 0.0
C1041 C 0.62216 0.13326 0.51274 0.0
C1042 C 0.61309 0.12632 0.48917 0.0
Tb1043 Tb 0.57491 0.04828 0.52406 0.0
N1044 N 0.59756 0.08256 0.53888 0.0
C1045 C 0.62694 0.12441 0.55315 0.0
C1046 C 0.6081 0.08754 0.56145 0.0
C1047 C 0.62252 0.10872 0.56906 0.0
H1048 H 0.56628 0.04261 0.46483 0.0
H1049 H 0.63041 0.11283 0.58711 0.0
H1050 H 0.52026 0.04211 0.60753 0.0
H1051 H 0.45893 0.97617 0.48186 0.0
H1052 H 0.60539 0.07521 0.57349 0.0
H1053 H 0.63817 0.14079 0.55908 0.0
H1054 H 0.4838 0.0135 0.49726 0.0
H1055 H 0.57371 0.06749 0.43433 0.0
H1056 H 0.63312 0.14994 0.51767 0.0
H1057 H 0.61728 0.13774 0.47629 0.0
H1058 H 0.51171 0.01589 0.63661 0.0
H1059 H 0.59507 0.10715 0.44511 0.0
H1060 H 0.44948 0.94736 0.50867 0.0
N1061 N 0.50512 0.01743 0.57807 0.0
C1062 C 0.49183 0.99633 0.5709 0.0
C1063 C 0.50631 0.01008 0.61815 0.0
C1064 C 0.48592 0.98104 0.58716 0.0
C1065 C 0.51153 0.02478 0.60147 0.0
C1066 C 0.4937 0.98804 0.61096 0.0
N1067 N 0.48955 1.00523 0.53183 0.0
C1068 C 0.48022 1.00084 0.50885 0.0
C1069 C 0.46906 0.96884 0.5393 0.0
C1070 C 0.48337 0.99024 0.54721 0.0
C1071 C 0.46055 0.96364 0.51543 0.0
C1072 C 0.46593 0.97982 0.50021 0.0
H1073 H 0.48952 0.97679 0.62399 0.0
H1074 H 0.46745 0.9475 0.59149 0.0
H1075 H 0.45275 0.93682 0.54965 0.0
O1076 O 0.48583 0.05316 0.53142 0.0
O1077 O 0.52357 1.00737 0.53432 0.0
O1078 O 0.55392 0.01341 0.51165 0.0
O1079 O 0.48467 0.04508 0.56648 0.0
O1080 O 0.52377 0.05488 0.51886 0.0
O1081 O 0.54572 0.03767 0.49716 0.0
O1082 O 0.60042 0.03405 0.54151 0.0
O1083 O 0.56384 0.08019 0.53939 0.0
O1084 O 0.53236 0.07405 0.5607 0.0
O1085 O 0.60209 0.04173 0.50639 0.0
O1086 O 0.563 0.0332 0.55403 0.0
O1087 O 0.54066 0.0499 0.57569 0.0
C1088 C 0.53743 0.99967 0.52023 0.0
C1089 C 0.46961 0.07668 0.55762 0.0
C1090 C 0.44299 0.10259 0.55733 0.0
C1091 C 0.45751 0.11694 0.5758 0.0
C1092 C 0.48368 0.09137 0.57618 0.0
C1093 C 0.47777 0.11143 0.58503 0.0
C1094 C 0.44922 0.08247 0.54801 0.0
C1095 C 0.52636 0.04381 0.49922 0.0
C1096 C 0.47537 0.05458 0.54992 0.0
C1097 C 0.47205 0.95949 0.57925 0.0
C1098 C 0.46363 0.95342 0.55541 0.0
C1099 C 0.54952 0.08779 0.55308 0.0
C1100 C 0.61618 1.00978 0.51588 0.0
C1101 C 0.64117 0.98241 0.51797 0.0
C1102 C 0.62595 0.96762 0.50032 0.0
C1103 C 0.60145 0.99471 0.49805 0.0
C1104 C 0.6363 1.00366 0.5257 0.0
C1105 C 0.60629 0.97378 0.4904 0.0
C1106 C 0.56046 0.04479 0.57338 0.0
C1107 C 0.61101 0.03221 0.52315 0.0
H1108 H 0.45306 0.13246 0.58317 0.0
H1109 H 0.49896 0.08696 0.58429 0.0
H1110 H 0.48876 0.12255 0.59939 0.0
H1111 H 0.43798 0.07113 0.53395 0.0
H1112 H 0.62955 0.95139 0.49391 0.0
H1113 H 0.58636 0.99933 0.48972 0.0
H1114 H 0.64806 0.0153 0.53914 0.0
H1115 H 0.59486 0.96239 0.47656 0.0
Tb1116 Tb 0.31835 0.27883 0.78582 0.0
C1117 C 0.23933 0.31171 0.73177 0.0
N1118 N 0.25443 0.32212 0.75082 0.0
C1119 C 0.25914 0.35736 0.73446 0.0
C1120 C 0.23414 0.32368 0.71294 0.0
C1121 C 0.26387 0.34481 0.75267 0.0
C1122 C 0.24432 0.34675 0.71445 0.0
C1123 C 0.2144 0.27727 0.71106 0.0
C1124 C 0.22938 0.28877 0.73095 0.0
C1125 C 0.20925 0.28916 0.69225 0.0
C1126 C 0.21902 0.3123 0.69323 0.0
Tb1127 Tb 0.25894 0.29995 0.77984 0.0
N1128 N 0.23504 0.27761 0.74931 0.0
C1129 C 0.20512 0.25413 0.7106 0.0
C1130 C 0.22534 0.25525 0.74928 0.0
C1131 C 0.21053 0.24311 0.72983 0.0
H1132 H 0.27455 0.3536 0.76838 0.0
H1133 H 0.20308 0.22532 0.72982 0.0
H1134 H 0.30413 0.22452 0.79706 0.0
H1135 H 0.38549 0.34755 0.82855 0.0
H1136 H 0.22844 0.24671 0.76427 0.0
H1137 H 0.19359 0.24467 0.6956 0.0
H1138 H 0.35618 0.32677 0.79617 0.0
H1139 H 0.26672 0.3753 0.736 0.0
H1140 H 0.19773 0.2806 0.67685 0.0
H1141 H 0.21484 0.32123 0.67859 0.0
H1142 H 0.30972 0.20345 0.83044 0.0
H1143 H 0.24068 0.35655 0.70039 0.0
H1144 H 0.39225 0.33013 0.8649 0.0
N1145 N 0.32274 0.25647 0.81514 0.0
C1146 C 0.3377 0.26675 0.83433 0.0
C1147 C 0.31732 0.22139 0.83197 0.0
C1148 C 0.34228 0.25499 0.85353 0.0
C1149 C 0.31366 0.23367 0.81322 0.0
C1150 C 0.33136 0.23219 0.85239 0.0
N1151 N 0.34526 0.29915 0.81492 0.0
C1152 C 0.35853 0.31955 0.81231 0.0
C1153 C 0.36654 0.29952 0.85272 0.0
C1154 C 0.34974 0.28865 0.834 0.0
C1155 C 0.37917 0.32119 0.8509 0.0
C1156 C 0.37535 0.33112 0.83045 0.0
H1157 H 0.33445 0.22254 0.86673 0.0
H1158 H 0.36186 0.25735 0.88775 0.0
H1159 H 0.38307 0.2964 0.88705 0.0
O1160 O 0.34249 0.28705 0.76142 0.0
O1161 O 0.31215 0.30234 0.81569 0.0
O1162 O 0.27313 0.2946 0.81507 0.0
O1163 O 0.34125 0.25772 0.78019 0.0
O1164 O 0.31567 0.30953 0.76914 0.0
O1165 O 0.29058 0.32649 0.78856 0.0
O1166 O 0.22487 0.29429 0.78829 0.0
O1167 O 0.2741 0.29035 0.74728 0.0
O1168 O 0.29252 0.26202 0.75639 0.0
O1169 O 0.24623 0.32762 0.79364 0.0
O1170 O 0.25804 0.26856 0.796 0.0
O1171 O 0.28646 0.2521 0.78175 0.0
C1172 C 0.29382 0.30224 0.82642 0.0
C1173 C 0.3706 0.26255 0.75447 0.0
C1174 C 0.40262 0.2683 0.73108 0.0
C1175 C 0.40726 0.24736 0.73616 0.0
C1176 C 0.3759 0.24164 0.75905 0.0
C1177 C 0.39401 0.23419 0.74999 0.0
C1178 C 0.38415 0.27602 0.74029 0.0
C1179 C 0.30929 0.32778 0.77827 0.0
C1180 C 0.35138 0.26967 0.76551 0.0
C1181 C 0.35827 0.26606 0.87277 0.0
C1182 C 0.3704 0.28827 0.87235 0.0
C1183 C 0.28253 0.27238 0.7407 0.0
C1184 C 0.21736 0.32121 0.81894 0.0
C1185 C 0.18979 0.31397 0.84748 0.0
C1186 C 0.19903 0.33588 0.85926 0.0
C1187 C 0.22587 0.34301 0.83142 0.0
C1188 C 0.19883 0.30672 0.82691 0.0
C1189 C 0.21678 0.3502 0.85127 0.0
C1190 C 0.26752 0.25093 0.79176 0.0
C1191 C 0.22655 0.31546 0.7965 0.0
H1192 H 0.42125 0.24113 0.72927 0.0
H1193 H 0.36604 0.23089 0.7698 0.0
H1194 H 0.39783 0.21807 0.75374 0.0
H1195 H 0.38045 0.29219 0.73651 0.0
H1196 H 0.19209 0.34223 0.87454 0.0
H1197 H 0.23938 0.3549 0.82556 0.0
H1198 H 0.19148 0.29012 0.81724 0.0
H1199 H 0.22336 0.36716 0.86039 0.0
Tb1200 Tb 0.05303 1.00919 0.53138 0.0
C1201 C 0.01823 0.08746 0.58662 0.0
N1202 N 1.00807 0.07425 0.5663 0.0
C1203 C 0.97134 0.07178 0.57959 0.0
C1204 C 1.00525 0.09313 0.60437 0.0
C1205 C 0.98486 0.06673 0.56238 0.0
C1206 C 0.98156 0.08494 0.60071 0.0
C1207 C 0.05285 0.10958 0.61016 0.0
C1208 C 0.04178 0.09559 0.58953 0.0
C1209 C 0.03998 0.11513 0.62794 0.0
C1210 C 0.01626 0.10691 0.62507 0.0
Tb1211 Tb 0.03238 0.0679 0.53985 0.0
N1212 N 0.05386 0.0893 0.57226 0.0
C1213 C 0.07652 0.11762 0.61224 0.0
C1214 C 0.0767 0.09806 0.57366 0.0
C1215 C 0.08845 0.11202 0.5938 0.0
H1216 H 0.97657 0.05733 0.54579 0.0
H1217 H 0.10664 0.11868 0.59497 0.0
H1218 H 0.10925 0.01966 0.52746 0.0
H1219 H 0.98127 0.95483 0.47625 0.0
H1220 H 0.08586 0.09465 0.55924 0.0
H1221 H 0.08567 0.12847 0.6278 0.0
H1222 H 1.00141 0.97926 0.51225 0.0
H1223 H 0.95298 0.06574 0.57644 0.0
H1224 H 0.04819 0.12584 0.64396 0.0
H1225 H 1.00657 0.11144 0.63891 0.0
H1226 H 0.13392 0.01219 0.49753 0.0
H1227 H 0.97099 0.08893 0.61393 0.0
H1228 H 1.00286 0.94656 0.44339 0.0
N1229 N 0.07833 1.00284 0.50591 0.0
C1230 C 0.06888 0.9897 0.48534 0.0
C1231 C 0.11562 1.00595 0.4938 0.0
C1232 C 0.08245 0.98449 0.46799 0.0
C1233 C 0.10149 0.01047 0.51061 0.0
C1234 C 0.10606 0.99306 0.47233 0.0
N1235 N 0.03295 0.98678 0.49889 0.0
C1236 C 1.01046 0.97674 0.49756 0.0
C1237 C 0.03507 0.96668 0.46126 0.0
C1238 C 0.04551 0.98098 0.48193 0.0
C1239 C 1.01155 0.95767 0.45898 0.0
C1240 C 0.99926 0.96244 0.4774 0.0
H1241 H 0.11709 0.98947 0.45943 0.0
H1242 H 0.08222 0.96657 0.43347 0.0
H1243 H 0.04075 0.95092 0.42763 0.0
O1244 O 0.03935 0.9831 0.55085 0.0
O1245 O 0.04009 0.02241 0.4987 0.0
O1246 O 0.0154 0.04615 0.5076 0.0
O1247 O 0.07116 0.98351 0.53739 0.0
O1248 O 0.02227 0.01175 0.5485 0.0
O1249 O 1.00437 0.03763 0.5318 0.0
O1250 O 0.04549 0.09476 0.52088 0.0
O1251 O 0.04424 0.0533 0.57202 0.0
O1252 O 0.07057 0.03167 0.56302 0.0
O1253 O 0.01412 0.09368 0.53539 0.0
O1254 O 0.06223 0.0653 0.52157 0.0
O1255 O 0.08063 0.03991 0.53837 0.0
C1256 C 0.02437 0.03398 0.49224 0.0
C1257 C 0.0665 0.96638 0.57205 0.0
C1258 C 0.06651 0.93925 0.60097 0.0
C1259 C 0.08659 0.95336 0.61322 0.0
C1260 C 0.08652 0.98 0.58481 0.0
C1261 C 0.09647 0.97348 0.60518 0.0
C1262 C 0.05657 0.94578 0.5801 0.0
C1263 C 1.00358 0.01835 0.54074 0.0
C1264 C 0.05667 0.97325 0.54994 0.0
C1265 C 0.07208 0.97069 0.44706 0.0
C1266 C 0.04846 0.96176 0.44373 0.0
C1267 C 0.0611 0.04312 0.57847 0.0
C1268 C 0.01742 0.11188 0.5012 0.0
C1269 C 0.01721 0.13917 0.47233 0.0
C1270 C 0.99487 0.12758 0.46309 0.0
C1271 C 0.99531 0.10062 0.49106 0.0
C1272 C 0.02837 0.13131 0.49178 0.0
C1273 C 0.98415 0.10851 0.47228 0.0
C1274 C 0.08108 0.05859 0.52836 0.0
C1275 C 0.02807 0.10436 0.52262 0.0
H1276 H 0.09477 0.94872 0.62909 0.0
H1277 H 0.09464 0.99559 0.57883 0.0
H1278 H 0.11199 0.98407 0.61479 0.0
H1279 H 0.04114 0.93509 0.57037 0.0
H1280 H 0.98544 0.13345 0.44876 0.0
H1281 H 0.98637 0.08593 0.498 0.0
H1282 H 0.04539 0.14018 0.49951 0.0
H1283 H 0.96696 0.0999 0.46493 0.0
Tb1284 Tb 0.29611 0.82189 0.77078 0.0
C1285 C 0.25221 0.73583 0.82158 0.0
N1286 N 0.27285 0.75049 0.82733 0.0
C1287 C 0.26774 0.75232 0.86809 0.0
C1288 C 0.23812 0.72972 0.83887 0.0
C1289 C 0.28126 0.75767 0.85042 0.0
C1290 C 0.24593 0.7386 0.86227 0.0
C1291 C 0.22469 0.71015 0.79199 0.0
C1292 C 0.24557 0.72599 0.79841 0.0
C1293 C 0.2103 0.70471 0.80905 0.0
C1294 C 0.21698 0.71448 0.83241 0.0
Tb1295 Tb 0.29224 0.75809 0.79608 0.0
N1296 N 0.25958 0.732 0.78212 0.0
C1297 C 0.21895 0.70018 0.76862 0.0
C1298 C 0.25466 0.72138 0.75962 0.0
C1299 C 0.23414 0.70562 0.75243 0.0
H1300 H 0.2985 0.76737 0.85546 0.0
H1301 H 0.23013 0.69758 0.73446 0.0
H1302 H 0.29938 0.80844 0.7124 0.0
H1303 H 0.34822 0.88687 0.83568 0.0
H1304 H 0.26651 0.72498 0.74725 0.0
H1305 H 0.20304 0.68797 0.76299 0.0
H1306 H 0.3146 0.85645 0.82005 0.0
H1307 H 0.2743 0.75852 0.88625 0.0
H1308 H 0.1941 0.69275 0.8044 0.0
H1309 H 0.20587 0.70978 0.84544 0.0
H1310 H 0.328 0.81703 0.68608 0.0
H1311 H 0.23559 0.73434 0.87605 0.0
H1312 H 0.37897 0.89726 0.81112 0.0
N1313 N 0.3204 0.82791 0.74294 0.0
C1314 C 0.33981 0.84403 0.75058 0.0
C1315 C 0.33173 0.8244 0.7043 0.0
C1316 C 0.35633 0.85013 0.7355 0.0
C1317 C 0.31568 0.81908 0.7197 0.0
C1318 C 0.35229 0.83969 0.7123 0.0
N1319 N 0.32668 0.84912 0.78761 0.0
C1320 C 0.3281 0.86058 0.80948 0.0
C1321 C 0.36228 0.87255 0.7815 0.0
C1322 C 0.3428 0.8553 0.77335 0.0
C1323 C 0.36428 0.88385 0.80426 0.0
C1324 C 0.347 0.87798 0.81822 0.0
H1325 H 0.36454 0.84395 0.70019 0.0
H1326 H 0.38895 0.87164 0.73247 0.0
H1327 H 0.39418 0.89119 0.77271 0.0
O1328 O 0.28007 0.84866 0.78401 0.0
O1329 O 0.32958 0.81577 0.78943 0.0
O1330 O 0.32769 0.77949 0.80153 0.0
O1331 O 0.2842 0.84173 0.74718 0.0
O1332 O 0.28183 0.80813 0.80033 0.0
O1333 O 0.30028 0.7873 0.82249 0.0
O1334 O 0.30352 0.73023 0.7792 0.0
O1335 O 0.25793 0.76577 0.78089 0.0
O1336 O 0.26122 0.79984 0.76374 0.0
O1337 O 0.31058 0.73962 0.81665 0.0
O1338 O 0.30556 0.77376 0.76733 0.0
O1339 O 0.28676 0.79263 0.74411 0.0
C1340 C 0.3394 0.8 0.79878 0.0
C1341 C 0.26441 0.87202 0.75563 0.0
C1342 C 0.2413 0.90064 0.76269 0.0
C1343 C 0.2394 0.90304 0.73874 0.0
C1344 C 0.26221 0.87508 0.73173 0.0
C1345 C 0.24985 0.89043 0.72344 0.0
C1346 C 0.25397 0.88511 0.77129 0.0
C1347 C 0.29375 0.80626 0.81984 0.0
C1348 C 0.27618 0.85388 0.76283 0.0
C1349 C 0.37605 0.86689 0.7438 0.0
C1350 C 0.37901 0.87808 0.7667 0.0
C1351 C 0.24876 0.78079 0.76928 0.0
C1352 C 0.31221 0.70199 0.80295 0.0
C1353 C 0.3306 0.66931 0.80261 0.0
C1354 C 0.31425 0.65888 0.81584 0.0
C1355 C 0.29598 0.69121 0.81611 0.0
C1356 C 0.32954 0.69095 0.79623 0.0
C1357 C 0.29707 0.66978 0.82253 0.0
C1358 C 0.29323 0.77391 0.74767 0.0
C1359 C 0.31335 0.72581 0.79891 0.0
H1360 H 0.22986 0.91491 0.73187 0.0
H1361 H 0.26982 0.86535 0.71917 0.0
H1362 H 0.24825 0.89246 0.70499 0.0
H1363 H 0.25532 0.883 0.78973 0.0
H1364 H 0.31492 0.64235 0.82117 0.0
H1365 H 0.28287 0.69962 0.82194 0.0
H1366 H 0.34242 0.69935 0.78647 0.0
H1367 H 0.28473 0.6617 0.83299 0.0
Tb1368 Tb 0.54375 0.06276 0.00747 0.0
C1369 C 0.57929 1.00101 0.09225 0.0
N1370 N 0.56301 0.99532 0.07326 0.0
C1371 C 0.57148 0.95813 0.06735 0.0
C1372 C 0.59266 0.98558 0.09929 0.0
C1373 C 0.55879 0.97408 0.06094 0.0
C1374 C 0.58858 0.96393 0.08654 0.0
C1375 C 0.60005 0.02942 0.12386 0.0
C1376 C 0.5828 0.02254 0.10448 0.0
C1377 C 0.61344 0.01415 0.13092 0.0
C1378 C 0.60973 0.99225 0.1187 0.0
Tb1379 Tb 0.54307 0.0226 0.06445 0.0
N1380 N 0.56999 0.03709 0.09662 0.0
C1381 C 0.60356 0.05155 0.13534 0.0
C1382 C 0.57322 0.05866 0.10811 0.0
C1383 C 0.59005 0.0662 0.12744 0.0
H1384 H 0.54519 0.96911 0.04652 0.0
H1385 H 0.59266 0.08339 0.13617 0.0
H1386 H 0.5391 0.11601 0.01995 0.0
H1387 H 0.49889 0.99771 0.93642 0.0
H1388 H 0.56339 0.07047 0.10235 0.0
H1389 H 0.6167 0.05752 0.15022 0.0
H1390 H 0.53027 0.0153 0.96654 0.0
H1391 H 0.56798 0.94133 0.05755 0.0
H1392 H 0.6268 0.01915 0.14573 0.0
H1393 H 0.62023 0.98066 0.1243 0.0
H1394 H 0.51211 0.14017 0.00937 0.0
H1395 H 0.59844 0.95156 0.09142 0.0
H1396 H 0.46796 0.01775 0.92594 0.0
N1397 N 0.52102 0.0871 0.9967 0.0
C1398 C 0.50322 0.07872 0.97967 0.0
C1399 C 0.50926 0.12283 1.001 0.0
C1400 C 0.48719 0.09184 0.97309 0.0
C1401 C 0.52444 0.10899 0.00713 0.0
C1402 C 0.49038 0.11414 0.98407 0.0
N1403 N 0.51745 0.04526 0.9754 0.0
C1404 C 0.51706 0.02449 0.96324 0.0
C1405 C 0.48291 0.04748 0.95092 0.0
C1406 C 0.50125 0.05698 0.96872 0.0
C1407 C 0.48181 0.0257 0.93962 0.0
C1408 C 0.49919 0.01434 0.94554 0.0
H1409 H 0.47853 0.12482 0.97945 0.0
H1410 H 0.45599 0.09202 0.95068 0.0
H1411 H 0.45212 0.05302 0.93133 0.0
O1412 O 0.5697 0.06277 0.98634 0.0
O1413 O 0.51011 0.0514 0.01708 0.0
O1414 O 0.52166 0.02231 0.03166 0.0
O1415 O 0.56622 0.09388 1.00582 0.0
O1416 O 0.55434 0.02914 1.00033 0.0
O1417 O 0.545 1.00426 0.02876 0.0
O1418 O 0.51876 0.0257 0.08745 0.0
O1419 O 0.5783 0.03914 0.06262 0.0
O1420 O 0.55715 0.05073 0.03697 0.0
O1421 O 0.52156 0.99294 0.07121 0.0
O1422 O 0.53403 0.05718 0.0709 0.0
O1423 O 0.54451 0.08232 0.04291 0.0
C1424 C 0.50612 0.03441 0.02923 0.0
C1425 C 0.57799 0.09543 0.96801 0.0
C1426 C 0.59039 0.09398 0.92932 0.0
C1427 C 0.58209 0.11368 0.92569 0.0
C1428 C 0.56986 0.11517 0.96435 0.0
C1429 C 0.57182 0.12415 0.94315 0.0
C1430 C 0.58795 0.08494 0.95041 0.0
C1431 C 0.5519 1.00866 0.00799 0.0
C1432 C 0.57612 0.08478 0.98957 0.0
C1433 C 0.46863 0.08232 0.95579 0.0
C1434 C 0.46643 0.06012 0.94479 0.0
C1435 C 0.57766 0.05204 0.04653 0.0
C1436 C 0.51119 0.99498 0.10949 0.0
C1437 C 0.4973 0.99671 0.14753 0.0
C1438 C 0.50581 0.97727 0.1519 0.0
C1439 C 0.51968 0.97563 0.11416 0.0
C1440 C 0.50029 1.00553 0.12631 0.0
C1441 C 0.51703 0.96691 0.13533 0.0
C1442 C 0.53737 0.07782 0.06353 0.0
C1443 C 0.51236 1.00379 0.08681 0.0
H1444 H 0.58393 0.12126 0.90966 0.0
H1445 H 0.56197 0.12358 0.97769 0.0
H1446 H 0.56556 0.13937 0.94032 0.0
H1447 H 0.59368 0.0694 0.95318 0.0
H1448 H 0.50333 0.96972 0.16786 0.0
H1449 H 0.52811 0.96705 0.10143 0.0
H1450 H 0.49394 0.02057 0.12272 0.0
H1451 H 0.52336 0.95186 0.13875 0.0
Tb1452 Tb 0.2738 0.26068 0.26747 0.0
C1453 C 0.35424 0.33394 0.32597 0.0
N1454 N 0.33297 0.32405 0.33024 0.0
C1455 C 0.3477 0.32379 0.37054 0.0
C1456 C 0.37314 0.33864 0.34371 0.0
C1457 C 0.3294 0.31992 0.35253 0.0
C1458 C 0.36972 0.33293 0.36606 0.0
C1459 C 0.37811 0.3526 0.29939 0.0
C1460 C 0.35678 0.34078 0.30411 0.0
C1461 C 0.39711 0.35668 0.31676 0.0
C1462 C 0.39465 0.34965 0.33886 0.0
Tb1463 Tb 0.30441 0.31974 0.29927 0.0
N1464 N 0.33809 0.33631 0.28762 0.0
C1465 C 0.37955 0.36039 0.27752 0.0
C1466 C 0.33916 0.34487 0.26675 0.0
C1467 C 0.35991 0.3567 0.26122 0.0
H1468 H 0.31245 0.31459 0.357 0.0
H1469 H 0.36067 0.36321 0.24452 0.0
H1470 H 0.26383 0.26886 0.21068 0.0
H1471 H 0.21724 0.22775 0.32816 0.0
H1472 H 0.32398 0.34315 0.25457 0.0
H1473 H 0.39559 0.36964 0.27324 0.0
H1474 H 0.25428 0.24274 0.31573 0.0
H1475 H 0.3447 0.32027 0.38804 0.0
H1476 H 0.41367 0.36562 0.31344 0.0
H1477 H 0.40935 0.35335 0.35226 0.0
H1478 H 0.23057 0.26352 0.18087 0.0
H1479 H 0.38378 0.33631 0.38017 0.0
H1480 H 0.18191 0.22201 0.30024 0.0
N1481 N 0.24444 0.25892 0.23814 0.0
C1482 C 0.2233 0.24997 0.24353 0.0
C1483 C 0.22825 0.25999 0.19853 0.0
C1484 C 0.20379 0.24595 0.22658 0.0
C1485 C 0.24713 0.26357 0.21581 0.0
C1486 C 0.20649 0.25121 0.20393 0.0
N1487 N 0.24038 0.24828 0.28203 0.0
C1488 C 0.23914 0.2418 0.30384 0.0
C1489 C 0.19961 0.23493 0.27216 0.0
C1490 C 0.22122 0.24438 0.26608 0.0
C1491 C 0.19818 0.22935 0.29491 0.0
C1492 C 0.21807 0.23269 0.31076 0.0
H1493 H 0.19195 0.2482 0.19038 0.0
H1494 H 0.16715 0.23317 0.21975 0.0
H1495 H 0.16348 0.22365 0.25966 0.0
O1496 O 0.27543 0.22791 0.27558 0.0
O1497 O 0.25102 0.28533 0.27699 0.0
O1498 O 0.26983 0.30808 0.31018 0.0
O1499 O 0.26806 0.234 0.23994 0.0
O1500 O 0.29184 0.26107 0.30325 0.0
O1501 O 0.29011 0.29551 0.32249 0.0
O1502 O 0.29311 0.34786 0.28788 0.0
O1503 O 0.32945 0.30052 0.2844 0.0
O1504 O 0.31084 0.26618 0.26275 0.0
O1505 O 0.30962 0.34937 0.32318 0.0
O1506 O 0.28721 0.31718 0.26275 0.0
O1507 O 0.29085 0.28325 0.24423 0.0
C1508 C 0.25037 0.29847 0.29676 0.0
C1509 C 0.29043 0.20687 0.24649 0.0
C1510 C 0.31628 0.18174 0.2559 0.0
C1511 C 0.32213 0.18137 0.23294 0.0
C1512 C 0.29654 0.20631 0.22367 0.0
C1513 C 0.31243 0.19375 0.21706 0.0
C1514 C 0.30059 0.1948 0.26253 0.0
C1515 C 0.29154 0.27417 0.32287 0.0
C1516 C 0.27318 0.21955 0.25358 0.0
C1517 C 0.18228 0.23648 0.2326 0.0
C1518 C 0.18019 0.23104 0.25533 0.0
C1519 C 0.3299 0.28135 0.27103 0.0
C1520 C 0.28018 0.36935 0.31733 0.0
C1521 C 0.2552 0.39563 0.31238 0.0
C1522 C 0.24417 0.38839 0.33125 0.0
C1523 C 0.26913 0.36184 0.3362 0.0
C1524 C 0.27314 0.38619 0.30557 0.0
C1525 C 0.25116 0.37144 0.34313 0.0
C1526 C 0.2907 0.30488 0.24381 0.0
C1527 C 0.2984 0.35946 0.30866 0.0
H1528 H 0.33374 0.17111 0.22698 0.0
H1529 H 0.28899 0.21546 0.21087 0.0
H1530 H 0.31697 0.1933 0.19943 0.0
H1531 H 0.29619 0.1956 0.28023 0.0
H1532 H 0.23038 0.3959 0.33678 0.0
H1533 H 0.27424 0.34858 0.34542 0.0
H1534 H 0.28163 0.39198 0.29097 0.0
H1535 H 0.24267 0.36572 0.35767 0.0
Tb1536 Tb 0.55174 0.50666 0.03199 0.0
C1537 C 0.51954 0.58876 0.08162 0.0
N1538 N 0.50939 0.5736 0.06261 0.0
C1539 C 0.47303 0.57112 0.07677 0.0
C1540 C 0.50686 0.59503 0.09942 0.0
C1541 C 0.48628 0.56539 0.05956 0.0
C1542 C 0.48338 0.58583 0.09689 0.0
C1543 C 0.55393 0.61354 0.1029 0.0
C1544 C 0.5428 0.59811 0.08324 0.0
C1545 C 0.54138 0.61959 0.1208 0.0
C1546 C 0.51792 0.61041 0.11904 0.0
Tb1547 Tb 0.53299 0.56685 0.03556 0.0
N1548 N 0.55456 0.59163 0.06577 0.0
C1549 C 0.57736 0.62242 0.104 0.0
C1550 C 0.57724 0.60081 0.0664 0.0
C1551 C 0.58902 0.61612 0.08562 0.0
H1552 H 0.47773 0.55483 0.0437 0.0
H1553 H 0.60706 0.62322 0.08612 0.0
H1554 H 0.60763 0.51691 0.0243 0.0
H1555 H 0.48166 0.44286 0.98582 0.0
H1556 H 0.58629 0.59683 0.05204 0.0
H1557 H 0.58655 0.63431 0.11883 0.0
H1558 H 0.50246 0.47075 0.01934 0.0
H1559 H 0.45478 0.5644 0.07435 0.0
H1560 H 0.54966 0.63142 0.13605 0.0
H1561 H 0.50845 0.61537 0.13291 0.0
H1562 H 0.62987 0.51104 0.99188 0.0
H1563 H 0.47303 0.59029 0.11014 0.0
H1564 H 0.50008 0.43662 0.95007 0.0
N1565 N 0.57542 0.50112 1.00427 0.0
C1566 C 0.56502 0.48756 0.98423 0.0
C1567 C 0.61155 0.50469 0.98934 0.0
C1568 C 0.57735 0.48283 0.96558 0.0
C1569 C 0.59869 0.50845 0.00756 0.0
C1570 C 0.60078 0.4922 0.96808 0.0
N1571 N 0.53117 0.4813 1.0018 0.0
C1572 C 0.51017 0.46851 1.00349 0.0
C1573 C 0.53137 0.46095 0.96381 0.0
C1574 C 0.54231 0.47681 0.98321 0.0
C1575 C 0.50907 0.44901 0.96459 0.0
C1576 C 0.49857 0.45254 0.98471 0.0
H1577 H 0.61087 0.489 0.95415 0.0
H1578 H 0.57532 0.46445 0.93092 0.0
H1579 H 0.53506 0.44523 0.92943 0.0
O1580 O 0.54192 0.48544 0.05787 0.0
O1581 O 0.52817 0.51346 1.00222 0.0
O1582 O 0.54045 0.55144 1.00197 0.0
O1583 O 0.5674 0.47905 0.03658 0.0
O1584 O 0.52179 0.51165 0.04897 0.0
O1585 O 0.50526 0.53611 0.02846 0.0
O1586 O 0.53953 0.60065 0.02656 0.0
O1587 O 0.543 0.55334 0.06926 0.0
O1588 O 0.56977 0.53199 0.06127 0.0
O1589 O 0.50641 0.57767 0.01613 0.0
O1590 O 0.56504 0.56611 0.02092 0.0
O1591 O 0.58038 0.53721 0.03585 0.0
C1592 C 0.53016 0.53146 0.99093 0.0
C1593 C 0.56881 0.46436 0.07307 0.0
C1594 C 0.57116 0.43618 0.10086 0.0
C1595 C 0.59492 0.44506 0.10546 0.0
C1596 C 0.59231 0.47314 0.07895 0.0
C1597 C 0.60522 0.46345 0.0949 0.0
C1598 C 0.55819 0.44602 0.08427 0.0
C1599 C 0.5036 0.51796 0.03951 0.0
C1600 C 0.556 0.47233 0.05329 0.0
C1601 C 0.56617 0.4681 0.94552 0.0
C1602 C 0.54324 0.45711 0.94468 0.0
C1603 C 0.56021 0.54376 0.07636 0.0
C1604 C 0.50987 0.61546 1.00378 0.0
C1605 C 0.51367 0.64775 0.98077 0.0
C1606 C 0.49016 0.64686 0.98038 0.0
C1607 C 0.48641 0.61515 1.00292 0.0
C1608 C 0.52368 0.6321 0.99282 0.0
C1609 C 0.47672 0.63079 0.99145 0.0
C1610 C 0.58242 0.55645 0.02627 0.0
C1611 C 0.51901 0.59768 0.01542 0.0
H1612 H 0.60591 0.43757 0.11694 0.0
H1613 H 0.60088 0.48704 0.07059 0.0
H1614 H 0.62348 0.46992 0.09876 0.0
H1615 H 0.54 0.43937 0.07978 0.0
H1616 H 0.48215 0.65871 0.97141 0.0
H1617 H 0.47547 0.60273 0.01118 0.0
H1618 H 0.54178 0.63249 0.99312 0.0
H1619 H 0.45861 0.63036 0.99098 0.0
Tb1620 Tb 0.79721 0.32022 0.2703 0.0
C1621 C 0.75054 0.23828 0.32012 0.0
N1622 N 0.77058 0.25381 0.32656 0.0
C1623 C 0.76156 0.25868 0.36606 0.0
C1624 C 0.73485 0.23318 0.33626 0.0
C1625 C 0.77673 0.26299 0.3496 0.0
C1626 C 0.74039 0.244 0.3593 0.0
C1627 C 0.72602 0.20977 0.29057 0.0
C1628 C 0.74616 0.22649 0.29756 0.0
C1629 C 0.71007 0.20528 0.30639 0.0
C1630 C 0.71447 0.21694 0.32916 0.0
Tb1631 Tb 0.79354 0.25819 0.29735 0.0
N1632 N 0.76167 0.23156 0.28238 0.0
C1633 C 0.72269 0.1978 0.26799 0.0
C1634 C 0.75916 0.21908 0.26087 0.0
C1635 C 0.73949 0.20227 0.2532 0.0
H1636 H 0.79355 0.27316 0.35582 0.0
H1637 H 0.73736 0.19269 0.23595 0.0
H1638 H 0.79866 0.30593 0.2121 0.0
H1639 H 0.85293 0.3828 0.33506 0.0
H1640 H 0.77237 0.22195 0.24975 0.0
H1641 H 0.70746 0.18478 0.26199 0.0
H1642 H 0.81776 0.35415 0.31969 0.0
H1643 H 0.76643 0.26633 0.38412 0.0
H1644 H 0.69443 0.19256 0.30131 0.0
H1645 H 0.7022 0.21293 0.34131 0.0
H1646 H 0.82641 0.31409 0.18456 0.0
H1647 H 0.72882 0.24049 0.37222 0.0
H1648 H 0.88297 0.39246 0.30952 0.0
N1649 N 0.82053 0.32583 0.24174 0.0
C1650 C 0.84028 0.34163 0.24886 0.0
C1651 C 0.83068 0.32165 0.20269 0.0
C1652 C 0.85639 0.34725 0.23327 0.0
C1653 C 0.81513 0.31666 0.21867 0.0
C1654 C 0.85151 0.33676 0.21007 0.0
N1655 N 0.82859 0.3467 0.28662 0.0
C1656 C 0.8311 0.35777 0.30879 0.0
C1657 C 0.86445 0.36905 0.27968 0.0
C1658 C 0.84425 0.35265 0.27179 0.0
C1659 C 0.86769 0.37973 0.30282 0.0
C1660 C 0.85083 0.37423 0.31735 0.0
H1661 H 0.86344 0.34066 0.19757 0.0
H1662 H 0.88927 0.36782 0.22945 0.0
H1663 H 0.89637 0.38676 0.27005 0.0
O1664 O 0.78398 0.34913 0.2828 0.0
O1665 O 0.83106 0.31261 0.28603 0.0
O1666 O 0.8284 0.28048 0.30619 0.0
O1667 O 0.78402 0.3386 0.24561 0.0
O1668 O 0.78339 0.30932 0.30131 0.0
O1669 O 0.80324 0.28849 0.32231 0.0
O1670 O 0.8086 0.23066 0.28415 0.0
O1671 O 0.75999 0.26424 0.27911 0.0
O1672 O 0.76172 0.30027 0.26677 0.0
O1673 O 0.80476 0.23805 0.32101 0.0
O1674 O 0.80769 0.27023 0.2671 0.0
O1675 O 0.78763 0.28976 0.24495 0.0
C1676 C 0.84053 0.29892 0.29911 0.0
C1677 C 0.76777 0.3717 0.25412 0.0
C1678 C 0.74461 0.40056 0.26038 0.0
C1679 C 0.7452 0.40443 0.23694 0.0
C1680 C 0.76806 0.37631 0.23078 0.0
C1681 C 0.75689 0.39249 0.22234 0.0
C1682 C 0.75609 0.38416 0.26914 0.0
C1683 C 0.796 0.30718 0.32027 0.0
C1684 C 0.77844 0.35279 0.26131 0.0
C1685 C 0.87667 0.36342 0.24117 0.0
C1686 C 0.88069 0.37426 0.26429 0.0
C1687 C 0.75014 0.28004 0.27005 0.0
C1688 C 0.82145 0.20564 0.31232 0.0
C1689 C 0.84326 0.17583 0.30604 0.0
C1690 C 0.8404 0.1703 0.32865 0.0
C1691 C 0.81882 0.19947 0.33486 0.0
C1692 C 0.83371 0.19358 0.29774 0.0
C1693 C 0.82823 0.18201 0.3429 0.0
C1694 C 0.79508 0.27125 0.24777 0.0
C1695 C 0.8117 0.22506 0.30527 0.0
H1696 H 0.73662 0.41693 0.22993 0.0
H1697 H 0.77678 0.36718 0.2188 0.0
H1698 H 0.75721 0.39571 0.2043 0.0
H1699 H 0.75555 0.38088 0.28716 0.0
H1700 H 0.8476 0.15675 0.33527 0.0
H1701 H 0.80947 0.20823 0.34649 0.0
H1702 H 0.83595 0.19801 0.28033 0.0
H1703 H 0.82611 0.17756 0.3603 0.0
Tb1704 Tb 0.04497 0.55895 0.509 0.0
C1705 C 0.08255 0.49912 0.59397 0.0
N1706 N 0.06617 0.4929 0.57508 0.0
C1707 C 0.07613 0.45638 0.56905 0.0
C1708 C 0.09674 0.48432 0.60085 0.0
C1709 C 0.06258 0.47168 0.56283 0.0
C1710 C 0.09339 0.46277 0.58805 0.0
C1711 C 0.10241 0.52784 0.62573 0.0
C1712 C 0.08526 0.52051 0.60632 0.0
C1713 C 0.11666 0.51323 0.63257 0.0
C1714 C 0.11381 0.49151 0.62018 0.0
Tb1715 Tb 0.04522 0.51938 0.56624 0.0
N1716 N 0.07164 0.53447 0.59865 0.0
C1717 C 0.10489 0.5497 0.63754 0.0
C1718 C 0.0737 0.55565 0.61063 0.0
C1719 C 0.09038 0.56359 0.63002 0.0
H1720 H 0.04881 0.46623 0.54867 0.0
H1721 H 0.09202 0.58049 0.63917 0.0
H1722 H 0.04185 0.61231 0.52362 0.0
H1723 H 0.99079 0.49193 0.44562 0.0
H1724 H 0.06279 0.56678 0.60556 0.0
H1725 H 0.11789 0.55598 0.65248 0.0
H1726 H 0.0224 0.50776 0.4761 0.0
H1727 H 0.07314 0.4396 0.55926 0.0
H1728 H 0.12997 0.5186 0.64738 0.0
H1729 H 0.12494 0.48042 0.62565 0.0
H1730 H 0.01747 0.63857 0.51196 0.0
H1731 H 0.1039 0.45089 0.5928 0.0
H1732 H 0.96502 0.51595 0.43097 0.0
N1733 N 0.02345 0.5845 0.49905 0.0
C1734 C 1.00589 0.57711 0.48152 0.0
C1735 C 0.01394 0.62129 0.5033 0.0
C1736 C 0.99136 0.5915 0.47436 0.0
C1737 C 0.02764 0.60628 0.51 0.0
C1738 C 0.99567 0.61386 0.48542 0.0
N1739 N 0.01615 0.54146 0.47929 0.0
C1740 C 1.0121 0.51903 0.47012 0.0
C1741 C 0.98328 0.54614 0.45375 0.0
C1742 C 1.00207 0.55484 0.47128 0.0
C1743 C 0.97932 0.5233 0.44437 0.0
C1744 C 0.9938 0.50971 0.45262 0.0
H1745 H 0.98495 0.62547 0.48038 0.0
H1746 H 0.96146 0.59379 0.45101 0.0
H1747 H 0.95426 0.55396 0.43306 0.0
O1748 O 0.06893 0.55723 0.48571 0.0
O1749 O 1.01162 0.54816 0.51928 0.0
O1750 O 0.02361 0.51904 0.53351 0.0
O1751 O 0.06763 0.58923 0.50509 0.0
O1752 O 0.05521 0.52539 0.50142 0.0
O1753 O 0.04695 0.50086 0.53048 0.0
O1754 O 0.01987 0.52217 0.58807 0.0
O1755 O 0.08048 0.53552 0.56383 0.0
O1756 O 0.05925 0.54731 0.53843 0.0
O1757 O 0.02534 0.48946 0.5746 0.0
O1758 O 0.03606 0.55398 0.57228 0.0
O1759 O 0.04817 0.5788 0.54461 0.0
C1760 C 1.00785 0.53098 0.53121 0.0
C1761 C 0.0771 0.5892 0.46625 0.0
C1762 C 0.08911 0.58748 0.42735 0.0
C1763 C 0.07969 0.60647 0.42329 0.0
C1764 C 0.06779 0.60817 0.46207 0.0
C1765 C 0.06903 0.61666 0.44057 0.0
C1766 C 0.08744 0.57891 0.44881 0.0
C1767 C 0.05348 0.50517 0.50951 0.0
C1768 C 0.07611 0.57917 0.48824 0.0
C1769 C 0.97286 0.58303 0.45669 0.0
C1770 C 0.96878 0.56037 0.44645 0.0
C1771 C 0.07985 0.54797 0.54734 0.0
C1772 C 1.01343 0.49306 0.61217 0.0
C1773 C 0.99651 0.49474 0.64838 0.0
C1774 C 1.00756 0.4778 0.65568 0.0
C1775 C 0.02476 0.47634 0.61975 0.0
C1776 C 0.99955 0.50235 0.62671 0.0
C1777 C 0.0218 0.46879 0.64145 0.0
C1778 C 0.0404 0.57464 0.565 0.0
C1779 C 0.01482 0.50037 0.58886 0.0
H1780 H 0.08094 0.61374 0.40702 0.0
H1781 H 0.05959 0.61637 0.47526 0.0
H1782 H 0.06188 0.63131 0.43736 0.0
H1783 H 0.09405 0.56392 0.45202 0.0
H1784 H 1.00531 0.47173 0.67243 0.0
H1785 H 0.03567 0.46892 0.60888 0.0
H1786 H 0.99066 0.51517 0.62093 0.0
H1787 H 0.03042 0.45583 0.64718 0.0
Tb1788 Tb 0.82029 0.77723 0.28539 0.0
C1789 C 0.74083 0.81512 0.23727 0.0
N1790 N 0.75577 0.8236 0.257 0.0
C1791 C 0.76141 0.86075 0.24461 0.0
C1792 C 0.73643 0.829 0.21992 0.0
C1793 C 0.76519 0.84635 0.26136 0.0
C1794 C 0.74723 0.85199 0.22365 0.0
C1795 C 0.71421 0.78299 0.21433 0.0
C1796 C 0.72976 0.79239 0.23455 0.0
C1797 C 0.71014 0.79666 0.19679 0.0
C1798 C 0.72123 0.81959 0.19957 0.0
Tb1799 Tb 0.76072 0.79789 0.28243 0.0
N1800 N 0.7346 0.77945 0.25157 0.0
C1801 C 0.70321 0.76012 0.21238 0.0
C1802 C 0.72336 0.75736 0.25011 0.0
C1803 C 0.70764 0.74733 0.23046 0.0
H1804 H 0.77542 0.85371 0.27784 0.0
H1805 H 0.69885 0.72977 0.22932 0.0
H1806 H 0.80691 0.72332 0.29853 0.0
H1807 H 0.88504 0.84857 0.32744 0.0
H1808 H 0.72608 0.74752 0.26421 0.0
H1809 H 0.69108 0.75227 0.19715 0.0
H1810 H 0.85702 0.82612 0.29487 0.0
H1811 H 0.76927 0.87866 0.248 0.0
H1812 H 0.69835 0.78969 0.18106 0.0
H1813 H 0.71776 0.82997 0.18597 0.0
H1814 H 0.81315 0.70358 0.33271 0.0
H1815 H 0.7443 0.86322 0.21074 0.0
H1816 H 0.89182 0.83248 0.36461 0.0
N1817 N 0.82511 0.75592 0.31557 0.0
C1818 C 0.83989 0.76696 0.33463 0.0
C1819 C 0.8204 0.72154 0.33367 0.0
C1820 C 0.84462 0.75598 0.35438 0.0
C1821 C 0.8164 0.73309 0.31442 0.0
C1822 C 0.83424 0.73312 0.3539 0.0
N1823 N 0.8467 0.79883 0.31426 0.0
C1824 C 0.85936 0.81943 0.31132 0.0
C1825 C 0.8675 0.80085 0.35264 0.0
C1826 C 0.85139 0.789 0.33379 0.0
C1827 C 0.87932 0.82277 0.35049 0.0
C1828 C 0.87547 0.83196 0.32958 0.0
H1829 H 0.83751 0.72403 0.36866 0.0
H1830 H 0.86381 0.75982 0.38901 0.0
H1831 H 0.8837 0.7992 0.38755 0.0
O1832 O 0.84532 0.78584 0.26186 0.0
O1833 O 0.81373 0.8005 0.31519 0.0
O1834 O 0.77567 0.78837 0.31544 0.0
O1835 O 0.84302 0.756 0.27992 0.0
O1836 O 0.8166 0.80717 0.26787 0.0
O1837 O 0.7929 0.8239 0.28937 0.0
O1838 O 0.72704 0.79276 0.29179 0.0
O1839 O 0.77331 0.78805 0.24827 0.0
O1840 O 0.79455 0.76108 0.2556 0.0
O1841 O 0.75185 0.82436 0.30388 0.0
O1842 O 0.75892 0.76418 0.29402 0.0
O1843 O 0.78914 0.7494 0.28095 0.0
C1844 C 0.79583 0.79816 0.32665 0.0
C1845 C 0.87373 0.76135 0.25597 0.0
C1846 C 0.9046 0.76527 0.23097 0.0
C1847 C 0.91127 0.74635 0.23953 0.0
C1848 C 0.88111 0.74245 0.26394 0.0
C1849 C 0.89967 0.73512 0.25584 0.0
C1850 C 0.88579 0.77304 0.23945 0.0
C1851 C 0.81032 0.82539 0.27713 0.0
C1852 C 0.85388 0.76827 0.26593 0.0
C1853 C 0.86012 0.76793 0.37361 0.0
C1854 C 0.8715 0.79033 0.37276 0.0
C1855 C 0.78271 0.77095 0.24084 0.0
C1856 C 0.71427 0.82159 0.31719 0.0
C1857 C 0.68201 0.81696 0.34026 0.0
C1858 C 0.68363 0.84056 0.3424 0.0
C1859 C 0.71547 0.84513 0.3199 0.0
C1860 C 0.69736 0.80738 0.32745 0.0
C1861 C 0.70021 0.85448 0.33232 0.0
C1862 C 0.76907 0.74715 0.28904 0.0
C1863 C 0.73135 0.81256 0.30436 0.0
H1864 H 0.9257 0.74021 0.23356 0.0
H1865 H 0.87257 0.73321 0.27668 0.0
H1866 H 0.9051 0.72059 0.26225 0.0
H1867 H 0.8805 0.78766 0.23309 0.0
H1868 H 0.67199 0.84826 0.35201 0.0
H1869 H 0.72823 0.85636 0.3123 0.0
H1870 H 0.69629 0.78919 0.32568 0.0
H1871 H 0.70126 0.87266 0.33418 0.0
Tb1872 Tb 0.77671 0.2879 0.81057 0.0
C1873 C 0.8365 0.25261 0.72533 0.0
N1874 N 0.84332 0.26842 0.74452 0.0
C1875 C 0.87959 0.25745 0.74968 0.0
C1876 C 0.85075 0.23805 0.71798 0.0
C1877 C 0.86484 0.27148 0.75622 0.0
C1878 C 0.87242 0.24045 0.73063 0.0
C1879 C 0.80749 0.2351 0.69281 0.0
C1880 C 0.81526 0.25126 0.71286 0.0
C1881 C 0.82142 0.22027 0.68563 0.0
C1882 C 0.84301 0.22176 0.69818 0.0
Tb1883 Tb 0.81764 0.29 0.75442 0.0
N1884 N 0.802 0.26549 0.72082 0.0
C1885 C 0.78597 0.23431 0.6806 0.0
C1886 C 0.78139 0.26538 0.70821 0.0
C1887 C 0.77299 0.24967 0.6882 0.0
H1888 H 0.871 0.28547 0.76987 0.0
H1889 H 0.75651 0.24954 0.67857 0.0
H1890 H 0.72477 0.29388 0.79119 0.0
H1891 H 0.84008 0.33623 0.88144 0.0
H1892 H 0.77123 0.27736 0.713 0.0
H1893 H 0.77936 0.22213 0.66512 0.0
H1894 H 0.82543 0.30627 0.84926 0.0
H1895 H 0.89661 0.25998 0.75911 0.0
H1896 H 0.81569 0.20768 0.67034 0.0
H1897 H 0.85365 0.21033 0.69234 0.0
H1898 H 0.69924 0.31987 0.80014 0.0
H1899 H 0.8839 0.22964 0.72553 0.0
H1900 H 0.81657 0.36354 0.89328 0.0
N1901 N 0.75144 0.31048 0.81824 0.0
C1902 C 0.75824 0.32741 0.83638 0.0
C1903 C 0.71583 0.32225 0.81043 0.0
C1904 C 0.74422 0.3428 0.842 0.0
C1905 C 0.73047 0.30761 0.80532 0.0
C1906 C 0.72277 0.33999 0.82879 0.0
N1907 N 0.79289 0.31501 0.84214 0.0
C1908 C 0.81439 0.31731 0.85387 0.0
C1909 C 0.78778 0.34774 0.86719 0.0
C1910 C 0.77967 0.32976 0.84879 0.0
C1911 C 0.80971 0.34998 0.87908 0.0
C1912 C 0.82302 0.33463 0.87241 0.0
H1913 H 0.71149 0.35144 0.83256 0.0
H1914 H 0.74171 0.37272 0.86484 0.0
H1915 H 0.77993 0.37708 0.88688 0.0
O1916 O 0.77693 0.26251 0.83243 0.0
O1917 O 0.78846 0.32165 0.80178 0.0
O1918 O 0.81823 0.31055 0.78774 0.0
O1919 O 0.74536 0.26651 0.81379 0.0
O1920 O 0.81056 0.2781 0.81874 0.0
O1921 O 0.83573 0.28615 0.79007 0.0
O1922 O 0.81609 0.31606 0.73333 0.0
O1923 O 0.8015 0.25464 0.75543 0.0
O1924 O 0.78941 0.27467 0.78142 0.0
O1925 O 0.84841 0.30976 0.74743 0.0
O1926 O 0.78308 0.30008 0.749 0.0
O1927 O 0.75783 0.28401 0.77444 0.0
C1928 C 0.80622 0.32613 0.79066 0.0
C1929 C 0.74497 0.25624 0.85218 0.0
C1930 C 0.74784 0.2462 0.89173 0.0
C1931 C 0.73114 0.25851 0.89694 0.0
C1932 C 0.72805 0.26835 0.85735 0.0
C1933 C 0.72109 0.26931 0.87966 0.0
C1934 C 0.75438 0.24483 0.86929 0.0
C1935 C 0.83105 0.27971 0.81107 0.0
C1936 C 0.75475 0.25673 0.83006 0.0
C1937 C 0.75217 0.36064 0.86035 0.0
C1938 C 0.77392 0.36312 0.87291 0.0
C1939 C 0.78889 0.25443 0.77181 0.0
C1940 C 0.84518 0.32017 0.70925 0.0
C1941 C 0.84251 0.33409 0.67138 0.0
C1942 C 0.85534 0.31861 0.66304 0.0
C1943 C 0.85819 0.30489 0.70083 0.0
C1944 C 0.83763 0.33484 0.69454 0.0
C1945 C 0.86322 0.30417 0.6778 0.0
C1946 C 0.76206 0.29393 0.75528 0.0
C1947 C 0.83804 0.32033 0.73272 0.0
H1948 H 0.72575 0.25955 0.91423 0.0
H1949 H 0.72052 0.27738 0.84442 0.0
H1950 H 0.70812 0.2787 0.88366 0.0
H1951 H 0.76754 0.23557 0.8654 0.0
H1952 H 0.85937 0.3178 0.64521 0.0
H1953 H 0.86433 0.2934 0.71185 0.0
H1954 H 0.82728 0.34636 0.70093 0.0
H1955 H 0.87312 0.2923 0.67133 0.0
Tb1956 Tb 0.77971 0.76604 0.76854 0.0
C1957 C 0.85899 0.83366 0.82726 0.0
N1958 N 0.83763 0.82442 0.8319 0.0
C1959 C 0.85315 0.8208 0.87108 0.0
C1960 C 0.87828 0.83633 0.84426 0.0
C1961 C 0.83449 0.81862 0.85378 0.0
C1962 C 0.87514 0.82955 0.86628 0.0
C1963 C 0.88327 0.85062 0.80004 0.0
C1964 C 0.86149 0.84079 0.8054 0.0
C1965 C 0.90251 0.8531 0.81687 0.0
C1966 C 0.90002 0.84599 0.83891 0.0
Tb1967 Tb 0.80871 0.82398 0.80239 0.0
N1968 N 0.84254 0.83784 0.78933 0.0
C1969 C 0.88504 0.85789 0.77799 0.0
C1970 C 0.84405 0.84627 0.76845 0.0
C1971 C 0.86529 0.85592 0.76223 0.0
H1972 H 0.81766 0.81339 0.85859 0.0
H1973 H 0.86636 0.86231 0.7455 0.0
H1974 H 0.7685 0.77496 0.7122 0.0
H1975 H 0.7275 0.71865 0.82441 0.0
H1976 H 0.82894 0.84654 0.75696 0.0
H1977 H 0.90146 0.86556 0.77321 0.0
H1978 H 0.76315 0.73908 0.81287 0.0
H1979 H 0.85047 0.8162 0.88832 0.0
H1980 H 0.91938 0.86064 0.81307 0.0
H1981 H 0.915 0.84821 0.85178 0.0
H1982 H 0.73504 0.76835 0.68245 0.0
H1983 H 0.88951 0.83144 0.87984 0.0
H1984 H 0.69146 0.71239 0.7974 0.0
N1985 N 0.74988 0.76176 0.739 0.0
C1986 C 0.72932 0.75044 0.74378 0.0
C1987 C 0.73312 0.76353 0.69976 0.0
C1988 C 0.70977 0.74562 0.72682 0.0
C1989 C 0.75209 0.76775 0.71703 0.0
C1990 C 0.71185 0.75258 0.7047 0.0
N1991 N 0.74737 0.74737 0.78122 0.0
C1992 C 0.74747 0.73803 0.80171 0.0
C1993 C 0.70732 0.73033 0.77089 0.0
C1994 C 0.72806 0.74283 0.7655 0.0
C1995 C 0.70703 0.72214 0.79263 0.0
C1996 C 0.72729 0.72576 0.80798 0.0
H1997 H 0.69727 0.74909 0.69116 0.0
H1998 H 0.67378 0.72969 0.71942 0.0
H1999 H 0.67164 0.71634 0.75803 0.0
O2000 O 0.79256 0.73762 0.77742 0.0
O2001 O 0.75338 0.78534 0.78127 0.0
O2002 O 0.77171 0.81629 0.80826 0.0
O2003 O 0.7756 0.73835 0.74218 0.0
O2004 O 0.79626 0.76767 0.80527 0.0
O2005 O 0.79106 0.80062 0.82444 0.0
O2006 O 0.8063 0.85682 0.79549 0.0
O2007 O 0.83223 0.80016 0.79256 0.0
O2008 O 0.81443 0.77859 0.75848 0.0
O2009 O 0.81454 0.84996 0.83068 0.0
O2010 O 0.79197 0.82498 0.76602 0.0
O2011 O 0.79405 0.79092 0.74602 0.0
C2012 C 0.75252 0.80254 0.79742 0.0
C2013 C 0.78951 0.70431 0.74881 0.0
C2014 C 0.80354 0.67093 0.75806 0.0
C2015 C 0.79647 0.66075 0.73482 0.0
C2016 C 0.78264 0.6941 0.72552 0.0
C2017 C 0.78619 0.67241 0.71859 0.0
C2018 C 0.80018 0.69272 0.76495 0.0
C2019 C 0.79211 0.77918 0.82442 0.0
C2020 C 0.78595 0.7271 0.75622 0.0
C2021 C 0.68896 0.73355 0.73224 0.0
C2022 C 0.68773 0.72593 0.75423 0.0
C2023 C 0.83357 0.7878 0.77254 0.0
C2024 C 0.79231 0.87738 0.82555 0.0
C2025 C 0.76444 0.90028 0.81654 0.0
C2026 C 0.75937 0.90096 0.8397 0.0
C2027 C 0.78741 0.87844 0.84884 0.0
C2028 C 0.78096 0.88863 0.80962 0.0
C2029 C 0.77096 0.89016 0.85581 0.0
C2030 C 0.79247 0.81225 0.74612 0.0
C2031 C 0.80923 0.86479 0.81765 0.0
H2032 H 0.7991 0.64392 0.72923 0.0
H2033 H 0.77458 0.70286 0.71268 0.0
H2034 H 0.78092 0.66461 0.70063 0.0
H2035 H 0.80558 0.70044 0.78297 0.0
H2036 H 0.7469 0.91028 0.84544 0.0
H2037 H 0.79621 0.8702 0.86164 0.0
H2038 H 0.78484 0.88826 0.79171 0.0
H2039 H 0.76727 0.89098 0.87376 0.0
Tb2040 Tb 0.5672 0.54957 0.54996 0.0
C2041 C 0.4966 0.47113 0.49091 0.0
N2042 N 0.50635 0.49223 0.48624 0.0
C2043 C 0.50794 0.47693 0.44653 0.0
C2044 C 0.49239 0.4521 0.47356 0.0
C2045 C 0.51154 0.49536 0.46416 0.0
C2046 C 0.4984 0.4552 0.45125 0.0
C2047 C 0.47991 0.44716 0.51848 0.0
C2048 C 0.49039 0.46867 0.51312 0.0
C2049 C 0.47578 0.4282 0.50125 0.0
C2050 C 0.482 0.43066 0.47886 0.0
Tb2051 Tb 0.50879 0.52098 0.51619 0.0
N2052 N 0.49487 0.48735 0.52953 0.0
C2053 C 0.47372 0.44537 0.54094 0.0
C2054 C 0.48771 0.4858 0.55103 0.0
C2055 C 0.4775 0.46482 0.55722 0.0
H2056 H 0.51745 0.51209 0.45951 0.0
H2057 H 0.47208 0.46376 0.5744 0.0
H2058 H 0.55702 0.56246 0.60535 0.0
H2059 H 0.61859 0.5987 0.49474 0.0
H2060 H 0.4889 0.50064 0.56321 0.0
H2061 H 0.4656 0.42916 0.54573 0.0
H2062 H 0.59695 0.56396 0.50676 0.0
H2063 H 0.51206 0.47959 0.42913 0.0
H2064 H 0.46767 0.41157 0.50503 0.0
H2065 H 0.47855 0.41588 0.46571 0.0
H2066 H 0.56297 0.59648 0.63393 0.0
H2067 H 0.49536 0.44102 0.43743 0.0
H2068 H 0.62388 0.63537 0.52003 0.0
N2069 N 0.57113 0.58 0.57837 0.0
C2070 C 0.58276 0.60014 0.57314 0.0
C2071 C 0.56831 0.59782 0.61676 0.0
C2072 C 0.58726 0.62 0.58943 0.0
C2073 C 0.56446 0.57853 0.60015 0.0
C2074 C 0.5796 0.61869 0.61133 0.0
N2075 N 0.58693 0.58095 0.53672 0.0
C2076 C 0.59755 0.57995 0.51706 0.0
C2077 C 0.60418 0.62083 0.54605 0.0
C2078 C 0.59101 0.6006 0.55166 0.0
C2079 C 0.61355 0.62023 0.52493 0.0
C2080 C 0.6105 0.5996 0.51055 0.0
H2081 H 0.58283 0.63353 0.62438 0.0
H2082 H 0.60344 0.65576 0.59595 0.0
H2083 H 0.61832 0.65647 0.55799 0.0
O2084 O 0.59593 0.53684 0.54248 0.0
O2085 O 0.54665 0.5753 0.5391 0.0
O2086 O 0.51888 0.55716 0.50863 0.0
O2087 O 0.59432 0.55376 0.57745 0.0
O2088 O 0.56595 0.53367 0.513 0.0
O2089 O 0.53221 0.53775 0.49362 0.0
O2090 O 0.47683 0.52557 0.5246 0.0
O2091 O 0.5321 0.49706 0.52603 0.0
O2092 O 0.55464 0.51502 0.55967 0.0
O2093 O 0.48146 0.51543 0.48907 0.0
O2094 O 0.50835 0.53806 0.55235 0.0
O2095 O 0.54229 0.53509 0.57226 0.0
C2096 C 0.53135 0.5762 0.521 0.0
C2097 C 0.62864 0.53962 0.57174 0.0
C2098 C 0.66076 0.52314 0.56328 0.0
C2099 C 0.67049 0.52876 0.58679 0.0
C2100 C 0.63842 0.54545 0.59531 0.0
C2101 C 0.65935 0.54003 0.60275 0.0
C2102 C 0.64003 0.52866 0.55578 0.0
C2103 C 0.55384 0.537 0.49372 0.0
C2104 C 0.60594 0.54339 0.5639 0.0
C2105 C 0.59979 0.64035 0.58363 0.0
C2106 C 0.60825 0.64076 0.562 0.0
C2107 C 0.54526 0.49601 0.54574 0.0
C2108 C 0.45528 0.53904 0.49483 0.0
C2109 C 0.43159 0.56603 0.50377 0.0
C2110 C 0.43197 0.57231 0.48112 0.0
C2111 C 0.45535 0.54515 0.47199 0.0
C2112 C 0.44302 0.5493 0.51044 0.0
C2113 C 0.44369 0.56172 0.46523 0.0
C2114 C 0.52089 0.53683 0.5722 0.0
C2115 C 0.46769 0.52201 0.50274 0.0
H2116 H 0.68657 0.52436 0.59272 0.0
H2117 H 0.62977 0.5538 0.60799 0.0
H2118 H 0.66679 0.54434 0.62094 0.0
H2119 H 0.63262 0.5239 0.53757 0.0
H2120 H 0.42285 0.58504 0.47564 0.0
H2121 H 0.46441 0.53721 0.45941 0.0
H2122 H 0.44251 0.54447 0.52797 0.0
H2123 H 0.44372 0.56635 0.44764 0.0
Tb2124 Tb 1.01309 0.54077 0.05028 0.0
C2125 C 0.09766 0.58959 1.00092 0.0
N2126 N 0.08327 0.56891 0.99467 0.0
C2127 C 0.08089 0.5753 0.95423 0.0
C2128 C 0.10352 0.60421 0.98403 0.0
C2129 C 0.07604 0.56113 0.97146 0.0
C2130 C 0.09437 0.59707 0.96057 0.0
C2131 C 0.12443 0.61585 0.03071 0.0
C2132 C 0.1079 0.59553 0.02408 0.0
C2133 C 0.12955 0.6308 0.01411 0.0
C2134 C 0.11902 0.62506 0.99087 0.0
Tb2135 Tb 0.07709 0.5482 0.02527 0.0
N2136 N 0.1021 0.58106 0.04002 0.0
C2137 C 0.13555 0.62034 0.05378 0.0
C2138 C 0.11388 0.58464 0.06206 0.0
C2139 C 0.13044 0.60452 0.06942 0.0
H2140 H 0.06686 0.54386 0.9659 0.0
H2141 H 0.13945 0.60749 0.08705 0.0
H2142 H 0.02573 0.53928 0.10895 0.0
H2143 H 0.95444 0.4833 0.98322 0.0
H2144 H 0.11071 0.57202 0.07377 0.0
H2145 H 0.14841 0.63572 0.05952 0.0
H2146 H 0.98196 0.51877 0.99931 0.0
H2147 H 0.07466 0.56921 0.93597 0.0
H2148 H 0.14196 0.64664 0.01895 0.0
H2149 H 0.12355 0.63656 0.97815 0.0
H2150 H 0.01682 0.51166 0.13624 0.0
H2151 H 0.09841 0.60784 0.94711 0.0
H2152 H 0.94397 0.45362 0.00881 0.0
N2153 N 1.00744 0.51719 0.07862 0.0
C2154 C 0.99215 0.49725 0.071 0.0
C2155 C 1.0101 0.50723 0.11787 0.0
C2156 C 0.98598 0.48123 0.08651 0.0
C2157 C 0.01559 0.52272 0.10199 0.0
C2158 C 0.99547 0.48631 0.11007 0.0
N2159 N 0.98825 0.50868 0.03295 0.0
C2160 C 0.97811 0.50569 0.0103 0.0
C2161 C 0.96605 0.47266 0.03936 0.0
C2162 C 0.98202 0.49303 0.04766 0.0
C2163 C 0.95631 0.46906 0.01583 0.0
C2164 C 0.96225 0.48572 1.00129 0.0
H2165 H 0.9911 0.47446 0.12251 0.0
H2166 H 0.96535 0.44837 0.0899 0.0
H2167 H 0.94807 0.44082 0.04866 0.0
O2168 O 0.98312 0.55234 0.03671 0.0
O2169 O 0.02325 0.50837 0.03468 0.0
O2170 O 0.05513 0.51342 0.01359 0.0
O2171 O 0.99342 0.55267 0.07408 0.0
O2172 O 0.02567 0.55613 0.0207 0.0
O2173 O 0.04759 0.53894 0.9987 0.0
O2174 O 0.10137 0.53234 0.0426 0.0
O2175 O 0.06886 0.58104 0.04237 0.0
O2176 O 0.03249 0.57645 0.05503 0.0
O2177 O 0.10362 0.54014 0.00753 0.0
O2178 O 0.06255 0.53406 0.0542 0.0
O2179 O 0.04233 0.55147 0.07712 0.0
C2180 C 0.03738 0.50019 0.02106 0.0
C2181 C 0.95868 0.56591 0.06515 0.0
C2182 C 0.92988 0.58945 0.06107 0.0
C2183 C 0.92406 0.58494 0.08323 0.0
C2184 C 0.95206 0.56157 0.08714 0.0
C2185 C 0.93494 0.571 0.09603 0.0
C2186 C 0.94717 0.57969 0.05181 0.0
C2187 C 0.02819 0.54493 1.0011 0.0
C2188 C 0.97884 0.55737 0.05806 0.0
C2189 C 0.9702 0.46085 0.07821 0.0
C2190 C 0.96029 0.45658 0.05473 0.0
C2191 C 0.05222 0.58939 0.05174 0.0
C2192 C 0.11699 0.50777 0.01701 0.0
C2193 C 0.14166 0.4801 0.01925 0.0
C2194 C 0.12682 0.46574 1.001 0.0
C2195 C 0.10272 0.4932 0.99851 0.0
C2196 C 0.13673 0.50125 0.02725 0.0
C2197 C 0.10754 0.47231 0.99067 0.0
C2198 C 0.0617 0.54615 0.07372 0.0
C2199 C 0.11206 0.5303 0.02433 0.0
H2200 H 0.91085 0.59216 0.09059 0.0
H2201 H 0.96041 0.55106 0.09776 0.0
H2202 H 0.93022 0.56763 0.11307 0.0
H2203 H 0.95207 0.58335 0.0349 0.0
H2204 H 0.13047 0.4496 0.99438 0.0
H2205 H 0.08808 0.49826 0.98976 0.0
H2206 H 0.14824 0.51259 0.04111 0.0
H2207 H 0.09646 0.46129 0.97631 0.0
H2208 H 0.03145 0.22557 0.0077 0.0
H2209 H 1.00074 0.19059 0.93992 0.0
H2210 H 0.03606 0.18943 0.02104 0.0
H2211 H 1.00546 0.15434 0.95302 0.0
H2212 H 1.00188 0.08649 0.98542 0.0
H2213 H 0.99716 0.1226 0.97228 0.0
H2214 H 0.05217 0.15803 0.02505 0.0
H2215 H 0.05626 0.12184 0.03849 0.0
C2216 C 0.02563 0.21023 0.99541 0.0
C2217 C 0.01558 0.21186 0.97243 0.0
C2218 C 0.02844 0.18902 1.00315 0.0
C2219 C 0.02126 0.16779 0.98854 0.0
C2220 C 1.01117 0.16952 0.9655 0.0
C2221 C 1.00851 0.19077 0.95773 0.0
C2222 C 1.01297 0.10189 0.9945 0.0
C2223 C 0.02948 0.10031 0.01342 0.0
C2224 C 1.0104 0.1231 0.98665 0.0
C2225 C 0.02415 0.14443 0.99715 0.0
C2226 C 0.04071 0.14278 0.01613 0.0
C2227 C 0.04329 0.12152 0.02394 0.0
H2228 H 0.14792 0.77885 0.13951 0.0
H2229 H 0.14214 0.83762 0.18541 0.0
H2230 H 0.18184 0.77513 0.16541 0.0
H2231 H 0.17672 0.83456 0.21065 0.0
H2232 H 0.25615 0.83134 0.23211 0.0
H2233 H 0.22273 0.83574 0.20577 0.0
H2234 H 0.18881 0.76746 0.21222 0.0
H2235 H 0.22167 0.76351 0.23945 0.0
C2236 C 0.15417 0.79136 0.15478 0.0
C2237 C 0.14226 0.80879 0.15999 0.0
C2238 C 0.17358 0.78908 0.16981 0.0
C2239 C 0.18228 0.80457 0.19024 0.0
C2240 C 0.17076 0.82237 0.19509 0.0
C2241 C 0.15089 0.82417 0.1805 0.0
C2242 C 0.24156 0.81727 0.22796 0.0
C2243 C 0.24177 0.79707 0.23809 0.0
C2244 C 0.22231 0.81981 0.21286 0.0
C2245 C 0.2029 0.80195 0.20662 0.0
C2246 C 0.20334 0.7816 0.21642 0.0
C2247 C 0.22223 0.77935 0.23217 0.0
H2248 H 0.51205 0.86511 0.43738 0.0
H2249 H 0.52183 0.84531 0.50676 0.0
H2250 H 0.51743 0.90396 0.4534 0.0
H2251 H 0.52771 0.88593 0.52326 0.0
H2252 H 0.51774 0.96312 0.54285 0.0
H2253 H 0.51226 0.92198 0.53072 0.0
H2254 H 0.54491 0.93598 0.46948 0.0
H2255 H 0.54922 0.97655 0.48096 0.0
C2256 C 0.51559 0.86875 0.45629 0.0
C2257 C 0.51665 0.85092 0.47036 0.0
C2258 C 0.5189 0.89177 0.46562 0.0
C2259 C 0.52362 0.89907 0.48985 0.0
C2260 C 0.52422 0.88148 0.50443 0.0
C2261 C 0.52088 0.85791 0.4949 0.0
C2262 C 0.52348 0.95748 0.52659 0.0
C2263 C 0.53387 0.97384 0.51296 0.0
C2264 C 0.52061 0.93359 0.51973 0.0
C2265 C 0.52788 0.92482 0.4988 0.0
C2266 C 0.53853 0.94133 0.48547 0.0
C2267 C 0.54137 0.96504 0.4923 0.0
H2268 H 0.49706 0.25897 0.63786 0.0
H2269 H 0.52105 0.3301 0.6631 0.0
H2270 H 0.46553 0.25727 0.66076 0.0
H2271 H 0.48879 0.32859 0.68631 0.0
H2272 H 0.44082 0.30212 0.74388 0.0
H2273 H 0.47202 0.31181 0.72017 0.0
H2274 H 0.43 0.27019 0.66004 0.0
H2275 H 0.39924 0.26043 0.68383 0.0
C2276 C 0.49545 0.27438 0.6481 0.0
C2277 C 0.5114 0.29473 0.64824 0.0
C2278 C 0.47721 0.27345 0.66127 0.0
C2279 C 0.47408 0.29293 0.67497 0.0
C2280 C 0.49054 0.31326 0.67587 0.0
C2281 C 0.50904 0.31413 0.66265 0.0
C2282 C 0.43799 0.29591 0.72533 0.0
C2283 C 0.41747 0.28079 0.71561 0.0
C2284 C 0.45594 0.30128 0.71177 0.0
C2285 C 0.45382 0.29135 0.68828 0.0
C2286 C 0.43251 0.27777 0.67818 0.0
C2287 C 0.41466 0.27248 0.69167 0.0
H2288 H 0.01916 0.84164 0.69627 0.0
H2289 H 0.0565 0.80708 0.65002 0.0
H2290 H 0.02078 0.8721 0.6717 0.0
H2291 H 0.05978 0.83836 0.62618 0.0
H2292 H 0.0561 0.89451 0.58028 0.0
H2293 H 0.04556 0.86041 0.59965 0.0
H2294 H 0.0455 0.90324 0.66433 0.0
H2295 H 0.05496 0.93663 0.64472 0.0
C2296 C 0.02787 0.84066 0.68087 0.0
C2297 C 0.03782 0.82202 0.67522 0.0
C2298 C 0.02902 0.85828 0.66677 0.0
C2299 C 0.04087 0.85826 0.64696 0.0
C2300 C 0.05028 0.83915 0.641 0.0
C2301 C 0.04856 0.82119 0.65479 0.0
C2302 C 0.05318 0.89646 0.59846 0.0
C2303 C 0.05636 0.91829 0.61097 0.0
C2304 C 0.04746 0.87691 0.60975 0.0
C2305 C 0.04474 0.87873 0.63383 0.0
C2306 C 0.047 0.90072 0.64582 0.0
C2307 C 0.05264 0.92007 0.63459 0.0
H2308 H 0.4908 0.79924 0.81593 0.0
H2309 H 0.4821 0.84395 0.87545 0.0
H2310 H 0.44998 0.79452 0.80101 0.0
H2311 H 0.44162 0.83985 0.86036 0.0
H2312 H 0.37053 0.84076 0.8176 0.0
H2313 H 0.41198 0.84749 0.82992 0.0
H2314 H 0.4105 0.77678 0.8092 0.0
H2315 H 0.36912 0.77012 0.79736 0.0
C2316 C 0.48046 0.80861 0.82564 0.0
C2317 C 0.49058 0.82256 0.84683 0.0
C2318 C 0.45665 0.80567 0.81715 0.0
C2319 C 0.44163 0.81672 0.82921 0.0
C2320 C 0.452 0.83105 0.85009 0.0
C2321 C 0.47557 0.8335 0.85884 0.0
C2322 C 0.37892 0.82663 0.81539 0.0
C2323 C 0.3657 0.80485 0.80612 0.0
C2324 C 0.40302 0.83045 0.82274 0.0
C2325 C 0.41548 0.8128 0.82074 0.0
C2326 C 0.40225 0.79111 0.81107 0.0
C2327 C 0.37812 0.78722 0.8043 0.0
H2328 H 0.50078 0.16863 0.1799 0.0
H2329 H 0.54217 0.21391 0.1413 0.0
H2330 H 0.50361 0.13625 0.1521 0.0
H2331 H 0.54632 0.18201 0.11431 0.0
H2332 H 0.54272 0.12375 0.05813 0.0
H2333 H 0.53621 0.15494 0.08421 0.0
H2334 H 0.52021 0.10947 0.13581 0.0
H2335 H 0.52437 0.07782 0.10834 0.0
C2336 C 0.51061 0.17167 0.1655 0.0
C2337 C 0.5208 0.19408 0.16271 0.0
C2338 C 0.51248 0.15294 0.14943 0.0
C2339 C 0.52522 0.15576 0.13023 0.0
C2340 C 0.53581 0.17838 0.12803 0.0
C2341 C 0.53357 0.19701 0.1438 0.0
C2342 C 0.53725 0.1201 0.0747 0.0
C2343 C 0.53383 0.09767 0.08043 0.0
C2344 C 0.53394 0.13844 0.09028 0.0
C2345 C 0.52778 0.13555 0.11292 0.0
C2346 C 0.52452 0.11305 0.11872 0.0
C2347 C 0.52721 0.09459 0.10281 0.0
H2348 H 0.12856 0.31044 0.37439 0.0
H2349 H 0.11263 0.33494 0.30869 0.0
H2350 H 0.16477 0.30348 0.36215 0.0
H2351 H 0.14844 0.32751 0.29626 0.0
H2352 H 0.20673 0.29245 0.2706 0.0
H2353 H 0.1706 0.29928 0.28312 0.0
H2354 H 0.20394 0.31947 0.3539 0.0
H2355 H 0.24006 0.31304 0.34125 0.0
C2356 C 0.13257 0.31446 0.35731 0.0
C2357 C 0.11688 0.32359 0.34291 0.0
C2358 C 0.15374 0.31044 0.35016 0.0
C2359 C 0.16043 0.31473 0.32787 0.0
C2360 C 0.14458 0.32361 0.31342 0.0
C2361 C 0.1237 0.32809 0.32076 0.0
C2362 C 0.20658 0.29841 0.28887 0.0
C2363 C 0.22716 0.30224 0.30459 0.0
C2364 C 0.18552 0.3025 0.29619 0.0
C2365 C 0.18346 0.31017 0.31984 0.0
C2366 C 0.20399 0.31353 0.3356 0.0
C2367 C 0.22514 0.30992 0.32819 0.0
H2368 H 0.95427 0.98501 0.1905 0.0
H2369 H 0.9807 0.05579 0.21559 0.0
H2370 H 0.96927 0.99052 0.15307 0.0
H2371 H 0.99461 0.06161 0.17762 0.0
H2372 H 0.98958 0.0596 0.0916 0.0
H2373 H 0.9742 0.05536 0.12923 0.0
H2374 H 0.01396 1.00499 0.14227 0.0
H2375 H 0.03007 0.00999 0.10554 0.0
C2376 C 0.96309 1.00182 0.18798 0.0
C2377 C 0.96631 0.01989 0.2063 0.0
C2378 C 0.97172 1.005 0.16645 0.0
C2379 C 0.98313 0.02657 0.16203 0.0
C2380 C 0.98587 0.04478 0.18017 0.0
C2381 C 0.97797 0.04141 0.20205 0.0
C2382 C 0.99509 0.04767 0.10251 0.0
C2383 C 1.01122 0.03523 0.09532 0.0
C2384 C 0.98631 0.04528 0.12419 0.0
C2385 C 0.99273 0.02976 0.139 0.0
C2386 C 1.00851 0.01707 0.13151 0.0
C2387 C 0.01784 0.02002 0.11036 0.0
H2388 H 0.29806 0.65012 0.4767 0.0
H2389 H 0.26505 0.694 0.51862 0.0
H2390 H 0.2985 0.67539 0.4462 0.0
H2391 H 0.26406 0.71814 0.48814 0.0
H2392 H 0.26493 0.7627 0.43458 0.0
H2393 H 0.28139 0.7443 0.46582 0.0
H2394 H 0.27044 0.68197 0.4181 0.0
H2395 H 0.25546 0.70098 0.38676 0.0
C2396 C 0.29111 0.66525 0.4794 0.0
C2397 C 0.28149 0.67016 0.49984 0.0
C2398 C 0.29126 0.67966 0.462 0.0
C2399 C 0.28119 0.69876 0.4646 0.0
C2400 C 0.2725 0.704 0.48562 0.0
C2401 C 0.27286 0.68999 0.50311 0.0
C2402 C 0.26635 0.74514 0.4309 0.0
C2403 C 0.25846 0.73297 0.40866 0.0
C2404 C 0.27577 0.73459 0.44867 0.0
C2405 C 0.27676 0.71148 0.44465 0.0
C2406 C 0.27012 0.6998 0.42188 0.0
C2407 C 0.26122 0.71054 0.40398 0.0
H2408 H 0.62044 0.05076 0.71276 0.0
H2409 H 0.68031 0.05624 0.67671 0.0
H2410 H 0.59675 0.05042 0.67608 0.0
H2411 H 0.65608 0.05554 0.63945 0.0
H2412 H 0.59265 0.0196 0.58113 0.0
H2413 H 0.62114 0.02429 0.61554 0.0
H2414 H 0.59445 0.07997 0.64661 0.0
H2415 H 0.56618 0.07568 0.6119 0.0
C2416 C 0.6285 0.05168 0.69691 0.0
C2417 C 0.65214 0.05339 0.69741 0.0
C2418 C 0.61497 0.05175 0.67603 0.0
C2419 C 0.62478 0.05324 0.65525 0.0
C2420 C 0.64835 0.05452 0.65548 0.0
C2421 C 0.66208 0.05487 0.67662 0.0
C2422 C 0.5932 0.03315 0.59508 0.0
C2423 C 0.57738 0.04737 0.594 0.0
C2424 C 0.60949 0.03583 0.61464 0.0
C2425 C 0.60989 0.05254 0.6334 0.0
C2426 C 0.5943 0.06697 0.6322 0.0
C2427 C 0.5781 0.06439 0.61257 0.0
H2428 H 0.27548 0.37382 0.96074 0.0
H2429 H 0.33734 0.35012 0.97818 0.0
H2430 H 0.27127 0.35427 0.92083 0.0
H2431 H 0.33349 0.33075 0.93792 0.0
H2432 H 0.33251 0.3258 0.85579 0.0
H2433 H 0.33608 0.34096 0.89718 0.0
H2434 H 0.2636 0.31707 0.89654 0.0
H2435 H 0.26022 0.30127 0.85543 0.0
C2436 C 0.28793 0.36395 0.95617 0.0
C2437 C 0.30644 0.36312 0.97292 0.0
C2438 C 0.28558 0.35276 0.93317 0.0
C2439 C 0.30203 0.34083 0.92583 0.0
C2440 C 0.32048 0.33979 0.94272 0.0
C2441 C 0.32254 0.35061 0.96597 0.0
C2442 C 0.31744 0.32318 0.86455 0.0
C2443 C 0.29621 0.3117 0.85204 0.0
C2444 C 0.31945 0.33205 0.88842 0.0
C2445 C 0.30017 0.33025 0.90057 0.0
C2446 C 0.27889 0.31898 0.88798 0.0
C2447 C 0.27696 0.3098 0.86424 0.0
H2448 H 0.93198 0.02129 0.36306 0.0
H2449 H 0.99596 0.02259 0.33528 0.0
H2450 H 0.95092 0.02441 0.40218 0.0
H2451 H 0.01562 0.02689 0.3757 0.0
H2452 H 0.03947 0.01414 0.45272 0.0
H2453 H 0.023 0.01061 0.41155 0.0
H2454 H 0.97335 0.04896 0.43213 0.0
H2455 H 0.98853 0.0508 0.47286 0.0
C2456 C 0.95031 0.02263 0.36514 0.0
C2457 C 0.96224 0.02186 0.34541 0.0
C2458 C 0.96136 0.02464 0.38805 0.0
C2459 C 0.98511 0.02641 0.39273 0.0
C2460 C 0.99731 0.02555 0.3731 0.0
C2461 C 0.98605 0.02327 0.34979 0.0
C2462 C 0.0247 0.02135 0.44852 0.0
C2463 C 0.0151 0.03225 0.46658 0.0
C2464 C 0.01544 0.01968 0.42468 0.0
C2465 C 0.9964 0.02913 0.41801 0.0
C2466 C 0.98746 0.04073 0.43613 0.0
C2467 C 0.99644 0.04206 0.4598 0.0
H2468 H 0.31828 0.68958 0.63007 0.0
H2469 H 0.24766 0.66196 0.63608 0.0
H2470 H 0.32157 0.71456 0.66678 0.0
H2471 H 0.25073 0.6874 0.67272 0.0
H2472 H 0.26101 0.76289 0.70951 0.0
H2473 H 0.25761 0.73193 0.67765 0.0
H2474 H 0.31826 0.71389 0.71064 0.0
H2475 H 0.32192 0.74495 0.74214 0.0
C2476 C 0.3037 0.68851 0.6397 0.0
C2477 C 0.2828 0.67398 0.63064 0.0
C2478 C 0.30553 0.70273 0.66057 0.0
C2479 C 0.28632 0.7029 0.67228 0.0
C2480 C 0.26569 0.68751 0.66381 0.0
C2481 C 0.26401 0.67288 0.64314 0.0
C2482 C 0.27357 0.75228 0.70983 0.0
C2483 C 0.29154 0.756 0.72824 0.0
C2484 C 0.27146 0.73447 0.6919 0.0
C2485 C 0.2875 0.72046 0.69208 0.0
C2486 C 0.30564 0.72443 0.71033 0.0
C2487 C 0.30766 0.7421 0.7283 0.0
H2488 H 0.6396 0.03801 0.8047 0.0
H2489 H 0.69808 0.06932 0.85582 0.0
H2490 H 0.61449 0.04041 0.83475 0.0
H2491 H 0.67306 0.07255 0.88543 0.0
H2492 H 0.62717 0.0744 0.93775 0.0
H2493 H 0.6471 0.05656 0.90959 0.0
H2494 H 0.60233 0.07257 0.85299 0.0
H2495 H 0.58071 0.08845 0.88134 0.0
C2496 C 0.64713 0.04505 0.82244 0.0
C2497 C 0.67074 0.05399 0.82785 0.0
C2498 C 0.63273 0.04652 0.83958 0.0
C2499 C 0.64172 0.05709 0.8623 0.0
C2500 C 0.66554 0.06415 0.86813 0.0
C2501 C 0.67995 0.06244 0.85109 0.0
C2502 C 0.62101 0.07351 0.91932 0.0
C2503 C 0.60232 0.08298 0.9118 0.0
C2504 C 0.63268 0.06349 0.90317 0.0
C2505 C 0.62651 0.0634 0.8791 0.0
C2506 C 0.60739 0.07216 0.87146 0.0
C2507 C 0.5953 0.08174 0.88769 0.0
H2508 H 0.31467 0.39559 0.13252 0.0
H2509 H 0.29958 0.32782 0.09542 0.0
H2510 H 0.3096 0.37989 0.16949 0.0
H2511 H 0.2942 0.31209 0.13205 0.0
H2512 H 0.30633 0.28769 0.20394 0.0
H2513 H 0.31113 0.30395 0.1675 0.0
H2514 H 0.28525 0.36171 0.19455 0.0
H2515 H 0.28089 0.34548 0.2313 0.0
C2516 C 0.31023 0.37732 0.13214 0.0
C2517 C 0.30765 0.36313 0.11063 0.0
C2518 C 0.30713 0.36819 0.15351 0.0
C2519 C 0.30151 0.34445 0.15436 0.0
C2520 C 0.29887 0.33037 0.13272 0.0
C2521 C 0.30181 0.33948 0.11141 0.0
C2522 C 0.3015 0.30382 0.20218 0.0
C2523 C 0.29307 0.31504 0.22091 0.0
C2524 C 0.30419 0.31324 0.18099 0.0
C2525 C 0.29858 0.33438 0.17743 0.0
C2526 C 0.29014 0.34562 0.19626 0.0
C2527 C 0.28746 0.33617 0.2175 0.0
H2528 H 0.25837 0.99248 0.97188 0.0
H2529 H 0.23976 0.93559 0.01064 0.0
H2530 H 0.225 1.00656 0.98217 0.0
H2531 H 0.20695 0.94996 0.02119 0.0
H2532 H 0.14865 0.98053 0.0386 0.0
H2533 H 0.17025 0.96242 0.01129 0.0
H2534 H 0.22379 0.02312 0.02339 0.0
H2535 H 0.20225 0.04092 0.05054 0.0
C2536 C 0.24691 0.98268 0.98207 0.0
C2537 C 0.2521 0.96336 0.9911 0.0
C2538 C 0.22782 0.99072 0.98789 0.0
C2539 C 0.21376 0.97956 1.00281 0.0
C2540 C 0.21748 0.95886 0.00958 0.0
C2541 C 0.23648 0.95078 1.00373 0.0
C2542 C 0.16494 0.98991 0.03507 0.0
C2543 C 0.17424 0.01178 0.0468 0.0
C2544 C 0.17714 0.9797 0.01945 0.0
C2545 C 0.19856 0.99145 0.01519 0.0
C2546 C 0.20716 0.01382 0.02607 0.0
C2547 C 0.19512 0.02386 0.04187 0.0
H2548 H 0.7257 0.63054 0.03316 0.0
H2549 H 0.68461 0.67022 0.99701 0.0
H2550 H 0.69181 0.60159 0.03491 0.0
H2551 H 0.65016 0.64192 0.9998 0.0
H2552 H 0.59253 0.58061 0.9903 0.0
H2553 H 0.62786 0.60663 0.98639 0.0
H2554 H 0.65912 0.58989 0.05133 0.0
H2555 H 0.62388 0.56279 0.05429 0.0
C2556 C 0.7093 0.63302 0.02548 0.0
C2557 C 0.70797 0.65234 0.01423 0.0
C2558 C 0.68966 0.61649 0.02681 0.0
C2559 C 0.66782 0.61893 0.01736 0.0
C2560 C 0.66651 0.63881 1.00677 0.0
C2561 C 0.68628 0.65529 1.00533 0.0
C2562 C 0.60712 0.58219 1.00353 0.0
C2563 C 0.60534 0.56948 0.02256 0.0
C2564 C 0.62741 0.59747 1.0015 0.0
C2565 C 0.64662 0.60108 0.01874 0.0
C2566 C 0.64503 0.5877 0.03744 0.0
C2567 C 0.62475 0.57201 0.03921 0.0
H2568 H 0.6992 0.52175 0.27848 0.0
H2569 H 0.65028 0.48294 0.31586 0.0
H2570 H 0.71788 0.4897 0.27285 0.0
H2571 H 0.66852 0.45003 0.3093 0.0
H2572 H 0.69873 0.39339 0.26258 0.0
H2573 H 0.67739 0.42231 0.27482 0.0
H2574 H 0.74104 0.46952 0.30006 0.0
H2575 H 0.76219 0.44054 0.28799 0.0
C2576 C 0.69234 0.50623 0.28535 0.0
C2577 C 0.67341 0.50494 0.29777 0.0
C2578 C 0.7031 0.48786 0.2822 0.0
C2579 C 0.69505 0.46741 0.29106 0.0
C2580 C 0.67527 0.4656 0.30242 0.0
C2581 C 0.6647 0.48432 0.306 0.0
C2582 C 0.70807 0.40962 0.27174 0.0
C2583 C 0.73213 0.41458 0.27476 0.0
C2584 C 0.69586 0.42626 0.27857 0.0
C2585 C 0.70749 0.44836 0.28808 0.0
C2586 C 0.73154 0.45276 0.29252 0.0
C2587 C 0.7437 0.43607 0.28595 0.0
H2588 H 0.86128 0.4896 0.53011 0.0
H2589 H 0.88474 0.4356 0.49153 0.0
H2590 H 0.90053 0.51098 0.54018 0.0
H2591 H 0.92417 0.45707 0.50124 0.0
H2592 H 0.99166 0.48834 0.54103 0.0
H2593 H 0.95191 0.46902 0.53715 0.0
H2594 H 0.93115 0.53041 0.51978 0.0
H2595 H 0.97096 0.55018 0.52484 0.0
C2596 C 0.87495 0.48263 0.52344 0.0
C2597 C 0.87039 0.4615 0.50954 0.0
C2598 C 0.89726 0.49471 0.52929 0.0
C2599 C 0.91517 0.48553 0.52155 0.0
C2600 C 0.91054 0.46427 0.50768 0.0
C2601 C 0.88818 0.45215 0.50193 0.0
C2602 C 0.97864 0.49796 0.53725 0.0
C2603 C 0.98429 0.52069 0.5332 0.0
C2604 C 0.95594 0.48679 0.53463 0.0
C2605 C 0.93871 0.49817 0.52766 0.0
C2606 C 0.94425 0.52132 0.52512 0.0
C2607 C 0.96697 0.53257 0.52798 0.0
H2608 H 0.39649 0.09919 0.32844 0.0
H2609 H 0.32572 0.06465 0.32124 0.0
H2610 H 0.38489 0.13383 0.31872 0.0
H2611 H 0.31402 0.09837 0.30963 0.0
H2612 H 0.29489 0.15986 0.28935 0.0
H2613 H 0.30924 0.13511 0.31471 0.0
H2614 H 0.37218 0.14482 0.28363 0.0
H2615 H 0.35894 0.17177 0.26037 0.0
C2616 C 0.37842 0.09917 0.32498 0.0
C2617 C 0.36195 0.07929 0.32509 0.0
C2618 C 0.37176 0.11889 0.31921 0.0
C2619 C 0.34855 0.1188 0.31271 0.0
C2620 C 0.33205 0.09928 0.31467 0.0
C2621 C 0.33872 0.07979 0.32114 0.0
C2622 C 0.31214 0.15745 0.28849 0.0
C2623 C 0.32566 0.16774 0.27254 0.0
C2624 C 0.32023 0.14286 0.30283 0.0
C2625 C 0.34173 0.13758 0.30104 0.0
C2626 C 0.35563 0.1486 0.2858 0.0
C2627 C 0.3478 0.16371 0.27196 0.0
H2628 H 0.32637 0.14532 0.48411 0.0
H2629 H 0.33019 0.17223 0.55681 0.0
H2630 H 0.3593 0.12862 0.49346 0.0
H2631 H 0.36366 0.15581 0.56626 0.0
H2632 H 0.40581 0.10258 0.58006 0.0
H2633 H 0.37278 0.11909 0.56924 0.0
H2634 H 0.3995 0.13558 0.50526 0.0
H2635 H 0.43209 0.11831 0.51595 0.0
C2636 C 0.33457 0.14807 0.50208 0.0
C2637 C 0.32568 0.16024 0.5197 0.0
C2638 C 0.35354 0.13848 0.50745 0.0
C2639 C 0.36415 0.14061 0.53067 0.0
C2640 C 0.35575 0.15349 0.54822 0.0
C2641 C 0.33679 0.16327 0.54278 0.0
C2642 C 0.40428 0.10935 0.56347 0.0
C2643 C 0.4213 0.10898 0.5487 0.0
C2644 C 0.38556 0.11914 0.55741 0.0
C2645 C 0.38355 0.12909 0.53653 0.0
C2646 C 0.40031 0.12799 0.52139 0.0
C2647 C 0.41895 0.11802 0.52741 0.0
H2648 H 0.65894 0.64326 0.32059 0.0
H2649 H 0.70094 0.60392 0.28578 0.0
H2650 H 0.68669 0.67841 0.31754 0.0
H2651 H 0.72832 0.63886 0.28244 0.0
H2652 H 0.76143 0.72934 0.32958 0.0
H2653 H 0.73585 0.6934 0.33424 0.0
H2654 H 0.72093 0.67754 0.2591 0.0
H2655 H 0.74664 0.7134 0.25448 0.0
C2656 C 0.67412 0.64211 0.31243 0.0
C2657 C 0.67798 0.62076 0.30392 0.0
C2658 C 0.69003 0.66219 0.31073 0.0
C2659 C 0.70975 0.6614 0.2998 0.0
C2660 C 0.71333 0.64006 0.29091 0.0
C2661 C 0.69769 0.62005 0.29299 0.0
C2662 C 0.75286 0.71802 0.31409 0.0
C2663 C 0.75617 0.72407 0.29168 0.0
C2664 C 0.73811 0.69756 0.31675 0.0
C2665 C 0.72622 0.68271 0.29705 0.0
C2666 C 0.72998 0.68853 0.27461 0.0
C2667 C 0.74478 0.70897 0.27195 0.0
H2668 H 0.89944 0.45225 0.82731 0.0
H2669 H 0.84282 0.47215 0.78858 0.0
H2670 H 0.87944 0.41244 0.81889 0.0
H2671 H 0.82288 0.43244 0.7797 0.0
H2672 H 0.78612 0.36229 0.79686 0.0
H2673 H 0.8048 0.40217 0.8007 0.0
H2674 H 0.86763 0.38319 0.78484 0.0
H2675 H 0.84922 0.34333 0.78175 0.0
C2676 C 0.88268 0.44795 0.81703 0.0
C2677 C 0.87218 0.46489 0.8091 0.0
C2678 C 0.87136 0.42532 0.81203 0.0
C2679 C 0.8497 0.41949 0.79856 0.0
C2680 C 0.83945 0.43656 0.79031 0.0
C2681 C 0.85074 0.45916 0.79545 0.0
C2682 C 0.80384 0.36667 0.7939 0.0
C2683 C 0.81631 0.34981 0.78914 0.0
C2684 C 0.8145 0.38946 0.79607 0.0
C2685 C 0.83773 0.39563 0.79352 0.0
C2686 C 0.8498 0.37878 0.78738 0.0
C2687 C 0.83918 0.356 0.78528 0.0
H2688 H 0.07962 0.88118 0.12425 0.0
H2689 H 0.05311 0.84994 0.05395 0.0
H2690 H 0.0748 0.91811 0.11302 0.0
H2691 H 0.04901 0.88613 0.04241 0.0
H2692 H 0.03239 0.95238 0.02239 0.0
H2693 H 0.03709 0.91639 0.03473 0.0
H2694 H 0.07573 0.9516 0.09989 0.0
H2695 H 0.06942 0.9875 0.08778 0.0
C2696 C 0.07313 0.88205 0.10624 0.0
C2697 C 0.06693 0.86181 0.09025 0.0
C2698 C 0.07019 0.90365 0.09956 0.0
C2699 C 0.06105 0.90639 0.07641 0.0
C2700 C 0.05554 0.886 0.0605 0.0
C2701 C 0.0582 0.86461 0.06721 0.0
C2702 C 0.04155 0.9526 0.03956 0.0
C2703 C 0.05002 0.97358 0.05393 0.0
C2704 C 0.04475 0.93144 0.0468 0.0
C2705 C 0.0572 0.92975 0.06876 0.0
C2706 C 0.06587 0.95097 0.08301 0.0
C2707 C 0.06231 0.97211 0.07587 0.0
H2708 H 0.96068 0.25573 0.88387 0.0
H2709 H 0.93103 0.28863 0.93868 0.0
H2710 H 0.92698 0.25502 0.85601 0.0
H2711 H 0.89688 0.28787 0.91076 0.0
H2712 H 0.83042 0.26796 0.85653 0.0
H2713 H 0.86241 0.2656 0.88545 0.0
H2714 H 0.90844 0.27906 0.83414 0.0
H2715 H 0.87735 0.28387 0.80651 0.0
C2716 C 0.94691 0.26287 0.89003 0.0
C2717 C 0.94908 0.27283 0.91352 0.0
C2718 C 0.92741 0.26248 0.87392 0.0
C2719 C 0.9089 0.27168 0.88067 0.0
C2720 C 0.91053 0.28054 0.9046 0.0
C2721 C 0.93021 0.28102 0.92074 0.0
C2722 C 0.84741 0.27081 0.85137 0.0
C2723 C 0.85075 0.27629 0.82856 0.0
C2724 C 0.86594 0.26946 0.86818 0.0
C2725 C 0.88859 0.27263 0.86271 0.0
C2726 C 0.89167 0.27698 0.83963 0.0
C2727 C 0.87339 0.27933 0.82325 0.0
H2728 H 0.57379 0.24117 0.56572 0.0
H2729 H 0.55473 0.22438 0.63224 0.0
H2730 H 0.56872 0.20073 0.55151 0.0
H2731 H 0.55137 0.1844 0.61923 0.0
H2732 H 0.53451 0.1098 0.59096 0.0
H2733 H 0.53661 0.14978 0.60227 0.0
H2734 H 0.57653 0.16574 0.54609 0.0
H2735 H 0.57202 0.12517 0.53343 0.0
C2736 C 0.56807 0.22887 0.57727 0.0
C2737 C 0.5637 0.23653 0.59993 0.0
C2738 C 0.5656 0.20528 0.56926 0.0
C2739 C 0.55932 0.18806 0.58378 0.0
C2740 C 0.55552 0.19609 0.60667 0.0
C2741 C 0.55765 0.21952 0.61444 0.0
C2742 C 0.54336 0.12168 0.5806 0.0
C2743 C 0.55291 0.11347 0.56101 0.0
C2744 C 0.54509 0.14522 0.5875 0.0
C2745 C 0.55707 0.16227 0.57562 0.0
C2746 C 0.56691 0.15399 0.55606 0.0
C2747 C 0.56473 0.13028 0.54888 0.0
H2748 H 0.57029 0.82295 0.40599 0.0
H2749 H 0.575 0.75699 0.42575 0.0
H2750 H 0.6035 0.82361 0.3856 0.0
H2751 H 0.60938 0.75808 0.40546 0.0
H2752 H 0.68565 0.80105 0.38293 0.0
H2753 H 0.65411 0.79008 0.4061 0.0
H2754 H 0.60563 0.79355 0.34677 0.0
H2755 H 0.63697 0.80436 0.32378 0.0
C2756 C 0.57874 0.80872 0.40644 0.0
C2757 C 0.56975 0.78981 0.4174 0.0
C2758 C 0.59776 0.80909 0.39458 0.0
C2759 C 0.60877 0.79073 0.39347 0.0
C2760 C 0.60107 0.77241 0.40588 0.0
C2761 C 0.58156 0.77189 0.41769 0.0
C2762 C 0.66819 0.79839 0.37457 0.0
C2763 C 0.66373 0.80328 0.35144 0.0
C2764 C 0.65016 0.7922 0.38786 0.0
C2765 C 0.62741 0.79106 0.37829 0.0
C2766 C 0.62297 0.79426 0.35461 0.0
C2767 C 0.64089 0.80031 0.34138 0.0
H2768 H 0.04623 0.27741 0.43839 0.0
H2769 H 0.0545 0.23859 0.37428 0.0
H2770 H 0.04116 0.24334 0.45767 0.0
H2771 H 0.05119 0.20448 0.39394 0.0
H2772 H 0.01625 0.14309 0.42571 0.0
H2773 H 0.02661 0.17691 0.40716 0.0
H2774 H 0.05437 0.21521 0.4749 0.0
H2775 H 0.04225 0.18119 0.49364 0.0
C2776 C 0.04738 0.26156 0.4285 0.0
C2777 C 0.05063 0.26072 0.40471 0.0
C2778 C 0.04469 0.2419 0.43969 0.0
C2779 C 0.04568 0.22072 0.42763 0.0
C2780 C 0.04966 0.22013 0.4039 0.0
C2781 C 0.05175 0.23977 0.39253 0.0
C2782 C 0.02457 0.15872 0.43673 0.0
C2783 C 0.02792 0.15937 0.46128 0.0
C2784 C 0.03087 0.17828 0.42597 0.0
C2785 C 0.0412 0.19931 0.43929 0.0
C2786 C 0.04592 0.19966 0.46386 0.0
C2787 C 0.03932 0.17999 0.4747 0.0
H2788 H 0.6002 0.2823 0.25723 0.0
H2789 H 0.60799 0.24372 0.19291 0.0
H2790 H 0.64111 0.28631 0.27073 0.0
H2791 H 0.64871 0.24731 0.20653 0.0
H2792 H 0.71903 0.24101 0.247 0.0
H2793 H 0.67774 0.23598 0.23438 0.0
H2794 H 0.68011 0.30459 0.26476 0.0
H2795 H 0.72122 0.3096 0.27687 0.0
C2796 C 0.6105 0.27461 0.24586 0.0
C2797 C 0.60017 0.26272 0.22374 0.0
C2798 C 0.63428 0.27696 0.25364 0.0
C2799 C 0.64896 0.26714 0.23998 0.0
C2800 C 0.63849 0.25504 0.21797 0.0
C2801 C 0.61485 0.25309 0.20999 0.0
C2802 C 0.71078 0.25495 0.25131 0.0
C2803 C 0.72402 0.27569 0.26333 0.0
C2804 C 0.68687 0.25217 0.24377 0.0
C2805 C 0.67483 0.26982 0.24835 0.0
C2806 C 0.68811 0.29035 0.26083 0.0
C2807 C 0.71202 0.29328 0.2678 0.0
H2808 H 0.56689 0.91675 0.88161 0.0
H2809 H 0.55689 0.87249 0.93502 0.0
H2810 H 0.56529 0.94916 0.90993 0.0
H2811 H 0.55579 0.90472 0.96341 0.0
H2812 H 0.53312 0.96264 1.00629 0.0
H2813 H 0.53629 0.93078 0.97845 0.0
H2814 H 0.57997 0.97662 0.94186 0.0
H2815 H 0.57642 1.00859 0.96978 0.0
C2816 C 0.56467 0.91384 0.89945 0.0
C2817 C 0.56221 0.89156 0.90563 0.0
C2818 C 0.56379 0.93267 0.91598 0.0
C2819 C 0.56027 0.9302 0.93953 0.0
C2820 C 0.55812 0.90789 0.94568 0.0
C2821 C 0.55905 0.88913 0.92921 0.0
C2822 C 0.54382 0.96603 0.99266 0.0
C2823 C 0.55479 0.98859 0.99095 0.0
C2824 C 0.54564 0.94748 0.97635 0.0
C2825 C 0.55855 0.95044 0.95737 0.0
C2826 C 0.56956 0.97309 0.95571 0.0
C2827 C 0.56767 0.99167 0.97203 0.0
H2828 H 0.98283 0.78253 0.76739 0.0
H2829 H 0.95222 0.75588 0.69696 0.0
H2830 H 0.94613 0.78667 0.7782 0.0
H2831 H 0.91483 0.76047 0.70745 0.0
H2832 H 0.84429 0.76778 0.73013 0.0
H2833 H 0.88084 0.76221 0.71865 0.0
H2834 H 0.9143 0.79489 0.78685 0.0
H2835 H 0.87771 0.79949 0.79816 0.0
C2836 C 0.96821 0.7774 0.75393 0.0
C2837 C 0.97147 0.76859 0.73108 0.0
C2838 C 0.94645 0.77998 0.76024 0.0
C2839 C 0.92596 0.77428 0.74412 0.0
C2840 C 0.92921 0.76525 0.72112 0.0
C2841 C 0.95116 0.76241 0.71486 0.0
C2842 C 0.85941 0.77376 0.74284 0.0
C2843 C 0.85715 0.78438 0.76531 0.0
C2844 C 0.88099 0.77058 0.7361 0.0
C2845 C 0.90205 0.77782 0.75135 0.0
C2846 C 0.89955 0.78854 0.77386 0.0
C2847 C 0.87797 0.79156 0.78059 0.0
H2848 H 0.09089 0.03257 0.84841 0.0
H2849 H 0.14456 0.08118 0.89275 0.0
H2850 H 0.07083 0.02565 0.88301 0.0
H2851 H 0.12419 0.07513 0.92646 0.0
H2852 H 0.06388 0.07587 0.97328 0.0
H2853 H 0.0811 0.08108 0.93703 0.0
H2854 H 0.08442 0.01029 0.92795 0.0
H2855 H 0.06835 1.00541 0.96509 0.0
C2856 C 0.09824 0.04211 0.86529 0.0
C2857 C 0.11938 0.05769 0.86741 0.0
C2858 C 0.08681 0.03801 0.88521 0.0
C2859 C 0.09583 0.04988 0.90768 0.0
C2860 C 0.1166 0.06574 0.90957 0.0
C2861 C 0.12828 0.06927 0.89001 0.0
C2862 C 0.06842 0.06143 0.96365 0.0
C2863 C 0.0651 0.04033 0.97244 0.0
C2864 C 0.0782 0.06439 0.94276 0.0
C2865 C 0.08409 0.0461 0.92931 0.0
C2866 C 0.08003 0.02475 0.93768 0.0
C2867 C 0.071 0.02199 0.9591 0.0
H2868 H 0.83453 0.4388 0.58563 0.0
H2869 H 0.77334 0.3884 0.55903 0.0
H2870 H 0.84009 0.41906 0.6197 0.0
H2871 H 0.77822 0.36914 0.59368 0.0
H2872 H 0.8208 0.32214 0.62695 0.0
H2873 H 0.80669 0.34667 0.60076 0.0
H2874 H 0.82872 0.40401 0.65505 0.0
H2875 H 0.84359 0.37941 0.68106 0.0
C2876 C 0.82173 0.42405 0.58764 0.0
C2877 C 0.80375 0.41478 0.56966 0.0
C2878 C 0.82487 0.41276 0.60716 0.0
C2879 C 0.80986 0.39225 0.60903 0.0
C2880 C 0.79039 0.38457 0.59232 0.0
C2881 C 0.7875 0.39561 0.57261 0.0
C2882 C 0.82268 0.34 0.63322 0.0
C2883 C 0.8335 0.34898 0.65583 0.0
C2884 C 0.81423 0.35399 0.61842 0.0
C2885 C 0.8164 0.37725 0.62596 0.0
C2886 C 0.82683 0.38616 0.64879 0.0
C2887 C 0.83527 0.37211 0.66364 0.0
H2888 H 0.40345 0.03204 0.40767 0.0
H2889 H 0.45477 0.04021 0.36031 0.0
H2890 H 0.43359 0.03703 0.44063 0.0
H2891 H 0.48464 0.04509 0.39335 0.0
H2892 H 0.52272 0.01829 0.45697 0.0
H2893 H 0.49481 0.01731 0.42265 0.0
H2894 H 0.46765 0.06951 0.45987 0.0
H2895 H 0.49574 0.07101 0.49378 0.0
C2896 C 0.42109 0.03515 0.4043 0.0
C2897 C 0.42672 0.03572 0.38141 0.0
C2898 C 0.43826 0.03802 0.42313 0.0
C2899 C 0.46122 0.04135 0.41927 0.0
C2900 C 0.46695 0.04235 0.39655 0.0
C2901 C 0.44983 0.03968 0.37775 0.0
C2902 C 0.51098 0.02975 0.45762 0.0
C2903 C 0.51102 0.04439 0.47806 0.0
C2904 C 0.49511 0.02919 0.4381 0.0
C2905 C 0.47911 0.04318 0.43897 0.0
C2906 C 0.47967 0.05834 0.4591 0.0
C2907 C 0.49563 0.05907 0.47846 0.0
H2908 H 0.76677 0.68454 0.10438 0.0
H2909 H 0.78244 0.75266 0.08621 0.0
H2910 H 0.76793 0.69967 0.14539 0.0
H2911 H 0.78383 0.76794 0.12742 0.0
H2912 H 0.76513 0.78861 0.20168 0.0
H2913 H 0.76244 0.77378 0.16009 0.0
H2914 H 0.79243 0.71813 0.17961 0.0
H2915 H 0.79469 0.73257 0.22073 0.0
C2916 C 0.77063 0.7028 0.10909 0.0
C2917 C 0.77463 0.71724 0.09166 0.0
C2918 C 0.77139 0.71158 0.13284 0.0
C2919 C 0.77603 0.73523 0.14023 0.0
C2920 C 0.77995 0.74969 0.12273 0.0
C2921 C 0.77935 0.74087 0.09895 0.0
C2922 C 0.77097 0.7731 0.19714 0.0
C2923 C 0.78007 0.76191 0.21499 0.0
C2924 C 0.76963 0.76463 0.17311 0.0
C2925 C 0.77719 0.74455 0.166 0.0
C2926 C 0.78607 0.73337 0.18395 0.0
C2927 C 0.78751 0.74185 0.20782 0.0
H2928 H 0.07926 0.04324 0.73257 0.0
H2929 H 0.14782 0.06293 0.71566 0.0
H2930 H 0.06422 0.04035 0.69109 0.0
H2931 H 0.13289 0.06039 0.67431 0.0
H2932 H 0.1014 0.03373 0.59835 0.0
H2933 H 0.11593 0.03585 0.63967 0.0
H2934 H 0.05718 0.0609 0.65883 0.0
H2935 H 0.04211 0.05765 0.61739 0.0
C2936 C 0.09119 0.04691 0.72003 0.0
C2937 C 0.11486 0.05323 0.72773 0.0
C2938 C 0.08251 0.04544 0.6961 0.0
C2939 C 0.09717 0.05013 0.67888 0.0
C2940 C 0.12087 0.0563 0.68667 0.0
C2941 C 0.12952 0.05787 0.71058 0.0
C2942 C 0.09138 0.03946 0.6113 0.0
C2943 C 0.07039 0.04534 0.60416 0.0
C2944 C 0.09993 0.04098 0.63522 0.0
C2945 C 0.0879 0.04857 0.65308 0.0
C2946 C 0.06695 0.05465 0.64591 0.0
C2947 C 0.05837 0.05304 0.62194 0.0
H2948 H 0.78651 0.37665 0.45657 0.0
H2949 H 0.81432 0.42665 0.41302 0.0
H2950 H 0.78326 0.34662 0.42393 0.0
H2951 H 0.81116 0.39639 0.38075 0.0
H2952 H 0.83086 0.32214 0.35499 0.0
H2953 H 0.83142 0.34931 0.38979 0.0
H2954 H 0.76089 0.35099 0.36843 0.0
H2955 H 0.76041 0.32437 0.33333 0.0
C2956 C 0.79177 0.38124 0.44006 0.0
C2957 C 0.80077 0.40395 0.43731 0.0
C2958 C 0.78993 0.36411 0.42159 0.0
C2959 C 0.79719 0.36959 0.40038 0.0
C2960 C 0.80562 0.39215 0.39727 0.0
C2961 C 0.80727 0.40933 0.41562 0.0
C2962 C 0.81547 0.32816 0.35803 0.0
C2963 C 0.79569 0.32168 0.3417 0.0
C2964 C 0.8158 0.34351 0.37771 0.0
C2965 C 0.79617 0.35183 0.3813 0.0
C2966 C 0.7761 0.34455 0.36561 0.0
C2967 C 0.7759 0.32959 0.34568 0.0
H2968 H 0.40024 0.99786 0.23989 0.0
H2969 H 0.43556 0.06807 0.25575 0.0
H2970 H 0.42252 0.99282 0.20754 0.0
H2971 H 0.45758 0.06305 0.22278 0.0
H2972 H 0.45905 0.01409 0.13793 0.0
H2973 H 0.43573 0.02799 0.16591 0.0
H2974 H 0.48203 0.01603 0.22317 0.0
H2975 H 0.50597 1.00271 0.19545 0.0
C2976 C 0.41198 0.01246 0.23571 0.0
C2977 C 0.41611 0.03343 0.24996 0.0
C2978 C 0.42478 1.00952 0.21739 0.0
C2979 C 0.44151 0.0276 0.21292 0.0
C2980 C 0.44465 0.04899 0.22612 0.0
C2981 C 0.43207 0.05185 0.24475 0.0
C2982 C 0.46467 0.01496 0.15648 0.0
C2983 C 0.48431 1.00709 0.16447 0.0
C2984 C 0.45127 0.02286 0.17238 0.0
C2985 C 0.45734 0.02306 0.19641 0.0
C2986 C 0.47731 0.01612 0.20457 0.0
C2987 C 0.49077 1.00827 0.18872 0.0
H2988 H 0.77564 0.68181 0.92748 0.0
H2989 H 0.77337 0.74432 0.96946 0.0
H2990 H 0.78136 0.70164 0.8939 0.0
H2991 H 0.77995 0.76478 0.93537 0.0
H2992 H 0.77159 0.79202 0.86281 0.0
H2993 H 0.76698 0.77401 0.89847 0.0
H2994 H 0.80455 0.72442 0.87363 0.0
H2995 H 0.80817 0.74193 0.83775 0.0
C2996 C 0.77651 0.69996 0.92977 0.0
C2997 C 0.7739 0.71117 0.95172 0.0
C2998 C 0.78011 0.71158 0.91018 0.0
C2999 C 0.78144 0.7352 0.91128 0.0
C3000 C 0.77891 0.74662 0.93328 0.0
C3001 C 0.77527 0.73485 0.95311 0.0
C3002 C 0.77891 0.77727 0.86497 0.0
C3003 C 0.79017 0.76848 0.84701 0.0
C3004 C 0.77636 0.76689 0.88569 0.0
C3005 C 0.7851 0.74731 0.88949 0.0
C3006 C 0.79687 0.73896 0.87164 0.0
C3007 C 0.79919 0.74918 0.85086 0.0
H3008 H 0.81434 0.08503 0.02159 0.0
H3009 H 0.8405 0.13027 0.086 0.0
H3010 H 0.84979 0.07244 0.02244 0.0
H3011 H 0.87687 0.11736 0.08647 0.0
H3012 H 0.93488 0.11039 0.02885 0.0
H3013 H 0.90521 0.12194 0.05024 0.0
H3014 H 0.87436 0.05152 0.05171 0.0
H3015 H 0.90319 0.0399 0.02977 0.0
C3016 C 0.82751 0.09206 0.03622 0.0
C3017 C 0.8246 0.10871 0.05375 0.0
C3018 C 0.84777 0.08463 0.03677 0.0
C3019 C 0.86567 0.09363 0.05481 0.0
C3020 C 0.86299 0.11008 0.07262 0.0
C3021 C 0.84237 0.1175 0.0722 0.0
C3022 C 0.92204 0.09745 0.03427 0.0
C3023 C 0.92086 0.07433 0.02713 0.0
C3024 C 0.90548 0.10404 0.04695 0.0
C3025 C 0.88766 0.08752 0.05237 0.0
C3026 C 0.88816 0.06445 0.0478 0.0
C3027 C 0.90453 0.05787 0.03504 0.0
H3028 H 0.36935 0.45005 0.07117 0.0
H3029 H 0.38947 0.40122 0.02243 0.0
H3030 H 0.40549 0.47689 0.07031 0.0
H3031 H 0.42542 0.42841 0.02091 0.0
H3032 H 0.47013 0.49765 1.00371 0.0
H3033 H 0.4352 0.46967 1.00607 0.0
H3034 H 0.45031 0.47843 0.08139 0.0
H3035 H 0.48624 0.50507 0.07887 0.0
C3036 C 0.38159 0.44503 0.06035 0.0
C3037 C 0.37643 0.42366 0.04658 0.0
C3038 C 0.40231 0.46039 0.05989 0.0
C3039 C 0.41829 0.45492 0.04538 0.0
C3040 C 0.41339 0.43325 0.0321 0.0
C3041 C 0.39289 0.41763 0.03304 0.0
C3042 C 0.46582 0.49378 0.02077 0.0
C3043 C 0.48082 0.50366 0.04112 0.0
C3044 C 0.44586 0.47765 0.02212 0.0
C3045 C 0.43977 0.47188 0.04392 0.0
C3046 C 0.4544 0.48251 0.06433 0.0
C3047 C 0.47491 0.49782 0.06291 0.0
H3048 H 0.42374 0.58245 0.82094 0.0
H3049 H 0.40827 0.57275 0.74567 0.0
H3050 H 0.40552 0.61496 0.82319 0.0
H3051 H 0.39013 0.60574 0.74768 0.0
H3052 H 0.32681 0.63488 0.76753 0.0
H3053 H 0.35435 0.61102 0.76026 0.0
H3054 H 0.40269 0.65271 0.8161 0.0
H3055 H 0.37476 0.67634 0.82338 0.0
C3056 C 0.41734 0.588 0.80477 0.0
C3057 C 0.41778 0.57532 0.78312 0.0
C3058 C 0.40678 0.60665 0.80602 0.0
C3059 C 0.39607 0.61299 0.78564 0.0
C3060 C 0.39793 0.60122 0.76378 0.0
C3061 C 0.40869 0.58256 0.76254 0.0
C3062 C 0.34353 0.63915 0.77785 0.0
C3063 C 0.34873 0.6574 0.79593 0.0
C3064 C 0.35942 0.62558 0.77365 0.0
C3065 C 0.38084 0.62979 0.78762 0.0
C3066 C 0.38633 0.64877 0.80512 0.0
C3067 C 0.37044 0.66242 0.80921 0.0
H3068 H 0.21798 0.59317 0.56615 0.0
H3069 H 0.20081 0.64559 0.52671 0.0
H3070 H 0.17862 0.5722 0.558 0.0
H3071 H 0.16095 0.62439 0.51817 0.0
H3072 H 0.09241 0.59337 0.54889 0.0
H3073 H 0.13002 0.61447 0.54362 0.0
H3074 H 0.15055 0.55111 0.52487 0.0
H3075 H 0.11279 0.53016 0.52989 0.0
C3076 C 0.20571 0.59988 0.55531 0.0
C3077 C 0.21219 0.62038 0.54629 0.0
C3078 C 0.1833 0.5879 0.55054 0.0
C3079 C 0.16701 0.59645 0.53691 0.0
C3080 C 0.17339 0.61739 0.52843 0.0
C3081 C 0.19596 0.62945 0.53331 0.0
C3082 C 0.10471 0.58413 0.54258 0.0
C3083 C 0.10004 0.56037 0.53945 0.0
C3084 C 0.12615 0.59614 0.53956 0.0
C3085 C 0.14309 0.58435 0.53383 0.0
C3086 C 0.13773 0.56054 0.52919 0.0
C3087 C 0.1163 0.54858 0.53213 0.0
H3088 H 0.73584 1.00571 0.73535 0.0
H3089 H 0.69514 0.99855 0.79216 0.0
H3090 H 0.74357 0.9676 0.7382 0.0
H3091 H 0.70327 0.96136 0.79582 0.0
H3092 H 0.71897 0.89755 0.80483 0.0
H3093 H 0.70127 0.92264 0.78176 0.0
H3094 H 0.76813 0.9565 0.76852 0.0
H3095 H 0.78547 0.93081 0.7906 0.0
C3096 C 0.72819 0.99564 0.74802 0.0
C3097 C 0.71506 1.00459 0.76364 0.0
C3098 C 0.73256 0.97399 0.7497 0.0
C3099 C 0.72406 0.96148 0.76725 0.0
C3100 C 0.70967 0.9702 0.78175 0.0
C3101 C 0.7052 0.99159 0.77991 0.0
C3102 C 0.72968 0.91007 0.79646 0.0
C3103 C 0.75349 0.9128 0.79985 0.0
C3104 C 0.71963 0.9243 0.7832 0.0
C3105 C 0.73335 0.94184 0.77377 0.0
C3106 C 0.75703 0.94309 0.77539 0.0
C3107 C 0.76702 0.92859 0.78829 0.0
H3108 H 0.75477 0.9247 0.49833 0.0
H3109 H 0.75248 0.91647 0.57131 0.0
H3110 H 0.72265 0.94348 0.49833 0.0
H3111 H 0.71966 0.93537 0.57127 0.0
H3112 H 0.64488 0.94882 0.54504 0.0
H3113 H 0.67789 0.93107 0.55208 0.0
H3114 H 0.71769 0.98133 0.51674 0.0
H3115 H 0.68469 0.99906 0.50993 0.0
C3116 C 0.74703 0.9265 0.51432 0.0
C3117 C 0.75614 0.919 0.5348 0.0
C3118 C 0.7288 0.93759 0.51439 0.0
C3119 C 0.71895 0.94148 0.53494 0.0
C3120 C 0.72702 0.93275 0.55519 0.0
C3121 C 0.74558 0.92168 0.55516 0.0
C3122 C 0.66095 0.95643 0.53947 0.0
C3123 C 0.66235 0.97536 0.5271 0.0
C3124 C 0.67982 0.94626 0.54346 0.0
C3125 C 0.7003 0.95455 0.53467 0.0
C3126 C 0.70204 0.97434 0.52348 0.0
C3127 C 0.68327 0.98467 0.51979 0.0
H3128 H 0.42732 0.44052 0.79476 0.0
H3129 H 0.37758 0.4622 0.74796 0.0
H3130 H 0.39982 0.40487 0.7961 0.0
H3131 H 0.35032 0.42638 0.7487 0.0
H3132 H 0.3202 0.34655 0.73895 0.0
H3133 H 0.3469 0.3824 0.73652 0.0
H3134 H 0.35987 0.39452 0.81199 0.0
H3135 H 0.33196 0.35962 0.81435 0.0
C3136 C 0.41059 0.43755 0.7846 0.0
C3137 C 0.40442 0.45437 0.7717 0.0
C3138 C 0.3948 0.4172 0.78542 0.0
C3139 C 0.37275 0.4128 0.77265 0.0
C3140 C 0.3671 0.42916 0.75874 0.0
C3141 C 0.38268 0.44972 0.75839 0.0
C3142 C 0.32846 0.35717 0.75499 0.0
C3143 C 0.32388 0.35039 0.77684 0.0
C3144 C 0.34378 0.37766 0.75362 0.0
C3145 C 0.35563 0.39142 0.77407 0.0
C3146 C 0.35102 0.3845 0.79591 0.0
C3147 C 0.33495 0.36455 0.79728 0.0
H3148 H 0.18925 0.63559 0.29453 0.0
H3149 H 0.23854 0.61665 0.25153 0.0
H3150 H 0.21074 0.67526 0.30037 0.0
H3151 H 0.25978 0.65568 0.25714 0.0
H3152 H 0.30496 0.72051 0.28601 0.0
H3153 H 0.28306 0.68307 0.28984 0.0
H3154 H 0.22015 0.70568 0.27324 0.0
H3155 H 0.24218 0.74284 0.2684 0.0
C3156 C 0.20469 0.64003 0.28648 0.0
C3157 C 0.21293 0.62336 0.27336 0.0
C3158 C 0.21691 0.66247 0.28982 0.0
C3159 C 0.23716 0.66819 0.27973 0.0
C3160 C 0.24466 0.65151 0.26577 0.0
C3161 C 0.23252 0.62928 0.26248 0.0
C3162 C 0.28645 0.71752 0.28387 0.0
C3163 C 0.27507 0.73435 0.27743 0.0
C3164 C 0.27395 0.69625 0.28624 0.0
C3165 C 0.24997 0.69167 0.28219 0.0
C3166 C 0.23861 0.709 0.27695 0.0
C3167 C 0.25117 0.73022 0.27424 0.0
H3168 H 0.50738 0.69224 0.43934 0.0
H3169 H 0.52378 0.72424 0.51058 0.0
H3170 H 0.51214 0.65615 0.45188 0.0
H3171 H 0.52859 0.68824 0.52359 0.0
H3172 H 0.53682 0.61916 0.54752 0.0
H3173 H 0.53229 0.65552 0.53513 0.0
H3174 H 0.51679 0.62388 0.46321 0.0
H3175 H 0.52059 0.58767 0.4761 0.0
C3176 C 0.512 0.69174 0.45786 0.0
C3177 C 0.51503 0.71199 0.47363 0.0
C3178 C 0.51486 0.67047 0.46537 0.0
C3179 C 0.52092 0.66773 0.48932 0.0
C3180 C 0.52397 0.68825 0.50504 0.0
C3181 C 0.52117 0.70954 0.49746 0.0
C3182 C 0.53237 0.61986 0.529 0.0
C3183 C 0.52892 0.59964 0.51312 0.0
C3184 C 0.5297 0.64125 0.52159 0.0
C3185 C 0.52388 0.64414 0.49762 0.0
C3186 C 0.52092 0.62372 0.4818 0.0
C3187 C 0.52312 0.6023 0.4893 0.0
H3188 H 0.64906 0.34283 0.6777 0.0
H3189 H 0.64071 0.27319 0.64746 0.0
H3190 H 0.6835 0.33947 0.70316 0.0
H3191 H 0.67431 0.26943 0.67376 0.0
H3192 H 0.71799 0.26803 0.74797 0.0
H3193 H 0.68503 0.27199 0.721 0.0
H3194 H 0.72591 0.33055 0.6984 0.0
H3195 H 0.75922 0.32607 0.72475 0.0
C3196 C 0.65465 0.32685 0.67629 0.0
C3197 C 0.64219 0.30846 0.65999 0.0
C3198 C 0.67443 0.32487 0.691 0.0
C3199 C 0.68194 0.30414 0.69073 0.0
C3200 C 0.66927 0.28569 0.67461 0.0
C3201 C 0.65003 0.28792 0.6593 0.0
C3202 C 0.72009 0.28178 0.73727 0.0
C3203 C 0.74158 0.29672 0.73879 0.0
C3204 C 0.70108 0.28399 0.72164 0.0
C3205 C 0.70254 0.30164 0.70733 0.0
C3206 C 0.72392 0.31679 0.70909 0.0
C3207 C 0.74314 0.31417 0.72423 0.0
H3208 H 0.98864 0.3468 0.9908 0.0
H3209 H 0.05256 0.36176 0.96306 0.0
H3210 H 0.99313 0.3873 1.00552 0.0
H3211 H 0.0575 0.40179 0.97799 0.0
H3212 H 0.05187 0.47651 0.98358 0.0
H3213 H 0.04784 0.4359 0.97264 0.0
H3214 H 1.00826 0.42258 0.02945 0.0
H3215 H 1.01311 0.46359 0.04079 0.0
C3216 C 1.00418 0.35846 0.98864 0.0
C3217 C 0.02058 0.35023 0.97625 0.0
C3218 C 1.00671 0.38211 0.99692 0.0
C3219 C 0.02563 0.39887 0.99296 0.0
C3220 C 0.04231 0.39029 0.98126 0.0
C3221 C 0.03973 0.36684 0.97301 0.0
C3222 C 0.04267 0.46513 0.99418 0.0
C3223 C 0.03321 0.47421 0.01347 0.0
C3224 C 0.04021 0.44132 0.98777 0.0
C3225 C 0.02788 0.42489 1.00008 0.0
C3226 C 0.01786 0.43397 0.01909 0.0
C3227 C 0.02056 0.45791 0.02565 0.0
H3228 H 0.99821 0.8255 0.13384 0.0
H3229 H 0.02 0.76957 0.1635 0.0
H3230 H 0.96601 0.82172 0.15726 0.0
H3231 H 0.98746 0.76521 0.18604 0.0
H3232 H 0.90888 0.74511 0.18822 0.0
H3233 H 0.93946 0.75636 0.16452 0.0
H3234 H 0.96247 0.81968 0.20998 0.0
H3235 H 0.93192 0.8081 0.23428 0.0
C3236 C 0.99622 0.81258 0.14554 0.0
C3237 C 1.01167 0.79793 0.14703 0.0
C3238 C 0.97786 0.81045 0.15892 0.0
C3239 C 0.97425 0.79316 0.17342 0.0
C3240 C 0.98991 0.77875 0.17508 0.0
C3241 C 1.00856 0.78129 0.16227 0.0
C3242 C 0.91996 0.76178 0.19273 0.0
C3243 C 0.9179 0.77575 0.21307 0.0
C3244 C 0.93758 0.76811 0.17928 0.0
C3245 C 0.95347 0.78874 0.18556 0.0
C3246 C 0.9504 0.80367 0.20475 0.0
C3247 C 0.9328 0.79717 0.21849 0.0
H3248 H 0.54343 0.33012 0.19553 0.0
H3249 H 0.51505 0.298 0.12569 0.0
H3250 H 0.55148 0.36682 0.18066 0.0
H3251 H 0.52463 0.33362 0.11053 0.0
H3252 H 0.5333 0.40113 0.08502 0.0
H3253 H 0.51935 0.36777 0.10342 0.0
H3254 H 0.57299 0.39147 0.16176 0.0
H3255 H 0.5849 0.42581 0.14485 0.0
C3256 C 0.5392 0.33079 0.17698 0.0
C3257 C 0.52867 0.31088 0.16195 0.0
C3258 C 0.54395 0.35194 0.16825 0.0
C3259 C 0.53889 0.35376 0.14407 0.0
C3260 C 0.52843 0.33364 0.12923 0.0
C3261 C 0.52318 0.3128 0.13801 0.0
C3262 C 0.54182 0.39956 0.10203 0.0
C3263 C 0.5608 0.41629 0.1129 0.0
C3264 C 0.53406 0.37996 0.11254 0.0
C3265 C 0.54531 0.37604 0.13406 0.0
C3266 C 0.56358 0.39333 0.14533 0.0
C3267 C 0.57088 0.41312 0.13518 0.0
H3268 H 0.99268 0.30575 0.31277 0.0
H3269 H 0.98064 0.33391 0.38046 0.0
H3270 H 0.9521 0.30275 0.29771 0.0
H3271 H 0.94014 0.32967 0.36602 0.0
H3272 H 0.86414 0.29151 0.34044 0.0
H3273 H 0.90532 0.29831 0.35315 0.0
H3274 H 0.91863 0.32471 0.28855 0.0
H3275 H 0.87709 0.31857 0.2761 0.0
C3276 C 0.98172 0.31202 0.32436 0.0
C3277 C 0.99087 0.32116 0.34779 0.0
C3278 C 0.95806 0.30995 0.31576 0.0
C3279 C 0.94209 0.3159 0.33043 0.0
C3280 C 0.9513 0.32474 0.35386 0.0
C3281 C 0.9749 0.32733 0.36221 0.0
C3282 C 0.87568 0.29895 0.32886 0.0
C3283 C 0.86659 0.30449 0.30712 0.0
C3284 C 0.89963 0.30294 0.33627 0.0
C3285 C 0.91606 0.31209 0.32209 0.0
C3286 C 0.90702 0.31753 0.30018 0.0
C3287 C 0.88292 0.31415 0.29304 0.0
H3288 H 0.03242 0.67389 0.68806 0.0
H3289 H 0.01651 0.70631 0.62726 0.0
H3290 H 0.03614 0.64017 0.66228 0.0
H3291 H 0.02039 0.67304 0.60173 0.0
H3292 H 0.05444 0.62088 0.56268 0.0
H3293 H 0.04922 0.65313 0.58887 0.0
H3294 H 0.01606 0.60736 0.63307 0.0
H3295 H 0.02055 0.57491 0.60629 0.0
C3296 C 0.02941 0.67382 0.66926 0.0
C3297 C 0.02395 0.69308 0.66001 0.0
C3298 C 0.03158 0.65438 0.65435 0.0
C3299 C 0.02877 0.65359 0.62962 0.0
C3300 C 0.02305 0.67279 0.62051 0.0
C3301 C 0.02058 0.69198 0.63532 0.0
C3302 C 0.04553 0.61746 0.57759 0.0
C3303 C 0.03751 0.59483 0.58168 0.0
C3304 C 0.04265 0.63619 0.5929 0.0
C3305 C 0.03201 0.63323 0.61333 0.0
C3306 C 0.02442 0.61063 0.61774 0.0
C3307 C 0.02696 0.59186 0.60218 0.0
H3308 H 0.63442 0.82589 0.87791 0.0
H3309 H 0.60714 0.82226 0.80553 0.0
H3310 H 0.67113 0.81988 0.8659 0.0
H3311 H 0.6432 0.81511 0.79351 0.0
H3312 H 0.70681 0.783 0.77706 0.0
H3313 H 0.67031 0.78882 0.78947 0.0
H3314 H 0.70678 0.83556 0.84868 0.0
H3315 H 0.7432 0.83011 0.83601 0.0
C3316 C 0.63591 0.82366 0.85937 0.0
C3317 C 0.61686 0.8248 0.84302 0.0
C3318 C 0.6574 0.82021 0.85232 0.0
C3319 C 0.66113 0.81679 0.82837 0.0
C3320 C 0.64187 0.81744 0.81208 0.0
C3321 C 0.62074 0.8217 0.81914 0.0
C3322 C 0.70734 0.79461 0.79274 0.0
C3323 C 0.72895 0.80596 0.80516 0.0
C3324 C 0.68596 0.7981 0.79998 0.0
C3325 C 0.68457 0.81283 0.82045 0.0
C3326 C 0.70621 0.82391 0.83301 0.0
C3327 C 0.72755 0.82079 0.82551 0.0
H3328 H 0.43189 0.51548 0.68589 0.0
H3329 H 0.50089 0.52923 0.72098 0.0
H3330 H 0.44648 0.52033 0.64832 0.0
H3331 H 0.51552 0.5345 0.68383 0.0
H3332 H 0.53789 0.52123 0.61195 0.0
H3333 H 0.52219 0.51706 0.64853 0.0
H3334 H 0.46433 0.54362 0.62201 0.0
H3335 H 0.48006 0.54726 0.58474 0.0
C3336 C 0.4502 0.51959 0.6857 0.0
C3337 C 0.46508 0.52179 0.70681 0.0
C3338 C 0.45867 0.52256 0.66398 0.0
C3339 C 0.48241 0.52772 0.66241 0.0
C3340 C 0.49718 0.53012 0.68369 0.0
C3341 C 0.48873 0.52725 0.70532 0.0
C3342 C 0.52188 0.52642 0.6138 0.0
C3343 C 0.51056 0.5349 0.59506 0.0
C3344 C 0.51279 0.52409 0.63513 0.0
C3345 C 0.49186 0.53017 0.63897 0.0
C3346 C 0.48034 0.53849 0.62011 0.0
C3347 C 0.48948 0.54076 0.59858 0.0
H3348 H 0.79219 0.14713 0.97348 0.0
H3349 H 0.77005 0.19654 0.02001 0.0
H3350 H 0.79409 0.17286 0.94351 0.0
H3351 H 0.77024 0.22144 0.98993 0.0
H3352 H 0.77023 0.26495 0.93471 0.0
H3353 H 0.78666 0.24532 0.96494 0.0
H3354 H 0.76542 0.18192 0.91853 0.0
H3355 H 0.75049 0.20193 0.88819 0.0
C3356 C 0.78794 0.16359 0.97727 0.0
C3357 C 0.7807 0.16986 0.99875 0.0
C3358 C 0.78891 0.17828 0.96017 0.0
C3359 C 0.78188 0.19906 0.96408 0.0
C3360 C 0.77611 0.2058 0.98628 0.0
C3361 C 0.77577 0.19142 1.00353 0.0
C3362 C 0.76936 0.24685 0.93111 0.0
C3363 C 0.75867 0.23472 0.90956 0.0
C3364 C 0.77877 0.2356 0.9483 0.0
C3365 C 0.77702 0.21194 0.94438 0.0
C3366 C 0.76738 0.20015 0.9222 0.0
C3367 C 0.75846 0.2115 0.90489 0.0
H3368 H 0.1756 0.58352 0.18446 0.0
H3369 H 0.13614 0.51919 0.19723 0.0
H3370 H 0.15064 0.58134 0.14753 0.0
H3371 H 0.11164 0.51682 0.16016 0.0
H3372 H 0.08709 0.51479 0.08138 0.0
H3373 H 0.11663 0.51641 0.11423 0.0
H3374 H 0.10444 0.58083 0.14366 0.0
H3375 H 0.0746 0.5792 0.11069 0.0
C3376 C 0.162 0.56867 0.179 0.0
C3377 C 0.15753 0.55155 0.19349 0.0
C3378 C 0.14774 0.56754 0.15812 0.0
C3379 C 0.12935 0.54902 0.15142 0.0
C3380 C 0.12583 0.53121 0.16516 0.0
C3381 C 0.13974 0.53257 0.18624 0.0
C3382 C 0.09089 0.52939 0.09476 0.0
C3383 C 0.07889 0.54701 0.09365 0.0
C3384 C 0.10767 0.53026 0.11344 0.0
C3385 C 0.11278 0.54885 0.13103 0.0
C3386 C 0.10085 0.56653 0.12994 0.0
C3387 C 0.08374 0.56548 0.1114 0.0
H3388 H 0.79614 0.83345 0.48146 0.0
H3389 H 0.81845 0.89564 0.45217 0.0
H3390 H 0.79216 0.81204 0.44188 0.0
H3391 H 0.81501 0.87459 0.4138 0.0
H3392 H 0.83099 0.83053 0.352 0.0
H3393 H 0.8344 0.84794 0.39256 0.0
H3394 H 0.76899 0.80694 0.39999 0.0
H3395 H 0.76561 0.78934 0.35915 0.0
C3396 C 0.8003 0.84261 0.46684 0.0
C3397 C 0.80782 0.86648 0.47057 0.0
C3398 C 0.79794 0.83032 0.44405 0.0
C3399 C 0.80354 0.84145 0.4244 0.0
C3400 C 0.8109 0.86519 0.42827 0.0
C3401 C 0.81279 0.87737 0.45064 0.0
C3402 C 0.81742 0.82492 0.36226 0.0
C3403 C 0.79809 0.80833 0.35203 0.0
C3404 C 0.81929 0.83509 0.38564 0.0
C3405 C 0.80198 0.82899 0.39989 0.0
C3406 C 0.78281 0.81202 0.38984 0.0
C3407 C 0.78081 0.80202 0.36626 0.0
H3408 H 0.46013 0.55402 0.85682 0.0
H3409 H 0.47835 0.48949 0.83992 0.0
H3410 H 0.47996 0.55733 0.89665 0.0
H3411 H 0.49795 0.49247 0.88007 0.0
H3412 H 0.50293 0.49434 0.9623 0.0
H3413 H 0.4874 0.49146 0.921 0.0
H3414 H 0.51768 0.56215 0.92057 0.0
H3415 H 0.53391 0.56474 0.96158 0.0
C3416 C 0.4689 0.54077 0.86147 0.0
C3417 C 0.46813 0.52178 0.8449 0.0
C3418 C 0.48023 0.5426 0.88442 0.0
C3419 C 0.49065 0.52516 0.89188 0.0
C3420 C 0.4901 0.50623 0.87516 0.0
C3421 C 0.47916 0.50465 0.85197 0.0
C3422 C 0.50684 0.5091 0.95331 0.0
C3423 C 0.52026 0.52957 0.96547 0.0
C3424 C 0.49776 0.50751 0.92951 0.0
C3425 C 0.5013 0.52652 0.9171 0.0
C3426 C 0.51444 0.5471 0.92936 0.0
C3427 C 0.52384 0.54856 0.95302 0.0
H3428 H 0.75126 0.15969 0.13572 0.0
H3429 H 0.82138 0.18857 0.12877 0.0
H3430 H 0.75409 0.1856 0.17194 0.0
H3431 H 0.82439 0.21406 0.16511 0.0
H3432 H 0.82436 0.24311 0.24135 0.0
H3433 H 0.82139 0.21295 0.20917 0.0
H3434 H 0.76009 0.2303 0.17687 0.0
H3435 H 0.76293 0.2606 0.20933 0.0
C3436 C 0.76747 0.17101 0.14247 0.0
C3437 C 0.78617 0.17225 0.12979 0.0
C3438 C 0.76899 0.18594 0.16289 0.0
C3439 C 0.78937 0.20181 0.17098 0.0
C3440 C 0.80853 0.20188 0.15914 0.0
C3441 C 0.80686 0.18733 0.1385 0.0
C3442 C 0.81022 0.24048 0.2274 0.0
C3443 C 0.79381 0.25406 0.2277 0.0
C3444 C 0.80856 0.22325 0.20908 0.0
C3445 C 0.79042 0.21929 0.19086 0.0
C3446 C 0.77403 0.23291 0.19104 0.0
C3447 C 0.7758 0.25035 0.20933 0.0
H3448 H 0.19824 0.56731 0.3535 0.0
H3449 H 0.14024 0.53517 0.30216 0.0
H3450 H 0.17314 0.56933 0.38317 0.0
H3451 H 0.11505 0.53612 0.33235 0.0
H3452 H 0.07901 0.58113 0.3794 0.0
H3453 H 0.10132 0.56661 0.35101 0.0
H3454 H 0.14793 0.55306 0.4075 0.0
H3455 H 0.12715 0.56963 0.43573 0.0
C3456 C 0.1802 0.55996 0.34872 0.0
C3457 C 0.17114 0.55165 0.32538 0.0
C3458 C 0.16574 0.56097 0.36583 0.0
C3459 C 0.14198 0.55326 0.36004 0.0
C3460 C 0.13321 0.54278 0.33719 0.0
C3461 C 0.14766 0.54209 0.31997 0.0
C3462 C 0.09413 0.57525 0.38573 0.0
C3463 C 0.1014 0.57688 0.40985 0.0
C3464 C 0.10666 0.56643 0.36945 0.0
C3465 C 0.12653 0.55878 0.377 0.0
C3466 C 0.13296 0.55917 0.40109 0.0
C3467 C 0.1208 0.56845 0.41731 0.0
H3468 H 0.77855 0.83696 0.59678 0.0
H3469 H 0.8331 0.89142 0.63088 0.0
H3470 H 0.77347 0.82302 0.63483 0.0
H3471 H 0.82871 0.87684 0.66865 0.0
H3472 H 0.82908 0.8183 0.72119 0.0
H3473 H 0.83274 0.83392 0.68389 0.0
H3474 H 0.76305 0.84218 0.67973 0.0
H3475 H 0.75993 0.82799 0.71807 0.0
C3476 C 0.78955 0.84598 0.61231 0.0
C3477 C 0.80627 0.86547 0.61042 0.0
C3478 C 0.78656 0.83798 0.63426 0.0
C3479 C 0.80064 0.84871 0.6551 0.0
C3480 C 0.81749 0.86803 0.65316 0.0
C3481 C 0.82 0.87646 0.63137 0.0
C3482 C 0.81465 0.82392 0.71265 0.0
C3483 C 0.79446 0.82255 0.72331 0.0
C3484 C 0.81673 0.8328 0.69108 0.0
C3485 C 0.79828 0.83956 0.67856 0.0
C3486 C 0.77774 0.83739 0.68877 0.0
C3487 C 0.77598 0.82937 0.71091 0.0
H3488 H 0.75123 0.48217 0.46788 0.0
H3489 H 0.75055 0.44521 0.52808 0.0
H3490 H 0.71633 0.49427 0.47732 0.0
H3491 H 0.71695 0.45772 0.53779 0.0
H3492 H 0.6564 0.47778 0.55474 0.0
H3493 H 0.67756 0.45739 0.52914 0.0
H3494 H 0.71089 0.52129 0.50888 0.0
H3495 H 0.68877 0.54126 0.53363 0.0
C3496 C 0.74349 0.47643 0.48286 0.0
C3497 C 0.75365 0.46292 0.49731 0.0
C3498 C 0.72358 0.48328 0.48823 0.0
C3499 C 0.71387 0.47689 0.50824 0.0
C3500 C 0.72353 0.46246 0.52188 0.0
C3501 C 0.74306 0.45546 0.51641 0.0
C3502 C 0.66801 0.48722 0.54441 0.0
C3503 C 0.67182 0.51092 0.54646 0.0
C3504 C 0.67997 0.47567 0.52973 0.0
C3505 C 0.69624 0.48782 0.51743 0.0
C3506 C 0.69847 0.51145 0.51807 0.0
C3507 C 0.68621 0.52293 0.5325 0.0
H3508 H 0.18485 0.173 0.50003 0.0
H3509 H 0.22445 0.12931 0.5314 0.0
H3510 H 0.1497 0.14606 0.50338 0.0
H3511 H 0.18995 0.10131 0.53275 0.0
H3512 H 0.12371 0.06241 0.55288 0.0
H3513 H 0.15885 0.08902 0.54953 0.0
H3514 H 0.12409 0.11335 0.49098 0.0
H3515 H 0.08879 0.08784 0.49567 0.0
C3516 C 0.18602 0.15737 0.50719 0.0
C3517 C 0.20749 0.15292 0.51459 0.0
C3518 C 0.16581 0.14163 0.50892 0.0
C3519 C 0.16646 0.12091 0.5181 0.0
C3520 C 0.18817 0.1169 0.52586 0.0
C3521 C 0.20822 0.13283 0.52459 0.0
C3522 C 0.12368 0.07335 0.53919 0.0
C3523 C 0.10335 0.07294 0.52461 0.0
C3524 C 0.14399 0.08871 0.53711 0.0
C3525 C 0.14479 0.10388 0.51999 0.0
C3526 C 0.12446 0.10271 0.50487 0.0
C3527 C 0.10408 0.08775 0.50735 0.0
H3528 H 0.15184 0.98584 0.82202 0.0
H3529 H 0.19646 0.02176 0.77847 0.0
H3530 H 0.16992 0.95282 0.81582 0.0
H3531 H 0.21493 0.98949 0.77294 0.0
H3532 H 0.26063 0.94165 0.78736 0.0
H3533 H 0.24036 0.97124 0.79982 0.0
H3534 H 0.17601 0.92322 0.78184 0.0
H3535 H 0.19644 0.89367 0.76923 0.0
C3536 C 0.16524 0.9865 0.81085 0.0
C3537 C 0.17276 1.00627 0.80066 0.0
C3538 C 0.17571 0.96774 0.80747 0.0
C3539 C 0.19423 0.96875 0.79434 0.0
C3540 C 0.20111 0.98834 0.78361 0.0
C3541 C 0.19042 1.00676 0.78662 0.0
C3542 C 0.24225 0.9372 0.78707 0.0
C3543 C 0.23013 0.91531 0.77774 0.0
C3544 C 0.23059 0.9542 0.79383 0.0
C3545 C 0.20653 0.94967 0.79145 0.0
C3546 C 0.19451 0.92725 0.78395 0.0
C3547 C 0.20621 0.91028 0.77694 0.0
H3548 H 0.38263 0.93354 0.99347 0.0
H3549 H 0.36154 0.99032 0.02976 0.0
H3550 H 0.42237 0.9542 1.00124 0.0
H3551 H 0.40091 0.01173 0.03622 0.0
H3552 H 0.47709 0.03511 0.06168 0.0
H3553 H 0.43771 0.01313 0.05753 0.0
H3554 H 0.44417 0.98601 0.98682 0.0
H3555 H 0.48353 1.00694 0.99172 0.0
C3556 C 0.38663 0.95058 1.00284 0.0
C3557 C 0.36937 0.96096 0.01019 0.0
C3558 C 0.40918 0.96241 0.0072 0.0
C3559 C 0.41455 0.98467 0.01899 0.0
C3560 C 0.39723 0.99456 0.02721 0.0
C3561 C 0.37476 0.98258 0.02313 0.0
C3562 C 0.46983 0.02432 0.04541 0.0
C3563 C 0.48273 0.02246 0.02693 0.0
C3564 C 0.44748 0.01192 0.04294 0.0
C3565 C 0.43806 0.9978 0.0219 0.0
C3566 C 0.45116 0.99639 1.00337 0.0
C3567 C 0.47347 1.00851 1.00599 0.0
H3568 H 0.83693 0.57273 0.84672 0.0
H3569 H 0.89348 0.59412 0.80809 0.0
H3570 H 0.82133 0.60533 0.83703 0.0
H3571 H 0.87762 0.6263 0.79822 0.0
H3572 H 0.8453 0.68447 0.78417 0.0
H3573 H 0.86429 0.66217 0.81004 0.0
H3574 H 0.80416 0.60789 0.79619 0.0
H3575 H 0.78544 0.63011 0.77048 0.0
C3576 C 0.84632 0.58462 0.83665 0.0
C3577 C 0.86608 0.58049 0.82759 0.0
C3578 C 0.83739 0.60327 0.83117 0.0
C3579 C 0.8481 0.61803 0.81661 0.0
C3580 C 0.86908 0.61522 0.80959 0.0
C3581 C 0.87802 0.59661 0.81506 0.0
C3582 C 0.83615 0.66791 0.7871 0.0
C3583 C 0.81417 0.65867 0.77523 0.0
C3584 C 0.84692 0.65526 0.80185 0.0
C3585 C 0.83563 0.63341 0.80512 0.0
C3586 C 0.81312 0.62483 0.79425 0.0
C3587 C 0.80253 0.63732 0.7793 0.0
H3588 H 0.83331 0.67581 0.05424 0.0
H3589 H 0.82486 0.64386 0.98271 0.0
H3590 H 0.8669 0.65943 0.06305 0.0
H3591 H 0.85849 0.6281 0.9912 0.0
H3592 H 0.89651 0.57689 0.02371 0.0
H3593 H 0.86833 0.59857 0.01082 0.0
H3594 H 0.90531 0.65708 0.05857 0.0
H3595 H 0.93297 0.63487 0.07188 0.0
C3596 C 0.83897 0.66585 0.04024 0.0
C3597 C 0.82623 0.66109 0.01782 0.0
C3598 C 0.85827 0.65638 0.04526 0.0
C3599 C 0.86541 0.64205 0.02793 0.0
C3600 C 0.85335 0.6385 1.0052 0.0
C3601 C 0.83408 0.64776 1.00028 0.0
C3602 C 0.89901 0.59462 0.03079 0.0
C3603 C 0.91712 0.60429 0.04849 0.0
C3604 C 0.88277 0.60712 0.02352 0.0
C3605 C 0.88426 0.62969 0.03376 0.0
C3606 C 0.90324 0.6397 0.05056 0.0
C3607 C 0.91935 0.62712 0.05791 0.0
H3608 H 0.20229 0.10664 0.79064 0.0
H3609 H 0.15511 0.1442 0.81812 0.0
H3610 H 0.22948 0.14179 0.78945 0.0
H3611 H 0.1813 0.17982 0.81499 0.0
H3612 H 0.23808 0.24208 0.82407 0.0
H3613 H 0.21363 0.20621 0.82879 0.0
H3614 H 0.24053 0.17282 0.77155 0.0
H3615 H 0.2659 0.20863 0.76796 0.0
C3616 C 0.19784 0.12254 0.79669 0.0
C3617 C 0.17698 0.12256 0.80554 0.0
C3618 C 0.2133 0.14291 0.7955 0.0
C3619 C 0.20805 0.16417 0.80223 0.0
C3620 C 0.18663 0.16407 0.81029 0.0
C3621 C 0.17135 0.14359 0.81189 0.0
C3622 C 0.23896 0.22698 0.81268 0.0
C3623 C 0.25409 0.22832 0.79569 0.0
C3624 C 0.22464 0.20629 0.81518 0.0
C3625 C 0.22451 0.18618 0.80041 0.0
C3626 C 0.24006 0.18754 0.78364 0.0
C3627 C 0.25471 0.20822 0.78145 0.0
H3628 H 0.343 0.9718 0.28727 0.0
H3629 H 0.40016 0.95315 0.32638 0.0
H3630 H 0.32364 0.93198 0.27876 0.0
H3631 H 0.38059 0.91315 0.31858 0.0
H3632 H 0.34991 0.8431 0.28357 0.0
H3633 H 0.36873 0.88278 0.28645 0.0
H3634 H 0.30547 0.90253 0.29946 0.0
H3635 H 0.28639 0.86282 0.29554 0.0
C3636 C 0.35117 0.95904 0.2943 0.0
C3637 C 0.37257 0.96516 0.308 0.0
C3638 C 0.34019 0.93636 0.28941 0.0
C3639 C 0.35061 0.91957 0.29807 0.0
C3640 C 0.37233 0.92579 0.31144 0.0
C3641 C 0.38341 0.94852 0.31611 0.0
C3642 C 0.33987 0.8559 0.28637 0.0
C3643 C 0.3167 0.84997 0.28919 0.0
C3644 C 0.35075 0.8786 0.28842 0.0
C3645 C 0.33864 0.89566 0.29361 0.0
C3646 C 0.31522 0.88971 0.29548 0.0
C3647 C 0.30431 0.867 0.29326 0.0
H3648 H 0.53159 0.34885 0.56705 0.0
H3649 H 0.59348 0.38048 0.61256 0.0
H3650 H 0.52747 0.3853 0.55557 0.0
H3651 H 0.58968 0.41758 0.60047 0.0
H3652 H 0.56959 0.48677 0.5865 0.0
H3653 H 0.57488 0.45052 0.59906 0.0
H3654 H 0.53491 0.41524 0.5348 0.0
H3655 H 0.52996 0.45143 0.52237 0.0
C3656 C 0.54466 0.36353 0.57467 0.0
C3657 C 0.56303 0.36077 0.59097 0.0
C3658 C 0.54231 0.38497 0.56775 0.0
C3659 C 0.55821 0.40546 0.57651 0.0
C3660 C 0.57665 0.40284 0.59303 0.0
C3661 C 0.57899 0.38118 0.60004 0.0
C3662 C 0.56181 0.47133 0.57492 0.0
C3663 C 0.54885 0.47282 0.5533 0.0
C3664 C 0.565 0.45012 0.5822 0.0
C3665 C 0.55531 0.42886 0.56844 0.0
C3666 C 0.54251 0.43048 0.54669 0.0
C3667 C 0.53953 0.4517 0.53934 0.0
H3668 H 0.45768 0.75016 0.38474 0.0
H3669 H 0.43204 0.79031 0.43733 0.0
H3670 H 0.42381 0.7492 0.35715 0.0
H3671 H 0.39837 0.79038 0.40956 0.0
H3672 H 0.33233 0.77859 0.35889 0.0
H3673 H 0.36375 0.77499 0.38738 0.0
H3674 H 0.40485 0.76724 0.33153 0.0
H3675 H 0.3734 0.77062 0.30331 0.0
C3676 C 0.44472 0.75884 0.39044 0.0
C3677 C 0.44801 0.77076 0.4132 0.0
C3678 C 0.42515 0.75848 0.37442 0.0
C3679 C 0.40792 0.77009 0.38044 0.0
C3680 C 0.41077 0.78103 0.4038 0.0
C3681 C 0.43029 0.78111 0.41993 0.0
C3682 C 0.34808 0.77624 0.35253 0.0
C3683 C 0.35006 0.77559 0.32831 0.0
C3684 C 0.36645 0.77432 0.36915 0.0
C3685 C 0.38767 0.77132 0.36241 0.0
C3686 C 0.38927 0.76978 0.33806 0.0
C3687 C 0.371 0.77198 0.32151 0.0
H3688 H 0.08482 0.7431 0.07004 0.0
H3689 H 0.04087 0.72418 0.12178 0.0
H3690 H 0.08188 0.70264 0.05592 0.0
H3691 H 0.03711 0.68397 0.10727 0.0
H3692 H 0.01925 0.61278 0.0645 0.0
H3693 H 0.02187 0.65318 0.07575 0.0
H3694 H 0.09304 0.66661 0.06623 0.0
H3695 H 0.09033 0.62581 0.05503 0.0
C3696 C 0.07401 0.73038 0.07806 0.0
C3697 C 0.06265 0.73733 0.09683 0.0
C3698 C 0.07252 0.70695 0.0701 0.0
C3699 C 0.05922 0.68935 0.08025 0.0
C3700 C 0.04744 0.6965 0.09863 0.0
C3701 C 0.04953 0.71982 0.10702 0.0
C3702 C 0.03566 0.62409 0.06483 0.0
C3703 C 0.05466 0.6152 0.05869 0.0
C3704 C 0.03715 0.64765 0.07144 0.0
C3705 C 0.05771 0.66387 0.07221 0.0
C3706 C 0.07671 0.65513 0.06577 0.0
C3707 C 0.07521 0.63141 0.05929 0.0
H3708 H 0.06186 0.3102 0.88646 0.0
H3709 H 0.08217 0.26693 0.9363 0.0
H3710 H 0.09517 0.30874 0.86778 0.0
H3711 H 0.11678 0.26584 0.91702 0.0
H3712 H 0.1876 0.30343 0.89205 0.0
H3713 H 0.15315 0.29251 0.91059 0.0
H3714 H 0.11217 0.28334 0.843 0.0
H3715 H 0.14674 0.29478 0.82457 0.0
C3716 C 0.07338 0.30021 0.89363 0.0
C3717 C 0.06888 0.28861 0.9132 0.0
C3718 C 0.09261 0.29921 0.88247 0.0
C3719 C 0.1086 0.28679 0.89038 0.0
C3720 C 0.1047 0.27546 0.91027 0.0
C3721 C 0.08493 0.27617 0.92144 0.0
C3722 C 0.17127 0.29835 0.88103 0.0
C3723 C 0.16995 0.30023 0.85682 0.0
C3724 C 0.15147 0.29204 0.8917 0.0
C3725 C 0.12974 0.28751 0.87848 0.0
C3726 C 0.12859 0.28717 0.85388 0.0
C3727 C 0.14844 0.29345 0.84318 0.0
H3728 H 0.54231 0.77987 0.93796 0.0
H3729 H 0.55476 0.73982 0.87651 0.0
H3730 H 0.53687 0.74662 0.95838 0.0
H3731 H 0.55075 0.7063 0.89751 0.0
H3732 H 0.51425 0.64642 0.93371 0.0
H3733 H 0.52569 0.67846 0.91212 0.0
H3734 H 0.55283 0.72114 0.97767 0.0
H3735 H 0.54042 0.68907 0.999 0.0
C3736 C 0.54433 0.76393 0.92893 0.0
C3737 C 0.54909 0.76259 0.9056 0.0
C3738 C 0.54142 0.74473 0.94079 0.0
C3739 C 0.54369 0.72346 0.92999 0.0
C3740 C 0.5486 0.72216 0.90655 0.0
C3741 C 0.55101 0.74142 0.89443 0.0
C3742 C 0.52328 0.66253 0.94338 0.0
C3743 C 0.52669 0.66515 0.96803 0.0
C3744 C 0.52984 0.68105 0.931 0.0
C3745 C 0.53987 0.70284 0.94294 0.0
C3746 C 0.54462 0.70495 0.96766 0.0
C3747 C 0.53795 0.68642 0.98001 0.0
H3748 H 0.11057 0.78101 0.69411 0.0
H3749 H 0.09328 0.75679 0.75848 0.0
H3750 H 0.15086 0.78368 0.70702 0.0
H3751 H 0.13417 0.76033 0.77226 0.0
H3752 H 0.21107 0.75183 0.78422 0.0
H3753 H 0.16984 0.74871 0.77293 0.0
H3754 H 0.18507 0.80047 0.72767 0.0
H3755 H 0.22553 0.80284 0.7382 0.0
C3756 C 0.11533 0.77677 0.71144 0.0
C3757 C 0.09799 0.76944 0.72532 0.0
C3758 C 0.13893 0.77838 0.71909 0.0
C3759 C 0.14695 0.77252 0.74115 0.0
C3760 C 0.12952 0.76505 0.75514 0.0
C3761 C 0.10571 0.7634 0.74737 0.0
C3762 C 0.20572 0.76223 0.77148 0.0
C3763 C 0.22254 0.7773 0.76203 0.0
C3764 C 0.18167 0.7607 0.76512 0.0
C3765 C 0.17302 0.77412 0.74888 0.0
C3766 C 0.19001 0.78921 0.73969 0.0
C3767 C 0.21381 0.79073 0.74601 0.0
H3768 H 0.06179 0.41397 0.38108 0.0
H3769 H 0.06324 0.37104 0.43599 0.0
H3770 H 0.06041 0.44599 0.40991 0.0
H3771 H 0.06243 0.40307 0.4649 0.0
H3772 H 0.03748 0.45873 0.50949 0.0
H3773 H 0.04071 0.42712 0.48131 0.0
H3774 H 0.07784 0.47423 0.44079 0.0
H3775 H 0.07462 0.50586 0.46919 0.0
C3776 C 0.0622 0.41132 0.39933 0.0
C3777 C 0.06278 0.38955 0.40583 0.0
C3778 C 0.06144 0.42991 0.41611 0.0
C3779 C 0.06121 0.42764 0.44022 0.0
C3780 C 0.06216 0.4059 0.44671 0.0
C3781 C 0.06289 0.38734 0.42995 0.0
C3782 C 0.04691 0.46248 0.49499 0.0
C3783 C 0.05625 0.48524 0.49235 0.0
C3784 C 0.04866 0.4441 0.47848 0.0
C3785 C 0.05969 0.44756 0.45833 0.0
C3786 C 0.06896 0.4704 0.45566 0.0
C3787 C 0.06725 0.48876 0.47223 0.0
H3788 H 0.45842 0.28954 0.20338 0.0
H3789 H 0.45731 0.23025 0.23855 0.0
H3790 H 0.42376 0.29573 0.21936 0.0
H3791 H 0.42205 0.23608 0.25431 0.0
H3792 H 0.3436 0.24056 0.25726 0.0
H3793 H 0.37993 0.23451 0.24448 0.0
H3794 H 0.40547 0.30688 0.25313 0.0
H3795 H 0.36953 0.31266 0.26623 0.0
C3796 C 0.45115 0.27799 0.21502 0.0
C3797 C 0.46174 0.25973 0.22 0.0
C3798 C 0.43087 0.28151 0.22423 0.0
C3799 C 0.41928 0.26655 0.23847 0.0
C3800 C 0.42985 0.24818 0.24349 0.0
C3801 C 0.45056 0.24495 0.23464 0.0
C3802 C 0.35694 0.2553 0.25664 0.0
C3803 C 0.35297 0.27732 0.26328 0.0
C3804 C 0.37814 0.25178 0.24929 0.0
C3805 C 0.39647 0.27008 0.24747 0.0
C3806 C 0.39232 0.29204 0.25393 0.0
C3807 C 0.3714 0.29548 0.26179 0.0
H3808 H 0.58915 0.53323 0.34651 0.0
H3809 H 0.646 0.57668 0.39178 0.0
H3810 H 0.56894 0.52679 0.38112 0.0
H3811 H 0.62555 0.5712 0.4255 0.0
H3812 H 0.56619 0.5758 0.47336 0.0
H3813 H 0.58382 0.58068 0.43729 0.0
H3814 H 0.58056 0.50863 0.42514 0.0
H3815 H 0.56435 0.504 0.46225 0.0
C3816 C 0.59725 0.54172 0.36361 0.0
C3817 C 0.61934 0.55571 0.36592 0.0
C3818 C 0.58569 0.5379 0.38355 0.0
C3819 C 0.59552 0.54851 0.40632 0.0
C3820 C 0.61728 0.56279 0.40842 0.0
C3821 C 0.62903 0.56599 0.38882 0.0
C3822 C 0.56949 0.561 0.46319 0.0
C3823 C 0.56435 0.53959 0.47122 0.0
C3824 C 0.57946 0.56378 0.44233 0.0
C3825 C 0.58362 0.54507 0.42801 0.0
C3826 C 0.57761 0.52346 0.43553 0.0
C3827 C 0.56845 0.52082 0.45695 0.0
H3828 H 0.3047 0.93796 0.08685 0.0
H3829 H 0.29513 0.87283 0.04449 0.0
H3830 H 0.31015 0.91967 0.1223 0.0
H3831 H 0.30165 0.85499 0.07923 0.0
H3832 H 0.30638 0.82309 0.1433 0.0
H3833 H 0.28913 0.84324 0.11405 0.0
H3834 H 0.34068 0.904 0.13951 0.0
H3835 H 0.35721 0.88381 0.16922 0.0
C3836 C 0.30338 0.91973 0.08517 0.0
C3837 C 0.29945 0.90681 0.06298 0.0
C3838 C 0.30665 0.90929 0.10538 0.0
C3839 C 0.3064 0.88587 0.10361 0.0
C3840 C 0.30142 0.87293 0.08139 0.0
C3841 C 0.29779 0.88323 0.06136 0.0
C3842 C 0.31369 0.84084 0.14268 0.0
C3843 C 0.33324 0.85196 0.15788 0.0
C3844 C 0.30392 0.85238 0.12602 0.0
C3845 C 0.31375 0.87514 0.12419 0.0
C3846 C 0.3326 0.88655 0.14048 0.0
C3847 C 0.34228 0.87499 0.15724 0.0
H3848 H 0.90377 0.52801 0.90989 0.0
H3849 H 0.95546 0.53921 0.86317 0.0
H3850 H 0.93387 0.53379 0.9431 0.0
H3851 H 0.98516 0.54485 0.89634 0.0
H3852 H 0.02482 0.51931 0.95905 0.0
H3853 H 0.99612 0.51701 0.92517 0.0
H3854 H 0.96714 0.56768 0.96258 0.0
H3855 H 0.99597 0.57042 0.99624 0.0
C3856 C 0.92145 0.53187 0.90672 0.0
C3857 C 0.92724 0.5331 0.88394 0.0
C3858 C 0.93857 0.53521 0.92566 0.0
C3859 C 0.96158 0.53965 0.92197 0.0
C3860 C 0.96742 0.54123 0.89937 0.0
C3861 C 0.95039 0.53807 0.88049 0.0
C3862 C 1.01255 0.53021 0.95983 0.0
C3863 C 1.01241 0.5449 0.98017 0.0
C3864 C 0.9962 0.52885 0.94058 0.0
C3865 C 0.97954 0.54206 0.94163 0.0
C3866 C 0.97977 0.55719 0.96169 0.0
C3867 C 0.99624 0.55874 0.98082 0.0
H3868 H 0.28364 0.25266 0.58641 0.0
H3869 H 0.26642 0.18481 0.605 0.0
H3870 H 0.28559 0.26828 0.62756 0.0
H3871 H 0.26806 0.20027 0.64597 0.0
H3872 H 0.29407 0.23331 0.72149 0.0
H3873 H 0.29218 0.21837 0.68046 0.0
H3874 H 0.26468 0.27512 0.65976 0.0
H3875 H 0.26724 0.29044 0.70104 0.0
C3876 C 0.28032 0.24101 0.59924 0.0
C3877 C 0.27498 0.21736 0.59209 0.0
C3878 C 0.28124 0.25001 0.62299 0.0
C3879 C 0.27701 0.23572 0.64059 0.0
C3880 C 0.27179 0.21205 0.63334 0.0
C3881 C 0.27073 0.20308 0.60962 0.0
C3882 C 0.28757 0.24271 0.70829 0.0
C3883 C 0.28069 0.26317 0.715 0.0
C3884 C 0.28632 0.23396 0.6845 0.0
C3885 C 0.27819 0.2453 0.66626 0.0
C3886 C 0.2713 0.26582 0.67298 0.0
C3887 C 0.27253 0.27458 0.69686 0.0
H3888 H 0.57885 0.54821 0.23157 0.0
H3889 H 0.64719 0.55708 0.21298 0.0
H3890 H 0.56359 0.54607 0.1902 0.0
H3891 H 0.63206 0.55497 0.17168 0.0
H3892 H 0.59673 0.52817 0.09671 0.0
H3893 H 0.61142 0.53053 0.13795 0.0
H3894 H 0.55966 0.56672 0.15684 0.0
H3895 H 0.54452 0.56382 0.11535 0.0
C3896 C 0.59068 0.54959 0.21868 0.0
C3897 C 0.61436 0.55271 0.22593 0.0
C3898 C 0.5819 0.54856 0.1948 0.0
C3899 C 0.5964 0.55032 0.17709 0.0
C3900 C 0.62009 0.55325 0.18441 0.0
C3901 C 0.62888 0.55456 0.20831 0.0
C3902 C 0.58839 0.53674 0.10953 0.0
C3903 C 0.56936 0.54595 0.10221 0.0
C3904 C 0.59701 0.53822 0.13344 0.0
C3905 C 0.58699 0.54892 0.15126 0.0
C3906 C 0.56789 0.55812 0.14397 0.0
C3907 C 0.55927 0.55666 0.11995 0.0
H3908 H 0.26698 0.90172 0.93101 0.0
H3909 H 0.34012 0.90974 0.9344 0.0
H3910 H 0.26172 0.87016 0.89942 0.0
H3911 H 0.33517 0.8792 0.90228 0.0
H3912 H 0.32055 0.81079 0.86141 0.0
H3913 H 0.3218 0.83846 0.89548 0.0
H3914 H 0.26801 0.86455 0.85872 0.0
H3915 H 0.26583 0.8361 0.8253 0.0
C3916 C 0.28182 0.89696 0.92448 0.0
C3917 C 0.30388 0.90827 0.93421 0.0
C3918 C 0.27889 0.87902 0.90662 0.0
C3919 C 0.29806 0.87232 0.89856 0.0
C3920 C 0.32013 0.88388 0.90841 0.0
C3921 C 0.32301 0.90165 0.92632 0.0
C3922 C 0.30877 0.82222 0.86085 0.0
C3923 C 0.29342 0.82172 0.84073 0.0
C3924 C 0.30959 0.8381 0.88018 0.0
C3925 C 0.29524 0.85377 0.87945 0.0
C3926 C 0.27917 0.85256 0.85971 0.0
C3927 C 0.27814 0.83648 0.84051 0.0
H3928 H 0.95546 0.55312 0.77004 0.0
H3929 H 0.88994 0.51948 0.73151 0.0
H3930 H 0.97361 0.5473 0.73513 0.0
H3931 H 0.9082 0.51409 0.69618 0.0
H3932 H 0.95752 0.47241 0.66194 0.0
H3933 H 0.93392 0.48762 0.68879 0.0
H3934 H 0.97826 0.55401 0.69456 0.0
H3935 H 1.00183 0.53858 0.6676 0.0
C3936 C 0.94479 0.54516 0.7539 0.0
C3937 C 0.92133 0.53642 0.75358 0.0
C3938 C 0.95521 0.54194 0.73382 0.0
C3939 C 0.94235 0.53 0.71301 0.0
C3940 C 0.91854 0.52306 0.71213 0.0
C3941 C 0.90809 0.52625 0.73229 0.0
C3942 C 0.96199 0.49027 0.66886 0.0
C3943 C 0.98152 0.50433 0.66321 0.0
C3944 C 0.94838 0.49907 0.68392 0.0
C3945 C 0.95428 0.52201 0.69377 0.0
C3946 C 0.97339 0.53626 0.68729 0.0
C3947 C 0.98684 0.52749 0.67197 0.0
H3948 H 0.26911 0.17903 0.42674 0.0
H3949 H 0.27866 0.24344 0.47018 0.0
H3950 H 0.27512 0.19813 0.3928 0.0
H3951 H 0.28545 0.26304 0.43552 0.0
H3952 H 0.27546 0.29038 0.36299 0.0
H3953 H 0.27116 0.27337 0.3992 0.0
H3954 H 0.30019 0.21799 0.3715 0.0
H3955 H 0.30378 0.23474 0.33514 0.0
C3956 C 0.27269 0.19742 0.42929 0.0
C3957 C 0.27334 0.20943 0.45178 0.0
C3958 C 0.27643 0.20856 0.40945 0.0
C3959 C 0.28118 0.23243 0.41083 0.0
C3960 C 0.28176 0.24466 0.4333 0.0
C3961 C 0.27795 0.23338 0.4534 0.0
C3962 C 0.28118 0.27467 0.36467 0.0
C3963 C 0.29014 0.26412 0.34584 0.0
C3964 C 0.27872 0.26483 0.38568 0.0
C3965 C 0.28508 0.24397 0.38881 0.0
C3966 C 0.29446 0.23371 0.37004 0.0
C3967 C 0.29677 0.24347 0.34901 0.0
H3968 H 0.3409 0.64423 0.53872 0.0
H3969 H 0.32406 0.59156 0.58257 0.0
H3970 H 0.37697 0.63341 0.5342 0.0
H3971 H 0.36114 0.58128 0.57948 0.0
H3972 H 0.39675 0.54409 0.52396 0.0
H3973 H 0.37162 0.56103 0.54712 0.0
H3974 H 0.41345 0.62772 0.54558 0.0
H3975 H 0.4377 0.6105 0.52099 0.0
C3976 C 0.3456 0.63097 0.54826 0.0
C3977 C 0.33007 0.61852 0.56079 0.0
C3978 C 0.36635 0.62483 0.5459 0.0
C3979 C 0.3719 0.60625 0.55628 0.0
C3980 C 0.35713 0.59535 0.57089 0.0
C3981 C 0.33607 0.60124 0.57281 0.0
C3982 C 0.40062 0.56234 0.5289 0.0
C3983 C 0.41854 0.57619 0.52031 0.0
C3984 C 0.38648 0.57207 0.54248 0.0
C3985 C 0.39032 0.59583 0.54794 0.0
C3986 C 0.4097 0.60943 0.54115 0.0
C3987 C 0.42351 0.59968 0.52708 0.0
H3988 H 0.8691 0.94976 0.57184 0.0
H3989 H 0.88966 0.90137 0.52299 0.0
H3990 H 0.90559 0.97645 0.57204 0.0
H3991 H 0.92594 0.92847 0.52246 0.0
H3992 H 0.96857 1.00007 0.50598 0.0
H3993 H 0.93432 0.97143 0.50833 0.0
H3994 H 0.95196 0.97651 0.58308 0.0
H3995 H 0.9879 1.00326 0.58034 0.0
C3996 C 0.88153 0.94477 0.56127 0.0
C3997 C 0.87637 0.92357 0.54715 0.0
C3998 C 0.90245 0.96005 0.56143 0.0
C3999 C 0.91865 0.95469 0.54715 0.0
C4000 C 0.91377 0.93318 0.53355 0.0
C4001 C 0.89307 0.91761 0.53392 0.0
C4002 C 0.96509 0.99516 0.52294 0.0
C4003 C 0.981 1.00384 0.54295 0.0
C4004 C 0.9454 0.97873 0.52428 0.0
C4005 C 0.94012 0.97178 0.54587 0.0
C4006 C 0.95547 0.98143 0.56614 0.0
C4007 C 0.97596 0.99683 0.5646 0.0
H4008 H 0.8898 0.05942 0.2423 0.0
H4009 H 0.93511 0.08863 0.30544 0.0
H4010 H 0.87369 0.09351 0.24293 0.0
H4011 H 0.91871 0.12254 0.30671 0.0
H4012 H 0.88913 0.18408 0.3046 0.0
H4013 H 0.91126 0.15615 0.29196 0.0
H4014 H 0.84831 0.10773 0.26623 0.0
H4015 H 0.82656 0.13593 0.27831 0.0
C4016 C 0.89686 0.07355 0.25586 0.0
C4017 C 0.91404 0.07167 0.27352 0.0
C4018 C 0.8874 0.09297 0.25646 0.0
C4019 C 0.89466 0.11085 0.275 0.0
C4020 C 0.91285 0.1094 0.29194 0.0
C4021 C 0.92237 0.08999 0.29123 0.0
C4022 C 0.88018 0.16778 0.29525 0.0
C4023 C 0.85619 0.16227 0.29194 0.0
C4024 C 0.8928 0.15161 0.28837 0.0
C4025 C 0.88168 0.12948 0.27826 0.0
C4026 C 0.85761 0.1246 0.2736 0.0
C4027 C 0.84505 0.14079 0.28042 0.0
H4028 H 0.7002 0.15231 0.03295 0.0
H4029 H 0.7163 0.09577 0.06627 0.0
H4030 H 0.65958 0.13304 0.02574 0.0
H4031 H 0.67634 0.07679 0.05947 0.0
H4032 H 0.61095 0.03664 0.02731 0.0
H4033 H 0.64881 0.05877 0.02518 0.0
H4034 H 0.62775 0.12021 0.05013 0.0
H4035 H 0.58975 0.09778 0.05266 0.0
C4036 C 0.69493 0.13581 0.03868 0.0
C4037 C 0.71107 0.12494 0.0493 0.0
C4038 C 0.67192 0.12486 0.03457 0.0
C4039 C 0.66511 0.1032 0.04141 0.0
C4040 C 0.68129 0.0931 0.05323 0.0
C4041 C 0.70407 0.10394 0.05721 0.0
C4042 C 0.61431 0.05497 0.03152 0.0
C4043 C 0.59781 0.06575 0.03989 0.0
C4044 C 0.63585 0.06763 0.0302 0.0
C4045 C 0.64113 0.09114 0.03741 0.0
C4046 C 0.62397 0.10215 0.04417 0.0
C4047 C 0.60235 0.08939 0.04561 0.0
H4048 H 0.18834 0.49045 0.2548 0.0
H4049 H 0.25973 0.52241 0.2595 0.0
H4050 H 0.1987 0.45422 0.25966 0.0
H4051 H 0.27015 0.48589 0.26329 0.0
H4052 H 0.27435 0.43988 0.32234 0.0
H4053 H 0.26702 0.47038 0.30024 0.0
H4054 H 0.21683 0.42198 0.25113 0.0
H4055 H 0.22413 0.39145 0.2739 0.0
C4056 C 0.20619 0.48945 0.25575 0.0
C4057 C 0.22334 0.50913 0.25756 0.0
C4058 C 0.21213 0.46868 0.2584 0.0
C4059 C 0.23526 0.46749 0.26257 0.0
C4060 C 0.25222 0.48659 0.26079 0.0
C4061 C 0.2463 0.50742 0.25862 0.0
C4062 C 0.26161 0.43596 0.30696 0.0
C4063 C 0.24916 0.41381 0.30006 0.0
C4064 C 0.25777 0.4532 0.29397 0.0
C4065 C 0.2415 0.44845 0.27379 0.0
C4066 C 0.2294 0.42604 0.26664 0.0
C4067 C 0.2333 0.40874 0.27971 0.0
H4068 H 0.2531 0.41981 0.99907 0.0
H4069 H 0.25364 0.41499 0.07302 0.0
H4070 H 0.22096 0.4386 0.99929 0.0
H4071 H 0.22072 0.43376 0.07318 0.0
H4072 H 0.14496 0.44667 0.04672 0.0
H4073 H 0.17773 0.42853 0.05388 0.0
H4074 H 0.21787 0.4779 0.01789 0.0
H4075 H 0.1852 0.4961 0.01107 0.0
C4076 C 0.2459 0.42225 0.01531 0.0
C4077 C 0.25584 0.41577 0.036 0.0
C4078 C 0.22768 0.43334 0.01549 0.0
C4079 C 0.21865 0.4382 0.03636 0.0
C4080 C 0.22746 0.43037 0.05686 0.0
C4081 C 0.24605 0.41935 0.05672 0.0
C4082 C 0.16107 0.45403 0.04108 0.0
C4083 C 0.16268 0.47286 0.02853 0.0
C4084 C 0.17978 0.44363 0.04511 0.0
C4085 C 0.20027 0.45156 0.03617 0.0
C4086 C 0.20222 0.47123 0.02478 0.0
C4087 C 0.18364 0.48181 0.02107 0.0
H4088 H 0.92709 0.93972 0.29603 0.0
H4089 H 0.8793 0.95869 0.24477 0.0
H4090 H 0.89962 0.90404 0.29747 0.0
H4091 H 0.85216 0.92282 0.24561 0.0
H4092 H 0.82462 0.84226 0.23798 0.0
H4093 H 0.85122 0.87819 0.23568 0.0
H4094 H 0.85736 0.89431 0.31074 0.0
H4095 H 0.82953 0.85925 0.31281 0.0
C4096 C 0.91083 0.93613 0.28489 0.0
C4097 C 0.90517 0.95219 0.27064 0.0
C4098 C 0.89505 0.91577 0.28578 0.0
C4099 C 0.87359 0.91061 0.27177 0.0
C4100 C 0.8685 0.92621 0.25661 0.0
C4101 C 0.88402 0.94678 0.25617 0.0
C4102 C 0.83135 0.85374 0.25392 0.0
C4103 C 0.82485 0.84803 0.27555 0.0
C4104 C 0.84661 0.87428 0.25262 0.0
C4105 C 0.85652 0.88918 0.27304 0.0
C4106 C 0.85003 0.88336 0.29468 0.0
C4107 C 0.83397 0.86333 0.29586 0.0
H4108 H 0.74047 0.11526 0.75256 0.0
H4109 H 0.69164 0.1347 0.79586 0.0
H4110 H 0.76197 0.1543 0.75808 0.0
H4111 H 0.71342 0.17413 0.80184 0.0
H4112 H 0.74319 0.24201 0.77162 0.0
H4113 H 0.722 0.20448 0.77616 0.0
H4114 H 0.78567 0.18223 0.78919 0.0
H4115 H 0.80678 0.22004 0.78528 0.0
C4116 C 0.73467 0.12798 0.76361 0.0
C4117 C 0.71509 0.12223 0.77454 0.0
C4118 C 0.74694 0.1502 0.76687 0.0
C4119 C 0.7396 0.16699 0.78089 0.0
C4120 C 0.71947 0.16134 0.79117 0.0
C4121 C 0.7071 0.13899 0.78778 0.0
C4122 C 0.75259 0.2294 0.77664 0.0
C4123 C 0.77647 0.23375 0.77873 0.0
C4124 C 0.7405 0.20792 0.77912 0.0
C4125 C 0.75226 0.19056 0.78317 0.0
C4126 C 0.77625 0.19536 0.78627 0.0
C4127 C 0.7883 0.21687 0.78399 0.0
loop_
_geom_bond_atom_site_label_1
_geom_bond_atom_site_label_2
_geom_bond_distance
_geom_bond_site_symmetry_2
_ccdc_geom_bond_type
Mn0 O5 2.095 . S
Mn0 O15 2.162 . S
Mn0 O16 2.297 . S
Mn0 O24 2.367 1_455 S
Mn0 O25 2.209 . S
Mn0 O26 2.094 . S
Mn1 O6 2.121 . S
Mn1 N8 2.257 . S
Mn1 N17 2.282 . S
Mn1 O25 2.215 . S
Mn1 O27 2.117 . S
C2 O24 1.230 1_455 S
C2 O25 1.283 . S
C3 O15 1.281 . S
C3 O16 1.236 . S
C4 O26 1.240 . S
C4 O27 1.264 . S
O5 Mn0 2.095 . S
O5 C14 1.250 . S
O6 Mn1 2.121 . S
O6 C14 1.258 . S
C7 N8 1.326 . S
C7 C11 1.460 . S
C7 H13 0.929 . S
N8 Mn1 2.257 . S
N8 C7 1.326 . S
N8 C12 1.362 . S
C9 C10 1.258 1_655 S
C9 C12 1.431 1_655 S
C9 C29 1.449 . S
C10 C9 1.258 1_455 S
C10 C11 1.477 . S
C10 H30 0.932 1_455 S
C11 C7 1.460 . S
C11 C10 1.477 . S
C11 H31 0.930 . S
C12 N8 1.362 . S
C12 C9 1.431 1_455 S
C12 C22 1.476 1_455 S
H13 C7 0.929 . S
C14 O5 1.250 . S
C14 O6 1.258 . S
O15 Mn0 2.162 . S
O15 C3 1.281 . S
O16 Mn0 2.297 . S
O16 C3 1.236 . S
N17 Mn1 2.282 . S
N17 C18 1.328 1_455 S
N17 C22 1.318 1_455 S
C18 N17 1.328 1_655 S
C18 C19 1.457 . S
C18 H23 0.929 1_655 S
C19 C18 1.457 . S
C19 C20 1.291 . S
C19 H32 0.931 . S
C20 C19 1.291 . S
C20 C21 1.373 . S
C20 H33 0.929 . S
C21 C20 1.373 . S
C21 C22 1.396 . S
C21 C28 1.403 . S
C22 C12 1.476 1_655 S
C22 N17 1.318 1_655 S
C22 C21 1.396 . S
H23 C18 0.929 1_455 S
O24 Mn0 2.367 1_655 S
O24 C2 1.230 1_655 S
O25 Mn0 2.209 . S
O25 Mn1 2.215 . S
O25 C2 1.283 . S
O26 Mn0 2.094 . S
O26 C4 1.240 . S
O27 Mn1 2.117 . S
O27 C4 1.264 . S
C28 C21 1.403 . S
C28 C29 1.399 . S
C28 H34 0.929 . S
C29 C9 1.449 . S
C29 C28 1.399 . S
C29 H35 0.930 . S
H30 C10 0.932 1_655 S
H31 C11 0.930 . S
H32 C19 0.931 . S
H33 C20 0.929 . S
H34 C28 0.929 . S
H35 C29 0.930 . S
Mn36 O41 2.095 1_455 S
Mn36 O51 2.162 . S
Mn36 O52 2.297 . S
Mn36 O60 2.385 . S
Mn36 O61 2.209 . S
Mn36 O62 2.094 . S
Mn37 O42 2.121 1_455 S
Mn37 N44 2.257 . S
Mn37 N53 2.282 . S
Mn37 O61 2.215 . S
Mn37 O63 2.117 . S
C38 O60 1.234 . S
C38 O61 1.283 . S
C39 O51 1.281 . S
C39 O52 1.236 . S
C40 O62 1.240 . S
C40 O63 1.264 . S
O41 Mn36 2.095 1_655 S
O41 C50 1.250 . S
O42 Mn37 2.121 1_655 S
O42 C50 1.258 . S
C43 N44 1.326 . S
C43 C47 1.460 . S
C43 H49 0.929 . S
N44 Mn37 2.257 . S
N44 C43 1.326 . S
N44 C48 1.362 . S
C45 C46 1.258 . S
C45 C48 1.431 . S
C45 C65 1.449 . S
C46 C45 1.258 . S
C46 C47 1.477 . S
C46 H66 0.931 . S
C47 C43 1.460 . S
C47 C46 1.477 . S
C47 H67 0.930 . S
C48 N44 1.362 . S
C48 C45 1.431 . S
C48 C58 1.476 . S
H49 C43 0.929 . S
C50 O41 1.250 . S
C50 O42 1.258 . S
O51 Mn36 2.162 . S
O51 C39 1.281 . S
O52 Mn36 2.297 . S
O52 C39 1.236 . S
N53 Mn37 2.282 . S
N53 C54 1.328 . S
N53 C58 1.318 . S
C54 N53 1.328 . S
C54 C55 1.457 . S
C54 H59 0.929 . S
C55 C54 1.457 . S
C55 C56 1.291 . S
C55 H68 0.931 . S
C56 C55 1.291 . S
C56 C57 1.373 . S
C56 H69 0.929 . S
C57 C56 1.373 . S
C57 C58 1.396 . S
C57 C64 1.403 . S
C58 C48 1.476 . S
C58 N53 1.318 . S
C58 C57 1.396 . S
H59 C54 0.929 . S
O60 Mn36 2.385 . S
O60 C38 1.234 . S
O61 Mn36 2.209 . S
O61 Mn37 2.215 . S
O61 C38 1.283 . S
O62 Mn36 2.094 . S
O62 C40 1.240 . S
O63 Mn37 2.117 . S
O63 C40 1.264 . S
C64 C57 1.403 . S
C64 C65 1.399 . S
C64 H70 0.929 . S
C65 C45 1.449 . S
C65 C64 1.399 . S
C65 H71 0.930 . S
H66 C46 0.931 . S
H67 C47 0.930 . S
H68 C55 0.931 . S
H69 C56 0.929 . S
H70 C64 0.929 . S
H71 C65 0.930 . S
Mn72 O77 2.095 . S
Mn72 O87 2.162 . S
Mn72 O88 2.297 . S
Mn72 O96 2.385 . S
Mn72 O97 2.209 . S
Mn72 O98 2.094 . S
Mn73 O78 2.121 . S
Mn73 N80 2.257 . S
Mn73 N89 2.282 . S
Mn73 O97 2.215 . S
Mn73 O99 2.117 . S
C74 O96 1.234 . S
C74 O97 1.283 . S
C75 O87 1.281 . S
C75 O88 1.236 . S
C76 O98 1.240 . S
C76 O99 1.264 . S
O77 Mn72 2.095 . S
O77 C86 1.250 . S
O78 Mn73 2.121 . S
O78 C86 1.258 . S
C79 N80 1.326 . S
C79 C83 1.460 . S
C79 H85 0.929 . S
N80 Mn73 2.257 . S
N80 C79 1.326 . S
N80 C84 1.362 . S
C81 C82 1.258 . S
C81 C84 1.431 . S
C81 C101 1.449 . S
C82 C81 1.258 . S
C82 C83 1.477 . S
C82 H102 0.931 . S
C83 C79 1.460 . S
C83 C82 1.477 . S
C83 H103 0.930 . S
C84 N80 1.362 . S
C84 C81 1.431 . S
C84 C94 1.476 . S
H85 C79 0.929 . S
C86 O77 1.250 . S
C86 O78 1.258 . S
O87 Mn72 2.162 . S
O87 C75 1.281 . S
O88 Mn72 2.297 . S
O88 C75 1.236 . S
N89 Mn73 2.282 . S
N89 C90 1.328 . S
N89 C94 1.318 . S
C90 N89 1.328 . S
C90 C91 1.457 . S
C90 H95 0.929 . S
C91 C90 1.457 . S
C91 C92 1.291 . S
C91 H104 0.931 . S
C92 C91 1.291 . S
C92 C93 1.373 . S
C92 H105 0.929 . S
C93 C92 1.373 . S
C93 C94 1.396 . S
C93 C100 1.403 . S
C94 C84 1.476 . S
C94 N89 1.318 . S
C94 C93 1.396 . S
H95 C90 0.929 . S
O96 Mn72 2.385 . S
O96 C74 1.234 . S
O97 Mn72 2.209 . S
O97 Mn73 2.215 . S
O97 C74 1.283 . S
O98 Mn72 2.094 . S
O98 C76 1.240 . S
O99 Mn73 2.117 . S
O99 C76 1.264 . S
C100 C93 1.403 . S
C100 C101 1.399 . S
C100 H106 0.929 . S
C101 C81 1.449 . S
C101 C100 1.399 . S
C101 H107 0.930 . S
H102 C82 0.931 . S
H103 C83 0.930 . S
H104 C91 0.931 . S
H105 C92 0.929 . S
H106 C100 0.929 . S
H107 C101 0.930 . S
Mn108 O113 2.095 . S
Mn108 O123 2.162 . S
Mn108 O124 2.297 . S
Mn108 O132 2.385 . S
Mn108 O133 2.209 . S
Mn108 O134 2.094 . S
Mn109 O114 2.121 . S
Mn109 N116 2.257 . S
Mn109 N125 2.282 . S
Mn109 O133 2.215 . S
Mn109 O135 2.117 . S
C110 O132 1.234 . S
C110 O133 1.283 . S
C111 O123 1.281 . S
C111 O124 1.236 . S
C112 O134 1.240 . S
C112 O135 1.264 . S
O113 Mn108 2.095 . S
O113 C122 1.250 . S
O114 Mn109 2.121 . S
O114 C122 1.258 . S
C115 N116 1.326 . S
C115 C119 1.460 . S
C115 H121 0.929 . S
N116 Mn109 2.257 . S
N116 C115 1.326 . S
N116 C120 1.362 . S
C117 C118 1.258 . S
C117 C120 1.431 . S
C117 C137 1.449 . S
C118 C117 1.258 . S
C118 C119 1.477 . S
C118 H138 0.931 . S
C119 C115 1.460 . S
C119 C118 1.477 . S
C119 H139 0.930 . S
C120 N116 1.362 . S
C120 C117 1.431 . S
C120 C130 1.476 . S
H121 C115 0.929 . S
C122 O113 1.250 . S
C122 O114 1.258 . S
O123 Mn108 2.162 . S
O123 C111 1.281 . S
O124 Mn108 2.297 . S
O124 C111 1.236 . S
N125 Mn109 2.282 . S
N125 C126 1.328 . S
N125 C130 1.318 . S
C126 N125 1.328 . S
C126 C127 1.457 . S
C126 H131 0.929 . S
C127 C126 1.457 . S
C127 C128 1.291 . S
C127 H140 0.931 . S
C128 C127 1.291 . S
C128 C129 1.373 . S
C128 H141 0.929 . S
C129 C128 1.373 . S
C129 C130 1.396 . S
C129 C136 1.403 . S
C130 C120 1.476 . S
C130 N125 1.318 . S
C130 C129 1.396 . S
H131 C126 0.929 . S
O132 Mn108 2.385 . S
O132 C110 1.234 . S
O133 Mn108 2.209 . S
O133 Mn109 2.215 . S
O133 C110 1.283 . S
O134 Mn108 2.094 . S
O134 C112 1.240 . S
O135 Mn109 2.117 . S
O135 C112 1.264 . S
C136 C129 1.403 . S
C136 C137 1.399 . S
C136 H142 0.929 . S
C137 C117 1.449 . S
C137 C136 1.399 . S
C137 H143 0.930 . S
H138 C118 0.931 . S
H139 C119 0.930 . S
H140 C127 0.931 . S
H141 C128 0.929 . S
H142 C136 0.929 . S
H143 C137 0.930 . S
Mn144 O149 2.095 . S
Mn144 O159 2.162 . S
Mn144 O160 2.297 . S
Mn144 O168 2.385 . S
Mn144 O169 2.209 . S
Mn144 O170 2.094 . S
Mn145 O150 2.121 . S
Mn145 N152 2.257 . S
Mn145 N161 2.296 . S
Mn145 O169 2.215 . S
Mn145 O171 2.117 . S
C146 O168 1.234 . S
C146 O169 1.283 . S
C147 O159 1.281 . S
C147 O160 1.236 . S
C148 O170 1.240 . S
C148 O171 1.264 . S
O149 Mn144 2.095 . S
O149 C158 1.250 . S
O150 Mn145 2.121 . S
O150 C158 1.258 . S
C151 N152 1.326 . S
C151 C155 1.460 1_554 S
C151 H157 0.929 . S
N152 Mn145 2.257 . S
N152 C151 1.326 . S
N152 C156 1.362 . S
C153 C154 1.258 1_554 S
C153 C156 1.431 . S
C153 C173 1.447 1_454 S
C154 C153 1.258 1_556 S
C154 C155 1.477 . S
C154 H174 0.931 . S
C155 C151 1.460 1_556 S
C155 C154 1.477 . S
C155 H175 0.930 . S
C156 N152 1.362 . S
C156 C153 1.431 . S
C156 C166 1.476 1_455 S
H157 C151 0.929 . S
C158 O149 1.250 . S
C158 O150 1.258 . S
O159 Mn144 2.162 . S
O159 C147 1.281 . S
O160 Mn144 2.297 . S
O160 C147 1.236 . S
N161 Mn145 2.296 . S
N161 C162 1.312 1_455 S
N161 C166 1.324 1_455 S
C162 N161 1.312 1_655 S
C162 C163 1.457 . S
C162 H167 0.929 . S
C163 C162 1.457 . S
C163 C164 1.291 . S
C163 H176 0.931 . S
C164 C163 1.291 . S
C164 C165 1.373 . S
C164 H177 0.929 . S
C165 C164 1.373 . S
C165 C166 1.396 . S
C165 C172 1.403 . S
C166 C156 1.476 1_655 S
C166 N161 1.324 1_655 S
C166 C165 1.396 . S
H167 C162 0.929 . S
O168 Mn144 2.385 . S
O168 C146 1.234 . S
O169 Mn144 2.209 . S
O169 Mn145 2.215 . S
O169 C146 1.283 . S
O170 Mn144 2.094 . S
O170 C148 1.240 . S
O171 Mn145 2.117 . S
O171 C148 1.264 . S
C172 C165 1.403 . S
C172 C173 1.383 1_554 S
C172 H178 0.929 . S
C173 C153 1.447 1_656 S
C173 C172 1.383 1_556 S
C173 H179 0.948 . S
H174 C154 0.931 . S
H175 C155 0.930 . S
H176 C163 0.931 . S
H177 C164 0.929 . S
H178 C172 0.929 . S
H179 C173 0.948 . S
Mn180 O185 2.095 . S
Mn180 O195 2.162 . S
Mn180 O196 2.297 . S
Mn180 O204 2.385 . S
Mn180 O205 2.209 . S
Mn180 O206 2.094 . S
Mn181 O186 2.121 . S
Mn181 N188 2.257 . S
Mn181 N197 2.282 . S
Mn181 O205 2.215 . S
Mn181 O207 2.117 . S
C182 O204 1.234 . S
C182 O205 1.283 . S
C183 O195 1.281 . S
C183 O196 1.236 . S
C184 O206 1.240 . S
C184 O207 1.264 . S
O185 Mn180 2.095 . S
O185 C194 1.250 . S
O186 Mn181 2.121 . S
O186 C194 1.258 . S
C187 N188 1.326 . S
C187 C191 1.460 . S
C187 H193 0.929 . S
N188 Mn181 2.257 . S
N188 C187 1.326 . S
N188 C192 1.362 . S
C189 C190 1.258 . S
C189 C192 1.431 . S
C189 C209 1.449 . S
C190 C189 1.258 . S
C190 C191 1.477 . S
C190 H210 0.931 . S
C191 C187 1.460 . S
C191 C190 1.477 . S
C191 H211 0.930 . S
C192 N188 1.362 . S
C192 C189 1.431 . S
C192 C202 1.476 . S
H193 C187 0.929 . S
C194 O185 1.250 . S
C194 O186 1.258 . S
O195 Mn180 2.162 . S
O195 C183 1.281 . S
O196 Mn180 2.297 . S
O196 C183 1.236 . S
N197 Mn181 2.282 . S
N197 C198 1.328 . S
N197 C202 1.318 . S
C198 N197 1.328 . S
C198 C199 1.457 . S
C198 H203 0.929 . S
C199 C198 1.457 . S
C199 C200 1.291 . S
C199 H212 0.931 . S
C200 C199 1.291 . S
C200 C201 1.373 . S
C200 H213 0.929 . S
C201 C200 1.373 . S
C201 C202 1.396 . S
C201 C208 1.403 . S
C202 C192 1.476 . S
C202 N197 1.318 . S
C202 C201 1.396 . S
H203 C198 0.929 . S
O204 Mn180 2.385 . S
O204 C182 1.234 . S
O205 Mn180 2.209 . S
O205 Mn181 2.215 . S
O205 C182 1.283 . S
O206 Mn180 2.094 . S
O206 C184 1.240 . S
O207 Mn181 2.117 . S
O207 C184 1.264 . S
C208 C201 1.403 . S
C208 C209 1.399 . S
C208 H214 0.929 . S
C209 C189 1.449 . S
C209 C208 1.399 . S
C209 H215 0.930 . S
H210 C190 0.931 . S
H211 C191 0.930 . S
H212 C199 0.931 . S
H213 C200 0.929 . S
H214 C208 0.929 . S
H215 C209 0.930 . S
Mn216 O221 2.095 . S
Mn216 O231 2.162 . S
Mn216 O232 2.297 . S
Mn216 O240 2.385 . S
Mn216 O241 2.209 . S
Mn216 O242 2.094 . S
Mn217 O222 2.121 . S
Mn217 N224 2.257 . S
Mn217 N233 2.282 . S
Mn217 O241 2.215 . S
Mn217 O243 2.117 . S
C218 O240 1.234 . S
C218 O241 1.283 . S
C219 O231 1.281 . S
C219 O232 1.236 . S
C220 O242 1.240 . S
C220 O243 1.264 . S
O221 Mn216 2.095 . S
O221 C230 1.250 . S
O222 Mn217 2.121 . S
O222 C230 1.258 . S
C223 N224 1.326 . S
C223 C227 1.460 . S
C223 H229 0.929 . S
N224 Mn217 2.257 . S
N224 C223 1.326 . S
N224 C228 1.362 . S
C225 C226 1.258 . S
C225 C228 1.431 . S
C225 C245 1.449 . S
C226 C225 1.258 . S
C226 C227 1.477 . S
C226 H246 0.931 . S
C227 C223 1.460 . S
C227 C226 1.477 . S
C227 H247 0.930 . S
C228 N224 1.362 . S
C228 C225 1.431 . S
C228 C238 1.476 . S
H229 C223 0.929 . S
C230 O221 1.250 . S
C230 O222 1.258 . S
O231 Mn216 2.162 . S
O231 C219 1.281 . S
O232 Mn216 2.297 . S
O232 C219 1.236 . S
N233 Mn217 2.282 . S
N233 C234 1.328 . S
N233 C238 1.318 . S
C234 N233 1.328 . S
C234 C235 1.457 . S
C234 H239 0.929 . S
C235 C234 1.457 . S
C235 C236 1.291 . S
C235 H248 0.931 . S
C236 C235 1.291 . S
C236 C237 1.373 . S
C236 H249 0.929 . S
C237 C236 1.373 . S
C237 C238 1.396 . S
C237 C244 1.403 . S
C238 C228 1.476 . S
C238 N233 1.318 . S
C238 C237 1.396 . S
H239 C234 0.929 . S
O240 Mn216 2.385 . S
O240 C218 1.234 . S
O241 Mn216 2.209 . S
O241 Mn217 2.215 . S
O241 C218 1.283 . S
O242 Mn216 2.094 . S
O242 C220 1.240 . S
O243 Mn217 2.117 . S
O243 C220 1.264 . S
C244 C237 1.403 . S
C244 C245 1.399 . S
C244 H250 0.929 . S
C245 C225 1.449 . S
C245 C244 1.399 . S
C245 H251 0.930 . S
H246 C226 0.931 . S
H247 C227 0.930 . S
H248 C235 0.931 . S
H249 C236 0.929 . S
H250 C244 0.929 . S
H251 C245 0.930 . S
Mn252 O257 2.069 1_655 S
Mn252 O267 2.159 1_655 S
Mn252 O268 2.294 . S
Mn252 O276 2.413 . S
Mn252 O277 2.221 . S
Mn252 O278 2.097 1_655 S
Mn253 O258 2.121 1_655 S
Mn253 N260 2.257 . S
Mn253 N269 2.282 . S
Mn253 O277 2.215 . S
Mn253 O279 2.117 1_655 S
C254 O276 1.234 . S
C254 O277 1.283 . S
C255 O267 1.281 1_655 S
C255 O268 1.236 . S
C256 O278 1.240 . S
C256 O279 1.264 . S
O257 Mn252 2.069 1_455 S
O257 C266 1.250 . S
O258 Mn253 2.121 1_455 S
O258 C266 1.258 . S
C259 N260 1.326 . S
C259 C263 1.460 . S
C259 H265 0.929 1_655 S
N260 Mn253 2.257 . S
N260 C259 1.326 . S
N260 C264 1.362 . S
C261 C262 1.258 . S
C261 C264 1.431 . S
C261 C281 1.449 . S
C262 C261 1.258 . S
C262 C263 1.477 . S
C262 H282 0.931 . S
C263 C259 1.460 . S
C263 C262 1.477 . S
C263 H283 0.930 . S
C264 N260 1.362 . S
C264 C261 1.431 . S
C264 C274 1.476 . S
H265 C259 0.929 1_455 S
C266 O257 1.250 . S
C266 O258 1.258 . S
O267 Mn252 2.159 1_455 S
O267 C255 1.281 1_455 S
O268 Mn252 2.294 . S
O268 C255 1.236 . S
N269 Mn253 2.282 . S
N269 C270 1.328 . S
N269 C274 1.318 . S
C270 N269 1.328 . S
C270 C271 1.457 . S
C270 H275 0.929 . S
C271 C270 1.457 . S
C271 C272 1.291 . S
C271 H284 0.931 . S
C272 C271 1.291 . S
C272 C273 1.373 . S
C272 H285 0.929 . S
C273 C272 1.373 . S
C273 C274 1.396 . S
C273 C280 1.403 . S
C274 C264 1.476 . S
C274 N269 1.318 . S
C274 C273 1.396 . S
H275 C270 0.929 . S
O276 Mn252 2.413 . S
O276 C254 1.234 . S
O277 Mn252 2.221 . S
O277 Mn253 2.215 . S
O277 C254 1.283 . S
O278 Mn252 2.097 1_455 S
O278 C256 1.240 . S
O279 Mn253 2.117 1_455 S
O279 C256 1.264 . S
C280 C273 1.403 . S
C280 C281 1.399 . S
C280 H286 0.929 . S
C281 C261 1.449 . S
C281 C280 1.399 . S
C281 H287 0.930 . S
H282 C262 0.931 . S
H283 C263 0.930 . S
H284 C271 0.931 . S
H285 C272 0.929 . S
H286 C280 0.929 . S
H287 C281 0.930 . S
Mn288 O293 2.095 . S
Mn288 O303 2.162 . S
Mn288 O304 2.297 . S
Mn288 O312 2.385 1_545 S
Mn288 O313 2.209 1_545 S
Mn288 O314 2.094 . S
Mn289 O294 2.121 . S
Mn289 N296 2.257 1_545 S
Mn289 N305 2.282 1_545 S
Mn289 O313 2.215 1_545 S
Mn289 O315 2.117 . S
C290 O312 1.234 . S
C290 O313 1.283 . S
C291 O303 1.281 . S
C291 O304 1.236 . S
C292 O314 1.240 . S
C292 O315 1.264 . S
O293 Mn288 2.095 . S
O293 C302 1.250 . S
O294 Mn289 2.121 . S
O294 C302 1.258 . S
C295 N296 1.326 . S
C295 C299 1.460 . S
C295 H301 0.929 1_565 S
N296 Mn289 2.257 1_565 S
N296 C295 1.326 . S
N296 C300 1.362 . S
C297 C298 1.258 . S
C297 C300 1.431 . S
C297 C317 1.449 . S
C298 C297 1.258 . S
C298 C299 1.477 . S
C298 H318 0.931 . S
C299 C295 1.460 . S
C299 C298 1.477 . S
C299 H319 0.930 . S
C300 N296 1.362 . S
C300 C297 1.431 . S
C300 C310 1.476 . S
H301 C295 0.929 1_545 S
C302 O293 1.250 . S
C302 O294 1.258 . S
O303 Mn288 2.162 . S
O303 C291 1.281 . S
O304 Mn288 2.297 . S
O304 C291 1.236 . S
N305 Mn289 2.282 1_565 S
N305 C306 1.328 . S
N305 C310 1.318 . S
C306 N305 1.328 . S
C306 C307 1.457 . S
C306 H311 0.929 . S
C307 C306 1.457 . S
C307 C308 1.291 . S
C307 H320 0.931 . S
C308 C307 1.291 . S
C308 C309 1.373 . S
C308 H321 0.929 . S
C309 C308 1.373 . S
C309 C310 1.396 . S
C309 C316 1.403 . S
C310 C300 1.476 . S
C310 N305 1.318 . S
C310 C309 1.396 . S
H311 C306 0.929 . S
O312 Mn288 2.385 1_565 S
O312 C290 1.234 . S
O313 Mn288 2.209 1_565 S
O313 Mn289 2.215 1_565 S
O313 C290 1.283 . S
O314 Mn288 2.094 . S
O314 C292 1.240 . S
O315 Mn289 2.117 . S
O315 C292 1.264 . S
C316 C309 1.403 . S
C316 C317 1.399 . S
C316 H322 0.929 . S
C317 C297 1.449 . S
C317 C316 1.399 . S
C317 H323 0.930 . S
H318 C298 0.931 . S
H319 C299 0.930 . S
H320 C307 0.931 . S
H321 C308 0.929 . S
H322 C316 0.929 . S
H323 C317 0.930 . S
Mn324 O329 2.095 . S
Mn324 O339 2.162 . S
Mn324 O340 2.297 . S
Mn324 O348 2.385 . S
Mn324 O349 2.209 . S
Mn324 O350 2.094 . S
Mn325 O330 2.121 . S
Mn325 N332 2.257 . S
Mn325 N341 2.282 . S
Mn325 O349 2.215 . S
Mn325 O351 2.117 . S
C326 O348 1.234 . S
C326 O349 1.283 . S
C327 O339 1.281 . S
C327 O340 1.236 . S
C328 O350 1.240 . S
C328 O351 1.264 . S
O329 Mn324 2.095 . S
O329 C338 1.250 . S
O330 Mn325 2.121 . S
O330 C338 1.258 . S
C331 N332 1.326 . S
C331 C335 1.460 . S
C331 H337 0.929 . S
N332 Mn325 2.257 . S
N332 C331 1.326 . S
N332 C336 1.362 . S
C333 C334 1.258 . S
C333 C336 1.431 . S
C333 C353 1.449 . S
C334 C333 1.258 . S
C334 C335 1.477 . S
C334 H354 0.931 . S
C335 C331 1.460 . S
C335 C334 1.477 . S
C335 H355 0.930 . S
C336 N332 1.362 . S
C336 C333 1.431 . S
C336 C346 1.476 . S
H337 C331 0.929 . S
C338 O329 1.250 . S
C338 O330 1.258 . S
O339 Mn324 2.162 . S
O339 C327 1.281 . S
O340 Mn324 2.297 . S
O340 C327 1.236 . S
N341 Mn325 2.282 . S
N341 C342 1.328 . S
N341 C346 1.318 . S
C342 N341 1.328 . S
C342 C343 1.457 . S
C342 H347 0.929 . S
C343 C342 1.457 . S
C343 C344 1.291 . S
C343 H356 0.931 . S
C344 C343 1.291 . S
C344 C345 1.373 . S
C344 H357 0.929 . S
C345 C344 1.373 . S
C345 C346 1.396 . S
C345 C352 1.403 . S
C346 C336 1.476 . S
C346 N341 1.318 . S
C346 C345 1.396 . S
H347 C342 0.929 . S
O348 Mn324 2.385 . S
O348 C326 1.234 . S
O349 Mn324 2.209 . S
O349 Mn325 2.215 . S
O349 C326 1.283 . S
O350 Mn324 2.094 . S
O350 C328 1.240 . S
O351 Mn325 2.117 . S
O351 C328 1.264 . S
C352 C345 1.403 . S
C352 C353 1.399 . S
C352 H358 0.929 . S
C353 C333 1.449 . S
C353 C352 1.399 . S
C353 H359 0.930 . S
H354 C334 0.931 . S
H355 C335 0.930 . S
H356 C343 0.931 . S
H357 C344 0.929 . S
H358 C352 0.929 . S
H359 C353 0.930 . S
Mn360 O365 2.095 . S
Mn360 O375 2.162 . S
Mn360 O376 2.297 . S
Mn360 O384 2.385 . S
Mn360 O385 2.209 . S
Mn360 O386 2.094 . S
Mn361 O366 2.121 . S
Mn361 N368 2.257 . S
Mn361 N377 2.282 . S
Mn361 O385 2.215 . S
Mn361 O387 2.117 . S
C362 O384 1.234 . S
C362 O385 1.283 . S
C363 O375 1.281 . S
C363 O376 1.236 . S
C364 O386 1.240 . S
C364 O387 1.264 . S
O365 Mn360 2.095 . S
O365 C374 1.250 . S
O366 Mn361 2.121 . S
O366 C374 1.258 . S
C367 N368 1.326 . S
C367 C371 1.460 . S
C367 H373 0.929 . S
N368 Mn361 2.257 . S
N368 C367 1.326 . S
N368 C372 1.362 . S
C369 C370 1.258 . S
C369 C372 1.431 . S
C369 C389 1.449 . S
C370 C369 1.258 . S
C370 C371 1.477 . S
C370 H390 0.931 . S
C371 C367 1.460 . S
C371 C370 1.477 . S
C371 H391 0.930 . S
C372 N368 1.362 . S
C372 C369 1.431 . S
C372 C382 1.476 . S
H373 C367 0.929 . S
C374 O365 1.250 . S
C374 O366 1.258 . S
O375 Mn360 2.162 . S
O375 C363 1.281 . S
O376 Mn360 2.297 . S
O376 C363 1.236 . S
N377 Mn361 2.282 . S
N377 C378 1.328 . S
N377 C382 1.318 . S
C378 N377 1.328 . S
C378 C379 1.457 . S
C378 H383 0.929 . S
C379 C378 1.457 . S
C379 C380 1.291 . S
C379 H392 0.931 . S
C380 C379 1.291 . S
C380 C381 1.373 . S
C380 H393 0.929 . S
C381 C380 1.373 . S
C381 C382 1.396 . S
C381 C388 1.403 . S
C382 C372 1.476 . S
C382 N377 1.318 . S
C382 C381 1.396 . S
H383 C378 0.929 . S
O384 Mn360 2.385 . S
O384 C362 1.234 . S
O385 Mn360 2.209 . S
O385 Mn361 2.215 . S
O385 C362 1.283 . S
O386 Mn360 2.094 . S
O386 C364 1.240 . S
O387 Mn361 2.117 . S
O387 C364 1.264 . S
C388 C381 1.403 . S
C388 C389 1.399 . S
C388 H394 0.929 . S
C389 C369 1.449 . S
C389 C388 1.399 . S
C389 H395 0.930 . S
H390 C370 0.931 . S
H391 C371 0.930 . S
H392 C379 0.931 . S
H393 C380 0.929 . S
H394 C388 0.929 . S
H395 C389 0.930 . S
Mn396 O401 2.095 1_554 S
Mn396 O411 2.162 . S
Mn396 O412 2.297 . S
Mn396 O420 2.385 . S
Mn396 O421 2.207 1_554 S
Mn396 O422 2.094 1_554 S
Mn397 O402 2.121 . S
Mn397 N404 2.257 . S
Mn397 N413 2.282 . S
Mn397 O421 2.221 . S
Mn397 O423 2.117 . S
C398 O420 1.234 . S
C398 O421 1.282 1_554 S
C399 O411 1.281 . S
C399 O412 1.236 . S
C400 O422 1.240 . S
C400 O423 1.264 . S
O401 Mn396 2.095 1_556 S
O401 C410 1.250 . S
O402 Mn397 2.121 . S
O402 C410 1.258 . S
C403 N404 1.326 1_545 S
C403 C407 1.460 . S
C403 H409 0.929 . S
N404 Mn397 2.257 . S
N404 C403 1.326 1_565 S
N404 C408 1.362 1_565 S
C405 C406 1.258 . S
C405 C408 1.431 . S
C405 C425 1.449 . S
C406 C405 1.258 . S
C406 C407 1.477 . S
C406 H426 0.931 . S
C407 C403 1.460 . S
C407 C406 1.477 . S
C407 H427 0.930 . S
C408 N404 1.362 1_545 S
C408 C405 1.431 . S
C408 C418 1.476 1_545 S
H409 C403 0.929 . S
C410 O401 1.250 . S
C410 O402 1.258 . S
O411 Mn396 2.162 . S
O411 C399 1.281 . S
O412 Mn396 2.297 . S
O412 C399 1.236 . S
N413 Mn397 2.282 . S
N413 C414 1.328 . S
N413 C418 1.318 . S
C414 N413 1.328 . S
C414 C415 1.457 . S
C414 H419 0.929 . S
C415 C414 1.457 . S
C415 C416 1.291 . S
C415 H428 0.931 . S
C416 C415 1.291 . S
C416 C417 1.373 . S
C416 H429 0.929 . S
C417 C416 1.373 . S
C417 C418 1.396 . S
C417 C424 1.403 1_565 S
C418 C408 1.476 1_565 S
C418 N413 1.318 . S
C418 C417 1.396 . S
H419 C414 0.929 . S
O420 Mn396 2.385 . S
O420 C398 1.234 . S
O421 Mn396 2.207 1_556 S
O421 Mn397 2.221 . S
O421 C398 1.282 1_556 S
O422 Mn396 2.094 1_556 S
O422 C400 1.240 . S
O423 Mn397 2.117 . S
O423 C400 1.264 . S
C424 C417 1.403 1_545 S
C424 C425 1.399 . S
C424 H430 0.929 . S
C425 C405 1.449 . S
C425 C424 1.399 . S
C425 H431 0.930 . S
H426 C406 0.931 . S
H427 C407 0.930 . S
H428 C415 0.931 . S
H429 C416 0.929 . S
H430 C424 0.929 . S
H431 C425 0.930 . S
Mn432 O437 2.095 . S
Mn432 O447 2.162 . S
Mn432 O448 2.297 . S
Mn432 O456 2.385 . S
Mn432 O457 2.209 . S
Mn432 O458 2.094 . S
Mn433 O438 2.121 . S
Mn433 N440 2.257 . S
Mn433 N449 2.282 1_554 S
Mn433 O457 2.215 . S
Mn433 O459 2.117 1_554 S
C434 O456 1.234 . S
C434 O457 1.283 . S
C435 O447 1.281 . S
C435 O448 1.236 . S
C436 O458 1.240 1_556 S
C436 O459 1.264 . S
O437 Mn432 2.095 . S
O437 C446 1.250 . S
O438 Mn433 2.121 . S
O438 C446 1.258 . S
C439 N440 1.326 . S
C439 C443 1.460 . S
C439 H445 0.929 . S
N440 Mn433 2.257 . S
N440 C439 1.326 . S
N440 C444 1.362 . S
C441 C442 1.258 . S
C441 C444 1.431 . S
C441 C461 1.449 . S
C442 C441 1.258 . S
C442 C443 1.477 . S
C442 H462 0.931 . S
C443 C439 1.460 . S
C443 C442 1.477 . S
C443 H463 0.930 . S
C444 N440 1.362 . S
C444 C441 1.431 . S
C444 C454 1.476 1_554 S
H445 C439 0.929 . S
C446 O437 1.250 . S
C446 O438 1.258 . S
O447 Mn432 2.162 . S
O447 C435 1.281 . S
O448 Mn432 2.297 . S
O448 C435 1.236 . S
N449 Mn433 2.282 1_556 S
N449 C450 1.328 . S
N449 C454 1.318 . S
C450 N449 1.328 . S
C450 C451 1.457 . S
C450 H455 0.929 . S
C451 C450 1.457 . S
C451 C452 1.291 . S
C451 H464 0.931 . S
C452 C451 1.291 . S
C452 C453 1.373 . S
C452 H465 0.929 . S
C453 C452 1.373 . S
C453 C454 1.396 . S
C453 C460 1.403 . S
C454 C444 1.476 1_556 S
C454 N449 1.318 . S
C454 C453 1.396 . S
H455 C450 0.929 . S
O456 Mn432 2.385 . S
O456 C434 1.234 . S
O457 Mn432 2.209 . S
O457 Mn433 2.215 . S
O457 C434 1.283 . S
O458 Mn432 2.094 . S
O458 C436 1.240 1_554 S
O459 Mn433 2.117 1_556 S
O459 C436 1.264 . S
C460 C453 1.403 . S
C460 C461 1.399 1_556 S
C460 H466 0.929 . S
C461 C441 1.449 . S
C461 C460 1.399 1_554 S
C461 H467 0.930 . S
H462 C442 0.931 . S
H463 C443 0.930 . S
H464 C451 0.931 . S
H465 C452 0.929 . S
H466 C460 0.929 . S
H467 C461 0.930 . S
Mn468 O473 2.095 . S
Mn468 O483 2.162 . S
Mn468 O484 2.297 . S
Mn468 O492 2.385 . S
Mn468 O493 2.209 . S
Mn468 O494 2.094 . S
Mn469 O474 2.121 . S
Mn469 N476 2.257 . S
Mn469 N485 2.282 1_554 S
Mn469 O493 2.215 . S
Mn469 O495 2.117 . S
C470 O492 1.234 . S
C470 O493 1.283 . S
C471 O483 1.281 . S
C471 O484 1.236 . S
C472 O494 1.240 . S
C472 O495 1.264 . S
O473 Mn468 2.095 . S
O473 C482 1.250 . S
O474 Mn469 2.121 . S
O474 C482 1.258 . S
C475 N476 1.326 . S
C475 C479 1.460 . S
C475 H481 0.929 . S
N476 Mn469 2.257 . S
N476 C475 1.326 . S
N476 C480 1.362 . S
C477 C478 1.258 . S
C477 C480 1.431 . S
C477 C497 1.449 1_554 S
C478 C477 1.258 . S
C478 C479 1.477 . S
C478 H498 0.909 1_545 S
C479 C475 1.460 . S
C479 C478 1.477 . S
C479 H499 0.930 . S
C480 N476 1.362 . S
C480 C477 1.431 . S
C480 C490 1.476 1_554 S
H481 C475 0.929 . S
C482 O473 1.250 . S
C482 O474 1.258 . S
O483 Mn468 2.162 . S
O483 C471 1.281 . S
O484 Mn468 2.297 . S
O484 C471 1.236 . S
N485 Mn469 2.282 1_556 S
N485 C486 1.328 . S
N485 C490 1.318 . S
C486 N485 1.328 . S
C486 C487 1.457 . S
C486 H491 0.929 . S
C487 C486 1.457 . S
C487 C488 1.291 . S
C487 H500 0.931 . S
C488 C487 1.291 . S
C488 C489 1.373 . S
C488 H501 0.929 . S
C489 C488 1.373 . S
C489 C490 1.396 . S
C489 C496 1.403 . S
C490 C480 1.476 1_556 S
C490 N485 1.318 . S
C490 C489 1.396 . S
H491 C486 0.929 . S
O492 Mn468 2.385 . S
O492 C470 1.234 . S
O493 Mn468 2.209 . S
O493 Mn469 2.215 . S
O493 C470 1.283 . S
O494 Mn468 2.094 . S
O494 C472 1.240 . S
O495 Mn469 2.117 . S
O495 C472 1.264 . S
C496 C489 1.403 . S
C496 C497 1.399 . S
C496 H502 0.929 . S
C497 C477 1.449 1_556 S
C497 C496 1.399 . S
C497 H503 0.930 . S
H498 C478 0.909 1_565 S
H499 C479 0.930 . S
H500 C487 0.931 . S
H501 C488 0.929 . S
H502 C496 0.929 . S
H503 C497 0.930 . S
Mn504 O509 2.095 . S
Mn504 O519 2.162 . S
Mn504 O520 2.297 . S
Mn504 O528 2.385 . S
Mn504 O529 2.209 . S
Mn504 O530 2.094 . S
Mn505 O510 2.121 . S
Mn505 N512 2.257 . S
Mn505 N521 2.282 . S
Mn505 O529 2.215 . S
Mn505 O531 2.117 . S
C506 O528 1.234 . S
C506 O529 1.283 . S
C507 O519 1.281 . S
C507 O520 1.236 . S
C508 O530 1.240 . S
C508 O531 1.264 . S
O509 Mn504 2.095 . S
O509 C518 1.250 . S
O510 Mn505 2.121 . S
O510 C518 1.258 . S
C511 N512 1.326 . S
C511 C515 1.460 . S
C511 H517 0.929 . S
N512 Mn505 2.257 . S
N512 C511 1.326 . S
N512 C516 1.362 . S
C513 C514 1.258 . S
C513 C516 1.431 . S
C513 C533 1.449 . S
C514 C513 1.258 . S
C514 C515 1.477 . S
C514 H534 0.931 . S
C515 C511 1.460 . S
C515 C514 1.477 . S
C515 H535 0.930 . S
C516 N512 1.362 . S
C516 C513 1.431 . S
C516 C526 1.476 . S
H517 C511 0.929 . S
C518 O509 1.250 . S
C518 O510 1.258 . S
O519 Mn504 2.162 . S
O519 C507 1.281 . S
O520 Mn504 2.297 . S
O520 C507 1.236 . S
N521 Mn505 2.282 . S
N521 C522 1.328 . S
N521 C526 1.318 . S
C522 N521 1.328 . S
C522 C523 1.457 . S
C522 H527 0.929 . S
C523 C522 1.457 . S
C523 C524 1.291 . S
C523 H536 0.931 . S
C524 C523 1.291 . S
C524 C525 1.373 . S
C524 H537 0.929 . S
C525 C524 1.373 . S
C525 C526 1.396 . S
C525 C532 1.403 . S
C526 C516 1.476 . S
C526 N521 1.318 . S
C526 C525 1.396 . S
H527 C522 0.929 . S
O528 Mn504 2.385 . S
O528 C506 1.234 . S
O529 Mn504 2.209 . S
O529 Mn505 2.215 . S
O529 C506 1.283 . S
O530 Mn504 2.094 . S
O530 C508 1.240 . S
O531 Mn505 2.117 . S
O531 C508 1.264 . S
C532 C525 1.403 . S
C532 C533 1.399 . S
C532 H538 0.929 . S
C533 C513 1.449 . S
C533 C532 1.399 . S
C533 H539 0.930 . S
H534 C514 0.931 . S
H535 C515 0.930 . S
H536 C523 0.931 . S
H537 C524 0.929 . S
H538 C532 0.929 . S
H539 C533 0.930 . S
Mn540 O545 2.095 . S
Mn540 O555 2.162 . S
Mn540 O556 2.297 . S
Mn540 O564 2.385 . S
Mn540 O565 2.209 . S
Mn540 O566 2.094 . S
Mn541 O546 2.121 . S
Mn541 N548 2.257 . S
Mn541 N557 2.282 . S
Mn541 O565 2.215 . S
Mn541 O567 2.117 . S
C542 O564 1.234 . S
C542 O565 1.283 . S
C543 O555 1.281 . S
C543 O556 1.236 . S
C544 O566 1.240 . S
C544 O567 1.264 . S
O545 Mn540 2.095 . S
O545 C554 1.250 . S
O546 Mn541 2.121 . S
O546 C554 1.258 . S
C547 N548 1.326 . S
C547 C551 1.460 . S
C547 H553 0.929 . S
N548 Mn541 2.257 . S
N548 C547 1.326 . S
N548 C552 1.362 . S
C549 C550 1.258 . S
C549 C552 1.431 . S
C549 C569 1.449 . S
C550 C549 1.258 . S
C550 C551 1.477 . S
C550 H570 0.930 1_565 S
C551 C547 1.460 . S
C551 C550 1.477 . S
C551 H571 0.930 1_565 S
C552 N548 1.362 . S
C552 C549 1.431 . S
C552 C562 1.476 . S
H553 C547 0.929 . S
C554 O545 1.250 . S
C554 O546 1.258 . S
O555 Mn540 2.162 . S
O555 C543 1.281 . S
O556 Mn540 2.297 . S
O556 C543 1.236 . S
N557 Mn541 2.282 . S
N557 C558 1.328 . S
N557 C562 1.318 . S
C558 N557 1.328 . S
C558 C559 1.457 . S
C558 H563 0.929 . S
C559 C558 1.457 . S
C559 C560 1.291 . S
C559 H572 0.931 . S
C560 C559 1.291 . S
C560 C561 1.373 . S
C560 H573 0.929 . S
C561 C560 1.373 . S
C561 C562 1.396 . S
C561 C568 1.403 . S
C562 C552 1.476 . S
C562 N557 1.318 . S
C562 C561 1.396 . S
H563 C558 0.929 . S
O564 Mn540 2.385 . S
O564 C542 1.234 . S
O565 Mn540 2.209 . S
O565 Mn541 2.215 . S
O565 C542 1.283 . S
O566 Mn540 2.094 . S
O566 C544 1.240 . S
O567 Mn541 2.117 . S
O567 C544 1.264 . S
C568 C561 1.403 . S
C568 C569 1.399 . S
C568 H574 0.929 . S
C569 C549 1.449 . S
C569 C568 1.399 . S
C569 H575 0.930 1_565 S
H570 C550 0.930 1_545 S
H571 C551 0.930 1_545 S
H572 C559 0.931 . S
H573 C560 0.929 . S
H574 C568 0.929 . S
H575 C569 0.930 1_545 S
Mn576 O581 2.095 . S
Mn576 O591 2.162 . S
Mn576 O592 2.297 . S
Mn576 O600 2.385 1_545 S
Mn576 O601 2.209 1_545 S
Mn576 O602 2.094 . S
Mn577 O582 2.121 . S
Mn577 N584 2.257 1_545 S
Mn577 N593 2.282 1_545 S
Mn577 O601 2.215 1_545 S
Mn577 O603 2.117 . S
C578 O600 1.234 . S
C578 O601 1.283 . S
C579 O591 1.281 . S
C579 O592 1.236 . S
C580 O602 1.240 . S
C580 O603 1.264 . S
O581 Mn576 2.095 . S
O581 C590 1.250 . S
O582 Mn577 2.121 . S
O582 C590 1.258 . S
C583 N584 1.326 1_545 S
C583 C587 1.460 1_545 S
C583 H589 0.929 . S
N584 Mn577 2.257 1_565 S
N584 C583 1.326 1_565 S
N584 C588 1.362 . S
C585 C586 1.258 . S
C585 C588 1.431 . S
C585 C605 1.449 . S
C586 C585 1.258 . S
C586 C587 1.477 . S
C586 H606 0.931 . S
C587 C583 1.460 1_565 S
C587 C586 1.477 . S
C587 H607 0.905 1_565 S
C588 N584 1.362 . S
C588 C585 1.431 . S
C588 C598 1.476 . S
H589 C583 0.929 . S
C590 O581 1.250 . S
C590 O582 1.258 . S
O591 Mn576 2.162 . S
O591 C579 1.281 . S
O592 Mn576 2.297 . S
O592 C579 1.236 . S
N593 Mn577 2.282 1_565 S
N593 C594 1.328 . S
N593 C598 1.318 . S
C594 N593 1.328 . S
C594 C595 1.457 . S
C594 H599 0.929 . S
C595 C594 1.457 . S
C595 C596 1.291 . S
C595 H608 0.931 . S
C596 C595 1.291 . S
C596 C597 1.373 . S
C596 H609 0.929 . S
C597 C596 1.373 . S
C597 C598 1.396 . S
C597 C604 1.403 . S
C598 C588 1.476 . S
C598 N593 1.318 . S
C598 C597 1.396 . S
H599 C594 0.929 . S
O600 Mn576 2.385 1_565 S
O600 C578 1.234 . S
O601 Mn576 2.209 1_565 S
O601 Mn577 2.215 1_565 S
O601 C578 1.283 . S
O602 Mn576 2.094 . S
O602 C580 1.240 . S
O603 Mn577 2.117 . S
O603 C580 1.264 . S
C604 C597 1.403 . S
C604 C605 1.399 . S
C604 H610 0.929 . S
C605 C585 1.449 . S
C605 C604 1.399 . S
C605 H611 0.930 . S
H606 C586 0.931 . S
H607 C587 0.905 1_545 S
H608 C595 0.931 . S
H609 C596 0.929 . S
H610 C604 0.929 . S
H611 C605 0.930 . S
Mn612 O617 2.095 . S
Mn612 O627 2.162 . S
Mn612 O628 2.297 . S
Mn612 O636 2.385 . S
Mn612 O637 2.209 . S
Mn612 O638 2.094 . S
Mn613 O618 2.121 . S
Mn613 N620 2.257 . S
Mn613 N629 2.282 . S
Mn613 O637 2.215 . S
Mn613 O639 2.117 . S
C614 O636 1.234 . S
C614 O637 1.283 . S
C615 O627 1.281 . S
C615 O628 1.236 . S
C616 O638 1.240 . S
C616 O639 1.264 . S
O617 Mn612 2.095 . S
O617 C626 1.250 . S
O618 Mn613 2.121 . S
O618 C626 1.258 . S
C619 N620 1.326 . S
C619 C623 1.460 . S
C619 H625 0.929 . S
N620 Mn613 2.257 . S
N620 C619 1.326 . S
N620 C624 1.362 . S
C621 C622 1.258 . S
C621 C624 1.431 . S
C621 C641 1.449 . S
C622 C621 1.258 . S
C622 C623 1.477 . S
C622 H642 0.931 . S
C623 C619 1.460 . S
C623 C622 1.477 . S
C623 H643 0.930 . S
C624 N620 1.362 . S
C624 C621 1.431 . S
C624 C634 1.476 . S
H625 C619 0.929 . S
C626 O617 1.250 . S
C626 O618 1.258 . S
O627 Mn612 2.162 . S
O627 C615 1.281 . S
O628 Mn612 2.297 . S
O628 C615 1.236 . S
N629 Mn613 2.282 . S
N629 C630 1.328 . S
N629 C634 1.318 . S
C630 N629 1.328 . S
C630 C631 1.457 . S
C630 H635 0.929 . S
C631 C630 1.457 . S
C631 C632 1.291 . S
C631 H644 0.931 . S
C632 C631 1.291 . S
C632 C633 1.373 . S
C632 H645 0.929 . S
C633 C632 1.373 . S
C633 C634 1.396 . S
C633 C640 1.403 . S
C634 C624 1.476 . S
C634 N629 1.318 . S
C634 C633 1.396 . S
H635 C630 0.929 . S
O636 Mn612 2.385 . S
O636 C614 1.234 . S
O637 Mn612 2.209 . S
O637 Mn613 2.215 . S
O637 C614 1.283 . S
O638 Mn612 2.094 . S
O638 C616 1.240 . S
O639 Mn613 2.117 . S
O639 C616 1.264 . S
C640 C633 1.403 . S
C640 C641 1.399 . S
C640 H646 0.929 . S
C641 C621 1.449 . S
C641 C640 1.399 . S
C641 H647 0.930 . S
H642 C622 0.931 . S
H643 C623 0.930 . S
H644 C631 0.931 . S
H645 C632 0.929 . S
H646 C640 0.929 . S
H647 C641 0.930 . S
Mn648 O653 2.095 . S
Mn648 O663 2.162 . S
Mn648 O664 2.297 . S
Mn648 O672 2.385 . S
Mn648 O673 2.209 . S
Mn648 O674 2.094 . S
Mn649 O654 2.121 . S
Mn649 N656 2.257 . S
Mn649 N665 2.282 . S
Mn649 O673 2.215 . S
Mn649 O675 2.117 . S
C650 O672 1.234 . S
C650 O673 1.283 . S
C651 O663 1.281 . S
C651 O664 1.236 . S
C652 O674 1.240 . S
C652 O675 1.264 . S
O653 Mn648 2.095 . S
O653 C662 1.250 . S
O654 Mn649 2.121 . S
O654 C662 1.258 . S
C655 N656 1.326 . S
C655 C659 1.460 . S
C655 H661 0.929 . S
N656 Mn649 2.257 . S
N656 C655 1.326 . S
N656 C660 1.362 . S
C657 C658 1.258 . S
C657 C660 1.431 . S
C657 C677 1.449 . S
C658 C657 1.258 . S
C658 C659 1.477 . S
C658 H678 0.931 . S
C659 C655 1.460 . S
C659 C658 1.477 . S
C659 H679 0.930 . S
C660 N656 1.362 . S
C660 C657 1.431 . S
C660 C670 1.476 . S
H661 C655 0.929 . S
C662 O653 1.250 . S
C662 O654 1.258 . S
O663 Mn648 2.162 . S
O663 C651 1.281 . S
O664 Mn648 2.297 . S
O664 C651 1.236 . S
N665 Mn649 2.282 . S
N665 C666 1.328 . S
N665 C670 1.318 . S
C666 N665 1.328 . S
C666 C667 1.457 . S
C666 H671 0.929 . S
C667 C666 1.457 . S
C667 C668 1.291 . S
C667 H680 0.931 . S
C668 C667 1.291 . S
C668 C669 1.373 . S
C668 H681 0.929 . S
C669 C668 1.373 . S
C669 C670 1.396 . S
C669 C676 1.403 . S
C670 C660 1.476 . S
C670 N665 1.318 . S
C670 C669 1.396 . S
H671 C666 0.929 . S
O672 Mn648 2.385 . S
O672 C650 1.234 . S
O673 Mn648 2.209 . S
O673 Mn649 2.215 . S
O673 C650 1.283 . S
O674 Mn648 2.094 . S
O674 C652 1.240 . S
O675 Mn649 2.117 . S
O675 C652 1.264 . S
C676 C669 1.403 . S
C676 C677 1.399 . S
C676 H682 0.929 . S
C677 C657 1.449 . S
C677 C676 1.399 . S
C677 H683 0.930 . S
H678 C658 0.931 . S
H679 C659 0.930 . S
H680 C667 0.931 . S
H681 C668 0.929 . S
H682 C676 0.929 . S
H683 C677 0.930 . S
Mn684 O689 2.095 . S
Mn684 O699 2.162 . S
Mn684 O700 2.297 . S
Mn684 O708 2.385 . S
Mn684 O709 2.209 . S
Mn684 O710 2.094 . S
Mn685 O690 2.121 . S
Mn685 N692 2.257 . S
Mn685 N701 2.282 . S
Mn685 O709 2.215 . S
Mn685 O711 2.117 . S
C686 O708 1.234 . S
C686 O709 1.283 . S
C687 O699 1.281 . S
C687 O700 1.236 . S
C688 O710 1.240 . S
C688 O711 1.264 . S
O689 Mn684 2.095 . S
O689 C698 1.250 . S
O690 Mn685 2.121 . S
O690 C698 1.258 . S
C691 N692 1.326 . S
C691 C695 1.460 . S
C691 H697 0.929 . S
N692 Mn685 2.257 . S
N692 C691 1.326 . S
N692 C696 1.362 . S
C693 C694 1.258 . S
C693 C696 1.431 . S
C693 C713 1.449 . S
C694 C693 1.258 . S
C694 C695 1.477 . S
C694 H714 0.931 . S
C695 C691 1.460 . S
C695 C694 1.477 . S
C695 H715 0.930 . S
C696 N692 1.362 . S
C696 C693 1.431 . S
C696 C706 1.476 . S
H697 C691 0.929 . S
C698 O689 1.250 . S
C698 O690 1.258 . S
O699 Mn684 2.162 . S
O699 C687 1.281 . S
O700 Mn684 2.297 . S
O700 C687 1.236 . S
N701 Mn685 2.282 . S
N701 C702 1.328 . S
N701 C706 1.318 . S
C702 N701 1.328 . S
C702 C703 1.457 . S
C702 H707 0.929 . S
C703 C702 1.457 . S
C703 C704 1.291 . S
C703 H716 0.931 . S
C704 C703 1.291 . S
C704 C705 1.373 . S
C704 H717 0.929 . S
C705 C704 1.373 . S
C705 C706 1.396 . S
C705 C712 1.403 . S
C706 C696 1.476 . S
C706 N701 1.318 . S
C706 C705 1.396 . S
H707 C702 0.929 . S
O708 Mn684 2.385 . S
O708 C686 1.234 . S
O709 Mn684 2.209 . S
O709 Mn685 2.215 . S
O709 C686 1.283 . S
O710 Mn684 2.094 . S
O710 C688 1.240 . S
O711 Mn685 2.117 . S
O711 C688 1.264 . S
C712 C705 1.403 . S
C712 C713 1.399 . S
C712 H718 0.929 . S
C713 C693 1.449 . S
C713 C712 1.399 . S
C713 H719 0.930 . S
H714 C694 0.931 . S
H715 C695 0.930 . S
H716 C703 0.931 . S
H717 C704 0.929 . S
H718 C712 0.929 . S
H719 C713 0.930 . S
Mn720 O725 2.095 . S
Mn720 O735 2.162 . S
Mn720 O736 2.297 . S
Mn720 O744 2.385 . S
Mn720 O745 2.209 . S
Mn720 O746 2.094 1_554 S
Mn721 O726 2.121 . S
Mn721 N728 2.257 . S
Mn721 N737 2.282 . S
Mn721 O745 2.215 1_556 S
Mn721 O747 2.117 . S
C722 O744 1.234 . S
C722 O745 1.283 . S
C723 O735 1.281 . S
C723 O736 1.236 . S
C724 O746 1.240 . S
C724 O747 1.264 . S
O725 Mn720 2.095 . S
O725 C734 1.250 . S
O726 Mn721 2.121 . S
O726 C734 1.258 1_556 S
C727 N728 1.326 . S
C727 C731 1.460 . S
C727 H733 0.929 . S
N728 Mn721 2.257 . S
N728 C727 1.326 . S
N728 C732 1.362 . S
C729 C730 1.258 . S
C729 C732 1.431 . S
C729 C749 1.449 . S
C730 C729 1.258 . S
C730 C731 1.477 . S
C730 H750 0.931 . S
C731 C727 1.460 . S
C731 C730 1.477 . S
C731 H751 0.930 . S
C732 N728 1.362 . S
C732 C729 1.431 . S
C732 C742 1.476 . S
H733 C727 0.929 . S
C734 O725 1.250 . S
C734 O726 1.258 1_554 S
O735 Mn720 2.162 . S
O735 C723 1.281 . S
O736 Mn720 2.297 . S
O736 C723 1.236 . S
N737 Mn721 2.282 . S
N737 C738 1.328 . S
N737 C742 1.318 . S
C738 N737 1.328 . S
C738 C739 1.457 . S
C738 H743 0.929 . S
C739 C738 1.457 . S
C739 C740 1.291 . S
C739 H752 0.931 . S
C740 C739 1.291 . S
C740 C741 1.373 . S
C740 H753 0.929 . S
C741 C740 1.373 . S
C741 C742 1.396 . S
C741 C748 1.403 . S
C742 C732 1.476 . S
C742 N737 1.318 . S
C742 C741 1.396 . S
H743 C738 0.929 . S
O744 Mn720 2.385 . S
O744 C722 1.234 . S
O745 Mn720 2.209 . S
O745 Mn721 2.215 1_554 S
O745 C722 1.283 . S
O746 Mn720 2.094 1_556 S
O746 C724 1.240 . S
O747 Mn721 2.117 . S
O747 C724 1.264 . S
C748 C741 1.403 . S
C748 C749 1.399 . S
C748 H754 0.929 . S
C749 C729 1.449 . S
C749 C748 1.399 . S
C749 H755 0.930 . S
H750 C730 0.931 . S
H751 C731 0.930 . S
H752 C739 0.931 . S
H753 C740 0.929 . S
H754 C748 0.929 . S
H755 C749 0.930 . S
Mn756 O761 2.095 . S
Mn756 O771 2.162 . S
Mn756 O772 2.297 . S
Mn756 O780 2.385 . S
Mn756 O781 2.209 . S
Mn756 O782 2.094 . S
Mn757 O762 2.121 . S
Mn757 N764 2.257 . S
Mn757 N773 2.282 . S
Mn757 O781 2.215 . S
Mn757 O783 2.117 . S
C758 O780 1.234 . S
C758 O781 1.283 . S
C759 O771 1.281 . S
C759 O772 1.236 . S
C760 O782 1.240 . S
C760 O783 1.264 . S
O761 Mn756 2.095 . S
O761 C770 1.250 . S
O762 Mn757 2.121 . S
O762 C770 1.258 . S
C763 N764 1.326 . S
C763 C767 1.460 . S
C763 H769 0.929 . S
N764 Mn757 2.257 . S
N764 C763 1.326 . S
N764 C768 1.362 . S
C765 C766 1.258 . S
C765 C768 1.431 . S
C765 C785 1.449 . S
C766 C765 1.258 . S
C766 C767 1.477 . S
C766 H786 0.931 . S
C767 C763 1.460 . S
C767 C766 1.477 . S
C767 H787 0.930 . S
C768 N764 1.362 . S
C768 C765 1.431 . S
C768 C778 1.476 . S
H769 C763 0.929 . S
C770 O761 1.250 . S
C770 O762 1.258 . S
O771 Mn756 2.162 . S
O771 C759 1.281 . S
O772 Mn756 2.297 . S
O772 C759 1.236 . S
N773 Mn757 2.282 . S
N773 C774 1.328 . S
N773 C778 1.318 . S
C774 N773 1.328 . S
C774 C775 1.457 . S
C774 H779 0.929 . S
C775 C774 1.457 . S
C775 C776 1.291 . S
C775 H788 0.931 . S
C776 C775 1.291 . S
C776 C777 1.373 . S
C776 H789 0.929 . S
C777 C776 1.373 . S
C777 C778 1.396 . S
C777 C784 1.403 . S
C778 C768 1.476 . S
C778 N773 1.318 . S
C778 C777 1.396 . S
H779 C774 0.929 . S
O780 Mn756 2.385 . S
O780 C758 1.234 . S
O781 Mn756 2.209 . S
O781 Mn757 2.215 . S
O781 C758 1.283 . S
O782 Mn756 2.094 . S
O782 C760 1.240 . S
O783 Mn757 2.117 . S
O783 C760 1.264 . S
C784 C777 1.403 . S
C784 C785 1.399 . S
C784 H790 0.929 . S
C785 C765 1.449 . S
C785 C784 1.399 . S
C785 H791 0.930 . S
H786 C766 0.931 . S
H787 C767 0.930 . S
H788 C775 0.931 . S
H789 C776 0.929 . S
H790 C784 0.929 . S
H791 C785 0.930 . S
Mn792 O797 2.095 . S
Mn792 O807 2.162 . S
Mn792 O808 2.297 . S
Mn792 O816 2.385 . S
Mn792 O817 2.209 . S
Mn792 O818 2.094 . S
Mn793 O798 2.121 . S
Mn793 N800 2.257 . S
Mn793 N809 2.282 . S
Mn793 O817 2.215 . S
Mn793 O819 2.117 . S
C794 O816 1.234 . S
C794 O817 1.283 . S
C795 O807 1.281 . S
C795 O808 1.236 . S
C796 O818 1.240 . S
C796 O819 1.264 . S
O797 Mn792 2.095 . S
O797 C806 1.250 . S
O798 Mn793 2.121 . S
O798 C806 1.258 . S
C799 N800 1.326 . S
C799 C803 1.460 . S
C799 H805 0.929 . S
N800 Mn793 2.257 . S
N800 C799 1.326 . S
N800 C804 1.362 . S
C801 C802 1.258 . S
C801 C804 1.431 . S
C801 C821 1.449 . S
C802 C801 1.258 . S
C802 C803 1.477 . S
C802 H822 0.931 . S
C803 C799 1.460 . S
C803 C802 1.477 . S
C803 H823 0.930 . S
C804 N800 1.362 . S
C804 C801 1.431 . S
C804 C814 1.476 . S
H805 C799 0.929 . S
C806 O797 1.250 . S
C806 O798 1.258 . S
O807 Mn792 2.162 . S
O807 C795 1.281 . S
O808 Mn792 2.297 . S
O808 C795 1.236 . S
N809 Mn793 2.282 . S
N809 C810 1.328 . S
N809 C814 1.318 . S
C810 N809 1.328 . S
C810 C811 1.457 . S
C810 H815 0.929 . S
C811 C810 1.457 . S
C811 C812 1.291 . S
C811 H824 0.931 . S
C812 C811 1.291 . S
C812 C813 1.373 . S
C812 H825 0.929 . S
C813 C812 1.373 . S
C813 C814 1.396 . S
C813 C820 1.403 . S
C814 C804 1.476 . S
C814 N809 1.318 . S
C814 C813 1.396 . S
H815 C810 0.929 . S
O816 Mn792 2.385 . S
O816 C794 1.234 . S
O817 Mn792 2.209 . S
O817 Mn793 2.215 . S
O817 C794 1.283 . S
O818 Mn792 2.094 . S
O818 C796 1.240 . S
O819 Mn793 2.117 . S
O819 C796 1.264 . S
C820 C813 1.403 . S
C820 C821 1.399 . S
C820 H826 0.929 . S
C821 C801 1.449 . S
C821 C820 1.399 . S
C821 H827 0.930 . S
H822 C802 0.931 . S
H823 C803 0.930 . S
H824 C811 0.931 . S
H825 C812 0.929 . S
H826 C820 0.929 . S
H827 C821 0.930 . S
Mn828 O833 2.095 . S
Mn828 O843 2.162 . S
Mn828 O844 2.297 . S
Mn828 O852 2.385 . S
Mn828 O853 2.209 . S
Mn828 O854 2.094 . S
Mn829 O834 2.121 . S
Mn829 N836 2.257 . S
Mn829 N845 2.282 . S
Mn829 O853 2.215 . S
Mn829 O855 2.117 . S
C830 O852 1.234 . S
C830 O853 1.283 . S
C831 O843 1.281 . S
C831 O844 1.236 . S
C832 O854 1.240 . S
C832 O855 1.264 . S
O833 Mn828 2.095 . S
O833 C842 1.250 . S
O834 Mn829 2.121 . S
O834 C842 1.258 . S
C835 N836 1.326 . S
C835 C839 1.460 . S
C835 H841 0.929 . S
N836 Mn829 2.257 . S
N836 C835 1.326 . S
N836 C840 1.362 . S
C837 C838 1.258 . S
C837 C840 1.431 . S
C837 C857 1.449 . S
C838 C837 1.258 . S
C838 C839 1.477 . S
C838 H858 0.931 . S
C839 C835 1.460 . S
C839 C838 1.477 . S
C839 H859 0.930 . S
C840 N836 1.362 . S
C840 C837 1.431 . S
C840 C850 1.476 . S
H841 C835 0.929 . S
C842 O833 1.250 . S
C842 O834 1.258 . S
O843 Mn828 2.162 . S
O843 C831 1.281 . S
O844 Mn828 2.297 . S
O844 C831 1.236 . S
N845 Mn829 2.282 . S
N845 C846 1.328 . S
N845 C850 1.318 . S
C846 N845 1.328 . S
C846 C847 1.457 . S
C846 H851 0.929 . S
C847 C846 1.457 . S
C847 C848 1.291 . S
C847 H860 0.931 . S
C848 C847 1.291 . S
C848 C849 1.373 . S
C848 H861 0.929 . S
C849 C848 1.373 . S
C849 C850 1.396 . S
C849 C856 1.403 . S
C850 C840 1.476 . S
C850 N845 1.318 . S
C850 C849 1.396 . S
H851 C846 0.929 . S
O852 Mn828 2.385 . S
O852 C830 1.234 . S
O853 Mn828 2.209 . S
O853 Mn829 2.215 . S
O853 C830 1.283 . S
O854 Mn828 2.094 . S
O854 C832 1.240 . S
O855 Mn829 2.117 . S
O855 C832 1.264 . S
C856 C849 1.403 . S
C856 C857 1.399 . S
C856 H862 0.929 . S
C857 C837 1.449 . S
C857 C856 1.399 . S
C857 H863 0.930 . S
H858 C838 0.931 . S
H859 C839 0.930 . S
H860 C847 0.931 . S
H861 C848 0.929 . S
H862 C856 0.929 . S
H863 C857 0.930 . S
Tb864 N893 2.617 . S
Tb864 N899 2.572 . S
Tb864 O908 2.465 . S
Tb864 O909 2.387 . S
Tb864 O911 2.428 . S
Tb864 O912 2.308 . S
Tb864 O916 2.349 1_545 S
Tb864 O919 2.393 . S
Tb864 C928 2.802 . S
C865 N866 1.379 . S
C865 C868 1.416 . S
C865 C872 1.424 1_556 S
N866 C865 1.379 . S
N866 C869 1.334 . S
N866 Tb875 2.617 1_566 S
C867 C869 1.390 . S
C867 C870 1.339 . S
C867 H887 0.930 . S
C868 C865 1.416 . S
C868 C870 1.416 . S
C868 C874 1.448 . S
C869 N866 1.334 . S
C869 C867 1.390 . S
C869 H880 0.930 . S
C870 C867 1.339 . S
C870 C868 1.416 . S
C870 H891 0.930 . S
C871 C872 1.413 . S
C871 C873 1.427 1_554 S
C871 C877 1.416 . S
C872 C865 1.424 1_554 S
C872 C871 1.413 . S
C872 N876 1.361 . S
C873 C871 1.427 1_556 S
C873 C874 1.328 . S
C873 H888 0.929 . S
C874 C868 1.448 . S
C874 C873 1.328 . S
C874 H889 0.930 . S
Tb875 N866 2.617 1_544 S
Tb875 N876 2.572 1_545 S
Tb875 O910 2.349 1_655 S
Tb875 O913 2.393 1_654 S
Tb875 O914 2.465 . S
Tb875 O915 2.387 1_645 S
Tb875 O917 2.428 1_554 S
Tb875 O918 2.308 1_655 S
Tb875 C939 2.802 . S
N876 C872 1.361 . S
N876 Tb875 2.572 1_565 S
N876 C878 1.340 . S
C877 C871 1.416 . S
C877 C879 1.332 . S
C877 H885 0.931 . S
C878 N876 1.340 . S
C878 C879 1.407 . S
C878 H884 0.930 . S
C879 C877 1.332 . S
C879 C878 1.407 . S
C879 H881 0.929 . S
H880 C869 0.930 . S
H881 C879 0.929 . S
H882 C897 0.930 . S
H883 C904 0.929 1_556 S
H884 C878 0.930 . S
H885 C877 0.931 . S
H886 C900 0.930 1_556 S
H887 C867 0.930 . S
H888 C873 0.929 . S
H889 C874 0.930 . S
H890 C895 0.930 . S
H891 C870 0.930 . S
H892 C903 0.931 . S
N893 Tb864 2.617 . S
N893 C894 1.379 . S
N893 C897 1.334 . S
C894 N893 1.379 . S
C894 C896 1.416 . S
C894 C902 1.424 . S
C895 H890 0.930 . S
C895 C897 1.390 . S
C895 C898 1.339 . S
C896 C894 1.416 . S
C896 C898 1.416 . S
C896 C929 1.448 . S
C897 H882 0.930 . S
C897 N893 1.334 . S
C897 C895 1.390 . S
C898 C895 1.339 . S
C898 C896 1.416 . S
C898 H905 0.930 . S
N899 Tb864 2.572 . S
N899 C900 1.340 . S
N899 C902 1.361 . S
C900 H886 0.930 1_554 S
C900 N899 1.340 . S
C900 C904 1.407 . S
C901 C902 1.413 . S
C901 C903 1.416 . S
C901 C930 1.427 . S
C902 C894 1.424 . S
C902 N899 1.361 . S
C902 C901 1.413 . S
C903 H892 0.931 . S
C903 C901 1.416 . S
C903 C904 1.332 . S
C904 H883 0.929 1_554 S
C904 C900 1.407 . S
C904 C903 1.332 . S
H905 C898 0.930 . S
H906 C929 0.930 . S
H907 C930 0.929 . S
O908 Tb864 2.465 . S
O908 C928 1.264 . S
O909 Tb864 2.387 . S
O909 C920 1.264 . S
O910 Tb875 2.349 1_455 S
O910 C920 1.243 . S
O911 Tb864 2.428 . S
O911 C928 1.256 . S
O912 Tb864 2.308 . S
O912 C927 1.266 1_554 S
O913 Tb875 2.393 1_456 S
O913 C927 1.248 . S
O914 Tb875 2.465 . S
O914 C939 1.264 . S
O915 Tb875 2.387 1_465 S
O915 C931 1.264 . S
O916 Tb864 2.349 1_565 S
O916 C931 1.243 . S
O917 Tb875 2.428 1_556 S
O917 C939 1.256 1_556 S
O918 Tb875 2.308 1_455 S
O918 C938 1.266 . S
O919 Tb864 2.393 . S
O919 C938 1.248 . S
C920 O909 1.264 . S
C920 O910 1.243 . S
C921 C924 1.399 . S
C921 C926 1.383 . S
C921 C928 1.496 . S
C922 C923 1.404 1_565 S
C922 C926 1.377 1_565 S
C923 C922 1.404 1_545 S
C923 C925 1.380 . S
C923 H940 0.928 1_545 S
C924 C921 1.399 . S
C924 C925 1.392 . S
C924 H941 0.929 . S
C925 C923 1.380 . S
C925 C924 1.392 . S
C925 H942 0.929 . S
C926 C921 1.383 . S
C926 C922 1.377 1_545 S
C926 H943 0.931 . S
C927 O912 1.266 1_556 S
C927 O913 1.248 . S
C928 Tb864 2.802 . S
C928 O908 1.264 . S
C928 O911 1.256 . S
C928 C921 1.496 . S
C929 C896 1.448 . S
C929 H906 0.930 . S
C929 C930 1.328 . S
C930 C901 1.427 . S
C930 H907 0.929 . S
C930 C929 1.328 . S
C931 O915 1.264 . S
C931 O916 1.243 . S
C932 C935 1.399 . S
C932 C936 1.383 1_556 S
C932 C939 1.496 1_556 S
C933 C934 1.399 1_554 S
C933 C936 1.389 . S
C934 C933 1.399 1_556 S
C934 C937 1.380 . S
C934 H944 0.929 . S
C935 C932 1.399 . S
C935 C937 1.392 . S
C935 H945 0.929 . S
C936 C932 1.383 1_554 S
C936 C933 1.389 . S
C936 H946 0.931 . S
C937 C934 1.380 . S
C937 C935 1.392 . S
C937 H947 0.929 . S
C938 O918 1.266 . S
C938 O919 1.248 . S
C939 Tb875 2.802 . S
C939 O914 1.264 . S
C939 O917 1.256 1_554 S
C939 C932 1.496 1_554 S
H940 C923 0.928 1_565 S
H941 C924 0.929 . S
H942 C925 0.929 . S
H943 C926 0.931 . S
H944 C934 0.929 . S
H945 C935 0.929 . S
H946 C936 0.931 . S
H947 C937 0.929 . S
Tb948 N977 2.617 . S
Tb948 N983 2.572 . S
Tb948 O992 2.465 . S
Tb948 O993 2.387 . S
Tb948 O995 2.428 . S
Tb948 O996 2.308 . S
Tb948 O1000 2.349 . S
Tb948 O1003 2.393 . S
Tb948 C1012 2.802 . S
C949 N950 1.379 . S
C949 C952 1.416 . S
C949 C956 1.424 . S
N950 C949 1.379 . S
N950 C953 1.334 . S
N950 Tb959 2.617 . S
C951 C953 1.390 . S
C951 C954 1.339 . S
C951 H971 0.930 . S
C952 C949 1.416 . S
C952 C954 1.416 . S
C952 C958 1.448 . S
C953 N950 1.334 . S
C953 C951 1.390 . S
C953 H964 0.930 . S
C954 C951 1.339 . S
C954 C952 1.416 . S
C954 H975 0.930 . S
C955 C956 1.413 . S
C955 C957 1.427 . S
C955 C961 1.416 . S
C956 C949 1.424 . S
C956 C955 1.413 . S
C956 N960 1.361 . S
C957 C955 1.427 . S
C957 C958 1.328 . S
C957 H972 0.929 . S
C958 C952 1.448 . S
C958 C957 1.328 . S
C958 H973 0.930 . S
Tb959 N950 2.617 . S
Tb959 N960 2.572 . S
Tb959 O994 2.349 . S
Tb959 O997 2.393 . S
Tb959 O998 2.465 . S
Tb959 O999 2.387 . S
Tb959 O1001 2.428 . S
Tb959 O1002 2.308 . S
Tb959 C1023 2.802 . S
N960 C956 1.361 . S
N960 Tb959 2.572 . S
N960 C962 1.340 . S
C961 C955 1.416 . S
C961 C963 1.332 . S
C961 H969 0.931 . S
C962 N960 1.340 . S
C962 C963 1.407 . S
C962 H968 0.930 . S
C963 C961 1.332 . S
C963 C962 1.407 . S
C963 H965 0.929 . S
H964 C953 0.930 . S
H965 C963 0.929 . S
H966 C981 0.930 . S
H967 C988 0.929 . S
H968 C962 0.930 . S
H969 C961 0.931 . S
H970 C984 0.930 . S
H971 C951 0.930 . S
H972 C957 0.929 . S
H973 C958 0.930 . S
H974 C979 0.930 . S
H975 C954 0.930 . S
H976 C987 0.931 . S
N977 Tb948 2.617 . S
N977 C978 1.379 . S
N977 C981 1.334 . S
C978 N977 1.379 . S
C978 C980 1.416 . S
C978 C986 1.424 . S
C979 H974 0.930 . S
C979 C981 1.390 . S
C979 C982 1.339 . S
C980 C978 1.416 . S
C980 C982 1.416 . S
C980 C1013 1.448 . S
C981 H966 0.930 . S
C981 N977 1.334 . S
C981 C979 1.390 . S
C982 C979 1.339 . S
C982 C980 1.416 . S
C982 H989 0.930 . S
N983 Tb948 2.572 . S
N983 C984 1.340 . S
N983 C986 1.361 . S
C984 H970 0.930 . S
C984 N983 1.340 . S
C984 C988 1.407 . S
C985 C986 1.413 . S
C985 C987 1.416 . S
C985 C1014 1.427 . S
C986 C978 1.424 . S
C986 N983 1.361 . S
C986 C985 1.413 . S
C987 H976 0.931 . S
C987 C985 1.416 . S
C987 C988 1.332 . S
C988 H967 0.929 . S
C988 C984 1.407 . S
C988 C987 1.332 . S
H989 C982 0.930 . S
H990 C1013 0.930 . S
H991 C1014 0.929 . S
O992 Tb948 2.465 . S
O992 C1012 1.264 . S
O993 Tb948 2.387 . S
O993 C1004 1.264 . S
O994 Tb959 2.349 . S
O994 C1004 1.243 . S
O995 Tb948 2.428 . S
O995 C1012 1.256 . S
O996 Tb948 2.308 . S
O996 C1011 1.266 . S
O997 Tb959 2.393 . S
O997 C1011 1.248 . S
O998 Tb959 2.465 . S
O998 C1023 1.264 . S
O999 Tb959 2.387 . S
O999 C1015 1.264 . S
O1000 Tb948 2.349 . S
O1000 C1015 1.243 . S
O1001 Tb959 2.428 . S
O1001 C1023 1.256 . S
O1002 Tb959 2.308 . S
O1002 C1022 1.266 . S
O1003 Tb948 2.393 . S
O1003 C1022 1.248 . S
C1004 O993 1.264 . S
C1004 O994 1.243 . S
C1005 C1008 1.399 . S
C1005 C1010 1.383 . S
C1005 C1012 1.496 . S
C1006 C1007 1.399 . S
C1006 C1010 1.389 . S
C1007 C1006 1.399 . S
C1007 C1009 1.380 . S
C1007 H1024 0.929 . S
C1008 C1005 1.399 . S
C1008 C1009 1.392 . S
C1008 H1025 0.929 . S
C1009 C1007 1.380 . S
C1009 C1008 1.392 . S
C1009 H1026 0.929 . S
C1010 C1005 1.383 . S
C1010 C1006 1.389 . S
C1010 H1027 0.931 . S
C1011 O996 1.266 . S
C1011 O997 1.248 . S
C1012 Tb948 2.802 . S
C1012 O992 1.264 . S
C1012 O995 1.256 . S
C1012 C1005 1.496 . S
C1013 C980 1.448 . S
C1013 H990 0.930 . S
C1013 C1014 1.328 . S
C1014 C985 1.427 . S
C1014 H991 0.929 . S
C1014 C1013 1.328 . S
C1015 O999 1.264 . S
C1015 O1000 1.243 . S
C1016 C1019 1.399 . S
C1016 C1020 1.383 . S
C1016 C1023 1.496 . S
C1017 C1018 1.399 . S
C1017 C1020 1.389 . S
C1018 C1017 1.399 . S
C1018 C1021 1.380 . S
C1018 H1028 0.929 . S
C1019 C1016 1.399 . S
C1019 C1021 1.392 . S
C1019 H1029 0.929 . S
C1020 C1016 1.383 . S
C1020 C1017 1.389 . S
C1020 H1030 0.931 . S
C1021 C1018 1.380 . S
C1021 C1019 1.392 . S
C1021 H1031 0.929 . S
C1022 O1002 1.266 . S
C1022 O1003 1.248 . S
C1023 Tb959 2.802 . S
C1023 O998 1.264 . S
C1023 O1001 1.256 . S
C1023 C1016 1.496 . S
H1024 C1007 0.929 . S
H1025 C1008 0.929 . S
H1026 C1009 0.929 . S
H1027 C1010 0.931 . S
H1028 C1018 0.929 . S
H1029 C1019 0.929 . S
H1030 C1020 0.931 . S
H1031 C1021 0.929 . S
Tb1032 N1061 2.617 . S
Tb1032 N1067 2.572 1_545 S
Tb1032 O1076 2.465 . S
Tb1032 O1077 2.387 1_545 S
Tb1032 O1079 2.428 . S
Tb1032 O1080 2.308 . S
Tb1032 O1084 2.349 . S
Tb1032 O1087 2.393 . S
Tb1032 C1096 2.802 . S
C1033 N1034 1.379 . S
C1033 C1036 1.416 . S
C1033 C1040 1.424 . S
N1034 C1033 1.379 . S
N1034 C1037 1.334 . S
N1034 Tb1043 2.617 . S
C1035 C1037 1.390 . S
C1035 C1038 1.339 . S
C1035 H1055 0.930 . S
C1036 C1033 1.416 . S
C1036 C1038 1.416 . S
C1036 C1042 1.448 . S
C1037 N1034 1.334 . S
C1037 C1035 1.390 . S
C1037 H1048 0.930 . S
C1038 C1035 1.339 . S
C1038 C1036 1.416 . S
C1038 H1059 0.930 . S
C1039 C1040 1.413 . S
C1039 C1041 1.427 . S
C1039 C1045 1.416 . S
C1040 C1033 1.424 . S
C1040 C1039 1.413 . S
C1040 N1044 1.361 . S
C1041 C1039 1.427 . S
C1041 C1042 1.328 . S
C1041 H1056 0.929 . S
C1042 C1036 1.448 . S
C1042 C1041 1.328 . S
C1042 H1057 0.930 . S
Tb1043 N1034 2.617 . S
Tb1043 N1044 2.572 . S
Tb1043 O1078 2.349 . S
Tb1043 O1081 2.393 . S
Tb1043 O1082 2.465 . S
Tb1043 O1083 2.387 . S
Tb1043 O1085 2.428 . S
Tb1043 O1086 2.308 . S
Tb1043 C1107 2.802 . S
N1044 C1040 1.361 . S
N1044 Tb1043 2.572 . S
N1044 C1046 1.340 . S
C1045 C1039 1.416 . S
C1045 C1047 1.332 . S
C1045 H1053 0.931 . S
C1046 N1044 1.340 . S
C1046 C1047 1.407 . S
C1046 H1052 0.930 . S
C1047 C1045 1.332 . S
C1047 C1046 1.407 . S
C1047 H1049 0.929 . S
H1048 C1037 0.930 . S
H1049 C1047 0.929 . S
H1050 C1065 0.930 . S
H1051 C1072 0.929 . S
H1052 C1046 0.930 . S
H1053 C1045 0.931 . S
H1054 C1068 0.930 1_545 S
H1055 C1035 0.930 . S
H1056 C1041 0.929 . S
H1057 C1042 0.930 . S
H1058 C1063 0.930 . S
H1059 C1038 0.930 . S
H1060 C1071 0.931 . S
N1061 Tb1032 2.617 . S
N1061 C1062 1.379 1_545 S
N1061 C1065 1.334 . S
C1062 N1061 1.379 1_565 S
C1062 C1064 1.416 . S
C1062 C1070 1.424 . S
C1063 H1058 0.930 . S
C1063 C1065 1.390 1_565 S
C1063 C1066 1.339 . S
C1064 C1062 1.416 . S
C1064 C1066 1.416 . S
C1064 C1097 1.448 . S
C1065 H1050 0.930 . S
C1065 N1061 1.334 . S
C1065 C1063 1.390 1_545 S
C1066 C1063 1.339 . S
C1066 C1064 1.416 . S
C1066 H1073 0.930 . S
N1067 Tb1032 2.572 1_565 S
N1067 C1068 1.340 . S
N1067 C1070 1.361 . S
C1068 H1054 0.930 1_565 S
C1068 N1067 1.340 . S
C1068 C1072 1.407 . S
C1069 C1070 1.413 . S
C1069 C1071 1.416 . S
C1069 C1098 1.427 . S
C1070 C1062 1.424 . S
C1070 N1067 1.361 . S
C1070 C1069 1.413 . S
C1071 H1060 0.931 . S
C1071 C1069 1.416 . S
C1071 C1072 1.332 . S
C1072 H1051 0.929 . S
C1072 C1068 1.407 . S
C1072 C1071 1.332 . S
H1073 C1066 0.930 . S
H1074 C1097 0.930 . S
H1075 C1098 0.929 . S
O1076 Tb1032 2.465 . S
O1076 C1096 1.264 . S
O1077 Tb1032 2.387 1_565 S
O1077 C1088 1.264 . S
O1078 Tb1043 2.349 . S
O1078 C1088 1.243 1_545 S
O1079 Tb1032 2.428 . S
O1079 C1096 1.256 . S
O1080 Tb1032 2.308 . S
O1080 C1095 1.266 . S
O1081 Tb1043 2.393 . S
O1081 C1095 1.248 . S
O1082 Tb1043 2.465 . S
O1082 C1107 1.264 . S
O1083 Tb1043 2.387 . S
O1083 C1099 1.264 . S
O1084 Tb1032 2.349 . S
O1084 C1099 1.243 . S
O1085 Tb1043 2.428 . S
O1085 C1107 1.256 . S
O1086 Tb1043 2.308 . S
O1086 C1106 1.266 . S
O1087 Tb1032 2.393 . S
O1087 C1106 1.248 . S
C1088 O1077 1.264 . S
C1088 O1078 1.243 1_565 S
C1089 C1092 1.399 . S
C1089 C1094 1.383 . S
C1089 C1096 1.496 . S
C1090 C1091 1.399 . S
C1090 C1094 1.389 . S
C1091 C1090 1.399 . S
C1091 C1093 1.380 . S
C1091 H1108 0.929 . S
C1092 C1089 1.399 . S
C1092 C1093 1.392 . S
C1092 H1109 0.929 . S
C1093 C1091 1.380 . S
C1093 C1092 1.392 . S
C1093 H1110 0.929 . S
C1094 C1089 1.383 . S
C1094 C1090 1.389 . S
C1094 H1111 0.931 . S
C1095 O1080 1.266 . S
C1095 O1081 1.248 . S
C1096 Tb1032 2.802 . S
C1096 O1076 1.264 . S
C1096 O1079 1.256 . S
C1096 C1089 1.496 . S
C1097 C1064 1.448 . S
C1097 H1074 0.930 . S
C1097 C1098 1.328 . S
C1098 C1069 1.427 . S
C1098 H1075 0.929 . S
C1098 C1097 1.328 . S
C1099 O1083 1.264 . S
C1099 O1084 1.243 . S
C1100 C1103 1.399 1_545 S
C1100 C1104 1.383 1_545 S
C1100 C1107 1.496 . S
C1101 C1102 1.399 . S
C1101 C1104 1.389 . S
C1102 C1101 1.399 . S
C1102 C1105 1.380 . S
C1102 H1112 0.929 . S
C1103 C1100 1.399 1_565 S
C1103 C1105 1.392 . S
C1103 H1113 0.929 1_565 S
C1104 C1100 1.383 1_565 S
C1104 C1101 1.389 . S
C1104 H1114 0.931 . S
C1105 C1102 1.380 . S
C1105 C1103 1.392 . S
C1105 H1115 0.929 . S
C1106 O1086 1.266 . S
C1106 O1087 1.248 . S
C1107 Tb1043 2.802 . S
C1107 O1082 1.264 . S
C1107 O1085 1.256 . S
C1107 C1100 1.496 . S
H1108 C1091 0.929 . S
H1109 C1092 0.929 . S
H1110 C1093 0.929 . S
H1111 C1094 0.931 . S
H1112 C1102 0.929 . S
H1113 C1103 0.929 1_545 S
H1114 C1104 0.931 . S
H1115 C1105 0.929 . S
Tb1116 N1145 2.617 . S
Tb1116 N1151 2.572 . S
Tb1116 O1160 2.465 . S
Tb1116 O1161 2.387 . S
Tb1116 O1163 2.428 . S
Tb1116 O1164 2.308 . S
Tb1116 O1168 2.349 . S
Tb1116 O1171 2.393 . S
Tb1116 C1180 2.802 . S
C1117 N1118 1.379 . S
C1117 C1120 1.416 . S
C1117 C1124 1.424 . S
N1118 C1117 1.379 . S
N1118 C1121 1.334 . S
N1118 Tb1127 2.617 . S
C1119 C1121 1.390 . S
C1119 C1122 1.339 . S
C1119 H1139 0.930 . S
C1120 C1117 1.416 . S
C1120 C1122 1.416 . S
C1120 C1126 1.448 . S
C1121 N1118 1.334 . S
C1121 C1119 1.390 . S
C1121 H1132 0.930 . S
C1122 C1119 1.339 . S
C1122 C1120 1.416 . S
C1122 H1143 0.930 . S
C1123 C1124 1.413 . S
C1123 C1125 1.427 . S
C1123 C1129 1.416 . S
C1124 C1117 1.424 . S
C1124 C1123 1.413 . S
C1124 N1128 1.361 . S
C1125 C1123 1.427 . S
C1125 C1126 1.328 . S
C1125 H1140 0.929 . S
C1126 C1120 1.448 . S
C1126 C1125 1.328 . S
C1126 H1141 0.930 . S
Tb1127 N1118 2.617 . S
Tb1127 N1128 2.572 . S
Tb1127 O1162 2.349 . S
Tb1127 O1165 2.393 . S
Tb1127 O1166 2.465 . S
Tb1127 O1167 2.387 . S
Tb1127 O1169 2.428 . S
Tb1127 O1170 2.308 . S
Tb1127 C1191 2.802 . S
N1128 C1124 1.361 . S
N1128 Tb1127 2.572 . S
N1128 C1130 1.340 . S
C1129 C1123 1.416 . S
C1129 C1131 1.332 . S
C1129 H1137 0.931 . S
C1130 N1128 1.340 . S
C1130 C1131 1.407 . S
C1130 H1136 0.930 . S
C1131 C1129 1.332 . S
C1131 C1130 1.407 . S
C1131 H1133 0.929 . S
H1132 C1121 0.930 . S
H1133 C1131 0.929 . S
H1134 C1149 0.930 . S
H1135 C1156 0.929 . S
H1136 C1130 0.930 . S
H1137 C1129 0.931 . S
H1138 C1152 0.930 . S
H1139 C1119 0.930 . S
H1140 C1125 0.929 . S
H1141 C1126 0.930 . S
H1142 C1147 0.930 . S
H1143 C1122 0.930 . S
H1144 C1155 0.931 . S
N1145 Tb1116 2.617 . S
N1145 C1146 1.379 . S
N1145 C1149 1.334 . S
C1146 N1145 1.379 . S
C1146 C1148 1.416 . S
C1146 C1154 1.424 . S
C1147 H1142 0.930 . S
C1147 C1149 1.390 . S
C1147 C1150 1.339 . S
C1148 C1146 1.416 . S
C1148 C1150 1.416 . S
C1148 C1181 1.448 . S
C1149 H1134 0.930 . S
C1149 N1145 1.334 . S
C1149 C1147 1.390 . S
C1150 C1147 1.339 . S
C1150 C1148 1.416 . S
C1150 H1157 0.930 . S
N1151 Tb1116 2.572 . S
N1151 C1152 1.340 . S
N1151 C1154 1.361 . S
C1152 H1138 0.930 . S
C1152 N1151 1.340 . S
C1152 C1156 1.407 . S
C1153 C1154 1.413 . S
C1153 C1155 1.416 . S
C1153 C1182 1.427 . S
C1154 C1146 1.424 . S
C1154 N1151 1.361 . S
C1154 C1153 1.413 . S
C1155 H1144 0.931 . S
C1155 C1153 1.416 . S
C1155 C1156 1.332 . S
C1156 H1135 0.929 . S
C1156 C1152 1.407 . S
C1156 C1155 1.332 . S
H1157 C1150 0.930 . S
H1158 C1181 0.930 . S
H1159 C1182 0.929 . S
O1160 Tb1116 2.465 . S
O1160 C1180 1.264 . S
O1161 Tb1116 2.387 . S
O1161 C1172 1.264 . S
O1162 Tb1127 2.349 . S
O1162 C1172 1.243 . S
O1163 Tb1116 2.428 . S
O1163 C1180 1.256 . S
O1164 Tb1116 2.308 . S
O1164 C1179 1.266 . S
O1165 Tb1127 2.393 . S
O1165 C1179 1.248 . S
O1166 Tb1127 2.465 . S
O1166 C1191 1.264 . S
O1167 Tb1127 2.387 . S
O1167 C1183 1.264 . S
O1168 Tb1116 2.349 . S
O1168 C1183 1.243 . S
O1169 Tb1127 2.428 . S
O1169 C1191 1.256 . S
O1170 Tb1127 2.308 . S
O1170 C1190 1.266 . S
O1171 Tb1116 2.393 . S
O1171 C1190 1.248 . S
C1172 O1161 1.264 . S
C1172 O1162 1.243 . S
C1173 C1176 1.399 . S
C1173 C1178 1.383 . S
C1173 C1180 1.496 . S
C1174 C1175 1.399 . S
C1174 C1178 1.389 . S
C1175 C1174 1.399 . S
C1175 C1177 1.380 . S
C1175 H1192 0.929 . S
C1176 C1173 1.399 . S
C1176 C1177 1.392 . S
C1176 H1193 0.929 . S
C1177 C1175 1.380 . S
C1177 C1176 1.392 . S
C1177 H1194 0.929 . S
C1178 C1173 1.383 . S
C1178 C1174 1.389 . S
C1178 H1195 0.931 . S
C1179 O1164 1.266 . S
C1179 O1165 1.248 . S
C1180 Tb1116 2.802 . S
C1180 O1160 1.264 . S
C1180 O1163 1.256 . S
C1180 C1173 1.496 . S
C1181 C1148 1.448 . S
C1181 H1158 0.930 . S
C1181 C1182 1.328 . S
C1182 C1153 1.427 . S
C1182 H1159 0.929 . S
C1182 C1181 1.328 . S
C1183 O1167 1.264 . S
C1183 O1168 1.243 . S
C1184 C1187 1.399 . S
C1184 C1188 1.383 . S
C1184 C1191 1.496 . S
C1185 C1186 1.399 . S
C1185 C1188 1.389 . S
C1186 C1185 1.399 . S
C1186 C1189 1.380 . S
C1186 H1196 0.929 . S
C1187 C1184 1.399 . S
C1187 C1189 1.392 . S
C1187 H1197 0.929 . S
C1188 C1184 1.383 . S
C1188 C1185 1.389 . S
C1188 H1198 0.931 . S
C1189 C1186 1.380 . S
C1189 C1187 1.392 . S
C1189 H1199 0.929 . S
C1190 O1170 1.266 . S
C1190 O1171 1.248 . S
C1191 Tb1127 2.802 . S
C1191 O1166 1.264 . S
C1191 O1169 1.256 . S
C1191 C1184 1.496 . S
H1192 C1175 0.929 . S
H1193 C1176 0.929 . S
H1194 C1177 0.929 . S
H1195 C1178 0.931 . S
H1196 C1186 0.929 . S
H1197 C1187 0.929 . S
H1198 C1188 0.931 . S
H1199 C1189 0.929 . S
Tb1200 N1229 2.618 1_545 S
Tb1200 N1235 2.573 1_545 S
Tb1200 O1244 2.467 1_545 S
Tb1200 O1245 2.386 . S
Tb1200 O1247 2.429 1_545 S
Tb1200 O1248 2.307 . S
Tb1200 O1252 2.348 . S
Tb1200 O1255 2.391 . S
Tb1200 C1264 2.804 1_545 S
C1201 N1202 1.368 1_455 S
C1201 C1204 1.383 1_455 S
C1201 C1208 1.470 . S
N1202 C1201 1.368 1_655 S
N1202 C1205 1.334 . S
N1202 Tb1211 2.617 1_655 S
C1203 C1205 1.390 . S
C1203 C1206 1.339 . S
C1203 H1223 0.930 . S
C1204 C1201 1.383 1_655 S
C1204 C1206 1.416 . S
C1204 C1210 1.448 1_655 S
C1205 N1202 1.334 . S
C1205 C1203 1.390 . S
C1205 H1216 0.930 . S
C1206 C1203 1.339 . S
C1206 C1204 1.416 . S
C1206 H1227 0.930 . S
C1207 C1208 1.413 . S
C1207 C1209 1.427 . S
C1207 C1213 1.416 . S
C1208 C1201 1.470 . S
C1208 C1207 1.413 . S
C1208 N1212 1.361 . S
C1209 C1207 1.427 . S
C1209 C1210 1.328 . S
C1209 H1224 0.929 . S
C1210 C1204 1.448 1_455 S
C1210 C1209 1.328 . S
C1210 H1225 0.930 1_455 S
Tb1211 N1202 2.617 1_455 S
Tb1211 N1212 2.572 . S
Tb1211 O1246 2.349 . S
Tb1211 O1249 2.393 1_455 S
Tb1211 O1250 2.465 . S
Tb1211 O1251 2.387 . S
Tb1211 O1253 2.428 1_455 S
Tb1211 O1254 2.308 . S
Tb1211 C1275 2.802 . S
N1212 C1208 1.361 . S
N1212 Tb1211 2.572 . S
N1212 C1214 1.340 . S
C1213 C1207 1.416 . S
C1213 C1215 1.332 . S
C1213 H1221 0.931 . S
C1214 N1212 1.340 . S
C1214 C1215 1.407 . S
C1214 H1220 0.930 . S
C1215 C1213 1.332 . S
C1215 C1214 1.407 . S
C1215 H1217 0.929 . S
H1216 C1205 0.930 . S
H1217 C1215 0.929 . S
H1218 C1233 0.930 1_545 S
H1219 C1240 0.929 . S
H1220 C1214 0.930 . S
H1221 C1213 0.931 . S
H1222 C1236 0.930 . S
H1223 C1203 0.930 . S
H1224 C1209 0.929 . S
H1225 C1210 0.930 1_655 S
H1226 C1231 0.945 . S
H1227 C1206 0.930 . S
H1228 C1239 0.931 . S
N1229 Tb1200 2.618 1_565 S
N1229 C1230 1.379 . S
N1229 C1233 1.334 . S
C1230 N1229 1.379 . S
C1230 C1232 1.416 . S
C1230 C1238 1.424 . S
C1231 H1226 0.945 . S
C1231 C1233 1.390 . S
C1231 C1234 1.339 . S
C1232 C1230 1.416 . S
C1232 C1234 1.416 . S
C1232 C1265 1.448 . S
C1233 H1218 0.930 1_565 S
C1233 N1229 1.334 . S
C1233 C1231 1.390 . S
C1234 C1231 1.339 . S
C1234 C1232 1.416 . S
C1234 H1241 0.930 . S
N1235 Tb1200 2.573 1_565 S
N1235 C1236 1.340 1_455 S
N1235 C1238 1.361 . S
C1236 H1222 0.930 . S
C1236 N1235 1.340 1_655 S
C1236 C1240 1.407 . S
C1237 C1238 1.413 . S
C1237 C1239 1.416 1_455 S
C1237 C1266 1.427 . S
C1238 C1230 1.424 . S
C1238 N1235 1.361 . S
C1238 C1237 1.413 . S
C1239 H1228 0.931 . S
C1239 C1237 1.416 1_655 S
C1239 C1240 1.332 . S
C1240 H1219 0.929 . S
C1240 C1236 1.407 . S
C1240 C1239 1.332 . S
H1241 C1234 0.930 . S
H1242 C1265 0.930 . S
H1243 C1266 0.929 . S
O1244 Tb1200 2.467 1_565 S
O1244 C1264 1.264 . S
O1245 Tb1200 2.386 . S
O1245 C1256 1.264 . S
O1246 Tb1211 2.349 . S
O1246 C1256 1.243 . S
O1247 Tb1200 2.429 1_565 S
O1247 C1264 1.256 . S
O1248 Tb1200 2.307 . S
O1248 C1263 1.266 1_455 S
O1249 Tb1211 2.393 1_655 S
O1249 C1263 1.248 . S
O1250 Tb1211 2.465 . S
O1250 C1275 1.264 . S
O1251 Tb1211 2.387 . S
O1251 C1267 1.264 . S
O1252 Tb1200 2.348 . S
O1252 C1267 1.243 . S
O1253 Tb1211 2.428 1_655 S
O1253 C1275 1.256 1_655 S
O1254 Tb1211 2.308 . S
O1254 C1274 1.266 . S
O1255 Tb1200 2.391 . S
O1255 C1274 1.248 . S
C1256 O1245 1.264 . S
C1256 O1246 1.243 . S
C1257 C1260 1.399 . S
C1257 C1262 1.383 . S
C1257 C1264 1.496 . S
C1258 C1259 1.399 . S
C1258 C1262 1.389 . S
C1259 C1258 1.399 . S
C1259 C1261 1.380 . S
C1259 H1276 0.929 . S
C1260 C1257 1.399 . S
C1260 C1261 1.392 . S
C1260 H1277 0.929 . S
C1261 C1259 1.380 . S
C1261 C1260 1.392 . S
C1261 H1278 0.929 . S
C1262 C1257 1.383 . S
C1262 C1258 1.389 . S
C1262 H1279 0.931 . S
C1263 O1248 1.266 1_655 S
C1263 O1249 1.248 . S
C1264 Tb1200 2.804 1_565 S
C1264 O1244 1.264 . S
C1264 O1247 1.256 . S
C1264 C1257 1.496 . S
C1265 C1232 1.448 . S
C1265 H1242 0.930 . S
C1265 C1266 1.328 . S
C1266 C1237 1.427 . S
C1266 H1243 0.929 . S
C1266 C1265 1.328 . S
C1267 O1251 1.264 . S
C1267 O1252 1.243 . S
C1268 C1271 1.399 1_455 S
C1268 C1272 1.383 . S
C1268 C1275 1.496 . S
C1269 C1270 1.399 1_455 S
C1269 C1272 1.389 . S
C1270 C1269 1.399 1_655 S
C1270 C1273 1.380 . S
C1270 H1280 0.929 . S
C1271 C1268 1.399 1_655 S
C1271 C1273 1.392 . S
C1271 H1281 0.929 . S
C1272 C1268 1.383 . S
C1272 C1269 1.389 . S
C1272 H1282 0.931 . S
C1273 C1270 1.380 . S
C1273 C1271 1.392 . S
C1273 H1283 0.929 . S
C1274 O1254 1.266 . S
C1274 O1255 1.248 . S
C1275 Tb1211 2.802 . S
C1275 O1250 1.264 . S
C1275 O1253 1.256 1_455 S
C1275 C1268 1.496 . S
H1276 C1259 0.929 . S
H1277 C1260 0.929 . S
H1278 C1261 0.929 . S
H1279 C1262 0.931 . S
H1280 C1270 0.929 . S
H1281 C1271 0.929 . S
H1282 C1272 0.931 . S
H1283 C1273 0.929 . S
Tb1284 N1313 2.617 . S
Tb1284 N1319 2.572 . S
Tb1284 O1328 2.465 . S
Tb1284 O1329 2.387 . S
Tb1284 O1331 2.428 . S
Tb1284 O1332 2.308 . S
Tb1284 O1336 2.349 . S
Tb1284 O1339 2.393 . S
Tb1284 C1348 2.802 . S
C1285 N1286 1.379 . S
C1285 C1288 1.416 . S
C1285 C1292 1.424 . S
N1286 C1285 1.379 . S
N1286 C1289 1.334 . S
N1286 Tb1295 2.617 . S
C1287 C1289 1.390 . S
C1287 C1290 1.339 . S
C1287 H1307 0.930 . S
C1288 C1285 1.416 . S
C1288 C1290 1.416 . S
C1288 C1294 1.448 . S
C1289 N1286 1.334 . S
C1289 C1287 1.390 . S
C1289 H1300 0.930 . S
C1290 C1287 1.339 . S
C1290 C1288 1.416 . S
C1290 H1311 0.930 . S
C1291 C1292 1.413 . S
C1291 C1293 1.427 . S
C1291 C1297 1.416 . S
C1292 C1285 1.424 . S
C1292 C1291 1.413 . S
C1292 N1296 1.361 . S
C1293 C1291 1.427 . S
C1293 C1294 1.328 . S
C1293 H1308 0.929 . S
C1294 C1288 1.448 . S
C1294 C1293 1.328 . S
C1294 H1309 0.930 . S
Tb1295 N1286 2.617 . S
Tb1295 N1296 2.572 . S
Tb1295 O1330 2.349 . S
Tb1295 O1333 2.393 . S
Tb1295 O1334 2.465 . S
Tb1295 O1335 2.387 . S
Tb1295 O1337 2.428 . S
Tb1295 O1338 2.308 . S
Tb1295 C1359 2.802 . S
N1296 C1292 1.361 . S
N1296 Tb1295 2.572 . S
N1296 C1298 1.340 . S
C1297 C1291 1.416 . S
C1297 C1299 1.332 . S
C1297 H1305 0.931 . S
C1298 N1296 1.340 . S
C1298 C1299 1.407 . S
C1298 H1304 0.930 . S
C1299 C1297 1.332 . S
C1299 C1298 1.407 . S
C1299 H1301 0.929 . S
H1300 C1289 0.930 . S
H1301 C1299 0.929 . S
H1302 C1317 0.930 . S
H1303 C1324 0.929 . S
H1304 C1298 0.930 . S
H1305 C1297 0.931 . S
H1306 C1320 0.930 . S
H1307 C1287 0.930 . S
H1308 C1293 0.929 . S
H1309 C1294 0.930 . S
H1310 C1315 0.930 . S
H1311 C1290 0.930 . S
H1312 C1323 0.931 . S
N1313 Tb1284 2.617 . S
N1313 C1314 1.379 . S
N1313 C1317 1.334 . S
C1314 N1313 1.379 . S
C1314 C1316 1.416 . S
C1314 C1322 1.424 . S
C1315 H1310 0.930 . S
C1315 C1317 1.390 . S
C1315 C1318 1.339 . S
C1316 C1314 1.416 . S
C1316 C1318 1.416 . S
C1316 C1349 1.448 . S
C1317 H1302 0.930 . S
C1317 N1313 1.334 . S
C1317 C1315 1.390 . S
C1318 C1315 1.339 . S
C1318 C1316 1.416 . S
C1318 H1325 0.930 . S
N1319 Tb1284 2.572 . S
N1319 C1320 1.340 . S
N1319 C1322 1.361 . S
C1320 H1306 0.930 . S
C1320 N1319 1.340 . S
C1320 C1324 1.407 . S
C1321 C1322 1.413 . S
C1321 C1323 1.416 . S
C1321 C1350 1.427 . S
C1322 C1314 1.424 . S
C1322 N1319 1.361 . S
C1322 C1321 1.413 . S
C1323 H1312 0.931 . S
C1323 C1321 1.416 . S
C1323 C1324 1.332 . S
C1324 H1303 0.929 . S
C1324 C1320 1.407 . S
C1324 C1323 1.332 . S
H1325 C1318 0.930 . S
H1326 C1349 0.930 . S
H1327 C1350 0.929 . S
O1328 Tb1284 2.465 . S
O1328 C1348 1.264 . S
O1329 Tb1284 2.387 . S
O1329 C1340 1.264 . S
O1330 Tb1295 2.349 . S
O1330 C1340 1.243 . S
O1331 Tb1284 2.428 . S
O1331 C1348 1.256 . S
O1332 Tb1284 2.308 . S
O1332 C1347 1.266 . S
O1333 Tb1295 2.393 . S
O1333 C1347 1.248 . S
O1334 Tb1295 2.465 . S
O1334 C1359 1.264 . S
O1335 Tb1295 2.387 . S
O1335 C1351 1.264 . S
O1336 Tb1284 2.349 . S
O1336 C1351 1.243 . S
O1337 Tb1295 2.428 . S
O1337 C1359 1.256 . S
O1338 Tb1295 2.308 . S
O1338 C1358 1.266 . S
O1339 Tb1284 2.393 . S
O1339 C1358 1.248 . S
C1340 O1329 1.264 . S
C1340 O1330 1.243 . S
C1341 C1344 1.399 . S
C1341 C1346 1.383 . S
C1341 C1348 1.496 . S
C1342 C1343 1.399 . S
C1342 C1346 1.389 . S
C1343 C1342 1.399 . S
C1343 C1345 1.380 . S
C1343 H1360 0.929 . S
C1344 C1341 1.399 . S
C1344 C1345 1.392 . S
C1344 H1361 0.929 . S
C1345 C1343 1.380 . S
C1345 C1344 1.392 . S
C1345 H1362 0.929 . S
C1346 C1341 1.383 . S
C1346 C1342 1.389 . S
C1346 H1363 0.931 . S
C1347 O1332 1.266 . S
C1347 O1333 1.248 . S
C1348 Tb1284 2.802 . S
C1348 O1328 1.264 . S
C1348 O1331 1.256 . S
C1348 C1341 1.496 . S
C1349 C1316 1.448 . S
C1349 H1326 0.930 . S
C1349 C1350 1.328 . S
C1350 C1321 1.427 . S
C1350 H1327 0.929 . S
C1350 C1349 1.328 . S
C1351 O1335 1.264 . S
C1351 O1336 1.243 . S
C1352 C1355 1.399 . S
C1352 C1356 1.383 . S
C1352 C1359 1.496 . S
C1353 C1354 1.399 . S
C1353 C1356 1.389 . S
C1354 C1353 1.399 . S
C1354 C1357 1.380 . S
C1354 H1364 0.929 . S
C1355 C1352 1.399 . S
C1355 C1357 1.392 . S
C1355 H1365 0.929 . S
C1356 C1352 1.383 . S
C1356 C1353 1.389 . S
C1356 H1366 0.931 . S
C1357 C1354 1.380 . S
C1357 C1355 1.392 . S
C1357 H1367 0.929 . S
C1358 O1338 1.266 . S
C1358 O1339 1.248 . S
C1359 Tb1295 2.802 . S
C1359 O1334 1.264 . S
C1359 O1337 1.256 . S
C1359 C1352 1.496 . S
H1360 C1343 0.929 . S
H1361 C1344 0.929 . S
H1362 C1345 0.929 . S
H1363 C1346 0.931 . S
H1364 C1354 0.929 . S
H1365 C1355 0.929 . S
H1366 C1356 0.931 . S
H1367 C1357 0.929 . S
Tb1368 N1397 2.617 . S
Tb1368 N1403 2.572 . S
Tb1368 O1412 2.465 . S
Tb1368 O1413 2.387 1_556 S
Tb1368 O1415 2.428 . S
Tb1368 O1416 2.308 1_556 S
Tb1368 O1420 2.349 1_556 S
Tb1368 O1423 2.393 1_556 S
Tb1368 C1432 2.802 . S
C1369 N1370 1.379 1_545 S
C1369 C1372 1.416 1_545 S
C1369 C1376 1.424 . S
N1370 C1369 1.379 1_565 S
N1370 C1373 1.334 . S
N1370 Tb1379 2.617 1_565 S
C1371 C1373 1.390 . S
C1371 C1374 1.339 . S
C1371 H1391 0.930 . S
C1372 C1369 1.416 1_565 S
C1372 C1374 1.416 . S
C1372 C1378 1.448 1_565 S
C1373 N1370 1.334 . S
C1373 C1371 1.390 . S
C1373 H1384 0.930 . S
C1374 C1371 1.339 . S
C1374 C1372 1.416 . S
C1374 H1395 0.930 . S
C1375 C1376 1.413 . S
C1375 C1377 1.427 . S
C1375 C1381 1.416 . S
C1376 C1369 1.424 . S
C1376 C1375 1.413 . S
C1376 N1380 1.361 . S
C1377 C1375 1.427 . S
C1377 C1378 1.328 . S
C1377 H1392 0.929 . S
C1378 C1372 1.448 1_545 S
C1378 C1377 1.328 . S
C1378 H1393 0.930 1_545 S
Tb1379 N1370 2.617 1_545 S
Tb1379 N1380 2.572 . S
Tb1379 O1414 2.349 . S
Tb1379 O1417 2.393 1_545 S
Tb1379 O1418 2.465 . S
Tb1379 O1419 2.387 . S
Tb1379 O1421 2.428 1_545 S
Tb1379 O1422 2.308 . S
Tb1379 C1443 2.802 . S
N1380 C1376 1.361 . S
N1380 Tb1379 2.572 . S
N1380 C1382 1.340 . S
C1381 C1375 1.416 . S
C1381 C1383 1.332 . S
C1381 H1389 0.931 . S
C1382 N1380 1.340 . S
C1382 C1383 1.407 . S
C1382 H1388 0.930 . S
C1383 C1381 1.332 . S
C1383 C1382 1.407 . S
C1383 H1385 0.929 . S
H1384 C1373 0.930 . S
H1385 C1383 0.929 . S
H1386 C1401 0.930 1_554 S
H1387 C1408 0.912 1_565 S
H1388 C1382 0.930 . S
H1389 C1381 0.931 . S
H1390 C1404 0.930 . S
H1391 C1371 0.930 . S
H1392 C1377 0.929 . S
H1393 C1378 0.930 1_565 S
H1394 C1399 0.930 . S
H1395 C1374 0.930 . S
H1396 C1407 0.931 . S
N1397 Tb1368 2.617 . S
N1397 C1398 1.379 . S
N1397 C1401 1.334 . S
C1398 N1397 1.379 . S
C1398 C1400 1.416 . S
C1398 C1406 1.424 . S
C1399 H1394 0.930 . S
C1399 C1401 1.390 . S
C1399 C1402 1.339 . S
C1400 C1398 1.416 . S
C1400 C1402 1.416 . S
C1400 C1433 1.448 . S
C1401 H1386 0.930 1_556 S
C1401 N1397 1.334 . S
C1401 C1399 1.390 . S
C1402 C1399 1.339 . S
C1402 C1400 1.416 . S
C1402 H1409 0.930 . S
N1403 Tb1368 2.572 . S
N1403 C1404 1.340 . S
N1403 C1406 1.361 . S
C1404 H1390 0.930 . S
C1404 N1403 1.340 . S
C1404 C1408 1.413 . S
C1405 C1406 1.413 . S
C1405 C1407 1.416 . S
C1405 C1434 1.427 . S
C1406 C1398 1.424 . S
C1406 N1403 1.361 . S
C1406 C1405 1.413 . S
C1407 H1396 0.931 . S
C1407 C1405 1.416 . S
C1407 C1408 1.345 . S
C1408 H1387 0.912 1_545 S
C1408 C1404 1.413 . S
C1408 C1407 1.345 . S
H1409 C1402 0.930 . S
H1410 C1433 0.930 . S
H1411 C1434 0.929 . S
O1412 Tb1368 2.465 . S
O1412 C1432 1.264 . S
O1413 Tb1368 2.387 1_554 S
O1413 C1424 1.264 . S
O1414 Tb1379 2.349 . S
O1414 C1424 1.243 . S
O1415 Tb1368 2.428 . S
O1415 C1432 1.256 . S
O1416 Tb1368 2.308 1_554 S
O1416 C1431 1.266 1_545 S
O1417 Tb1379 2.393 1_565 S
O1417 C1431 1.248 . S
O1418 Tb1379 2.465 . S
O1418 C1443 1.264 . S
O1419 Tb1379 2.387 . S
O1419 C1435 1.264 . S
O1420 Tb1368 2.349 1_554 S
O1420 C1435 1.243 . S
O1421 Tb1379 2.428 1_565 S
O1421 C1443 1.256 1_565 S
O1422 Tb1379 2.308 . S
O1422 C1442 1.266 . S
O1423 Tb1368 2.393 1_554 S
O1423 C1442 1.248 . S
C1424 O1413 1.264 . S
C1424 O1414 1.243 . S
C1425 C1428 1.399 . S
C1425 C1430 1.383 . S
C1425 C1432 1.496 . S
C1426 C1427 1.399 . S
C1426 C1430 1.389 . S
C1427 C1426 1.399 . S
C1427 C1429 1.380 . S
C1427 H1444 0.929 . S
C1428 C1425 1.399 . S
C1428 C1429 1.392 . S
C1428 H1445 0.929 . S
C1429 C1427 1.380 . S
C1429 C1428 1.392 . S
C1429 H1446 0.929 . S
C1430 C1425 1.383 . S
C1430 C1426 1.389 . S
C1430 H1447 0.931 . S
C1431 O1416 1.266 1_565 S
C1431 O1417 1.248 . S
C1432 Tb1368 2.802 . S
C1432 O1412 1.264 . S
C1432 O1415 1.256 . S
C1432 C1425 1.496 . S
C1433 C1400 1.448 . S
C1433 H1410 0.930 . S
C1433 C1434 1.328 . S
C1434 C1405 1.427 . S
C1434 H1411 0.929 . S
C1434 C1433 1.328 . S
C1435 O1419 1.264 . S
C1435 O1420 1.243 . S
C1436 C1439 1.399 . S
C1436 C1440 1.383 1_565 S
C1436 C1443 1.496 1_565 S
C1437 C1438 1.399 1_545 S
C1437 C1440 1.389 . S
C1438 C1437 1.399 1_565 S
C1438 C1441 1.380 . S
C1438 H1448 0.929 . S
C1439 C1436 1.399 . S
C1439 C1441 1.392 . S
C1439 H1449 0.929 . S
C1440 C1436 1.383 1_545 S
C1440 C1437 1.389 . S
C1440 H1450 0.931 . S
C1441 C1438 1.380 . S
C1441 C1439 1.392 . S
C1441 H1451 0.929 . S
C1442 O1422 1.266 . S
C1442 O1423 1.248 . S
C1443 Tb1379 2.802 . S
C1443 O1418 1.264 . S
C1443 O1421 1.256 1_545 S
C1443 C1436 1.496 1_545 S
H1444 C1427 0.929 . S
H1445 C1428 0.929 . S
H1446 C1429 0.929 . S
H1447 C1430 0.931 . S
H1448 C1438 0.929 . S
H1449 C1439 0.929 . S
H1450 C1440 0.931 . S
H1451 C1441 0.929 . S
Tb1452 N1481 2.617 . S
Tb1452 N1487 2.572 . S
Tb1452 O1496 2.465 . S
Tb1452 O1497 2.387 . S
Tb1452 O1499 2.428 . S
Tb1452 O1500 2.308 . S
Tb1452 O1504 2.349 . S
Tb1452 O1507 2.393 . S
Tb1452 C1516 2.802 . S
C1453 N1454 1.379 . S
C1453 C1456 1.416 . S
C1453 C1460 1.424 . S
N1454 C1453 1.379 . S
N1454 C1457 1.334 . S
N1454 Tb1463 2.617 . S
C1455 C1457 1.390 . S
C1455 C1458 1.339 . S
C1455 H1475 0.930 . S
C1456 C1453 1.416 . S
C1456 C1458 1.416 . S
C1456 C1462 1.448 . S
C1457 N1454 1.334 . S
C1457 C1455 1.390 . S
C1457 H1468 0.930 . S
C1458 C1455 1.339 . S
C1458 C1456 1.416 . S
C1458 H1479 0.930 . S
C1459 C1460 1.413 . S
C1459 C1461 1.427 . S
C1459 C1465 1.416 . S
C1460 C1453 1.424 . S
C1460 C1459 1.413 . S
C1460 N1464 1.361 . S
C1461 C1459 1.427 . S
C1461 C1462 1.328 . S
C1461 H1476 0.929 . S
C1462 C1456 1.448 . S
C1462 C1461 1.328 . S
C1462 H1477 0.930 . S
Tb1463 N1454 2.617 . S
Tb1463 N1464 2.572 . S
Tb1463 O1498 2.349 . S
Tb1463 O1501 2.393 . S
Tb1463 O1502 2.465 . S
Tb1463 O1503 2.387 . S
Tb1463 O1505 2.428 . S
Tb1463 O1506 2.308 . S
Tb1463 C1527 2.802 . S
N1464 C1460 1.361 . S
N1464 Tb1463 2.572 . S
N1464 C1466 1.340 . S
C1465 C1459 1.416 . S
C1465 C1467 1.332 . S
C1465 H1473 0.931 . S
C1466 N1464 1.340 . S
C1466 C1467 1.407 . S
C1466 H1472 0.930 . S
C1467 C1465 1.332 . S
C1467 C1466 1.407 . S
C1467 H1469 0.929 . S
H1468 C1457 0.930 . S
H1469 C1467 0.929 . S
H1470 C1485 0.930 . S
H1471 C1492 0.929 . S
H1472 C1466 0.930 . S
H1473 C1465 0.931 . S
H1474 C1488 0.930 . S
H1475 C1455 0.930 . S
H1476 C1461 0.929 . S
H1477 C1462 0.930 . S
H1478 C1483 0.930 . S
H1479 C1458 0.930 . S
H1480 C1491 0.931 . S
N1481 Tb1452 2.617 . S
N1481 C1482 1.379 . S
N1481 C1485 1.334 . S
C1482 N1481 1.379 . S
C1482 C1484 1.416 . S
C1482 C1490 1.424 . S
C1483 H1478 0.930 . S
C1483 C1485 1.390 . S
C1483 C1486 1.339 . S
C1484 C1482 1.416 . S
C1484 C1486 1.416 . S
C1484 C1517 1.448 . S
C1485 H1470 0.930 . S
C1485 N1481 1.334 . S
C1485 C1483 1.390 . S
C1486 C1483 1.339 . S
C1486 C1484 1.416 . S
C1486 H1493 0.930 . S
N1487 Tb1452 2.572 . S
N1487 C1488 1.340 . S
N1487 C1490 1.361 . S
C1488 H1474 0.930 . S
C1488 N1487 1.340 . S
C1488 C1492 1.407 . S
C1489 C1490 1.413 . S
C1489 C1491 1.416 . S
C1489 C1518 1.427 . S
C1490 C1482 1.424 . S
C1490 N1487 1.361 . S
C1490 C1489 1.413 . S
C1491 H1480 0.931 . S
C1491 C1489 1.416 . S
C1491 C1492 1.332 . S
C1492 H1471 0.929 . S
C1492 C1488 1.407 . S
C1492 C1491 1.332 . S
H1493 C1486 0.930 . S
H1494 C1517 0.930 . S
H1495 C1518 0.929 . S
O1496 Tb1452 2.465 . S
O1496 C1516 1.264 . S
O1497 Tb1452 2.387 . S
O1497 C1508 1.264 . S
O1498 Tb1463 2.349 . S
O1498 C1508 1.243 . S
O1499 Tb1452 2.428 . S
O1499 C1516 1.256 . S
O1500 Tb1452 2.308 . S
O1500 C1515 1.266 . S
O1501 Tb1463 2.393 . S
O1501 C1515 1.248 . S
O1502 Tb1463 2.465 . S
O1502 C1527 1.264 . S
O1503 Tb1463 2.387 . S
O1503 C1519 1.264 . S
O1504 Tb1452 2.349 . S
O1504 C1519 1.243 . S
O1505 Tb1463 2.428 . S
O1505 C1527 1.256 . S
O1506 Tb1463 2.308 . S
O1506 C1526 1.266 . S
O1507 Tb1452 2.393 . S
O1507 C1526 1.248 . S
C1508 O1497 1.264 . S
C1508 O1498 1.243 . S
C1509 C1512 1.399 . S
C1509 C1514 1.383 . S
C1509 C1516 1.496 . S
C1510 C1511 1.399 . S
C1510 C1514 1.389 . S
C1511 C1510 1.399 . S
C1511 C1513 1.380 . S
C1511 H1528 0.929 . S
C1512 C1509 1.399 . S
C1512 C1513 1.392 . S
C1512 H1529 0.929 . S
C1513 C1511 1.380 . S
C1513 C1512 1.392 . S
C1513 H1530 0.929 . S
C1514 C1509 1.383 . S
C1514 C1510 1.389 . S
C1514 H1531 0.931 . S
C1515 O1500 1.266 . S
C1515 O1501 1.248 . S
C1516 Tb1452 2.802 . S
C1516 O1496 1.264 . S
C1516 O1499 1.256 . S
C1516 C1509 1.496 . S
C1517 C1484 1.448 . S
C1517 H1494 0.930 . S
C1517 C1518 1.328 . S
C1518 C1489 1.427 . S
C1518 H1495 0.929 . S
C1518 C1517 1.328 . S
C1519 O1503 1.264 . S
C1519 O1504 1.243 . S
C1520 C1523 1.399 . S
C1520 C1524 1.383 . S
C1520 C1527 1.496 . S
C1521 C1522 1.399 . S
C1521 C1524 1.389 . S
C1522 C1521 1.399 . S
C1522 C1525 1.380 . S
C1522 H1532 0.929 . S
C1523 C1520 1.399 . S
C1523 C1525 1.392 . S
C1523 H1533 0.929 . S
C1524 C1520 1.383 . S
C1524 C1521 1.389 . S
C1524 H1534 0.931 . S
C1525 C1522 1.380 . S
C1525 C1523 1.392 . S
C1525 H1535 0.929 . S
C1526 O1506 1.266 . S
C1526 O1507 1.248 . S
C1527 Tb1463 2.802 . S
C1527 O1502 1.264 . S
C1527 O1505 1.256 . S
C1527 C1520 1.496 . S
H1528 C1511 0.929 . S
H1529 C1512 0.929 . S
H1530 C1513 0.929 . S
H1531 C1514 0.931 . S
H1532 C1522 0.929 . S
H1533 C1523 0.929 . S
H1534 C1524 0.931 . S
H1535 C1525 0.929 . S
Tb1536 N1565 2.617 1_554 S
Tb1536 N1571 2.572 1_554 S
Tb1536 O1580 2.465 . S
Tb1536 O1581 2.387 1_554 S
Tb1536 O1583 2.428 . S
Tb1536 O1584 2.308 . S
Tb1536 O1588 2.349 . S
Tb1536 O1591 2.393 . S
Tb1536 C1600 2.802 . S
C1537 N1538 1.379 . S
C1537 C1540 1.416 . S
C1537 C1544 1.424 . S
N1538 C1537 1.379 . S
N1538 C1541 1.334 . S
N1538 Tb1547 2.617 . S
C1539 C1541 1.390 . S
C1539 C1542 1.339 . S
C1539 H1559 0.930 . S
C1540 C1537 1.416 . S
C1540 C1542 1.416 . S
C1540 C1546 1.448 . S
C1541 N1538 1.334 . S
C1541 C1539 1.390 . S
C1541 H1552 0.930 . S
C1542 C1539 1.339 . S
C1542 C1540 1.416 . S
C1542 H1563 0.930 . S
C1543 C1544 1.413 . S
C1543 C1545 1.427 . S
C1543 C1549 1.416 . S
C1544 C1537 1.424 . S
C1544 C1543 1.413 . S
C1544 N1548 1.361 . S
C1545 C1543 1.427 . S
C1545 C1546 1.328 . S
C1545 H1560 0.929 . S
C1546 C1540 1.448 . S
C1546 C1545 1.328 . S
C1546 H1561 0.930 . S
Tb1547 N1538 2.617 . S
Tb1547 N1548 2.572 . S
Tb1547 O1582 2.349 1_554 S
Tb1547 O1585 2.393 . S
Tb1547 O1586 2.465 . S
Tb1547 O1587 2.387 . S
Tb1547 O1589 2.428 . S
Tb1547 O1590 2.308 . S
Tb1547 C1611 2.802 . S
N1548 C1544 1.361 . S
N1548 Tb1547 2.572 . S
N1548 C1550 1.340 . S
C1549 C1543 1.416 . S
C1549 C1551 1.332 . S
C1549 H1557 0.931 . S
C1550 N1548 1.340 . S
C1550 C1551 1.407 . S
C1550 H1556 0.930 . S
C1551 C1549 1.332 . S
C1551 C1550 1.407 . S
C1551 H1553 0.929 . S
H1552 C1541 0.930 . S
H1553 C1551 0.929 . S
H1554 C1569 0.930 1_554 S
H1555 C1576 0.929 . S
H1556 C1550 0.930 . S
H1557 C1549 0.931 . S
H1558 C1572 0.930 1_554 S
H1559 C1539 0.930 . S
H1560 C1545 0.929 . S
H1561 C1546 0.930 . S
H1562 C1567 0.930 . S
H1563 C1542 0.930 . S
H1564 C1575 0.931 . S
N1565 Tb1536 2.617 1_556 S
N1565 C1566 1.379 . S
N1565 C1569 1.334 . S
C1566 N1565 1.379 . S
C1566 C1568 1.416 . S
C1566 C1574 1.424 . S
C1567 H1562 0.930 . S
C1567 C1569 1.390 . S
C1567 C1570 1.339 . S
C1568 C1566 1.416 . S
C1568 C1570 1.416 . S
C1568 C1601 1.448 . S
C1569 H1554 0.930 1_556 S
C1569 N1565 1.334 . S
C1569 C1567 1.390 . S
C1570 C1567 1.339 . S
C1570 C1568 1.416 . S
C1570 H1577 0.930 . S
N1571 Tb1536 2.572 1_556 S
N1571 C1572 1.340 . S
N1571 C1574 1.361 . S
C1572 H1558 0.930 1_556 S
C1572 N1571 1.340 . S
C1572 C1576 1.407 . S
C1573 C1574 1.413 . S
C1573 C1575 1.416 . S
C1573 C1602 1.427 . S
C1574 C1566 1.424 . S
C1574 N1571 1.361 . S
C1574 C1573 1.413 . S
C1575 H1564 0.931 . S
C1575 C1573 1.416 . S
C1575 C1576 1.332 . S
C1576 H1555 0.929 . S
C1576 C1572 1.407 . S
C1576 C1575 1.332 . S
H1577 C1570 0.930 . S
H1578 C1601 0.930 . S
H1579 C1602 0.929 . S
O1580 Tb1536 2.465 . S
O1580 C1600 1.264 . S
O1581 Tb1536 2.387 1_556 S
O1581 C1592 1.264 . S
O1582 Tb1547 2.349 1_556 S
O1582 C1592 1.243 . S
O1583 Tb1536 2.428 . S
O1583 C1600 1.256 . S
O1584 Tb1536 2.308 . S
O1584 C1599 1.266 . S
O1585 Tb1547 2.393 . S
O1585 C1599 1.248 . S
O1586 Tb1547 2.465 . S
O1586 C1611 1.264 . S
O1587 Tb1547 2.387 . S
O1587 C1603 1.264 . S
O1588 Tb1536 2.349 . S
O1588 C1603 1.243 . S
O1589 Tb1547 2.428 . S
O1589 C1611 1.256 . S
O1590 Tb1547 2.308 . S
O1590 C1610 1.266 . S
O1591 Tb1536 2.393 . S
O1591 C1610 1.248 . S
C1592 O1581 1.264 . S
C1592 O1582 1.243 . S
C1593 C1596 1.399 . S
C1593 C1598 1.383 . S
C1593 C1600 1.496 . S
C1594 C1595 1.399 . S
C1594 C1598 1.389 . S
C1595 C1594 1.399 . S
C1595 C1597 1.380 . S
C1595 H1612 0.929 . S
C1596 C1593 1.399 . S
C1596 C1597 1.392 . S
C1596 H1613 0.929 . S
C1597 C1595 1.380 . S
C1597 C1596 1.392 . S
C1597 H1614 0.929 . S
C1598 C1593 1.383 . S
C1598 C1594 1.389 . S
C1598 H1615 0.931 . S
C1599 O1584 1.266 . S
C1599 O1585 1.248 . S
C1600 Tb1536 2.802 . S
C1600 O1580 1.264 . S
C1600 O1583 1.256 . S
C1600 C1593 1.496 . S
C1601 C1568 1.448 . S
C1601 H1578 0.930 . S
C1601 C1602 1.328 . S
C1602 C1573 1.427 . S
C1602 H1579 0.929 . S
C1602 C1601 1.328 . S
C1603 O1587 1.264 . S
C1603 O1588 1.243 . S
C1604 C1607 1.399 . S
C1604 C1608 1.383 . S
C1604 C1611 1.496 1_556 S
C1605 C1606 1.399 . S
C1605 C1608 1.389 . S
C1606 C1605 1.399 . S
C1606 C1609 1.380 . S
C1606 H1616 0.929 . S
C1607 C1604 1.399 . S
C1607 C1609 1.392 . S
C1607 H1617 0.929 . S
C1608 C1604 1.383 . S
C1608 C1605 1.389 . S
C1608 H1618 0.931 . S
C1609 C1606 1.380 . S
C1609 C1607 1.392 . S
C1609 H1619 0.929 . S
C1610 O1590 1.266 . S
C1610 O1591 1.248 . S
C1611 Tb1547 2.802 . S
C1611 O1586 1.264 . S
C1611 O1589 1.256 . S
C1611 C1604 1.496 1_554 S
H1612 C1595 0.929 . S
H1613 C1596 0.929 . S
H1614 C1597 0.929 . S
H1615 C1598 0.931 . S
H1616 C1606 0.929 . S
H1617 C1607 0.929 . S
H1618 C1608 0.931 . S
H1619 C1609 0.929 . S
Tb1620 N1649 2.617 . S
Tb1620 N1655 2.572 . S
Tb1620 O1664 2.465 . S
Tb1620 O1665 2.387 . S
Tb1620 O1667 2.428 . S
Tb1620 O1668 2.308 . S
Tb1620 O1672 2.349 . S
Tb1620 O1675 2.393 . S
Tb1620 C1684 2.802 . S
C1621 N1622 1.379 . S
C1621 C1624 1.416 . S
C1621 C1628 1.424 . S
N1622 C1621 1.379 . S
N1622 C1625 1.334 . S
N1622 Tb1631 2.617 . S
C1623 C1625 1.390 . S
C1623 C1626 1.339 . S
C1623 H1643 0.930 . S
C1624 C1621 1.416 . S
C1624 C1626 1.416 . S
C1624 C1630 1.448 . S
C1625 N1622 1.334 . S
C1625 C1623 1.390 . S
C1625 H1636 0.930 . S
C1626 C1623 1.339 . S
C1626 C1624 1.416 . S
C1626 H1647 0.930 . S
C1627 C1628 1.413 . S
C1627 C1629 1.427 . S
C1627 C1633 1.416 . S
C1628 C1621 1.424 . S
C1628 C1627 1.413 . S
C1628 N1632 1.361 . S
C1629 C1627 1.427 . S
C1629 C1630 1.328 . S
C1629 H1644 0.929 . S
C1630 C1624 1.448 . S
C1630 C1629 1.328 . S
C1630 H1645 0.930 . S
Tb1631 N1622 2.617 . S
Tb1631 N1632 2.572 . S
Tb1631 O1666 2.349 . S
Tb1631 O1669 2.393 . S
Tb1631 O1670 2.465 . S
Tb1631 O1671 2.387 . S
Tb1631 O1673 2.428 . S
Tb1631 O1674 2.308 . S
Tb1631 C1695 2.802 . S
N1632 C1628 1.361 . S
N1632 Tb1631 2.572 . S
N1632 C1634 1.340 . S
C1633 C1627 1.416 . S
C1633 C1635 1.332 . S
C1633 H1641 0.931 . S
C1634 N1632 1.340 . S
C1634 C1635 1.407 . S
C1634 H1640 0.930 . S
C1635 C1633 1.332 . S
C1635 C1634 1.407 . S
C1635 H1637 0.929 . S
H1636 C1625 0.930 . S
H1637 C1635 0.929 . S
H1638 C1653 0.930 . S
H1639 C1660 0.929 . S
H1640 C1634 0.930 . S
H1641 C1633 0.931 . S
H1642 C1656 0.930 . S
H1643 C1623 0.930 . S
H1644 C1629 0.929 . S
H1645 C1630 0.930 . S
H1646 C1651 0.930 . S
H1647 C1626 0.930 . S
H1648 C1659 0.931 . S
N1649 Tb1620 2.617 . S
N1649 C1650 1.379 . S
N1649 C1653 1.334 . S
C1650 N1649 1.379 . S
C1650 C1652 1.416 . S
C1650 C1658 1.424 . S
C1651 H1646 0.930 . S
C1651 C1653 1.390 . S
C1651 C1654 1.339 . S
C1652 C1650 1.416 . S
C1652 C1654 1.416 . S
C1652 C1685 1.448 . S
C1653 H1638 0.930 . S
C1653 N1649 1.334 . S
C1653 C1651 1.390 . S
C1654 C1651 1.339 . S
C1654 C1652 1.416 . S
C1654 H1661 0.930 . S
N1655 Tb1620 2.572 . S
N1655 C1656 1.340 . S
N1655 C1658 1.361 . S
C1656 H1642 0.930 . S
C1656 N1655 1.340 . S
C1656 C1660 1.407 . S
C1657 C1658 1.413 . S
C1657 C1659 1.416 . S
C1657 C1686 1.427 . S
C1658 C1650 1.424 . S
C1658 N1655 1.361 . S
C1658 C1657 1.413 . S
C1659 H1648 0.931 . S
C1659 C1657 1.416 . S
C1659 C1660 1.332 . S
C1660 H1639 0.929 . S
C1660 C1656 1.407 . S
C1660 C1659 1.332 . S
H1661 C1654 0.930 . S
H1662 C1685 0.930 . S
H1663 C1686 0.929 . S
O1664 Tb1620 2.465 . S
O1664 C1684 1.264 . S
O1665 Tb1620 2.387 . S
O1665 C1676 1.264 . S
O1666 Tb1631 2.349 . S
O1666 C1676 1.243 . S
O1667 Tb1620 2.428 . S
O1667 C1684 1.256 . S
O1668 Tb1620 2.308 . S
O1668 C1683 1.266 . S
O1669 Tb1631 2.393 . S
O1669 C1683 1.248 . S
O1670 Tb1631 2.465 . S
O1670 C1695 1.264 . S
O1671 Tb1631 2.387 . S
O1671 C1687 1.264 . S
O1672 Tb1620 2.349 . S
O1672 C1687 1.243 . S
O1673 Tb1631 2.428 . S
O1673 C1695 1.256 . S
O1674 Tb1631 2.308 . S
O1674 C1694 1.266 . S
O1675 Tb1620 2.393 . S
O1675 C1694 1.248 . S
C1676 O1665 1.264 . S
C1676 O1666 1.243 . S
C1677 C1680 1.399 . S
C1677 C1682 1.383 . S
C1677 C1684 1.496 . S
C1678 C1679 1.399 . S
C1678 C1682 1.389 . S
C1679 C1678 1.399 . S
C1679 C1681 1.380 . S
C1679 H1696 0.929 . S
C1680 C1677 1.399 . S
C1680 C1681 1.392 . S
C1680 H1697 0.929 . S
C1681 C1679 1.380 . S
C1681 C1680 1.392 . S
C1681 H1698 0.929 . S
C1682 C1677 1.383 . S
C1682 C1678 1.389 . S
C1682 H1699 0.931 . S
C1683 O1668 1.266 . S
C1683 O1669 1.248 . S
C1684 Tb1620 2.802 . S
C1684 O1664 1.264 . S
C1684 O1667 1.256 . S
C1684 C1677 1.496 . S
C1685 C1652 1.448 . S
C1685 H1662 0.930 . S
C1685 C1686 1.328 . S
C1686 C1657 1.427 . S
C1686 H1663 0.929 . S
C1686 C1685 1.328 . S
C1687 O1671 1.264 . S
C1687 O1672 1.243 . S
C1688 C1691 1.399 . S
C1688 C1692 1.383 . S
C1688 C1695 1.496 . S
C1689 C1690 1.399 . S
C1689 C1692 1.389 . S
C1690 C1689 1.399 . S
C1690 C1693 1.380 . S
C1690 H1700 0.929 . S
C1691 C1688 1.399 . S
C1691 C1693 1.392 . S
C1691 H1701 0.929 . S
C1692 C1688 1.383 . S
C1692 C1689 1.389 . S
C1692 H1702 0.931 . S
C1693 C1690 1.380 . S
C1693 C1691 1.392 . S
C1693 H1703 0.929 . S
C1694 O1674 1.266 . S
C1694 O1675 1.248 . S
C1695 Tb1631 2.802 . S
C1695 O1670 1.264 . S
C1695 O1673 1.256 . S
C1695 C1688 1.496 . S
H1696 C1679 0.929 . S
H1697 C1680 0.929 . S
H1698 C1681 0.929 . S
H1699 C1682 0.931 . S
H1700 C1690 0.929 . S
H1701 C1691 0.929 . S
H1702 C1692 0.931 . S
H1703 C1693 0.929 . S
Tb1704 N1733 2.621 1_455 S
Tb1704 N1739 2.572 1_455 S
Tb1704 O1748 2.465 . S
Tb1704 O1749 2.387 1_455 S
Tb1704 O1751 2.428 . S
Tb1704 O1752 2.308 . S
Tb1704 O1756 2.349 . S
Tb1704 O1759 2.393 . S
Tb1704 C1768 2.802 . S
C1705 N1706 1.379 . S
C1705 C1708 1.416 . S
C1705 C1712 1.424 . S
N1706 C1705 1.379 . S
N1706 C1709 1.334 . S
N1706 Tb1715 2.617 . S
C1707 C1709 1.390 . S
C1707 C1710 1.339 . S
C1707 H1727 0.930 . S
C1708 C1705 1.416 . S
C1708 C1710 1.416 . S
C1708 C1714 1.448 . S
C1709 N1706 1.334 . S
C1709 C1707 1.390 . S
C1709 H1720 0.930 . S
C1710 C1707 1.339 . S
C1710 C1708 1.416 . S
C1710 H1731 0.930 . S
C1711 C1712 1.413 . S
C1711 C1713 1.427 . S
C1711 C1717 1.416 . S
C1712 C1705 1.424 . S
C1712 C1711 1.413 . S
C1712 N1716 1.361 . S
C1713 C1711 1.427 . S
C1713 C1714 1.328 . S
C1713 H1728 0.929 . S
C1714 C1708 1.448 . S
C1714 C1713 1.328 . S
C1714 H1729 0.930 . S
Tb1715 N1706 2.617 . S
Tb1715 N1716 2.572 . S
Tb1715 O1750 2.349 1_455 S
Tb1715 O1753 2.393 . S
Tb1715 O1754 2.465 . S
Tb1715 O1755 2.387 . S
Tb1715 O1757 2.428 . S
Tb1715 O1758 2.308 . S
Tb1715 C1779 2.802 . S
N1716 C1712 1.361 . S
N1716 Tb1715 2.572 . S
N1716 C1718 1.340 . S
C1717 C1711 1.416 . S
C1717 C1719 1.332 . S
C1717 H1725 0.931 . S
C1718 N1716 1.340 . S
C1718 C1719 1.407 . S
C1718 H1724 0.930 . S
C1719 C1717 1.332 . S
C1719 C1718 1.407 . S
C1719 H1721 0.929 . S
H1720 C1709 0.930 . S
H1721 C1719 0.929 . S
H1722 C1737 0.930 . S
H1723 C1744 0.929 . S
H1724 C1718 0.930 . S
H1725 C1717 0.931 . S
H1726 C1740 0.930 1_455 S
H1727 C1707 0.930 . S
H1728 C1713 0.929 . S
H1729 C1714 0.930 . S
H1730 C1735 0.930 . S
H1731 C1710 0.930 . S
H1732 C1743 0.931 . S
N1733 Tb1704 2.621 1_655 S
N1733 C1734 1.376 . S
N1733 C1737 1.334 1_655 S
C1734 N1733 1.376 . S
C1734 C1736 1.416 . S
C1734 C1742 1.424 . S
C1735 H1730 0.930 . S
C1735 C1737 1.390 1_655 S
C1735 C1738 1.339 . S
C1736 C1734 1.416 . S
C1736 C1738 1.416 . S
C1736 C1769 1.448 . S
C1737 H1722 0.930 . S
C1737 N1733 1.334 1_455 S
C1737 C1735 1.390 1_455 S
C1738 C1735 1.339 . S
C1738 C1736 1.416 . S
C1738 H1745 0.930 . S
N1739 Tb1704 2.572 1_655 S
N1739 C1740 1.340 . S
N1739 C1742 1.361 . S
C1740 H1726 0.930 1_655 S
C1740 N1739 1.340 . S
C1740 C1744 1.407 . S
C1741 C1742 1.413 . S
C1741 C1743 1.416 . S
C1741 C1770 1.427 . S
C1742 C1734 1.424 . S
C1742 N1739 1.361 . S
C1742 C1741 1.413 . S
C1743 H1732 0.931 . S
C1743 C1741 1.416 . S
C1743 C1744 1.332 . S
C1744 H1723 0.929 . S
C1744 C1740 1.407 . S
C1744 C1743 1.332 . S
H1745 C1738 0.930 . S
H1746 C1769 0.930 . S
H1747 C1770 0.929 . S
O1748 Tb1704 2.465 . S
O1748 C1768 1.264 . S
O1749 Tb1704 2.387 1_655 S
O1749 C1760 1.264 . S
O1750 Tb1715 2.349 1_655 S
O1750 C1760 1.243 . S
O1751 Tb1704 2.428 . S
O1751 C1768 1.256 . S
O1752 Tb1704 2.308 . S
O1752 C1767 1.266 . S
O1753 Tb1715 2.393 . S
O1753 C1767 1.248 . S
O1754 Tb1715 2.465 . S
O1754 C1779 1.264 . S
O1755 Tb1715 2.387 . S
O1755 C1771 1.264 . S
O1756 Tb1704 2.349 . S
O1756 C1771 1.243 . S
O1757 Tb1715 2.428 . S
O1757 C1779 1.256 . S
O1758 Tb1715 2.308 . S
O1758 C1778 1.266 . S
O1759 Tb1704 2.393 . S
O1759 C1778 1.248 . S
C1760 O1749 1.264 . S
C1760 O1750 1.243 . S
C1761 C1764 1.399 . S
C1761 C1766 1.383 . S
C1761 C1768 1.496 . S
C1762 C1763 1.399 . S
C1762 C1766 1.389 . S
C1763 C1762 1.399 . S
C1763 C1765 1.380 . S
C1763 H1780 0.929 . S
C1764 C1761 1.399 . S
C1764 C1765 1.392 . S
C1764 H1781 0.929 . S
C1765 C1763 1.380 . S
C1765 C1764 1.392 . S
C1765 H1782 0.929 . S
C1766 C1761 1.383 . S
C1766 C1762 1.389 . S
C1766 H1783 0.931 . S
C1767 O1752 1.266 . S
C1767 O1753 1.248 . S
C1768 Tb1704 2.802 . S
C1768 O1748 1.264 . S
C1768 O1751 1.256 . S
C1768 C1761 1.496 . S
C1769 C1736 1.448 . S
C1769 H1746 0.930 . S
C1769 C1770 1.328 . S
C1770 C1741 1.427 . S
C1770 H1747 0.929 . S
C1770 C1769 1.328 . S
C1771 O1755 1.264 . S
C1771 O1756 1.243 . S
C1772 C1775 1.399 . S
C1772 C1776 1.383 . S
C1772 C1779 1.496 1_655 S
C1773 C1774 1.399 . S
C1773 C1776 1.389 . S
C1774 C1773 1.399 . S
C1774 C1777 1.380 . S
C1774 H1784 0.929 . S
C1775 C1772 1.399 . S
C1775 C1777 1.392 . S
C1775 H1785 0.929 . S
C1776 C1772 1.383 . S
C1776 C1773 1.389 . S
C1776 H1786 0.931 . S
C1777 C1774 1.380 . S
C1777 C1775 1.392 . S
C1777 H1787 0.929 . S
C1778 O1758 1.266 . S
C1778 O1759 1.248 . S
C1779 Tb1715 2.802 . S
C1779 O1754 1.264 . S
C1779 O1757 1.256 . S
C1779 C1772 1.496 1_455 S
H1780 C1763 0.929 . S
H1781 C1764 0.929 . S
H1782 C1765 0.929 . S
H1783 C1766 0.931 . S
H1784 C1774 0.929 . S
H1785 C1775 0.929 . S
H1786 C1776 0.931 . S
H1787 C1777 0.929 . S
Tb1788 N1817 2.617 . S
Tb1788 N1823 2.572 . S
Tb1788 O1832 2.465 . S
Tb1788 O1833 2.387 . S
Tb1788 O1835 2.428 . S
Tb1788 O1836 2.308 . S
Tb1788 O1840 2.349 . S
Tb1788 O1843 2.393 . S
Tb1788 C1852 2.802 . S
C1789 N1790 1.379 . S
C1789 C1792 1.416 . S
C1789 C1796 1.424 . S
N1790 C1789 1.379 . S
N1790 C1793 1.334 . S
N1790 Tb1799 2.617 . S
C1791 C1793 1.390 . S
C1791 C1794 1.339 . S
C1791 H1811 0.930 . S
C1792 C1789 1.416 . S
C1792 C1794 1.416 . S
C1792 C1798 1.448 . S
C1793 N1790 1.334 . S
C1793 C1791 1.390 . S
C1793 H1804 0.930 . S
C1794 C1791 1.339 . S
C1794 C1792 1.416 . S
C1794 H1815 0.930 . S
C1795 C1796 1.413 . S
C1795 C1797 1.427 . S
C1795 C1801 1.416 . S
C1796 C1789 1.424 . S
C1796 C1795 1.413 . S
C1796 N1800 1.361 . S
C1797 C1795 1.427 . S
C1797 C1798 1.328 . S
C1797 H1812 0.929 . S
C1798 C1792 1.448 . S
C1798 C1797 1.328 . S
C1798 H1813 0.930 . S
Tb1799 N1790 2.617 . S
Tb1799 N1800 2.572 . S
Tb1799 O1834 2.349 . S
Tb1799 O1837 2.393 . S
Tb1799 O1838 2.465 . S
Tb1799 O1839 2.387 . S
Tb1799 O1841 2.428 . S
Tb1799 O1842 2.308 . S
Tb1799 C1863 2.802 . S
N1800 C1796 1.361 . S
N1800 Tb1799 2.572 . S
N1800 C1802 1.340 . S
C1801 C1795 1.416 . S
C1801 C1803 1.332 . S
C1801 H1809 0.931 . S
C1802 N1800 1.340 . S
C1802 C1803 1.407 . S
C1802 H1808 0.930 . S
C1803 C1801 1.332 . S
C1803 C1802 1.407 . S
C1803 H1805 0.929 . S
H1804 C1793 0.930 . S
H1805 C1803 0.929 . S
H1806 C1821 0.930 . S
H1807 C1828 0.929 . S
H1808 C1802 0.930 . S
H1809 C1801 0.931 . S
H1810 C1824 0.930 . S
H1811 C1791 0.930 . S
H1812 C1797 0.929 . S
H1813 C1798 0.930 . S
H1814 C1819 0.930 . S
H1815 C1794 0.930 . S
H1816 C1827 0.931 . S
N1817 Tb1788 2.617 . S
N1817 C1818 1.379 . S
N1817 C1821 1.334 . S
C1818 N1817 1.379 . S
C1818 C1820 1.416 . S
C1818 C1826 1.424 . S
C1819 H1814 0.930 . S
C1819 C1821 1.390 . S
C1819 C1822 1.339 . S
C1820 C1818 1.416 . S
C1820 C1822 1.416 . S
C1820 C1853 1.448 . S
C1821 H1806 0.930 . S
C1821 N1817 1.334 . S
C1821 C1819 1.390 . S
C1822 C1819 1.339 . S
C1822 C1820 1.416 . S
C1822 H1829 0.930 . S
N1823 Tb1788 2.572 . S
N1823 C1824 1.340 . S
N1823 C1826 1.361 . S
C1824 H1810 0.930 . S
C1824 N1823 1.340 . S
C1824 C1828 1.407 . S
C1825 C1826 1.413 . S
C1825 C1827 1.416 . S
C1825 C1854 1.427 . S
C1826 C1818 1.424 . S
C1826 N1823 1.361 . S
C1826 C1825 1.413 . S
C1827 H1816 0.931 . S
C1827 C1825 1.416 . S
C1827 C1828 1.332 . S
C1828 H1807 0.929 . S
C1828 C1824 1.407 . S
C1828 C1827 1.332 . S
H1829 C1822 0.930 . S
H1830 C1853 0.930 . S
H1831 C1854 0.929 . S
O1832 Tb1788 2.465 . S
O1832 C1852 1.264 . S
O1833 Tb1788 2.387 . S
O1833 C1844 1.264 . S
O1834 Tb1799 2.349 . S
O1834 C1844 1.243 . S
O1835 Tb1788 2.428 . S
O1835 C1852 1.256 . S
O1836 Tb1788 2.308 . S
O1836 C1851 1.266 . S
O1837 Tb1799 2.393 . S
O1837 C1851 1.248 . S
O1838 Tb1799 2.465 . S
O1838 C1863 1.264 . S
O1839 Tb1799 2.387 . S
O1839 C1855 1.264 . S
O1840 Tb1788 2.349 . S
O1840 C1855 1.243 . S
O1841 Tb1799 2.428 . S
O1841 C1863 1.256 . S
O1842 Tb1799 2.308 . S
O1842 C1862 1.266 . S
O1843 Tb1788 2.393 . S
O1843 C1862 1.248 . S
C1844 O1833 1.264 . S
C1844 O1834 1.243 . S
C1845 C1848 1.399 . S
C1845 C1850 1.383 . S
C1845 C1852 1.496 . S
C1846 C1847 1.399 . S
C1846 C1850 1.389 . S
C1847 C1846 1.399 . S
C1847 C1849 1.380 . S
C1847 H1864 0.929 . S
C1848 C1845 1.399 . S
C1848 C1849 1.392 . S
C1848 H1865 0.929 . S
C1849 C1847 1.380 . S
C1849 C1848 1.392 . S
C1849 H1866 0.929 . S
C1850 C1845 1.383 . S
C1850 C1846 1.389 . S
C1850 H1867 0.931 . S
C1851 O1836 1.266 . S
C1851 O1837 1.248 . S
C1852 Tb1788 2.802 . S
C1852 O1832 1.264 . S
C1852 O1835 1.256 . S
C1852 C1845 1.496 . S
C1853 C1820 1.448 . S
C1853 H1830 0.930 . S
C1853 C1854 1.328 . S
C1854 C1825 1.427 . S
C1854 H1831 0.929 . S
C1854 C1853 1.328 . S
C1855 O1839 1.264 . S
C1855 O1840 1.243 . S
C1856 C1859 1.399 . S
C1856 C1860 1.383 . S
C1856 C1863 1.496 . S
C1857 C1858 1.399 . S
C1857 C1860 1.389 . S
C1858 C1857 1.399 . S
C1858 C1861 1.380 . S
C1858 H1868 0.929 . S
C1859 C1856 1.399 . S
C1859 C1861 1.392 . S
C1859 H1869 0.929 . S
C1860 C1856 1.383 . S
C1860 C1857 1.389 . S
C1860 H1870 0.931 . S
C1861 C1858 1.380 . S
C1861 C1859 1.392 . S
C1861 H1871 0.929 . S
C1862 O1842 1.266 . S
C1862 O1843 1.248 . S
C1863 Tb1799 2.802 . S
C1863 O1838 1.264 . S
C1863 O1841 1.256 . S
C1863 C1856 1.496 . S
H1864 C1847 0.929 . S
H1865 C1848 0.929 . S
H1866 C1849 0.929 . S
H1867 C1850 0.931 . S
H1868 C1858 0.929 . S
H1869 C1859 0.929 . S
H1870 C1860 0.931 . S
H1871 C1861 0.929 . S
Tb1872 N1901 2.617 . S
Tb1872 N1907 2.572 . S
Tb1872 O1916 2.465 . S
Tb1872 O1917 2.387 . S
Tb1872 O1919 2.428 . S
Tb1872 O1920 2.308 . S
Tb1872 O1924 2.349 . S
Tb1872 O1927 2.393 . S
Tb1872 C1936 2.802 . S
C1873 N1874 1.379 . S
C1873 C1876 1.416 . S
C1873 C1880 1.424 . S
N1874 C1873 1.379 . S
N1874 C1877 1.334 . S
N1874 Tb1883 2.617 . S
C1875 C1877 1.390 . S
C1875 C1878 1.339 . S
C1875 H1895 0.930 . S
C1876 C1873 1.416 . S
C1876 C1878 1.416 . S
C1876 C1882 1.448 . S
C1877 N1874 1.334 . S
C1877 C1875 1.390 . S
C1877 H1888 0.930 . S
C1878 C1875 1.339 . S
C1878 C1876 1.416 . S
C1878 H1899 0.930 . S
C1879 C1880 1.413 . S
C1879 C1881 1.427 . S
C1879 C1885 1.416 . S
C1880 C1873 1.424 . S
C1880 C1879 1.413 . S
C1880 N1884 1.361 . S
C1881 C1879 1.427 . S
C1881 C1882 1.328 . S
C1881 H1896 0.929 . S
C1882 C1876 1.448 . S
C1882 C1881 1.328 . S
C1882 H1897 0.930 . S
Tb1883 N1874 2.617 . S
Tb1883 N1884 2.572 . S
Tb1883 O1918 2.349 . S
Tb1883 O1921 2.393 . S
Tb1883 O1922 2.465 . S
Tb1883 O1923 2.387 . S
Tb1883 O1925 2.428 . S
Tb1883 O1926 2.308 . S
Tb1883 C1947 2.802 . S
N1884 C1880 1.361 . S
N1884 Tb1883 2.572 . S
N1884 C1886 1.340 . S
C1885 C1879 1.416 . S
C1885 C1887 1.332 . S
C1885 H1893 0.931 . S
C1886 N1884 1.340 . S
C1886 C1887 1.407 . S
C1886 H1892 0.930 . S
C1887 C1885 1.332 . S
C1887 C1886 1.407 . S
C1887 H1889 0.929 . S
H1888 C1877 0.930 . S
H1889 C1887 0.929 . S
H1890 C1905 0.930 . S
H1891 C1912 0.929 . S
H1892 C1886 0.930 . S
H1893 C1885 0.931 . S
H1894 C1908 0.930 . S
H1895 C1875 0.930 . S
H1896 C1881 0.929 . S
H1897 C1882 0.930 . S
H1898 C1903 0.930 . S
H1899 C1878 0.930 . S
H1900 C1911 0.931 . S
N1901 Tb1872 2.617 . S
N1901 C1902 1.379 . S
N1901 C1905 1.334 . S
C1902 N1901 1.379 . S
C1902 C1904 1.416 . S
C1902 C1910 1.424 . S
C1903 H1898 0.930 . S
C1903 C1905 1.390 . S
C1903 C1906 1.339 . S
C1904 C1902 1.416 . S
C1904 C1906 1.416 . S
C1904 C1937 1.448 . S
C1905 H1890 0.930 . S
C1905 N1901 1.334 . S
C1905 C1903 1.390 . S
C1906 C1903 1.339 . S
C1906 C1904 1.416 . S
C1906 H1913 0.930 . S
N1907 Tb1872 2.572 . S
N1907 C1908 1.340 . S
N1907 C1910 1.361 . S
C1908 H1894 0.930 . S
C1908 N1907 1.340 . S
C1908 C1912 1.407 . S
C1909 C1910 1.413 . S
C1909 C1911 1.416 . S
C1909 C1938 1.427 . S
C1910 C1902 1.424 . S
C1910 N1907 1.361 . S
C1910 C1909 1.413 . S
C1911 H1900 0.931 . S
C1911 C1909 1.416 . S
C1911 C1912 1.332 . S
C1912 H1891 0.929 . S
C1912 C1908 1.407 . S
C1912 C1911 1.332 . S
H1913 C1906 0.930 . S
H1914 C1937 0.930 . S
H1915 C1938 0.929 . S
O1916 Tb1872 2.465 . S
O1916 C1936 1.264 . S
O1917 Tb1872 2.387 . S
O1917 C1928 1.264 . S
O1918 Tb1883 2.349 . S
O1918 C1928 1.243 . S
O1919 Tb1872 2.428 . S
O1919 C1936 1.256 . S
O1920 Tb1872 2.308 . S
O1920 C1935 1.266 . S
O1921 Tb1883 2.393 . S
O1921 C1935 1.248 . S
O1922 Tb1883 2.465 . S
O1922 C1947 1.264 . S
O1923 Tb1883 2.387 . S
O1923 C1939 1.264 . S
O1924 Tb1872 2.349 . S
O1924 C1939 1.243 . S
O1925 Tb1883 2.428 . S
O1925 C1947 1.256 . S
O1926 Tb1883 2.308 . S
O1926 C1946 1.266 . S
O1927 Tb1872 2.393 . S
O1927 C1946 1.248 . S
C1928 O1917 1.264 . S
C1928 O1918 1.243 . S
C1929 C1932 1.399 . S
C1929 C1934 1.383 . S
C1929 C1936 1.496 . S
C1930 C1931 1.399 . S
C1930 C1934 1.389 . S
C1931 C1930 1.399 . S
C1931 C1933 1.380 . S
C1931 H1948 0.929 . S
C1932 C1929 1.399 . S
C1932 C1933 1.392 . S
C1932 H1949 0.929 . S
C1933 C1931 1.380 . S
C1933 C1932 1.392 . S
C1933 H1950 0.929 . S
C1934 C1929 1.383 . S
C1934 C1930 1.389 . S
C1934 H1951 0.931 . S
C1935 O1920 1.266 . S
C1935 O1921 1.248 . S
C1936 Tb1872 2.802 . S
C1936 O1916 1.264 . S
C1936 O1919 1.256 . S
C1936 C1929 1.496 . S
C1937 C1904 1.448 . S
C1937 H1914 0.930 . S
C1937 C1938 1.328 . S
C1938 C1909 1.427 . S
C1938 H1915 0.929 . S
C1938 C1937 1.328 . S
C1939 O1923 1.264 . S
C1939 O1924 1.243 . S
C1940 C1943 1.399 . S
C1940 C1944 1.383 . S
C1940 C1947 1.496 . S
C1941 C1942 1.399 . S
C1941 C1944 1.389 . S
C1942 C1941 1.399 . S
C1942 C1945 1.380 . S
C1942 H1952 0.929 . S
C1943 C1940 1.399 . S
C1943 C1945 1.392 . S
C1943 H1953 0.929 . S
C1944 C1940 1.383 . S
C1944 C1941 1.389 . S
C1944 H1954 0.931 . S
C1945 C1942 1.380 . S
C1945 C1943 1.392 . S
C1945 H1955 0.929 . S
C1946 O1926 1.266 . S
C1946 O1927 1.248 . S
C1947 Tb1883 2.802 . S
C1947 O1922 1.264 . S
C1947 O1925 1.256 . S
C1947 C1940 1.496 . S
H1948 C1931 0.929 . S
H1949 C1932 0.929 . S
H1950 C1933 0.929 . S
H1951 C1934 0.931 . S
H1952 C1942 0.929 . S
H1953 C1943 0.929 . S
H1954 C1944 0.931 . S
H1955 C1945 0.929 . S
Tb1956 N1985 2.617 . S
Tb1956 N1991 2.572 . S
Tb1956 O2000 2.465 . S
Tb1956 O2001 2.387 . S
Tb1956 O2003 2.428 . S
Tb1956 O2004 2.308 . S
Tb1956 O2008 2.349 . S
Tb1956 O2011 2.393 . S
Tb1956 C2020 2.802 . S
C1957 N1958 1.379 . S
C1957 C1960 1.416 . S
C1957 C1964 1.424 . S
N1958 C1957 1.379 . S
N1958 C1961 1.334 . S
N1958 Tb1967 2.617 . S
C1959 C1961 1.390 . S
C1959 C1962 1.339 . S
C1959 H1979 0.930 . S
C1960 C1957 1.416 . S
C1960 C1962 1.416 . S
C1960 C1966 1.448 . S
C1961 N1958 1.334 . S
C1961 C1959 1.390 . S
C1961 H1972 0.930 . S
C1962 C1959 1.339 . S
C1962 C1960 1.416 . S
C1962 H1983 0.930 . S
C1963 C1964 1.413 . S
C1963 C1965 1.427 . S
C1963 C1969 1.416 . S
C1964 C1957 1.424 . S
C1964 C1963 1.413 . S
C1964 N1968 1.361 . S
C1965 C1963 1.427 . S
C1965 C1966 1.328 . S
C1965 H1980 0.929 . S
C1966 C1960 1.448 . S
C1966 C1965 1.328 . S
C1966 H1981 0.930 . S
Tb1967 N1958 2.617 . S
Tb1967 N1968 2.572 . S
Tb1967 O2002 2.349 . S
Tb1967 O2005 2.393 . S
Tb1967 O2006 2.465 . S
Tb1967 O2007 2.387 . S
Tb1967 O2009 2.428 . S
Tb1967 O2010 2.308 . S
Tb1967 C2031 2.802 . S
N1968 C1964 1.361 . S
N1968 Tb1967 2.572 . S
N1968 C1970 1.340 . S
C1969 C1963 1.416 . S
C1969 C1971 1.332 . S
C1969 H1977 0.931 . S
C1970 N1968 1.340 . S
C1970 C1971 1.407 . S
C1970 H1976 0.930 . S
C1971 C1969 1.332 . S
C1971 C1970 1.407 . S
C1971 H1973 0.929 . S
H1972 C1961 0.930 . S
H1973 C1971 0.929 . S
H1974 C1989 0.930 . S
H1975 C1996 0.929 . S
H1976 C1970 0.930 . S
H1977 C1969 0.931 . S
H1978 C1992 0.930 . S
H1979 C1959 0.930 . S
H1980 C1965 0.929 . S
H1981 C1966 0.930 . S
H1982 C1987 0.930 . S
H1983 C1962 0.930 . S
H1984 C1995 0.931 . S
N1985 Tb1956 2.617 . S
N1985 C1986 1.379 . S
N1985 C1989 1.334 . S
C1986 N1985 1.379 . S
C1986 C1988 1.416 . S
C1986 C1994 1.424 . S
C1987 H1982 0.930 . S
C1987 C1989 1.390 . S
C1987 C1990 1.339 . S
C1988 C1986 1.416 . S
C1988 C1990 1.416 . S
C1988 C2021 1.448 . S
C1989 H1974 0.930 . S
C1989 N1985 1.334 . S
C1989 C1987 1.390 . S
C1990 C1987 1.339 . S
C1990 C1988 1.416 . S
C1990 H1997 0.930 . S
N1991 Tb1956 2.572 . S
N1991 C1992 1.340 . S
N1991 C1994 1.361 . S
C1992 H1978 0.930 . S
C1992 N1991 1.340 . S
C1992 C1996 1.407 . S
C1993 C1994 1.413 . S
C1993 C1995 1.416 . S
C1993 C2022 1.427 . S
C1994 C1986 1.424 . S
C1994 N1991 1.361 . S
C1994 C1993 1.413 . S
C1995 H1984 0.931 . S
C1995 C1993 1.416 . S
C1995 C1996 1.332 . S
C1996 H1975 0.929 . S
C1996 C1992 1.407 . S
C1996 C1995 1.332 . S
H1997 C1990 0.930 . S
H1998 C2021 0.930 . S
H1999 C2022 0.929 . S
O2000 Tb1956 2.465 . S
O2000 C2020 1.264 . S
O2001 Tb1956 2.387 . S
O2001 C2012 1.264 . S
O2002 Tb1967 2.349 . S
O2002 C2012 1.243 . S
O2003 Tb1956 2.428 . S
O2003 C2020 1.256 . S
O2004 Tb1956 2.308 . S
O2004 C2019 1.266 . S
O2005 Tb1967 2.393 . S
O2005 C2019 1.248 . S
O2006 Tb1967 2.465 . S
O2006 C2031 1.264 . S
O2007 Tb1967 2.387 . S
O2007 C2023 1.264 . S
O2008 Tb1956 2.349 . S
O2008 C2023 1.243 . S
O2009 Tb1967 2.428 . S
O2009 C2031 1.256 . S
O2010 Tb1967 2.308 . S
O2010 C2030 1.266 . S
O2011 Tb1956 2.393 . S
O2011 C2030 1.248 . S
C2012 O2001 1.264 . S
C2012 O2002 1.243 . S
C2013 C2016 1.399 . S
C2013 C2018 1.383 . S
C2013 C2020 1.496 . S
C2014 C2015 1.399 . S
C2014 C2018 1.389 . S
C2015 C2014 1.399 . S
C2015 C2017 1.380 . S
C2015 H2032 0.929 . S
C2016 C2013 1.399 . S
C2016 C2017 1.392 . S
C2016 H2033 0.929 . S
C2017 C2015 1.380 . S
C2017 C2016 1.392 . S
C2017 H2034 0.929 . S
C2018 C2013 1.383 . S
C2018 C2014 1.389 . S
C2018 H2035 0.931 . S
C2019 O2004 1.266 . S
C2019 O2005 1.248 . S
C2020 Tb1956 2.802 . S
C2020 O2000 1.264 . S
C2020 O2003 1.256 . S
C2020 C2013 1.496 . S
C2021 C1988 1.448 . S
C2021 H1998 0.930 . S
C2021 C2022 1.328 . S
C2022 C1993 1.427 . S
C2022 H1999 0.929 . S
C2022 C2021 1.328 . S
C2023 O2007 1.264 . S
C2023 O2008 1.243 . S
C2024 C2027 1.399 . S
C2024 C2028 1.383 . S
C2024 C2031 1.496 . S
C2025 C2026 1.399 . S
C2025 C2028 1.389 . S
C2026 C2025 1.399 . S
C2026 C2029 1.380 . S
C2026 H2036 0.929 . S
C2027 C2024 1.399 . S
C2027 C2029 1.392 . S
C2027 H2037 0.929 . S
C2028 C2024 1.383 . S
C2028 C2025 1.389 . S
C2028 H2038 0.931 . S
C2029 C2026 1.380 . S
C2029 C2027 1.392 . S
C2029 H2039 0.929 . S
C2030 O2010 1.266 . S
C2030 O2011 1.248 . S
C2031 Tb1967 2.802 . S
C2031 O2006 1.264 . S
C2031 O2009 1.256 . S
C2031 C2024 1.496 . S
H2032 C2015 0.929 . S
H2033 C2016 0.929 . S
H2034 C2017 0.929 . S
H2035 C2018 0.931 . S
H2036 C2026 0.929 . S
H2037 C2027 0.929 . S
H2038 C2028 0.931 . S
H2039 C2029 0.929 . S
Tb2040 N2069 2.617 . S
Tb2040 N2075 2.572 . S
Tb2040 O2084 2.465 . S
Tb2040 O2085 2.387 . S
Tb2040 O2087 2.428 . S
Tb2040 O2088 2.308 . S
Tb2040 O2092 2.349 . S
Tb2040 O2095 2.393 . S
Tb2040 C2104 2.802 . S
C2041 N2042 1.379 . S
C2041 C2044 1.416 . S
C2041 C2048 1.424 . S
N2042 C2041 1.379 . S
N2042 C2045 1.334 . S
N2042 Tb2051 2.617 . S
C2043 C2045 1.390 . S
C2043 C2046 1.339 . S
C2043 H2063 0.930 . S
C2044 C2041 1.416 . S
C2044 C2046 1.416 . S
C2044 C2050 1.448 . S
C2045 N2042 1.334 . S
C2045 C2043 1.390 . S
C2045 H2056 0.930 . S
C2046 C2043 1.339 . S
C2046 C2044 1.416 . S
C2046 H2067 0.930 . S
C2047 C2048 1.413 . S
C2047 C2049 1.427 . S
C2047 C2053 1.416 . S
C2048 C2041 1.424 . S
C2048 C2047 1.413 . S
C2048 N2052 1.361 . S
C2049 C2047 1.427 . S
C2049 C2050 1.328 . S
C2049 H2064 0.929 . S
C2050 C2044 1.448 . S
C2050 C2049 1.328 . S
C2050 H2065 0.930 . S
Tb2051 N2042 2.617 . S
Tb2051 N2052 2.572 . S
Tb2051 O2086 2.349 . S
Tb2051 O2089 2.393 . S
Tb2051 O2090 2.465 . S
Tb2051 O2091 2.387 . S
Tb2051 O2093 2.428 . S
Tb2051 O2094 2.308 . S
Tb2051 C2115 2.802 . S
N2052 C2048 1.361 . S
N2052 Tb2051 2.572 . S
N2052 C2054 1.340 . S
C2053 C2047 1.416 . S
C2053 C2055 1.332 . S
C2053 H2061 0.931 . S
C2054 N2052 1.340 . S
C2054 C2055 1.407 . S
C2054 H2060 0.930 . S
C2055 C2053 1.332 . S
C2055 C2054 1.407 . S
C2055 H2057 0.929 . S
H2056 C2045 0.930 . S
H2057 C2055 0.929 . S
H2058 C2073 0.930 . S
H2059 C2080 0.929 . S
H2060 C2054 0.930 . S
H2061 C2053 0.931 . S
H2062 C2076 0.930 . S
H2063 C2043 0.930 . S
H2064 C2049 0.929 . S
H2065 C2050 0.930 . S
H2066 C2071 0.930 . S
H2067 C2046 0.930 . S
H2068 C2079 0.931 . S
N2069 Tb2040 2.617 . S
N2069 C2070 1.379 . S
N2069 C2073 1.334 . S
C2070 N2069 1.379 . S
C2070 C2072 1.416 . S
C2070 C2078 1.424 . S
C2071 H2066 0.930 . S
C2071 C2073 1.390 . S
C2071 C2074 1.339 . S
C2072 C2070 1.416 . S
C2072 C2074 1.416 . S
C2072 C2105 1.448 . S
C2073 H2058 0.930 . S
C2073 N2069 1.334 . S
C2073 C2071 1.390 . S
C2074 C2071 1.339 . S
C2074 C2072 1.416 . S
C2074 H2081 0.930 . S
N2075 Tb2040 2.572 . S
N2075 C2076 1.340 . S
N2075 C2078 1.361 . S
C2076 H2062 0.930 . S
C2076 N2075 1.340 . S
C2076 C2080 1.407 . S
C2077 C2078 1.413 . S
C2077 C2079 1.416 . S
C2077 C2106 1.427 . S
C2078 C2070 1.424 . S
C2078 N2075 1.361 . S
C2078 C2077 1.413 . S
C2079 H2068 0.931 . S
C2079 C2077 1.416 . S
C2079 C2080 1.332 . S
C2080 H2059 0.929 . S
C2080 C2076 1.407 . S
C2080 C2079 1.332 . S
H2081 C2074 0.930 . S
H2082 C2105 0.930 . S
H2083 C2106 0.929 . S
O2084 Tb2040 2.465 . S
O2084 C2104 1.264 . S
O2085 Tb2040 2.387 . S
O2085 C2096 1.264 . S
O2086 Tb2051 2.349 . S
O2086 C2096 1.243 . S
O2087 Tb2040 2.428 . S
O2087 C2104 1.256 . S
O2088 Tb2040 2.308 . S
O2088 C2103 1.266 . S
O2089 Tb2051 2.393 . S
O2089 C2103 1.248 . S
O2090 Tb2051 2.465 . S
O2090 C2115 1.264 . S
O2091 Tb2051 2.387 . S
O2091 C2107 1.264 . S
O2092 Tb2040 2.349 . S
O2092 C2107 1.243 . S
O2093 Tb2051 2.428 . S
O2093 C2115 1.256 . S
O2094 Tb2051 2.308 . S
O2094 C2114 1.266 . S
O2095 Tb2040 2.393 . S
O2095 C2114 1.248 . S
C2096 O2085 1.264 . S
C2096 O2086 1.243 . S
C2097 C2100 1.399 . S
C2097 C2102 1.383 . S
C2097 C2104 1.496 . S
C2098 C2099 1.399 . S
C2098 C2102 1.389 . S
C2099 C2098 1.399 . S
C2099 C2101 1.380 . S
C2099 H2116 0.929 . S
C2100 C2097 1.399 . S
C2100 C2101 1.392 . S
C2100 H2117 0.929 . S
C2101 C2099 1.380 . S
C2101 C2100 1.392 . S
C2101 H2118 0.929 . S
C2102 C2097 1.383 . S
C2102 C2098 1.389 . S
C2102 H2119 0.931 . S
C2103 O2088 1.266 . S
C2103 O2089 1.248 . S
C2104 Tb2040 2.802 . S
C2104 O2084 1.264 . S
C2104 O2087 1.256 . S
C2104 C2097 1.496 . S
C2105 C2072 1.448 . S
C2105 H2082 0.930 . S
C2105 C2106 1.328 . S
C2106 C2077 1.427 . S
C2106 H2083 0.929 . S
C2106 C2105 1.328 . S
C2107 O2091 1.264 . S
C2107 O2092 1.243 . S
C2108 C2111 1.399 . S
C2108 C2112 1.383 . S
C2108 C2115 1.496 . S
C2109 C2110 1.399 . S
C2109 C2112 1.389 . S
C2110 C2109 1.399 . S
C2110 C2113 1.380 . S
C2110 H2120 0.929 . S
C2111 C2108 1.399 . S
C2111 C2113 1.392 . S
C2111 H2121 0.929 . S
C2112 C2108 1.383 . S
C2112 C2109 1.389 . S
C2112 H2122 0.931 . S
C2113 C2110 1.380 . S
C2113 C2111 1.392 . S
C2113 H2123 0.929 . S
C2114 O2094 1.266 . S
C2114 O2095 1.248 . S
C2115 Tb2051 2.802 . S
C2115 O2090 1.264 . S
C2115 O2093 1.256 . S
C2115 C2108 1.496 . S
H2116 C2099 0.929 . S
H2117 C2100 0.929 . S
H2118 C2101 0.929 . S
H2119 C2102 0.931 . S
H2120 C2110 0.929 . S
H2121 C2111 0.929 . S
H2122 C2112 0.931 . S
H2123 C2113 0.929 . S
Tb2124 N2153 2.609 1_455 S
Tb2124 N2159 2.551 1_455 S
Tb2124 O2168 2.437 1_455 S
Tb2124 O2169 2.405 . S
Tb2124 O2171 2.404 1_455 S
Tb2124 O2172 2.315 . S
Tb2124 O2176 2.359 . S
Tb2124 O2179 2.416 . S
Tb2124 C2188 2.773 1_455 S
C2125 N2126 1.379 . S
C2125 C2128 1.416 . S
C2125 C2132 1.424 1_556 S
N2126 C2125 1.379 . S
N2126 C2129 1.334 . S
N2126 Tb2135 2.617 1_556 S
C2127 C2129 1.390 . S
C2127 C2130 1.339 . S
C2127 H2147 0.930 . S
C2128 C2125 1.416 . S
C2128 C2130 1.416 . S
C2128 C2134 1.448 . S
C2129 N2126 1.334 . S
C2129 C2127 1.390 . S
C2129 H2140 0.930 . S
C2130 C2127 1.339 . S
C2130 C2128 1.416 . S
C2130 H2151 0.930 . S
C2131 C2132 1.413 . S
C2131 C2133 1.427 . S
C2131 C2137 1.416 . S
C2132 C2125 1.424 1_554 S
C2132 C2131 1.413 . S
C2132 N2136 1.361 . S
C2133 C2131 1.427 . S
C2133 C2134 1.328 1_554 S
C2133 H2148 0.929 . S
C2134 C2128 1.448 . S
C2134 C2133 1.328 1_556 S
C2134 H2149 0.930 . S
Tb2135 N2126 2.617 1_554 S
Tb2135 N2136 2.572 . S
Tb2135 O2170 2.349 . S
Tb2135 O2173 2.393 1_554 S
Tb2135 O2174 2.465 . S
Tb2135 O2175 2.387 . S
Tb2135 O2177 2.428 1_554 S
Tb2135 O2178 2.308 . S
Tb2135 C2199 2.802 . S
N2136 C2132 1.361 . S
N2136 Tb2135 2.572 . S
N2136 C2138 1.340 . S
C2137 C2131 1.416 . S
C2137 C2139 1.332 . S
C2137 H2145 0.931 . S
C2138 N2136 1.340 . S
C2138 C2139 1.407 . S
C2138 H2144 0.930 . S
C2139 C2137 1.332 . S
C2139 C2138 1.407 . S
C2139 H2141 0.929 . S
H2140 C2129 0.930 . S
H2141 C2139 0.929 . S
H2142 C2157 0.930 1_455 S
H2143 C2164 0.965 . S
H2144 C2138 0.930 . S
H2145 C2137 0.931 . S
H2146 C2160 0.930 1_556 S
H2147 C2127 0.930 . S
H2148 C2133 0.929 . S
H2149 C2134 0.930 . S
H2150 C2155 0.940 . S
H2151 C2130 0.930 . S
H2152 C2163 0.931 . S
N2153 Tb2124 2.609 1_655 S
N2153 C2154 1.379 . S
N2153 C2157 1.334 . S
C2154 N2153 1.379 . S
C2154 C2156 1.416 . S
C2154 C2162 1.424 . S
C2155 H2150 0.940 . S
C2155 C2157 1.390 . S
C2155 C2158 1.339 . S
C2156 C2154 1.416 . S
C2156 C2158 1.416 . S
C2156 C2189 1.448 . S
C2157 H2142 0.930 1_655 S
C2157 N2153 1.334 . S
C2157 C2155 1.390 . S
C2158 C2155 1.339 . S
C2158 C2156 1.416 . S
C2158 H2165 0.930 . S
N2159 Tb2124 2.551 1_655 S
N2159 C2160 1.340 . S
N2159 C2162 1.361 . S
C2160 H2146 0.930 1_554 S
C2160 N2159 1.340 . S
C2160 C2164 1.400 1_554 S
C2161 C2162 1.413 . S
C2161 C2163 1.416 . S
C2161 C2190 1.427 . S
C2162 C2154 1.424 . S
C2162 N2159 1.361 . S
C2162 C2161 1.413 . S
C2163 H2152 0.931 . S
C2163 C2161 1.416 . S
C2163 C2164 1.304 1_554 S
C2164 H2143 0.965 . S
C2164 C2160 1.400 1_556 S
C2164 C2163 1.304 1_556 S
H2165 C2158 0.930 . S
H2166 C2189 0.930 . S
H2167 C2190 0.929 . S
O2168 Tb2124 2.437 1_655 S
O2168 C2188 1.264 . S
O2169 Tb2124 2.405 . S
O2169 C2180 1.264 . S
O2170 Tb2135 2.349 . S
O2170 C2180 1.243 . S
O2171 Tb2124 2.404 1_655 S
O2171 C2188 1.256 . S
O2172 Tb2124 2.315 . S
O2172 C2187 1.266 1_554 S
O2173 Tb2135 2.393 1_556 S
O2173 C2187 1.248 . S
O2174 Tb2135 2.465 . S
O2174 C2199 1.264 . S
O2175 Tb2135 2.387 . S
O2175 C2191 1.264 . S
O2176 Tb2124 2.359 . S
O2176 C2191 1.243 . S
O2177 Tb2135 2.428 1_556 S
O2177 C2199 1.256 1_556 S
O2178 Tb2135 2.308 . S
O2178 C2198 1.266 . S
O2179 Tb2124 2.416 . S
O2179 C2198 1.248 . S
C2180 O2169 1.264 . S
C2180 O2170 1.243 . S
C2181 C2184 1.399 . S
C2181 C2186 1.383 . S
C2181 C2188 1.496 . S
C2182 C2183 1.399 . S
C2182 C2186 1.389 . S
C2183 C2182 1.399 . S
C2183 C2185 1.380 . S
C2183 H2200 0.929 . S
C2184 C2181 1.399 . S
C2184 C2185 1.392 . S
C2184 H2201 0.929 . S
C2185 C2183 1.380 . S
C2185 C2184 1.392 . S
C2185 H2202 0.929 . S
C2186 C2181 1.383 . S
C2186 C2182 1.389 . S
C2186 H2203 0.931 . S
C2187 O2172 1.266 1_556 S
C2187 O2173 1.248 . S
C2188 Tb2124 2.773 1_655 S
C2188 O2168 1.264 . S
C2188 O2171 1.256 . S
C2188 C2181 1.496 . S
C2189 C2156 1.448 . S
C2189 H2166 0.930 . S
C2189 C2190 1.328 . S
C2190 C2161 1.427 . S
C2190 H2167 0.929 . S
C2190 C2189 1.328 . S
C2191 O2175 1.264 . S
C2191 O2176 1.243 . S
C2192 C2195 1.399 . S
C2192 C2196 1.383 1_556 S
C2192 C2199 1.496 1_556 S
C2193 C2194 1.399 1_554 S
C2193 C2196 1.389 . S
C2194 C2193 1.399 1_556 S
C2194 C2197 1.380 . S
C2194 H2204 0.929 . S
C2195 C2192 1.399 . S
C2195 C2197 1.392 . S
C2195 H2205 0.929 . S
C2196 C2192 1.383 1_554 S
C2196 C2193 1.389 . S
C2196 H2206 0.931 . S
C2197 C2194 1.380 . S
C2197 C2195 1.392 . S
C2197 H2207 0.929 . S
C2198 O2178 1.266 . S
C2198 O2179 1.248 . S
C2199 Tb2135 2.802 . S
C2199 O2174 1.264 . S
C2199 O2177 1.256 1_554 S
C2199 C2192 1.496 1_554 S
H2200 C2183 0.929 . S
H2201 C2184 0.929 . S
H2202 C2185 0.929 . S
H2203 C2186 0.931 . S
H2204 C2194 0.929 . S
H2205 C2195 0.929 . S
H2206 C2196 0.931 . S
H2207 C2197 0.929 . S
H2208 C2216 0.950 1_554 S
H2209 C2221 0.950 . S
H2210 C2218 0.950 . S
H2211 C2220 0.950 . S
H2212 C2222 0.950 . S
H2213 C2224 0.950 1_655 S
H2214 C2226 0.950 . S
H2215 C2227 0.950 . S
C2216 H2208 0.950 1_556 S
C2216 C2217 1.386 1_455 S
C2216 C2218 1.391 1_556 S
C2217 C2216 1.386 1_655 S
C2217 C2221 1.393 . S
C2218 H2210 0.950 . S
C2218 C2216 1.391 1_554 S
C2218 C2219 1.400 1_554 S
C2219 C2218 1.400 1_556 S
C2219 C2220 1.398 1_455 S
C2219 C2225 1.491 . S
C2220 H2211 0.950 . S
C2220 C2219 1.398 1_655 S
C2220 C2221 1.391 . S
C2221 H2209 0.950 . S
C2221 C2217 1.393 . S
C2221 C2220 1.391 . S
C2222 H2212 0.950 . S
C2222 C2223 1.386 1_556 S
C2222 C2224 1.391 . S
C2223 C2222 1.386 1_554 S
C2223 C2227 1.393 . S
C2224 H2213 0.950 1_455 S
C2224 C2222 1.391 . S
C2224 C2225 1.400 . S
C2225 C2219 1.491 . S
C2225 C2224 1.400 . S
C2225 C2226 1.398 1_556 S
C2226 H2214 0.950 . S
C2226 C2225 1.398 1_554 S
C2226 C2227 1.391 . S
C2227 H2215 0.950 . S
C2227 C2223 1.393 . S
C2227 C2226 1.391 . S
H2228 C2236 0.950 . S
H2229 C2241 0.950 . S
H2230 C2238 0.950 . S
H2231 C2240 0.950 . S
H2232 C2242 0.950 . S
H2233 C2244 0.950 . S
H2234 C2246 0.950 . S
H2235 C2247 0.950 . S
C2236 H2228 0.950 . S
C2236 C2237 1.386 . S
C2236 C2238 1.391 . S
C2237 C2236 1.386 . S
C2237 C2241 1.393 . S
C2238 H2230 0.950 . S
C2238 C2236 1.391 . S
C2238 C2239 1.400 . S
C2239 C2238 1.400 . S
C2239 C2240 1.398 . S
C2239 C2245 1.491 . S
C2240 H2231 0.950 . S
C2240 C2239 1.398 . S
C2240 C2241 1.391 . S
C2241 H2229 0.950 . S
C2241 C2237 1.393 . S
C2241 C2240 1.391 . S
C2242 H2232 0.950 . S
C2242 C2243 1.386 . S
C2242 C2244 1.391 . S
C2243 C2242 1.386 . S
C2243 C2247 1.393 . S
C2244 H2233 0.950 . S
C2244 C2242 1.391 . S
C2244 C2245 1.400 . S
C2245 C2239 1.491 . S
C2245 C2244 1.400 . S
C2245 C2246 1.398 . S
C2246 H2234 0.950 . S
C2246 C2245 1.398 . S
C2246 C2247 1.391 . S
C2247 H2235 0.950 . S
C2247 C2243 1.393 . S
C2247 C2246 1.391 . S
H2248 C2256 0.950 . S
H2249 C2261 0.950 . S
H2250 C2258 0.950 . S
H2251 C2260 0.950 . S
H2252 C2262 0.950 . S
H2253 C2264 0.950 . S
H2254 C2266 0.950 . S
H2255 C2267 0.950 . S
C2256 H2248 0.950 . S
C2256 C2257 1.386 . S
C2256 C2258 1.391 . S
C2257 C2256 1.386 . S
C2257 C2261 1.393 . S
C2258 H2250 0.950 . S
C2258 C2256 1.391 . S
C2258 C2259 1.400 . S
C2259 C2258 1.400 . S
C2259 C2260 1.398 . S
C2259 C2265 1.491 . S
C2260 H2251 0.950 . S
C2260 C2259 1.398 . S
C2260 C2261 1.391 . S
C2261 H2249 0.950 . S
C2261 C2257 1.393 . S
C2261 C2260 1.391 . S
C2262 H2252 0.950 . S
C2262 C2263 1.386 . S
C2262 C2264 1.391 . S
C2263 C2262 1.386 . S
C2263 C2267 1.393 . S
C2264 H2253 0.950 . S
C2264 C2262 1.391 . S
C2264 C2265 1.400 . S
C2265 C2259 1.491 . S
C2265 C2264 1.400 . S
C2265 C2266 1.398 . S
C2266 H2254 0.950 . S
C2266 C2265 1.398 . S
C2266 C2267 1.391 . S
C2267 H2255 0.950 . S
C2267 C2263 1.393 . S
C2267 C2266 1.391 . S
H2268 C2276 0.950 . S
H2269 C2281 0.950 . S
H2270 C2278 0.950 . S
H2271 C2280 0.950 . S
H2272 C2282 0.950 . S
H2273 C2284 0.950 . S
H2274 C2286 0.950 . S
H2275 C2287 0.950 . S
C2276 H2268 0.950 . S
C2276 C2277 1.386 . S
C2276 C2278 1.391 . S
C2277 C2276 1.386 . S
C2277 C2281 1.393 . S
C2278 H2270 0.950 . S
C2278 C2276 1.391 . S
C2278 C2279 1.400 . S
C2279 C2278 1.400 . S
C2279 C2280 1.398 . S
C2279 C2285 1.491 . S
C2280 H2271 0.950 . S
C2280 C2279 1.398 . S
C2280 C2281 1.391 . S
C2281 H2269 0.950 . S
C2281 C2277 1.393 . S
C2281 C2280 1.391 . S
C2282 H2272 0.950 . S
C2282 C2283 1.386 . S
C2282 C2284 1.391 . S
C2283 C2282 1.386 . S
C2283 C2287 1.393 . S
C2284 H2273 0.950 . S
C2284 C2282 1.391 . S
C2284 C2285 1.400 . S
C2285 C2279 1.491 . S
C2285 C2284 1.400 . S
C2285 C2286 1.398 . S
C2286 H2274 0.950 . S
C2286 C2285 1.398 . S
C2286 C2287 1.391 . S
C2287 H2275 0.950 . S
C2287 C2283 1.393 . S
C2287 C2286 1.391 . S
H2288 C2296 0.950 1_655 S
H2289 C2301 0.950 . S
H2290 C2298 0.950 1_655 S
H2291 C2300 0.950 . S
H2292 C2302 0.950 . S
H2293 C2304 0.950 . S
H2294 C2306 0.950 1_655 S
H2295 C2307 0.909 1_655 S
C2296 H2288 0.950 1_455 S
C2296 C2297 1.386 . S
C2296 C2298 1.391 . S
C2297 C2296 1.386 . S
C2297 C2301 1.393 . S
C2298 H2290 0.950 1_455 S
C2298 C2296 1.391 . S
C2298 C2299 1.400 . S
C2299 C2298 1.400 . S
C2299 C2300 1.398 . S
C2299 C2305 1.491 . S
C2300 H2291 0.950 . S
C2300 C2299 1.398 . S
C2300 C2301 1.391 . S
C2301 H2289 0.950 . S
C2301 C2297 1.393 . S
C2301 C2300 1.391 . S
C2302 H2292 0.950 . S
C2302 C2303 1.386 . S
C2302 C2304 1.391 . S
C2303 C2302 1.386 . S
C2303 C2307 1.393 . S
C2304 H2293 0.950 . S
C2304 C2302 1.391 . S
C2304 C2305 1.400 . S
C2305 C2299 1.491 . S
C2305 C2304 1.400 . S
C2305 C2306 1.398 . S
C2306 H2294 0.950 1_455 S
C2306 C2305 1.398 . S
C2306 C2307 1.391 . S
C2307 H2295 0.909 1_455 S
C2307 C2303 1.393 . S
C2307 C2306 1.391 . S
H2308 C2316 0.950 . S
H2309 C2321 0.950 . S
H2310 C2318 0.950 . S
H2311 C2320 0.950 . S
H2312 C2322 0.950 . S
H2313 C2324 0.950 . S
H2314 C2326 0.950 . S
H2315 C2327 0.950 . S
C2316 H2308 0.950 . S
C2316 C2317 1.386 . S
C2316 C2318 1.391 . S
C2317 C2316 1.386 . S
C2317 C2321 1.393 . S
C2318 H2310 0.950 . S
C2318 C2316 1.391 . S
C2318 C2319 1.400 . S
C2319 C2318 1.400 . S
C2319 C2320 1.398 . S
C2319 C2325 1.491 . S
C2320 H2311 0.950 . S
C2320 C2319 1.398 . S
C2320 C2321 1.391 . S
C2321 H2309 0.950 . S
C2321 C2317 1.393 . S
C2321 C2320 1.391 . S
C2322 H2312 0.950 . S
C2322 C2323 1.386 . S
C2322 C2324 1.391 . S
C2323 C2322 1.386 . S
C2323 C2327 1.393 . S
C2324 H2313 0.950 . S
C2324 C2322 1.391 . S
C2324 C2325 1.400 . S
C2325 C2319 1.491 . S
C2325 C2324 1.400 . S
C2325 C2326 1.398 . S
C2326 H2314 0.950 . S
C2326 C2325 1.398 . S
C2326 C2327 1.391 . S
C2327 H2315 0.950 . S
C2327 C2323 1.393 . S
C2327 C2326 1.391 . S
H2328 C2336 0.950 . S
H2329 C2341 0.950 . S
H2330 C2338 0.950 . S
H2331 C2340 0.950 . S
H2332 C2342 0.950 . S
H2333 C2344 0.950 . S
H2334 C2346 0.950 . S
H2335 C2347 0.950 . S
C2336 H2328 0.950 . S
C2336 C2337 1.386 . S
C2336 C2338 1.391 . S
C2337 C2336 1.386 . S
C2337 C2341 1.393 . S
C2338 H2330 0.950 . S
C2338 C2336 1.391 . S
C2338 C2339 1.400 . S
C2339 C2338 1.400 . S
C2339 C2340 1.398 . S
C2339 C2345 1.491 . S
C2340 H2331 0.950 . S
C2340 C2339 1.398 . S
C2340 C2341 1.391 . S
C2341 H2329 0.950 . S
C2341 C2337 1.393 . S
C2341 C2340 1.391 . S
C2342 H2332 0.950 . S
C2342 C2343 1.386 . S
C2342 C2344 1.391 . S
C2343 C2342 1.386 . S
C2343 C2347 1.393 . S
C2344 H2333 0.950 . S
C2344 C2342 1.391 . S
C2344 C2345 1.400 . S
C2345 C2339 1.491 . S
C2345 C2344 1.400 . S
C2345 C2346 1.398 . S
C2346 H2334 0.950 . S
C2346 C2345 1.398 . S
C2346 C2347 1.391 . S
C2347 H2335 0.950 . S
C2347 C2343 1.393 . S
C2347 C2346 1.391 . S
H2348 C2356 0.950 . S
H2349 C2361 0.950 . S
H2350 C2358 0.950 . S
H2351 C2360 0.950 . S
H2352 C2362 0.950 . S
H2353 C2364 0.950 . S
H2354 C2366 0.950 . S
H2355 C2367 0.950 . S
C2356 H2348 0.950 . S
C2356 C2357 1.386 . S
C2356 C2358 1.391 . S
C2357 C2356 1.386 . S
C2357 C2361 1.393 . S
C2358 H2350 0.950 . S
C2358 C2356 1.391 . S
C2358 C2359 1.400 . S
C2359 C2358 1.400 . S
C2359 C2360 1.398 . S
C2359 C2365 1.491 . S
C2360 H2351 0.950 . S
C2360 C2359 1.398 . S
C2360 C2361 1.391 . S
C2361 H2349 0.950 . S
C2361 C2357 1.393 . S
C2361 C2360 1.391 . S
C2362 H2352 0.950 . S
C2362 C2363 1.386 . S
C2362 C2364 1.391 . S
C2363 C2362 1.386 . S
C2363 C2367 1.393 . S
C2364 H2353 0.950 . S
C2364 C2362 1.391 . S
C2364 C2365 1.400 . S
C2365 C2359 1.491 . S
C2365 C2364 1.400 . S
C2365 C2366 1.398 . S
C2366 H2354 0.950 . S
C2366 C2365 1.398 . S
C2366 C2367 1.391 . S
C2367 H2355 0.950 . S
C2367 C2363 1.393 . S
C2367 C2366 1.391 . S
H2368 C2376 0.950 . S
H2369 C2381 0.950 . S
H2370 C2378 0.950 . S
H2371 C2380 0.950 . S
H2372 C2382 0.950 1_455 S
H2373 C2384 0.950 . S
H2374 C2386 0.950 1_565 S
H2375 C2387 0.950 1_465 S
C2376 H2368 0.950 . S
C2376 C2377 1.386 1_565 S
C2376 C2378 1.391 . S
C2377 C2376 1.386 1_545 S
C2377 C2381 1.393 . S
C2378 H2370 0.950 . S
C2378 C2376 1.391 . S
C2378 C2379 1.400 1_565 S
C2379 C2378 1.400 1_545 S
C2379 C2380 1.398 . S
C2379 C2385 1.491 . S
C2380 H2371 0.950 . S
C2380 C2379 1.398 . S
C2380 C2381 1.391 . S
C2381 H2369 0.950 . S
C2381 C2377 1.393 . S
C2381 C2380 1.391 . S
C2382 H2372 0.950 1_655 S
C2382 C2383 1.386 1_655 S
C2382 C2384 1.391 . S
C2383 C2382 1.386 1_455 S
C2383 C2387 1.393 1_455 S
C2384 H2373 0.950 . S
C2384 C2382 1.391 . S
C2384 C2385 1.400 . S
C2385 C2379 1.491 . S
C2385 C2384 1.400 . S
C2385 C2386 1.398 . S
C2386 H2374 0.950 1_545 S
C2386 C2385 1.398 . S
C2386 C2387 1.391 . S
C2387 H2375 0.950 1_645 S
C2387 C2383 1.393 1_655 S
C2387 C2386 1.391 . S
H2388 C2396 0.950 . S
H2389 C2401 0.950 . S
H2390 C2398 0.950 . S
H2391 C2400 0.950 . S
H2392 C2402 0.950 . S
H2393 C2404 0.950 . S
H2394 C2406 0.950 . S
H2395 C2407 0.950 . S
C2396 H2388 0.950 . S
C2396 C2397 1.386 . S
C2396 C2398 1.391 . S
C2397 C2396 1.386 . S
C2397 C2401 1.393 . S
C2398 H2390 0.950 . S
C2398 C2396 1.391 . S
C2398 C2399 1.400 . S
C2399 C2398 1.400 . S
C2399 C2400 1.398 . S
C2399 C2405 1.491 . S
C2400 H2391 0.950 . S
C2400 C2399 1.398 . S
C2400 C2401 1.391 . S
C2401 H2389 0.950 . S
C2401 C2397 1.393 . S
C2401 C2400 1.391 . S
C2402 H2392 0.950 . S
C2402 C2403 1.386 . S
C2402 C2404 1.391 . S
C2403 C2402 1.386 . S
C2403 C2407 1.393 . S
C2404 H2393 0.950 . S
C2404 C2402 1.391 . S
C2404 C2405 1.400 . S
C2405 C2399 1.491 . S
C2405 C2404 1.400 . S
C2405 C2406 1.398 . S
C2406 H2394 0.950 . S
C2406 C2405 1.398 . S
C2406 C2407 1.391 . S
C2407 H2395 0.950 . S
C2407 C2403 1.393 . S
C2407 C2406 1.391 . S
H2408 C2416 0.950 . S
H2409 C2421 0.950 . S
H2410 C2418 0.950 . S
H2411 C2420 0.950 . S
H2412 C2422 0.950 . S
H2413 C2424 0.950 . S
H2414 C2426 0.950 . S
H2415 C2427 0.950 . S
C2416 H2408 0.950 . S
C2416 C2417 1.386 . S
C2416 C2418 1.391 . S
C2417 C2416 1.386 . S
C2417 C2421 1.393 . S
C2418 H2410 0.950 . S
C2418 C2416 1.391 . S
C2418 C2419 1.400 . S
C2419 C2418 1.400 . S
C2419 C2420 1.398 . S
C2419 C2425 1.491 . S
C2420 H2411 0.950 . S
C2420 C2419 1.398 . S
C2420 C2421 1.391 . S
C2421 H2409 0.950 . S
C2421 C2417 1.393 . S
C2421 C2420 1.391 . S
C2422 H2412 0.950 . S
C2422 C2423 1.386 . S
C2422 C2424 1.391 . S
C2423 C2422 1.386 . S
C2423 C2427 1.393 . S
C2424 H2413 0.950 . S
C2424 C2422 1.391 . S
C2424 C2425 1.400 . S
C2425 C2419 1.491 . S
C2425 C2424 1.400 . S
C2425 C2426 1.398 . S
C2426 H2414 0.950 . S
C2426 C2425 1.398 . S
C2426 C2427 1.391 . S
C2427 H2415 0.950 . S
C2427 C2423 1.393 . S
C2427 C2426 1.391 . S
H2428 C2436 0.950 . S
H2429 C2441 0.950 . S
H2430 C2438 0.950 . S
H2431 C2440 0.950 . S
H2432 C2442 0.950 . S
H2433 C2444 0.950 . S
H2434 C2446 0.950 . S
H2435 C2447 0.950 . S
C2436 H2428 0.950 . S
C2436 C2437 1.386 . S
C2436 C2438 1.391 . S
C2437 C2436 1.386 . S
C2437 C2441 1.393 . S
C2438 H2430 0.950 . S
C2438 C2436 1.391 . S
C2438 C2439 1.400 . S
C2439 C2438 1.400 . S
C2439 C2440 1.398 . S
C2439 C2445 1.491 . S
C2440 H2431 0.950 . S
C2440 C2439 1.398 . S
C2440 C2441 1.391 . S
C2441 H2429 0.950 . S
C2441 C2437 1.393 . S
C2441 C2440 1.391 . S
C2442 H2432 0.950 . S
C2442 C2443 1.386 . S
C2442 C2444 1.391 . S
C2443 C2442 1.386 . S
C2443 C2447 1.393 . S
C2444 H2433 0.950 . S
C2444 C2442 1.391 . S
C2444 C2445 1.400 . S
C2445 C2439 1.491 . S
C2445 C2444 1.400 . S
C2445 C2446 1.398 . S
C2446 H2434 0.950 . S
C2446 C2445 1.398 . S
C2446 C2447 1.391 . S
C2447 H2435 0.950 . S
C2447 C2443 1.393 . S
C2447 C2446 1.391 . S
H2448 C2456 0.950 . S
H2449 C2461 0.950 . S
H2450 C2458 0.950 . S
H2451 C2460 0.950 1_455 S
H2452 C2462 0.950 . S
H2453 C2464 0.950 . S
H2454 C2466 0.950 . S
H2455 C2467 0.950 . S
C2456 H2448 0.950 . S
C2456 C2457 1.386 . S
C2456 C2458 1.391 . S
C2457 C2456 1.386 . S
C2457 C2461 1.393 . S
C2458 H2450 0.950 . S
C2458 C2456 1.391 . S
C2458 C2459 1.400 . S
C2459 C2458 1.400 . S
C2459 C2460 1.398 . S
C2459 C2465 1.491 . S
C2460 H2451 0.950 1_655 S
C2460 C2459 1.398 . S
C2460 C2461 1.391 . S
C2461 H2449 0.950 . S
C2461 C2457 1.393 . S
C2461 C2460 1.391 . S
C2462 H2452 0.950 . S
C2462 C2463 1.386 . S
C2462 C2464 1.391 . S
C2463 C2462 1.386 . S
C2463 C2467 1.393 1_455 S
C2464 H2453 0.950 . S
C2464 C2462 1.391 . S
C2464 C2465 1.400 1_455 S
C2465 C2459 1.491 . S
C2465 C2464 1.400 1_655 S
C2465 C2466 1.398 . S
C2466 H2454 0.950 . S
C2466 C2465 1.398 . S
C2466 C2467 1.391 . S
C2467 H2455 0.950 . S
C2467 C2463 1.393 1_655 S
C2467 C2466 1.391 . S
H2468 C2476 0.950 . S
H2469 C2481 0.950 . S
H2470 C2478 0.950 . S
H2471 C2480 0.950 . S
H2472 C2482 0.950 . S
H2473 C2484 0.950 . S
H2474 C2486 0.950 . S
H2475 C2487 0.950 . S
C2476 H2468 0.950 . S
C2476 C2477 1.386 . S
C2476 C2478 1.391 . S
C2477 C2476 1.386 . S
C2477 C2481 1.393 . S
C2478 H2470 0.950 . S
C2478 C2476 1.391 . S
C2478 C2479 1.400 . S
C2479 C2478 1.400 . S
C2479 C2480 1.398 . S
C2479 C2485 1.491 . S
C2480 H2471 0.950 . S
C2480 C2479 1.398 . S
C2480 C2481 1.391 . S
C2481 H2469 0.950 . S
C2481 C2477 1.393 . S
C2481 C2480 1.391 . S
C2482 H2472 0.950 . S
C2482 C2483 1.386 . S
C2482 C2484 1.391 . S
C2483 C2482 1.386 . S
C2483 C2487 1.393 . S
C2484 H2473 0.950 . S
C2484 C2482 1.391 . S
C2484 C2485 1.400 . S
C2485 C2479 1.491 . S
C2485 C2484 1.400 . S
C2485 C2486 1.398 . S
C2486 H2474 0.950 . S
C2486 C2485 1.398 . S
C2486 C2487 1.391 . S
C2487 H2475 0.950 . S
C2487 C2483 1.393 . S
C2487 C2486 1.391 . S
H2488 C2496 0.950 . S
H2489 C2501 0.950 . S
H2490 C2498 0.950 . S
H2491 C2500 0.950 . S
H2492 C2502 0.950 . S
H2493 C2504 0.950 . S
H2494 C2506 0.950 . S
H2495 C2507 0.950 . S
C2496 H2488 0.950 . S
C2496 C2497 1.386 . S
C2496 C2498 1.391 . S
C2497 C2496 1.386 . S
C2497 C2501 1.393 . S
C2498 H2490 0.950 . S
C2498 C2496 1.391 . S
C2498 C2499 1.400 . S
C2499 C2498 1.400 . S
C2499 C2500 1.398 . S
C2499 C2505 1.491 . S
C2500 H2491 0.950 . S
C2500 C2499 1.398 . S
C2500 C2501 1.391 . S
C2501 H2489 0.950 . S
C2501 C2497 1.393 . S
C2501 C2500 1.391 . S
C2502 H2492 0.950 . S
C2502 C2503 1.386 . S
C2502 C2504 1.391 . S
C2503 C2502 1.386 . S
C2503 C2507 1.393 . S
C2504 H2493 0.950 . S
C2504 C2502 1.391 . S
C2504 C2505 1.400 . S
C2505 C2499 1.491 . S
C2505 C2504 1.400 . S
C2505 C2506 1.398 . S
C2506 H2494 0.950 . S
C2506 C2505 1.398 . S
C2506 C2507 1.391 . S
C2507 H2495 0.950 . S
C2507 C2503 1.393 . S
C2507 C2506 1.391 . S
H2508 C2516 0.950 . S
H2509 C2521 0.950 . S
H2510 C2518 0.950 . S
H2511 C2520 0.950 . S
H2512 C2522 0.950 . S
H2513 C2524 0.950 . S
H2514 C2526 0.950 . S
H2515 C2527 0.950 . S
C2516 H2508 0.950 . S
C2516 C2517 1.386 . S
C2516 C2518 1.391 . S
C2517 C2516 1.386 . S
C2517 C2521 1.393 . S
C2518 H2510 0.950 . S
C2518 C2516 1.391 . S
C2518 C2519 1.400 . S
C2519 C2518 1.400 . S
C2519 C2520 1.398 . S
C2519 C2525 1.491 . S
C2520 H2511 0.950 . S
C2520 C2519 1.398 . S
C2520 C2521 1.391 . S
C2521 H2509 0.950 . S
C2521 C2517 1.393 . S
C2521 C2520 1.391 . S
C2522 H2512 0.950 . S
C2522 C2523 1.386 . S
C2522 C2524 1.391 . S
C2523 C2522 1.386 . S
C2523 C2527 1.393 . S
C2524 H2513 0.950 . S
C2524 C2522 1.391 . S
C2524 C2525 1.400 . S
C2525 C2519 1.491 . S
C2525 C2524 1.400 . S
C2525 C2526 1.398 . S
C2526 H2514 0.950 . S
C2526 C2525 1.398 . S
C2526 C2527 1.391 . S
C2527 H2515 0.950 . S
C2527 C2523 1.393 . S
C2527 C2526 1.391 . S
H2528 C2536 0.950 . S
H2529 C2541 0.950 . S
H2530 C2538 0.957 . S
H2531 C2540 0.950 . S
H2532 C2542 0.950 . S
H2533 C2544 0.950 . S
H2534 C2546 0.929 1_545 S
H2535 C2547 0.950 . S
C2536 H2528 0.950 . S
C2536 C2537 1.386 . S
C2536 C2538 1.398 . S
C2537 C2536 1.386 . S
C2537 C2541 1.393 1_556 S
C2538 H2530 0.957 . S
C2538 C2536 1.398 . S
C2538 C2539 1.386 1_556 S
C2539 C2538 1.386 1_554 S
C2539 C2540 1.398 . S
C2539 C2545 1.491 . S
C2540 H2531 0.950 . S
C2540 C2539 1.398 . S
C2540 C2541 1.391 . S
C2541 H2529 0.950 . S
C2541 C2537 1.393 1_554 S
C2541 C2540 1.391 . S
C2542 H2532 0.950 . S
C2542 C2543 1.386 . S
C2542 C2544 1.391 . S
C2543 C2542 1.386 . S
C2543 C2547 1.393 1_565 S
C2544 H2533 0.950 . S
C2544 C2542 1.391 . S
C2544 C2545 1.400 . S
C2545 C2539 1.491 . S
C2545 C2544 1.400 . S
C2545 C2546 1.443 . S
C2546 H2534 0.929 1_565 S
C2546 C2545 1.443 . S
C2546 C2547 1.368 1_565 S
C2547 H2535 0.950 . S
C2547 C2543 1.393 1_545 S
C2547 C2546 1.368 1_545 S
H2548 C2556 0.950 . S
H2549 C2561 0.950 . S
H2550 C2558 0.950 . S
H2551 C2560 0.950 . S
H2552 C2562 0.950 . S
H2553 C2564 0.950 . S
H2554 C2566 0.950 . S
H2555 C2567 0.950 . S
C2556 H2548 0.950 . S
C2556 C2557 1.386 . S
C2556 C2558 1.391 . S
C2557 C2556 1.386 . S
C2557 C2561 1.393 1_554 S
C2558 H2550 0.950 . S
C2558 C2556 1.391 . S
C2558 C2559 1.400 . S
C2559 C2558 1.400 . S
C2559 C2560 1.398 1_554 S
C2559 C2565 1.491 . S
C2560 H2551 0.950 . S
C2560 C2559 1.398 1_556 S
C2560 C2561 1.391 . S
C2561 H2549 0.950 . S
C2561 C2557 1.393 1_556 S
C2561 C2560 1.391 . S
C2562 H2552 0.950 . S
C2562 C2563 1.386 1_556 S
C2562 C2564 1.391 . S
C2563 C2562 1.386 1_554 S
C2563 C2567 1.393 . S
C2564 H2553 0.950 . S
C2564 C2562 1.391 . S
C2564 C2565 1.400 1_556 S
C2565 C2559 1.491 . S
C2565 C2564 1.400 1_554 S
C2565 C2566 1.398 . S
C2566 H2554 0.950 . S
C2566 C2565 1.398 . S
C2566 C2567 1.391 . S
C2567 H2555 0.950 . S
C2567 C2563 1.393 . S
C2567 C2566 1.391 . S
H2568 C2576 0.950 . S
H2569 C2581 0.950 . S
H2570 C2578 0.950 . S
H2571 C2580 0.950 . S
H2572 C2582 0.950 . S
H2573 C2584 0.950 . S
H2574 C2586 0.950 . S
H2575 C2587 0.950 . S
C2576 H2568 0.950 . S
C2576 C2577 1.386 . S
C2576 C2578 1.391 . S
C2577 C2576 1.386 . S
C2577 C2581 1.393 . S
C2578 H2570 0.950 . S
C2578 C2576 1.391 . S
C2578 C2579 1.400 . S
C2579 C2578 1.400 . S
C2579 C2580 1.398 . S
C2579 C2585 1.491 . S
C2580 H2571 0.950 . S
C2580 C2579 1.398 . S
C2580 C2581 1.391 . S
C2581 H2569 0.950 . S
C2581 C2577 1.393 . S
C2581 C2580 1.391 . S
C2582 H2572 0.950 . S
C2582 C2583 1.386 . S
C2582 C2584 1.391 . S
C2583 C2582 1.386 . S
C2583 C2587 1.393 . S
C2584 H2573 0.950 . S
C2584 C2582 1.391 . S
C2584 C2585 1.400 . S
C2585 C2579 1.491 . S
C2585 C2584 1.400 . S
C2585 C2586 1.398 . S
C2586 H2574 0.950 . S
C2586 C2585 1.398 . S
C2586 C2587 1.391 . S
C2587 H2575 0.950 . S
C2587 C2583 1.393 . S
C2587 C2586 1.391 . S
H2588 C2596 0.950 . S
H2589 C2601 0.950 . S
H2590 C2598 0.950 . S
H2591 C2600 0.950 . S
H2592 C2602 0.950 . S
H2593 C2604 0.950 . S
H2594 C2606 0.950 . S
H2595 C2607 0.950 . S
C2596 H2588 0.950 . S
C2596 C2597 1.386 . S
C2596 C2598 1.391 . S
C2597 C2596 1.386 . S
C2597 C2601 1.393 . S
C2598 H2590 0.950 . S
C2598 C2596 1.391 . S
C2598 C2599 1.400 . S
C2599 C2598 1.400 . S
C2599 C2600 1.398 . S
C2599 C2605 1.491 . S
C2600 H2591 0.950 . S
C2600 C2599 1.398 . S
C2600 C2601 1.391 . S
C2601 H2589 0.950 . S
C2601 C2597 1.393 . S
C2601 C2600 1.391 . S
C2602 H2592 0.950 . S
C2602 C2603 1.386 . S
C2602 C2604 1.391 . S
C2603 C2602 1.386 . S
C2603 C2607 1.393 . S
C2604 H2593 0.950 . S
C2604 C2602 1.391 . S
C2604 C2605 1.400 . S
C2605 C2599 1.491 . S
C2605 C2604 1.400 . S
C2605 C2606 1.398 . S
C2606 H2594 0.950 . S
C2606 C2605 1.398 . S
C2606 C2607 1.391 . S
C2607 H2595 0.950 . S
C2607 C2603 1.393 . S
C2607 C2606 1.391 . S
H2608 C2616 0.950 . S
H2609 C2621 0.950 . S
H2610 C2618 0.950 . S
H2611 C2620 0.950 . S
H2612 C2622 0.950 . S
H2613 C2624 0.950 . S
H2614 C2626 0.950 . S
H2615 C2627 0.950 . S
C2616 H2608 0.950 . S
C2616 C2617 1.386 . S
C2616 C2618 1.391 . S
C2617 C2616 1.386 . S
C2617 C2621 1.393 . S
C2618 H2610 0.950 . S
C2618 C2616 1.391 . S
C2618 C2619 1.400 . S
C2619 C2618 1.400 . S
C2619 C2620 1.398 . S
C2619 C2625 1.491 . S
C2620 H2611 0.950 . S
C2620 C2619 1.398 . S
C2620 C2621 1.391 . S
C2621 H2609 0.950 . S
C2621 C2617 1.393 . S
C2621 C2620 1.391 . S
C2622 H2612 0.950 . S
C2622 C2623 1.386 . S
C2622 C2624 1.391 . S
C2623 C2622 1.386 . S
C2623 C2627 1.393 . S
C2624 H2613 0.950 . S
C2624 C2622 1.391 . S
C2624 C2625 1.400 . S
C2625 C2619 1.491 . S
C2625 C2624 1.400 . S
C2625 C2626 1.398 . S
C2626 H2614 0.950 . S
C2626 C2625 1.398 . S
C2626 C2627 1.391 . S
C2627 H2615 0.950 . S
C2627 C2623 1.393 . S
C2627 C2626 1.391 . S
H2628 C2636 0.950 . S
H2629 C2641 0.950 . S
H2630 C2638 0.950 . S
H2631 C2640 0.950 . S
H2632 C2642 0.950 . S
H2633 C2644 0.950 . S
H2634 C2646 0.950 . S
H2635 C2647 0.950 . S
C2636 H2628 0.950 . S
C2636 C2637 1.386 . S
C2636 C2638 1.391 . S
C2637 C2636 1.386 . S
C2637 C2641 1.393 . S
C2638 H2630 0.950 . S
C2638 C2636 1.391 . S
C2638 C2639 1.400 . S
C2639 C2638 1.400 . S
C2639 C2640 1.398 . S
C2639 C2645 1.491 . S
C2640 H2631 0.950 . S
C2640 C2639 1.398 . S
C2640 C2641 1.391 . S
C2641 H2629 0.950 . S
C2641 C2637 1.393 . S
C2641 C2640 1.391 . S
C2642 H2632 0.950 . S
C2642 C2643 1.386 . S
C2642 C2644 1.391 . S
C2643 C2642 1.386 . S
C2643 C2647 1.393 . S
C2644 H2633 0.950 . S
C2644 C2642 1.391 . S
C2644 C2645 1.400 . S
C2645 C2639 1.491 . S
C2645 C2644 1.400 . S
C2645 C2646 1.398 . S
C2646 H2634 0.950 . S
C2646 C2645 1.398 . S
C2646 C2647 1.391 . S
C2647 H2635 0.950 . S
C2647 C2643 1.393 . S
C2647 C2646 1.391 . S
H2648 C2656 0.950 . S
H2649 C2661 0.950 . S
H2650 C2658 0.950 . S
H2651 C2660 0.950 . S
H2652 C2662 0.950 . S
H2653 C2664 0.950 . S
H2654 C2666 0.950 . S
H2655 C2667 0.950 . S
C2656 H2648 0.950 . S
C2656 C2657 1.386 . S
C2656 C2658 1.391 . S
C2657 C2656 1.386 . S
C2657 C2661 1.393 . S
C2658 H2650 0.950 . S
C2658 C2656 1.391 . S
C2658 C2659 1.400 . S
C2659 C2658 1.400 . S
C2659 C2660 1.398 . S
C2659 C2665 1.491 . S
C2660 H2651 0.950 . S
C2660 C2659 1.398 . S
C2660 C2661 1.391 . S
C2661 H2649 0.950 . S
C2661 C2657 1.393 . S
C2661 C2660 1.391 . S
C2662 H2652 0.950 . S
C2662 C2663 1.386 . S
C2662 C2664 1.391 . S
C2663 C2662 1.386 . S
C2663 C2667 1.393 . S
C2664 H2653 0.950 . S
C2664 C2662 1.391 . S
C2664 C2665 1.400 . S
C2665 C2659 1.491 . S
C2665 C2664 1.400 . S
C2665 C2666 1.398 . S
C2666 H2654 0.950 . S
C2666 C2665 1.398 . S
C2666 C2667 1.391 . S
C2667 H2655 0.950 . S
C2667 C2663 1.393 . S
C2667 C2666 1.391 . S
H2668 C2676 0.950 . S
H2669 C2681 0.950 . S
H2670 C2678 0.950 . S
H2671 C2680 0.950 . S
H2672 C2682 0.950 . S
H2673 C2684 0.950 . S
H2674 C2686 0.950 . S
H2675 C2687 0.950 . S
C2676 H2668 0.950 . S
C2676 C2677 1.386 . S
C2676 C2678 1.391 . S
C2677 C2676 1.386 . S
C2677 C2681 1.393 . S
C2678 H2670 0.950 . S
C2678 C2676 1.391 . S
C2678 C2679 1.400 . S
C2679 C2678 1.400 . S
C2679 C2680 1.398 . S
C2679 C2685 1.491 . S
C2680 H2671 0.950 . S
C2680 C2679 1.398 . S
C2680 C2681 1.391 . S
C2681 H2669 0.950 . S
C2681 C2677 1.393 . S
C2681 C2680 1.391 . S
C2682 H2672 0.950 . S
C2682 C2683 1.386 . S
C2682 C2684 1.391 . S
C2683 C2682 1.386 . S
C2683 C2687 1.393 . S
C2684 H2673 0.950 . S
C2684 C2682 1.391 . S
C2684 C2685 1.400 . S
C2685 C2679 1.491 . S
C2685 C2684 1.400 . S
C2685 C2686 1.398 . S
C2686 H2674 0.950 . S
C2686 C2685 1.398 . S
C2686 C2687 1.391 . S
C2687 H2675 0.950 . S
C2687 C2683 1.393 . S
C2687 C2686 1.391 . S
H2688 C2696 0.950 . S
H2689 C2701 0.950 . S
H2690 C2698 0.950 . S
H2691 C2700 0.950 . S
H2692 C2702 0.950 . S
H2693 C2704 0.950 . S
H2694 C2706 0.950 . S
H2695 C2707 0.950 . S
C2696 H2688 0.950 . S
C2696 C2697 1.386 . S
C2696 C2698 1.391 . S
C2697 C2696 1.386 . S
C2697 C2701 1.393 . S
C2698 H2690 0.950 . S
C2698 C2696 1.391 . S
C2698 C2699 1.400 . S
C2699 C2698 1.400 . S
C2699 C2700 1.398 . S
C2699 C2705 1.491 . S
C2700 H2691 0.950 . S
C2700 C2699 1.398 . S
C2700 C2701 1.391 . S
C2701 H2689 0.950 . S
C2701 C2697 1.393 . S
C2701 C2700 1.391 . S
C2702 H2692 0.950 . S
C2702 C2703 1.386 . S
C2702 C2704 1.391 . S
C2703 C2702 1.386 . S
C2703 C2707 1.393 . S
C2704 H2693 0.950 . S
C2704 C2702 1.391 . S
C2704 C2705 1.400 . S
C2705 C2699 1.491 . S
C2705 C2704 1.400 . S
C2705 C2706 1.398 . S
C2706 H2694 0.950 . S
C2706 C2705 1.398 . S
C2706 C2707 1.391 . S
C2707 H2695 0.950 . S
C2707 C2703 1.393 . S
C2707 C2706 1.391 . S
H2708 C2716 0.950 . S
H2709 C2721 0.950 . S
H2710 C2718 0.950 . S
H2711 C2720 0.950 . S
H2712 C2722 0.950 . S
H2713 C2724 0.950 . S
H2714 C2726 0.950 . S
H2715 C2727 0.950 . S
C2716 H2708 0.950 . S
C2716 C2717 1.386 . S
C2716 C2718 1.391 . S
C2717 C2716 1.386 . S
C2717 C2721 1.393 . S
C2718 H2710 0.950 . S
C2718 C2716 1.391 . S
C2718 C2719 1.400 . S
C2719 C2718 1.400 . S
C2719 C2720 1.398 . S
C2719 C2725 1.491 . S
C2720 H2711 0.950 . S
C2720 C2719 1.398 . S
C2720 C2721 1.391 . S
C2721 H2709 0.950 . S
C2721 C2717 1.393 . S
C2721 C2720 1.391 . S
C2722 H2712 0.950 . S
C2722 C2723 1.386 . S
C2722 C2724 1.391 . S
C2723 C2722 1.386 . S
C2723 C2727 1.393 . S
C2724 H2713 0.950 . S
C2724 C2722 1.391 . S
C2724 C2725 1.400 . S
C2725 C2719 1.491 . S
C2725 C2724 1.400 . S
C2725 C2726 1.398 . S
C2726 H2714 0.950 . S
C2726 C2725 1.398 . S
C2726 C2727 1.391 . S
C2727 H2715 0.950 . S
C2727 C2723 1.393 . S
C2727 C2726 1.391 . S
H2728 C2736 0.950 . S
H2729 C2741 0.950 . S
H2730 C2738 0.950 . S
H2731 C2740 0.950 . S
H2732 C2742 0.950 . S
H2733 C2744 0.950 . S
H2734 C2746 0.950 . S
H2735 C2747 0.950 . S
C2736 H2728 0.950 . S
C2736 C2737 1.386 . S
C2736 C2738 1.391 . S
C2737 C2736 1.386 . S
C2737 C2741 1.393 . S
C2738 H2730 0.950 . S
C2738 C2736 1.391 . S
C2738 C2739 1.400 . S
C2739 C2738 1.400 . S
C2739 C2740 1.398 . S
C2739 C2745 1.491 . S
C2740 H2731 0.950 . S
C2740 C2739 1.398 . S
C2740 C2741 1.391 . S
C2741 H2729 0.950 . S
C2741 C2737 1.393 . S
C2741 C2740 1.391 . S
C2742 H2732 0.950 . S
C2742 C2743 1.386 . S
C2742 C2744 1.391 . S
C2743 C2742 1.386 . S
C2743 C2747 1.393 . S
C2744 H2733 0.950 . S
C2744 C2742 1.391 . S
C2744 C2745 1.400 . S
C2745 C2739 1.491 . S
C2745 C2744 1.400 . S
C2745 C2746 1.398 . S
C2746 H2734 0.950 . S
C2746 C2745 1.398 . S
C2746 C2747 1.391 . S
C2747 H2735 0.950 . S
C2747 C2743 1.393 . S
C2747 C2746 1.391 . S
H2748 C2756 0.950 . S
H2749 C2761 0.950 . S
H2750 C2758 0.950 . S
H2751 C2760 0.950 . S
H2752 C2762 0.950 . S
H2753 C2764 0.950 . S
H2754 C2766 0.950 . S
H2755 C2767 0.950 . S
C2756 H2748 0.950 . S
C2756 C2757 1.386 . S
C2756 C2758 1.391 . S
C2757 C2756 1.386 . S
C2757 C2761 1.393 . S
C2758 H2750 0.950 . S
C2758 C2756 1.391 . S
C2758 C2759 1.400 . S
C2759 C2758 1.400 . S
C2759 C2760 1.398 . S
C2759 C2765 1.491 . S
C2760 H2751 0.950 . S
C2760 C2759 1.398 . S
C2760 C2761 1.391 . S
C2761 H2749 0.950 . S
C2761 C2757 1.393 . S
C2761 C2760 1.391 . S
C2762 H2752 0.950 . S
C2762 C2763 1.386 . S
C2762 C2764 1.391 . S
C2763 C2762 1.386 . S
C2763 C2767 1.393 . S
C2764 H2753 0.950 . S
C2764 C2762 1.391 . S
C2764 C2765 1.400 . S
C2765 C2759 1.491 . S
C2765 C2764 1.400 . S
C2765 C2766 1.398 . S
C2766 H2754 0.950 . S
C2766 C2765 1.398 . S
C2766 C2767 1.391 . S
C2767 H2755 0.950 . S
C2767 C2763 1.393 . S
C2767 C2766 1.391 . S
H2768 C2776 0.950 . S
H2769 C2781 0.950 . S
H2770 C2778 0.950 . S
H2771 C2780 0.950 . S
H2772 C2782 0.950 . S
H2773 C2784 0.950 . S
H2774 C2786 0.950 . S
H2775 C2787 0.950 . S
C2776 H2768 0.950 . S
C2776 C2777 1.386 . S
C2776 C2778 1.391 . S
C2777 C2776 1.386 . S
C2777 C2781 1.393 . S
C2778 H2770 0.950 . S
C2778 C2776 1.391 . S
C2778 C2779 1.400 . S
C2779 C2778 1.400 . S
C2779 C2780 1.398 . S
C2779 C2785 1.491 . S
C2780 H2771 0.950 . S
C2780 C2779 1.398 . S
C2780 C2781 1.391 . S
C2781 H2769 0.950 . S
C2781 C2777 1.393 . S
C2781 C2780 1.391 . S
C2782 H2772 0.950 . S
C2782 C2783 1.386 . S
C2782 C2784 1.391 . S
C2783 C2782 1.386 . S
C2783 C2787 1.393 . S
C2784 H2773 0.950 . S
C2784 C2782 1.391 . S
C2784 C2785 1.400 . S
C2785 C2779 1.491 . S
C2785 C2784 1.400 . S
C2785 C2786 1.398 . S
C2786 H2774 0.950 . S
C2786 C2785 1.398 . S
C2786 C2787 1.391 . S
C2787 H2775 0.950 . S
C2787 C2783 1.393 . S
C2787 C2786 1.391 . S
H2788 C2796 0.950 . S
H2789 C2801 0.950 . S
H2790 C2798 0.950 . S
H2791 C2800 0.950 . S
H2792 C2802 0.950 . S
H2793 C2804 0.950 . S
H2794 C2806 0.950 . S
H2795 C2807 0.950 . S
C2796 H2788 0.950 . S
C2796 C2797 1.386 . S
C2796 C2798 1.391 . S
C2797 C2796 1.386 . S
C2797 C2801 1.393 . S
C2798 H2790 0.950 . S
C2798 C2796 1.391 . S
C2798 C2799 1.400 . S
C2799 C2798 1.400 . S
C2799 C2800 1.398 . S
C2799 C2805 1.491 . S
C2800 H2791 0.950 . S
C2800 C2799 1.398 . S
C2800 C2801 1.391 . S
C2801 H2789 0.950 . S
C2801 C2797 1.393 . S
C2801 C2800 1.391 . S
C2802 H2792 0.950 . S
C2802 C2803 1.386 . S
C2802 C2804 1.391 . S
C2803 C2802 1.386 . S
C2803 C2807 1.393 . S
C2804 H2793 0.950 . S
C2804 C2802 1.391 . S
C2804 C2805 1.400 . S
C2805 C2799 1.491 . S
C2805 C2804 1.400 . S
C2805 C2806 1.398 . S
C2806 H2794 0.950 . S
C2806 C2805 1.398 . S
C2806 C2807 1.391 . S
C2807 H2795 0.950 . S
C2807 C2803 1.393 . S
C2807 C2806 1.391 . S
H2808 C2816 0.950 . S
H2809 C2821 0.950 . S
H2810 C2818 0.950 . S
H2811 C2820 0.950 . S
H2812 C2822 0.950 . S
H2813 C2824 0.950 . S
H2814 C2826 0.950 . S
H2815 C2827 0.950 . S
C2816 H2808 0.950 . S
C2816 C2817 1.386 . S
C2816 C2818 1.391 . S
C2817 C2816 1.386 . S
C2817 C2821 1.393 . S
C2818 H2810 0.950 . S
C2818 C2816 1.391 . S
C2818 C2819 1.400 . S
C2819 C2818 1.400 . S
C2819 C2820 1.398 . S
C2819 C2825 1.491 . S
C2820 H2811 0.950 . S
C2820 C2819 1.398 . S
C2820 C2821 1.391 . S
C2821 H2809 0.950 . S
C2821 C2817 1.393 . S
C2821 C2820 1.391 . S
C2822 H2812 0.950 . S
C2822 C2823 1.386 . S
C2822 C2824 1.391 . S
C2823 C2822 1.386 . S
C2823 C2827 1.393 . S
C2824 H2813 0.950 . S
C2824 C2822 1.391 . S
C2824 C2825 1.400 . S
C2825 C2819 1.491 . S
C2825 C2824 1.400 . S
C2825 C2826 1.398 . S
C2826 H2814 0.950 . S
C2826 C2825 1.398 . S
C2826 C2827 1.391 . S
C2827 H2815 0.950 . S
C2827 C2823 1.393 . S
C2827 C2826 1.391 . S
H2828 C2836 0.950 . S
H2829 C2841 0.950 . S
H2830 C2838 0.950 . S
H2831 C2840 0.950 . S
H2832 C2842 0.950 . S
H2833 C2844 0.950 . S
H2834 C2846 0.950 . S
H2835 C2847 0.950 . S
C2836 H2828 0.950 . S
C2836 C2837 1.386 . S
C2836 C2838 1.391 . S
C2837 C2836 1.386 . S
C2837 C2841 1.393 . S
C2838 H2830 0.950 . S
C2838 C2836 1.391 . S
C2838 C2839 1.400 . S
C2839 C2838 1.400 . S
C2839 C2840 1.398 . S
C2839 C2845 1.491 . S
C2840 H2831 0.950 . S
C2840 C2839 1.398 . S
C2840 C2841 1.391 . S
C2841 H2829 0.950 . S
C2841 C2837 1.393 . S
C2841 C2840 1.391 . S
C2842 H2832 0.950 . S
C2842 C2843 1.386 . S
C2842 C2844 1.391 . S
C2843 C2842 1.386 . S
C2843 C2847 1.393 . S
C2844 H2833 0.950 . S
C2844 C2842 1.391 . S
C2844 C2845 1.400 . S
C2845 C2839 1.491 . S
C2845 C2844 1.400 . S
C2845 C2846 1.398 . S
C2846 H2834 0.950 . S
C2846 C2845 1.398 . S
C2846 C2847 1.391 . S
C2847 H2835 0.950 . S
C2847 C2843 1.393 . S
C2847 C2846 1.391 . S
H2848 C2856 0.950 . S
H2849 C2861 0.950 . S
H2850 C2858 0.950 . S
H2851 C2860 0.950 . S
H2852 C2862 0.950 . S
H2853 C2864 0.950 . S
H2854 C2866 0.941 1_565 S
H2855 C2867 0.950 1_565 S
C2856 H2848 0.950 . S
C2856 C2857 1.386 . S
C2856 C2858 1.391 . S
C2857 C2856 1.386 . S
C2857 C2861 1.393 . S
C2858 H2850 0.950 . S
C2858 C2856 1.391 . S
C2858 C2859 1.400 . S
C2859 C2858 1.400 . S
C2859 C2860 1.398 . S
C2859 C2865 1.491 . S
C2860 H2851 0.950 . S
C2860 C2859 1.398 . S
C2860 C2861 1.391 . S
C2861 H2849 0.950 . S
C2861 C2857 1.393 . S
C2861 C2860 1.391 . S
C2862 H2852 0.950 . S
C2862 C2863 1.386 . S
C2862 C2864 1.391 . S
C2863 C2862 1.386 . S
C2863 C2867 1.393 . S
C2864 H2853 0.950 . S
C2864 C2862 1.391 . S
C2864 C2865 1.400 . S
C2865 C2859 1.491 . S
C2865 C2864 1.400 . S
C2865 C2866 1.398 . S
C2866 H2854 0.941 1_545 S
C2866 C2865 1.398 . S
C2866 C2867 1.391 . S
C2867 H2855 0.950 1_545 S
C2867 C2863 1.393 . S
C2867 C2866 1.391 . S
H2868 C2876 0.950 . S
H2869 C2881 0.950 . S
H2870 C2878 0.950 . S
H2871 C2880 0.950 . S
H2872 C2882 0.950 . S
H2873 C2884 0.950 . S
H2874 C2886 0.950 . S
H2875 C2887 0.950 . S
C2876 H2868 0.950 . S
C2876 C2877 1.386 . S
C2876 C2878 1.391 . S
C2877 C2876 1.386 . S
C2877 C2881 1.393 . S
C2878 H2870 0.950 . S
C2878 C2876 1.391 . S
C2878 C2879 1.400 . S
C2879 C2878 1.400 . S
C2879 C2880 1.398 . S
C2879 C2885 1.491 . S
C2880 H2871 0.950 . S
C2880 C2879 1.398 . S
C2880 C2881 1.391 . S
C2881 H2869 0.950 . S
C2881 C2877 1.393 . S
C2881 C2880 1.391 . S
C2882 H2872 0.950 . S
C2882 C2883 1.386 . S
C2882 C2884 1.391 . S
C2883 C2882 1.386 . S
C2883 C2887 1.393 . S
C2884 H2873 0.950 . S
C2884 C2882 1.391 . S
C2884 C2885 1.400 . S
C2885 C2879 1.491 . S
C2885 C2884 1.400 . S
C2885 C2886 1.398 . S
C2886 H2874 0.950 . S
C2886 C2885 1.398 . S
C2886 C2887 1.391 . S
C2887 H2875 0.950 . S
C2887 C2883 1.393 . S
C2887 C2886 1.391 . S
H2888 C2896 0.950 . S
H2889 C2901 0.950 . S
H2890 C2898 0.950 . S
H2891 C2900 0.950 . S
H2892 C2902 0.950 . S
H2893 C2904 0.950 . S
H2894 C2906 0.950 . S
H2895 C2907 0.950 . S
C2896 H2888 0.950 . S
C2896 C2897 1.386 . S
C2896 C2898 1.391 . S
C2897 C2896 1.386 . S
C2897 C2901 1.393 . S
C2898 H2890 0.950 . S
C2898 C2896 1.391 . S
C2898 C2899 1.400 . S
C2899 C2898 1.400 . S
C2899 C2900 1.398 . S
C2899 C2905 1.491 . S
C2900 H2891 0.950 . S
C2900 C2899 1.398 . S
C2900 C2901 1.391 . S
C2901 H2889 0.950 . S
C2901 C2897 1.393 . S
C2901 C2900 1.391 . S
C2902 H2892 0.950 . S
C2902 C2903 1.386 . S
C2902 C2904 1.391 . S
C2903 C2902 1.386 . S
C2903 C2907 1.393 . S
C2904 H2893 0.950 . S
C2904 C2902 1.391 . S
C2904 C2905 1.400 . S
C2905 C2899 1.491 . S
C2905 C2904 1.400 . S
C2905 C2906 1.398 . S
C2906 H2894 0.950 . S
C2906 C2905 1.398 . S
C2906 C2907 1.391 . S
C2907 H2895 0.950 . S
C2907 C2903 1.393 . S
C2907 C2906 1.391 . S
H2908 C2916 0.950 . S
H2909 C2921 0.950 . S
H2910 C2918 0.950 . S
H2911 C2920 0.950 . S
H2912 C2922 0.950 . S
H2913 C2924 0.950 . S
H2914 C2926 0.950 . S
H2915 C2927 0.950 . S
C2916 H2908 0.950 . S
C2916 C2917 1.386 . S
C2916 C2918 1.391 . S
C2917 C2916 1.386 . S
C2917 C2921 1.393 . S
C2918 H2910 0.950 . S
C2918 C2916 1.391 . S
C2918 C2919 1.400 . S
C2919 C2918 1.400 . S
C2919 C2920 1.398 . S
C2919 C2925 1.491 . S
C2920 H2911 0.950 . S
C2920 C2919 1.398 . S
C2920 C2921 1.391 . S
C2921 H2909 0.950 . S
C2921 C2917 1.393 . S
C2921 C2920 1.391 . S
C2922 H2912 0.950 . S
C2922 C2923 1.386 . S
C2922 C2924 1.391 . S
C2923 C2922 1.386 . S
C2923 C2927 1.393 . S
C2924 H2913 0.950 . S
C2924 C2922 1.391 . S
C2924 C2925 1.400 . S
C2925 C2919 1.491 . S
C2925 C2924 1.400 . S
C2925 C2926 1.398 . S
C2926 H2914 0.950 . S
C2926 C2925 1.398 . S
C2926 C2927 1.391 . S
C2927 H2915 0.950 . S
C2927 C2923 1.393 . S
C2927 C2926 1.391 . S
H2928 C2936 0.950 . S
H2929 C2941 0.950 . S
H2930 C2938 0.950 . S
H2931 C2940 0.950 . S
H2932 C2942 0.950 . S
H2933 C2944 0.950 . S
H2934 C2946 0.950 . S
H2935 C2947 0.950 . S
C2936 H2928 0.950 . S
C2936 C2937 1.386 . S
C2936 C2938 1.391 . S
C2937 C2936 1.386 . S
C2937 C2941 1.393 . S
C2938 H2930 0.950 . S
C2938 C2936 1.391 . S
C2938 C2939 1.400 . S
C2939 C2938 1.400 . S
C2939 C2940 1.398 . S
C2939 C2945 1.491 . S
C2940 H2931 0.950 . S
C2940 C2939 1.398 . S
C2940 C2941 1.391 . S
C2941 H2929 0.950 . S
C2941 C2937 1.393 . S
C2941 C2940 1.391 . S
C2942 H2932 0.950 . S
C2942 C2943 1.386 . S
C2942 C2944 1.391 . S
C2943 C2942 1.386 . S
C2943 C2947 1.393 . S
C2944 H2933 0.950 . S
C2944 C2942 1.391 . S
C2944 C2945 1.400 . S
C2945 C2939 1.491 . S
C2945 C2944 1.400 . S
C2945 C2946 1.398 . S
C2946 H2934 0.950 . S
C2946 C2945 1.398 . S
C2946 C2947 1.391 . S
C2947 H2935 0.950 . S
C2947 C2943 1.393 . S
C2947 C2946 1.391 . S
H2948 C2956 0.950 . S
H2949 C2961 0.950 . S
H2950 C2958 0.950 . S
H2951 C2960 0.950 . S
H2952 C2962 0.950 . S
H2953 C2964 0.950 . S
H2954 C2966 0.950 . S
H2955 C2967 0.950 . S
C2956 H2948 0.950 . S
C2956 C2957 1.386 . S
C2956 C2958 1.391 . S
C2957 C2956 1.386 . S
C2957 C2961 1.393 . S
C2958 H2950 0.950 . S
C2958 C2956 1.391 . S
C2958 C2959 1.400 . S
C2959 C2958 1.400 . S
C2959 C2960 1.398 . S
C2959 C2965 1.491 . S
C2960 H2951 0.950 . S
C2960 C2959 1.398 . S
C2960 C2961 1.391 . S
C2961 H2949 0.950 . S
C2961 C2957 1.393 . S
C2961 C2960 1.391 . S
C2962 H2952 0.950 . S
C2962 C2963 1.386 . S
C2962 C2964 1.391 . S
C2963 C2962 1.386 . S
C2963 C2967 1.393 . S
C2964 H2953 0.950 . S
C2964 C2962 1.391 . S
C2964 C2965 1.400 . S
C2965 C2959 1.491 . S
C2965 C2964 1.400 . S
C2965 C2966 1.398 . S
C2966 H2954 0.950 . S
C2966 C2965 1.398 . S
C2966 C2967 1.391 . S
C2967 H2955 0.950 . S
C2967 C2963 1.393 . S
C2967 C2966 1.391 . S
H2968 C2976 0.950 . S
H2969 C2981 0.950 . S
H2970 C2978 0.950 . S
H2971 C2980 0.950 . S
H2972 C2982 0.950 . S
H2973 C2984 0.950 . S
H2974 C2986 0.950 . S
H2975 C2987 0.950 . S
C2976 H2968 0.950 . S
C2976 C2977 1.386 1_565 S
C2976 C2978 1.391 . S
C2977 C2976 1.386 1_545 S
C2977 C2981 1.393 . S
C2978 H2970 0.950 . S
C2978 C2976 1.391 . S
C2978 C2979 1.400 1_565 S
C2979 C2978 1.400 1_545 S
C2979 C2980 1.398 . S
C2979 C2985 1.491 . S
C2980 H2971 0.950 . S
C2980 C2979 1.398 . S
C2980 C2981 1.391 . S
C2981 H2969 0.950 . S
C2981 C2977 1.393 . S
C2981 C2980 1.391 . S
C2982 H2972 0.950 . S
C2982 C2983 1.386 . S
C2982 C2984 1.391 . S
C2983 C2982 1.386 . S
C2983 C2987 1.393 1_545 S
C2984 H2973 0.950 . S
C2984 C2982 1.391 . S
C2984 C2985 1.400 . S
C2985 C2979 1.491 . S
C2985 C2984 1.400 . S
C2985 C2986 1.398 1_545 S
C2986 H2974 0.950 . S
C2986 C2985 1.398 1_565 S
C2986 C2987 1.391 . S
C2987 H2975 0.950 . S
C2987 C2983 1.393 1_565 S
C2987 C2986 1.391 . S
H2988 C2996 0.950 . S
H2989 C3001 0.950 . S
H2990 C2998 0.950 . S
H2991 C3000 0.950 . S
H2992 C3002 0.950 . S
H2993 C3004 0.950 . S
H2994 C3006 0.950 . S
H2995 C3007 0.950 . S
C2996 H2988 0.950 . S
C2996 C2997 1.386 . S
C2996 C2998 1.391 . S
C2997 C2996 1.386 . S
C2997 C3001 1.393 . S
C2998 H2990 0.950 . S
C2998 C2996 1.391 . S
C2998 C2999 1.400 . S
C2999 C2998 1.400 . S
C2999 C3000 1.398 . S
C2999 C3005 1.491 . S
C3000 H2991 0.950 . S
C3000 C2999 1.398 . S
C3000 C3001 1.391 . S
C3001 H2989 0.950 . S
C3001 C2997 1.393 . S
C3001 C3000 1.391 . S
C3002 H2992 0.950 . S
C3002 C3003 1.386 . S
C3002 C3004 1.391 . S
C3003 C3002 1.386 . S
C3003 C3007 1.393 . S
C3004 H2993 0.950 . S
C3004 C3002 1.391 . S
C3004 C3005 1.400 . S
C3005 C2999 1.491 . S
C3005 C3004 1.400 . S
C3005 C3006 1.398 . S
C3006 H2994 0.950 . S
C3006 C3005 1.398 . S
C3006 C3007 1.391 . S
C3007 H2995 0.950 . S
C3007 C3003 1.393 . S
C3007 C3006 1.391 . S
H3008 C3016 0.950 . S
H3009 C3021 0.950 . S
H3010 C3018 0.950 . S
H3011 C3020 0.950 . S
H3012 C3022 0.950 . S
H3013 C3024 0.950 . S
H3014 C3026 0.950 . S
H3015 C3027 0.950 1_556 S
C3016 H3008 0.950 . S
C3016 C3017 1.386 . S
C3016 C3018 1.391 . S
C3017 C3016 1.386 . S
C3017 C3021 1.393 . S
C3018 H3010 0.950 . S
C3018 C3016 1.391 . S
C3018 C3019 1.400 . S
C3019 C3018 1.400 . S
C3019 C3020 1.398 . S
C3019 C3025 1.491 . S
C3020 H3011 0.950 . S
C3020 C3019 1.398 . S
C3020 C3021 1.391 . S
C3021 H3009 0.950 . S
C3021 C3017 1.393 . S
C3021 C3020 1.391 . S
C3022 H3012 0.950 . S
C3022 C3023 1.386 . S
C3022 C3024 1.391 . S
C3023 C3022 1.386 . S
C3023 C3027 1.393 . S
C3024 H3013 0.950 . S
C3024 C3022 1.391 . S
C3024 C3025 1.400 . S
C3025 C3019 1.491 . S
C3025 C3024 1.400 . S
C3025 C3026 1.398 . S
C3026 H3014 0.950 . S
C3026 C3025 1.398 . S
C3026 C3027 1.391 . S
C3027 H3015 0.950 1_554 S
C3027 C3023 1.393 . S
C3027 C3026 1.391 . S
H3028 C3036 0.950 . S
H3029 C3041 0.950 . S
H3030 C3038 0.950 . S
H3031 C3040 0.950 . S
H3032 C3042 0.950 . S
H3033 C3044 0.950 . S
H3034 C3046 0.950 . S
H3035 C3047 0.950 . S
C3036 H3028 0.950 . S
C3036 C3037 1.386 . S
C3036 C3038 1.391 . S
C3037 C3036 1.386 . S
C3037 C3041 1.393 . S
C3038 H3030 0.950 . S
C3038 C3036 1.391 . S
C3038 C3039 1.400 . S
C3039 C3038 1.400 . S
C3039 C3040 1.398 . S
C3039 C3045 1.491 . S
C3040 H3031 0.950 . S
C3040 C3039 1.398 . S
C3040 C3041 1.391 . S
C3041 H3029 0.950 . S
C3041 C3037 1.393 . S
C3041 C3040 1.391 . S
C3042 H3032 0.950 . S
C3042 C3043 1.386 . S
C3042 C3044 1.391 . S
C3043 C3042 1.386 . S
C3043 C3047 1.393 . S
C3044 H3033 0.950 . S
C3044 C3042 1.391 . S
C3044 C3045 1.400 . S
C3045 C3039 1.491 . S
C3045 C3044 1.400 . S
C3045 C3046 1.398 . S
C3046 H3034 0.950 . S
C3046 C3045 1.398 . S
C3046 C3047 1.391 . S
C3047 H3035 0.950 . S
C3047 C3043 1.393 . S
C3047 C3046 1.391 . S
H3048 C3056 0.950 . S
H3049 C3061 0.950 . S
H3050 C3058 0.950 . S
H3051 C3060 0.950 . S
H3052 C3062 0.950 . S
H3053 C3064 0.950 . S
H3054 C3066 0.950 . S
H3055 C3067 0.950 . S
C3056 H3048 0.950 . S
C3056 C3057 1.386 . S
C3056 C3058 1.391 . S
C3057 C3056 1.386 . S
C3057 C3061 1.393 . S
C3058 H3050 0.950 . S
C3058 C3056 1.391 . S
C3058 C3059 1.400 . S
C3059 C3058 1.400 . S
C3059 C3060 1.398 . S
C3059 C3065 1.491 . S
C3060 H3051 0.950 . S
C3060 C3059 1.398 . S
C3060 C3061 1.391 . S
C3061 H3049 0.950 . S
C3061 C3057 1.393 . S
C3061 C3060 1.391 . S
C3062 H3052 0.950 . S
C3062 C3063 1.386 . S
C3062 C3064 1.391 . S
C3063 C3062 1.386 . S
C3063 C3067 1.393 . S
C3064 H3053 0.950 . S
C3064 C3062 1.391 . S
C3064 C3065 1.400 . S
C3065 C3059 1.491 . S
C3065 C3064 1.400 . S
C3065 C3066 1.398 . S
C3066 H3054 0.950 . S
C3066 C3065 1.398 . S
C3066 C3067 1.391 . S
C3067 H3055 0.950 . S
C3067 C3063 1.393 . S
C3067 C3066 1.391 . S
H3068 C3076 0.950 . S
H3069 C3081 0.950 . S
H3070 C3078 0.950 . S
H3071 C3080 0.950 . S
H3072 C3082 0.950 . S
H3073 C3084 0.950 . S
H3074 C3086 0.950 . S
H3075 C3087 0.950 . S
C3076 H3068 0.950 . S
C3076 C3077 1.386 . S
C3076 C3078 1.391 . S
C3077 C3076 1.386 . S
C3077 C3081 1.393 . S
C3078 H3070 0.950 . S
C3078 C3076 1.391 . S
C3078 C3079 1.400 . S
C3079 C3078 1.400 . S
C3079 C3080 1.398 . S
C3079 C3085 1.491 . S
C3080 H3071 0.950 . S
C3080 C3079 1.398 . S
C3080 C3081 1.391 . S
C3081 H3069 0.950 . S
C3081 C3077 1.393 . S
C3081 C3080 1.391 . S
C3082 H3072 0.950 . S
C3082 C3083 1.386 . S
C3082 C3084 1.391 . S
C3083 C3082 1.386 . S
C3083 C3087 1.393 . S
C3084 H3073 0.950 . S
C3084 C3082 1.391 . S
C3084 C3085 1.400 . S
C3085 C3079 1.491 . S
C3085 C3084 1.400 . S
C3085 C3086 1.398 . S
C3086 H3074 0.950 . S
C3086 C3085 1.398 . S
C3086 C3087 1.391 . S
C3087 H3075 0.950 . S
C3087 C3083 1.393 . S
C3087 C3086 1.391 . S
H3088 C3096 0.941 1_545 S
H3089 C3101 0.950 1_545 S
H3090 C3098 0.950 . S
H3091 C3100 0.950 . S
H3092 C3102 0.950 . S
H3093 C3104 0.950 . S
H3094 C3106 0.950 . S
H3095 C3107 0.950 . S
C3096 H3088 0.941 1_565 S
C3096 C3097 1.378 1_565 S
C3096 C3098 1.408 . S
C3097 C3096 1.378 1_545 S
C3097 C3101 1.393 1_545 S
C3098 H3090 0.950 . S
C3098 C3096 1.408 . S
C3098 C3099 1.400 . S
C3099 C3098 1.400 . S
C3099 C3100 1.398 . S
C3099 C3105 1.491 . S
C3100 H3091 0.950 . S
C3100 C3099 1.398 . S
C3100 C3101 1.391 . S
C3101 H3089 0.950 1_565 S
C3101 C3097 1.393 1_565 S
C3101 C3100 1.391 . S
C3102 H3092 0.950 . S
C3102 C3103 1.386 . S
C3102 C3104 1.391 . S
C3103 C3102 1.386 . S
C3103 C3107 1.393 . S
C3104 H3093 0.950 . S
C3104 C3102 1.391 . S
C3104 C3105 1.400 . S
C3105 C3099 1.491 . S
C3105 C3104 1.400 . S
C3105 C3106 1.398 . S
C3106 H3094 0.950 . S
C3106 C3105 1.398 . S
C3106 C3107 1.391 . S
C3107 H3095 0.950 . S
C3107 C3103 1.393 . S
C3107 C3106 1.391 . S
H3108 C3116 0.950 . S
H3109 C3121 0.950 . S
H3110 C3118 0.950 . S
H3111 C3120 0.950 . S
H3112 C3122 0.950 . S
H3113 C3124 0.950 . S
H3114 C3126 0.950 . S
H3115 C3127 0.950 . S
C3116 H3108 0.950 . S
C3116 C3117 1.386 . S
C3116 C3118 1.391 . S
C3117 C3116 1.386 . S
C3117 C3121 1.393 . S
C3118 H3110 0.950 . S
C3118 C3116 1.391 . S
C3118 C3119 1.400 . S
C3119 C3118 1.400 . S
C3119 C3120 1.398 . S
C3119 C3125 1.491 . S
C3120 H3111 0.950 . S
C3120 C3119 1.398 . S
C3120 C3121 1.391 . S
C3121 H3109 0.950 . S
C3121 C3117 1.393 . S
C3121 C3120 1.391 . S
C3122 H3112 0.950 . S
C3122 C3123 1.386 . S
C3122 C3124 1.391 . S
C3123 C3122 1.386 . S
C3123 C3127 1.393 . S
C3124 H3113 0.950 . S
C3124 C3122 1.391 . S
C3124 C3125 1.400 . S
C3125 C3119 1.491 . S
C3125 C3124 1.400 . S
C3125 C3126 1.398 . S
C3126 H3114 0.950 . S
C3126 C3125 1.398 . S
C3126 C3127 1.391 . S
C3127 H3115 0.950 . S
C3127 C3123 1.393 . S
C3127 C3126 1.391 . S
H3128 C3136 0.950 . S
H3129 C3141 0.950 . S
H3130 C3138 0.950 . S
H3131 C3140 0.950 . S
H3132 C3142 0.950 . S
H3133 C3144 0.950 . S
H3134 C3146 0.950 . S
H3135 C3147 0.950 . S
C3136 H3128 0.950 . S
C3136 C3137 1.386 . S
C3136 C3138 1.391 . S
C3137 C3136 1.386 . S
C3137 C3141 1.393 . S
C3138 H3130 0.950 . S
C3138 C3136 1.391 . S
C3138 C3139 1.400 . S
C3139 C3138 1.400 . S
C3139 C3140 1.398 . S
C3139 C3145 1.491 . S
C3140 H3131 0.950 . S
C3140 C3139 1.398 . S
C3140 C3141 1.391 . S
C3141 H3129 0.950 . S
C3141 C3137 1.393 . S
C3141 C3140 1.391 . S
C3142 H3132 0.950 . S
C3142 C3143 1.386 . S
C3142 C3144 1.391 . S
C3143 C3142 1.386 . S
C3143 C3147 1.393 . S
C3144 H3133 0.950 . S
C3144 C3142 1.391 . S
C3144 C3145 1.400 . S
C3145 C3139 1.491 . S
C3145 C3144 1.400 . S
C3145 C3146 1.398 . S
C3146 H3134 0.950 . S
C3146 C3145 1.398 . S
C3146 C3147 1.391 . S
C3147 H3135 0.950 . S
C3147 C3143 1.393 . S
C3147 C3146 1.391 . S
H3148 C3156 0.950 . S
H3149 C3161 0.950 . S
H3150 C3158 0.950 . S
H3151 C3160 0.950 . S
H3152 C3162 0.950 . S
H3153 C3164 0.950 . S
H3154 C3166 0.950 . S
H3155 C3167 0.950 . S
C3156 H3148 0.950 . S
C3156 C3157 1.386 . S
C3156 C3158 1.391 . S
C3157 C3156 1.386 . S
C3157 C3161 1.393 . S
C3158 H3150 0.950 . S
C3158 C3156 1.391 . S
C3158 C3159 1.400 . S
C3159 C3158 1.400 . S
C3159 C3160 1.398 . S
C3159 C3165 1.491 . S
C3160 H3151 0.950 . S
C3160 C3159 1.398 . S
C3160 C3161 1.391 . S
C3161 H3149 0.950 . S
C3161 C3157 1.393 . S
C3161 C3160 1.391 . S
C3162 H3152 0.950 . S
C3162 C3163 1.386 . S
C3162 C3164 1.391 . S
C3163 C3162 1.386 . S
C3163 C3167 1.393 . S
C3164 H3153 0.950 . S
C3164 C3162 1.391 . S
C3164 C3165 1.400 . S
C3165 C3159 1.491 . S
C3165 C3164 1.400 . S
C3165 C3166 1.398 . S
C3166 H3154 0.950 . S
C3166 C3165 1.398 . S
C3166 C3167 1.391 . S
C3167 H3155 0.950 . S
C3167 C3163 1.393 . S
C3167 C3166 1.391 . S
H3168 C3176 0.950 . S
H3169 C3181 0.950 . S
H3170 C3178 0.950 . S
H3171 C3180 0.950 . S
H3172 C3182 0.950 . S
H3173 C3184 0.950 . S
H3174 C3186 0.950 . S
H3175 C3187 0.950 . S
C3176 H3168 0.950 . S
C3176 C3177 1.386 . S
C3176 C3178 1.391 . S
C3177 C3176 1.386 . S
C3177 C3181 1.393 . S
C3178 H3170 0.950 . S
C3178 C3176 1.391 . S
C3178 C3179 1.400 . S
C3179 C3178 1.400 . S
C3179 C3180 1.398 . S
C3179 C3185 1.491 . S
C3180 H3171 0.950 . S
C3180 C3179 1.398 . S
C3180 C3181 1.391 . S
C3181 H3169 0.950 . S
C3181 C3177 1.393 . S
C3181 C3180 1.391 . S
C3182 H3172 0.950 . S
C3182 C3183 1.386 . S
C3182 C3184 1.391 . S
C3183 C3182 1.386 . S
C3183 C3187 1.393 . S
C3184 H3173 0.950 . S
C3184 C3182 1.391 . S
C3184 C3185 1.400 . S
C3185 C3179 1.491 . S
C3185 C3184 1.400 . S
C3185 C3186 1.398 . S
C3186 H3174 0.950 . S
C3186 C3185 1.398 . S
C3186 C3187 1.391 . S
C3187 H3175 0.950 . S
C3187 C3183 1.393 . S
C3187 C3186 1.391 . S
H3188 C3196 0.950 . S
H3189 C3201 0.950 . S
H3190 C3198 0.950 . S
H3191 C3200 0.950 . S
H3192 C3202 0.950 . S
H3193 C3204 0.950 . S
H3194 C3206 0.950 . S
H3195 C3207 0.950 . S
C3196 H3188 0.950 . S
C3196 C3197 1.386 . S
C3196 C3198 1.391 . S
C3197 C3196 1.386 . S
C3197 C3201 1.393 . S
C3198 H3190 0.950 . S
C3198 C3196 1.391 . S
C3198 C3199 1.400 . S
C3199 C3198 1.400 . S
C3199 C3200 1.398 . S
C3199 C3205 1.491 . S
C3200 H3191 0.950 . S
C3200 C3199 1.398 . S
C3200 C3201 1.391 . S
C3201 H3189 0.950 . S
C3201 C3197 1.393 . S
C3201 C3200 1.391 . S
C3202 H3192 0.950 . S
C3202 C3203 1.386 . S
C3202 C3204 1.391 . S
C3203 C3202 1.386 . S
C3203 C3207 1.393 . S
C3204 H3193 0.950 . S
C3204 C3202 1.391 . S
C3204 C3205 1.400 . S
C3205 C3199 1.491 . S
C3205 C3204 1.400 . S
C3205 C3206 1.398 . S
C3206 H3194 0.950 . S
C3206 C3205 1.398 . S
C3206 C3207 1.391 . S
C3207 H3195 0.950 . S
C3207 C3203 1.393 . S
C3207 C3206 1.391 . S
H3208 C3216 0.950 1_654 S
H3209 C3221 0.950 . S
H3210 C3218 0.950 1_655 S
H3211 C3220 0.950 . S
H3212 C3222 0.950 . S
H3213 C3224 0.950 . S
H3214 C3226 0.950 1_655 S
H3215 C3227 0.950 . S
C3216 H3208 0.950 1_456 S
C3216 C3217 1.386 . S
C3216 C3218 1.391 1_556 S
C3217 C3216 1.386 . S
C3217 C3221 1.393 . S
C3218 H3210 0.950 1_455 S
C3218 C3216 1.391 1_554 S
C3218 C3219 1.400 1_554 S
C3219 C3218 1.400 1_556 S
C3219 C3220 1.398 . S
C3219 C3225 1.491 . S
C3220 H3211 0.950 . S
C3220 C3219 1.398 . S
C3220 C3221 1.391 . S
C3221 H3209 0.950 . S
C3221 C3217 1.393 . S
C3221 C3220 1.391 . S
C3222 H3212 0.950 . S
C3222 C3223 1.386 1_556 S
C3222 C3224 1.391 . S
C3223 C3222 1.386 1_554 S
C3223 C3227 1.393 . S
C3224 H3213 0.950 . S
C3224 C3222 1.391 . S
C3224 C3225 1.400 . S
C3225 C3219 1.491 . S
C3225 C3224 1.400 . S
C3225 C3226 1.398 1_556 S
C3226 H3214 0.950 1_455 S
C3226 C3225 1.398 1_554 S
C3226 C3227 1.391 . S
C3227 H3215 0.950 . S
C3227 C3223 1.393 . S
C3227 C3226 1.391 . S
H3228 C3236 0.950 . S
H3229 C3241 0.950 . S
H3230 C3238 0.950 . S
H3231 C3240 0.950 . S
H3232 C3242 0.950 . S
H3233 C3244 0.950 . S
H3234 C3246 0.950 . S
H3235 C3247 0.950 . S
C3236 H3228 0.950 . S
C3236 C3237 1.386 . S
C3236 C3238 1.391 . S
C3237 C3236 1.386 . S
C3237 C3241 1.393 . S
C3238 H3230 0.950 . S
C3238 C3236 1.391 . S
C3238 C3239 1.400 . S
C3239 C3238 1.400 . S
C3239 C3240 1.398 . S
C3239 C3245 1.491 . S
C3240 H3231 0.950 . S
C3240 C3239 1.398 . S
C3240 C3241 1.391 . S
C3241 H3229 0.950 . S
C3241 C3237 1.393 . S
C3241 C3240 1.391 . S
C3242 H3232 0.950 . S
C3242 C3243 1.386 . S
C3242 C3244 1.391 . S
C3243 C3242 1.386 . S
C3243 C3247 1.393 . S
C3244 H3233 0.950 . S
C3244 C3242 1.391 . S
C3244 C3245 1.400 . S
C3245 C3239 1.491 . S
C3245 C3244 1.400 . S
C3245 C3246 1.398 . S
C3246 H3234 0.950 . S
C3246 C3245 1.398 . S
C3246 C3247 1.391 . S
C3247 H3235 0.950 . S
C3247 C3243 1.393 . S
C3247 C3246 1.391 . S
H3248 C3256 0.950 . S
H3249 C3261 0.950 . S
H3250 C3258 0.950 . S
H3251 C3260 0.950 . S
H3252 C3262 0.950 . S
H3253 C3264 0.950 . S
H3254 C3266 0.950 . S
H3255 C3267 0.950 . S
C3256 H3248 0.950 . S
C3256 C3257 1.386 . S
C3256 C3258 1.391 . S
C3257 C3256 1.386 . S
C3257 C3261 1.393 . S
C3258 H3250 0.950 . S
C3258 C3256 1.391 . S
C3258 C3259 1.400 . S
C3259 C3258 1.400 . S
C3259 C3260 1.398 . S
C3259 C3265 1.491 . S
C3260 H3251 0.950 . S
C3260 C3259 1.398 . S
C3260 C3261 1.391 . S
C3261 H3249 0.950 . S
C3261 C3257 1.393 . S
C3261 C3260 1.391 . S
C3262 H3252 0.950 . S
C3262 C3263 1.386 . S
C3262 C3264 1.391 . S
C3263 C3262 1.386 . S
C3263 C3267 1.393 . S
C3264 H3253 0.950 . S
C3264 C3262 1.391 . S
C3264 C3265 1.400 . S
C3265 C3259 1.491 . S
C3265 C3264 1.400 . S
C3265 C3266 1.398 . S
C3266 H3254 0.950 . S
C3266 C3265 1.398 . S
C3266 C3267 1.391 . S
C3267 H3255 0.950 . S
C3267 C3263 1.393 . S
C3267 C3266 1.391 . S
H3268 C3276 0.950 . S
H3269 C3281 0.950 . S
H3270 C3278 0.950 . S
H3271 C3280 0.950 . S
H3272 C3282 0.950 . S
H3273 C3284 0.950 . S
H3274 C3286 0.950 . S
H3275 C3287 0.950 . S
C3276 H3268 0.950 . S
C3276 C3277 1.386 . S
C3276 C3278 1.391 . S
C3277 C3276 1.386 . S
C3277 C3281 1.393 . S
C3278 H3270 0.950 . S
C3278 C3276 1.391 . S
C3278 C3279 1.400 . S
C3279 C3278 1.400 . S
C3279 C3280 1.398 . S
C3279 C3285 1.491 . S
C3280 H3271 0.950 . S
C3280 C3279 1.398 . S
C3280 C3281 1.391 . S
C3281 H3269 0.950 . S
C3281 C3277 1.393 . S
C3281 C3280 1.391 . S
C3282 H3272 0.950 . S
C3282 C3283 1.386 . S
C3282 C3284 1.391 . S
C3283 C3282 1.386 . S
C3283 C3287 1.393 . S
C3284 H3273 0.950 . S
C3284 C3282 1.391 . S
C3284 C3285 1.400 . S
C3285 C3279 1.491 . S
C3285 C3284 1.400 . S
C3285 C3286 1.398 . S
C3286 H3274 0.950 . S
C3286 C3285 1.398 . S
C3286 C3287 1.391 . S
C3287 H3275 0.950 . S
C3287 C3283 1.393 . S
C3287 C3286 1.391 . S
H3288 C3296 0.950 . S
H3289 C3301 0.950 . S
H3290 C3298 0.950 . S
H3291 C3300 0.950 . S
H3292 C3302 0.950 . S
H3293 C3304 0.950 . S
H3294 C3306 0.950 . S
H3295 C3307 0.950 . S
C3296 H3288 0.950 . S
C3296 C3297 1.386 . S
C3296 C3298 1.391 . S
C3297 C3296 1.386 . S
C3297 C3301 1.393 . S
C3298 H3290 0.950 . S
C3298 C3296 1.391 . S
C3298 C3299 1.400 . S
C3299 C3298 1.400 . S
C3299 C3300 1.398 . S
C3299 C3305 1.491 . S
C3300 H3291 0.950 . S
C3300 C3299 1.398 . S
C3300 C3301 1.391 . S
C3301 H3289 0.950 . S
C3301 C3297 1.393 . S
C3301 C3300 1.391 . S
C3302 H3292 0.950 . S
C3302 C3303 1.386 . S
C3302 C3304 1.391 . S
C3303 C3302 1.386 . S
C3303 C3307 1.393 . S
C3304 H3293 0.950 . S
C3304 C3302 1.391 . S
C3304 C3305 1.400 . S
C3305 C3299 1.491 . S
C3305 C3304 1.400 . S
C3305 C3306 1.398 . S
C3306 H3294 0.950 . S
C3306 C3305 1.398 . S
C3306 C3307 1.391 . S
C3307 H3295 0.950 . S
C3307 C3303 1.393 . S
C3307 C3306 1.391 . S
H3308 C3316 0.950 . S
H3309 C3321 0.950 . S
H3310 C3318 0.950 . S
H3311 C3320 0.950 . S
H3312 C3322 0.950 . S
H3313 C3324 0.950 . S
H3314 C3326 0.950 . S
H3315 C3327 0.950 . S
C3316 H3308 0.950 . S
C3316 C3317 1.386 . S
C3316 C3318 1.391 . S
C3317 C3316 1.386 . S
C3317 C3321 1.393 . S
C3318 H3310 0.950 . S
C3318 C3316 1.391 . S
C3318 C3319 1.400 . S
C3319 C3318 1.400 . S
C3319 C3320 1.398 . S
C3319 C3325 1.491 . S
C3320 H3311 0.950 . S
C3320 C3319 1.398 . S
C3320 C3321 1.391 . S
C3321 H3309 0.950 . S
C3321 C3317 1.393 . S
C3321 C3320 1.391 . S
C3322 H3312 0.950 . S
C3322 C3323 1.386 . S
C3322 C3324 1.391 . S
C3323 C3322 1.386 . S
C3323 C3327 1.393 . S
C3324 H3313 0.950 . S
C3324 C3322 1.391 . S
C3324 C3325 1.400 . S
C3325 C3319 1.491 . S
C3325 C3324 1.400 . S
C3325 C3326 1.398 . S
C3326 H3314 0.950 . S
C3326 C3325 1.398 . S
C3326 C3327 1.391 . S
C3327 H3315 0.950 . S
C3327 C3323 1.393 . S
C3327 C3326 1.391 . S
H3328 C3336 0.950 . S
H3329 C3341 0.950 . S
H3330 C3338 0.950 . S
H3331 C3340 0.950 . S
H3332 C3342 0.950 . S
H3333 C3344 0.950 . S
H3334 C3346 0.950 . S
H3335 C3347 0.950 . S
C3336 H3328 0.950 . S
C3336 C3337 1.386 . S
C3336 C3338 1.391 . S
C3337 C3336 1.386 . S
C3337 C3341 1.393 . S
C3338 H3330 0.950 . S
C3338 C3336 1.391 . S
C3338 C3339 1.400 . S
C3339 C3338 1.400 . S
C3339 C3340 1.398 . S
C3339 C3345 1.491 . S
C3340 H3331 0.950 . S
C3340 C3339 1.398 . S
C3340 C3341 1.391 . S
C3341 H3329 0.950 . S
C3341 C3337 1.393 . S
C3341 C3340 1.391 . S
C3342 H3332 0.950 . S
C3342 C3343 1.386 . S
C3342 C3344 1.391 . S
C3343 C3342 1.386 . S
C3343 C3347 1.393 . S
C3344 H3333 0.950 . S
C3344 C3342 1.391 . S
C3344 C3345 1.400 . S
C3345 C3339 1.491 . S
C3345 C3344 1.400 . S
C3345 C3346 1.398 . S
C3346 H3334 0.950 . S
C3346 C3345 1.398 . S
C3346 C3347 1.391 . S
C3347 H3335 0.950 . S
C3347 C3343 1.393 . S
C3347 C3346 1.391 . S
H3348 C3356 0.950 . S
H3349 C3361 0.950 . S
H3350 C3358 0.950 . S
H3351 C3360 0.950 . S
H3352 C3362 0.950 . S
H3353 C3364 0.950 . S
H3354 C3366 0.950 . S
H3355 C3367 0.950 . S
C3356 H3348 0.950 . S
C3356 C3357 1.384 . S
C3356 C3358 1.391 . S
C3357 C3356 1.384 . S
C3357 C3361 1.393 1_556 S
C3358 H3350 0.950 . S
C3358 C3356 1.391 . S
C3358 C3359 1.400 . S
C3359 C3358 1.400 . S
C3359 C3360 1.398 . S
C3359 C3365 1.491 . S
C3360 H3351 0.950 . S
C3360 C3359 1.398 . S
C3360 C3361 1.391 1_556 S
C3361 H3349 0.950 . S
C3361 C3357 1.393 1_554 S
C3361 C3360 1.391 1_554 S
C3362 H3352 0.950 . S
C3362 C3363 1.386 . S
C3362 C3364 1.391 . S
C3363 C3362 1.386 . S
C3363 C3367 1.393 . S
C3364 H3353 0.950 . S
C3364 C3362 1.391 . S
C3364 C3365 1.400 . S
C3365 C3359 1.491 . S
C3365 C3364 1.400 . S
C3365 C3366 1.398 . S
C3366 H3354 0.950 . S
C3366 C3365 1.398 . S
C3366 C3367 1.391 . S
C3367 H3355 0.950 . S
C3367 C3363 1.393 . S
C3367 C3366 1.391 . S
H3368 C3376 0.950 . S
H3369 C3381 0.950 . S
H3370 C3378 0.950 . S
H3371 C3380 0.950 . S
H3372 C3382 0.950 . S
H3373 C3384 0.950 . S
H3374 C3386 0.950 . S
H3375 C3387 0.950 . S
C3376 H3368 0.950 . S
C3376 C3377 1.386 . S
C3376 C3378 1.391 . S
C3377 C3376 1.386 . S
C3377 C3381 1.393 . S
C3378 H3370 0.950 . S
C3378 C3376 1.391 . S
C3378 C3379 1.400 . S
C3379 C3378 1.400 . S
C3379 C3380 1.398 . S
C3379 C3385 1.491 . S
C3380 H3371 0.950 . S
C3380 C3379 1.398 . S
C3380 C3381 1.391 . S
C3381 H3369 0.950 . S
C3381 C3377 1.393 . S
C3381 C3380 1.391 . S
C3382 H3372 0.950 . S
C3382 C3383 1.386 . S
C3382 C3384 1.391 . S
C3383 C3382 1.386 . S
C3383 C3387 1.393 . S
C3384 H3373 0.950 . S
C3384 C3382 1.391 . S
C3384 C3385 1.400 . S
C3385 C3379 1.491 . S
C3385 C3384 1.400 . S
C3385 C3386 1.398 . S
C3386 H3374 0.950 . S
C3386 C3385 1.398 . S
C3386 C3387 1.391 . S
C3387 H3375 0.950 . S
C3387 C3383 1.393 . S
C3387 C3386 1.391 . S
H3388 C3396 0.950 . S
H3389 C3401 0.950 . S
H3390 C3398 0.950 . S
H3391 C3400 0.950 . S
H3392 C3402 0.950 . S
H3393 C3404 0.950 . S
H3394 C3406 0.950 . S
H3395 C3407 0.950 . S
C3396 H3388 0.950 . S
C3396 C3397 1.386 . S
C3396 C3398 1.391 . S
C3397 C3396 1.386 . S
C3397 C3401 1.393 . S
C3398 H3390 0.950 . S
C3398 C3396 1.391 . S
C3398 C3399 1.400 . S
C3399 C3398 1.400 . S
C3399 C3400 1.398 . S
C3399 C3405 1.491 . S
C3400 H3391 0.950 . S
C3400 C3399 1.398 . S
C3400 C3401 1.391 . S
C3401 H3389 0.950 . S
C3401 C3397 1.393 . S
C3401 C3400 1.391 . S
C3402 H3392 0.950 . S
C3402 C3403 1.386 . S
C3402 C3404 1.391 . S
C3403 C3402 1.386 . S
C3403 C3407 1.393 . S
C3404 H3393 0.950 . S
C3404 C3402 1.391 . S
C3404 C3405 1.400 . S
C3405 C3399 1.491 . S
C3405 C3404 1.400 . S
C3405 C3406 1.398 . S
C3406 H3394 0.950 . S
C3406 C3405 1.398 . S
C3406 C3407 1.391 . S
C3407 H3395 0.950 . S
C3407 C3403 1.393 . S
C3407 C3406 1.391 . S
H3408 C3416 0.950 . S
H3409 C3421 0.950 . S
H3410 C3418 0.950 . S
H3411 C3420 0.950 . S
H3412 C3422 0.950 . S
H3413 C3424 0.950 . S
H3414 C3426 0.950 . S
H3415 C3427 0.950 . S
C3416 H3408 0.950 . S
C3416 C3417 1.386 . S
C3416 C3418 1.391 . S
C3417 C3416 1.386 . S
C3417 C3421 1.393 . S
C3418 H3410 0.950 . S
C3418 C3416 1.391 . S
C3418 C3419 1.400 . S
C3419 C3418 1.400 . S
C3419 C3420 1.398 . S
C3419 C3425 1.491 . S
C3420 H3411 0.950 . S
C3420 C3419 1.398 . S
C3420 C3421 1.391 . S
C3421 H3409 0.950 . S
C3421 C3417 1.393 . S
C3421 C3420 1.391 . S
C3422 H3412 0.950 . S
C3422 C3423 1.386 . S
C3422 C3424 1.391 . S
C3423 C3422 1.386 . S
C3423 C3427 1.393 . S
C3424 H3413 0.950 . S
C3424 C3422 1.391 . S
C3424 C3425 1.400 . S
C3425 C3419 1.491 . S
C3425 C3424 1.400 . S
C3425 C3426 1.398 . S
C3426 H3414 0.950 . S
C3426 C3425 1.398 . S
C3426 C3427 1.391 . S
C3427 H3415 0.950 . S
C3427 C3423 1.393 . S
C3427 C3426 1.391 . S
H3428 C3436 0.950 . S
H3429 C3441 0.950 . S
H3430 C3438 0.950 . S
H3431 C3440 0.950 . S
H3432 C3442 0.950 . S
H3433 C3444 0.950 . S
H3434 C3446 0.950 . S
H3435 C3447 0.950 . S
C3436 H3428 0.950 . S
C3436 C3437 1.386 . S
C3436 C3438 1.391 . S
C3437 C3436 1.386 . S
C3437 C3441 1.393 . S
C3438 H3430 0.950 . S
C3438 C3436 1.391 . S
C3438 C3439 1.400 . S
C3439 C3438 1.400 . S
C3439 C3440 1.398 . S
C3439 C3445 1.491 . S
C3440 H3431 0.950 . S
C3440 C3439 1.398 . S
C3440 C3441 1.391 . S
C3441 H3429 0.950 . S
C3441 C3437 1.393 . S
C3441 C3440 1.391 . S
C3442 H3432 0.950 . S
C3442 C3443 1.386 . S
C3442 C3444 1.391 . S
C3443 C3442 1.386 . S
C3443 C3447 1.393 . S
C3444 H3433 0.950 . S
C3444 C3442 1.391 . S
C3444 C3445 1.400 . S
C3445 C3439 1.491 . S
C3445 C3444 1.400 . S
C3445 C3446 1.398 . S
C3446 H3434 0.950 . S
C3446 C3445 1.398 . S
C3446 C3447 1.391 . S
C3447 H3435 0.950 . S
C3447 C3443 1.393 . S
C3447 C3446 1.391 . S
H3448 C3456 0.950 . S
H3449 C3461 0.950 . S
H3450 C3458 0.950 . S
H3451 C3460 0.950 . S
H3452 C3462 0.950 . S
H3453 C3464 0.950 . S
H3454 C3466 0.950 . S
H3455 C3467 0.950 . S
C3456 H3448 0.950 . S
C3456 C3457 1.386 . S
C3456 C3458 1.391 . S
C3457 C3456 1.386 . S
C3457 C3461 1.393 . S
C3458 H3450 0.950 . S
C3458 C3456 1.391 . S
C3458 C3459 1.400 . S
C3459 C3458 1.400 . S
C3459 C3460 1.398 . S
C3459 C3465 1.491 . S
C3460 H3451 0.950 . S
C3460 C3459 1.398 . S
C3460 C3461 1.391 . S
C3461 H3449 0.950 . S
C3461 C3457 1.393 . S
C3461 C3460 1.391 . S
C3462 H3452 0.950 . S
C3462 C3463 1.386 . S
C3462 C3464 1.391 . S
C3463 C3462 1.386 . S
C3463 C3467 1.393 . S
C3464 H3453 0.950 . S
C3464 C3462 1.391 . S
C3464 C3465 1.400 . S
C3465 C3459 1.491 . S
C3465 C3464 1.400 . S
C3465 C3466 1.398 . S
C3466 H3454 0.950 . S
C3466 C3465 1.398 . S
C3466 C3467 1.391 . S
C3467 H3455 0.950 . S
C3467 C3463 1.393 . S
C3467 C3466 1.391 . S
H3468 C3476 0.950 . S
H3469 C3481 0.950 . S
H3470 C3478 0.950 . S
H3471 C3480 0.950 . S
H3472 C3482 0.950 . S
H3473 C3484 0.950 . S
H3474 C3486 0.950 . S
H3475 C3487 0.950 . S
C3476 H3468 0.950 . S
C3476 C3477 1.386 . S
C3476 C3478 1.391 . S
C3477 C3476 1.386 . S
C3477 C3481 1.393 . S
C3478 H3470 0.950 . S
C3478 C3476 1.391 . S
C3478 C3479 1.400 . S
C3479 C3478 1.400 . S
C3479 C3480 1.398 . S
C3479 C3485 1.491 . S
C3480 H3471 0.950 . S
C3480 C3479 1.398 . S
C3480 C3481 1.391 . S
C3481 H3469 0.950 . S
C3481 C3477 1.393 . S
C3481 C3480 1.391 . S
C3482 H3472 0.950 . S
C3482 C3483 1.386 . S
C3482 C3484 1.391 . S
C3483 C3482 1.386 . S
C3483 C3487 1.393 . S
C3484 H3473 0.950 . S
C3484 C3482 1.391 . S
C3484 C3485 1.400 . S
C3485 C3479 1.491 . S
C3485 C3484 1.400 . S
C3485 C3486 1.398 . S
C3486 H3474 0.950 . S
C3486 C3485 1.398 . S
C3486 C3487 1.391 . S
C3487 H3475 0.950 . S
C3487 C3483 1.393 . S
C3487 C3486 1.391 . S
H3488 C3496 0.950 . S
H3489 C3501 0.950 . S
H3490 C3498 0.950 . S
H3491 C3500 0.950 . S
H3492 C3502 0.950 . S
H3493 C3504 0.950 . S
H3494 C3506 0.950 . S
H3495 C3507 0.950 . S
C3496 H3488 0.950 . S
C3496 C3497 1.386 . S
C3496 C3498 1.391 . S
C3497 C3496 1.386 . S
C3497 C3501 1.393 . S
C3498 H3490 0.950 . S
C3498 C3496 1.391 . S
C3498 C3499 1.400 . S
C3499 C3498 1.400 . S
C3499 C3500 1.398 . S
C3499 C3505 1.491 . S
C3500 H3491 0.950 . S
C3500 C3499 1.398 . S
C3500 C3501 1.391 . S
C3501 H3489 0.950 . S
C3501 C3497 1.393 . S
C3501 C3500 1.391 . S
C3502 H3492 0.950 . S
C3502 C3503 1.386 . S
C3502 C3504 1.391 . S
C3503 C3502 1.386 . S
C3503 C3507 1.393 . S
C3504 H3493 0.950 . S
C3504 C3502 1.391 . S
C3504 C3505 1.400 . S
C3505 C3499 1.491 . S
C3505 C3504 1.400 . S
C3505 C3506 1.398 . S
C3506 H3494 0.950 . S
C3506 C3505 1.398 . S
C3506 C3507 1.391 . S
C3507 H3495 0.950 . S
C3507 C3503 1.393 . S
C3507 C3506 1.391 . S
H3508 C3516 0.950 . S
H3509 C3521 0.950 . S
H3510 C3518 0.950 . S
H3511 C3520 0.950 . S
H3512 C3522 0.950 . S
H3513 C3524 0.950 . S
H3514 C3526 0.950 . S
H3515 C3527 0.950 . S
C3516 H3508 0.950 . S
C3516 C3517 1.386 . S
C3516 C3518 1.391 . S
C3517 C3516 1.386 . S
C3517 C3521 1.393 . S
C3518 H3510 0.950 . S
C3518 C3516 1.391 . S
C3518 C3519 1.400 . S
C3519 C3518 1.400 . S
C3519 C3520 1.398 . S
C3519 C3525 1.491 . S
C3520 H3511 0.950 . S
C3520 C3519 1.398 . S
C3520 C3521 1.391 . S
C3521 H3509 0.950 . S
C3521 C3517 1.393 . S
C3521 C3520 1.391 . S
C3522 H3512 0.950 . S
C3522 C3523 1.386 . S
C3522 C3524 1.391 . S
C3523 C3522 1.386 . S
C3523 C3527 1.393 . S
C3524 H3513 0.950 . S
C3524 C3522 1.391 . S
C3524 C3525 1.400 . S
C3525 C3519 1.491 . S
C3525 C3524 1.400 . S
C3525 C3526 1.398 . S
C3526 H3514 0.950 . S
C3526 C3525 1.398 . S
C3526 C3527 1.391 . S
C3527 H3515 0.950 . S
C3527 C3523 1.393 . S
C3527 C3526 1.391 . S
H3528 C3536 0.950 . S
H3529 C3541 0.950 1_545 S
H3530 C3538 0.950 . S
H3531 C3540 0.950 . S
H3532 C3542 0.950 . S
H3533 C3544 0.950 . S
H3534 C3546 0.950 . S
H3535 C3547 0.950 . S
C3536 H3528 0.950 . S
C3536 C3537 1.386 . S
C3536 C3538 1.391 . S
C3537 C3536 1.386 . S
C3537 C3541 1.393 . S
C3538 H3530 0.950 . S
C3538 C3536 1.391 . S
C3538 C3539 1.400 . S
C3539 C3538 1.400 . S
C3539 C3540 1.398 . S
C3539 C3545 1.491 . S
C3540 H3531 0.950 . S
C3540 C3539 1.398 . S
C3540 C3541 1.391 . S
C3541 H3529 0.950 1_565 S
C3541 C3537 1.393 . S
C3541 C3540 1.391 . S
C3542 H3532 0.950 . S
C3542 C3543 1.386 . S
C3542 C3544 1.391 . S
C3543 C3542 1.386 . S
C3543 C3547 1.393 . S
C3544 H3533 0.950 . S
C3544 C3542 1.391 . S
C3544 C3545 1.400 . S
C3545 C3539 1.491 . S
C3545 C3544 1.400 . S
C3545 C3546 1.398 . S
C3546 H3534 0.950 . S
C3546 C3545 1.398 . S
C3546 C3547 1.391 . S
C3547 H3535 0.950 . S
C3547 C3543 1.393 . S
C3547 C3546 1.391 . S
H3548 C3556 0.950 . S
H3549 C3561 0.950 . S
H3550 C3558 0.950 . S
H3551 C3560 0.950 1_545 S
H3552 C3562 0.950 . S
H3553 C3564 0.950 . S
H3554 C3566 0.950 1_556 S
H3555 C3567 0.950 1_556 S
C3556 H3548 0.950 . S
C3556 C3557 1.386 1_556 S
C3556 C3558 1.391 . S
C3557 C3556 1.386 1_554 S
C3557 C3561 1.393 . S
C3558 H3550 0.950 . S
C3558 C3556 1.391 . S
C3558 C3559 1.400 1_556 S
C3559 C3558 1.400 1_554 S
C3559 C3560 1.398 . S
C3559 C3565 1.491 . S
C3560 H3551 0.950 1_565 S
C3560 C3559 1.398 . S
C3560 C3561 1.391 . S
C3561 H3549 0.950 . S
C3561 C3557 1.393 . S
C3561 C3560 1.391 . S
C3562 H3552 0.950 . S
C3562 C3563 1.386 . S
C3562 C3564 1.391 . S
C3563 C3562 1.386 . S
C3563 C3567 1.393 1_545 S
C3564 H3553 0.950 . S
C3564 C3562 1.391 . S
C3564 C3565 1.400 1_545 S
C3565 C3559 1.491 . S
C3565 C3564 1.400 1_565 S
C3565 C3566 1.398 . S
C3566 H3554 0.950 1_554 S
C3566 C3565 1.398 . S
C3566 C3567 1.391 . S
C3567 H3555 0.950 1_554 S
C3567 C3563 1.393 1_565 S
C3567 C3566 1.391 . S
H3568 C3576 0.950 . S
H3569 C3581 0.950 . S
H3570 C3578 0.950 . S
H3571 C3580 0.950 . S
H3572 C3582 0.950 . S
H3573 C3584 0.950 . S
H3574 C3586 0.950 . S
H3575 C3587 0.950 . S
C3576 H3568 0.950 . S
C3576 C3577 1.386 . S
C3576 C3578 1.391 . S
C3577 C3576 1.386 . S
C3577 C3581 1.393 . S
C3578 H3570 0.950 . S
C3578 C3576 1.391 . S
C3578 C3579 1.400 . S
C3579 C3578 1.400 . S
C3579 C3580 1.398 . S
C3579 C3585 1.491 . S
C3580 H3571 0.950 . S
C3580 C3579 1.398 . S
C3580 C3581 1.391 . S
C3581 H3569 0.950 . S
C3581 C3577 1.393 . S
C3581 C3580 1.391 . S
C3582 H3572 0.950 . S
C3582 C3583 1.386 . S
C3582 C3584 1.391 . S
C3583 C3582 1.386 . S
C3583 C3587 1.393 . S
C3584 H3573 0.950 . S
C3584 C3582 1.391 . S
C3584 C3585 1.400 . S
C3585 C3579 1.491 . S
C3585 C3584 1.400 . S
C3585 C3586 1.398 . S
C3586 H3574 0.950 . S
C3586 C3585 1.398 . S
C3586 C3587 1.391 . S
C3587 H3575 0.950 . S
C3587 C3583 1.393 . S
C3587 C3586 1.391 . S
H3588 C3596 0.950 . S
H3589 C3601 0.917 1_556 S
H3590 C3598 0.950 . S
H3591 C3600 0.950 1_556 S
H3592 C3602 0.950 . S
H3593 C3604 0.950 1_556 S
H3594 C3606 0.950 . S
H3595 C3607 0.950 . S
C3596 H3588 0.950 . S
C3596 C3597 1.386 . S
C3596 C3598 1.391 . S
C3597 C3596 1.386 . S
C3597 C3601 1.422 . S
C3598 H3590 0.950 . S
C3598 C3596 1.391 . S
C3598 C3599 1.400 . S
C3599 C3598 1.400 . S
C3599 C3600 1.398 . S
C3599 C3605 1.491 . S
C3600 H3591 0.950 1_554 S
C3600 C3599 1.398 . S
C3600 C3601 1.397 . S
C3601 H3589 0.917 1_554 S
C3601 C3597 1.422 . S
C3601 C3600 1.397 . S
C3602 H3592 0.950 . S
C3602 C3603 1.386 . S
C3602 C3604 1.391 . S
C3603 C3602 1.386 . S
C3603 C3607 1.393 . S
C3604 H3593 0.950 1_554 S
C3604 C3602 1.391 . S
C3604 C3605 1.400 . S
C3605 C3599 1.491 . S
C3605 C3604 1.400 . S
C3605 C3606 1.398 . S
C3606 H3594 0.950 . S
C3606 C3605 1.398 . S
C3606 C3607 1.391 . S
C3607 H3595 0.950 . S
C3607 C3603 1.393 . S
C3607 C3606 1.391 . S
H3608 C3616 0.950 . S
H3609 C3621 0.950 . S
H3610 C3618 0.950 . S
H3611 C3620 0.950 . S
H3612 C3622 0.950 . S
H3613 C3624 0.950 . S
H3614 C3626 0.950 . S
H3615 C3627 0.950 . S
C3616 H3608 0.950 . S
C3616 C3617 1.386 . S
C3616 C3618 1.391 . S
C3617 C3616 1.386 . S
C3617 C3621 1.393 . S
C3618 H3610 0.950 . S
C3618 C3616 1.391 . S
C3618 C3619 1.400 . S
C3619 C3618 1.400 . S
C3619 C3620 1.398 . S
C3619 C3625 1.491 . S
C3620 H3611 0.950 . S
C3620 C3619 1.398 . S
C3620 C3621 1.391 . S
C3621 H3609 0.950 . S
C3621 C3617 1.393 . S
C3621 C3620 1.391 . S
C3622 H3612 0.950 . S
C3622 C3623 1.386 . S
C3622 C3624 1.391 . S
C3623 C3622 1.386 . S
C3623 C3627 1.393 . S
C3624 H3613 0.950 . S
C3624 C3622 1.391 . S
C3624 C3625 1.400 . S
C3625 C3619 1.491 . S
C3625 C3624 1.400 . S
C3625 C3626 1.398 . S
C3626 H3614 0.950 . S
C3626 C3625 1.398 . S
C3626 C3627 1.391 . S
C3627 H3615 0.950 . S
C3627 C3623 1.393 . S
C3627 C3626 1.391 . S
H3628 C3636 0.950 . S
H3629 C3641 0.950 . S
H3630 C3638 0.950 . S
H3631 C3640 0.950 . S
H3632 C3642 0.950 . S
H3633 C3644 0.950 . S
H3634 C3646 0.950 . S
H3635 C3647 0.950 . S
C3636 H3628 0.950 . S
C3636 C3637 1.386 . S
C3636 C3638 1.391 . S
C3637 C3636 1.386 . S
C3637 C3641 1.393 . S
C3638 H3630 0.950 . S
C3638 C3636 1.391 . S
C3638 C3639 1.400 . S
C3639 C3638 1.400 . S
C3639 C3640 1.398 . S
C3639 C3645 1.491 . S
C3640 H3631 0.950 . S
C3640 C3639 1.398 . S
C3640 C3641 1.391 . S
C3641 H3629 0.950 . S
C3641 C3637 1.393 . S
C3641 C3640 1.391 . S
C3642 H3632 0.950 . S
C3642 C3643 1.386 . S
C3642 C3644 1.391 . S
C3643 C3642 1.386 . S
C3643 C3647 1.393 . S
C3644 H3633 0.950 . S
C3644 C3642 1.391 . S
C3644 C3645 1.400 . S
C3645 C3639 1.491 . S
C3645 C3644 1.400 . S
C3645 C3646 1.398 . S
C3646 H3634 0.950 . S
C3646 C3645 1.398 . S
C3646 C3647 1.391 . S
C3647 H3635 0.950 . S
C3647 C3643 1.393 . S
C3647 C3646 1.391 . S
H3648 C3656 0.950 . S
H3649 C3661 0.950 . S
H3650 C3658 0.950 . S
H3651 C3660 0.950 . S
H3652 C3662 0.950 . S
H3653 C3664 0.950 . S
H3654 C3666 0.950 . S
H3655 C3667 0.950 . S
C3656 H3648 0.950 . S
C3656 C3657 1.386 . S
C3656 C3658 1.391 . S
C3657 C3656 1.386 . S
C3657 C3661 1.393 . S
C3658 H3650 0.950 . S
C3658 C3656 1.391 . S
C3658 C3659 1.400 . S
C3659 C3658 1.400 . S
C3659 C3660 1.398 . S
C3659 C3665 1.491 . S
C3660 H3651 0.950 . S
C3660 C3659 1.398 . S
C3660 C3661 1.391 . S
C3661 H3649 0.950 . S
C3661 C3657 1.393 . S
C3661 C3660 1.391 . S
C3662 H3652 0.950 . S
C3662 C3663 1.386 . S
C3662 C3664 1.391 . S
C3663 C3662 1.386 . S
C3663 C3667 1.393 . S
C3664 H3653 0.950 . S
C3664 C3662 1.391 . S
C3664 C3665 1.400 . S
C3665 C3659 1.491 . S
C3665 C3664 1.400 . S
C3665 C3666 1.398 . S
C3666 H3654 0.950 . S
C3666 C3665 1.398 . S
C3666 C3667 1.391 . S
C3667 H3655 0.950 . S
C3667 C3663 1.393 . S
C3667 C3666 1.391 . S
H3668 C3676 0.950 . S
H3669 C3681 0.950 . S
H3670 C3678 0.950 . S
H3671 C3680 0.950 . S
H3672 C3682 0.950 . S
H3673 C3684 0.950 . S
H3674 C3686 0.950 . S
H3675 C3687 0.950 . S
C3676 H3668 0.950 . S
C3676 C3677 1.386 . S
C3676 C3678 1.391 . S
C3677 C3676 1.386 . S
C3677 C3681 1.393 . S
C3678 H3670 0.950 . S
C3678 C3676 1.391 . S
C3678 C3679 1.400 . S
C3679 C3678 1.400 . S
C3679 C3680 1.398 . S
C3679 C3685 1.491 . S
C3680 H3671 0.950 . S
C3680 C3679 1.398 . S
C3680 C3681 1.391 . S
C3681 H3669 0.950 . S
C3681 C3677 1.393 . S
C3681 C3680 1.391 . S
C3682 H3672 0.950 . S
C3682 C3683 1.386 . S
C3682 C3684 1.391 . S
C3683 C3682 1.386 . S
C3683 C3687 1.393 . S
C3684 H3673 0.950 . S
C3684 C3682 1.391 . S
C3684 C3685 1.400 . S
C3685 C3679 1.491 . S
C3685 C3684 1.400 . S
C3685 C3686 1.398 . S
C3686 H3674 0.950 . S
C3686 C3685 1.398 . S
C3686 C3687 1.391 . S
C3687 H3675 0.950 . S
C3687 C3683 1.393 . S
C3687 C3686 1.391 . S
H3688 C3696 0.950 . S
H3689 C3701 0.950 . S
H3690 C3698 0.950 . S
H3691 C3700 0.950 . S
H3692 C3702 0.950 . S
H3693 C3704 0.950 . S
H3694 C3706 0.950 . S
H3695 C3707 0.950 . S
C3696 H3688 0.950 . S
C3696 C3697 1.386 . S
C3696 C3698 1.391 . S
C3697 C3696 1.386 . S
C3697 C3701 1.393 . S
C3698 H3690 0.950 . S
C3698 C3696 1.391 . S
C3698 C3699 1.400 . S
C3699 C3698 1.400 . S
C3699 C3700 1.398 . S
C3699 C3705 1.491 . S
C3700 H3691 0.950 . S
C3700 C3699 1.398 . S
C3700 C3701 1.391 . S
C3701 H3689 0.950 . S
C3701 C3697 1.393 . S
C3701 C3700 1.391 . S
C3702 H3692 0.950 . S
C3702 C3703 1.386 . S
C3702 C3704 1.391 . S
C3703 C3702 1.386 . S
C3703 C3707 1.393 . S
C3704 H3693 0.950 . S
C3704 C3702 1.391 . S
C3704 C3705 1.400 . S
C3705 C3699 1.491 . S
C3705 C3704 1.400 . S
C3705 C3706 1.398 . S
C3706 H3694 0.950 . S
C3706 C3705 1.398 . S
C3706 C3707 1.391 . S
C3707 H3695 0.950 . S
C3707 C3703 1.393 . S
C3707 C3706 1.391 . S
H3708 C3716 0.950 . S
H3709 C3721 0.950 . S
H3710 C3718 0.950 . S
H3711 C3720 0.950 . S
H3712 C3722 0.950 . S
H3713 C3724 0.950 . S
H3714 C3726 0.950 . S
H3715 C3727 0.950 . S
C3716 H3708 0.950 . S
C3716 C3717 1.386 . S
C3716 C3718 1.391 . S
C3717 C3716 1.386 . S
C3717 C3721 1.393 . S
C3718 H3710 0.950 . S
C3718 C3716 1.391 . S
C3718 C3719 1.400 . S
C3719 C3718 1.400 . S
C3719 C3720 1.398 . S
C3719 C3725 1.491 . S
C3720 H3711 0.950 . S
C3720 C3719 1.398 . S
C3720 C3721 1.391 . S
C3721 H3709 0.950 . S
C3721 C3717 1.393 . S
C3721 C3720 1.391 . S
C3722 H3712 0.950 . S
C3722 C3723 1.386 . S
C3722 C3724 1.391 . S
C3723 C3722 1.386 . S
C3723 C3727 1.393 . S
C3724 H3713 0.950 . S
C3724 C3722 1.391 . S
C3724 C3725 1.400 . S
C3725 C3719 1.491 . S
C3725 C3724 1.400 . S
C3725 C3726 1.398 . S
C3726 H3714 0.950 . S
C3726 C3725 1.398 . S
C3726 C3727 1.391 . S
C3727 H3715 0.950 . S
C3727 C3723 1.393 . S
C3727 C3726 1.391 . S
H3728 C3736 0.950 . S
H3729 C3741 0.950 . S
H3730 C3738 0.950 . S
H3731 C3740 0.950 . S
H3732 C3742 0.950 . S
H3733 C3744 0.950 . S
H3734 C3746 0.950 . S
H3735 C3747 0.950 . S
C3736 H3728 0.950 . S
C3736 C3737 1.386 . S
C3736 C3738 1.391 . S
C3737 C3736 1.386 . S
C3737 C3741 1.393 . S
C3738 H3730 0.950 . S
C3738 C3736 1.391 . S
C3738 C3739 1.400 . S
C3739 C3738 1.400 . S
C3739 C3740 1.398 . S
C3739 C3745 1.491 . S
C3740 H3731 0.950 . S
C3740 C3739 1.398 . S
C3740 C3741 1.391 . S
C3741 H3729 0.950 . S
C3741 C3737 1.393 . S
C3741 C3740 1.391 . S
C3742 H3732 0.950 . S
C3742 C3743 1.386 . S
C3742 C3744 1.391 . S
C3743 C3742 1.386 . S
C3743 C3747 1.393 . S
C3744 H3733 0.950 . S
C3744 C3742 1.391 . S
C3744 C3745 1.400 . S
C3745 C3739 1.491 . S
C3745 C3744 1.400 . S
C3745 C3746 1.398 . S
C3746 H3734 0.950 . S
C3746 C3745 1.398 . S
C3746 C3747 1.391 . S
C3747 H3735 0.950 . S
C3747 C3743 1.393 . S
C3747 C3746 1.391 . S
H3748 C3756 0.950 . S
H3749 C3761 0.950 . S
H3750 C3758 0.950 . S
H3751 C3760 0.950 . S
H3752 C3762 0.950 . S
H3753 C3764 0.950 . S
H3754 C3766 0.950 . S
H3755 C3767 0.950 . S
C3756 H3748 0.950 . S
C3756 C3757 1.386 . S
C3756 C3758 1.391 . S
C3757 C3756 1.386 . S
C3757 C3761 1.393 . S
C3758 H3750 0.950 . S
C3758 C3756 1.391 . S
C3758 C3759 1.400 . S
C3759 C3758 1.400 . S
C3759 C3760 1.398 . S
C3759 C3765 1.491 . S
C3760 H3751 0.950 . S
C3760 C3759 1.398 . S
C3760 C3761 1.391 . S
C3761 H3749 0.950 . S
C3761 C3757 1.393 . S
C3761 C3760 1.391 . S
C3762 H3752 0.950 . S
C3762 C3763 1.386 . S
C3762 C3764 1.391 . S
C3763 C3762 1.386 . S
C3763 C3767 1.393 . S
C3764 H3753 0.950 . S
C3764 C3762 1.391 . S
C3764 C3765 1.400 . S
C3765 C3759 1.491 . S
C3765 C3764 1.400 . S
C3765 C3766 1.398 . S
C3766 H3754 0.950 . S
C3766 C3765 1.398 . S
C3766 C3767 1.391 . S
C3767 H3755 0.950 . S
C3767 C3763 1.393 . S
C3767 C3766 1.391 . S
H3768 C3776 0.950 . S
H3769 C3781 0.950 . S
H3770 C3778 0.950 . S
H3771 C3780 0.950 . S
H3772 C3782 0.950 . S
H3773 C3784 0.950 . S
H3774 C3786 0.950 . S
H3775 C3787 0.950 . S
C3776 H3768 0.950 . S
C3776 C3777 1.386 . S
C3776 C3778 1.391 . S
C3777 C3776 1.386 . S
C3777 C3781 1.393 . S
C3778 H3770 0.950 . S
C3778 C3776 1.391 . S
C3778 C3779 1.400 . S
C3779 C3778 1.400 . S
C3779 C3780 1.398 . S
C3779 C3785 1.491 . S
C3780 H3771 0.950 . S
C3780 C3779 1.398 . S
C3780 C3781 1.391 . S
C3781 H3769 0.950 . S
C3781 C3777 1.393 . S
C3781 C3780 1.391 . S
C3782 H3772 0.950 . S
C3782 C3783 1.386 . S
C3782 C3784 1.391 . S
C3783 C3782 1.386 . S
C3783 C3787 1.393 . S
C3784 H3773 0.950 . S
C3784 C3782 1.391 . S
C3784 C3785 1.400 . S
C3785 C3779 1.491 . S
C3785 C3784 1.400 . S
C3785 C3786 1.398 . S
C3786 H3774 0.950 . S
C3786 C3785 1.398 . S
C3786 C3787 1.391 . S
C3787 H3775 0.950 . S
C3787 C3783 1.393 . S
C3787 C3786 1.391 . S
H3788 C3796 0.950 . S
H3789 C3801 0.950 . S
H3790 C3798 0.950 . S
H3791 C3800 0.950 . S
H3792 C3802 0.950 . S
H3793 C3804 0.950 . S
H3794 C3806 0.950 . S
H3795 C3807 0.950 . S
C3796 H3788 0.950 . S
C3796 C3797 1.386 . S
C3796 C3798 1.391 . S
C3797 C3796 1.386 . S
C3797 C3801 1.393 . S
C3798 H3790 0.950 . S
C3798 C3796 1.391 . S
C3798 C3799 1.400 . S
C3799 C3798 1.400 . S
C3799 C3800 1.398 . S
C3799 C3805 1.491 . S
C3800 H3791 0.950 . S
C3800 C3799 1.398 . S
C3800 C3801 1.391 . S
C3801 H3789 0.950 . S
C3801 C3797 1.393 . S
C3801 C3800 1.391 . S
C3802 H3792 0.950 . S
C3802 C3803 1.386 . S
C3802 C3804 1.391 . S
C3803 C3802 1.386 . S
C3803 C3807 1.393 . S
C3804 H3793 0.950 . S
C3804 C3802 1.391 . S
C3804 C3805 1.400 . S
C3805 C3799 1.491 . S
C3805 C3804 1.400 . S
C3805 C3806 1.398 . S
C3806 H3794 0.950 . S
C3806 C3805 1.398 . S
C3806 C3807 1.391 . S
C3807 H3795 0.950 . S
C3807 C3803 1.393 . S
C3807 C3806 1.391 . S
H3808 C3816 0.950 . S
H3809 C3821 0.950 . S
H3810 C3818 0.950 . S
H3811 C3820 0.950 . S
H3812 C3822 0.950 . S
H3813 C3824 0.950 . S
H3814 C3826 0.950 . S
H3815 C3827 0.950 . S
C3816 H3808 0.950 . S
C3816 C3817 1.386 . S
C3816 C3818 1.391 . S
C3817 C3816 1.386 . S
C3817 C3821 1.393 . S
C3818 H3810 0.950 . S
C3818 C3816 1.391 . S
C3818 C3819 1.400 . S
C3819 C3818 1.400 . S
C3819 C3820 1.398 . S
C3819 C3825 1.491 . S
C3820 H3811 0.950 . S
C3820 C3819 1.398 . S
C3820 C3821 1.391 . S
C3821 H3809 0.950 . S
C3821 C3817 1.393 . S
C3821 C3820 1.391 . S
C3822 H3812 0.950 . S
C3822 C3823 1.386 . S
C3822 C3824 1.391 . S
C3823 C3822 1.386 . S
C3823 C3827 1.393 . S
C3824 H3813 0.950 . S
C3824 C3822 1.391 . S
C3824 C3825 1.400 . S
C3825 C3819 1.491 . S
C3825 C3824 1.400 . S
C3825 C3826 1.398 . S
C3826 H3814 0.950 . S
C3826 C3825 1.398 . S
C3826 C3827 1.391 . S
C3827 H3815 0.950 . S
C3827 C3823 1.393 . S
C3827 C3826 1.391 . S
H3828 C3836 0.950 . S
H3829 C3841 0.950 . S
H3830 C3838 0.950 . S
H3831 C3840 0.950 . S
H3832 C3842 0.950 . S
H3833 C3844 0.950 . S
H3834 C3846 0.950 . S
H3835 C3847 0.950 . S
C3836 H3828 0.950 . S
C3836 C3837 1.386 . S
C3836 C3838 1.391 . S
C3837 C3836 1.386 . S
C3837 C3841 1.393 . S
C3838 H3830 0.950 . S
C3838 C3836 1.391 . S
C3838 C3839 1.400 . S
C3839 C3838 1.400 . S
C3839 C3840 1.398 . S
C3839 C3845 1.491 . S
C3840 H3831 0.950 . S
C3840 C3839 1.398 . S
C3840 C3841 1.391 . S
C3841 H3829 0.950 . S
C3841 C3837 1.393 . S
C3841 C3840 1.391 . S
C3842 H3832 0.950 . S
C3842 C3843 1.386 . S
C3842 C3844 1.391 . S
C3843 C3842 1.386 . S
C3843 C3847 1.393 . S
C3844 H3833 0.950 . S
C3844 C3842 1.391 . S
C3844 C3845 1.400 . S
C3845 C3839 1.491 . S
C3845 C3844 1.400 . S
C3845 C3846 1.398 . S
C3846 H3834 0.950 . S
C3846 C3845 1.398 . S
C3846 C3847 1.391 . S
C3847 H3835 0.950 . S
C3847 C3843 1.393 . S
C3847 C3846 1.391 . S
H3848 C3856 0.950 . S
H3849 C3861 0.950 . S
H3850 C3858 0.950 . S
H3851 C3860 0.950 . S
H3852 C3862 0.950 . S
H3853 C3864 0.950 . S
H3854 C3866 0.950 . S
H3855 C3867 0.950 . S
C3856 H3848 0.950 . S
C3856 C3857 1.386 . S
C3856 C3858 1.391 . S
C3857 C3856 1.386 . S
C3857 C3861 1.393 . S
C3858 H3850 0.950 . S
C3858 C3856 1.391 . S
C3858 C3859 1.400 . S
C3859 C3858 1.400 . S
C3859 C3860 1.398 . S
C3859 C3865 1.491 . S
C3860 H3851 0.950 . S
C3860 C3859 1.398 . S
C3860 C3861 1.391 . S
C3861 H3849 0.950 . S
C3861 C3857 1.393 . S
C3861 C3860 1.391 . S
C3862 H3852 0.950 . S
C3862 C3863 1.386 1_455 S
C3862 C3864 1.391 1_455 S
C3863 C3862 1.386 1_655 S
C3863 C3867 1.393 . S
C3864 H3853 0.950 . S
C3864 C3862 1.391 1_655 S
C3864 C3865 1.400 . S
C3865 C3859 1.491 . S
C3865 C3864 1.400 . S
C3865 C3866 1.398 . S
C3866 H3854 0.950 . S
C3866 C3865 1.398 . S
C3866 C3867 1.391 . S
C3867 H3855 0.950 . S
C3867 C3863 1.393 . S
C3867 C3866 1.391 . S
H3868 C3876 0.950 . S
H3869 C3881 0.950 . S
H3870 C3878 0.950 . S
H3871 C3880 0.950 . S
H3872 C3882 0.950 . S
H3873 C3884 0.950 . S
H3874 C3886 0.950 . S
H3875 C3887 0.950 . S
C3876 H3868 0.950 . S
C3876 C3877 1.386 . S
C3876 C3878 1.391 . S
C3877 C3876 1.386 . S
C3877 C3881 1.393 . S
C3878 H3870 0.950 . S
C3878 C3876 1.391 . S
C3878 C3879 1.400 . S
C3879 C3878 1.400 . S
C3879 C3880 1.398 . S
C3879 C3885 1.491 . S
C3880 H3871 0.950 . S
C3880 C3879 1.398 . S
C3880 C3881 1.391 . S
C3881 H3869 0.950 . S
C3881 C3877 1.393 . S
C3881 C3880 1.391 . S
C3882 H3872 0.950 . S
C3882 C3883 1.386 . S
C3882 C3884 1.391 . S
C3883 C3882 1.386 . S
C3883 C3887 1.393 . S
C3884 H3873 0.950 . S
C3884 C3882 1.391 . S
C3884 C3885 1.400 . S
C3885 C3879 1.491 . S
C3885 C3884 1.400 . S
C3885 C3886 1.398 . S
C3886 H3874 0.950 . S
C3886 C3885 1.398 . S
C3886 C3887 1.391 . S
C3887 H3875 0.950 . S
C3887 C3883 1.393 . S
C3887 C3886 1.391 . S
H3888 C3896 0.950 . S
H3889 C3901 0.950 . S
H3890 C3898 0.950 . S
H3891 C3900 0.950 . S
H3892 C3902 0.950 . S
H3893 C3904 0.950 . S
H3894 C3906 0.950 . S
H3895 C3907 0.950 . S
C3896 H3888 0.950 . S
C3896 C3897 1.386 . S
C3896 C3898 1.391 . S
C3897 C3896 1.386 . S
C3897 C3901 1.393 . S
C3898 H3890 0.950 . S
C3898 C3896 1.391 . S
C3898 C3899 1.400 . S
C3899 C3898 1.400 . S
C3899 C3900 1.398 . S
C3899 C3905 1.491 . S
C3900 H3891 0.950 . S
C3900 C3899 1.398 . S
C3900 C3901 1.391 . S
C3901 H3889 0.950 . S
C3901 C3897 1.393 . S
C3901 C3900 1.391 . S
C3902 H3892 0.950 . S
C3902 C3903 1.386 . S
C3902 C3904 1.391 . S
C3903 C3902 1.386 . S
C3903 C3907 1.393 . S
C3904 H3893 0.950 . S
C3904 C3902 1.391 . S
C3904 C3905 1.400 . S
C3905 C3899 1.491 . S
C3905 C3904 1.400 . S
C3905 C3906 1.398 . S
C3906 H3894 0.950 . S
C3906 C3905 1.398 . S
C3906 C3907 1.391 . S
C3907 H3895 0.950 . S
C3907 C3903 1.393 . S
C3907 C3906 1.391 . S
H3908 C3916 0.950 . S
H3909 C3921 0.950 . S
H3910 C3918 0.950 . S
H3911 C3920 0.950 . S
H3912 C3922 0.950 . S
H3913 C3924 0.950 . S
H3914 C3926 0.950 . S
H3915 C3927 0.950 . S
C3916 H3908 0.950 . S
C3916 C3917 1.386 . S
C3916 C3918 1.391 . S
C3917 C3916 1.386 . S
C3917 C3921 1.393 . S
C3918 H3910 0.950 . S
C3918 C3916 1.391 . S
C3918 C3919 1.400 . S
C3919 C3918 1.400 . S
C3919 C3920 1.398 . S
C3919 C3925 1.491 . S
C3920 H3911 0.950 . S
C3920 C3919 1.398 . S
C3920 C3921 1.391 . S
C3921 H3909 0.950 . S
C3921 C3917 1.393 . S
C3921 C3920 1.391 . S
C3922 H3912 0.950 . S
C3922 C3923 1.386 . S
C3922 C3924 1.391 . S
C3923 C3922 1.386 . S
C3923 C3927 1.393 . S
C3924 H3913 0.950 . S
C3924 C3922 1.391 . S
C3924 C3925 1.400 . S
C3925 C3919 1.491 . S
C3925 C3924 1.400 . S
C3925 C3926 1.398 . S
C3926 H3914 0.950 . S
C3926 C3925 1.398 . S
C3926 C3927 1.391 . S
C3927 H3915 0.950 . S
C3927 C3923 1.393 . S
C3927 C3926 1.391 . S
H3928 C3936 0.950 . S
H3929 C3941 0.950 . S
H3930 C3938 0.950 . S
H3931 C3940 0.950 . S
H3932 C3942 0.950 . S
H3933 C3944 0.950 . S
H3934 C3946 0.950 . S
H3935 C3947 0.950 . S
C3936 H3928 0.950 . S
C3936 C3937 1.386 . S
C3936 C3938 1.391 . S
C3937 C3936 1.386 . S
C3937 C3941 1.393 . S
C3938 H3930 0.950 . S
C3938 C3936 1.391 . S
C3938 C3939 1.400 . S
C3939 C3938 1.400 . S
C3939 C3940 1.398 . S
C3939 C3945 1.491 . S
C3940 H3931 0.950 . S
C3940 C3939 1.398 . S
C3940 C3941 1.391 . S
C3941 H3929 0.950 . S
C3941 C3937 1.393 . S
C3941 C3940 1.391 . S
C3942 H3932 0.950 . S
C3942 C3943 1.386 . S
C3942 C3944 1.391 . S
C3943 C3942 1.386 . S
C3943 C3947 1.393 . S
C3944 H3933 0.950 . S
C3944 C3942 1.391 . S
C3944 C3945 1.400 . S
C3945 C3939 1.491 . S
C3945 C3944 1.400 . S
C3945 C3946 1.398 . S
C3946 H3934 0.950 . S
C3946 C3945 1.398 . S
C3946 C3947 1.391 . S
C3947 H3935 0.950 . S
C3947 C3943 1.393 . S
C3947 C3946 1.391 . S
H3948 C3956 0.950 . S
H3949 C3961 0.950 . S
H3950 C3958 0.950 . S
H3951 C3960 0.950 . S
H3952 C3962 0.950 . S
H3953 C3964 0.950 . S
H3954 C3966 0.950 . S
H3955 C3967 0.950 . S
C3956 H3948 0.950 . S
C3956 C3957 1.386 . S
C3956 C3958 1.391 . S
C3957 C3956 1.386 . S
C3957 C3961 1.393 . S
C3958 H3950 0.950 . S
C3958 C3956 1.391 . S
C3958 C3959 1.400 . S
C3959 C3958 1.400 . S
C3959 C3960 1.398 . S
C3959 C3965 1.491 . S
C3960 H3951 0.950 . S
C3960 C3959 1.398 . S
C3960 C3961 1.391 . S
C3961 H3949 0.950 . S
C3961 C3957 1.393 . S
C3961 C3960 1.391 . S
C3962 H3952 0.950 . S
C3962 C3963 1.386 . S
C3962 C3964 1.391 . S
C3963 C3962 1.386 . S
C3963 C3967 1.393 . S
C3964 H3953 0.950 . S
C3964 C3962 1.391 . S
C3964 C3965 1.400 . S
C3965 C3959 1.491 . S
C3965 C3964 1.400 . S
C3965 C3966 1.398 . S
C3966 H3954 0.950 . S
C3966 C3965 1.398 . S
C3966 C3967 1.391 . S
C3967 H3955 0.950 . S
C3967 C3963 1.393 . S
C3967 C3966 1.391 . S
H3968 C3976 0.950 . S
H3969 C3981 0.950 . S
H3970 C3978 0.950 . S
H3971 C3980 0.950 . S
H3972 C3982 0.950 . S
H3973 C3984 0.950 . S
H3974 C3986 0.950 . S
H3975 C3987 0.950 . S
C3976 H3968 0.950 . S
C3976 C3977 1.386 . S
C3976 C3978 1.391 . S
C3977 C3976 1.386 . S
C3977 C3981 1.393 . S
C3978 H3970 0.950 . S
C3978 C3976 1.391 . S
C3978 C3979 1.400 . S
C3979 C3978 1.400 . S
C3979 C3980 1.398 . S
C3979 C3985 1.491 . S
C3980 H3971 0.950 . S
C3980 C3979 1.398 . S
C3980 C3981 1.391 . S
C3981 H3969 0.950 . S
C3981 C3977 1.393 . S
C3981 C3980 1.391 . S
C3982 H3972 0.950 . S
C3982 C3983 1.386 . S
C3982 C3984 1.391 . S
C3983 C3982 1.386 . S
C3983 C3987 1.393 . S
C3984 H3973 0.950 . S
C3984 C3982 1.391 . S
C3984 C3985 1.400 . S
C3985 C3979 1.491 . S
C3985 C3984 1.400 . S
C3985 C3986 1.398 . S
C3986 H3974 0.950 . S
C3986 C3985 1.398 . S
C3986 C3987 1.391 . S
C3987 H3975 0.950 . S
C3987 C3983 1.393 . S
C3987 C3986 1.391 . S
H3988 C3996 0.950 . S
H3989 C4001 0.950 . S
H3990 C3998 0.950 . S
H3991 C4000 0.950 . S
H3992 C4002 0.950 . S
H3993 C4004 0.950 . S
H3994 C4006 0.950 . S
H3995 C4007 0.950 1_545 S
C3996 H3988 0.950 . S
C3996 C3997 1.386 . S
C3996 C3998 1.391 . S
C3997 C3996 1.386 . S
C3997 C4001 1.393 . S
C3998 H3990 0.950 . S
C3998 C3996 1.391 . S
C3998 C3999 1.400 . S
C3999 C3998 1.400 . S
C3999 C4000 1.398 . S
C3999 C4005 1.491 . S
C4000 H3991 0.950 . S
C4000 C3999 1.398 . S
C4000 C4001 1.391 . S
C4001 H3989 0.950 . S
C4001 C3997 1.393 . S
C4001 C4000 1.391 . S
C4002 H3992 0.950 . S
C4002 C4003 1.386 . S
C4002 C4004 1.391 . S
C4003 C4002 1.386 . S
C4003 C4007 1.393 . S
C4004 H3993 0.950 . S
C4004 C4002 1.391 . S
C4004 C4005 1.400 . S
C4005 C3999 1.491 . S
C4005 C4004 1.400 . S
C4005 C4006 1.398 . S
C4006 H3994 0.950 . S
C4006 C4005 1.398 . S
C4006 C4007 1.391 . S
C4007 H3995 0.950 1_565 S
C4007 C4003 1.393 . S
C4007 C4006 1.391 . S
H4008 C4016 0.950 . S
H4009 C4021 0.950 . S
H4010 C4018 0.950 . S
H4011 C4020 0.950 . S
H4012 C4022 0.950 . S
H4013 C4024 0.950 . S
H4014 C4026 0.950 . S
H4015 C4027 0.950 . S
C4016 H4008 0.950 . S
C4016 C4017 1.386 . S
C4016 C4018 1.391 . S
C4017 C4016 1.386 . S
C4017 C4021 1.393 . S
C4018 H4010 0.950 . S
C4018 C4016 1.391 . S
C4018 C4019 1.400 . S
C4019 C4018 1.400 . S
C4019 C4020 1.398 . S
C4019 C4025 1.491 . S
C4020 H4011 0.950 . S
C4020 C4019 1.398 . S
C4020 C4021 1.391 . S
C4021 H4009 0.950 . S
C4021 C4017 1.393 . S
C4021 C4020 1.391 . S
C4022 H4012 0.950 . S
C4022 C4023 1.386 . S
C4022 C4024 1.391 . S
C4023 C4022 1.386 . S
C4023 C4027 1.393 . S
C4024 H4013 0.950 . S
C4024 C4022 1.391 . S
C4024 C4025 1.400 . S
C4025 C4019 1.491 . S
C4025 C4024 1.400 . S
C4025 C4026 1.398 . S
C4026 H4014 0.950 . S
C4026 C4025 1.398 . S
C4026 C4027 1.391 . S
C4027 H4015 0.950 . S
C4027 C4023 1.393 . S
C4027 C4026 1.391 . S
H4028 C4036 0.950 . S
H4029 C4041 0.950 . S
H4030 C4038 0.950 . S
H4031 C4040 0.950 . S
H4032 C4042 0.950 . S
H4033 C4044 0.950 . S
H4034 C4046 0.950 . S
H4035 C4047 0.950 . S
C4036 H4028 0.950 . S
C4036 C4037 1.386 . S
C4036 C4038 1.391 . S
C4037 C4036 1.386 . S
C4037 C4041 1.393 . S
C4038 H4030 0.950 . S
C4038 C4036 1.391 . S
C4038 C4039 1.400 . S
C4039 C4038 1.400 . S
C4039 C4040 1.398 . S
C4039 C4045 1.491 . S
C4040 H4031 0.950 . S
C4040 C4039 1.398 . S
C4040 C4041 1.391 . S
C4041 H4029 0.950 . S
C4041 C4037 1.393 . S
C4041 C4040 1.391 . S
C4042 H4032 0.950 . S
C4042 C4043 1.386 . S
C4042 C4044 1.391 . S
C4043 C4042 1.386 . S
C4043 C4047 1.393 . S
C4044 H4033 0.950 . S
C4044 C4042 1.391 . S
C4044 C4045 1.400 . S
C4045 C4039 1.491 . S
C4045 C4044 1.400 . S
C4045 C4046 1.398 . S
C4046 H4034 0.950 . S
C4046 C4045 1.398 . S
C4046 C4047 1.391 . S
C4047 H4035 0.950 . S
C4047 C4043 1.393 . S
C4047 C4046 1.391 . S
H4048 C4056 0.950 . S
H4049 C4061 0.950 . S
H4050 C4058 0.950 . S
H4051 C4060 0.950 . S
H4052 C4062 0.950 . S
H4053 C4064 0.950 . S
H4054 C4066 0.950 . S
H4055 C4067 0.950 . S
C4056 H4048 0.950 . S
C4056 C4057 1.386 . S
C4056 C4058 1.391 . S
C4057 C4056 1.386 . S
C4057 C4061 1.393 . S
C4058 H4050 0.950 . S
C4058 C4056 1.391 . S
C4058 C4059 1.400 . S
C4059 C4058 1.400 . S
C4059 C4060 1.398 . S
C4059 C4065 1.491 . S
C4060 H4051 0.950 . S
C4060 C4059 1.398 . S
C4060 C4061 1.391 . S
C4061 H4049 0.950 . S
C4061 C4057 1.393 . S
C4061 C4060 1.391 . S
C4062 H4052 0.950 . S
C4062 C4063 1.386 . S
C4062 C4064 1.391 . S
C4063 C4062 1.386 . S
C4063 C4067 1.393 . S
C4064 H4053 0.950 . S
C4064 C4062 1.391 . S
C4064 C4065 1.400 . S
C4065 C4059 1.491 . S
C4065 C4064 1.400 . S
C4065 C4066 1.398 . S
C4066 H4054 0.950 . S
C4066 C4065 1.398 . S
C4066 C4067 1.391 . S
C4067 H4055 0.950 . S
C4067 C4063 1.393 . S
C4067 C4066 1.391 . S
H4068 C4076 0.950 . S
H4069 C4081 0.950 . S
H4070 C4078 0.950 . S
H4071 C4080 0.950 . S
H4072 C4082 0.950 . S
H4073 C4084 0.950 . S
H4074 C4086 0.950 . S
H4075 C4087 0.950 1_556 S
C4076 H4068 0.950 . S
C4076 C4077 1.386 . S
C4076 C4078 1.391 . S
C4077 C4076 1.386 . S
C4077 C4081 1.393 . S
C4078 H4070 0.950 . S
C4078 C4076 1.391 . S
C4078 C4079 1.400 . S
C4079 C4078 1.400 . S
C4079 C4080 1.398 . S
C4079 C4085 1.491 . S
C4080 H4071 0.950 . S
C4080 C4079 1.398 . S
C4080 C4081 1.391 . S
C4081 H4069 0.950 . S
C4081 C4077 1.393 . S
C4081 C4080 1.391 . S
C4082 H4072 0.950 . S
C4082 C4083 1.386 . S
C4082 C4084 1.391 . S
C4083 C4082 1.386 . S
C4083 C4087 1.393 . S
C4084 H4073 0.950 . S
C4084 C4082 1.391 . S
C4084 C4085 1.400 . S
C4085 C4079 1.491 . S
C4085 C4084 1.400 . S
C4085 C4086 1.398 . S
C4086 H4074 0.950 . S
C4086 C4085 1.398 . S
C4086 C4087 1.391 . S
C4087 H4075 0.950 1_554 S
C4087 C4083 1.393 . S
C4087 C4086 1.391 . S
H4088 C4096 0.950 . S
H4089 C4101 0.950 . S
H4090 C4098 0.950 . S
H4091 C4100 0.950 . S
H4092 C4102 0.950 . S
H4093 C4104 0.950 . S
H4094 C4106 0.950 . S
H4095 C4107 0.950 . S
C4096 H4088 0.950 . S
C4096 C4097 1.386 . S
C4096 C4098 1.391 . S
C4097 C4096 1.386 . S
C4097 C4101 1.393 . S
C4098 H4090 0.950 . S
C4098 C4096 1.391 . S
C4098 C4099 1.400 . S
C4099 C4098 1.400 . S
C4099 C4100 1.398 . S
C4099 C4105 1.491 . S
C4100 H4091 0.950 . S
C4100 C4099 1.398 . S
C4100 C4101 1.391 . S
C4101 H4089 0.950 . S
C4101 C4097 1.393 . S
C4101 C4100 1.391 . S
C4102 H4092 0.950 . S
C4102 C4103 1.386 . S
C4102 C4104 1.391 . S
C4103 C4102 1.386 . S
C4103 C4107 1.393 . S
C4104 H4093 0.950 . S
C4104 C4102 1.391 . S
C4104 C4105 1.400 . S
C4105 C4099 1.491 . S
C4105 C4104 1.400 . S
C4105 C4106 1.398 . S
C4106 H4094 0.950 . S
C4106 C4105 1.398 . S
C4106 C4107 1.391 . S
C4107 H4095 0.950 . S
C4107 C4103 1.393 . S
C4107 C4106 1.391 . S
H4108 C4116 0.950 . S
H4109 C4121 0.950 . S
H4110 C4118 0.950 . S
H4111 C4120 0.950 . S
H4112 C4122 0.950 . S
H4113 C4124 0.950 . S
H4114 C4126 0.950 . S
H4115 C4127 0.950 . S
C4116 H4108 0.950 . S
C4116 C4117 1.386 . S
C4116 C4118 1.391 . S
C4117 C4116 1.386 . S
C4117 C4121 1.393 . S
C4118 H4110 0.950 . S
C4118 C4116 1.391 . S
C4118 C4119 1.400 . S
C4119 C4118 1.400 . S
C4119 C4120 1.398 . S
C4119 C4125 1.491 . S
C4120 H4111 0.950 . S
C4120 C4119 1.398 . S
C4120 C4121 1.391 . S
C4121 H4109 0.950 . S
C4121 C4117 1.393 . S
C4121 C4120 1.391 . S
C4122 H4112 0.950 . S
C4122 C4123 1.386 . S
C4122 C4124 1.391 . S
C4123 C4122 1.386 . S
C4123 C4127 1.393 . S
C4124 H4113 0.950 . S
C4124 C4122 1.391 . S
C4124 C4125 1.400 . S
C4125 C4119 1.491 . S
C4125 C4124 1.400 . S
C4125 C4126 1.398 . S
C4126 H4114 0.950 . S
C4126 C4125 1.398 . S
C4126 C4127 1.391 . S
C4127 H4115 0.950 . S
C4127 C4123 1.393 . S
C4127 C4126 1.391 . S
C2217 C255 2.067 . S
C2223 C920 2.083 . S
C2237 C147 1.864 . S
C2243 C1022 1.861 . S
C2257 C184 1.773 . S
C2263 C1088 1.801 . S
C2283 C1174 1.391 . S
C2277 C220 1.503 . S
C2297 C40 1.473 . S
C2303 C1258 1.374 . S
C2323 C1340 1.904 . S
C2317 C74 1.847 . S
C2343 C1442 1.889 . S
C2337 C110 1.907 . S
C2357 C14 2.048 . S
C2363 C1508 2.045 . S
C2383 C938 1.714 . S
C2377 C579 1.757 . S
C2397 C616 0.941 . S
C2403 C1006 0.918 . S
C2423 C1106 1.191 . S
C2417 C687 1.197 . S
C2443 C1172 1.672 . S
C2437 C436 1.653 . S
C2457 C580 1.631 . S
C2463 C1256 1.644 . S
C2483 C1358 1.159 . S
C2477 C615 1.156 . S
C2503 C1426 0.877 . S
C2497 C688 0.945 . S
C2523 C1526 1.698 . S
C2517 C435 1.735 . S
C2543 C922 0.962 . S
C2537 C410 0.997 . S
C2557 C722 1.724 . S
C2563 C1610 1.707 . S
C2583 C1678 1.334 . S
C2577 C842 1.393 . S
C2603 C1760 0.861 . S
C2597 C794 0.862 . S
C2617 C302 1.031 . S
C2623 C1510 1.016 . S
C2637 C338 1.382 . S
C2643 C1090 1.332 . S
C2657 C830 1.753 . S
C2663 C1862 1.730 . S
C2683 C1928 0.914 . S
C2677 C758 0.902 . S
C2703 C931 2.059 . S
C2697 C158 1.957 . S
C2723 C1935 1.836 . S
C2717 C254 1.847 . S
C2737 C218 1.781 . S
C2743 C1099 1.821 . S
C2757 C194 1.418 . S
C2763 C1857 1.387 . S
C2783 C1269 1.371 . S
C2777 C3 1.455 . S
C2797 C111 1.731 . S
C2803 C1687 1.728 . S
C2823 C1431 1.851 1_556 S
C2817 C76 1.847 . S
C2843 C2023 2.113 . S
C2837 C50 1.993 . S
C2863 C927 1.660 . S
C2857 C364 1.709 . S
C2883 C1941 0.864 . S
C2877 C795 0.911 . S
C2897 C292 1.143 . S
C2903 C1095 1.141 . S
C2917 C723 1.608 . S
C2923 C1855 1.607 . S
C2937 C363 1.620 . S
C2943 C1267 1.612 . S
C2963 C1683 1.136 . S
C2957 C796 1.164 . S
C2977 C291 0.926 . S
C2983 C1437 0.893 . S
C2997 C724 1.730 . S
C3003 C2019 1.692 . S
C3017 C482 0.945 . S
C3023 C933 0.985 . S
C3037 C434 1.686 . S
C3043 C1599 1.675 . S
C3057 C662 1.348 . S
C3063 C1353 1.333 . S
C3077 C614 0.840 . S
C3083 C1771 0.843 . S
C3103 C2025 1.001 . S
C3097 C698 0.951 . S
C3117 C554 1.337 . S
C3123 C1101 1.341 . S
C3143 C1179 1.690 . S
C3137 C650 1.695 . S
C3163 C1015 0.854 . S
C3157 C506 0.851 . S
C3177 C183 2.060 . S
C3183 C2096 2.079 . S
C3203 C1946 1.866 . S
C3197 C219 1.852 . S
C3217 C256 1.773 . S
C3223 C2180 1.802 . S
C3237 C148 1.501 1_655 S
C3243 C1846 1.392 . S
C3257 C122 1.470 . S
C3263 C1594 1.425 . S
C3283 C1676 1.839 . S
C3277 C2 1.788 1_655 S
C3303 C1778 1.800 . S
C3297 C39 1.795 . S
C3323 C2012 2.117 . S
C3317 C86 2.119 . S
C3343 C2114 1.727 . S
C3337 C651 1.761 . S
C3357 C472 0.942 1_556 S
C3363 C1930 0.926 . S
C3383 C2198 1.168 . S
C3377 C507 1.184 . S
C3403 C1844 1.681 . S
C3397 C544 1.663 . S
C3423 C1592 1.642 . S
C3417 C652 1.624 . S
C3437 C471 1.163 . S
C3443 C1694 1.152 . S
C3463 C1762 0.923 . S
C3457 C508 0.936 . S
C3477 C543 1.757 . S
C3483 C2030 1.726 . S
C3503 C2098 0.981 . S
C3497 C806 1.023 . S
C3517 C326 1.709 . S
C3523 C1274 1.689 . S
C3543 C1342 1.347 . S
C3537 C374 1.386 1_565 S
C3563 C1424 0.868 . S
C3557 C398 0.876 . S
C3583 C2014 0.970 . S
C3577 C770 1.017 . S
C3597 C734 1.358 . S
C3603 C2182 1.320 . S
C3623 C1190 1.727 . S
C3617 C362 1.732 . S
C3643 C1004 0.940 . S
C3637 C290 0.933 . S
C3657 C230 1.944 . S
C3663 C2107 2.056 . S
C3683 C1011 1.839 . S
C3677 C182 1.853 . S
C3697 C146 1.774 . S
C3703 C2191 1.825 . S
C3717 C266 1.416 . S
C3723 C1185 1.394 . S
C3737 C75 1.492 . S
C3743 C1605 1.399 . S
C3763 C1351 1.887 . S
C3757 C38 1.844 . S
C3777 C4 1.776 . S
C3783 C1767 1.790 . S
C3797 C112 2.006 . S
C3803 C1519 2.025 . S
C3823 C2103 1.661 . S
C3817 C832 1.710 . S
C3837 C399 0.909 . S
C3843 C1017 0.857 . S
C3863 C2187 1.138 1_655 S
C3857 C760 1.140 . S
C3877 C327 1.603 . S
C3883 C1183 1.595 . S
C3897 C831 1.646 . S
C3903 C1603 1.640 . S
C3923 C1347 1.153 . S
C3917 C400 1.172 . S
C3937 C759 0.927 . S
C3943 C1773 0.919 . S
C3963 C1515 1.697 . S
C3957 C328 1.732 . S
C3983 C2109 0.967 . S
C3977 C626 0.984 . S
C4003 C1263 1.679 1_565 S
C3997 C542 1.698 . S
C4017 C590 1.295 . S
C4023 C1689 1.324 . S
C4043 C1435 0.857 . S
C4037 C470 0.840 . S
C4057 C518 0.968 . S
C4063 C1521 0.949 . S
C4077 C446 1.329 . S
C4083 C2193 1.334 . S
C4103 C1851 1.703 . S
C4097 C578 1.710 . S
C4123 C1939 0.826 . S
C4117 C686 0.818 . S
