# Generated by pormake.
# Topology gar, (4,6)-cn, num edge types: 1
# Building blocks:
#     Node 0, Type 0, BuildingBlock: CEKHIL_clean_sbu_0, # of connection points: 4
#     Node 1, Type 0, BuildingBlock: CEKHIL_clean_sbu_0, # of connection points: 4
#     Node 2, Type 0, BuildingBlock: CEKHIL_clean_sbu_0, # of connection points: 4
#     Node 3, Type 0, BuildingBlock: CEKHIL_clean_sbu_0, # of connection points: 4
#     Node 4, Type 0, BuildingBlock: CEKHIL_clean_sbu_0, # of connection points: 4
#     Node 5, Type 0, BuildingBlock: CEKHIL_clean_sbu_0, # of connection points: 4
#     Node 6, Type 0, BuildingBlock: CEKHIL_clean_sbu_0, # of connection points: 4
#     Node 7, Type 0, BuildingBlock: CEKHIL_clean_sbu_0, # of connection points: 4
#     Node 8, Type 0, BuildingBlock: CEKHIL_clean_sbu_0, # of connection points: 4
#     Node 9, Type 0, BuildingBlock: CEKHIL_clean_sbu_0, # of connection points: 4
#     Node 10, Type 0, BuildingBlock: CEKHIL_clean_sbu_0, # of connection points: 4
#     Node 11, Type 0, BuildingBlock: CEKHIL_clean_sbu_0, # of connection points: 4
#     Node 12, Type 0, BuildingBlock: CEKHIL_clean_sbu_0, # of connection points: 4
#     Node 13, Type 0, BuildingBlock: CEKHIL_clean_sbu_0, # of connection points: 4
#     Node 14, Type 0, BuildingBlock: CEKHIL_clean_sbu_0, # of connection points: 4
#     Node 15, Type 0, BuildingBlock: CEKHIL_clean_sbu_0, # of connection points: 4
#     Node 16, Type 0, BuildingBlock: CEKHIL_clean_sbu_0, # of connection points: 4
#     Node 17, Type 0, BuildingBlock: CEKHIL_clean_sbu_0, # of connection points: 4
#     Node 18, Type 0, BuildingBlock: CEKHIL_clean_sbu_0, # of connection points: 4
#     Node 19, Type 0, BuildingBlock: CEKHIL_clean_sbu_0, # of connection points: 4
#     Node 20, Type 0, BuildingBlock: CEKHIL_clean_sbu_0, # of connection points: 4
#     Node 21, Type 0, BuildingBlock: CEKHIL_clean_sbu_0, # of connection points: 4
#     Node 22, Type 0, BuildingBlock: CEKHIL_clean_sbu_0, # of connection points: 4
#     Node 23, Type 0, BuildingBlock: CEKHIL_clean_sbu_0, # of connection points: 4
#     Node 24, Type 1, BuildingBlock: BETDIP_clean_sbu_0, # of connection points: 6
#     Node 25, Type 1, BuildingBlock: BETDIP_clean_sbu_0, # of connection points: 6
#     Node 26, Type 1, BuildingBlock: BETDIP_clean_sbu_0, # of connection points: 6
#     Node 27, Type 1, BuildingBlock: BETDIP_clean_sbu_0, # of connection points: 6
#     Node 28, Type 1, BuildingBlock: BETDIP_clean_sbu_0, # of connection points: 6
#     Node 29, Type 1, BuildingBlock: BETDIP_clean_sbu_0, # of connection points: 6
#     Node 30, Type 1, BuildingBlock: BETDIP_clean_sbu_0, # of connection points: 6
#     Node 31, Type 1, BuildingBlock: BETDIP_clean_sbu_0, # of connection points: 6
#     Node 32, Type 1, BuildingBlock: BETDIP_clean_sbu_0, # of connection points: 6
#     Node 33, Type 1, BuildingBlock: BETDIP_clean_sbu_0, # of connection points: 6
#     Node 34, Type 1, BuildingBlock: BETDIP_clean_sbu_0, # of connection points: 6
#     Node 35, Type 1, BuildingBlock: BETDIP_clean_sbu_0, # of connection points: 6
#     Node 36, Type 1, BuildingBlock: BETDIP_clean_sbu_0, # of connection points: 6
#     Node 37, Type 1, BuildingBlock: BETDIP_clean_sbu_0, # of connection points: 6
#     Node 38, Type 1, BuildingBlock: BETDIP_clean_sbu_0, # of connection points: 6
#     Node 39, Type 1, BuildingBlock: BETDIP_clean_sbu_0, # of connection points: 6
#     Edge 40, Type (0, 1), BuildingBlock: UVAHIK_clean_linker_0, # of connection points: 2
#     Edge 41, Type (0, 1), BuildingBlock: UVAHIK_clean_linker_0, # of connection points: 2
#     Edge 42, Type (0, 1), BuildingBlock: UVAHIK_clean_linker_0, # of connection points: 2
#     Edge 43, Type (0, 1), BuildingBlock: UVAHIK_clean_linker_0, # of connection points: 2
#     Edge 44, Type (0, 1), BuildingBlock: UVAHIK_clean_linker_0, # of connection points: 2
#     Edge 45, Type (0, 1), BuildingBlock: UVAHIK_clean_linker_0, # of connection points: 2
#     Edge 46, Type (0, 1), BuildingBlock: UVAHIK_clean_linker_0, # of connection points: 2
#     Edge 47, Type (0, 1), BuildingBlock: UVAHIK_clean_linker_0, # of connection points: 2
#     Edge 48, Type (0, 1), BuildingBlock: UVAHIK_clean_linker_0, # of connection points: 2
#     Edge 49, Type (0, 1), BuildingBlock: UVAHIK_clean_linker_0, # of connection points: 2
#     Edge 50, Type (0, 1), BuildingBlock: UVAHIK_clean_linker_0, # of connection points: 2
#     Edge 51, Type (0, 1), BuildingBlock: UVAHIK_clean_linker_0, # of connection points: 2
#     Edge 52, Type (0, 1), BuildingBlock: UVAHIK_clean_linker_0, # of connection points: 2
#     Edge 53, Type (0, 1), BuildingBlock: UVAHIK_clean_linker_0, # of connection points: 2
#     Edge 54, Type (0, 1), BuildingBlock: UVAHIK_clean_linker_0, # of connection points: 2
#     Edge 55, Type (0, 1), BuildingBlock: UVAHIK_clean_linker_0, # of connection points: 2
#     Edge 56, Type (0, 1), BuildingBlock: UVAHIK_clean_linker_0, # of connection points: 2
#     Edge 57, Type (0, 1), BuildingBlock: UVAHIK_clean_linker_0, # of connection points: 2
#     Edge 58, Type (0, 1), BuildingBlock: UVAHIK_clean_linker_0, # of connection points: 2
#     Edge 59, Type (0, 1), BuildingBlock: UVAHIK_clean_linker_0, # of connection points: 2
#     Edge 60, Type (0, 1), BuildingBlock: UVAHIK_clean_linker_0, # of connection points: 2
#     Edge 61, Type (0, 1), BuildingBlock: UVAHIK_clean_linker_0, # of connection points: 2
#     Edge 62, Type (0, 1), BuildingBlock: UVAHIK_clean_linker_0, # of connection points: 2
#     Edge 63, Type (0, 1), BuildingBlock: UVAHIK_clean_linker_0, # of connection points: 2
#     Edge 64, Type (0, 1), BuildingBlock: UVAHIK_clean_linker_0, # of connection points: 2
#     Edge 65, Type (0, 1), BuildingBlock: UVAHIK_clean_linker_0, # of connection points: 2
#     Edge 66, Type (0, 1), BuildingBlock: UVAHIK_clean_linker_0, # of connection points: 2
#     Edge 67, Type (0, 1), BuildingBlock: UVAHIK_clean_linker_0, # of connection points: 2
#     Edge 68, Type (0, 1), BuildingBlock: UVAHIK_clean_linker_0, # of connection points: 2
#     Edge 69, Type (0, 1), BuildingBlock: UVAHIK_clean_linker_0, # of connection points: 2
#     Edge 70, Type (0, 1), BuildingBlock: UVAHIK_clean_linker_0, # of connection points: 2
#     Edge 71, Type (0, 1), BuildingBlock: UVAHIK_clean_linker_0, # of connection points: 2
#     Edge 72, Type (0, 1), BuildingBlock: UVAHIK_clean_linker_0, # of connection points: 2
#     Edge 73, Type (0, 1), BuildingBlock: UVAHIK_clean_linker_0, # of connection points: 2
#     Edge 74, Type (0, 1), BuildingBlock: UVAHIK_clean_linker_0, # of connection points: 2
#     Edge 75, Type (0, 1), BuildingBlock: UVAHIK_clean_linker_0, # of connection points: 2
#     Edge 76, Type (0, 1), BuildingBlock: UVAHIK_clean_linker_0, # of connection points: 2
#     Edge 77, Type (0, 1), BuildingBlock: UVAHIK_clean_linker_0, # of connection points: 2
#     Edge 78, Type (0, 1), BuildingBlock: UVAHIK_clean_linker_0, # of connection points: 2
#     Edge 79, Type (0, 1), BuildingBlock: UVAHIK_clean_linker_0, # of connection points: 2
#     Edge 80, Type (0, 1), BuildingBlock: UVAHIK_clean_linker_0, # of connection points: 2
#     Edge 81, Type (0, 1), BuildingBlock: UVAHIK_clean_linker_0, # of connection points: 2
#     Edge 82, Type (0, 1), BuildingBlock: UVAHIK_clean_linker_0, # of connection points: 2
#     Edge 83, Type (0, 1), BuildingBlock: UVAHIK_clean_linker_0, # of connection points: 2
#     Edge 84, Type (0, 1), BuildingBlock: UVAHIK_clean_linker_0, # of connection points: 2
#     Edge 85, Type (0, 1), BuildingBlock: UVAHIK_clean_linker_0, # of connection points: 2
#     Edge 86, Type (0, 1), BuildingBlock: UVAHIK_clean_linker_0, # of connection points: 2
#     Edge 87, Type (0, 1), BuildingBlock: UVAHIK_clean_linker_0, # of connection points: 2
#     Edge 88, Type (0, 1), BuildingBlock: UVAHIK_clean_linker_0, # of connection points: 2
#     Edge 89, Type (0, 1), BuildingBlock: UVAHIK_clean_linker_0, # of connection points: 2
#     Edge 90, Type (0, 1), BuildingBlock: UVAHIK_clean_linker_0, # of connection points: 2
#     Edge 91, Type (0, 1), BuildingBlock: UVAHIK_clean_linker_0, # of connection points: 2
#     Edge 92, Type (0, 1), BuildingBlock: UVAHIK_clean_linker_0, # of connection points: 2
#     Edge 93, Type (0, 1), BuildingBlock: UVAHIK_clean_linker_0, # of connection points: 2
#     Edge 94, Type (0, 1), BuildingBlock: UVAHIK_clean_linker_0, # of connection points: 2
#     Edge 95, Type (0, 1), BuildingBlock: UVAHIK_clean_linker_0, # of connection points: 2
#     Edge 96, Type (0, 1), BuildingBlock: UVAHIK_clean_linker_0, # of connection points: 2
#     Edge 97, Type (0, 1), BuildingBlock: UVAHIK_clean_linker_0, # of connection points: 2
#     Edge 98, Type (0, 1), BuildingBlock: UVAHIK_clean_linker_0, # of connection points: 2
#     Edge 99, Type (0, 1), BuildingBlock: UVAHIK_clean_linker_0, # of connection points: 2
#     Edge 100, Type (0, 1), BuildingBlock: UVAHIK_clean_linker_0, # of connection points: 2
#     Edge 101, Type (0, 1), BuildingBlock: UVAHIK_clean_linker_0, # of connection points: 2
#     Edge 102, Type (0, 1), BuildingBlock: UVAHIK_clean_linker_0, # of connection points: 2
#     Edge 103, Type (0, 1), BuildingBlock: UVAHIK_clean_linker_0, # of connection points: 2
#     Edge 104, Type (0, 1), BuildingBlock: UVAHIK_clean_linker_0, # of connection points: 2
#     Edge 105, Type (0, 1), BuildingBlock: UVAHIK_clean_linker_0, # of connection points: 2
#     Edge 106, Type (0, 1), BuildingBlock: UVAHIK_clean_linker_0, # of connection points: 2
#     Edge 107, Type (0, 1), BuildingBlock: UVAHIK_clean_linker_0, # of connection points: 2
#     Edge 108, Type (0, 1), BuildingBlock: UVAHIK_clean_linker_0, # of connection points: 2
#     Edge 109, Type (0, 1), BuildingBlock: UVAHIK_clean_linker_0, # of connection points: 2
#     Edge 110, Type (0, 1), BuildingBlock: UVAHIK_clean_linker_0, # of connection points: 2
#     Edge 111, Type (0, 1), BuildingBlock: UVAHIK_clean_linker_0, # of connection points: 2
#     Edge 112, Type (0, 1), BuildingBlock: UVAHIK_clean_linker_0, # of connection points: 2
#     Edge 113, Type (0, 1), BuildingBlock: UVAHIK_clean_linker_0, # of connection points: 2
#     Edge 114, Type (0, 1), BuildingBlock: UVAHIK_clean_linker_0, # of connection points: 2
#     Edge 115, Type (0, 1), BuildingBlock: UVAHIK_clean_linker_0, # of connection points: 2
#     Edge 116, Type (0, 1), BuildingBlock: UVAHIK_clean_linker_0, # of connection points: 2
#     Edge 117, Type (0, 1), BuildingBlock: UVAHIK_clean_linker_0, # of connection points: 2
#     Edge 118, Type (0, 1), BuildingBlock: UVAHIK_clean_linker_0, # of connection points: 2
#     Edge 119, Type (0, 1), BuildingBlock: UVAHIK_clean_linker_0, # of connection points: 2
#     Edge 120, Type (0, 1), BuildingBlock: UVAHIK_clean_linker_0, # of connection points: 2
#     Edge 121, Type (0, 1), BuildingBlock: UVAHIK_clean_linker_0, # of connection points: 2
#     Edge 122, Type (0, 1), BuildingBlock: UVAHIK_clean_linker_0, # of connection points: 2
#     Edge 123, Type (0, 1), BuildingBlock: UVAHIK_clean_linker_0, # of connection points: 2
#     Edge 124, Type (0, 1), BuildingBlock: UVAHIK_clean_linker_0, # of connection points: 2
#     Edge 125, Type (0, 1), BuildingBlock: UVAHIK_clean_linker_0, # of connection points: 2
#     Edge 126, Type (0, 1), BuildingBlock: UVAHIK_clean_linker_0, # of connection points: 2
#     Edge 127, Type (0, 1), BuildingBlock: UVAHIK_clean_linker_0, # of connection points: 2
#     Edge 128, Type (0, 1), BuildingBlock: UVAHIK_clean_linker_0, # of connection points: 2
#     Edge 129, Type (0, 1), BuildingBlock: UVAHIK_clean_linker_0, # of connection points: 2
#     Edge 130, Type (0, 1), BuildingBlock: UVAHIK_clean_linker_0, # of connection points: 2
#     Edge 131, Type (0, 1), BuildingBlock: UVAHIK_clean_linker_0, # of connection points: 2
#     Edge 132, Type (0, 1), BuildingBlock: UVAHIK_clean_linker_0, # of connection points: 2
#     Edge 133, Type (0, 1), BuildingBlock: UVAHIK_clean_linker_0, # of connection points: 2
#     Edge 134, Type (0, 1), BuildingBlock: UVAHIK_clean_linker_0, # of connection points: 2
#     Edge 135, Type (0, 1), BuildingBlock: UVAHIK_clean_linker_0, # of connection points: 2
# Relax obj value: 0.150
# Max RMSD: 0.270
# Mean RMSD: 0.139
data_MOF--net-gar--node1-CEKHIL_clean_sbu_0--node2-BETDIP_clean_sbu_0--edge1-UVAHIK_clean_linker_0
_symmetry_space_group_name_H-M    P1
_symmetry_Int_Tables_number       1
_symmetry_cell_setting            triclinic
loop_
_symmetry_equiv_pos_as_xyz
'x, y, z'
_cell_length_a     79.843175
_cell_length_b     72.407359
_cell_length_c     69.284417
_cell_angle_alpha  96.365291
_cell_angle_beta   97.839497
_cell_angle_gamma 100.08706
loop_
_atom_site_label
_atom_site_type_symbol
_atom_site_fract_x
_atom_site_fract_y
_atom_site_fract_z
_atom_type_partial_charge
Co0 Co 0.03725 0.30618 0.38134 0.0
O1 O 0.06122 0.30772 0.37942 0.0
O2 O 0.03955 0.29824 0.35458 0.0
C3 C 0.03969 0.33432 0.39971 0.0
O4 O 1.01127 0.30358 0.37722 0.0
Co5 Co 0.02369 0.30627 0.42145 0.0
O6 O 1.00197 0.30977 0.406 0.0
C7 C 0.03131 0.27105 0.40172 0.0
C8 C 0.05604 0.3016 0.36083 0.0
C9 C 0.99935 0.30644 0.38728 0.0
O10 O 0.03525 0.27928 0.387 0.0
O11 O 0.02723 0.27954 0.4171 0.0
O12 O 0.03944 0.33337 0.38081 0.0
O13 O 0.04038 0.31876 0.40696 0.0
Co14 Co 0.04563 0.75701 0.68511 0.0
O15 O 0.02111 0.74853 0.67878 0.0
O16 O 0.03733 0.74364 0.7056 0.0
C17 C 0.04558 0.78668 0.6784 0.0
O18 O 0.071 0.76423 0.6971 0.0
Co19 Co 0.0679 0.7716 0.65419 0.0
O20 O 0.08542 0.78187 0.6777 0.0
C21 C 0.05746 0.73034 0.65521 0.0
C22 C 0.02201 0.74222 0.69564 0.0
C23 C 0.08464 0.77496 0.69375 0.0
O24 O 0.04976 0.7331 0.67016 0.0
O25 O 0.06454 0.74363 0.64652 0.0
O26 O 0.0422 0.78215 0.69526 0.0
O27 O 0.04749 0.77301 0.6658 0.0
Co28 Co 0.53697 0.80235 0.88742 0.0
O29 O 0.56099 0.80111 0.88979 0.0
O30 O 0.54318 0.79858 0.86165 0.0
C31 C 0.53955 0.82787 0.90997 0.0
O32 O 0.5119 0.80354 0.87891 0.0
Co33 Co 0.51639 0.79754 0.92226 0.0
O34 O 0.4983 0.80621 0.90511 0.0
C35 C 0.52327 0.76388 0.8988 0.0
C36 C 0.55862 0.79887 0.87067 0.0
C37 C 0.49865 0.80606 0.88677 0.0
O38 O 0.53076 0.77415 0.88731 0.0
O39 O 0.51746 0.77049 0.91388 0.0
O40 O 0.54265 0.82992 0.89232 0.0
O41 O 0.53686 0.81069 0.91394 0.0
Co42 Co 0.54344 0.2628 0.17798 0.0
O43 O 0.51882 0.25765 0.17483 0.0
O44 O 0.53594 0.24672 0.19695 0.0
C45 C 0.54657 0.29422 0.17746 0.0
O46 O 0.56935 0.26568 0.18566 0.0
Co47 Co 0.56169 0.27922 0.14472 0.0
O48 O 0.58275 0.28195 0.16444 0.0
C49 C 0.54549 0.23878 0.13983 0.0
C50 C 0.5204 0.2481 0.18953 0.0
C51 C 0.58307 0.27391 0.17993 0.0
O52 O 0.543 0.24025 0.15788 0.0
O53 O 0.55111 0.25298 0.13143 0.0
O54 O 0.54434 0.2873 0.19363 0.0
O55 O 0.54509 0.28194 0.16205 0.0
Co56 Co 0.06756 0.79567 0.14722 0.0
O57 O 0.04264 0.79261 0.14263 0.0
O58 O 0.05777 0.78719 0.16974 0.0
C59 C 0.07204 0.82454 0.13626 0.0
O60 O 0.09332 0.79772 0.15818 0.0
Co61 Co 0.08968 0.79977 0.11416 0.0
O62 O 0.10988 0.80477 0.1353 0.0
C63 C 0.07112 0.76166 0.11891 0.0
C64 C 0.04276 0.78787 0.16015 0.0
C65 C 0.10826 0.80159 0.15272 0.0
O66 O 0.06602 0.76852 0.13462 0.0
O67 O 0.0796 0.772 0.1083 0.0
O68 O 0.06949 0.82313 0.1542 0.0
O69 O 0.07118 0.80862 0.12539 0.0
Co70 Co 0.52398 0.76337 0.41672 0.0
O71 O 0.54883 0.76639 0.42085 0.0
O72 O 0.53199 0.7527 0.39328 0.0
C73 C 0.52364 0.79364 0.42925 0.0
O74 O 0.49781 0.75894 0.40644 0.0
Co75 Co 0.50423 0.7685 0.4519 0.0
O76 O 0.48427 0.76788 0.43135 0.0
C77 C 0.51896 0.73406 0.44504 0.0
C78 C 0.54758 0.75844 0.40287 0.0
C79 C 0.48416 0.76239 0.41321 0.0
O80 O 0.522 0.73826 0.42801 0.0
O81 O 0.51333 0.74518 0.45719 0.0
O82 O 0.52592 0.78958 0.41117 0.0
O83 O 0.52299 0.77972 0.43943 0.0
Co84 Co 0.56664 0.29537 0.64794 0.0
O85 O 0.54172 0.29217 0.64296 0.0
O86 O 0.55666 0.2868 0.67026 0.0
C87 C 0.57115 0.32422 0.63702 0.0
O88 O 0.59228 0.29758 0.65935 0.0
Co89 Co 0.58939 0.29972 0.61551 0.0
O90 O 0.60928 0.30522 0.63706 0.0
C91 C 0.57068 0.26152 0.6198 0.0
C92 C 0.5417 0.28741 0.66048 0.0
C93 C 0.60735 0.30184 0.65435 0.0
O94 O 0.56534 0.26829 0.63539 0.0
O95 O 0.57935 0.27194 0.60941 0.0
O96 O 0.56838 0.32279 0.65489 0.0
O97 O 0.57052 0.30834 0.6262 0.0
Co98 Co 0.02299 0.26321 0.91582 0.0
O99 O 0.04778 0.26561 0.91996 0.0
O100 O 0.03089 0.25332 0.89198 0.0
C101 C 0.02322 0.29317 0.92963 0.0
O102 O 0.99686 0.2597 0.90551 0.0
Co103 Co 1.00305 0.26698 0.95081 0.0
O104 O 0.98441 0.2706 0.9305 0.0
C105 C 0.01537 0.23145 0.9412 0.0
C106 C 0.04649 0.25839 0.90172 0.0
C107 C 0.98386 0.26504 0.91229 0.0
O108 O 0.02045 0.23743 0.92567 0.0
O109 O 1.00886 0.24147 0.95349 0.0
O110 O 0.02551 0.2897 0.91149 0.0
O111 O 0.02223 0.2788 0.93924 0.0
Co112 Co 0.41321 0.04972 0.27559 0.0
O113 O 0.41623 0.07813 0.27801 0.0
O114 O 0.39179 0.05949 0.26676 0.0
C115 C 0.42789 0.04831 0.30736 0.0
O116 O 0.40272 0.02025 0.27247 0.0
Co117 Co 0.44203 0.02667 0.27766 0.0
O118 O 0.42408 1.00455 0.2799 0.0
C119 C 0.43455 0.04275 0.24082 0.0
C120 C 0.39991 0.07693 0.27171 0.0
C121 C 0.40804 1.00465 0.27585 0.0
O122 O 0.42103 0.04793 0.24724 0.0
O123 O 0.44515 0.03537 0.25162 0.0
O124 O 0.4121 0.051 0.30451 0.0
O125 O 0.43463 0.04793 0.29142 0.0
Co126 Co 0.27337 0.15096 0.5049 0.0
O127 O 0.29837 0.15567 0.50831 0.0
O128 O 0.28206 0.12871 0.51178 0.0
C129 C 0.27031 0.16393 0.47641 0.0
O130 O 0.24742 0.13987 0.50212 0.0
Co131 Co 0.25164 0.18235 0.503 0.0
O132 O 0.23139 0.1615 0.49499 0.0
C133 C 0.269 0.1756 0.54166 0.0
C134 C 0.29745 0.13832 0.51186 0.0
C135 C 0.23267 0.14464 0.49761 0.0
O136 O 0.27415 0.16109 0.53361 0.0
O137 O 0.26089 0.18619 0.53184 0.0
O138 O 0.2724 0.1465 0.47618 0.0
O139 O 0.2707 0.173 0.49361 0.0
Co140 Co 0.1511 0.04339 0.80752 0.0
O141 O 0.14504 0.01609 0.8026 0.0
O142 O 0.16898 0.03335 0.79639 0.0
C143 C 0.14403 0.04582 0.83802 0.0
O144 O 0.16276 0.07112 0.81121 0.0
Co145 Co 0.12561 0.06956 0.81502 0.0
O146 O 0.14597 0.09057 0.82173 0.0
C147 C 0.12487 0.05074 0.77473 0.0
C148 C 0.15976 0.01669 0.79644 0.0
C149 C 0.16038 0.08773 0.81739 0.0
O150 O 0.13894 0.04517 0.78053 0.0
O151 O 0.11683 0.05935 0.78654 0.0
O152 O 0.15892 0.04214 0.83513 0.0
O153 O 0.13359 0.04706 0.82241 0.0
Co154 Co 0.24999 0.87897 0.99999 0.0
O155 O 0.23035 0.87676 0.01346 0.0
O156 O 0.24869 0.90346 0.01284 0.0
C157 C 0.23716 0.86124 0.9715 0.0
O158 O 0.27119 0.88712 0.98765 0.0
Co159 Co 0.2655 0.84415 0.98668 0.0
O160 O 0.2806 0.86214 0.97382 0.0
C161 C 0.2733 0.86156 0.02827 0.0
C162 C 0.23517 0.89488 0.01908 0.0
C163 C 0.28147 0.87994 0.9776 0.0
O164 O 0.26488 0.87457 0.02414 0.0
O165 O 0.27408 0.8475 0.0157 0.0
O166 O 0.2356 0.87884 0.97486 0.0
O167 O 0.24466 0.85451 0.98609 0.0
Co168 Co 0.31007 0.4023 0.04814 0.0
O169 O 0.28533 0.39792 0.0473 0.0
O170 O 0.30277 0.4252 0.0587 0.0
C171 C 0.30888 0.38833 0.01687 0.0
O172 O 0.33622 0.41277 0.05017 0.0
Co173 Co 0.32969 0.36914 0.04237 0.0
O174 O 0.34878 0.38921 0.03878 0.0
C175 C 0.31801 0.37813 0.08052 0.0
C176 C 0.28705 0.4156 0.05445 0.0
C177 C 0.34935 0.40665 0.0446 0.0
O178 O 0.31308 0.39311 0.07505 0.0
O179 O 0.32394 0.36651 0.06924 0.0
O180 O 0.30698 0.40579 0.02026 0.0
O181 O 0.31029 0.37968 0.03212 0.0
Co182 Co 0.82926 0.18111 0.04455 0.0
O183 O 0.85156 0.18077 0.03693 0.0
O184 O 0.83409 0.15618 0.04453 0.0
C185 C 0.81824 0.1967 0.02127 0.0
O186 O 0.80545 0.17528 0.05178 0.0
Co187 Co 0.81752 0.21831 0.05883 0.0
O188 O 0.79451 0.20162 0.05687 0.0
C189 C 0.84302 0.20383 0.08465 0.0
C190 C 0.84845 0.16283 0.03871 0.0
C191 C 0.79296 0.18366 0.05478 0.0
O192 O 0.83981 0.18802 0.07314 0.0
O193 O 0.83704 0.21841 0.08041 0.0
O194 O 0.81869 0.17885 0.01717 0.0
O195 O 0.82672 0.20498 0.03814 0.0
Co196 Co 0.16894 0.50086 0.29869 0.0
O197 O 0.16577 0.4724 0.297 0.0
O198 O 0.18968 0.49003 0.29371 0.0
C199 C 0.15592 0.50556 0.32764 0.0
O200 O 0.17983 0.53007 0.30009 0.0
Co201 Co 0.1415 0.52564 0.2976 0.0
O202 O 0.16032 0.5483 0.3045 0.0
C203 C 0.1467 0.50615 0.25941 0.0
C204 C 0.1817 0.47295 0.29443 0.0
C205 C 0.17572 0.54675 0.3029 0.0
O206 O 0.15942 0.49949 0.26849 0.0
O207 O 0.13773 0.51598 0.26871 0.0
O208 O 0.17173 0.503 0.32838 0.0
O209 O 0.14836 0.50463 0.30975 0.0
Co210 Co 0.80864 0.90161 0.5471 0.0
O211 O 0.78377 0.89699 0.54496 0.0
O212 O 0.80092 0.92402 0.5581 0.0
C213 C 0.8088 0.88881 0.51573 0.0
O214 O 0.83479 0.91236 0.5507 0.0
Co215 Co 0.82872 0.86881 0.54136 0.0
O216 O 0.84891 0.8892 0.54199 0.0
C217 C 0.81222 0.87425 0.57671 0.0
C218 C 0.78526 0.91442 0.55287 0.0
C219 C 0.84869 0.90656 0.54729 0.0
O220 O 0.81045 0.89109 0.57334 0.0
O221 O 0.81755 0.86279 0.56462 0.0
O222 O 0.80668 0.90617 0.51949 0.0
O223 O 0.80964 0.87965 0.53062 0.0
Co224 Co 0.93397 1.00905 0.25725 0.0
O225 O 0.93868 0.03627 0.25874 0.0
O226 O 0.91402 0.01747 0.24495 0.0
C227 C 0.94499 1.00839 0.28885 0.0
O228 O 0.92359 0.98083 0.25385 0.0
Co229 Co 0.96266 0.98577 0.2639 0.0
O230 O 0.94361 0.96408 0.26357 0.0
C231 C 0.95784 1.00339 0.22764 0.0
C232 C 0.92297 0.03457 0.24983 0.0
C233 C 0.92803 0.96521 0.25774 0.0
O234 O 0.94325 1.00674 0.23154 0.0
O235 O 0.96811 0.99663 0.23956 0.0
O236 O 0.9294 1.01124 0.28428 0.0
O237 O 0.95372 1.00733 0.27452 0.0
Co238 Co 0.32308 0.67847 0.53775 0.0
O239 O 0.34609 0.67886 0.53224 0.0
O240 O 0.33199 0.65835 0.54879 0.0
C241 C 0.31037 0.6814 0.50759 0.0
O242 O 0.29933 0.67278 0.5454 0.0
Co243 Co 0.30487 0.7128 0.53393 0.0
O244 O 0.2838 0.69355 0.53419 0.0
C245 C 0.33119 0.71357 0.56847 0.0
C246 C 0.34573 0.66401 0.54127 0.0
C247 C 0.28494 0.67821 0.54123 0.0
O248 O 0.33201 0.69623 0.56298 0.0
O249 O 0.32229 0.72308 0.55806 0.0
O250 O 0.31339 0.66504 0.51152 0.0
O251 O 0.3172 0.6956 0.52099 0.0
Co252 Co 0.43417 0.51003 0.75998 0.0
O253 O 0.43817 0.53728 0.76164 0.0
O254 O 0.41403 0.51779 0.74733 0.0
C255 C 0.44483 0.50941 0.79171 0.0
O256 O 0.42441 0.48165 0.75625 0.0
Co257 Co 0.46324 0.48735 0.76751 0.0
O258 O 0.44421 0.46648 0.76991 0.0
C259 C 0.45808 0.50378 0.73037 0.0
C260 C 0.42247 0.53508 0.75249 0.0
C261 C 0.42879 0.4668 0.76246 0.0
O262 O 0.4439 0.50814 0.73454 0.0
O263 O 0.4681 0.49661 0.74219 0.0
O264 O 0.42914 0.51184 0.78686 0.0
O265 O 0.45383 0.50873 0.7776 0.0
Co266 Co 0.6692 1.00063 0.79877 0.0
O267 O 0.66607 0.97215 0.79724 0.0
O268 O 0.68987 0.98971 0.79355 0.0
C269 C 0.65647 1.0055 0.82798 0.0
O270 O 0.68014 0.0298 0.79989 0.0
Co271 Co 0.64194 0.02554 0.79795 0.0
O272 O 0.6608 0.0482 0.80445 0.0
C273 C 0.64666 1.00588 0.75963 0.0
C274 C 0.68195 0.97265 0.79445 0.0
C275 C 0.67613 0.04653 0.80263 0.0
O276 O 0.65938 0.99914 0.7686 0.0
O277 O 0.63787 0.01584 0.76905 0.0
O278 O 0.67226 1.00293 0.82851 0.0
O279 O 0.64876 1.00452 0.81014 0.0
Co280 Co 0.77426 0.65051 1.00435 0.0
O281 O 0.79921 0.65492 0.00756 0.0
O282 O 0.78271 0.62802 0.01087 0.0
C283 C 0.77112 0.66375 0.97602 0.0
O284 O 0.74825 0.63981 1.0017 0.0
Co285 Co 0.75347 0.68287 1.00348 0.0
O286 O 0.73269 0.66257 0.99798 0.0
C287 C 0.77067 0.67505 0.04163 0.0
C288 C 0.79814 0.63751 0.01095 0.0
C289 C 0.73368 0.64536 0.99919 0.0
O290 O 0.77531 0.66037 0.03322 0.0
O291 O 0.76297 0.68619 0.03217 0.0
O292 O 0.77303 0.64625 0.97559 0.0
O293 O 0.77185 0.67275 0.99333 0.0
Co294 Co 0.91374 0.54916 0.77524 0.0
O295 O 0.91684 0.57757 0.77769 0.0
O296 O 0.89236 0.55903 0.76644 0.0
C297 C 0.92842 0.54773 0.80702 0.0
O298 O 0.90324 0.51967 0.77205 0.0
Co299 Co 0.94257 0.52608 0.77738 0.0
O300 O 0.92458 0.50387 0.77921 0.0
C301 C 0.93519 0.54232 0.74059 0.0
C302 C 0.90053 0.57646 0.77141 0.0
C303 C 0.90854 0.50401 0.7752 0.0
O304 O 0.92157 0.54736 0.74689 0.0
O305 O 0.94581 0.53506 0.7515 0.0
O306 O 0.91264 0.55043 0.80417 0.0
O307 O 0.93514 0.54734 0.79107 0.0
Co308 Co 0.75283 0.3794 0.50578 0.0
O309 O 0.73402 0.37737 0.52058 0.0
O310 O 0.75277 0.40374 0.51992 0.0
C311 C 0.73825 0.3629 0.47734 0.0
O312 O 0.77333 0.38741 0.49226 0.0
Co313 Co 0.76652 0.34437 0.48904 0.0
O314 O 0.7815 0.36261 0.47632 0.0
C315 C 0.77671 0.36005 0.53111 0.0
C316 C 0.73939 0.39538 0.52655 0.0
C317 C 0.7829 0.38038 0.48111 0.0
O318 O 0.76853 0.3736 0.52857 0.0
O319 O 0.77646 0.3464 0.51757 0.0
O320 O 0.73748 0.38063 0.48174 0.0
O321 O 0.74623 0.35534 0.49093 0.0
Co322 Co 0.65133 0.54417 0.30881 0.0
O323 O 0.64552 0.51685 0.30436 0.0
O324 O 0.66946 0.53413 0.29818 0.0
C325 C 0.64392 0.54693 0.33917 0.0
O326 O 0.66272 0.57203 0.31218 0.0
Co327 Co 0.62525 0.56988 0.31545 0.0
O328 O 0.64537 0.59115 0.32195 0.0
C329 C 0.62484 0.5502 0.27561 0.0
C330 C 0.66033 0.51745 0.29841 0.0
C331 C 0.65996 0.58857 0.31798 0.0
O332 O 0.63923 0.54535 0.28156 0.0
O333 O 0.61654 0.55864 0.28725 0.0
O334 O 0.65896 0.54345 0.33663 0.0
O335 O 0.63361 0.54777 0.32334 0.0
Tb336 Tb 0.03348 0.01636 0.02186 0.0
Tb337 Tb 0.0665 0.03846 0.0458 0.0
C338 C 1.00232 1.00586 0.00711 0.0
C339 C 0.9886 0.01684 1.00454 0.0
C340 C 0.99011 0.03408 0.01668 0.0
C341 C 0.97772 0.04521 0.01373 0.0
C342 C 0.96347 0.03922 0.99871 0.0
C343 C 0.96177 0.0218 0.98674 0.0
C344 C 0.97438 1.01072 0.98955 0.0
C345 C 0.0611 0.01562 1.00503 0.0
C346 C 0.04443 0.06128 0.02127 0.0
C347 C 0.09757 0.04881 0.06103 0.0
C348 C 0.11037 0.03749 0.06727 0.0
C349 C 0.10914 0.01917 0.05742 0.0
C350 C 0.12022 1.00764 0.06418 0.0
C351 C 0.13294 0.01428 0.08072 0.0
C352 C 0.13456 0.03279 0.09031 0.0
C353 C 0.12318 0.04429 0.08373 0.0
C354 C 0.03878 0.04006 0.06208 0.0
C355 C 0.05545 0.99331 0.04642 0.0
O356 O 1.00837 1.00477 0.0254 0.0
O357 O 0.01458 1.00981 0.99662 0.0
O358 O 0.05767 0.02937 0.01543 0.0
O359 O 0.04808 1.00159 1.00267 0.0
O360 O 0.03177 0.04632 0.01965 0.0
O361 O 0.06028 0.06089 0.02948 0.0
O362 O 0.09218 0.04675 0.04206 0.0
O363 O 0.08488 0.04833 0.0712 0.0
O364 O 0.04214 0.02583 0.0523 0.0
O365 O 0.05185 0.054 0.06405 0.0
O366 O 0.06777 1.00874 0.04963 0.0
O367 O 0.04 0.99324 0.03676 0.0
H368 H 1.00089 0.03898 0.02849 0.0
H369 H 0.97913 0.05839 0.02343 0.0
H370 H 0.95084 0.0169 0.97511 0.0
H371 H 0.97309 0.99747 0.98001 0.0
H372 H 0.09953 0.01366 0.04454 0.0
H373 H 0.11899 0.99357 0.05627 0.0
H374 H 0.14444 0.03821 0.10299 0.0
H375 H 0.12427 0.05837 0.09152 0.0
Tb376 Tb 0.29663 0.76781 0.26776 0.0
Tb377 Tb 0.28928 0.78194 0.308 0.0
C378 C 0.30126 0.76464 0.23271 0.0
C379 C 0.30683 0.77914 0.22045 0.0
C380 C 0.29884 0.79486 0.21925 0.0
C381 C 0.30516 0.80929 0.2089 0.0
C382 C 0.31974 0.80843 0.19974 0.0
C383 C 0.32786 0.79279 0.20124 0.0
C384 C 0.32141 0.77824 0.21143 0.0
C385 C 0.31857 0.7628 0.29793 0.0
C386 C 0.30859 0.81283 0.28527 0.0
C387 C 0.28981 0.78556 0.34421 0.0
C388 C 0.27732 0.77563 0.35527 0.0
C389 C 0.27353 0.75574 0.35288 0.0
C390 C 0.26099 0.74622 0.36223 0.0
C391 C 0.2519 0.75629 0.3743 0.0
C392 C 0.25554 0.77622 0.37658 0.0
C393 C 0.26812 0.78581 0.36708 0.0
C394 C 0.26201 0.78223 0.28123 0.0
C395 C 0.27462 0.73777 0.28878 0.0
O396 O 0.28599 0.76404 0.23789 0.0
O397 O 0.313 0.76329 0.24732 0.0
O398 O 0.31188 0.77727 0.29625 0.0
O399 O 0.31293 0.75058 0.28225 0.0
O400 O 0.30595 0.79913 0.26997 0.0
O401 O 0.30395 0.80907 0.30237 0.0
O402 O 0.29896 0.77496 0.33522 0.0
O403 O 0.28398 0.7974 0.33318 0.0
O404 O 0.27599 0.77728 0.2787 0.0
O405 O 0.26313 0.78743 0.29989 0.0
O406 O 0.2785 0.75087 0.30469 0.0
O407 O 0.27919 0.74179 0.27173 0.0
H408 H 0.28775 0.79611 0.22639 0.0
H409 H 0.29836 0.82091 0.20774 0.0
H410 H 0.33921 0.79178 0.19454 0.0
H411 H 0.32796 0.76641 0.21253 0.0
H412 H 0.28028 0.74738 0.34384 0.0
H413 H 0.25894 0.7309 0.36056 0.0
H414 H 0.2488 0.78436 0.38586 0.0
H415 H 0.27067 0.80115 0.36894 0.0
Tb416 Tb 0.5586 0.02729 0.52653 0.0
Tb417 Tb 0.52094 0.02081 0.53827 0.0
C418 C 0.59049 0.02859 0.5275 0.0
C419 C 0.60417 0.01757 0.53289 0.0
C420 C 0.61752 0.02495 0.54872 0.0
C421 C 0.63163 0.01599 0.55246 0.0
C422 C 0.63286 0.99943 0.54039 0.0
C423 C 0.61922 0.99178 0.52488 0.0
C424 C 0.6051 1.00071 0.52118 0.0
C425 C 0.53451 0.03229 0.49652 0.0
C426 C 0.53524 0.98586 0.52017 0.0
C427 C 0.48905 0.01858 0.53838 0.0
C428 C 0.47466 0.02871 0.53437 0.0
C429 C 0.47578 0.04429 0.52387 0.0
C430 C 0.46182 0.0537 0.52094 0.0
C431 C 0.44653 0.04776 0.52855 0.0
C432 C 0.44568 0.03222 0.53917 0.0
C433 C 0.45952 0.02283 0.54197 0.0
C434 C 0.5451 0.01511 0.5679 0.0
C435 C 0.5441 0.06237 0.54429 0.0
O436 O 0.58395 0.03688 0.54172 0.0
O437 O 0.5788 0.02135 0.51209 0.0
O438 O 0.53273 0.02833 0.51365 0.0
O439 O 0.55098 0.0342 0.49647 0.0
O440 O 0.55094 0.99648 0.52298 0.0
O441 O 0.52141 0.99267 0.5237 0.0
O442 O 0.49551 0.01155 0.5234 0.0
O443 O 0.50094 0.02615 0.55346 0.0
O444 O 0.54678 0.01962 0.55097 0.0
O445 O 0.52865 0.01303 0.56799 0.0
O446 O 0.5285 0.05163 0.54221 0.0
O447 O 0.55789 0.05568 0.54025 0.0
H448 H 0.61727 0.03796 0.55795 0.0
H449 H 0.64168 0.02218 0.56475 0.0
H450 H 0.6197 0.97922 0.51508 0.0
H451 H 0.59516 0.99463 0.50873 0.0
H452 H 0.48743 0.0492 0.51803 0.0
H453 H 0.46298 0.06551 0.51259 0.0
H454 H 0.4344 0.02743 0.54569 0.0
H455 H 0.45845 1.01099 0.55033 0.0
Tb456 Tb 0.27649 0.27621 0.77916 0.0
Tb457 Tb 0.31441 0.27142 0.78686 0.0
C458 C 0.24455 0.27372 0.77952 0.0
C459 C 0.23093 0.27133 0.7923 0.0
C460 C 0.21844 0.25453 0.78888 0.0
C461 C 0.20416 0.25271 0.79874 0.0
C462 C 0.20188 0.26768 0.81231 0.0
C463 C 0.21469 0.2843 0.81624 0.0
C464 C 0.229 0.28614 0.8063 0.0
C465 C 0.29942 0.30373 0.77074 0.0
C466 C 0.29891 0.28788 0.82235 0.0
C467 C 0.34623 0.27293 0.78654 0.0
C468 C 0.35927 0.27181 0.77322 0.0
C469 C 0.36229 0.28482 0.75982 0.0
C470 C 0.37616 0.28492 0.74931 0.0
C471 C 0.38741 0.2721 0.75201 0.0
C472 C 0.38397 0.25874 0.76497 0.0
C473 C 0.37014 0.25865 0.77544 0.0
C474 C 0.29128 0.24437 0.79566 0.0
C475 C 0.29221 0.26001 0.74346 0.0
O476 O 0.25181 0.2592 0.77543 0.0
O477 O 0.25556 0.28984 0.78206 0.0
O478 O 0.30117 0.29433 0.78483 0.0
O479 O 0.2837 0.29887 0.76145 0.0
O480 O 0.28343 0.28195 0.81146 0.0
O481 O 0.3133 0.28705 0.81507 0.0
O482 O 0.33888 0.28773 0.78712 0.0
O483 O 0.33543 0.25734 0.78758 0.0
O484 O 0.28974 0.25339 0.78127 0.0
O485 O 0.30685 0.24949 0.80531 0.0
O486 O 0.30759 0.26466 0.7547 0.0
O487 O 0.27782 0.2619 0.75033 0.0
H488 H 0.21946 0.2429 0.7781 0.0
H489 H 0.19478 0.23958 0.79555 0.0
H490 H 0.21336 0.29619 0.82646 0.0
H491 H 0.23826 0.29936 0.80921 0.0
H492 H 0.35424 0.29527 0.75783 0.0
H493 H 0.37842 0.29551 0.7396 0.0
H494 H 0.39211 0.24842 0.76721 0.0
H495 H 0.36821 0.24854 0.78574 0.0
Tb496 Tb 0.04161 0.04608 0.53093 0.0
Tb497 Tb 0.04315 1.00552 0.52651 0.0
C498 C 0.04761 0.08147 0.53481 0.0
C499 C 0.04452 0.094 0.52002 0.0
C500 C 0.05755 0.1092 0.51844 0.0
C501 C 0.05583 0.11946 0.50261 0.0
C502 C 0.04099 0.11468 0.48822 0.0
C503 C 0.02777 0.09976 0.49009 0.0
C504 C 0.02957 0.0894 0.50578 0.0
C505 C 1.01235 0.02357 0.53329 0.0
C506 C 0.02865 0.02372 0.48922 0.0
C507 C 0.0368 0.96998 0.52195 0.0
C508 C 0.0359 0.95694 0.53663 0.0
C509 C 0.03429 0.96366 0.55594 0.0
C510 C 0.03514 0.95201 0.57055 0.0
C511 C 0.03748 0.93337 0.56608 0.0
C512 C 0.03858 0.92642 0.54661 0.0
C513 C 0.0379 0.93822 0.53196 0.0
C514 C 0.07218 0.02822 0.52344 0.0
C515 C 0.05561 0.02793 0.56813 0.0
O516 O 0.05925 0.07133 0.53166 0.0
O517 O 0.03391 0.07152 0.53976 0.0
O518 O 0.02726 0.02168 0.54057 0.0
O519 O 0.01352 0.03905 0.5254 0.0
O520 O 0.0345 0.04077 0.49922 0.0
O521 O 0.0299 1.00823 0.49738 0.0
O522 O 0.02483 0.98023 0.52084 0.0
O523 O 0.05212 0.98006 0.52221 0.0
O524 O 0.05713 0.02977 0.5165 0.0
O525 O 0.07135 0.01284 0.53145 0.0
O526 O 0.04858 1.01107 0.55835 0.0
O527 O 0.0558 0.04337 0.55956 0.0
H528 H 0.06928 0.11275 0.52912 0.0
H529 H 0.06611 0.13105 0.50155 0.0
H530 H 0.01628 0.09573 0.47909 0.0
H531 H 0.01949 0.07743 0.50641 0.0
H532 H 0.03265 0.97802 0.55983 0.0
H533 H 0.03403 0.9576 0.5854 0.0
H534 H 0.04047 0.91208 0.54287 0.0
H535 H 0.03928 0.93288 0.51714 0.0
Tb536 Tb 0.29142 0.75819 0.76874 0.0
Tb537 Tb 0.29591 0.80023 0.78403 0.0
C538 C 0.29337 0.72639 0.75142 0.0
C539 C 0.30528 0.71295 0.75163 0.0
C540 C 0.32282 0.71855 0.75036 0.0
C541 C 0.33352 0.70514 0.74988 0.0
C542 C 0.32685 0.68595 0.75066 0.0
C543 C 0.30936 0.68058 0.75234 0.0
C544 C 0.29871 0.69392 0.75275 0.0
C545 C 0.28609 0.76623 0.80512 0.0
C546 C 0.32856 0.78279 0.78802 0.0
C547 C 0.29274 0.83188 0.80046 0.0
C548 C 0.28014 0.84439 0.79746 0.0
C549 C 0.27099 0.84903 0.81265 0.0
C550 C 0.25901 0.86086 0.81012 0.0
C551 C 0.25606 0.86841 0.7924 0.0
C552 C 0.26514 0.86364 0.77716 0.0
C553 C 0.27701 0.8517 0.77963 0.0
C554 C 0.30141 0.79214 0.74774 0.0
C555 C 0.25864 0.77572 0.76576 0.0
O556 O 0.29812 0.74239 0.74475 0.0
O557 O 0.28603 0.7286 0.76704 0.0
O558 O 0.2974 0.7752 0.7969 0.0
O559 O 0.27799 0.7513 0.79326 0.0
O560 O 0.31956 0.76757 0.77619 0.0
O561 O 0.32111 0.79604 0.79599 0.0
O562 O 0.2871 0.81585 0.80658 0.0
O563 O 0.30237 0.82981 0.78682 0.0
O564 O 0.29 0.78324 0.75589 0.0
O565 O 0.3093 0.80715 0.75955 0.0
O566 O 0.26801 0.79086 0.77722 0.0
O567 O 0.26567 0.76216 0.75765 0.0
H568 H 0.32823 0.73319 0.74953 0.0
H569 H 0.3469 0.70974 0.74847 0.0
H570 H 0.30387 0.66602 0.75339 0.0
H571 H 0.28524 0.68932 0.75383 0.0
H572 H 0.27316 0.84354 0.82652 0.0
H573 H 0.25233 0.86443 0.8222 0.0
H574 H 0.26297 0.86905 0.76325 0.0
H575 H 0.28373 0.84826 0.76755 0.0
Tb576 Tb 0.52648 0.02955 0.01761 0.0
Tb577 Tb 0.55599 0.02452 0.0461 0.0
C578 C 0.49813 0.02694 0.99563 0.0
C579 C 0.48005 0.01837 0.99525 0.0
C580 C 0.47547 1.00392 0.00654 0.0
C581 C 0.45831 0.99466 1.00454 0.0
C582 C 0.4455 0.99978 0.99125 0.0
C583 C 0.45015 0.01476 0.98053 0.0
C584 C 0.4673 0.02394 0.9825 0.0
C585 C 0.54895 0.06106 0.03201 0.0
C586 C 0.52168 0.02779 0.0636 0.0
C587 C 0.58445 0.02843 0.06813 0.0
C588 C 0.6023 0.03717 0.06737 0.0
C589 C 0.609 0.03619 0.04967 0.0
C590 C 0.62512 0.04695 0.04872 0.0
C591 C 0.63463 0.05891 0.06543 0.0
C592 C 0.62816 0.05923 0.0833 0.0
C593 C 0.61212 0.04841 0.08425 0.0
C594 C 0.53307 0.99321 0.03311 0.0
C595 C 0.56073 0.02598 0.99996 0.0
O596 O 0.50852 0.01502 0.99364 0.0
O597 O 0.50475 0.0413 0.0093 0.0
O598 O 0.54382 0.04751 0.04088 0.0
O599 O 0.54064 0.05748 0.01418 0.0
O600 O 0.51412 0.02569 0.04478 0.0
O601 O 0.53863 0.02904 0.0677 0.0
O602 O 0.57404 0.04043 0.06928 0.0
O603 O 0.57759 0.01312 0.05573 0.0
O604 O 0.53814 1.00616 0.02335 0.0
O605 O 0.54207 0.99704 0.05059 0.0
O606 O 0.56824 0.02781 0.01877 0.0
O607 O 0.54383 0.02511 0.99589 0.0
H608 H 0.48521 0.99945 0.01646 0.0
H609 H 0.45518 0.98308 0.01287 0.0
H610 H 0.44054 0.01925 0.97044 0.0
H611 H 0.47067 0.03514 0.97374 0.0
H612 H 0.60157 0.02765 0.03645 0.0
H613 H 0.62979 0.04654 0.03474 0.0
H614 H 0.63536 0.06815 0.09644 0.0
H615 H 0.6071 0.04935 0.09802 0.0
Tb616 Tb 0.27487 0.26178 0.27131 0.0
Tb617 Tb 0.30687 0.28802 0.28954 0.0
C618 C 0.24464 0.24317 0.26579 0.0
C619 C 0.22807 0.24862 0.26822 0.0
C620 C 0.22655 0.26041 0.28514 0.0
C621 C 0.21092 0.26575 0.28729 0.0
C622 C 0.19648 0.25967 0.27245 0.0
C623 C 0.19808 0.24799 0.25542 0.0
C624 C 0.21375 0.24248 0.25335 0.0
C625 C 0.29195 0.27846 0.246 0.0
C626 C 0.27334 0.30642 0.28607 0.0
C627 C 0.33718 0.30645 0.29446 0.0
C628 C 0.35375 0.30086 0.29228 0.0
C629 C 0.36411 0.31028 0.28023 0.0
C630 C 0.37806 0.30306 0.27459 0.0
C631 C 0.382 0.28639 0.28107 0.0
C632 C 0.37237 0.27764 0.29421 0.0
C633 C 0.35822 0.28473 0.29966 0.0
C634 C 0.28955 0.27147 0.31471 0.0
C635 C 0.30832 0.24325 0.27511 0.0
O636 O 0.25555 0.24433 0.28201 0.0
O637 O 0.25207 0.24994 0.25168 0.0
O638 O 0.2899 0.2858 0.26266 0.0
O639 O 0.2837 0.26099 0.24274 0.0
O640 O 0.26493 0.28844 0.28067 0.0
O641 O 0.29052 0.30994 0.28939 0.0
O642 O 0.32643 0.30423 0.27796 0.0
O643 O 0.32957 0.30075 0.30894 0.0
O644 O 0.29181 0.26412 0.29817 0.0
O645 O 0.29795 0.28889 0.31813 0.0
O646 O 0.31676 0.26115 0.28095 0.0
O647 O 0.29118 0.23983 0.27119 0.0
H648 H 0.23743 0.26549 0.29681 0.0
H649 H 0.21012 0.27442 0.30078 0.0
H650 H 0.18727 0.24323 0.24361 0.0
H651 H 0.21473 0.23352 0.24011 0.0
H652 H 0.36085 0.32267 0.27432 0.0
H653 H 0.38542 0.31012 0.26456 0.0
H654 H 0.37515 0.26472 0.2993 0.0
H655 H 0.35032 0.27707 0.30882 0.0
Tb656 Tb 0.54478 0.54463 0.03112 0.0
Tb657 Tb 0.54668 0.50182 0.02646 0.0
C658 C 0.5527 0.57865 0.0268 0.0
C659 C 0.54535 0.59042 0.01324 0.0
C660 C 0.55597 0.59952 1.00122 0.0
C661 C 0.54897 0.60841 0.98611 0.0
C662 C 0.53128 0.60858 0.98295 0.0
C663 C 0.5207 0.60012 0.99543 0.0
C664 C 0.52767 0.59089 0.01037 0.0
C665 C 0.51475 0.52376 0.03519 0.0
C666 C 0.52953 0.51751 0.99032 0.0
C667 C 0.54656 0.46836 0.03222 0.0
C668 C 0.54654 0.45971 0.05044 0.0
C669 C 0.53485 0.46291 0.06334 0.0
C670 C 0.53639 0.45649 0.08166 0.0
C671 C 0.5498 0.4471 0.08748 0.0
C672 C 0.56133 0.44374 0.07449 0.0
C673 C 0.55966 0.44991 0.05609 0.0
C674 C 0.57254 0.52534 0.01692 0.0
C675 C 0.55642 0.52741 0.06879 0.0
O676 O 0.55917 0.56515 0.01805 0.0
O677 O 0.54376 0.57295 0.04037 0.0
O678 O 0.52845 0.5186 0.03185 0.0
O679 O 0.5178 0.54211 0.0365 0.0
O680 O 0.53571 0.53489 0.99973 0.0
O681 O 0.53088 0.50206 0.99855 0.0
O682 O 0.53259 0.47435 0.02554 0.0
O683 O 0.56065 0.48052 0.03173 0.0
O684 O 0.56447 0.52818 0.03104 0.0
O685 O 0.56648 0.50834 0.00782 0.0
O686 O 0.55099 0.51033 0.05845 0.0
O687 O 0.55686 0.54316 0.06067 0.0
H688 H 0.56961 0.59919 1.00311 0.0
H689 H 0.55739 0.61513 0.97683 0.0
H690 H 0.50702 0.60018 0.99323 0.0
H691 H 0.51916 0.58373 0.01928 0.0
H692 H 0.52478 0.47074 0.0595 0.0
H693 H 0.52735 0.45921 0.09145 0.0
H694 H 0.5716 0.43621 0.07852 0.0
H695 H 0.56888 0.44746 0.04644 0.0
Tb696 Tb 0.78752 0.25089 0.27577 0.0
Tb697 Tb 0.7919 0.29406 0.28041 0.0
C698 C 0.78971 0.21678 0.26767 0.0
C699 C 0.80257 0.20529 0.26355 0.0
C700 C 0.81841 0.21319 0.25836 0.0
C701 C 0.83015 0.20161 0.2541 0.0
C702 C 0.82616 0.18201 0.25497 0.0
C703 C 0.81033 0.17434 0.2604 0.0
C704 C 0.79866 0.18587 0.26461 0.0
C705 C 0.77601 0.26638 0.30611 0.0
C706 C 0.82356 0.27747 0.29503 0.0
C707 C 0.7894 0.32821 0.2872 0.0
C708 C 0.77589 0.33985 0.28619 0.0
C709 C 0.76552 0.34124 0.30096 0.0
C710 C 0.7538 0.35355 0.30042 0.0
C711 C 0.7523 0.36476 0.28516 0.0
C712 C 0.76236 0.36293 0.27017 0.0
C713 C 0.77406 0.35072 0.27074 0.0
C714 C 0.80429 0.27846 0.25075 0.0
C715 C 0.75553 0.26774 0.26204 0.0
O716 O 0.78554 0.22746 0.25444 0.0
O717 O 0.79148 0.2254 0.28567 0.0
O718 O 0.78933 0.27302 0.29944 0.0
O719 O 0.76924 0.24973 0.29663 0.0
O720 O 0.81539 0.26099 0.28485 0.0
O721 O 0.81582 0.29204 0.29791 0.0
O722 O 0.78988 0.31698 0.30075 0.0
O723 O 0.79227 0.32029 0.27036 0.0
O724 O 0.79061 0.27192 0.25687 0.0
O725 O 0.81089 0.29502 0.26053 0.0
O726 O 0.76422 0.28442 0.27107 0.0
O727 O 0.76273 0.25271 0.25978 0.0
H728 H 0.82163 0.22822 0.25751 0.0
H729 H 0.8422 0.20792 0.24987 0.0
H730 H 0.807 0.1594 0.2616 0.0
H731 H 0.78653 0.17959 0.26869 0.0
H732 H 0.76669 0.33314 0.31316 0.0
H733 H 0.74635 0.35475 0.31228 0.0
H734 H 0.76131 0.3711 0.25803 0.0
H735 H 0.78193 0.35005 0.25921 0.0
Tb736 Tb 0.02553 0.53105 0.51672 0.0
Tb737 Tb 0.05335 0.5197 0.54317 0.0
C738 C 0.9973 0.53259 0.49645 0.0
C739 C 0.97946 0.52314 0.49606 0.0
C740 C 0.97584 0.50757 0.50621 0.0
C741 C 0.95898 0.49753 0.50442 0.0
C742 C 0.94548 0.50293 0.49243 0.0
C743 C 0.94915 0.51887 0.48272 0.0
C744 C 0.96604 0.52889 0.48451 0.0
C745 C 0.05067 0.55939 0.53345 0.0
C746 C 0.02049 0.52565 0.56214 0.0
C747 C 0.08217 0.5188 0.56217 0.0
C748 C 0.09929 0.52823 0.55935 0.0
C749 C 0.10094 0.54476 0.55039 0.0
C750 C 0.11703 0.55387 0.54743 0.0
C751 C 0.13183 0.54651 0.55313 0.0
C752 C 0.13012 0.52978 0.56191 0.0
C753 C 0.11392 0.5207 0.565 0.0
C754 C 0.02792 0.49158 0.52682 0.0
C755 C 0.0587 0.52536 0.49798 0.0
O756 O 1.00751 0.52136 0.49123 0.0
O757 O 1.00439 0.54462 0.51213 0.0
O758 O 0.04431 0.54527 0.54088 0.0
O759 O 0.04192 0.55847 0.51606 0.0
O760 O 1.01311 0.52588 0.54361 0.0
O761 O 0.03704 0.52454 0.5658 0.0
O762 O 0.07223 0.53025 0.56778 0.0
O763 O 0.07407 0.50553 0.54795 0.0
O764 O 0.03444 0.50548 0.51916 0.0
O765 O 0.03688 0.49233 0.54409 0.0
O766 O 0.06589 0.52503 0.5165 0.0
O767 O 0.04214 0.5264 0.4942 0.0
H768 H 0.98612 0.50287 0.5151 0.0
H769 H 0.95662 0.48519 0.5119 0.0
H770 H 0.93899 0.52352 0.47361 0.0
H771 H 0.96867 0.5409 0.47659 0.0
H772 H 0.08976 0.55076 0.5458 0.0
H773 H 0.11788 0.56691 0.54101 0.0
H774 H 0.14126 0.52368 0.5663 0.0
H775 H 0.11281 0.50783 0.57174 0.0
Tb776 Tb 0.77688 0.77476 0.27882 0.0
Tb777 Tb 0.81506 0.77072 0.28667 0.0
C778 C 0.74493 0.77208 0.27933 0.0
C779 C 0.73146 0.76994 0.29232 0.0
C780 C 0.71949 0.75279 0.29001 0.0
C781 C 0.7053 0.7511 0.30002 0.0
C782 C 0.70257 0.76654 0.31265 0.0
C783 C 0.71487 0.78354 0.31549 0.0
C784 C 0.72908 0.78525 0.3054 0.0
C785 C 0.79957 0.80225 0.27001 0.0
C786 C 0.79935 0.78732 0.32193 0.0
C787 C 0.84699 0.77345 0.28622 0.0
C788 C 0.86008 0.77221 0.27296 0.0
C789 C 0.86305 0.78502 0.25935 0.0
C790 C 0.87698 0.78511 0.24893 0.0
C791 C 0.88837 0.77247 0.25192 0.0
C792 C 0.88501 0.75931 0.2651 0.0
C793 C 0.87111 0.75923 0.27549 0.0
C794 C 0.79235 0.74345 0.29584 0.0
C795 C 0.79273 0.75817 0.24339 0.0
O796 O 0.75231 0.75759 0.27557 0.0
O797 O 0.75582 0.78826 0.28137 0.0
O798 O 0.80135 0.79318 0.28432 0.0
O799 O 0.78393 0.79704 0.26055 0.0
O800 O 0.78388 0.78105 0.31111 0.0
O801 O 0.81376 0.78659 0.31466 0.0
O802 O 0.839 0.78777 0.28594 0.0
O803 O 0.83678 0.75773 0.28819 0.0
O804 O 0.79057 0.75231 0.28135 0.0
O805 O 0.80797 0.74884 0.30536 0.0
O806 O 0.80812 0.76309 0.2546 0.0
O807 O 0.7783 0.76004 0.2502 0.0
H808 H 0.72084 0.74075 0.27997 0.0
H809 H 0.69632 0.73768 0.29768 0.0
H810 H 0.71318 0.79579 0.32496 0.0
H811 H 0.73791 0.79875 0.30743 0.0
H812 H 0.85492 0.79536 0.25713 0.0
H813 H 0.87918 0.79556 0.23906 0.0
H814 H 0.89324 0.74913 0.26758 0.0
H815 H 0.86925 0.74928 0.28595 0.0
Tb816 Tb 0.79414 0.26774 0.76204 0.0
Tb817 Tb 0.79 0.28089 0.80633 0.0
C818 C 0.79122 0.26319 0.72546 0.0
C819 C 0.80308 0.272 0.71332 0.0
C820 C 0.79825 0.27029 0.69295 0.0
C821 C 0.80817 0.28156 0.68196 0.0
C822 C 0.8229 0.29483 0.69132 0.0
C823 C 0.82821 0.29571 0.71159 0.0
C824 C 0.81843 0.28425 0.72249 0.0
C825 C 0.82259 0.26759 0.78743 0.0
C826 C 0.80915 0.31141 0.78174 0.0
C827 C 0.79356 0.28612 0.84287 0.0
C828 C 0.78161 0.28023 0.85651 0.0
C829 C 0.78374 0.26475 0.86643 0.0
C830 C 0.77201 0.25812 0.87837 0.0
C831 C 0.75794 0.26692 0.88086 0.0
C832 C 0.75588 0.2826 0.8712 0.0
C833 C 0.76757 0.28916 0.85902 0.0
C834 C 0.76166 0.2813 0.78099 0.0
C835 C 0.77487 0.23724 0.78666 0.0
O836 O 0.78396 0.27525 0.73532 0.0
O837 O 0.79707 0.25124 0.73631 0.0
O838 O 0.80866 0.27225 0.79055 0.0
O839 O 0.82067 0.2625 0.76863 0.0
O840 O 0.80471 0.29871 0.76547 0.0
O841 O 0.80582 0.30695 0.79923 0.0
O842 O 0.79889 0.27227 0.833 0.0
O843 O 0.7896 0.29894 0.83194 0.0
O844 O 0.77571 0.27698 0.77783 0.0
O845 O 0.76324 0.28567 0.79989 0.0
O846 O 0.77915 0.25003 0.80288 0.0
O847 O 0.77844 0.24152 0.76917 0.0
H848 H 0.78638 0.261 0.68572 0.0
H849 H 0.80368 0.28082 0.66637 0.0
H850 H 0.83949 0.30582 0.71909 0.0
H851 H 0.82235 0.2857 0.73826 0.0
H852 H 0.79448 0.25768 0.86491 0.0
H853 H 0.77427 0.24637 0.88614 0.0
H854 H 0.74528 0.28978 0.8731 0.0
H855 H 0.76556 0.30115 0.85156 0.0
Tb856 Tb 0.77585 0.76156 0.77164 0.0
Tb857 Tb 0.80791 0.78818 0.78895 0.0
C858 C 0.74611 0.74176 0.76705 0.0
C859 C 0.72892 0.74577 0.7684 0.0
C860 C 0.71766 0.73353 0.77723 0.0
C861 C 0.70249 0.73859 0.7819 0.0
C862 C 0.69835 0.75594 0.7777 0.0
C863 C 0.70917 0.76773 0.76785 0.0
C864 C 0.72445 0.76273 0.76334 0.0
C865 C 0.79213 0.7783 0.74578 0.0
C866 C 0.77408 0.80628 0.7856 0.0
C867 C 0.83808 0.80683 0.79307 0.0
C868 C 0.85495 0.80133 0.79313 0.0
C869 C 0.86707 0.81145 0.78347 0.0
C870 C 0.882 0.80476 0.78043 0.0
C871 C 0.88512 0.78779 0.78705 0.0
C872 C 0.87327 0.77811 0.79752 0.0
C873 C 0.85828 0.78479 0.80047 0.0
C874 C 0.79147 0.7715 0.81472 0.0
C875 C 0.80958 0.74333 0.77521 0.0
O876 O 0.75667 0.74538 0.78378 0.0
O877 O 0.75346 0.74759 0.75247 0.0
O878 O 0.79034 0.78567 0.76253 0.0
O879 O 0.78398 0.7608 0.74269 0.0
O880 O 0.76571 0.78822 0.78061 0.0
O881 O 0.79127 0.80989 0.78846 0.0
O882 O 0.82783 0.80227 0.77614 0.0
O883 O 0.83007 0.80316 0.80791 0.0
O884 O 0.79341 0.76417 0.79804 0.0
O885 O 0.79979 0.78895 0.81798 0.0
O886 O 0.81796 0.76128 0.78089 0.0
O887 O 0.79243 0.73985 0.77154 0.0
H888 H 0.72098 0.72046 0.78133 0.0
H889 H 0.69426 0.72924 0.78939 0.0
H890 H 0.70628 0.78125 0.76465 0.0
H891 H 0.73309 0.77247 0.75669 0.0
H892 H 0.86462 0.8241 0.77749 0.0
H893 H 0.89066 0.81243 0.77203 0.0
H894 H 0.87537 0.76514 0.80301 0.0
H895 H 0.84901 0.77664 0.80785 0.0
Tb896 Tb 0.53341 0.51653 0.52277 0.0
Tb897 Tb 0.56658 0.53799 0.54711 0.0
C898 C 0.50204 0.5067 0.50861 0.0
C899 C 0.48842 0.51786 0.50865 0.0
C900 C 0.49123 0.53474 0.52172 0.0
C901 C 0.47884 0.54604 0.52147 0.0
C902 C 0.46327 0.54048 0.5084 0.0
C903 C 0.46021 0.52335 0.49561 0.0
C904 C 0.47285 0.51214 0.49561 0.0
C905 C 0.56091 0.51532 0.50595 0.0
C906 C 0.54499 0.56158 0.52308 0.0
C907 C 0.5977 0.54814 0.56234 0.0
C908 C 0.61067 0.53704 0.56861 0.0
C909 C 0.60938 0.51853 0.55926 0.0
C910 C 0.62085 0.50738 0.56596 0.0
C911 C 0.63403 0.51461 0.58193 0.0
C912 C 0.63566 0.53331 0.59103 0.0
C913 C 0.62389 0.54442 0.58451 0.0
C914 C 0.53879 0.53935 0.5635 0.0
C915 C 0.55519 0.49284 0.5469 0.0
O916 O 0.5086 0.50358 0.52602 0.0
O917 O 0.51396 0.51217 0.49811 0.0
O918 O 0.55783 0.52919 0.51656 0.0
O919 O 0.54757 0.50164 0.50329 0.0
O920 O 0.53221 0.54666 0.52086 0.0
O921 O 0.56066 0.56095 0.53162 0.0
O922 O 0.59229 0.54602 0.54336 0.0
O923 O 0.58502 0.54753 0.57252 0.0
O924 O 0.54211 0.52541 0.55322 0.0
O925 O 0.55202 0.55316 0.566 0.0
O926 O 0.56758 0.50819 0.55052 0.0
O927 O 0.53983 0.49299 0.5371 0.0
H928 H 0.503 0.53921 0.53221 0.0
H929 H 0.48132 0.55901 0.53172 0.0
H930 H 0.44822 0.51881 0.48548 0.0
H931 H 0.4705 0.49911 0.48548 0.0
H932 H 0.59947 0.51261 0.54677 0.0
H933 H 0.61958 0.49315 0.55843 0.0
H934 H 0.64585 0.53919 0.60327 0.0
H935 H 0.62505 0.55868 0.5919 0.0
Tb936 Tb 0.05955 0.52724 0.02614 0.0
Tb937 Tb 0.02186 0.5208 0.03782 0.0
C938 C 0.09148 0.52864 0.02718 0.0
C939 C 0.10529 0.51786 0.03283 0.0
C940 C 0.11899 0.52595 0.04805 0.0
C941 C 0.13323 0.5172 0.05192 0.0
C942 C 0.13425 0.50014 0.04057 0.0
C943 C 0.12026 0.49179 0.02569 0.0
C944 C 0.10601 0.50051 0.02187 0.0
C945 C 0.03545 0.53209 0.99605 0.0
C946 C 0.03629 0.48577 0.0202 0.0
C947 C 0.98994 0.51836 0.03778 0.0
C948 C 0.97548 0.52835 0.03365 0.0
C949 C 0.97662 0.54403 0.02329 0.0
C950 C 0.96261 0.55333 0.02029 0.0
C951 C 0.94724 0.54719 0.02767 0.0
C952 C 0.94637 0.53154 0.03815 0.0
C953 C 0.96027 0.52226 0.04102 0.0
C954 C 0.04597 0.51523 0.06751 0.0
C955 C 0.04497 0.56236 0.04379 0.0
O956 O 0.0849 0.53711 0.04127 0.0
O957 O 0.07979 0.5211 0.01186 0.0
O958 O 0.03369 0.52821 0.0132 0.0
O959 O 0.05192 0.53399 0.99599 0.0
O960 O 0.05196 0.49643 0.02291 0.0
O961 O 0.02242 0.4926 0.02356 0.0
O962 O 0.99649 0.51137 0.02286 0.0
O963 O 1.00177 0.52606 0.05288 0.0
O964 O 0.04768 0.51968 0.05058 0.0
O965 O 0.02952 0.51318 0.0676 0.0
O966 O 0.02938 0.55162 0.04169 0.0
O967 O 0.05877 0.55567 0.03979 0.0
H968 H 0.11891 0.53934 0.05669 0.0
H969 H 0.14354 0.52395 0.06373 0.0
H970 H 0.12054 0.47881 0.01645 0.0
H971 H 0.09579 0.49388 0.00991 0.0
H972 H 0.98833 0.5491 0.01764 0.0
H973 H 0.96377 0.56523 0.01205 0.0
H974 H 0.93503 0.5266 0.04449 0.0
H975 H 0.95919 0.51034 0.04927 0.0
C976 C 0.0321 0.20501 0.94314 0.0
C977 C 0.01721 0.21223 0.9457 0.0
C978 C 0.03468 0.18808 0.95023 0.0
C979 C 0.01834 0.15572 0.98545 0.0
H980 H 0.04623 0.12321 0.96244 0.0
C981 C 0.02409 0.08181 0.00855 0.0
C982 C 0.04097 0.07848 0.01273 0.0
C983 C 0.02094 0.09781 0.99998 0.0
C984 C 0.03845 0.1322 0.96906 0.0
H985 H 0.9929 0.2068 0.95657 0.0
H986 H 0.99677 0.17697 0.96768 0.0
H987 H 0.04085 0.15095 0.94735 0.0
H988 H 0.06773 0.08932 0.01086 0.0
H989 H 0.06216 0.11696 0.9956 0.0
H990 H 0.01559 0.13652 0.0068 0.0
C991 C 1.00697 0.18464 0.96118 0.0
C992 C 0.03542 0.14823 0.96047 0.0
C993 C 1.0046 0.2017 0.95455 0.0
C994 C 0.05458 0.09149 0.008 0.0
C995 C 0.05139 0.10726 0.9991 0.0
C996 C 0.0211 0.13951 0.99377 0.0
C997 C 0.02227 0.17776 0.9597 0.0
C998 C 0.02535 0.16034 0.96855 0.0
C999 C 0.03455 0.11065 0.99501 0.0
C1000 C 0.03126 0.12761 0.98576 0.0
H1001 H 0.04213 0.21291 0.93656 0.0
H1002 H 0.04673 0.18353 0.94889 0.0
H1003 H 1.01093 0.16479 0.99259 0.0
H1004 H 1.01331 0.07209 0.01196 0.0
H1005 H 1.00781 0.09998 0.99694 0.0
C1006 C 0.1402 0.8024 0.15951 0.0
C1007 C 0.12427 0.80079 0.16642 0.0
C1008 C 0.1551 0.80013 0.17149 0.0
C1009 C 0.16968 0.78022 0.21706 0.0
H1010 H 0.21447 0.80834 0.21171 0.0
C1011 C 0.23091 0.78335 0.27336 0.0
C1012 C 0.24657 0.78227 0.26656 0.0
C1013 C 0.21622 0.78462 0.26046 0.0
C1014 C 0.20209 0.80018 0.2132 0.0
H1015 H 0.11186 0.79594 0.19183 0.0
H1016 H 0.13797 0.79256 0.21298 0.0
H1017 H 0.1886 0.81364 0.19169 0.0
H1018 H 0.25907 0.78174 0.24076 0.0
H1019 H 0.23325 0.78414 0.21797 0.0
H1020 H 0.18323 0.76715 0.23896 0.0
C1021 C 0.13884 0.79513 0.19803 0.0
C1022 C 0.18717 0.80321 0.2017 0.0
C1023 C 0.12383 0.79726 0.18593 0.0
C1024 C 0.24716 0.78235 0.24639 0.0
C1025 C 0.2324 0.78389 0.23341 0.0
C1026 C 0.18458 0.77734 0.22867 0.0
C1027 C 0.15471 0.79633 0.19092 0.0
C1028 C 0.17069 0.79331 0.20345 0.0
C1029 C 0.21673 0.78508 0.24033 0.0
C1030 C 0.201 0.78733 0.22698 0.0
H1031 H 0.14117 0.80497 0.14456 0.0
H1032 H 0.16687 0.80087 0.16523 0.0
H1033 H 0.15738 0.77197 0.21862 0.0
H1034 H 0.23002 0.78339 0.28882 0.0
H1035 H 0.20452 0.78575 0.2664 0.0
C1036 C 0.52087 0.81672 0.45785 0.0
C1037 C 0.52267 0.813 0.43797 0.0
C1038 C 0.52103 0.83518 0.4665 0.0
C1039 C 0.51376 0.8743 0.47916 0.0
H1040 H 0.54687 0.91483 0.46573 0.0
C1041 C 0.51675 0.95382 0.50696 0.0
C1042 C 0.53317 0.96552 0.51213 0.0
C1043 C 0.51485 0.93504 0.49813 0.0
C1044 C 0.53763 0.90368 0.46977 0.0
H1045 H 0.52559 0.82569 0.41143 0.0
H1046 H 0.52568 0.85787 0.42643 0.0
H1047 H 0.54444 0.88258 0.44978 0.0
H1048 H 0.56053 0.96628 0.51249 0.0
H1049 H 0.55722 0.93363 0.49742 0.0
H1050 H 0.50727 0.89541 0.49954 0.0
C1051 C 0.52441 0.84657 0.43546 0.0
C1052 C 0.53607 0.88518 0.4604 0.0
C1053 C 0.52425 0.82809 0.4268 0.0
C1054 C 0.54766 0.9578 0.50863 0.0
C1055 C 0.54575 0.93906 0.49983 0.0
C1056 C 0.51532 0.89284 0.48853 0.0
C1057 C 0.523 0.8504 0.45549 0.0
C1058 C 0.52417 0.87021 0.46502 0.0
C1059 C 0.52932 0.92748 0.49423 0.0
C1060 C 0.52736 0.90775 0.48405 0.0
H1061 H 0.51966 0.80542 0.46688 0.0
H1062 H 0.52011 0.83758 0.482 0.0
H1063 H 0.50434 0.86318 0.48296 0.0
H1064 H 0.50529 0.95927 0.50936 0.0
H1065 H 0.50199 0.92659 0.49388 0.0
C1066 C 0.52575 0.27986 0.68855 0.0
C1067 C 0.52553 0.28402 0.66917 0.0
C1068 C 0.51065 0.27786 0.69705 0.0
C1069 C 0.46725 0.29077 0.69203 0.0
H1070 H 0.45767 0.253 0.72658 0.0
C1071 C 0.40243 0.2769 0.72246 0.0
C1072 C 0.40299 0.27303 0.74199 0.0
C1073 C 0.41712 0.27785 0.71325 0.0
C1074 C 0.46021 0.26379 0.71715 0.0
H1075 H 0.50907 0.289 0.64345 0.0
H1076 H 0.48282 0.28533 0.65812 0.0
H1077 H 0.48358 0.25515 0.7113 0.0
H1078 H 0.41983 0.26762 0.7672 0.0
H1079 H 0.44527 0.26929 0.75127 0.0
H1080 H 0.44394 0.29949 0.69795 0.0
C1081 C 0.49469 0.28387 0.66691 0.0
C1082 C 0.47511 0.26501 0.70835 0.0
C1083 C 0.50976 0.28583 0.65842 0.0
C1084 C 0.41872 0.27023 0.75203 0.0
C1085 C 0.43338 0.27119 0.74285 0.0
C1086 C 0.45235 0.28956 0.70084 0.0
C1087 C 0.49492 0.28002 0.68642 0.0
C1088 C 0.47889 0.27854 0.69568 0.0
C1089 C 0.43283 0.275 0.72331 0.0
C1090 C 0.44861 0.27608 0.71359 0.0
H1091 H 0.53767 0.27845 0.6973 0.0
H1092 H 0.51142 0.27509 0.71215 0.0
H1093 H 0.46981 0.30159 0.68263 0.0
H1094 H 0.39054 0.27892 0.71414 0.0
H1095 H 0.41607 0.28055 0.69812 0.0
C1096 C 0.05736 0.81133 0.65907 0.0
C1097 C 0.0479 0.80624 0.67395 0.0
C1098 C 0.05823 0.82918 0.65321 0.0
C1099 C 0.06245 0.8707 0.64806 0.0
H1100 H 0.01674 0.87828 0.62791 0.0
C1101 C 0.05037 0.92862 0.59961 0.0
C1102 C 0.03914 0.92146 0.58189 0.0
C1103 C 0.05191 0.91747 0.61468 0.0
C1104 C 0.02957 0.87645 0.63366 0.0
H1105 H 0.03249 0.81594 0.69498 0.0
H1106 H 0.03348 0.84724 0.6841 0.0
H1107 H 0.01996 0.85422 0.64952 0.0
H1108 H 0.02061 0.89727 0.56601 0.0
H1109 H 0.02326 0.8777 0.59245 0.0
H1110 H 0.07202 0.89231 0.63143 0.0
C1111 C 0.04043 0.8374 0.67727 0.0
C1112 C 0.03142 0.86288 0.64617 0.0
C1113 C 0.03987 0.81959 0.68346 0.0
C1114 C 0.02941 0.90303 0.57951 0.0
C1115 C 0.03078 0.89196 0.59468 0.0
C1116 C 0.06061 0.88443 0.63573 0.0
C1117 C 0.04938 0.84217 0.66187 0.0
C1118 C 0.04783 0.85942 0.65286 0.0
C1119 C 0.04207 0.89909 0.61236 0.0
C1120 C 0.04412 0.8869 0.62787 0.0
H1121 H 0.06376 0.80138 0.65154 0.0
H1122 H 0.06502 0.83241 0.64112 0.0
H1123 H 0.07523 0.86824 0.65308 0.0
H1124 H 0.05811 0.94278 0.6017 0.0
H1125 H 0.06073 0.92322 0.62817 0.0
C1126 C 0.48237 0.80743 0.85353 0.0
C1127 C 0.48254 0.80656 0.87375 0.0
C1128 C 0.46676 0.80516 0.84083 0.0
C1129 C 0.42245 0.78122 0.83621 0.0
H1130 H 0.41044 0.81669 0.80111 0.0
C1131 C 0.3555 0.76947 0.78936 0.0
C1132 C 0.34736 0.78492 0.79293 0.0
C1133 C 0.37327 0.77151 0.79508 0.0
C1134 C 0.41375 0.80657 0.81068 0.0
H1135 H 0.46651 0.80366 0.89662 0.0
H1136 H 0.43939 0.79957 0.87441 0.0
H1137 H 0.43951 0.82228 0.82024 0.0
H1138 H 0.35148 0.81486 0.8041 0.0
H1139 H 0.38238 0.81835 0.81409 0.0
H1140 H 0.39666 0.76581 0.82727 0.0
C1141 C 0.45133 0.80184 0.86843 0.0
C1142 C 0.43031 0.80975 0.82153 0.0
C1143 C 0.46687 0.80432 0.88114 0.0
C1144 C 0.35736 0.80262 0.80142 0.0
C1145 C 0.37509 0.8047 0.80691 0.0
C1146 C 0.40601 0.77793 0.82522 0.0
C1147 C 0.45114 0.80178 0.84816 0.0
C1148 C 0.43456 0.7974 0.83481 0.0
C1149 C 0.38314 0.7891 0.80416 0.0
C1150 C 0.40137 0.79086 0.81281 0.0
H1151 H 0.49424 0.80926 0.84742 0.0
H1152 H 0.46685 0.80526 0.82522 0.0
H1153 H 0.42558 0.7714 0.84623 0.0
H1154 H 0.34812 0.75569 0.78269 0.0
H1155 H 0.37924 0.75929 0.79279 0.0
C1156 C 0.54249 0.21766 0.10806 0.0
C1157 C 0.54364 0.21977 0.12863 0.0
C1158 C 0.54365 0.20046 0.09762 0.0
C1159 C 0.54194 0.14959 0.1012 0.0
H1160 H 0.57002 0.15272 0.05969 0.0
C1161 C 0.55895 0.08309 0.06315 0.0
C1162 C 0.55461 0.08043 0.04256 0.0
C1163 C 0.5601 0.10082 0.07391 0.0
C1164 C 0.56213 0.15166 0.07121 0.0
H1165 H 0.54609 0.20522 0.1543 0.0
H1166 H 0.54836 0.1752 0.13609 0.0
H1167 H 0.56537 0.18173 0.07794 0.0
H1168 H 0.54967 0.0945 0.01693 0.0
H1169 H 0.55172 0.12564 0.03582 0.0
H1170 H 0.53876 0.11953 0.09451 0.0
C1171 C 0.54638 0.18681 0.12799 0.0
C1172 C 0.55936 0.16823 0.08158 0.0
C1173 C 0.54506 0.20401 0.13845 0.0
C1174 C 0.55299 0.09617 0.0328 0.0
C1175 C 0.55416 0.11397 0.04361 0.0
C1176 C 0.54481 0.13305 0.09093 0.0
C1177 C 0.54614 0.18501 0.10752 0.0
C1178 C 0.54913 0.16737 0.0966 0.0
C1179 C 0.55697 0.11622 0.06429 0.0
C1180 C 0.55487 0.13392 0.07579 0.0
H1181 H 0.54118 0.22949 0.10004 0.0
H1182 H 0.54293 0.19938 0.0818 0.0
H1183 H 0.53382 0.14842 0.11249 0.0
H1184 H 0.56033 0.07124 0.07106 0.0
H1185 H 0.56263 0.10227 0.08983 0.0
C1186 C 0.08569 0.30748 0.35245 0.0
C1187 C 0.06838 0.29827 0.34751 0.0
C1188 C 0.09753 0.30399 0.34012 0.0
C1189 C 0.10777 0.26763 0.30753 0.0
H1190 H 0.13758 0.30804 0.28923 0.0
C1191 C 0.1642 0.25205 0.26928 0.0
C1192 C 0.17979 0.26511 0.27522 0.0
C1193 C 0.14875 0.25655 0.27386 0.0
C1194 C 0.12946 0.29659 0.29434 0.0
H1195 H 0.04979 0.27824 0.32592 0.0
H1196 H 0.0708 0.27162 0.30463 0.0
H1197 H 0.11409 0.31521 0.30611 0.0
H1198 H 0.19116 0.29367 0.28938 0.0
H1199 H 0.16461 0.30108 0.29835 0.0
H1200 H 0.12369 0.24917 0.29718 0.0
C1201 C 0.07502 0.28176 0.31787 0.0
C1202 C 0.11597 0.30072 0.30385 0.0
C1203 C 0.06307 0.28557 0.32999 0.0
C1204 C 0.17946 0.28309 0.28499 0.0
C1205 C 0.1641 0.28747 0.28983 0.0
C1206 C 0.12148 0.26355 0.29838 0.0
C1207 C 0.09232 0.29096 0.32287 0.0
C1208 C 0.10523 0.28632 0.3108 0.0
C1209 C 0.14859 0.27413 0.2847 0.0
C1210 C 0.13273 0.27805 0.29203 0.0
H1211 H 0.09008 0.31737 0.36585 0.0
H1212 H 0.11088 0.31109 0.34432 0.0
H1213 H 0.0997 0.25635 0.31296 0.0
H1214 H 0.16397 0.23805 0.26178 0.0
H1215 H 0.13701 0.24606 0.2693 0.0
C1216 C 0.95231 0.01371 0.1941 0.0
C1217 C 0.96344 1.008 0.20887 0.0
C1218 C 0.9581 0.01867 0.1768 0.0
C1219 C 0.99796 0.03599 0.15805 0.0
H1220 H 0.97264 0.01484 0.10623 0.0
C1221 C 0.02528 0.05464 0.08888 0.0
C1222 C 0.02584 0.03886 0.07542 0.0
C1223 C 0.01495 0.05279 0.10356 0.0
C1224 C 0.9798 0.02092 0.12061 0.0
H1225 H 0.98935 1.00288 0.21683 0.0
H1226 H 0.99931 0.01157 0.18694 0.0
H1227 H 0.9601 1.0076 0.13556 0.0
H1228 H 0.01526 1.00905 0.06596 0.0
H1229 H 0.99723 1.00579 0.09159 0.0
H1230 H 0.01788 0.04882 0.14336 0.0
C1231 C 0.98617 0.01232 0.18874 0.0
C1232 C 0.97258 0.01689 0.13736 0.0
C1233 C 0.98038 1.00721 0.20585 0.0
C1234 C 0.01506 0.02147 0.07613 0.0
C1235 C 1.00469 0.01962 0.09078 0.0
C1236 C 1.0051 0.04014 0.14138 0.0
C1237 C 0.97517 0.01825 0.17411 0.0
C1238 C 0.98178 0.02404 0.15625 0.0
C1239 C 1.00493 0.03512 0.10504 0.0
C1240 C 0.99626 0.03238 0.12247 0.0
H1241 H 0.93918 0.01446 0.19593 0.0
H1242 H 0.94936 0.02321 0.16574 0.0
H1243 H 1.00527 0.04187 0.17242 0.0
H1244 H 0.03336 0.06825 0.08856 0.0
H1245 H 0.01521 0.06506 0.11415 0.0
C1246 C 0.29191 0.70073 0.49046 0.0
C1247 C 0.29605 0.68291 0.49236 0.0
C1248 C 0.27708 0.7023 0.4782 0.0
C1249 C 0.24059 0.7009 0.4592 0.0
H1250 H 0.24253 0.68763 0.40399 0.0
C1251 C 0.23089 0.72768 0.37895 0.0
C1252 C 0.24071 0.74579 0.38647 0.0
C1253 C 0.22582 0.71491 0.39173 0.0
C1254 C 0.24113 0.69091 0.41925 0.0
H1255 H 0.28818 0.65273 0.48241 0.0
H1256 H 0.26243 0.65569 0.45998 0.0
H1257 H 0.25853 0.67299 0.42827 0.0
H1258 H 0.25016 0.7658 0.41301 0.0
H1259 H 0.24138 0.74384 0.43511 0.0
H1260 H 0.22443 0.72009 0.45029 0.0
C1261 C 0.27053 0.6683 0.46856 0.0
C1262 C 0.25043 0.68251 0.43319 0.0
C1263 C 0.28533 0.66668 0.48116 0.0
C1264 C 0.24277 0.75193 0.40672 0.0
C1265 C 0.23763 0.73922 0.41947 0.0
C1266 C 0.23119 0.70921 0.44525 0.0
C1267 C 0.26615 0.68613 0.4673 0.0
C1268 C 0.25134 0.68865 0.45327 0.0
C1269 C 0.23046 0.72013 0.41216 0.0
C1270 C 0.23267 0.70556 0.42527 0.0
H1271 H 0.29996 0.71352 0.49875 0.0
H1272 H 0.2743 0.71629 0.47699 0.0
H1273 H 0.24084 0.70553 0.47467 0.0
H1274 H 0.22862 0.72278 0.36329 0.0
H1275 H 0.21991 0.70043 0.38565 0.0
C1276 C 0.63102 0.98729 0.72646 0.0
C1277 C 0.64176 1.00376 0.73736 0.0
C1278 C 0.62236 0.98735 0.70708 0.0
C1279 C 0.61924 0.01728 0.66451 0.0
H1280 H 0.57418 0.98518 0.64909 0.0
C1281 C 0.57614 0.01617 0.58644 0.0
C1282 C 0.55805 0.01301 0.58557 0.0
C1283 C 0.58728 0.01442 0.60387 0.0
C1284 C 0.58667 0.99446 0.653 0.0
H1285 H 0.65124 0.03333 0.73585 0.0
H1286 H 0.63672 0.03346 0.70254 0.0
H1287 H 0.59137 0.98337 0.68033 0.0
H1288 H 0.53798 1.0055 0.60302 0.0
H1289 H 0.55683 1.00266 0.63256 0.0
H1290 H 0.61425 0.02869 0.63727 0.0
C1291 C 0.63514 0.0202 0.70855 0.0
C1292 C 0.59681 0.99319 0.67111 0.0
C1293 C 0.64369 0.02013 0.72786 0.0
C1294 C 0.55172 1.00798 0.60273 0.0
C1295 C 0.5627 1.00618 0.61992 0.0
C1296 C 0.60909 0.01852 0.64632 0.0
C1297 C 0.62389 1.00395 0.69774 0.0
C1298 C 0.61332 1.00467 0.67752 0.0
C1299 C 0.58079 1.0093 0.62107 0.0
C1300 C 0.59241 1.00731 0.64016 0.0
H1301 H 0.62858 0.97455 0.7333 0.0
H1302 H 0.61413 0.97434 0.6996 0.0
H1303 H 0.63186 0.02631 0.66832 0.0
H1304 H 0.58172 0.02002 0.57374 0.0
H1305 H 0.60102 0.01688 0.60371 0.0
C1306 C 0.30663 0.38788 0.98026 0.0
C1307 C 0.30916 0.37869 0.99694 0.0
C1308 C 0.30606 0.37824 0.96142 0.0
C1309 C 0.29448 0.35076 0.92325 0.0
H1310 H 0.3253 0.31587 0.91459 0.0
C1311 C 0.28525 0.29919 0.85094 0.0
C1312 C 0.30016 0.29693 0.84294 0.0
C1313 C 0.28652 0.30896 0.86985 0.0
C1314 C 0.31666 0.32564 0.9167 0.0
H1315 H 0.31331 0.35227 0.00697 0.0
H1316 H 0.31221 0.33549 0.97426 0.0
H1317 H 0.32791 0.33417 0.94693 0.0
H1318 H 0.32812 0.30294 0.84883 0.0
H1319 H 0.33031 0.32 0.88163 0.0
H1320 H 0.28344 0.34247 0.89291 0.0
C1321 C 0.31085 0.35018 0.97564 0.0
C1322 C 0.31805 0.33601 0.93532 0.0
C1323 C 0.31139 0.35979 0.99442 0.0
C1324 C 0.31635 0.30433 0.85449 0.0
C1325 C 0.31762 0.31408 0.87338 0.0
C1326 C 0.29309 0.34037 0.90463 0.0
C1327 C 0.30807 0.35922 0.95887 0.0
C1328 C 0.30694 0.34866 0.93886 0.0
C1329 C 0.30273 0.31668 0.88124 0.0
C1330 C 0.30413 0.32765 0.90112 0.0
H1331 H 0.3049 0.40244 0.98173 0.0
H1332 H 0.30412 0.3857 0.94884 0.0
H1333 H 0.2856 0.36021 0.92549 0.0
H1334 H 0.27255 0.29366 0.8425 0.0
H1335 H 0.27478 0.31043 0.87556 0.0
C1336 C 0.97001 1.00571 0.31357 0.0
C1337 C 0.9528 1.00785 0.30932 0.0
C1338 C 0.9779 1.0066 0.333 0.0
C1339 C 0.97459 0.02538 0.38372 0.0
H1340 H 1.00657 0.99265 0.39775 0.0
C1341 C 0.01859 0.03789 0.45931 0.0
C1342 C 0.02049 0.0218 0.46841 0.0
C1343 C 1.01033 0.03596 0.43985 0.0
C1344 C 0.99759 1.00181 0.39412 0.0
H1345 H 0.93019 0.01205 0.32206 0.0
H1346 H 0.94391 0.01336 0.35606 0.0
H1347 H 0.99142 0.98875 0.36412 0.0
H1348 H 0.01523 0.99105 0.46413 0.0
H1349 H 1.00073 0.98772 0.43036 0.0
H1350 H 0.98054 0.03823 0.41381 0.0
C1351 C 0.95139 1.01131 0.34436 0.0
C1352 C 0.98903 0.9997 0.37479 0.0
C1353 C 0.94349 1.01042 0.32489 0.0
C1354 C 0.01407 1.00376 0.45757 0.0
C1355 C 1.00582 1.00183 0.43815 0.0
C1356 C 0.98315 0.0275 0.40306 0.0
C1357 C 0.96875 1.00962 0.34865 0.0
C1358 C 0.97746 0.01149 0.36935 0.0
C1359 C 1.00379 0.01789 0.42907 0.0
C1360 C 0.99477 0.01575 0.40848 0.0
H1361 H 0.97754 1.00375 0.30189 0.0
H1362 H 0.99134 1.00546 0.33578 0.0
H1363 H 0.96592 0.03485 0.37997 0.0
H1364 H 0.02339 0.05201 0.46722 0.0
H1365 H 1.00917 0.04862 0.4332 0.0
C1366 C 0.33925 0.74159 0.59459 0.0
C1367 C 0.33861 0.72222 0.58886 0.0
C1368 C 0.34162 0.74892 0.61443 0.0
C1369 C 0.33024 0.73194 0.65916 0.0
H1370 H 0.34709 0.78473 0.68064 0.0
C1371 C 0.3263 0.78915 0.73045 0.0
C1372 C 0.30865 0.78387 0.73121 0.0
C1373 C 0.33351 0.78068 0.71536 0.0
C1374 C 0.34253 0.76986 0.67508 0.0
H1375 H 0.34209 0.69582 0.59948 0.0
H1376 H 0.34643 0.70874 0.63423 0.0
H1377 H 0.35648 0.77182 0.65088 0.0
H1378 H 0.28458 0.76602 0.71685 0.0
H1379 H 0.29702 0.75153 0.69003 0.0
H1380 H 0.31613 0.73003 0.68321 0.0
C1381 C 0.34468 0.71814 0.62332 0.0
C1382 C 0.34783 0.76251 0.65793 0.0
C1383 C 0.34232 0.71078 0.6034 0.0
C1384 C 0.29824 0.77022 0.71654 0.0
C1385 C 0.30542 0.76181 0.70136 0.0
C1386 C 0.32502 0.73927 0.67635 0.0
C1387 C 0.34345 0.73704 0.629 0.0
C1388 C 0.34122 0.74366 0.64937 0.0
C1389 C 0.32316 0.76692 0.70064 0.0
C1390 C 0.33061 0.75848 0.68409 0.0
H1391 H 0.33669 0.75086 0.58375 0.0
H1392 H 0.34055 0.76354 0.61823 0.0
H1393 H 0.32477 0.7174 0.65292 0.0
H1394 H 0.33462 0.79955 0.74176 0.0
H1395 H 0.34721 0.7848 0.71534 0.0
C1396 C 0.65573 1.0091 0.86571 0.0
C1397 C 0.64739 1.00838 0.84616 0.0
C1398 C 0.64697 1.01127 0.88227 0.0
C1399 C 0.60461 0.02331 0.8975 0.0
H1400 H 0.62057 1.00582 0.94623 0.0
C1401 C 0.56338 0.02289 0.96292 0.0
C1402 C 0.57128 0.02456 0.98281 0.0
C1403 C 0.57274 0.02121 0.9469 0.0
C1404 C 0.61583 1.01106 0.93292 0.0
H1405 H 0.62264 1.00941 0.82958 0.0
H1406 H 0.60757 0.01284 0.8577 0.0
H1407 H 0.63602 1.00245 0.91841 0.0
H1408 H 0.59606 0.02566 1.0005 0.0
H1409 H 0.61224 0.02286 0.97303 0.0
H1410 H 0.58442 0.03186 0.91196 0.0
C1411 C 0.62107 0.01211 0.86062 0.0
C1412 C 0.6249 1.0091 0.9166 0.0
C1413 C 0.62983 1.00998 0.84414 0.0
C1414 C 0.58918 0.02443 0.9857 0.0
C1415 C 0.59858 0.02267 0.96963 0.0
C1416 C 0.59554 0.02521 0.91376 0.0
C1417 C 0.6293 0.01283 0.8803 0.0
C1418 C 0.61957 0.01512 0.89828 0.0
C1419 C 0.59066 0.02102 0.94968 0.0
C1420 C 0.60079 0.0191 0.93203 0.0
H1421 H 0.66917 1.00795 0.8683 0.0
H1422 H 0.65428 0.01193 0.89675 0.0
H1423 H 0.59986 0.02868 0.88429 0.0
H1424 H 0.54971 0.02278 0.95958 0.0
H1425 H 0.56566 0.01971 0.93217 0.0
C1426 C 0.30216 0.37431 0.10946 0.0
C1427 C 0.31687 0.3733 0.10063 0.0
C1428 C 0.29992 0.3658 0.12649 0.0
C1429 C 0.31464 0.32741 0.15175 0.0
H1430 H 0.2925 0.34615 0.19422 0.0
C1431 C 0.29437 0.28098 0.2106 0.0
C1432 C 0.29626 0.28975 0.2301 0.0
C1433 C 0.297 0.29181 0.19534 0.0
C1434 C 0.29884 0.34077 0.18256 0.0
H1435 H 0.34133 0.36398 0.10355 0.0
H1436 H 0.33777 0.34991 0.13331 0.0
H1437 H 0.29715 0.36493 0.16748 0.0
H1438 H 0.30266 0.3168 0.24893 0.0
H1439 H 0.30762 0.33567 0.22241 0.0
H1440 H 0.31668 0.3035 0.16683 0.0
C1441 C 0.32762 0.35655 0.12687 0.0
C1442 C 0.30133 0.35147 0.1671 0.0
C1443 C 0.32976 0.36482 0.10989 0.0
C1444 C 0.30114 0.30959 0.23405 0.0
C1445 C 0.3038 0.32044 0.21879 0.0
C1446 C 0.31217 0.31677 0.16713 0.0
C1447 C 0.31241 0.35624 0.13502 0.0
C1448 C 0.30938 0.34498 0.15153 0.0
C1449 C 0.30164 0.31172 0.19918 0.0
C1450 C 0.30426 0.32327 0.1828 0.0
H1451 H 0.29195 0.38061 0.10255 0.0
H1452 H 0.28803 0.36586 0.13235 0.0
H1453 H 0.32059 0.32172 0.13987 0.0
H1454 H 0.2905 0.26574 0.20706 0.0
H1455 H 0.295 0.28456 0.18044 0.0
C1456 C 0.21153 0.89567 0.0392 0.0
C1457 C 0.22592 0.90523 0.03232 0.0
C1458 C 0.20252 0.9056 0.05132 0.0
C1459 C 0.20475 0.95171 0.08202 0.0
H1460 H 0.1555 0.94184 0.06395 0.0
C1461 C 0.16266 1.00777 0.08701 0.0
C1462 C 0.14495 1.00193 0.08685 0.0
C1463 C 0.17346 0.99455 0.08754 0.0
C1464 C 0.16915 0.94453 0.06966 0.0
H1465 H 0.24256 0.93253 0.03322 0.0
H1466 H 0.22666 0.9499 0.054 0.0
H1467 H 0.17282 0.92081 0.05065 0.0
H1468 H 0.12483 0.97846 0.08941 0.0
H1469 H 0.14377 0.95541 0.09094 0.0
H1470 H 0.20107 0.97601 0.10041 0.0
C1471 C 0.22246 0.93471 0.05032 0.0
C1472 C 0.17911 0.93245 0.06195 0.0
C1473 C 0.23145 0.92479 0.03822 0.0
C1474 C 0.13847 0.98318 0.08929 0.0
C1475 C 0.14928 0.97001 0.09006 0.0
C1476 C 0.19475 0.96382 0.08979 0.0
C1477 C 0.20776 0.92527 0.05678 0.0
C1478 C 0.19708 0.93625 0.06755 0.0
C1479 C 0.16669 0.97533 0.08807 0.0
C1480 C 0.17691 0.9607 0.08321 0.0
H1481 H 0.20707 0.88055 0.03505 0.0
H1482 H 0.19133 0.89792 0.05621 0.0
H1483 H 0.21855 0.9548 0.08685 0.0
H1484 H 0.16788 0.02217 0.08503 0.0
H1485 H 0.18678 0.99913 0.08587 0.0
C1486 C 0.71577 0.61214 0.99465 0.0
C1487 C 0.71737 0.63183 0.99956 0.0
C1488 C 0.70036 0.59973 0.99579 0.0
C1489 C 0.66423 0.59457 0.02257 0.0
H1490 H 0.63701 0.56173 0.97699 0.0
C1491 C 0.59549 0.55482 0.02616 0.0
C1492 C 0.58895 0.53736 0.01424 0.0
C1493 C 0.61119 0.56588 0.02394 0.0
C1494 C 0.64452 0.57048 0.99004 0.0
H1495 H 0.70403 0.65379 0.00982 0.0
H1496 H 0.6776 0.63218 0.01236 0.0
H1497 H 0.66472 0.58086 0.9741 0.0
H1498 H 0.59403 0.51759 0.99096 0.0
H1499 H 0.62176 0.53622 0.98775 0.0
H1500 H 0.64467 0.58395 0.03884 0.0
C1501 C 0.68812 0.62638 0.00732 0.0
C1502 C 0.66041 0.58152 0.98828 0.0
C1503 C 0.70326 0.63875 1.00573 0.0
C1504 C 0.59862 0.5311 1.00023 0.0
C1505 C 0.61453 0.54193 0.9983 0.0
C1506 C 0.64857 0.58324 0.02447 0.0
C1507 C 0.68648 0.60676 1.00239 0.0
C1508 C 0.67031 0.59387 1.00447 0.0
C1509 C 0.62113 0.55955 0.01011 0.0
C1510 C 0.63827 0.57118 0.00817 0.0
H1511 H 0.72638 0.60634 0.98988 0.0
H1512 H 0.69942 0.58463 0.99193 0.0
H1513 H 0.67168 0.60388 0.03534 0.0
H1514 H 0.58849 0.55995 0.0373 0.0
H1515 H 0.61544 0.57946 0.03309 0.0
C1516 C 0.65824 0.48237 0.29673 0.0
C1517 C 0.66707 0.50005 0.29351 0.0
C1518 C 0.66547 0.46621 0.2939 0.0
C1519 C 0.69887 0.44705 0.27028 0.0
H1520 H 0.69936 0.41543 0.31196 0.0
C1521 C 0.74665 0.39693 0.27995 0.0
C1522 C 0.74092 0.37896 0.28518 0.0
C1523 C 0.73609 0.41037 0.27973 0.0
C1524 C 0.6991 0.42392 0.30004 0.0
H1525 H 0.69011 0.51456 0.2842 0.0
H1526 H 0.7027 0.48644 0.27927 0.0
H1527 H 0.68334 0.44122 0.31313 0.0
H1528 H 0.71955 0.36104 0.29437 0.0
H1529 H 0.70105 0.38465 0.29406 0.0
H1530 H 0.71484 0.42998 0.25734 0.0
C1531 C 0.69016 0.48499 0.28387 0.0
C1532 C 0.68992 0.4387 0.3007 0.0
C1533 C 0.68298 0.50114 0.28679 0.0
C1534 C 0.7244 0.37481 0.29042 0.0
C1535 C 0.7138 0.38831 0.29022 0.0
C1536 C 0.70801 0.43228 0.2696 0.0
C1537 C 0.68161 0.4674 0.28767 0.0
C1538 C 0.68997 0.45063 0.28601 0.0
C1539 C 0.71952 0.40622 0.28477 0.0
C1540 C 0.70851 0.42078 0.28466 0.0
H1541 H 0.64594 0.48107 0.30191 0.0
H1542 H 0.65849 0.45281 0.29674 0.0
H1543 H 0.6989 0.45578 0.25856 0.0
H1544 H 0.75945 0.40077 0.27629 0.0
H1545 H 0.74106 0.42417 0.27593 0.0
C1546 C 0.81163 0.38671 0.46983 0.0
C1547 C 0.79743 0.39348 0.47584 0.0
C1548 C 0.82674 0.39934 0.46868 0.0
C1549 C 0.84981 0.44663 0.49142 0.0
H1550 H 0.88055 0.43978 0.4536 0.0
C1551 C 0.91778 0.48726 0.47066 0.0
C1552 C 0.92778 0.4915 0.48951 0.0
C1553 C 0.90137 0.47589 0.46773 0.0
C1554 C 0.87202 0.44198 0.46417 0.0
H1555 H 0.78741 0.41884 0.4836 0.0
H1556 H 0.81362 0.44079 0.48125 0.0
H1557 H 0.85222 0.41908 0.44902 0.0
H1558 H 0.92827 0.4874 0.5201 0.0
H1559 H 0.89971 0.4673 0.51493 0.0
H1560 H 0.86951 0.46951 0.50655 0.0
C1561 C 0.81326 0.42573 0.47798 0.0
C1562 C 0.85588 0.43003 0.46163 0.0
C1563 C 0.79821 0.41314 0.4792 0.0
C1564 C 0.92094 0.48426 0.50538 0.0
C1565 C 0.90452 0.47291 0.50245 0.0
C1566 C 0.86592 0.45852 0.49397 0.0
C1567 C 0.82789 0.41896 0.47342 0.0
C1568 C 0.84464 0.43219 0.47528 0.0
C1569 C 0.89458 0.46854 0.48357 0.0
C1570 C 0.87725 0.45626 0.48045 0.0
H1571 H 0.81147 0.37166 0.46714 0.0
H1572 H 0.83782 0.39368 0.46518 0.0
H1573 H 0.84157 0.44848 0.50238 0.0
H1574 H 0.92278 0.49243 0.45809 0.0
H1575 H 0.89396 0.47292 0.45305 0.0
C1576 C 0.37282 0.09222 0.26547 0.0
C1577 C 0.39086 0.09427 0.27121 0.0
C1578 C 0.36433 0.10805 0.26563 0.0
C1579 C 0.371 0.16214 0.28368 0.0
H1580 H 0.32669 0.15762 0.25115 0.0
C1581 C 0.33633 0.22901 0.27874 0.0
C1582 C 0.31815 0.22649 0.274 0.0
C1583 C 0.34518 0.21342 0.27827 0.0
C1584 C 0.33895 0.1594 0.26065 0.0
H1585 H 0.41372 0.11581 0.28167 0.0
H1586 H 0.39931 0.14301 0.28167 0.0
H1587 H 0.34136 0.13089 0.25054 0.0
H1588 H 0.29548 0.20435 0.265 0.0
H1589 H 0.31048 0.17773 0.26427 0.0
H1590 H 0.36858 0.19073 0.29369 0.0
C1591 C 0.39141 0.12905 0.27722 0.0
C1592 C 0.34759 0.14367 0.2603 0.0
C1593 C 0.3999 0.11318 0.27707 0.0
C1594 C 0.30939 0.20741 0.26868 0.0
C1595 C 0.31821 0.19183 0.26816 0.0
C1596 C 0.36237 0.1779 0.28399 0.0
C1597 C 0.37329 0.12707 0.27155 0.0
C1598 C 0.36392 0.14442 0.27184 0.0
C1599 C 0.33642 0.19425 0.27298 0.0
C1600 C 0.346 0.17709 0.27252 0.0
H1601 H 0.36507 0.07816 0.26095 0.0
H1602 H 0.35048 0.10514 0.26137 0.0
H1603 H 0.38325 0.16393 0.29318 0.0
H1604 H 0.34386 0.24319 0.28293 0.0
H1605 H 0.35908 0.21659 0.28191 0.0
C1606 C 0.31161 0.11026 0.51626 0.0
C1607 C 0.31308 0.12968 0.51485 0.0
C1608 C 0.32626 0.10193 0.518 0.0
C1609 C 0.37221 0.10978 0.5099 0.0
H1610 H 0.37451 0.06882 0.54112 0.0
C1611 C 0.43394 0.07748 0.52637 0.0
C1612 C 0.43151 0.05766 0.52576 0.0
C1613 C 0.41979 0.08667 0.52488 0.0
C1614 C 0.37403 0.08013 0.53218 0.0
H1615 H 0.33124 0.15563 0.51452 0.0
H1616 H 0.35675 0.14128 0.51801 0.0
H1617 H 0.34958 0.08408 0.53949 0.0
H1618 H 0.41198 0.03203 0.52209 0.0
H1619 H 0.38755 0.048 0.51979 0.0
H1620 H 0.39682 0.10588 0.5028 0.0
C1621 C 0.34426 0.13232 0.51735 0.0
C1622 C 0.35967 0.08889 0.5312 0.0
C1623 C 0.3296 0.14062 0.51552 0.0
C1624 C 0.41449 0.04732 0.52315 0.0
C1625 C 0.40041 0.0565 0.52179 0.0
C1626 C 0.38665 0.10108 0.51098 0.0
C1627 C 0.34283 0.1128 0.51848 0.0
C1628 C 0.35845 0.10378 0.51993 0.0
C1629 C 0.40283 0.07632 0.52283 0.0
C1630 C 0.3877 0.08602 0.52202 0.0
H1631 H 0.29909 0.10137 0.51567 0.0
H1632 H 0.32449 0.08684 0.51852 0.0
H1633 H 0.37172 0.12098 0.50081 0.0
H1634 H 0.4468 0.086 0.52857 0.0
H1635 H 0.42218 0.10196 0.52587 0.0
C1636 C 0.69024 0.60278 0.3145 0.0
C1637 C 0.67408 0.60522 0.3191 0.0
C1638 C 0.70324 0.61843 0.31435 0.0
C1639 C 0.70944 0.66905 0.30873 0.0
H1640 H 0.75756 0.66825 0.32608 0.0
C1641 C 0.76445 0.72058 0.28611 0.0
C1642 C 0.77905 0.72831 0.30025 0.0
C1643 C 0.75167 0.70639 0.29012 0.0
C1644 C 0.74417 0.6688 0.32137 0.0
H1645 H 0.65914 0.62619 0.32771 0.0
H1646 H 0.68187 0.65348 0.32759 0.0
H1647 H 0.73532 0.64211 0.3308 0.0
H1648 H 0.79195 0.72709 0.32953 0.0
H1649 H 0.76957 0.70209 0.3366 0.0
H1650 H 0.71826 0.69575 0.29935 0.0
C1651 C 0.6844 0.63941 0.32384 0.0
C1652 C 0.73143 0.65372 0.32388 0.0
C1653 C 0.67138 0.62375 0.32401 0.0
C1654 C 0.78079 0.72137 0.31839 0.0
C1655 C 0.768 0.70705 0.3224 0.0
C1656 C 0.72216 0.6841 0.3062 0.0
C1657 C 0.70042 0.63695 0.3188 0.0
C1658 C 0.71392 0.65355 0.31738 0.0
C1659 C 0.75325 0.69945 0.30831 0.0
C1660 C 0.7397 0.68405 0.31225 0.0
H1661 H 0.69282 0.58875 0.31063 0.0
H1662 H 0.71533 0.61599 0.31016 0.0
H1663 H 0.6961 0.66933 0.3034 0.0
H1664 H 0.76301 0.72531 0.27179 0.0
H1665 H 0.74068 0.70057 0.27878 0.0
C1666 C 0.87869 0.48278 0.77586 0.0
C1667 C 0.89632 0.48489 0.77399 0.0
C1668 C 0.86838 0.4646 0.77612 0.0
C1669 C 0.86752 0.41162 0.76334 0.0
H1670 H 0.83281 0.40479 0.79719 0.0
C1671 C 0.82369 0.33665 0.76269 0.0
C1672 C 0.8184 0.33152 0.78035 0.0
C1673 C 0.83235 0.35527 0.76147 0.0
C1674 C 0.8425 0.40625 0.78767 0.0
H1675 H 0.91636 0.46858 0.77055 0.0
H1676 H 0.89882 0.43779 0.77084 0.0
H1677 H 0.84873 0.43662 0.7957 0.0
H1678 H 0.81839 0.34293 0.81062 0.0
H1679 H 0.83329 0.37498 0.80853 0.0
H1680 H 0.86154 0.38135 0.75546 0.0
C1681 C 0.89271 0.44999 0.77205 0.0
C1682 C 0.85159 0.42476 0.78664 0.0
C1683 C 0.90295 0.46799 0.77202 0.0
C1684 C 0.82211 0.34599 0.79668 0.0
C1685 C 0.83066 0.36464 0.79542 0.0
C1686 C 0.85835 0.39317 0.76424 0.0
C1687 C 0.87518 0.44773 0.7742 0.0
C1688 C 0.86449 0.42792 0.7746 0.0
C1689 C 0.83608 0.36979 0.7778 0.0
C1690 C 0.84568 0.38993 0.77654 0.0
H1691 H 0.87292 0.49521 0.77755 0.0
H1692 H 0.85497 0.46378 0.77769 0.0
H1693 H 0.87704 0.41303 0.75361 0.0
H1694 H 0.82119 0.32621 0.74966 0.0
H1695 H 0.83593 0.35829 0.74746 0.0
C1696 C 0.07121 0.85941 0.13884 0.0
C1697 C 0.07337 0.84271 0.12783 0.0
C1698 C 0.07073 0.87597 0.13012 0.0
C1699 C 0.06209 0.89171 0.08097 0.0
H1700 H 0.08086 0.9418 0.10957 0.0
C1701 C 0.0459 0.95943 0.05163 0.0
C1702 C 0.05879 0.97591 0.05477 0.0
C1703 C 0.04858 0.94336 0.06027 0.0
C1704 C 0.07568 0.92793 0.10127 0.0
H1705 H 0.07737 0.8306 0.09917 0.0
H1706 H 0.07684 0.85939 0.08412 0.0
H1707 H 0.08449 0.91388 0.12528 0.0
H1708 H 0.08474 0.98815 0.06952 0.0
H1709 H 0.08955 0.96006 0.08426 0.0
H1710 H 0.05348 0.90568 0.05689 0.0
C1711 C 0.07514 0.85968 0.09939 0.0
C1712 C 0.07758 0.91187 0.11039 0.0
C1713 C 0.07559 0.84316 0.10808 0.0
C1714 C 0.07453 0.97575 0.06665 0.0
C1715 C 0.07723 0.95964 0.0753 0.0
C1716 C 0.06018 0.90774 0.07187 0.0
C1717 C 0.07242 0.87627 0.11016 0.0
C1718 C 0.07077 0.89351 0.1004 0.0
C1719 C 0.06425 0.94322 0.07233 0.0
C1720 C 0.06685 0.92611 0.0819 0.0
H1721 H 0.06938 0.85955 0.15406 0.0
H1722 H 0.06847 0.88836 0.13889 0.0
H1723 H 0.05646 0.87787 0.07282 0.0
H1724 H 0.03357 0.95897 0.04268 0.0
H1725 H 0.03816 0.93116 0.05782 0.0
C1726 C 0.96479 0.25825 0.87868 0.0
C1727 C 0.96734 0.26475 0.89896 0.0
C1728 C 0.94907 0.25834 0.86666 0.0
C1729 C 0.90295 0.26146 0.86943 0.0
H1730 H 0.90264 0.27466 0.81675 0.0
C1731 C 0.84103 0.27476 0.82136 0.0
C1732 C 0.83847 0.26734 0.80134 0.0
C1733 C 0.8566 0.27455 0.83364 0.0
C1734 C 0.90244 0.27078 0.83138 0.0
H1735 H 0.95508 0.27668 0.92227 0.0
H1736 H 0.92827 0.27709 0.90159 0.0
H1737 H 0.92989 0.27338 0.83676 0.0
H1738 H 0.85021 0.25385 0.77858 0.0
H1739 H 0.87694 0.2534 0.79971 0.0
H1740 H 0.87547 0.25897 0.86404 0.0
C1741 C 0.93816 0.27151 0.89488 0.0
C1742 C 0.91813 0.26998 0.84286 0.0
C1743 C 0.95373 0.27139 0.90681 0.0
C1744 C 0.85173 0.25974 0.79393 0.0
C1745 C 0.86719 0.25959 0.80605 0.0
C1746 C 0.88726 0.26232 0.85796 0.0
C1747 C 0.93549 0.26495 0.87464 0.0
C1748 C 0.91866 0.2653 0.86208 0.0
C1749 C 0.86996 0.26707 0.82607 0.0
C1750 C 0.88675 0.26692 0.83873 0.0
H1751 H 0.97492 0.25303 0.87207 0.0
H1752 H 0.9475 0.25302 0.85117 0.0
H1753 H 0.90271 0.2575 0.88402 0.0
H1754 H 0.83119 0.28097 0.82745 0.0
H1755 H 0.85831 0.28059 0.84895 0.0
C1756 C 0.55342 0.2284 0.6185 0.0
C1757 C 0.56732 0.24072 0.61348 0.0
C1758 C 0.55014 0.20895 0.61132 0.0
C1759 C 0.56086 0.17526 0.5719 0.0
H1760 H 0.5436 0.13687 0.60285 0.0
C1761 C 0.56127 0.09573 0.55086 0.0
C1762 C 0.54614 0.08282 0.55183 0.0
C1763 C 0.56322 0.1149 0.55837 0.0
C1764 C 0.54831 0.14745 0.59399 0.0
H1765 H 0.58919 0.24204 0.59785 0.0
H1766 H 0.58392 0.20851 0.58609 0.0
H1767 H 0.54812 0.17034 0.61636 0.0
H1768 H 0.52124 0.08007 0.56168 0.0
H1769 H 0.52479 0.11343 0.57492 0.0
H1770 H 0.56145 0.15235 0.54975 0.0
C1771 C 0.57504 0.21375 0.59482 0.0
C1772 C 0.55084 0.16667 0.60169 0.0
C1773 C 0.57815 0.23307 0.60172 0.0
C1774 C 0.53305 0.08958 0.56058 0.0
C1775 C 0.53511 0.10869 0.56832 0.0
C1776 C 0.55854 0.15611 0.56433 0.0
C1777 C 0.56083 0.2014 0.59917 0.0
C1778 C 0.55731 0.18086 0.59082 0.0
C1779 C 0.5502 0.12158 0.56727 0.0
C1780 C 0.55234 0.14196 0.57531 0.0
H1781 H 0.54483 0.23384 0.62753 0.0
H1782 H 0.53901 0.19993 0.61494 0.0
H1783 H 0.5654 0.18569 0.56279 0.0
H1784 H 0.57162 0.09105 0.54426 0.0
H1785 H 0.57506 0.12446 0.55747 0.0
C1786 C 0.57974 0.76513 0.40448 0.0
C1787 C 0.5633 0.75737 0.39365 0.0
C1788 C 0.5946 0.76552 0.39573 0.0
C1789 C 0.61185 0.744 0.35324 0.0
H1790 H 0.64719 0.78955 0.36563 0.0
C1791 C 0.67058 0.7554 0.31167 0.0
C1792 C 0.68666 0.76507 0.32216 0.0
C1793 C 0.6556 0.75419 0.32034 0.0
C1794 C 0.63762 0.77659 0.36218 0.0
H1795 H 0.54974 0.74356 0.36505 0.0
H1796 H 0.57573 0.74413 0.34974 0.0
H1797 H 0.62117 0.78764 0.38058 0.0
H1798 H 0.69942 0.78084 0.35028 0.0
H1799 H 0.67343 0.77856 0.36547 0.0
H1800 H 0.62835 0.73286 0.33495 0.0
C1801 C 0.57711 0.74989 0.36511 0.0
C1802 C 0.6226 0.7755 0.37076 0.0
C1803 C 0.56218 0.7496 0.37387 0.0
C1804 C 0.68728 0.77347 0.34163 0.0
C1805 C 0.6723 0.77219 0.35035 0.0
C1806 C 0.62692 0.74504 0.34472 0.0
C1807 C 0.59353 0.75808 0.37586 0.0
C1808 C 0.60948 0.75919 0.36646 0.0
C1809 C 0.65618 0.76255 0.33983 0.0
C1810 C 0.64007 0.76136 0.34904 0.0
H1811 H 0.58116 0.77122 0.41975 0.0
H1812 H 0.60698 0.77164 0.40462 0.0
H1813 H 0.60217 0.73111 0.34974 0.0
H1814 H 0.66946 0.74904 0.29653 0.0
H1815 H 0.64348 0.74697 0.31155 0.0
C1816 C 0.01905 0.23962 0.41014 0.0
C1817 C 0.03099 0.25062 0.40087 0.0
C1818 C 0.01939 0.22058 0.41089 0.0
C1819 C 0.05009 0.19117 0.41708 0.0
H1820 H 1.00959 0.15187 0.41381 0.0
C1821 C 0.05294 0.12876 0.46045 0.0
C1822 C 0.03933 0.12521 0.47123 0.0
C1823 C 0.0517 0.13961 0.44506 0.0
C1824 C 0.02105 0.16265 0.41474 0.0
H1825 H 0.05211 0.25027 0.38431 0.0
H1826 H 0.05318 0.21682 0.38641 0.0
H1827 H 1.0074 0.17989 0.39771 0.0
H1828 H 0.01362 0.12962 0.47415 0.0
H1829 H 1.01163 0.14912 0.44785 0.0
H1830 H 0.06344 0.175 0.43555 0.0
C1831 C 0.04341 0.22299 0.39274 0.0
C1832 C 0.01981 0.17857 0.40538 0.0
C1833 C 0.04282 0.24205 0.39161 0.0
C1834 C 0.02425 0.13211 0.46597 0.0
C1835 C 0.02308 0.14313 0.45076 0.0
C1836 C 0.0513 0.17538 0.42664 0.0
C1837 C 0.03185 0.21223 0.40269 0.0
C1838 C 0.03414 0.19333 0.40727 0.0
C1839 C 0.03691 0.1473 0.44034 0.0
C1840 C 0.03658 0.1614 0.42637 0.0
H1841 H 1.00965 0.24586 0.41717 0.0
H1842 H 1.0105 0.21267 0.41889 0.0
H1843 H 0.06129 0.20246 0.41889 0.0
H1844 H 0.06459 0.12326 0.46404 0.0
H1845 H 0.06248 0.14232 0.43715 0.0
C1846 C 0.60143 0.26393 0.20785 0.0
C1847 C 0.60009 0.27284 0.1908 0.0
C1848 C 0.6175 0.26153 0.21698 0.0
C1849 C 0.66048 0.25797 0.20593 0.0
H1850 H 0.67605 0.27205 0.26199 0.0
C1851 C 0.72842 0.28054 0.26086 0.0
C1852 C 0.73692 0.26589 0.2551 0.0
C1853 C 0.71085 0.27898 0.25446 0.0
C1854 C 0.67181 0.26798 0.24633 0.0
H1855 H 0.6147 0.28672 0.17039 0.0
H1856 H 0.64253 0.28251 0.1863 0.0
H1857 H 0.64679 0.27442 0.24794 0.0
H1858 H 0.73357 0.23796 0.23839 0.0
H1859 H 0.70278 0.23537 0.22697 0.0
H1860 H 0.68559 0.25207 0.20415 0.0
C1861 C 0.63115 0.27718 0.19243 0.0
C1862 C 0.65507 0.26921 0.23834 0.0
C1863 C 0.61519 0.27971 0.18343 0.0
C1864 C 0.72741 0.24952 0.243 0.0
C1865 C 0.70981 0.24804 0.23645 0.0
C1866 C 0.67714 0.25661 0.21392 0.0
C1867 C 0.63244 0.26783 0.2091 0.0
C1868 C 0.64943 0.26466 0.21799 0.0
C1869 C 0.7014 0.2628 0.24207 0.0
C1870 C 0.6831 0.26201 0.23412 0.0
H1871 H 0.59007 0.2585 0.21394 0.0
H1872 H 0.61818 0.2543 0.22985 0.0
H1873 H 0.65634 0.25414 0.19022 0.0
H1874 H 0.73532 0.29329 0.2703 0.0
H1875 H 0.70476 0.29069 0.2588 0.0
C1876 C 0.54172 0.86244 0.92033 0.0
C1877 C 0.53633 0.84364 0.92336 0.0
C1878 C 0.53805 0.8773 0.93266 0.0
C1879 C 0.52419 0.88816 0.98119 0.0
H1880 H 0.5184 0.9346 0.96054 0.0
C1881 C 0.53354 0.95888 0.03065 0.0
C1882 C 0.52637 0.97368 0.02363 0.0
C1883 C 0.53056 0.94123 0.01915 0.0
C1884 C 0.51953 0.92162 0.96655 0.0
H1885 H 0.52284 0.82561 0.94161 0.0
H1886 H 0.51557 0.85127 0.96227 0.0
H1887 H 0.5215 0.90756 0.93846 0.0
H1888 H 0.50894 0.98119 1.00041 0.0
H1889 H 0.50286 0.95004 0.98071 0.0
H1890 H 0.52148 0.90196 0.00913 0.0
C1891 C 0.52315 0.85474 0.95089 0.0
C1892 C 0.52173 0.90618 0.95389 0.0
C1893 C 0.5272 0.83995 0.9389 0.0
C1894 C 0.51483 0.97006 1.00591 0.0
C1895 C 0.5115 0.95225 0.99459 0.0
C1896 C 0.52158 0.90345 0.99377 0.0
C1897 C 0.52855 0.87364 0.948 0.0
C1898 C 0.52461 0.88944 0.96114 0.0
C1899 C 0.52004 0.93791 1.00059 0.0
C1900 C 0.51976 0.92059 0.98675 0.0
H1901 H 0.54888 0.86567 0.90853 0.0
H1902 H 0.54284 0.89166 0.93025 0.0
H1903 H 0.52648 0.8756 0.98743 0.0
H1904 H 0.54255 0.96134 0.04428 0.0
H1905 H 0.53753 0.93071 0.02428 0.0
C1906 C 0.99015 0.73766 0.69374 0.0
C1907 C 1.0063 0.73741 0.70458 0.0
C1908 C 0.97594 0.73857 0.70326 0.0
C1909 C 0.9581 0.73523 0.74936 0.0
H1910 H 0.94042 0.7797 0.73634 0.0
C1911 C 0.89798 0.76004 0.77542 0.0
C1912 C 0.89994 0.77961 0.78161 0.0
C1913 C 0.91118 0.75272 0.76778 0.0
C1914 C 0.94526 0.76728 0.74017 0.0
H1915 H 0.0198 0.73581 0.73354 0.0
H1916 H 0.99484 0.73728 0.75015 0.0
H1917 H 0.96177 0.76871 0.71838 0.0
H1918 H 0.91783 0.80653 0.78599 0.0
H1919 H 0.94064 0.79379 0.7722 0.0
H1920 H 0.9414 0.73395 0.77124 0.0
C1921 C 0.99325 0.73689 0.73433 0.0
C1922 C 0.95732 0.76085 0.72973 0.0
C1923 C 1.00753 0.73605 0.7248 0.0
C1924 C 0.91573 0.79148 0.78094 0.0
C1925 C 0.92882 0.7842 0.77313 0.0
C1926 C 0.94575 0.74153 0.75965 0.0
C1927 C 0.97758 0.73913 0.72376 0.0
C1928 C 0.96393 0.74482 0.73425 0.0
C1929 C 0.92649 0.76485 0.76602 0.0
C1930 C 0.9394 0.75776 0.75526 0.0
H1931 H 0.98873 0.73852 0.67811 0.0
H1932 H 0.96391 0.73996 0.69474 0.0
H1933 H 0.96306 0.72287 0.75314 0.0
H1934 H 0.88593 0.75049 0.77552 0.0
H1935 H 0.90905 0.73776 0.76229 0.0
C1936 C 0.14825 0.03986 0.87312 0.0
C1937 C 0.13828 0.04563 0.85741 0.0
C1938 C 0.14185 0.03752 0.8907 0.0
C1939 C 0.10901 0.05022 0.91975 0.0
H1940 H 0.11282 1.0038 0.94166 0.0
C1941 C 0.08387 0.03602 0.99146 0.0
C1942 C 0.07347 0.01815 0.99108 0.0
C1943 C 0.09377 0.03947 0.97666 0.0
C1944 C 0.11165 0.01681 0.9357 0.0
H1945 H 0.1141 0.0542 0.84803 0.0
H1946 H 0.10299 0.05025 0.8787 0.0
H1947 H 0.1262 1.01053 0.91284 0.0
H1948 H 0.06589 0.98962 0.97548 0.0
H1949 H 0.08321 0.99566 0.94946 0.0
H1950 H 0.09412 0.05631 0.94223 0.0
C1951 C 0.11575 0.04753 0.87748 0.0
C1952 C 0.11945 0.02076 0.91933 0.0
C1953 C 0.12209 0.04974 0.85988 0.0
C1954 C 0.07381 1.00352 0.97613 0.0
C1955 C 0.08376 1.00697 0.96128 0.0
C1956 C 0.10131 0.04633 0.93616 0.0
C1957 C 0.12542 0.04108 0.89296 0.0
C1958 C 0.11807 0.03743 0.91107 0.0
C1959 C 0.0935 0.02514 0.96113 0.0
C1960 C 0.10243 0.02952 0.94424 0.0
H1961 H 0.16078 0.03658 0.87165 0.0
H1962 H 0.14969 0.03277 0.90246 0.0
H1963 H 0.10782 0.06324 0.91381 0.0
H1964 H 0.08386 0.0476 1.00277 0.0
H1965 H 0.10135 0.05352 0.97715 0.0
C1966 C 0.79789 0.34698 0.55302 0.0
C1967 C 0.78775 0.36078 0.55025 0.0
C1968 C 0.80875 0.34786 0.57075 0.0
C1969 C 0.8356 0.35564 0.60689 0.0
H1970 H 0.81201 0.35828 0.6521 0.0
C1971 C 0.83438 0.3043 0.66142 0.0
C1972 C 0.83095 0.30942 0.68037 0.0
C1973 C 0.83738 0.31799 0.649 0.0
C1974 C 0.81915 0.35811 0.63988 0.0
H1975 H 0.78134 0.38658 0.56393 0.0
H1976 H 0.80027 0.38791 0.5951 0.0
H1977 H 0.80006 0.36888 0.62217 0.0
H1978 H 0.82977 0.33298 0.70207 0.0
H1979 H 0.83482 0.35693 0.68022 0.0
H1980 H 0.85385 0.34323 0.62419 0.0
C1981 C 0.79977 0.37646 0.58344 0.0
C1982 C 0.81223 0.36416 0.62265 0.0
C1983 C 0.78889 0.37562 0.56562 0.0
C1984 C 0.83239 0.32868 0.68747 0.0
C1985 C 0.83523 0.34238 0.67498 0.0
C1986 C 0.84248 0.34949 0.62411 0.0
C1987 C 0.80978 0.36254 0.58618 0.0
C1988 C 0.8198 0.36182 0.60562 0.0
C1989 C 0.83678 0.33698 0.6553 0.0
C1990 C 0.83368 0.34956 0.64032 0.0
H1991 H 0.79742 0.33539 0.54154 0.0
H1992 H 0.81593 0.33662 0.57255 0.0
H1993 H 0.84196 0.35417 0.5941 0.0
H1994 H 0.83348 0.28954 0.65573 0.0
H1995 H 0.83842 0.31334 0.63388 0.0
C1996 C 0.42993 0.04571 0.34447 0.0
C1997 C 0.43769 0.04607 0.32731 0.0
C1998 C 0.43928 0.04383 0.36296 0.0
C1999 C 0.48161 0.03112 0.38627 0.0
H2000 H 0.46925 0.05142 0.43533 0.0
C2001 C 0.5279 0.03629 0.46065 0.0
C2002 C 0.52161 0.03352 0.47843 0.0
C2003 C 0.517 0.03737 0.44314 0.0
C2004 C 0.47289 0.04545 0.42186 0.0
H2005 H 0.46187 0.04483 0.31693 0.0
H2006 H 0.47804 0.04203 0.34856 0.0
H2007 H 0.45229 0.05435 0.40398 0.0
H2008 H 0.49811 0.02999 0.49105 0.0
H2009 H 0.47893 0.03205 0.46047 0.0
H2010 H 0.50225 0.02238 0.40403 0.0
C2011 C 0.46457 0.04273 0.34796 0.0
C2012 C 0.46303 0.04712 0.40359 0.0
C2013 C 0.45521 0.04451 0.32953 0.0
C2014 C 0.50365 0.0321 0.47787 0.0
C2015 C 0.4926 0.03337 0.46017 0.0
C2016 C 0.49148 0.02957 0.40444 0.0
C2017 C 0.4569 0.04226 0.36525 0.0
C2018 C 0.4672 0.04014 0.38522 0.0
C2019 C 0.49903 0.03585 0.44227 0.0
C2020 C 0.48754 0.03684 0.42275 0.0
H2021 H 0.41652 0.04683 0.34365 0.0
H2022 H 0.43249 0.04335 0.37543 0.0
H2023 H 0.48533 0.02492 0.37295 0.0
H2024 H 0.54156 0.0376 0.46015 0.0
H2025 H 0.52286 0.03969 0.4302 0.0
C2026 C 0.78871 0.67714 0.07498 0.0
C2027 C 0.77356 0.67941 0.06334 0.0
C2028 C 0.7918 0.68348 0.0953 0.0
C2029 C 0.76992 0.69607 0.13714 0.0
H2030 H 0.8122 0.73186 0.15852 0.0
C2031 C 0.77583 0.74506 0.20993 0.0
C2032 C 0.79159 0.74907 0.22283 0.0
C2033 C 0.7745 0.73544 0.19097 0.0
C2034 C 0.80044 0.72166 0.15293 0.0
H2035 H 0.74943 0.68917 0.0639 0.0
H2036 H 0.75461 0.69972 0.0991 0.0
H2037 H 0.80848 0.71544 0.12499 0.0
H2038 H 0.81842 0.74627 0.22571 0.0
H2039 H 0.81601 0.72922 0.19281 0.0
H2040 H 0.76177 0.70219 0.16488 0.0
C2041 C 0.76419 0.69328 0.09267 0.0
C2042 C 0.79833 0.71223 0.13371 0.0
C2043 C 0.76128 0.68732 0.07247 0.0
C2044 C 0.80607 0.7435 0.21616 0.0
C2045 C 0.80471 0.73375 0.19722 0.0
C2046 C 0.77206 0.70533 0.15636 0.0
C2047 C 0.77958 0.69174 0.10429 0.0
C2048 C 0.7829 0.69965 0.12548 0.0
C2049 C 0.78886 0.72941 0.18443 0.0
C2050 C 0.78718 0.71859 0.16439 0.0
H2051 H 0.79842 0.67116 0.06828 0.0
H2052 H 0.80376 0.68208 0.10396 0.0
H2053 H 0.75796 0.68627 0.13126 0.0
H2054 H 0.76444 0.74926 0.21449 0.0
H2055 H 0.76217 0.73278 0.18141 0.0
C2056 C 0.10161 0.05166 0.7468 0.0
C2057 C 0.11773 0.04734 0.75343 0.0
C2058 C 0.09497 0.0489 0.72676 0.0
C2059 C 0.08898 0.05324 0.68365 0.0
H2060 H 0.09426 1.00946 0.64905 0.0
C2061 C 0.0715 0.0474 0.59952 0.0
C2062 C 0.06303 0.02969 0.58919 0.0
C2063 C 0.07845 0.04917 0.61941 0.0
C2064 C 0.09256 0.02169 0.65854 0.0
H2065 H 0.13945 0.03652 0.74404 0.0
H2066 H 0.12797 0.03201 0.70901 0.0
H2067 H 0.10545 0.01288 0.68411 0.0
H2068 H 0.05534 0.99988 0.59167 0.0
H2069 H 0.06723 1.00304 0.62648 0.0
H2070 H 0.07573 0.06185 0.65826 0.0
C2071 C 0.12035 0.03729 0.71939 0.0
C2072 C 0.09916 0.02377 0.6786 0.0
C2073 C 0.12697 0.03998 0.73949 0.0
C2074 C 0.06179 0.01374 0.59918 0.0
C2075 C 0.06871 0.01553 0.61912 0.0
C2076 C 0.08236 0.05115 0.66364 0.0
C2077 C 0.10431 0.04184 0.71278 0.0
C2078 C 0.09742 0.03956 0.69141 0.0
C2079 C 0.07705 0.03329 0.6295 0.0
C2080 C 0.08408 0.03537 0.65082 0.0
H2081 H 0.09404 0.05719 0.75709 0.0
H2082 H 0.08244 0.05222 0.72223 0.0
H2083 H 0.0876 0.06571 0.69301 0.0
H2084 H 0.07282 0.05995 0.59226 0.0
H2085 H 0.08505 0.063 0.62685 0.0
C2086 C 0.73984 0.36341 0.44184 0.0
C2087 C 0.73474 0.35348 0.45697 0.0
C2088 C 0.74037 0.35359 0.42347 0.0
C2089 C 0.74422 0.30547 0.40244 0.0
H2090 H 0.74281 0.32755 0.35387 0.0
C2091 C 0.75258 0.2686 0.32606 0.0
C2092 C 0.76891 0.27617 0.32188 0.0
C2093 C 0.74583 0.27784 0.34111 0.0
C2094 C 0.74309 0.32125 0.36736 0.0
H2095 H 0.72481 0.32595 0.46461 0.0
H2096 H 0.72447 0.30888 0.43217 0.0
H2097 H 0.73369 0.34376 0.38241 0.0
H2098 H 0.79122 0.29886 0.33042 0.0
H2099 H 0.77902 0.31549 0.35622 0.0
H2100 H 0.7534 0.28286 0.3871 0.0
C2101 C 0.7289 0.32408 0.43459 0.0
C2102 C 0.73801 0.33053 0.38373 0.0
C2103 C 0.72885 0.33384 0.45309 0.0
C2104 C 0.77838 0.29309 0.33295 0.0
C2105 C 0.77149 0.30251 0.34772 0.0
C2106 C 0.74893 0.29606 0.38598 0.0
C2107 C 0.73545 0.3337 0.41982 0.0
C2108 C 0.73882 0.32293 0.40163 0.0
C2109 C 0.75522 0.29487 0.35191 0.0
C2110 C 0.74867 0.30405 0.3685 0.0
H2111 H 0.74469 0.37856 0.44464 0.0
H2112 H 0.74568 0.36154 0.41263 0.0
H2113 H 0.74549 0.29934 0.41599 0.0
H2114 H 0.74507 0.25552 0.31776 0.0
H2115 H 0.73332 0.27169 0.34436 0.0
C2116 C 0.43195 0.03112 0.20375 0.0
C2117 C 0.43917 0.0449 0.22027 0.0
C2118 C 0.43968 0.02981 0.18633 0.0
C2119 C 0.48259 0.0463 0.16754 0.0
H2120 H 0.45708 0.02207 0.11691 0.0
C2121 C 0.51936 0.03071 0.10056 0.0
C2122 C 0.51127 0.02918 0.08079 0.0
C2123 C 0.51023 0.03255 0.11672 0.0
C2124 C 0.46461 0.02906 0.13078 0.0
H2125 H 0.46087 0.06783 0.23072 0.0
H2126 H 0.47368 0.06635 0.20073 0.0
H2127 H 0.44209 0.02599 0.14509 0.0
H2128 H 0.48646 0.02847 0.06335 0.0
H2129 H 0.47069 0.03189 0.09115 0.0
H2130 H 0.50499 0.04983 0.1533 0.0
C2131 C 0.46206 0.0562 0.20097 0.0
C2132 C 0.45587 0.03115 0.14735 0.0
C2133 C 0.45438 0.05741 0.21832 0.0
C2134 C 0.49342 0.0295 0.0781 0.0
C2135 C 0.48424 0.03141 0.09434 0.0
C2136 C 0.49129 0.04424 0.15104 0.0
C2137 C 0.45524 0.04207 0.18454 0.0
C2138 C 0.46457 0.03985 0.1663 0.0
C2139 C 0.49239 0.0331 0.11421 0.0
C2140 C 0.48265 0.03549 0.1321 0.0
H2141 H 0.42076 0.02057 0.20467 0.0
H2142 H 0.43377 0.01848 0.17458 0.0
H2143 H 0.49028 0.05282 0.18148 0.0
H2144 H 0.53297 0.03049 0.10371 0.0
H2145 H 0.51737 0.03332 0.13131 0.0
C2146 C 0.7697 0.69309 0.96043 0.0
C2147 C 0.77015 0.67365 0.95834 0.0
C2148 C 0.77052 0.70317 0.9444 0.0
C2149 C 0.76448 0.69857 0.89014 0.0
H2150 H 0.79611 0.74699 0.89961 0.0
C2151 C 0.78294 0.74038 0.82681 0.0
C2152 C 0.78651 0.76028 0.83041 0.0
C2153 C 0.77978 0.72965 0.84201 0.0
C2154 C 0.78697 0.73367 0.8967 0.0
H2155 H 0.77124 0.64942 0.93751 0.0
H2156 H 0.77251 0.66707 0.90932 0.0
H2157 H 0.79259 0.72844 0.92648 0.0
H2158 H 0.7889 0.78453 0.85256 0.0
H2159 H 0.78289 0.7659 0.879 0.0
H2160 H 0.75872 0.70388 0.86038 0.0
C2161 C 0.77153 0.67448 0.92346 0.0
C2162 C 0.78501 0.72298 0.91215 0.0
C2163 C 0.77083 0.66437 0.93961 0.0
C2164 C 0.78629 0.76922 0.84938 0.0
C2165 C 0.78299 0.7585 0.86457 0.0
C2166 C 0.76633 0.70936 0.87468 0.0
C2167 C 0.77172 0.69409 0.92577 0.0
C2168 C 0.77374 0.7053 0.9091 0.0
C2169 C 0.77997 0.73853 0.8612 0.0
C2170 C 0.77762 0.72709 0.87772 0.0
H2171 H 0.7691 0.70071 0.97461 0.0
H2172 H 0.77033 0.71818 0.94664 0.0
H2173 H 0.75556 0.68509 0.88733 0.0
H2174 H 0.78309 0.73305 0.81234 0.0
H2175 H 0.77773 0.71437 0.8388 0.0
C2176 C 0.87617 0.15734 0.0282 0.0
C2177 C 0.86013 0.15016 0.03334 0.0
C2178 C 0.88677 0.14502 0.02234 0.0
C2179 C 0.89375 0.09613 0.02476 0.0
H2180 H 0.9198 0.10563 0.98236 0.0
C2181 C 0.93281 0.04298 0.99618 0.0
C2182 C 0.95017 0.05096 0.99643 0.0
C2183 C 0.9207 0.05462 0.99757 0.0
C2184 C 0.91256 0.10284 0.9942 0.0
H2185 H 0.84251 0.12453 0.03628 0.0
H2186 H 0.86075 0.10314 0.02573 0.0
H2187 H 0.90118 0.12733 0.99199 0.0
H2188 H 0.96836 0.07705 0.99672 0.0
H2189 H 0.94717 0.09741 0.9991 0.0
H2190 H 0.90511 0.07168 0.02699 0.0
C2191 C 0.86538 0.11823 0.02659 0.0
C2192 C 0.90202 0.1153 0.99982 0.0
C2193 C 0.85489 0.13051 0.03258 0.0
C2194 C 0.95503 0.07061 0.99669 0.0
C2195 C 0.94291 0.08222 0.99791 0.0
C2196 C 0.90415 0.08362 0.01904 0.0
C2197 C 0.88144 0.12532 0.02142 0.0
C2198 C 0.89257 0.11212 0.01524 0.0
C2199 C 0.92576 0.07438 0.99904 0.0
C2200 C 0.91372 0.08691 1.00379 0.0
H2201 H 0.88052 0.17244 0.02867 0.0
H2202 H 0.89919 0.15094 0.01872 0.0
H2203 H 0.88691 0.09345 0.03695 0.0
H2204 H 0.92878 0.02787 0.99606 0.0
H2205 H 0.90749 0.04824 0.99821 0.0
C2206 C 0.36796 0.43971 0.04905 0.0
C2207 C 0.36614 0.41989 0.04516 0.0
C2208 C 0.38392 0.45166 0.04898 0.0
C2209 C 0.43102 0.45118 0.05255 0.0
H2210 H 0.43303 0.49652 0.02739 0.0
C2211 C 0.49536 0.49204 0.03493 0.0
C2212 C 0.49799 0.51188 0.03708 0.0
C2213 C 0.47931 0.48123 0.03659 0.0
C2214 C 0.43276 0.48404 0.03471 0.0
H2215 H 0.38 0.39731 0.03827 0.0
H2216 H 0.40729 0.41786 0.03808 0.0
H2217 H 0.40509 0.47759 0.02976 0.0
H2218 H 0.48578 0.53596 0.04279 0.0
H2219 H 0.458 0.5173 0.0459 0.0
H2220 H 0.45862 0.45753 0.05747 0.0
C2221 C 0.39656 0.42429 0.0414 0.0
C2222 C 0.41667 0.47317 0.03609 0.0
C2223 C 0.38073 0.41245 0.04137 0.0
C2224 C 0.4842 0.52067 0.04098 0.0
C2225 C 0.46818 0.50993 0.04263 0.0
C2226 C 0.44708 0.46204 0.0512 0.0
C2227 C 0.39846 0.44407 0.04519 0.0
C2228 C 0.41556 0.45646 0.04485 0.0
C2229 C 0.46544 0.49002 0.04043 0.0
C2230 C 0.44823 0.47857 0.04212 0.0
H2231 H 0.35706 0.44599 0.052 0.0
H2232 H 0.3849 0.46683 0.05207 0.0
H2233 H 0.43074 0.43861 0.05973 0.0
H2234 H 0.50563 0.48485 0.03183 0.0
H2235 H 0.47771 0.46594 0.03454 0.0
C2236 C 0.39724 0.54864 0.73925 0.0
C2237 C 0.41411 0.55145 0.74951 0.0
C2238 C 0.38863 0.56379 0.73814 0.0
C2239 C 0.39483 0.61632 0.74552 0.0
H2240 H 0.34694 0.60609 0.75278 0.0
C2241 C 0.35492 0.6751 0.75941 0.0
C2242 C 0.33786 0.67141 0.74943 0.0
C2243 C 0.36489 0.661 0.75879 0.0
C2244 C 0.36025 0.60915 0.75053 0.0
H2245 H 0.43541 0.57248 0.7661 0.0
H2246 H 0.4203 0.59891 0.7644 0.0
H2247 H 0.36312 0.58059 0.75238 0.0
H2248 H 0.31823 0.65026 0.73022 0.0
H2249 H 0.33551 0.62574 0.72934 0.0
H2250 H 0.3919 0.64503 0.74394 0.0
C2251 C 0.41377 0.58503 0.75701 0.0
C2252 C 0.36953 0.5945 0.75024 0.0
C2253 C 0.42242 0.56986 0.75805 0.0
C2254 C 0.33117 0.65346 0.73847 0.0
C2255 C 0.34108 0.6394 0.73793 0.0
C2256 C 0.38554 0.63102 0.74588 0.0
C2257 C 0.39665 0.58211 0.74736 0.0
C2258 C 0.3869 0.59785 0.7476 0.0
C2259 C 0.35798 0.64292 0.74824 0.0
C2260 C 0.36811 0.62755 0.74826 0.0
H2261 H 0.39052 0.53464 0.7324 0.0
H2262 H 0.37558 0.5611 0.73023 0.0
H2263 H 0.40815 0.61936 0.74329 0.0
H2264 H 0.36042 0.68871 0.76811 0.0
H2265 H 0.37784 0.66409 0.76701 0.0
C2266 C 0.25351 0.66493 0.53142 0.0
C2267 C 0.26912 0.66549 0.54379 0.0
C2268 C 0.239 0.65135 0.53239 0.0
C2269 C 0.21905 0.62058 0.56435 0.0
H2270 H 0.19584 0.58883 0.51601 0.0
C2271 C 0.16328 0.55898 0.56541 0.0
C2272 C 0.14895 0.55688 0.55057 0.0
C2273 C 0.17881 0.57072 0.56404 0.0
C2274 C 0.20204 0.5977 0.52961 0.0
H2275 H 0.28171 0.65283 0.56727 0.0
H2276 H 0.25618 0.62942 0.56928 0.0
H2277 H 0.22054 0.61375 0.51518 0.0
H2278 H 0.14007 0.56437 0.52198 0.0
H2279 H 0.16678 0.58545 0.52001 0.0
H2280 H 0.20033 0.60513 0.57878 0.0
C2281 C 0.25525 0.63935 0.55876 0.0
C2282 C 0.21617 0.61193 0.52911 0.0
C2283 C 0.26982 0.65269 0.55757 0.0
C2284 C 0.15076 0.56601 0.53388 0.0
C2285 C 0.16619 0.57791 0.53262 0.0
C2286 C 0.20477 0.60654 0.56483 0.0
C2287 C 0.23982 0.63837 0.54596 0.0
C2288 C 0.22475 0.62349 0.54647 0.0
C2289 C 0.1803 0.58074 0.54789 0.0
C2290 C 0.19606 0.59495 0.54746 0.0
H2291 H 0.25268 0.67451 0.52052 0.0
H2292 H 0.22716 0.6509 0.52246 0.0
H2293 H 0.22543 0.62942 0.57791 0.0
H2294 H 0.16232 0.5522 0.57849 0.0
H2295 H 0.18955 0.57224 0.57586 0.0
C2296 C 0.68204 0.93641 0.7935 0.0
C2297 C 0.69085 0.95514 0.79313 0.0
C2298 C 0.69051 0.92048 0.79264 0.0
C2299 C 0.7357 0.9069 0.79786 0.0
H2300 H 0.71047 0.8567 0.776 0.0
C2301 C 0.77279 0.84215 0.78956 0.0
C2302 C 0.76413 0.82298 0.78689 0.0
C2303 C 0.76389 0.85766 0.7903 0.0
C2304 C 0.71799 0.87042 0.78245 0.0
H2305 H 0.7162 0.97082 0.79151 0.0
H2306 H 0.73069 0.94373 0.79003 0.0
H2307 H 0.69566 0.88341 0.77733 0.0
H2308 H 0.73842 0.80606 0.78299 0.0
H2309 H 0.7231 0.8325 0.78469 0.0
H2310 H 0.75794 0.8941 0.80331 0.0
C2311 C 0.71712 0.94109 0.79115 0.0
C2312 C 0.70926 0.88614 0.78321 0.0
C2313 C 0.70864 0.95694 0.79187 0.0
C2314 C 0.74592 0.82031 0.78506 0.0
C2315 C 0.73697 0.83586 0.78592 0.0
C2316 C 0.7444 0.8912 0.79724 0.0
C2317 C 0.70839 0.92227 0.79153 0.0
C2318 C 0.71782 0.90497 0.79086 0.0
C2319 C 0.74562 0.85517 0.78856 0.0
C2320 C 0.73592 0.87234 0.78943 0.0
H2321 H 0.66844 0.93396 0.79453 0.0
H2322 H 0.68292 0.90669 0.7932 0.0
H2323 H 0.74318 0.92068 0.80429 0.0
H2324 H 0.7867 0.84533 0.79091 0.0
H2325 H 0.77161 0.87174 0.79197 0.0
C2326 C 0.77131 0.94268 0.55982 0.0
C2327 C 0.76977 0.92309 0.55432 0.0
C2328 C 0.75659 0.95091 0.55945 0.0
C2329 C 0.71009 0.94159 0.53704 0.0
H2330 H 0.70782 0.98389 0.57546 0.0
C2331 C 0.64714 0.97077 0.5401 0.0
C2332 C 0.64853 0.99057 0.54345 0.0
C2333 C 0.66185 0.96257 0.54215 0.0
C2334 C 0.70828 0.97219 0.56449 0.0
H2335 H 0.75143 0.89675 0.5447 0.0
H2336 H 0.72593 0.91091 0.54446 0.0
H2337 H 0.73344 0.96965 0.57798 0.0
H2338 H 0.66683 0.01717 0.55158 0.0
H2339 H 0.69235 1.0029 0.55532 0.0
H2340 H 0.68494 0.94409 0.52357 0.0
C2341 C 0.73847 0.92008 0.54864 0.0
C2342 C 0.72303 0.96401 0.56592 0.0
C2343 C 0.75314 0.9119 0.54895 0.0
C2344 C 0.66512 1.00188 0.54919 0.0
C2345 C 0.67982 0.99367 0.55131 0.0
C2346 C 0.69534 0.94972 0.53565 0.0
C2347 C 0.73993 0.93976 0.5536 0.0
C2348 C 0.72417 0.94856 0.55222 0.0
C2349 C 0.67844 0.9739 0.54768 0.0
C2350 C 0.69419 0.96515 0.54934 0.0
H2351 H 0.7839 0.95176 0.56393 0.0
H2352 H 0.75833 0.96611 0.5632 0.0
H2353 H 0.71053 0.93 0.52594 0.0
H2354 H 0.63464 0.96152 0.536 0.0
H2355 H 0.6602 0.94729 0.53955 0.0
C2356 C 0.41836 0.43502 0.77228 0.0
C2357 C 0.41542 0.44945 0.76099 0.0
C2358 C 0.4056 0.41893 0.77148 0.0
C2359 C 0.35843 0.40086 0.75659 0.0
H2360 H 0.37163 0.3527 0.76367 0.0
C2361 C 0.30961 0.32963 0.7514 0.0
C2362 C 0.31233 0.31999 0.76771 0.0
C2363 C 0.32191 0.34518 0.74887 0.0
C2364 C 0.36777 0.36607 0.76167 0.0
H2365 H 0.39682 0.45807 0.73968 0.0
H2366 H 0.37478 0.4297 0.73776 0.0
H2367 H 0.39368 0.38008 0.7619 0.0
H2368 H 0.32961 0.31954 0.79458 0.0
H2369 H 0.35135 0.34602 0.7897 0.0
H2370 H 0.33241 0.38652 0.75607 0.0
C2371 C 0.38678 0.43102 0.74766 0.0
C2372 C 0.38041 0.38183 0.76079 0.0
C2373 C 0.39948 0.44727 0.74867 0.0
C2374 C 0.32744 0.32625 0.7815 0.0
C2375 C 0.33983 0.3415 0.77879 0.0
C2376 C 0.34575 0.38499 0.75717 0.0
C2377 C 0.38963 0.41666 0.75914 0.0
C2378 C 0.37597 0.39955 0.75862 0.0
C2379 C 0.3372 0.35113 0.76248 0.0
C2380 C 0.35035 0.36754 0.76006 0.0
H2381 H 0.4304 0.43632 0.78209 0.0
H2382 H 0.4082 0.40845 0.78089 0.0
H2383 H 0.35448 0.41427 0.75517 0.0
H2384 H 0.298 0.32517 0.74063 0.0
H2385 H 0.31958 0.35241 0.73618 0.0
C2386 C 0.20179 0.56695 0.29159 0.0
C2387 C 0.18853 0.56523 0.30325 0.0
C2388 C 0.21178 0.58496 0.2901 0.0
C2389 C 0.22458 0.63597 0.31513 0.0
H2390 H 0.23494 0.64788 0.26448 0.0
C2391 C 0.2562 0.71408 0.30619 0.0
C2392 C 0.26506 0.71784 0.29031 0.0
C2393 C 0.24738 0.69561 0.30769 0.0
C2394 C 0.23256 0.64503 0.27895 0.0
H2395 H 0.17604 0.58179 0.3228 0.0
H2396 H 0.1935 0.61249 0.32078 0.0
H2397 H 0.22005 0.61622 0.26754 0.0
H2398 H 0.27139 0.70419 0.2636 0.0
H2399 H 0.25688 0.67233 0.26646 0.0
H2400 H 0.23738 0.66435 0.32684 0.0
C2401 C 0.19625 0.60004 0.3126 0.0
C2402 C 0.22382 0.62655 0.28066 0.0
C2403 C 0.18611 0.58221 0.31375 0.0
C2404 C 0.26473 0.70219 0.27604 0.0
C2405 C 0.25614 0.68364 0.27768 0.0
C2406 C 0.23356 0.65433 0.31352 0.0
C2407 C 0.20918 0.60197 0.30053 0.0
C2408 C 0.21946 0.6216 0.29876 0.0
C2409 C 0.24715 0.67974 0.29355 0.0
C2410 C 0.2377 0.65954 0.29534 0.0
H2411 H 0.20404 0.55446 0.28299 0.0
H2412 H 0.22159 0.58554 0.28072 0.0
H2413 H 0.22184 0.63299 0.32948 0.0
H2414 H 0.25584 0.72555 0.31747 0.0
H2415 H 0.24053 0.69401 0.32001 0.0
C2416 C 0.52603 0.70114 0.43874 0.0
C2417 C 0.52197 0.71569 0.45147 0.0
C2418 C 0.52861 0.68401 0.44544 0.0
C2419 C 0.53994 0.66422 0.49165 0.0
H2420 H 0.51984 0.61521 0.46129 0.0
C2421 C 0.55547 0.59495 0.51712 0.0
C2422 C 0.54196 0.57915 0.51492 0.0
C2423 C 0.55311 0.61119 0.50869 0.0
C2424 C 0.52546 0.62879 0.47001 0.0
H2425 H 0.51749 0.72333 0.48134 0.0
H2426 H 0.52194 0.69396 0.49271 0.0
H2427 H 0.51593 0.64419 0.44744 0.0
H2428 H 0.51523 0.56823 0.50205 0.0
H2429 H 0.51107 0.59672 0.48747 0.0
H2430 H 0.54921 0.64905 0.51433 0.0
C2431 C 0.52328 0.6957 0.47763 0.0
C2432 C 0.5234 0.6454 0.46195 0.0
C2433 C 0.5206 0.71261 0.47098 0.0
C2434 C 0.52594 0.58011 0.5041 0.0
C2435 C 0.52359 0.5964 0.49558 0.0
C2436 C 0.54207 0.6477 0.49963 0.0
C2437 C 0.5274 0.68117 0.46506 0.0
C2438 C 0.53047 0.66334 0.47278 0.0
C2439 C 0.53717 0.61217 0.49776 0.0
C2440 C 0.5348 0.62973 0.489 0.0
H2441 H 0.52716 0.70295 0.42364 0.0
H2442 H 0.53183 0.67312 0.43537 0.0
H2443 H 0.54572 0.67776 0.50036 0.0
H2444 H 0.56803 0.59477 0.52522 0.0
H2445 H 0.56394 0.62291 0.5105 0.0
C2446 C 0.62215 0.29568 0.68717 0.0
C2447 C 0.62316 0.30124 0.66845 0.0
C2448 C 0.63702 0.29351 0.69946 0.0
C2449 C 0.68153 0.28521 0.69751 0.0
H2450 H 0.68897 0.3015 0.75368 0.0
C2451 C 0.74652 0.28564 0.7477 0.0
C2452 C 0.74588 0.28144 0.76691 0.0
C2453 C 0.7315 0.28752 0.73549 0.0
C2454 C 0.68704 0.29659 0.73806 0.0
H2455 H 0.64097 0.30938 0.64841 0.0
H2456 H 0.66661 0.30574 0.66974 0.0
H2457 H 0.66297 0.30603 0.73337 0.0
H2458 H 0.72896 0.27577 0.78834 0.0
H2459 H 0.70283 0.27851 0.76709 0.0
H2460 H 0.70551 0.27564 0.70216 0.0
C2461 C 0.65432 0.30275 0.67484 0.0
C2462 C 0.67207 0.29924 0.72638 0.0
C2463 C 0.63953 0.305 0.66264 0.0
C2464 C 0.72988 0.27896 0.77356 0.0
C2465 C 0.71489 0.28071 0.7614 0.0
C2466 C 0.69645 0.28247 0.70919 0.0
C2467 C 0.65329 0.29674 0.69333 0.0
C2468 C 0.66912 0.29365 0.70592 0.0
C2469 C 0.71546 0.28529 0.74224 0.0
C2470 C 0.69947 0.28813 0.72967 0.0
H2471 H 0.60982 0.29257 0.69217 0.0
H2472 H 0.63569 0.28877 0.71356 0.0
H2473 H 0.6796 0.28043 0.68185 0.0
H2474 H 0.75869 0.28839 0.74242 0.0
H2475 H 0.7326 0.29138 0.721 0.0
C2476 C 0.02406 0.32771 0.92795 0.0
C2477 C 0.02257 0.31245 0.93889 0.0
C2478 C 0.02452 0.34613 0.93692 0.0
C2479 C 0.03693 0.38442 0.96203 0.0
H2480 H 1.0086 0.39507 1.00154 0.0
C2481 C 0.04875 0.45758 0.00921 0.0
C2482 C 0.03426 0.46534 0.01257 0.0
C2483 C 0.04687 0.4387 1.00084 0.0
C2484 C 0.01653 0.39237 0.99044 0.0
H2485 H 0.01996 0.30449 0.96774 0.0
H2486 H 0.02093 0.33665 0.98346 0.0
H2487 H 1.00546 0.36272 0.98513 0.0
H2488 H 1.0064 0.45902 0.01004 0.0
H2489 H 1.00313 0.42613 0.99529 0.0
H2490 H 0.0478 0.41404 0.96705 0.0
C2491 C 0.02159 0.33439 0.96789 0.0
C2492 C 0.01485 0.37377 0.98117 0.0
C2493 C 0.02112 0.31595 0.95891 0.0
C2494 C 0.01786 0.45356 0.00772 0.0
C2495 C 0.01598 0.43464 0.99932 0.0
C2496 C 0.03862 0.40297 0.9713 0.0
C2497 C 0.02352 0.34976 0.95707 0.0
C2498 C 0.02504 0.36956 0.96684 0.0
C2499 C 0.03046 0.42704 0.99554 0.0
C2500 C 0.02849 0.4072 0.98568 0.0
H2501 H 0.0251 0.32549 0.91248 0.0
H2502 H 0.02571 0.35755 0.92804 0.0
H2503 H 0.04515 0.38171 0.95126 0.0
H2504 H 0.06162 0.46612 0.01284 0.0
H2505 H 0.05834 0.43325 0.9985 0.0
C2506 C 1.01082 0.78624 0.15834 0.0
C2507 C 0.02666 0.78455 0.16903 0.0
C2508 C 0.9958 0.7843 0.16693 0.0
C2509 C 0.97647 0.76577 0.20873 0.0
H2510 H 0.94491 0.79972 0.19776 0.0
C2511 C 0.91977 0.77079 0.25212 0.0
C2512 C 0.90401 0.7734 0.24196 0.0
C2513 C 0.93449 0.77179 0.243 0.0
C2514 C 0.95343 0.78993 0.20082 0.0
H2515 H 0.03895 0.77922 0.19718 0.0
H2516 H 1.01279 0.77591 0.21222 0.0
H2517 H 0.97078 0.80187 0.18246 0.0
H2518 H 0.89157 0.77897 0.21396 0.0
H2519 H 0.91717 0.78065 0.19806 0.0
H2520 H 0.95912 0.75383 0.22711 0.0
C2521 C 1.01193 0.77857 0.19708 0.0
C2522 C 0.96834 0.79118 0.19201 0.0
C2523 C 0.02699 0.78054 0.18847 0.0
C2524 C 0.90347 0.7771 0.22238 0.0
C2525 C 0.91821 0.77809 0.21324 0.0
C2526 C 0.96155 0.76451 0.21752 0.0
C2527 C 0.99612 0.7806 0.1865 0.0
C2528 C 0.98012 0.77913 0.19584 0.0
C2529 C 0.93396 0.77544 0.22341 0.0
C2530 C 0.9498 0.7766 0.21375 0.0
H2531 H 1.01003 0.78928 0.14332 0.0
H2532 H 0.98388 0.78565 0.15816 0.0
H2533 H 0.98504 0.75604 0.21184 0.0
H2534 H 0.92087 0.76831 0.26733 0.0
H2535 H 0.94639 0.77004 0.25151 0.0
C2536 C 0.55732 0.3209 0.15999 0.0
C2537 C 0.55137 0.31467 0.17672 0.0
C2538 C 0.56103 0.34012 0.15849 0.0
C2539 C 0.57422 0.38185 0.16141 0.0
H2540 H 0.53526 0.40658 0.16532 0.0
C2541 C 0.5676 0.44305 0.11873 0.0
C2542 C 0.55147 0.44 0.10667 0.0
C2543 C 0.5698 0.43364 0.13515 0.0
C2544 C 0.54635 0.39999 0.16436 0.0
H2545 H 0.545 0.32361 0.20529 0.0
H2546 H 0.55113 0.35757 0.20241 0.0
H2547 H 0.53635 0.37739 0.1796 0.0
H2548 H 0.52475 0.42598 0.10298 0.0
H2549 H 0.5286 0.40905 0.13116 0.0
H2550 H 0.5835 0.40323 0.14463 0.0
C2551 C 0.55307 0.34744 0.19058 0.0
C2552 C 0.54706 0.38339 0.17274 0.0
C2553 C 0.54958 0.32809 0.19221 0.0
C2554 C 0.5373 0.42856 0.1121 0.0
C2555 C 0.53953 0.41898 0.12836 0.0
C2556 C 0.57348 0.39833 0.15297 0.0
C2557 C 0.55871 0.35359 0.17361 0.0
C2558 C 0.56052 0.37363 0.17032 0.0
C2559 C 0.55596 0.4208 0.13961 0.0
C2560 C 0.55905 0.40699 0.15339 0.0
H2561 H 0.55885 0.31093 0.14781 0.0
H2562 H 0.56502 0.34439 0.14505 0.0
H2563 H 0.58488 0.37473 0.15964 0.0
H2564 H 0.57865 0.45213 0.115 0.0
H2565 H 0.58254 0.43567 0.14374 0.0
C2566 C 0.97867 0.30414 0.35614 0.0
C2567 C 0.98169 0.30469 0.3767 0.0
C2568 C 0.96188 0.30126 0.34601 0.0
C2569 C 0.91787 0.27975 0.34968 0.0
H2570 H 0.90425 0.31153 0.31116 0.0
C2571 C 0.8504 0.26442 0.30237 0.0
C2572 C 0.84207 0.28 0.30271 0.0
C2573 C 0.86792 0.26696 0.30981 0.0
C2574 C 0.90794 0.30253 0.32184 0.0
H2575 H 0.96946 0.30307 0.40277 0.0
H2576 H 0.94015 0.29793 0.38499 0.0
H2577 H 0.93414 0.31747 0.32785 0.0
H2578 H 0.84567 0.31048 0.31054 0.0
H2579 H 0.8762 0.31483 0.32346 0.0
H2580 H 0.89166 0.26495 0.34389 0.0
C2581 C 0.95081 0.29962 0.37678 0.0
C2582 C 0.92499 0.30586 0.33128 0.0
C2583 C 0.96759 0.3027 0.38694 0.0
C2584 C 0.85166 0.29817 0.31022 0.0
C2585 C 0.86918 0.30071 0.31745 0.0
C2586 C 0.90088 0.27629 0.3401 0.0
C2587 C 0.94782 0.29868 0.35622 0.0
C2588 C 0.93002 0.29467 0.3455 0.0
C2589 C 0.87743 0.28512 0.31747 0.0
C2590 C 0.89572 0.28782 0.32631 0.0
H2591 H 0.98927 0.30572 0.34784 0.0
H2592 H 0.95986 0.30055 0.33014 0.0
H2593 H 0.92152 0.2708 0.36044 0.0
H2594 H 0.84337 0.25026 0.29655 0.0
H2595 H 0.87406 0.25474 0.30957 0.0
C2596 C 0.07383 0.7081 0.64018 0.0
C2597 C 0.05883 0.711 0.64756 0.0
C2598 C 0.07475 0.69048 0.63058 0.0
C2599 C 0.04714 0.65083 0.59943 0.0
H2600 H 0.0875 0.62757 0.60458 0.0
C2601 C 0.05589 0.59466 0.53917 0.0
C2602 C 0.05813 0.57755 0.54592 0.0
C2603 C 0.05839 0.6112 0.5525 0.0
C2604 C 0.07617 0.63395 0.60301 0.0
H2605 H 0.03333 0.69765 0.65166 0.0
H2606 H 0.03477 0.6666 0.63428 0.0
H2607 H 0.08595 0.6545 0.62859 0.0
H2608 H 0.06642 0.56465 0.57142 0.0
H2609 H 0.07113 0.59361 0.59461 0.0
H2610 H 0.03744 0.63052 0.57376 0.0
C2611 C 0.04582 0.67806 0.63608 0.0
C2612 C 0.07526 0.64926 0.61672 0.0
C2613 C 0.04501 0.69571 0.64605 0.0
C2614 C 0.06459 0.57764 0.56584 0.0
C2615 C 0.06726 0.59421 0.57913 0.0
C2616 C 0.04814 0.63569 0.58563 0.0
C2617 C 0.06059 0.67546 0.62793 0.0
C2618 C 0.06078 0.65791 0.61495 0.0
C2619 C 0.06337 0.61089 0.5727 0.0
C2620 C 0.06273 0.62723 0.58718 0.0
H2621 H 0.08473 0.71966 0.64135 0.0
H2622 H 0.08622 0.68891 0.62431 0.0
H2623 H 0.03594 0.6574 0.59759 0.0
H2624 H 0.05098 0.595 0.52387 0.0
H2625 H 0.05562 0.62403 0.54716 0.0
C2626 C 0.58888 0.79488 0.86962 0.0
C2627 C 0.57287 0.79675 0.85968 0.0
C2628 C 0.60236 0.79273 0.85927 0.0
C2629 C 0.61125 0.77793 0.80969 0.0
H2630 H 0.65826 0.80028 0.83369 0.0
C2631 C 0.67139 0.76932 0.77316 0.0
C2632 C 0.68375 0.76248 0.78537 0.0
C2633 C 0.65769 0.77554 0.7808 0.0
C2634 C 0.64518 0.79403 0.82681 0.0
H2635 H 0.55842 0.79808 0.83116 0.0
H2636 H 0.58212 0.79467 0.81307 0.0
H2637 H 0.63445 0.80774 0.84973 0.0
H2638 H 0.69192 0.75723 0.81507 0.0
H2639 H 0.66814 0.76824 0.82843 0.0
H2640 H 0.62216 0.76415 0.78681 0.0
C2641 C 0.58416 0.79455 0.82883 0.0
C2642 C 0.63156 0.79819 0.83602 0.0
C2643 C 0.57061 0.79657 0.83919 0.0
C2644 C 0.68241 0.76224 0.80533 0.0
C2645 C 0.66894 0.7687 0.813 0.0
C2646 C 0.62491 0.77392 0.80037 0.0
C2647 C 0.60017 0.79257 0.83876 0.0
C2648 C 0.61447 0.78979 0.82784 0.0
C2649 C 0.65644 0.77536 0.80082 0.0
C2650 C 0.64198 0.78156 0.80914 0.0
H2651 H 0.59096 0.79486 0.8854 0.0
H2652 H 0.61441 0.79085 0.86733 0.0
H2653 H 0.59825 0.7711 0.80308 0.0
H2654 H 0.67223 0.76964 0.75773 0.0
H2655 H 0.64818 0.78065 0.77117 0.0
C2656 C 0.47818 0.50139 0.70584 0.0
C2657 C 0.46337 0.50732 0.71115 0.0
C2658 C 0.48364 0.50502 0.68813 0.0
C2659 C 0.48711 0.50468 0.64541 0.0
H2660 H 0.48878 0.55428 0.62878 0.0
C2661 C 0.51409 0.52029 0.57542 0.0
C2662 C 0.52586 0.53742 0.57688 0.0
C2663 C 0.50348 0.51724 0.58965 0.0
C2664 C 0.48841 0.54037 0.63324 0.0
H2665 H 0.44268 0.52178 0.70177 0.0
H2666 H 0.45224 0.52803 0.6706 0.0
H2667 H 0.47629 0.54737 0.65814 0.0
H2668 H 0.53516 0.5652 0.59383 0.0
H2669 H 0.51699 0.55971 0.61909 0.0
H2670 H 0.49987 0.49783 0.62125 0.0
C2671 C 0.45964 0.52065 0.68035 0.0
C2672 C 0.48108 0.53635 0.64994 0.0
C2673 C 0.45411 0.51696 0.69815 0.0
C2674 C 0.52621 0.55184 0.59234 0.0
C2675 C 0.51571 0.54872 0.60675 0.0
C2676 C 0.49443 0.50869 0.62882 0.0
C2677 C 0.47446 0.51467 0.67514 0.0
C2678 C 0.48065 0.51855 0.65641 0.0
C2679 C 0.50458 0.53115 0.60588 0.0
C2680 C 0.4954 0.52665 0.62263 0.0
H2681 H 0.48571 0.49399 0.71544 0.0
H2682 H 0.49528 0.50051 0.68477 0.0
H2683 H 0.48676 0.49075 0.64982 0.0
H2684 H 0.51357 0.50887 0.56376 0.0
H2685 H 0.49481 0.5037 0.58824 0.0
C2686 C 0.8023 0.22314 0.01752 0.0
C2687 C 0.80506 0.20519 0.01032 0.0
C2688 C 0.78884 0.23054 0.00823 0.0
C2689 C 0.74957 0.21815 0.96962 0.0
H2690 H 0.76461 0.26959 0.95987 0.0
C2691 C 0.74216 0.24141 0.89661 0.0
C2692 C 0.74693 0.26079 0.89537 0.0
C2693 C 0.7386 0.2355 0.91432 0.0
C2694 C 0.7597 0.25544 0.96283 0.0
H2695 H 0.79596 0.18093 0.98771 0.0
H2696 H 0.77307 0.19427 0.97082 0.0
H2697 H 0.78147 0.25709 0.98481 0.0
H2698 H 0.74796 0.28911 0.91001 0.0
H2699 H 0.74118 0.27876 0.9408 0.0
H2700 H 0.72844 0.21621 0.94636 0.0
C2701 C 0.78085 0.20235 0.9841 0.0
C2702 C 0.76955 0.24819 0.9772 0.0
C2703 C 0.79419 0.19484 0.99355 0.0
C2704 C 0.7447 0.27406 0.91072 0.0
C2705 C 0.74091 0.26812 0.92841 0.0
C2706 C 0.73967 0.22544 0.95514 0.0
C2707 C 0.77803 0.22031 0.99131 0.0
C2708 C 0.76519 0.22912 0.97992 0.0
C2709 C 0.73973 0.24894 0.93098 0.0
C2710 C 0.74531 0.24377 0.95068 0.0
H2711 H 0.8104 0.23145 0.03047 0.0
H2712 H 0.78698 0.24435 0.01426 0.0
H2713 H 0.74558 0.20356 0.97185 0.0
H2714 H 0.74324 0.23089 0.88467 0.0
H2715 H 0.73741 0.22056 0.91551 0.0
C2716 C 0.14382 0.52048 0.22773 0.0
C2717 C 0.142 0.50406 0.23714 0.0
C2718 C 0.1354 0.52052 0.20836 0.0
C2719 C 0.09749 0.49322 0.17064 0.0
H2720 H 0.11489 0.529 0.13704 0.0
C2721 C 0.05252 0.50806 0.1023 0.0
C2722 C 0.05889 0.51313 0.08518 0.0
C2723 C 0.06348 0.50626 0.1195 0.0
C2724 C 0.10975 0.51875 0.14602 0.0
H2725 H 0.12919 0.47471 0.23289 0.0
H2726 H 0.11495 0.47445 0.19908 0.0
H2727 H 0.13241 0.52667 0.16816 0.0
H2728 H 0.08257 0.5202 0.07339 0.0
H2729 H 0.10184 0.51705 0.10339 0.0
H2730 H 0.07497 0.4851 0.14849 0.0
C2731 C 0.12299 0.48753 0.20668 0.0
C2732 C 0.11984 0.51754 0.16425 0.0
C2733 C 0.13153 0.4875 0.22612 0.0
C2734 C 0.07697 0.51631 0.08607 0.0
C2735 C 0.08809 0.51456 0.1035 0.0
C2736 C 0.08741 0.49447 0.1525 0.0
C2737 C 0.1244 0.50417 0.19743 0.0
C2738 C 0.11393 0.50484 0.17716 0.0
C2739 C 0.08157 0.50941 0.12067 0.0
C2740 C 0.09314 0.50742 0.13976 0.0
H2741 H 0.15118 0.53373 0.23582 0.0
H2742 H 0.13687 0.5338 0.20241 0.0
H2743 H 0.09207 0.48332 0.1798 0.0
H2744 H 0.03878 0.50556 0.10256 0.0
H2745 H 0.05759 0.50271 0.13211 0.0
C2746 C 0.80682 0.88882 0.47915 0.0
C2747 C 0.8095 0.87957 0.49577 0.0
C2748 C 0.8064 0.87932 0.46026 0.0
C2749 C 0.81893 0.83742 0.4341 0.0
H2750 H 0.78375 0.84291 0.39183 0.0
C2751 C 0.81682 0.80451 0.35372 0.0
C2752 C 0.80061 0.79675 0.34237 0.0
C2753 C 0.81812 0.81463 0.37243 0.0
C2754 C 0.79356 0.8411 0.40351 0.0
H2755 H 0.8141 0.85321 0.50561 0.0
H2756 H 0.81325 0.83673 0.47291 0.0
H2757 H 0.78601 0.86099 0.42428 0.0
H2758 H 0.77302 0.79328 0.34209 0.0
H2759 H 0.77531 0.81069 0.37487 0.0
H2760 H 0.82621 0.81719 0.41354 0.0
C2761 C 0.81167 0.85135 0.47435 0.0
C2762 C 0.79502 0.85168 0.42205 0.0
C2763 C 0.81207 0.86079 0.49314 0.0
C2764 C 0.78572 0.79906 0.35038 0.0
C2765 C 0.78703 0.8092 0.36913 0.0
C2766 C 0.81747 0.82686 0.41559 0.0
C2767 C 0.80871 0.86041 0.45764 0.0
C2768 C 0.80766 0.84989 0.43762 0.0
C2769 C 0.80326 0.81725 0.38032 0.0
C2770 C 0.80474 0.8285 0.40006 0.0
H2771 H 0.8048 0.90328 0.48072 0.0
H2772 H 0.80428 0.88679 0.44772 0.0
H2773 H 0.82893 0.83583 0.44568 0.0
H2774 H 0.82858 0.8031 0.34804 0.0
H2775 H 0.83083 0.8208 0.38051 0.0
C2776 C 0.46918 0.50503 0.81641 0.0
C2777 C 0.45217 0.50782 0.81209 0.0
C2778 C 0.47657 0.50456 0.83576 0.0
C2779 C 0.47283 0.52101 0.88686 0.0
H2780 H 0.50371 0.48666 0.89921 0.0
C2781 C 0.51844 0.53163 0.96086 0.0
C2782 C 0.52041 0.51548 0.96985 0.0
C2783 C 0.50946 0.52982 0.94177 0.0
C2784 C 0.495 0.49623 0.89605 0.0
H2785 H 0.42941 0.51187 0.82459 0.0
H2786 H 0.4423 0.51093 0.85848 0.0
H2787 H 0.48861 0.48427 0.86569 0.0
H2788 H 0.51449 0.48475 0.96571 0.0
H2789 H 0.49875 0.48164 0.93241 0.0
H2790 H 0.47912 0.53289 0.91723 0.0
C2791 C 0.44999 0.50933 0.84689 0.0
C2792 C 0.48648 0.49499 0.8768 0.0
C2793 C 0.44257 0.50976 0.82748 0.0
C2794 C 0.51328 0.49748 0.95923 0.0
C2795 C 0.5043 0.49569 0.9401 0.0
C2796 C 0.48137 0.52228 0.90609 0.0
C2797 C 0.46713 0.5069 0.85127 0.0
C2798 C 0.47541 0.50747 0.87194 0.0
C2799 C 0.50223 0.51184 0.93118 0.0
C2800 C 0.49267 0.51001 0.91088 0.0
H2801 H 0.47692 0.50351 0.80486 0.0
H2802 H 0.48987 0.50291 0.83863 0.0
H2803 H 0.46453 0.53096 0.88358 0.0
H2804 H 0.52378 0.54573 0.96855 0.0
H2805 H 0.50834 0.54255 0.93522 0.0
C2806 C 0.84191 0.19228 0.11664 0.0
C2807 C 0.85059 0.20437 0.10523 0.0
C2808 C 0.84401 0.19716 0.137 0.0
C2809 C 0.85432 0.24248 0.17006 0.0
H2810 H 0.83493 0.21056 0.20606 0.0
C2811 C 0.83143 0.27411 0.23872 0.0
C2812 C 0.81376 0.26756 0.23842 0.0
C2813 C 0.84053 0.26432 0.22668 0.0
C2814 C 0.84053 0.21959 0.1962 0.0
H2815 H 0.87018 0.22928 0.10597 0.0
H2816 H 0.8752 0.2369 0.1417 0.0
H2817 H 0.84578 0.19625 0.17779 0.0
H2818 H 0.79173 0.24569 0.22552 0.0
H2819 H 0.80779 0.22823 0.2046 0.0
H2820 H 0.84894 0.26572 0.1884 0.0
C2821 C 0.86587 0.22434 0.13501 0.0
C2822 C 0.84668 0.21145 0.17996 0.0
C2823 C 0.86327 0.21984 0.11457 0.0
C2824 C 0.80542 0.25077 0.22629 0.0
C2825 C 0.8146 0.2408 0.21439 0.0
C2826 C 0.84857 0.25059 0.18647 0.0
C2827 C 0.85516 0.21403 0.1463 0.0
C2828 C 0.85293 0.2227 0.16614 0.0
C2829 C 0.83215 0.24772 0.21423 0.0
C2830 C 0.84101 0.23917 0.19922 0.0
H2831 H 0.83197 0.18032 0.10967 0.0
H2832 H 0.83551 0.18872 0.14496 0.0
H2833 H 0.85865 0.25176 0.15979 0.0
H2834 H 0.83819 0.28697 0.24808 0.0
H2835 H 0.85404 0.26994 0.22674 0.0
C2836 C 0.12923 0.51045 0.34341 0.0
C2837 C 0.14668 0.50841 0.34565 0.0
C2838 C 0.1203 0.51256 0.35975 0.0
C2839 C 0.12299 0.50806 0.41519 0.0
H2840 H 0.084 0.53328 0.41104 0.0
C2841 C 0.08695 0.52282 0.48392 0.0
C2842 C 0.0693 0.52414 0.48093 0.0
C2843 C 0.09648 0.52116 0.46799 0.0
C2844 C 0.09468 0.52591 0.41268 0.0
H2845 H 0.16808 0.50716 0.36794 0.0
H2846 H 0.15288 0.51105 0.39615 0.0
H2847 H 0.09974 0.53013 0.38359 0.0
H2848 H 0.0483 0.52459 0.45774 0.0
H2849 H 0.06448 0.52163 0.43049 0.0
H2850 H 0.11791 0.50394 0.44437 0.0
C2851 C 0.1458 0.51078 0.38162 0.0
C2852 C 0.10392 0.52406 0.39656 0.0
C2853 C 0.15474 0.50866 0.36522 0.0
C2854 C 0.06177 0.52377 0.46111 0.0
C2855 C 0.07128 0.52215 0.44522 0.0
C2856 C 0.11374 0.50994 0.43134 0.0
C2857 C 0.12825 0.51278 0.37942 0.0
C2858 C 0.11835 0.515 0.39721 0.0
C2859 C 0.08895 0.52075 0.44808 0.0
C2860 C 0.09923 0.51888 0.4306 0.0
H2861 H 0.12226 0.51026 0.32882 0.0
H2862 H 0.10689 0.51367 0.35671 0.0
H2863 H 0.13368 0.50073 0.41681 0.0
H2864 H 0.09352 0.52303 0.49871 0.0
H2865 H 0.10995 0.52043 0.47146 0.0
C2866 C 0.80323 0.84741 0.59489 0.0
C2867 C 0.80821 0.86707 0.59519 0.0
C2868 C 0.80176 0.83959 0.61221 0.0
C2869 C 0.79757 0.8488 0.66452 0.0
H2870 H 0.81757 0.80384 0.66718 0.0
C2871 C 0.80058 0.80941 0.73349 0.0
C2872 C 0.79629 0.78951 0.72981 0.0
C2873 C 0.80301 0.82012 0.71808 0.0
C2874 C 0.81178 0.81626 0.66666 0.0
H2875 H 0.81457 0.89408 0.61402 0.0
H2876 H 0.81201 0.88027 0.64471 0.0
H2877 H 0.81929 0.82064 0.63881 0.0
H2878 H 0.79149 0.76525 0.70715 0.0
H2879 H 0.7957 0.78382 0.68028 0.0
H2880 H 0.78989 0.84418 0.69239 0.0
C2881 C 0.80929 0.87097 0.63084 0.0
C2882 C 0.81278 0.82594 0.65037 0.0
C2883 C 0.81072 0.87889 0.6133 0.0
C2884 C 0.79486 0.78054 0.71047 0.0
C2885 C 0.79734 0.79122 0.69508 0.0
C2886 C 0.79654 0.83905 0.6809 0.0
C2887 C 0.8053 0.85115 0.63049 0.0
C2888 C 0.80539 0.84211 0.64886 0.0
C2889 C 0.8013 0.81117 0.69863 0.0
C2890 C 0.80338 0.82244 0.68199 0.0
H2891 H 0.80084 0.83787 0.58118 0.0
H2892 H 0.79813 0.82435 0.61127 0.0
H2893 H 0.7917 0.86116 0.6638 0.0
H2894 H 0.80174 0.81675 0.74826 0.0
H2895 H 0.80624 0.83541 0.72141 0.0
C2896 C 0.71611 0.39668 0.54712 0.0
C2897 C 0.73046 0.40598 0.53996 0.0
C2898 C 0.70693 0.40697 0.55866 0.0
C2899 C 0.70801 0.45426 0.58659 0.0
H2900 H 0.65889 0.4426 0.56753 0.0
C2901 C 0.66408 0.50893 0.58792 0.0
C2902 C 0.64645 0.50269 0.58802 0.0
C2903 C 0.6753 0.49615 0.58894 0.0
C2904 C 0.6725 0.44584 0.57349 0.0
H2905 H 0.74696 0.43318 0.53998 0.0
H2906 H 0.73076 0.45117 0.55972 0.0
H2907 H 0.67694 0.4215 0.55609 0.0
H2908 H 0.62692 0.47897 0.59141 0.0
H2909 H 0.64657 0.45671 0.59376 0.0
H2910 H 0.70354 0.47914 0.60333 0.0
C2911 C 0.72671 0.43592 0.55671 0.0
C2912 C 0.68288 0.4337 0.56687 0.0
C2913 C 0.7359 0.42563 0.54522 0.0
C2914 C 0.64047 0.484 0.59106 0.0
C2915 C 0.65169 0.47128 0.59231 0.0
C2916 C 0.69759 0.46644 0.59325 0.0
C2917 C 0.71192 0.42676 0.56322 0.0
C2918 C 0.70081 0.43805 0.57287 0.0
C2919 C 0.66904 0.47697 0.59024 0.0
C2920 C 0.67978 0.46262 0.58632 0.0
H2921 H 0.71172 0.38151 0.54348 0.0
H2922 H 0.69571 0.39949 0.56366 0.0
H2923 H 0.72177 0.45782 0.5917 0.0
H2924 H 0.66894 0.52328 0.58549 0.0
H2925 H 0.68855 0.50099 0.58717 0.0
C2926 C 0.20035 0.13489 0.48995 0.0
C2927 C 0.2164 0.13071 0.49731 0.0
C2928 C 0.1849 0.12305 0.49165 0.0
C2929 C 0.16696 0.08787 0.52191 0.0
H2930 H 0.12728 0.07754 0.48055 0.0
C2931 C 0.1044 0.03609 0.52803 0.0
C2932 C 0.08846 0.04009 0.52017 0.0
C2933 C 0.1199 0.04687 0.52485 0.0
C2934 C 0.13813 0.08048 0.49239 0.0
H2935 H 0.22859 0.11031 0.51179 0.0
H2936 H 0.2016 0.08961 0.51471 0.0
H2937 H 0.15443 0.09604 0.47515 0.0
H2938 H 0.0763 0.05856 0.50271 0.0
H2939 H 0.10334 0.07777 0.49757 0.0
H2940 H 0.15068 0.07264 0.53931 0.0
C2941 C 0.20102 0.10221 0.50774 0.0
C2942 C 0.15377 0.09105 0.48924 0.0
C2943 C 0.21652 0.11399 0.5059 0.0
C2944 C 0.08838 0.05519 0.50907 0.0
C2945 C 0.10392 0.06607 0.50596 0.0
C2946 C 0.15131 0.0774 0.52511 0.0
C2947 C 0.18498 0.10672 0.50089 0.0
C2948 C 0.16842 0.0949 0.50396 0.0
C2949 C 0.11994 0.06206 0.51378 0.0
C2950 C 0.13663 0.0735 0.5104 0.0
H2951 H 0.19968 0.14761 0.48323 0.0
H2952 H 0.17285 0.1271 0.48632 0.0
H2953 H 0.17784 0.09084 0.53373 0.0
H2954 H 0.10492 0.0245 0.53658 0.0
H2955 H 0.13186 0.04303 0.53085 0.0
C2956 C 0.18202 1.00038 0.78385 0.0
C2957 C 0.16644 0.9993 0.79132 0.0
C2958 C 0.18942 0.98437 0.78113 0.0
C2959 C 0.19128 0.93999 0.80091 0.0
H2960 H 0.21478 0.92878 0.75688 0.0
C2961 C 0.2278 0.87791 0.7963 0.0
C2962 C 0.2439 0.8816 0.78998 0.0
C2963 C 0.21659 0.89068 0.79449 0.0
C2964 C 0.20838 0.9318 0.76934 0.0
H2965 H 0.146 0.98044 0.80104 0.0
H2966 H 0.15897 0.95244 0.79631 0.0
H2967 H 0.19804 0.95393 0.75673 0.0
H2968 H 0.2609 0.90158 0.77687 0.0
H2969 H 0.24153 0.92396 0.77397 0.0
H2970 H 0.20204 0.91837 0.81387 0.0
C2971 C 0.16551 0.96572 0.7927 0.0
C2972 C 0.19875 0.94616 0.76921 0.0
C2973 C 0.15804 0.98172 0.79529 0.0
C2974 C 0.24848 0.89821 0.78162 0.0
C2975 C 0.23734 0.91101 0.77991 0.0
C2976 C 0.20099 0.92571 0.8011 0.0
C2977 C 0.18142 0.96696 0.78593 0.0
C2978 C 0.1903 0.95058 0.78512 0.0
C2979 C 0.22129 0.90747 0.78641 0.0
C2980 C 0.20987 0.92162 0.78545 0.0
H2981 H 0.18879 0.01373 0.78064 0.0
H2982 H 0.20176 0.98582 0.77605 0.0
H2983 H 0.18511 0.94325 0.81352 0.0
H2984 H 0.22383 0.8651 0.80256 0.0
H2985 H 0.20423 0.88736 0.79937 0.0
C2986 C 0.31054 0.8862 0.96719 0.0
C2987 C 0.29612 0.89299 0.97248 0.0
C2988 C 0.32566 0.89882 0.96609 0.0
C2989 C 0.34816 0.94676 0.98759 0.0
H2990 H 0.38018 0.93781 0.95188 0.0
C2991 C 0.4182 0.98416 0.96875 0.0
C2992 C 0.42752 0.98901 0.98792 0.0
C2993 C 0.4015 0.97344 0.96544 0.0
C2994 C 0.3713 0.94063 0.96184 0.0
H2995 H 0.28575 0.91836 0.97902 0.0
H2996 H 0.31199 0.9403 0.9767 0.0
H2997 H 0.35168 0.91755 0.94681 0.0
H2998 H 0.42651 0.98667 0.01869 0.0
H2999 H 0.39747 0.96759 0.01289 0.0
H3000 H 0.3677 0.96988 1.00257 0.0
C3001 C 0.31179 0.92524 0.97398 0.0
C3002 C 0.35504 0.92892 0.95903 0.0
C3003 C 0.29671 0.91264 0.97518 0.0
C3004 C 0.41972 0.98303 1.00374 0.0
C3005 C 0.40301 0.97229 1.00043 0.0
C3006 C 0.36439 0.95847 0.99038 0.0
C3007 C 0.32661 0.91847 0.97012 0.0
C3008 C 0.34335 0.93174 0.97199 0.0
C3009 C 0.39376 0.96729 0.98123 0.0
C3010 C 0.37621 0.95541 0.97767 0.0
H3011 H 0.31053 0.87115 0.96501 0.0
H3012 H 0.33688 0.89313 0.96317 0.0
H3013 H 0.33957 0.94917 0.99802 0.0
H3014 H 0.42393 0.98833 0.95621 0.0
H3015 H 0.39465 0.96998 0.95051 0.0
C3016 C 0.87352 0.59191 0.76537 0.0
C3017 C 0.89156 0.59386 0.77096 0.0
C3018 C 0.8651 0.60781 0.76559 0.0
C3019 C 0.87215 0.66202 0.78338 0.0
H3020 H 0.82754 0.65752 0.75151 0.0
C3021 C 0.83762 0.72907 0.77853 0.0
C3022 C 0.81941 0.72657 0.77412 0.0
C3023 C 0.84643 0.71344 0.77802 0.0
C3024 C 0.8399 0.65931 0.76083 0.0
H3025 H 0.91452 0.61531 0.78121 0.0
H3026 H 0.90027 0.64261 0.78128 0.0
H3027 H 0.84207 0.6307 0.75083 0.0
H3028 H 0.79667 0.70444 0.7657 0.0
H3029 H 0.81161 0.67778 0.76492 0.0
H3030 H 0.86996 0.69073 0.79326 0.0
C3031 C 0.89229 0.62868 0.77692 0.0
C3032 C 0.84845 0.64351 0.76044 0.0
C3033 C 0.90069 0.61274 0.77673 0.0
C3034 C 0.8106 0.70748 0.76912 0.0
C3035 C 0.81938 0.69188 0.76857 0.0
C3036 C 0.8636 0.67785 0.78373 0.0
C3037 C 0.87416 0.62681 0.7714 0.0
C3038 C 0.86488 0.64424 0.77174 0.0
C3039 C 0.83761 0.69426 0.77303 0.0
C3040 C 0.84713 0.67705 0.77251 0.0
H3041 H 0.86569 0.57788 0.76094 0.0
H3042 H 0.85125 0.60496 0.76146 0.0
H3043 H 0.8845 0.66382 0.7927 0.0
H3044 H 0.8452 0.74325 0.78244 0.0
H3045 H 0.86035 0.71659 0.78139 0.0
C3046 C 0.81215 0.60929 0.01502 0.0
C3047 C 0.8137 0.62876 0.01386 0.0
C3048 C 0.82675 0.60091 0.01673 0.0
C3049 C 0.87278 0.60888 0.00894 0.0
H3050 H 0.87494 0.56762 0.03979 0.0
C3051 C 0.93455 0.57683 0.02568 0.0
C3052 C 0.93218 0.55699 0.02483 0.0
C3053 C 0.92035 0.58593 0.02414 0.0
C3054 C 0.8745 0.57901 0.03095 0.0
H3055 H 0.83195 0.65475 0.01396 0.0
H3056 H 0.85739 0.6403 0.01739 0.0
H3057 H 0.84997 0.58281 0.03813 0.0
H3058 H 0.91274 0.53124 0.02072 0.0
H3059 H 0.88821 0.54707 0.01835 0.0
H3060 H 0.89746 0.60513 1.00198 0.0
C3061 C 0.84487 0.63134 0.01655 0.0
C3062 C 0.86011 0.58774 0.02996 0.0
C3063 C 0.83026 0.63969 0.01475 0.0
C3064 C 0.91519 0.54655 0.02195 0.0
C3065 C 0.90106 0.55564 0.02056 0.0
C3066 C 0.88723 0.60022 0.01005 0.0
C3067 C 0.84336 0.61178 0.01742 0.0
C3068 C 0.85895 0.60274 0.01884 0.0
C3069 C 0.90342 0.57546 0.02182 0.0
C3070 C 0.88823 0.58507 0.02096 0.0
H3071 H 0.79959 0.60042 0.01427 0.0
H3072 H 0.82495 0.58579 0.01706 0.0
H3073 H 0.87232 0.62015 0.99996 0.0
H3074 H 0.94738 0.58542 0.0281 0.0
H3075 H 0.92268 0.60123 0.02531 0.0
C3076 C 0.19007 0.10137 0.81163 0.0
C3077 C 0.17466 0.10413 0.81821 0.0
C3078 C 0.20306 0.11678 0.81082 0.0
C3079 C 0.2215 0.15183 0.79685 0.0
H3080 H 0.23647 0.19448 0.83839 0.0
C3081 C 0.26377 0.2211 0.78488 0.0
C3082 C 0.27793 0.22901 0.79954 0.0
C3083 C 0.25121 0.20629 0.78816 0.0
C3084 C 0.23246 0.18261 0.82672 0.0
H3085 H 0.16119 0.12536 0.82984 0.0
H3086 H 0.18398 0.15233 0.82844 0.0
H3087 H 0.2147 0.16754 0.84284 0.0
H3088 H 0.2901 0.22782 0.82916 0.0
H3089 H 0.26805 0.20174 0.83496 0.0
H3090 H 0.23918 0.16675 0.78072 0.0
C3091 C 0.18594 0.13816 0.82393 0.0
C3092 C 0.21992 0.16729 0.8292 0.0
C3093 C 0.17285 0.1227 0.82464 0.0
C3094 C 0.27928 0.22194 0.81763 0.0
C3095 C 0.26662 0.20714 0.82098 0.0
C3096 C 0.23388 0.16716 0.79432 0.0
C3097 C 0.20104 0.13536 0.81666 0.0
C3098 C 0.21435 0.15171 0.81429 0.0
C3099 C 0.25254 0.19905 0.80619 0.0
C3100 C 0.23949 0.18273 0.80919 0.0
H3101 H 0.19202 0.08729 0.80667 0.0
H3102 H 0.21466 0.11416 0.80544 0.0
H3103 H 0.21735 0.14014 0.78501 0.0
H3104 H 0.26252 0.22614 0.77071 0.0
H3105 H 0.24043 0.20048 0.77655 0.0
C3106 C 0.40254 0.96869 0.27393 0.0
C3107 C 0.39582 0.98557 0.27491 0.0
C3108 C 0.39223 0.95078 0.27414 0.0
C3109 C 0.35028 0.92602 0.28736 0.0
H3110 H 0.36158 0.88194 0.25879 0.0
C3111 C 0.32028 0.84793 0.29903 0.0
C3112 C 0.31749 0.83292 0.28332 0.0
C3113 C 0.32881 0.86649 0.2974 0.0
C3114 C 0.35799 0.89395 0.26682 0.0
H3115 H 0.37218 0.99591 0.27691 0.0
H3116 H 0.35412 0.96462 0.27733 0.0
H3117 H 0.37722 0.91343 0.25652 0.0
H3118 H 0.32179 0.82655 0.2533 0.0
H3119 H 0.33638 0.8585 0.2504 0.0
H3120 H 0.33093 0.90643 0.29753 0.0
C3121 C 0.36765 0.9654 0.27642 0.0
C3122 C 0.36725 0.91229 0.2657 0.0
C3123 C 0.37804 0.98351 0.27601 0.0
C3124 C 0.32358 0.83743 0.26585 0.0
C3125 C 0.33217 0.85598 0.26424 0.0
C3126 C 0.34108 0.9076 0.2886 0.0
C3127 C 0.37453 0.94856 0.27547 0.0
C3128 C 0.36375 0.92883 0.27604 0.0
C3129 C 0.33507 0.87102 0.28 0.0
C3130 C 0.34474 0.89105 0.27842 0.0
H3131 H 0.41606 0.96924 0.2731 0.0
H3132 H 0.39842 0.93861 0.27371 0.0
H3133 H 0.34703 0.93807 0.29571 0.0
H3134 H 0.31595 0.84534 0.3128 0.0
H3135 H 0.33078 0.87724 0.31008 0.0
C3136 C 0.57488 0.34282 0.60888 0.0
C3137 C 0.57248 0.34236 0.62858 0.0
C3138 C 0.5744 0.35929 0.60013 0.0
C3139 C 0.57657 0.41138 0.61094 0.0
H3140 H 0.55269 0.40503 0.55732 0.0
C3141 C 0.57405 0.47502 0.56699 0.0
C3142 C 0.55835 0.47532 0.5551 0.0
C3143 C 0.5766 0.4589 0.57564 0.0
C3144 C 0.55932 0.40713 0.57234 0.0
H3145 H 0.56815 0.35915 0.65466 0.0
H3146 H 0.5672 0.3879 0.63938 0.0
H3147 H 0.55562 0.37728 0.57338 0.0
H3148 H 0.53305 0.4586 0.54294 0.0
H3149 H 0.53741 0.43069 0.55809 0.0
H3150 H 0.57985 0.44129 0.61003 0.0
C3151 C 0.56962 0.37554 0.63071 0.0
C3152 C 0.5612 0.39114 0.5815 0.0
C3153 C 0.57012 0.35902 0.63949 0.0
C3154 C 0.54536 0.45893 0.5519 0.0
C3155 C 0.5479 0.44283 0.56055 0.0
C3156 C 0.5747 0.4274 0.60175 0.0
C3157 C 0.57147 0.37582 0.61079 0.0
C3158 C 0.56981 0.393 0.60097 0.0
C3159 C 0.56351 0.44259 0.57266 0.0
C3160 C 0.56597 0.42551 0.58233 0.0
H3161 H 0.57681 0.33029 0.60005 0.0
H3162 H 0.57623 0.35901 0.58491 0.0
H3163 H 0.58341 0.41343 0.62586 0.0
H3164 H 0.58435 0.48735 0.56988 0.0
H3165 H 0.58889 0.45921 0.58462 0.0
C3166 C 0.46644 0.76292 0.37999 0.0
C3167 C 0.46737 0.76008 0.39985 0.0
C3168 C 0.45043 0.7627 0.36843 0.0
C3169 C 0.40334 0.74571 0.36553 0.0
H3170 H 0.39811 0.78622 0.33434 0.0
C3171 C 0.34076 0.74533 0.31182 0.0
C3172 C 0.33475 0.76241 0.31123 0.0
C3173 C 0.35679 0.74489 0.32268 0.0
C3174 C 0.39933 0.77486 0.34306 0.0
H3175 H 0.45206 0.75413 0.42281 0.0
H3176 H 0.42445 0.75338 0.40272 0.0
H3177 H 0.42654 0.78502 0.35213 0.0
H3178 H 0.34081 0.79246 0.32187 0.0
H3179 H 0.36896 0.79175 0.34085 0.0
H3180 H 0.3762 0.73557 0.35659 0.0
C3181 C 0.43599 0.75589 0.39603 0.0
C3182 C 0.41568 0.77404 0.35306 0.0
C3183 C 0.4519 0.75641 0.4076 0.0
C3184 C 0.34504 0.77905 0.3221 0.0
C3185 C 0.36124 0.77866 0.33281 0.0
C3186 C 0.38708 0.7464 0.35536 0.0
C3187 C 0.435 0.75927 0.37637 0.0
C3188 C 0.41788 0.75953 0.36457 0.0
C3189 C 0.36739 0.76158 0.33312 0.0
C3190 C 0.3848 0.76103 0.34407 0.0
H3191 H 0.4781 0.76592 0.3736 0.0
H3192 H 0.45012 0.76523 0.35328 0.0
H3193 H 0.40454 0.73428 0.37415 0.0
H3194 H 0.33316 0.73227 0.30356 0.0
H3195 H 0.36111 0.7315 0.32244 0.0
C3196 C 0.05394 0.7285 0.11779 0.0
C3197 C 0.06781 0.74083 0.11272 0.0
C3198 C 0.05071 0.70902 0.11069 0.0
C3199 C 0.06156 0.67529 0.07135 0.0
H3200 H 0.04426 0.63691 0.10231 0.0
C3201 C 0.06212 0.59576 0.05041 0.0
C3202 C 0.04699 0.58283 0.05134 0.0
C3203 C 0.06404 0.61493 0.05792 0.0
C3204 C 0.04899 0.64749 0.09344 0.0
H3205 H 0.08969 0.74214 0.09711 0.0
H3206 H 0.08451 0.7086 0.08549 0.0
H3207 H 0.04868 0.6704 0.11576 0.0
H3208 H 0.02207 0.58004 0.06113 0.0
H3209 H 0.02557 0.61339 0.07437 0.0
H3210 H 0.06227 0.65237 0.04927 0.0
C3211 C 0.07561 0.71383 0.09419 0.0
C3212 C 0.05146 0.66671 0.10111 0.0
C3213 C 0.07867 0.73316 0.10101 0.0
C3214 C 0.03388 0.58957 0.06005 0.0
C3215 C 0.03591 0.60867 0.0678 0.0
C3216 C 0.0593 0.65613 0.06383 0.0
C3217 C 0.06141 0.70147 0.09856 0.0
C3218 C 0.05794 0.68091 0.09024 0.0
C3219 C 0.05099 0.6216 0.06678 0.0
C3220 C 0.05309 0.64199 0.0748 0.0
H3221 H 0.04534 0.73395 0.12679 0.0
H3222 H 0.0396 0.7 0.11433 0.0
H3223 H 0.06611 0.68571 0.06224 0.0
H3224 H 0.07249 0.5911 0.04384 0.0
H3225 H 0.07588 0.62451 0.05704 0.0
C3226 C 0.07865 0.26431 0.90362 0.0
C3227 C 0.06219 0.2574 0.89247 0.0
C3228 C 0.09355 0.26482 0.89493 0.0
C3229 C 0.11058 0.24494 0.85147 0.0
H3230 H 0.14685 0.28949 0.86641 0.0
C3231 C 0.16972 0.25746 0.81073 0.0
C3232 C 0.1859 0.26615 0.82169 0.0
C3233 C 0.15469 0.25613 0.81931 0.0
C3234 C 0.13701 0.2768 0.86222 0.0
H3235 H 0.04862 0.24525 0.86336 0.0
H3236 H 0.07466 0.24604 0.84814 0.0
H3237 H 0.12073 0.28736 0.88118 0.0
H3238 H 0.19879 0.28008 0.85053 0.0
H3239 H 0.17269 0.27762 0.86554 0.0
H3240 H 0.12691 0.23431 0.83262 0.0
C3241 C 0.07603 0.25102 0.8637 0.0
C3242 C 0.12194 0.27559 0.87071 0.0
C3243 C 0.06107 0.2506 0.87242 0.0
C3244 C 0.18658 0.27349 0.84153 0.0
C3245 C 0.17154 0.2721 0.85014 0.0
C3246 C 0.1257 0.24611 0.84304 0.0
C3247 C 0.09249 0.25837 0.8748 0.0
C3248 C 0.10849 0.25964 0.8655 0.0
C3249 C 0.15533 0.26341 0.83916 0.0
C3250 C 0.13918 0.26207 0.84828 0.0
H3251 H 0.08008 0.26964 0.91911 0.0
H3252 H 0.10595 0.27026 0.90406 0.0
H3253 H 0.10065 0.23233 0.84726 0.0
H3254 H 0.16857 0.25196 0.79533 0.0
H3255 H 0.1425 0.24968 0.81019 0.0
C3256 C 0.53551 0.73477 0.89858 0.0
C3257 C 0.52123 0.74332 0.89481 0.0
C3258 C 0.53312 0.71537 0.89961 0.0
C3259 C 0.49986 0.67901 0.91252 0.0
H3260 H 0.53648 0.65044 0.91112 0.0
C3261 C 0.51522 0.63259 0.97074 0.0
C3262 C 0.52411 0.61791 0.96678 0.0
C3263 C 0.51075 0.64337 0.95606 0.0
C3264 C 0.52584 0.65787 0.91122 0.0
H3265 H 0.49349 0.73861 0.88729 0.0
H3266 H 0.48925 0.70447 0.88787 0.0
H3267 H 0.53667 0.6773 0.8931 0.0
H3268 H 0.53407 0.60181 0.94427 0.0
H3269 H 0.5257 0.6202 0.91832 0.0
H3270 H 0.48896 0.65951 0.9305 0.0
C3271 C 0.50226 0.71266 0.89084 0.0
C3272 C 0.52611 0.67351 0.9011 0.0
C3273 C 0.50465 0.73214 0.8903 0.0
C3274 C 0.52741 0.61329 0.94764 0.0
C3275 C 0.52268 0.62386 0.93285 0.0
C3276 C 0.4994 0.66316 0.9223 0.0
C3277 C 0.51639 0.7042 0.89658 0.0
C3278 C 0.51367 0.68492 0.90255 0.0
C3279 C 0.51485 0.63947 0.93707 0.0
C3280 C 0.51291 0.65305 0.92271 0.0
H3281 H 0.54838 0.74331 0.90226 0.0
H3282 H 0.54435 0.70953 0.9043 0.0
H3283 H 0.49 0.68735 0.91408 0.0
H3284 H 0.51265 0.63643 0.98546 0.0
H3285 H 0.50501 0.65544 0.96003 0.0
C3286 C 0.10267 0.76495 0.72173 0.0
C3287 C 0.10077 0.77749 0.70782 0.0
C3288 C 0.11886 0.76519 0.73248 0.0
C3289 C 0.16329 0.79315 0.74592 0.0
H3290 H 0.17662 0.74402 0.74315 0.0
C3291 C 0.23225 0.7861 0.77454 0.0
C3292 C 0.23982 0.77439 0.76219 0.0
C3293 C 0.21458 0.78558 0.77114 0.0
C3294 C 0.17307 0.75783 0.74402 0.0
H3295 H 0.11403 0.80106 0.69542 0.0
H3296 H 0.14214 0.80144 0.71409 0.0
H3297 H 0.14666 0.74605 0.7324 0.0
H3298 H 0.23476 0.75249 0.73698 0.0
H3299 H 0.20377 0.75194 0.73064 0.0
H3300 H 0.18977 0.80504 0.75656 0.0
C3301 C 0.1312 0.79142 0.71672 0.0
C3302 C 0.15589 0.75898 0.73814 0.0
C3303 C 0.11509 0.79112 0.70591 0.0
C3304 C 0.22928 0.76172 0.74668 0.0
C3305 C 0.21153 0.76132 0.74316 0.0
C3306 C 0.18044 0.79201 0.75177 0.0
C3307 C 0.13335 0.77809 0.72965 0.0
C3308 C 0.15092 0.77669 0.73863 0.0
C3309 C 0.20406 0.77346 0.7552 0.0
C3310 C 0.18558 0.77436 0.75053 0.0
H3311 H 0.09188 0.7543 0.72357 0.0
H3312 H 0.12014 0.75492 0.74255 0.0
H3313 H 0.15979 0.80698 0.74661 0.0
H3314 H 0.23997 0.79576 0.78689 0.0
H3315 H 0.20917 0.79482 0.78092 0.0
C3316 C 0.02952 0.36514 0.40254 0.0
C3317 C 0.03561 0.35063 0.41152 0.0
C3318 C 0.0241 0.37956 0.4138 0.0
C3319 C 1.01043 0.39109 0.4621 0.0
H3320 H 0.02523 0.44303 0.45363 0.0
C3321 C 0.02103 0.45626 0.5209 0.0
C3322 C 0.01917 0.47367 0.51462 0.0
C3323 C 0.01734 0.43977 0.5073 0.0
C3324 C 0.02061 0.42858 0.45593 0.0
H3325 H 0.04127 0.34 0.43927 0.0
H3326 H 0.0323 0.36532 0.45892 0.0
H3327 H 0.03105 0.41746 0.43136 0.0
H3328 H 1.0099 0.48713 0.49 0.0
H3329 H 1.0031 0.45838 0.46641 0.0
H3330 H 1.0007 0.40241 0.48729 0.0
C3331 C 0.03122 0.36536 0.44317 0.0
C3332 C 0.024 0.41392 0.44316 0.0
C3333 C 0.03655 0.35097 0.43194 0.0
C3334 C 1.01165 0.47396 0.49517 0.0
C3335 C 1.00786 0.45751 0.48163 0.0
C3336 C 1.0071 0.4058 0.47495 0.0
C3337 C 0.02476 0.3797 0.43422 0.0
C3338 C 0.01933 0.39505 0.44639 0.0
C3339 C 1.01164 0.4405 0.48732 0.0
C3340 C 1.01249 0.42471 0.47221 0.0
H3341 H 0.02852 0.36512 0.38679 0.0
H3342 H 0.01912 0.39039 0.40648 0.0
H3343 H 1.00637 0.37663 0.46472 0.0
H3344 H 0.02673 0.45563 0.53586 0.0
H3345 H 0.02038 0.42684 0.51213 0.0
C3346 C 0.50693 0.24183 0.21928 0.0
C3347 C 0.50526 0.24176 0.19882 0.0
C3348 C 0.49243 0.24143 0.22868 0.0
C3349 C 0.45287 0.25923 0.2205 0.0
H3350 H 0.44037 0.23602 0.26564 0.0
C3351 C 0.39363 0.27369 0.25202 0.0
C3352 C 0.395 0.27733 0.27252 0.0
C3353 C 0.40617 0.26606 0.24352 0.0
C3354 C 0.44382 0.24271 0.25313 0.0
H3355 H 0.48711 0.23884 0.17189 0.0
H3356 H 0.46186 0.23768 0.18818 0.0
H3357 H 0.46395 0.22695 0.24967 0.0
H3358 H 0.41005 0.27515 0.30034 0.0
H3359 H 0.43255 0.26235 0.28543 0.0
H3360 H 0.43346 0.27549 0.22412 0.0
C3361 C 0.47433 0.23859 0.19705 0.0
C3362 C 0.45723 0.23745 0.24397 0.0
C3363 C 0.48876 0.23916 0.18772 0.0
C3364 C 0.40883 0.27254 0.28446 0.0
C3365 C 0.4216 0.26512 0.27592 0.0
C3366 C 0.43968 0.26457 0.22967 0.0
C3367 C 0.47615 0.24084 0.21767 0.0
C3368 C 0.46173 0.24555 0.22743 0.0
C3369 C 0.42057 0.26218 0.25532 0.0
C3370 C 0.43484 0.25628 0.24597 0.0
H3371 H 0.51955 0.24388 0.22816 0.0
H3372 H 0.49419 0.24316 0.24461 0.0
H3373 H 0.45639 0.26619 0.20817 0.0
H3374 H 0.38286 0.27687 0.24252 0.0
H3375 H 0.40469 0.26346 0.22762 0.0
C3376 C 0.64822 0.54261 0.37482 0.0
C3377 C 0.63782 0.54668 0.35838 0.0
C3378 C 0.64154 0.5399 0.39218 0.0
C3379 C 0.62563 0.54293 0.43009 0.0
H3380 H 0.57963 0.51233 0.42274 0.0
C3381 C 0.58404 0.53506 0.49209 0.0
C3382 C 0.57325 0.51747 0.49193 0.0
C3383 C 0.5938 0.53804 0.47704 0.0
C3384 C 0.59256 0.52071 0.42507 0.0
H3385 H 0.6126 0.55212 0.34757 0.0
H3386 H 0.60102 0.54756 0.37784 0.0
H3387 H 0.59283 0.5197 0.39417 0.0
H3388 H 0.56495 0.48889 0.47659 0.0
H3389 H 0.5821 0.49403 0.45033 0.0
H3390 H 0.62531 0.54384 0.46108 0.0
C3391 C 0.61422 0.54611 0.37723 0.0
C3392 C 0.60003 0.52517 0.40869 0.0
C3393 C 0.6209 0.54886 0.35993 0.0
C3394 C 0.57309 0.50262 0.47701 0.0
C3395 C 0.58281 0.50561 0.46193 0.0
C3396 C 0.6181 0.53853 0.44653 0.0
C3397 C 0.62432 0.54116 0.39338 0.0
C3398 C 0.6166 0.53643 0.41098 0.0
C3399 C 0.59292 0.5235 0.46149 0.0
C3400 C 0.60145 0.52741 0.4442 0.0
H3401 H 0.66132 0.54084 0.37406 0.0
H3402 H 0.64963 0.53605 0.40435 0.0
H3403 H 0.6384 0.55167 0.43233 0.0
H3404 H 0.58436 0.54681 0.50334 0.0
H3405 H 0.60134 0.55202 0.47707 0.0
C3406 C 0.29403 0.85063 0.05281 0.0
C3407 C 0.28328 0.86347 0.04823 0.0
C3408 C 0.30383 0.85267 0.07143 0.0
C3409 C 0.30315 0.87045 0.12215 0.0
H3410 H 0.34716 0.85432 0.12948 0.0
C3411 C 0.32408 0.84195 0.19221 0.0
C3412 C 0.32533 0.82291 0.18721 0.0
C3413 C 0.32562 0.85456 0.1784 0.0
C3414 C 0.33504 0.85921 0.12775 0.0
H3415 H 0.27463 0.88877 0.05961 0.0
H3416 H 0.29168 0.89214 0.09227 0.0
H3417 H 0.3359 0.86228 0.09752 0.0
H3418 H 0.33093 0.80277 0.1645 0.0
H3419 H 0.33381 0.82465 0.14071 0.0
H3420 H 0.30165 0.8661 0.15187 0.0
C3421 C 0.29249 0.88054 0.08136 0.0
C3422 C 0.32856 0.86366 0.10947 0.0
C3423 C 0.2827 0.87854 0.06268 0.0
C3424 C 0.32997 0.81731 0.16893 0.0
C3425 C 0.33168 0.82994 0.15525 0.0
C3426 C 0.30965 0.86603 0.14043 0.0
C3427 C 0.30312 0.86758 0.08593 0.0
C3428 C 0.31208 0.8682 0.10621 0.0
C3429 C 0.32864 0.84838 0.15947 0.0
C3430 C 0.32514 0.85925 0.14302 0.0
H3431 H 0.29487 0.83892 0.04206 0.0
H3432 H 0.31158 0.84218 0.07464 0.0
H3433 H 0.29042 0.8739 0.1201 0.0
H3434 H 0.321 0.84683 0.20641 0.0
H3435 H 0.32343 0.86878 0.18209 0.0
C3436 C 0.93054 0.54523 0.84416 0.0
C3437 C 0.93825 0.54553 0.82697 0.0
C3438 C 0.93993 0.54339 0.86264 0.0
C3439 C 0.98229 0.53068 0.88586 0.0
H3440 H 0.97012 0.55118 0.93495 0.0
C3441 C 0.02877 0.53593 0.96013 0.0
C3442 C 0.02252 0.53328 0.97796 0.0
C3443 C 0.01783 0.53699 0.94263 0.0
C3444 C 0.97371 0.54515 0.92147 0.0
H3445 H 0.9624 0.54424 0.81651 0.0
H3446 H 0.97864 0.5415 0.84812 0.0
H3447 H 0.95308 0.55403 0.90363 0.0
H3448 H 0.99908 0.52992 0.99068 0.0
H3449 H 0.97984 0.53192 0.96014 0.0
H3450 H 1.00296 0.52195 0.90358 0.0
C3451 C 0.96517 0.54221 0.84755 0.0
C3452 C 0.9638 0.54678 0.90322 0.0
C3453 C 0.95577 0.54396 0.82914 0.0
C3454 C 1.00458 0.53193 0.97747 0.0
C3455 C 0.9935 0.53317 0.95978 0.0
C3456 C 0.99221 0.52917 0.90401 0.0
C3457 C 0.95754 0.5418 0.86488 0.0
C3458 C 0.9679 0.53973 0.88484 0.0
C3459 C 0.99988 0.53555 0.94184 0.0
C3460 C 0.98833 0.5365 0.92234 0.0
H3461 H 0.91713 0.54637 0.84337 0.0
H3462 H 0.93318 0.54295 0.87514 0.0
H3463 H 0.98595 0.52442 0.87254 0.0
H3464 H 0.04241 0.53718 0.95959 0.0
H3465 H 0.02365 0.53923 0.92965 0.0
C3466 C 0.25988 0.18891 0.57232 0.0
C3467 C 0.27198 0.1805 0.56335 0.0
C3468 C 0.26288 0.19523 0.59246 0.0
C3469 C 0.29716 0.21395 0.63353 0.0
H3470 H 0.26046 0.20499 0.66469 0.0
C3471 C 0.30534 0.24528 0.71606 0.0
C3472 C 0.291 0.25115 0.7228 0.0
C3473 C 0.30384 0.23561 0.69706 0.0
C3474 C 0.2708 0.20785 0.65618 0.0
H3475 H 0.29663 0.1718 0.56855 0.0
H3476 H 0.30211 0.18332 0.60409 0.0
H3477 H 0.25642 0.18893 0.63112 0.0
H3478 H 0.26398 0.25198 0.71449 0.0
H3479 H 0.26149 0.23566 0.68131 0.0
H3480 H 0.31133 0.23341 0.65832 0.0
C3481 C 0.29023 0.18485 0.59535 0.0
C3482 C 0.26852 0.1985 0.63698 0.0
C3483 C 0.28706 0.17816 0.5751 0.0
C3484 C 0.27526 0.24756 0.70989 0.0
C3485 C 0.2738 0.23801 0.69086 0.0
C3486 C 0.29941 0.22347 0.65274 0.0
C3487 C 0.27818 0.19355 0.60418 0.0
C3488 C 0.28155 0.20167 0.62532 0.0
C3489 C 0.28799 0.23164 0.68426 0.0
C3490 C 0.28612 0.22079 0.6642 0.0
H3491 H 0.24809 0.19084 0.56368 0.0
H3492 H 0.25343 0.20201 0.59876 0.0
H3493 H 0.30736 0.21683 0.62482 0.0
H3494 H 0.31766 0.24773 0.72562 0.0
H3495 H 0.31502 0.23081 0.6926 0.0
C3496 C 0.60083 0.54905 0.24789 0.0
C3497 C 0.61754 0.54619 0.25436 0.0
C3498 C 0.59401 0.54594 0.22791 0.0
C3499 C 0.58712 0.55069 0.18508 0.0
H3500 H 0.59504 0.50902 0.14949 0.0
C3501 C 0.57002 0.54669 0.10119 0.0
C3502 C 0.56287 0.52891 0.09012 0.0
C3503 C 0.57661 0.54816 0.12114 0.0
C3504 C 0.59258 0.52063 0.15927 0.0
H3505 H 0.64006 0.53744 0.24475 0.0
H3506 H 0.62822 0.53233 0.20975 0.0
H3507 H 0.60646 0.51227 0.18451 0.0
H3508 H 0.55704 0.49868 0.09147 0.0
H3509 H 0.56825 0.50132 0.12642 0.0
H3510 H 0.57294 0.55885 0.16006 0.0
C3511 C 0.62032 0.53676 0.22023 0.0
C3512 C 0.59931 0.52263 0.1793 0.0
C3513 C 0.62715 0.53979 0.2403 0.0
C3514 C 0.56243 0.51262 0.09953 0.0
C3515 C 0.56898 0.51411 0.11956 0.0
C3516 C 0.58038 0.54868 0.16512 0.0
C3517 C 0.60373 0.53999 0.21379 0.0
C3518 C 0.59665 0.5377 0.19245 0.0
C3519 C 0.57615 0.53192 0.13061 0.0
C3520 C 0.58307 0.53368 0.15194 0.0
H3521 H 0.59295 0.55376 0.25827 0.0
H3522 H 0.58105 0.54818 0.22353 0.0
H3523 H 0.58501 0.56262 0.1947 0.0
H3524 H 0.57072 0.55953 0.09442 0.0
H3525 H 0.5823 0.56207 0.12909 0.0
C3526 C 0.24154 0.86107 0.93668 0.0
C3527 C 0.23545 0.85133 0.9515 0.0
C3528 C 0.24414 0.851 0.91929 0.0
C3529 C 0.25243 0.80368 0.90228 0.0
H3530 H 0.25236 0.82293 0.85222 0.0
C3531 C 0.26321 0.76661 0.82613 0.0
C3532 C 0.27982 0.77403 0.82264 0.0
C3533 C 0.25648 0.77528 0.84154 0.0
C3534 C 0.25235 0.81746 0.86616 0.0
H3535 H 0.22589 0.82382 0.95941 0.0
H3536 H 0.22925 0.80622 0.92855 0.0
H3537 H 0.24065 0.83944 0.87853 0.0
H3538 H 0.30281 0.79549 0.83297 0.0
H3539 H 0.29081 0.81094 0.85983 0.0
H3540 H 0.2639 0.78155 0.88959 0.0
C3541 C 0.23281 0.82152 0.93056 0.0
C3542 C 0.24576 0.8269 0.88123 0.0
C3543 C 0.23064 0.83156 0.94811 0.0
C3544 C 0.28989 0.7897 0.83527 0.0
C3545 C 0.28307 0.79852 0.85051 0.0
C3546 C 0.25876 0.79414 0.88712 0.0
C3547 C 0.24037 0.83105 0.91633 0.0
C3548 C 0.24589 0.82024 0.89958 0.0
C3549 C 0.26627 0.79147 0.85352 0.0
C3550 C 0.25893 0.80111 0.86912 0.0
H3551 H 0.24559 0.87634 0.93915 0.0
H3552 H 0.25013 0.85886 0.90881 0.0
H3553 H 0.25318 0.79835 0.9163 0.0
H3554 H 0.25522 0.75448 0.81661 0.0
H3555 H 0.24353 0.76964 0.84383 0.0
C3556 C 0.93162 0.53211 0.70302 0.0
C3557 C 0.93998 0.54458 0.72014 0.0
C3558 C 0.93918 0.5306 0.68546 0.0
C3559 C 0.98291 0.54316 0.66714 0.0
H3560 H 0.95623 0.52413 0.61568 0.0
C3561 C 0.01801 0.52651 0.59899 0.0
C3562 C 1.01028 0.52715 0.57948 0.0
C3563 C 1.00908 0.52852 0.6153 0.0
C3564 C 0.9641 0.52964 0.6298 0.0
H3565 H 0.96337 0.56504 0.73142 0.0
H3566 H 0.97591 0.5633 0.70132 0.0
H3567 H 0.94164 0.52843 0.64415 0.0
H3568 H 0.98633 0.53049 0.56268 0.0
H3569 H 0.97094 0.53418 0.59075 0.0
H3570 H 1.00531 0.54483 0.65291 0.0
C3571 C 0.96357 0.55427 0.70117 0.0
C3572 C 0.95557 0.53194 0.64651 0.0
C3573 C 0.95608 0.55565 0.71863 0.0
C3574 C 0.99298 0.52979 0.57721 0.0
C3575 C 0.98401 0.53185 0.59359 0.0
C3576 C 0.99141 0.54088 0.6505 0.0
C3577 C 0.95562 0.54135 0.68414 0.0
C3578 C 0.96471 0.53881 0.66575 0.0
C3579 C 0.99182 0.5314 0.61321 0.0
C3580 C 0.98233 0.534 0.63126 0.0
H3581 H 0.91962 0.52265 0.7035 0.0
H3582 H 0.93235 0.52027 0.67319 0.0
H3583 H 0.9909 0.54816 0.68129 0.0
H3584 H 0.03119 0.52447 0.6018 0.0
H3585 H 0.01587 0.52757 0.62965 0.0
C3586 C 0.27023 0.16442 0.43998 0.0
C3587 C 0.26933 0.17372 0.45863 0.0
C3588 C 0.27084 0.17445 0.42376 0.0
C3589 C 0.28361 0.22299 0.41219 0.0
H3590 H 0.25745 0.20343 0.36045 0.0
C3591 C 0.28417 0.26911 0.3493 0.0
C3592 C 0.28451 0.2602 0.33035 0.0
C3593 C 0.28098 0.25835 0.3645 0.0
C3594 C 0.26503 0.20905 0.37473 0.0
H3595 H 0.26782 0.20071 0.47468 0.0
H3596 H 0.2689 0.21804 0.4466 0.0
H3597 H 0.25465 0.18466 0.38747 0.0
H3598 H 0.28136 0.233 0.31232 0.0
H3599 H 0.2762 0.21428 0.33879 0.0
H3600 H 0.29433 0.24712 0.39958 0.0
C3601 C 0.26932 0.20309 0.44447 0.0
C3602 C 0.26338 0.19826 0.39024 0.0
C3603 C 0.26859 0.19309 0.46057 0.0
C3604 C 0.28112 0.2403 0.32677 0.0
C3605 C 0.27808 0.22954 0.34198 0.0
C3606 C 0.28538 0.23368 0.3967 0.0
C3607 C 0.27071 0.194 0.42592 0.0
C3608 C 0.27258 0.20516 0.40919 0.0
C3609 C 0.2782 0.2384 0.36117 0.0
C3610 C 0.27606 0.22695 0.37773 0.0
H3611 H 0.27086 0.14952 0.438 0.0
H3612 H 0.27197 0.16704 0.40968 0.0
H3613 H 0.29114 0.2286 0.42651 0.0
H3614 H 0.28664 0.28442 0.35248 0.0
H3615 H 0.28081 0.26574 0.37892 0.0
C3616 C 0.35664 0.63442 0.54616 0.0
C3617 C 0.35944 0.65283 0.5411 0.0
C3618 C 0.36842 0.62267 0.54321 0.0
C3619 C 0.40228 0.61673 0.51304 0.0
H3620 H 0.41094 0.57901 0.54679 0.0
C3621 C 0.45501 0.57197 0.50745 0.0
C3622 C 0.45027 0.55259 0.50872 0.0
C3623 C 0.44351 0.58406 0.51035 0.0
C3624 C 0.40846 0.58937 0.53715 0.0
H3625 H 0.37724 0.67386 0.53021 0.0
H3626 H 0.39817 0.65358 0.52572 0.0
H3627 H 0.39301 0.60152 0.55599 0.0
H3628 H 0.42984 0.53043 0.51341 0.0
H3629 H 0.40964 0.55172 0.51872 0.0
H3630 H 0.41814 0.60476 0.49449 0.0
C3631 C 0.38659 0.64798 0.53134 0.0
C3632 C 0.39822 0.60227 0.54241 0.0
C3633 C 0.3747 0.65966 0.53408 0.0
C3634 C 0.43367 0.54533 0.51225 0.0
C3635 C 0.42223 0.55748 0.51544 0.0
C3636 C 0.41268 0.60398 0.50793 0.0
C3637 C 0.38335 0.62917 0.53536 0.0
C3638 C 0.39494 0.61605 0.53036 0.0
C3639 C 0.42719 0.57699 0.51483 0.0
C3640 C 0.41578 0.59014 0.51989 0.0
H3641 H 0.34495 0.62874 0.55153 0.0
H3642 H 0.3654 0.60823 0.54628 0.0
H3643 H 0.39973 0.62689 0.5032 0.0
H3644 H 0.46778 0.57783 0.50471 0.0
H3645 H 0.44764 0.59905 0.50989 0.0
C3646 C 0.86573 0.93917 0.5457 0.0
C3647 C 0.86527 0.92031 0.54913 0.0
C3648 C 0.88152 0.95122 0.54529 0.0
C3649 C 0.92878 0.95791 0.56111 0.0
H3650 H 0.93225 0.98496 0.51617 0.0
C3651 C 0.9951 0.99542 0.54496 0.0
C3652 C 0.99574 0.01194 0.53599 0.0
C3653 C 0.97921 0.98462 0.54718 0.0
C3654 C 0.93156 0.97783 0.52905 0.0
H3655 H 0.88117 0.89967 0.55565 0.0
H3656 H 0.90849 0.92068 0.55537 0.0
H3657 H 0.90455 0.96666 0.51998 0.0
H3658 H 0.98018 0.03027 0.52266 0.0
H3659 H 0.95275 0.01209 0.52716 0.0
H3660 H 0.95566 0.96925 0.57044 0.0
C3661 C 0.89672 0.92617 0.55284 0.0
C3662 C 0.91559 0.96727 0.53118 0.0
C3663 C 0.881 0.91408 0.5529 0.0
C3664 C 0.98017 0.01753 0.52951 0.0
C3665 C 0.96434 1.00694 0.53196 0.0
C3666 C 0.94472 0.96869 0.55914 0.0
C3667 C 0.89721 0.94479 0.54869 0.0
C3668 C 0.914 0.95705 0.54716 0.0
C3669 C 0.96353 0.99021 0.54071 0.0
C3670 C 0.94643 0.97876 0.543 0.0
H3671 H 0.85388 0.9444 0.54264 0.0
H3672 H 0.88146 0.96554 0.54218 0.0
H3673 H 0.92799 0.95033 0.57368 0.0
H3674 H 1.00686 0.99079 0.55019 0.0
H3675 H 0.97926 0.97174 0.55374 0.0
C3676 C 0.92468 0.06969 0.2539 0.0
C3677 C 0.91531 0.05137 0.24657 0.0
C3678 C 0.91694 0.08547 0.25237 0.0
C3679 C 0.87963 0.10176 0.22646 0.0
H3680 H 0.88542 0.13745 0.27404 0.0
C3681 C 0.83221 0.15135 0.23968 0.0
C3682 C 0.83838 0.16942 0.25054 0.0
C3683 C 0.84327 0.13866 0.23708 0.0
C3684 C 0.88391 0.12787 0.26049 0.0
H3685 H 0.89067 0.03529 0.23131 0.0
H3686 H 0.87715 0.06281 0.22868 0.0
H3687 H 0.90173 0.112 0.27326 0.0
H3688 H 0.8612 0.18861 0.26652 0.0
H3689 H 0.88066 0.16651 0.26169 0.0
H3690 H 0.86158 0.11742 0.21379 0.0
C3691 C 0.89052 0.06501 0.2355 0.0
C3692 C 0.89325 0.11324 0.26006 0.0
C3693 C 0.89823 0.04922 0.2371 0.0
C3694 C 0.85606 0.17481 0.25804 0.0
C3695 C 0.86716 0.16207 0.25544 0.0
C3696 C 0.87034 0.11642 0.22686 0.0
C3697 C 0.8997 0.08328 0.24339 0.0
C3698 C 0.89098 0.09981 0.24316 0.0
C3699 C 0.86082 0.14372 0.24522 0.0
C3700 C 0.87211 0.12944 0.24401 0.0
H3701 H 0.93788 0.07182 0.26123 0.0
H3702 H 0.92441 0.09938 0.25839 0.0
H3703 H 0.87781 0.09182 0.21311 0.0
H3704 H 0.81871 0.14686 0.23345 0.0
H3705 H 0.83788 0.1246 0.2293 0.0
C3706 C 0.77336 0.15212 0.04869 0.0
C3707 C 0.77615 0.17161 0.05543 0.0
C3708 C 0.75774 0.1404 0.04942 0.0
C3709 C 0.71229 0.14048 0.05377 0.0
H3710 H 0.7139 0.09091 0.06944 0.0
C3711 C 0.65339 0.09104 0.07209 0.0
C3712 C 0.65074 0.07189 0.06401 0.0
C3713 C 0.66845 0.10347 0.07063 0.0
C3714 C 0.71326 0.10463 0.06486 0.0
H3715 H 0.76458 0.19417 0.06793 0.0
H3716 H 0.73724 0.1735 0.06963 0.0
H3717 H 0.74064 0.11252 0.06817 0.0
H3718 H 0.66165 0.05068 0.04804 0.0
H3719 H 0.68815 0.07249 0.04556 0.0
H3720 H 0.68483 0.13255 0.05079 0.0
C3721 C 0.74716 0.16738 0.06353 0.0
C3722 C 0.72855 0.11701 0.06411 0.0
C3723 C 0.76282 0.1792 0.06266 0.0
C3724 C 0.66339 0.06539 0.05436 0.0
C3725 C 0.67855 0.07781 0.05305 0.0
C3726 C 0.69697 0.12811 0.05467 0.0
C3727 C 0.74454 0.14783 0.05707 0.0
C3728 C 0.72824 0.13502 0.05843 0.0
C3729 C 0.6812 0.09695 0.06118 0.0
C3730 C 0.69735 0.11006 0.06013 0.0
H3731 H 0.78324 0.14582 0.04272 0.0
H3732 H 0.756 0.12549 0.04388 0.0
H3733 H 0.71162 0.15415 0.0491 0.0
H3734 H 0.64371 0.09645 0.07937 0.0
H3735 H 0.67024 0.11813 0.07714 0.0
C3736 C 0.20846 0.45727 0.29248 0.0
C3737 C 0.19058 0.45544 0.29316 0.0
C3738 C 0.21691 0.4414 0.29177 0.0
C3739 C 0.21028 0.38723 0.29596 0.0
H3740 H 0.25491 0.39202 0.27917 0.0
C3741 C 0.24519 0.32045 0.28495 0.0
C3742 C 0.26344 0.32312 0.2874 0.0
C3743 C 0.23628 0.33601 0.28574 0.0
C3744 C 0.24254 0.39016 0.28416 0.0
H3745 H 0.16795 0.4342 0.29349 0.0
H3746 H 0.18221 0.4069 0.29179 0.0
H3747 H 0.24023 0.41867 0.28006 0.0
H3748 H 0.28611 0.34546 0.29268 0.0
H3749 H 0.27097 0.37198 0.29405 0.0
H3750 H 0.21262 0.35849 0.29972 0.0
C3751 C 0.19008 0.42073 0.29216 0.0
C3752 C 0.23388 0.40587 0.28473 0.0
C3753 C 0.18165 0.43667 0.29301 0.0
C3754 C 0.27217 0.3423 0.29069 0.0
C3755 C 0.26329 0.35781 0.29132 0.0
C3756 C 0.21891 0.37145 0.29525 0.0
C3757 C 0.20807 0.42249 0.29155 0.0
C3758 C 0.21744 0.40508 0.29073 0.0
C3759 C 0.24502 0.35526 0.28884 0.0
C3760 C 0.2354 0.37238 0.28941 0.0
H3761 H 0.21614 0.47121 0.2927 0.0
H3762 H 0.23064 0.44428 0.29171 0.0
H3763 H 0.19794 0.3853 0.30099 0.0
H3764 H 0.23765 0.30619 0.28231 0.0
H3765 H 0.22234 0.33279 0.28353 0.0
C3766 C 0.27324 0.44419 0.0603 0.0
C3767 C 0.27165 0.42446 0.05595 0.0
C3768 C 0.25853 0.45247 0.05979 0.0
C3769 C 0.21166 0.44226 0.03873 0.0
H3770 H 0.21009 0.48647 0.07498 0.0
C3771 C 0.14874 0.47165 0.04139 0.0
C3772 C 0.15003 0.49146 0.04371 0.0
C3773 C 0.16353 0.46359 0.04357 0.0
C3774 C 0.21034 0.47423 0.0646 0.0
H3775 H 0.25323 0.39795 0.04828 0.0
H3776 H 0.22778 0.41221 0.0478 0.0
H3777 H 0.2358 0.47239 0.07781 0.0
H3778 H 0.16826 0.5182 0.0501 0.0
H3779 H 0.19391 0.50418 0.05407 0.0
H3780 H 0.18622 0.44407 0.02552 0.0
C3781 C 0.24034 0.42144 0.05117 0.0
C3782 C 0.22515 0.46613 0.06622 0.0
C3783 C 0.255 0.4132 0.05162 0.0
C3784 C 0.16662 0.50292 0.04853 0.0
C3785 C 0.18141 0.49485 0.05078 0.0
C3786 C 0.19686 0.45031 0.03715 0.0
C3787 C 0.24183 0.44122 0.05493 0.0
C3788 C 0.22604 0.44999 0.05332 0.0
C3789 C 0.18011 0.47506 0.04821 0.0
C3790 C 0.19594 0.46642 0.05006 0.0
H3791 H 0.28585 0.45331 0.06358 0.0
H3792 H 0.26029 0.46775 0.06262 0.0
H3793 H 0.21189 0.43011 0.02822 0.0
H3794 H 0.13625 0.4623 0.03801 0.0
H3795 H 0.16194 0.44831 0.04181 0.0
C3796 C 0.89718 0.9493 0.25608 0.0
C3797 C 0.9145 0.94794 0.25582 0.0
C3798 C 0.88463 0.93305 0.25562 0.0
C3799 C 0.85864 0.89597 0.24646 0.0
H3800 H 0.87221 0.8563 0.27471 0.0
C3801 C 0.81117 0.82587 0.24889 0.0
C3802 C 0.81249 0.81836 0.26673 0.0
C3803 C 0.8236 0.84117 0.24607 0.0
C3804 C 0.86811 0.86729 0.26689 0.0
H3805 H 0.93206 0.92834 0.25397 0.0
H3806 H 0.91017 0.90004 0.25243 0.0
H3807 H 0.89351 0.88404 0.27279 0.0
H3808 H 0.82746 0.82118 0.2958 0.0
H3809 H 0.8488 0.84795 0.29117 0.0
H3810 H 0.83301 0.87956 0.24148 0.0
C3811 C 0.9063 0.91367 0.25368 0.0
C3812 C 0.88045 0.88313 0.26549 0.0
C3813 C 0.91887 0.92992 0.25443 0.0
C3814 C 0.82628 0.82649 0.28176 0.0
C3815 C 0.83858 0.84181 0.27904 0.0
C3816 C 0.84623 0.88018 0.24804 0.0
C3817 C 0.88904 0.91501 0.25462 0.0
C3818 C 0.87589 0.89778 0.25535 0.0
C3819 C 0.8375 0.84933 0.26113 0.0
C3820 C 0.85078 0.86571 0.25845 0.0
H3821 H 0.89339 0.96298 0.25726 0.0
H3822 H 0.87156 0.93475 0.25666 0.0
H3823 H 0.85466 0.90679 0.23827 0.0
H3824 H 0.80064 0.81981 0.23707 0.0
H3825 H 0.82243 0.84643 0.23202 0.0
C3826 C 0.70182 0.06651 0.79043 0.0
C3827 C 0.68898 0.06491 0.80266 0.0
C3828 C 0.71179 0.08445 0.78867 0.0
C3829 C 0.72574 0.13529 0.81379 0.0
H3830 H 0.73414 0.14749 0.76258 0.0
C3831 C 0.75759 0.21328 0.80481 0.0
C3832 C 0.76546 0.21725 0.78827 0.0
C3833 C 0.74879 0.19483 0.8064 0.0
C3834 C 0.73233 0.14456 0.77719 0.0
H3835 H 0.67721 0.08163 0.82288 0.0
H3836 H 0.6947 0.11221 0.82043 0.0
H3837 H 0.71925 0.1159 0.7659 0.0
H3838 H 0.77006 0.20393 0.76047 0.0
H3839 H 0.75564 0.17205 0.76345 0.0
H3840 H 0.73914 0.16345 0.82539 0.0
C3841 C 0.69711 0.09971 0.812 0.0
C3842 C 0.72358 0.12611 0.77906 0.0
C3843 C 0.68696 0.08195 0.81342 0.0
C3844 C 0.76419 0.20178 0.77344 0.0
C3845 C 0.75564 0.18322 0.77517 0.0
C3846 C 0.73475 0.15359 0.81202 0.0
C3847 C 0.70961 0.10151 0.79939 0.0
C3848 C 0.7199 0.12107 0.79738 0.0
C3849 C 0.74762 0.17913 0.7917 0.0
C3850 C 0.73818 0.15893 0.79363 0.0
H3851 H 0.70374 0.05397 0.78161 0.0
H3852 H 0.72126 0.08494 0.77885 0.0
H3853 H 0.72355 0.13222 0.82828 0.0
H3854 H 0.758 0.22459 0.81659 0.0
H3855 H 0.7427 0.19313 0.81926 0.0
loop_
_geom_bond_atom_site_label_1
_geom_bond_atom_site_label_2
_geom_bond_distance
_geom_bond_site_symmetry_2
_ccdc_geom_bond_type
Co0 O1 2.216 . S
Co0 O2 2.091 . S
Co0 O4 2.004 1_455 S
Co0 O10 2.021 . S
Co0 O12 2.137 . S
Co0 O13 2.244 . S
O1 Co0 2.216 . S
O1 C8 1.247 . S
O2 Co0 2.091 . S
O2 C8 1.261 . S
C3 O12 1.247 . S
C3 O13 1.272 . S
O4 Co0 2.004 1_655 S
O4 C9 1.259 . S
Co5 O6 2.061 . S
Co5 O11 2.052 . S
Co5 O13 2.135 1_655 S
O6 Co5 2.061 . S
O6 C9 1.235 . S
C7 O10 1.238 1_655 S
C7 O11 1.241 . S
C8 O1 1.247 . S
C8 O2 1.261 . S
C9 O4 1.259 . S
C9 O6 1.235 . S
O10 Co0 2.021 . S
O10 C7 1.238 1_455 S
O11 Co5 2.052 . S
O11 C7 1.241 . S
O12 Co0 2.137 . S
O12 C3 1.247 . S
O13 Co0 2.244 . S
O13 C3 1.272 . S
O13 Co5 2.135 1_455 S
Co14 O15 2.216 . S
Co14 O16 2.091 . S
Co14 O18 2.004 . S
Co14 O24 2.021 . S
Co14 O26 2.137 . S
Co14 O27 2.244 . S
O15 Co14 2.216 . S
O15 C22 1.247 . S
O16 Co14 2.091 . S
O16 C22 1.261 . S
C17 O26 1.247 . S
C17 O27 1.272 . S
O18 Co14 2.004 . S
O18 C23 1.259 . S
Co19 O20 2.061 . S
Co19 O25 2.052 . S
Co19 O27 2.135 . S
O20 Co19 2.061 . S
O20 C23 1.235 . S
C21 O24 1.238 . S
C21 O25 1.241 . S
C22 O15 1.247 . S
C22 O16 1.261 . S
C23 O18 1.259 . S
C23 O20 1.235 . S
O24 Co14 2.021 . S
O24 C21 1.238 . S
O25 Co19 2.052 . S
O25 C21 1.241 . S
O26 Co14 2.137 . S
O26 C17 1.247 . S
O27 Co14 2.244 . S
O27 C17 1.272 . S
O27 Co19 2.135 . S
Co28 O29 2.216 . S
Co28 O30 2.091 . S
Co28 O32 2.004 . S
Co28 O38 2.021 . S
Co28 O40 2.137 . S
Co28 O41 2.244 . S
O29 Co28 2.216 . S
O29 C36 1.247 . S
O30 Co28 2.091 . S
O30 C36 1.261 . S
C31 O40 1.247 . S
C31 O41 1.272 . S
O32 Co28 2.004 . S
O32 C37 1.259 . S
Co33 O34 2.061 . S
Co33 O39 2.052 . S
Co33 O41 2.135 . S
O34 Co33 2.061 . S
O34 C37 1.235 . S
C35 O38 1.238 . S
C35 O39 1.241 . S
C36 O29 1.247 . S
C36 O30 1.261 . S
C37 O32 1.259 . S
C37 O34 1.235 . S
O38 Co28 2.021 . S
O38 C35 1.238 . S
O39 Co33 2.052 . S
O39 C35 1.241 . S
O40 Co28 2.137 . S
O40 C31 1.247 . S
O41 Co28 2.244 . S
O41 C31 1.272 . S
O41 Co33 2.135 . S
Co42 O43 2.216 . S
Co42 O44 2.091 . S
Co42 O46 2.004 . S
Co42 O52 2.021 . S
Co42 O54 2.137 . S
Co42 O55 2.244 . S
O43 Co42 2.216 . S
O43 C50 1.247 . S
O44 Co42 2.091 . S
O44 C50 1.261 . S
C45 O54 1.247 . S
C45 O55 1.272 . S
O46 Co42 2.004 . S
O46 C51 1.259 . S
Co47 O48 2.061 . S
Co47 O53 2.052 . S
Co47 O55 2.135 . S
O48 Co47 2.061 . S
O48 C51 1.235 . S
C49 O52 1.238 . S
C49 O53 1.241 . S
C50 O43 1.247 . S
C50 O44 1.261 . S
C51 O46 1.259 . S
C51 O48 1.235 . S
O52 Co42 2.021 . S
O52 C49 1.238 . S
O53 Co47 2.052 . S
O53 C49 1.241 . S
O54 Co42 2.137 . S
O54 C45 1.247 . S
O55 Co42 2.244 . S
O55 C45 1.272 . S
O55 Co47 2.135 . S
Co56 O57 2.216 . S
Co56 O58 2.091 . S
Co56 O60 2.004 . S
Co56 O66 2.021 . S
Co56 O68 2.137 . S
Co56 O69 2.244 . S
O57 Co56 2.216 . S
O57 C64 1.247 . S
O58 Co56 2.091 . S
O58 C64 1.261 . S
C59 O68 1.247 . S
C59 O69 1.272 . S
O60 Co56 2.004 . S
O60 C65 1.259 . S
Co61 O62 2.061 . S
Co61 O67 2.052 . S
Co61 O69 2.135 . S
O62 Co61 2.061 . S
O62 C65 1.235 . S
C63 O66 1.238 . S
C63 O67 1.241 . S
C64 O57 1.247 . S
C64 O58 1.261 . S
C65 O60 1.259 . S
C65 O62 1.235 . S
O66 Co56 2.021 . S
O66 C63 1.238 . S
O67 Co61 2.052 . S
O67 C63 1.241 . S
O68 Co56 2.137 . S
O68 C59 1.247 . S
O69 Co56 2.244 . S
O69 C59 1.272 . S
O69 Co61 2.135 . S
Co70 O71 2.216 . S
Co70 O72 2.091 . S
Co70 O74 2.004 . S
Co70 O80 2.021 . S
Co70 O82 2.137 . S
Co70 O83 2.244 . S
O71 Co70 2.216 . S
O71 C78 1.247 . S
O72 Co70 2.091 . S
O72 C78 1.261 . S
C73 O82 1.247 . S
C73 O83 1.272 . S
O74 Co70 2.004 . S
O74 C79 1.259 . S
Co75 O76 2.061 . S
Co75 O81 2.052 . S
Co75 O83 2.135 . S
O76 Co75 2.061 . S
O76 C79 1.235 . S
C77 O80 1.238 . S
C77 O81 1.241 . S
C78 O71 1.247 . S
C78 O72 1.261 . S
C79 O74 1.259 . S
C79 O76 1.235 . S
O80 Co70 2.021 . S
O80 C77 1.238 . S
O81 Co75 2.052 . S
O81 C77 1.241 . S
O82 Co70 2.137 . S
O82 C73 1.247 . S
O83 Co70 2.244 . S
O83 C73 1.272 . S
O83 Co75 2.135 . S
Co84 O85 2.216 . S
Co84 O86 2.091 . S
Co84 O88 2.004 . S
Co84 O94 2.021 . S
Co84 O96 2.137 . S
Co84 O97 2.244 . S
O85 Co84 2.216 . S
O85 C92 1.247 . S
O86 Co84 2.091 . S
O86 C92 1.261 . S
C87 O96 1.247 . S
C87 O97 1.272 . S
O88 Co84 2.004 . S
O88 C93 1.259 . S
Co89 O90 2.061 . S
Co89 O95 2.052 . S
Co89 O97 2.135 . S
O90 Co89 2.061 . S
O90 C93 1.235 . S
C91 O94 1.238 . S
C91 O95 1.241 . S
C92 O85 1.247 . S
C92 O86 1.261 . S
C93 O88 1.259 . S
C93 O90 1.235 . S
O94 Co84 2.021 . S
O94 C91 1.238 . S
O95 Co89 2.052 . S
O95 C91 1.241 . S
O96 Co84 2.137 . S
O96 C87 1.247 . S
O97 Co84 2.244 . S
O97 C87 1.272 . S
O97 Co89 2.135 . S
Co98 O99 2.216 . S
Co98 O100 2.091 . S
Co98 O102 2.004 1_455 S
Co98 O108 2.021 . S
Co98 O110 2.137 . S
Co98 O111 2.244 . S
O99 Co98 2.216 . S
O99 C106 1.247 . S
O100 Co98 2.091 . S
O100 C106 1.261 . S
C101 O110 1.247 . S
C101 O111 1.272 . S
O102 Co98 2.004 1_655 S
O102 C107 1.259 . S
Co103 O104 2.061 . S
Co103 O109 2.052 1_655 S
Co103 O111 2.135 1_655 S
O104 Co103 2.061 . S
O104 C107 1.235 . S
C105 O108 1.238 . S
C105 O109 1.241 . S
C106 O99 1.247 . S
C106 O100 1.261 . S
C107 O102 1.259 . S
C107 O104 1.235 . S
O108 Co98 2.021 . S
O108 C105 1.238 . S
O109 Co103 2.052 1_455 S
O109 C105 1.241 . S
O110 Co98 2.137 . S
O110 C101 1.247 . S
O111 Co98 2.244 . S
O111 C101 1.272 . S
O111 Co103 2.135 1_455 S
Co112 O113 2.216 . S
Co112 O114 2.091 . S
Co112 O116 2.004 1_545 S
Co112 O122 2.021 . S
Co112 O124 2.137 . S
Co112 O125 2.244 . S
O113 Co112 2.216 . S
O113 C120 1.247 . S
O114 Co112 2.091 . S
O114 C120 1.261 . S
C115 O124 1.247 . S
C115 O125 1.272 . S
O116 Co112 2.004 1_565 S
O116 C121 1.259 . S
Co117 O118 2.061 . S
Co117 O123 2.052 1_565 S
Co117 O125 2.135 1_565 S
O118 Co117 2.061 . S
O118 C121 1.235 . S
C119 O122 1.238 . S
C119 O123 1.241 . S
C120 O113 1.247 . S
C120 O114 1.261 . S
C121 O116 1.259 . S
C121 O118 1.235 . S
O122 Co112 2.021 . S
O122 C119 1.238 . S
O123 Co117 2.052 1_545 S
O123 C119 1.241 . S
O124 Co112 2.137 . S
O124 C115 1.247 . S
O125 Co112 2.244 . S
O125 C115 1.272 . S
O125 Co117 2.135 1_545 S
Co126 O127 2.216 . S
Co126 O128 2.091 . S
Co126 O130 2.004 . S
Co126 O136 2.021 . S
Co126 O138 2.137 . S
Co126 O139 2.244 . S
O127 Co126 2.216 . S
O127 C134 1.247 . S
O128 Co126 2.091 . S
O128 C134 1.261 . S
C129 O138 1.247 . S
C129 O139 1.272 . S
O130 Co126 2.004 . S
O130 C135 1.259 . S
Co131 O132 2.061 . S
Co131 O137 2.052 . S
Co131 O139 2.135 . S
O132 Co131 2.061 . S
O132 C135 1.235 . S
C133 O136 1.238 . S
C133 O137 1.241 . S
C134 O127 1.247 . S
C134 O128 1.261 . S
C135 O130 1.259 . S
C135 O132 1.235 . S
O136 Co126 2.021 . S
O136 C133 1.238 . S
O137 Co131 2.052 . S
O137 C133 1.241 . S
O138 Co126 2.137 . S
O138 C129 1.247 . S
O139 Co126 2.244 . S
O139 C129 1.272 . S
O139 Co131 2.135 . S
Co140 O141 2.216 1_545 S
Co140 O142 2.091 . S
Co140 O144 2.004 . S
Co140 O150 2.021 . S
Co140 O152 2.137 . S
Co140 O153 2.244 . S
O141 Co140 2.216 1_565 S
O141 C148 1.247 . S
O142 Co140 2.091 . S
O142 C148 1.261 1_545 S
C143 O152 1.247 . S
C143 O153 1.272 . S
O144 Co140 2.004 . S
O144 C149 1.259 . S
Co145 O146 2.061 . S
Co145 O151 2.052 . S
Co145 O153 2.135 . S
O146 Co145 2.061 . S
O146 C149 1.235 . S
C147 O150 1.238 . S
C147 O151 1.241 . S
C148 O141 1.247 . S
C148 O142 1.261 1_565 S
C149 O144 1.259 . S
C149 O146 1.235 . S
O150 Co140 2.021 . S
O150 C147 1.238 . S
O151 Co145 2.052 . S
O151 C147 1.241 . S
O152 Co140 2.137 . S
O152 C143 1.247 . S
O153 Co140 2.244 . S
O153 C143 1.272 . S
O153 Co145 2.135 . S
Co154 O155 2.216 . S
Co154 O156 2.091 1_556 S
Co154 O158 2.004 1_556 S
Co154 O164 2.021 1_556 S
Co154 O166 2.137 . S
Co154 O167 2.244 . S
O155 Co154 2.216 . S
O155 C162 1.247 . S
O156 Co154 2.091 1_554 S
O156 C162 1.261 1_554 S
C157 O166 1.247 . S
C157 O167 1.272 . S
O158 Co154 2.004 1_554 S
O158 C163 1.259 . S
Co159 O160 2.061 1_556 S
Co159 O165 2.052 1_556 S
Co159 O167 2.135 . S
O160 Co159 2.061 1_554 S
O160 C163 1.235 . S
C161 O164 1.238 . S
C161 O165 1.241 . S
C162 O155 1.247 . S
C162 O156 1.261 1_556 S
C163 O158 1.259 . S
C163 O160 1.235 . S
O164 Co154 2.021 1_554 S
O164 C161 1.238 . S
O165 Co159 2.052 1_554 S
O165 C161 1.241 . S
O166 Co154 2.137 . S
O166 C157 1.247 . S
O167 Co154 2.244 . S
O167 C157 1.272 . S
O167 Co159 2.135 . S
Co168 O169 2.216 . S
Co168 O170 2.091 . S
Co168 O172 2.004 . S
Co168 O178 2.021 . S
Co168 O180 2.137 1_554 S
Co168 O181 2.244 . S
O169 Co168 2.216 . S
O169 C176 1.247 . S
O170 Co168 2.091 . S
O170 C176 1.261 . S
C171 O180 1.247 . S
C171 O181 1.272 1_556 S
O172 Co168 2.004 . S
O172 C177 1.259 . S
Co173 O174 2.061 . S
Co173 O179 2.052 . S
Co173 O181 2.135 . S
O174 Co173 2.061 . S
O174 C177 1.235 . S
C175 O178 1.238 . S
C175 O179 1.241 . S
C176 O169 1.247 . S
C176 O170 1.261 . S
C177 O172 1.259 . S
C177 O174 1.235 . S
O178 Co168 2.021 . S
O178 C175 1.238 . S
O179 Co173 2.052 . S
O179 C175 1.241 . S
O180 Co168 2.137 1_556 S
O180 C171 1.247 . S
O181 Co168 2.244 . S
O181 C171 1.272 1_554 S
O181 Co173 2.135 . S
Co182 O183 2.216 . S
Co182 O184 2.091 . S
Co182 O186 2.004 . S
Co182 O192 2.021 . S
Co182 O194 2.137 . S
Co182 O195 2.244 . S
O183 Co182 2.216 . S
O183 C190 1.247 . S
O184 Co182 2.091 . S
O184 C190 1.261 . S
C185 O194 1.247 . S
C185 O195 1.272 . S
O186 Co182 2.004 . S
O186 C191 1.259 . S
Co187 O188 2.061 . S
Co187 O193 2.052 . S
Co187 O195 2.135 . S
O188 Co187 2.061 . S
O188 C191 1.235 . S
C189 O192 1.238 . S
C189 O193 1.241 . S
C190 O183 1.247 . S
C190 O184 1.261 . S
C191 O186 1.259 . S
C191 O188 1.235 . S
O192 Co182 2.021 . S
O192 C189 1.238 . S
O193 Co187 2.052 . S
O193 C189 1.241 . S
O194 Co182 2.137 . S
O194 C185 1.247 . S
O195 Co182 2.244 . S
O195 C185 1.272 . S
O195 Co187 2.135 . S
Co196 O197 2.216 . S
Co196 O198 2.091 . S
Co196 O200 2.004 . S
Co196 O206 2.021 . S
Co196 O208 2.137 . S
Co196 O209 2.244 . S
O197 Co196 2.216 . S
O197 C204 1.247 . S
O198 Co196 2.091 . S
O198 C204 1.261 . S
C199 O208 1.247 . S
C199 O209 1.272 . S
O200 Co196 2.004 . S
O200 C205 1.259 . S
Co201 O202 2.061 . S
Co201 O207 2.052 . S
Co201 O209 2.135 . S
O202 Co201 2.061 . S
O202 C205 1.235 . S
C203 O206 1.238 . S
C203 O207 1.241 . S
C204 O197 1.247 . S
C204 O198 1.261 . S
C205 O200 1.259 . S
C205 O202 1.235 . S
O206 Co196 2.021 . S
O206 C203 1.238 . S
O207 Co201 2.052 . S
O207 C203 1.241 . S
O208 Co196 2.137 . S
O208 C199 1.247 . S
O209 Co196 2.244 . S
O209 C199 1.272 . S
O209 Co201 2.135 . S
Co210 O211 2.216 . S
Co210 O212 2.091 . S
Co210 O214 2.004 . S
Co210 O220 2.021 . S
Co210 O222 2.137 . S
Co210 O223 2.244 . S
O211 Co210 2.216 . S
O211 C218 1.247 . S
O212 Co210 2.091 . S
O212 C218 1.261 . S
C213 O222 1.247 . S
C213 O223 1.272 . S
O214 Co210 2.004 . S
O214 C219 1.259 . S
Co215 O216 2.061 . S
Co215 O221 2.052 . S
Co215 O223 2.135 . S
O216 Co215 2.061 . S
O216 C219 1.235 . S
C217 O220 1.238 . S
C217 O221 1.241 . S
C218 O211 1.247 . S
C218 O212 1.261 . S
C219 O214 1.259 . S
C219 O216 1.235 . S
O220 Co210 2.021 . S
O220 C217 1.238 . S
O221 Co215 2.052 . S
O221 C217 1.241 . S
O222 Co210 2.137 . S
O222 C213 1.247 . S
O223 Co210 2.244 . S
O223 C213 1.272 . S
O223 Co215 2.135 . S
Co224 O225 2.216 . S
Co224 O226 2.091 . S
Co224 O228 2.004 1_545 S
Co224 O234 2.021 . S
Co224 O236 2.137 . S
Co224 O237 2.244 . S
O225 Co224 2.216 . S
O225 C232 1.247 . S
O226 Co224 2.091 . S
O226 C232 1.261 . S
C227 O236 1.247 . S
C227 O237 1.272 . S
O228 Co224 2.004 1_565 S
O228 C233 1.259 . S
Co229 O230 2.061 . S
Co229 O235 2.052 . S
Co229 O237 2.135 1_565 S
O230 Co229 2.061 . S
O230 C233 1.235 . S
C231 O234 1.238 . S
C231 O235 1.241 1_545 S
C232 O225 1.247 . S
C232 O226 1.261 . S
C233 O228 1.259 . S
C233 O230 1.235 . S
O234 Co224 2.021 . S
O234 C231 1.238 . S
O235 Co229 2.052 . S
O235 C231 1.241 1_565 S
O236 Co224 2.137 . S
O236 C227 1.247 . S
O237 Co224 2.244 . S
O237 C227 1.272 . S
O237 Co229 2.135 1_545 S
Co238 O239 2.216 . S
Co238 O240 2.091 . S
Co238 O242 2.004 . S
Co238 O248 2.021 . S
Co238 O250 2.137 . S
Co238 O251 2.244 . S
O239 Co238 2.216 . S
O239 C246 1.247 . S
O240 Co238 2.091 . S
O240 C246 1.261 . S
C241 O250 1.247 . S
C241 O251 1.272 . S
O242 Co238 2.004 . S
O242 C247 1.259 . S
Co243 O244 2.061 . S
Co243 O249 2.052 . S
Co243 O251 2.135 . S
O244 Co243 2.061 . S
O244 C247 1.235 . S
C245 O248 1.238 . S
C245 O249 1.241 . S
C246 O239 1.247 . S
C246 O240 1.261 . S
C247 O242 1.259 . S
C247 O244 1.235 . S
O248 Co238 2.021 . S
O248 C245 1.238 . S
O249 Co243 2.052 . S
O249 C245 1.241 . S
O250 Co238 2.137 . S
O250 C241 1.247 . S
O251 Co238 2.244 . S
O251 C241 1.272 . S
O251 Co243 2.135 . S
Co252 O253 2.216 . S
Co252 O254 2.091 . S
Co252 O256 2.004 . S
Co252 O262 2.021 . S
Co252 O264 2.137 . S
Co252 O265 2.244 . S
O253 Co252 2.216 . S
O253 C260 1.247 . S
O254 Co252 2.091 . S
O254 C260 1.261 . S
C255 O264 1.247 . S
C255 O265 1.272 . S
O256 Co252 2.004 . S
O256 C261 1.259 . S
Co257 O258 2.061 . S
Co257 O263 2.052 . S
Co257 O265 2.135 . S
O258 Co257 2.061 . S
O258 C261 1.235 . S
C259 O262 1.238 . S
C259 O263 1.241 . S
C260 O253 1.247 . S
C260 O254 1.261 . S
C261 O256 1.259 . S
C261 O258 1.235 . S
O262 Co252 2.021 . S
O262 C259 1.238 . S
O263 Co257 2.052 . S
O263 C259 1.241 . S
O264 Co252 2.137 . S
O264 C255 1.247 . S
O265 Co252 2.244 . S
O265 C255 1.272 . S
O265 Co257 2.135 . S
Co266 O267 2.216 1_545 S
Co266 O268 2.091 1_545 S
Co266 O270 2.004 . S
Co266 O276 2.021 . S
Co266 O278 2.137 . S
Co266 O279 2.244 . S
O267 Co266 2.216 1_565 S
O267 C274 1.247 . S
O268 Co266 2.091 1_565 S
O268 C274 1.261 . S
C269 O278 1.247 . S
C269 O279 1.272 . S
O270 Co266 2.004 . S
O270 C275 1.259 . S
Co271 O272 2.061 . S
Co271 O277 2.052 . S
Co271 O279 2.135 . S
O272 Co271 2.061 . S
O272 C275 1.235 . S
C273 O276 1.238 . S
C273 O277 1.241 . S
C274 O267 1.247 . S
C274 O268 1.261 . S
C275 O270 1.259 . S
C275 O272 1.235 . S
O276 Co266 2.021 . S
O276 C273 1.238 . S
O277 Co271 2.052 . S
O277 C273 1.241 . S
O278 Co266 2.137 . S
O278 C269 1.247 . S
O279 Co266 2.244 . S
O279 C269 1.272 . S
O279 Co271 2.135 . S
Co280 O281 2.216 . S
Co280 O282 2.091 . S
Co280 O284 2.004 . S
Co280 O290 2.021 . S
Co280 O292 2.137 1_554 S
Co280 O293 2.244 . S
O281 Co280 2.216 . S
O281 C288 1.247 . S
O282 Co280 2.091 . S
O282 C288 1.261 . S
C283 O292 1.247 . S
C283 O293 1.272 1_556 S
O284 Co280 2.004 . S
O284 C289 1.259 . S
Co285 O286 2.061 . S
Co285 O291 2.052 . S
Co285 O293 2.135 . S
O286 Co285 2.061 . S
O286 C289 1.235 . S
C287 O290 1.238 . S
C287 O291 1.241 . S
C288 O281 1.247 . S
C288 O282 1.261 . S
C289 O284 1.259 . S
C289 O286 1.235 . S
O290 Co280 2.021 . S
O290 C287 1.238 . S
O291 Co285 2.052 . S
O291 C287 1.241 . S
O292 Co280 2.137 1_556 S
O292 C283 1.247 . S
O293 Co280 2.244 . S
O293 C283 1.272 1_554 S
O293 Co285 2.135 . S
Co294 O295 2.216 . S
Co294 O296 2.091 . S
Co294 O298 2.004 . S
Co294 O304 2.021 . S
Co294 O306 2.137 . S
Co294 O307 2.244 . S
O295 Co294 2.216 . S
O295 C302 1.247 . S
O296 Co294 2.091 . S
O296 C302 1.261 . S
C297 O306 1.247 . S
C297 O307 1.272 . S
O298 Co294 2.004 . S
O298 C303 1.259 . S
Co299 O300 2.061 . S
Co299 O305 2.052 . S
Co299 O307 2.135 . S
O300 Co299 2.061 . S
O300 C303 1.235 . S
C301 O304 1.238 . S
C301 O305 1.241 . S
C302 O295 1.247 . S
C302 O296 1.261 . S
C303 O298 1.259 . S
C303 O300 1.235 . S
O304 Co294 2.021 . S
O304 C301 1.238 . S
O305 Co299 2.052 . S
O305 C301 1.241 . S
O306 Co294 2.137 . S
O306 C297 1.247 . S
O307 Co294 2.244 . S
O307 C297 1.272 . S
O307 Co299 2.135 . S
Co308 O309 2.216 . S
Co308 O310 2.091 . S
Co308 O312 2.004 . S
Co308 O318 2.021 . S
Co308 O320 2.137 . S
Co308 O321 2.244 . S
O309 Co308 2.216 . S
O309 C316 1.247 . S
O310 Co308 2.091 . S
O310 C316 1.261 . S
C311 O320 1.247 . S
C311 O321 1.272 . S
O312 Co308 2.004 . S
O312 C317 1.259 . S
Co313 O314 2.061 . S
Co313 O319 2.052 . S
Co313 O321 2.135 . S
O314 Co313 2.061 . S
O314 C317 1.235 . S
C315 O318 1.238 . S
C315 O319 1.241 . S
C316 O309 1.247 . S
C316 O310 1.261 . S
C317 O312 1.259 . S
C317 O314 1.235 . S
O318 Co308 2.021 . S
O318 C315 1.238 . S
O319 Co313 2.052 . S
O319 C315 1.241 . S
O320 Co308 2.137 . S
O320 C311 1.247 . S
O321 Co308 2.244 . S
O321 C311 1.272 . S
O321 Co313 2.135 . S
Co322 O323 2.216 . S
Co322 O324 2.091 . S
Co322 O326 2.004 . S
Co322 O332 2.021 . S
Co322 O334 2.137 . S
Co322 O335 2.244 . S
O323 Co322 2.216 . S
O323 C330 1.247 . S
O324 Co322 2.091 . S
O324 C330 1.261 . S
C325 O334 1.247 . S
C325 O335 1.272 . S
O326 Co322 2.004 . S
O326 C331 1.259 . S
Co327 O328 2.061 . S
Co327 O333 2.052 . S
Co327 O335 2.135 . S
O328 Co327 2.061 . S
O328 C331 1.235 . S
C329 O332 1.238 . S
C329 O333 1.241 . S
C330 O323 1.247 . S
C330 O324 1.261 . S
C331 O326 1.259 . S
C331 O328 1.235 . S
O332 Co322 2.021 . S
O332 C329 1.238 . S
O333 Co327 2.052 . S
O333 C329 1.241 . S
O334 Co322 2.137 . S
O334 C325 1.247 . S
O335 Co322 2.244 . S
O335 C325 1.272 . S
O335 Co327 2.135 . S
Tb336 C338 2.809 1_455 S
Tb336 O356 2.484 1_455 S
Tb336 O357 2.440 1_454 S
Tb336 O358 2.658 . S
Tb336 O359 2.409 1_554 S
Tb336 O360 2.378 . S
Tb336 O364 2.325 . S
Tb336 O367 2.341 1_545 S
Tb337 C347 2.809 . S
Tb337 O358 2.325 . S
Tb337 O361 2.341 . S
Tb337 O362 2.484 . S
Tb337 O363 2.440 . S
Tb337 O364 2.658 . S
Tb337 O365 2.409 . S
Tb337 O366 2.378 1_545 S
C338 Tb336 2.809 1_655 S
C338 C339 1.514 . S
C338 O356 1.248 . S
C338 O357 1.266 1_554 S
C339 C338 1.514 . S
C339 C340 1.359 . S
C339 C344 1.348 1_554 S
C340 C339 1.359 . S
C340 C341 1.380 . S
C340 H368 0.929 . S
C341 C340 1.380 . S
C341 C342 1.381 . S
C341 H369 0.931 . S
C342 C341 1.381 . S
C342 C343 1.338 1_554 S
C343 C342 1.338 1_556 S
C343 C344 1.408 . S
C343 H370 0.930 . S
C344 C339 1.348 1_556 S
C344 C343 1.408 . S
C344 H371 0.930 . S
C345 O358 1.281 1_556 S
C345 O359 1.254 . S
C346 O360 1.236 . S
C346 O361 1.266 . S
C347 Tb337 2.809 . S
C347 C348 1.514 1_545 S
C347 O362 1.248 . S
C347 O363 1.266 . S
C348 C347 1.514 1_565 S
C348 C349 1.359 . S
C348 C353 1.348 . S
C349 C348 1.359 . S
C349 C350 1.380 . S
C349 H372 0.929 . S
C350 C349 1.380 . S
C350 C351 1.347 . S
C350 H373 0.931 . S
C351 C350 1.347 . S
C351 C352 1.369 . S
C352 C351 1.369 . S
C352 C353 1.408 . S
C352 H374 0.930 . S
C353 C348 1.348 . S
C353 C352 1.408 . S
C353 H375 0.930 . S
C354 O364 1.281 . S
C354 O365 1.254 . S
C355 O366 1.236 . S
C355 O367 1.266 . S
O356 Tb336 2.484 1_655 S
O356 C338 1.248 . S
O357 Tb336 2.440 1_656 S
O357 C338 1.266 1_556 S
O358 Tb336 2.658 . S
O358 Tb337 2.325 . S
O358 C345 1.281 1_554 S
O359 Tb336 2.409 1_556 S
O359 C345 1.254 . S
O360 Tb336 2.378 . S
O360 C346 1.236 . S
O361 Tb337 2.341 . S
O361 C346 1.266 . S
O362 Tb337 2.484 . S
O362 C347 1.248 . S
O363 Tb337 2.440 . S
O363 C347 1.266 . S
O364 Tb336 2.325 . S
O364 Tb337 2.658 . S
O364 C354 1.281 . S
O365 Tb337 2.409 . S
O365 C354 1.254 . S
O366 Tb337 2.378 1_565 S
O366 C355 1.236 . S
O367 Tb336 2.341 1_565 S
O367 C355 1.266 . S
H368 C340 0.929 . S
H369 C341 0.931 . S
H370 C343 0.930 . S
H371 C344 0.930 . S
H372 C349 0.929 . S
H373 C350 0.931 . S
H374 C352 0.930 . S
H375 C353 0.930 . S
Tb376 C378 2.809 . S
Tb376 O396 2.484 . S
Tb376 O397 2.440 . S
Tb376 O398 2.658 . S
Tb376 O399 2.409 . S
Tb376 O400 2.378 . S
Tb376 O404 2.325 . S
Tb376 O407 2.341 . S
Tb377 C387 2.809 . S
Tb377 O398 2.325 . S
Tb377 O401 2.341 . S
Tb377 O402 2.484 . S
Tb377 O403 2.440 . S
Tb377 O404 2.658 . S
Tb377 O405 2.409 . S
Tb377 O406 2.378 . S
C378 Tb376 2.809 . S
C378 C379 1.514 . S
C378 O396 1.248 . S
C378 O397 1.266 . S
C379 C378 1.514 . S
C379 C380 1.359 . S
C379 C384 1.348 . S
C380 C379 1.359 . S
C380 C381 1.380 . S
C380 H408 0.929 . S
C381 C380 1.380 . S
C381 C382 1.347 . S
C381 H409 0.931 . S
C382 C381 1.347 . S
C382 C383 1.369 . S
C383 C382 1.369 . S
C383 C384 1.408 . S
C383 H410 0.930 . S
C384 C379 1.348 . S
C384 C383 1.408 . S
C384 H411 0.930 . S
C385 O398 1.281 . S
C385 O399 1.254 . S
C386 O400 1.236 . S
C386 O401 1.266 . S
C387 Tb377 2.809 . S
C387 C388 1.514 . S
C387 O402 1.248 . S
C387 O403 1.266 . S
C388 C387 1.514 . S
C388 C389 1.359 . S
C388 C393 1.348 . S
C389 C388 1.359 . S
C389 C390 1.380 . S
C389 H412 0.929 . S
C390 C389 1.380 . S
C390 C391 1.347 . S
C390 H413 0.931 . S
C391 C390 1.347 . S
C391 C392 1.369 . S
C392 C391 1.369 . S
C392 C393 1.408 . S
C392 H414 0.930 . S
C393 C388 1.348 . S
C393 C392 1.408 . S
C393 H415 0.930 . S
C394 O404 1.281 . S
C394 O405 1.254 . S
C395 O406 1.236 . S
C395 O407 1.266 . S
O396 Tb376 2.484 . S
O396 C378 1.248 . S
O397 Tb376 2.440 . S
O397 C378 1.266 . S
O398 Tb376 2.658 . S
O398 Tb377 2.325 . S
O398 C385 1.281 . S
O399 Tb376 2.409 . S
O399 C385 1.254 . S
O400 Tb376 2.378 . S
O400 C386 1.236 . S
O401 Tb377 2.341 . S
O401 C386 1.266 . S
O402 Tb377 2.484 . S
O402 C387 1.248 . S
O403 Tb377 2.440 . S
O403 C387 1.266 . S
O404 Tb376 2.325 . S
O404 Tb377 2.658 . S
O404 C394 1.281 . S
O405 Tb377 2.409 . S
O405 C394 1.254 . S
O406 Tb377 2.378 . S
O406 C395 1.236 . S
O407 Tb376 2.341 . S
O407 C395 1.266 . S
H408 C380 0.929 . S
H409 C381 0.931 . S
H410 C383 0.930 . S
H411 C384 0.930 . S
H412 C389 0.929 . S
H413 C390 0.931 . S
H414 C392 0.930 . S
H415 C393 0.930 . S
Tb416 C418 2.809 1_545 S
Tb416 O436 2.484 1_545 S
Tb416 O437 2.440 . S
Tb416 O438 2.658 . S
Tb416 O439 2.409 . S
Tb416 O440 2.378 1_545 S
Tb416 O444 2.325 . S
Tb416 O447 2.341 . S
Tb417 C427 2.809 . S
Tb417 O438 2.325 . S
Tb417 O441 2.341 1_545 S
Tb417 O442 2.484 . S
Tb417 O443 2.440 . S
Tb417 O444 2.658 . S
Tb417 O445 2.409 . S
Tb417 O446 2.378 . S
C418 Tb416 2.809 1_565 S
C418 C419 1.514 . S
C418 O436 1.248 . S
C418 O437 1.266 1_565 S
C419 C418 1.514 . S
C419 C420 1.359 . S
C419 C424 1.348 . S
C420 C419 1.359 . S
C420 C421 1.380 . S
C420 H448 0.929 . S
C421 C420 1.380 . S
C421 C422 1.347 . S
C421 H449 0.931 . S
C422 C421 1.347 . S
C422 C423 1.369 . S
C423 C422 1.369 . S
C423 C424 1.408 . S
C423 H450 0.930 . S
C424 C419 1.348 . S
C424 C423 1.408 . S
C424 H451 0.930 . S
C425 O438 1.281 . S
C425 O439 1.254 . S
C426 O440 1.236 . S
C426 O441 1.266 . S
C427 Tb417 2.809 . S
C427 C428 1.514 . S
C427 O442 1.248 . S
C427 O443 1.266 . S
C428 C427 1.514 . S
C428 C429 1.359 . S
C428 C433 1.348 . S
C429 C428 1.359 . S
C429 C430 1.380 . S
C429 H452 0.929 . S
C430 C429 1.380 . S
C430 C431 1.347 . S
C430 H453 0.931 . S
C431 C430 1.347 . S
C431 C432 1.369 . S
C432 C431 1.369 . S
C432 C433 1.408 . S
C432 H454 0.930 . S
C433 C428 1.348 . S
C433 C432 1.408 . S
C433 H455 0.930 . S
C434 O444 1.281 . S
C434 O445 1.254 . S
C435 O446 1.236 . S
C435 O447 1.266 . S
O436 Tb416 2.484 1_565 S
O436 C418 1.248 . S
O437 Tb416 2.440 . S
O437 C418 1.266 1_545 S
O438 Tb416 2.658 . S
O438 Tb417 2.325 . S
O438 C425 1.281 . S
O439 Tb416 2.409 . S
O439 C425 1.254 . S
O440 Tb416 2.378 1_565 S
O440 C426 1.236 . S
O441 Tb417 2.341 1_565 S
O441 C426 1.266 . S
O442 Tb417 2.484 . S
O442 C427 1.248 . S
O443 Tb417 2.440 . S
O443 C427 1.266 . S
O444 Tb416 2.325 . S
O444 Tb417 2.658 . S
O444 C434 1.281 . S
O445 Tb417 2.409 . S
O445 C434 1.254 . S
O446 Tb417 2.378 . S
O446 C435 1.236 . S
O447 Tb416 2.341 . S
O447 C435 1.266 . S
H448 C420 0.929 . S
H449 C421 0.931 . S
H450 C423 0.930 . S
H451 C424 0.930 . S
H452 C429 0.929 . S
H453 C430 0.931 . S
H454 C432 0.930 . S
H455 C433 0.930 . S
Tb456 C458 2.809 . S
Tb456 O476 2.484 . S
Tb456 O477 2.440 . S
Tb456 O478 2.658 . S
Tb456 O479 2.409 . S
Tb456 O480 2.378 . S
Tb456 O484 2.325 . S
Tb456 O487 2.341 . S
Tb457 C467 2.809 . S
Tb457 O478 2.325 . S
Tb457 O481 2.341 . S
Tb457 O482 2.484 . S
Tb457 O483 2.440 . S
Tb457 O484 2.658 . S
Tb457 O485 2.409 . S
Tb457 O486 2.378 . S
C458 Tb456 2.809 . S
C458 C459 1.514 . S
C458 O476 1.248 . S
C458 O477 1.266 . S
C459 C458 1.514 . S
C459 C460 1.359 . S
C459 C464 1.348 . S
C460 C459 1.359 . S
C460 C461 1.380 . S
C460 H488 0.929 . S
C461 C460 1.380 . S
C461 C462 1.347 . S
C461 H489 0.931 . S
C462 C461 1.347 . S
C462 C463 1.369 . S
C463 C462 1.369 . S
C463 C464 1.408 . S
C463 H490 0.930 . S
C464 C459 1.348 . S
C464 C463 1.408 . S
C464 H491 0.930 . S
C465 O478 1.281 . S
C465 O479 1.254 . S
C466 O480 1.236 . S
C466 O481 1.266 . S
C467 Tb457 2.809 . S
C467 C468 1.514 . S
C467 O482 1.248 . S
C467 O483 1.266 . S
C468 C467 1.514 . S
C468 C469 1.359 . S
C468 C473 1.348 . S
C469 C468 1.359 . S
C469 C470 1.380 . S
C469 H492 0.929 . S
C470 C469 1.380 . S
C470 C471 1.347 . S
C470 H493 0.931 . S
C471 C470 1.347 . S
C471 C472 1.369 . S
C472 C471 1.369 . S
C472 C473 1.408 . S
C472 H494 0.930 . S
C473 C468 1.348 . S
C473 C472 1.408 . S
C473 H495 0.930 . S
C474 O484 1.281 . S
C474 O485 1.254 . S
C475 O486 1.236 . S
C475 O487 1.266 . S
O476 Tb456 2.484 . S
O476 C458 1.248 . S
O477 Tb456 2.440 . S
O477 C458 1.266 . S
O478 Tb456 2.658 . S
O478 Tb457 2.325 . S
O478 C465 1.281 . S
O479 Tb456 2.409 . S
O479 C465 1.254 . S
O480 Tb456 2.378 . S
O480 C466 1.236 . S
O481 Tb457 2.341 . S
O481 C466 1.266 . S
O482 Tb457 2.484 . S
O482 C467 1.248 . S
O483 Tb457 2.440 . S
O483 C467 1.266 . S
O484 Tb456 2.325 . S
O484 Tb457 2.658 . S
O484 C474 1.281 . S
O485 Tb457 2.409 . S
O485 C474 1.254 . S
O486 Tb457 2.378 . S
O486 C475 1.236 . S
O487 Tb456 2.341 . S
O487 C475 1.266 . S
H488 C460 0.929 . S
H489 C461 0.931 . S
H490 C463 0.930 . S
H491 C464 0.930 . S
H492 C469 0.929 . S
H493 C470 0.931 . S
H494 C472 0.930 . S
H495 C473 0.930 . S
Tb496 C498 2.809 . S
Tb496 O516 2.484 . S
Tb496 O517 2.440 . S
Tb496 O518 2.658 . S
Tb496 O519 2.409 1_455 S
Tb496 O520 2.378 . S
Tb496 O524 2.325 . S
Tb496 O527 2.341 . S
Tb497 C507 2.809 . S
Tb497 O518 2.325 1_565 S
Tb497 O521 2.341 . S
Tb497 O522 2.484 . S
Tb497 O523 2.440 . S
Tb497 O524 2.658 1_565 S
Tb497 O525 2.409 1_565 S
Tb497 O526 2.378 1_565 S
C498 Tb496 2.809 . S
C498 C499 1.514 . S
C498 O516 1.248 . S
C498 O517 1.266 . S
C499 C498 1.514 . S
C499 C500 1.359 . S
C499 C504 1.348 1_455 S
C500 C499 1.359 . S
C500 C501 1.380 . S
C500 H528 0.929 . S
C501 C500 1.380 . S
C501 C502 1.347 . S
C501 H529 0.931 . S
C502 C501 1.347 . S
C502 C503 1.369 1_455 S
C503 C502 1.369 1_655 S
C503 C504 1.408 . S
C503 H530 0.930 . S
C504 C499 1.348 1_655 S
C504 C503 1.408 . S
C504 H531 0.930 . S
C505 O518 1.220 1_655 S
C505 O519 1.279 . S
C506 O520 1.236 . S
C506 O521 1.266 1_545 S
C507 Tb497 2.809 . S
C507 C508 1.514 . S
C507 O522 1.248 . S
C507 O523 1.266 . S
C508 C507 1.514 . S
C508 C509 1.359 . S
C508 C513 1.348 . S
C509 C508 1.359 . S
C509 C510 1.380 . S
C509 H532 0.929 . S
C510 C509 1.380 . S
C510 C511 1.347 . S
C510 H533 0.931 . S
C511 C510 1.347 . S
C511 C512 1.369 . S
C512 C511 1.369 . S
C512 C513 1.408 . S
C512 H534 0.930 . S
C513 C508 1.348 . S
C513 C512 1.408 . S
C513 H535 0.930 . S
C514 O524 1.281 . S
C514 O525 1.254 . S
C515 O526 1.236 . S
C515 O527 1.266 . S
O516 Tb496 2.484 . S
O516 C498 1.248 . S
O517 Tb496 2.440 . S
O517 C498 1.266 . S
O518 Tb496 2.658 . S
O518 Tb497 2.325 1_545 S
O518 C505 1.220 1_455 S
O519 Tb496 2.409 1_655 S
O519 C505 1.279 . S
O520 Tb496 2.378 . S
O520 C506 1.236 . S
O521 Tb497 2.341 . S
O521 C506 1.266 1_565 S
O522 Tb497 2.484 . S
O522 C507 1.248 . S
O523 Tb497 2.440 . S
O523 C507 1.266 . S
O524 Tb496 2.325 . S
O524 Tb497 2.658 1_545 S
O524 C514 1.281 . S
O525 Tb497 2.409 1_545 S
O525 C514 1.254 . S
O526 Tb497 2.378 1_545 S
O526 C515 1.236 . S
O527 Tb496 2.341 . S
O527 C515 1.266 . S
H528 C500 0.929 . S
H529 C501 0.931 . S
H530 C503 0.930 . S
H531 C504 0.930 . S
H532 C509 0.929 . S
H533 C510 0.931 . S
H534 C512 0.930 . S
H535 C513 0.930 . S
Tb536 C538 2.809 . S
Tb536 O556 2.484 . S
Tb536 O557 2.440 . S
Tb536 O558 2.658 . S
Tb536 O559 2.409 . S
Tb536 O560 2.378 . S
Tb536 O564 2.325 . S
Tb536 O567 2.341 . S
Tb537 C547 2.809 . S
Tb537 O558 2.325 . S
Tb537 O561 2.341 . S
Tb537 O562 2.484 . S
Tb537 O563 2.440 . S
Tb537 O564 2.658 . S
Tb537 O565 2.409 . S
Tb537 O566 2.378 . S
C538 Tb536 2.809 . S
C538 C539 1.514 . S
C538 O556 1.248 . S
C538 O557 1.266 . S
C539 C538 1.514 . S
C539 C540 1.359 . S
C539 C544 1.348 . S
C540 C539 1.359 . S
C540 C541 1.380 . S
C540 H568 0.929 . S
C541 C540 1.380 . S
C541 C542 1.347 . S
C541 H569 0.931 . S
C542 C541 1.347 . S
C542 C543 1.369 . S
C543 C542 1.369 . S
C543 C544 1.408 . S
C543 H570 0.930 . S
C544 C539 1.348 . S
C544 C543 1.408 . S
C544 H571 0.930 . S
C545 O558 1.281 . S
C545 O559 1.254 . S
C546 O560 1.236 . S
C546 O561 1.266 . S
C547 Tb537 2.809 . S
C547 C548 1.514 . S
C547 O562 1.248 . S
C547 O563 1.266 . S
C548 C547 1.514 . S
C548 C549 1.359 . S
C548 C553 1.348 . S
C549 C548 1.359 . S
C549 C550 1.380 . S
C549 H572 0.929 . S
C550 C549 1.380 . S
C550 C551 1.347 . S
C550 H573 0.931 . S
C551 C550 1.347 . S
C551 C552 1.369 . S
C552 C551 1.369 . S
C552 C553 1.408 . S
C552 H574 0.930 . S
C553 C548 1.348 . S
C553 C552 1.408 . S
C553 H575 0.930 . S
C554 O564 1.281 . S
C554 O565 1.254 . S
C555 O566 1.236 . S
C555 O567 1.266 . S
O556 Tb536 2.484 . S
O556 C538 1.248 . S
O557 Tb536 2.440 . S
O557 C538 1.266 . S
O558 Tb536 2.658 . S
O558 Tb537 2.325 . S
O558 C545 1.281 . S
O559 Tb536 2.409 . S
O559 C545 1.254 . S
O560 Tb536 2.378 . S
O560 C546 1.236 . S
O561 Tb537 2.341 . S
O561 C546 1.266 . S
O562 Tb537 2.484 . S
O562 C547 1.248 . S
O563 Tb537 2.440 . S
O563 C547 1.266 . S
O564 Tb536 2.325 . S
O564 Tb537 2.658 . S
O564 C554 1.281 . S
O565 Tb537 2.409 . S
O565 C554 1.254 . S
O566 Tb537 2.378 . S
O566 C555 1.236 . S
O567 Tb536 2.341 . S
O567 C555 1.266 . S
H568 C540 0.929 . S
H569 C541 0.931 . S
H570 C543 0.930 . S
H571 C544 0.930 . S
H572 C549 0.929 . S
H573 C550 0.931 . S
H574 C552 0.930 . S
H575 C553 0.930 . S
Tb576 C578 2.809 . S
Tb576 O596 2.484 1_545 S
Tb576 O597 2.440 . S
Tb576 O598 2.658 . S
Tb576 O599 2.409 . S
Tb576 O600 2.378 . S
Tb576 O604 2.325 1_545 S
Tb576 O607 2.341 1_554 S
Tb577 C587 2.809 . S
Tb577 O598 2.325 . S
Tb577 O601 2.341 . S
Tb577 O602 2.484 . S
Tb577 O603 2.440 . S
Tb577 O604 2.658 1_545 S
Tb577 O605 2.409 1_545 S
Tb577 O606 2.378 . S
C578 Tb576 2.809 . S
C578 C579 1.514 1_545 S
C578 O596 1.248 1_545 S
C578 O597 1.266 . S
C579 C578 1.514 1_565 S
C579 C580 1.359 . S
C579 C584 1.348 1_565 S
C580 C579 1.359 . S
C580 C581 1.380 . S
C580 H608 0.929 . S
C581 C580 1.380 . S
C581 C582 1.347 . S
C581 H609 0.931 . S
C582 C581 1.347 . S
C582 C583 1.384 . S
C583 C582 1.384 . S
C583 C584 1.406 1_565 S
C583 H610 0.918 1_565 S
C584 C579 1.348 1_545 S
C584 C583 1.406 1_545 S
C584 H611 0.930 . S
C585 O598 1.281 . S
C585 O599 1.254 . S
C586 O600 1.236 . S
C586 O601 1.266 . S
C587 Tb577 2.809 . S
C587 C588 1.514 . S
C587 O602 1.248 . S
C587 O603 1.266 . S
C588 C587 1.514 . S
C588 C589 1.359 . S
C588 C593 1.348 . S
C589 C588 1.359 . S
C589 C590 1.380 . S
C589 H612 0.929 . S
C590 C589 1.380 . S
C590 C591 1.347 . S
C590 H613 0.931 . S
C591 C590 1.347 . S
C591 C592 1.369 . S
C592 C591 1.369 . S
C592 C593 1.408 . S
C592 H614 0.930 . S
C593 C588 1.348 . S
C593 C592 1.408 . S
C593 H615 0.930 . S
C594 O604 1.281 . S
C594 O605 1.254 . S
C595 O606 1.236 1_556 S
C595 O607 1.266 . S
O596 Tb576 2.484 1_565 S
O596 C578 1.248 1_565 S
O597 Tb576 2.440 . S
O597 C578 1.266 . S
O598 Tb576 2.658 . S
O598 Tb577 2.325 . S
O598 C585 1.281 . S
O599 Tb576 2.409 . S
O599 C585 1.254 . S
O600 Tb576 2.378 . S
O600 C586 1.236 . S
O601 Tb577 2.341 . S
O601 C586 1.266 . S
O602 Tb577 2.484 . S
O602 C587 1.248 . S
O603 Tb577 2.440 . S
O603 C587 1.266 . S
O604 Tb576 2.325 1_565 S
O604 Tb577 2.658 1_565 S
O604 C594 1.281 . S
O605 Tb577 2.409 1_565 S
O605 C594 1.254 . S
O606 Tb577 2.378 . S
O606 C595 1.236 1_554 S
O607 Tb576 2.341 1_556 S
O607 C595 1.266 . S
H608 C580 0.929 . S
H609 C581 0.931 . S
H610 C583 0.918 1_545 S
H611 C584 0.930 . S
H612 C589 0.929 . S
H613 C590 0.931 . S
H614 C592 0.930 . S
H615 C593 0.930 . S
Tb616 C618 2.809 . S
Tb616 O636 2.484 . S
Tb616 O637 2.440 . S
Tb616 O638 2.658 . S
Tb616 O639 2.409 . S
Tb616 O640 2.378 . S
Tb616 O644 2.325 . S
Tb616 O647 2.341 . S
Tb617 C627 2.809 . S
Tb617 O638 2.325 . S
Tb617 O641 2.341 . S
Tb617 O642 2.484 . S
Tb617 O643 2.440 . S
Tb617 O644 2.658 . S
Tb617 O645 2.409 . S
Tb617 O646 2.378 . S
C618 Tb616 2.809 . S
C618 C619 1.514 . S
C618 O636 1.248 . S
C618 O637 1.266 . S
C619 C618 1.514 . S
C619 C620 1.359 . S
C619 C624 1.348 . S
C620 C619 1.359 . S
C620 C621 1.380 . S
C620 H648 0.929 . S
C621 C620 1.380 . S
C621 C622 1.347 . S
C621 H649 0.931 . S
C622 C621 1.347 . S
C622 C623 1.369 . S
C623 C622 1.369 . S
C623 C624 1.408 . S
C623 H650 0.930 . S
C624 C619 1.348 . S
C624 C623 1.408 . S
C624 H651 0.930 . S
C625 O638 1.281 . S
C625 O639 1.254 . S
C626 O640 1.236 . S
C626 O641 1.266 . S
C627 Tb617 2.809 . S
C627 C628 1.514 . S
C627 O642 1.248 . S
C627 O643 1.266 . S
C628 C627 1.514 . S
C628 C629 1.359 . S
C628 C633 1.348 . S
C629 C628 1.359 . S
C629 C630 1.380 . S
C629 H652 0.929 . S
C630 C629 1.380 . S
C630 C631 1.347 . S
C630 H653 0.931 . S
C631 C630 1.347 . S
C631 C632 1.369 . S
C632 C631 1.369 . S
C632 C633 1.408 . S
C632 H654 0.930 . S
C633 C628 1.348 . S
C633 C632 1.408 . S
C633 H655 0.930 . S
C634 O644 1.281 . S
C634 O645 1.254 . S
C635 O646 1.236 . S
C635 O647 1.266 . S
O636 Tb616 2.484 . S
O636 C618 1.248 . S
O637 Tb616 2.440 . S
O637 C618 1.266 . S
O638 Tb616 2.658 . S
O638 Tb617 2.325 . S
O638 C625 1.281 . S
O639 Tb616 2.409 . S
O639 C625 1.254 . S
O640 Tb616 2.378 . S
O640 C626 1.236 . S
O641 Tb617 2.341 . S
O641 C626 1.266 . S
O642 Tb617 2.484 . S
O642 C627 1.248 . S
O643 Tb617 2.440 . S
O643 C627 1.266 . S
O644 Tb616 2.325 . S
O644 Tb617 2.658 . S
O644 C634 1.281 . S
O645 Tb617 2.409 . S
O645 C634 1.254 . S
O646 Tb617 2.378 . S
O646 C635 1.236 . S
O647 Tb616 2.341 . S
O647 C635 1.266 . S
H648 C620 0.929 . S
H649 C621 0.931 . S
H650 C623 0.930 . S
H651 C624 0.930 . S
H652 C629 0.929 . S
H653 C630 0.931 . S
H654 C632 0.930 . S
H655 C633 0.930 . S
Tb656 C658 2.809 . S
Tb656 O676 2.484 . S
Tb656 O677 2.440 . S
Tb656 O678 2.658 . S
Tb656 O679 2.409 . S
Tb656 O680 2.378 1_554 S
Tb656 O684 2.325 . S
Tb656 O687 2.341 . S
Tb657 C667 2.809 . S
Tb657 O678 2.325 . S
Tb657 O681 2.341 1_554 S
Tb657 O682 2.484 . S
Tb657 O683 2.440 . S
Tb657 O684 2.658 . S
Tb657 O685 2.409 . S
Tb657 O686 2.378 . S
C658 Tb656 2.809 . S
C658 C659 1.514 1_554 S
C658 O676 1.248 . S
C658 O677 1.266 . S
C659 C658 1.514 1_556 S
C659 C660 1.359 . S
C659 C664 1.348 . S
C660 C659 1.359 . S
C660 C661 1.380 . S
C660 H688 0.929 . S
C661 C660 1.380 . S
C661 C662 1.347 . S
C661 H689 0.931 . S
C662 C661 1.347 . S
C662 C663 1.369 . S
C663 C662 1.369 . S
C663 C664 1.408 . S
C663 H690 0.930 . S
C664 C659 1.348 . S
C664 C663 1.408 . S
C664 H691 0.930 . S
C665 O678 1.281 . S
C665 O679 1.254 . S
C666 O680 1.236 . S
C666 O681 1.266 . S
C667 Tb657 2.809 . S
C667 C668 1.514 . S
C667 O682 1.248 . S
C667 O683 1.266 . S
C668 C667 1.514 . S
C668 C669 1.359 . S
C668 C673 1.348 . S
C669 C668 1.359 . S
C669 C670 1.380 . S
C669 H692 0.929 . S
C670 C669 1.380 . S
C670 C671 1.347 . S
C670 H693 0.931 . S
C671 C670 1.347 . S
C671 C672 1.369 . S
C672 C671 1.369 . S
C672 C673 1.408 . S
C672 H694 0.930 . S
C673 C668 1.348 . S
C673 C672 1.408 . S
C673 H695 0.930 . S
C674 O684 1.281 . S
C674 O685 1.254 . S
C675 O686 1.236 . S
C675 O687 1.266 . S
O676 Tb656 2.484 . S
O676 C658 1.248 . S
O677 Tb656 2.440 . S
O677 C658 1.266 . S
O678 Tb656 2.658 . S
O678 Tb657 2.325 . S
O678 C665 1.281 . S
O679 Tb656 2.409 . S
O679 C665 1.254 . S
O680 Tb656 2.378 1_556 S
O680 C666 1.236 . S
O681 Tb657 2.341 1_556 S
O681 C666 1.266 . S
O682 Tb657 2.484 . S
O682 C667 1.248 . S
O683 Tb657 2.440 . S
O683 C667 1.266 . S
O684 Tb656 2.325 . S
O684 Tb657 2.658 . S
O684 C674 1.281 . S
O685 Tb657 2.409 . S
O685 C674 1.254 . S
O686 Tb657 2.378 . S
O686 C675 1.236 . S
O687 Tb656 2.341 . S
O687 C675 1.266 . S
H688 C660 0.929 . S
H689 C661 0.931 . S
H690 C663 0.930 . S
H691 C664 0.930 . S
H692 C669 0.929 . S
H693 C670 0.931 . S
H694 C672 0.930 . S
H695 C673 0.930 . S
Tb696 C698 2.809 . S
Tb696 O716 2.484 . S
Tb696 O717 2.440 . S
Tb696 O718 2.658 . S
Tb696 O719 2.409 . S
Tb696 O720 2.378 . S
Tb696 O724 2.325 . S
Tb696 O727 2.341 . S
Tb697 C707 2.809 . S
Tb697 O718 2.325 . S
Tb697 O721 2.341 . S
Tb697 O722 2.484 . S
Tb697 O723 2.440 . S
Tb697 O724 2.658 . S
Tb697 O725 2.409 . S
Tb697 O726 2.378 . S
C698 Tb696 2.809 . S
C698 C699 1.514 . S
C698 O716 1.248 . S
C698 O717 1.266 . S
C699 C698 1.514 . S
C699 C700 1.359 . S
C699 C704 1.348 . S
C700 C699 1.359 . S
C700 C701 1.380 . S
C700 H728 0.929 . S
C701 C700 1.380 . S
C701 C702 1.347 . S
C701 H729 0.931 . S
C702 C701 1.347 . S
C702 C703 1.369 . S
C703 C702 1.369 . S
C703 C704 1.408 . S
C703 H730 0.930 . S
C704 C699 1.348 . S
C704 C703 1.408 . S
C704 H731 0.930 . S
C705 O718 1.281 . S
C705 O719 1.254 . S
C706 O720 1.236 . S
C706 O721 1.266 . S
C707 Tb697 2.809 . S
C707 C708 1.514 . S
C707 O722 1.248 . S
C707 O723 1.266 . S
C708 C707 1.514 . S
C708 C709 1.359 . S
C708 C713 1.348 . S
C709 C708 1.359 . S
C709 C710 1.380 . S
C709 H732 0.929 . S
C710 C709 1.380 . S
C710 C711 1.347 . S
C710 H733 0.931 . S
C711 C710 1.347 . S
C711 C712 1.369 . S
C712 C711 1.369 . S
C712 C713 1.408 . S
C712 H734 0.930 . S
C713 C708 1.348 . S
C713 C712 1.408 . S
C713 H735 0.930 . S
C714 O724 1.281 . S
C714 O725 1.254 . S
C715 O726 1.236 . S
C715 O727 1.266 . S
O716 Tb696 2.484 . S
O716 C698 1.248 . S
O717 Tb696 2.440 . S
O717 C698 1.266 . S
O718 Tb696 2.658 . S
O718 Tb697 2.325 . S
O718 C705 1.281 . S
O719 Tb696 2.409 . S
O719 C705 1.254 . S
O720 Tb696 2.378 . S
O720 C706 1.236 . S
O721 Tb697 2.341 . S
O721 C706 1.266 . S
O722 Tb697 2.484 . S
O722 C707 1.248 . S
O723 Tb697 2.440 . S
O723 C707 1.266 . S
O724 Tb696 2.325 . S
O724 Tb697 2.658 . S
O724 C714 1.281 . S
O725 Tb697 2.409 . S
O725 C714 1.254 . S
O726 Tb697 2.378 . S
O726 C715 1.236 . S
O727 Tb696 2.341 . S
O727 C715 1.266 . S
H728 C700 0.929 . S
H729 C701 0.931 . S
H730 C703 0.930 . S
H731 C704 0.930 . S
H732 C709 0.929 . S
H733 C710 0.931 . S
H734 C712 0.930 . S
H735 C713 0.930 . S
Tb736 C738 2.809 1_455 S
Tb736 O756 2.484 1_455 S
Tb736 O757 2.440 1_455 S
Tb736 O758 2.658 . S
Tb736 O759 2.409 . S
Tb736 O760 2.378 . S
Tb736 O764 2.325 . S
Tb736 O767 2.341 . S
Tb737 C747 2.809 . S
Tb737 O758 2.325 . S
Tb737 O761 2.341 . S
Tb737 O762 2.484 . S
Tb737 O763 2.440 . S
Tb737 O764 2.658 . S
Tb737 O765 2.409 . S
Tb737 O766 2.378 . S
C738 Tb736 2.809 1_655 S
C738 C739 1.514 . S
C738 O756 1.248 . S
C738 O757 1.266 . S
C739 C738 1.514 . S
C739 C740 1.359 . S
C739 C744 1.348 . S
C740 C739 1.359 . S
C740 C741 1.380 . S
C740 H768 0.929 . S
C741 C740 1.380 . S
C741 C742 1.347 . S
C741 H769 0.931 . S
C742 C741 1.347 . S
C742 C743 1.369 . S
C743 C742 1.369 . S
C743 C744 1.408 . S
C743 H770 0.930 . S
C744 C739 1.348 . S
C744 C743 1.408 . S
C744 H771 0.930 . S
C745 O758 1.281 . S
C745 O759 1.254 . S
C746 O760 1.236 . S
C746 O761 1.266 . S
C747 Tb737 2.809 . S
C747 C748 1.514 . S
C747 O762 1.248 . S
C747 O763 1.266 . S
C748 C747 1.514 . S
C748 C749 1.359 . S
C748 C753 1.348 . S
C749 C748 1.359 . S
C749 C750 1.380 . S
C749 H772 0.929 . S
C750 C749 1.380 . S
C750 C751 1.347 . S
C750 H773 0.931 . S
C751 C750 1.347 . S
C751 C752 1.369 . S
C752 C751 1.369 . S
C752 C753 1.408 . S
C752 H774 0.930 . S
C753 C748 1.348 . S
C753 C752 1.408 . S
C753 H775 0.930 . S
C754 O764 1.281 . S
C754 O765 1.254 . S
C755 O766 1.236 . S
C755 O767 1.266 . S
O756 Tb736 2.484 1_655 S
O756 C738 1.248 . S
O757 Tb736 2.440 1_655 S
O757 C738 1.266 . S
O758 Tb736 2.658 . S
O758 Tb737 2.325 . S
O758 C745 1.281 . S
O759 Tb736 2.409 . S
O759 C745 1.254 . S
O760 Tb736 2.378 . S
O760 C746 1.236 . S
O761 Tb737 2.341 . S
O761 C746 1.266 . S
O762 Tb737 2.484 . S
O762 C747 1.248 . S
O763 Tb737 2.440 . S
O763 C747 1.266 . S
O764 Tb736 2.325 . S
O764 Tb737 2.658 . S
O764 C754 1.281 . S
O765 Tb737 2.409 . S
O765 C754 1.254 . S
O766 Tb737 2.378 . S
O766 C755 1.236 . S
O767 Tb736 2.341 . S
O767 C755 1.266 . S
H768 C740 0.929 . S
H769 C741 0.931 . S
H770 C743 0.930 . S
H771 C744 0.930 . S
H772 C749 0.929 . S
H773 C750 0.931 . S
H774 C752 0.930 . S
H775 C753 0.930 . S
Tb776 C778 2.809 . S
Tb776 O796 2.484 . S
Tb776 O797 2.440 . S
Tb776 O798 2.658 . S
Tb776 O799 2.409 . S
Tb776 O800 2.378 . S
Tb776 O804 2.325 . S
Tb776 O807 2.341 . S
Tb777 C787 2.809 . S
Tb777 O798 2.325 . S
Tb777 O801 2.341 . S
Tb777 O802 2.484 . S
Tb777 O803 2.440 . S
Tb777 O804 2.658 . S
Tb777 O805 2.409 . S
Tb777 O806 2.378 . S
C778 Tb776 2.809 . S
C778 C779 1.514 . S
C778 O796 1.248 . S
C778 O797 1.266 . S
C779 C778 1.514 . S
C779 C780 1.359 . S
C779 C784 1.348 . S
C780 C779 1.359 . S
C780 C781 1.380 . S
C780 H808 0.929 . S
C781 C780 1.380 . S
C781 C782 1.347 . S
C781 H809 0.931 . S
C782 C781 1.347 . S
C782 C783 1.369 . S
C783 C782 1.369 . S
C783 C784 1.408 . S
C783 H810 0.930 . S
C784 C779 1.348 . S
C784 C783 1.408 . S
C784 H811 0.930 . S
C785 O798 1.281 . S
C785 O799 1.254 . S
C786 O800 1.236 . S
C786 O801 1.266 . S
C787 Tb777 2.809 . S
C787 C788 1.514 . S
C787 O802 1.248 . S
C787 O803 1.266 . S
C788 C787 1.514 . S
C788 C789 1.359 . S
C788 C793 1.348 . S
C789 C788 1.359 . S
C789 C790 1.380 . S
C789 H812 0.929 . S
C790 C789 1.380 . S
C790 C791 1.347 . S
C790 H813 0.931 . S
C791 C790 1.347 . S
C791 C792 1.369 . S
C792 C791 1.369 . S
C792 C793 1.408 . S
C792 H814 0.930 . S
C793 C788 1.348 . S
C793 C792 1.408 . S
C793 H815 0.930 . S
C794 O804 1.281 . S
C794 O805 1.254 . S
C795 O806 1.236 . S
C795 O807 1.266 . S
O796 Tb776 2.484 . S
O796 C778 1.248 . S
O797 Tb776 2.440 . S
O797 C778 1.266 . S
O798 Tb776 2.658 . S
O798 Tb777 2.325 . S
O798 C785 1.281 . S
O799 Tb776 2.409 . S
O799 C785 1.254 . S
O800 Tb776 2.378 . S
O800 C786 1.236 . S
O801 Tb777 2.341 . S
O801 C786 1.266 . S
O802 Tb777 2.484 . S
O802 C787 1.248 . S
O803 Tb777 2.440 . S
O803 C787 1.266 . S
O804 Tb776 2.325 . S
O804 Tb777 2.658 . S
O804 C794 1.281 . S
O805 Tb777 2.409 . S
O805 C794 1.254 . S
O806 Tb777 2.378 . S
O806 C795 1.236 . S
O807 Tb776 2.341 . S
O807 C795 1.266 . S
H808 C780 0.929 . S
H809 C781 0.931 . S
H810 C783 0.930 . S
H811 C784 0.930 . S
H812 C789 0.929 . S
H813 C790 0.931 . S
H814 C792 0.930 . S
H815 C793 0.930 . S
Tb816 C818 2.809 . S
Tb816 O836 2.484 . S
Tb816 O837 2.440 . S
Tb816 O838 2.658 . S
Tb816 O839 2.409 . S
Tb816 O840 2.378 . S
Tb816 O844 2.325 . S
Tb816 O847 2.341 . S
Tb817 C827 2.809 . S
Tb817 O838 2.325 . S
Tb817 O841 2.341 . S
Tb817 O842 2.484 . S
Tb817 O843 2.440 . S
Tb817 O844 2.658 . S
Tb817 O845 2.409 . S
Tb817 O846 2.378 . S
C818 Tb816 2.809 . S
C818 C819 1.514 . S
C818 O836 1.248 . S
C818 O837 1.266 . S
C819 C818 1.514 . S
C819 C820 1.359 . S
C819 C824 1.348 . S
C820 C819 1.359 . S
C820 C821 1.380 . S
C820 H848 0.929 . S
C821 C820 1.380 . S
C821 C822 1.347 . S
C821 H849 0.931 . S
C822 C821 1.347 . S
C822 C823 1.369 . S
C823 C822 1.369 . S
C823 C824 1.408 . S
C823 H850 0.930 . S
C824 C819 1.348 . S
C824 C823 1.408 . S
C824 H851 0.930 . S
C825 O838 1.281 . S
C825 O839 1.254 . S
C826 O840 1.236 . S
C826 O841 1.266 . S
C827 Tb817 2.809 . S
C827 C828 1.514 . S
C827 O842 1.248 . S
C827 O843 1.266 . S
C828 C827 1.514 . S
C828 C829 1.359 . S
C828 C833 1.348 . S
C829 C828 1.359 . S
C829 C830 1.380 . S
C829 H852 0.929 . S
C830 C829 1.380 . S
C830 C831 1.347 . S
C830 H853 0.931 . S
C831 C830 1.347 . S
C831 C832 1.369 . S
C832 C831 1.369 . S
C832 C833 1.408 . S
C832 H854 0.930 . S
C833 C828 1.348 . S
C833 C832 1.408 . S
C833 H855 0.930 . S
C834 O844 1.281 . S
C834 O845 1.254 . S
C835 O846 1.236 . S
C835 O847 1.266 . S
O836 Tb816 2.484 . S
O836 C818 1.248 . S
O837 Tb816 2.440 . S
O837 C818 1.266 . S
O838 Tb816 2.658 . S
O838 Tb817 2.325 . S
O838 C825 1.281 . S
O839 Tb816 2.409 . S
O839 C825 1.254 . S
O840 Tb816 2.378 . S
O840 C826 1.236 . S
O841 Tb817 2.341 . S
O841 C826 1.266 . S
O842 Tb817 2.484 . S
O842 C827 1.248 . S
O843 Tb817 2.440 . S
O843 C827 1.266 . S
O844 Tb816 2.325 . S
O844 Tb817 2.658 . S
O844 C834 1.281 . S
O845 Tb817 2.409 . S
O845 C834 1.254 . S
O846 Tb817 2.378 . S
O846 C835 1.236 . S
O847 Tb816 2.341 . S
O847 C835 1.266 . S
H848 C820 0.929 . S
H849 C821 0.931 . S
H850 C823 0.930 . S
H851 C824 0.930 . S
H852 C829 0.929 . S
H853 C830 0.931 . S
H854 C832 0.930 . S
H855 C833 0.930 . S
Tb856 C858 2.809 . S
Tb856 O876 2.484 . S
Tb856 O877 2.440 . S
Tb856 O878 2.658 . S
Tb856 O879 2.409 . S
Tb856 O880 2.378 . S
Tb856 O884 2.325 . S
Tb856 O887 2.341 . S
Tb857 C867 2.809 . S
Tb857 O878 2.325 . S
Tb857 O881 2.341 . S
Tb857 O882 2.484 . S
Tb857 O883 2.440 . S
Tb857 O884 2.658 . S
Tb857 O885 2.409 . S
Tb857 O886 2.378 . S
C858 Tb856 2.809 . S
C858 C859 1.514 . S
C858 O876 1.248 . S
C858 O877 1.266 . S
C859 C858 1.514 . S
C859 C860 1.359 . S
C859 C864 1.348 . S
C860 C859 1.359 . S
C860 C861 1.380 . S
C860 H888 0.929 . S
C861 C860 1.380 . S
C861 C862 1.347 . S
C861 H889 0.931 . S
C862 C861 1.347 . S
C862 C863 1.369 . S
C863 C862 1.369 . S
C863 C864 1.408 . S
C863 H890 0.930 . S
C864 C859 1.348 . S
C864 C863 1.408 . S
C864 H891 0.930 . S
C865 O878 1.281 . S
C865 O879 1.254 . S
C866 O880 1.236 . S
C866 O881 1.266 . S
C867 Tb857 2.809 . S
C867 C868 1.514 . S
C867 O882 1.248 . S
C867 O883 1.266 . S
C868 C867 1.514 . S
C868 C869 1.359 . S
C868 C873 1.348 . S
C869 C868 1.359 . S
C869 C870 1.380 . S
C869 H892 0.929 . S
C870 C869 1.380 . S
C870 C871 1.347 . S
C870 H893 0.931 . S
C871 C870 1.347 . S
C871 C872 1.369 . S
C872 C871 1.369 . S
C872 C873 1.408 . S
C872 H894 0.930 . S
C873 C868 1.348 . S
C873 C872 1.408 . S
C873 H895 0.930 . S
C874 O884 1.281 . S
C874 O885 1.254 . S
C875 O886 1.236 . S
C875 O887 1.266 . S
O876 Tb856 2.484 . S
O876 C858 1.248 . S
O877 Tb856 2.440 . S
O877 C858 1.266 . S
O878 Tb856 2.658 . S
O878 Tb857 2.325 . S
O878 C865 1.281 . S
O879 Tb856 2.409 . S
O879 C865 1.254 . S
O880 Tb856 2.378 . S
O880 C866 1.236 . S
O881 Tb857 2.341 . S
O881 C866 1.266 . S
O882 Tb857 2.484 . S
O882 C867 1.248 . S
O883 Tb857 2.440 . S
O883 C867 1.266 . S
O884 Tb856 2.325 . S
O884 Tb857 2.658 . S
O884 C874 1.281 . S
O885 Tb857 2.409 . S
O885 C874 1.254 . S
O886 Tb857 2.378 . S
O886 C875 1.236 . S
O887 Tb856 2.341 . S
O887 C875 1.266 . S
H888 C860 0.929 . S
H889 C861 0.931 . S
H890 C863 0.930 . S
H891 C864 0.930 . S
H892 C869 0.929 . S
H893 C870 0.931 . S
H894 C872 0.930 . S
H895 C873 0.930 . S
Tb896 C898 2.809 . S
Tb896 O916 2.484 . S
Tb896 O917 2.440 . S
Tb896 O918 2.658 . S
Tb896 O919 2.409 . S
Tb896 O920 2.378 . S
Tb896 O924 2.325 . S
Tb896 O927 2.341 . S
Tb897 C907 2.809 . S
Tb897 O918 2.325 . S
Tb897 O921 2.341 . S
Tb897 O922 2.484 . S
Tb897 O923 2.440 . S
Tb897 O924 2.658 . S
Tb897 O925 2.409 . S
Tb897 O926 2.378 . S
C898 Tb896 2.809 . S
C898 C899 1.514 . S
C898 O916 1.248 . S
C898 O917 1.266 . S
C899 C898 1.514 . S
C899 C900 1.359 . S
C899 C904 1.348 . S
C900 C899 1.359 . S
C900 C901 1.380 . S
C900 H928 0.929 . S
C901 C900 1.380 . S
C901 C902 1.347 . S
C901 H929 0.931 . S
C902 C901 1.347 . S
C902 C903 1.369 . S
C903 C902 1.369 . S
C903 C904 1.408 . S
C903 H930 0.930 . S
C904 C899 1.348 . S
C904 C903 1.408 . S
C904 H931 0.930 . S
C905 O918 1.281 . S
C905 O919 1.254 . S
C906 O920 1.236 . S
C906 O921 1.266 . S
C907 Tb897 2.809 . S
C907 C908 1.514 . S
C907 O922 1.248 . S
C907 O923 1.266 . S
C908 C907 1.514 . S
C908 C909 1.359 . S
C908 C913 1.348 . S
C909 C908 1.359 . S
C909 C910 1.380 . S
C909 H932 0.929 . S
C910 C909 1.380 . S
C910 C911 1.347 . S
C910 H933 0.931 . S
C911 C910 1.347 . S
C911 C912 1.369 . S
C912 C911 1.369 . S
C912 C913 1.408 . S
C912 H934 0.930 . S
C913 C908 1.348 . S
C913 C912 1.408 . S
C913 H935 0.930 . S
C914 O924 1.281 . S
C914 O925 1.254 . S
C915 O926 1.236 . S
C915 O927 1.266 . S
O916 Tb896 2.484 . S
O916 C898 1.248 . S
O917 Tb896 2.440 . S
O917 C898 1.266 . S
O918 Tb896 2.658 . S
O918 Tb897 2.325 . S
O918 C905 1.281 . S
O919 Tb896 2.409 . S
O919 C905 1.254 . S
O920 Tb896 2.378 . S
O920 C906 1.236 . S
O921 Tb897 2.341 . S
O921 C906 1.266 . S
O922 Tb897 2.484 . S
O922 C907 1.248 . S
O923 Tb897 2.440 . S
O923 C907 1.266 . S
O924 Tb896 2.325 . S
O924 Tb897 2.658 . S
O924 C914 1.281 . S
O925 Tb897 2.409 . S
O925 C914 1.254 . S
O926 Tb897 2.378 . S
O926 C915 1.236 . S
O927 Tb896 2.341 . S
O927 C915 1.266 . S
H928 C900 0.929 . S
H929 C901 0.931 . S
H930 C903 0.930 . S
H931 C904 0.930 . S
H932 C909 0.929 . S
H933 C910 0.931 . S
H934 C912 0.930 . S
H935 C913 0.930 . S
Tb936 C938 2.809 . S
Tb936 O956 2.484 . S
Tb936 O957 2.438 . S
Tb936 O958 2.658 . S
Tb936 O959 2.409 1_554 S
Tb936 O960 2.378 . S
Tb936 O964 2.325 . S
Tb936 O967 2.341 . S
Tb937 C947 2.809 1_455 S
Tb937 O958 2.325 . S
Tb937 O961 2.341 . S
Tb937 O962 2.484 1_455 S
Tb937 O963 2.440 1_455 S
Tb937 O964 2.658 . S
Tb937 O965 2.409 . S
Tb937 O966 2.378 . S
C938 Tb936 2.809 . S
C938 C939 1.514 . S
C938 O956 1.248 . S
C938 O957 1.263 . S
C939 C938 1.514 . S
C939 C940 1.359 . S
C939 C944 1.348 1_554 S
C940 C939 1.359 . S
C940 C941 1.380 . S
C940 H968 0.929 . S
C941 C940 1.380 . S
C941 C942 1.347 . S
C941 H969 0.931 . S
C942 C941 1.347 . S
C942 C943 1.369 1_554 S
C943 C942 1.369 1_556 S
C943 C944 1.408 . S
C943 H970 0.930 . S
C944 C939 1.348 1_556 S
C944 C943 1.408 . S
C944 H971 0.930 . S
C945 O958 1.281 1_556 S
C945 O959 1.254 . S
C946 O960 1.236 . S
C946 O961 1.266 . S
C947 Tb937 2.809 1_655 S
C947 C948 1.514 . S
C947 O962 1.248 . S
C947 O963 1.266 . S
C948 C947 1.514 . S
C948 C949 1.359 . S
C948 C953 1.348 . S
C949 C948 1.359 . S
C949 C950 1.380 . S
C949 H972 0.929 . S
C950 C949 1.380 . S
C950 C951 1.347 . S
C950 H973 0.931 . S
C951 C950 1.347 . S
C951 C952 1.369 . S
C952 C951 1.369 . S
C952 C953 1.408 . S
C952 H974 0.930 . S
C953 C948 1.348 . S
C953 C952 1.408 . S
C953 H975 0.930 . S
C954 O964 1.281 . S
C954 O965 1.254 . S
C955 O966 1.236 . S
C955 O967 1.266 . S
O956 Tb936 2.484 . S
O956 C938 1.248 . S
O957 Tb936 2.438 . S
O957 C938 1.263 . S
O958 Tb936 2.658 . S
O958 Tb937 2.325 . S
O958 C945 1.281 1_554 S
O959 Tb936 2.409 1_556 S
O959 C945 1.254 . S
O960 Tb936 2.378 . S
O960 C946 1.236 . S
O961 Tb937 2.341 . S
O961 C946 1.266 . S
O962 Tb937 2.484 1_655 S
O962 C947 1.248 . S
O963 Tb937 2.440 1_655 S
O963 C947 1.266 . S
O964 Tb936 2.325 . S
O964 Tb937 2.658 . S
O964 C954 1.281 . S
O965 Tb937 2.409 . S
O965 C954 1.254 . S
O966 Tb937 2.378 . S
O966 C955 1.236 . S
O967 Tb936 2.341 . S
O967 C955 1.266 . S
H968 C940 0.929 . S
H969 C941 0.931 . S
H970 C943 0.930 . S
H971 C944 0.930 . S
H972 C949 0.929 . S
H973 C950 0.931 . S
H974 C952 0.930 . S
H975 C953 0.930 . S
C976 C977 1.349 . S
C976 C978 1.327 . S
C976 H1001 0.950 . S
C977 C976 1.349 . S
C977 C993 1.349 . S
C978 C976 1.327 . S
C978 C997 1.429 . S
C978 H1002 0.950 . S
C979 C996 1.574 . S
C979 C998 1.368 . S
C979 H1003 0.949 1_455 S
H980 C984 0.949 . S
C981 C982 1.349 . S
C981 C983 1.327 . S
C981 H1004 0.950 . S
C982 C981 1.349 . S
C982 C994 1.349 . S
C983 C981 1.327 . S
C983 C999 1.424 1_554 S
C983 H1005 0.950 . S
C984 H980 0.949 . S
C984 C992 1.574 . S
C984 C1000 1.368 . S
H985 C993 0.950 1_655 S
H986 C991 0.950 1_655 S
H987 C992 0.949 . S
H988 C994 0.950 . S
H989 C995 0.950 . S
H990 C996 0.949 1_554 S
C991 H986 0.950 1_455 S
C991 C993 1.327 . S
C991 C997 1.429 . S
C992 C984 1.574 . S
C992 H987 0.949 . S
C992 C998 1.368 . S
C993 C977 1.349 . S
C993 H985 0.950 1_455 S
C993 C991 1.327 . S
C994 C982 1.349 . S
C994 H988 0.950 . S
C994 C995 1.327 1_554 S
C995 H989 0.950 . S
C995 C994 1.327 1_556 S
C995 C999 1.430 . S
C996 C979 1.574 . S
C996 H990 0.949 1_556 S
C996 C1000 1.368 . S
C997 C978 1.429 . S
C997 C991 1.429 . S
C997 C998 1.523 . S
C998 C979 1.368 . S
C998 C992 1.368 . S
C998 C997 1.523 . S
C999 C983 1.424 1_556 S
C999 C995 1.430 . S
C999 C1000 1.526 . S
C1000 C984 1.368 . S
C1000 C996 1.368 . S
C1000 C999 1.526 . S
H1001 C976 0.950 . S
H1002 C978 0.950 . S
H1003 C979 0.949 1_655 S
H1004 C981 0.950 . S
H1005 C983 0.950 . S
C1006 C1007 1.349 . S
C1006 C1008 1.327 . S
C1006 H1031 0.950 . S
C1007 C1006 1.349 . S
C1007 C1023 1.349 . S
C1008 C1006 1.327 . S
C1008 C1027 1.429 . S
C1008 H1032 0.950 . S
C1009 C1026 1.574 . S
C1009 C1028 1.368 . S
C1009 H1033 0.949 . S
H1010 C1014 0.949 . S
C1011 C1012 1.349 . S
C1011 C1013 1.327 . S
C1011 H1034 0.950 . S
C1012 C1011 1.349 . S
C1012 C1024 1.349 . S
C1013 C1011 1.327 . S
C1013 C1029 1.429 . S
C1013 H1035 0.950 . S
C1014 H1010 0.949 . S
C1014 C1022 1.574 . S
C1014 C1030 1.368 . S
H1015 C1023 0.950 . S
H1016 C1021 0.950 . S
H1017 C1022 0.949 . S
H1018 C1024 0.950 . S
H1019 C1025 0.950 . S
H1020 C1026 0.949 . S
C1021 H1016 0.950 . S
C1021 C1023 1.327 . S
C1021 C1027 1.429 . S
C1022 C1014 1.574 . S
C1022 H1017 0.949 . S
C1022 C1028 1.368 . S
C1023 C1007 1.349 . S
C1023 H1015 0.950 . S
C1023 C1021 1.327 . S
C1024 C1012 1.349 . S
C1024 H1018 0.950 . S
C1024 C1025 1.327 . S
C1025 H1019 0.950 . S
C1025 C1024 1.327 . S
C1025 C1029 1.429 . S
C1026 C1009 1.574 . S
C1026 H1020 0.949 . S
C1026 C1030 1.368 . S
C1027 C1008 1.429 . S
C1027 C1021 1.429 . S
C1027 C1028 1.523 . S
C1028 C1009 1.368 . S
C1028 C1022 1.368 . S
C1028 C1027 1.523 . S
C1029 C1013 1.429 . S
C1029 C1025 1.429 . S
C1029 C1030 1.523 . S
C1030 C1014 1.368 . S
C1030 C1026 1.368 . S
C1030 C1029 1.523 . S
H1031 C1006 0.950 . S
H1032 C1008 0.950 . S
H1033 C1009 0.949 . S
H1034 C1011 0.950 . S
H1035 C1013 0.950 . S
C1036 C1037 1.349 . S
C1036 C1038 1.327 . S
C1036 H1061 0.950 . S
C1037 C1036 1.349 . S
C1037 C1053 1.349 . S
C1038 C1036 1.327 . S
C1038 C1057 1.429 . S
C1038 H1062 0.950 . S
C1039 C1056 1.574 . S
C1039 C1058 1.368 . S
C1039 H1063 0.949 . S
H1040 C1044 0.949 . S
C1041 C1042 1.349 . S
C1041 C1043 1.327 . S
C1041 H1064 0.950 . S
C1042 C1041 1.349 . S
C1042 C1054 1.349 . S
C1043 C1041 1.327 . S
C1043 C1059 1.429 . S
C1043 H1065 0.950 . S
C1044 H1040 0.949 . S
C1044 C1052 1.574 . S
C1044 C1060 1.368 . S
H1045 C1053 0.950 . S
H1046 C1051 0.950 . S
H1047 C1052 0.949 . S
H1048 C1054 0.950 . S
H1049 C1055 0.950 . S
H1050 C1056 0.949 . S
C1051 H1046 0.950 . S
C1051 C1053 1.327 . S
C1051 C1057 1.429 . S
C1052 C1044 1.574 . S
C1052 H1047 0.949 . S
C1052 C1058 1.368 . S
C1053 C1037 1.349 . S
C1053 H1045 0.950 . S
C1053 C1051 1.327 . S
C1054 C1042 1.349 . S
C1054 H1048 0.950 . S
C1054 C1055 1.327 . S
C1055 H1049 0.950 . S
C1055 C1054 1.327 . S
C1055 C1059 1.429 . S
C1056 C1039 1.574 . S
C1056 H1050 0.949 . S
C1056 C1060 1.368 . S
C1057 C1038 1.429 . S
C1057 C1051 1.429 . S
C1057 C1058 1.523 . S
C1058 C1039 1.368 . S
C1058 C1052 1.368 . S
C1058 C1057 1.523 . S
C1059 C1043 1.429 . S
C1059 C1055 1.429 . S
C1059 C1060 1.523 . S
C1060 C1044 1.368 . S
C1060 C1056 1.368 . S
C1060 C1059 1.523 . S
H1061 C1036 0.950 . S
H1062 C1038 0.950 . S
H1063 C1039 0.949 . S
H1064 C1041 0.950 . S
H1065 C1043 0.950 . S
C1066 C1067 1.349 . S
C1066 C1068 1.327 . S
C1066 H1091 0.950 . S
C1067 C1066 1.349 . S
C1067 C1083 1.349 . S
C1068 C1066 1.327 . S
C1068 C1087 1.429 . S
C1068 H1092 0.950 . S
C1069 C1086 1.574 . S
C1069 C1088 1.368 . S
C1069 H1093 0.949 . S
H1070 C1074 0.949 . S
C1071 C1072 1.349 . S
C1071 C1073 1.327 . S
C1071 H1094 0.950 . S
C1072 C1071 1.349 . S
C1072 C1084 1.349 . S
C1073 C1071 1.327 . S
C1073 C1089 1.429 . S
C1073 H1095 0.950 . S
C1074 H1070 0.949 . S
C1074 C1082 1.574 . S
C1074 C1090 1.368 . S
H1075 C1083 0.950 . S
H1076 C1081 0.950 . S
H1077 C1082 0.949 . S
H1078 C1084 0.950 . S
H1079 C1085 0.950 . S
H1080 C1086 0.949 . S
C1081 H1076 0.950 . S
C1081 C1083 1.327 . S
C1081 C1087 1.429 . S
C1082 C1074 1.574 . S
C1082 H1077 0.949 . S
C1082 C1088 1.368 . S
C1083 C1067 1.349 . S
C1083 H1075 0.950 . S
C1083 C1081 1.327 . S
C1084 C1072 1.349 . S
C1084 H1078 0.950 . S
C1084 C1085 1.327 . S
C1085 H1079 0.950 . S
C1085 C1084 1.327 . S
C1085 C1089 1.429 . S
C1086 C1069 1.574 . S
C1086 H1080 0.949 . S
C1086 C1090 1.368 . S
C1087 C1068 1.429 . S
C1087 C1081 1.429 . S
C1087 C1088 1.523 . S
C1088 C1069 1.368 . S
C1088 C1082 1.368 . S
C1088 C1087 1.523 . S
C1089 C1073 1.429 . S
C1089 C1085 1.429 . S
C1089 C1090 1.523 . S
C1090 C1074 1.368 . S
C1090 C1086 1.368 . S
C1090 C1089 1.523 . S
H1091 C1066 0.950 . S
H1092 C1068 0.950 . S
H1093 C1069 0.949 . S
H1094 C1071 0.950 . S
H1095 C1073 0.950 . S
C1096 C1097 1.349 . S
C1096 C1098 1.327 . S
C1096 H1121 0.950 . S
C1097 C1096 1.349 . S
C1097 C1113 1.349 . S
C1098 C1096 1.327 . S
C1098 C1117 1.429 . S
C1098 H1122 0.950 . S
C1099 C1116 1.574 . S
C1099 C1118 1.368 . S
C1099 H1123 0.949 . S
H1100 C1104 0.949 . S
C1101 C1102 1.349 . S
C1101 C1103 1.327 . S
C1101 H1124 0.950 . S
C1102 C1101 1.349 . S
C1102 C1114 1.349 . S
C1103 C1101 1.327 . S
C1103 C1119 1.429 . S
C1103 H1125 0.950 . S
C1104 H1100 0.949 . S
C1104 C1112 1.574 . S
C1104 C1120 1.368 . S
H1105 C1113 0.950 . S
H1106 C1111 0.950 . S
H1107 C1112 0.949 . S
H1108 C1114 0.950 . S
H1109 C1115 0.950 . S
H1110 C1116 0.949 . S
C1111 H1106 0.950 . S
C1111 C1113 1.327 . S
C1111 C1117 1.429 . S
C1112 C1104 1.574 . S
C1112 H1107 0.949 . S
C1112 C1118 1.368 . S
C1113 C1097 1.349 . S
C1113 H1105 0.950 . S
C1113 C1111 1.327 . S
C1114 C1102 1.349 . S
C1114 H1108 0.950 . S
C1114 C1115 1.327 . S
C1115 H1109 0.950 . S
C1115 C1114 1.327 . S
C1115 C1119 1.429 . S
C1116 C1099 1.574 . S
C1116 H1110 0.949 . S
C1116 C1120 1.368 . S
C1117 C1098 1.429 . S
C1117 C1111 1.429 . S
C1117 C1118 1.523 . S
C1118 C1099 1.368 . S
C1118 C1112 1.368 . S
C1118 C1117 1.523 . S
C1119 C1103 1.429 . S
C1119 C1115 1.429 . S
C1119 C1120 1.523 . S
C1120 C1104 1.368 . S
C1120 C1116 1.368 . S
C1120 C1119 1.523 . S
H1121 C1096 0.950 . S
H1122 C1098 0.950 . S
H1123 C1099 0.949 . S
H1124 C1101 0.950 . S
H1125 C1103 0.950 . S
C1126 C1127 1.349 . S
C1126 C1128 1.327 . S
C1126 H1151 0.950 . S
C1127 C1126 1.349 . S
C1127 C1143 1.349 . S
C1128 C1126 1.327 . S
C1128 C1147 1.429 . S
C1128 H1152 0.950 . S
C1129 C1146 1.574 . S
C1129 C1148 1.368 . S
C1129 H1153 0.949 . S
H1130 C1134 0.949 . S
C1131 C1132 1.349 . S
C1131 C1133 1.327 . S
C1131 H1154 0.950 . S
C1132 C1131 1.349 . S
C1132 C1144 1.349 . S
C1133 C1131 1.327 . S
C1133 C1149 1.429 . S
C1133 H1155 0.950 . S
C1134 H1130 0.949 . S
C1134 C1142 1.574 . S
C1134 C1150 1.368 . S
H1135 C1143 0.950 . S
H1136 C1141 0.950 . S
H1137 C1142 0.949 . S
H1138 C1144 0.950 . S
H1139 C1145 0.950 . S
H1140 C1146 0.949 . S
C1141 H1136 0.950 . S
C1141 C1143 1.327 . S
C1141 C1147 1.429 . S
C1142 C1134 1.574 . S
C1142 H1137 0.949 . S
C1142 C1148 1.368 . S
C1143 C1127 1.349 . S
C1143 H1135 0.950 . S
C1143 C1141 1.327 . S
C1144 C1132 1.349 . S
C1144 H1138 0.950 . S
C1144 C1145 1.327 . S
C1145 H1139 0.950 . S
C1145 C1144 1.327 . S
C1145 C1149 1.429 . S
C1146 C1129 1.574 . S
C1146 H1140 0.949 . S
C1146 C1150 1.368 . S
C1147 C1128 1.429 . S
C1147 C1141 1.429 . S
C1147 C1148 1.523 . S
C1148 C1129 1.368 . S
C1148 C1142 1.368 . S
C1148 C1147 1.523 . S
C1149 C1133 1.429 . S
C1149 C1145 1.429 . S
C1149 C1150 1.523 . S
C1150 C1134 1.368 . S
C1150 C1146 1.368 . S
C1150 C1149 1.523 . S
H1151 C1126 0.950 . S
H1152 C1128 0.950 . S
H1153 C1129 0.949 . S
H1154 C1131 0.950 . S
H1155 C1133 0.950 . S
C1156 C1157 1.349 . S
C1156 C1158 1.327 . S
C1156 H1181 0.950 . S
C1157 C1156 1.349 . S
C1157 C1173 1.349 . S
C1158 C1156 1.327 . S
C1158 C1177 1.429 . S
C1158 H1182 0.950 . S
C1159 C1176 1.574 . S
C1159 C1178 1.368 . S
C1159 H1183 0.949 . S
H1160 C1164 0.949 . S
C1161 C1162 1.349 . S
C1161 C1163 1.327 . S
C1161 H1184 0.950 . S
C1162 C1161 1.349 . S
C1162 C1174 1.349 . S
C1163 C1161 1.327 . S
C1163 C1179 1.429 . S
C1163 H1185 0.950 . S
C1164 H1160 0.949 . S
C1164 C1172 1.574 . S
C1164 C1180 1.368 . S
H1165 C1173 0.950 . S
H1166 C1171 0.950 . S
H1167 C1172 0.949 . S
H1168 C1174 0.950 . S
H1169 C1175 0.950 . S
H1170 C1176 0.949 . S
C1171 H1166 0.950 . S
C1171 C1173 1.327 . S
C1171 C1177 1.429 . S
C1172 C1164 1.574 . S
C1172 H1167 0.949 . S
C1172 C1178 1.368 . S
C1173 C1157 1.349 . S
C1173 H1165 0.950 . S
C1173 C1171 1.327 . S
C1174 C1162 1.349 . S
C1174 H1168 0.950 . S
C1174 C1175 1.327 . S
C1175 H1169 0.950 . S
C1175 C1174 1.327 . S
C1175 C1179 1.429 . S
C1176 C1159 1.574 . S
C1176 H1170 0.949 . S
C1176 C1180 1.368 . S
C1177 C1158 1.429 . S
C1177 C1171 1.429 . S
C1177 C1178 1.523 . S
C1178 C1159 1.368 . S
C1178 C1172 1.368 . S
C1178 C1177 1.523 . S
C1179 C1163 1.429 . S
C1179 C1175 1.429 . S
C1179 C1180 1.523 . S
C1180 C1164 1.368 . S
C1180 C1176 1.368 . S
C1180 C1179 1.523 . S
H1181 C1156 0.950 . S
H1182 C1158 0.950 . S
H1183 C1159 0.949 . S
H1184 C1161 0.950 . S
H1185 C1163 0.950 . S
C1186 C1187 1.349 . S
C1186 C1188 1.327 . S
C1186 H1211 0.950 . S
C1187 C1186 1.349 . S
C1187 C1203 1.349 . S
C1188 C1186 1.327 . S
C1188 C1207 1.429 . S
C1188 H1212 0.950 . S
C1189 C1206 1.574 . S
C1189 C1208 1.368 . S
C1189 H1213 0.949 . S
H1190 C1194 0.949 . S
C1191 C1192 1.349 . S
C1191 C1193 1.327 . S
C1191 H1214 0.950 . S
C1192 C1191 1.349 . S
C1192 C1204 1.349 . S
C1193 C1191 1.327 . S
C1193 C1209 1.429 . S
C1193 H1215 0.950 . S
C1194 H1190 0.949 . S
C1194 C1202 1.574 . S
C1194 C1210 1.368 . S
H1195 C1203 0.950 . S
H1196 C1201 0.950 . S
H1197 C1202 0.949 . S
H1198 C1204 0.950 . S
H1199 C1205 0.950 . S
H1200 C1206 0.949 . S
C1201 H1196 0.950 . S
C1201 C1203 1.327 . S
C1201 C1207 1.429 . S
C1202 C1194 1.574 . S
C1202 H1197 0.949 . S
C1202 C1208 1.368 . S
C1203 C1187 1.349 . S
C1203 H1195 0.950 . S
C1203 C1201 1.327 . S
C1204 C1192 1.349 . S
C1204 H1198 0.950 . S
C1204 C1205 1.327 . S
C1205 H1199 0.950 . S
C1205 C1204 1.327 . S
C1205 C1209 1.429 . S
C1206 C1189 1.574 . S
C1206 H1200 0.949 . S
C1206 C1210 1.368 . S
C1207 C1188 1.429 . S
C1207 C1201 1.429 . S
C1207 C1208 1.523 . S
C1208 C1189 1.368 . S
C1208 C1202 1.368 . S
C1208 C1207 1.523 . S
C1209 C1193 1.429 . S
C1209 C1205 1.429 . S
C1209 C1210 1.523 . S
C1210 C1194 1.368 . S
C1210 C1206 1.368 . S
C1210 C1209 1.523 . S
H1211 C1186 0.950 . S
H1212 C1188 0.950 . S
H1213 C1189 0.949 . S
H1214 C1191 0.950 . S
H1215 C1193 0.950 . S
C1216 C1217 1.349 1_565 S
C1216 C1218 1.327 . S
C1216 H1241 0.950 . S
C1217 C1216 1.349 1_545 S
C1217 C1233 1.349 . S
C1218 C1216 1.327 . S
C1218 C1237 1.429 1_565 S
C1218 H1242 0.950 . S
C1219 C1236 1.547 1_655 S
C1219 C1238 1.368 . S
C1219 H1243 0.949 . S
H1220 C1224 0.949 1_565 S
C1221 C1222 1.349 . S
C1221 C1223 1.327 . S
C1221 H1244 0.950 . S
C1222 C1221 1.349 . S
C1222 C1234 1.354 . S
C1223 C1221 1.327 . S
C1223 C1239 1.424 1_455 S
C1223 H1245 0.950 . S
C1224 H1220 0.949 1_545 S
C1224 C1232 1.574 . S
C1224 C1240 1.368 . S
H1225 C1233 0.950 . S
H1226 C1231 0.950 . S
H1227 C1232 0.949 1_565 S
H1228 C1234 0.948 1_655 S
H1229 C1235 0.941 1_565 S
H1230 C1236 0.990 . S
C1231 H1226 0.950 . S
C1231 C1233 1.327 . S
C1231 C1237 1.429 . S
C1232 C1224 1.574 . S
C1232 H1227 0.949 1_545 S
C1232 C1238 1.368 . S
C1233 C1217 1.349 . S
C1233 H1225 0.950 . S
C1233 C1231 1.327 . S
C1234 C1222 1.354 . S
C1234 H1228 0.948 1_455 S
C1234 C1235 1.323 1_455 S
C1235 H1229 0.941 1_545 S
C1235 C1234 1.323 1_655 S
C1235 C1239 1.430 . S
C1236 C1219 1.547 1_455 S
C1236 H1230 0.990 . S
C1236 C1240 1.352 1_455 S
C1237 C1218 1.429 1_545 S
C1237 C1231 1.429 . S
C1237 C1238 1.523 . S
C1238 C1219 1.368 . S
C1238 C1232 1.368 . S
C1238 C1237 1.523 . S
C1239 C1223 1.424 1_655 S
C1239 C1235 1.430 . S
C1239 C1240 1.526 . S
C1240 C1224 1.368 . S
C1240 C1236 1.352 1_655 S
C1240 C1239 1.526 . S
H1241 C1216 0.950 . S
H1242 C1218 0.950 . S
H1243 C1219 0.949 . S
H1244 C1221 0.950 . S
H1245 C1223 0.950 . S
C1246 C1247 1.349 . S
C1246 C1248 1.327 . S
C1246 H1271 0.950 . S
C1247 C1246 1.349 . S
C1247 C1263 1.349 . S
C1248 C1246 1.327 . S
C1248 C1267 1.429 . S
C1248 H1272 0.950 . S
C1249 C1266 1.574 . S
C1249 C1268 1.368 . S
C1249 H1273 0.949 . S
H1250 C1254 0.949 . S
C1251 C1252 1.349 . S
C1251 C1253 1.327 . S
C1251 H1274 0.950 . S
C1252 C1251 1.349 . S
C1252 C1264 1.349 . S
C1253 C1251 1.327 . S
C1253 C1269 1.429 . S
C1253 H1275 0.950 . S
C1254 H1250 0.949 . S
C1254 C1262 1.574 . S
C1254 C1270 1.368 . S
H1255 C1263 0.950 . S
H1256 C1261 0.950 . S
H1257 C1262 0.949 . S
H1258 C1264 0.950 . S
H1259 C1265 0.950 . S
H1260 C1266 0.949 . S
C1261 H1256 0.950 . S
C1261 C1263 1.327 . S
C1261 C1267 1.429 . S
C1262 C1254 1.574 . S
C1262 H1257 0.949 . S
C1262 C1268 1.368 . S
C1263 C1247 1.349 . S
C1263 H1255 0.950 . S
C1263 C1261 1.327 . S
C1264 C1252 1.349 . S
C1264 H1258 0.950 . S
C1264 C1265 1.327 . S
C1265 H1259 0.950 . S
C1265 C1264 1.327 . S
C1265 C1269 1.429 . S
C1266 C1249 1.574 . S
C1266 H1260 0.949 . S
C1266 C1270 1.368 . S
C1267 C1248 1.429 . S
C1267 C1261 1.429 . S
C1267 C1268 1.523 . S
C1268 C1249 1.368 . S
C1268 C1262 1.368 . S
C1268 C1267 1.523 . S
C1269 C1253 1.429 . S
C1269 C1265 1.429 . S
C1269 C1270 1.523 . S
C1270 C1254 1.368 . S
C1270 C1266 1.368 . S
C1270 C1269 1.523 . S
H1271 C1246 0.950 . S
H1272 C1248 0.950 . S
H1273 C1249 0.949 . S
H1274 C1251 0.950 . S
H1275 C1253 0.950 . S
C1276 C1277 1.349 1_565 S
C1276 C1278 1.327 . S
C1276 H1301 0.950 . S
C1277 C1276 1.349 1_545 S
C1277 C1293 1.349 . S
C1278 C1276 1.327 . S
C1278 C1297 1.429 1_565 S
C1278 H1302 0.950 . S
C1279 C1296 1.574 . S
C1279 C1298 1.368 . S
C1279 H1303 0.949 . S
H1280 C1284 0.949 . S
C1281 C1282 1.349 . S
C1281 C1283 1.327 . S
C1281 H1304 0.950 . S
C1282 C1281 1.349 . S
C1282 C1294 1.349 1_545 S
C1283 C1281 1.327 . S
C1283 C1299 1.429 . S
C1283 H1305 0.950 . S
C1284 H1280 0.949 . S
C1284 C1292 1.574 . S
C1284 C1300 1.368 1_565 S
H1285 C1293 0.950 . S
H1286 C1291 0.950 . S
H1287 C1292 0.949 . S
H1288 C1294 0.950 . S
H1289 C1295 0.950 . S
H1290 C1296 0.949 . S
C1291 H1286 0.950 . S
C1291 C1293 1.327 . S
C1291 C1297 1.429 . S
C1292 C1284 1.574 . S
C1292 H1287 0.949 . S
C1292 C1298 1.368 1_565 S
C1293 C1277 1.349 . S
C1293 H1285 0.950 . S
C1293 C1291 1.327 . S
C1294 C1282 1.349 1_565 S
C1294 H1288 0.950 . S
C1294 C1295 1.327 . S
C1295 H1289 0.950 . S
C1295 C1294 1.327 . S
C1295 C1299 1.429 1_565 S
C1296 C1279 1.574 . S
C1296 H1290 0.949 . S
C1296 C1300 1.368 . S
C1297 C1278 1.429 1_545 S
C1297 C1291 1.429 . S
C1297 C1298 1.523 . S
C1298 C1279 1.368 . S
C1298 C1292 1.368 1_545 S
C1298 C1297 1.523 . S
C1299 C1283 1.429 . S
C1299 C1295 1.429 1_545 S
C1299 C1300 1.523 . S
C1300 C1284 1.368 1_545 S
C1300 C1296 1.368 . S
C1300 C1299 1.523 . S
H1301 C1276 0.950 . S
H1302 C1278 0.950 . S
H1303 C1279 0.949 . S
H1304 C1281 0.950 . S
H1305 C1283 0.950 . S
C1306 C1307 1.349 . S
C1306 C1308 1.327 . S
C1306 H1331 0.950 . S
C1307 C1306 1.349 . S
C1307 C1323 1.349 . S
C1308 C1306 1.327 . S
C1308 C1327 1.429 . S
C1308 H1332 0.950 . S
C1309 C1326 1.574 . S
C1309 C1328 1.368 . S
C1309 H1333 0.949 . S
H1310 C1314 0.949 . S
C1311 C1312 1.349 . S
C1311 C1313 1.327 . S
C1311 H1334 0.950 . S
C1312 C1311 1.349 . S
C1312 C1324 1.349 . S
C1313 C1311 1.327 . S
C1313 C1329 1.429 . S
C1313 H1335 0.950 . S
C1314 H1310 0.949 . S
C1314 C1322 1.574 . S
C1314 C1330 1.368 . S
H1315 C1323 0.950 . S
H1316 C1321 0.950 . S
H1317 C1322 0.949 . S
H1318 C1324 0.950 . S
H1319 C1325 0.950 . S
H1320 C1326 0.949 . S
C1321 H1316 0.950 . S
C1321 C1323 1.327 . S
C1321 C1327 1.429 . S
C1322 C1314 1.574 . S
C1322 H1317 0.949 . S
C1322 C1328 1.368 . S
C1323 C1307 1.349 . S
C1323 H1315 0.950 . S
C1323 C1321 1.327 . S
C1324 C1312 1.349 . S
C1324 H1318 0.950 . S
C1324 C1325 1.327 . S
C1325 H1319 0.950 . S
C1325 C1324 1.327 . S
C1325 C1329 1.429 . S
C1326 C1309 1.574 . S
C1326 H1320 0.949 . S
C1326 C1330 1.368 . S
C1327 C1308 1.429 . S
C1327 C1321 1.429 . S
C1327 C1328 1.523 . S
C1328 C1309 1.368 . S
C1328 C1322 1.368 . S
C1328 C1327 1.523 . S
C1329 C1313 1.429 . S
C1329 C1325 1.429 . S
C1329 C1330 1.523 . S
C1330 C1314 1.368 . S
C1330 C1326 1.368 . S
C1330 C1329 1.523 . S
H1331 C1306 0.950 . S
H1332 C1308 0.950 . S
H1333 C1309 0.949 . S
H1334 C1311 0.950 . S
H1335 C1313 0.950 . S
C1336 C1337 1.349 1_565 S
C1336 C1338 1.327 . S
C1336 H1361 0.950 . S
C1337 C1336 1.349 1_545 S
C1337 C1353 1.349 . S
C1338 C1336 1.327 . S
C1338 C1357 1.429 1_565 S
C1338 H1362 0.950 . S
C1339 C1356 1.574 . S
C1339 C1358 1.368 . S
C1339 H1363 0.949 . S
H1340 C1344 0.938 1_455 S
C1341 C1342 1.349 . S
C1341 C1343 1.327 1_455 S
C1341 H1364 0.950 . S
C1342 C1341 1.349 . S
C1342 C1354 1.380 . S
C1343 C1341 1.327 1_655 S
C1343 C1359 1.449 . S
C1343 H1365 0.950 . S
C1344 H1340 0.938 1_655 S
C1344 C1352 1.574 . S
C1344 C1360 1.368 1_565 S
H1345 C1353 0.950 . S
H1346 C1351 0.950 . S
H1347 C1352 0.949 . S
H1348 C1354 0.911 1_565 S
H1349 C1355 0.952 . S
H1350 C1356 0.949 . S
C1351 H1346 0.950 . S
C1351 C1353 1.327 . S
C1351 C1357 1.429 . S
C1352 C1344 1.574 . S
C1352 H1347 0.949 . S
C1352 C1358 1.368 1_565 S
C1353 C1337 1.349 . S
C1353 H1345 0.950 . S
C1353 C1351 1.327 . S
C1354 C1342 1.380 . S
C1354 H1348 0.911 1_545 S
C1354 C1355 1.336 1_545 S
C1355 H1349 0.952 . S
C1355 C1354 1.336 1_565 S
C1355 C1359 1.387 1_465 S
C1356 C1339 1.574 . S
C1356 H1350 0.949 . S
C1356 C1360 1.368 . S
C1357 C1338 1.429 1_545 S
C1357 C1351 1.429 . S
C1357 C1358 1.523 . S
C1358 C1339 1.368 . S
C1358 C1352 1.368 1_545 S
C1358 C1357 1.523 . S
C1359 C1343 1.449 . S
C1359 C1355 1.387 1_645 S
C1359 C1360 1.543 . S
C1360 C1344 1.368 1_545 S
C1360 C1356 1.368 . S
C1360 C1359 1.543 . S
H1361 C1336 0.950 . S
H1362 C1338 0.950 . S
H1363 C1339 0.949 . S
H1364 C1341 0.950 . S
H1365 C1343 0.950 . S
C1366 C1367 1.349 . S
C1366 C1368 1.327 . S
C1366 H1391 0.950 . S
C1367 C1366 1.349 . S
C1367 C1383 1.349 . S
C1368 C1366 1.327 . S
C1368 C1387 1.429 . S
C1368 H1392 0.950 . S
C1369 C1386 1.574 . S
C1369 C1388 1.368 . S
C1369 H1393 0.949 . S
H1370 C1374 0.949 . S
C1371 C1372 1.349 . S
C1371 C1373 1.327 . S
C1371 H1394 0.950 . S
C1372 C1371 1.349 . S
C1372 C1384 1.349 . S
C1373 C1371 1.327 . S
C1373 C1389 1.429 . S
C1373 H1395 0.950 . S
C1374 H1370 0.949 . S
C1374 C1382 1.574 . S
C1374 C1390 1.368 . S
H1375 C1383 0.950 . S
H1376 C1381 0.950 . S
H1377 C1382 0.949 . S
H1378 C1384 0.950 . S
H1379 C1385 0.950 . S
H1380 C1386 0.949 . S
C1381 H1376 0.950 . S
C1381 C1383 1.327 . S
C1381 C1387 1.429 . S
C1382 C1374 1.574 . S
C1382 H1377 0.949 . S
C1382 C1388 1.368 . S
C1383 C1367 1.349 . S
C1383 H1375 0.950 . S
C1383 C1381 1.327 . S
C1384 C1372 1.349 . S
C1384 H1378 0.950 . S
C1384 C1385 1.327 . S
C1385 H1379 0.950 . S
C1385 C1384 1.327 . S
C1385 C1389 1.429 . S
C1386 C1369 1.574 . S
C1386 H1380 0.949 . S
C1386 C1390 1.368 . S
C1387 C1368 1.429 . S
C1387 C1381 1.429 . S
C1387 C1388 1.523 . S
C1388 C1369 1.368 . S
C1388 C1382 1.368 . S
C1388 C1387 1.523 . S
C1389 C1373 1.429 . S
C1389 C1385 1.429 . S
C1389 C1390 1.523 . S
C1390 C1374 1.368 . S
C1390 C1386 1.368 . S
C1390 C1389 1.523 . S
H1391 C1366 0.950 . S
H1392 C1368 0.950 . S
H1393 C1369 0.949 . S
H1394 C1371 0.950 . S
H1395 C1373 0.950 . S
C1396 C1397 1.349 . S
C1396 C1398 1.327 . S
C1396 H1421 0.950 1_545 S
C1397 C1396 1.349 . S
C1397 C1413 1.349 . S
C1398 C1396 1.327 . S
C1398 C1417 1.429 . S
C1398 H1422 0.950 1_545 S
C1399 C1416 1.574 . S
C1399 C1418 1.368 . S
C1399 H1423 0.949 . S
H1400 C1404 0.949 . S
C1401 C1402 1.349 . S
C1401 C1403 1.327 . S
C1401 H1424 0.950 . S
C1402 C1401 1.349 . S
C1402 C1414 1.349 . S
C1403 C1401 1.327 . S
C1403 C1419 1.429 . S
C1403 H1425 0.950 . S
C1404 H1400 0.949 . S
C1404 C1412 1.574 . S
C1404 C1420 1.368 . S
H1405 C1413 0.950 . S
H1406 C1411 0.950 . S
H1407 C1412 0.900 1_565 S
H1408 C1414 0.950 . S
H1409 C1415 0.950 . S
H1410 C1416 0.949 . S
C1411 H1406 0.950 . S
C1411 C1413 1.327 . S
C1411 C1417 1.429 . S
C1412 C1404 1.574 . S
C1412 H1407 0.900 1_545 S
C1412 C1418 1.368 . S
C1413 C1397 1.349 . S
C1413 H1405 0.950 . S
C1413 C1411 1.327 . S
C1414 C1402 1.349 . S
C1414 H1408 0.950 . S
C1414 C1415 1.327 . S
C1415 H1409 0.950 . S
C1415 C1414 1.327 . S
C1415 C1419 1.429 . S
C1416 C1399 1.574 . S
C1416 H1410 0.949 . S
C1416 C1420 1.368 . S
C1417 C1398 1.429 . S
C1417 C1411 1.429 . S
C1417 C1418 1.523 . S
C1418 C1399 1.368 . S
C1418 C1412 1.368 . S
C1418 C1417 1.523 . S
C1419 C1403 1.429 . S
C1419 C1415 1.429 . S
C1419 C1420 1.523 . S
C1420 C1404 1.368 . S
C1420 C1416 1.368 . S
C1420 C1419 1.523 . S
H1421 C1396 0.950 1_565 S
H1422 C1398 0.950 1_565 S
H1423 C1399 0.949 . S
H1424 C1401 0.950 . S
H1425 C1403 0.950 . S
C1426 C1427 1.349 . S
C1426 C1428 1.327 . S
C1426 H1451 0.950 . S
C1427 C1426 1.349 . S
C1427 C1443 1.349 . S
C1428 C1426 1.327 . S
C1428 C1447 1.429 . S
C1428 H1452 0.950 . S
C1429 C1446 1.574 . S
C1429 C1448 1.368 . S
C1429 H1453 0.949 . S
H1430 C1434 0.949 . S
C1431 C1432 1.349 . S
C1431 C1433 1.327 . S
C1431 H1454 0.950 . S
C1432 C1431 1.349 . S
C1432 C1444 1.349 . S
C1433 C1431 1.327 . S
C1433 C1449 1.429 . S
C1433 H1455 0.950 . S
C1434 H1430 0.949 . S
C1434 C1442 1.574 . S
C1434 C1450 1.368 . S
H1435 C1443 0.950 . S
H1436 C1441 0.950 . S
H1437 C1442 0.949 . S
H1438 C1444 0.950 . S
H1439 C1445 0.950 . S
H1440 C1446 0.949 . S
C1441 H1436 0.950 . S
C1441 C1443 1.327 . S
C1441 C1447 1.429 . S
C1442 C1434 1.574 . S
C1442 H1437 0.949 . S
C1442 C1448 1.368 . S
C1443 C1427 1.349 . S
C1443 H1435 0.950 . S
C1443 C1441 1.327 . S
C1444 C1432 1.349 . S
C1444 H1438 0.950 . S
C1444 C1445 1.327 . S
C1445 H1439 0.950 . S
C1445 C1444 1.327 . S
C1445 C1449 1.429 . S
C1446 C1429 1.574 . S
C1446 H1440 0.949 . S
C1446 C1450 1.368 . S
C1447 C1428 1.429 . S
C1447 C1441 1.429 . S
C1447 C1448 1.523 . S
C1448 C1429 1.368 . S
C1448 C1442 1.368 . S
C1448 C1447 1.523 . S
C1449 C1433 1.429 . S
C1449 C1445 1.429 . S
C1449 C1450 1.523 . S
C1450 C1434 1.368 . S
C1450 C1446 1.368 . S
C1450 C1449 1.523 . S
H1451 C1426 0.950 . S
H1452 C1428 0.950 . S
H1453 C1429 0.949 . S
H1454 C1431 0.950 . S
H1455 C1433 0.950 . S
C1456 C1457 1.349 1_556 S
C1456 C1458 1.327 . S
C1456 H1481 0.950 . S
C1457 C1456 1.349 1_554 S
C1457 C1473 1.349 . S
C1458 C1456 1.327 . S
C1458 C1477 1.429 1_556 S
C1458 H1482 0.950 . S
C1459 C1476 1.574 . S
C1459 C1478 1.368 . S
C1459 H1483 0.949 . S
H1460 C1464 0.949 . S
C1461 C1462 1.349 . S
C1461 C1463 1.327 . S
C1461 H1484 0.950 . S
C1462 C1461 1.349 . S
C1462 C1474 1.349 . S
C1463 C1461 1.327 . S
C1463 C1479 1.429 . S
C1463 H1485 0.950 . S
C1464 H1460 0.949 . S
C1464 C1472 1.574 . S
C1464 C1480 1.368 . S
H1465 C1473 0.950 . S
H1466 C1471 0.950 . S
H1467 C1472 0.949 1_556 S
H1468 C1474 0.950 . S
H1469 C1475 0.950 . S
H1470 C1476 0.949 . S
C1471 H1466 0.950 . S
C1471 C1473 1.327 . S
C1471 C1477 1.429 . S
C1472 C1464 1.574 . S
C1472 H1467 0.949 1_554 S
C1472 C1478 1.368 . S
C1473 C1457 1.349 . S
C1473 H1465 0.950 . S
C1473 C1471 1.327 . S
C1474 C1462 1.349 . S
C1474 H1468 0.950 . S
C1474 C1475 1.327 . S
C1475 H1469 0.950 . S
C1475 C1474 1.327 . S
C1475 C1479 1.429 . S
C1476 C1459 1.574 . S
C1476 H1470 0.949 . S
C1476 C1480 1.368 . S
C1477 C1458 1.429 1_554 S
C1477 C1471 1.429 . S
C1477 C1478 1.523 . S
C1478 C1459 1.368 . S
C1478 C1472 1.368 . S
C1478 C1477 1.523 . S
C1479 C1463 1.429 . S
C1479 C1475 1.429 . S
C1479 C1480 1.523 . S
C1480 C1464 1.368 . S
C1480 C1476 1.368 . S
C1480 C1479 1.523 . S
H1481 C1456 0.950 . S
H1482 C1458 0.950 . S
H1483 C1459 0.949 . S
H1484 C1461 0.950 . S
H1485 C1463 0.950 . S
C1486 C1487 1.349 . S
C1486 C1488 1.327 . S
C1486 H1511 0.950 1_554 S
C1487 C1486 1.349 . S
C1487 C1503 1.349 . S
C1488 C1486 1.327 . S
C1488 C1507 1.429 . S
C1488 H1512 0.950 1_554 S
C1489 C1506 1.574 . S
C1489 C1508 1.368 . S
C1489 H1513 0.949 . S
H1490 C1494 0.949 1_556 S
C1491 C1492 1.349 . S
C1491 C1493 1.327 . S
C1491 H1514 0.950 . S
C1492 C1491 1.349 . S
C1492 C1504 1.349 . S
C1493 C1491 1.327 . S
C1493 C1509 1.429 . S
C1493 H1515 0.950 . S
C1494 H1490 0.949 1_554 S
C1494 C1502 1.574 . S
C1494 C1510 1.368 . S
H1495 C1503 0.950 . S
H1496 C1501 0.950 . S
H1497 C1502 0.949 1_556 S
H1498 C1504 0.950 1_556 S
H1499 C1505 0.950 1_556 S
H1500 C1506 0.949 . S
C1501 H1496 0.950 . S
C1501 C1503 1.327 . S
C1501 C1507 1.429 . S
C1502 C1494 1.574 . S
C1502 H1497 0.949 1_554 S
C1502 C1508 1.368 . S
C1503 C1487 1.349 . S
C1503 H1495 0.950 . S
C1503 C1501 1.327 . S
C1504 C1492 1.349 . S
C1504 H1498 0.950 1_554 S
C1504 C1505 1.327 . S
C1505 H1499 0.950 1_554 S
C1505 C1504 1.327 . S
C1505 C1509 1.429 . S
C1506 C1489 1.574 . S
C1506 H1500 0.949 . S
C1506 C1510 1.368 . S
C1507 C1488 1.429 . S
C1507 C1501 1.429 . S
C1507 C1508 1.523 . S
C1508 C1489 1.368 . S
C1508 C1502 1.368 . S
C1508 C1507 1.523 . S
C1509 C1493 1.429 . S
C1509 C1505 1.429 . S
C1509 C1510 1.523 . S
C1510 C1494 1.368 . S
C1510 C1506 1.368 . S
C1510 C1509 1.523 . S
H1511 C1486 0.950 1_556 S
H1512 C1488 0.950 1_556 S
H1513 C1489 0.949 . S
H1514 C1491 0.950 . S
H1515 C1493 0.950 . S
C1516 C1517 1.349 . S
C1516 C1518 1.327 . S
C1516 H1541 0.950 . S
C1517 C1516 1.349 . S
C1517 C1533 1.349 . S
C1518 C1516 1.327 . S
C1518 C1537 1.429 . S
C1518 H1542 0.950 . S
C1519 C1536 1.574 . S
C1519 C1538 1.368 . S
C1519 H1543 0.949 . S
H1520 C1524 0.949 . S
C1521 C1522 1.349 . S
C1521 C1523 1.327 . S
C1521 H1544 0.950 . S
C1522 C1521 1.349 . S
C1522 C1534 1.349 . S
C1523 C1521 1.327 . S
C1523 C1539 1.429 . S
C1523 H1545 0.950 . S
C1524 H1520 0.949 . S
C1524 C1532 1.574 . S
C1524 C1540 1.368 . S
H1525 C1533 0.950 . S
H1526 C1531 0.950 . S
H1527 C1532 0.949 . S
H1528 C1534 0.950 . S
H1529 C1535 0.950 . S
H1530 C1536 0.949 . S
C1531 H1526 0.950 . S
C1531 C1533 1.327 . S
C1531 C1537 1.429 . S
C1532 C1524 1.574 . S
C1532 H1527 0.949 . S
C1532 C1538 1.368 . S
C1533 C1517 1.349 . S
C1533 H1525 0.950 . S
C1533 C1531 1.327 . S
C1534 C1522 1.349 . S
C1534 H1528 0.950 . S
C1534 C1535 1.327 . S
C1535 H1529 0.950 . S
C1535 C1534 1.327 . S
C1535 C1539 1.429 . S
C1536 C1519 1.574 . S
C1536 H1530 0.949 . S
C1536 C1540 1.368 . S
C1537 C1518 1.429 . S
C1537 C1531 1.429 . S
C1537 C1538 1.523 . S
C1538 C1519 1.368 . S
C1538 C1532 1.368 . S
C1538 C1537 1.523 . S
C1539 C1523 1.429 . S
C1539 C1535 1.429 . S
C1539 C1540 1.523 . S
C1540 C1524 1.368 . S
C1540 C1536 1.368 . S
C1540 C1539 1.523 . S
H1541 C1516 0.950 . S
H1542 C1518 0.950 . S
H1543 C1519 0.949 . S
H1544 C1521 0.950 . S
H1545 C1523 0.950 . S
C1546 C1547 1.349 . S
C1546 C1548 1.327 . S
C1546 H1571 0.950 . S
C1547 C1546 1.349 . S
C1547 C1563 1.349 . S
C1548 C1546 1.327 . S
C1548 C1567 1.429 . S
C1548 H1572 0.950 . S
C1549 C1566 1.574 . S
C1549 C1568 1.368 . S
C1549 H1573 0.949 . S
H1550 C1554 0.949 . S
C1551 C1552 1.349 . S
C1551 C1553 1.327 . S
C1551 H1574 0.950 . S
C1552 C1551 1.349 . S
C1552 C1564 1.349 . S
C1553 C1551 1.327 . S
C1553 C1569 1.429 . S
C1553 H1575 0.950 . S
C1554 H1550 0.949 . S
C1554 C1562 1.574 . S
C1554 C1570 1.368 . S
H1555 C1563 0.950 . S
H1556 C1561 0.950 . S
H1557 C1562 0.949 . S
H1558 C1564 0.950 . S
H1559 C1565 0.950 . S
H1560 C1566 0.949 . S
C1561 H1556 0.950 . S
C1561 C1563 1.327 . S
C1561 C1567 1.429 . S
C1562 C1554 1.574 . S
C1562 H1557 0.949 . S
C1562 C1568 1.368 . S
C1563 C1547 1.349 . S
C1563 H1555 0.950 . S
C1563 C1561 1.327 . S
C1564 C1552 1.349 . S
C1564 H1558 0.950 . S
C1564 C1565 1.327 . S
C1565 H1559 0.950 . S
C1565 C1564 1.327 . S
C1565 C1569 1.429 . S
C1566 C1549 1.574 . S
C1566 H1560 0.949 . S
C1566 C1570 1.368 . S
C1567 C1548 1.429 . S
C1567 C1561 1.429 . S
C1567 C1568 1.523 . S
C1568 C1549 1.368 . S
C1568 C1562 1.368 . S
C1568 C1567 1.523 . S
C1569 C1553 1.429 . S
C1569 C1565 1.429 . S
C1569 C1570 1.523 . S
C1570 C1554 1.368 . S
C1570 C1566 1.368 . S
C1570 C1569 1.523 . S
H1571 C1546 0.950 . S
H1572 C1548 0.950 . S
H1573 C1549 0.949 . S
H1574 C1551 0.950 . S
H1575 C1553 0.950 . S
C1576 C1577 1.349 . S
C1576 C1578 1.327 . S
C1576 H1601 0.950 . S
C1577 C1576 1.349 . S
C1577 C1593 1.349 . S
C1578 C1576 1.327 . S
C1578 C1597 1.429 . S
C1578 H1602 0.950 . S
C1579 C1596 1.574 . S
C1579 C1598 1.368 . S
C1579 H1603 0.949 . S
H1580 C1584 0.949 . S
C1581 C1582 1.349 . S
C1581 C1583 1.327 . S
C1581 H1604 0.950 . S
C1582 C1581 1.349 . S
C1582 C1594 1.349 . S
C1583 C1581 1.327 . S
C1583 C1599 1.429 . S
C1583 H1605 0.950 . S
C1584 H1580 0.949 . S
C1584 C1592 1.574 . S
C1584 C1600 1.368 . S
H1585 C1593 0.950 . S
H1586 C1591 0.950 . S
H1587 C1592 0.949 . S
H1588 C1594 0.950 . S
H1589 C1595 0.950 . S
H1590 C1596 0.949 . S
C1591 H1586 0.950 . S
C1591 C1593 1.327 . S
C1591 C1597 1.429 . S
C1592 C1584 1.574 . S
C1592 H1587 0.949 . S
C1592 C1598 1.368 . S
C1593 C1577 1.349 . S
C1593 H1585 0.950 . S
C1593 C1591 1.327 . S
C1594 C1582 1.349 . S
C1594 H1588 0.950 . S
C1594 C1595 1.327 . S
C1595 H1589 0.950 . S
C1595 C1594 1.327 . S
C1595 C1599 1.429 . S
C1596 C1579 1.574 . S
C1596 H1590 0.949 . S
C1596 C1600 1.368 . S
C1597 C1578 1.429 . S
C1597 C1591 1.429 . S
C1597 C1598 1.523 . S
C1598 C1579 1.368 . S
C1598 C1592 1.368 . S
C1598 C1597 1.523 . S
C1599 C1583 1.429 . S
C1599 C1595 1.429 . S
C1599 C1600 1.523 . S
C1600 C1584 1.368 . S
C1600 C1596 1.368 . S
C1600 C1599 1.523 . S
H1601 C1576 0.950 . S
H1602 C1578 0.950 . S
H1603 C1579 0.949 . S
H1604 C1581 0.950 . S
H1605 C1583 0.950 . S
C1606 C1607 1.349 . S
C1606 C1608 1.327 . S
C1606 H1631 0.950 . S
C1607 C1606 1.349 . S
C1607 C1623 1.349 . S
C1608 C1606 1.327 . S
C1608 C1627 1.429 . S
C1608 H1632 0.950 . S
C1609 C1626 1.574 . S
C1609 C1628 1.368 . S
C1609 H1633 0.949 . S
H1610 C1614 0.949 . S
C1611 C1612 1.349 . S
C1611 C1613 1.327 . S
C1611 H1634 0.950 . S
C1612 C1611 1.349 . S
C1612 C1624 1.349 . S
C1613 C1611 1.327 . S
C1613 C1629 1.429 . S
C1613 H1635 0.950 . S
C1614 H1610 0.949 . S
C1614 C1622 1.574 . S
C1614 C1630 1.368 . S
H1615 C1623 0.950 . S
H1616 C1621 0.950 . S
H1617 C1622 0.949 . S
H1618 C1624 0.950 . S
H1619 C1625 0.950 . S
H1620 C1626 0.949 . S
C1621 H1616 0.950 . S
C1621 C1623 1.327 . S
C1621 C1627 1.429 . S
C1622 C1614 1.574 . S
C1622 H1617 0.949 . S
C1622 C1628 1.368 . S
C1623 C1607 1.349 . S
C1623 H1615 0.950 . S
C1623 C1621 1.327 . S
C1624 C1612 1.349 . S
C1624 H1618 0.950 . S
C1624 C1625 1.327 . S
C1625 H1619 0.950 . S
C1625 C1624 1.327 . S
C1625 C1629 1.429 . S
C1626 C1609 1.574 . S
C1626 H1620 0.949 . S
C1626 C1630 1.368 . S
C1627 C1608 1.429 . S
C1627 C1621 1.429 . S
C1627 C1628 1.523 . S
C1628 C1609 1.368 . S
C1628 C1622 1.368 . S
C1628 C1627 1.523 . S
C1629 C1613 1.429 . S
C1629 C1625 1.429 . S
C1629 C1630 1.523 . S
C1630 C1614 1.368 . S
C1630 C1626 1.368 . S
C1630 C1629 1.523 . S
H1631 C1606 0.950 . S
H1632 C1608 0.950 . S
H1633 C1609 0.949 . S
H1634 C1611 0.950 . S
H1635 C1613 0.950 . S
C1636 C1637 1.349 . S
C1636 C1638 1.327 . S
C1636 H1661 0.950 . S
C1637 C1636 1.349 . S
C1637 C1653 1.349 . S
C1638 C1636 1.327 . S
C1638 C1657 1.429 . S
C1638 H1662 0.950 . S
C1639 C1656 1.574 . S
C1639 C1658 1.368 . S
C1639 H1663 0.949 . S
H1640 C1644 0.949 . S
C1641 C1642 1.349 . S
C1641 C1643 1.327 . S
C1641 H1664 0.950 . S
C1642 C1641 1.349 . S
C1642 C1654 1.349 . S
C1643 C1641 1.327 . S
C1643 C1659 1.429 . S
C1643 H1665 0.950 . S
C1644 H1640 0.949 . S
C1644 C1652 1.574 . S
C1644 C1660 1.368 . S
H1645 C1653 0.950 . S
H1646 C1651 0.950 . S
H1647 C1652 0.949 . S
H1648 C1654 0.950 . S
H1649 C1655 0.950 . S
H1650 C1656 0.949 . S
C1651 H1646 0.950 . S
C1651 C1653 1.327 . S
C1651 C1657 1.429 . S
C1652 C1644 1.574 . S
C1652 H1647 0.949 . S
C1652 C1658 1.368 . S
C1653 C1637 1.349 . S
C1653 H1645 0.950 . S
C1653 C1651 1.327 . S
C1654 C1642 1.349 . S
C1654 H1648 0.950 . S
C1654 C1655 1.327 . S
C1655 H1649 0.950 . S
C1655 C1654 1.327 . S
C1655 C1659 1.429 . S
C1656 C1639 1.574 . S
C1656 H1650 0.949 . S
C1656 C1660 1.368 . S
C1657 C1638 1.429 . S
C1657 C1651 1.429 . S
C1657 C1658 1.523 . S
C1658 C1639 1.368 . S
C1658 C1652 1.368 . S
C1658 C1657 1.523 . S
C1659 C1643 1.429 . S
C1659 C1655 1.429 . S
C1659 C1660 1.523 . S
C1660 C1644 1.368 . S
C1660 C1656 1.368 . S
C1660 C1659 1.523 . S
H1661 C1636 0.950 . S
H1662 C1638 0.950 . S
H1663 C1639 0.949 . S
H1664 C1641 0.950 . S
H1665 C1643 0.950 . S
C1666 C1667 1.349 . S
C1666 C1668 1.327 . S
C1666 H1691 0.950 . S
C1667 C1666 1.349 . S
C1667 C1683 1.349 . S
C1668 C1666 1.327 . S
C1668 C1687 1.429 . S
C1668 H1692 0.950 . S
C1669 C1686 1.574 . S
C1669 C1688 1.368 . S
C1669 H1693 0.949 . S
H1670 C1674 0.949 . S
C1671 C1672 1.349 . S
C1671 C1673 1.327 . S
C1671 H1694 0.950 . S
C1672 C1671 1.349 . S
C1672 C1684 1.349 . S
C1673 C1671 1.327 . S
C1673 C1689 1.429 . S
C1673 H1695 0.950 . S
C1674 H1670 0.949 . S
C1674 C1682 1.574 . S
C1674 C1690 1.368 . S
H1675 C1683 0.950 . S
H1676 C1681 0.950 . S
H1677 C1682 0.949 . S
H1678 C1684 0.950 . S
H1679 C1685 0.950 . S
H1680 C1686 0.949 . S
C1681 H1676 0.950 . S
C1681 C1683 1.327 . S
C1681 C1687 1.429 . S
C1682 C1674 1.574 . S
C1682 H1677 0.949 . S
C1682 C1688 1.368 . S
C1683 C1667 1.349 . S
C1683 H1675 0.950 . S
C1683 C1681 1.327 . S
C1684 C1672 1.349 . S
C1684 H1678 0.950 . S
C1684 C1685 1.327 . S
C1685 H1679 0.950 . S
C1685 C1684 1.327 . S
C1685 C1689 1.429 . S
C1686 C1669 1.574 . S
C1686 H1680 0.949 . S
C1686 C1690 1.368 . S
C1687 C1668 1.429 . S
C1687 C1681 1.429 . S
C1687 C1688 1.523 . S
C1688 C1669 1.368 . S
C1688 C1682 1.368 . S
C1688 C1687 1.523 . S
C1689 C1673 1.429 . S
C1689 C1685 1.429 . S
C1689 C1690 1.523 . S
C1690 C1674 1.368 . S
C1690 C1686 1.368 . S
C1690 C1689 1.523 . S
H1691 C1666 0.950 . S
H1692 C1668 0.950 . S
H1693 C1669 0.949 . S
H1694 C1671 0.950 . S
H1695 C1673 0.950 . S
C1696 C1697 1.349 . S
C1696 C1698 1.327 . S
C1696 H1721 0.950 . S
C1697 C1696 1.349 . S
C1697 C1713 1.349 . S
C1698 C1696 1.327 . S
C1698 C1717 1.429 . S
C1698 H1722 0.950 . S
C1699 C1716 1.574 . S
C1699 C1718 1.368 . S
C1699 H1723 0.949 . S
H1700 C1704 0.949 . S
C1701 C1702 1.349 . S
C1701 C1703 1.327 . S
C1701 H1724 0.950 . S
C1702 C1701 1.349 . S
C1702 C1714 1.349 . S
C1703 C1701 1.327 . S
C1703 C1719 1.429 . S
C1703 H1725 0.950 . S
C1704 H1700 0.949 . S
C1704 C1712 1.574 . S
C1704 C1720 1.368 . S
H1705 C1713 0.950 . S
H1706 C1711 0.950 . S
H1707 C1712 0.949 . S
H1708 C1714 0.950 . S
H1709 C1715 0.950 . S
H1710 C1716 0.949 . S
C1711 H1706 0.950 . S
C1711 C1713 1.327 . S
C1711 C1717 1.429 . S
C1712 C1704 1.574 . S
C1712 H1707 0.949 . S
C1712 C1718 1.368 . S
C1713 C1697 1.349 . S
C1713 H1705 0.950 . S
C1713 C1711 1.327 . S
C1714 C1702 1.349 . S
C1714 H1708 0.950 . S
C1714 C1715 1.327 . S
C1715 H1709 0.950 . S
C1715 C1714 1.327 . S
C1715 C1719 1.429 . S
C1716 C1699 1.574 . S
C1716 H1710 0.949 . S
C1716 C1720 1.368 . S
C1717 C1698 1.429 . S
C1717 C1711 1.429 . S
C1717 C1718 1.523 . S
C1718 C1699 1.368 . S
C1718 C1712 1.368 . S
C1718 C1717 1.523 . S
C1719 C1703 1.429 . S
C1719 C1715 1.429 . S
C1719 C1720 1.523 . S
C1720 C1704 1.368 . S
C1720 C1716 1.368 . S
C1720 C1719 1.523 . S
H1721 C1696 0.950 . S
H1722 C1698 0.950 . S
H1723 C1699 0.949 . S
H1724 C1701 0.950 . S
H1725 C1703 0.950 . S
C1726 C1727 1.349 . S
C1726 C1728 1.327 . S
C1726 H1751 0.950 . S
C1727 C1726 1.349 . S
C1727 C1743 1.349 . S
C1728 C1726 1.327 . S
C1728 C1747 1.429 . S
C1728 H1752 0.950 . S
C1729 C1746 1.574 . S
C1729 C1748 1.368 . S
C1729 H1753 0.949 . S
H1730 C1734 0.949 . S
C1731 C1732 1.349 . S
C1731 C1733 1.327 . S
C1731 H1754 0.950 . S
C1732 C1731 1.349 . S
C1732 C1744 1.349 . S
C1733 C1731 1.327 . S
C1733 C1749 1.429 . S
C1733 H1755 0.950 . S
C1734 H1730 0.949 . S
C1734 C1742 1.574 . S
C1734 C1750 1.368 . S
H1735 C1743 0.950 . S
H1736 C1741 0.950 . S
H1737 C1742 0.949 . S
H1738 C1744 0.950 . S
H1739 C1745 0.950 . S
H1740 C1746 0.949 . S
C1741 H1736 0.950 . S
C1741 C1743 1.327 . S
C1741 C1747 1.429 . S
C1742 C1734 1.574 . S
C1742 H1737 0.949 . S
C1742 C1748 1.368 . S
C1743 C1727 1.349 . S
C1743 H1735 0.950 . S
C1743 C1741 1.327 . S
C1744 C1732 1.349 . S
C1744 H1738 0.950 . S
C1744 C1745 1.327 . S
C1745 H1739 0.950 . S
C1745 C1744 1.327 . S
C1745 C1749 1.429 . S
C1746 C1729 1.574 . S
C1746 H1740 0.949 . S
C1746 C1750 1.368 . S
C1747 C1728 1.429 . S
C1747 C1741 1.429 . S
C1747 C1748 1.523 . S
C1748 C1729 1.368 . S
C1748 C1742 1.368 . S
C1748 C1747 1.523 . S
C1749 C1733 1.429 . S
C1749 C1745 1.429 . S
C1749 C1750 1.523 . S
C1750 C1734 1.368 . S
C1750 C1746 1.368 . S
C1750 C1749 1.523 . S
H1751 C1726 0.950 . S
H1752 C1728 0.950 . S
H1753 C1729 0.949 . S
H1754 C1731 0.950 . S
H1755 C1733 0.950 . S
C1756 C1757 1.349 . S
C1756 C1758 1.327 . S
C1756 H1781 0.950 . S
C1757 C1756 1.349 . S
C1757 C1773 1.349 . S
C1758 C1756 1.327 . S
C1758 C1777 1.429 . S
C1758 H1782 0.950 . S
C1759 C1776 1.574 . S
C1759 C1778 1.368 . S
C1759 H1783 0.949 . S
H1760 C1764 0.949 . S
C1761 C1762 1.349 . S
C1761 C1763 1.327 . S
C1761 H1784 0.950 . S
C1762 C1761 1.349 . S
C1762 C1774 1.349 . S
C1763 C1761 1.327 . S
C1763 C1779 1.429 . S
C1763 H1785 0.950 . S
C1764 H1760 0.949 . S
C1764 C1772 1.574 . S
C1764 C1780 1.368 . S
H1765 C1773 0.950 . S
H1766 C1771 0.950 . S
H1767 C1772 0.949 . S
H1768 C1774 0.950 . S
H1769 C1775 0.950 . S
H1770 C1776 0.949 . S
C1771 H1766 0.950 . S
C1771 C1773 1.327 . S
C1771 C1777 1.429 . S
C1772 C1764 1.574 . S
C1772 H1767 0.949 . S
C1772 C1778 1.368 . S
C1773 C1757 1.349 . S
C1773 H1765 0.950 . S
C1773 C1771 1.327 . S
C1774 C1762 1.349 . S
C1774 H1768 0.950 . S
C1774 C1775 1.327 . S
C1775 H1769 0.950 . S
C1775 C1774 1.327 . S
C1775 C1779 1.429 . S
C1776 C1759 1.574 . S
C1776 H1770 0.949 . S
C1776 C1780 1.368 . S
C1777 C1758 1.429 . S
C1777 C1771 1.429 . S
C1777 C1778 1.523 . S
C1778 C1759 1.368 . S
C1778 C1772 1.368 . S
C1778 C1777 1.523 . S
C1779 C1763 1.429 . S
C1779 C1775 1.429 . S
C1779 C1780 1.523 . S
C1780 C1764 1.368 . S
C1780 C1776 1.368 . S
C1780 C1779 1.523 . S
H1781 C1756 0.950 . S
H1782 C1758 0.950 . S
H1783 C1759 0.949 . S
H1784 C1761 0.950 . S
H1785 C1763 0.950 . S
C1786 C1787 1.349 . S
C1786 C1788 1.327 . S
C1786 H1811 0.950 . S
C1787 C1786 1.349 . S
C1787 C1803 1.349 . S
C1788 C1786 1.327 . S
C1788 C1807 1.429 . S
C1788 H1812 0.950 . S
C1789 C1806 1.574 . S
C1789 C1808 1.368 . S
C1789 H1813 0.949 . S
H1790 C1794 0.949 . S
C1791 C1792 1.349 . S
C1791 C1793 1.327 . S
C1791 H1814 0.950 . S
C1792 C1791 1.349 . S
C1792 C1804 1.349 . S
C1793 C1791 1.327 . S
C1793 C1809 1.429 . S
C1793 H1815 0.950 . S
C1794 H1790 0.949 . S
C1794 C1802 1.574 . S
C1794 C1810 1.368 . S
H1795 C1803 0.950 . S
H1796 C1801 0.950 . S
H1797 C1802 0.949 . S
H1798 C1804 0.950 . S
H1799 C1805 0.950 . S
H1800 C1806 0.949 . S
C1801 H1796 0.950 . S
C1801 C1803 1.327 . S
C1801 C1807 1.429 . S
C1802 C1794 1.574 . S
C1802 H1797 0.949 . S
C1802 C1808 1.368 . S
C1803 C1787 1.349 . S
C1803 H1795 0.950 . S
C1803 C1801 1.327 . S
C1804 C1792 1.349 . S
C1804 H1798 0.950 . S
C1804 C1805 1.327 . S
C1805 H1799 0.950 . S
C1805 C1804 1.327 . S
C1805 C1809 1.429 . S
C1806 C1789 1.574 . S
C1806 H1800 0.949 . S
C1806 C1810 1.368 . S
C1807 C1788 1.429 . S
C1807 C1801 1.429 . S
C1807 C1808 1.523 . S
C1808 C1789 1.368 . S
C1808 C1802 1.368 . S
C1808 C1807 1.523 . S
C1809 C1793 1.429 . S
C1809 C1805 1.429 . S
C1809 C1810 1.523 . S
C1810 C1794 1.368 . S
C1810 C1806 1.368 . S
C1810 C1809 1.523 . S
H1811 C1786 0.950 . S
H1812 C1788 0.950 . S
H1813 C1789 0.949 . S
H1814 C1791 0.950 . S
H1815 C1793 0.950 . S
C1816 C1817 1.331 1_655 S
C1816 C1818 1.327 . S
C1816 H1841 0.950 . S
C1817 C1816 1.331 1_455 S
C1817 C1833 1.376 . S
C1818 C1816 1.327 . S
C1818 C1837 1.429 1_655 S
C1818 H1842 0.950 . S
C1819 C1836 1.574 . S
C1819 C1838 1.368 . S
C1819 H1843 0.949 . S
H1820 C1824 0.966 . S
C1821 C1822 1.349 . S
C1821 C1823 1.327 . S
C1821 H1844 0.950 . S
C1822 C1821 1.349 . S
C1822 C1834 1.363 . S
C1823 C1821 1.327 . S
C1823 C1839 1.429 . S
C1823 H1845 0.950 . S
C1824 H1820 0.966 . S
C1824 C1832 1.581 . S
C1824 C1840 1.346 1_655 S
H1825 C1833 0.950 . S
H1826 C1831 0.950 . S
H1827 C1832 0.949 . S
H1828 C1834 0.940 1_655 S
H1829 C1835 0.950 1_655 S
H1830 C1836 0.949 . S
C1831 H1826 0.950 . S
C1831 C1833 1.327 . S
C1831 C1837 1.429 . S
C1832 C1824 1.581 . S
C1832 H1827 0.949 . S
C1832 C1838 1.368 1_655 S
C1833 C1817 1.376 . S
C1833 H1825 0.950 . S
C1833 C1831 1.327 . S
C1834 C1822 1.363 . S
C1834 H1828 0.940 1_455 S
C1834 C1835 1.323 . S
C1835 H1829 0.950 1_455 S
C1835 C1834 1.323 . S
C1835 C1839 1.429 . S
C1836 C1819 1.574 . S
C1836 H1830 0.949 . S
C1836 C1840 1.368 . S
C1837 C1818 1.429 1_455 S
C1837 C1831 1.429 . S
C1837 C1838 1.523 . S
C1838 C1819 1.368 . S
C1838 C1832 1.368 1_455 S
C1838 C1837 1.523 . S
C1839 C1823 1.429 . S
C1839 C1835 1.429 . S
C1839 C1840 1.523 . S
C1840 C1824 1.346 1_455 S
C1840 C1836 1.368 . S
C1840 C1839 1.523 . S
H1841 C1816 0.950 . S
H1842 C1818 0.950 . S
H1843 C1819 0.949 . S
H1844 C1821 0.950 . S
H1845 C1823 0.950 . S
C1846 C1847 1.349 . S
C1846 C1848 1.327 . S
C1846 H1871 0.950 . S
C1847 C1846 1.349 . S
C1847 C1863 1.349 . S
C1848 C1846 1.327 . S
C1848 C1867 1.429 . S
C1848 H1872 0.950 . S
C1849 C1866 1.574 . S
C1849 C1868 1.368 . S
C1849 H1873 0.949 . S
H1850 C1854 0.949 . S
C1851 C1852 1.349 . S
C1851 C1853 1.327 . S
C1851 H1874 0.950 . S
C1852 C1851 1.349 . S
C1852 C1864 1.349 . S
C1853 C1851 1.327 . S
C1853 C1869 1.429 . S
C1853 H1875 0.950 . S
C1854 H1850 0.949 . S
C1854 C1862 1.574 . S
C1854 C1870 1.368 . S
H1855 C1863 0.950 . S
H1856 C1861 0.950 . S
H1857 C1862 0.949 . S
H1858 C1864 0.950 . S
H1859 C1865 0.950 . S
H1860 C1866 0.949 . S
C1861 H1856 0.950 . S
C1861 C1863 1.327 . S
C1861 C1867 1.429 . S
C1862 C1854 1.574 . S
C1862 H1857 0.949 . S
C1862 C1868 1.368 . S
C1863 C1847 1.349 . S
C1863 H1855 0.950 . S
C1863 C1861 1.327 . S
C1864 C1852 1.349 . S
C1864 H1858 0.950 . S
C1864 C1865 1.327 . S
C1865 H1859 0.950 . S
C1865 C1864 1.327 . S
C1865 C1869 1.429 . S
C1866 C1849 1.574 . S
C1866 H1860 0.949 . S
C1866 C1870 1.368 . S
C1867 C1848 1.429 . S
C1867 C1861 1.429 . S
C1867 C1868 1.523 . S
C1868 C1849 1.368 . S
C1868 C1862 1.368 . S
C1868 C1867 1.523 . S
C1869 C1853 1.429 . S
C1869 C1865 1.429 . S
C1869 C1870 1.523 . S
C1870 C1854 1.368 . S
C1870 C1866 1.368 . S
C1870 C1869 1.523 . S
H1871 C1846 0.950 . S
H1872 C1848 0.950 . S
H1873 C1849 0.949 . S
H1874 C1851 0.950 . S
H1875 C1853 0.950 . S
C1876 C1877 1.349 . S
C1876 C1878 1.327 . S
C1876 H1901 0.950 . S
C1877 C1876 1.349 . S
C1877 C1893 1.349 . S
C1878 C1876 1.327 . S
C1878 C1897 1.429 . S
C1878 H1902 0.950 . S
C1879 C1896 1.574 . S
C1879 C1898 1.368 . S
C1879 H1903 0.949 . S
H1880 C1884 0.949 . S
C1881 C1882 1.349 . S
C1881 C1883 1.327 1_554 S
C1881 H1904 0.950 . S
C1882 C1881 1.349 . S
C1882 C1894 1.349 1_554 S
C1883 C1881 1.327 1_556 S
C1883 C1899 1.429 . S
C1883 H1905 0.950 1_556 S
C1884 H1880 0.949 . S
C1884 C1892 1.574 . S
C1884 C1900 1.368 . S
H1885 C1893 0.950 . S
H1886 C1891 0.950 . S
H1887 C1892 0.949 . S
H1888 C1894 0.950 . S
H1889 C1895 0.950 . S
H1890 C1896 0.949 . S
C1891 H1886 0.950 . S
C1891 C1893 1.327 . S
C1891 C1897 1.429 . S
C1892 C1884 1.574 . S
C1892 H1887 0.949 . S
C1892 C1898 1.368 . S
C1893 C1877 1.349 . S
C1893 H1885 0.950 . S
C1893 C1891 1.327 . S
C1894 C1882 1.349 1_556 S
C1894 H1888 0.950 . S
C1894 C1895 1.327 . S
C1895 H1889 0.950 . S
C1895 C1894 1.327 . S
C1895 C1899 1.429 . S
C1896 C1879 1.574 . S
C1896 H1890 0.949 . S
C1896 C1900 1.368 . S
C1897 C1878 1.429 . S
C1897 C1891 1.429 . S
C1897 C1898 1.523 . S
C1898 C1879 1.368 . S
C1898 C1892 1.368 . S
C1898 C1897 1.523 . S
C1899 C1883 1.429 . S
C1899 C1895 1.429 . S
C1899 C1900 1.523 . S
C1900 C1884 1.368 . S
C1900 C1896 1.368 . S
C1900 C1899 1.523 . S
H1901 C1876 0.950 . S
H1902 C1878 0.950 . S
H1903 C1879 0.949 . S
H1904 C1881 0.950 . S
H1905 C1883 0.950 1_554 S
C1906 C1907 1.346 . S
C1906 C1908 1.332 1_455 S
C1906 H1931 0.949 . S
C1907 C1906 1.346 . S
C1907 C1923 1.349 . S
C1908 C1906 1.332 1_655 S
C1908 C1927 1.429 . S
C1908 H1932 0.950 . S
C1909 C1926 1.574 . S
C1909 C1928 1.368 . S
C1909 H1933 0.949 . S
H1910 C1914 0.949 . S
C1911 C1912 1.349 . S
C1911 C1913 1.327 . S
C1911 H1934 0.950 . S
C1912 C1911 1.349 . S
C1912 C1924 1.349 . S
C1913 C1911 1.327 . S
C1913 C1929 1.429 . S
C1913 H1935 0.950 . S
C1914 H1910 0.949 . S
C1914 C1922 1.574 . S
C1914 C1930 1.368 . S
H1915 C1923 0.950 . S
H1916 C1921 0.950 . S
H1917 C1922 0.949 . S
H1918 C1924 0.950 . S
H1919 C1925 0.950 . S
H1920 C1926 0.949 . S
C1921 H1916 0.950 . S
C1921 C1923 1.327 1_655 S
C1921 C1927 1.429 . S
C1922 C1914 1.574 . S
C1922 H1917 0.949 . S
C1922 C1928 1.368 . S
C1923 C1907 1.349 . S
C1923 H1915 0.950 . S
C1923 C1921 1.327 1_455 S
C1924 C1912 1.349 . S
C1924 H1918 0.950 . S
C1924 C1925 1.327 . S
C1925 H1919 0.950 . S
C1925 C1924 1.327 . S
C1925 C1929 1.429 . S
C1926 C1909 1.574 . S
C1926 H1920 0.949 . S
C1926 C1930 1.368 . S
C1927 C1908 1.429 . S
C1927 C1921 1.429 . S
C1927 C1928 1.523 . S
C1928 C1909 1.368 . S
C1928 C1922 1.368 . S
C1928 C1927 1.523 . S
C1929 C1913 1.429 . S
C1929 C1925 1.429 . S
C1929 C1930 1.523 . S
C1930 C1914 1.368 . S
C1930 C1926 1.368 . S
C1930 C1929 1.523 . S
H1931 C1906 0.949 . S
H1932 C1908 0.950 . S
H1933 C1909 0.949 . S
H1934 C1911 0.950 . S
H1935 C1913 0.950 . S
C1936 C1937 1.349 . S
C1936 C1938 1.327 . S
C1936 H1961 0.955 . S
C1937 C1936 1.349 . S
C1937 C1953 1.349 . S
C1938 C1936 1.327 . S
C1938 C1957 1.429 . S
C1938 H1962 0.950 1_545 S
C1939 C1956 1.574 . S
C1939 C1958 1.368 . S
C1939 H1963 0.949 . S
H1940 C1944 0.949 1_565 S
C1941 C1942 1.349 . S
C1941 C1943 1.327 . S
C1941 H1964 0.950 . S
C1942 C1941 1.349 . S
C1942 C1954 1.349 1_545 S
C1943 C1941 1.327 . S
C1943 C1959 1.429 . S
C1943 H1965 0.950 . S
C1944 H1940 0.949 1_545 S
C1944 C1952 1.574 . S
C1944 C1960 1.368 . S
H1945 C1953 0.950 . S
H1946 C1951 0.950 . S
H1947 C1952 0.949 1_565 S
H1948 C1954 0.950 . S
H1949 C1955 0.961 . S
H1950 C1956 0.949 . S
C1951 H1946 0.950 . S
C1951 C1953 1.327 . S
C1951 C1957 1.429 . S
C1952 C1944 1.574 . S
C1952 H1947 0.949 1_545 S
C1952 C1958 1.368 . S
C1953 C1937 1.349 . S
C1953 H1945 0.950 . S
C1953 C1951 1.327 . S
C1954 C1942 1.349 1_565 S
C1954 H1948 0.950 . S
C1954 C1955 1.328 . S
C1955 H1949 0.961 . S
C1955 C1954 1.328 . S
C1955 C1959 1.416 1_565 S
C1956 C1939 1.574 . S
C1956 H1950 0.949 . S
C1956 C1960 1.368 . S
C1957 C1938 1.429 . S
C1957 C1951 1.429 . S
C1957 C1958 1.523 . S
C1958 C1939 1.368 . S
C1958 C1952 1.368 . S
C1958 C1957 1.523 . S
C1959 C1943 1.429 . S
C1959 C1955 1.416 1_545 S
C1959 C1960 1.523 . S
C1960 C1944 1.368 . S
C1960 C1956 1.368 . S
C1960 C1959 1.523 . S
H1961 C1936 0.955 . S
H1962 C1938 0.950 1_565 S
H1963 C1939 0.949 . S
H1964 C1941 0.950 . S
H1965 C1943 0.950 . S
C1966 C1967 1.349 . S
C1966 C1968 1.327 . S
C1966 H1991 0.950 . S
C1967 C1966 1.349 . S
C1967 C1983 1.349 . S
C1968 C1966 1.327 . S
C1968 C1987 1.429 . S
C1968 H1992 0.950 . S
C1969 C1986 1.574 . S
C1969 C1988 1.368 . S
C1969 H1993 0.949 . S
H1970 C1974 0.949 . S
C1971 C1972 1.349 . S
C1971 C1973 1.327 . S
C1971 H1994 0.950 . S
C1972 C1971 1.349 . S
C1972 C1984 1.349 . S
C1973 C1971 1.327 . S
C1973 C1989 1.429 . S
C1973 H1995 0.950 . S
C1974 H1970 0.949 . S
C1974 C1982 1.574 . S
C1974 C1990 1.368 . S
H1975 C1983 0.950 . S
H1976 C1981 0.950 . S
H1977 C1982 0.949 . S
H1978 C1984 0.950 . S
H1979 C1985 0.950 . S
H1980 C1986 0.949 . S
C1981 H1976 0.950 . S
C1981 C1983 1.327 . S
C1981 C1987 1.429 . S
C1982 C1974 1.574 . S
C1982 H1977 0.949 . S
C1982 C1988 1.368 . S
C1983 C1967 1.349 . S
C1983 H1975 0.950 . S
C1983 C1981 1.327 . S
C1984 C1972 1.349 . S
C1984 H1978 0.950 . S
C1984 C1985 1.327 . S
C1985 H1979 0.950 . S
C1985 C1984 1.327 . S
C1985 C1989 1.429 . S
C1986 C1969 1.574 . S
C1986 H1980 0.949 . S
C1986 C1990 1.368 . S
C1987 C1968 1.429 . S
C1987 C1981 1.429 . S
C1987 C1988 1.523 . S
C1988 C1969 1.368 . S
C1988 C1982 1.368 . S
C1988 C1987 1.523 . S
C1989 C1973 1.429 . S
C1989 C1985 1.429 . S
C1989 C1990 1.523 . S
C1990 C1974 1.368 . S
C1990 C1986 1.368 . S
C1990 C1989 1.523 . S
H1991 C1966 0.950 . S
H1992 C1968 0.950 . S
H1993 C1969 0.949 . S
H1994 C1971 0.950 . S
H1995 C1973 0.950 . S
C1996 C1997 1.349 . S
C1996 C1998 1.327 . S
C1996 H2021 0.950 . S
C1997 C1996 1.349 . S
C1997 C2013 1.349 . S
C1998 C1996 1.327 . S
C1998 C2017 1.429 . S
C1998 H2022 0.950 . S
C1999 C2016 1.574 . S
C1999 C2018 1.368 . S
C1999 H2023 0.949 1_545 S
H2000 C2004 0.949 . S
C2001 C2002 1.349 . S
C2001 C2003 1.327 . S
C2001 H2024 0.950 1_545 S
C2002 C2001 1.349 . S
C2002 C2014 1.349 . S
C2003 C2001 1.327 . S
C2003 C2019 1.429 . S
C2003 H2025 0.950 1_545 S
C2004 H2000 0.949 . S
C2004 C2012 1.574 . S
C2004 C2020 1.368 . S
H2005 C2013 0.950 1_565 S
H2006 C2011 0.950 1_565 S
H2007 C2012 0.949 . S
H2008 C2014 0.950 . S
H2009 C2015 0.950 . S
H2010 C2016 0.949 1_565 S
C2011 H2006 0.950 1_545 S
C2011 C2013 1.327 . S
C2011 C2017 1.429 . S
C2012 C2004 1.574 . S
C2012 H2007 0.949 . S
C2012 C2018 1.368 . S
C2013 C1997 1.349 . S
C2013 H2005 0.950 1_545 S
C2013 C2011 1.327 . S
C2014 C2002 1.349 . S
C2014 H2008 0.950 . S
C2014 C2015 1.327 . S
C2015 H2009 0.950 . S
C2015 C2014 1.327 . S
C2015 C2019 1.429 . S
C2016 C1999 1.574 . S
C2016 H2010 0.949 1_545 S
C2016 C2020 1.368 . S
C2017 C1998 1.429 . S
C2017 C2011 1.429 . S
C2017 C2018 1.523 . S
C2018 C1999 1.368 . S
C2018 C2012 1.368 . S
C2018 C2017 1.523 . S
C2019 C2003 1.429 . S
C2019 C2015 1.429 . S
C2019 C2020 1.523 . S
C2020 C2004 1.368 . S
C2020 C2016 1.368 . S
C2020 C2019 1.523 . S
H2021 C1996 0.950 . S
H2022 C1998 0.950 . S
H2023 C1999 0.949 1_565 S
H2024 C2001 0.950 1_565 S
H2025 C2003 0.950 1_565 S
C2026 C2027 1.349 . S
C2026 C2028 1.327 . S
C2026 H2051 0.950 . S
C2027 C2026 1.349 . S
C2027 C2043 1.349 . S
C2028 C2026 1.327 . S
C2028 C2047 1.429 . S
C2028 H2052 0.950 . S
C2029 C2046 1.574 . S
C2029 C2048 1.368 . S
C2029 H2053 0.949 . S
H2030 C2034 0.949 . S
C2031 C2032 1.349 . S
C2031 C2033 1.327 . S
C2031 H2054 0.950 . S
C2032 C2031 1.349 . S
C2032 C2044 1.349 . S
C2033 C2031 1.327 . S
C2033 C2049 1.429 . S
C2033 H2055 0.950 . S
C2034 H2030 0.949 . S
C2034 C2042 1.574 . S
C2034 C2050 1.368 . S
H2035 C2043 0.950 . S
H2036 C2041 0.950 . S
H2037 C2042 0.949 . S
H2038 C2044 0.950 . S
H2039 C2045 0.950 . S
H2040 C2046 0.949 . S
C2041 H2036 0.950 . S
C2041 C2043 1.327 . S
C2041 C2047 1.429 . S
C2042 C2034 1.574 . S
C2042 H2037 0.949 . S
C2042 C2048 1.368 . S
C2043 C2027 1.349 . S
C2043 H2035 0.950 . S
C2043 C2041 1.327 . S
C2044 C2032 1.349 . S
C2044 H2038 0.950 . S
C2044 C2045 1.327 . S
C2045 H2039 0.950 . S
C2045 C2044 1.327 . S
C2045 C2049 1.429 . S
C2046 C2029 1.574 . S
C2046 H2040 0.949 . S
C2046 C2050 1.368 . S
C2047 C2028 1.429 . S
C2047 C2041 1.429 . S
C2047 C2048 1.523 . S
C2048 C2029 1.368 . S
C2048 C2042 1.368 . S
C2048 C2047 1.523 . S
C2049 C2033 1.429 . S
C2049 C2045 1.429 . S
C2049 C2050 1.523 . S
C2050 C2034 1.368 . S
C2050 C2046 1.368 . S
C2050 C2049 1.523 . S
H2051 C2026 0.950 . S
H2052 C2028 0.950 . S
H2053 C2029 0.949 . S
H2054 C2031 0.950 . S
H2055 C2033 0.950 . S
C2056 C2057 1.349 . S
C2056 C2058 1.327 . S
C2056 H2081 0.950 1_545 S
C2057 C2056 1.349 . S
C2057 C2073 1.349 . S
C2058 C2056 1.327 . S
C2058 C2077 1.429 . S
C2058 H2082 0.950 1_545 S
C2059 C2076 1.574 . S
C2059 C2078 1.368 . S
C2059 H2083 0.949 . S
H2060 C2064 0.971 . S
C2061 C2062 1.349 . S
C2061 C2063 1.327 . S
C2061 H2084 0.950 . S
C2062 C2061 1.349 . S
C2062 C2074 1.349 1_545 S
C2063 C2061 1.327 . S
C2063 C2079 1.429 . S
C2063 H2085 0.950 . S
C2064 H2060 0.971 . S
C2064 C2072 1.581 1_565 S
C2064 C2080 1.338 1_565 S
H2065 C2073 0.950 . S
H2066 C2071 0.950 . S
H2067 C2072 0.946 1_565 S
H2068 C2074 0.950 . S
H2069 C2075 0.950 . S
H2070 C2076 0.949 . S
C2071 H2066 0.950 . S
C2071 C2073 1.327 . S
C2071 C2077 1.429 . S
C2072 C2064 1.581 1_545 S
C2072 H2067 0.946 1_545 S
C2072 C2078 1.371 . S
C2073 C2057 1.349 . S
C2073 H2065 0.950 . S
C2073 C2071 1.327 . S
C2074 C2062 1.349 1_565 S
C2074 H2068 0.950 . S
C2074 C2075 1.327 . S
C2075 H2069 0.950 . S
C2075 C2074 1.327 . S
C2075 C2079 1.429 1_565 S
C2076 C2059 1.574 . S
C2076 H2070 0.949 . S
C2076 C2080 1.368 . S
C2077 C2058 1.429 . S
C2077 C2071 1.429 . S
C2077 C2078 1.523 . S
C2078 C2059 1.368 . S
C2078 C2072 1.371 . S
C2078 C2077 1.523 . S
C2079 C2063 1.429 . S
C2079 C2075 1.429 1_545 S
C2079 C2080 1.523 . S
C2080 C2064 1.338 1_545 S
C2080 C2076 1.368 . S
C2080 C2079 1.523 . S
H2081 C2056 0.950 1_565 S
H2082 C2058 0.950 1_565 S
H2083 C2059 0.949 . S
H2084 C2061 0.950 . S
H2085 C2063 0.950 . S
C2086 C2087 1.349 . S
C2086 C2088 1.327 . S
C2086 H2111 0.950 . S
C2087 C2086 1.349 . S
C2087 C2103 1.349 . S
C2088 C2086 1.327 . S
C2088 C2107 1.429 . S
C2088 H2112 0.950 . S
C2089 C2106 1.574 . S
C2089 C2108 1.368 . S
C2089 H2113 0.949 . S
H2090 C2094 0.949 . S
C2091 C2092 1.349 . S
C2091 C2093 1.327 . S
C2091 H2114 0.950 . S
C2092 C2091 1.349 . S
C2092 C2104 1.349 . S
C2093 C2091 1.327 . S
C2093 C2109 1.429 . S
C2093 H2115 0.950 . S
C2094 H2090 0.949 . S
C2094 C2102 1.574 . S
C2094 C2110 1.368 . S
H2095 C2103 0.950 . S
H2096 C2101 0.950 . S
H2097 C2102 0.949 . S
H2098 C2104 0.950 . S
H2099 C2105 0.950 . S
H2100 C2106 0.949 . S
C2101 H2096 0.950 . S
C2101 C2103 1.327 . S
C2101 C2107 1.429 . S
C2102 C2094 1.574 . S
C2102 H2097 0.949 . S
C2102 C2108 1.368 . S
C2103 C2087 1.349 . S
C2103 H2095 0.950 . S
C2103 C2101 1.327 . S
C2104 C2092 1.349 . S
C2104 H2098 0.950 . S
C2104 C2105 1.327 . S
C2105 H2099 0.950 . S
C2105 C2104 1.327 . S
C2105 C2109 1.429 . S
C2106 C2089 1.574 . S
C2106 H2100 0.949 . S
C2106 C2110 1.368 . S
C2107 C2088 1.429 . S
C2107 C2101 1.429 . S
C2107 C2108 1.523 . S
C2108 C2089 1.368 . S
C2108 C2102 1.368 . S
C2108 C2107 1.523 . S
C2109 C2093 1.429 . S
C2109 C2105 1.429 . S
C2109 C2110 1.523 . S
C2110 C2094 1.368 . S
C2110 C2106 1.368 . S
C2110 C2109 1.523 . S
H2111 C2086 0.950 . S
H2112 C2088 0.950 . S
H2113 C2089 0.949 . S
H2114 C2091 0.950 . S
H2115 C2093 0.950 . S
C2116 C2117 1.349 . S
C2116 C2118 1.325 1_545 S
C2116 H2141 0.950 1_545 S
C2117 C2116 1.349 . S
C2117 C2133 1.349 . S
C2118 C2116 1.325 1_565 S
C2118 C2137 1.413 1_565 S
C2118 H2142 0.969 . S
C2119 C2136 1.574 . S
C2119 C2138 1.368 . S
C2119 H2143 0.949 . S
H2120 C2124 0.949 . S
C2121 C2122 1.349 . S
C2121 C2123 1.327 . S
C2121 H2144 0.950 . S
C2122 C2121 1.349 . S
C2122 C2134 1.349 1_545 S
C2123 C2121 1.327 . S
C2123 C2139 1.429 . S
C2123 H2145 0.950 . S
C2124 H2120 0.949 . S
C2124 C2132 1.574 . S
C2124 C2140 1.368 1_565 S
H2125 C2133 0.950 . S
H2126 C2131 0.950 . S
H2127 C2132 0.949 . S
H2128 C2134 0.950 . S
H2129 C2135 0.950 . S
H2130 C2136 0.949 . S
C2131 H2126 0.950 . S
C2131 C2133 1.327 . S
C2131 C2137 1.429 . S
C2132 C2124 1.574 . S
C2132 H2127 0.949 . S
C2132 C2138 1.368 1_565 S
C2133 C2117 1.349 . S
C2133 H2125 0.950 . S
C2133 C2131 1.327 . S
C2134 C2122 1.349 1_565 S
C2134 H2128 0.950 . S
C2134 C2135 1.327 . S
C2135 H2129 0.950 . S
C2135 C2134 1.327 . S
C2135 C2139 1.429 1_565 S
C2136 C2119 1.574 . S
C2136 H2130 0.949 . S
C2136 C2140 1.368 . S
C2137 C2118 1.413 1_545 S
C2137 C2131 1.429 . S
C2137 C2138 1.523 . S
C2138 C2119 1.368 . S
C2138 C2132 1.368 1_545 S
C2138 C2137 1.523 . S
C2139 C2123 1.429 . S
C2139 C2135 1.429 1_545 S
C2139 C2140 1.523 . S
C2140 C2124 1.368 1_545 S
C2140 C2136 1.368 . S
C2140 C2139 1.523 . S
H2141 C2116 0.950 1_565 S
H2142 C2118 0.969 . S
H2143 C2119 0.949 . S
H2144 C2121 0.950 . S
H2145 C2123 0.950 . S
C2146 C2147 1.349 . S
C2146 C2148 1.327 . S
C2146 H2171 0.950 . S
C2147 C2146 1.349 . S
C2147 C2163 1.349 . S
C2148 C2146 1.327 . S
C2148 C2167 1.429 . S
C2148 H2172 0.950 . S
C2149 C2166 1.574 . S
C2149 C2168 1.368 . S
C2149 H2173 0.949 . S
H2150 C2154 0.949 . S
C2151 C2152 1.349 . S
C2151 C2153 1.327 . S
C2151 H2174 0.950 . S
C2152 C2151 1.349 . S
C2152 C2164 1.349 . S
C2153 C2151 1.327 . S
C2153 C2169 1.429 . S
C2153 H2175 0.950 . S
C2154 H2150 0.949 . S
C2154 C2162 1.574 . S
C2154 C2170 1.368 . S
H2155 C2163 0.950 . S
H2156 C2161 0.950 . S
H2157 C2162 0.949 . S
H2158 C2164 0.950 . S
H2159 C2165 0.950 . S
H2160 C2166 0.949 . S
C2161 H2156 0.950 . S
C2161 C2163 1.327 . S
C2161 C2167 1.429 . S
C2162 C2154 1.574 . S
C2162 H2157 0.949 . S
C2162 C2168 1.368 . S
C2163 C2147 1.349 . S
C2163 H2155 0.950 . S
C2163 C2161 1.327 . S
C2164 C2152 1.349 . S
C2164 H2158 0.950 . S
C2164 C2165 1.327 . S
C2165 H2159 0.950 . S
C2165 C2164 1.327 . S
C2165 C2169 1.429 . S
C2166 C2149 1.574 . S
C2166 H2160 0.949 . S
C2166 C2170 1.368 . S
C2167 C2148 1.429 . S
C2167 C2161 1.429 . S
C2167 C2168 1.523 . S
C2168 C2149 1.368 . S
C2168 C2162 1.368 . S
C2168 C2167 1.523 . S
C2169 C2153 1.429 . S
C2169 C2165 1.429 . S
C2169 C2170 1.523 . S
C2170 C2154 1.368 . S
C2170 C2166 1.368 . S
C2170 C2169 1.523 . S
H2171 C2146 0.950 . S
H2172 C2148 0.950 . S
H2173 C2149 0.949 . S
H2174 C2151 0.950 . S
H2175 C2153 0.950 . S
C2176 C2177 1.349 . S
C2176 C2178 1.327 . S
C2176 H2201 0.950 . S
C2177 C2176 1.349 . S
C2177 C2193 1.349 . S
C2178 C2176 1.327 . S
C2178 C2197 1.429 . S
C2178 H2202 0.950 . S
C2179 C2196 1.574 . S
C2179 C2198 1.368 . S
C2179 H2203 0.949 . S
H2180 C2184 0.949 . S
C2181 C2182 1.358 . S
C2181 C2183 1.327 . S
C2181 H2204 0.950 . S
C2182 C2181 1.358 . S
C2182 C2194 1.344 1_554 S
C2183 C2181 1.327 . S
C2183 C2199 1.429 . S
C2183 H2205 0.950 . S
C2184 H2180 0.949 . S
C2184 C2192 1.574 . S
C2184 C2200 1.368 . S
H2185 C2193 0.950 . S
H2186 C2191 0.950 . S
H2187 C2192 0.949 . S
H2188 C2194 0.950 . S
H2189 C2195 0.950 1_556 S
H2190 C2196 0.949 . S
C2191 H2186 0.950 . S
C2191 C2193 1.327 . S
C2191 C2197 1.429 . S
C2192 C2184 1.574 . S
C2192 H2187 0.949 . S
C2192 C2198 1.368 . S
C2193 C2177 1.349 . S
C2193 H2185 0.950 . S
C2193 C2191 1.327 . S
C2194 C2182 1.344 1_556 S
C2194 H2188 0.950 . S
C2194 C2195 1.327 1_556 S
C2195 H2189 0.950 1_554 S
C2195 C2194 1.327 1_554 S
C2195 C2199 1.429 . S
C2196 C2179 1.574 . S
C2196 H2190 0.949 . S
C2196 C2200 1.368 . S
C2197 C2178 1.429 . S
C2197 C2191 1.429 . S
C2197 C2198 1.523 . S
C2198 C2179 1.368 . S
C2198 C2192 1.368 . S
C2198 C2197 1.523 . S
C2199 C2183 1.429 . S
C2199 C2195 1.429 . S
C2199 C2200 1.523 . S
C2200 C2184 1.368 . S
C2200 C2196 1.368 . S
C2200 C2199 1.523 . S
H2201 C2176 0.950 . S
H2202 C2178 0.950 . S
H2203 C2179 0.949 . S
H2204 C2181 0.950 . S
H2205 C2183 0.950 . S
C2206 C2207 1.349 . S
C2206 C2208 1.327 . S
C2206 H2231 0.950 . S
C2207 C2206 1.349 . S
C2207 C2223 1.349 . S
C2208 C2206 1.327 . S
C2208 C2227 1.429 . S
C2208 H2232 0.950 . S
C2209 C2226 1.574 . S
C2209 C2228 1.368 . S
C2209 H2233 0.949 . S
H2210 C2214 0.949 . S
C2211 C2212 1.349 . S
C2211 C2213 1.327 . S
C2211 H2234 0.950 . S
C2212 C2211 1.349 . S
C2212 C2224 1.349 . S
C2213 C2211 1.327 . S
C2213 C2229 1.429 . S
C2213 H2235 0.950 . S
C2214 H2210 0.949 . S
C2214 C2222 1.574 . S
C2214 C2230 1.368 . S
H2215 C2223 0.950 . S
H2216 C2221 0.950 . S
H2217 C2222 0.949 . S
H2218 C2224 0.950 . S
H2219 C2225 0.950 . S
H2220 C2226 0.949 . S
C2221 H2216 0.950 . S
C2221 C2223 1.327 . S
C2221 C2227 1.429 . S
C2222 C2214 1.574 . S
C2222 H2217 0.949 . S
C2222 C2228 1.368 . S
C2223 C2207 1.349 . S
C2223 H2215 0.950 . S
C2223 C2221 1.327 . S
C2224 C2212 1.349 . S
C2224 H2218 0.950 . S
C2224 C2225 1.327 . S
C2225 H2219 0.950 . S
C2225 C2224 1.327 . S
C2225 C2229 1.429 . S
C2226 C2209 1.574 . S
C2226 H2220 0.949 . S
C2226 C2230 1.368 . S
C2227 C2208 1.429 . S
C2227 C2221 1.429 . S
C2227 C2228 1.523 . S
C2228 C2209 1.368 . S
C2228 C2222 1.368 . S
C2228 C2227 1.523 . S
C2229 C2213 1.429 . S
C2229 C2225 1.429 . S
C2229 C2230 1.523 . S
C2230 C2214 1.368 . S
C2230 C2226 1.368 . S
C2230 C2229 1.523 . S
H2231 C2206 0.950 . S
H2232 C2208 0.950 . S
H2233 C2209 0.949 . S
H2234 C2211 0.950 . S
H2235 C2213 0.950 . S
C2236 C2237 1.349 . S
C2236 C2238 1.327 . S
C2236 H2261 0.950 . S
C2237 C2236 1.349 . S
C2237 C2253 1.349 . S
C2238 C2236 1.327 . S
C2238 C2257 1.429 . S
C2238 H2262 0.950 . S
C2239 C2256 1.574 . S
C2239 C2258 1.368 . S
C2239 H2263 0.949 . S
H2240 C2244 0.949 . S
C2241 C2242 1.349 . S
C2241 C2243 1.327 . S
C2241 H2264 0.950 . S
C2242 C2241 1.349 . S
C2242 C2254 1.349 . S
C2243 C2241 1.327 . S
C2243 C2259 1.429 . S
C2243 H2265 0.950 . S
C2244 H2240 0.949 . S
C2244 C2252 1.574 . S
C2244 C2260 1.368 . S
H2245 C2253 0.950 . S
H2246 C2251 0.950 . S
H2247 C2252 0.949 . S
H2248 C2254 0.950 . S
H2249 C2255 0.950 . S
H2250 C2256 0.949 . S
C2251 H2246 0.950 . S
C2251 C2253 1.327 . S
C2251 C2257 1.429 . S
C2252 C2244 1.574 . S
C2252 H2247 0.949 . S
C2252 C2258 1.368 . S
C2253 C2237 1.349 . S
C2253 H2245 0.950 . S
C2253 C2251 1.327 . S
C2254 C2242 1.349 . S
C2254 H2248 0.950 . S
C2254 C2255 1.327 . S
C2255 H2249 0.950 . S
C2255 C2254 1.327 . S
C2255 C2259 1.429 . S
C2256 C2239 1.574 . S
C2256 H2250 0.949 . S
C2256 C2260 1.368 . S
C2257 C2238 1.429 . S
C2257 C2251 1.429 . S
C2257 C2258 1.523 . S
C2258 C2239 1.368 . S
C2258 C2252 1.368 . S
C2258 C2257 1.523 . S
C2259 C2243 1.429 . S
C2259 C2255 1.429 . S
C2259 C2260 1.523 . S
C2260 C2244 1.368 . S
C2260 C2256 1.368 . S
C2260 C2259 1.523 . S
H2261 C2236 0.950 . S
H2262 C2238 0.950 . S
H2263 C2239 0.949 . S
H2264 C2241 0.950 . S
H2265 C2243 0.950 . S
C2266 C2267 1.349 . S
C2266 C2268 1.327 . S
C2266 H2291 0.950 . S
C2267 C2266 1.349 . S
C2267 C2283 1.349 . S
C2268 C2266 1.327 . S
C2268 C2287 1.429 . S
C2268 H2292 0.950 . S
C2269 C2286 1.574 . S
C2269 C2288 1.368 . S
C2269 H2293 0.949 . S
H2270 C2274 0.949 . S
C2271 C2272 1.349 . S
C2271 C2273 1.327 . S
C2271 H2294 0.950 . S
C2272 C2271 1.349 . S
C2272 C2284 1.349 . S
C2273 C2271 1.327 . S
C2273 C2289 1.429 . S
C2273 H2295 0.950 . S
C2274 H2270 0.949 . S
C2274 C2282 1.574 . S
C2274 C2290 1.368 . S
H2275 C2283 0.950 . S
H2276 C2281 0.950 . S
H2277 C2282 0.949 . S
H2278 C2284 0.950 . S
H2279 C2285 0.950 . S
H2280 C2286 0.949 . S
C2281 H2276 0.950 . S
C2281 C2283 1.327 . S
C2281 C2287 1.429 . S
C2282 C2274 1.574 . S
C2282 H2277 0.949 . S
C2282 C2288 1.368 . S
C2283 C2267 1.349 . S
C2283 H2275 0.950 . S
C2283 C2281 1.327 . S
C2284 C2272 1.349 . S
C2284 H2278 0.950 . S
C2284 C2285 1.327 . S
C2285 H2279 0.950 . S
C2285 C2284 1.327 . S
C2285 C2289 1.429 . S
C2286 C2269 1.574 . S
C2286 H2280 0.949 . S
C2286 C2290 1.368 . S
C2287 C2268 1.429 . S
C2287 C2281 1.429 . S
C2287 C2288 1.523 . S
C2288 C2269 1.368 . S
C2288 C2282 1.368 . S
C2288 C2287 1.523 . S
C2289 C2273 1.429 . S
C2289 C2285 1.429 . S
C2289 C2290 1.523 . S
C2290 C2274 1.368 . S
C2290 C2286 1.368 . S
C2290 C2289 1.523 . S
H2291 C2266 0.950 . S
H2292 C2268 0.950 . S
H2293 C2269 0.949 . S
H2294 C2271 0.950 . S
H2295 C2273 0.950 . S
C2296 C2297 1.349 . S
C2296 C2298 1.327 . S
C2296 H2321 0.950 . S
C2297 C2296 1.349 . S
C2297 C2313 1.349 . S
C2298 C2296 1.327 . S
C2298 C2317 1.429 . S
C2298 H2322 0.950 . S
C2299 C2316 1.574 . S
C2299 C2318 1.368 . S
C2299 H2323 0.949 . S
H2300 C2304 0.949 . S
C2301 C2302 1.349 . S
C2301 C2303 1.327 . S
C2301 H2324 0.950 . S
C2302 C2301 1.349 . S
C2302 C2314 1.349 . S
C2303 C2301 1.327 . S
C2303 C2319 1.429 . S
C2303 H2325 0.950 . S
C2304 H2300 0.949 . S
C2304 C2312 1.574 . S
C2304 C2320 1.368 . S
H2305 C2313 0.950 . S
H2306 C2311 0.950 . S
H2307 C2312 0.949 . S
H2308 C2314 0.950 . S
H2309 C2315 0.950 . S
H2310 C2316 0.949 . S
C2311 H2306 0.950 . S
C2311 C2313 1.327 . S
C2311 C2317 1.429 . S
C2312 C2304 1.574 . S
C2312 H2307 0.949 . S
C2312 C2318 1.368 . S
C2313 C2297 1.349 . S
C2313 H2305 0.950 . S
C2313 C2311 1.327 . S
C2314 C2302 1.349 . S
C2314 H2308 0.950 . S
C2314 C2315 1.327 . S
C2315 H2309 0.950 . S
C2315 C2314 1.327 . S
C2315 C2319 1.429 . S
C2316 C2299 1.574 . S
C2316 H2310 0.949 . S
C2316 C2320 1.368 . S
C2317 C2298 1.429 . S
C2317 C2311 1.429 . S
C2317 C2318 1.523 . S
C2318 C2299 1.368 . S
C2318 C2312 1.368 . S
C2318 C2317 1.523 . S
C2319 C2303 1.429 . S
C2319 C2315 1.429 . S
C2319 C2320 1.523 . S
C2320 C2304 1.368 . S
C2320 C2316 1.368 . S
C2320 C2319 1.523 . S
H2321 C2296 0.950 . S
H2322 C2298 0.950 . S
H2323 C2299 0.949 . S
H2324 C2301 0.950 . S
H2325 C2303 0.950 . S
C2326 C2327 1.349 . S
C2326 C2328 1.327 . S
C2326 H2351 0.950 . S
C2327 C2326 1.349 . S
C2327 C2343 1.349 . S
C2328 C2326 1.327 . S
C2328 C2347 1.429 . S
C2328 H2352 0.950 . S
C2329 C2346 1.574 . S
C2329 C2348 1.368 . S
C2329 H2353 0.949 . S
H2330 C2334 0.949 . S
C2331 C2332 1.349 . S
C2331 C2333 1.327 . S
C2331 H2354 0.950 . S
C2332 C2331 1.349 . S
C2332 C2344 1.349 . S
C2333 C2331 1.327 . S
C2333 C2349 1.429 . S
C2333 H2355 0.950 . S
C2334 H2330 0.949 . S
C2334 C2342 1.574 . S
C2334 C2350 1.368 . S
H2335 C2343 0.950 . S
H2336 C2341 0.950 . S
H2337 C2342 0.949 . S
H2338 C2344 0.950 . S
H2339 C2345 0.950 . S
H2340 C2346 0.949 . S
C2341 H2336 0.950 . S
C2341 C2343 1.327 . S
C2341 C2347 1.429 . S
C2342 C2334 1.574 . S
C2342 H2337 0.949 . S
C2342 C2348 1.368 . S
C2343 C2327 1.349 . S
C2343 H2335 0.950 . S
C2343 C2341 1.327 . S
C2344 C2332 1.349 . S
C2344 H2338 0.950 . S
C2344 C2345 1.327 . S
C2345 H2339 0.950 . S
C2345 C2344 1.327 . S
C2345 C2349 1.429 . S
C2346 C2329 1.574 . S
C2346 H2340 0.949 . S
C2346 C2350 1.368 . S
C2347 C2328 1.429 . S
C2347 C2341 1.429 . S
C2347 C2348 1.523 . S
C2348 C2329 1.368 . S
C2348 C2342 1.368 . S
C2348 C2347 1.523 . S
C2349 C2333 1.429 . S
C2349 C2345 1.429 . S
C2349 C2350 1.523 . S
C2350 C2334 1.368 . S
C2350 C2346 1.368 . S
C2350 C2349 1.523 . S
H2351 C2326 0.950 . S
H2352 C2328 0.950 . S
H2353 C2329 0.949 . S
H2354 C2331 0.950 . S
H2355 C2333 0.950 . S
C2356 C2357 1.349 . S
C2356 C2358 1.327 . S
C2356 H2381 0.950 . S
C2357 C2356 1.349 . S
C2357 C2373 1.349 . S
C2358 C2356 1.327 . S
C2358 C2377 1.429 . S
C2358 H2382 0.950 . S
C2359 C2376 1.574 . S
C2359 C2378 1.368 . S
C2359 H2383 0.949 . S
H2360 C2364 0.949 . S
C2361 C2362 1.349 . S
C2361 C2363 1.327 . S
C2361 H2384 0.950 . S
C2362 C2361 1.349 . S
C2362 C2374 1.349 . S
C2363 C2361 1.327 . S
C2363 C2379 1.429 . S
C2363 H2385 0.950 . S
C2364 H2360 0.949 . S
C2364 C2372 1.574 . S
C2364 C2380 1.368 . S
H2365 C2373 0.950 . S
H2366 C2371 0.950 . S
H2367 C2372 0.949 . S
H2368 C2374 0.950 . S
H2369 C2375 0.950 . S
H2370 C2376 0.949 . S
C2371 H2366 0.950 . S
C2371 C2373 1.327 . S
C2371 C2377 1.429 . S
C2372 C2364 1.574 . S
C2372 H2367 0.949 . S
C2372 C2378 1.368 . S
C2373 C2357 1.349 . S
C2373 H2365 0.950 . S
C2373 C2371 1.327 . S
C2374 C2362 1.349 . S
C2374 H2368 0.950 . S
C2374 C2375 1.327 . S
C2375 H2369 0.950 . S
C2375 C2374 1.327 . S
C2375 C2379 1.429 . S
C2376 C2359 1.574 . S
C2376 H2370 0.949 . S
C2376 C2380 1.368 . S
C2377 C2358 1.429 . S
C2377 C2371 1.429 . S
C2377 C2378 1.523 . S
C2378 C2359 1.368 . S
C2378 C2372 1.368 . S
C2378 C2377 1.523 . S
C2379 C2363 1.429 . S
C2379 C2375 1.429 . S
C2379 C2380 1.523 . S
C2380 C2364 1.368 . S
C2380 C2376 1.368 . S
C2380 C2379 1.523 . S
H2381 C2356 0.950 . S
H2382 C2358 0.950 . S
H2383 C2359 0.949 . S
H2384 C2361 0.950 . S
H2385 C2363 0.950 . S
C2386 C2387 1.349 . S
C2386 C2388 1.327 . S
C2386 H2411 0.950 . S
C2387 C2386 1.349 . S
C2387 C2403 1.349 . S
C2388 C2386 1.327 . S
C2388 C2407 1.429 . S
C2388 H2412 0.950 . S
C2389 C2406 1.574 . S
C2389 C2408 1.368 . S
C2389 H2413 0.949 . S
H2390 C2394 0.949 . S
C2391 C2392 1.349 . S
C2391 C2393 1.327 . S
C2391 H2414 0.950 . S
C2392 C2391 1.349 . S
C2392 C2404 1.349 . S
C2393 C2391 1.327 . S
C2393 C2409 1.429 . S
C2393 H2415 0.950 . S
C2394 H2390 0.949 . S
C2394 C2402 1.574 . S
C2394 C2410 1.368 . S
H2395 C2403 0.950 . S
H2396 C2401 0.950 . S
H2397 C2402 0.949 . S
H2398 C2404 0.950 . S
H2399 C2405 0.950 . S
H2400 C2406 0.949 . S
C2401 H2396 0.950 . S
C2401 C2403 1.327 . S
C2401 C2407 1.429 . S
C2402 C2394 1.574 . S
C2402 H2397 0.949 . S
C2402 C2408 1.368 . S
C2403 C2387 1.349 . S
C2403 H2395 0.950 . S
C2403 C2401 1.327 . S
C2404 C2392 1.349 . S
C2404 H2398 0.950 . S
C2404 C2405 1.327 . S
C2405 H2399 0.950 . S
C2405 C2404 1.327 . S
C2405 C2409 1.429 . S
C2406 C2389 1.574 . S
C2406 H2400 0.949 . S
C2406 C2410 1.368 . S
C2407 C2388 1.429 . S
C2407 C2401 1.429 . S
C2407 C2408 1.523 . S
C2408 C2389 1.368 . S
C2408 C2402 1.368 . S
C2408 C2407 1.523 . S
C2409 C2393 1.429 . S
C2409 C2405 1.429 . S
C2409 C2410 1.523 . S
C2410 C2394 1.368 . S
C2410 C2406 1.368 . S
C2410 C2409 1.523 . S
H2411 C2386 0.950 . S
H2412 C2388 0.950 . S
H2413 C2389 0.949 . S
H2414 C2391 0.950 . S
H2415 C2393 0.950 . S
C2416 C2417 1.349 . S
C2416 C2418 1.327 . S
C2416 H2441 0.950 . S
C2417 C2416 1.349 . S
C2417 C2433 1.349 . S
C2418 C2416 1.327 . S
C2418 C2437 1.429 . S
C2418 H2442 0.950 . S
C2419 C2436 1.574 . S
C2419 C2438 1.368 . S
C2419 H2443 0.949 . S
H2420 C2424 0.949 . S
C2421 C2422 1.349 . S
C2421 C2423 1.327 . S
C2421 H2444 0.950 . S
C2422 C2421 1.349 . S
C2422 C2434 1.349 . S
C2423 C2421 1.327 . S
C2423 C2439 1.429 . S
C2423 H2445 0.950 . S
C2424 H2420 0.949 . S
C2424 C2432 1.574 . S
C2424 C2440 1.368 . S
H2425 C2433 0.950 . S
H2426 C2431 0.950 . S
H2427 C2432 0.949 . S
H2428 C2434 0.950 . S
H2429 C2435 0.950 . S
H2430 C2436 0.949 . S
C2431 H2426 0.950 . S
C2431 C2433 1.327 . S
C2431 C2437 1.429 . S
C2432 C2424 1.574 . S
C2432 H2427 0.949 . S
C2432 C2438 1.368 . S
C2433 C2417 1.349 . S
C2433 H2425 0.950 . S
C2433 C2431 1.327 . S
C2434 C2422 1.349 . S
C2434 H2428 0.950 . S
C2434 C2435 1.327 . S
C2435 H2429 0.950 . S
C2435 C2434 1.327 . S
C2435 C2439 1.429 . S
C2436 C2419 1.574 . S
C2436 H2430 0.949 . S
C2436 C2440 1.368 . S
C2437 C2418 1.429 . S
C2437 C2431 1.429 . S
C2437 C2438 1.523 . S
C2438 C2419 1.368 . S
C2438 C2432 1.368 . S
C2438 C2437 1.523 . S
C2439 C2423 1.429 . S
C2439 C2435 1.429 . S
C2439 C2440 1.523 . S
C2440 C2424 1.368 . S
C2440 C2436 1.368 . S
C2440 C2439 1.523 . S
H2441 C2416 0.950 . S
H2442 C2418 0.950 . S
H2443 C2419 0.949 . S
H2444 C2421 0.950 . S
H2445 C2423 0.950 . S
C2446 C2447 1.349 . S
C2446 C2448 1.327 . S
C2446 H2471 0.950 . S
C2447 C2446 1.349 . S
C2447 C2463 1.349 . S
C2448 C2446 1.327 . S
C2448 C2467 1.429 . S
C2448 H2472 0.950 . S
C2449 C2466 1.574 . S
C2449 C2468 1.368 . S
C2449 H2473 0.949 . S
H2450 C2454 0.949 . S
C2451 C2452 1.349 . S
C2451 C2453 1.327 . S
C2451 H2474 0.950 . S
C2452 C2451 1.349 . S
C2452 C2464 1.349 . S
C2453 C2451 1.327 . S
C2453 C2469 1.429 . S
C2453 H2475 0.950 . S
C2454 H2450 0.949 . S
C2454 C2462 1.574 . S
C2454 C2470 1.368 . S
H2455 C2463 0.950 . S
H2456 C2461 0.950 . S
H2457 C2462 0.949 . S
H2458 C2464 0.950 . S
H2459 C2465 0.950 . S
H2460 C2466 0.949 . S
C2461 H2456 0.950 . S
C2461 C2463 1.327 . S
C2461 C2467 1.429 . S
C2462 C2454 1.574 . S
C2462 H2457 0.949 . S
C2462 C2468 1.368 . S
C2463 C2447 1.349 . S
C2463 H2455 0.950 . S
C2463 C2461 1.327 . S
C2464 C2452 1.349 . S
C2464 H2458 0.950 . S
C2464 C2465 1.327 . S
C2465 H2459 0.950 . S
C2465 C2464 1.327 . S
C2465 C2469 1.429 . S
C2466 C2449 1.574 . S
C2466 H2460 0.949 . S
C2466 C2470 1.368 . S
C2467 C2448 1.429 . S
C2467 C2461 1.429 . S
C2467 C2468 1.523 . S
C2468 C2449 1.368 . S
C2468 C2462 1.368 . S
C2468 C2467 1.523 . S
C2469 C2453 1.429 . S
C2469 C2465 1.429 . S
C2469 C2470 1.523 . S
C2470 C2454 1.368 . S
C2470 C2466 1.368 . S
C2470 C2469 1.523 . S
H2471 C2446 0.950 . S
H2472 C2448 0.950 . S
H2473 C2449 0.949 . S
H2474 C2451 0.950 . S
H2475 C2453 0.950 . S
C2476 C2477 1.349 . S
C2476 C2478 1.327 . S
C2476 H2501 0.953 1_455 S
C2477 C2476 1.349 . S
C2477 C2493 1.349 . S
C2478 C2476 1.327 . S
C2478 C2497 1.429 . S
C2478 H2502 0.950 . S
C2479 C2496 1.574 . S
C2479 C2498 1.368 . S
C2479 H2503 0.949 . S
H2480 C2484 0.949 . S
C2481 C2482 1.349 . S
C2481 C2483 1.327 . S
C2481 H2504 0.950 . S
C2482 C2481 1.349 . S
C2482 C2494 1.349 1_554 S
C2483 C2481 1.327 . S
C2483 C2499 1.429 1_554 S
C2483 H2505 0.950 . S
C2484 H2480 0.949 . S
C2484 C2492 1.574 . S
C2484 C2500 1.368 . S
H2485 C2493 0.950 . S
H2486 C2491 0.950 . S
H2487 C2492 0.949 . S
H2488 C2494 0.950 . S
H2489 C2495 0.950 . S
H2490 C2496 0.949 1_554 S
C2491 H2486 0.950 . S
C2491 C2493 1.327 . S
C2491 C2497 1.429 . S
C2492 C2484 1.574 . S
C2492 H2487 0.949 . S
C2492 C2498 1.368 . S
C2493 C2477 1.349 . S
C2493 H2485 0.950 . S
C2493 C2491 1.327 . S
C2494 C2482 1.349 1_556 S
C2494 H2488 0.950 . S
C2494 C2495 1.327 . S
C2495 H2489 0.950 . S
C2495 C2494 1.327 . S
C2495 C2499 1.429 . S
C2496 C2479 1.574 . S
C2496 H2490 0.949 1_556 S
C2496 C2500 1.368 . S
C2497 C2478 1.429 . S
C2497 C2491 1.429 . S
C2497 C2498 1.523 . S
C2498 C2479 1.368 . S
C2498 C2492 1.368 . S
C2498 C2497 1.523 . S
C2499 C2483 1.429 1_556 S
C2499 C2495 1.429 . S
C2499 C2500 1.523 . S
C2500 C2484 1.368 . S
C2500 C2496 1.368 . S
C2500 C2499 1.523 . S
H2501 C2476 0.953 1_655 S
H2502 C2478 0.950 . S
H2503 C2479 0.949 . S
H2504 C2481 0.950 . S
H2505 C2483 0.950 . S
C2506 C2507 1.349 . S
C2506 C2508 1.327 . S
C2506 H2531 0.950 . S
C2507 C2506 1.349 . S
C2507 C2523 1.349 . S
C2508 C2506 1.327 . S
C2508 C2527 1.429 . S
C2508 H2532 0.950 . S
C2509 C2526 1.574 . S
C2509 C2528 1.368 . S
C2509 H2533 0.949 . S
H2510 C2514 0.949 . S
C2511 C2512 1.349 . S
C2511 C2513 1.327 . S
C2511 H2534 0.950 . S
C2512 C2511 1.349 . S
C2512 C2524 1.349 . S
C2513 C2511 1.327 . S
C2513 C2529 1.429 . S
C2513 H2535 0.950 . S
C2514 H2510 0.949 . S
C2514 C2522 1.574 . S
C2514 C2530 1.368 . S
H2515 C2523 0.932 1_455 S
H2516 C2521 0.950 . S
H2517 C2522 0.949 . S
H2518 C2524 0.950 . S
H2519 C2525 0.950 . S
H2520 C2526 0.949 . S
C2521 H2516 0.950 . S
C2521 C2523 1.327 . S
C2521 C2527 1.429 . S
C2522 C2514 1.574 . S
C2522 H2517 0.949 . S
C2522 C2528 1.368 . S
C2523 C2507 1.349 . S
C2523 H2515 0.932 1_655 S
C2523 C2521 1.327 . S
C2524 C2512 1.349 . S
C2524 H2518 0.950 . S
C2524 C2525 1.327 . S
C2525 H2519 0.950 . S
C2525 C2524 1.327 . S
C2525 C2529 1.429 . S
C2526 C2509 1.574 . S
C2526 H2520 0.949 . S
C2526 C2530 1.368 . S
C2527 C2508 1.429 . S
C2527 C2521 1.429 . S
C2527 C2528 1.523 . S
C2528 C2509 1.368 . S
C2528 C2522 1.368 . S
C2528 C2527 1.523 . S
C2529 C2513 1.429 . S
C2529 C2525 1.429 . S
C2529 C2530 1.523 . S
C2530 C2514 1.368 . S
C2530 C2526 1.368 . S
C2530 C2529 1.523 . S
H2531 C2506 0.950 . S
H2532 C2508 0.950 . S
H2533 C2509 0.949 . S
H2534 C2511 0.950 . S
H2535 C2513 0.950 . S
C2536 C2537 1.349 . S
C2536 C2538 1.327 . S
C2536 H2561 0.950 . S
C2537 C2536 1.349 . S
C2537 C2553 1.349 . S
C2538 C2536 1.327 . S
C2538 C2557 1.429 . S
C2538 H2562 0.950 . S
C2539 C2556 1.574 . S
C2539 C2558 1.368 . S
C2539 H2563 0.949 . S
H2540 C2544 0.949 . S
C2541 C2542 1.349 . S
C2541 C2543 1.327 . S
C2541 H2564 0.950 . S
C2542 C2541 1.349 . S
C2542 C2554 1.349 . S
C2543 C2541 1.327 . S
C2543 C2559 1.429 . S
C2543 H2565 0.950 . S
C2544 H2540 0.949 . S
C2544 C2552 1.574 . S
C2544 C2560 1.368 . S
H2545 C2553 0.950 . S
H2546 C2551 0.950 . S
H2547 C2552 0.949 . S
H2548 C2554 0.950 . S
H2549 C2555 0.950 . S
H2550 C2556 0.949 . S
C2551 H2546 0.950 . S
C2551 C2553 1.327 . S
C2551 C2557 1.429 . S
C2552 C2544 1.574 . S
C2552 H2547 0.949 . S
C2552 C2558 1.368 . S
C2553 C2537 1.349 . S
C2553 H2545 0.950 . S
C2553 C2551 1.327 . S
C2554 C2542 1.349 . S
C2554 H2548 0.950 . S
C2554 C2555 1.327 . S
C2555 H2549 0.950 . S
C2555 C2554 1.327 . S
C2555 C2559 1.429 . S
C2556 C2539 1.574 . S
C2556 H2550 0.949 . S
C2556 C2560 1.368 . S
C2557 C2538 1.429 . S
C2557 C2551 1.429 . S
C2557 C2558 1.523 . S
C2558 C2539 1.368 . S
C2558 C2552 1.368 . S
C2558 C2557 1.523 . S
C2559 C2543 1.429 . S
C2559 C2555 1.429 . S
C2559 C2560 1.523 . S
C2560 C2544 1.368 . S
C2560 C2556 1.368 . S
C2560 C2559 1.523 . S
H2561 C2536 0.950 . S
H2562 C2538 0.950 . S
H2563 C2539 0.949 . S
H2564 C2541 0.950 . S
H2565 C2543 0.950 . S
C2566 C2567 1.349 . S
C2566 C2568 1.327 . S
C2566 H2591 0.950 . S
C2567 C2566 1.349 . S
C2567 C2583 1.349 . S
C2568 C2566 1.327 . S
C2568 C2587 1.429 . S
C2568 H2592 0.950 . S
C2569 C2586 1.574 . S
C2569 C2588 1.368 . S
C2569 H2593 0.949 . S
H2570 C2574 0.949 . S
C2571 C2572 1.349 . S
C2571 C2573 1.327 . S
C2571 H2594 0.950 . S
C2572 C2571 1.349 . S
C2572 C2584 1.349 . S
C2573 C2571 1.327 . S
C2573 C2589 1.429 . S
C2573 H2595 0.950 . S
C2574 H2570 0.949 . S
C2574 C2582 1.574 . S
C2574 C2590 1.368 . S
H2575 C2583 0.950 . S
H2576 C2581 0.950 . S
H2577 C2582 0.949 . S
H2578 C2584 0.950 . S
H2579 C2585 0.950 . S
H2580 C2586 0.949 . S
C2581 H2576 0.950 . S
C2581 C2583 1.327 . S
C2581 C2587 1.429 . S
C2582 C2574 1.574 . S
C2582 H2577 0.949 . S
C2582 C2588 1.368 . S
C2583 C2567 1.349 . S
C2583 H2575 0.950 . S
C2583 C2581 1.327 . S
C2584 C2572 1.349 . S
C2584 H2578 0.950 . S
C2584 C2585 1.327 . S
C2585 H2579 0.950 . S
C2585 C2584 1.327 . S
C2585 C2589 1.429 . S
C2586 C2569 1.574 . S
C2586 H2580 0.949 . S
C2586 C2590 1.368 . S
C2587 C2568 1.429 . S
C2587 C2581 1.429 . S
C2587 C2588 1.523 . S
C2588 C2569 1.368 . S
C2588 C2582 1.368 . S
C2588 C2587 1.523 . S
C2589 C2573 1.429 . S
C2589 C2585 1.429 . S
C2589 C2590 1.523 . S
C2590 C2574 1.368 . S
C2590 C2586 1.368 . S
C2590 C2589 1.523 . S
H2591 C2566 0.950 . S
H2592 C2568 0.950 . S
H2593 C2569 0.949 . S
H2594 C2571 0.950 . S
H2595 C2573 0.950 . S
C2596 C2597 1.349 . S
C2596 C2598 1.327 . S
C2596 H2621 0.950 . S
C2597 C2596 1.349 . S
C2597 C2613 1.349 . S
C2598 C2596 1.327 . S
C2598 C2617 1.429 . S
C2598 H2622 0.950 . S
C2599 C2616 1.574 . S
C2599 C2618 1.368 . S
C2599 H2623 0.949 . S
H2600 C2604 0.949 . S
C2601 C2602 1.349 . S
C2601 C2603 1.327 . S
C2601 H2624 0.950 . S
C2602 C2601 1.349 . S
C2602 C2614 1.349 . S
C2603 C2601 1.327 . S
C2603 C2619 1.429 . S
C2603 H2625 0.950 . S
C2604 H2600 0.949 . S
C2604 C2612 1.574 . S
C2604 C2620 1.368 . S
H2605 C2613 0.950 . S
H2606 C2611 0.950 . S
H2607 C2612 0.949 . S
H2608 C2614 0.950 . S
H2609 C2615 0.950 . S
H2610 C2616 0.949 . S
C2611 H2606 0.950 . S
C2611 C2613 1.327 . S
C2611 C2617 1.429 . S
C2612 C2604 1.574 . S
C2612 H2607 0.949 . S
C2612 C2618 1.368 . S
C2613 C2597 1.349 . S
C2613 H2605 0.950 . S
C2613 C2611 1.327 . S
C2614 C2602 1.349 . S
C2614 H2608 0.950 . S
C2614 C2615 1.327 . S
C2615 H2609 0.950 . S
C2615 C2614 1.327 . S
C2615 C2619 1.429 . S
C2616 C2599 1.574 . S
C2616 H2610 0.949 . S
C2616 C2620 1.368 . S
C2617 C2598 1.429 . S
C2617 C2611 1.429 . S
C2617 C2618 1.523 . S
C2618 C2599 1.368 . S
C2618 C2612 1.368 . S
C2618 C2617 1.523 . S
C2619 C2603 1.429 . S
C2619 C2615 1.429 . S
C2619 C2620 1.523 . S
C2620 C2604 1.368 . S
C2620 C2616 1.368 . S
C2620 C2619 1.523 . S
H2621 C2596 0.950 . S
H2622 C2598 0.950 . S
H2623 C2599 0.949 . S
H2624 C2601 0.950 . S
H2625 C2603 0.950 . S
C2626 C2627 1.349 . S
C2626 C2628 1.327 . S
C2626 H2651 0.950 . S
C2627 C2626 1.349 . S
C2627 C2643 1.349 . S
C2628 C2626 1.327 . S
C2628 C2647 1.429 . S
C2628 H2652 0.950 . S
C2629 C2646 1.574 . S
C2629 C2648 1.368 . S
C2629 H2653 0.949 . S
H2630 C2634 0.949 . S
C2631 C2632 1.349 . S
C2631 C2633 1.327 . S
C2631 H2654 0.950 . S
C2632 C2631 1.349 . S
C2632 C2644 1.349 . S
C2633 C2631 1.327 . S
C2633 C2649 1.429 . S
C2633 H2655 0.950 . S
C2634 H2630 0.949 . S
C2634 C2642 1.574 . S
C2634 C2650 1.368 . S
H2635 C2643 0.950 . S
H2636 C2641 0.950 . S
H2637 C2642 0.949 . S
H2638 C2644 0.950 . S
H2639 C2645 0.950 . S
H2640 C2646 0.949 . S
C2641 H2636 0.950 . S
C2641 C2643 1.327 . S
C2641 C2647 1.429 . S
C2642 C2634 1.574 . S
C2642 H2637 0.949 . S
C2642 C2648 1.368 . S
C2643 C2627 1.349 . S
C2643 H2635 0.950 . S
C2643 C2641 1.327 . S
C2644 C2632 1.349 . S
C2644 H2638 0.950 . S
C2644 C2645 1.327 . S
C2645 H2639 0.950 . S
C2645 C2644 1.327 . S
C2645 C2649 1.429 . S
C2646 C2629 1.574 . S
C2646 H2640 0.949 . S
C2646 C2650 1.368 . S
C2647 C2628 1.429 . S
C2647 C2641 1.429 . S
C2647 C2648 1.523 . S
C2648 C2629 1.368 . S
C2648 C2642 1.368 . S
C2648 C2647 1.523 . S
C2649 C2633 1.429 . S
C2649 C2645 1.429 . S
C2649 C2650 1.523 . S
C2650 C2634 1.368 . S
C2650 C2646 1.368 . S
C2650 C2649 1.523 . S
H2651 C2626 0.950 . S
H2652 C2628 0.950 . S
H2653 C2629 0.949 . S
H2654 C2631 0.950 . S
H2655 C2633 0.950 . S
C2656 C2657 1.349 . S
C2656 C2658 1.327 . S
C2656 H2681 0.950 . S
C2657 C2656 1.349 . S
C2657 C2673 1.349 . S
C2658 C2656 1.327 . S
C2658 C2677 1.429 . S
C2658 H2682 0.950 . S
C2659 C2676 1.574 . S
C2659 C2678 1.368 . S
C2659 H2683 0.949 . S
H2660 C2664 0.949 . S
C2661 C2662 1.349 . S
C2661 C2663 1.327 . S
C2661 H2684 0.950 . S
C2662 C2661 1.349 . S
C2662 C2674 1.349 . S
C2663 C2661 1.327 . S
C2663 C2679 1.429 . S
C2663 H2685 0.950 . S
C2664 H2660 0.949 . S
C2664 C2672 1.574 . S
C2664 C2680 1.368 . S
H2665 C2673 0.950 . S
H2666 C2671 0.950 . S
H2667 C2672 0.949 . S
H2668 C2674 0.950 . S
H2669 C2675 0.950 . S
H2670 C2676 0.949 . S
C2671 H2666 0.950 . S
C2671 C2673 1.327 . S
C2671 C2677 1.429 . S
C2672 C2664 1.574 . S
C2672 H2667 0.949 . S
C2672 C2678 1.368 . S
C2673 C2657 1.349 . S
C2673 H2665 0.950 . S
C2673 C2671 1.327 . S
C2674 C2662 1.349 . S
C2674 H2668 0.950 . S
C2674 C2675 1.327 . S
C2675 H2669 0.950 . S
C2675 C2674 1.327 . S
C2675 C2679 1.429 . S
C2676 C2659 1.574 . S
C2676 H2670 0.949 . S
C2676 C2680 1.368 . S
C2677 C2658 1.429 . S
C2677 C2671 1.429 . S
C2677 C2678 1.523 . S
C2678 C2659 1.368 . S
C2678 C2672 1.368 . S
C2678 C2677 1.523 . S
C2679 C2663 1.429 . S
C2679 C2675 1.429 . S
C2679 C2680 1.523 . S
C2680 C2664 1.368 . S
C2680 C2676 1.368 . S
C2680 C2679 1.523 . S
H2681 C2656 0.950 . S
H2682 C2658 0.950 . S
H2683 C2659 0.949 . S
H2684 C2661 0.950 . S
H2685 C2663 0.950 . S
C2686 C2687 1.349 . S
C2686 C2688 1.327 . S
C2686 H2711 0.950 . S
C2687 C2686 1.349 . S
C2687 C2703 1.349 . S
C2688 C2686 1.327 . S
C2688 C2707 1.429 1_554 S
C2688 H2712 0.940 1_554 S
C2689 C2706 1.574 . S
C2689 C2708 1.368 . S
C2689 H2713 0.949 . S
H2690 C2694 0.949 . S
C2691 C2692 1.349 . S
C2691 C2693 1.327 . S
C2691 H2714 0.950 . S
C2692 C2691 1.349 . S
C2692 C2704 1.349 . S
C2693 C2691 1.327 . S
C2693 C2709 1.429 . S
C2693 H2715 0.950 . S
C2694 H2690 0.949 . S
C2694 C2702 1.574 . S
C2694 C2710 1.368 . S
H2695 C2703 0.950 . S
H2696 C2701 0.950 . S
H2697 C2702 0.949 . S
H2698 C2704 0.950 . S
H2699 C2705 0.950 . S
H2700 C2706 0.949 . S
C2701 H2696 0.950 . S
C2701 C2703 1.327 1_556 S
C2701 C2707 1.429 . S
C2702 C2694 1.574 . S
C2702 H2697 0.949 . S
C2702 C2708 1.368 . S
C2703 C2687 1.349 . S
C2703 H2695 0.950 . S
C2703 C2701 1.327 1_554 S
C2704 C2692 1.349 . S
C2704 H2698 0.950 . S
C2704 C2705 1.327 . S
C2705 H2699 0.950 . S
C2705 C2704 1.327 . S
C2705 C2709 1.429 . S
C2706 C2689 1.574 . S
C2706 H2700 0.949 . S
C2706 C2710 1.368 . S
C2707 C2688 1.429 1_556 S
C2707 C2701 1.429 . S
C2707 C2708 1.523 . S
C2708 C2689 1.368 . S
C2708 C2702 1.368 . S
C2708 C2707 1.523 . S
C2709 C2693 1.429 . S
C2709 C2705 1.429 . S
C2709 C2710 1.523 . S
C2710 C2694 1.368 . S
C2710 C2706 1.368 . S
C2710 C2709 1.523 . S
H2711 C2686 0.950 . S
H2712 C2688 0.940 1_556 S
H2713 C2689 0.949 . S
H2714 C2691 0.950 . S
H2715 C2693 0.950 . S
C2716 C2717 1.349 . S
C2716 C2718 1.327 . S
C2716 H2741 0.950 . S
C2717 C2716 1.349 . S
C2717 C2733 1.349 . S
C2718 C2716 1.327 . S
C2718 C2737 1.429 . S
C2718 H2742 0.950 . S
C2719 C2736 1.574 . S
C2719 C2738 1.368 . S
C2719 H2743 0.949 . S
H2720 C2724 0.949 . S
C2721 C2722 1.349 . S
C2721 C2723 1.327 . S
C2721 H2744 0.950 . S
C2722 C2721 1.349 . S
C2722 C2734 1.349 . S
C2723 C2721 1.327 . S
C2723 C2739 1.429 . S
C2723 H2745 0.950 . S
C2724 H2720 0.949 . S
C2724 C2732 1.574 . S
C2724 C2740 1.368 . S
H2725 C2733 0.950 . S
H2726 C2731 0.950 . S
H2727 C2732 0.949 . S
H2728 C2734 0.950 . S
H2729 C2735 0.950 . S
H2730 C2736 0.949 . S
C2731 H2726 0.950 . S
C2731 C2733 1.327 . S
C2731 C2737 1.429 . S
C2732 C2724 1.574 . S
C2732 H2727 0.949 . S
C2732 C2738 1.368 . S
C2733 C2717 1.349 . S
C2733 H2725 0.950 . S
C2733 C2731 1.327 . S
C2734 C2722 1.349 . S
C2734 H2728 0.950 . S
C2734 C2735 1.327 . S
C2735 H2729 0.950 . S
C2735 C2734 1.327 . S
C2735 C2739 1.429 . S
C2736 C2719 1.574 . S
C2736 H2730 0.949 . S
C2736 C2740 1.368 . S
C2737 C2718 1.429 . S
C2737 C2731 1.429 . S
C2737 C2738 1.523 . S
C2738 C2719 1.368 . S
C2738 C2732 1.368 . S
C2738 C2737 1.523 . S
C2739 C2723 1.429 . S
C2739 C2735 1.429 . S
C2739 C2740 1.523 . S
C2740 C2724 1.368 . S
C2740 C2736 1.368 . S
C2740 C2739 1.523 . S
H2741 C2716 0.950 . S
H2742 C2718 0.950 . S
H2743 C2719 0.949 . S
H2744 C2721 0.950 . S
H2745 C2723 0.950 . S
C2746 C2747 1.349 . S
C2746 C2748 1.327 . S
C2746 H2771 0.950 . S
C2747 C2746 1.349 . S
C2747 C2763 1.349 . S
C2748 C2746 1.327 . S
C2748 C2767 1.429 . S
C2748 H2772 0.950 . S
C2749 C2766 1.574 . S
C2749 C2768 1.368 . S
C2749 H2773 0.949 . S
H2750 C2754 0.949 . S
C2751 C2752 1.349 . S
C2751 C2753 1.327 . S
C2751 H2774 0.950 . S
C2752 C2751 1.349 . S
C2752 C2764 1.349 . S
C2753 C2751 1.327 . S
C2753 C2769 1.429 . S
C2753 H2775 0.950 . S
C2754 H2750 0.949 . S
C2754 C2762 1.574 . S
C2754 C2770 1.368 . S
H2755 C2763 0.950 . S
H2756 C2761 0.950 . S
H2757 C2762 0.949 . S
H2758 C2764 0.950 . S
H2759 C2765 0.950 . S
H2760 C2766 0.949 . S
C2761 H2756 0.950 . S
C2761 C2763 1.327 . S
C2761 C2767 1.429 . S
C2762 C2754 1.574 . S
C2762 H2757 0.949 . S
C2762 C2768 1.368 . S
C2763 C2747 1.349 . S
C2763 H2755 0.950 . S
C2763 C2761 1.327 . S
C2764 C2752 1.349 . S
C2764 H2758 0.950 . S
C2764 C2765 1.327 . S
C2765 H2759 0.950 . S
C2765 C2764 1.327 . S
C2765 C2769 1.429 . S
C2766 C2749 1.574 . S
C2766 H2760 0.949 . S
C2766 C2770 1.368 . S
C2767 C2748 1.429 . S
C2767 C2761 1.429 . S
C2767 C2768 1.523 . S
C2768 C2749 1.368 . S
C2768 C2762 1.368 . S
C2768 C2767 1.523 . S
C2769 C2753 1.429 . S
C2769 C2765 1.429 . S
C2769 C2770 1.523 . S
C2770 C2754 1.368 . S
C2770 C2766 1.368 . S
C2770 C2769 1.523 . S
H2771 C2746 0.950 . S
H2772 C2748 0.950 . S
H2773 C2749 0.949 . S
H2774 C2751 0.950 . S
H2775 C2753 0.950 . S
C2776 C2777 1.349 . S
C2776 C2778 1.327 . S
C2776 H2801 0.950 . S
C2777 C2776 1.349 . S
C2777 C2793 1.349 . S
C2778 C2776 1.327 . S
C2778 C2797 1.429 . S
C2778 H2802 0.950 . S
C2779 C2796 1.574 . S
C2779 C2798 1.368 . S
C2779 H2803 0.949 . S
H2780 C2784 0.949 . S
C2781 C2782 1.349 . S
C2781 C2783 1.327 . S
C2781 H2804 0.950 . S
C2782 C2781 1.349 . S
C2782 C2794 1.349 . S
C2783 C2781 1.327 . S
C2783 C2799 1.429 . S
C2783 H2805 0.950 . S
C2784 H2780 0.949 . S
C2784 C2792 1.574 . S
C2784 C2800 1.368 . S
H2785 C2793 0.950 . S
H2786 C2791 0.950 . S
H2787 C2792 0.949 . S
H2788 C2794 0.950 . S
H2789 C2795 0.950 . S
H2790 C2796 0.949 . S
C2791 H2786 0.950 . S
C2791 C2793 1.327 . S
C2791 C2797 1.429 . S
C2792 C2784 1.574 . S
C2792 H2787 0.949 . S
C2792 C2798 1.368 . S
C2793 C2777 1.349 . S
C2793 H2785 0.950 . S
C2793 C2791 1.327 . S
C2794 C2782 1.349 . S
C2794 H2788 0.950 . S
C2794 C2795 1.327 . S
C2795 H2789 0.950 . S
C2795 C2794 1.327 . S
C2795 C2799 1.429 . S
C2796 C2779 1.574 . S
C2796 H2790 0.949 . S
C2796 C2800 1.368 . S
C2797 C2778 1.429 . S
C2797 C2791 1.429 . S
C2797 C2798 1.523 . S
C2798 C2779 1.368 . S
C2798 C2792 1.368 . S
C2798 C2797 1.523 . S
C2799 C2783 1.429 . S
C2799 C2795 1.429 . S
C2799 C2800 1.523 . S
C2800 C2784 1.368 . S
C2800 C2796 1.368 . S
C2800 C2799 1.523 . S
H2801 C2776 0.950 . S
H2802 C2778 0.950 . S
H2803 C2779 0.949 . S
H2804 C2781 0.950 . S
H2805 C2783 0.950 . S
C2806 C2807 1.349 . S
C2806 C2808 1.327 . S
C2806 H2831 0.950 . S
C2807 C2806 1.349 . S
C2807 C2823 1.349 . S
C2808 C2806 1.327 . S
C2808 C2827 1.429 . S
C2808 H2832 0.950 . S
C2809 C2826 1.574 . S
C2809 C2828 1.368 . S
C2809 H2833 0.949 . S
H2810 C2814 0.949 . S
C2811 C2812 1.349 . S
C2811 C2813 1.327 . S
C2811 H2834 0.950 . S
C2812 C2811 1.349 . S
C2812 C2824 1.349 . S
C2813 C2811 1.327 . S
C2813 C2829 1.429 . S
C2813 H2835 0.950 . S
C2814 H2810 0.949 . S
C2814 C2822 1.574 . S
C2814 C2830 1.368 . S
H2815 C2823 0.950 . S
H2816 C2821 0.950 . S
H2817 C2822 0.949 . S
H2818 C2824 0.950 . S
H2819 C2825 0.950 . S
H2820 C2826 0.949 . S
C2821 H2816 0.950 . S
C2821 C2823 1.327 . S
C2821 C2827 1.429 . S
C2822 C2814 1.574 . S
C2822 H2817 0.949 . S
C2822 C2828 1.368 . S
C2823 C2807 1.349 . S
C2823 H2815 0.950 . S
C2823 C2821 1.327 . S
C2824 C2812 1.349 . S
C2824 H2818 0.950 . S
C2824 C2825 1.327 . S
C2825 H2819 0.950 . S
C2825 C2824 1.327 . S
C2825 C2829 1.429 . S
C2826 C2809 1.574 . S
C2826 H2820 0.949 . S
C2826 C2830 1.368 . S
C2827 C2808 1.429 . S
C2827 C2821 1.429 . S
C2827 C2828 1.523 . S
C2828 C2809 1.368 . S
C2828 C2822 1.368 . S
C2828 C2827 1.523 . S
C2829 C2813 1.429 . S
C2829 C2825 1.429 . S
C2829 C2830 1.523 . S
C2830 C2814 1.368 . S
C2830 C2826 1.368 . S
C2830 C2829 1.523 . S
H2831 C2806 0.950 . S
H2832 C2808 0.950 . S
H2833 C2809 0.949 . S
H2834 C2811 0.950 . S
H2835 C2813 0.950 . S
C2836 C2837 1.349 . S
C2836 C2838 1.327 . S
C2836 H2861 0.950 . S
C2837 C2836 1.349 . S
C2837 C2853 1.349 . S
C2838 C2836 1.327 . S
C2838 C2857 1.429 . S
C2838 H2862 0.950 . S
C2839 C2856 1.574 . S
C2839 C2858 1.368 . S
C2839 H2863 0.949 . S
H2840 C2844 0.949 . S
C2841 C2842 1.349 . S
C2841 C2843 1.327 . S
C2841 H2864 0.950 . S
C2842 C2841 1.349 . S
C2842 C2854 1.349 . S
C2843 C2841 1.327 . S
C2843 C2859 1.429 . S
C2843 H2865 0.950 . S
C2844 H2840 0.949 . S
C2844 C2852 1.574 . S
C2844 C2860 1.368 . S
H2845 C2853 0.950 . S
H2846 C2851 0.950 . S
H2847 C2852 0.949 . S
H2848 C2854 0.950 . S
H2849 C2855 0.950 . S
H2850 C2856 0.949 . S
C2851 H2846 0.950 . S
C2851 C2853 1.327 . S
C2851 C2857 1.429 . S
C2852 C2844 1.574 . S
C2852 H2847 0.949 . S
C2852 C2858 1.368 . S
C2853 C2837 1.349 . S
C2853 H2845 0.950 . S
C2853 C2851 1.327 . S
C2854 C2842 1.349 . S
C2854 H2848 0.950 . S
C2854 C2855 1.327 . S
C2855 H2849 0.950 . S
C2855 C2854 1.327 . S
C2855 C2859 1.429 . S
C2856 C2839 1.574 . S
C2856 H2850 0.949 . S
C2856 C2860 1.368 . S
C2857 C2838 1.429 . S
C2857 C2851 1.429 . S
C2857 C2858 1.523 . S
C2858 C2839 1.368 . S
C2858 C2852 1.368 . S
C2858 C2857 1.523 . S
C2859 C2843 1.429 . S
C2859 C2855 1.429 . S
C2859 C2860 1.523 . S
C2860 C2844 1.368 . S
C2860 C2856 1.368 . S
C2860 C2859 1.523 . S
H2861 C2836 0.950 . S
H2862 C2838 0.950 . S
H2863 C2839 0.949 . S
H2864 C2841 0.950 . S
H2865 C2843 0.950 . S
C2866 C2867 1.349 . S
C2866 C2868 1.327 . S
C2866 H2891 0.950 . S
C2867 C2866 1.349 . S
C2867 C2883 1.349 . S
C2868 C2866 1.327 . S
C2868 C2887 1.429 . S
C2868 H2892 0.950 . S
C2869 C2886 1.574 . S
C2869 C2888 1.368 . S
C2869 H2893 0.949 . S
H2870 C2874 0.949 . S
C2871 C2872 1.349 . S
C2871 C2873 1.327 . S
C2871 H2894 0.950 . S
C2872 C2871 1.349 . S
C2872 C2884 1.349 . S
C2873 C2871 1.327 . S
C2873 C2889 1.429 . S
C2873 H2895 0.950 . S
C2874 H2870 0.949 . S
C2874 C2882 1.574 . S
C2874 C2890 1.368 . S
H2875 C2883 0.950 . S
H2876 C2881 0.950 . S
H2877 C2882 0.949 . S
H2878 C2884 0.950 . S
H2879 C2885 0.950 . S
H2880 C2886 0.949 . S
C2881 H2876 0.950 . S
C2881 C2883 1.327 . S
C2881 C2887 1.429 . S
C2882 C2874 1.574 . S
C2882 H2877 0.949 . S
C2882 C2888 1.368 . S
C2883 C2867 1.349 . S
C2883 H2875 0.950 . S
C2883 C2881 1.327 . S
C2884 C2872 1.349 . S
C2884 H2878 0.950 . S
C2884 C2885 1.327 . S
C2885 H2879 0.950 . S
C2885 C2884 1.327 . S
C2885 C2889 1.429 . S
C2886 C2869 1.574 . S
C2886 H2880 0.949 . S
C2886 C2890 1.368 . S
C2887 C2868 1.429 . S
C2887 C2881 1.429 . S
C2887 C2888 1.523 . S
C2888 C2869 1.368 . S
C2888 C2882 1.368 . S
C2888 C2887 1.523 . S
C2889 C2873 1.429 . S
C2889 C2885 1.429 . S
C2889 C2890 1.523 . S
C2890 C2874 1.368 . S
C2890 C2886 1.368 . S
C2890 C2889 1.523 . S
H2891 C2866 0.950 . S
H2892 C2868 0.950 . S
H2893 C2869 0.949 . S
H2894 C2871 0.950 . S
H2895 C2873 0.950 . S
C2896 C2897 1.349 . S
C2896 C2898 1.327 . S
C2896 H2921 0.950 . S
C2897 C2896 1.349 . S
C2897 C2913 1.349 . S
C2898 C2896 1.327 . S
C2898 C2917 1.429 . S
C2898 H2922 0.950 . S
C2899 C2916 1.574 . S
C2899 C2918 1.368 . S
C2899 H2923 0.949 . S
H2900 C2904 0.949 . S
C2901 C2902 1.349 . S
C2901 C2903 1.327 . S
C2901 H2924 0.950 . S
C2902 C2901 1.349 . S
C2902 C2914 1.349 . S
C2903 C2901 1.327 . S
C2903 C2919 1.429 . S
C2903 H2925 0.950 . S
C2904 H2900 0.949 . S
C2904 C2912 1.574 . S
C2904 C2920 1.368 . S
H2905 C2913 0.950 . S
H2906 C2911 0.950 . S
H2907 C2912 0.949 . S
H2908 C2914 0.950 . S
H2909 C2915 0.950 . S
H2910 C2916 0.949 . S
C2911 H2906 0.950 . S
C2911 C2913 1.327 . S
C2911 C2917 1.429 . S
C2912 C2904 1.574 . S
C2912 H2907 0.949 . S
C2912 C2918 1.368 . S
C2913 C2897 1.349 . S
C2913 H2905 0.950 . S
C2913 C2911 1.327 . S
C2914 C2902 1.349 . S
C2914 H2908 0.950 . S
C2914 C2915 1.327 . S
C2915 H2909 0.950 . S
C2915 C2914 1.327 . S
C2915 C2919 1.429 . S
C2916 C2899 1.574 . S
C2916 H2910 0.949 . S
C2916 C2920 1.368 . S
C2917 C2898 1.429 . S
C2917 C2911 1.429 . S
C2917 C2918 1.523 . S
C2918 C2899 1.368 . S
C2918 C2912 1.368 . S
C2918 C2917 1.523 . S
C2919 C2903 1.429 . S
C2919 C2915 1.429 . S
C2919 C2920 1.523 . S
C2920 C2904 1.368 . S
C2920 C2916 1.368 . S
C2920 C2919 1.523 . S
H2921 C2896 0.950 . S
H2922 C2898 0.950 . S
H2923 C2899 0.949 . S
H2924 C2901 0.950 . S
H2925 C2903 0.950 . S
C2926 C2927 1.349 . S
C2926 C2928 1.327 . S
C2926 H2951 0.950 . S
C2927 C2926 1.349 . S
C2927 C2943 1.349 . S
C2928 C2926 1.327 . S
C2928 C2947 1.429 . S
C2928 H2952 0.950 . S
C2929 C2946 1.574 . S
C2929 C2948 1.368 . S
C2929 H2953 0.949 . S
H2930 C2934 0.949 . S
C2931 C2932 1.349 . S
C2931 C2933 1.327 . S
C2931 H2954 0.950 . S
C2932 C2931 1.349 . S
C2932 C2944 1.349 . S
C2933 C2931 1.327 . S
C2933 C2949 1.429 . S
C2933 H2955 0.950 . S
C2934 H2930 0.949 . S
C2934 C2942 1.574 . S
C2934 C2950 1.368 . S
H2935 C2943 0.950 . S
H2936 C2941 0.950 . S
H2937 C2942 0.949 . S
H2938 C2944 0.950 . S
H2939 C2945 0.950 . S
H2940 C2946 0.949 . S
C2941 H2936 0.950 . S
C2941 C2943 1.327 . S
C2941 C2947 1.429 . S
C2942 C2934 1.574 . S
C2942 H2937 0.949 . S
C2942 C2948 1.368 . S
C2943 C2927 1.349 . S
C2943 H2935 0.950 . S
C2943 C2941 1.327 . S
C2944 C2932 1.349 . S
C2944 H2938 0.950 . S
C2944 C2945 1.327 . S
C2945 H2939 0.950 . S
C2945 C2944 1.327 . S
C2945 C2949 1.429 . S
C2946 C2929 1.574 . S
C2946 H2940 0.949 . S
C2946 C2950 1.368 . S
C2947 C2928 1.429 . S
C2947 C2941 1.429 . S
C2947 C2948 1.523 . S
C2948 C2929 1.368 . S
C2948 C2942 1.368 . S
C2948 C2947 1.523 . S
C2949 C2933 1.429 . S
C2949 C2945 1.429 . S
C2949 C2950 1.523 . S
C2950 C2934 1.368 . S
C2950 C2946 1.368 . S
C2950 C2949 1.523 . S
H2951 C2926 0.950 . S
H2952 C2928 0.950 . S
H2953 C2929 0.949 . S
H2954 C2931 0.950 . S
H2955 C2933 0.950 . S
C2956 C2957 1.349 . S
C2956 C2958 1.327 . S
C2956 H2981 0.950 . S
C2957 C2956 1.349 . S
C2957 C2973 1.349 . S
C2958 C2956 1.327 . S
C2958 C2977 1.429 . S
C2958 H2982 0.950 . S
C2959 C2976 1.574 . S
C2959 C2978 1.368 . S
C2959 H2983 0.949 . S
H2960 C2964 0.949 . S
C2961 C2962 1.349 . S
C2961 C2963 1.327 . S
C2961 H2984 0.950 . S
C2962 C2961 1.349 . S
C2962 C2974 1.349 . S
C2963 C2961 1.327 . S
C2963 C2979 1.429 . S
C2963 H2985 0.950 . S
C2964 H2960 0.949 . S
C2964 C2972 1.574 . S
C2964 C2980 1.368 . S
H2965 C2973 0.950 . S
H2966 C2971 0.950 . S
H2967 C2972 0.949 . S
H2968 C2974 0.950 . S
H2969 C2975 0.950 . S
H2970 C2976 0.949 . S
C2971 H2966 0.950 . S
C2971 C2973 1.327 . S
C2971 C2977 1.429 . S
C2972 C2964 1.574 . S
C2972 H2967 0.949 . S
C2972 C2978 1.368 . S
C2973 C2957 1.349 . S
C2973 H2965 0.950 . S
C2973 C2971 1.327 . S
C2974 C2962 1.349 . S
C2974 H2968 0.950 . S
C2974 C2975 1.327 . S
C2975 H2969 0.950 . S
C2975 C2974 1.327 . S
C2975 C2979 1.429 . S
C2976 C2959 1.574 . S
C2976 H2970 0.949 . S
C2976 C2980 1.368 . S
C2977 C2958 1.429 . S
C2977 C2971 1.429 . S
C2977 C2978 1.523 . S
C2978 C2959 1.368 . S
C2978 C2972 1.368 . S
C2978 C2977 1.523 . S
C2979 C2963 1.429 . S
C2979 C2975 1.429 . S
C2979 C2980 1.523 . S
C2980 C2964 1.368 . S
C2980 C2976 1.368 . S
C2980 C2979 1.523 . S
H2981 C2956 0.950 . S
H2982 C2958 0.950 . S
H2983 C2959 0.949 . S
H2984 C2961 0.950 . S
H2985 C2963 0.950 . S
C2986 C2987 1.349 . S
C2986 C2988 1.327 . S
C2986 H3011 0.950 . S
C2987 C2986 1.349 . S
C2987 C3003 1.349 1_554 S
C2988 C2986 1.327 . S
C2988 C3007 1.429 . S
C2988 H3012 0.950 . S
C2989 C3006 1.574 . S
C2989 C3008 1.368 1_556 S
C2989 H3013 0.949 . S
H2990 C2994 0.949 . S
C2991 C2992 1.318 1_556 S
C2991 C2993 1.321 . S
C2991 H3014 0.990 . S
C2992 C2991 1.318 1_554 S
C2992 C3004 1.349 . S
C2993 C2991 1.321 . S
C2993 C3009 1.429 1_556 S
C2993 H3015 0.950 . S
C2994 H2990 0.949 . S
C2994 C3002 1.574 . S
C2994 C3010 1.368 . S
H2995 C3003 0.950 . S
H2996 C3001 0.950 . S
H2997 C3002 0.949 . S
H2998 C3004 0.950 . S
H2999 C3005 0.950 . S
H3000 C3006 0.949 . S
C3001 H2996 0.950 . S
C3001 C3003 1.327 . S
C3001 C3007 1.429 1_556 S
C3002 C2994 1.574 . S
C3002 H2997 0.949 . S
C3002 C3008 1.368 . S
C3003 C2987 1.349 1_556 S
C3003 H2995 0.950 . S
C3003 C3001 1.327 . S
C3004 C2992 1.349 . S
C3004 H2998 0.950 . S
C3004 C3005 1.327 . S
C3005 H2999 0.950 . S
C3005 C3004 1.327 . S
C3005 C3009 1.429 . S
C3006 C2989 1.574 . S
C3006 H3000 0.949 . S
C3006 C3010 1.368 1_556 S
C3007 C2988 1.429 . S
C3007 C3001 1.429 1_554 S
C3007 C3008 1.523 . S
C3008 C2989 1.368 1_554 S
C3008 C3002 1.368 . S
C3008 C3007 1.523 . S
C3009 C2993 1.429 1_554 S
C3009 C3005 1.429 . S
C3009 C3010 1.523 . S
C3010 C2994 1.368 . S
C3010 C3006 1.368 1_554 S
C3010 C3009 1.523 . S
H3011 C2986 0.950 . S
H3012 C2988 0.950 . S
H3013 C2989 0.949 . S
H3014 C2991 0.990 . S
H3015 C2993 0.950 . S
C3016 C3017 1.349 . S
C3016 C3018 1.327 . S
C3016 H3041 0.950 . S
C3017 C3016 1.349 . S
C3017 C3033 1.349 . S
C3018 C3016 1.327 . S
C3018 C3037 1.429 . S
C3018 H3042 0.950 . S
C3019 C3036 1.574 . S
C3019 C3038 1.368 . S
C3019 H3043 0.949 . S
H3020 C3024 0.949 . S
C3021 C3022 1.349 . S
C3021 C3023 1.327 . S
C3021 H3044 0.950 . S
C3022 C3021 1.349 . S
C3022 C3034 1.349 . S
C3023 C3021 1.327 . S
C3023 C3039 1.429 . S
C3023 H3045 0.950 . S
C3024 H3020 0.949 . S
C3024 C3032 1.574 . S
C3024 C3040 1.368 . S
H3025 C3033 0.950 . S
H3026 C3031 0.950 . S
H3027 C3032 0.949 . S
H3028 C3034 0.950 . S
H3029 C3035 0.950 . S
H3030 C3036 0.949 . S
C3031 H3026 0.950 . S
C3031 C3033 1.327 . S
C3031 C3037 1.429 . S
C3032 C3024 1.574 . S
C3032 H3027 0.949 . S
C3032 C3038 1.368 . S
C3033 C3017 1.349 . S
C3033 H3025 0.950 . S
C3033 C3031 1.327 . S
C3034 C3022 1.349 . S
C3034 H3028 0.950 . S
C3034 C3035 1.327 . S
C3035 H3029 0.950 . S
C3035 C3034 1.327 . S
C3035 C3039 1.429 . S
C3036 C3019 1.574 . S
C3036 H3030 0.949 . S
C3036 C3040 1.368 . S
C3037 C3018 1.429 . S
C3037 C3031 1.429 . S
C3037 C3038 1.523 . S
C3038 C3019 1.368 . S
C3038 C3032 1.368 . S
C3038 C3037 1.523 . S
C3039 C3023 1.429 . S
C3039 C3035 1.429 . S
C3039 C3040 1.523 . S
C3040 C3024 1.368 . S
C3040 C3036 1.368 . S
C3040 C3039 1.523 . S
H3041 C3016 0.950 . S
H3042 C3018 0.950 . S
H3043 C3019 0.949 . S
H3044 C3021 0.950 . S
H3045 C3023 0.950 . S
C3046 C3047 1.349 . S
C3046 C3048 1.327 . S
C3046 H3071 0.950 . S
C3047 C3046 1.349 . S
C3047 C3063 1.349 . S
C3048 C3046 1.327 . S
C3048 C3067 1.429 . S
C3048 H3072 0.950 . S
C3049 C3066 1.574 . S
C3049 C3068 1.368 . S
C3049 H3073 0.949 . S
H3050 C3054 0.949 . S
C3051 C3052 1.349 . S
C3051 C3053 1.327 . S
C3051 H3074 0.950 . S
C3052 C3051 1.349 . S
C3052 C3064 1.349 . S
C3053 C3051 1.327 . S
C3053 C3069 1.429 . S
C3053 H3075 0.950 . S
C3054 H3050 0.949 . S
C3054 C3062 1.574 . S
C3054 C3070 1.368 . S
H3055 C3063 0.950 . S
H3056 C3061 0.950 . S
H3057 C3062 0.949 . S
H3058 C3064 0.950 . S
H3059 C3065 0.950 . S
H3060 C3066 0.949 . S
C3061 H3056 0.950 . S
C3061 C3063 1.327 . S
C3061 C3067 1.429 . S
C3062 C3054 1.574 . S
C3062 H3057 0.949 . S
C3062 C3068 1.368 . S
C3063 C3047 1.349 . S
C3063 H3055 0.950 . S
C3063 C3061 1.327 . S
C3064 C3052 1.349 . S
C3064 H3058 0.950 . S
C3064 C3065 1.327 . S
C3065 H3059 0.950 . S
C3065 C3064 1.327 . S
C3065 C3069 1.429 . S
C3066 C3049 1.574 . S
C3066 H3060 0.949 . S
C3066 C3070 1.368 . S
C3067 C3048 1.429 . S
C3067 C3061 1.429 . S
C3067 C3068 1.523 . S
C3068 C3049 1.368 . S
C3068 C3062 1.368 . S
C3068 C3067 1.523 . S
C3069 C3053 1.429 . S
C3069 C3065 1.429 . S
C3069 C3070 1.523 . S
C3070 C3054 1.368 . S
C3070 C3066 1.368 . S
C3070 C3069 1.523 . S
H3071 C3046 0.950 . S
H3072 C3048 0.950 . S
H3073 C3049 0.949 . S
H3074 C3051 0.950 . S
H3075 C3053 0.950 . S
C3076 C3077 1.349 . S
C3076 C3078 1.327 . S
C3076 H3101 0.950 . S
C3077 C3076 1.349 . S
C3077 C3093 1.349 . S
C3078 C3076 1.327 . S
C3078 C3097 1.429 . S
C3078 H3102 0.950 . S
C3079 C3096 1.574 . S
C3079 C3098 1.368 . S
C3079 H3103 0.949 . S
H3080 C3084 0.949 . S
C3081 C3082 1.349 . S
C3081 C3083 1.327 . S
C3081 H3104 0.950 . S
C3082 C3081 1.349 . S
C3082 C3094 1.349 . S
C3083 C3081 1.327 . S
C3083 C3099 1.429 . S
C3083 H3105 0.950 . S
C3084 H3080 0.949 . S
C3084 C3092 1.574 . S
C3084 C3100 1.368 . S
H3085 C3093 0.950 . S
H3086 C3091 0.950 . S
H3087 C3092 0.949 . S
H3088 C3094 0.950 . S
H3089 C3095 0.950 . S
H3090 C3096 0.949 . S
C3091 H3086 0.950 . S
C3091 C3093 1.327 . S
C3091 C3097 1.429 . S
C3092 C3084 1.574 . S
C3092 H3087 0.949 . S
C3092 C3098 1.368 . S
C3093 C3077 1.349 . S
C3093 H3085 0.950 . S
C3093 C3091 1.327 . S
C3094 C3082 1.349 . S
C3094 H3088 0.950 . S
C3094 C3095 1.327 . S
C3095 H3089 0.950 . S
C3095 C3094 1.327 . S
C3095 C3099 1.429 . S
C3096 C3079 1.574 . S
C3096 H3090 0.949 . S
C3096 C3100 1.368 . S
C3097 C3078 1.429 . S
C3097 C3091 1.429 . S
C3097 C3098 1.523 . S
C3098 C3079 1.368 . S
C3098 C3092 1.368 . S
C3098 C3097 1.523 . S
C3099 C3083 1.429 . S
C3099 C3095 1.429 . S
C3099 C3100 1.523 . S
C3100 C3084 1.368 . S
C3100 C3096 1.368 . S
C3100 C3099 1.523 . S
H3101 C3076 0.950 . S
H3102 C3078 0.950 . S
H3103 C3079 0.949 . S
H3104 C3081 0.950 . S
H3105 C3083 0.950 . S
C3106 C3107 1.349 . S
C3106 C3108 1.327 . S
C3106 H3131 0.950 . S
C3107 C3106 1.349 . S
C3107 C3123 1.349 . S
C3108 C3106 1.327 . S
C3108 C3127 1.429 . S
C3108 H3132 0.950 . S
C3109 C3126 1.574 . S
C3109 C3128 1.368 . S
C3109 H3133 0.949 . S
H3110 C3114 0.949 . S
C3111 C3112 1.349 . S
C3111 C3113 1.327 . S
C3111 H3134 0.950 . S
C3112 C3111 1.349 . S
C3112 C3124 1.349 . S
C3113 C3111 1.327 . S
C3113 C3129 1.429 . S
C3113 H3135 0.950 . S
C3114 H3110 0.949 . S
C3114 C3122 1.574 . S
C3114 C3130 1.368 . S
H3115 C3123 0.950 . S
H3116 C3121 0.950 . S
H3117 C3122 0.949 . S
H3118 C3124 0.950 . S
H3119 C3125 0.950 . S
H3120 C3126 0.949 . S
C3121 H3116 0.950 . S
C3121 C3123 1.327 . S
C3121 C3127 1.429 . S
C3122 C3114 1.574 . S
C3122 H3117 0.949 . S
C3122 C3128 1.368 . S
C3123 C3107 1.349 . S
C3123 H3115 0.950 . S
C3123 C3121 1.327 . S
C3124 C3112 1.349 . S
C3124 H3118 0.950 . S
C3124 C3125 1.327 . S
C3125 H3119 0.950 . S
C3125 C3124 1.327 . S
C3125 C3129 1.429 . S
C3126 C3109 1.574 . S
C3126 H3120 0.949 . S
C3126 C3130 1.368 . S
C3127 C3108 1.429 . S
C3127 C3121 1.429 . S
C3127 C3128 1.523 . S
C3128 C3109 1.368 . S
C3128 C3122 1.368 . S
C3128 C3127 1.523 . S
C3129 C3113 1.429 . S
C3129 C3125 1.429 . S
C3129 C3130 1.523 . S
C3130 C3114 1.368 . S
C3130 C3126 1.368 . S
C3130 C3129 1.523 . S
H3131 C3106 0.950 . S
H3132 C3108 0.950 . S
H3133 C3109 0.949 . S
H3134 C3111 0.950 . S
H3135 C3113 0.950 . S
C3136 C3137 1.349 . S
C3136 C3138 1.327 . S
C3136 H3161 0.950 . S
C3137 C3136 1.349 . S
C3137 C3153 1.349 . S
C3138 C3136 1.327 . S
C3138 C3157 1.429 . S
C3138 H3162 0.950 . S
C3139 C3156 1.574 . S
C3139 C3158 1.368 . S
C3139 H3163 0.949 . S
H3140 C3144 0.949 . S
C3141 C3142 1.349 . S
C3141 C3143 1.327 . S
C3141 H3164 0.950 . S
C3142 C3141 1.349 . S
C3142 C3154 1.349 . S
C3143 C3141 1.327 . S
C3143 C3159 1.429 . S
C3143 H3165 0.950 . S
C3144 H3140 0.949 . S
C3144 C3152 1.574 . S
C3144 C3160 1.368 . S
H3145 C3153 0.950 . S
H3146 C3151 0.950 . S
H3147 C3152 0.949 . S
H3148 C3154 0.950 . S
H3149 C3155 0.950 . S
H3150 C3156 0.949 . S
C3151 H3146 0.950 . S
C3151 C3153 1.327 . S
C3151 C3157 1.429 . S
C3152 C3144 1.574 . S
C3152 H3147 0.949 . S
C3152 C3158 1.368 . S
C3153 C3137 1.349 . S
C3153 H3145 0.950 . S
C3153 C3151 1.327 . S
C3154 C3142 1.349 . S
C3154 H3148 0.950 . S
C3154 C3155 1.327 . S
C3155 H3149 0.950 . S
C3155 C3154 1.327 . S
C3155 C3159 1.429 . S
C3156 C3139 1.574 . S
C3156 H3150 0.949 . S
C3156 C3160 1.368 . S
C3157 C3138 1.429 . S
C3157 C3151 1.429 . S
C3157 C3158 1.523 . S
C3158 C3139 1.368 . S
C3158 C3152 1.368 . S
C3158 C3157 1.523 . S
C3159 C3143 1.429 . S
C3159 C3155 1.429 . S
C3159 C3160 1.523 . S
C3160 C3144 1.368 . S
C3160 C3156 1.368 . S
C3160 C3159 1.523 . S
H3161 C3136 0.950 . S
H3162 C3138 0.950 . S
H3163 C3139 0.949 . S
H3164 C3141 0.950 . S
H3165 C3143 0.950 . S
C3166 C3167 1.349 . S
C3166 C3168 1.327 . S
C3166 H3191 0.950 . S
C3167 C3166 1.349 . S
C3167 C3183 1.349 . S
C3168 C3166 1.327 . S
C3168 C3187 1.429 . S
C3168 H3192 0.950 . S
C3169 C3186 1.574 . S
C3169 C3188 1.368 . S
C3169 H3193 0.949 . S
H3170 C3174 0.949 . S
C3171 C3172 1.349 . S
C3171 C3173 1.327 . S
C3171 H3194 0.950 . S
C3172 C3171 1.349 . S
C3172 C3184 1.349 . S
C3173 C3171 1.327 . S
C3173 C3189 1.429 . S
C3173 H3195 0.950 . S
C3174 H3170 0.949 . S
C3174 C3182 1.574 . S
C3174 C3190 1.368 . S
H3175 C3183 0.950 . S
H3176 C3181 0.950 . S
H3177 C3182 0.949 . S
H3178 C3184 0.950 . S
H3179 C3185 0.950 . S
H3180 C3186 0.949 . S
C3181 H3176 0.950 . S
C3181 C3183 1.327 . S
C3181 C3187 1.429 . S
C3182 C3174 1.574 . S
C3182 H3177 0.949 . S
C3182 C3188 1.368 . S
C3183 C3167 1.349 . S
C3183 H3175 0.950 . S
C3183 C3181 1.327 . S
C3184 C3172 1.349 . S
C3184 H3178 0.950 . S
C3184 C3185 1.327 . S
C3185 H3179 0.950 . S
C3185 C3184 1.327 . S
C3185 C3189 1.429 . S
C3186 C3169 1.574 . S
C3186 H3180 0.949 . S
C3186 C3190 1.368 . S
C3187 C3168 1.429 . S
C3187 C3181 1.429 . S
C3187 C3188 1.523 . S
C3188 C3169 1.368 . S
C3188 C3182 1.368 . S
C3188 C3187 1.523 . S
C3189 C3173 1.429 . S
C3189 C3185 1.429 . S
C3189 C3190 1.523 . S
C3190 C3174 1.368 . S
C3190 C3186 1.368 . S
C3190 C3189 1.523 . S
H3191 C3166 0.950 . S
H3192 C3168 0.950 . S
H3193 C3169 0.949 . S
H3194 C3171 0.950 . S
H3195 C3173 0.950 . S
C3196 C3197 1.349 . S
C3196 C3198 1.327 . S
C3196 H3221 0.950 . S
C3197 C3196 1.349 . S
C3197 C3213 1.349 . S
C3198 C3196 1.327 . S
C3198 C3217 1.429 . S
C3198 H3222 0.950 . S
C3199 C3216 1.574 . S
C3199 C3218 1.368 . S
C3199 H3223 0.949 . S
H3200 C3204 0.949 . S
C3201 C3202 1.349 . S
C3201 C3203 1.327 . S
C3201 H3224 0.950 . S
C3202 C3201 1.349 . S
C3202 C3214 1.349 . S
C3203 C3201 1.327 . S
C3203 C3219 1.429 . S
C3203 H3225 0.950 . S
C3204 H3200 0.949 . S
C3204 C3212 1.574 . S
C3204 C3220 1.368 . S
H3205 C3213 0.950 . S
H3206 C3211 0.950 . S
H3207 C3212 0.949 . S
H3208 C3214 0.950 . S
H3209 C3215 0.950 . S
H3210 C3216 0.949 . S
C3211 H3206 0.950 . S
C3211 C3213 1.327 . S
C3211 C3217 1.429 . S
C3212 C3204 1.574 . S
C3212 H3207 0.949 . S
C3212 C3218 1.368 . S
C3213 C3197 1.349 . S
C3213 H3205 0.950 . S
C3213 C3211 1.327 . S
C3214 C3202 1.349 . S
C3214 H3208 0.950 . S
C3214 C3215 1.327 . S
C3215 H3209 0.950 . S
C3215 C3214 1.327 . S
C3215 C3219 1.429 . S
C3216 C3199 1.574 . S
C3216 H3210 0.949 . S
C3216 C3220 1.368 . S
C3217 C3198 1.429 . S
C3217 C3211 1.429 . S
C3217 C3218 1.523 . S
C3218 C3199 1.368 . S
C3218 C3212 1.368 . S
C3218 C3217 1.523 . S
C3219 C3203 1.429 . S
C3219 C3215 1.429 . S
C3219 C3220 1.523 . S
C3220 C3204 1.368 . S
C3220 C3216 1.368 . S
C3220 C3219 1.523 . S
H3221 C3196 0.950 . S
H3222 C3198 0.950 . S
H3223 C3199 0.949 . S
H3224 C3201 0.950 . S
H3225 C3203 0.950 . S
C3226 C3227 1.349 . S
C3226 C3228 1.327 . S
C3226 H3251 0.950 . S
C3227 C3226 1.349 . S
C3227 C3243 1.349 . S
C3228 C3226 1.327 . S
C3228 C3247 1.429 . S
C3228 H3252 0.950 . S
C3229 C3246 1.574 . S
C3229 C3248 1.368 . S
C3229 H3253 0.949 . S
H3230 C3234 0.949 . S
C3231 C3232 1.349 . S
C3231 C3233 1.327 . S
C3231 H3254 0.950 . S
C3232 C3231 1.349 . S
C3232 C3244 1.349 . S
C3233 C3231 1.327 . S
C3233 C3249 1.429 . S
C3233 H3255 0.950 . S
C3234 H3230 0.949 . S
C3234 C3242 1.574 . S
C3234 C3250 1.368 . S
H3235 C3243 0.950 . S
H3236 C3241 0.950 . S
H3237 C3242 0.949 . S
H3238 C3244 0.950 . S
H3239 C3245 0.950 . S
H3240 C3246 0.949 . S
C3241 H3236 0.950 . S
C3241 C3243 1.327 . S
C3241 C3247 1.429 . S
C3242 C3234 1.574 . S
C3242 H3237 0.949 . S
C3242 C3248 1.368 . S
C3243 C3227 1.349 . S
C3243 H3235 0.950 . S
C3243 C3241 1.327 . S
C3244 C3232 1.349 . S
C3244 H3238 0.950 . S
C3244 C3245 1.327 . S
C3245 H3239 0.950 . S
C3245 C3244 1.327 . S
C3245 C3249 1.429 . S
C3246 C3229 1.574 . S
C3246 H3240 0.949 . S
C3246 C3250 1.368 . S
C3247 C3228 1.429 . S
C3247 C3241 1.429 . S
C3247 C3248 1.523 . S
C3248 C3229 1.368 . S
C3248 C3242 1.368 . S
C3248 C3247 1.523 . S
C3249 C3233 1.429 . S
C3249 C3245 1.429 . S
C3249 C3250 1.523 . S
C3250 C3234 1.368 . S
C3250 C3246 1.368 . S
C3250 C3249 1.523 . S
H3251 C3226 0.950 . S
H3252 C3228 0.950 . S
H3253 C3229 0.949 . S
H3254 C3231 0.950 . S
H3255 C3233 0.950 . S
C3256 C3257 1.349 . S
C3256 C3258 1.327 . S
C3256 H3281 0.950 . S
C3257 C3256 1.349 . S
C3257 C3273 1.349 . S
C3258 C3256 1.327 . S
C3258 C3277 1.429 . S
C3258 H3282 0.950 . S
C3259 C3276 1.574 . S
C3259 C3278 1.368 . S
C3259 H3283 0.949 . S
H3260 C3264 0.949 . S
C3261 C3262 1.349 . S
C3261 C3263 1.327 . S
C3261 H3284 0.950 . S
C3262 C3261 1.349 . S
C3262 C3274 1.349 . S
C3263 C3261 1.327 . S
C3263 C3279 1.429 . S
C3263 H3285 0.950 . S
C3264 H3260 0.949 . S
C3264 C3272 1.574 . S
C3264 C3280 1.368 . S
H3265 C3273 0.950 . S
H3266 C3271 0.950 . S
H3267 C3272 0.949 . S
H3268 C3274 0.950 . S
H3269 C3275 0.950 . S
H3270 C3276 0.949 . S
C3271 H3266 0.950 . S
C3271 C3273 1.327 . S
C3271 C3277 1.429 . S
C3272 C3264 1.574 . S
C3272 H3267 0.949 . S
C3272 C3278 1.368 . S
C3273 C3257 1.349 . S
C3273 H3265 0.950 . S
C3273 C3271 1.327 . S
C3274 C3262 1.349 . S
C3274 H3268 0.950 . S
C3274 C3275 1.327 . S
C3275 H3269 0.950 . S
C3275 C3274 1.327 . S
C3275 C3279 1.429 . S
C3276 C3259 1.574 . S
C3276 H3270 0.949 . S
C3276 C3280 1.368 . S
C3277 C3258 1.429 . S
C3277 C3271 1.429 . S
C3277 C3278 1.523 . S
C3278 C3259 1.368 . S
C3278 C3272 1.368 . S
C3278 C3277 1.523 . S
C3279 C3263 1.429 . S
C3279 C3275 1.429 . S
C3279 C3280 1.523 . S
C3280 C3264 1.368 . S
C3280 C3276 1.368 . S
C3280 C3279 1.523 . S
H3281 C3256 0.950 . S
H3282 C3258 0.950 . S
H3283 C3259 0.949 . S
H3284 C3261 0.950 . S
H3285 C3263 0.950 . S
C3286 C3287 1.349 . S
C3286 C3288 1.327 . S
C3286 H3311 0.950 . S
C3287 C3286 1.349 . S
C3287 C3303 1.349 . S
C3288 C3286 1.327 . S
C3288 C3307 1.429 . S
C3288 H3312 0.950 . S
C3289 C3306 1.574 . S
C3289 C3308 1.368 . S
C3289 H3313 0.949 . S
H3290 C3294 0.949 . S
C3291 C3292 1.349 . S
C3291 C3293 1.327 . S
C3291 H3314 0.950 . S
C3292 C3291 1.349 . S
C3292 C3304 1.349 . S
C3293 C3291 1.327 . S
C3293 C3309 1.429 . S
C3293 H3315 0.950 . S
C3294 H3290 0.949 . S
C3294 C3302 1.574 . S
C3294 C3310 1.368 . S
H3295 C3303 0.950 . S
H3296 C3301 0.950 . S
H3297 C3302 0.949 . S
H3298 C3304 0.950 . S
H3299 C3305 0.950 . S
H3300 C3306 0.949 . S
C3301 H3296 0.950 . S
C3301 C3303 1.327 . S
C3301 C3307 1.429 . S
C3302 C3294 1.574 . S
C3302 H3297 0.949 . S
C3302 C3308 1.368 . S
C3303 C3287 1.349 . S
C3303 H3295 0.950 . S
C3303 C3301 1.327 . S
C3304 C3292 1.349 . S
C3304 H3298 0.950 . S
C3304 C3305 1.327 . S
C3305 H3299 0.950 . S
C3305 C3304 1.327 . S
C3305 C3309 1.429 . S
C3306 C3289 1.574 . S
C3306 H3300 0.949 . S
C3306 C3310 1.368 . S
C3307 C3288 1.429 . S
C3307 C3301 1.429 . S
C3307 C3308 1.523 . S
C3308 C3289 1.368 . S
C3308 C3302 1.368 . S
C3308 C3307 1.523 . S
C3309 C3293 1.429 . S
C3309 C3305 1.429 . S
C3309 C3310 1.523 . S
C3310 C3294 1.368 . S
C3310 C3306 1.368 . S
C3310 C3309 1.523 . S
H3311 C3286 0.950 . S
H3312 C3288 0.950 . S
H3313 C3289 0.949 . S
H3314 C3291 0.950 . S
H3315 C3293 0.950 . S
C3316 C3317 1.349 1_655 S
C3316 C3318 1.327 . S
C3316 H3341 0.950 . S
C3317 C3316 1.349 1_455 S
C3317 C3333 1.349 . S
C3318 C3316 1.327 . S
C3318 C3337 1.429 1_655 S
C3318 H3342 0.950 . S
C3319 C3336 1.574 . S
C3319 C3338 1.368 . S
C3319 H3343 0.949 . S
H3320 C3324 0.949 1_655 S
C3321 C3322 1.349 . S
C3321 C3323 1.327 . S
C3321 H3344 0.950 . S
C3322 C3321 1.349 . S
C3322 C3334 1.349 . S
C3323 C3321 1.327 . S
C3323 C3339 1.429 . S
C3323 H3345 0.950 . S
C3324 H3320 0.949 1_455 S
C3324 C3332 1.582 1_455 S
C3324 C3340 1.368 . S
H3325 C3333 0.950 . S
H3326 C3331 0.950 . S
H3327 C3332 0.989 . S
H3328 C3334 0.909 1_655 S
H3329 C3335 0.950 1_655 S
H3330 C3336 0.949 . S
C3331 H3326 0.950 . S
C3331 C3333 1.327 . S
C3331 C3337 1.429 . S
C3332 C3324 1.582 1_655 S
C3332 H3327 0.989 . S
C3332 C3338 1.318 1_655 S
C3333 C3317 1.349 . S
C3333 H3325 0.950 . S
C3333 C3331 1.327 . S
C3334 C3322 1.349 . S
C3334 H3328 0.909 1_455 S
C3334 C3335 1.327 . S
C3335 H3329 0.950 1_455 S
C3335 C3334 1.327 . S
C3335 C3339 1.429 . S
C3336 C3319 1.574 . S
C3336 H3330 0.949 . S
C3336 C3340 1.368 . S
C3337 C3318 1.429 1_455 S
C3337 C3331 1.429 . S
C3337 C3338 1.523 . S
C3338 C3319 1.368 . S
C3338 C3332 1.318 1_455 S
C3338 C3337 1.523 . S
C3339 C3323 1.429 . S
C3339 C3335 1.429 . S
C3339 C3340 1.523 . S
C3340 C3324 1.368 . S
C3340 C3336 1.368 . S
C3340 C3339 1.523 . S
H3341 C3316 0.950 . S
H3342 C3318 0.950 . S
H3343 C3319 0.949 . S
H3344 C3321 0.950 . S
H3345 C3323 0.950 . S
C3346 C3347 1.349 . S
C3346 C3348 1.327 . S
C3346 H3371 0.950 . S
C3347 C3346 1.349 . S
C3347 C3363 1.349 . S
C3348 C3346 1.327 . S
C3348 C3367 1.429 . S
C3348 H3372 0.950 . S
C3349 C3366 1.574 . S
C3349 C3368 1.368 . S
C3349 H3373 0.949 . S
H3350 C3354 0.949 . S
C3351 C3352 1.349 . S
C3351 C3353 1.327 . S
C3351 H3374 0.950 . S
C3352 C3351 1.349 . S
C3352 C3364 1.349 . S
C3353 C3351 1.327 . S
C3353 C3369 1.429 . S
C3353 H3375 0.950 . S
C3354 H3350 0.949 . S
C3354 C3362 1.574 . S
C3354 C3370 1.368 . S
H3355 C3363 0.950 . S
H3356 C3361 0.950 . S
H3357 C3362 0.949 . S
H3358 C3364 0.950 . S
H3359 C3365 0.950 . S
H3360 C3366 0.949 . S
C3361 H3356 0.950 . S
C3361 C3363 1.327 . S
C3361 C3367 1.429 . S
C3362 C3354 1.574 . S
C3362 H3357 0.949 . S
C3362 C3368 1.368 . S
C3363 C3347 1.349 . S
C3363 H3355 0.950 . S
C3363 C3361 1.327 . S
C3364 C3352 1.349 . S
C3364 H3358 0.950 . S
C3364 C3365 1.327 . S
C3365 H3359 0.950 . S
C3365 C3364 1.327 . S
C3365 C3369 1.429 . S
C3366 C3349 1.574 . S
C3366 H3360 0.949 . S
C3366 C3370 1.368 . S
C3367 C3348 1.429 . S
C3367 C3361 1.429 . S
C3367 C3368 1.523 . S
C3368 C3349 1.368 . S
C3368 C3362 1.368 . S
C3368 C3367 1.523 . S
C3369 C3353 1.429 . S
C3369 C3365 1.429 . S
C3369 C3370 1.523 . S
C3370 C3354 1.368 . S
C3370 C3366 1.368 . S
C3370 C3369 1.523 . S
H3371 C3346 0.950 . S
H3372 C3348 0.950 . S
H3373 C3349 0.949 . S
H3374 C3351 0.950 . S
H3375 C3353 0.950 . S
C3376 C3377 1.349 . S
C3376 C3378 1.327 . S
C3376 H3401 0.950 . S
C3377 C3376 1.349 . S
C3377 C3393 1.349 . S
C3378 C3376 1.327 . S
C3378 C3397 1.429 . S
C3378 H3402 0.950 . S
C3379 C3396 1.574 . S
C3379 C3398 1.368 . S
C3379 H3403 0.949 . S
H3380 C3384 0.949 . S
C3381 C3382 1.349 . S
C3381 C3383 1.327 . S
C3381 H3404 0.950 . S
C3382 C3381 1.349 . S
C3382 C3394 1.349 . S
C3383 C3381 1.327 . S
C3383 C3399 1.429 . S
C3383 H3405 0.950 . S
C3384 H3380 0.949 . S
C3384 C3392 1.574 . S
C3384 C3400 1.368 . S
H3385 C3393 0.950 . S
H3386 C3391 0.950 . S
H3387 C3392 0.949 . S
H3388 C3394 0.950 . S
H3389 C3395 0.950 . S
H3390 C3396 0.949 . S
C3391 H3386 0.950 . S
C3391 C3393 1.327 . S
C3391 C3397 1.429 . S
C3392 C3384 1.574 . S
C3392 H3387 0.949 . S
C3392 C3398 1.368 . S
C3393 C3377 1.349 . S
C3393 H3385 0.950 . S
C3393 C3391 1.327 . S
C3394 C3382 1.349 . S
C3394 H3388 0.950 . S
C3394 C3395 1.327 . S
C3395 H3389 0.950 . S
C3395 C3394 1.327 . S
C3395 C3399 1.429 . S
C3396 C3379 1.574 . S
C3396 H3390 0.949 . S
C3396 C3400 1.368 . S
C3397 C3378 1.429 . S
C3397 C3391 1.429 . S
C3397 C3398 1.523 . S
C3398 C3379 1.368 . S
C3398 C3392 1.368 . S
C3398 C3397 1.523 . S
C3399 C3383 1.429 . S
C3399 C3395 1.429 . S
C3399 C3400 1.523 . S
C3400 C3384 1.368 . S
C3400 C3396 1.368 . S
C3400 C3399 1.523 . S
H3401 C3376 0.950 . S
H3402 C3378 0.950 . S
H3403 C3379 0.949 . S
H3404 C3381 0.950 . S
H3405 C3383 0.950 . S
C3406 C3407 1.349 . S
C3406 C3408 1.327 . S
C3406 H3431 0.950 . S
C3407 C3406 1.349 . S
C3407 C3423 1.349 . S
C3408 C3406 1.327 . S
C3408 C3427 1.429 . S
C3408 H3432 0.950 . S
C3409 C3426 1.574 . S
C3409 C3428 1.368 . S
C3409 H3433 0.949 . S
H3410 C3414 0.949 . S
C3411 C3412 1.349 . S
C3411 C3413 1.327 . S
C3411 H3434 0.950 . S
C3412 C3411 1.349 . S
C3412 C3424 1.349 . S
C3413 C3411 1.327 . S
C3413 C3429 1.429 . S
C3413 H3435 0.950 . S
C3414 H3410 0.949 . S
C3414 C3422 1.574 . S
C3414 C3430 1.368 . S
H3415 C3423 0.950 . S
H3416 C3421 0.950 . S
H3417 C3422 0.949 . S
H3418 C3424 0.950 . S
H3419 C3425 0.950 . S
H3420 C3426 0.949 . S
C3421 H3416 0.950 . S
C3421 C3423 1.327 . S
C3421 C3427 1.429 . S
C3422 C3414 1.574 . S
C3422 H3417 0.949 . S
C3422 C3428 1.368 . S
C3423 C3407 1.349 . S
C3423 H3415 0.950 . S
C3423 C3421 1.327 . S
C3424 C3412 1.349 . S
C3424 H3418 0.950 . S
C3424 C3425 1.327 . S
C3425 H3419 0.950 . S
C3425 C3424 1.327 . S
C3425 C3429 1.429 . S
C3426 C3409 1.574 . S
C3426 H3420 0.949 . S
C3426 C3430 1.368 . S
C3427 C3408 1.429 . S
C3427 C3421 1.429 . S
C3427 C3428 1.523 . S
C3428 C3409 1.368 . S
C3428 C3422 1.368 . S
C3428 C3427 1.523 . S
C3429 C3413 1.429 . S
C3429 C3425 1.429 . S
C3429 C3430 1.523 . S
C3430 C3414 1.368 . S
C3430 C3426 1.368 . S
C3430 C3429 1.523 . S
H3431 C3406 0.950 . S
H3432 C3408 0.950 . S
H3433 C3409 0.949 . S
H3434 C3411 0.950 . S
H3435 C3413 0.950 . S
C3436 C3437 1.349 . S
C3436 C3438 1.327 . S
C3436 H3461 0.950 . S
C3437 C3436 1.349 . S
C3437 C3453 1.349 . S
C3438 C3436 1.327 . S
C3438 C3457 1.429 . S
C3438 H3462 0.950 . S
C3439 C3456 1.574 . S
C3439 C3458 1.368 . S
C3439 H3463 0.949 . S
H3440 C3444 0.949 . S
C3441 C3442 1.353 1_655 S
C3441 C3443 1.345 . S
C3441 H3464 0.930 1_655 S
C3442 C3441 1.353 1_455 S
C3442 C3454 1.349 1_455 S
C3443 C3441 1.345 . S
C3443 C3459 1.429 . S
C3443 H3465 0.950 . S
C3444 H3440 0.949 . S
C3444 C3452 1.574 . S
C3444 C3460 1.368 . S
H3445 C3453 0.950 . S
H3446 C3451 0.950 . S
H3447 C3452 0.949 . S
H3448 C3454 0.950 . S
H3449 C3455 0.950 . S
H3450 C3456 0.949 . S
C3451 H3446 0.950 . S
C3451 C3453 1.327 . S
C3451 C3457 1.429 . S
C3452 C3444 1.574 . S
C3452 H3447 0.949 . S
C3452 C3458 1.368 . S
C3453 C3437 1.349 . S
C3453 H3445 0.950 . S
C3453 C3451 1.327 . S
C3454 C3442 1.349 1_655 S
C3454 H3448 0.950 . S
C3454 C3455 1.327 . S
C3455 H3449 0.950 . S
C3455 C3454 1.327 . S
C3455 C3459 1.429 . S
C3456 C3439 1.574 . S
C3456 H3450 0.949 . S
C3456 C3460 1.368 . S
C3457 C3438 1.429 . S
C3457 C3451 1.429 . S
C3457 C3458 1.523 . S
C3458 C3439 1.368 . S
C3458 C3452 1.368 . S
C3458 C3457 1.523 . S
C3459 C3443 1.429 . S
C3459 C3455 1.429 . S
C3459 C3460 1.523 . S
C3460 C3444 1.368 . S
C3460 C3456 1.368 . S
C3460 C3459 1.523 . S
H3461 C3436 0.950 . S
H3462 C3438 0.950 . S
H3463 C3439 0.949 . S
H3464 C3441 0.930 1_455 S
H3465 C3443 0.950 . S
C3466 C3467 1.349 . S
C3466 C3468 1.327 . S
C3466 H3491 0.950 . S
C3467 C3466 1.349 . S
C3467 C3483 1.349 . S
C3468 C3466 1.327 . S
C3468 C3487 1.429 . S
C3468 H3492 0.950 . S
C3469 C3486 1.574 . S
C3469 C3488 1.368 . S
C3469 H3493 0.949 . S
H3470 C3474 0.949 . S
C3471 C3472 1.349 . S
C3471 C3473 1.327 . S
C3471 H3494 0.950 . S
C3472 C3471 1.349 . S
C3472 C3484 1.349 . S
C3473 C3471 1.327 . S
C3473 C3489 1.429 . S
C3473 H3495 0.950 . S
C3474 H3470 0.949 . S
C3474 C3482 1.574 . S
C3474 C3490 1.368 . S
H3475 C3483 0.950 . S
H3476 C3481 0.950 . S
H3477 C3482 0.949 . S
H3478 C3484 0.950 . S
H3479 C3485 0.950 . S
H3480 C3486 0.949 . S
C3481 H3476 0.950 . S
C3481 C3483 1.327 . S
C3481 C3487 1.429 . S
C3482 C3474 1.574 . S
C3482 H3477 0.949 . S
C3482 C3488 1.368 . S
C3483 C3467 1.349 . S
C3483 H3475 0.950 . S
C3483 C3481 1.327 . S
C3484 C3472 1.349 . S
C3484 H3478 0.950 . S
C3484 C3485 1.327 . S
C3485 H3479 0.950 . S
C3485 C3484 1.327 . S
C3485 C3489 1.429 . S
C3486 C3469 1.574 . S
C3486 H3480 0.949 . S
C3486 C3490 1.368 . S
C3487 C3468 1.429 . S
C3487 C3481 1.429 . S
C3487 C3488 1.523 . S
C3488 C3469 1.368 . S
C3488 C3482 1.368 . S
C3488 C3487 1.523 . S
C3489 C3473 1.429 . S
C3489 C3485 1.429 . S
C3489 C3490 1.523 . S
C3490 C3474 1.368 . S
C3490 C3486 1.368 . S
C3490 C3489 1.523 . S
H3491 C3466 0.950 . S
H3492 C3468 0.950 . S
H3493 C3469 0.949 . S
H3494 C3471 0.950 . S
H3495 C3473 0.950 . S
C3496 C3497 1.349 . S
C3496 C3498 1.327 . S
C3496 H3521 0.950 . S
C3497 C3496 1.349 . S
C3497 C3513 1.349 . S
C3498 C3496 1.327 . S
C3498 C3517 1.429 . S
C3498 H3522 0.950 . S
C3499 C3516 1.574 . S
C3499 C3518 1.368 . S
C3499 H3523 0.949 . S
H3500 C3504 0.949 . S
C3501 C3502 1.349 . S
C3501 C3503 1.327 . S
C3501 H3524 0.950 . S
C3502 C3501 1.349 . S
C3502 C3514 1.349 . S
C3503 C3501 1.327 . S
C3503 C3519 1.429 . S
C3503 H3525 0.950 . S
C3504 H3500 0.949 . S
C3504 C3512 1.574 . S
C3504 C3520 1.368 . S
H3505 C3513 0.950 . S
H3506 C3511 0.950 . S
H3507 C3512 0.949 . S
H3508 C3514 0.950 . S
H3509 C3515 0.950 . S
H3510 C3516 0.949 . S
C3511 H3506 0.950 . S
C3511 C3513 1.327 . S
C3511 C3517 1.429 . S
C3512 C3504 1.574 . S
C3512 H3507 0.949 . S
C3512 C3518 1.368 . S
C3513 C3497 1.349 . S
C3513 H3505 0.950 . S
C3513 C3511 1.327 . S
C3514 C3502 1.349 . S
C3514 H3508 0.950 . S
C3514 C3515 1.327 . S
C3515 H3509 0.950 . S
C3515 C3514 1.327 . S
C3515 C3519 1.429 . S
C3516 C3499 1.574 . S
C3516 H3510 0.949 . S
C3516 C3520 1.368 . S
C3517 C3498 1.429 . S
C3517 C3511 1.429 . S
C3517 C3518 1.523 . S
C3518 C3499 1.368 . S
C3518 C3512 1.368 . S
C3518 C3517 1.523 . S
C3519 C3503 1.429 . S
C3519 C3515 1.429 . S
C3519 C3520 1.523 . S
C3520 C3504 1.368 . S
C3520 C3516 1.368 . S
C3520 C3519 1.523 . S
H3521 C3496 0.950 . S
H3522 C3498 0.950 . S
H3523 C3499 0.949 . S
H3524 C3501 0.950 . S
H3525 C3503 0.950 . S
C3526 C3527 1.349 . S
C3526 C3528 1.327 . S
C3526 H3551 0.950 . S
C3527 C3526 1.349 . S
C3527 C3543 1.349 . S
C3528 C3526 1.327 . S
C3528 C3547 1.429 . S
C3528 H3552 0.950 . S
C3529 C3546 1.574 . S
C3529 C3548 1.368 . S
C3529 H3553 0.949 . S
H3530 C3534 0.949 . S
C3531 C3532 1.349 . S
C3531 C3533 1.327 . S
C3531 H3554 0.950 . S
C3532 C3531 1.349 . S
C3532 C3544 1.349 . S
C3533 C3531 1.327 . S
C3533 C3549 1.429 . S
C3533 H3555 0.950 . S
C3534 H3530 0.949 . S
C3534 C3542 1.574 . S
C3534 C3550 1.368 . S
H3535 C3543 0.950 . S
H3536 C3541 0.950 . S
H3537 C3542 0.949 . S
H3538 C3544 0.950 . S
H3539 C3545 0.950 . S
H3540 C3546 0.949 . S
C3541 H3536 0.950 . S
C3541 C3543 1.327 . S
C3541 C3547 1.429 . S
C3542 C3534 1.574 . S
C3542 H3537 0.949 . S
C3542 C3548 1.368 . S
C3543 C3527 1.349 . S
C3543 H3535 0.950 . S
C3543 C3541 1.327 . S
C3544 C3532 1.349 . S
C3544 H3538 0.950 . S
C3544 C3545 1.327 . S
C3545 H3539 0.950 . S
C3545 C3544 1.327 . S
C3545 C3549 1.429 . S
C3546 C3529 1.574 . S
C3546 H3540 0.949 . S
C3546 C3550 1.368 . S
C3547 C3528 1.429 . S
C3547 C3541 1.429 . S
C3547 C3548 1.523 . S
C3548 C3529 1.368 . S
C3548 C3542 1.368 . S
C3548 C3547 1.523 . S
C3549 C3533 1.429 . S
C3549 C3545 1.429 . S
C3549 C3550 1.523 . S
C3550 C3534 1.368 . S
C3550 C3546 1.368 . S
C3550 C3549 1.523 . S
H3551 C3526 0.950 . S
H3552 C3528 0.950 . S
H3553 C3529 0.949 . S
H3554 C3531 0.950 . S
H3555 C3533 0.950 . S
C3556 C3557 1.349 . S
C3556 C3558 1.327 . S
C3556 H3581 0.950 . S
C3557 C3556 1.349 . S
C3557 C3573 1.349 . S
C3558 C3556 1.327 . S
C3558 C3577 1.429 . S
C3558 H3582 0.950 . S
C3559 C3576 1.574 . S
C3559 C3578 1.368 . S
C3559 H3583 0.949 . S
H3560 C3564 0.949 . S
C3561 C3562 1.352 1_455 S
C3561 C3563 1.287 1_455 S
C3561 H3584 0.990 . S
C3562 C3561 1.352 1_655 S
C3562 C3574 1.349 . S
C3563 C3561 1.287 1_655 S
C3563 C3579 1.429 . S
C3563 H3585 0.950 . S
C3564 H3560 0.949 . S
C3564 C3572 1.574 . S
C3564 C3580 1.368 . S
H3565 C3573 0.950 . S
H3566 C3571 0.950 . S
H3567 C3572 0.949 . S
H3568 C3574 0.950 . S
H3569 C3575 0.950 . S
H3570 C3576 0.949 . S
C3571 H3566 0.950 . S
C3571 C3573 1.327 . S
C3571 C3577 1.429 . S
C3572 C3564 1.574 . S
C3572 H3567 0.949 . S
C3572 C3578 1.368 . S
C3573 C3557 1.349 . S
C3573 H3565 0.950 . S
C3573 C3571 1.327 . S
C3574 C3562 1.349 . S
C3574 H3568 0.950 . S
C3574 C3575 1.327 . S
C3575 H3569 0.950 . S
C3575 C3574 1.327 . S
C3575 C3579 1.429 . S
C3576 C3559 1.574 . S
C3576 H3570 0.949 . S
C3576 C3580 1.368 . S
C3577 C3558 1.429 . S
C3577 C3571 1.429 . S
C3577 C3578 1.523 . S
C3578 C3559 1.368 . S
C3578 C3572 1.368 . S
C3578 C3577 1.523 . S
C3579 C3563 1.429 . S
C3579 C3575 1.429 . S
C3579 C3580 1.523 . S
C3580 C3564 1.368 . S
C3580 C3576 1.368 . S
C3580 C3579 1.523 . S
H3581 C3556 0.950 . S
H3582 C3558 0.950 . S
H3583 C3559 0.949 . S
H3584 C3561 0.990 . S
H3585 C3563 0.950 . S
C3586 C3587 1.349 . S
C3586 C3588 1.327 . S
C3586 H3611 0.950 . S
C3587 C3586 1.349 . S
C3587 C3603 1.349 . S
C3588 C3586 1.327 . S
C3588 C3607 1.429 . S
C3588 H3612 0.950 . S
C3589 C3606 1.574 . S
C3589 C3608 1.368 . S
C3589 H3613 0.949 . S
H3590 C3594 0.949 . S
C3591 C3592 1.349 . S
C3591 C3593 1.327 . S
C3591 H3614 0.950 . S
C3592 C3591 1.349 . S
C3592 C3604 1.349 . S
C3593 C3591 1.327 . S
C3593 C3609 1.429 . S
C3593 H3615 0.950 . S
C3594 H3590 0.949 . S
C3594 C3602 1.574 . S
C3594 C3610 1.368 . S
H3595 C3603 0.950 . S
H3596 C3601 0.950 . S
H3597 C3602 0.949 . S
H3598 C3604 0.950 . S
H3599 C3605 0.950 . S
H3600 C3606 0.949 . S
C3601 H3596 0.950 . S
C3601 C3603 1.327 . S
C3601 C3607 1.429 . S
C3602 C3594 1.574 . S
C3602 H3597 0.949 . S
C3602 C3608 1.368 . S
C3603 C3587 1.349 . S
C3603 H3595 0.950 . S
C3603 C3601 1.327 . S
C3604 C3592 1.349 . S
C3604 H3598 0.950 . S
C3604 C3605 1.327 . S
C3605 H3599 0.950 . S
C3605 C3604 1.327 . S
C3605 C3609 1.429 . S
C3606 C3589 1.574 . S
C3606 H3600 0.949 . S
C3606 C3610 1.368 . S
C3607 C3588 1.429 . S
C3607 C3601 1.429 . S
C3607 C3608 1.523 . S
C3608 C3589 1.368 . S
C3608 C3602 1.368 . S
C3608 C3607 1.523 . S
C3609 C3593 1.429 . S
C3609 C3605 1.429 . S
C3609 C3610 1.523 . S
C3610 C3594 1.368 . S
C3610 C3606 1.368 . S
C3610 C3609 1.523 . S
H3611 C3586 0.950 . S
H3612 C3588 0.950 . S
H3613 C3589 0.949 . S
H3614 C3591 0.950 . S
H3615 C3593 0.950 . S
C3616 C3617 1.349 . S
C3616 C3618 1.327 . S
C3616 H3641 0.950 . S
C3617 C3616 1.349 . S
C3617 C3633 1.349 . S
C3618 C3616 1.327 . S
C3618 C3637 1.429 . S
C3618 H3642 0.950 . S
C3619 C3636 1.574 . S
C3619 C3638 1.368 . S
C3619 H3643 0.949 . S
H3620 C3624 0.949 . S
C3621 C3622 1.349 . S
C3621 C3623 1.327 . S
C3621 H3644 0.950 . S
C3622 C3621 1.349 . S
C3622 C3634 1.349 . S
C3623 C3621 1.327 . S
C3623 C3639 1.429 . S
C3623 H3645 0.950 . S
C3624 H3620 0.949 . S
C3624 C3632 1.574 . S
C3624 C3640 1.368 . S
H3625 C3633 0.950 . S
H3626 C3631 0.950 . S
H3627 C3632 0.949 . S
H3628 C3634 0.950 . S
H3629 C3635 0.950 . S
H3630 C3636 0.949 . S
C3631 H3626 0.950 . S
C3631 C3633 1.327 . S
C3631 C3637 1.429 . S
C3632 C3624 1.574 . S
C3632 H3627 0.949 . S
C3632 C3638 1.368 . S
C3633 C3617 1.349 . S
C3633 H3625 0.950 . S
C3633 C3631 1.327 . S
C3634 C3622 1.349 . S
C3634 H3628 0.950 . S
C3634 C3635 1.327 . S
C3635 H3629 0.950 . S
C3635 C3634 1.327 . S
C3635 C3639 1.429 . S
C3636 C3619 1.574 . S
C3636 H3630 0.949 . S
C3636 C3640 1.368 . S
C3637 C3618 1.429 . S
C3637 C3631 1.429 . S
C3637 C3638 1.523 . S
C3638 C3619 1.368 . S
C3638 C3632 1.368 . S
C3638 C3637 1.523 . S
C3639 C3623 1.429 . S
C3639 C3635 1.429 . S
C3639 C3640 1.523 . S
C3640 C3624 1.368 . S
C3640 C3636 1.368 . S
C3640 C3639 1.523 . S
H3641 C3616 0.950 . S
H3642 C3618 0.950 . S
H3643 C3619 0.949 . S
H3644 C3621 0.950 . S
H3645 C3623 0.950 . S
C3646 C3647 1.349 . S
C3646 C3648 1.327 . S
C3646 H3671 0.950 . S
C3647 C3646 1.349 . S
C3647 C3663 1.349 . S
C3648 C3646 1.327 . S
C3648 C3667 1.429 . S
C3648 H3672 0.950 . S
C3649 C3666 1.574 . S
C3649 C3668 1.368 . S
C3649 H3673 0.949 . S
H3650 C3654 0.949 . S
C3651 C3652 1.349 . S
C3651 C3653 1.327 . S
C3651 H3674 0.950 . S
C3652 C3651 1.349 . S
C3652 C3664 1.349 . S
C3653 C3651 1.327 . S
C3653 C3669 1.429 . S
C3653 H3675 0.950 . S
C3654 H3650 0.949 . S
C3654 C3662 1.574 . S
C3654 C3670 1.368 . S
H3655 C3663 0.950 . S
H3656 C3661 0.950 . S
H3657 C3662 0.949 . S
H3658 C3664 0.950 . S
H3659 C3665 0.950 . S
H3660 C3666 0.949 . S
C3661 H3656 0.950 . S
C3661 C3663 1.327 . S
C3661 C3667 1.429 . S
C3662 C3654 1.574 . S
C3662 H3657 0.949 . S
C3662 C3668 1.368 . S
C3663 C3647 1.349 . S
C3663 H3655 0.950 . S
C3663 C3661 1.327 . S
C3664 C3652 1.349 . S
C3664 H3658 0.950 . S
C3664 C3665 1.327 . S
C3665 H3659 0.950 . S
C3665 C3664 1.327 . S
C3665 C3669 1.429 . S
C3666 C3649 1.574 . S
C3666 H3660 0.949 . S
C3666 C3670 1.368 . S
C3667 C3648 1.429 . S
C3667 C3661 1.429 . S
C3667 C3668 1.523 . S
C3668 C3649 1.368 . S
C3668 C3662 1.368 . S
C3668 C3667 1.523 . S
C3669 C3653 1.429 . S
C3669 C3665 1.429 . S
C3669 C3670 1.523 . S
C3670 C3654 1.368 . S
C3670 C3666 1.368 . S
C3670 C3669 1.523 . S
H3671 C3646 0.950 . S
H3672 C3648 0.950 . S
H3673 C3649 0.949 . S
H3674 C3651 0.950 . S
H3675 C3653 0.950 . S
C3676 C3677 1.349 . S
C3676 C3678 1.327 . S
C3676 H3701 0.950 . S
C3677 C3676 1.349 . S
C3677 C3693 1.349 . S
C3678 C3676 1.327 . S
C3678 C3697 1.429 . S
C3678 H3702 0.950 . S
C3679 C3696 1.574 . S
C3679 C3698 1.368 . S
C3679 H3703 0.949 . S
H3680 C3684 0.949 . S
C3681 C3682 1.349 . S
C3681 C3683 1.327 . S
C3681 H3704 0.950 . S
C3682 C3681 1.349 . S
C3682 C3694 1.349 . S
C3683 C3681 1.327 . S
C3683 C3699 1.429 . S
C3683 H3705 0.950 . S
C3684 H3680 0.949 . S
C3684 C3692 1.574 . S
C3684 C3700 1.368 . S
H3685 C3693 0.950 . S
H3686 C3691 0.950 . S
H3687 C3692 0.949 . S
H3688 C3694 0.950 . S
H3689 C3695 0.950 . S
H3690 C3696 0.949 . S
C3691 H3686 0.950 . S
C3691 C3693 1.327 . S
C3691 C3697 1.429 . S
C3692 C3684 1.574 . S
C3692 H3687 0.949 . S
C3692 C3698 1.368 . S
C3693 C3677 1.349 . S
C3693 H3685 0.950 . S
C3693 C3691 1.327 . S
C3694 C3682 1.349 . S
C3694 H3688 0.950 . S
C3694 C3695 1.327 . S
C3695 H3689 0.950 . S
C3695 C3694 1.327 . S
C3695 C3699 1.429 . S
C3696 C3679 1.574 . S
C3696 H3690 0.949 . S
C3696 C3700 1.368 . S
C3697 C3678 1.429 . S
C3697 C3691 1.429 . S
C3697 C3698 1.523 . S
C3698 C3679 1.368 . S
C3698 C3692 1.368 . S
C3698 C3697 1.523 . S
C3699 C3683 1.429 . S
C3699 C3695 1.429 . S
C3699 C3700 1.523 . S
C3700 C3684 1.368 . S
C3700 C3696 1.368 . S
C3700 C3699 1.523 . S
H3701 C3676 0.950 . S
H3702 C3678 0.950 . S
H3703 C3679 0.949 . S
H3704 C3681 0.950 . S
H3705 C3683 0.950 . S
C3706 C3707 1.349 . S
C3706 C3708 1.327 . S
C3706 H3731 0.950 . S
C3707 C3706 1.349 . S
C3707 C3723 1.349 . S
C3708 C3706 1.327 . S
C3708 C3727 1.429 . S
C3708 H3732 0.950 . S
C3709 C3726 1.574 . S
C3709 C3728 1.368 . S
C3709 H3733 0.949 . S
H3710 C3714 0.949 . S
C3711 C3712 1.349 . S
C3711 C3713 1.327 . S
C3711 H3734 0.950 . S
C3712 C3711 1.349 . S
C3712 C3724 1.349 . S
C3713 C3711 1.327 . S
C3713 C3729 1.429 . S
C3713 H3735 0.950 . S
C3714 H3710 0.949 . S
C3714 C3722 1.574 . S
C3714 C3730 1.368 . S
H3715 C3723 0.950 . S
H3716 C3721 0.950 . S
H3717 C3722 0.949 . S
H3718 C3724 0.950 . S
H3719 C3725 0.950 . S
H3720 C3726 0.949 . S
C3721 H3716 0.950 . S
C3721 C3723 1.327 . S
C3721 C3727 1.429 . S
C3722 C3714 1.574 . S
C3722 H3717 0.949 . S
C3722 C3728 1.368 . S
C3723 C3707 1.349 . S
C3723 H3715 0.950 . S
C3723 C3721 1.327 . S
C3724 C3712 1.349 . S
C3724 H3718 0.950 . S
C3724 C3725 1.327 . S
C3725 H3719 0.950 . S
C3725 C3724 1.327 . S
C3725 C3729 1.429 . S
C3726 C3709 1.574 . S
C3726 H3720 0.949 . S
C3726 C3730 1.368 . S
C3727 C3708 1.429 . S
C3727 C3721 1.429 . S
C3727 C3728 1.523 . S
C3728 C3709 1.368 . S
C3728 C3722 1.368 . S
C3728 C3727 1.523 . S
C3729 C3713 1.429 . S
C3729 C3725 1.429 . S
C3729 C3730 1.523 . S
C3730 C3714 1.368 . S
C3730 C3726 1.368 . S
C3730 C3729 1.523 . S
H3731 C3706 0.950 . S
H3732 C3708 0.950 . S
H3733 C3709 0.949 . S
H3734 C3711 0.950 . S
H3735 C3713 0.950 . S
C3736 C3737 1.349 . S
C3736 C3738 1.327 . S
C3736 H3761 0.950 . S
C3737 C3736 1.349 . S
C3737 C3753 1.349 . S
C3738 C3736 1.327 . S
C3738 C3757 1.429 . S
C3738 H3762 0.950 . S
C3739 C3756 1.574 . S
C3739 C3758 1.368 . S
C3739 H3763 0.949 . S
H3740 C3744 0.949 . S
C3741 C3742 1.349 . S
C3741 C3743 1.327 . S
C3741 H3764 0.950 . S
C3742 C3741 1.349 . S
C3742 C3754 1.349 . S
C3743 C3741 1.327 . S
C3743 C3759 1.429 . S
C3743 H3765 0.950 . S
C3744 H3740 0.949 . S
C3744 C3752 1.574 . S
C3744 C3760 1.368 . S
H3745 C3753 0.950 . S
H3746 C3751 0.950 . S
H3747 C3752 0.949 . S
H3748 C3754 0.950 . S
H3749 C3755 0.950 . S
H3750 C3756 0.949 . S
C3751 H3746 0.950 . S
C3751 C3753 1.327 . S
C3751 C3757 1.429 . S
C3752 C3744 1.574 . S
C3752 H3747 0.949 . S
C3752 C3758 1.368 . S
C3753 C3737 1.349 . S
C3753 H3745 0.950 . S
C3753 C3751 1.327 . S
C3754 C3742 1.349 . S
C3754 H3748 0.950 . S
C3754 C3755 1.327 . S
C3755 H3749 0.950 . S
C3755 C3754 1.327 . S
C3755 C3759 1.429 . S
C3756 C3739 1.574 . S
C3756 H3750 0.949 . S
C3756 C3760 1.368 . S
C3757 C3738 1.429 . S
C3757 C3751 1.429 . S
C3757 C3758 1.523 . S
C3758 C3739 1.368 . S
C3758 C3752 1.368 . S
C3758 C3757 1.523 . S
C3759 C3743 1.429 . S
C3759 C3755 1.429 . S
C3759 C3760 1.523 . S
C3760 C3744 1.368 . S
C3760 C3756 1.368 . S
C3760 C3759 1.523 . S
H3761 C3736 0.950 . S
H3762 C3738 0.950 . S
H3763 C3739 0.949 . S
H3764 C3741 0.950 . S
H3765 C3743 0.950 . S
C3766 C3767 1.349 . S
C3766 C3768 1.327 . S
C3766 H3791 0.950 . S
C3767 C3766 1.349 . S
C3767 C3783 1.349 . S
C3768 C3766 1.327 . S
C3768 C3787 1.429 . S
C3768 H3792 0.950 . S
C3769 C3786 1.574 . S
C3769 C3788 1.365 1_556 S
C3769 H3793 0.951 . S
H3770 C3774 0.949 . S
C3771 C3772 1.349 1_556 S
C3771 C3773 1.327 . S
C3771 H3794 0.950 . S
C3772 C3771 1.349 1_554 S
C3772 C3784 1.349 . S
C3773 C3771 1.327 . S
C3773 C3789 1.429 1_556 S
C3773 H3795 0.950 . S
C3774 H3770 0.949 . S
C3774 C3782 1.574 . S
C3774 C3790 1.368 . S
H3775 C3783 0.964 . S
H3776 C3781 0.950 1_556 S
H3777 C3782 0.949 . S
H3778 C3784 0.950 . S
H3779 C3785 0.950 . S
H3780 C3786 0.949 . S
C3781 H3776 0.950 1_554 S
C3781 C3783 1.327 . S
C3781 C3787 1.429 . S
C3782 C3774 1.574 . S
C3782 H3777 0.949 . S
C3782 C3788 1.368 . S
C3783 C3767 1.349 . S
C3783 H3775 0.964 . S
C3783 C3781 1.327 . S
C3784 C3772 1.349 . S
C3784 H3778 0.950 . S
C3784 C3785 1.327 . S
C3785 H3779 0.950 . S
C3785 C3784 1.327 . S
C3785 C3789 1.429 . S
C3786 C3769 1.574 . S
C3786 H3780 0.949 . S
C3786 C3790 1.368 1_556 S
C3787 C3768 1.429 . S
C3787 C3781 1.429 . S
C3787 C3788 1.523 . S
C3788 C3769 1.365 1_554 S
C3788 C3782 1.368 . S
C3788 C3787 1.523 . S
C3789 C3773 1.429 1_554 S
C3789 C3785 1.429 . S
C3789 C3790 1.523 . S
C3790 C3774 1.368 . S
C3790 C3786 1.368 1_554 S
C3790 C3789 1.523 . S
H3791 C3766 0.950 . S
H3792 C3768 0.950 . S
H3793 C3769 0.951 . S
H3794 C3771 0.950 . S
H3795 C3773 0.950 . S
C3796 C3797 1.349 . S
C3796 C3798 1.327 . S
C3796 H3821 0.950 . S
C3797 C3796 1.349 . S
C3797 C3813 1.349 . S
C3798 C3796 1.327 . S
C3798 C3817 1.429 . S
C3798 H3822 0.950 . S
C3799 C3816 1.574 . S
C3799 C3818 1.368 . S
C3799 H3823 0.949 . S
H3800 C3804 0.949 . S
C3801 C3802 1.349 . S
C3801 C3803 1.327 . S
C3801 H3824 0.950 . S
C3802 C3801 1.349 . S
C3802 C3814 1.349 . S
C3803 C3801 1.327 . S
C3803 C3819 1.429 . S
C3803 H3825 0.950 . S
C3804 H3800 0.949 . S
C3804 C3812 1.574 . S
C3804 C3820 1.368 . S
H3805 C3813 0.950 . S
H3806 C3811 0.950 . S
H3807 C3812 0.949 . S
H3808 C3814 0.950 . S
H3809 C3815 0.950 . S
H3810 C3816 0.949 . S
C3811 H3806 0.950 . S
C3811 C3813 1.327 . S
C3811 C3817 1.429 . S
C3812 C3804 1.574 . S
C3812 H3807 0.949 . S
C3812 C3818 1.368 . S
C3813 C3797 1.349 . S
C3813 H3805 0.950 . S
C3813 C3811 1.327 . S
C3814 C3802 1.349 . S
C3814 H3808 0.950 . S
C3814 C3815 1.327 . S
C3815 H3809 0.950 . S
C3815 C3814 1.327 . S
C3815 C3819 1.429 . S
C3816 C3799 1.574 . S
C3816 H3810 0.949 . S
C3816 C3820 1.368 . S
C3817 C3798 1.429 . S
C3817 C3811 1.429 . S
C3817 C3818 1.523 . S
C3818 C3799 1.368 . S
C3818 C3812 1.368 . S
C3818 C3817 1.523 . S
C3819 C3803 1.429 . S
C3819 C3815 1.429 . S
C3819 C3820 1.523 . S
C3820 C3804 1.368 . S
C3820 C3816 1.368 . S
C3820 C3819 1.523 . S
H3821 C3796 0.950 . S
H3822 C3798 0.950 . S
H3823 C3799 0.949 . S
H3824 C3801 0.950 . S
H3825 C3803 0.950 . S
C3826 C3827 1.349 . S
C3826 C3828 1.327 . S
C3826 H3851 0.950 . S
C3827 C3826 1.349 . S
C3827 C3843 1.349 . S
C3828 C3826 1.327 . S
C3828 C3847 1.429 . S
C3828 H3852 0.950 . S
C3829 C3846 1.574 . S
C3829 C3848 1.368 . S
C3829 H3853 0.949 . S
H3830 C3834 0.949 . S
C3831 C3832 1.349 . S
C3831 C3833 1.327 . S
C3831 H3854 0.950 . S
C3832 C3831 1.349 . S
C3832 C3844 1.349 . S
C3833 C3831 1.327 . S
C3833 C3849 1.429 . S
C3833 H3855 0.950 . S
C3834 H3830 0.949 . S
C3834 C3842 1.574 . S
C3834 C3850 1.368 . S
H3835 C3843 0.950 . S
H3836 C3841 0.950 . S
H3837 C3842 0.949 . S
H3838 C3844 0.950 . S
H3839 C3845 0.950 . S
H3840 C3846 0.949 . S
C3841 H3836 0.950 . S
C3841 C3843 1.327 . S
C3841 C3847 1.429 . S
C3842 C3834 1.574 . S
C3842 H3837 0.949 . S
C3842 C3848 1.368 . S
C3843 C3827 1.349 . S
C3843 H3835 0.950 . S
C3843 C3841 1.327 . S
C3844 C3832 1.349 . S
C3844 H3838 0.950 . S
C3844 C3845 1.327 . S
C3845 H3839 0.950 . S
C3845 C3844 1.327 . S
C3845 C3849 1.429 . S
C3846 C3829 1.574 . S
C3846 H3840 0.949 . S
C3846 C3850 1.368 . S
C3847 C3828 1.429 . S
C3847 C3841 1.429 . S
C3847 C3848 1.523 . S
C3848 C3829 1.368 . S
C3848 C3842 1.368 . S
C3848 C3847 1.523 . S
C3849 C3833 1.429 . S
C3849 C3845 1.429 . S
C3849 C3850 1.523 . S
C3850 C3834 1.368 . S
C3850 C3846 1.368 . S
C3850 C3849 1.523 . S
H3851 C3826 0.950 . S
H3852 C3828 0.950 . S
H3853 C3829 0.949 . S
H3854 C3831 0.950 . S
H3855 C3833 0.950 . S
C977 C105 2.292 . S
C982 C346 2.238 . S
C1007 C65 2.072 . S
C1012 C394 2.062 . S
C1037 C73 1.144 . S
C1042 C426 1.133 . S
C1072 C471 1.593 . S
C1067 C92 1.621 . S
C1097 C17 0.938 . S
C1102 C511 0.936 . S
C1132 C546 0.834 . S
C1127 C37 0.834 . S
C1162 C585 1.218 . S
C1157 C49 1.190 . S
C1187 C8 1.210 . S
C1192 C622 1.202 . S
C1222 C354 1.984 . S
C1217 C231 1.964 . S
C1247 C241 0.331 . S
C1252 C391 0.475 . S
C1282 C434 2.446 . S
C1277 C273 2.394 . S
C1312 C466 0.956 . S
C1307 C171 0.967 . S
C1337 C227 1.086 . S
C1342 C506 1.071 . S
C1372 C554 0.447 . S
C1367 C245 0.512 . S
C1402 C595 1.853 . S
C1397 C269 1.930 . S
C1432 C625 1.931 . S
C1427 C175 1.927 . S
C1462 C351 1.118 . S
C1457 C162 1.132 1_554 S
C1487 C289 2.214 . S
C1492 C674 2.192 . S
C1522 C711 1.183 . S
C1517 C330 1.185 . S
C1552 C742 0.355 . S
C1547 C317 0.238 . S
C1577 C120 2.777 . S
C1582 C635 2.738 . S
C1607 C134 1.452 . S
C1612 C431 1.437 . S
C1637 C331 1.765 . S
C1642 C794 1.756 . S
C1672 C826 1.700 . S
C1667 C303 1.712 . S
C1702 C355 2.251 . S
C1697 C59 2.306 . S
C1732 C825 2.127 . S
C1727 C107 2.131 . S
C1757 C91 1.190 . S
C1762 C435 1.194 . S
C1787 C78 1.645 . S
C1792 C782 1.625 . S
C1822 C502 0.982 . S
C1817 C7 0.956 1_455 S
C1847 C51 0.906 . S
C1852 C715 0.907 . S
C1882 C594 1.232 . S
C1877 C31 1.249 . S
C1912 C871 1.230 . S
C1907 C22 1.231 . S
C1942 C345 2.019 . S
C1937 C143 2.029 . S
C1972 C822 0.436 . S
C1967 C315 0.527 . S
C1997 C115 2.513 . S
C2002 C425 2.489 . S
C2027 C287 1.011 . S
C2032 C795 1.018 . S
C2057 C147 1.134 . S
C2062 C515 1.139 . S
C2092 C705 0.510 . S
C2087 C311 0.497 . S
C2117 C119 1.910 . S
C2122 C586 1.911 . S
C2147 C283 1.966 . S
C2152 C874 1.945 . S
C2177 C190 1.104 . S
C2182 C342 1.102 . S
C2207 C177 2.267 . S
C2212 C665 2.249 . S
C2237 C260 1.193 . S
C2242 C542 1.198 . S
C2267 C247 0.238 . S
C2272 C751 0.342 . S
C2302 C866 2.776 . S
C2297 C274 2.820 . S
C2327 C218 1.478 . S
C2332 C422 1.469 . S
C2362 C465 1.803 . S
C2357 C261 1.808 . S
C2392 C395 1.753 . S
C2387 C205 1.770 . S
C2417 C77 2.292 . S
C2422 C906 2.238 . S
C2452 C834 2.062 . S
C2447 C93 2.072 . S
C2477 C101 1.144 . S
C2482 C946 1.133 . S
C2507 C64 1.620 1_655 S
C2512 C791 1.593 . S
C2537 C45 0.938 . S
C2542 C671 0.936 . S
C2572 C706 0.833 . S
C2567 C9 0.833 . S
C2602 C745 1.217 . S
C2597 C21 1.189 . S
C2632 C862 1.202 . S
C2627 C36 1.210 . S
C2662 C914 1.984 . S
C2657 C259 1.964 . S
C2687 C185 0.331 . S
C2692 C831 0.475 . S
C2722 C954 2.446 . S
C2717 C203 2.393 . S
C2752 C786 0.956 . S
C2747 C213 0.967 . S
C2782 C666 1.071 . S
C2777 C255 1.086 . S
C2807 C189 0.512 . S
C2812 C714 0.447 . S
C2842 C755 1.853 . S
C2837 C199 1.930 . S
C2867 C217 1.928 . S
C2872 C865 1.932 . S
C2902 C911 1.118 . S
C2897 C316 1.133 . S
C2927 C135 2.214 . S
C2932 C514 2.192 . S
C2962 C551 1.183 . S
C2957 C148 1.185 . S
C2992 C582 0.355 . S
C2987 C163 0.237 . S
C3022 C875 2.738 . S
C3017 C302 2.777 . S
C3047 C288 1.452 . S
C3052 C951 1.437 . S
C3082 C474 1.756 . S
C3077 C149 1.765 . S
C3112 C386 1.700 . S
C3107 C121 1.712 . S
C3137 C87 2.306 . S
C3142 C915 2.251 . S
C3172 C385 2.127 . S
C3167 C79 2.132 . S
C3197 C63 1.190 . S
C3202 C955 1.195 . S
C3227 C106 1.645 . S
C3232 C462 1.625 . S
C3257 C35 0.974 . S
C3262 C662 0.982 . S
C3292 C555 0.907 . S
C3287 C23 0.906 . S
C3317 C3 1.248 . S
C3322 C754 1.232 . S
C3347 C50 1.231 . S
C3352 C631 1.230 . S
C3382 C905 2.019 . S
C3377 C325 2.029 . S
C3407 C161 0.527 . S
C3412 C382 0.438 . S
C3442 C945 2.489 . S
C3437 C297 2.513 . S
C3467 C133 1.011 . S
C3472 C475 1.018 . S
C3497 C329 1.134 . S
C3502 C675 1.139 . S
C3532 C545 0.511 . S
C3527 C157 0.502 . S
C3557 C301 1.910 . S
C3562 C746 1.911 1_655 S
C3592 C634 1.945 . S
C3587 C129 1.966 . S
C3622 C902 1.101 . S
C3617 C246 1.104 . S
C3652 C505 2.296 1_565 S
C3647 C219 2.267 . S
C3677 C232 1.193 . S
C3682 C702 1.198 . S
C3712 C591 0.342 . S
C3707 C191 0.238 . S
C3737 C204 2.821 . S
C3742 C626 2.777 . S
C3767 C176 1.477 . S
C3772 C942 1.469 . S
C3802 C785 1.803 . S
C3797 C233 1.808 . S
C3832 C835 1.752 . S
C3827 C275 1.770 . S
