# Generated by pormake.
# Topology bcu-b, (8,8)-cn, num edge types: 1
# Building blocks:
#     Node 0, Type 0, BuildingBlock: VETTIZ_charged_sbu_0, # of connection points: 8
#     Node 1, Type 1, BuildingBlock: TAGTUT_clean_sbu_3, # of connection points: 8
#     Edge 2, Type (0, 1), BuildingBlock: XUDNAN_clean_linker_2, # of connection points: 2
#     Edge 3, Type (0, 1), BuildingBlock: XUDNAN_clean_linker_2, # of connection points: 2
#     Edge 4, Type (0, 1), BuildingBlock: XUDNAN_clean_linker_2, # of connection points: 2
#     Edge 5, Type (0, 1), BuildingBlock: XUDNAN_clean_linker_2, # of connection points: 2
#     Edge 6, Type (0, 1), BuildingBlock: XUDNAN_clean_linker_2, # of connection points: 2
#     Edge 7, Type (0, 1), BuildingBlock: XUDNAN_clean_linker_2, # of connection points: 2
#     Edge 8, Type (0, 1), BuildingBlock: XUDNAN_clean_linker_2, # of connection points: 2
#     Edge 9, Type (0, 1), BuildingBlock: XUDNAN_clean_linker_2, # of connection points: 2
# Relax obj value: 0.020
# Max RMSD: 0.100
# Mean RMSD: 0.073
data_MOF--net-bcu-b--node1-VETTIZ_charged_sbu_0--node2-TAGTUT_clean_sbu_3--edge1-XUDNAN_clean_linker_2
_symmetry_space_group_name_H-M    P1
_symmetry_Int_Tables_number       1
_symmetry_cell_setting            triclinic
loop_
_symmetry_equiv_pos_as_xyz
'x, y, z'
_cell_length_a     19.460034
_cell_length_b     19.937127
_cell_length_c     20.2691
_cell_angle_alpha  91.234571
_cell_angle_beta   89.117846
_cell_angle_gamma 98.721383
loop_
_atom_site_label
_atom_site_type_symbol
_atom_site_fract_x
_atom_site_fract_y
_atom_site_fract_z
_atom_type_partial_charge
Fe0 Fe 1.00052 0.92705 0.01503 0.0
O1 O 0.04849 0.01228 0.058 0.0
Fe2 Fe 0.97824 0.97797 0.8547 0.0
Fe3 Fe 0.04011 0.03257 0.15313 0.0
O4 O 0.96975 0.99087 0.95072 0.0
O5 O 0.97066 -0.00222 0.94955 0.0
O6 O 0.04809 0.01916 0.05745 0.0
Fe7 Fe 0.01813 0.08284 0.99283 0.0
C8 C 0.90928 0.92672 0.13275 0.0
O9 O 0.04398 0.8726 0.08895 0.0
O10 O 0.10082 0.95756 0.1572 0.0
O11 O 0.10757 0.07991 0.93855 0.0
O12 O 0.06378 0.0512 0.83929 0.0
O13 O 0.04146 0.904 0.8607 0.0
O14 O 0.08849 0.91806 0.96011 0.0
O15 O 0.11764 0.1112 0.13408 0.0
O16 O 0.07477 0.16383 0.0467 0.0
C17 C 0.0876 0.89415 0.90158 0.0
O18 O 0.97989 0.13853 0.91846 0.0
O19 O 0.92116 0.05647 0.84943 0.0
O20 O 0.91227 0.93071 0.07039 0.0
O21 O 0.95779 0.95627 0.1692 0.0
C22 C 0.08958 0.89583 0.13398 0.0
C23 C 0.11864 0.16132 0.09425 0.0
C24 C 0.92541 0.11046 0.10613 0.0
O25 O 0.97212 0.10279 0.14745 0.0
O26 O 0.92834 0.09054 0.04627 0.0
C27 C 0.11179 0.08154 0.87594 0.0
O28 O 0.89844 0.90169 0.87422 0.0
O29 O 0.94078 0.84675 0.96086 0.0
C30 C 0.93695 0.1187 0.87074 0.0
C31 C 0.89624 0.85107 0.91384 0.0
C32 C 0.6203 0.58773 0.6021 0.0
C33 C 0.70259 0.36419 0.55236 0.0
C34 C 0.62017 0.36852 0.35835 0.0
Mg35 Mg 0.49196 0.65841 0.54234 0.0
Mg36 Mg 0.34798 0.55676 0.51009 0.0
O37 O 0.44294 0.57938 0.49138 0.0
Mg38 Mg 0.50433 0.5097 0.50273 0.0
O39 O 0.57239 0.44555 0.51405 0.0
Mg40 Mg 0.65854 0.4966 0.4729 0.0
Mg41 Mg 0.55281 0.35256 0.49533 0.0
C42 C 0.37614 0.44264 0.4076 0.0
O43 O 0.43054 0.44131 0.57359 0.0
O44 O 0.41905 0.72025 0.48351 0.0
O45 O 0.4525 0.33551 0.54711 0.0
O46 O 0.41204 0.64732 0.62803 0.0
O47 O 0.32074 0.64602 0.46813 0.0
O48 O 0.32589 0.56155 0.61447 0.0
O49 O 0.58472 0.56621 0.4303 0.0
O50 O 0.57176 0.67202 0.45889 0.0
C51 C 0.60104 0.63028 0.42384 0.0
C52 C 0.35708 0.70445 0.46036 0.0
O53 O 0.44209 0.45082 0.41792 0.0
O54 O 0.71896 0.42302 0.52688 0.0
O55 O 0.33277 0.46909 0.44468 0.0
O56 O 0.65357 0.42437 0.381 0.0
O57 O 0.64201 0.32904 0.54639 0.0
O58 O 0.57078 0.33445 0.39131 0.0
O59 O 0.55563 0.57855 0.588 0.0
O60 O 0.66448 0.56244 0.56584 0.0
C61 C 0.35696 0.61068 0.64931 0.0
C62 C 0.41759 0.37617 0.57863 0.0
H63 H 0.24466 0.15955 0.14718 0.0
H64 H 0.10817 0.29584 0.07952 0.0
H65 H 0.18065 0.3915 0.13659 0.0
H66 H 0.25245 0.21253 0.29925 0.0
H67 H 0.34195 0.20638 0.31612 0.0
H68 H 0.29723 0.15403 0.25245 0.0
H69 H 0.39046 0.20087 0.16552 0.0
H70 H 0.43701 0.25102 0.23022 0.0
H71 H 0.41364 0.29133 0.15683 0.0
H72 H 0.24287 0.46113 0.22406 0.0
H73 H 0.29729 0.50418 0.32831 0.0
H74 H 0.39502 0.32368 0.34246 0.0
C75 C 0.23196 0.21021 0.14195 0.0
C76 C 0.17095 0.22072 0.10936 0.0
C77 C 0.15519 0.28711 0.1037 0.0
C78 C 0.1961 0.34159 0.13607 0.0
C79 C 0.25285 0.32849 0.17253 0.0
C80 C 0.27185 0.26457 0.17437 0.0
C81 C 0.32697 0.26091 0.22571 0.0
C82 C 0.30314 0.20521 0.27633 0.0
C83 C 0.39615 0.25047 0.19253 0.0
C84 C 0.33168 0.33102 0.2567 0.0
C85 C 0.28977 0.36963 0.22404 0.0
C86 C 0.27747 0.43234 0.24865 0.0
C87 C 0.30782 0.45584 0.30834 0.0
C88 C 0.34992 0.41679 0.34301 0.0
C89 C 0.36383 0.3546 0.31604 0.0
H90 H 0.93473 0.22018 0.18955 0.0
H91 H 0.7875 0.08369 0.07291 0.0
H92 H 0.69149 0.14162 0.11676 0.0
H93 H 0.83075 0.23079 0.33075 0.0
H94 H 0.86035 0.31966 0.34683 0.0
H95 H 0.91618 0.26897 0.30367 0.0
H96 H 0.92818 0.35269 0.20659 0.0
H97 H 0.87191 0.4035 0.24941 0.0
H98 H 0.8511 0.37149 0.16713 0.0
H99 H 0.61024 0.20643 0.18643 0.0
H100 H 0.55414 0.27706 0.26723 0.0
H101 H 0.75708 0.37845 0.32657 0.0
C102 C 0.8823 0.20285 0.17284 0.0
C103 C 0.86823 0.14721 0.12831 0.0
C104 C 0.79921 0.12637 0.10697 0.0
C105 C 0.74449 0.15895 0.13166 0.0
C106 C 0.76007 0.21345 0.17618 0.0
C107 C 0.82766 0.2359 0.19549 0.0
C108 C 0.83117 0.29499 0.24406 0.0
C109 C 0.86136 0.27752 0.31022 0.0
C110 C 0.87307 0.35949 0.21504 0.0
C111 C 0.75481 0.30125 0.2508 0.0
C112 C 0.71427 0.25362 0.21172 0.0
C113 C 0.64168 0.24518 0.2157 0.0
C114 C 0.61011 0.2856 0.26146 0.0
C115 C 0.65097 0.33479 0.30156 0.0
C116 C 0.72418 0.34335 0.29474 0.0
H117 H 0.86251 0.9259 0.26044 0.0
H118 H 0.83526 0.81363 0.07449 0.0
H119 H 0.75877 0.72095 0.13027 0.0
H120 H 0.8683 0.78603 0.36351 0.0
H121 H 0.81961 0.81792 0.43046 0.0
H122 H 0.87092 0.87619 0.37581 0.0
H123 H 0.76249 0.9312 0.3484 0.0
H124 H 0.71124 0.87425 0.4042 0.0
H125 H 0.68494 0.8782 0.31966 0.0
H126 H 0.69155 0.63658 0.20928 0.0
H127 H 0.62258 0.57729 0.3006 0.0
H128 H 0.69064 0.74821 0.43192 0.0
C129 C 0.83969 0.88223 0.23127 0.0
C130 C 0.85478 0.87693 0.16325 0.0
C131 C 0.82384 0.81905 0.12664 0.0
C132 C 0.78094 0.76582 0.158 0.0
C133 C 0.76892 0.77175 0.22569 0.0
C134 C 0.79614 0.82924 0.26149 0.0
C135 C 0.77384 0.82424 0.33316 0.0
C136 C 0.83694 0.8262 0.37837 0.0
C137 C 0.73054 0.88027 0.35247 0.0
C138 C 0.72989 0.75489 0.33225 0.0
C139 C 0.72852 0.72471 0.27019 0.0
C140 C 0.69183 0.65996 0.25797 0.0
C141 C 0.65342 0.62641 0.3101 0.0
C142 C 0.65136 0.65843 0.37291 0.0
C143 C 0.69125 0.72274 0.38419 0.0
H144 H 0.0603 0.80868 0.23565 0.0
H145 H 0.22328 0.89351 0.10052 0.0
H146 H 0.31175 0.85877 0.17343 0.0
H147 H 0.14376 0.8614 0.37896 0.0
H148 H 0.1151 0.78662 0.42633 0.0
H149 H 0.06296 0.80805 0.35961 0.0
H150 H 0.06542 0.69069 0.30301 0.0
H151 H 0.11489 0.66761 0.37108 0.0
H152 H 0.1477 0.66169 0.28784 0.0
H153 H 0.38288 0.83058 0.26927 0.0
H154 H 0.43087 0.78582 0.36883 0.0
H155 H 0.22138 0.71705 0.44035 0.0
C156 C 0.1143 0.81626 0.2198 0.0
C157 C 0.13516 0.85166 0.16161 0.0
C158 C 0.20648 0.86426 0.14387 0.0
C159 C 0.25705 0.84575 0.18552 0.0
C160 C 0.23524 0.81436 0.24456 0.0
C161 C 0.16545 0.79757 0.2607 0.0
C162 C 0.15607 0.76564 0.32803 0.0
C163 C 0.11717 0.80798 0.37602 0.0
C164 C 0.11884 0.69203 0.32213 0.0
C165 C 0.2313 0.76851 0.34772 0.0
C166 C 0.27621 0.79752 0.29931 0.0
C167 C 0.34821 0.80698 0.3072 0.0
C168 C 0.37505 0.78252 0.36443 0.0
C169 C 0.3299 0.74844 0.41246 0.0
C170 C 0.25715 0.74336 0.40465 0.0
H171 H 0.21852 0.90791 0.84752 0.0
H172 H 0.04738 0.75982 0.91499 0.0
H173 H 0.10775 0.66675 0.87245 0.0
H174 H 0.24511 0.8289 0.6996 0.0
H175 H 0.33858 0.84924 0.69798 0.0
H176 H 0.2877 0.90287 0.74356 0.0
H177 H 0.35634 0.88737 0.84936 0.0
H178 H 0.40748 0.83335 0.80395 0.0
H179 H 0.3609 0.80306 0.87764 0.0
H180 H 0.17702 0.5918 0.80639 0.0
H181 H 0.25057 0.54156 0.72399 0.0
H182 H 0.37972 0.73776 0.70436 0.0
C183 C 0.19531 0.85572 0.85524 0.0
C184 C 0.12929 0.84038 0.88539 0.0
C185 C 0.09871 0.77196 0.89291 0.0
C186 C 0.13261 0.71894 0.869 0.0
C187 C 0.19733 0.73536 0.83817 0.0
C188 C 0.22879 0.80213 0.83192 0.0
C189 C 0.29514 0.80638 0.79121 0.0
C190 C 0.29134 0.84934 0.72945 0.0
C191 C 0.35873 0.83418 0.83306 0.0
C192 C 0.29449 0.73208 0.77326 0.0
C193 C 0.23809 0.69173 0.80127 0.0
C194 C 0.22242 0.62257 0.78553 0.0
C195 C 0.26443 0.59439 0.73868 0.0
C196 C 0.32156 0.6353 0.70838 0.0
C197 C 0.3377 0.70447 0.72784 0.0
H198 H 0.16996 0.07356 0.7526 0.0
H199 H 0.17353 0.20289 0.9278 0.0
H200 H 0.24704 0.29504 0.86859 0.0
H201 H 0.35112 0.13245 0.70317 0.0
H202 H 0.33137 0.12568 0.61647 0.0
H203 H 0.28072 0.07011 0.67392 0.0
H204 H 0.16866 0.10965 0.63163 0.0
H205 H 0.21912 0.16658 0.57522 0.0
H206 H 0.16143 0.19876 0.63428 0.0
H207 H 0.31074 0.37686 0.78621 0.0
H208 H 0.37992 0.4344 0.69459 0.0
H209 H 0.34138 0.24895 0.57613 0.0
C210 C 0.18736 0.12086 0.77881 0.0
C211 C 0.16625 0.13105 0.84478 0.0
C212 C 0.18986 0.19366 0.8775 0.0
C213 C 0.23095 0.24658 0.84404 0.0
C214 C 0.24897 0.23565 0.77829 0.0
C215 C 0.22958 0.17369 0.74662 0.0
C216 C 0.25759 0.17435 0.67648 0.0
C217 C 0.30822 0.1226 0.66697 0.0
C218 C 0.19814 0.16158 0.62647 0.0
C219 C 0.29507 0.24659 0.67335 0.0
C220 C 0.28849 0.28154 0.73214 0.0
C221 C 0.317 0.34971 0.74023 0.0
C222 C 0.3556 0.38218 0.68771 0.0
C223 C 0.36626 0.34605 0.62842 0.0
C224 C 0.33438 0.27777 0.621 0.0
H225 H 0.82343 0.09782 0.79215 0.0
H226 H 0.98619 0.25537 0.86234 0.0
H227 H 0.9463 0.33616 0.78557 0.0
H228 H 0.83727 0.13999 0.62468 0.0
H229 H 0.74525 0.12088 0.6097 0.0
H230 H 0.78348 0.0773 0.67323 0.0
H231 H 0.69785 0.11608 0.76025 0.0
H232 H 0.65833 0.15857 0.69676 0.0
H233 H 0.69152 0.20507 0.76966 0.0
H234 H 0.89159 0.39717 0.69517 0.0
H235 H 0.81967 0.43622 0.60846 0.0
H236 H 0.69584 0.23592 0.59868 0.0
C237 C 0.85039 0.14951 0.79215 0.0
C238 C 0.90799 0.17031 0.83316 0.0
C239 C 0.9415 0.23851 0.83172 0.0
C240 C 0.9196 0.28452 0.78792 0.0
C241 C 0.86409 0.26136 0.74643 0.0
C242 C 0.82945 0.19564 0.74902 0.0
C243 C 0.77198 0.18245 0.6991 0.0
C244 C 0.78534 0.12688 0.64871 0.0
C245 C 0.70071 0.16453 0.73351 0.0
C246 C 0.77955 0.25104 0.66758 0.0
C247 C 0.83308 0.29596 0.69508 0.0
C248 C 0.84946 0.36244 0.67347 0.0
C249 C 0.80869 0.38395 0.6238 0.0
C250 C 0.75215 0.33906 0.59672 0.0
C251 C 0.73861 0.27152 0.6183 0.0
H252 H 0.77028 0.86 0.86389 0.0
H253 H 0.89881 0.71415 0.92634 0.0
H254 H 0.81903 0.62236 0.87087 0.0
H255 H 0.59512 0.73912 0.85885 0.0
H256 H 0.57149 0.7798 0.78577 0.0
H257 H 0.62323 0.82866 0.84822 0.0
H258 H 0.71667 0.86913 0.75961 0.0
H259 H 0.66634 0.81981 0.69733 0.0
H260 H 0.7547 0.80699 0.71108 0.0
H261 H 0.7471 0.55492 0.78646 0.0
H262 H 0.68806 0.51587 0.68303 0.0
H263 H 0.60711 0.70588 0.67069 0.0
C264 C 0.77993 0.8082 0.8683 0.0
C265 C 0.8406 0.79388 0.89928 0.0
C266 C 0.85215 0.72593 0.90366 0.0
C267 C 0.80704 0.67363 0.87213 0.0
C268 C 0.75043 0.69035 0.83759 0.0
C269 C 0.73602 0.75604 0.83655 0.0
C270 C 0.68015 0.76343 0.78689 0.0
C271 C 0.61354 0.77863 0.82204 0.0
C272 C 0.70609 0.818 0.73574 0.0
C273 C 0.6694 0.69302 0.75591 0.0
C274 C 0.70877 0.6511 0.78744 0.0
C275 C 0.71462 0.58656 0.76278 0.0
C276 C 0.68129 0.56506 0.70374 0.0
C277 C 0.64287 0.608 0.66955 0.0
C278 C 0.63479 0.67178 0.69701 0.0
loop_
_geom_bond_atom_site_label_1
_geom_bond_atom_site_label_2
_geom_bond_distance
_geom_bond_site_symmetry_2
_ccdc_geom_bond_type
Fe0 O1 1.895 . S
Fe0 O4 1.705 1_554 S
Fe0 O9 2.086 1_655 S
Fe0 O14 1.928 1_654 S
Fe0 O20 2.086 . S
Fe0 O29 1.928 1_554 S
O1 Fe0 1.895 . S
O1 Fe3 1.715 1_665 S
Fe2 O4 1.886 1_445 S
Fe2 O5 1.715 . S
Fe2 O12 1.935 . S
Fe2 O13 2.077 1_545 S
Fe2 O19 1.935 1_455 S
Fe2 O28 2.077 1_445 S
Fe3 O1 1.715 1_445 S
Fe3 O6 1.886 . S
Fe3 O10 1.935 1_545 S
Fe3 O15 2.077 . S
Fe3 O21 1.935 1_445 S
Fe3 O25 2.077 1_455 S
O4 Fe0 1.705 1_556 S
O4 Fe2 1.886 1_665 S
O5 Fe2 1.715 . S
O5 Fe7 1.889 . S
O6 Fe3 1.886 . S
O6 Fe7 1.711 1_554 S
Fe7 O5 1.889 . S
Fe7 O6 1.711 1_556 S
Fe7 O11 2.081 . S
Fe7 O16 1.932 1_556 S
Fe7 O18 2.081 1_455 S
Fe7 O26 1.932 1_456 S
C8 O20 1.381 . S
C8 O21 1.421 . S
O9 Fe0 2.086 1_455 S
O9 C22 1.381 . S
O10 Fe3 1.935 1_565 S
O10 C22 1.421 . S
O11 Fe7 2.081 . S
O11 C27 1.381 . S
O12 Fe2 1.935 . S
O12 C27 1.421 . S
O13 Fe2 2.077 1_565 S
O13 C17 1.381 . S
O14 Fe0 1.928 1_456 S
O14 C17 1.421 . S
O15 Fe3 2.077 . S
O15 C23 1.381 . S
O16 Fe7 1.932 1_554 S
O16 C23 1.421 . S
C17 O13 1.381 . S
C17 O14 1.421 . S
O18 Fe7 2.081 1_655 S
O18 C30 1.381 . S
O19 Fe2 1.935 1_655 S
O19 C30 1.421 . S
O20 Fe0 2.086 . S
O20 C8 1.381 . S
O21 Fe3 1.935 1_665 S
O21 C8 1.421 . S
C22 O9 1.381 . S
C22 O10 1.421 . S
C23 O15 1.381 . S
C23 O16 1.421 . S
C24 O25 1.381 . S
C24 O26 1.421 . S
O25 Fe3 2.077 1_655 S
O25 C24 1.381 . S
O26 Fe7 1.932 1_654 S
O26 C24 1.421 . S
C27 O11 1.381 . S
C27 O12 1.421 . S
O28 Fe2 2.077 1_665 S
O28 C31 1.381 . S
O29 Fe0 1.928 1_556 S
O29 C31 1.421 . S
C30 O18 1.381 . S
C30 O19 1.421 . S
C31 O28 1.381 . S
C31 O29 1.421 . S
C32 O59 1.312 . S
C32 O60 1.208 . S
C33 O54 1.331 . S
C33 O57 1.244 . S
C34 O56 1.264 . S
C34 O58 1.273 . S
Mg35 O37 1.936 . S
Mg35 O44 2.081 . S
Mg35 O46 2.023 . S
Mg35 O50 2.031 . S
Mg35 O59 2.291 . S
Mg36 O37 1.963 . S
Mg36 O47 1.942 . S
Mg36 O48 1.955 . S
Mg36 O55 1.986 . S
O37 Mg35 1.936 . S
O37 Mg36 1.963 . S
O37 Mg38 1.915 . S
Mg38 O37 1.915 . S
Mg38 O39 1.915 . S
Mg38 O43 2.013 . S
Mg38 O49 2.114 . S
Mg38 O53 2.013 . S
Mg38 O59 2.114 . S
O39 Mg38 1.915 . S
O39 Mg40 1.936 . S
O39 Mg41 1.963 . S
Mg40 O39 1.936 . S
Mg40 O49 2.291 . S
Mg40 O54 2.081 . S
Mg40 O56 2.023 . S
Mg40 O60 2.031 . S
Mg41 O39 1.963 . S
Mg41 O45 1.986 . S
Mg41 O57 1.942 . S
Mg41 O58 1.955 . S
C42 O53 1.191 . S
C42 O55 1.307 . S
O43 Mg38 2.013 . S
O43 C62 1.191 . S
O44 Mg35 2.081 . S
O44 C52 1.331 . S
O45 Mg41 1.986 . S
O45 C62 1.307 . S
O46 Mg35 2.023 . S
O46 C61 1.264 . S
O47 Mg36 1.942 . S
O47 C52 1.244 . S
O48 Mg36 1.955 . S
O48 C61 1.273 . S
O49 Mg38 2.114 . S
O49 Mg40 2.291 . S
O49 C51 1.312 . S
O50 Mg35 2.031 . S
O50 C51 1.208 . S
C51 O49 1.312 . S
C51 O50 1.208 . S
C52 O44 1.331 . S
C52 O47 1.244 . S
O53 Mg38 2.013 . S
O53 C42 1.191 . S
O54 C33 1.331 . S
O54 Mg40 2.081 . S
O55 Mg36 1.986 . S
O55 C42 1.307 . S
O56 C34 1.264 . S
O56 Mg40 2.023 . S
O57 C33 1.244 . S
O57 Mg41 1.942 . S
O58 C34 1.273 . S
O58 Mg41 1.955 . S
O59 C32 1.312 . S
O59 Mg35 2.291 . S
O59 Mg38 2.114 . S
O60 C32 1.208 . S
O60 Mg40 2.031 . S
C61 O46 1.264 . S
C61 O48 1.273 . S
C62 O43 1.191 . S
C62 O45 1.307 . S
H63 C75 0.930 . S
H64 C77 0.930 . S
H65 C78 0.930 . S
H66 C82 0.959 . S
H67 C82 0.959 . S
H68 C82 0.961 . S
H69 C83 0.960 . S
H70 C83 0.961 . S
H71 C83 0.959 . S
H72 C86 0.929 . S
H73 C87 0.931 . S
H74 C89 0.930 . S
C75 H63 0.930 . S
C75 C76 1.399 . S
C75 C80 1.399 . S
C76 C75 1.399 . S
C76 C77 1.376 . S
C77 H64 0.930 . S
C77 C76 1.376 . S
C77 C78 1.388 . S
C78 H65 0.930 . S
C78 C77 1.388 . S
C78 C79 1.390 . S
C79 C78 1.390 . S
C79 C80 1.394 . S
C79 C85 1.465 . S
C80 C75 1.399 . S
C80 C79 1.394 . S
C80 C81 1.516 . S
C81 C80 1.516 . S
C81 C82 1.502 . S
C81 C83 1.561 . S
C81 C84 1.526 . S
C82 H66 0.959 . S
C82 H67 0.959 . S
C82 H68 0.961 . S
C82 C81 1.502 . S
C83 H69 0.960 . S
C83 H70 0.961 . S
C83 H71 0.959 . S
C83 C81 1.561 . S
C84 C81 1.526 . S
C84 C85 1.396 . S
C84 C89 1.390 . S
C85 C79 1.465 . S
C85 C84 1.396 . S
C85 C86 1.399 . S
C86 H72 0.929 . S
C86 C85 1.399 . S
C86 C87 1.385 . S
C87 H73 0.931 . S
C87 C86 1.385 . S
C87 C88 1.389 . S
C88 C87 1.389 . S
C88 C89 1.387 . S
C89 H74 0.930 . S
C89 C84 1.390 . S
C89 C88 1.387 . S
H90 C102 0.930 . S
H91 C104 0.930 . S
H92 C105 0.930 . S
H93 C109 0.959 . S
H94 C109 0.959 . S
H95 C109 0.961 . S
H96 C110 0.960 . S
H97 C110 0.961 . S
H98 C110 0.959 . S
H99 C113 0.929 . S
H100 C114 0.931 . S
H101 C116 0.930 . S
C102 H90 0.930 . S
C102 C103 1.399 . S
C102 C107 1.399 . S
C103 C102 1.399 . S
C103 C104 1.376 . S
C104 H91 0.930 . S
C104 C103 1.376 . S
C104 C105 1.388 . S
C105 H92 0.930 . S
C105 C104 1.388 . S
C105 C106 1.390 . S
C106 C105 1.390 . S
C106 C107 1.394 . S
C106 C112 1.465 . S
C107 C102 1.399 . S
C107 C106 1.394 . S
C107 C108 1.516 . S
C108 C107 1.516 . S
C108 C109 1.502 . S
C108 C110 1.561 . S
C108 C111 1.526 . S
C109 H93 0.959 . S
C109 H94 0.959 . S
C109 H95 0.961 . S
C109 C108 1.502 . S
C110 H96 0.960 . S
C110 H97 0.961 . S
C110 H98 0.959 . S
C110 C108 1.561 . S
C111 C108 1.526 . S
C111 C112 1.396 . S
C111 C116 1.390 . S
C112 C106 1.465 . S
C112 C111 1.396 . S
C112 C113 1.399 . S
C113 H99 0.929 . S
C113 C112 1.399 . S
C113 C114 1.385 . S
C114 H100 0.931 . S
C114 C113 1.385 . S
C114 C115 1.389 . S
C115 C114 1.389 . S
C115 C116 1.387 . S
C116 H101 0.930 . S
C116 C111 1.390 . S
C116 C115 1.387 . S
H117 C129 0.930 . S
H118 C131 0.930 . S
H119 C132 0.930 . S
H120 C136 0.959 . S
H121 C136 0.959 . S
H122 C136 0.961 . S
H123 C137 0.960 . S
H124 C137 0.961 . S
H125 C137 0.959 . S
H126 C140 0.929 . S
H127 C141 0.931 . S
H128 C143 0.930 . S
C129 H117 0.930 . S
C129 C130 1.399 . S
C129 C134 1.399 . S
C130 C129 1.399 . S
C130 C131 1.376 . S
C131 H118 0.930 . S
C131 C130 1.376 . S
C131 C132 1.388 . S
C132 H119 0.930 . S
C132 C131 1.388 . S
C132 C133 1.390 . S
C133 C132 1.390 . S
C133 C134 1.394 . S
C133 C139 1.465 . S
C134 C129 1.399 . S
C134 C133 1.394 . S
C134 C135 1.516 . S
C135 C134 1.516 . S
C135 C136 1.502 . S
C135 C137 1.561 . S
C135 C138 1.526 . S
C136 H120 0.959 . S
C136 H121 0.959 . S
C136 H122 0.961 . S
C136 C135 1.502 . S
C137 H123 0.960 . S
C137 H124 0.961 . S
C137 H125 0.959 . S
C137 C135 1.561 . S
C138 C135 1.526 . S
C138 C139 1.396 . S
C138 C143 1.390 . S
C139 C133 1.465 . S
C139 C138 1.396 . S
C139 C140 1.399 . S
C140 H126 0.929 . S
C140 C139 1.399 . S
C140 C141 1.385 . S
C141 H127 0.931 . S
C141 C140 1.385 . S
C141 C142 1.389 . S
C142 C141 1.389 . S
C142 C143 1.387 . S
C143 H128 0.930 . S
C143 C138 1.390 . S
C143 C142 1.387 . S
H144 C156 0.930 . S
H145 C158 0.930 . S
H146 C159 0.930 . S
H147 C163 0.959 . S
H148 C163 0.959 . S
H149 C163 0.961 . S
H150 C164 0.960 . S
H151 C164 0.961 . S
H152 C164 0.959 . S
H153 C167 0.929 . S
H154 C168 0.931 . S
H155 C170 0.930 . S
C156 H144 0.930 . S
C156 C157 1.399 . S
C156 C161 1.399 . S
C157 C156 1.399 . S
C157 C158 1.376 . S
C158 H145 0.930 . S
C158 C157 1.376 . S
C158 C159 1.388 . S
C159 H146 0.930 . S
C159 C158 1.388 . S
C159 C160 1.390 . S
C160 C159 1.390 . S
C160 C161 1.394 . S
C160 C166 1.465 . S
C161 C156 1.399 . S
C161 C160 1.394 . S
C161 C162 1.516 . S
C162 C161 1.516 . S
C162 C163 1.502 . S
C162 C164 1.561 . S
C162 C165 1.526 . S
C163 H147 0.959 . S
C163 H148 0.959 . S
C163 H149 0.961 . S
C163 C162 1.502 . S
C164 H150 0.960 . S
C164 H151 0.961 . S
C164 H152 0.959 . S
C164 C162 1.561 . S
C165 C162 1.526 . S
C165 C166 1.396 . S
C165 C170 1.390 . S
C166 C160 1.465 . S
C166 C165 1.396 . S
C166 C167 1.399 . S
C167 H153 0.929 . S
C167 C166 1.399 . S
C167 C168 1.385 . S
C168 H154 0.931 . S
C168 C167 1.385 . S
C168 C169 1.389 . S
C169 C168 1.389 . S
C169 C170 1.387 . S
C170 H155 0.930 . S
C170 C165 1.390 . S
C170 C169 1.387 . S
H171 C183 0.930 . S
H172 C185 0.930 . S
H173 C186 0.930 . S
H174 C190 0.959 . S
H175 C190 0.959 . S
H176 C190 0.961 . S
H177 C191 0.960 . S
H178 C191 0.961 . S
H179 C191 0.959 . S
H180 C194 0.929 . S
H181 C195 0.931 . S
H182 C197 0.930 . S
C183 H171 0.930 . S
C183 C184 1.399 . S
C183 C188 1.399 . S
C184 C183 1.399 . S
C184 C185 1.376 . S
C185 H172 0.930 . S
C185 C184 1.376 . S
C185 C186 1.388 . S
C186 H173 0.930 . S
C186 C185 1.388 . S
C186 C187 1.390 . S
C187 C186 1.390 . S
C187 C188 1.394 . S
C187 C193 1.465 . S
C188 C183 1.399 . S
C188 C187 1.394 . S
C188 C189 1.516 . S
C189 C188 1.516 . S
C189 C190 1.502 . S
C189 C191 1.561 . S
C189 C192 1.526 . S
C190 H174 0.959 . S
C190 H175 0.959 . S
C190 H176 0.961 . S
C190 C189 1.502 . S
C191 H177 0.960 . S
C191 H178 0.961 . S
C191 H179 0.959 . S
C191 C189 1.561 . S
C192 C189 1.526 . S
C192 C193 1.396 . S
C192 C197 1.390 . S
C193 C187 1.465 . S
C193 C192 1.396 . S
C193 C194 1.399 . S
C194 H180 0.929 . S
C194 C193 1.399 . S
C194 C195 1.385 . S
C195 H181 0.931 . S
C195 C194 1.385 . S
C195 C196 1.389 . S
C196 C195 1.389 . S
C196 C197 1.387 . S
C197 H182 0.930 . S
C197 C192 1.390 . S
C197 C196 1.387 . S
H198 C210 0.930 . S
H199 C212 0.930 . S
H200 C213 0.930 . S
H201 C217 0.959 . S
H202 C217 0.959 . S
H203 C217 0.961 . S
H204 C218 0.960 . S
H205 C218 0.961 . S
H206 C218 0.959 . S
H207 C221 0.929 . S
H208 C222 0.931 . S
H209 C224 0.930 . S
C210 H198 0.930 . S
C210 C211 1.399 . S
C210 C215 1.399 . S
C211 C210 1.399 . S
C211 C212 1.376 . S
C212 H199 0.930 . S
C212 C211 1.376 . S
C212 C213 1.388 . S
C213 H200 0.930 . S
C213 C212 1.388 . S
C213 C214 1.390 . S
C214 C213 1.390 . S
C214 C215 1.394 . S
C214 C220 1.465 . S
C215 C210 1.399 . S
C215 C214 1.394 . S
C215 C216 1.516 . S
C216 C215 1.516 . S
C216 C217 1.502 . S
C216 C218 1.561 . S
C216 C219 1.526 . S
C217 H201 0.959 . S
C217 H202 0.959 . S
C217 H203 0.961 . S
C217 C216 1.502 . S
C218 H204 0.960 . S
C218 H205 0.961 . S
C218 H206 0.959 . S
C218 C216 1.561 . S
C219 C216 1.526 . S
C219 C220 1.396 . S
C219 C224 1.390 . S
C220 C214 1.465 . S
C220 C219 1.396 . S
C220 C221 1.399 . S
C221 H207 0.929 . S
C221 C220 1.399 . S
C221 C222 1.385 . S
C222 H208 0.931 . S
C222 C221 1.385 . S
C222 C223 1.389 . S
C223 C222 1.389 . S
C223 C224 1.387 . S
C224 H209 0.930 . S
C224 C219 1.390 . S
C224 C223 1.387 . S
H225 C237 0.930 . S
H226 C239 0.930 . S
H227 C240 0.930 . S
H228 C244 0.959 . S
H229 C244 0.959 . S
H230 C244 0.961 . S
H231 C245 0.960 . S
H232 C245 0.961 . S
H233 C245 0.959 . S
H234 C248 0.929 . S
H235 C249 0.931 . S
H236 C251 0.930 . S
C237 H225 0.930 . S
C237 C238 1.399 . S
C237 C242 1.399 . S
C238 C237 1.399 . S
C238 C239 1.376 . S
C239 H226 0.930 . S
C239 C238 1.376 . S
C239 C240 1.388 . S
C240 H227 0.930 . S
C240 C239 1.388 . S
C240 C241 1.390 . S
C241 C240 1.390 . S
C241 C242 1.394 . S
C241 C247 1.465 . S
C242 C237 1.399 . S
C242 C241 1.394 . S
C242 C243 1.516 . S
C243 C242 1.516 . S
C243 C244 1.502 . S
C243 C245 1.561 . S
C243 C246 1.526 . S
C244 H228 0.959 . S
C244 H229 0.959 . S
C244 H230 0.961 . S
C244 C243 1.502 . S
C245 H231 0.960 . S
C245 H232 0.961 . S
C245 H233 0.959 . S
C245 C243 1.561 . S
C246 C243 1.526 . S
C246 C247 1.396 . S
C246 C251 1.390 . S
C247 C241 1.465 . S
C247 C246 1.396 . S
C247 C248 1.399 . S
C248 H234 0.929 . S
C248 C247 1.399 . S
C248 C249 1.385 . S
C249 H235 0.931 . S
C249 C248 1.385 . S
C249 C250 1.389 . S
C250 C249 1.389 . S
C250 C251 1.387 . S
C251 H236 0.930 . S
C251 C246 1.390 . S
C251 C250 1.387 . S
H252 C264 0.930 . S
H253 C266 0.930 . S
H254 C267 0.930 . S
H255 C271 0.959 . S
H256 C271 0.959 . S
H257 C271 0.961 . S
H258 C272 0.960 . S
H259 C272 0.961 . S
H260 C272 0.959 . S
H261 C275 0.929 . S
H262 C276 0.931 . S
H263 C278 0.930 . S
C264 H252 0.930 . S
C264 C265 1.399 . S
C264 C269 1.399 . S
C265 C264 1.399 . S
C265 C266 1.376 . S
C266 H253 0.930 . S
C266 C265 1.376 . S
C266 C267 1.388 . S
C267 H254 0.930 . S
C267 C266 1.388 . S
C267 C268 1.390 . S
C268 C267 1.390 . S
C268 C269 1.394 . S
C268 C274 1.465 . S
C269 C264 1.399 . S
C269 C268 1.394 . S
C269 C270 1.516 . S
C270 C269 1.516 . S
C270 C271 1.502 . S
C270 C272 1.561 . S
C270 C273 1.526 . S
C271 H255 0.959 . S
C271 H256 0.959 . S
C271 H257 0.961 . S
C271 C270 1.502 . S
C272 H258 0.960 . S
C272 H259 0.961 . S
C272 H260 0.959 . S
C272 C270 1.561 . S
C273 C270 1.526 . S
C273 C274 1.396 . S
C273 C278 1.390 . S
C274 C268 1.465 . S
C274 C273 1.396 . S
C274 C275 1.399 . S
C275 H261 0.929 . S
C275 C274 1.399 . S
C275 C276 1.385 . S
C276 H262 0.931 . S
C276 C275 1.385 . S
C276 C277 1.389 . S
C277 C276 1.389 . S
C277 C278 1.387 . S
C278 H263 0.930 . S
C278 C273 1.390 . S
C278 C277 1.387 . S
C76 C23 1.301 . S
C88 C42 1.313 . S
C103 C24 1.595 . S
C115 C34 1.566 . S
C130 C8 1.392 . S
C142 C51 1.395 . S
C157 C22 1.505 . S
C169 C52 1.535 . S
C184 C17 1.535 . S
C196 C61 1.565 . S
C223 C62 1.351 . S
C211 C27 1.339 . S
C238 C30 1.486 . S
C250 C33 1.492 . S
C277 C32 1.351 . S
C265 C31 1.341 . S
