# Generated by pormake.
# Topology gar, (4,6)-cn, num edge types: 1
# Building blocks:
#     Node 0, Type 0, BuildingBlock: UXUYUI_clean_sbu_0, # of connection points: 4
#     Node 1, Type 0, BuildingBlock: UXUYUI_clean_sbu_0, # of connection points: 4
#     Node 2, Type 0, BuildingBlock: UXUYUI_clean_sbu_0, # of connection points: 4
#     Node 3, Type 0, BuildingBlock: UXUYUI_clean_sbu_0, # of connection points: 4
#     Node 4, Type 0, BuildingBlock: UXUYUI_clean_sbu_0, # of connection points: 4
#     Node 5, Type 0, BuildingBlock: UXUYUI_clean_sbu_0, # of connection points: 4
#     Node 6, Type 0, BuildingBlock: UXUYUI_clean_sbu_0, # of connection points: 4
#     Node 7, Type 0, BuildingBlock: UXUYUI_clean_sbu_0, # of connection points: 4
#     Node 8, Type 0, BuildingBlock: UXUYUI_clean_sbu_0, # of connection points: 4
#     Node 9, Type 0, BuildingBlock: UXUYUI_clean_sbu_0, # of connection points: 4
#     Node 10, Type 0, BuildingBlock: UXUYUI_clean_sbu_0, # of connection points: 4
#     Node 11, Type 0, BuildingBlock: UXUYUI_clean_sbu_0, # of connection points: 4
#     Node 12, Type 0, BuildingBlock: UXUYUI_clean_sbu_0, # of connection points: 4
#     Node 13, Type 0, BuildingBlock: UXUYUI_clean_sbu_0, # of connection points: 4
#     Node 14, Type 0, BuildingBlock: UXUYUI_clean_sbu_0, # of connection points: 4
#     Node 15, Type 0, BuildingBlock: UXUYUI_clean_sbu_0, # of connection points: 4
#     Node 16, Type 0, BuildingBlock: UXUYUI_clean_sbu_0, # of connection points: 4
#     Node 17, Type 0, BuildingBlock: UXUYUI_clean_sbu_0, # of connection points: 4
#     Node 18, Type 0, BuildingBlock: UXUYUI_clean_sbu_0, # of connection points: 4
#     Node 19, Type 0, BuildingBlock: UXUYUI_clean_sbu_0, # of connection points: 4
#     Node 20, Type 0, BuildingBlock: UXUYUI_clean_sbu_0, # of connection points: 4
#     Node 21, Type 0, BuildingBlock: UXUYUI_clean_sbu_0, # of connection points: 4
#     Node 22, Type 0, BuildingBlock: UXUYUI_clean_sbu_0, # of connection points: 4
#     Node 23, Type 0, BuildingBlock: UXUYUI_clean_sbu_0, # of connection points: 4
#     Node 24, Type 1, BuildingBlock: BETDIP_clean_sbu_0, # of connection points: 6
#     Node 25, Type 1, BuildingBlock: BETDIP_clean_sbu_0, # of connection points: 6
#     Node 26, Type 1, BuildingBlock: BETDIP_clean_sbu_0, # of connection points: 6
#     Node 27, Type 1, BuildingBlock: BETDIP_clean_sbu_0, # of connection points: 6
#     Node 28, Type 1, BuildingBlock: BETDIP_clean_sbu_0, # of connection points: 6
#     Node 29, Type 1, BuildingBlock: BETDIP_clean_sbu_0, # of connection points: 6
#     Node 30, Type 1, BuildingBlock: BETDIP_clean_sbu_0, # of connection points: 6
#     Node 31, Type 1, BuildingBlock: BETDIP_clean_sbu_0, # of connection points: 6
#     Node 32, Type 1, BuildingBlock: BETDIP_clean_sbu_0, # of connection points: 6
#     Node 33, Type 1, BuildingBlock: BETDIP_clean_sbu_0, # of connection points: 6
#     Node 34, Type 1, BuildingBlock: BETDIP_clean_sbu_0, # of connection points: 6
#     Node 35, Type 1, BuildingBlock: BETDIP_clean_sbu_0, # of connection points: 6
#     Node 36, Type 1, BuildingBlock: BETDIP_clean_sbu_0, # of connection points: 6
#     Node 37, Type 1, BuildingBlock: BETDIP_clean_sbu_0, # of connection points: 6
#     Node 38, Type 1, BuildingBlock: BETDIP_clean_sbu_0, # of connection points: 6
#     Node 39, Type 1, BuildingBlock: BETDIP_clean_sbu_0, # of connection points: 6
#     Edge 40, Type (0, 1), BuildingBlock: CIFDUS_clean_linker_0, # of connection points: 2
#     Edge 41, Type (0, 1), BuildingBlock: CIFDUS_clean_linker_0, # of connection points: 2
#     Edge 42, Type (0, 1), BuildingBlock: CIFDUS_clean_linker_0, # of connection points: 2
#     Edge 43, Type (0, 1), BuildingBlock: CIFDUS_clean_linker_0, # of connection points: 2
#     Edge 44, Type (0, 1), BuildingBlock: CIFDUS_clean_linker_0, # of connection points: 2
#     Edge 45, Type (0, 1), BuildingBlock: CIFDUS_clean_linker_0, # of connection points: 2
#     Edge 46, Type (0, 1), BuildingBlock: CIFDUS_clean_linker_0, # of connection points: 2
#     Edge 47, Type (0, 1), BuildingBlock: CIFDUS_clean_linker_0, # of connection points: 2
#     Edge 48, Type (0, 1), BuildingBlock: CIFDUS_clean_linker_0, # of connection points: 2
#     Edge 49, Type (0, 1), BuildingBlock: CIFDUS_clean_linker_0, # of connection points: 2
#     Edge 50, Type (0, 1), BuildingBlock: CIFDUS_clean_linker_0, # of connection points: 2
#     Edge 51, Type (0, 1), BuildingBlock: CIFDUS_clean_linker_0, # of connection points: 2
#     Edge 52, Type (0, 1), BuildingBlock: CIFDUS_clean_linker_0, # of connection points: 2
#     Edge 53, Type (0, 1), BuildingBlock: CIFDUS_clean_linker_0, # of connection points: 2
#     Edge 54, Type (0, 1), BuildingBlock: CIFDUS_clean_linker_0, # of connection points: 2
#     Edge 55, Type (0, 1), BuildingBlock: CIFDUS_clean_linker_0, # of connection points: 2
#     Edge 56, Type (0, 1), BuildingBlock: CIFDUS_clean_linker_0, # of connection points: 2
#     Edge 57, Type (0, 1), BuildingBlock: CIFDUS_clean_linker_0, # of connection points: 2
#     Edge 58, Type (0, 1), BuildingBlock: CIFDUS_clean_linker_0, # of connection points: 2
#     Edge 59, Type (0, 1), BuildingBlock: CIFDUS_clean_linker_0, # of connection points: 2
#     Edge 60, Type (0, 1), BuildingBlock: CIFDUS_clean_linker_0, # of connection points: 2
#     Edge 61, Type (0, 1), BuildingBlock: CIFDUS_clean_linker_0, # of connection points: 2
#     Edge 62, Type (0, 1), BuildingBlock: CIFDUS_clean_linker_0, # of connection points: 2
#     Edge 63, Type (0, 1), BuildingBlock: CIFDUS_clean_linker_0, # of connection points: 2
#     Edge 64, Type (0, 1), BuildingBlock: CIFDUS_clean_linker_0, # of connection points: 2
#     Edge 65, Type (0, 1), BuildingBlock: CIFDUS_clean_linker_0, # of connection points: 2
#     Edge 66, Type (0, 1), BuildingBlock: CIFDUS_clean_linker_0, # of connection points: 2
#     Edge 67, Type (0, 1), BuildingBlock: CIFDUS_clean_linker_0, # of connection points: 2
#     Edge 68, Type (0, 1), BuildingBlock: CIFDUS_clean_linker_0, # of connection points: 2
#     Edge 69, Type (0, 1), BuildingBlock: CIFDUS_clean_linker_0, # of connection points: 2
#     Edge 70, Type (0, 1), BuildingBlock: CIFDUS_clean_linker_0, # of connection points: 2
#     Edge 71, Type (0, 1), BuildingBlock: CIFDUS_clean_linker_0, # of connection points: 2
#     Edge 72, Type (0, 1), BuildingBlock: CIFDUS_clean_linker_0, # of connection points: 2
#     Edge 73, Type (0, 1), BuildingBlock: CIFDUS_clean_linker_0, # of connection points: 2
#     Edge 74, Type (0, 1), BuildingBlock: CIFDUS_clean_linker_0, # of connection points: 2
#     Edge 75, Type (0, 1), BuildingBlock: CIFDUS_clean_linker_0, # of connection points: 2
#     Edge 76, Type (0, 1), BuildingBlock: CIFDUS_clean_linker_0, # of connection points: 2
#     Edge 77, Type (0, 1), BuildingBlock: CIFDUS_clean_linker_0, # of connection points: 2
#     Edge 78, Type (0, 1), BuildingBlock: CIFDUS_clean_linker_0, # of connection points: 2
#     Edge 79, Type (0, 1), BuildingBlock: CIFDUS_clean_linker_0, # of connection points: 2
#     Edge 80, Type (0, 1), BuildingBlock: CIFDUS_clean_linker_0, # of connection points: 2
#     Edge 81, Type (0, 1), BuildingBlock: CIFDUS_clean_linker_0, # of connection points: 2
#     Edge 82, Type (0, 1), BuildingBlock: CIFDUS_clean_linker_0, # of connection points: 2
#     Edge 83, Type (0, 1), BuildingBlock: CIFDUS_clean_linker_0, # of connection points: 2
#     Edge 84, Type (0, 1), BuildingBlock: CIFDUS_clean_linker_0, # of connection points: 2
#     Edge 85, Type (0, 1), BuildingBlock: CIFDUS_clean_linker_0, # of connection points: 2
#     Edge 86, Type (0, 1), BuildingBlock: CIFDUS_clean_linker_0, # of connection points: 2
#     Edge 87, Type (0, 1), BuildingBlock: CIFDUS_clean_linker_0, # of connection points: 2
#     Edge 88, Type (0, 1), BuildingBlock: CIFDUS_clean_linker_0, # of connection points: 2
#     Edge 89, Type (0, 1), BuildingBlock: CIFDUS_clean_linker_0, # of connection points: 2
#     Edge 90, Type (0, 1), BuildingBlock: CIFDUS_clean_linker_0, # of connection points: 2
#     Edge 91, Type (0, 1), BuildingBlock: CIFDUS_clean_linker_0, # of connection points: 2
#     Edge 92, Type (0, 1), BuildingBlock: CIFDUS_clean_linker_0, # of connection points: 2
#     Edge 93, Type (0, 1), BuildingBlock: CIFDUS_clean_linker_0, # of connection points: 2
#     Edge 94, Type (0, 1), BuildingBlock: CIFDUS_clean_linker_0, # of connection points: 2
#     Edge 95, Type (0, 1), BuildingBlock: CIFDUS_clean_linker_0, # of connection points: 2
#     Edge 96, Type (0, 1), BuildingBlock: CIFDUS_clean_linker_0, # of connection points: 2
#     Edge 97, Type (0, 1), BuildingBlock: CIFDUS_clean_linker_0, # of connection points: 2
#     Edge 98, Type (0, 1), BuildingBlock: CIFDUS_clean_linker_0, # of connection points: 2
#     Edge 99, Type (0, 1), BuildingBlock: CIFDUS_clean_linker_0, # of connection points: 2
#     Edge 100, Type (0, 1), BuildingBlock: CIFDUS_clean_linker_0, # of connection points: 2
#     Edge 101, Type (0, 1), BuildingBlock: CIFDUS_clean_linker_0, # of connection points: 2
#     Edge 102, Type (0, 1), BuildingBlock: CIFDUS_clean_linker_0, # of connection points: 2
#     Edge 103, Type (0, 1), BuildingBlock: CIFDUS_clean_linker_0, # of connection points: 2
#     Edge 104, Type (0, 1), BuildingBlock: CIFDUS_clean_linker_0, # of connection points: 2
#     Edge 105, Type (0, 1), BuildingBlock: CIFDUS_clean_linker_0, # of connection points: 2
#     Edge 106, Type (0, 1), BuildingBlock: CIFDUS_clean_linker_0, # of connection points: 2
#     Edge 107, Type (0, 1), BuildingBlock: CIFDUS_clean_linker_0, # of connection points: 2
#     Edge 108, Type (0, 1), BuildingBlock: CIFDUS_clean_linker_0, # of connection points: 2
#     Edge 109, Type (0, 1), BuildingBlock: CIFDUS_clean_linker_0, # of connection points: 2
#     Edge 110, Type (0, 1), BuildingBlock: CIFDUS_clean_linker_0, # of connection points: 2
#     Edge 111, Type (0, 1), BuildingBlock: CIFDUS_clean_linker_0, # of connection points: 2
#     Edge 112, Type (0, 1), BuildingBlock: CIFDUS_clean_linker_0, # of connection points: 2
#     Edge 113, Type (0, 1), BuildingBlock: CIFDUS_clean_linker_0, # of connection points: 2
#     Edge 114, Type (0, 1), BuildingBlock: CIFDUS_clean_linker_0, # of connection points: 2
#     Edge 115, Type (0, 1), BuildingBlock: CIFDUS_clean_linker_0, # of connection points: 2
#     Edge 116, Type (0, 1), BuildingBlock: CIFDUS_clean_linker_0, # of connection points: 2
#     Edge 117, Type (0, 1), BuildingBlock: CIFDUS_clean_linker_0, # of connection points: 2
#     Edge 118, Type (0, 1), BuildingBlock: CIFDUS_clean_linker_0, # of connection points: 2
#     Edge 119, Type (0, 1), BuildingBlock: CIFDUS_clean_linker_0, # of connection points: 2
#     Edge 120, Type (0, 1), BuildingBlock: CIFDUS_clean_linker_0, # of connection points: 2
#     Edge 121, Type (0, 1), BuildingBlock: CIFDUS_clean_linker_0, # of connection points: 2
#     Edge 122, Type (0, 1), BuildingBlock: CIFDUS_clean_linker_0, # of connection points: 2
#     Edge 123, Type (0, 1), BuildingBlock: CIFDUS_clean_linker_0, # of connection points: 2
#     Edge 124, Type (0, 1), BuildingBlock: CIFDUS_clean_linker_0, # of connection points: 2
#     Edge 125, Type (0, 1), BuildingBlock: CIFDUS_clean_linker_0, # of connection points: 2
#     Edge 126, Type (0, 1), BuildingBlock: CIFDUS_clean_linker_0, # of connection points: 2
#     Edge 127, Type (0, 1), BuildingBlock: CIFDUS_clean_linker_0, # of connection points: 2
#     Edge 128, Type (0, 1), BuildingBlock: CIFDUS_clean_linker_0, # of connection points: 2
#     Edge 129, Type (0, 1), BuildingBlock: CIFDUS_clean_linker_0, # of connection points: 2
#     Edge 130, Type (0, 1), BuildingBlock: CIFDUS_clean_linker_0, # of connection points: 2
#     Edge 131, Type (0, 1), BuildingBlock: CIFDUS_clean_linker_0, # of connection points: 2
#     Edge 132, Type (0, 1), BuildingBlock: CIFDUS_clean_linker_0, # of connection points: 2
#     Edge 133, Type (0, 1), BuildingBlock: CIFDUS_clean_linker_0, # of connection points: 2
#     Edge 134, Type (0, 1), BuildingBlock: CIFDUS_clean_linker_0, # of connection points: 2
#     Edge 135, Type (0, 1), BuildingBlock: CIFDUS_clean_linker_0, # of connection points: 2
# Relax obj value: 0.197
# Max RMSD: 0.282
# Mean RMSD: 0.187
data_MOF--net-gar--node1-UXUYUI_clean_sbu_0--node2-BETDIP_clean_sbu_0--edge1-CIFDUS_clean_linker_0
_symmetry_space_group_name_H-M    P1
_symmetry_Int_Tables_number       1
_symmetry_cell_setting            triclinic
loop_
_symmetry_equiv_pos_as_xyz
'x, y, z'
_cell_length_a     69.405021
_cell_length_b     63.268314
_cell_length_c     61.074781
_cell_angle_alpha  97.205812
_cell_angle_beta   98.566944
_cell_angle_gamma 100.5276
loop_
_atom_site_label
_atom_site_type_symbol
_atom_site_fract_x
_atom_site_fract_y
_atom_site_fract_z
_atom_type_partial_charge
Li0 Li 0.01343 0.30606 0.36137 0.0
Li1 Li 0.03293 0.33059 0.39393 0.0
Li2 Li 0.0498 0.31289 0.36592 0.0
Li3 Li 0.0329 0.29288 0.39208 0.0
C4 C 0.03211 0.34059 0.34113 0.0
N5 N 0.033 0.3532 0.29953 0.0
C6 C 0.03493 0.36263 0.33903 0.0
C7 C 0.02974 0.32496 0.32208 0.0
C8 C 0.03533 0.36868 0.31785 0.0
C9 C 0.03023 0.33166 0.3012 0.0
C10 C 0.99791 0.31557 0.4055 0.0
C11 C 0.991 0.32923 0.4416 0.0
N12 N 0.97431 0.33477 0.43124 0.0
C13 C 0.98062 0.32128 0.39523 0.0
C14 C 1.00307 0.31944 0.42889 0.0
C15 C 0.96891 0.331 0.40853 0.0
C16 C 0.97706 0.27972 0.33955 0.0
N17 N 0.98908 0.29951 0.34077 0.0
C18 C 0.96406 0.31091 0.31648 0.0
C19 C 0.98296 0.31505 0.32957 0.0
C20 C 0.95118 0.29079 0.31538 0.0
C21 C 0.95801 0.27489 0.3267 0.0
H22 H 0.98179 0.26811 0.34955 0.0
H23 H 0.99228 0.33104 0.3316 0.0
C24 C 0.04727 0.36102 0.43328 0.0
N25 N 0.03329 0.35596 0.41432 0.0
C26 C 0.04584 0.37696 0.45057 0.0
C27 C 0.01611 0.38284 0.4281 0.0
C28 C 0.01827 0.36696 0.4111 0.0
C29 C 0.02978 0.3877 0.44839 0.0
H30 H 0.05922 0.35227 0.43525 0.0
H31 H 1.00739 0.3626 0.39579 0.0
C32 C 0.0239 0.26513 0.34613 0.0
N33 N 1.00975 0.22509 0.31922 0.0
C34 C 1.01249 0.24815 0.35411 0.0
C35 C 0.02835 0.26161 0.32454 0.0
C36 C 1.0054 0.22808 0.34023 0.0
C37 C 0.021 0.2413 0.31117 0.0
C38 C 0.06896 0.30997 0.41481 0.0
C39 C 0.08601 0.30333 0.40936 0.0
C40 C 0.06436 0.30864 0.43619 0.0
C41 C 0.09801 0.29511 0.42526 0.0
C42 C 0.07671 0.30029 0.45162 0.0
N43 N 0.09313 0.29373 0.44587 0.0
C44 C 0.07883 0.33065 0.34033 0.0
C45 C 0.07657 0.29403 0.34631 0.0
C46 C 0.09308 0.32858 0.32668 0.0
N47 N 0.0708 0.31337 0.34955 0.0
C48 C 0.09082 0.29131 0.33306 0.0
C49 C 0.09912 0.30861 0.32277 0.0
H50 H 0.074 0.3459 0.34327 0.0
H51 H 0.06999 0.28065 0.35402 0.0
C52 C 0.01962 0.26627 0.42231 0.0
N53 N 0.03333 0.26965 0.40875 0.0
C54 C 0.0201 0.25041 0.43612 0.0
C55 C 0.04834 0.24114 0.42106 0.0
C56 C 0.04729 0.25722 0.40748 0.0
C57 C 0.03479 0.23784 0.43586 0.0
H58 H 1.00837 0.27598 0.42252 0.0
H59 H 0.05784 0.26015 0.39628 0.0
O60 O 0.03198 0.33447 0.36182 0.0
O61 O 1.00968 0.30624 0.39273 0.0
O62 O 0.03134 0.28479 0.35965 0.0
O63 O 0.05686 0.31777 0.39932 0.0
H64 H 0.03684 0.37493 0.35365 0.0
H65 H 0.02743 0.30788 0.32343 0.0
H66 H 0.03752 0.38569 0.31597 0.0
H67 H 0.0284 0.31972 0.28632 0.0
H68 H 0.99494 0.33251 0.45968 0.0
H69 H 0.97633 0.3184 0.37719 0.0
H70 H 0.01643 0.31523 0.43715 0.0
H71 H 0.95555 0.33559 0.4008 0.0
H72 H 0.95926 0.32365 0.30811 0.0
H73 H 0.94831 0.25942 0.32682 0.0
H74 H 0.05711 0.38063 0.46558 0.0
H75 H 1.00345 0.39061 0.42565 0.0
H76 H 1.00885 0.25051 0.37073 0.0
H77 H 0.03748 0.27435 0.31816 0.0
H78 H 0.99642 0.21487 0.34616 0.0
H79 H 0.02429 0.23839 0.29442 0.0
H80 H 0.08996 0.30451 0.39303 0.0
H81 H 0.05122 0.31367 0.44071 0.0
H82 H 0.11121 0.28982 0.42122 0.0
H83 H 0.0732 0.29895 0.46812 0.0
H84 H 0.09911 0.34235 0.31912 0.0
H85 H 0.09547 0.27584 0.3312 0.0
H86 H 1.00909 0.24801 0.4469 0.0
H87 H 0.05992 0.23182 0.42041 0.0
Li88 Li 0.04392 0.76966 0.69667 0.0
Li89 Li 0.06949 0.75977 0.72111 0.0
Li90 Li 0.04652 0.73218 0.69511 0.0
Li91 Li 0.03595 0.75106 0.72887 0.0
C92 C 0.06988 0.76747 0.67147 0.0
N93 N 0.07746 0.7912 0.63755 0.0
C94 C 0.08474 0.78639 0.67587 0.0
C95 C 0.05897 0.76055 0.64978 0.0
C96 C 0.08834 0.79816 0.6585 0.0
C97 C 0.06299 0.7728 0.63288 0.0
C98 C 0.06464 0.7947 0.74682 0.0
C99 C 0.07406 0.80844 0.78643 0.0
N100 N 0.08893 0.82372 0.78211 0.0
C101 C 0.08006 0.81053 0.74282 0.0
C102 C 0.06166 0.79361 0.76884 0.0
C103 C 0.09217 0.82504 0.76087 0.0
C104 C 0.02008 0.78498 0.6628 0.0
N105 N 0.03629 0.79074 0.67943 0.0
C106 C 0.04364 0.82641 0.6699 0.0
C107 C 0.04776 0.81111 0.68347 0.0
C108 C 0.02734 0.82078 0.65214 0.0
C109 C 0.0153 0.79983 0.64885 0.0
H110 H 1.01106 0.76876 0.66012 0.0
H111 H 0.06052 0.81528 0.69676 0.0
C112 C 0.10894 0.7616 0.71795 0.0
N113 N 0.09734 0.76616 0.73327 0.0
C114 C 0.1295 0.76529 0.72418 0.0
C115 C 0.12601 0.77748 0.76223 0.0
C116 C 0.1054 0.77348 0.75522 0.0
C117 C 0.1383 0.77347 0.74653 0.0
H118 H 0.10222 0.75497 0.70078 0.0
H119 H 0.0959 0.77603 0.76736 0.0
C120 C 1.00747 0.72747 0.68551 0.0
N121 N 0.97835 0.69245 0.66316 0.0
C122 C 0.99514 0.71514 0.69742 0.0
C123 C 1.00491 0.72204 0.6622 0.0
C124 C 0.98051 0.6975 0.68582 0.0
C125 C 0.99014 0.70426 0.65122 0.0
C126 C 0.06927 0.72583 0.74187 0.0
C127 C 0.08292 0.71475 0.73341 0.0
C128 C 0.07092 0.73166 0.76501 0.0
C129 C 0.09822 0.70992 0.74832 0.0
C130 C 0.08641 0.72647 0.77936 0.0
N131 N 0.09964 0.71584 0.77079 0.0
C132 C 0.06009 0.70653 0.66327 0.0
C133 C 0.03341 0.6865 0.67704 0.0
C134 C 0.06183 0.68799 0.6495 0.0
N135 N 0.04588 0.70559 0.67641 0.0
C136 C 0.03459 0.66745 0.66342 0.0
C137 C 0.04894 0.66812 0.64935 0.0
H138 H 0.07041 0.72164 0.66375 0.0
H139 H 0.02265 0.68603 0.68817 0.0
C140 C 1.01035 0.76891 0.75031 0.0
N141 N 0.01842 0.75091 0.74969 0.0
C142 C 0.99686 0.77207 0.76443 0.0
C143 C 0.99959 0.73764 0.77669 0.0
C144 C 0.01346 0.73532 0.76249 0.0
C145 C 0.99129 0.75634 0.77782 0.0
H146 H 0.01445 0.78085 0.73971 0.0
H147 H 0.02001 0.72106 0.76144 0.0
O148 O 0.06573 0.75603 0.6884 0.0
O149 O 0.05242 0.78053 0.72932 0.0
O150 O 0.02193 0.74477 0.69658 0.0
O151 O 0.0545 0.73117 0.72754 0.0
H152 H 0.09323 0.79211 0.69257 0.0
H153 H 0.04738 0.74599 0.64608 0.0
H154 H 0.09971 0.8129 0.6617 0.0
H155 H 0.05456 0.76771 0.61606 0.0
H156 H 0.07191 0.80774 0.80353 0.0
H157 H 0.08298 0.81136 0.72604 0.0
H158 H 0.05005 0.78134 0.77243 0.0
H159 H 0.10421 0.83727 0.75799 0.0
H160 H 0.05355 0.84222 0.67285 0.0
H161 H 1.00243 0.79491 0.63556 0.0
H162 H 0.13842 0.76203 0.71152 0.0
H163 H 0.13223 0.78336 0.77974 0.0
H164 H 0.99686 0.71909 0.71543 0.0
H165 H 0.01438 0.73128 0.65271 0.0
H166 H 0.9709 0.68779 0.69484 0.0
H167 H 0.98808 0.6998 0.63321 0.0
H168 H 0.08182 0.71019 0.7155 0.0
H169 H 0.06048 0.74031 0.77177 0.0
H170 H 0.109 0.70151 0.74202 0.0
H171 H 0.08796 0.73099 0.79731 0.0
H172 H 0.07342 0.68914 0.63937 0.0
H173 H 0.02435 0.65243 0.66379 0.0
H174 H 0.99044 0.78644 0.76443 0.0
H175 H 0.99542 0.72509 0.78664 0.0
Li176 Li 0.51661 0.81039 0.8818 0.0
Li177 Li 0.54011 0.83362 0.9141 0.0
Li178 Li 0.55177 0.81625 0.88124 0.0
Li179 Li 0.53824 0.79498 0.90693 0.0
C180 C 0.53224 0.84661 0.86244 0.0
N181 N 0.52691 0.86256 0.82236 0.0
C182 C 0.53526 0.86904 0.86235 0.0
C183 C 0.52647 0.83229 0.84218 0.0
C184 C 0.5325 0.87679 0.8419 0.0
C185 C 0.52387 0.84066 0.82209 0.0
C186 C 0.50631 0.80837 0.93069 0.0
C187 C 0.50309 0.81597 0.96957 0.0
N188 N 0.48371 0.8054 0.96428 0.0
C189 C 0.48634 0.79755 0.92568 0.0
C190 C 0.51474 0.81765 0.95284 0.0
C191 C 0.47518 0.79623 0.94288 0.0
C192 C 0.48401 0.79347 0.84579 0.0
N193 N 0.49067 0.80704 0.86564 0.0
C194 C 0.45844 0.81477 0.8665 0.0
C195 C 0.47853 0.81805 0.87576 0.0
C196 C 0.45091 0.80022 0.84642 0.0
C197 C 0.46403 0.7898 0.83581 0.0
H198 H 0.49407 0.78518 0.83787 0.0
H199 H 0.48436 0.82882 0.8915 0.0
C200 C 0.55823 0.86322 0.95343 0.0
N201 N 0.54273 0.858 0.93598 0.0
C202 C 0.55825 0.87923 0.97133 0.0
C203 C 0.52699 0.88503 0.95216 0.0
C204 C 0.52739 0.86861 0.93486 0.0
C205 C 0.54237 0.89027 0.97096 0.0
H206 H 0.57022 0.85447 0.95379 0.0
H207 H 0.51523 0.86391 0.92074 0.0
C208 C 0.52001 0.76824 0.86666 0.0
N209 N 0.49494 0.72799 0.85243 0.0
C210 C 0.50493 0.76108 0.87848 0.0
C211 C 0.52239 0.75484 0.84767 0.0
C212 C 0.49239 0.74072 0.87101 0.0
C213 C 0.50955 0.73457 0.84072 0.0
C214 C 0.57525 0.80801 0.92531 0.0
C215 C 0.58681 0.7959 0.91412 0.0
C216 C 0.57596 0.80843 0.94836 0.0
C217 C 0.59892 0.78441 0.92621 0.0
C218 C 0.58822 0.79668 0.95984 0.0
N219 N 0.59935 0.78502 0.94862 0.0
C220 C 0.58976 0.83068 0.87118 0.0
C221 C 0.56641 0.80733 0.84178 0.0
C222 C 0.60508 0.82942 0.85895 0.0
N223 N 0.57106 0.81916 0.86268 0.0
C224 C 0.58115 0.80589 0.82885 0.0
C225 C 0.60095 0.81627 0.83778 0.0
H226 H 0.59299 0.83973 0.888 0.0
H227 H 0.55144 0.79816 0.83556 0.0
C228 C 0.53599 0.76981 0.94198 0.0
N229 N 0.54058 0.77027 0.92118 0.0
C230 C 0.5389 0.75261 0.95329 0.0
C231 C 0.55108 0.73637 0.92149 0.0
C232 C 0.54796 0.754 0.91079 0.0
C233 C 0.5467 0.73572 0.94312 0.0
H234 H 0.5306 0.78304 0.95012 0.0
H235 H 0.55185 0.75497 0.89439 0.0
O236 O 0.53486 0.83881 0.88233 0.0
O237 O 0.51729 0.8104 0.91389 0.0
O238 O 0.5325 0.78815 0.87356 0.0
O239 O 0.56286 0.81884 0.91362 0.0
H240 H 0.53969 0.88033 0.87793 0.0
H241 H 0.52406 0.81491 0.84196 0.0
H242 H 0.5348 0.89412 0.84157 0.0
H243 H 0.51943 0.82975 0.80628 0.0
H244 H 0.50949 0.82301 0.98677 0.0
H245 H 0.47948 0.79024 0.90869 0.0
H246 H 0.53023 0.82566 0.95721 0.0
H247 H 0.45972 0.78792 0.93921 0.0
H248 H 0.44883 0.82298 0.87537 0.0
H249 H 0.4589 0.77881 0.82009 0.0
H250 H 0.57034 0.88249 0.98551 0.0
H251 H 0.51471 0.89343 0.95078 0.0
H252 H 0.50295 0.77106 0.8933 0.0
H253 H 0.53404 0.76006 0.83837 0.0
H254 H 0.48066 0.73502 0.88 0.0
H255 H 0.51121 0.72406 0.82602 0.0
H256 H 0.58621 0.79506 0.89623 0.0
H257 H 0.56677 0.81726 0.95722 0.0
H258 H 0.60786 0.77489 0.91774 0.0
H259 H 0.58877 0.7967 0.97763 0.0
H260 H 0.62015 0.83749 0.86662 0.0
H261 H 0.57724 0.79591 0.81245 0.0
H262 H 0.53509 0.75256 0.96985 0.0
H263 H 0.55727 0.7237 0.9132 0.0
Li264 Li 0.5571 0.27207 0.18635 0.0
Li265 Li 0.57307 0.25464 0.21438 0.0
Li266 Li 0.54962 0.23343 0.18326 0.0
Li267 Li 0.53891 0.2549 0.21168 0.0
C268 C 0.57968 0.24991 0.16109 0.0
N269 N 0.58811 0.24509 0.11812 0.0
C270 C 0.59796 0.24528 0.15734 0.0
C271 C 0.56573 0.25218 0.14296 0.0
C272 C 0.60193 0.24287 0.1355 0.0
C273 C 0.57026 0.24967 0.12138 0.0
C274 C 0.57552 0.29917 0.22557 0.0
C275 C 0.58719 0.33521 0.24692 0.0
N276 N 0.60447 0.3368 0.23868 0.0
C277 C 0.59341 0.30117 0.21733 0.0
C278 C 0.57238 0.31631 0.2405 0.0
C279 C 0.60785 0.32032 0.22416 0.0
C280 C 0.54251 0.30331 0.16508 0.0
N281 N 0.55938 0.29569 0.17036 0.0
C282 C 0.57711 0.32051 0.15042 0.0
C283 C 0.57657 0.30399 0.16354 0.0
C284 C 0.55979 0.32846 0.14433 0.0
C285 C 0.54235 0.31977 0.15197 0.0
H286 H 0.52908 0.29628 0.17075 0.0
H287 H 0.58976 0.29752 0.16792 0.0
C288 C 0.60917 0.24355 0.22327 0.0
N289 N 0.59738 0.25541 0.23288 0.0
C290 C 0.62889 0.24566 0.23324 0.0
C291 C 0.62353 0.27099 0.26378 0.0
C292 C 0.60386 0.2685 0.25305 0.0
C293 C 0.63647 0.25995 0.2535 0.0
H294 H 0.60345 0.23323 0.20727 0.0
H295 H 0.59407 0.27775 0.26028 0.0
C296 C 0.51153 0.24039 0.17264 0.0
N297 N 0.47327 0.21583 0.1601 0.0
C298 C 0.50621 0.22089 0.18088 0.0
C299 C 0.49739 0.24736 0.15799 0.0
C300 C 0.48679 0.20873 0.17435 0.0
C301 C 0.47813 0.23472 0.15185 0.0
C302 C 0.55272 0.22545 0.23686 0.0
C303 C 0.55053 0.20403 0.24114 0.0
C304 C 0.55599 0.24257 0.25472 0.0
C305 C 0.55168 0.20009 0.26325 0.0
C306 C 0.55705 0.23796 0.27659 0.0
N307 N 0.55489 0.21699 0.28037 0.0
C308 C 0.55381 0.1915 0.16977 0.0
C309 C 0.53655 0.20642 0.14098 0.0
C310 C 0.55497 0.17374 0.15445 0.0
N311 N 0.54515 0.20757 0.1627 0.0
C312 C 0.53787 0.18924 0.12493 0.0
C313 C 0.5477 0.17289 0.1315 0.0
H314 H 0.56059 0.19298 0.18718 0.0
H315 H 0.52974 0.21949 0.13586 0.0
C316 C 0.51606 0.27952 0.23075 0.0
N317 N 0.51867 0.25869 0.22792 0.0
C318 C 0.50159 0.28512 0.24243 0.0
C319 C 0.49268 0.24763 0.24814 0.0
C320 C 0.50746 0.24274 0.2363 0.0
C321 C 0.48955 0.26905 0.25109 0.0
H322 H 0.52523 0.29175 0.22377 0.0
H323 H 0.50988 0.22627 0.23366 0.0
O324 O 0.57562 0.25222 0.18244 0.0
O325 O 0.56108 0.28059 0.21927 0.0
O326 O 0.5304 0.25275 0.17877 0.0
O327 O 0.55155 0.22937 0.21521 0.0
H328 H 0.609 0.24359 0.17115 0.0
H329 H 0.5515 0.25576 0.14545 0.0
H330 H 0.61601 0.23925 0.13237 0.0
H331 H 0.55957 0.25133 0.10722 0.0
H332 H 0.58494 0.34859 0.25846 0.0
H333 H 0.59624 0.28808 0.20591 0.0
H334 H 0.55865 0.315 0.2471 0.0
H335 H 0.62177 0.32205 0.21793 0.0
H336 H 0.5909 0.32696 0.14506 0.0
H337 H 0.52861 0.32525 0.14741 0.0
H338 H 0.63832 0.23708 0.22445 0.0
H339 H 0.6287 0.28194 0.27952 0.0
H340 H 0.51688 0.21513 0.19216 0.0
H341 H 0.50128 0.26238 0.15142 0.0
H342 H 0.48248 0.19363 0.18062 0.0
H343 H 0.46704 0.23993 0.14053 0.0
H344 H 0.54795 0.19059 0.22749 0.0
H345 H 0.5576 0.25924 0.25182 0.0
H346 H 0.55 0.18359 0.2668 0.0
H347 H 0.55956 0.25105 0.29056 0.0
H348 H 0.56204 0.16118 0.1605 0.0
H349 H 0.5321 0.18943 0.10751 0.0
H350 H 0.49979 0.30187 0.24461 0.0
H351 H 0.48354 0.23479 0.25442 0.0
Li352 Li 0.07139 0.81876 0.14208 0.0
Li353 Li 0.09305 0.79985 0.17074 0.0
Li354 Li 0.0683 0.77716 0.13934 0.0
Li355 Li 0.05577 0.79727 0.16823 0.0
C356 C 0.09702 0.79643 0.11664 0.0
N357 N 0.10604 0.78845 0.07423 0.0
C358 C 0.1152 0.79091 0.11389 0.0
C359 C 0.08341 0.79788 0.09785 0.0
C360 C 0.11949 0.78692 0.0923 0.0
C361 C 0.08826 0.79381 0.07654 0.0
C362 C 0.07273 0.83475 0.19425 0.0
C363 C 0.06784 0.83635 0.23265 0.0
N364 N 0.06105 0.85508 0.23132 0.0
C365 C 0.0658 0.85407 0.19328 0.0
C366 C 0.07387 0.82587 0.21411 0.0
C367 C 0.05994 0.86409 0.2122 0.0
C368 C 0.05344 0.85377 0.13033 0.0
N369 N 0.06953 0.84491 0.12745 0.0
C370 C 0.08009 0.87247 0.10526 0.0
C371 C 0.08292 0.85408 0.11533 0.0
C372 C 0.06323 0.88154 0.10745 0.0
C373 C 0.04996 0.87189 0.12044 0.0
H374 H 0.0431 0.84661 0.14028 0.0
H375 H 0.09577 0.84707 0.11329 0.0
C376 C 0.13658 0.80619 0.18251 0.0
N377 N 0.11894 0.80094 0.18983 0.0
C378 C 0.15468 0.80524 0.19595 0.0
C379 C 0.13627 0.79365 0.2243 0.0
C380 C 0.11858 0.79458 0.21028 0.0
C381 C 0.15475 0.79903 0.21731 0.0
H382 H 0.13665 0.81102 0.16615 0.0
H383 H 0.10448 0.78985 0.21564 0.0
C384 C 0.02708 0.79068 0.13026 0.0
N385 N 0.98594 0.78302 0.12114 0.0
C386 C 0.0158 0.77374 0.13843 0.0
C387 C 0.01739 0.80343 0.11705 0.0
C388 C 0.99504 0.77022 0.13379 0.0
C389 C 0.99659 0.79936 0.11271 0.0
C390 C 0.07265 0.75313 0.17119 0.0
C391 C 0.05536 0.73744 0.17014 0.0
C392 C 0.09079 0.74663 0.17056 0.0
C393 C 0.0565 0.71549 0.16835 0.0
C394 C 0.09131 0.72452 0.1688 0.0
N395 N 0.07429 0.70953 0.16772 0.0
C396 C 0.07982 0.7402 0.11463 0.0
C397 C 0.04531 0.7364 0.11424 0.0
C398 C 0.07699 0.71866 0.10368 0.0
N399 N 0.06409 0.74869 0.11986 0.0
C400 C 0.04184 0.71472 0.10373 0.0
C401 C 0.05777 0.70529 0.09833 0.0
H402 H 0.09474 0.74984 0.11969 0.0
H403 H 0.03298 0.74305 0.11875 0.0
C404 C 0.02212 0.81218 0.18206 0.0
N405 N 0.03374 0.79725 0.18512 0.0
C406 C 1.00479 0.81128 0.19142 0.0
C407 C 1.01183 0.78009 0.20763 0.0
C408 C 0.02912 0.78166 0.19803 0.0
C409 C 0.9991 0.79479 0.20408 0.0
H410 H 0.02599 0.82443 0.17171 0.0
H411 H 0.03853 0.76998 0.20037 0.0
O412 O 0.09243 0.8002 0.1376 0.0
O413 O 0.07807 0.82439 0.17576 0.0
O414 O 0.04747 0.79469 0.13493 0.0
O415 O 0.07176 0.77466 0.17217 0.0
H416 H 0.12582 0.78953 0.12826 0.0
H417 H 0.06923 0.80205 0.0997 0.0
H418 H 0.13348 0.78258 0.0899 0.0
H419 H 0.07788 0.79487 0.06184 0.0
H420 H 0.06848 0.82955 0.24807 0.0
H421 H 0.06497 0.86127 0.17812 0.0
H422 H 0.07899 0.81081 0.21505 0.0
H423 H 0.0545 0.87902 0.21167 0.0
H424 H 0.09076 0.87919 0.09541 0.0
H425 H 0.03693 0.87837 0.12307 0.0
H426 H 0.1685 0.80968 0.18985 0.0
H427 H 0.13542 0.78844 0.24042 0.0
H428 H 0.023 0.76366 0.14862 0.0
H429 H 0.0258 0.81618 0.10999 0.0
H430 H 0.98617 0.75735 0.14028 0.0
H431 H 0.98893 0.80917 0.10257 0.0
H432 H 0.04116 0.7421 0.1704 0.0
H433 H 0.10426 0.75847 0.17096 0.0
H434 H 0.04321 0.70318 0.16738 0.0
H435 H 0.10522 0.71926 0.16813 0.0
H436 H 0.08986 0.71258 0.09974 0.0
H437 H 0.02676 0.70533 0.10067 0.0
H438 H 0.99584 0.82332 0.18851 0.0
H439 H 1.00816 0.76697 0.21705 0.0
Li440 Li 0.51912 0.78672 0.45097 0.0
Li441 Li 0.49569 0.76256 0.41832 0.0
Li442 Li 0.51608 0.74594 0.45071 0.0
Li443 Li 0.53353 0.76625 0.42286 0.0
C444 C 0.48759 0.7736 0.46911 0.0
N445 N 0.47466 0.79488 0.50469 0.0
C446 C 0.47431 0.78745 0.46529 0.0
C447 C 0.49417 0.77043 0.49098 0.0
C448 C 0.46799 0.79811 0.48352 0.0
C449 C 0.48749 0.78137 0.50875 0.0
C450 C 0.52424 0.80035 0.40345 0.0
C451 C 0.53235 0.80224 0.36657 0.0
N452 N 0.54043 0.8238 0.37293 0.0
C453 C 0.5328 0.8225 0.40967 0.0
C454 C 0.52414 0.79011 0.38176 0.0
C455 C 0.54083 0.83408 0.39398 0.0
C456 C 0.53268 0.82442 0.48862 0.0
N457 N 0.5208 0.81579 0.46844 0.0
C458 C 0.50873 0.84903 0.46745 0.0
C459 C 0.50883 0.8277 0.45801 0.0
C460 C 0.52114 0.85861 0.48797 0.0
C461 C 0.53321 0.84589 0.49859 0.0
H462 H 0.54183 0.81482 0.49709 0.0
H463 H 0.49944 0.82067 0.44204 0.0
C464 C 0.45247 0.75723 0.40624 0.0
N465 N 0.46995 0.76054 0.39822 0.0
C466 C 0.43433 0.75767 0.39257 0.0
C467 C 0.45225 0.76456 0.3625 0.0
C468 C 0.46999 0.76423 0.37674 0.0
C469 C 0.43398 0.7613 0.37025 0.0
H470 H 0.45259 0.75445 0.42336 0.0
H471 H 0.48384 0.76723 0.37058 0.0
C472 C 0.55392 0.77908 0.47501 0.0
N473 N 0.58097 0.79857 0.51329 0.0
C474 C 0.56979 0.79582 0.47391 0.0
C475 C 0.55186 0.77216 0.49555 0.0
C476 C 0.58329 0.8055 0.49347 0.0
C477 C 0.56568 0.78224 0.51472 0.0
C478 C 0.5134 0.72254 0.40069 0.0
C479 C 0.52176 0.70523 0.40697 0.0
C480 C 0.50657 0.72283 0.37805 0.0
C481 C 0.5234 0.68861 0.39041 0.0
C482 C 0.50849 0.70592 0.36199 0.0
N483 N 0.5168 0.68931 0.36844 0.0
C484 C 0.49991 0.70902 0.47229 0.0
C485 C 0.53438 0.71418 0.4718 0.0
C486 C 0.5005 0.69033 0.48258 0.0
N487 N 0.51669 0.72054 0.46694 0.0
C488 C 0.53562 0.69558 0.48199 0.0
C489 C 0.51852 0.68308 0.48749 0.0
H490 H 0.48593 0.71418 0.46838 0.0
H491 H 0.54758 0.72333 0.46732 0.0
C492 C 0.56898 0.78781 0.40928 0.0
N493 N 0.55691 0.76786 0.4074 0.0
C494 C 0.58584 0.79055 0.39899 0.0
C495 C 0.57837 0.75203 0.3855 0.0
C496 C 0.56148 0.75006 0.39588 0.0
C497 C 0.5908 0.77255 0.38679 0.0
H498 H 0.56555 0.80178 0.41881 0.0
H499 H 0.55215 0.73422 0.39471 0.0
O500 O 0.49446 0.76354 0.4516 0.0
O501 O 0.51661 0.78862 0.4187 0.0
O502 O 0.54067 0.76924 0.45603 0.0
O503 O 0.51163 0.73891 0.41668 0.0
H504 H 0.4692 0.79021 0.44847 0.0
H505 H 0.50439 0.7597 0.49418 0.0
H506 H 0.45784 0.80901 0.48084 0.0
H507 H 0.49252 0.77914 0.52578 0.0
H508 H 0.53244 0.79447 0.34978 0.0
H509 H 0.53347 0.83066 0.42648 0.0
H510 H 0.51829 0.77285 0.37689 0.0
H511 H 0.54748 0.85123 0.39857 0.0
H512 H 0.49927 0.8581 0.45843 0.0
H513 H 0.54282 0.85239 0.51457 0.0
H514 H 0.42068 0.7549 0.39933 0.0
H515 H 0.45292 0.76772 0.34557 0.0
H516 H 0.5716 0.80139 0.45819 0.0
H517 H 0.53974 0.75916 0.49669 0.0
H518 H 0.59559 0.81853 0.49288 0.0
H519 H 0.56424 0.77708 0.53073 0.0
H520 H 0.52706 0.70469 0.4244 0.0
H521 H 0.49984 0.73592 0.37291 0.0
H522 H 0.52993 0.67518 0.39501 0.0
H523 H 0.50333 0.70598 0.34439 0.0
H524 H 0.48687 0.6817 0.48669 0.0
H525 H 0.54986 0.69078 0.48493 0.0
H526 H 0.59507 0.80666 0.40085 0.0
H527 H 0.58146 0.73765 0.37624 0.0
Li528 Li 0.57062 0.31921 0.6404 0.0
Li529 Li 0.59324 0.30291 0.67092 0.0
Li530 Li 0.56979 0.27863 0.63957 0.0
Li531 Li 0.55579 0.29774 0.66811 0.0
C532 C 0.60171 0.29375 0.6213 0.0
N533 N 0.61899 0.27494 0.58801 0.0
C534 C 0.61663 0.28219 0.62674 0.0
C535 C 0.59582 0.29608 0.59899 0.0
C536 C 0.62511 0.27269 0.60965 0.0
C537 C 0.60468 0.28636 0.58238 0.0
C538 C 0.56937 0.33658 0.69122 0.0
C539 C 0.56631 0.34348 0.73013 0.0
N540 N 0.5532 0.35643 0.7249 0.0
C541 C 0.55593 0.34999 0.6862 0.0
C542 C 0.57466 0.33331 0.71333 0.0
C543 C 0.54791 0.35987 0.70348 0.0
C544 C 0.54993 0.34597 0.61391 0.0
N545 N 0.56799 0.34526 0.62575 0.0
C546 C 0.58047 0.3823 0.62091 0.0
C547 C 0.58321 0.36301 0.62921 0.0
C548 C 0.56184 0.38363 0.6088 0.0
C549 C 0.54663 0.36474 0.6051 0.0
H550 H 0.53776 0.3321 0.61172 0.0
H551 H 0.59738 0.36248 0.63903 0.0
C552 C 0.62547 0.28692 0.6935 0.0
N553 N 0.61958 0.30563 0.68927 0.0
C554 C 0.64436 0.28749 0.70591 0.0
C555 C 0.65114 0.3266 0.70921 0.0
C556 C 0.63206 0.32528 0.69681 0.0
C557 C 0.65763 0.30754 0.7141 0.0
H558 H 0.61549 0.27142 0.68709 0.0
H559 H 0.62728 0.33998 0.69305 0.0
C560 C 0.53307 0.28511 0.61706 0.0
N561 N 0.50441 0.26623 0.57991 0.0
C562 C 0.51508 0.2724 0.61963 0.0
C563 C 0.5364 0.28839 0.59561 0.0
C564 C 0.50081 0.26292 0.60064 0.0
C565 C 0.52175 0.27868 0.57704 0.0
C566 C 0.56402 0.25758 0.6775 0.0
C567 C 0.54557 0.24665 0.66504 0.0
C568 C 0.57276 0.24895 0.69554 0.0
C569 C 0.53615 0.22719 0.67079 0.0
C570 C 0.56286 0.22944 0.70078 0.0
N571 N 0.54492 0.21905 0.6884 0.0
C572 C 0.58288 0.23921 0.6315 0.0
C573 C 0.55402 0.23851 0.60525 0.0
C574 C 0.58309 0.21763 0.623 0.0
N575 N 0.56854 0.24937 0.62264 0.0
C576 C 0.55358 0.21676 0.59632 0.0
C577 C 0.56822 0.20589 0.60524 0.0
H578 H 0.59396 0.24773 0.64573 0.0
H579 H 0.54244 0.24637 0.59853 0.0
C580 C 0.51762 0.30436 0.67646 0.0
N581 N 0.53366 0.29638 0.68482 0.0
C582 C 0.50115 0.30359 0.68741 0.0
C583 C 0.51784 0.28634 0.71547 0.0
C584 C 0.53404 0.28756 0.70405 0.0
C585 C 0.50099 0.29444 0.70727 0.0
H586 H 0.51763 0.31144 0.66122 0.0
H587 H 0.54691 0.2814 0.71056 0.0
O588 O 0.59303 0.30288 0.63775 0.0
O589 O 0.57677 0.32609 0.67445 0.0
O590 O 0.54715 0.29466 0.63548 0.0
O591 O 0.57354 0.27662 0.67208 0.0
H592 H 0.6215 0.28043 0.64397 0.0
H593 H 0.58462 0.30538 0.59457 0.0
H594 H 0.63655 0.26354 0.6136 0.0
H595 H 0.6002 0.28795 0.56502 0.0
H596 H 0.57017 0.34102 0.74732 0.0
H597 H 0.55158 0.35251 0.66911 0.0
H598 H 0.58494 0.32282 0.7174 0.0
H599 H 0.53741 0.37021 0.69986 0.0
H600 H 0.5927 0.39626 0.62466 0.0
H601 H 0.53208 0.36438 0.5956 0.0
H602 H 0.64836 0.27232 0.7093 0.0
H603 H 0.66077 0.34248 0.71466 0.0
H604 H 0.51211 0.26992 0.63612 0.0
H605 H 0.55013 0.29836 0.59333 0.0
H606 H 0.48685 0.25299 0.60238 0.0
H607 H 0.52416 0.28104 0.56034 0.0
H608 H 0.53868 0.25307 0.651 0.0
H609 H 0.58699 0.25727 0.70544 0.0
H610 H 0.52189 0.21854 0.66123 0.0
H611 H 0.56944 0.22257 0.7147 0.0
H612 H 0.5945 0.21001 0.63082 0.0
H613 H 0.54184 0.20854 0.58256 0.0
H614 H 0.48881 0.31042 0.68051 0.0
H615 H 0.5185 0.27884 0.73047 0.0
Li616 Li 0.01911 0.28795 0.95529 0.0
Li617 Li 0.99506 0.26312 0.92322 0.0
Li618 Li 0.01592 0.24632 0.95293 0.0
Li619 Li 0.03146 0.26674 0.92656 0.0
C620 C 0.97747 0.26937 0.96088 0.0
N621 N 0.94115 0.27819 0.96797 0.0
C622 C 0.97161 0.288 0.95447 0.0
C623 C 0.96486 0.25518 0.97086 0.0
C624 C 0.95319 0.29218 0.95818 0.0
C625 C 0.94656 0.25995 0.97434 0.0
C626 C 0.02078 0.29637 0.90367 0.0
C627 C 0.017 0.29235 0.86335 0.0
N628 N 0.03261 0.30937 0.86533 0.0
C629 C 0.03677 0.31383 0.90529 0.0
C630 C 1.01083 0.28552 0.88253 0.0
C631 C 0.04254 0.32014 0.88571 0.0
C632 C 0.04039 0.33101 0.97065 0.0
N633 N 0.02409 0.31687 0.97368 0.0
C634 C 0.01515 0.34545 0.99754 0.0
C635 C 1.01175 0.32359 0.98728 0.0
C636 C 0.0315 0.36065 0.994 0.0
C637 C 0.04431 0.35293 0.9805 0.0
H638 H 0.05021 0.32533 0.96016 0.0
H639 H 0.9991 0.31212 0.99001 0.0
C640 C 0.95493 0.24183 0.9003 0.0
N641 N 0.96854 0.26096 0.90508 0.0
C642 C 0.93574 0.24071 0.88828 0.0
C643 C 0.94464 0.27899 0.88642 0.0
C644 C 0.96365 0.27937 0.89843 0.0
C645 C 0.93026 0.25946 0.88105 0.0
H646 H 0.95891 0.22742 0.90599 0.0
H647 H 0.97452 0.29452 0.90257 0.0
C648 C 0.0478 0.27272 0.98206 0.0
N649 N 0.06256 0.27684 0.02736 0.0
C650 C 0.06751 0.27122 0.98937 0.0
C651 C 0.03558 0.27622 0.99785 0.0
C652 C 0.07469 0.27335 0.01232 0.0
C653 C 0.04333 0.27831 0.02066 0.0
C654 C 0.01599 0.22693 0.90273 0.0
C655 C 0.0324 0.2173 0.90746 0.0
C656 C 1.00558 0.22389 0.88077 0.0
C657 C 0.03834 0.205 0.89 0.0
C658 C 1.01196 0.21143 0.86379 0.0
N659 N 0.02809 0.20235 0.86872 0.0
C660 C 1.00243 0.20781 0.9746 0.0
C661 C 0.03654 0.21618 0.97215 0.0
C662 C 1.00521 0.18947 0.98478 0.0
N663 N 0.01805 0.22089 0.96858 0.0
C664 C 0.03996 0.19814 0.98222 0.0
C665 C 0.02426 0.18436 0.98888 0.0
H666 H 0.98774 0.21144 0.97139 0.0
H667 H 0.04873 0.22634 0.96686 0.0
C668 C 0.07253 0.27581 0.92449 0.0
N669 N 0.05451 0.26843 0.91089 0.0
C670 C 0.09023 0.27708 0.91586 0.0
C671 C 0.07081 0.26402 0.87894 0.0
C672 C 0.0534 0.26281 0.88836 0.0
C673 C 0.08963 0.27096 0.8928 0.0
H674 H 0.07322 0.28076 0.9422 0.0
H675 H 0.03905 0.2572 0.87762 0.0
O676 O 0.99527 0.26478 0.95693 0.0
O677 O 0.01515 0.2896 0.92263 0.0
O678 O 0.04054 0.27038 0.95956 0.0
O679 O 1.01001 0.23914 0.91953 0.0
H680 H 0.98119 0.29909 0.94664 0.0
H681 H 0.96915 0.24067 0.97587 0.0
H682 H 0.94845 0.30652 0.95326 0.0
H683 H 0.93665 0.24914 0.98207 0.0
H684 H 1.00946 0.28404 0.8469 0.0
H685 H 0.04476 0.32236 0.92144 0.0
H686 H 0.99864 0.27177 0.88091 0.0
H687 H 0.05493 0.33358 0.88674 0.0
H688 H 1.00505 0.35035 1.00816 0.0
H689 H 0.05704 0.36382 0.97699 0.0
H690 H 0.92522 0.2253 0.88496 0.0
H691 H 0.9414 0.29385 0.8811 0.0
H692 H 0.07715 0.26822 0.97745 0.0
H693 H 0.02029 0.27735 0.99269 0.0
H694 H 0.0899 0.27219 0.01818 0.0
H695 H 0.03404 0.28107 0.03303 0.0
H696 H 0.04062 0.21955 0.92436 0.0
H697 H 0.99273 0.23108 0.8769 0.0
H698 H 0.05112 0.19759 0.89337 0.0
H699 H 1.00411 0.209 0.8467 0.0
H700 H 0.99257 0.17955 0.98961 0.0
H701 H 0.05484 0.19486 0.98438 0.0
H702 H 0.1043 0.28298 0.9272 0.0
H703 H 0.06954 0.25909 0.86107 0.0
Li704 Li 0.43461 0.05273 0.31004 0.0
Li705 Li 0.40406 0.02766 0.28452 0.0
Li706 Li 0.43151 0.04978 0.2643 0.0
Li707 Li 0.40576 0.072 0.28626 0.0
C708 C 0.44868 0.01722 0.29009 0.0
N709 N 0.48044 0.99731 0.30006 0.0
C710 C 0.4462 0.99837 0.29997 0.0
C711 C 0.46726 0.0259 0.28518 0.0
C712 C 0.46247 0.98856 0.30493 0.0
C713 C 0.48314 0.0156 0.29036 0.0
C714 C 0.39167 0.04552 0.32403 0.0
C715 C 0.36046 0.04658 0.33653 0.0
N716 N 0.36429 0.0322 0.35058 0.0
C717 C 0.39532 0.03079 0.3386 0.0
C718 C 0.37413 0.05352 0.32297 0.0
C719 C 0.38129 0.02424 0.35188 0.0
C720 C 0.46469 0.07214 0.35361 0.0
N721 N 0.45277 0.0534 0.34158 0.0
C722 C 0.46369 0.03427 0.37217 0.0
C723 C 0.45224 0.03468 0.35085 0.0
C724 C 0.4763 0.0533 0.38497 0.0
C725 C 0.47637 0.07244 0.37497 0.0
H726 H 0.46516 0.08716 0.34677 0.0
H727 H 0.44278 0.01972 0.34179 0.0
C728 C 0.39262 0.97797 0.27481 0.0
N729 N 0.38648 0.99609 0.28375 0.0
C730 C 0.38266 0.95643 0.27612 0.0
C731 C 0.35965 0.97172 0.29539 0.0
C732 C 0.36985 0.99292 0.29349 0.0
C733 C 0.36597 0.95269 0.28696 0.0
H734 H 0.40569 0.98008 0.26699 0.0
H735 H 0.36447 1.00688 0.30029 0.0
C736 C 0.45286 0.09269 0.28778 0.0
N737 N 0.48484 0.12387 0.28318 0.0
C738 C 0.44968 0.11055 0.27746 0.0
C739 C 0.47226 0.09067 0.29581 0.0
C740 C 0.46606 0.12615 0.27528 0.0
C741 C 0.48825 0.10661 0.29331 0.0
C742 C 0.38339 0.03478 0.24581 0.0
C743 C 0.38384 0.0228 0.22513 0.0
C744 C 0.36538 0.03371 0.25367 0.0
C745 C 0.36617 1.00999 0.21254 0.0
C746 C 0.34804 0.02068 0.2406 0.0
N747 N 0.34879 1.0092 0.22047 0.0
C748 C 0.4425 0.02864 0.22065 0.0
C749 C 0.4614 0.06407 0.23151 0.0
C750 C 0.45168 0.02585 0.20129 0.0
N751 N 0.44705 0.04765 0.23563 0.0
C752 C 0.47112 0.06182 0.21236 0.0
C753 C 0.46637 0.04251 0.1963 0.0
H754 H 0.43156 0.01525 0.22358 0.0
H755 H 0.46548 0.07925 0.24302 0.0
C756 C 0.39875 0.12041 0.29901 0.0
N757 N 0.39032 0.10005 0.28696 0.0
C758 C 0.3885 0.13836 0.29951 0.0
C759 C 0.36074 0.1151 0.27517 0.0
C760 C 0.37143 0.09767 0.27507 0.0
C761 C 0.36881 0.13631 0.28765 0.0
H762 H 0.41364 0.12305 0.30858 0.0
H763 H 0.36429 0.08204 0.26519 0.0
O764 O 0.43303 0.02719 0.28524 0.0
O765 O 0.40511 0.05203 0.31075 0.0
O766 O 0.43706 0.07713 0.28983 0.0
O767 O 0.40057 0.0469 0.25874 0.0
H768 H 0.43194 0.99153 0.30401 0.0
H769 H 0.46938 0.04045 0.27747 0.0
H770 H 0.4608 0.97403 0.31268 0.0
H771 H 0.49762 0.02215 0.28669 0.0
H772 H 0.3468 0.0526 0.33587 0.0
H773 H 0.40872 0.02429 0.33943 0.0
H774 H 0.37109 0.06493 0.31174 0.0
H775 H 0.38387 1.01277 0.36317 0.0
H776 H 0.4628 0.01888 0.37834 0.0
H777 H 0.48521 0.0879 0.38369 0.0
H778 H 0.38852 0.94281 0.26927 0.0
H779 H 0.34674 0.97037 0.30351 0.0
H780 H 0.43471 0.11228 0.27113 0.0
H781 H 0.47493 0.07692 0.30387 0.0
H782 H 0.46385 0.14006 0.2673 0.0
H783 H 0.50336 0.10527 0.29941 0.0
H784 H 0.39768 0.02341 0.21888 0.0
H785 H 0.36487 0.04264 0.26981 0.0
H786 H 0.36628 1.00064 0.19648 0.0
H787 H 0.334 0.01964 0.2465 0.0
H788 H 0.4473 1.0103 0.19039 0.0
H789 H 0.48208 0.07549 0.21001 0.0
H790 H 0.39605 0.15376 0.30961 0.0
H791 H 0.34605 0.11169 0.26503 0.0
Li792 Li 0.27133 0.17855 0.54725 0.0
Li793 Li 0.28363 0.14923 0.52752 0.0
Li794 Li 0.26855 0.17547 0.50533 0.0
Li795 Li 0.24594 0.1477 0.52538 0.0
C796 C 0.30912 0.19707 0.53401 0.0
N797 N 0.34273 0.23001 0.54447 0.0
C798 C 0.32661 0.19375 0.54649 0.0
C799 C 0.30886 0.21701 0.5265 0.0
C800 C 0.3434 0.21065 0.55172 0.0
C801 C 0.32597 0.2335 0.53206 0.0
C802 C 0.27394 0.14854 0.5738 0.0
C803 C 0.26819 0.1491 0.61186 0.0
N804 N 0.28818 0.15324 0.61927 0.0
C805 C 0.29442 0.15273 0.58182 0.0
C806 C 0.2607 0.14662 0.58894 0.0
C807 C 0.30133 0.15505 0.60485 0.0
C808 C 0.26003 0.20188 0.58572 0.0
N809 N 0.27591 0.19812 0.57626 0.0
C810 C 0.29814 0.2167 0.60995 0.0
C811 C 0.29474 0.20542 0.588 0.0
C812 C 0.28205 0.22094 0.62022 0.0
C813 C 0.26276 0.21352 0.60747 0.0
H814 H 0.24511 0.19528 0.5767 0.0
H815 H 0.3072 0.20161 0.58083 0.0
C816 C 0.32046 0.14063 0.51728 0.0
N817 N 0.30539 0.13316 0.52804 0.0
C818 C 0.33775 0.13199 0.51907 0.0
C819 C 0.32351 0.10723 0.54209 0.0
C820 C 0.30645 0.11643 0.53993 0.0
C821 C 0.33974 0.11533 0.532 0.0
H822 H 0.31932 0.15383 0.50781 0.0
H823 H 0.29434 0.1107 0.5484 0.0
C824 C 0.23967 0.19711 0.53066 0.0
N825 N 0.22375 0.23259 0.54388 0.0
C826 C 0.22024 0.19406 0.53506 0.0
C827 C 0.25093 0.21818 0.53279 0.0
C828 C 0.21248 0.21222 0.54177 0.0
C829 C 0.24264 0.23592 0.53955 0.0
C830 C 0.26592 0.12337 0.49054 0.0
C831 C 0.27745 0.12354 0.47364 0.0
C832 C 0.25981 0.10402 0.49868 0.0
C833 C 0.28269 0.10425 0.46512 0.0
C834 C 0.26536 0.08507 0.48972 0.0
N835 N 0.27659 0.08558 0.47327 0.0
C836 C 0.28563 0.18737 0.46752 0.0
C837 C 0.25757 0.20277 0.47161 0.0
C838 C 0.28791 0.19684 0.4482 0.0
N839 N 0.27051 0.19019 0.47874 0.0
C840 C 0.25946 0.21278 0.45244 0.0
C841 C 0.27469 0.20972 0.44019 0.0
H842 H 0.29602 0.1777 0.47359 0.0
H843 H 0.24567 0.20498 0.48071 0.0
C844 C 0.21037 0.13375 0.54283 0.0
N845 N 0.21899 0.13038 0.52441 0.0
C846 C 0.19123 0.12213 0.54351 0.0
C847 C 0.18959 0.10414 0.5059 0.0
C848 C 0.20893 0.1159 0.50606 0.0
C849 C 0.18045 0.10705 0.52488 0.0
H850 H 0.21823 0.14578 0.55697 0.0
H851 H 0.21586 0.1135 0.49146 0.0
O852 O 0.29262 0.1806 0.5284 0.0
O853 O 0.26697 0.1469 0.55134 0.0
O854 O 0.24756 0.17952 0.52424 0.0
O855 O 0.26128 0.14222 0.49976 0.0
H856 H 0.32717 0.17837 0.55226 0.0
H857 H 0.29567 0.21968 0.51629 0.0
H858 H 0.35697 0.20835 0.56151 0.0
H859 H 0.32594 0.24903 0.52641 0.0
H860 H 0.2581 0.14777 0.62375 0.0
H861 H 0.30491 0.1546 0.57044 0.0
H862 H 0.24482 0.14336 0.58313 0.0
H863 H 0.31716 0.15846 0.61126 0.0
H864 H 0.3133 0.22131 0.61897 0.0
H865 H 0.24975 0.21642 0.61418 0.0
H866 H 0.34959 0.13855 0.51058 0.0
H867 H 0.32427 0.0945 0.5523 0.0
H868 H 0.21127 0.17786 0.53334 0.0
H869 H 0.26596 0.2208 0.52945 0.0
H870 H 0.19749 0.21011 0.54531 0.0
H871 H 0.25124 0.25232 0.54138 0.0
H872 H 0.28239 0.13842 0.46726 0.0
H873 H 0.25109 0.10371 0.51198 0.0
H874 H 0.29165 0.10414 0.45207 0.0
H875 H 0.2608 0.06998 0.49591 0.0
H876 H 0.30012 0.19424 0.43972 0.0
H877 H 0.24882 0.22244 0.44699 0.0
H878 H 0.18477 0.1253 0.55836 0.0
H879 H 0.18196 0.09267 0.49115 0.0
Li880 Li 0.16053 0.08192 0.81881 0.0
Li881 Li 0.13441 0.05675 0.83669 0.0
Li882 Li 0.15815 0.04242 0.81586 0.0
Li883 Li 0.13186 0.05522 0.79559 0.0
C884 C 0.17937 0.05733 0.85638 0.0
N885 N 0.20941 0.04201 0.88053 0.0
C886 C 0.17503 0.03783 0.86489 0.0
C887 C 0.19895 0.0692 0.86047 0.0
C888 C 0.19043 0.0303 0.87695 0.0
C889 C 0.21394 0.06115 0.87265 0.0
C890 C 0.11522 0.08733 0.80691 0.0
C891 C 0.08001 0.08647 0.79841 0.0
N892 N 0.08318 0.09863 0.78194 0.0
C893 C 0.11816 0.09993 0.79001 0.0
C894 C 0.09603 0.08062 0.81125 0.0
C895 C 0.10176 0.10543 0.77752 0.0
C896 C 0.17084 0.12836 0.82022 0.0
N897 N 0.17807 0.10976 0.82021 0.0
C898 C 0.21057 0.12927 0.81791 0.0
C899 C 0.19754 0.10993 0.81915 0.0
C900 C 0.20343 0.14861 0.81725 0.0
C901 C 0.18328 0.14802 0.81858 0.0
H902 H 0.15529 0.12786 0.82093 0.0
H903 H 0.20288 0.09489 0.81865 0.0
C904 C 0.12001 0.03207 0.8678 0.0
N905 N 0.12175 0.05251 0.86255 0.0
C906 C 0.11138 0.0266 0.8861 0.0
C907 C 0.10628 0.06334 0.89363 0.0
C908 C 0.11516 0.06817 0.87508 0.0
C909 C 0.10415 0.04221 0.89929 0.0
H910 H 0.12522 0.01983 0.85758 0.0
H911 H 0.11669 0.08434 0.87065 0.0
C912 C 0.16791 0.04998 0.77614 0.0
N913 N 0.184 0.0274 0.74418 0.0
C914 C 0.15728 0.0299 0.76424 0.0
C915 C 0.18666 0.05866 0.77168 0.0
C916 C 0.16568 0.01871 0.74818 0.0
C917 C 0.19456 0.04697 0.75548 0.0
C918 C 0.11195 0.01628 0.80566 0.0
C919 C 0.11112 0.99813 0.78964 0.0
C920 C 0.09476 0.01917 0.81402 0.0
C921 C 0.09307 0.98329 0.78214 0.0
C922 C 0.07701 1.00392 0.80615 0.0
N923 N 0.07654 0.98646 0.79048 0.0
C924 C 0.16407 0.99961 0.81593 0.0
C925 C 0.19315 0.02475 0.81329 0.0
C926 C 0.17417 0.98248 0.8145 0.0
N927 N 0.17355 0.02018 0.81497 0.0
C928 C 0.20388 1.00809 0.81194 0.0
C929 C 0.19431 0.98657 0.81229 0.0
H930 H 0.14864 0.9965 0.81785 0.0
H931 H 0.2004 0.04131 0.81285 0.0
C932 C 0.12332 0.06023 0.75015 0.0
N933 N 0.11459 0.05124 0.76629 0.0
C934 C 0.11326 0.05684 0.728 0.0
C935 C 0.08495 0.03561 0.7393 0.0
C936 C 0.0955 0.03964 0.76134 0.0
C937 C 0.09393 0.04402 0.7222 0.0
H938 H 0.13831 0.06982 0.75439 0.0
H939 H 0.08839 0.03329 0.77432 0.0
O940 O 0.16455 0.06471 0.84406 0.0
O941 O 0.13099 0.08116 0.81881 0.0
O942 O 0.16005 0.06097 0.79222 0.0
O943 O 0.1296 0.0308 0.81349 0.0
H944 H 0.16002 0.02836 0.86178 0.0
H945 H 0.20255 0.08452 0.85445 0.0
H946 H 0.1873 0.0151 0.88338 0.0
H947 H 0.22917 0.07015 0.87587 0.0
H948 H 0.06505 0.08133 0.80152 0.0
H949 H 0.13292 0.10506 0.78629 0.0
H950 H 0.09353 0.07095 0.82436 0.0
H951 H 0.10378 0.11501 0.76425 0.0
H952 H 0.22591 0.12892 0.8166 0.0
H953 H 0.17719 0.16258 0.81818 0.0
H954 H 0.11046 1.01022 0.88988 0.0
H955 H 0.10081 0.0759 0.90313 0.0
H956 H 0.14272 0.02304 0.76742 0.0
H957 H 0.19506 0.07422 0.78064 0.0
H958 H 0.15763 1.00312 0.7389 0.0
H959 H 0.20909 0.05346 0.75189 0.0
H960 H 0.12426 0.99543 0.78311 0.0
H961 H 0.09498 0.03314 0.82625 0.0
H962 H 0.09222 0.96921 0.76972 0.0
H963 H 0.0636 1.00602 0.81243 0.0
H964 H 0.16633 0.96621 0.81527 0.0
H965 H 0.21938 1.01194 0.81018 0.0
H966 H 0.12082 0.06366 0.71541 0.0
H967 H 0.06991 0.02602 0.73568 0.0
Li968 Li 0.2273 0.89369 0.01731 0.0
Li969 Li 0.24574 0.86557 0.02141 0.0
Li970 Li 0.26205 0.90401 0.01735 0.0
Li971 Li 0.23901 0.87896 0.98622 0.0
C972 C 0.2437 0.90173 0.06057 0.0
N973 N 0.23052 0.91898 0.09802 0.0
C974 C 0.23298 0.88797 0.07271 0.0
C975 C 0.24799 0.92423 0.06761 0.0
C976 C 0.22639 0.89702 0.09158 0.0
C977 C 0.24109 0.93264 0.08654 0.0
C978 C 0.20078 0.85933 0.98987 0.0
C979 C 0.16809 0.83673 0.97683 0.0
N980 N 0.16301 0.85209 0.96466 0.0
C981 C 0.19523 0.8749 0.97722 0.0
C982 C 0.18712 0.84009 0.98968 0.0
C983 C 0.17607 0.87092 0.96459 0.0
C984 C 0.21025 0.92802 0.02923 0.0
N985 N 0.20749 0.90615 0.02853 0.0
C986 C 0.18176 0.90632 0.05044 0.0
C987 C 0.19337 0.89504 0.03841 0.0
C988 C 0.18501 0.9291 0.05231 0.0
C989 C 0.19911 0.93988 0.04107 0.0
H990 H 0.22184 0.93638 0.02151 0.0
H991 H 0.19184 0.87765 0.03787 0.0
C992 C 0.26722 0.84822 0.05282 0.0
N993 N 0.25164 0.84242 0.03553 0.0
C994 C 0.27368 0.83252 0.06437 0.0
C995 C 0.24811 0.805 0.03976 0.0
C996 C 0.24202 0.82137 0.02874 0.0
C997 C 0.26414 0.81054 0.0579 0.0
H998 H 0.27456 0.86514 0.05769 0.0
H999 H 0.22978 0.81732 0.0147 0.0
C1000 C 0.2475 0.92349 0.9816 0.0
N1001 N 0.26269 0.94953 0.9525 0.0
C1002 C 0.26564 0.92165 0.97502 0.0
C1003 C 0.23708 0.93857 0.97336 0.0
C1004 C 0.27309 0.93497 0.96033 0.0
C1005 C 0.24499 0.95158 0.95865 0.0
C1006 C 0.27609 0.86393 0.99105 0.0
C1007 C 0.29381 0.87448 0.98548 0.0
C1008 C 0.27021 0.84131 0.98546 0.0
C1009 C 0.30496 0.86231 0.97372 0.0
C1010 C 0.28173 0.82972 0.97364 0.0
N1011 N 0.29871 0.84038 0.96803 0.0
C1012 C 0.29988 0.91483 0.03992 0.0
C1013 C 0.29098 0.94449 0.02349 0.0
C1014 C 0.31944 0.92613 0.04669 0.0
N1015 N 0.28635 0.92381 0.02789 0.0
C1016 C 0.31058 0.95624 0.02947 0.0
C1017 C 0.32525 0.94668 0.0405 0.0
H1018 H 0.29556 0.89848 0.0435 0.0
H1019 H 0.27974 0.9515 0.01447 0.0
C1020 C 0.23815 0.87938 0.93848 0.0
N1021 N 0.2351 0.8674 0.95512 0.0
C1022 C 0.2407 0.86933 0.91773 0.0
C1023 C 0.23435 0.83461 0.93073 0.0
C1024 C 0.23187 0.84532 0.95114 0.0
C1025 C 0.23985 0.8468 0.91417 0.0
H1026 H 0.23963 0.89677 0.94146 0.0
H1027 H 0.22871 0.83612 0.96441 0.0
O1028 O 0.24978 0.89324 0.0417 0.0
O1029 O 0.21942 0.86274 1.00248 0.0
O1030 O 0.23996 0.91089 0.99622 0.0
O1031 O 0.26492 0.87561 1.00251 0.0
H1032 H 0.22957 0.87051 0.06742 0.0
H1033 H 0.25628 0.93507 0.05834 0.0
H1034 H 0.21793 0.8866 0.10106 0.0
H1035 H 0.24409 0.95004 0.09206 0.0
H1036 H 0.15737 0.82191 0.97654 0.0
H1037 H 0.20554 0.88988 0.97709 0.0
H1038 H 0.1912 0.82789 0.99939 0.0
H1039 H 0.17157 0.88282 0.95473 0.0
H1040 H 0.17096 0.8975 0.05887 0.0
H1041 H 0.20173 0.95738 0.04173 0.0
H1042 H 0.2857 0.8377 0.07861 0.0
H1043 H 0.24038 0.78826 0.03419 0.0
H1044 H 0.2738 0.91003 0.98111 0.0
H1045 H 0.223 0.94021 0.97829 0.0
H1046 H 0.28712 0.93369 0.95512 0.0
H1047 H 0.23706 0.96331 0.95213 0.0
H1048 H 0.29904 0.89187 0.99031 0.0
H1049 H 0.25681 0.83277 0.99004 0.0
H1050 H 0.31863 0.87031 0.96918 0.0
H1051 H 0.27718 0.81224 0.96897 0.0
H1052 H 0.3301 0.9184 0.0558 0.0
H1053 H 0.31436 0.97204 0.02436 0.0
H1054 H 0.24462 0.87929 0.90523 0.0
H1055 H 0.23297 0.81711 0.92835 0.0
Li1056 Li 0.30203 0.40953 0.06803 0.0
Li1057 Li 0.32044 0.38291 0.08963 0.0
Li1058 Li 0.33972 0.41184 0.07032 0.0
Li1059 Li 0.31642 0.38143 0.04762 0.0
C1060 C 0.3375 0.43302 0.10853 0.0
N1061 N 0.36646 0.46729 0.13262 0.0
C1062 C 0.35165 0.42936 0.12569 0.0
C1063 C 0.33817 0.45406 0.10348 0.0
C1064 C 0.36613 0.44693 0.13773 0.0
C1065 C 0.35291 0.47118 0.11589 0.0
C1066 C 0.28321 0.35745 0.05727 0.0
C1067 C 0.27922 0.3192 0.04347 0.0
N1068 N 0.25928 0.31777 0.03754 0.0
C1069 C 0.26268 0.3556 0.05111 0.0
C1070 C 0.29155 0.33911 0.05351 0.0
C1071 C 0.25084 0.33539 0.04114 0.0
C1072 C 0.26319 0.41692 0.05171 0.0
N1073 N 0.2797 0.42451 0.06779 0.0
C1074 C 0.26417 0.45223 0.08386 0.0
C1075 C 0.2804 0.44184 0.08375 0.0
C1076 C 0.24674 0.44464 0.06759 0.0
C1077 C 0.24654 0.42666 0.05134 0.0
H1078 H 0.26286 0.40312 0.03916 0.0
H1079 H 0.29352 0.44758 0.09654 0.0
C1080 C 0.31812 0.37769 0.13632 0.0
N1081 N 0.31891 0.36696 0.11573 0.0
C1082 C 0.31523 0.36629 0.15439 0.0
C1083 C 0.31411 0.33294 0.13004 0.0
C1084 C 0.31709 0.34494 0.11252 0.0
C1085 C 0.3128 0.34345 0.15137 0.0
H1086 H 0.31915 0.39511 0.13864 0.0
H1087 H 0.31743 0.33644 0.09617 0.0
C1088 C 0.31715 0.41365 0.02239 0.0
N1089 N 0.31329 0.41381 0.97671 0.0
C1090 C 0.33237 0.40918 0.01104 0.0
C1091 C 0.30011 0.41855 0.01056 0.0
C1092 C 0.33009 0.40922 0.98793 0.0
C1093 C 0.29841 0.41848 0.98746 0.0
C1094 C 0.35428 0.36951 0.06244 0.0
C1095 C 0.36825 0.37925 0.0505 0.0
C1096 C 0.35444 0.34844 0.06702 0.0
C1097 C 0.38198 0.36764 0.04313 0.0
C1098 C 0.36839 0.33735 0.05934 0.0
N1099 N 0.38176 0.34709 0.04764 0.0
C1100 C 0.38262 0.43162 0.0841 0.0
C1101 C 0.36455 0.44679 0.05636 0.0
C1102 C 0.40045 0.44568 0.08248 0.0
N1103 N 0.36508 0.43234 0.07105 0.0
C1104 C 0.38195 0.46082 0.05397 0.0
C1105 C 0.40041 0.46059 0.06712 0.0
H1106 H 0.38286 0.41995 0.0956 0.0
H1107 H 0.35058 0.44722 0.04609 0.0
C1108 C 0.29326 0.36333 1.00427 0.0
N1109 N 0.31069 0.36292 0.01768 0.0
C1110 C 0.28911 0.35353 0.98171 0.0
C1111 C 0.32041 0.34192 0.98707 0.0
C1112 C 0.32401 0.35207 1.00951 0.0
C1113 C 0.3029 0.34285 0.97257 0.0
H1114 H 0.28283 0.37208 0.01088 0.0
H1115 H 0.33773 0.3516 0.02009 0.0
O1116 O 0.32367 0.41594 0.096 0.0
O1117 O 0.29514 0.37714 0.06671 0.0
O1118 O 0.31888 0.41315 0.04494 0.0
O1119 O 0.3408 0.38065 0.07001 0.0
H1120 H 0.35162 0.4131 0.12947 0.0
H1121 H 0.32764 0.45707 0.08987 0.0
H1122 H 0.37719 0.44434 0.15104 0.0
H1123 H 0.35365 0.48753 0.11211 0.0
H1124 H 0.2855 0.30492 0.0403 0.0
H1125 H 0.25594 0.36955 0.05412 0.0
H1126 H 0.30744 0.34035 0.05787 0.0
H1127 H 0.23493 0.33371 0.03627 0.0
H1128 H 0.26541 0.46619 0.09658 0.0
H1129 H 0.23352 0.4198 0.03863 0.0
H1130 H 0.3141 0.37521 0.17032 0.0
H1131 H 0.31258 0.31544 0.12673 0.0
H1132 H 0.34568 0.40544 0.01991 0.0
H1133 H 0.28829 0.42229 0.01908 0.0
H1134 H 0.34166 0.40555 0.97891 0.0
H1135 H 0.28524 0.42211 0.97808 0.0
H1136 H 0.36849 0.39553 0.04685 0.0
H1137 H 0.34388 0.34069 0.07636 0.0
H1138 H 0.39281 0.37496 0.03381 0.0
H1139 H 0.36861 0.321 0.06269 0.0
H1140 H 0.41408 0.44487 0.09326 0.0
H1141 H 0.38086 0.47144 0.04148 0.0
H1142 H 0.27549 0.35502 0.97137 0.0
H1143 H 0.33136 0.33353 0.98116 0.0
Li1144 Li 0.84626 0.17437 0.09987 0.0
Li1145 Li 0.85527 0.15353 0.06576 0.0
Li1146 Li 0.8253 0.16758 0.06333 0.0
Li1147 Li 0.82802 0.13805 0.08321 0.0
C1148 C 0.85184 0.20107 0.05945 0.0
N1149 N 0.84716 0.23305 0.03334 0.0
C1150 C 0.85683 0.19933 0.03805 0.0
C1151 C 0.8447 0.21922 0.06768 0.0
C1152 C 0.8543 0.21563 0.02508 0.0
C1153 C 0.84238 0.23518 0.05419 0.0
C1154 C 0.8585 0.12766 0.10485 0.0
C1155 C 0.86197 0.09027 0.09819 0.0
N1156 N 0.86031 0.08854 0.11983 0.0
C1157 C 0.85687 0.12553 0.12704 0.0
C1158 C 0.86109 0.10993 0.09029 0.0
C1159 C 0.85781 0.1056 0.13429 0.0
C1160 C 0.84523 0.18605 0.14404 0.0
N1161 N 0.85406 0.19338 0.12727 0.0
C1162 C 0.86197 0.22982 0.14679 0.0
C1163 C 0.8632 0.21455 0.12867 0.0
C1164 C 0.85114 0.22296 0.16319 0.0
C1165 C 0.84369 0.20066 0.16237 0.0
H1166 H 0.8376 0.16924 0.14204 0.0
H1167 H 0.86974 0.2199 0.11479 0.0
C1168 C 0.86924 0.14179 0.02699 0.0
N1169 N 0.87491 0.14708 0.04958 0.0
C1170 C 0.88191 0.1337 0.01397 0.0
C1171 C 0.90636 0.13762 0.0477 0.0
C1172 C 0.89319 0.14566 0.06008 0.0
C1173 C 0.90051 0.13093 0.02442 0.0
H1174 H 0.85453 0.14309 0.01921 0.0
H1175 H 0.89711 0.14977 0.07813 0.0
C1176 C 0.8026 0.17383 0.09807 0.0
N1177 N 0.77288 0.19384 0.11092 0.0
C1178 C 0.78306 0.16199 0.09532 0.0
C1179 C 0.80696 0.19586 0.10748 0.0
C1180 C 0.76826 0.1724 0.10184 0.0
C1181 C 0.79177 0.20567 0.11387 0.0
C1182 C 0.81209 0.12468 0.03826 0.0
C1183 C 0.79305 0.12673 0.04184 0.0
C1184 C 0.81424 0.10834 0.02171 0.0
C1185 C 0.77645 0.11225 0.02895 0.0
C1186 C 0.79727 0.09419 1.00912 0.0
N1187 N 0.77888 0.0964 0.01299 0.0
C1188 C 0.80983 0.17187 0.02028 0.0
C1189 C 0.79701 0.19331 0.04702 0.0
C1190 C 0.79934 0.17951 1.00279 0.0
N1191 N 0.80854 0.17881 0.04189 0.0
C1192 C 0.7864 0.20161 0.03 0.0
C1193 C 0.78762 0.19475 1.00758 0.0
H1194 H 0.81957 0.16087 0.01664 0.0
H1195 H 0.7965 0.19904 0.06423 0.0
C1196 C 0.80209 0.11588 0.10659 0.0
N1197 N 0.81273 0.11247 0.09004 0.0
C1198 C 0.78516 0.10065 0.1076 0.0
C1199 C 0.79219 0.07734 0.07654 0.0
C1200 C 0.80902 0.0931 0.07613 0.0
C1201 C 0.7793 0.0817 0.09148 0.0
H1202 H 0.80556 0.13139 0.11753 0.0
H1203 H 0.818 0.09069 0.06338 0.0
O1204 O 0.85356 0.18488 0.07207 0.0
O1205 O 0.85711 0.14683 0.09724 0.0
O1206 O 0.81744 0.16366 0.09248 0.0
O1207 O 0.82862 0.13828 0.05111 0.0
H1208 H 0.86239 0.18542 0.03142 0.0
H1209 H 0.84074 0.22086 0.08416 0.0
H1210 H 0.85795 0.2144 1.00841 0.0
H1211 H 0.83671 0.24921 0.06028 0.0
H1212 H 0.86387 0.07638 0.08708 0.0
H1213 H 0.85484 0.13909 0.13851 0.0
H1214 H 0.86215 0.11124 0.07299 0.0
H1215 H 0.85653 0.1037 0.1514 0.0
H1216 H 0.86776 0.24694 0.14688 0.0
H1217 H 0.8353 0.19486 0.17481 0.0
H1218 H 0.87692 0.12884 0.99607 0.0
H1219 H 0.92044 0.1354 0.05644 0.0
H1220 H 0.77931 0.14488 0.08836 0.0
H1221 H 0.82184 0.20544 0.10964 0.0
H1222 H 0.7531 0.16341 0.09977 0.0
H1223 H 0.79499 0.2227 0.12114 0.0
H1224 H 0.79114 0.13934 0.05445 0.0
H1225 H 0.82889 0.10647 0.01878 0.0
H1226 H 0.76164 0.11359 0.03164 0.0
H1227 H 0.79872 0.0814 0.99632 0.0
H1228 H 0.80111 0.17428 0.98576 0.0
H1229 H 0.77765 0.21354 0.0343 0.0
H1230 H 0.77574 0.10485 0.11939 0.0
H1231 H 0.78846 0.06273 0.06416 0.0
Li1232 Li 0.18608 0.53677 0.3115 0.0
Li1233 Li 0.15862 0.51538 0.33123 0.0
Li1234 Li 0.18453 0.49296 0.30867 0.0
Li1235 Li 0.15674 0.51206 0.28442 0.0
C1236 C 0.20389 0.52854 0.35378 0.0
N1237 N 0.2336 0.55111 0.38837 0.0
C1238 C 0.1995 0.54322 0.37046 0.0
C1239 C 0.22332 0.52515 0.35476 0.0
C1240 C 0.21475 0.55453 0.38779 0.0
C1241 C 0.23815 0.53678 0.37237 0.0
C1242 C 0.15632 0.55862 0.31141 0.0
C1243 C 0.15748 0.59187 0.29575 0.0
N1244 N 0.1577 0.60289 0.31643 0.0
C1245 C 0.15653 0.57024 0.33249 0.0
C1246 C 0.15675 0.56947 0.29286 0.0
C1247 C 0.15721 0.59263 0.33468 0.0
C1248 C 0.20918 0.57563 0.29412 0.0
N1249 N 0.20333 0.56868 0.31296 0.0
C1250 C 0.21654 0.60573 0.33277 0.0
C1251 C 0.20698 0.58366 0.33208 0.0
C1252 C 0.22297 0.61348 0.31367 0.0
C1253 C 0.21898 0.59754 0.29416 0.0
H1254 H 0.20594 0.5643 0.27862 0.0
H1255 H 0.20192 0.57882 0.34694 0.0
C1256 C 0.12713 0.52657 0.36057 0.0
N1257 N 0.14323 0.51681 0.35982 0.0
C1258 C 0.1177 0.52833 0.37995 0.0
C1259 C 0.14094 0.50984 0.3981 0.0
C1260 C 0.14995 0.50847 0.37849 0.0
C1261 C 0.12446 0.52011 0.39967 0.0
H1262 H 0.12152 0.53342 0.34615 0.0
H1263 H 0.16259 0.50069 0.37845 0.0
C1264 C 0.20224 0.51765 0.2744 0.0
N1265 N 0.23481 0.52625 0.25346 0.0
C1266 C 0.19964 0.51533 0.25103 0.0
C1267 C 0.22139 0.52423 0.28712 0.0
C1268 C 0.2163 0.51978 0.24075 0.0
C1269 C 0.23767 0.52854 0.27622 0.0
C1270 C 0.13793 0.47129 0.29598 0.0
C1271 C 0.1406 0.45531 0.27938 0.0
C1272 C 0.11927 0.47037 0.30226 0.0
C1273 C 0.12447 0.43857 0.26929 0.0
C1274 C 0.10352 0.45336 0.29177 0.0
N1275 N 0.10643 0.43795 0.27565 0.0
C1276 C 0.19053 0.44407 0.30979 0.0
C1277 C 0.21947 0.46769 0.30591 0.0
C1278 C 0.20067 0.42605 0.30941 0.0
N1279 N 0.19981 0.46489 0.30814 0.0
C1280 C 0.23006 0.45019 0.30546 0.0
C1281 C 0.2211 0.42849 0.3074 0.0
H1282 H 0.17502 0.44111 0.31151 0.0
H1283 H 0.22731 0.48371 0.3044 0.0
C1284 C 0.14596 0.52418 0.23801 0.0
N1285 N 0.13883 0.51137 0.25278 0.0
C1286 C 0.13429 0.52511 0.21695 0.0
C1287 C 0.10775 0.49968 0.22588 0.0
C1288 C 0.11992 0.4991 0.24667 0.0
C1289 C 0.11455 0.513 0.21036 0.0
H1290 H 0.16078 0.53418 0.24262 0.0
H1291 H 0.11397 0.4889 0.25802 0.0
O1292 O 0.18917 0.51742 0.33666 0.0
O1293 O 0.15634 0.53686 0.30908 0.0
O1294 O 0.18615 0.51354 0.28483 0.0
O1295 O 0.15344 0.48795 0.30582 0.0
H1296 H 0.1845 0.54595 0.36992 0.0
H1297 H 0.22688 0.51364 0.3421 0.0
H1298 H 0.2116 0.56603 0.40076 0.0
H1299 H 0.25327 0.53438 0.37334 0.0
H1300 H 0.15796 0.60052 0.28158 0.0
H1301 H 0.15642 0.56211 0.34705 0.0
H1302 H 0.15679 0.56072 0.27648 0.0
H1303 H 0.15748 0.60186 0.35092 0.0
H1304 H 0.21832 0.61668 0.34833 0.0
H1305 H 0.2234 0.60178 0.27876 0.0
H1306 H 0.10534 0.53659 0.37945 0.0
H1307 H 0.14704 0.50257 0.41194 0.0
H1308 H 0.18494 0.50999 0.24093 0.0
H1309 H 0.22361 0.5262 0.30522 0.0
H1310 H 0.21452 0.51806 0.22268 0.0
H1311 H 0.25257 0.53374 0.28586 0.0
H1312 H 0.15496 0.45591 0.2743 0.0
H1313 H 0.117 0.48271 0.31504 0.0
H1314 H 0.12629 0.42608 0.2564 0.0
H1315 H 0.08899 0.45242 0.29643 0.0
H1316 H 0.1924 0.41027 0.31107 0.0
H1317 H 0.24542 0.45396 0.30329 0.0
H1318 H 0.14058 0.53587 0.20622 0.0
H1319 H 0.09294 0.48958 0.22208 0.0
Li1320 Li 0.80082 0.90923 0.56419 0.0
Li1321 Li 0.81534 0.88186 0.58476 0.0
Li1322 Li 0.8378 0.91077 0.56564 0.0
Li1323 Li 0.81203 0.88033 0.54287 0.0
C1324 C 0.81705 0.93172 0.60346 0.0
N1325 N 0.80365 0.9653 0.62584 0.0
C1326 C 0.80523 0.92766 0.6197 0.0
C1327 C 0.82213 0.95282 0.59863 0.0
C1328 C 0.79859 0.94488 0.63083 0.0
C1329 C 0.81519 0.96959 0.61012 0.0
C1330 C 0.77487 0.86103 0.55528 0.0
C1331 C 0.75924 0.82333 0.55319 0.0
N1332 N 0.74208 0.82727 0.5421 0.0
C1333 C 0.75703 0.86474 0.54402 0.0
C1334 C 0.77597 0.84019 0.56002 0.0
C1335 C 0.74064 0.84744 0.53743 0.0
C1336 C 0.76512 0.91882 0.57691 0.0
N1337 N 0.77937 0.92572 0.56484 0.0
C1338 C 0.76158 0.95282 0.55313 0.0
C1339 C 0.77795 0.94258 0.55321 0.0
C1340 C 0.74657 0.94593 0.56539 0.0
C1341 C 0.74867 0.92874 0.57752 0.0
H1342 H 0.7664 0.90533 0.58594 0.0
H1343 H 0.78943 0.94804 0.54383 0.0
C1344 C 0.82969 0.86237 0.62381 0.0
N1345 N 0.81335 0.86608 0.61064 0.0
C1346 C 0.82766 0.85085 0.64196 0.0
C1347 C 0.79209 0.84696 0.63267 0.0
C1348 C 0.79481 0.85898 0.61514 0.0
C1349 C 0.80861 0.84268 0.64639 0.0
H1350 H 0.84434 0.86824 0.6202 0.0
H1351 H 0.78199 0.86249 0.60497 0.0
C1352 C 0.8073 0.9168 0.52087 0.0
N1353 N 0.78744 0.92694 0.48218 0.0
C1354 C 0.78818 0.90509 0.51133 0.0
C1355 C 0.81635 0.93366 0.51073 0.0
C1356 C 0.77838 0.91045 0.49177 0.0
C1357 C 0.80605 0.93855 0.49118 0.0
C1358 C 0.8424 0.8617 0.55374 0.0
C1359 C 0.85664 0.86614 0.5401 0.0
C1360 C 0.83431 0.84014 0.55525 0.0
C1361 C 0.86235 0.84885 0.52789 0.0
C1362 C 0.84042 0.8233 0.54278 0.0
N1363 N 0.85417 0.82797 0.52945 0.0
C1364 C 0.87762 0.93667 0.58556 0.0
C1365 C 0.87005 0.93088 0.54598 0.0
C1366 C 0.89693 0.94819 0.58512 0.0
N1367 N 0.86458 0.9282 0.56613 0.0
C1368 C 0.88914 0.94231 0.54478 0.0
C1369 C 0.90306 0.95118 0.5645 0.0
H1370 H 0.87311 0.93438 0.60145 0.0
H1371 H 0.85964 0.92381 0.53069 0.0
C1372 C 0.7922 0.84432 0.50614 0.0
N1373 N 0.80741 0.86194 0.51322 0.0
C1374 C 0.78886 0.83313 0.48414 0.0
C1375 C 0.81716 0.85788 0.47699 0.0
C1376 C 0.81982 0.86874 0.49905 0.0
C1377 C 0.80135 0.83992 0.46911 0.0
H1378 H 0.78235 0.83899 0.51729 0.0
H1379 H 0.83166 0.88293 0.50476 0.0
O1380 O 0.82307 0.91498 0.5918 0.0
O1381 O 0.79101 0.87783 0.56211 0.0
O1382 O 0.81718 0.91179 0.54 0.0
O1383 O 0.8362 0.87837 0.56532 0.0
H1384 H 0.80107 0.91135 0.62347 0.0
H1385 H 0.83116 0.95613 0.58595 0.0
H1386 H 0.78935 0.94199 0.64337 0.0
H1387 H 0.81891 0.98599 0.60649 0.0
H1388 H 0.75991 0.80711 0.55668 0.0
H1389 H 0.75579 0.88081 0.54046 0.0
H1390 H 0.78961 0.83703 0.56881 0.0
H1391 H 0.72676 0.85007 0.52865 0.0
H1392 H 0.76079 0.96615 0.54374 0.0
H1393 H 0.73748 0.92267 0.58705 0.0
H1394 H 0.8408 0.84788 0.65207 0.0
H1395 H 0.77714 0.84115 0.63555 0.0
H1396 H 0.78105 0.89193 0.5189 0.0
H1397 H 0.83114 0.94292 0.51795 0.0
H1398 H 0.76358 0.9015 0.48419 0.0
H1399 H 0.81286 0.95158 0.48316 0.0
H1400 H 0.86304 0.88275 0.53877 0.0
H1401 H 0.82342 0.83646 0.56591 0.0
H1402 H 0.87325 0.85203 0.51712 0.0
H1403 H 0.83421 0.80652 0.54369 0.0
H1404 H 0.90688 0.95485 0.60085 0.0
H1405 H 0.89306 0.94373 0.52844 0.0
H1406 H 0.77659 0.81926 0.47895 0.0
H1407 H 0.82706 0.86393 0.46602 0.0
Li1408 Li 0.95603 1.00644 0.29167 0.0
Li1409 Li 0.92657 0.97962 0.26784 0.0
Li1410 Li 0.95283 1.00336 0.25086 0.0
Li1411 Li 0.9299 0.01934 0.26914 0.0
C1412 C 0.96925 0.97054 0.28184 0.0
N1413 N 0.99609 0.95264 0.3079 0.0
C1414 C 0.96271 0.95144 0.29024 0.0
C1415 C 0.98943 0.98045 0.28653 0.0
C1416 C 0.97652 0.94266 0.30341 0.0
C1417 C 1.00277 0.97118 0.2998 0.0
C1418 C 0.91839 1.01256 0.30842 0.0
C1419 C 0.88953 0.01623 0.32503 0.0
N1420 N 0.89975 0.03549 0.33737 0.0
C1421 C 0.92862 0.03238 0.32126 0.0
C1422 C 0.89869 1.00439 0.31029 0.0
C1423 C 0.91894 0.04373 0.3358 0.0
C1424 C 0.98473 0.03023 0.32988 0.0
N1425 N 0.97185 1.01102 0.32144 0.0
C1426 C 0.97698 0.99902 0.35718 0.0
C1427 C 0.96783 0.99555 0.33464 0.0
C1428 C 0.99032 0.01875 0.36646 0.0
C1429 C 0.99432 0.03433 0.35229 0.0
H1430 H 0.98701 0.04277 0.31953 0.0
H1431 H 0.95692 0.98077 0.32787 0.0
C1432 C 0.90106 0.93885 0.24682 0.0
N1433 N 0.90881 0.95224 0.26661 0.0
C1434 C 0.88699 0.91972 0.24617 0.0
C1435 C 0.8897 0.92814 0.28633 0.0
C1436 C 0.90362 0.94711 0.28619 0.0
C1437 C 0.88096 0.91423 0.26609 0.0
H1438 H 0.90547 0.94327 0.23148 0.0
H1439 H 0.91008 0.95798 0.30171 0.0
C1440 C 0.97292 0.04311 0.2647 0.0
N1441 N 1.00106 0.06797 0.24566 0.0
C1442 C 0.96698 0.05355 0.24674 0.0
C1443 C 0.99322 0.04531 0.27293 0.0
C1444 C 0.98141 0.06601 0.23733 0.0
C1445 C 1.0072 0.05799 0.26312 0.0
C1446 C 0.90651 1.00146 0.23074 0.0
C1447 C 0.90844 0.01897 0.2188 0.0
C1448 C 0.88755 0.98946 0.23109 0.0
C1449 C 0.89136 0.0243 0.20755 0.0
C1450 C 0.87084 0.99527 0.21959 0.0
N1451 N 0.87307 1.01244 0.20818 0.0
C1452 C 0.95523 1.00374 0.20467 0.0
C1453 C 0.98663 1.00818 0.2279 0.0
C1454 C 0.96432 1.00822 0.18631 0.0
N1455 N 0.96641 1.00449 0.22517 0.0
C1456 C 0.99635 1.01314 0.2101 0.0
C1457 C 0.98516 1.01369 0.18908 0.0
H1458 H 0.93919 1.00036 0.20267 0.0
H1459 H 0.99529 1.00825 0.24415 0.0
C1460 C 0.92413 0.06286 0.27183 0.0
N1461 N 0.91452 0.04179 0.26991 0.0
C1462 C 0.91346 0.07957 0.27204 0.0
C1463 C 0.88324 0.05273 0.26931 0.0
C1464 C 0.89449 0.03654 0.26903 0.0
C1465 C 0.89271 0.07458 0.27064 0.0
H1466 H 0.94012 0.06678 0.2734 0.0
H1467 H 0.8872 0.01977 0.26811 0.0
O1468 O 0.95591 0.97959 0.26926 0.0
O1469 O 0.92747 1.00147 0.29371 0.0
O1470 O 0.95896 0.03055 0.27391 0.0
O1471 O 0.92306 0.99609 0.24205 0.0
H1472 H 0.94713 0.94357 0.28673 0.0
H1473 H 0.99469 0.99529 0.28025 0.0
H1474 H 0.97168 0.92794 0.31011 0.0
H1475 H 0.01842 0.97876 0.30371 0.0
H1476 H 0.87426 1.01016 0.3266 0.0
H1477 H 0.94378 0.03907 0.31976 0.0
H1478 H 0.89049 0.98919 0.30027 0.0
H1479 H 0.92664 0.05913 0.34577 0.0
H1480 H 0.97298 0.98669 0.36742 0.0
H1481 H 1.00451 0.04976 0.35852 0.0
H1482 H 0.88088 0.90938 0.23022 0.0
H1483 H 0.8854 0.92477 0.30207 0.0
H1484 H 0.95139 0.05191 0.23999 0.0
H1485 H 0.99821 0.03691 0.28635 0.0
H1486 H 0.97699 0.07406 0.22336 0.0
H1487 H 0.02294 0.05972 0.26925 0.0
H1488 H 0.92294 0.02847 0.21833 0.0
H1489 H 0.8857 0.97604 0.24043 0.0
H1490 H 0.89265 0.03788 0.19836 0.0
H1491 H 0.85608 0.9862 0.21984 0.0
H1492 H 0.95513 1.0084 0.17038 0.0
H1493 H 1.01247 0.01695 0.21287 0.0
H1494 H 0.92141 0.09624 0.27362 0.0
H1495 H 0.86727 0.04815 0.26818 0.0
Li1496 Li 0.31087 0.65939 0.5822 0.0
Li1497 Li 0.32653 0.64369 0.55268 0.0
Li1498 Li 0.29588 0.6566 0.54388 0.0
Li1499 Li 0.29646 0.62335 0.56047 0.0
C1500 C 0.33457 0.69213 0.57056 0.0
N1501 N 0.35925 0.72888 0.5963 0.0
C1502 C 0.35513 0.69341 0.57519 0.0
C1503 C 0.32657 0.70959 0.57893 0.0
C1504 C 0.36735 0.71213 0.58824 0.0
C1505 C 0.3393 0.728 0.59195 0.0
C1506 C 0.32225 0.61712 0.5942 0.0
C1507 C 0.32368 0.58012 0.59895 0.0
N1508 N 0.32043 0.5844 0.62032 0.0
C1509 C 0.31899 0.62118 0.61624 0.0
C1510 C 0.32471 0.59645 0.5855 0.0
C1511 C 0.3181 0.60442 0.62916 0.0
C1512 C 0.29748 0.68074 0.61752 0.0
N1513 N 0.31437 0.67649 0.61086 0.0
C1514 C 0.33433 0.69875 0.64389 0.0
C1515 C 0.33259 0.68466 0.62381 0.0
C1516 C 0.31712 0.70426 0.65052 0.0
C1517 C 0.29851 0.69468 0.63732 0.0
H1518 H 0.28317 0.67352 0.60731 0.0
H1519 H 0.34576 0.68068 0.61825 0.0
C1520 C 0.35459 0.64621 0.52304 0.0
N1521 N 0.3501 0.63964 0.5424 0.0
C1522 C 0.3681 0.63701 0.51208 0.0
C1523 C 0.37344 0.61647 0.54253 0.0
C1524 C 0.35993 0.62601 0.55282 0.0
C1525 C 0.37682 0.62111 0.52139 0.0
H1526 H 0.34647 0.65714 0.51521 0.0
H1527 H 0.35628 0.62139 0.56835 0.0
C1528 C 0.26416 0.65065 0.56193 0.0
N1529 N 0.22673 0.65766 0.54642 0.0
C1530 C 0.24877 0.6331 0.55182 0.0
C1531 C 0.2605 0.67177 0.56419 0.0
C1532 C 0.22994 0.63698 0.5441 0.0
C1533 C 0.24149 0.67497 0.55621 0.0
C1534 C 0.30847 0.62058 0.51259 0.0
C1535 C 0.30734 0.63081 0.49357 0.0
C1536 C 0.31685 0.60209 0.51271 0.0
C1537 C 0.31473 0.62242 0.475 0.0
C1538 C 0.32411 0.59424 0.49383 0.0
N1539 N 0.32291 0.60448 0.47552 0.0
C1540 C 0.28813 0.69171 0.52348 0.0
C1541 C 0.26561 0.65855 0.50762 0.0
C1542 C 0.27904 0.7026 0.50783 0.0
N1543 N 0.28146 0.6701 0.52297 0.0
C1544 C 0.25601 0.66883 0.49156 0.0
C1545 C 0.26291 0.69111 0.49138 0.0
H1546 H 0.30093 0.70037 0.53562 0.0
H1547 H 0.26075 0.6413 0.50757 0.0
C1548 C 0.27415 0.59248 0.58052 0.0
N1549 N 0.28149 0.5955 0.56149 0.0
C1550 C 0.26093 0.57331 0.58129 0.0
C1551 C 0.26342 0.56046 0.54301 0.0
C1552 C 0.27671 0.57988 0.54303 0.0
C1553 C 0.25493 0.55729 0.56213 0.0
H1554 H 0.27781 0.60545 0.59472 0.0
H1555 H 0.28237 0.58292 0.52795 0.0
O1556 O 0.32235 0.67389 0.55791 0.0
O1557 O 0.32305 0.63329 0.58122 0.0
O1558 O 0.2828 0.64725 0.56927 0.0
O1559 O 0.3015 0.6287 0.53102 0.0
H1560 H 0.36158 0.68007 0.56888 0.0
H1561 H 0.31067 0.70877 0.57576 0.0
H1562 H 0.38328 0.71333 0.59201 0.0
H1563 H 0.3333 0.74154 0.59869 0.0
H1564 H 0.32542 0.56402 0.59237 0.0
H1565 H 0.31705 0.63703 0.62328 0.0
H1566 H 0.3271 0.59296 0.56843 0.0
H1567 H 0.31552 0.60731 0.64622 0.0
H1568 H 0.34894 0.70577 0.65371 0.0
H1569 H 0.28486 0.69807 0.64219 0.0
H1570 H 0.37058 0.64105 0.49587 0.0
H1571 H 0.38037 0.60468 0.55044 0.0
H1572 H 0.25132 0.61667 0.54978 0.0
H1573 H 0.27232 0.68558 0.5717 0.0
H1574 H 0.2179 0.62356 0.53619 0.0
H1575 H 0.23849 0.69123 0.55771 0.0
H1576 H 0.301 0.64518 0.49322 0.0
H1577 H 0.31805 0.59411 0.52737 0.0
H1578 H 0.31403 0.63022 0.46021 0.0
H1579 H 0.3308 0.58007 0.49377 0.0
H1580 H 0.28525 0.71962 0.50798 0.0
H1581 H 0.24365 0.65939 0.47915 0.0
H1582 H 0.25435 0.57178 0.59618 0.0
H1583 H 0.25902 0.54856 0.52786 0.0
Li1584 Li 0.42602 0.48766 0.77263 0.0
Li1585 Li 0.45468 0.51372 0.79635 0.0
Li1586 Li 0.42959 0.52755 0.77467 0.0
Li1587 Li 0.45355 0.5116 0.75521 0.0
C1588 C 0.41892 0.52035 0.81493 0.0
N1589 N 0.40389 0.54255 0.84816 0.0
C1590 C 0.43032 0.53966 0.82771 0.0
C1591 C 0.39991 0.51226 0.81909 0.0
C1592 C 0.42245 0.55066 0.84443 0.0
C1593 C 0.39256 0.52374 0.83595 0.0
C1594 C 0.46962 0.47935 0.78615 0.0
C1595 C 0.50412 0.47959 0.79967 0.0
N1596 N 0.49845 0.46414 0.81236 0.0
C1597 C 0.46411 0.46334 0.79914 0.0
C1598 C 0.48976 0.48744 0.78625 0.0
C1599 C 0.47892 0.4559 0.81234 0.0
C1600 C 0.39838 0.44629 0.75365 0.0
N1601 N 0.40818 0.46031 0.7724 0.0
C1602 C 0.39308 0.43684 0.79572 0.0
C1603 C 0.4057 0.4559 0.79314 0.0
C1604 C 0.3828 0.42184 0.77678 0.0
C1605 C 0.38554 0.42687 0.75546 0.0
H1606 H 0.40051 0.45015 0.7373 0.0
H1607 H 0.41357 0.46731 0.80781 0.0
C1608 C 0.48817 0.52944 0.83506 0.0
N1609 N 0.47026 0.51592 0.8264 0.0
C1610 C 0.49707 0.53015 0.85746 0.0
C1611 C 0.46934 0.50266 0.86144 0.0
C1612 C 0.46092 0.50264 0.83918 0.0
C1613 C 0.48762 0.51663 0.87101 0.0
H1614 H 0.49559 0.53977 0.8248 0.0
H1615 H 0.44671 0.49203 0.83208 0.0
C1616 C 0.40791 0.51133 0.73529 0.0
N1617 N 0.3767 0.52613 0.71287 0.0
C1618 C 0.41165 0.52761 0.72209 0.0
C1619 C 0.38833 0.50246 0.737 0.0
C1620 C 0.39566 0.53492 0.71092 0.0
C1621 C 0.37274 0.51018 0.72553 0.0
C1622 C 0.47571 0.55264 0.78694 0.0
C1623 C 0.47535 0.5711 0.80195 0.0
C1624 C 0.49368 0.54969 0.78056 0.0
C1625 C 0.49308 0.58613 0.81066 0.0
C1626 C 0.51109 0.5651 0.78962 0.0
N1627 N 0.51043 0.58283 0.80438 0.0
C1628 C 0.39565 0.54733 0.77721 0.0
C1629 C 0.42407 0.56986 0.7691 0.0
C1630 C 0.38505 0.56409 0.77612 0.0
N1631 N 0.41482 0.5505 0.77379 0.0
C1632 C 0.41404 0.58704 0.76783 0.0
C1633 C 0.39423 0.58432 0.77137 0.0
H1634 H 0.38846 0.53168 0.78047 0.0
H1635 H 0.43924 0.57191 0.76619 0.0
C1636 C 0.47225 0.49707 0.71778 0.0
N1637 N 0.46709 0.51427 0.72956 0.0
C1638 C 0.481 0.49965 0.69868 0.0
C1639 C 0.47914 0.53759 0.70424 0.0
C1640 C 0.47039 0.53427 0.72312 0.0
C1641 C 0.48456 0.52016 0.69157 0.0
H1642 H 0.46943 0.48127 0.72308 0.0
H1643 H 0.46599 0.54769 0.73257 0.0
O1644 O 0.42625 0.50945 0.79832 0.0
O1645 O 0.45536 0.48735 0.77371 0.0
O1646 O 0.42337 0.50444 0.74692 0.0
O1647 O 0.45847 0.53789 0.77804 0.0
H1648 H 0.44507 0.54606 0.82476 0.0
H1649 H 0.39087 0.49736 0.80926 0.0
H1650 H 0.43111 0.56564 0.85443 0.0
H1651 H 0.37785 0.51772 0.8393 0.0
H1652 H 0.51978 0.48579 0.80002 0.0
H1653 H 0.44858 0.4569 0.79923 0.0
H1654 H 0.49425 0.49969 0.77615 0.0
H1655 H 0.47488 0.44364 0.82262 0.0
H1656 H 0.39123 0.43405 0.81249 0.0
H1657 H 0.37808 0.41581 0.74036 0.0
H1658 H 0.51128 0.54103 0.86403 0.0
H1659 H 0.46135 0.49211 0.87122 0.0
H1660 H 0.42675 0.53472 0.72072 0.0
H1661 H 0.38522 0.48995 0.7473 0.0
H1662 H 0.39833 0.54763 0.70077 0.0
H1663 H 0.3575 0.50356 0.72679 0.0
H1664 H 0.46152 0.57387 0.80675 0.0
H1665 H 0.4942 0.53568 0.76874 0.0
H1666 H 0.49304 0.60044 0.82236 0.0
H1667 H 0.52511 0.56298 0.7849 0.0
H1668 H 0.36972 0.56108 0.77857 0.0
H1669 H 0.4218 0.60237 0.76431 0.0
H1670 H 0.48508 0.48574 0.6897 0.0
H1671 H 0.48125 0.55362 0.69938 0.0
Li1672 Li 0.66109 0.01764 0.83255 0.0
Li1673 Li 0.6873 0.03904 0.81295 0.0
Li1674 Li 0.65724 0.01529 0.78564 0.0
Li1675 Li 0.68602 0.99557 0.81057 0.0
C1676 C 0.65811 0.06136 0.81573 0.0
N1677 N 0.66029 0.10568 0.82511 0.0
C1678 C 0.66211 0.07184 0.83794 0.0
C1679 C 0.655 0.07336 0.79829 0.0
C1680 C 0.66321 0.09427 0.84234 0.0
C1681 C 0.65622 0.09577 0.80337 0.0
C1682 C 0.70659 0.02957 0.85499 0.0
C1683 C 0.74101 0.03493 0.87243 0.0
N1684 N 0.73762 0.04887 0.8896 0.0
C1685 C 0.70339 0.04382 0.87288 0.0
C1686 C 0.72549 0.02494 0.85482 0.0
C1687 C 0.71928 0.05346 0.89019 0.0
C1688 C 0.65536 1.01397 0.88142 0.0
N1689 N 0.64623 0.01869 0.86164 0.0
C1690 C 0.61923 0.02658 0.88138 0.0
C1691 C 0.62821 0.02481 0.86165 0.0
C1692 C 0.62857 0.02235 0.90224 0.0
C1693 C 0.64701 0.01573 0.90146 0.0
H1694 H 0.66951 1.00899 0.88196 0.0
H1695 H 0.62065 0.02871 0.84634 0.0
C1696 C 0.70354 0.07971 0.79455 0.0
N1697 N 0.70444 0.07061 0.81381 0.0
C1698 C 0.71303 0.10164 0.79439 0.0
C1699 C 0.72483 0.10515 0.83376 0.0
C1700 C 0.71511 0.08319 0.83321 0.0
C1701 C 0.72387 0.11522 0.81424 0.0
H1702 H 0.6949 0.07014 0.77912 0.0
H1703 H 0.71591 0.07646 0.84862 0.0
C1704 C 0.63986 0.97706 0.81352 0.0
N1705 N 0.61014 0.95163 0.82977 0.0
C1706 C 0.64474 0.96505 0.83047 0.0
C1707 C 0.61988 0.97637 0.80501 0.0
C1708 C 0.62949 0.95222 0.83842 0.0
C1709 C 0.60506 0.96334 0.81339 0.0
C1710 C 0.70262 0.02381 0.7762 0.0
C1711 C 0.69963 0.02532 0.75336 0.0
C1712 C 0.72172 0.03062 0.789 0.0
C1713 C 0.7158 0.03388 0.74375 0.0
C1714 C 0.73751 0.03911 0.77879 0.0
N1715 N 0.73424 0.04057 0.75656 0.0
C1716 C 0.64742 0.03209 0.74214 0.0
C1717 C 0.62271 1.00187 0.74367 0.0
C1718 C 0.63764 0.03427 0.72058 0.0
N1719 N 0.64016 0.016 0.75361 0.0
C1720 C 0.61231 1.00362 0.72209 0.0
C1721 C 0.61966 0.01995 0.70973 0.0
H1722 H 0.66108 0.04353 0.7497 0.0
H1723 H 0.61666 0.98898 0.75231 0.0
C1724 C 0.72114 0.97105 0.80615 0.0
N1725 N 0.70174 0.96794 0.80943 0.0
C1726 C 0.73208 0.95385 0.80535 0.0
C1727 C 0.70355 0.92941 0.81106 0.0
C1728 C 0.69306 0.94711 0.81172 0.0
C1729 C 0.72373 0.93217 0.80797 0.0
H1730 H 0.72848 0.98709 0.80403 0.0
H1731 H 0.67774 0.94386 0.81413 0.0
O1732 O 0.65778 0.03957 0.81115 0.0
O1733 O 0.6912 0.01987 0.83796 0.0
O1734 O 0.65457 0.99029 0.80612 0.0
O1735 O 0.68696 0.01585 0.78606 0.0
H1736 H 0.66447 0.06276 0.85162 0.0
H1737 H 0.65186 0.0655 0.78102 0.0
H1738 H 0.66642 0.10262 0.85946 0.0
H1739 H 0.65399 0.10529 0.79003 0.0
H1740 H 0.75575 0.03155 0.87248 0.0
H1741 H 0.68882 0.04747 0.87336 0.0
H1742 H 0.72814 1.01368 0.84128 0.0
H1743 H 0.71705 0.06459 0.90409 0.0
H1744 H 0.60519 0.03184 0.88028 0.0
H1745 H 0.65514 1.01169 0.91636 0.0
H1746 H 0.71128 0.10801 0.77874 0.0
H1747 H 0.7331 0.11411 0.84965 0.0
H1748 H 0.66015 0.96585 0.83761 0.0
H1749 H 0.61588 0.98593 0.7922 0.0
H1750 H 0.63304 0.94284 0.85155 0.0
H1751 H 0.58953 0.96261 0.80694 0.0
H1752 H 0.68502 0.01976 0.74311 0.0
H1753 H 0.72426 0.02962 0.8067 0.0
H1754 H 0.7137 0.03517 0.72609 0.0
H1755 H 0.75234 0.04459 0.78854 0.0
H1756 H 0.6442 0.04749 0.71264 0.0
H1757 H 0.59873 0.99186 0.71501 0.0
H1758 H 0.74717 0.95785 0.80234 0.0
H1759 H 0.69573 0.91362 0.81329 0.0
Li1760 Li 0.7721 0.68168 0.04339 0.0
Li1761 Li 0.78439 0.65298 0.02289 0.0
Li1762 Li 0.76907 0.67939 1.00238 0.0
Li1763 Li 0.74656 0.65136 0.01985 0.0
C1764 C 0.80746 0.70176 0.03799 0.0
N1765 N 0.8345 0.73615 0.06475 0.0
C1766 C 0.82499 0.6982 0.05011 0.0
C1767 C 0.80371 0.7228 0.03939 0.0
C1768 C 0.83848 0.71581 0.06355 0.0
C1769 C 0.81755 0.73997 0.05305 0.0
C1770 C 0.7726 0.64926 0.06819 0.0
C1771 C 0.76434 0.64902 0.10516 0.0
N1772 N 0.78369 0.64939 0.1136 0.0
C1773 C 0.79241 0.64961 0.07723 0.0
C1774 C 0.75843 0.64887 0.08224 0.0
C1775 C 0.79771 0.64965 0.10022 0.0
C1776 C 0.75898 0.7077 0.07776 0.0
N1777 N 0.77511 0.69987 0.07284 0.0
C1778 C 0.79185 0.71181 0.111 0.0
C1779 C 0.79151 0.70212 0.08895 0.0
C1780 C 0.77517 0.71944 0.11682 0.0
C1781 C 0.75873 0.71763 0.09958 0.0
H1782 H 0.74595 0.70554 0.0649 0.0
H1783 H 0.80405 0.69543 0.08507 0.0
C1784 C 0.82233 0.64436 0.0152 0.0
N1785 N 0.80542 0.63596 0.02263 0.0
C1786 C 0.83825 0.63343 0.01577 0.0
C1787 C 0.81902 0.60502 0.03113 0.0
C1788 C 0.8035 0.61654 0.03034 0.0
C1789 C 0.83686 0.61345 0.02393 0.0
H1790 H 0.82355 0.65972 1.00896 0.0
H1791 H 0.78999 0.61011 0.03621 0.0
C1792 C 0.73707 0.69491 1.00975 0.0
N1793 N 0.71479 0.71799 0.98426 0.0
C1794 C 0.72082 0.6839 0.99346 0.0
C1795 C 0.74196 0.71764 0.01316 0.0
C1796 C 0.70974 0.69587 0.98072 0.0
C1797 C 0.73051 0.72902 1.00008 0.0
C1798 C 0.76916 0.63134 0.98256 0.0
C1799 C 0.78264 0.63754 0.96853 0.0
C1800 C 0.76354 0.60941 0.98457 0.0
C1801 C 0.7903 0.62159 0.95668 0.0
C1802 C 0.77154 0.59396 0.97244 0.0
N1803 N 0.78465 0.60032 0.95888 0.0
C1804 C 0.78548 0.71088 0.97558 0.0
C1805 C 0.75591 0.68658 0.95699 0.0
C1806 C 0.78713 0.72053 0.95622 0.0
N1807 N 0.77005 0.69418 0.97573 0.0
C1808 C 0.75699 0.69576 0.93726 0.0
C1809 C 0.77284 0.71298 0.9365 0.0
H1810 H 0.79684 0.71648 0.99036 0.0
H1811 H 0.74389 0.67311 0.95721 0.0
C1812 C 0.71035 0.64169 0.03597 0.0
N1813 N 0.71958 0.63483 0.01903 0.0
C1814 C 0.69106 0.63114 0.03736 0.0
C1815 C 0.69047 0.60711 1.00325 0.0
C1816 C 0.70999 0.61792 1.00271 0.0
C1817 C 0.68076 0.61355 0.02089 0.0
H1818 H 0.71796 0.65554 0.04841 0.0
H1819 H 0.71741 0.61284 0.9892 0.0
O1820 O 0.79402 0.68474 0.02483 0.0
O1821 O 0.7672 0.64955 0.04576 0.0
O1822 O 0.74839 0.6835 0.022 0.0
O1823 O 0.76211 0.64678 0.99493 0.0
H1824 H 0.82806 0.68199 0.04937 0.0
H1825 H 0.79019 0.7258 0.03013 0.0
H1826 H 0.85207 0.71329 0.07311 0.0
H1827 H 0.8148 0.75634 0.05437 0.0
H1828 H 0.75354 0.64886 0.11625 0.0
H1829 H 0.80367 0.65029 0.06672 0.0
H1830 H 0.74306 0.64862 0.07559 0.0
H1831 H 0.81301 0.65006 0.10745 0.0
H1832 H 0.80478 0.71236 0.12356 0.0
H1833 H 0.7456 0.72351 0.10292 0.0
H1834 H 0.85145 0.6405 1.00968 0.0
H1835 H 0.81718 0.58984 0.03778 0.0
H1836 H 0.71694 0.6663 0.99049 0.0
H1837 H 0.75447 0.72639 0.02576 0.0
H1838 H 0.69718 0.68757 0.96797 0.0
H1839 H 0.73415 0.74662 1.00249 0.0
H1840 H 0.78728 0.6545 0.967 0.0
H1841 H 0.75329 0.60443 0.99559 0.0
H1842 H 0.80081 0.62614 0.94581 0.0
H1843 H 0.7674 0.57693 0.97389 0.0
H1844 H 0.79986 0.7334 0.95659 0.0
H1845 H 0.74545 0.68938 0.92274 0.0
H1846 H 0.68413 0.63697 0.05105 0.0
H1847 H 0.68318 0.59362 0.99019 0.0
Li1848 Li 0.90158 0.52989 0.78221 0.0
Li1849 Li 0.93285 0.55456 0.80846 0.0
Li1850 Li 0.90499 0.57404 0.7842 0.0
Li1851 Li 0.92867 0.55222 0.76164 0.0
C1852 C 0.8899 0.54863 0.82224 0.0
N1853 N 0.86245 0.53768 0.84946 0.0
C1854 C 0.89455 0.53731 0.83989 0.0
C1855 C 0.87133 0.55438 0.8184 0.0
C1856 C 0.88046 0.53194 0.85348 0.0
C1857 C 0.85764 0.54868 0.83235 0.0
C1858 C 0.93502 0.5097 0.78445 0.0
C1859 C 0.94479 0.47744 0.7682 0.0
N1860 N 0.94197 0.46839 0.78684 0.0
C1861 C 0.93228 0.50014 0.80348 0.0
C1862 C 0.94135 0.49834 0.76667 0.0
C1863 C 0.93585 0.47922 0.80435 0.0
C1864 C 0.88767 0.48164 0.76562 0.0
N1865 N 0.88452 0.49804 0.78069 0.0
C1866 C 0.86228 0.47051 0.79507 0.0
C1867 C 0.87175 0.49253 0.79513 0.0
C1868 C 0.86553 0.45315 0.77996 0.0
C1869 C 0.87858 0.45948 0.76506 0.0
H1870 H 0.8977 0.48559 0.7541 0.0
H1871 H 0.86883 0.50513 0.80702 0.0
C1872 C 0.94665 0.56291 0.85981 0.0
N1873 N 0.95089 0.55441 0.83969 0.0
C1874 C 0.95801 0.56113 0.8808 0.0
C1875 C 0.97821 0.5419 0.86069 0.0
C1876 C 0.9665 0.54395 0.84018 0.0
C1877 C 0.97436 0.55058 0.88182 0.0
H1878 H 0.9342 0.57101 0.85979 0.0
H1879 H 0.96987 0.53679 0.82452 0.0
C1880 C 0.88083 0.55012 0.74401 0.0
N1881 N 0.84563 0.55375 0.71845 0.0
C1882 C 0.8812 0.56137 0.72577 0.0
C1883 C 0.86262 0.54073 0.74933 0.0
C1884 C 0.86322 0.56303 0.71303 0.0
C1885 C 0.84496 0.54273 0.73616 0.0
C1886 C 0.94992 0.59426 0.78188 0.0
C1887 C 0.94419 0.60773 0.76675 0.0
C1888 C 0.97007 0.59603 0.79043 0.0
C1889 C 0.9588 0.6229 0.76043 0.0
C1890 C 0.98423 0.61139 0.78368 0.0
N1891 N 0.97835 0.6244 0.76896 0.0
C1892 C 0.90209 0.62255 0.7968 0.0
C1893 C 0.87182 0.6026 0.77594 0.0
C1894 C 0.89423 0.64204 0.79839 0.0
N1895 N 0.89111 0.60286 0.78562 0.0
C1896 C 0.86337 0.62181 0.77714 0.0
C1897 C 0.87441 0.64251 0.78843 0.0
H1898 H 0.91729 0.62341 0.80474 0.0
H1899 H 0.86264 0.5874 0.76701 0.0
C1900 C 0.93096 0.54193 0.71164 0.0
N1901 N 0.94273 0.55008 0.73214 0.0
C1902 C 0.93894 0.5397 0.6914 0.0
C1903 C 0.97149 0.5539 0.71262 0.0
C1904 C 0.96288 0.55596 0.73258 0.0
C1905 C 0.95965 0.54574 0.69111 0.0
H1906 H 0.91507 0.53692 0.71078 0.0
H1907 H 0.97259 0.56236 0.7485 0.0
O1908 O 0.90347 0.55413 0.80879 0.0
O1909 O 0.9312 0.52997 0.7831 0.0
O1910 O 0.89822 0.54859 0.7569 0.0
O1911 O 0.93587 0.57903 0.78788 0.0
H1912 H 0.90879 0.53254 0.84291 0.0
H1913 H 0.86754 0.56312 0.80476 0.0
H1914 H 0.88381 0.52314 0.86718 0.0
H1915 H 0.84319 0.553 0.82958 0.0
H1916 H 0.94964 0.4684 0.75455 0.0
H1917 H 0.92726 0.50873 0.81731 0.0
H1918 H 0.94348 0.50554 0.75181 0.0
H1919 H 0.93371 0.47156 0.81893 0.0
H1920 H 0.85228 0.46726 0.80681 0.0
H1921 H 0.88225 0.44736 0.75314 0.0
H1922 H 0.95411 0.56833 0.89614 0.0
H1923 H 0.99015 0.53314 0.85981 0.0
H1924 H 0.89522 0.56884 0.72157 0.0
H1925 H 0.86214 0.53208 0.76352 0.0
H1926 H 0.86324 0.57171 0.69886 0.0
H1927 H 0.83074 0.53558 0.74007 0.0
H1928 H 0.92862 0.60641 0.75989 0.0
H1929 H 0.9747 0.58558 0.80206 0.0
H1930 H 0.95461 0.63345 0.74872 0.0
H1931 H 0.99989 0.61295 0.79013 0.0
H1932 H 0.90392 0.65669 0.80784 0.0
H1933 H 0.84818 0.6203 0.76885 0.0
H1934 H 0.92863 0.53286 0.67598 0.0
H1935 H 0.98744 0.55908 0.71415 0.0
Li1936 Li 0.78432 0.39163 0.52609 0.0
Li1937 Li 0.75194 0.39813 0.51496 0.0
Li1938 Li 0.77033 0.38345 0.48711 0.0
Li1939 Li 0.7806 0.42169 0.50616 0.0
C1940 C 0.76135 0.35413 0.52495 0.0
N1941 N 0.76605 0.32423 0.55361 0.0
C1942 C 0.75146 0.35375 0.54327 0.0
C1943 C 0.77345 0.33915 0.52105 0.0
C1944 C 0.75407 0.33854 0.5576 0.0
C1945 C 0.77568 0.32421 0.53578 0.0
C1946 C 0.78752 0.43236 0.55228 0.0
C1947 C 0.79474 0.45956 0.58541 0.0
N1948 N 0.81452 0.46192 0.58482 0.0
C1949 C 0.80792 0.43502 0.55204 0.0
C1950 C 0.78085 0.4447 0.56911 0.0
C1951 C 0.82133 0.45006 0.56862 0.0
C1952 C 0.8156 0.37291 0.54852 0.0
N1953 N 0.80017 0.38315 0.5505 0.0
C1954 C 0.80406 0.38155 0.58968 0.0
C1955 C 0.79428 0.38742 0.57055 0.0
C1956 C 0.81977 0.37067 0.58808 0.0
C1957 C 0.82558 0.36629 0.56723 0.0
H1958 H 0.8198 0.36925 0.53242 0.0
H1959 H 0.78159 0.39493 0.57158 0.0
C1960 C 0.71088 0.39866 0.50777 0.0
N1961 N 0.7272 0.39929 0.52337 0.0
C1962 C 0.69519 0.40763 0.51396 0.0
C1963 C 0.71237 0.4148 0.55247 0.0
C1964 C 0.7278 0.40598 0.5455 0.0
C1965 C 0.69651 0.41707 0.53636 0.0
H1966 H 0.71096 0.39334 0.49025 0.0
H1967 H 0.74105 0.40626 0.55745 0.0
C1968 C 0.81465 0.39485 0.49748 0.0
N1969 N 0.85033 0.38482 0.48932 0.0
C1970 C 0.83192 0.41113 0.50151 0.0
C1971 C 0.81553 0.3735 0.48912 0.0
C1972 C 0.84981 0.40572 0.49735 0.0
C1973 C 0.8337 0.36875 0.48515 0.0
C1974 C 0.74464 0.42338 0.48112 0.0
C1975 C 0.73452 0.4231 0.45949 0.0
C1976 C 0.74352 0.43954 0.49847 0.0
C1977 C 0.72334 0.43894 0.45558 0.0
C1978 C 0.73215 0.45506 0.49391 0.0
N1979 N 0.72238 0.45444 0.47273 0.0
C1980 C 0.76482 0.34401 0.45703 0.0
C1981 C 0.77674 0.37677 0.44375 0.0
C1982 C 0.76818 0.33166 0.4379 0.0
N1983 N 0.76965 0.36609 0.45974 0.0
C1984 C 0.78016 0.36511 0.42432 0.0
C1985 C 0.77646 0.34225 0.42154 0.0
H1986 H 0.75932 0.33604 0.47018 0.0
H1987 H 0.78052 0.39437 0.44658 0.0
C1988 C 0.79332 0.46804 0.51702 0.0
N1989 N 0.79272 0.44994 0.50212 0.0
C1990 C 0.80633 0.48746 0.5163 0.0
C1991 C 0.81589 0.46988 0.48326 0.0
C1992 C 0.80298 0.45072 0.48487 0.0
C1993 C 0.81832 0.48821 0.49973 0.0
H1994 H 0.78465 0.46713 0.53028 0.0
H1995 H 0.80213 0.43605 0.47327 0.0
O1996 O 0.75947 0.36936 0.51115 0.0
O1997 O 0.77401 0.41784 0.53614 0.0
O1998 O 0.7969 0.40003 0.50088 0.0
O1999 O 0.75542 0.40776 0.48517 0.0
H2000 H 0.74204 0.3652 0.54652 0.0
H2001 H 0.78129 0.33927 0.50703 0.0
H2002 H 0.74662 0.33816 0.57193 0.0
H2003 H 0.78515 0.31266 0.53309 0.0
H2004 H 0.78978 0.46925 0.59851 0.0
H2005 H 0.81337 0.42559 0.53925 0.0
H2006 H 0.7651 0.44291 0.56951 0.0
H2007 H 0.83716 0.45229 0.5686 0.0
H2008 H 0.79882 0.38461 0.6054 0.0
H2009 H 0.83745 0.35758 0.56541 0.0
H2010 H 0.68326 0.40916 0.50101 0.0
H2011 H 0.71372 0.42156 0.56995 0.0
H2012 H 0.83152 0.4278 0.50773 0.0
H2013 H 0.80241 0.36066 0.486 0.0
H2014 H 0.86329 0.41816 0.50044 0.0
H2015 H 0.83458 0.35227 0.47879 0.0
H2016 H 0.73525 0.4107 0.44587 0.0
H2017 H 0.75114 0.44 0.51535 0.0
H2018 H 0.7154 0.43889 0.43893 0.0
H2019 H 0.73105 0.46755 0.50721 0.0
H2020 H 0.76524 0.31409 0.4365 0.0
H2021 H 0.78616 0.37391 0.41191 0.0
H2022 H 0.80784 0.50133 0.52923 0.0
H2023 H 0.82508 0.46978 0.4704 0.0
Li2024 Li 0.63143 0.55195 0.34215 0.0
Li2025 Li 0.65867 0.5737 0.32338 0.0
Li2026 Li 0.62931 0.54812 0.30098 0.0
Li2027 Li 0.65402 0.53404 0.3225 0.0
C2028 C 0.61702 0.58462 0.30936 0.0
N2029 N 0.59119 0.60231 0.28166 0.0
C2030 C 0.62438 0.59911 0.29563 0.0
C2031 C 0.59656 0.57934 0.30922 0.0
C2032 C 0.61107 0.60782 0.28169 0.0
C2033 C 0.58373 0.5884 0.29504 0.0
C2034 C 0.67685 0.55041 0.36082 0.0
C2035 C 0.71183 0.54988 0.3688 0.0
N2036 N 0.70791 0.53475 0.38239 0.0
C2037 C 0.67317 0.53494 0.37492 0.0
C2038 C 0.69632 0.55801 0.35774 0.0
C2039 C 0.68908 0.52719 0.38566 0.0
C2040 C 0.61574 0.53363 0.37791 0.0
N2041 N 0.61872 0.55208 0.36845 0.0
C2042 C 0.60472 0.57068 0.39688 0.0
C2043 C 0.61346 0.57045 0.37759 0.0
C2044 C 0.60132 0.55183 0.40702 0.0
C2045 C 0.60709 0.53315 0.39724 0.0
H2046 H 0.62004 0.51919 0.37037 0.0
H2047 H 0.6161 0.58499 0.36992 0.0
C2048 C 0.68303 0.60508 0.30491 0.0
N2049 N 0.67781 0.60023 0.32457 0.0
C2050 C 0.69763 0.62346 0.30464 0.0
C2051 C 0.70115 0.63178 0.34489 0.0
C2052 C 0.68645 0.61319 0.34437 0.0
C2053 C 0.70706 0.63712 0.32483 0.0
H2054 H 0.67596 0.59451 0.28939 0.0
H2055 H 0.68211 0.60894 0.35981 0.0
C2056 C 0.60666 0.51158 0.3147 0.0
N2057 N 0.5694 0.48455 0.30391 0.0
C2058 C 0.60418 0.49069 0.30261 0.0
C2059 C 0.59022 0.51861 0.32152 0.0
C2060 C 0.58521 0.47731 0.29725 0.0
C2061 C 0.5715 0.50473 0.31585 0.0
C2062 C 0.661 0.53805 0.27982 0.0
C2063 C 0.64846 0.51775 0.27185 0.0
C2064 C 0.67706 0.54494 0.26929 0.0
C2065 C 0.65212 0.50469 0.25337 0.0
C2066 C 0.68025 0.5314 0.25085 0.0
N2067 N 0.66781 0.51173 0.24334 0.0
C2068 C 0.62175 0.55588 0.25656 0.0
C2069 C 0.59528 0.52992 0.2638 0.0
C2070 C 0.6131 0.55299 0.23392 0.0
N2071 N 0.61298 0.54424 0.27104 0.0
C2072 C 0.58611 0.52644 0.24118 0.0
C2073 C 0.59513 0.53789 0.22579 0.0
H2074 H 0.63588 0.56706 0.2625 0.0
H2075 H 0.58832 0.52084 0.27531 0.0
C2076 C 0.65892 0.49145 0.32807 0.0
N2077 N 0.66794 0.51063 0.32281 0.0
C2078 C 0.66822 0.47362 0.32702 0.0
C2079 C 0.69609 0.49579 0.31567 0.0
C2080 C 0.68624 0.51316 0.31688 0.0
C2081 C 0.687 0.4756 0.32058 0.0
H2082 H 0.64442 0.48996 0.33287 0.0
H2083 H 0.69307 0.5286 0.31278 0.0
O2084 O 0.6298 0.57549 0.32265 0.0
O2085 O 0.66143 0.55768 0.3496 0.0
O2086 O 0.62517 0.52479 0.32028 0.0
O2087 O 0.65778 0.55105 0.29802 0.0
H2088 H 0.64018 0.60337 0.29554 0.0
H2089 H 0.59062 0.56838 0.31992 0.0
H2090 H 0.61655 0.61892 0.27084 0.0
H2091 H 0.56784 0.58438 0.29468 0.0
H2092 H 0.72696 0.55552 0.36649 0.0
H2093 H 0.65816 0.5288 0.37735 0.0
H2094 H 0.69938 0.56984 0.3467 0.0
H2095 H 0.68644 0.51511 0.39653 0.0
H2096 H 0.6008 0.58558 0.40387 0.0
H2097 H 0.60456 0.51815 0.40416 0.0
H2098 H 0.70181 0.62659 0.28879 0.0
H2099 H 0.70776 0.64188 0.36084 0.0
H2100 H 0.61676 0.48486 0.2974 0.0
H2101 H 0.59186 0.53459 0.33106 0.0
H2102 H 0.58307 0.46115 0.28782 0.0
H2103 H 0.55865 0.51001 0.32096 0.0
H2104 H 0.63602 0.51214 0.27985 0.0
H2105 H 0.68702 0.56053 0.27537 0.0
H2106 H 0.64251 0.48896 0.24702 0.0
H2107 H 0.69262 0.53652 0.24254 0.0
H2108 H 0.6208 0.56205 0.22277 0.0
H2109 H 0.57212 0.51486 0.2358 0.0
H2110 H 0.66079 0.45846 0.33124 0.0
H2111 H 0.71044 0.49801 0.31039 0.0
Tb2112 Tb 0.02591 0.01785 0.03072 0.0
Tb2113 Tb 0.06189 0.04495 0.05879 0.0
C2114 C 0.99057 1.00176 0.01214 0.0
C2115 C 0.97582 1.01048 0.99817 0.0
C2116 C 0.95584 1.00541 1.0006 0.0
C2117 C 0.94259 0.01793 0.99248 0.0
C2118 C 0.94925 0.03574 0.98193 0.0
C2119 C 0.96874 0.03922 0.97737 0.0
C2120 C 0.982 0.02675 0.98557 0.0
C2121 C 0.05665 0.02445 1.00961 0.0
C2122 C 0.03361 0.07031 0.03313 0.0
C2123 C 0.09739 0.06079 0.07691 0.0
C2124 C 0.11264 0.05125 0.08909 0.0
C2125 C 0.13225 0.05641 0.08537 0.0
C2126 C 0.14568 0.04335 0.09156 0.0
C2127 C 0.13956 0.02491 0.10145 0.0
C2128 C 0.12055 0.02124 0.10735 0.0
C2129 C 0.10712 0.03424 0.10108 0.0
C2130 C 0.03105 0.03838 0.07977 0.0
C2131 C 0.05392 0.99262 0.05692 0.0
O2132 O 0.99563 1.01183 0.03285 0.0
O2133 O 1.006 0.99814 1.00344 0.0
O2134 O 0.05174 0.03814 0.02344 0.0
O2135 O 0.04372 1.00634 1.00692 0.0
O2136 O 0.02071 0.0513 0.0282 0.0
O2137 O 0.05194 0.07148 0.04366 0.0
O2138 O 0.09193 0.05239 0.0557 0.0
O2139 O 0.08219 0.06312 0.08664 0.0
O2140 O 0.03604 0.02477 0.06597 0.0
O2141 O 0.04416 0.0564 0.0828 0.0
O2142 O 0.06712 1.0114 0.06086 0.0
O2143 O 0.03542 0.99175 0.04707 0.0
H2144 H 0.95088 0.99296 0.01036 0.0
H2145 H 0.92771 0.01496 0.99641 0.0
H2146 H 0.97418 0.05274 0.96914 0.0
H2147 H 0.99741 0.03096 0.98357 0.0
H2148 H 0.13671 0.06943 0.07606 0.0
H2149 H 0.16017 0.04649 0.08664 0.0
H2150 H 0.11554 1.00724 0.11514 0.0
H2151 H 0.092 0.02993 0.10408 0.0
Tb2152 Tb 0.29736 0.77255 0.26822 0.0
Tb2153 Tb 0.29249 0.78943 0.31809 0.0
C2154 C 0.28975 0.76087 0.2267 0.0
C2155 C 0.29818 0.76133 0.2061 0.0
C2156 C 0.3092 0.78059 0.20135 0.0
C2157 C 0.31278 0.78189 0.17961 0.0
C2158 C 0.30534 0.76397 0.16241 0.0
C2159 C 0.29622 0.74408 0.16786 0.0
C2160 C 0.29262 0.74281 0.18956 0.0
C2161 C 0.33014 0.77342 0.29815 0.0
C2162 C 0.31385 0.82369 0.28847 0.0
C2163 C 0.29801 0.79854 0.35986 0.0
C2164 C 0.28584 0.79214 0.37645 0.0
C2165 C 0.26741 0.77765 0.36959 0.0
C2166 C 0.25727 0.76877 0.38548 0.0
C2167 C 0.26546 0.7743 0.40841 0.0
C2168 C 0.28328 0.78999 0.4152 0.0
C2169 C 0.29344 0.79879 0.39929 0.0
C2170 C 0.2595 0.78797 0.28819 0.0
C2171 C 0.27523 0.73853 0.29723 0.0
O2172 O 0.28684 0.7794 0.23665 0.0
O2173 O 0.29623 0.74861 0.24076 0.0
O2174 O 0.31406 0.779 0.3009 0.0
O2175 O 0.32814 0.76694 0.27674 0.0
O2176 O 0.30914 0.80803 0.27047 0.0
O2177 O 0.30996 0.81953 0.3086 0.0
O2178 O 0.30431 0.78251 0.34922 0.0
O2179 O 0.29107 0.81109 0.34642 0.0
O2180 O 0.27572 0.78274 0.2854 0.0
O2181 O 0.26152 0.79438 0.30959 0.0
O2182 O 0.28049 0.75357 0.31575 0.0
O2183 O 0.27887 0.74353 0.27741 0.0
H2184 H 0.31378 0.79503 0.21396 0.0
H2185 H 0.31974 0.79748 0.17589 0.0
H2186 H 0.29052 0.72999 0.15496 0.0
H2187 H 0.28422 0.72776 0.19301 0.0
H2188 H 0.26135 0.77242 0.35192 0.0
H2189 H 0.24354 0.75682 0.3798 0.0
H2190 H 0.29012 0.79433 0.43273 0.0
H2191 H 0.30768 0.80994 0.40478 0.0
Tb2192 Tb 0.56525 0.03613 0.54315 0.0
Tb2193 Tb 0.52228 0.02729 0.5512 0.0
C2194 C 0.60159 0.03581 0.54216 0.0
C2195 C 0.61686 0.02194 0.54481 0.0
C2196 C 0.63286 0.0277 0.563 0.0
C2197 C 0.64886 0.01682 0.56414 0.0
C2198 C 0.64943 0.99996 0.54697 0.0
C2199 C 0.63307 0.99373 0.52917 0.0
C2200 C 0.61705 1.00454 0.52808 0.0
C2201 C 0.53754 0.04059 0.50864 0.0
C2202 C 0.54047 0.98685 0.53689 0.0
C2203 C 0.48529 0.02657 0.54238 0.0
C2204 C 0.46894 0.03824 0.54659 0.0
C2205 C 0.46696 0.05721 0.53729 0.0
C2206 C 0.44968 0.06579 0.53744 0.0
C2207 C 0.43374 0.05574 0.5469 0.0
C2208 C 0.43614 0.03732 0.55709 0.0
C2209 C 0.45341 0.02865 0.55681 0.0
C2210 C 0.54692 0.02693 0.59046 0.0
C2211 C 0.54836 0.07614 0.56223 0.0
O2212 O 0.59507 0.04326 0.56006 0.0
O2213 O 0.5874 0.03034 0.52454 0.0
O2214 O 0.53618 0.02651 0.52187 0.0
O2215 O 0.55544 0.05237 0.51444 0.0
O2216 O 0.55804 1.00046 0.54065 0.0
O2217 O 0.52375 0.99391 0.53812 0.0
O2218 O 0.49855 0.03588 0.53155 0.0
O2219 O 0.49319 0.01639 0.55777 0.0
O2220 O 0.55148 0.03038 0.57148 0.0
O2221 O 0.52757 0.02377 0.58711 0.0
O2222 O 0.53067 0.06287 0.55853 0.0
O2223 O 0.56472 0.06897 0.55921 0.0
H2224 H 0.63336 0.04119 0.57604 0.0
H2225 H 0.66118 0.02226 0.57802 0.0
H2226 H 0.63274 0.98061 0.5158 0.0
H2227 H 0.60509 0.99961 0.51376 0.0
H2228 H 0.47842 0.06498 0.52897 0.0
H2229 H 0.44851 0.07977 0.52915 0.0
H2230 H 0.4245 0.02927 0.56498 0.0
H2231 H 0.45427 1.01392 0.5639 0.0
Tb2232 Tb 0.27168 0.28776 0.79378 0.0
Tb2233 Tb 0.31465 0.28143 0.79784 0.0
C2234 C 0.23541 0.28704 0.79613 0.0
C2235 C 0.21993 0.28728 0.81066 0.0
C2236 C 0.21286 0.26915 0.82065 0.0
C2237 C 0.1959 0.26829 0.83087 0.0
C2238 C 0.18543 0.28541 0.83113 0.0
C2239 C 0.19302 0.30384 0.8219 0.0
C2240 C 0.20997 0.30473 0.81181 0.0
C2241 C 0.29741 0.31906 0.78243 0.0
C2242 C 0.30059 0.29948 0.84173 0.0
C2243 C 0.35098 0.28281 0.79541 0.0
C2244 C 0.36608 0.28263 0.7805 0.0
C2245 C 0.36577 0.29356 0.76181 0.0
C2246 C 0.38148 0.29474 0.74954 0.0
C2247 C 0.39794 0.28518 0.75579 0.0
C2248 C 0.39789 0.27394 0.77428 0.0
C2249 C 0.3822 0.27269 0.78641 0.0
C2250 C 0.28901 0.25001 0.80915 0.0
C2251 C 0.28545 0.26868 0.75016 0.0
O2252 O 0.243 0.26965 0.79317 0.0
O2253 O 0.24861 0.30493 0.79697 0.0
O2254 O 0.30054 0.30857 0.79835 0.0
O2255 O 0.27885 0.31303 0.77295 0.0
O2256 O 0.28203 0.29378 0.83044 0.0
O2257 O 0.31612 0.2983 0.83167 0.0
O2258 O 0.34301 0.29999 0.79791 0.0
O2259 O 0.33809 0.26476 0.79487 0.0
O2260 O 0.28581 0.26062 0.79334 0.0
O2261 O 0.30766 0.25585 0.81833 0.0
O2262 O 0.30407 0.27487 0.76119 0.0
O2263 O 0.27001 0.26996 0.76033 0.0
H2264 H 0.21997 0.25525 0.81986 0.0
H2265 H 0.19047 0.25378 0.83766 0.0
H2266 H 0.18562 0.3175 0.82207 0.0
H2267 H 0.21483 0.31881 0.80408 0.0
H2268 H 0.35361 0.30153 0.75695 0.0
H2269 H 0.38099 0.30364 0.73551 0.0
H2270 H 0.41004 0.26605 0.77943 0.0
H2271 H 0.38286 0.26425 0.8008 0.0
Tb2272 Tb 0.03922 0.05206 0.54445 0.0
Tb2273 Tb 0.0437 1.00778 0.54457 0.0
C2274 C 0.04402 0.09283 0.54903 0.0
C2275 C 0.04285 0.10852 0.53347 0.0
C2276 C 0.03291 0.10183 0.51125 0.0
C2277 C 0.03251 0.11684 0.49635 0.0
C2278 C 0.0421 0.13873 0.50348 0.0
C2279 C 0.05216 0.14527 0.52576 0.0
C2280 C 0.05251 0.13025 0.54063 0.0
C2281 C 1.0052 0.02438 0.54314 0.0
C2282 C 0.03169 0.02434 0.49764 0.0
C2283 C 0.03825 0.96698 0.53992 0.0
C2284 C 0.03435 0.95079 0.55474 0.0
C2285 C 0.02533 0.95525 0.57343 0.0
C2286 C 0.02229 0.9399 0.58779 0.0
C2287 C 0.02838 0.91996 0.58378 0.0
C2288 C 0.03734 0.91561 0.56494 0.0
C2289 C 0.04024 0.9309 0.55053 0.0
C2290 C 0.07769 0.03542 0.54562 0.0
C2291 C 0.0518 0.03594 0.591 0.0
O2292 O 0.05853 0.08238 0.54811 0.0
O2293 O 0.02726 0.07997 0.55005 0.0
O2294 O 0.02175 0.02442 0.55512 0.0
O2295 O 1.00737 0.04057 0.53207 0.0
O2296 O 0.0359 0.04449 0.50835 0.0
O2297 O 0.03284 1.00776 0.5087 0.0
O2298 O 0.02408 0.97758 0.53503 0.0
O2299 O 0.05585 0.97976 0.54482 0.0
O2300 O 0.06107 0.03527 0.5338 0.0
O2301 O 0.07571 0.01914 0.55655 0.0
O2302 O 0.04546 0.01572 0.58064 0.0
O2303 O 0.05237 0.05232 0.5795 0.0
H2304 H 0.02547 0.08502 0.50543 0.0
H2305 H 0.02448 0.11136 0.47937 0.0
H2306 H 0.05996 0.16194 0.53164 0.0
H2307 H 0.06045 0.13557 0.55767 0.0
H2308 H 0.02078 0.97062 0.57699 0.0
H2309 H 0.0152 0.94367 0.60202 0.0
H2310 H 0.04256 0.90062 0.5616 0.0
H2311 H 0.04736 0.92732 0.53626 0.0
Tb2312 Tb 0.29448 0.76347 0.78501 0.0
Tb2313 Tb 0.29667 0.81233 0.78637 0.0
C2314 C 0.29078 0.72305 0.77368 0.0
C2315 C 0.30327 0.70656 0.77496 0.0
C2316 C 0.32337 0.71109 0.77255 0.0
C2317 C 0.33478 0.695 0.77402 0.0
C2318 C 0.32634 0.67418 0.77812 0.0
C2319 C 0.30618 0.6698 0.78042 0.0
C2320 C 0.2948 0.6858 0.77883 0.0
C2321 C 0.2888 0.7849 0.82247 0.0
C2322 C 0.33536 0.79401 0.80466 0.0
C2323 C 0.30115 0.85261 0.79888 0.0
C2324 C 0.28907 0.8691 0.80255 0.0
C2325 C 0.26893 0.86337 0.80436 0.0
C2326 C 0.25794 0.87958 0.80812 0.0
C2327 C 0.26695 0.90174 0.81006 0.0
C2328 C 0.28712 0.90725 0.80806 0.0
C2329 C 0.29805 0.89108 0.80438 0.0
C2330 C 0.3021 0.79117 0.74883 0.0
C2331 C 0.25567 0.78186 0.7677 0.0
O2332 O 0.29454 0.73731 0.76027 0.0
O2333 O 0.28714 0.73191 0.79277 0.0
O2334 O 0.28295 0.78785 0.80291 0.0
O2335 O 0.29719 0.76817 0.82172 0.0
O2336 O 0.32631 0.77385 0.79573 0.0
O2337 O 0.32617 0.81062 0.80406 0.0
O2338 O 0.30096 0.83831 0.81266 0.0
O2339 O 0.30014 0.84382 0.77806 0.0
O2340 O 0.30816 0.78801 0.7683 0.0
O2341 O 0.29369 0.80787 0.74977 0.0
O2342 O 0.26473 0.80163 0.77796 0.0
O2343 O 0.26518 0.76543 0.76635 0.0
H2344 H 0.33027 0.72705 0.76966 0.0
H2345 H 0.3503 0.69896 0.77236 0.0
H2346 H 0.29912 0.65388 0.78326 0.0
H2347 H 0.27931 0.68195 0.78067 0.0
H2348 H 0.26174 0.84643 0.80294 0.0
H2349 H 0.24249 0.87478 0.80976 0.0
H2350 H 0.29444 0.92408 0.80905 0.0
H2351 H 0.31357 0.89577 0.80291 0.0
Tb2352 Tb 0.52941 0.026 0.03584 0.0
Tb2353 Tb 0.56904 0.04081 0.06552 0.0
C2354 C 0.4966 1.00342 0.01554 0.0
C2355 C 0.47668 0.99607 0.02027 0.0
C2356 C 0.46387 0.9787 1.00569 0.0
C2357 C 0.44516 0.97049 0.01031 0.0
C2358 C 0.43899 0.97952 0.02966 0.0
C2359 C 0.45179 0.9972 0.04413 0.0
C2360 C 0.4706 1.0054 0.03948 0.0
C2361 C 0.54221 0.06848 0.04442 0.0
C2362 C 0.53028 0.03656 0.08986 0.0
C2363 C 0.60282 0.06065 0.08601 0.0
C2364 C 0.62364 0.05795 0.087 0.0
C2365 C 0.63594 0.0686 0.07374 0.0
C2366 C 0.65593 0.06702 0.07576 0.0
C2367 C 0.66406 0.05484 0.09118 0.0
C2368 C 0.65167 0.04391 0.10416 0.0
C2369 C 0.63172 0.04551 0.10216 0.0
C2370 C 0.55664 0.9981 0.05633 0.0
C2371 C 0.56749 0.03189 0.01078 0.0
O2372 O 0.5106 0.9954 0.02636 0.0
O2373 O 0.5021 0.02426 0.01505 0.0
O2374 O 0.54431 0.05504 0.05757 0.0
O2375 O 0.53076 0.05829 0.02595 0.0
O2376 O 0.51995 0.0261 0.06993 0.0
O2377 O 0.54943 0.0459 0.09103 0.0
O2378 O 0.59393 0.06602 0.06761 0.0
O2379 O 0.59111 0.04593 0.09389 0.0
O2380 O 0.55444 1.0119 0.04364 0.0
O2381 O 0.5684 1.00827 0.0745 0.0
O2382 O 0.57843 0.03994 0.0312 0.0
O2383 O 0.54794 0.0244 1.00904 0.0
H2384 H 0.46843 0.97134 0.99082 0.0
H2385 H 0.43545 0.95711 0.99867 0.0
H2386 H 0.44742 1.00437 0.0592 0.0
H2387 H 0.48043 0.01882 0.05094 0.0
H2388 H 0.63025 0.07853 0.06211 0.0
H2389 H 0.66519 0.07596 0.0658 0.0
H2390 H 0.65746 0.0343 0.11607 0.0
H2391 H 0.62271 0.03722 0.11278 0.0
Tb2392 Tb 0.27559 0.26546 0.29006 0.0
Tb2393 Tb 0.31272 0.2981 0.31286 0.0
C2394 C 0.24166 0.24261 0.28709 0.0
C2395 C 0.22222 0.24917 0.28464 0.0
C2396 C 0.21892 0.26568 0.30044 0.0
C2397 C 0.201 0.27264 0.29793 0.0
C2398 C 0.18587 0.26349 0.27945 0.0
C2399 C 0.1891 0.24697 0.26354 0.0
C2400 C 0.20718 0.23988 0.26612 0.0
C2401 C 0.29135 0.28602 0.25909 0.0
C2402 C 0.27308 0.31739 0.3033 0.0
C2403 C 0.34735 0.32058 0.32205 0.0
C2404 C 0.36497 0.31779 0.31241 0.0
C2405 C 0.36277 0.3087 0.28977 0.0
C2406 C 0.3793 0.30508 0.28067 0.0
C2407 C 0.39824 0.31011 0.29415 0.0
C2408 C 0.40045 0.31897 0.31687 0.0
C2409 C 0.38387 0.3229 0.32594 0.0
C2410 C 0.29072 0.28044 0.34043 0.0
C2411 C 0.31564 0.24664 0.29555 0.0
O2412 O 0.25362 0.25054 0.30621 0.0
O2413 O 0.25093 0.24356 0.26993 0.0
O2414 O 0.29746 0.28846 0.27994 0.0
O2415 O 0.27584 0.27025 0.25478 0.0
O2416 O 0.26376 0.29639 0.29738 0.0
O2417 O 0.29289 0.32214 0.30896 0.0
O2418 O 0.33295 0.32532 0.30834 0.0
O2419 O 0.34087 0.30548 0.33351 0.0
O2420 O 0.29436 0.27113 0.32239 0.0
O2421 O 0.30011 0.3006 0.34369 0.0
O2422 O 0.32474 0.26768 0.30266 0.0
O2423 O 0.29579 0.24161 0.29 0.0
H2424 H 0.23017 0.27335 0.31489 0.0
H2425 H 0.19889 0.28492 0.31088 0.0
H2426 H 0.1777 0.23959 0.24914 0.0
H2427 H 0.20945 0.22725 0.25364 0.0
H2428 H 0.34824 0.30412 0.27915 0.0
H2429 H 0.37723 0.29788 0.26321 0.0
H2430 H 0.41498 0.3229 0.32751 0.0
H2431 H 0.38574 0.32966 0.3435 0.0
Tb2432 Tb 0.53926 0.55897 0.05274 0.0
Tb2433 Tb 0.54682 0.51601 0.04533 0.0
C2434 C 0.54236 0.59921 0.06381 0.0
C2435 C 0.54808 0.61782 0.05256 0.0
C2436 C 0.55684 0.61527 0.03339 0.0
C2437 C 0.5611 0.63269 0.0218 0.0
C2438 C 0.55661 0.65287 0.02922 0.0
C2439 C 0.54835 0.65548 0.04883 0.0
C2440 C 0.54409 0.63802 0.06041 0.0
C2441 C 0.50744 0.52815 0.05279 0.0
C2442 C 0.53154 0.53792 1.00328 0.0
C2443 C 0.54444 0.47579 0.0351 0.0
C2444 C 0.54463 0.45768 0.04811 0.0
C2445 C 0.52731 0.44789 0.05533 0.0
C2446 C 0.52796 0.43183 0.06894 0.0
C2447 C 0.54587 0.42511 0.07543 0.0
C2448 C 0.56302 0.43438 0.06761 0.0
C2449 C 0.56238 0.45046 0.05401 0.0
C2450 C 0.5789 0.5467 0.04762 0.0
C2451 C 0.55628 0.53832 0.09484 0.0
O2452 O 0.55652 0.58886 0.06949 0.0
O2453 O 0.52564 0.58597 0.05434 0.0
O2454 O 0.52518 0.52851 0.06138 0.0
O2455 O 0.50697 0.54615 0.04502 0.0
O2456 O 0.53705 0.55676 0.0167 0.0
O2457 O 0.53233 0.51966 0.01152 0.0
O2458 O 0.52895 0.48491 0.03458 0.0
O2459 O 0.56108 0.49018 0.03799 0.0
O2460 O 0.56163 0.54658 0.03737 0.0
O2461 O 0.57862 0.52902 0.05622 0.0
O2462 O 0.5514 0.51903 0.08199 0.0
O2463 O 0.55412 0.556 0.08614 0.0
H2464 H 0.56007 0.59972 0.0272 0.0
H2465 H 0.56764 0.63031 1.00688 0.0
H2466 H 0.54449 0.67077 0.05474 0.0
H2467 H 0.53727 0.64015 0.07517 0.0
H2468 H 0.51329 0.45279 0.05074 0.0
H2469 H 0.51443 0.42464 0.07439 0.0
H2470 H 0.57705 0.42958 0.07244 0.0
H2471 H 0.5759 0.45753 0.04849 0.0
Tb2472 Tb 0.79337 0.25413 0.27206 0.0
Tb2473 Tb 0.79506 0.30271 0.28609 0.0
C2474 C 0.79756 0.21797 0.25316 0.0
C2475 C 0.81237 0.20397 0.25469 0.0
C2476 C 0.81782 0.19482 0.23499 0.0
C2477 C 0.83073 0.18024 0.23581 0.0
C2478 C 0.83833 0.17446 0.25638 0.0
C2479 C 0.83332 0.18419 0.27618 0.0
C2480 C 0.82051 0.19886 0.27536 0.0
C2481 C 0.79187 0.26629 0.31443 0.0
C2482 C 0.83525 0.28746 0.28813 0.0
C2483 C 0.79242 0.33977 0.3044 0.0
C2484 C 0.77924 0.35564 0.30508 0.0
C2485 C 0.76068 0.35114 0.31202 0.0
C2486 C 0.74972 0.36754 0.31484 0.0
C2487 C 0.7572 0.3887 0.31092 0.0
C2488 C 0.77545 0.39284 0.30329 0.0
C2489 C 0.78635 0.37654 0.30049 0.0
C2490 C 0.79681 0.29001 0.24368 0.0
C2491 C 0.75329 0.26914 0.27142 0.0
O2492 O 0.80274 0.23629 0.24569 0.0
O2493 O 0.78809 0.22025 0.27005 0.0
O2494 O 0.802 0.27665 0.3024 0.0
O2495 O 0.78321 0.24731 0.3033 0.0
O2496 O 0.82535 0.26835 0.27676 0.0
O2497 O 0.82603 0.30208 0.29695 0.0
O2498 O 0.78752 0.3219 0.31281 0.0
O2499 O 0.79983 0.33641 0.28609 0.0
O2500 O 0.78636 0.28015 0.25577 0.0
O2501 O 0.8061 0.30865 0.25507 0.0
O2502 O 0.76325 0.28835 0.28251 0.0
O2503 O 0.7623 0.25462 0.26199 0.0
H2504 H 0.81177 0.19861 0.21888 0.0
H2505 H 0.83423 0.17295 0.22026 0.0
H2506 H 0.83922 0.18035 0.29231 0.0
H2507 H 0.81675 0.2059 0.29086 0.0
H2508 H 0.75486 0.33517 0.31578 0.0
H2509 H 0.73575 0.36385 0.32083 0.0
H2510 H 0.78147 0.40883 0.29971 0.0
H2511 H 0.80064 0.38044 0.29522 0.0
Tb2512 Tb 0.02284 0.53803 0.52975 0.0
Tb2513 Tb 0.05668 0.52654 0.55721 0.0
C2514 C 0.9893 0.53665 0.50696 0.0
C2515 C 0.96945 0.53975 0.51001 0.0
C2516 C 0.96582 0.54936 0.53057 0.0
C2517 C 0.9463 0.55015 0.53341 0.0
C2518 C 0.9302 0.5412 0.51578 0.0
C2519 C 0.9342 0.53224 0.49504 0.0
C2520 C 0.95362 0.53161 0.49221 0.0
C2521 C 0.04895 0.57201 0.55281 0.0
C2522 C 0.01993 0.53284 0.58233 0.0
C2523 C 0.09025 0.52623 0.57876 0.0
C2524 C 0.10831 0.51992 0.57299 0.0
C2525 C 0.10836 0.50885 0.5516 0.0
C2526 C 0.12622 0.50513 0.54552 0.0
C2527 C 0.14423 0.51246 0.56078 0.0
C2528 C 0.14383 0.52262 0.58254 0.0
C2529 C 0.126 0.5263 0.58857 0.0
C2530 C 0.03044 0.49284 0.53336 0.0
C2531 C 0.06028 0.53266 0.50518 0.0
O2532 O 0.99473 0.51977 0.51456 0.0
O2533 O 1.0036 0.55403 0.51146 0.0
O2534 O 0.04321 0.55407 0.55907 0.0
O2535 O 0.03941 0.57136 0.5327 0.0
O2536 O 1.01026 0.53428 0.56195 0.0
O2537 O 0.03902 0.53128 0.58441 0.0
O2538 O 0.08577 0.54328 0.5706 0.0
O2539 O 0.07478 0.51033 0.57666 0.0
O2540 O 0.03648 0.51094 0.5278 0.0
O2541 O 0.0403 0.49275 0.55311 0.0
O2542 O 0.06964 0.53091 0.52554 0.0
O2543 O 0.04114 0.53419 0.50281 0.0
H2544 H 0.97797 0.55571 0.54451 0.0
H2545 H 0.94378 0.55727 0.54954 0.0
H2546 H 0.92226 0.52466 0.48124 0.0
H2547 H 0.95622 0.52401 0.47629 0.0
H2548 H 0.09471 0.50373 0.53941 0.0
H2549 H 0.12603 0.49719 0.52869 0.0
H2550 H 0.15743 0.52892 0.59457 0.0
H2551 H 0.12616 0.53492 0.60511 0.0
Tb2552 Tb 0.77414 0.78018 0.29178 0.0
Tb2553 Tb 0.81601 0.76976 0.29887 0.0
C2554 C 0.7378 0.7802 0.29296 0.0
C2555 C 0.72253 0.77747 0.30788 0.0
C2556 C 0.71167 0.75667 0.30907 0.0
C2557 C 0.69569 0.75419 0.32083 0.0
C2558 C 0.68994 0.77242 0.33175 0.0
C2559 C 0.70105 0.79323 0.33087 0.0
C2560 C 0.71704 0.79571 0.31906 0.0
C2561 C 0.80329 0.81112 0.2863 0.0
C2562 C 0.80035 0.78715 0.34158 0.0
C2563 C 0.85208 0.76788 0.29862 0.0
C2564 C 0.86822 0.76934 0.28495 0.0
C2565 C 0.87359 0.78725 0.27395 0.0
C2566 C 0.89076 0.78953 0.264 0.0
C2567 C 0.90303 0.77407 0.265 0.0
C2568 C 0.8971 0.7558 0.27526 0.0
C2569 C 0.87998 0.7535 0.28509 0.0
C2570 C 0.78644 0.73904 0.30439 0.0
C2571 C 0.79141 0.76567 0.24903 0.0
O2572 O 0.74453 0.76301 0.28595 0.0
O2573 O 0.75185 0.79785 0.29744 0.0
O2574 O 0.80397 0.79836 0.30049 0.0
O2575 O 0.78513 0.80803 0.27552 0.0
O2576 O 0.78237 0.78357 0.32885 0.0
O2577 O 0.81633 0.78467 0.3329 0.0
O2578 O 0.846 0.78572 0.30492 0.0
O2579 O 0.83745 0.75079 0.29356 0.0
O2580 O 0.78614 0.7516 0.29003 0.0
O2581 O 0.80443 0.74237 0.3156 0.0
O2582 O 0.80896 0.76895 0.26244 0.0
O2583 O 0.7748 0.76695 0.25701 0.0
H2584 H 0.71514 0.74221 0.30039 0.0
H2585 H 0.68744 0.7379 0.32071 0.0
H2586 H 0.69739 0.80769 0.33927 0.0
H2587 H 0.72484 0.81199 0.31829 0.0
H2588 H 0.86491 0.79984 0.27364 0.0
H2589 H 0.89485 0.80385 0.25633 0.0
H2590 H 0.90591 0.74335 0.27605 0.0
H2591 H 0.87629 0.73959 0.2935 0.0
Tb2592 Tb 0.80015 0.27696 0.77699 0.0
Tb2593 Tb 0.78852 0.29167 0.81792 0.0
C2594 C 0.8065 0.26912 0.73757 0.0
C2595 C 0.81432 0.28116 0.72072 0.0
C2596 C 0.81068 0.30192 0.71848 0.0
C2597 C 0.81682 0.31224 0.70108 0.0
C2598 C 0.82686 0.30206 0.68575 0.0
C2599 C 0.83132 0.28171 0.68879 0.0
C2600 C 0.82503 0.27133 0.70612 0.0
C2601 C 0.82514 0.2725 0.81273 0.0
C2602 C 0.81233 0.32873 0.79608 0.0
C2603 C 0.78235 0.29964 0.85744 0.0
C2604 C 0.77783 0.28769 0.87567 0.0
C2605 C 0.78178 0.2668 0.87618 0.0
C2606 C 0.77896 0.25644 0.89465 0.0
C2607 C 0.77213 0.26682 0.91288 0.0
C2608 C 0.76746 0.28741 0.91183 0.0
C2609 C 0.77032 0.29777 0.89334 0.0
C2610 C 0.76349 0.29606 0.78217 0.0
C2611 C 0.77638 0.24001 0.79869 0.0
O2612 O 0.78945 0.27234 0.74248 0.0
O2613 O 0.81933 0.26865 0.75533 0.0
O2614 O 0.81706 0.28865 0.8103 0.0
O2615 O 0.81916 0.25829 0.79472 0.0
O2616 O 0.80984 0.3132 0.77839 0.0
O2617 O 0.80637 0.32338 0.81466 0.0
O2618 O 0.79999 0.29997 0.85223 0.0
O2619 O 0.76842 0.29615 0.83975 0.0
O2620 O 0.77158 0.27993 0.78464 0.0
O2621 O 0.76941 0.31025 0.80022 0.0
O2622 O 0.77986 0.25532 0.81674 0.0
O2623 O 0.78138 0.24566 0.77979 0.0
H2624 H 0.80256 0.30986 0.72972 0.0
H2625 H 0.81286 0.32776 0.69908 0.0
H2626 H 0.83926 0.27359 0.67749 0.0
H2627 H 0.82813 0.25537 0.7078 0.0
H2628 H 0.78762 0.2588 0.86264 0.0
H2629 H 0.78298 0.24072 0.89508 0.0
H2630 H 0.76198 0.29569 0.9255 0.0
H2631 H 0.76711 0.31388 0.89309 0.0
Tb2632 Tb 0.77552 0.76899 0.78597 0.0
Tb2633 Tb 0.81513 0.79965 0.80551 0.0
C2634 C 0.74045 0.7477 0.78023 0.0
C2635 C 0.72105 0.7532 0.78195 0.0
C2636 C 0.70778 0.74007 0.79225 0.0
C2637 C 0.68993 0.74591 0.79575 0.0
C2638 C 0.68503 0.76499 0.78893 0.0
C2639 C 0.6982 0.77788 0.77815 0.0
C2640 C 0.7161 0.77205 0.77472 0.0
C2641 C 0.79529 0.78652 0.75636 0.0
C2642 C 0.7756 0.82104 0.80138 0.0
C2643 C 0.84919 0.82135 0.8062 0.0
C2644 C 0.86908 0.81751 0.81394 0.0
C2645 C 0.88577 0.83074 0.80887 0.0
C2646 C 0.90433 0.82499 0.8126 0.0
C2647 C 0.90644 0.80579 0.82133 0.0
C2648 C 0.88982 0.79317 0.82745 0.0
C2649 C 0.87127 0.79902 0.82382 0.0
C2650 C 0.80145 0.78057 0.83824 0.0
C2651 C 0.8137 0.74673 0.79245 0.0
O2652 O 0.75292 0.75081 0.79921 0.0
O2653 O 0.74899 0.7544 0.76393 0.0
O2654 O 0.79389 0.79543 0.77557 0.0
O2655 O 0.78467 0.76685 0.75285 0.0
O2656 O 0.76534 0.80045 0.79483 0.0
O2657 O 0.79562 0.8248 0.80572 0.0
O2658 O 0.83901 0.80728 0.78886 0.0
O2659 O 0.83854 0.82523 0.82175 0.0
O2660 O 0.79387 0.77786 0.81771 0.0
O2661 O 0.81741 0.7956 0.84103 0.0
O2662 O 0.82467 0.76713 0.79762 0.0
O2663 O 0.79389 0.74384 0.7885 0.0
H2664 H 0.71146 0.72557 0.79809 0.0
H2665 H 0.68027 0.73583 0.80445 0.0
H2666 H 0.69476 0.79255 0.77254 0.0
H2667 H 0.72619 0.78247 0.76677 0.0
H2668 H 0.88426 0.84494 0.80103 0.0
H2669 H 0.91676 0.83489 0.80738 0.0
H2670 H 0.89101 0.77839 0.83433 0.0
H2671 H 0.85848 0.78859 0.8278 0.0
Tb2672 Tb 0.52784 0.52902 0.54529 0.0
Tb2673 Tb 0.57182 0.55035 0.56586 0.0
C2674 C 0.49144 0.51304 0.53655 0.0
C2675 C 0.47531 0.52174 0.5248 0.0
C2676 C 0.47676 0.54432 0.52709 0.0
C2677 C 0.4614 0.55297 0.51691 0.0
C2678 C 0.44415 0.53927 0.50396 0.0
C2679 C 0.4431 0.5166 0.50076 0.0
C2680 C 0.45861 0.50789 0.51114 0.0
C2681 C 0.55218 0.53522 0.51644 0.0
C2682 C 0.54295 0.5797 0.54516 0.0
C2683 C 0.60877 0.56269 0.57061 0.0
C2684 C 0.62471 0.55082 0.56708 0.0
C2685 C 0.62517 0.53966 0.54585 0.0
C2686 C 0.63751 0.52473 0.54364 0.0
C2687 C 0.64985 0.52103 0.56256 0.0
C2688 C 0.65056 0.53345 0.5835 0.0
C2689 C 0.63807 0.54823 0.58573 0.0
C2690 C 0.54801 0.55293 0.59649 0.0
C2691 C 0.55687 0.4998 0.56655 0.0
O2692 O 0.5004 0.52458 0.556 0.0
O2693 O 0.504 0.50696 0.52422 0.0
O2694 O 0.55644 0.52939 0.53541 0.0
O2695 O 0.53357 0.53633 0.51275 0.0
O2696 O 0.52728 0.56367 0.54407 0.0
O2697 O 0.56146 0.57737 0.55183 0.0
O2698 O 0.59646 0.56459 0.55274 0.0
O2699 O 0.59952 0.55732 0.58692 0.0
O2700 O 0.54396 0.54503 0.57613 0.0
O2701 O 0.56686 0.56136 0.60028 0.0
O2702 O 0.57231 0.51608 0.56792 0.0
O2703 O 0.53829 0.50172 0.55937 0.0
H2704 H 0.48949 0.55541 0.53745 0.0
H2705 H 0.46269 0.57043 0.52036 0.0
H2706 H 0.43009 0.50559 0.49076 0.0
H2707 H 0.45739 0.49041 0.5089 0.0
H2708 H 0.61546 0.54179 0.5311 0.0
H2709 H 0.63707 0.51569 0.52722 0.0
H2710 H 0.66001 0.53092 0.59832 0.0
H2711 H 0.63808 0.55679 0.60226 0.0
Tb2712 Tb 0.06486 0.5337 0.03941 0.0
Tb2713 Tb 0.0225 0.53168 0.05412 0.0
C2714 C 0.10089 0.53203 0.03876 0.0
C2715 C 0.11604 0.51853 0.04402 0.0
C2716 C 0.13392 0.52779 0.05897 0.0
C2717 C 0.14973 0.51668 0.06129 0.0
C2718 C 0.14815 0.4961 0.0485 0.0
C2719 C 0.12991 0.48645 0.03431 0.0
C2720 C 0.11408 0.49747 0.03212 0.0
C2721 C 0.037 0.53983 1.00508 0.0
C2722 C 0.03528 0.48784 0.03602 0.0
C2723 C 0.98617 0.53215 0.05458 0.0
C2724 C 0.96971 0.5434 0.0479 0.0
C2725 C 0.97271 0.56294 0.03902 0.0
C2726 C 0.95693 0.57389 0.03465 0.0
C2727 C 0.9378 0.56562 0.03915 0.0
C2728 C 0.93496 0.54582 0.0477 0.0
C2729 C 0.95066 0.53491 0.05197 0.0
C2730 C 0.05045 0.52569 0.0885 0.0
C2731 C 0.05236 0.5774 0.05785 0.0
O2732 O 0.09503 0.54295 0.05537 0.0
O2733 O 0.08625 0.52385 0.02197 0.0
O2734 O 0.03533 0.53665 0.02497 0.0
O2735 O 0.05569 0.54022 1.00463 0.0
O2736 O 0.05386 0.49873 0.03781 0.0
O2737 O 0.02039 0.49761 0.03972 0.0
O2738 O 0.9924 0.52045 0.03883 0.0
O2739 O 1.00086 0.54299 0.07028 0.0
O2740 O 0.05198 0.52874 0.06855 0.0
O2741 O 0.03181 0.5255 0.08909 0.0
O2742 O 0.03362 0.56669 0.05536 0.0
O2743 O 0.06726 0.56754 0.05449 0.0
H2744 H 0.13599 0.54404 0.06822 0.0
H2745 H 0.16355 0.52468 0.0723 0.0
H2746 H 0.12799 0.47049 0.02447 0.0
H2747 H 0.10056 0.48972 0.02046 0.0
H2748 H 0.98728 0.56987 0.03577 0.0
H2749 H 0.95976 0.5889 0.02779 0.0
H2750 H 0.92073 0.53899 0.05182 0.0
H2751 H 0.94801 0.51997 0.05901 0.0
H2752 H 1.00013 0.14334 0.98471 0.0
H2753 H 0.05709 0.18173 0.01883 0.0
H2754 H 0.06474 0.1506 0.0355 0.0
H2755 H 0.05596 0.112 0.03991 0.0
H2756 H 0.99884 0.07356 1.0068 0.0
H2757 H 0.99074 0.10498 0.99048 0.0
C2758 C 0.01414 0.14505 0.99597 0.0
C2759 C 0.02806 0.16511 1.00008 0.0
C2760 C 0.01852 0.12689 1.00579 0.0
C2761 C 0.04617 0.1666 0.01474 0.0
C2762 C 0.05056 0.14873 0.02449 0.0
C2763 C 0.04163 0.11044 0.02929 0.0
C2764 C 0.02809 0.09014 0.02462 0.0
C2765 C 0.03697 0.12871 0.02001 0.0
C2766 C 1.00962 0.08876 0.01075 0.0
C2767 C 1.00494 0.1068 1.00141 0.0
H2768 H 0.18777 0.78314 0.20762 0.0
H2769 H 0.16479 0.81468 0.26198 0.0
H2770 H 0.19477 0.81397 0.28804 0.0
H2771 H 0.22743 0.80431 0.29591 0.0
H2772 H 0.25076 0.77176 0.24271 0.0
H2773 H 0.22107 0.77309 0.21582 0.0
C2774 C 0.1894 0.78998 0.22514 0.0
C2775 C 0.1738 0.79886 0.23272 0.0
C2776 C 0.20684 0.78938 0.24031 0.0
C2777 C 0.17625 0.80747 0.25559 0.0
C2778 C 0.1935 0.80715 0.27057 0.0
C2779 C 0.22609 0.79751 0.2784 0.0
C2780 C 0.24157 0.78825 0.27132 0.0
C2781 C 0.20884 0.79808 0.26319 0.0
C2782 C 0.23939 0.7794 0.24859 0.0
C2783 C 0.22228 0.78005 0.23323 0.0
H2784 H 0.55334 0.89089 0.50819 0.0
H2785 H 0.48937 0.87849 0.49006 0.0
H2786 H 0.48948 0.91641 0.50409 0.0
H2787 H 0.50778 0.9537 0.52053 0.0
H2788 H 0.57186 0.96613 0.53796 0.0
H2789 H 0.57156 0.92792 0.5255 0.0
C2790 C 0.53939 0.89639 0.50754 0.0
C2791 C 0.52138 0.88167 0.49791 0.0
C2792 C 0.53955 0.91843 0.51553 0.0
C2793 C 0.50351 0.88936 0.49705 0.0
C2794 C 0.50354 0.91111 0.50518 0.0
C2795 C 0.52168 0.94806 0.52178 0.0
C2796 C 0.5398 0.96304 0.53026 0.0
C2797 C 0.52148 0.9259 0.51428 0.0
C2798 C 0.55764 0.95521 0.53153 0.0
C2799 C 0.55751 0.93325 0.52437 0.0
H2800 H 0.46091 0.28793 0.6897 0.0
H2801 H 0.50164 0.29932 0.75275 0.0
H2802 H 0.47379 0.29724 0.77291 0.0
H2803 H 0.43782 0.29245 0.77304 0.0
H2804 H 0.39695 0.28196 0.71029 0.0
H2805 H 0.42484 0.28408 0.68989 0.0
C2806 C 0.4638 0.29021 0.70786 0.0
C2807 C 0.4836 0.29359 0.7195 0.0
C2808 C 0.4476 0.28929 0.71955 0.0
C2809 C 0.48673 0.29621 0.74311 0.0
C2810 C 0.47074 0.2952 0.75476 0.0
C2811 C 0.43494 0.29046 0.75488 0.0
C2812 C 0.41514 0.28695 0.74332 0.0
C2813 C 0.4511 0.29167 0.74319 0.0
C2814 C 0.41192 0.28487 0.71976 0.0
C2815 C 0.42791 0.28595 0.70803 0.0
H2816 H 0.03059 0.86453 0.66259 0.0
H2817 H 0.01605 0.81207 0.60655 0.0
H2818 H 0.01321 0.83809 0.58057 0.0
H2819 H 0.0174 0.87584 0.57363 0.0
H2820 H 0.03464 0.9284 0.62958 0.0
H2821 H 0.03378 0.90222 0.6557 0.0
C2822 C 0.02684 0.85878 0.64468 0.0
C2823 C 0.02368 0.83639 0.63655 0.0
C2824 C 0.02578 0.87385 0.6298 0.0
C2825 C 0.01836 0.82918 0.61332 0.0
C2826 C 0.01691 0.84407 0.59842 0.0
C2827 C 0.02103 0.88158 0.59154 0.0
C2828 C 0.02622 0.90405 0.5996 0.0
C2829 C 0.021 0.86645 0.60646 0.0
C2830 C 0.03041 0.91121 0.62288 0.0
C2831 C 0.03008 0.89625 0.63785 0.0
H2832 H 0.42628 0.82893 0.84441 0.0
H2833 H 0.42716 0.76081 0.82757 0.0
H2834 H 0.39144 0.75286 0.8132 0.0
H2835 H 0.35997 0.76517 0.80599 0.0
H2836 H 0.35905 0.83322 0.824 0.0
H2837 H 0.39477 0.84113 0.83788 0.0
C2838 C 0.41863 0.81231 0.83779 0.0
C2839 C 0.42937 0.79552 0.83705 0.0
C2840 C 0.39809 0.80779 0.82994 0.0
C2841 C 0.4193 0.77411 0.82802 0.0
C2842 C 0.39885 0.76951 0.81998 0.0
C2843 C 0.36754 0.78173 0.81302 0.0
C2844 C 0.35683 0.79856 0.81392 0.0
C2845 C 0.3881 0.78622 0.82095 0.0
C2846 C 0.36691 0.81992 0.82307 0.0
C2847 C 0.38736 0.8245 0.83099 0.0
H2848 H 0.52345 0.15318 0.09177 0.0
H2849 H 0.5801 0.15382 0.13273 0.0
H2850 H 0.58448 0.12297 0.10742 0.0
H2851 H 0.57067 0.09357 0.07606 0.0
H2852 H 0.51524 0.09368 0.03367 0.0
H2853 H 0.51241 0.12729 0.05659 0.0
C2854 C 0.53698 0.14696 0.09497 0.0
C2855 C 0.55108 0.15547 0.11464 0.0
C2856 C 0.53975 0.12953 0.07996 0.0
C2857 C 0.56852 0.14706 0.11833 0.0
C2858 C 0.57122 0.12958 0.10368 0.0
C2859 C 0.55832 0.10138 0.07145 0.0
C2860 C 0.54319 0.09131 0.05338 0.0
C2861 C 0.5567 0.12037 0.08481 0.0
C2862 C 0.52716 0.10136 0.04748 0.0
C2863 C 0.52542 0.12038 0.06074 0.0
H2864 H 0.10067 0.27289 0.29375 0.0
H2865 H 0.13293 0.33815 0.32128 0.0
H2866 H 0.16158 0.33101 0.30507 0.0
H2867 H 0.17933 0.3044 0.28932 0.0
H2868 H 0.14861 0.23762 0.26718 0.0
H2869 H 0.11745 0.24726 0.27449 0.0
C2870 C 0.11394 0.2856 0.29613 0.0
C2871 C 0.11481 0.30583 0.30922 0.0
C2872 C 0.13071 0.28103 0.28779 0.0
C2873 C 0.13182 0.3224 0.31137 0.0
C2874 C 0.1483 0.31827 0.30226 0.0
C2875 C 0.16577 0.29198 0.2859 0.0
C2876 C 0.16641 0.27022 0.27829 0.0
C2877 C 0.14821 0.29735 0.29142 0.0
C2878 C 0.14859 0.25448 0.27311 0.0
C2879 C 0.1308 0.25993 0.27755 0.0
H2880 H 0.9788 0.99463 0.14511 0.0
H2881 H 0.01376 0.05 0.19169 0.0
H2882 H 0.02992 0.06338 0.16174 0.0
H2883 H 0.03467 0.05907 0.12245 0.0
H2884 H 1.00164 1.00245 0.07628 0.0
H2885 H 0.98398 0.99002 0.10567 0.0
C2886 C 0.98992 1.00964 0.14864 0.0
C2887 C 0.99513 0.02126 0.17064 0.0
C2888 C 0.9994 0.0171 0.13134 0.0
C2889 C 1.00968 0.04061 0.17499 0.0
C2890 C 0.01884 0.04835 0.15783 0.0
C2891 C 0.02344 0.04414 0.11875 0.0
C2892 C 0.01928 0.03184 0.0971 0.0
C2893 C 0.01387 0.03672 0.13595 0.0
C2894 C 1.00495 1.01232 0.09272 0.0
C2895 C 0.99493 1.00515 0.10957 0.0
H2896 H 0.25578 0.73216 0.494 0.0
H2897 H 0.25342 0.67456 0.44676 0.0
H2898 H 0.24959 0.69511 0.4158 0.0
H2899 H 0.25422 0.73057 0.40325 0.0
H2900 H 0.25975 0.78888 0.45065 0.0
H2901 H 0.25519 0.767 0.48049 0.0
C2902 C 0.2541 0.72405 0.47688 0.0
C2903 C 0.25532 0.70199 0.47274 0.0
C2904 C 0.25287 0.7362 0.45924 0.0
C2905 C 0.25255 0.69152 0.45047 0.0
C2906 C 0.25059 0.70333 0.43274 0.0
C2907 C 0.25371 0.73846 0.41992 0.0
C2908 C 0.25756 0.76131 0.42485 0.0
C2909 C 0.25178 0.72587 0.43706 0.0
C2910 C 0.25709 0.77131 0.44658 0.0
C2911 C 0.25453 0.75882 0.46362 0.0
H2912 H 0.5789 1.00982 0.69019 0.0
H2913 H 0.63626 0.03492 0.67416 0.0
H2914 H 0.62032 0.03923 0.63699 0.0
H2915 H 0.58938 0.03625 0.60767 0.0
H2916 H 0.53247 1.0114 0.62513 0.0
H2917 H 0.54871 1.00668 0.66165 0.0
C2918 C 0.58812 0.01611 0.67868 0.0
C2919 C 0.60915 0.02207 0.68595 0.0
C2920 C 0.57871 0.0187 0.65681 0.0
C2921 C 0.6202 0.03041 0.67002 0.0
C2922 C 0.61098 0.0328 0.64833 0.0
C2923 C 0.58048 0.02973 0.61936 0.0
C2924 C 0.55929 0.02423 0.61283 0.0
C2925 C 0.59013 0.0271 0.64131 0.0
C2926 C 0.54856 0.01592 0.62895 0.0
C2927 C 0.55793 1.01315 0.65021 0.0
H2928 H 0.33008 0.3411 0.94418 0.0
H2929 H 0.26726 0.32261 0.94542 0.0
H2930 H 0.26098 0.30803 0.90553 0.0
H2931 H 0.27319 0.30041 0.86993 0.0
H2932 H 0.33619 0.31779 0.86922 0.0
H2933 H 0.3424 0.3324 0.90908 0.0
C2934 C 0.31502 0.33362 0.93591 0.0
C2935 C 0.29921 0.33316 0.94812 0.0
C2936 C 0.31147 0.32495 0.91286 0.0
C2937 C 0.27978 0.32367 0.93665 0.0
C2938 C 0.27615 0.31513 0.91374 0.0
C2939 C 0.2883 0.30736 0.87846 0.0
C2940 C 0.30416 0.30794 0.86633 0.0
C2941 C 0.29186 0.31573 0.90161 0.0
C2942 C 0.32362 0.317 0.87791 0.0
C2943 C 0.32722 0.32543 0.90081 0.0
H2944 H 1.00274 0.99066 0.39369 0.0
H2945 H 0.9974 0.05771 0.39474 0.0
H2946 H 1.01067 0.06554 0.43478 0.0
H2947 H 0.02256 0.05321 0.46999 0.0
H2948 H 0.02639 0.9858 0.46938 0.0
H2949 H 0.0147 0.97832 0.42891 0.0
C2950 C 1.00433 1.00697 0.40264 0.0
C2951 C 0.99907 0.02353 0.39095 0.0
C2952 C 1.01164 1.01134 0.4259 0.0
C2953 C 1.00162 0.04465 0.40299 0.0
C2954 C 1.00906 0.04915 0.42603 0.0
C2955 C 0.02097 0.03689 0.46102 0.0
C2956 C 0.02539 0.02012 0.47284 0.0
C2957 C 0.014 0.0326 0.4377 0.0
C2958 C 0.02309 0.99906 0.46083 0.0
C2959 C 0.01639 0.99474 0.43763 0.0
H2960 H 0.29802 0.7377 0.65386 0.0
H2961 H 0.33884 0.70671 0.69237 0.0
H2962 H 0.33858 0.73181 0.72627 0.0
H2963 H 0.3254 0.76144 0.74507 0.0
H2964 H 0.28376 0.79144 0.70647 0.0
H2965 H 0.28573 0.76786 0.67229 0.0
C2966 C 0.30683 0.73643 0.6697 0.0
C2967 C 0.31827 0.72029 0.67074 0.0
C2968 C 0.30642 0.75068 0.689 0.0
C2969 C 0.32997 0.71908 0.6912 0.0
C2970 C 0.32974 0.73333 0.71056 0.0
C2971 C 0.31674 0.76273 0.72915 0.0
C2972 C 0.30423 0.77784 0.7282 0.0
C2973 C 0.31781 0.749 0.70968 0.0
C2974 C 0.29339 0.77979 0.70752 0.0
C2975 C 0.29448 0.76631 0.68803 0.0
H2976 H 0.58846 0.01828 0.90995 0.0
H2977 H 0.64869 0.03363 0.94652 0.0
H2978 H 0.63632 0.03802 0.98178 0.0
H2979 H 0.60814 0.03767 1.00381 0.0
H2980 H 0.54802 0.0218 0.96696 0.0
H2981 H 0.56049 0.01786 0.93175 0.0
C2982 C 0.59908 0.02268 0.92549 0.0
C2983 C 0.6199 0.02529 0.92454 0.0
C2984 C 0.59173 0.02525 0.94647 0.0
C2985 C 0.63274 0.03091 0.9457 0.0
C2986 C 0.62558 0.03365 0.96631 0.0
C2987 C 0.59764 0.03343 0.98816 0.0
C2988 C 0.57676 0.0302 0.98894 0.0
C2989 C 0.60505 0.03085 0.96717 0.0
C2990 C 0.56399 0.02451 0.96779 0.0
C2991 C 0.5712 0.0222 0.94724 0.0
H2992 H 0.32724 0.35223 0.19736 0.0
H2993 H 0.28593 0.30511 0.14655 0.0
H2994 H 0.27659 0.28335 0.17487 0.0
H2995 H 0.27928 0.2776 0.21408 0.0
H2996 H 0.32 0.32405 0.26564 0.0
H2997 H 0.33038 0.34592 0.23729 0.0
C2998 C 0.31617 0.33723 0.19247 0.0
C2999 C 0.3075 0.3304 0.16953 0.0
C3000 C 0.31073 0.32454 0.20908 0.0
C3001 C 0.29323 0.31075 0.16378 0.0
C3002 C 0.28773 0.29827 0.18007 0.0
C3003 C 0.29054 0.29245 0.21918 0.0
C3004 C 0.29892 0.29903 0.24209 0.0
C3005 C 0.29633 0.30496 0.20275 0.0
C3006 C 0.31344 0.31839 0.24822 0.0
C3007 C 0.31929 0.33099 0.23194 0.0
H3008 H 0.19993 0.96586 0.08227 0.0
H3009 H 0.14502 0.92101 0.05211 0.0
H3010 H 0.12603 0.94578 0.0687 0.0
H3011 H 0.12519 0.98254 0.08576 0.0
H3012 H 0.17979 0.0284 0.11427 0.0
H3013 H 0.19896 1.00089 0.10416 0.0
C3014 C 0.1838 0.96145 0.07959 0.0
C3015 C 0.1738 0.94192 0.06565 0.0
C3016 C 0.17303 0.97601 0.08864 0.0
C3017 C 0.15299 0.93602 0.06271 0.0
C3018 C 0.14214 0.95023 0.07206 0.0
C3019 C 0.14121 0.98623 0.09067 0.0
C3020 C 0.15105 1.00739 0.10081 0.0
C3021 C 0.15201 0.97059 0.08428 0.0
C3022 C 0.17192 1.0122 0.10638 0.0
C3023 C 0.18284 0.99653 0.10053 0.0
H3024 H 0.66696 0.60004 0.0575 0.0
H3025 H 0.64798 0.60121 0.98728 0.0
H3026 H 0.61425 0.58263 0.98952 0.0
H3027 H 0.59012 0.56468 0.01139 0.0
H3028 H 0.61042 0.56129 0.0808 0.0
H3029 H 0.64326 0.58233 0.0791 0.0
C3030 C 0.65542 0.59639 0.04271 0.0
C3031 C 0.66011 0.6021 0.02225 0.0
C3032 C 0.63611 0.58534 0.04404 0.0
C3033 C 0.64493 0.59688 1.0032 0.0
C3034 C 0.62556 0.58633 1.00451 0.0
C3035 C 0.60168 0.56889 0.02617 0.0
C3036 C 0.59777 0.56165 0.04631 0.0
C3037 C 0.62094 0.58034 0.02482 0.0
C3038 C 0.61303 0.56678 0.06518 0.0
C3039 C 0.63185 0.57874 0.06419 0.0
H3040 H 0.72617 0.47534 0.33373 0.0
H3041 H 0.67005 0.43323 0.30259 0.0
H3042 H 0.68655 0.40241 0.29767 0.0
H3043 H 0.71727 0.38775 0.30067 0.0
H3044 H 0.77327 0.43023 0.33166 0.0
H3045 H 0.75653 0.46056 0.33777 0.0
C3046 C 0.71755 0.45944 0.32576 0.0
C3047 C 0.69692 0.45666 0.31847 0.0
C3048 C 0.72714 0.44185 0.32278 0.0
C3049 C 0.68593 0.43583 0.30857 0.0
C3050 C 0.69537 0.4182 0.30561 0.0
C3051 C 0.72576 0.40359 0.30896 0.0
C3052 C 0.74654 0.40673 0.31545 0.0
C3053 C 0.71601 0.42105 0.31248 0.0
C3054 C 0.75733 0.42743 0.32607 0.0
C3055 C 0.74775 0.44479 0.3297 0.0
H3056 H 0.84665 0.5033 0.53619 0.0
H3057 H 0.8295 0.51193 0.46762 0.0
H3058 H 0.8626 0.53394 0.46844 0.0
H3059 H 0.89766 0.54475 0.48642 0.0
H3060 H 0.91545 0.53134 0.55325 0.0
H3061 H 0.88078 0.51819 0.55578 0.0
C3062 C 0.84997 0.51068 0.52171 0.0
C3063 C 0.8358 0.50605 0.50186 0.0
C3064 C 0.86924 0.52231 0.52198 0.0
C3065 C 0.84029 0.51532 0.48304 0.0
C3066 C 0.8592 0.52776 0.48349 0.0
C3067 C 0.89395 0.53916 0.50164 0.0
C3068 C 0.90923 0.53858 0.51939 0.0
C3069 C 0.87406 0.53041 0.5025 0.0
C3070 C 0.90409 0.53201 0.53929 0.0
C3071 C 0.88422 0.52421 0.54067 0.0
H3072 H 0.38108 0.18338 0.29764 0.0
H3073 H 0.32754 0.13337 0.28 0.0
H3074 H 0.3075 0.16103 0.28004 0.0
H3075 H 0.30377 0.20016 0.2853 0.0
H3076 H 0.35686 0.2505 0.30358 0.0
H3077 H 0.37733 0.22279 0.30312 0.0
C3078 C 0.36504 0.17822 0.29381 0.0
C3079 C 0.35654 0.1552 0.28842 0.0
C3080 C 0.35294 0.19482 0.29399 0.0
C3081 C 0.33538 0.15016 0.28365 0.0
C3082 C 0.32355 0.16634 0.28385 0.0
C3083 C 0.31983 0.20533 0.28914 0.0
C3084 C 0.32823 0.22828 0.29443 0.0
C3085 C 0.33196 0.18884 0.28892 0.0
C3086 C 0.34934 0.23357 0.29938 0.0
C3087 C 0.36129 0.21742 0.29914 0.0
H3088 H 0.34534 0.07335 0.53335 0.0
H3089 H 0.37774 0.13946 0.53935 0.0
H3090 H 0.40919 0.12722 0.54491 0.0
H3091 H 0.42783 0.09786 0.54808 0.0
H3092 H 0.39555 0.03151 0.54097 0.0
H3093 H 0.36413 0.04383 0.53659 0.0
C3094 C 0.35927 0.08512 0.53602 0.0
C3095 C 0.35895 0.10736 0.53569 0.0
C3096 C 0.37751 0.07795 0.53923 0.0
C3097 C 0.37731 0.12223 0.53904 0.0
C3098 C 0.39541 0.11525 0.5424 0.0
C3099 C 0.41397 0.08598 0.5454 0.0
C3100 C 0.4144 0.06367 0.54501 0.0
C3101 C 0.39574 0.09314 0.54242 0.0
C3102 C 0.39603 0.0488 0.54186 0.0
C3103 C 0.3779 0.05582 0.53911 0.0
H3104 H 0.70929 0.6653 0.29428 0.0
H3105 H 0.74153 0.65242 0.3556 0.0
H3106 H 0.7685 0.68304 0.35517 0.0
H3107 H 0.78364 0.71298 0.33669 0.0
H3108 H 0.75192 0.72446 0.27449 0.0
H3109 H 0.72426 0.69498 0.27592 0.0
C3110 C 0.72226 0.66904 0.30749 0.0
C3111 C 0.72325 0.65639 0.32492 0.0
C3112 C 0.73791 0.68653 0.307 0.0
C3113 C 0.74011 0.66192 0.3421 0.0
C3114 C 0.75567 0.67938 0.34179 0.0
C3115 C 0.77064 0.70902 0.3235 0.0
C3116 C 0.76974 0.72113 0.30568 0.0
C3117 C 0.75482 0.69172 0.32424 0.0
C3118 C 0.75283 0.71574 0.28865 0.0
C3119 C 0.73705 0.69874 0.28936 0.0
H3120 H 0.85178 0.43151 0.81423 0.0
H3121 H 0.85573 0.41885 0.74411 0.0
H3122 H 0.84073 0.38066 0.74265 0.0
H3123 H 0.82582 0.3496 0.76096 0.0
H3124 H 0.82122 0.36291 0.83081 0.0
H3125 H 0.8365 0.401 0.83222 0.0
C3126 C 0.84931 0.42064 0.79846 0.0
C3127 C 0.85547 0.42898 0.77938 0.0
C3128 C 0.84026 0.39813 0.79753 0.0
C3129 C 0.85191 0.41369 0.75942 0.0
C3130 C 0.84303 0.39149 0.75845 0.0
C3131 C 0.82813 0.36075 0.77655 0.0
C3132 C 0.82208 0.35263 0.79578 0.0
C3133 C 0.83711 0.38332 0.77738 0.0
C3134 C 0.82544 0.36798 0.81561 0.0
C3135 C 0.83431 0.3901 0.81649 0.0
H3136 H 0.0891 0.91919 0.10313 0.0
H3137 H 0.02739 0.88648 0.08548 0.0
H3138 H 0.01928 0.91707 0.06797 0.0
H3139 H 0.02925 0.95368 0.05827 0.0
H3140 H 0.09067 0.98703 0.07617 0.0
H3141 H 0.09914 0.95586 0.09289 0.0
C3142 C 0.0739 0.91865 0.0953 0.0
C3143 C 0.0589 0.90037 0.09591 0.0
C3144 C 0.06919 0.93658 0.08525 0.0
C3145 C 0.03927 0.90029 0.08572 0.0
C3146 C 0.03459 0.91782 0.07554 0.0
C3147 C 0.04457 0.95415 0.06561 0.0
C3148 C 0.05929 0.97292 0.06585 0.0
C3149 C 0.04937 0.93615 0.07531 0.0
C3150 C 0.07899 0.973 0.0757 0.0
C3151 C 0.08387 0.95511 0.08524 0.0
H3152 H 0.90644 0.29013 0.88242 0.0
H3153 H 0.90817 0.22652 0.84856 0.0
H3154 H 0.87578 0.22458 0.82578 0.0
H3155 H 0.84726 0.24119 0.81423 0.0
H3156 H 0.84535 0.30501 0.84699 0.0
H3157 H 0.87732 0.30659 0.87122 0.0
C3158 C 0.89983 0.27586 0.87 0.0
C3159 C 0.91 0.25846 0.86745 0.0
C3160 C 0.88104 0.27487 0.85664 0.0
C3161 C 0.9008 0.24005 0.85135 0.0
C3162 C 0.88223 0.23896 0.83811 0.0
C3163 C 0.85375 0.25542 0.82676 0.0
C3164 C 0.84385 0.27299 0.82869 0.0
C3165 C 0.87224 0.25628 0.8405 0.0
C3166 C 0.85257 0.29126 0.84509 0.0
C3167 C 0.87092 0.29218 0.85892 0.0
H3168 H 0.53592 0.17192 0.59259 0.0
H3169 H 0.59983 0.18671 0.59854 0.0
H3170 H 0.59961 0.14841 0.58603 0.0
H3171 H 0.58125 0.11021 0.57355 0.0
H3172 H 0.51726 0.09599 0.56782 0.0
H3173 H 0.51767 0.13418 0.5798 0.0
C3174 C 0.54981 0.16687 0.59092 0.0
C3175 C 0.56786 0.18242 0.5966 0.0
C3176 C 0.54962 0.14468 0.58375 0.0
C3177 C 0.58569 0.17525 0.5946 0.0
C3178 C 0.58559 0.15326 0.58733 0.0
C3179 C 0.56739 0.11543 0.5749 0.0
C3180 C 0.54927 0.0999 0.56973 0.0
C3181 C 0.56764 0.13774 0.58194 0.0
C3182 C 0.53151 0.10726 0.57167 0.0
C3183 C 0.53167 0.12926 0.57853 0.0
H3184 H 0.6185 0.7466 0.38443 0.0
H3185 H 0.60338 0.80493 0.3632 0.0
H3186 H 0.63245 0.81023 0.34485 0.0
H3187 H 0.66204 0.79816 0.3342 0.0
H3188 H 0.67775 0.74034 0.35623 0.0
H3189 H 0.64859 0.7349 0.37435 0.0
C3190 C 0.62147 0.7604 0.37566 0.0
C3191 C 0.60864 0.77535 0.37534 0.0
C3192 C 0.63839 0.76345 0.36513 0.0
C3193 C 0.61301 0.79327 0.36406 0.0
C3194 C 0.62965 0.79628 0.35343 0.0
C3195 C 0.65931 0.78449 0.34318 0.0
C3196 C 0.67228 0.76966 0.3436 0.0
C3197 C 0.64249 0.78152 0.35387 0.0
C3198 C 0.66803 0.75188 0.35514 0.0
C3199 C 0.65134 0.7488 0.36569 0.0
H3200 H 0.04094 0.19666 0.42643 0.0
H3201 H 0.03152 0.24293 0.47998 0.0
H3202 H 0.03274 0.21626 0.50546 0.0
H3203 H 0.03611 0.17982 0.51243 0.0
H3204 H 0.04648 0.13365 0.45943 0.0
H3205 H 0.04516 0.16026 0.43375 0.0
C3206 C 0.03935 0.20094 0.44373 0.0
C3207 C 0.03605 0.22168 0.45128 0.0
C3208 C 0.04014 0.18555 0.45833 0.0
C3209 C 0.03377 0.22695 0.47368 0.0
C3210 C 0.03457 0.21176 0.48829 0.0
C3211 C 0.03832 0.17565 0.49534 0.0
C3212 C 0.04143 0.15483 0.48787 0.0
C3213 C 0.03769 0.19102 0.48077 0.0
C3214 C 0.04385 0.14952 0.46553 0.0
C3215 C 0.04322 0.16475 0.45088 0.0
H3216 H 0.66126 0.23138 0.25407 0.0
H3217 H 0.66043 0.29932 0.27257 0.0
H3218 H 0.69671 0.30796 0.28143 0.0
H3219 H 0.72864 0.29678 0.28009 0.0
H3220 H 0.72906 0.22926 0.2581 0.0
H3221 H 0.69293 0.22007 0.25373 0.0
C3222 C 0.66899 0.2481 0.26001 0.0
C3223 C 0.65813 0.26467 0.2624 0.0
C3224 C 0.6898 0.25312 0.26399 0.0
C3225 C 0.66838 0.28616 0.27077 0.0
C3226 C 0.68915 0.29119 0.27555 0.0
C3227 C 0.72083 0.28005 0.27441 0.0
C3228 C 0.73148 0.26379 0.26914 0.0
C3229 C 0.7 0.27488 0.2716 0.0
C3230 C 0.72117 0.24216 0.26192 0.0
C3231 C 0.70052 0.23684 0.25954 0.0
H3232 H 0.57387 0.91936 0.99684 0.0
H3233 H 0.50986 0.89956 0.98789 0.0
H3234 H 0.50881 0.93012 0.01593 0.0
H3235 H 0.52587 0.96434 0.04048 0.0
H3236 H 0.58973 0.98342 0.0499 0.0
H3237 H 0.59118 0.95045 0.0251 0.0
C3238 C 0.5597 0.92129 1.00135 0.0
C3239 C 0.54195 0.90737 0.98983 0.0
C3240 C 0.55921 0.93864 0.01779 0.0
C3241 C 0.52374 0.91042 0.9959 0.0
C3242 C 0.52311 0.92776 0.01213 0.0
C3243 C 0.54006 0.96098 0.03735 0.0
C3244 C 0.55763 0.97608 0.04674 0.0
C3245 C 0.5407 0.94227 0.02276 0.0
C3246 C 0.57605 0.9717 0.04293 0.0
C3247 C 0.57685 0.95305 0.02857 0.0
H3248 H 0.99082 0.79192 0.80701 0.0
H3249 H 0.95692 0.72773 0.77856 0.0
H3250 H 0.92781 0.73647 0.79313 0.0
H3251 H 0.9107 0.76459 0.80765 0.0
H3252 H 0.94449 0.82931 0.83468 0.0
H3253 H 0.975 0.81819 0.82695 0.0
C3254 C 0.97716 0.77971 0.8045 0.0
C3255 C 0.97583 0.75936 0.79151 0.0
C3256 C 0.96042 0.78511 0.81227 0.0
C3257 C 0.95824 0.7435 0.78854 0.0
C3258 C 0.94156 0.74859 0.79666 0.0
C3259 C 0.92483 0.77608 0.81251 0.0
C3260 C 0.92529 0.79786 0.82138 0.0
C3261 C 0.94225 0.76967 0.80764 0.0
C3262 C 0.9437 0.81258 0.82742 0.0
C3263 C 0.96115 0.80623 0.82303 0.0
H3264 H 0.1063 0.06631 0.94085 0.0
H3265 H 0.0789 1.00398 0.90057 0.0
H3266 H 0.06332 0.99258 0.93145 0.0
H3267 H 0.05674 1.00021 0.96965 0.0
H3268 H 0.08221 0.06294 1.00971 0.0
H3269 H 0.09921 0.07419 0.97934 0.0
C3270 C 0.0968 0.0503 0.93875 0.0
C3271 C 0.09406 0.036 0.91831 0.0
C3272 C 0.08756 0.04382 0.95665 0.0
C3273 C 0.08174 0.01524 0.91613 0.0
C3274 C 0.07268 1.00869 0.9338 0.0
C3275 C 0.06615 0.01628 0.97184 0.0
C3276 C 0.06829 0.03066 0.992 0.0
C3277 C 0.0755 0.02279 0.95414 0.0
C3278 C 0.0804 0.05151 0.99442 0.0
C3279 C 0.09004 0.05798 0.977 0.0
H3280 H 0.82206 0.32896 0.59021 0.0
H3281 H 0.8355 0.39282 0.62993 0.0
H3282 H 0.84231 0.37705 0.66416 0.0
H3283 H 0.83948 0.34482 0.68284 0.0
H3284 H 0.82255 0.28082 0.64295 0.0
H3285 H 0.82279 0.29686 0.60878 0.0
C3286 C 0.82709 0.33941 0.60633 0.0
C3287 C 0.82826 0.36192 0.60773 0.0
C3288 C 0.83018 0.33017 0.62591 0.0
C3289 C 0.83447 0.3754 0.62863 0.0
C3290 C 0.83826 0.36639 0.64814 0.0
C3291 C 0.836 0.33439 0.66668 0.0
C3292 C 0.83072 0.31168 0.6655 0.0
C3293 C 0.83533 0.34373 0.64703 0.0
C3294 C 0.82678 0.29835 0.64443 0.0
C3295 C 0.82671 0.30751 0.62482 0.0
H3296 H 0.47122 0.02587 0.41821 0.0
H3297 H 0.51246 0.08057 0.40464 0.0
H3298 H 0.53369 0.08186 0.44039 0.0
H3299 H 0.54171 0.06764 0.47621 0.0
H3300 H 0.50153 1.01248 0.48998 0.0
H3301 H 0.47949 1.01132 0.45424 0.0
C3302 C 0.48487 0.0381 0.42282 0.0
C3303 C 0.48956 0.05332 0.40791 0.0
C3304 C 0.49758 0.03874 0.44395 0.0
C3305 C 0.50759 0.06887 0.41518 0.0
C3306 C 0.52009 0.06955 0.43589 0.0
C3307 C 0.52811 0.05533 0.47154 0.0
C3308 C 0.52355 0.04021 0.48642 0.0
C3309 C 0.51535 0.05464 0.45055 0.0
C3310 C 0.5057 0.02448 0.47943 0.0
C3311 C 0.49298 0.02378 0.45873 0.0
H3312 H 0.80578 0.74359 0.14931 0.0
H3313 H 0.7431 0.71478 0.13881 0.0
H3314 H 0.74213 0.72767 0.17788 0.0
H3315 H 0.7594 0.74574 0.21595 0.0
H3316 H 0.82243 0.77273 0.22648 0.0
H3317 H 0.82287 0.76176 0.18691 0.0
C3318 C 0.79189 0.73995 0.1555 0.0
C3319 C 0.77455 0.72816 0.14077 0.0
C3320 C 0.79147 0.74706 0.17826 0.0
C3321 C 0.75668 0.72409 0.14936 0.0
C3322 C 0.75612 0.73132 0.17189 0.0
C3323 C 0.77318 0.7494 0.20955 0.0
C3324 C 0.79085 0.76006 0.22437 0.0
C3325 C 0.77345 0.7427 0.1866 0.0
C3326 C 0.80859 0.76447 0.21565 0.0
C3327 C 0.80888 0.75819 0.19293 0.0
H3328 H 0.09174 0.07207 0.69198 0.0
H3329 H 0.07281 1.00479 0.69878 0.0
H3330 H 0.05758 0.99621 0.65905 0.0
H3331 H 0.05082 1.00765 0.62178 0.0
H3332 H 0.06976 0.0753 0.61578 0.0
H3333 H 0.08378 0.08375 0.65553 0.0
C3334 C 0.0843 0.05552 0.68477 0.0
C3335 C 0.08354 0.0391 0.69836 0.0
C3336 C 0.07559 0.0507 0.66193 0.0
C3337 C 0.07352 0.0178 0.68878 0.0
C3338 C 0.0649 1.01285 0.666 0.0
C3339 C 0.05792 0.02425 0.6292 0.0
C3340 C 0.05923 0.04075 0.61563 0.0
C3341 C 0.066 0.02914 0.65232 0.0
C3342 C 0.06846 0.06219 0.62565 0.0
C3343 C 0.07656 0.0671 0.64847 0.0
H3344 H 0.75635 0.30368 0.39627 0.0
H3345 H 0.81025 0.35257 0.40412 0.0
H3346 H 0.82017 0.33264 0.37238 0.0
H3347 H 0.81331 0.30188 0.34192 0.0
H3348 H 0.75975 0.25272 0.33372 0.0
H3349 H 0.75023 0.27178 0.36663 0.0
C3350 C 0.77035 0.30984 0.39118 0.0
C3351 C 0.78239 0.32973 0.40238 0.0
C3352 C 0.77613 0.29816 0.37304 0.0
C3353 C 0.80045 0.33758 0.39546 0.0
C3354 C 0.80626 0.3261 0.37745 0.0
C3355 C 0.79963 0.2953 0.34749 0.0
C3356 C 0.78715 0.27613 0.3355 0.0
C3357 C 0.79417 0.30648 0.36606 0.0
C3358 C 0.76957 0.26752 0.34284 0.0
C3359 C 0.76407 0.27847 0.36151 0.0
H3360 H 0.50472 0.06092 0.18717 0.0
H3361 H 0.44976 0.01753 0.15453 0.0
H3362 H 0.46351 1.01175 0.12033 0.0
H3363 H 0.49142 0.01861 0.09815 0.0
H3364 H 0.54646 0.06165 0.13105 0.0
H3365 H 0.53257 0.06765 0.16518 0.0
C3366 C 0.49554 0.05021 0.17268 0.0
C3367 C 0.47583 0.03963 0.17452 0.0
C3368 C 0.50375 0.04672 0.15233 0.0
C3369 C 0.4649 0.0258 0.15477 0.0
C3370 C 0.47282 0.02251 0.13472 0.0
C3371 C 0.50052 0.02932 0.11271 0.0
C3372 C 0.52041 0.03954 0.11117 0.0
C3373 C 0.49231 0.03276 0.13308 0.0
C3374 C 0.53135 0.0533 0.1309 0.0
C3375 C 0.52329 0.05684 0.1508 0.0
H3376 H 0.78672 0.75556 0.93216 0.0
H3377 H 0.76344 0.69214 0.89252 0.0
H3378 H 0.76794 0.70738 0.85832 0.0
H3379 H 0.78081 0.7387 0.83944 0.0
H3380 H 0.80554 0.80125 0.88023 0.0
H3381 H 0.79821 0.78648 0.9137 0.0
C3382 C 0.78269 0.74494 0.91611 0.0
C3383 C 0.7748 0.72259 0.91527 0.0
C3384 C 0.78558 0.75377 0.89641 0.0
C3385 C 0.76934 0.70942 0.89399 0.0
C3386 C 0.77204 0.71813 0.87428 0.0
C3387 C 0.78417 0.74913 0.8556 0.0
C3388 C 0.7936 0.77117 0.85721 0.0
C3389 C 0.78036 0.74029 0.87522 0.0
C3390 C 0.79824 0.7843 0.87841 0.0
C3391 C 0.79413 0.77583 0.89767 0.0
H3392 H 0.88715 0.09367 0.99482 0.0
H3393 H 0.94084 0.13994 0.02634 0.0
H3394 H 0.96096 0.11534 0.01183 0.0
H3395 H 0.9629 0.07851 0.99618 0.0
H3396 H 0.90937 0.03149 0.96622 0.0
H3397 H 0.88937 0.05882 0.97381 0.0
C3398 C 0.90324 0.09869 0.9979 0.0
C3399 C 0.91254 0.11847 0.01184 0.0
C3400 C 0.91466 0.08426 0.98999 0.0
C3401 C 0.9334 0.12463 0.01594 0.0
C3402 C 0.94488 0.11059 1.00765 0.0
C3403 C 0.94695 0.0745 0.99041 0.0
C3404 C 0.93761 0.05307 0.98065 0.0
C3405 C 0.93564 0.09003 0.99548 0.0
C3406 C 0.91684 0.0479 0.97386 0.0
C3407 C 0.90544 0.06347 0.97829 0.0
H3408 H 0.43944 0.45446 0.07256 0.0
H3409 H 0.40421 0.50195 0.05642 0.0
H3410 H 0.43347 0.52593 0.0496 0.0
H3411 H 0.46917 0.5339 0.04784 0.0
H3412 H 0.50547 0.48868 0.06741 0.0
H3413 H 0.47594 0.46369 0.07342 0.0
C3414 C 0.4381 0.47014 0.06784 0.0
C3415 C 0.41917 0.47587 0.0646 0.0
C3416 C 0.45532 0.4844 0.06445 0.0
C3417 C 0.41814 0.49643 0.05837 0.0
C3418 C 0.43502 0.51041 0.05463 0.0
C3419 C 0.47064 0.51856 0.05341 0.0
C3420 C 0.48953 0.51307 0.05684 0.0
C3421 C 0.45366 0.50454 0.05743 0.0
C3422 C 0.49112 0.49324 0.06436 0.0
C3423 C 0.4742 0.47896 0.06789 0.0
H3424 H 0.36885 0.59656 0.79832 0.0
H3425 H 0.39478 0.61283 0.74107 0.0
H3426 H 0.37678 0.64244 0.73859 0.0
H3427 H 0.35292 0.66324 0.75207 0.0
H3428 H 0.32679 0.64656 0.80905 0.0
H3429 H 0.34532 0.61746 0.81196 0.0
C3430 C 0.37045 0.60646 0.78517 0.0
C3431 C 0.3832 0.6024 0.76992 0.0
C3432 C 0.35993 0.62339 0.78372 0.0
C3433 C 0.3853 0.6157 0.75323 0.0
C3434 C 0.37491 0.63259 0.75171 0.0
C3435 C 0.35144 0.65337 0.76525 0.0
C3436 C 0.33838 0.65705 0.78024 0.0
C3437 C 0.36215 0.63658 0.76683 0.0
C3438 C 0.33649 0.64392 0.79708 0.0
C3439 C 0.34716 0.62731 0.79882 0.0
H3440 H 0.22315 0.54501 0.5287 0.0
H3441 H 0.24696 0.531 0.59342 0.0
H3442 H 0.21412 0.51075 0.59636 0.0
H3443 H 0.17793 0.50407 0.58403 0.0
H3444 H 0.15427 0.52176 0.52099 0.0
H3445 H 0.18778 0.53249 0.51337 0.0
C3446 C 0.22136 0.5368 0.54305 0.0
C3447 C 0.23733 0.53976 0.56099 0.0
C3448 C 0.20235 0.52599 0.545 0.0
C3449 C 0.23474 0.52919 0.57957 0.0
C3450 C 0.21598 0.5177 0.58128 0.0
C3451 C 0.18013 0.50989 0.56844 0.0
C3452 C 0.16366 0.51262 0.5534 0.0
C3453 C 0.1995 0.51712 0.56468 0.0
C3454 C 0.16664 0.51953 0.53293 0.0
C3455 C 0.18586 0.52593 0.52866 0.0
H3456 H 0.71141 0.88527 0.80039 0.0
H3457 H 0.76516 0.93506 0.81576 0.0
H3458 H 0.78504 0.90724 0.81499 0.0
H3459 H 0.78849 0.86784 0.81006 0.0
H3460 H 0.73484 0.81815 0.79569 0.0
H3461 H 0.71479 0.84603 0.79627 0.0
C3462 C 0.72746 0.89039 0.80371 0.0
C3463 C 0.73605 0.91336 0.8078 0.0
C3464 C 0.73943 0.87374 0.8035 0.0
C3465 C 0.75723 0.9183 0.81192 0.0
C3466 C 0.76898 0.90203 0.8117 0.0
C3467 C 0.77242 0.86289 0.80709 0.0
C3468 C 0.76372 0.84 0.80274 0.0
C3469 C 0.76044 0.87954 0.80745 0.0
C3470 C 0.74259 0.83499 0.79899 0.0
C3471 C 0.73085 0.85125 0.79935 0.0
H3472 H 0.72394 0.95828 0.53019 0.0
H3473 H 0.7291 0.95736 0.60129 0.0
H3474 H 0.69987 0.97371 0.60202 0.0
H3475 H 0.67245 0.98818 0.58247 0.0
H3476 H 0.66726 0.98889 0.51129 0.0
H3477 H 0.69657 0.97277 0.51066 0.0
C3478 C 0.71878 0.96182 0.54589 0.0
C3479 C 0.72885 0.9565 0.56566 0.0
C3480 C 0.70176 0.97113 0.54619 0.0
C3481 C 0.72164 0.96099 0.58575 0.0
C3482 C 0.70491 0.97045 0.58621 0.0
C3483 C 0.67776 0.98492 0.56682 0.0
C3484 C 0.6674 0.98974 0.54693 0.0
C3485 C 0.69477 0.97556 0.56653 0.0
C3486 C 0.67457 0.9851 0.52683 0.0
C3487 C 0.6915 0.97599 0.52646 0.0
H3488 H 0.34664 0.40106 0.75121 0.0
H3489 H 0.38895 0.39589 0.80874 0.0
H3490 H 0.36652 0.36395 0.8155 0.0
H3491 H 0.33425 0.3382 0.80618 0.0
H3492 H 0.29239 0.34206 0.74788 0.0
H3493 H 0.31517 0.37365 0.74039 0.0
C3494 C 0.3511 0.3928 0.76504 0.0
C3495 C 0.36946 0.40123 0.77959 0.0
C3496 C 0.33812 0.37418 0.76881 0.0
C3497 C 0.37479 0.39023 0.79753 0.0
C3498 C 0.36199 0.37181 0.80137 0.0
C3499 C 0.33027 0.34569 0.7916 0.0
C3500 C 0.3117 0.33765 0.77752 0.0
C3501 C 0.34352 0.36378 0.7873 0.0
C3502 C 0.3066 0.34791 0.75899 0.0
C3503 C 0.31964 0.36599 0.75468 0.0
H3504 H 0.2272 0.63848 0.27851 0.0
H3505 H 0.24372 0.64454 0.35039 0.0
H3506 H 0.25974 0.68236 0.35218 0.0
H3507 H 0.27027 0.71497 0.33359 0.0
H3508 H 0.2551 0.7078 0.26156 0.0
H3509 H 0.2382 0.67027 0.26003 0.0
C3510 C 0.23438 0.64774 0.2947 0.0
C3511 C 0.23355 0.63759 0.31429 0.0
C3512 C 0.24422 0.67003 0.29575 0.0
C3513 C 0.24317 0.65102 0.33482 0.0
C3514 C 0.25271 0.67306 0.33593 0.0
C3515 C 0.26324 0.70532 0.3175 0.0
C3516 C 0.2643 0.71502 0.29769 0.0
C3517 C 0.25342 0.68295 0.31654 0.0
C3518 C 0.25494 0.70149 0.27723 0.0
C3519 C 0.24509 0.67968 0.27627 0.0
H3520 H 0.54917 0.67392 0.51693 0.0
H3521 H 0.48985 0.64514 0.48111 0.0
H3522 H 0.49138 0.61165 0.49663 0.0
H3523 H 0.51016 0.5894 0.51928 0.0
H3524 H 0.56992 0.61825 0.55373 0.0
H3525 H 0.56757 0.6522 0.53972 0.0
C3526 C 0.53657 0.66034 0.51227 0.0
C3527 C 0.51941 0.66248 0.49766 0.0
C3528 C 0.53761 0.64079 0.52106 0.0
C3529 C 0.50321 0.6445 0.49246 0.0
C3530 C 0.50411 0.62509 0.50125 0.0
C3531 C 0.5226 0.60317 0.52394 0.0
C3532 C 0.54023 0.60096 0.53769 0.0
C3533 C 0.52129 0.62293 0.51549 0.0
C3534 C 0.55617 0.61915 0.54322 0.0
C3535 C 0.55486 0.63873 0.53515 0.0
H3536 H 0.68325 0.27879 0.7108 0.0
H3537 H 0.67775 0.33875 0.74948 0.0
H3538 H 0.71003 0.341 0.77252 0.0
H3539 H 0.73958 0.32568 0.78284 0.0
H3540 H 0.74492 0.26498 0.74587 0.0
H3541 H 0.71309 0.26328 0.7213 0.0
C3542 C 0.68897 0.2923 0.72436 0.0
C3543 C 0.67779 0.30865 0.72807 0.0
C3544 C 0.70765 0.29339 0.73799 0.0
C3545 C 0.6859 0.32611 0.74568 0.0
C3546 C 0.70441 0.32735 0.75909 0.0
C3547 C 0.73386 0.3121 0.76934 0.0
C3548 C 0.74472 0.29547 0.76626 0.0
C3549 C 0.7154 0.31109 0.75549 0.0
C3550 C 0.73696 0.27802 0.74866 0.0
C3551 C 0.71869 0.27703 0.73463 0.0
H3552 H 1.00417 0.38656 1.00038 0.0
H3553 H 0.06744 0.38855 0.01043 0.0
H3554 H 0.07403 0.42745 0.02416 0.0
H3555 H 0.06215 0.46132 0.03259 0.0
H3556 H 0.99897 0.45955 0.02386 0.0
H3557 H 0.99219 0.42033 0.01084 0.0
C3558 C 0.01942 0.39537 1.00585 0.0
C3559 C 0.03524 0.38436 1.00398 0.0
C3560 C 0.0232 0.41795 0.01404 0.0
C3561 C 0.05488 0.3964 0.01106 0.0
C3562 C 0.05871 0.41875 0.01911 0.0
C3563 C 0.04685 0.45242 0.02793 0.0
C3564 C 0.03112 0.46363 0.02919 0.0
C3565 C 0.04302 0.42976 0.02047 0.0
C3566 C 1.01144 0.45155 0.02315 0.0
C3567 C 1.00753 0.42903 0.01562 0.0
H3568 H 0.99073 0.78182 0.24367 0.0
H3569 H 0.96337 0.80239 0.18394 0.0
H3570 H 0.93183 0.79864 0.19755 0.0
H3571 H 0.91142 0.78864 0.22608 0.0
H3572 H 0.93871 0.76712 0.28519 0.0
H3573 H 0.97042 0.77166 0.27193 0.0
C3574 C 0.97788 0.78533 0.23347 0.0
C3575 C 0.97973 0.79254 0.21277 0.0
C3576 C 0.95953 0.78281 0.24124 0.0
C3577 C 0.96275 0.79725 0.20011 0.0
C3578 C 0.94454 0.79493 0.20781 0.0
C3579 C 0.92432 0.78507 0.23613 0.0
C3580 C 0.92246 0.77735 0.25658 0.0
C3581 C 0.9427 0.78768 0.22835 0.0
C3582 C 0.93945 0.77269 0.26922 0.0
C3583 C 0.95771 0.77541 0.2617 0.0
H3584 H 0.54248 0.36349 0.14873 0.0
H3585 H 0.5768 0.33119 0.107 0.0
H3586 H 0.57573 0.35846 0.08211 0.0
H3587 H 0.56418 0.39079 0.07166 0.0
H3588 H 0.52958 0.42285 0.11322 0.0
H3589 H 0.53112 0.39591 0.13843 0.0
C3590 C 0.5496 0.36234 0.1341 0.0
C3591 C 0.55968 0.34537 0.12969 0.0
C3592 C 0.54871 0.37786 0.11975 0.0
C3593 C 0.56916 0.34428 0.1109 0.0
C3594 C 0.56842 0.35975 0.09658 0.0
C3595 C 0.55712 0.39197 0.08634 0.0
C3596 C 0.54675 0.40871 0.09057 0.0
C3597 C 0.55817 0.37654 0.1008 0.0
C3598 C 0.53743 0.4099 0.10947 0.0
C3599 C 0.53841 0.39461 0.12395 0.0
H3600 H 0.92726 0.31932 0.32073 0.0
H3601 H 0.92743 0.25474 0.28832 0.0
H3602 H 0.89133 0.2483 0.27582 0.0
H3603 H 0.85964 0.26041 0.27637 0.0
H3604 H 0.86012 0.32494 0.30988 0.0
H3605 H 0.89622 0.33211 0.31938 0.0
C3606 C 0.91949 0.30402 0.31046 0.0
C3607 C 0.92994 0.28757 0.30533 0.0
C3608 C 0.89888 0.30036 0.30372 0.0
C3609 C 0.91962 0.26761 0.29251 0.0
C3610 C 0.89903 0.26394 0.2854 0.0
C3611 C 0.86765 0.27608 0.28566 0.0
C3612 C 0.85718 0.292 0.29265 0.0
C3613 C 0.88847 0.28007 0.2913 0.0
C3614 C 0.86778 0.31228 0.30449 0.0
C3615 C 0.88844 0.31645 0.30992 0.0
H3616 H 0.05477 0.66483 0.60616 0.0
H3617 H 0.04699 0.62699 0.65947 0.0
H3618 H 0.04914 0.59424 0.63487 0.0
H3619 H 0.05135 0.5762 0.59781 0.0
H3620 H 0.05734 0.61352 0.54384 0.0
H3621 H 0.05882 0.647 0.56952 0.0
C3622 C 0.05384 0.64948 0.6125 0.0
C3623 C 0.05063 0.64832 0.63458 0.0
C3624 C 0.05506 0.63076 0.59827 0.0
C3625 C 0.04914 0.62824 0.64244 0.0
C3626 C 0.05055 0.60957 0.62846 0.0
C3627 C 0.05332 0.59169 0.59172 0.0
C3628 C 0.05412 0.59242 0.56894 0.0
C3629 C 0.05329 0.61062 0.60629 0.0
C3630 C 0.05668 0.61261 0.56132 0.0
C3631 C 0.05735 0.63168 0.57593 0.0
H3632 H 0.60364 0.77708 0.81638 0.0
H3633 H 0.6355 0.84386 0.83432 0.0
H3634 H 0.66411 0.83401 0.81958 0.0
H3635 H 0.68075 0.80587 0.80419 0.0
H3636 H 0.64818 0.7394 0.78547 0.0
H3637 H 0.61894 0.74985 0.79779 0.0
C3638 C 0.6166 0.78967 0.81655 0.0
C3639 C 0.6174 0.81119 0.82644 0.0
C3640 C 0.6329 0.78391 0.80811 0.0
C3641 C 0.63457 0.82712 0.82701 0.0
C3642 C 0.6509 0.82151 0.81855 0.0
C3643 C 0.66713 0.79375 0.80236 0.0
C3644 C 0.6667 0.77184 0.79412 0.0
C3645 C 0.65035 0.79987 0.80944 0.0
C3646 C 0.64901 0.75629 0.79214 0.0
C3647 C 0.63226 0.76227 0.79908 0.0
H3648 H 0.51193 0.55506 0.68545 0.0
H3649 H 0.47792 0.49256 0.65132 0.0
H3650 H 0.49307 0.4977 0.61817 0.0
H3651 H 0.51716 0.51958 0.59908 0.0
H3652 H 0.55164 0.58138 0.63421 0.0
H3653 H 0.53487 0.57715 0.66628 0.0
C3654 C 0.50759 0.54263 0.67069 0.0
C3655 C 0.49374 0.52341 0.6711 0.0
C3656 C 0.5164 0.54567 0.65163 0.0
C3657 C 0.4887 0.5074 0.65179 0.0
C3658 C 0.49728 0.5104 0.63268 0.0
C3659 C 0.5206 0.5323 0.61356 0.0
C3660 C 0.53541 0.55097 0.6141 0.0
C3661 C 0.51125 0.52944 0.63239 0.0
C3662 C 0.54018 0.56699 0.63329 0.0
C3663 C 0.53066 0.56452 0.65171 0.0
H3664 H 0.78966 0.23771 1.00698 0.0
H3665 H 0.76593 0.17454 0.96698 0.0
H3666 H 0.75663 0.19165 0.93431 0.0
H3667 H 0.75898 0.22435 0.91629 0.0
H3668 H 0.78466 0.28731 0.95605 0.0
H3669 H 0.78885 0.27057 0.9898 0.0
C3670 C 0.78195 0.22773 0.99127 0.0
C3671 C 0.77858 0.20495 0.98926 0.0
C3672 C 0.7771 0.23764 0.9725 0.0
C3673 C 0.76883 0.19215 0.96877 0.0
C3674 C 0.76355 0.2019 0.95013 0.0
C3675 C 0.76534 0.2344 0.93238 0.0
C3676 C 0.77169 0.25698 0.93361 0.0
C3677 C 0.76825 0.22461 0.95163 0.0
C3678 C 0.77952 0.26989 0.95464 0.0
C3679 C 0.7821 0.26031 0.97394 0.0
H3680 H 0.12301 0.52004 0.16711 0.0
H3681 H 0.07407 0.511 0.20347 0.0
H3682 H 0.05117 0.51365 0.17023 0.0
H3683 H 0.04404 0.51883 0.13059 0.0
H3684 H 0.09178 0.52751 0.09287 0.0
H3685 H 0.1155 0.52487 0.12621 0.0
C3686 C 0.10736 0.51867 0.16792 0.0
C3687 C 0.10072 0.51497 0.18855 0.0
C3688 C 0.09373 0.52023 0.14813 0.0
C3689 C 0.0801 0.51328 0.18838 0.0
C3690 C 0.06678 0.51499 0.16915 0.0
C3691 C 0.05964 0.52014 0.12945 0.0
C3692 C 0.06578 0.52353 0.10869 0.0
C3693 C 0.07329 0.51843 0.14888 0.0
C3694 C 0.08625 0.52505 0.10818 0.0
C3695 C 0.09994 0.5235 0.12749 0.0
H3696 H 0.82857 0.8287 0.44408 0.0
H3697 H 0.76562 0.82598 0.44033 0.0
H3698 H 0.75947 0.80882 0.40106 0.0
H3699 H 0.77212 0.79555 0.36711 0.0
H3700 H 0.83524 0.79818 0.37158 0.0
H3701 H 0.84101 0.81429 0.41085 0.0
C3702 C 0.8135 0.82443 0.43467 0.0
C3703 C 0.79762 0.82875 0.44526 0.0
C3704 C 0.81004 0.81448 0.41204 0.0
C3705 C 0.77815 0.82272 0.43278 0.0
C3706 C 0.77462 0.81298 0.41022 0.0
C3707 C 0.78713 0.7995 0.37669 0.0
C3708 C 0.80318 0.79561 0.36611 0.0
C3709 C 0.79046 0.80887 0.39957 0.0
C3710 C 0.82251 0.8009 0.37901 0.0
C3711 C 0.82589 0.81022 0.4016 0.0
H3712 H 0.50506 0.55209 0.90299 0.0
H3713 H 0.48995 0.48194 0.89315 0.0
H3714 H 0.50239 0.4822 0.93277 0.0
H3715 H 0.51679 0.50232 0.97064 0.0
H3716 H 0.53155 0.57255 0.98059 0.0
H3717 H 0.52022 0.57221 0.94074 0.0
C3718 C 0.50471 0.53685 0.90945 0.0
C3719 C 0.49647 0.51703 0.89501 0.0
C3720 C 0.51178 0.53711 0.93241 0.0
C3721 C 0.49595 0.49746 0.90385 0.0
C3722 C 0.50313 0.49758 0.92654 0.0
C3723 C 0.51762 0.51757 0.96411 0.0
C3724 C 0.52503 0.53742 0.97876 0.0
C3725 C 0.51092 0.5173 0.94106 0.0
C3726 C 0.52589 0.55699 0.96985 0.0
C3727 C 0.51941 0.55683 0.94698 0.0
H3728 H 0.81351 0.22344 0.16791 0.0
H3729 H 0.87385 0.25838 0.19224 0.0
H3730 H 0.862 0.2841 0.21807 0.0
H3731 H 0.83441 0.29504 0.23506 0.0
H3732 H 0.77436 0.25902 0.21092 0.0
H3733 H 0.78607 0.2354 0.18318 0.0
C3734 C 0.82406 0.23665 0.17897 0.0
C3735 C 0.84451 0.23888 0.17863 0.0
C3736 C 0.81714 0.25122 0.19349 0.0
C3737 C 0.85805 0.25634 0.19248 0.0
C3738 C 0.85127 0.27099 0.20715 0.0
C3739 C 0.82391 0.28233 0.22333 0.0
C3740 C 0.80358 0.27869 0.22477 0.0
C3741 C 0.83085 0.26846 0.20792 0.0
C3742 C 0.79005 0.26205 0.20986 0.0
C3743 C 0.79675 0.24849 0.19419 0.0
H3744 H 0.08585 0.52665 0.40649 0.0
H3745 H 0.14139 0.51943 0.4442 0.0
H3746 H 0.12753 0.52216 0.47847 0.0
H3747 H 0.09938 0.52678 0.49939 0.0
H3748 H 0.04426 0.53488 0.46166 0.0
H3749 H 0.05814 0.53194 0.42728 0.0
C3750 C 0.09519 0.52576 0.42207 0.0
C3751 C 0.11505 0.52241 0.42157 0.0
C3752 C 0.08704 0.52764 0.44256 0.0
C3753 C 0.12612 0.52135 0.4428 0.0
C3754 C 0.11814 0.52315 0.46294 0.0
C3755 C 0.0903 0.52801 0.48374 0.0
C3756 C 0.07039 0.5312 0.48398 0.0
C3757 C 0.09855 0.52626 0.46326 0.0
C3758 C 0.05942 0.53254 0.46286 0.0
C3759 C 0.06746 0.53081 0.4428 0.0
H3760 H 0.82309 0.85333 0.69169 0.0
H3761 H 0.78716 0.80136 0.64176 0.0
H3762 H 0.78103 0.77884 0.67081 0.0
H3763 H 0.78487 0.77419 0.71076 0.0
H3764 H 0.81805 0.82747 0.7611 0.0
H3765 H 0.82637 0.84891 0.73189 0.0
C3766 C 0.81405 0.83701 0.68721 0.0
C3767 C 0.80568 0.82902 0.66449 0.0
C3768 C 0.8101 0.8243 0.70419 0.0
C3769 C 0.79376 0.80793 0.65905 0.0
C3770 C 0.79026 0.79502 0.67569 0.0
C3771 C 0.79409 0.79041 0.71534 0.0
C3772 C 0.80111 0.79897 0.73822 0.0
C3773 C 0.79822 0.80305 0.69837 0.0
C3774 C 0.81271 0.82023 0.74372 0.0
C3775 C 0.81738 0.83261 0.72696 0.0
H3776 H 0.70901 0.45695 0.56098 0.0
H3777 H 0.65623 0.41298 0.52323 0.0
H3778 H 0.63698 0.44153 0.5283 0.0
H3779 H 0.63578 0.47949 0.542 0.0
H3780 H 0.68886 0.52316 0.5794 0.0
H3781 H 0.70747 0.49395 0.57621 0.0
C3782 C 0.69317 0.45337 0.55436 0.0
C3783 C 0.68397 0.43282 0.54194 0.0
C3784 C 0.68238 0.46984 0.55707 0.0
C3785 C 0.66359 0.42868 0.53287 0.0
C3786 C 0.65263 0.44499 0.53572 0.0
C3787 C 0.65146 0.48257 0.54931 0.0
C3788 C 0.66107 0.50342 0.56068 0.0
C3789 C 0.66199 0.46573 0.54743 0.0
C3790 C 0.68123 0.50721 0.57056 0.0
C3791 C 0.69183 0.49055 0.56872 0.0
H3792 H 0.16705 0.08702 0.55861 0.0
H3793 H 0.1472 0.09914 0.49193 0.0
H3794 H 0.11352 0.07938 0.4926 0.0
H3795 H 0.08942 0.05789 0.51212 0.0
H3796 H 0.11036 0.0443 0.57792 0.0
H3797 H 0.14346 0.06546 0.57773 0.0
C3798 C 0.15535 0.08547 0.54426 0.0
C3799 C 0.15981 0.09468 0.52526 0.0
C3800 C 0.13601 0.07378 0.54463 0.0
C3801 C 0.14438 0.09213 0.50672 0.0
C3802 C 0.12501 0.08088 0.50714 0.0
C3803 C 0.10122 0.05973 0.52645 0.0
C3804 C 0.09732 0.04954 0.54507 0.0
C3805 C 0.1206 0.07155 0.52599 0.0
C3806 C 0.11289 0.0519 0.56337 0.0
C3807 C 0.13189 0.06402 0.56327 0.0
H3808 H 0.23162 0.98559 0.83306 0.0
H3809 H 0.18109 0.94663 0.78636 0.0
H3810 H 0.1987 0.91669 0.7822 0.0
H3811 H 0.22889 0.90197 0.79085 0.0
H3812 H 0.27928 0.94081 0.83793 0.0
H3813 H 0.26142 0.97043 0.84264 0.0
C3814 C 0.22452 0.97059 0.82188 0.0
C3815 C 0.20509 0.96838 0.81002 0.0
C3816 C 0.23474 0.95342 0.81955 0.0
C3817 C 0.19597 0.94869 0.79586 0.0
C3818 C 0.20606 0.93159 0.79338 0.0
C3819 C 0.23587 0.91679 0.80237 0.0
C3820 C 0.25547 0.91917 0.81388 0.0
C3821 C 0.22548 0.93378 0.80509 0.0
C3822 C 0.26435 0.93864 0.82855 0.0
C3823 C 0.25411 0.95558 0.83135 0.0
H3824 H 0.35511 0.92571 0.03458 0.0
H3825 H 0.34355 0.99004 0.05127 0.0
H3826 H 0.37836 1.00602 0.05082 0.0
H3827 H 0.4114 1.00153 0.04292 0.0
H3828 H 0.4223 0.93681 0.02707 0.0
H3829 H 0.38833 0.92109 0.03052 0.0
C3830 C 0.36022 0.94321 0.03879 0.0
C3831 C 0.3467 0.95664 0.04299 0.0
C3832 C 0.3801 0.9522 0.03853 0.0
C3833 C 0.35359 0.97933 0.04773 0.0
C3834 C 0.3735 0.98847 0.04755 0.0
C3835 C 0.4064 0.984 0.04064 0.0
C3836 C 0.41919 0.97033 0.03443 0.0
C3837 C 0.38679 0.97505 0.04255 0.0
C3838 C 0.41256 0.94764 0.03141 0.0
C3839 C 0.39319 0.93865 0.03345 0.0
H3840 H 0.83428 0.64955 0.78279 0.0
H3841 H 0.89477 0.68629 0.79662 0.0
H3842 H 0.88266 0.72007 0.79952 0.0
H3843 H 0.85459 0.74095 0.79816 0.0
H3844 H 0.7943 0.70374 0.78341 0.0
H3845 H 0.80657 0.67005 0.78084 0.0
C3846 C 0.84507 0.66477 0.78635 0.0
C3847 C 0.8659 0.66414 0.7897 0.0
C3848 C 0.83788 0.68498 0.78787 0.0
C3849 C 0.87883 0.68501 0.79437 0.0
C3850 C 0.8718 0.70487 0.7959 0.0
C3851 C 0.84399 0.72556 0.79434 0.0
C3852 C 0.82308 0.72587 0.79101 0.0
C3853 C 0.8513 0.70533 0.79276 0.0
C3854 C 0.81027 0.70501 0.78612 0.0
C3855 C 0.81737 0.68529 0.78462 0.0
H3856 H 0.87723 0.63026 0.03508 0.0
H3857 H 0.83474 0.56939 0.0148 0.0
H3858 H 0.8618 0.54954 0.01715 0.0
H3859 H 0.89757 0.54917 0.02513 0.0
H3860 H 0.94012 0.60995 0.04611 0.0
H3861 H 0.91316 0.62989 0.04258 0.0
C3862 C 0.87384 0.61266 0.03094 0.0
C3863 C 0.85376 0.60147 0.02488 0.0
C3864 C 0.88959 0.60121 0.03229 0.0
C3865 C 0.84988 0.57857 0.01989 0.0
C3866 C 0.86542 0.56715 0.02109 0.0
C3867 C 0.90104 0.56677 0.02911 0.0
C3868 C 0.92111 0.57786 0.03591 0.0
C3869 C 0.88534 0.57825 0.0274 0.0
C3870 C 0.92503 0.60079 0.0405 0.0
C3871 C 0.90953 0.61228 0.03868 0.0
H3872 H 0.24092 0.16707 0.83986 0.0
H3873 H 0.19573 0.17564 0.78705 0.0
H3874 H 0.21805 0.20767 0.77975 0.0
H3875 H 0.25111 0.23218 0.78716 0.0
H3876 H 0.2955 0.22515 0.84164 0.0
H3877 H 0.27309 0.19334 0.84914 0.0
C3878 C 0.23597 0.176 0.8268 0.0
C3879 C 0.2167 0.16891 0.81396 0.0
C3880 C 0.24883 0.19457 0.82286 0.0
C3881 C 0.21042 0.18082 0.79727 0.0
C3882 C 0.22323 0.19907 0.793 0.0
C3883 C 0.2557 0.22403 0.80101 0.0
C3884 C 0.27489 0.23123 0.81397 0.0
C3885 C 0.24253 0.20601 0.80556 0.0
C3886 C 0.2808 0.22 0.83142 0.0
C3887 C 0.26798 0.20179 0.83574 0.0
H3888 H 0.3596 0.91179 0.2591 0.0
H3889 H 0.34891 0.9404 0.32291 0.0
H3890 H 0.33266 0.90467 0.32928 0.0
H3891 H 0.32098 0.86429 0.31717 0.0
H3892 H 0.33082 0.836 0.25282 0.0
H3893 H 0.3475 0.87166 0.24674 0.0
C3894 C 0.35383 0.91039 0.2745 0.0
C3895 C 0.35573 0.92963 0.29034 0.0
C3896 C 0.3441 0.8893 0.27817 0.0
C3897 C 0.34771 0.92661 0.31 0.0
C3898 C 0.33838 0.90585 0.31381 0.0
C3899 C 0.32677 0.86578 0.30178 0.0
C3900 C 0.32435 0.8467 0.28558 0.0
C3901 C 0.33637 0.88692 0.29806 0.0
C3902 C 0.33211 0.84978 0.26579 0.0
C3903 C 0.34181 0.87046 0.26223 0.0
H3904 H 0.58786 0.41663 0.59547 0.0
H3905 H 0.52677 0.39869 0.60454 0.0
H3906 H 0.5197 0.43158 0.59135 0.0
H3907 H 0.53063 0.46629 0.5778 0.0
H3908 H 0.59208 0.48556 0.57099 0.0
H3909 H 0.59905 0.45186 0.5829 0.0
C3910 C 0.573 0.41987 0.5948 0.0
C3911 C 0.5579 0.40453 0.60087 0.0
C3912 C 0.56899 0.43936 0.58756 0.0
C3913 C 0.53875 0.40945 0.59951 0.0
C3914 C 0.53464 0.42856 0.59212 0.0
C3915 C 0.54554 0.4631 0.57877 0.0
C3916 C 0.56073 0.47865 0.57331 0.0
C3917 C 0.5496 0.44367 0.58605 0.0
C3918 C 0.58 0.4741 0.57504 0.0
C3919 C 0.58404 0.45472 0.58188 0.0
H3920 H 0.40212 0.77997 0.37884 0.0
H3921 H 0.42259 0.74213 0.32653 0.0
H3922 H 0.39264 0.74254 0.30027 0.0
H3923 H 0.36077 0.75389 0.29157 0.0
H3924 H 0.34002 0.79253 0.34275 0.0
H3925 H 0.36956 0.79135 0.36992 0.0
C3926 C 0.39995 0.77166 0.36175 0.0
C3927 C 0.41487 0.76114 0.35478 0.0
C3928 C 0.38251 0.77205 0.34646 0.0
C3929 C 0.4117 0.75065 0.33242 0.0
C3930 C 0.39445 0.75078 0.31734 0.0
C3931 C 0.36264 0.76202 0.3087 0.0
C3932 C 0.3479 0.77295 0.31517 0.0
C3933 C 0.37982 0.76153 0.32408 0.0
C3934 C 0.35075 0.7835 0.33741 0.0
C3935 C 0.3678 0.78298 0.35292 0.0
H3936 H 0.08315 0.67631 0.10229 0.0
H3937 H 0.02437 0.68031 0.07005 0.0
H3938 H 0.01745 0.64168 0.05544 0.0
H3939 H 0.02763 0.60617 0.05205 0.0
H3940 H 0.08735 0.60281 0.08107 0.0
H3941 H 0.09439 0.64166 0.09599 0.0
C3942 C 0.06892 0.66901 0.09174 0.0
C3943 C 0.05426 0.68165 0.08783 0.0
C3944 C 0.06514 0.64667 0.08263 0.0
C3945 C 0.03587 0.67128 0.07419 0.0
C3946 C 0.03189 0.64905 0.06553 0.0
C3947 C 0.04222 0.61395 0.06155 0.0
C3948 C 0.05689 0.60144 0.06548 0.0
C3949 C 0.04632 0.63649 0.06979 0.0
C3950 C 0.07578 0.61195 0.07766 0.0
C3951 C 0.0798 0.63421 0.0863 0.0
H3952 H 0.09896 0.28547 0.85432 0.0
H3953 H 0.12318 0.25776 0.91064 0.0
H3954 H 0.15457 0.25954 0.89677 0.0
H3955 H 0.17562 0.26944 0.86885 0.0
H3956 H 0.1514 0.29733 0.81263 0.0
H3957 H 0.11988 0.29503 0.82621 0.0
C3958 C 0.11104 0.27965 0.86346 0.0
C3959 C 0.10859 0.27156 0.8836 0.0
C3960 C 0.12924 0.28086 0.85545 0.0
C3961 C 0.12461 0.26434 0.89529 0.0
C3962 C 0.14261 0.26526 0.8873 0.0
C3963 C 0.16342 0.2749 0.85948 0.0
C3964 C 0.16611 0.2837 0.83976 0.0
C3965 C 0.14518 0.27358 0.86744 0.0
C3966 C 0.15004 0.29084 0.82804 0.0
C3967 C 0.13188 0.2894 0.83573 0.0
H3968 H 0.56379 0.73867 0.98646 0.0
H3969 H 0.53724 0.69222 0.92687 0.0
H3970 H 0.53973 0.66223 0.94809 0.0
H3971 H 0.54644 0.64954 0.98422 0.0
H3972 H 0.57204 0.69606 0.04404 0.0
H3973 H 0.57266 0.72586 0.02209 0.0
C3974 C 0.55858 0.72196 0.97814 0.0
C3975 C 0.55012 0.7176 0.95525 0.0
C3976 C 0.55971 0.70491 0.99049 0.0
C3977 C 0.54385 0.69593 0.94449 0.0
C3978 C 0.54515 0.67881 0.95662 0.0
C3979 C 0.55254 0.66616 0.99237 0.0
C3980 C 0.5591 0.67066 0.0157 0.0
C3981 C 0.55266 0.68315 0.97972 0.0
C3982 C 0.56668 0.69228 0.02612 0.0
C3983 C 0.56708 0.70928 0.01359 0.0
H3984 H 0.16354 0.74796 0.73415 0.0
H3985 H 0.16217 0.80904 0.77366 0.0
H3986 H 0.1985 0.81729 0.78305 0.0
H3987 H 0.23043 0.80732 0.77968 0.0
H3988 H 0.23197 0.74613 0.74039 0.0
H3989 H 0.19563 0.73795 0.7308 0.0
C3990 C 0.17121 0.76314 0.7447 0.0
C3991 C 0.16022 0.77791 0.75315 0.0
C3992 C 0.19205 0.76783 0.74985 0.0
C3993 C 0.17031 0.79732 0.76715 0.0
C3994 C 0.19106 0.80212 0.77236 0.0
C3995 C 0.22287 0.79227 0.76882 0.0
C3996 C 0.23388 0.7774 0.76061 0.0
C3997 C 0.20205 0.78754 0.76369 0.0
C3998 C 0.22382 0.75785 0.74687 0.0
C3999 C 0.20306 0.75315 0.74143 0.0
H4000 H 0.01694 0.42571 0.4459 0.0
H4001 H 0.03712 0.38584 0.49338 0.0
H4002 H 0.03651 0.41388 0.52439 0.0
H4003 H 0.03345 0.45123 0.53786 0.0
H4004 H 0.01322 0.4908 0.49019 0.0
H4005 H 1.00977 0.46096 0.45952 0.0
C4006 C 0.02079 0.42288 0.463 0.0
C4007 C 0.02745 0.40384 0.46722 0.0
C4008 C 0.02026 0.43899 0.48079 0.0
C4009 C 0.03251 0.40063 0.48958 0.0
C4010 C 0.03199 0.41657 0.50737 0.0
C4011 C 0.0278 0.45309 0.52082 0.0
C4012 C 0.02376 0.4732 0.51624 0.0
C4013 C 0.02636 0.43605 0.50316 0.0
C4014 C 0.01647 0.47545 0.4941 0.0
C4015 C 0.01466 0.45846 0.47653 0.0
H4016 H 0.46353 0.2934 0.23713 0.0
H4017 H 0.47924 0.25719 0.29006 0.0
H4018 H 0.45272 0.26757 0.30877 0.0
H4019 H 0.42493 0.28687 0.30973 0.0
H4020 H 0.40949 0.32269 0.25639 0.0
H4021 H 0.43644 0.31292 0.2383 0.0
C4022 C 0.46129 0.28797 0.25289 0.0
C4023 C 0.47335 0.27471 0.26232 0.0
C4024 C 0.44621 0.29405 0.26349 0.0
C4025 C 0.47001 0.26733 0.28245 0.0
C4026 C 0.45498 0.27336 0.2932 0.0
C4027 C 0.42771 0.29272 0.29431 0.0
C4028 C 0.41544 0.3055 0.28436 0.0
C4029 C 0.44301 0.28676 0.28387 0.0
C4030 C 0.41882 0.31277 0.26422 0.0
C4031 C 0.43416 0.30718 0.2539 0.0
H4032 H 0.60913 0.53196 0.44426 0.0
H4033 H 0.5701 0.57069 0.41483 0.0
H4034 H 0.55261 0.56993 0.44651 0.0
H4035 H 0.54734 0.55733 0.48188 0.0
H4036 H 0.58508 0.51771 0.51145 0.0
H4037 H 0.60417 0.51983 0.48064 0.0
C4038 C 0.59676 0.54018 0.44473 0.0
C4039 C 0.59108 0.55146 0.42701 0.0
C4040 C 0.58655 0.53958 0.46312 0.0
C4041 C 0.57511 0.56219 0.42821 0.0
C4042 C 0.56496 0.56165 0.44632 0.0
C4043 C 0.55984 0.54926 0.48166 0.0
C4044 C 0.56498 0.5376 0.49907 0.0
C4045 C 0.57045 0.55032 0.46377 0.0
C4046 C 0.58114 0.52718 0.49851 0.0
C4047 C 0.59189 0.52823 0.48076 0.0
H4048 H 0.30156 0.80762 0.07655 0.0
H4049 H 0.23971 0.77659 0.06998 0.0
H4050 H 0.24838 0.75522 0.09904 0.0
H4051 H 0.27205 0.75139 0.13126 0.0
H4052 H 0.33321 0.78552 0.14106 0.0
H4053 H 0.3263 0.7998 0.10589 0.0
C4054 C 0.29 0.79601 0.08133 0.0
C4055 C 0.26996 0.79412 0.07148 0.0
C4056 C 0.29494 0.7846 0.09888 0.0
C4057 C 0.25525 0.77846 0.07727 0.0
C4058 C 0.26017 0.76636 0.09408 0.0
C4059 C 0.28407 0.76128 0.1253 0.0
C4060 C 0.30308 0.76755 0.13877 0.0
C4061 C 0.27978 0.77014 0.10572 0.0
C4062 C 0.31842 0.78066 0.13101 0.0
C4063 C 0.31445 0.78887 0.111 0.0
H4064 H 0.96567 0.54724 0.92582 0.0
H4065 H 0.01463 0.55144 0.88931 0.0
H4066 H 0.03691 0.54837 0.92278 0.0
H4067 H 0.04357 0.54436 0.96267 0.0
H4068 H 0.99601 0.54043 1.00082 0.0
H4069 H 0.97278 0.54365 0.96721 0.0
C4070 C 0.98121 0.54758 0.92507 0.0
C4071 C 0.9879 0.54925 0.90408 0.0
C4072 C 0.99452 0.54585 0.94506 0.0
C4073 C 1.00836 0.5496 0.90432 0.0
C4074 C 0.0214 0.54802 0.9238 0.0
C4075 C 0.02811 0.5442 0.96384 0.0
C4076 C 0.02186 0.54205 0.98479 0.0
C4077 C 0.01476 0.54603 0.94426 0.0
C4078 C 1.00159 0.54195 0.98534 0.0
C4079 C 0.9882 0.54383 0.9659 0.0
H4080 H 0.25736 0.21622 0.65166 0.0
H4081 H 0.31443 0.25201 0.64333 0.0
H4082 H 0.32077 0.2691 0.68237 0.0
H4083 H 0.31031 0.27413 0.71937 0.0
H4084 H 0.25205 0.24086 0.72649 0.0
H4085 H 0.24592 0.22322 0.68749 0.0
C4086 C 0.27107 0.22804 0.65806 0.0
C4087 C 0.28541 0.23241 0.64413 0.0
C4088 C 0.27446 0.23847 0.68054 0.0
C4089 C 0.3032 0.24763 0.65341 0.0
C4090 C 0.30683 0.25768 0.67585 0.0
C4091 C 0.29625 0.26306 0.71237 0.0
C4092 C 0.2817 0.25883 0.72599 0.0
C4093 C 0.29262 0.25317 0.68965 0.0
C4094 C 0.26351 0.24456 0.71648 0.0
C4095 C 0.26 0.23436 0.69413 0.0
H4096 H 0.59275 0.56797 0.19775 0.0
H4097 H 0.57738 0.49895 0.19872 0.0
H4098 H 0.56404 0.49261 0.15847 0.0
H4099 H 0.55725 0.50681 0.12244 0.0
H4100 H 0.57313 0.57614 0.12267 0.0
H4101 H 0.58591 0.58199 0.16259 0.0
C4102 C 0.58662 0.55149 0.18918 0.0
C4103 C 0.58619 0.534 0.20137 0.0
C4104 C 0.57908 0.54794 0.16603 0.0
C4105 C 0.57777 0.51281 0.18991 0.0
C4106 C 0.57025 0.50914 0.1668 0.0
C4107 C 0.56354 0.52317 0.13124 0.0
C4108 C 0.56413 0.54096 0.11936 0.0
C4109 C 0.57089 0.52659 0.15459 0.0
C4110 C 0.5723 0.56206 0.13118 0.0
C4111 C 0.57969 0.5655 0.15414 0.0
H4112 H 0.26466 0.81849 0.91387 0.0
H4113 H 0.23082 0.85257 0.87044 0.0
H4114 H 0.24374 0.83691 0.83836 0.0
H4115 H 0.26438 0.81343 0.82285 0.0
H4116 H 0.29799 0.77898 0.866 0.0
H4117 H 0.2853 0.79488 0.89825 0.0
C4118 C 0.25986 0.8222 0.89731 0.0
C4119 C 0.24664 0.83646 0.89443 0.0
C4120 C 0.26738 0.81322 0.87905 0.0
C4121 C 0.24098 0.84163 0.87303 0.0
C4122 C 0.24835 0.83269 0.85472 0.0
C4123 C 0.26903 0.8095 0.83933 0.0
C4124 C 0.28212 0.79513 0.84216 0.0
C4125 C 0.26158 0.81853 0.85759 0.0
C4126 C 0.28794 0.79004 0.86352 0.0
C4127 C 0.28066 0.79908 0.88189 0.0
H4128 H 0.99807 0.5404 0.68274 0.0
H4129 H 0.94139 0.54695 0.64734 0.0
H4130 H 0.9537 0.5433 0.61203 0.0
H4131 H 0.98093 0.53836 0.58964 0.0
H4132 H 0.03754 0.53217 0.62554 0.0
H4133 H 0.02507 0.53571 0.6607 0.0
C4134 C 0.98824 0.54117 0.66746 0.0
C4135 C 0.96833 0.54379 0.66875 0.0
C4136 C 0.99557 0.5391 0.64647 0.0
C4137 C 0.95646 0.54451 0.64789 0.0
C4138 C 0.96365 0.54256 0.62725 0.0
C4139 C 0.99064 0.53769 0.60505 0.0
C4140 C 1.01052 0.5348 0.60401 0.0
C4141 C 0.98321 0.53976 0.62607 0.0
C4142 C 0.02232 0.53421 0.62489 0.0
C4143 C 0.01512 0.53629 0.64543 0.0
H4144 H 0.27084 0.25075 0.43166 0.0
H4145 H 0.28318 0.19066 0.40086 0.0
H4146 H 0.28783 0.20633 0.36698 0.0
H4147 H 0.28971 0.23772 0.34619 0.0
H4148 H 0.27878 0.29823 0.37762 0.0
H4149 H 0.27198 0.28181 0.4106 0.0
C4150 C 0.27435 0.24098 0.41747 0.0
C4151 C 0.27673 0.21947 0.4191 0.0
C4152 C 0.27724 0.25023 0.39792 0.0
C4153 C 0.28151 0.2073 0.40044 0.0
C4154 C 0.28408 0.21624 0.3809 0.0
C4155 C 0.28558 0.24722 0.36013 0.0
C4156 C 0.28467 0.26923 0.35929 0.0
C4157 C 0.28217 0.23777 0.37945 0.0
C4158 C 0.27956 0.2813 0.37772 0.0
C4159 C 0.27572 0.27191 0.39668 0.0
H4160 H 0.36958 0.57761 0.51223 0.0
H4161 H 0.40932 0.63514 0.50256 0.0
H4162 H 0.4321 0.61277 0.48972 0.0
H4163 H 0.44339 0.57811 0.48896 0.0
H4164 H 0.4051 0.52194 0.50419 0.0
H4165 H 0.37862 0.54211 0.50581 0.0
C4166 C 0.38308 0.58514 0.50689 0.0
C4167 C 0.38819 0.6079 0.50885 0.0
C4168 C 0.39631 0.57235 0.50047 0.0
C4169 C 0.40533 0.61762 0.50139 0.0
C4170 C 0.41833 0.60484 0.49418 0.0
C4171 C 0.42914 0.57018 0.49231 0.0
C4172 C 0.42653 0.54875 0.49721 0.0
C4173 C 0.41444 0.58236 0.49484 0.0
C4174 C 0.40769 0.53841 0.5005 0.0
C4175 C 0.39257 0.55006 0.50178 0.0
H4176 H 0.91455 0.97873 0.53523 0.0
H4177 H 0.93865 0.95086 0.59151 0.0
H4178 H 0.97217 0.97025 0.58989 0.0
H4179 H 0.99507 0.99572 0.57251 0.0
H4180 H 0.97026 0.0231 0.51622 0.0
H4181 H 0.93705 1.00321 0.51767 0.0
C4182 C 0.92709 0.97665 0.54706 0.0
C4183 C 0.92377 0.96321 0.5635 0.0
C4184 C 0.94646 0.98786 0.54602 0.0
C4185 C 0.94045 0.96124 0.57884 0.0
C4186 C 0.95976 0.97227 0.57784 0.0
C4187 C 0.9824 0.99721 0.56051 0.0
C4188 C 0.9853 1.01101 0.54428 0.0
C4189 C 0.96301 0.98571 0.56152 0.0
C4190 C 0.9686 1.01274 0.52895 0.0
C4191 C 0.9495 1.00133 0.52975 0.0
H4192 H 0.8965 0.10886 0.24762 0.0
H4193 H 0.86266 0.0795 0.29381 0.0
H4194 H 0.84312 0.10793 0.29369 0.0
H4195 H 0.83537 0.14085 0.28014 0.0
H4196 H 0.86913 0.17034 0.23398 0.0
H4197 H 0.88901 0.14216 0.23443 0.0
C4198 C 0.88497 0.10881 0.25782 0.0
C4199 C 0.88104 0.09207 0.2707 0.0
C4200 C 0.87376 0.1252 0.25764 0.0
C4201 C 0.86584 0.09205 0.28355 0.0
C4202 C 0.85472 0.10836 0.28358 0.0
C4203 C 0.84724 0.14126 0.27039 0.0
C4204 C 0.85081 0.15772 0.25712 0.0
C4205 C 0.85853 0.12498 0.27066 0.0
C4206 C 0.86598 0.15776 0.24421 0.0
C4207 C 0.87739 0.1417 0.24452 0.0
H4208 H 0.75662 0.07068 0.12281 0.0
H4209 H 0.75473 0.06571 0.05132 0.0
H4210 H 0.7187 0.05402 0.04482 0.0
H4211 H 0.68745 0.05082 0.05953 0.0
H4212 H 0.68922 0.05908 0.13107 0.0
H4213 H 0.72538 0.06389 0.1374 0.0
C4214 C 0.74834 0.06674 0.10579 0.0
C4215 C 0.75842 0.06932 0.08765 0.0
C4216 C 0.72749 0.06098 0.10216 0.0
C4217 C 0.74749 0.06368 0.06567 0.0
C4218 C 0.72679 0.05729 0.06191 0.0
C4219 C 0.69576 0.05353 0.07649 0.0
C4220 C 0.68568 0.05486 0.09477 0.0
C4221 C 0.7166 0.05682 0.08005 0.0
C4222 C 0.69659 0.05789 0.11666 0.0
C4223 C 0.7173 0.06079 0.12032 0.0
H4224 H 0.20847 0.38148 0.29762 0.0
H4225 H 0.26216 0.43095 0.31879 0.0
H4226 H 0.28191 0.40305 0.31907 0.0
H4227 H 0.28533 0.36383 0.31363 0.0
H4228 H 0.23203 0.31401 0.29313 0.0
H4229 H 0.21186 0.34196 0.29267 0.0
C4230 C 0.22448 0.38647 0.30241 0.0
C4231 C 0.23315 0.40944 0.3078 0.0
C4232 C 0.23639 0.36971 0.30279 0.0
C4233 C 0.25425 0.41425 0.31385 0.0
C4234 C 0.2659 0.39793 0.31426 0.0
C4235 C 0.26929 0.35885 0.30904 0.0
C4236 C 0.26073 0.33596 0.30344 0.0
C4237 C 0.25734 0.37548 0.30872 0.0
C4238 C 0.23965 0.33088 0.29761 0.0
C4239 C 0.22787 0.34717 0.29731 0.0
H4240 H 0.21943 0.44939 0.03173 0.0
H4241 H 0.23337 0.46366 0.10404 0.0
H4242 H 0.20489 0.48109 0.10458 0.0
H4243 H 0.17543 0.49207 0.08465 0.0
H4244 H 0.16076 0.47614 0.01258 0.0
H4245 H 0.18959 0.45918 0.01202 0.0
C4246 C 0.2162 0.45601 0.0477 0.0
C4247 C 0.22892 0.45516 0.06779 0.0
C4248 C 0.19941 0.46569 0.048 0.0
C4249 C 0.22435 0.46434 0.08818 0.0
C4250 C 0.20785 0.47421 0.08856 0.0
C4251 C 0.17857 0.48493 0.06882 0.0
C4252 C 0.16575 0.48537 0.04869 0.0
C4253 C 0.19525 0.47502 0.06858 0.0
C4254 C 0.17008 0.47582 0.02838 0.0
C4255 C 0.18669 0.46621 0.02801 0.0
H4256 H 0.8798 0.88546 0.29596 0.0
H4257 H 0.8465 0.89881 0.23555 0.0
H4258 H 0.81989 0.86778 0.23596 0.0
H4259 H 0.80533 0.83753 0.25435 0.0
H4260 H 0.83839 0.82506 0.31528 0.0
H4261 H 0.86568 0.85496 0.31383 0.0
C4262 C 0.8667 0.88166 0.28292 0.0
C4263 C 0.86521 0.89458 0.26579 0.0
C4264 C 0.85132 0.86389 0.28336 0.0
C4265 C 0.84822 0.88908 0.24882 0.0
C4266 C 0.83289 0.87139 0.24912 0.0
C4267 C 0.81855 0.84137 0.26725 0.0
C4268 C 0.81989 0.829 0.28482 0.0
C4269 C 0.83417 0.85879 0.26642 0.0
C4270 C 0.8371 0.83411 0.30141 0.0
C4271 C 0.85268 0.85132 0.30067 0.0
H4272 H 0.73837 0.13693 0.78041 0.0
H4273 H 0.7314 0.14983 0.84956 0.0
H4274 H 0.74676 0.18799 0.8514 0.0
H4275 H 0.76234 0.21906 0.83351 0.0
H4276 H 0.76842 0.2058 0.76412 0.0
H4277 H 0.7534 0.16763 0.76256 0.0
C4278 C 0.73998 0.14792 0.79596 0.0
C4279 C 0.73353 0.1395 0.81487 0.0
C4280 C 0.74885 0.17048 0.79698 0.0
C4281 C 0.73632 0.15485 0.83467 0.0
C4282 C 0.74509 0.1771 0.83576 0.0
C4283 C 0.76042 0.20791 0.818 0.0
C4284 C 0.76681 0.21606 0.79894 0.0
C4285 C 0.7515 0.1853 0.81705 0.0
C4286 C 0.7639 0.2007 0.77919 0.0
C4287 C 0.75519 0.17854 0.77822 0.0
loop_
_geom_bond_atom_site_label_1
_geom_bond_atom_site_label_2
_geom_bond_distance
_geom_bond_site_symmetry_2
_ccdc_geom_bond_type
Li0 N17 1.990 . S
Li0 O60 1.956 1_655 S
Li0 O61 1.970 . S
Li0 O62 1.961 . S
Li1 N25 1.990 . S
Li1 O60 1.970 . S
Li1 O61 1.956 1_455 S
Li1 O63 1.961 . S
Li2 N47 1.990 . S
Li2 O60 1.961 . S
Li2 O62 1.956 1_455 S
Li2 O63 1.970 . S
Li3 N53 1.990 . S
Li3 O61 1.961 1_455 S
Li3 O62 1.970 1_455 S
Li3 O63 1.956 . S
C4 C6 1.348 1_455 S
C4 C7 1.356 . S
C4 O60 1.325 . S
N5 C8 1.287 1_455 S
N5 C9 1.300 . S
C6 C4 1.348 1_655 S
C6 C8 1.352 . S
C6 H64 0.929 . S
C7 C4 1.356 . S
C7 C9 1.358 . S
C7 H65 0.930 . S
C8 N5 1.287 1_655 S
C8 C6 1.352 . S
C8 H66 0.952 . S
C9 N5 1.300 . S
C9 C7 1.358 . S
C9 H67 0.930 . S
C10 C13 1.348 . S
C10 C14 1.356 . S
C10 O61 1.325 . S
C11 N12 1.279 . S
C11 C14 1.358 . S
C11 H68 0.930 . S
N12 C11 1.279 . S
N12 C15 1.314 . S
C13 C10 1.348 . S
C13 C15 1.353 . S
C13 H69 0.929 . S
C14 C10 1.356 . S
C14 C11 1.358 . S
C14 H70 0.930 . S
C15 N12 1.314 . S
C15 C13 1.353 . S
C15 H71 0.930 . S
C16 N17 1.314 . S
C16 C21 1.353 . S
C16 H22 0.930 . S
N17 Li0 1.990 . S
N17 C16 1.314 . S
N17 C19 1.279 . S
C18 C19 1.358 . S
C18 C20 1.356 . S
C18 H72 0.930 . S
C19 N17 1.279 . S
C19 C18 1.358 . S
C19 H23 0.930 . S
C20 C18 1.356 . S
C20 C21 1.348 . S
C21 C16 1.353 . S
C21 C20 1.348 . S
C21 H73 0.929 . S
H22 C16 0.930 . S
H23 C19 0.930 . S
C24 N25 1.314 . S
C24 C26 1.353 . S
C24 H30 0.930 . S
N25 Li1 1.990 . S
N25 C24 1.314 . S
N25 C28 1.279 1_455 S
C26 C24 1.353 . S
C26 C29 1.348 . S
C26 H74 0.929 . S
C27 C28 1.358 . S
C27 C29 1.356 1_655 S
C27 H75 0.930 . S
C28 N25 1.279 1_655 S
C28 C27 1.358 . S
C28 H31 0.930 . S
C29 C26 1.348 . S
C29 C27 1.356 1_455 S
H30 C24 0.930 . S
H31 C28 0.930 . S
C32 C34 1.348 . S
C32 C35 1.356 . S
C32 O62 1.325 . S
N33 C36 1.314 . S
N33 C37 1.279 . S
C34 C32 1.348 . S
C34 C36 1.353 . S
C34 H76 0.929 1_655 S
C35 C32 1.356 . S
C35 C37 1.358 . S
C35 H77 0.930 . S
C36 N33 1.314 . S
C36 C34 1.353 . S
C36 H78 0.930 . S
C37 N33 1.279 . S
C37 C35 1.358 . S
C37 H79 0.930 . S
C38 C39 1.348 . S
C38 C40 1.356 . S
C38 O63 1.325 . S
C39 C38 1.348 . S
C39 C41 1.353 . S
C39 H80 0.929 . S
C40 C38 1.356 . S
C40 C42 1.358 . S
C40 H81 0.930 . S
C41 C39 1.353 . S
C41 N43 1.314 . S
C41 H82 0.930 . S
C42 C40 1.358 . S
C42 N43 1.279 . S
C42 H83 0.930 . S
N43 C41 1.314 . S
N43 C42 1.279 . S
C44 C46 1.353 . S
C44 N47 1.314 . S
C44 H50 0.930 . S
C45 N47 1.279 . S
C45 C48 1.358 . S
C45 H51 0.930 . S
C46 C44 1.353 . S
C46 C49 1.348 . S
C46 H84 0.929 . S
N47 Li2 1.990 . S
N47 C44 1.314 . S
N47 C45 1.279 . S
C48 C45 1.358 . S
C48 C49 1.356 . S
C48 H85 0.930 . S
C49 C46 1.348 . S
C49 C48 1.356 . S
H50 C44 0.930 . S
H51 C45 0.930 . S
C52 N53 1.314 1_655 S
C52 C54 1.353 . S
C52 H58 0.930 . S
N53 Li3 1.990 . S
N53 C52 1.314 1_455 S
N53 C56 1.279 . S
C54 C52 1.353 . S
C54 C57 1.376 . S
C54 H86 0.929 . S
C55 C56 1.358 . S
C55 C57 1.331 1_455 S
C55 H87 0.930 . S
C56 N53 1.279 . S
C56 C55 1.358 . S
C56 H59 0.930 . S
C57 C54 1.376 . S
C57 C55 1.331 1_655 S
H58 C52 0.930 . S
H59 C56 0.930 . S
O60 Li0 1.956 1_455 S
O60 Li1 1.970 . S
O60 Li2 1.961 . S
O60 C4 1.325 . S
O61 Li0 1.970 . S
O61 Li1 1.956 1_655 S
O61 Li3 1.961 1_655 S
O61 C10 1.325 . S
O62 Li0 1.961 . S
O62 Li2 1.956 1_655 S
O62 Li3 1.970 1_655 S
O62 C32 1.325 . S
O63 Li1 1.961 . S
O63 Li2 1.970 . S
O63 Li3 1.956 . S
O63 C38 1.325 . S
H64 C6 0.929 . S
H65 C7 0.930 . S
H66 C8 0.952 . S
H67 C9 0.930 . S
H68 C11 0.930 . S
H69 C13 0.929 . S
H70 C14 0.930 . S
H71 C15 0.930 . S
H72 C18 0.930 . S
H73 C21 0.929 . S
H74 C26 0.929 . S
H75 C27 0.930 . S
H76 C34 0.929 1_455 S
H77 C35 0.930 . S
H78 C36 0.930 . S
H79 C37 0.930 . S
H80 C39 0.929 . S
H81 C40 0.930 . S
H82 C41 0.930 . S
H83 C42 0.930 . S
H84 C46 0.929 . S
H85 C48 0.930 . S
H86 C54 0.929 . S
H87 C55 0.930 . S
Li88 N105 1.990 . S
Li88 O148 1.956 . S
Li88 O149 1.970 . S
Li88 O150 1.961 . S
Li89 N113 1.990 . S
Li89 O148 1.970 . S
Li89 O149 1.956 . S
Li89 O151 1.961 . S
Li90 N135 1.990 . S
Li90 O148 1.961 . S
Li90 O150 1.956 . S
Li90 O151 1.970 . S
Li91 N141 1.990 . S
Li91 O149 1.961 . S
Li91 O150 1.970 . S
Li91 O151 1.956 . S
C92 C94 1.348 . S
C92 C95 1.356 . S
C92 O148 1.325 . S
N93 C96 1.314 . S
N93 C97 1.279 . S
C94 C92 1.348 . S
C94 C96 1.353 . S
C94 H152 0.929 . S
C95 C92 1.356 . S
C95 C97 1.358 . S
C95 H153 0.930 . S
C96 N93 1.314 . S
C96 C94 1.353 . S
C96 H154 0.930 . S
C97 N93 1.279 . S
C97 C95 1.358 . S
C97 H155 0.930 . S
C98 C101 1.348 . S
C98 C102 1.356 . S
C98 O149 1.325 . S
C99 N100 1.279 . S
C99 C102 1.358 . S
C99 H156 0.930 . S
N100 C99 1.279 . S
N100 C103 1.314 . S
C101 C98 1.348 . S
C101 C103 1.353 . S
C101 H157 0.929 . S
C102 C98 1.356 . S
C102 C99 1.358 . S
C102 H158 0.930 . S
C103 N100 1.314 . S
C103 C101 1.353 . S
C103 H159 0.930 . S
C104 N105 1.314 . S
C104 C109 1.353 . S
C104 H110 0.930 . S
N105 Li88 1.990 . S
N105 C104 1.314 . S
N105 C107 1.279 . S
C106 C107 1.358 . S
C106 C108 1.356 . S
C106 H160 0.930 . S
C107 N105 1.279 . S
C107 C106 1.358 . S
C107 H111 0.930 . S
C108 C106 1.356 . S
C108 C109 1.348 . S
C109 C104 1.353 . S
C109 C108 1.348 . S
C109 H161 0.929 . S
H110 C104 0.930 . S
H111 C107 0.930 . S
C112 N113 1.314 . S
C112 C114 1.353 . S
C112 H118 0.930 . S
N113 Li89 1.990 . S
N113 C112 1.314 . S
N113 C116 1.279 . S
C114 C112 1.353 . S
C114 C117 1.348 . S
C114 H162 0.929 . S
C115 C116 1.358 . S
C115 C117 1.356 . S
C115 H163 0.930 . S
C116 N113 1.279 . S
C116 C115 1.358 . S
C116 H119 0.930 . S
C117 C114 1.348 . S
C117 C115 1.356 . S
H118 C112 0.930 . S
H119 C116 0.930 . S
C120 C122 1.348 . S
C120 C123 1.356 . S
C120 O150 1.325 . S
N121 C124 1.314 . S
N121 C125 1.279 1_655 S
C122 C120 1.348 . S
C122 C124 1.353 1_455 S
C122 H164 0.929 . S
C123 C120 1.356 . S
C123 C125 1.358 . S
C123 H165 0.930 . S
C124 N121 1.314 . S
C124 C122 1.353 1_655 S
C124 H166 0.930 . S
C125 N121 1.279 1_455 S
C125 C123 1.358 . S
C125 H167 0.930 . S
C126 C127 1.348 . S
C126 C128 1.356 . S
C126 O151 1.325 . S
C127 C126 1.348 . S
C127 C129 1.353 . S
C127 H168 0.929 . S
C128 C126 1.356 . S
C128 C130 1.358 . S
C128 H169 0.930 . S
C129 C127 1.353 . S
C129 N131 1.314 . S
C129 H170 0.930 . S
C130 C128 1.358 . S
C130 N131 1.279 . S
C130 H171 0.930 . S
N131 C129 1.314 . S
N131 C130 1.279 . S
C132 C134 1.353 . S
C132 N135 1.314 . S
C132 H138 0.930 . S
C133 N135 1.279 . S
C133 C136 1.358 . S
C133 H139 0.930 . S
C134 C132 1.353 . S
C134 C137 1.348 . S
C134 H172 0.929 . S
N135 Li90 1.990 . S
N135 C132 1.314 . S
N135 C133 1.279 . S
C136 C133 1.358 . S
C136 C137 1.356 . S
C136 H173 0.930 . S
C137 C134 1.348 . S
C137 C136 1.356 . S
H138 C132 0.930 . S
H139 C133 0.930 . S
C140 N141 1.314 . S
C140 C142 1.353 1_455 S
C140 H146 0.930 . S
N141 Li91 1.990 . S
N141 C140 1.314 . S
N141 C144 1.279 . S
C142 C140 1.353 1_655 S
C142 C145 1.348 . S
C142 H174 0.929 . S
C143 C144 1.318 1_655 S
C143 C145 1.388 . S
C143 H175 0.940 . S
C144 N141 1.279 . S
C144 C143 1.318 1_455 S
C144 H147 0.930 . S
C145 C142 1.348 . S
C145 C143 1.388 . S
H146 C140 0.930 . S
H147 C144 0.930 . S
O148 Li88 1.956 . S
O148 Li89 1.970 . S
O148 Li90 1.961 . S
O148 C92 1.325 . S
O149 Li88 1.970 . S
O149 Li89 1.956 . S
O149 Li91 1.961 . S
O149 C98 1.325 . S
O150 Li88 1.961 . S
O150 Li90 1.956 . S
O150 Li91 1.970 . S
O150 C120 1.325 . S
O151 Li89 1.961 . S
O151 Li90 1.970 . S
O151 Li91 1.956 . S
O151 C126 1.325 . S
H152 C94 0.929 . S
H153 C95 0.930 . S
H154 C96 0.930 . S
H155 C97 0.930 . S
H156 C99 0.930 . S
H157 C101 0.929 . S
H158 C102 0.930 . S
H159 C103 0.930 . S
H160 C106 0.930 . S
H161 C109 0.929 . S
H162 C114 0.929 . S
H163 C115 0.930 . S
H164 C122 0.929 . S
H165 C123 0.930 . S
H166 C124 0.930 . S
H167 C125 0.930 . S
H168 C127 0.929 . S
H169 C128 0.930 . S
H170 C129 0.930 . S
H171 C130 0.930 . S
H172 C134 0.929 . S
H173 C136 0.930 . S
H174 C142 0.929 . S
H175 C143 0.940 . S
Li176 N193 1.990 . S
Li176 O236 1.956 . S
Li176 O237 1.970 . S
Li176 O238 1.961 . S
Li177 N201 1.990 . S
Li177 O236 1.970 . S
Li177 O237 1.956 . S
Li177 O239 1.961 . S
Li178 N223 1.990 . S
Li178 O236 1.961 . S
Li178 O238 1.956 . S
Li178 O239 1.970 . S
Li179 N229 1.990 . S
Li179 O237 1.961 . S
Li179 O238 1.970 . S
Li179 O239 1.956 . S
C180 C182 1.348 . S
C180 C183 1.356 . S
C180 O236 1.325 . S
N181 C184 1.314 . S
N181 C185 1.279 . S
C182 C180 1.348 . S
C182 C184 1.353 . S
C182 H240 0.929 . S
C183 C180 1.356 . S
C183 C185 1.358 . S
C183 H241 0.930 . S
C184 N181 1.314 . S
C184 C182 1.353 . S
C184 H242 0.930 . S
C185 N181 1.279 . S
C185 C183 1.358 . S
C185 H243 0.930 . S
C186 C189 1.348 . S
C186 C190 1.356 . S
C186 O237 1.325 . S
C187 N188 1.279 . S
C187 C190 1.358 . S
C187 H244 0.930 . S
N188 C187 1.279 . S
N188 C191 1.314 . S
C189 C186 1.348 . S
C189 C191 1.353 . S
C189 H245 0.929 . S
C190 C186 1.356 . S
C190 C187 1.358 . S
C190 H246 0.930 . S
C191 N188 1.314 . S
C191 C189 1.353 . S
C191 H247 0.930 . S
C192 N193 1.314 . S
C192 C197 1.353 . S
C192 H198 0.930 . S
N193 Li176 1.990 . S
N193 C192 1.314 . S
N193 C195 1.279 . S
C194 C195 1.358 . S
C194 C196 1.356 . S
C194 H248 0.930 . S
C195 N193 1.279 . S
C195 C194 1.358 . S
C195 H199 0.930 . S
C196 C194 1.356 . S
C196 C197 1.348 . S
C197 C192 1.353 . S
C197 C196 1.348 . S
C197 H249 0.929 . S
H198 C192 0.930 . S
H199 C195 0.930 . S
C200 N201 1.314 . S
C200 C202 1.353 . S
C200 H206 0.930 . S
N201 Li177 1.990 . S
N201 C200 1.314 . S
N201 C204 1.279 . S
C202 C200 1.353 . S
C202 C205 1.348 . S
C202 H250 0.929 . S
C203 C204 1.358 . S
C203 C205 1.356 . S
C203 H251 0.930 . S
C204 N201 1.279 . S
C204 C203 1.358 . S
C204 H207 0.930 . S
C205 C202 1.348 . S
C205 C203 1.356 . S
H206 C200 0.930 . S
H207 C204 0.930 . S
C208 C210 1.348 . S
C208 C211 1.356 . S
C208 O238 1.325 . S
N209 C212 1.314 . S
N209 C213 1.279 . S
C210 C208 1.348 . S
C210 C212 1.353 . S
C210 H252 0.929 . S
C211 C208 1.356 . S
C211 C213 1.358 . S
C211 H253 0.930 . S
C212 N209 1.314 . S
C212 C210 1.353 . S
C212 H254 0.930 . S
C213 N209 1.279 . S
C213 C211 1.358 . S
C213 H255 0.930 . S
C214 C215 1.348 . S
C214 C216 1.356 . S
C214 O239 1.325 . S
C215 C214 1.348 . S
C215 C217 1.353 . S
C215 H256 0.929 . S
C216 C214 1.356 . S
C216 C218 1.358 . S
C216 H257 0.930 . S
C217 C215 1.353 . S
C217 N219 1.314 . S
C217 H258 0.930 . S
C218 C216 1.358 . S
C218 N219 1.279 . S
C218 H259 0.930 . S
N219 C217 1.314 . S
N219 C218 1.279 . S
C220 C222 1.353 . S
C220 N223 1.314 . S
C220 H226 0.930 . S
C221 N223 1.279 . S
C221 C224 1.358 . S
C221 H227 0.930 . S
C222 C220 1.353 . S
C222 C225 1.348 . S
C222 H260 0.929 . S
N223 Li178 1.990 . S
N223 C220 1.314 . S
N223 C221 1.279 . S
C224 C221 1.358 . S
C224 C225 1.356 . S
C224 H261 0.930 . S
C225 C222 1.348 . S
C225 C224 1.356 . S
H226 C220 0.930 . S
H227 C221 0.930 . S
C228 N229 1.314 . S
C228 C230 1.353 . S
C228 H234 0.930 . S
N229 Li179 1.990 . S
N229 C228 1.314 . S
N229 C232 1.279 . S
C230 C228 1.353 . S
C230 C233 1.348 . S
C230 H262 0.929 . S
C231 C232 1.358 . S
C231 C233 1.356 . S
C231 H263 0.930 . S
C232 N229 1.279 . S
C232 C231 1.358 . S
C232 H235 0.930 . S
C233 C230 1.348 . S
C233 C231 1.356 . S
H234 C228 0.930 . S
H235 C232 0.930 . S
O236 Li176 1.956 . S
O236 Li177 1.970 . S
O236 Li178 1.961 . S
O236 C180 1.325 . S
O237 Li176 1.970 . S
O237 Li177 1.956 . S
O237 Li179 1.961 . S
O237 C186 1.325 . S
O238 Li176 1.961 . S
O238 Li178 1.956 . S
O238 Li179 1.970 . S
O238 C208 1.325 . S
O239 Li177 1.961 . S
O239 Li178 1.970 . S
O239 Li179 1.956 . S
O239 C214 1.325 . S
H240 C182 0.929 . S
H241 C183 0.930 . S
H242 C184 0.930 . S
H243 C185 0.930 . S
H244 C187 0.930 . S
H245 C189 0.929 . S
H246 C190 0.930 . S
H247 C191 0.930 . S
H248 C194 0.930 . S
H249 C197 0.929 . S
H250 C202 0.929 . S
H251 C203 0.930 . S
H252 C210 0.929 . S
H253 C211 0.930 . S
H254 C212 0.930 . S
H255 C213 0.930 . S
H256 C215 0.929 . S
H257 C216 0.930 . S
H258 C217 0.930 . S
H259 C218 0.930 . S
H260 C222 0.929 . S
H261 C224 0.930 . S
H262 C230 0.929 . S
H263 C231 0.930 . S
Li264 N281 1.990 . S
Li264 O324 1.956 . S
Li264 O325 1.970 . S
Li264 O326 1.961 . S
Li265 N289 1.990 . S
Li265 O324 1.970 . S
Li265 O325 1.956 . S
Li265 O327 1.961 . S
Li266 N311 1.990 . S
Li266 O324 1.961 . S
Li266 O326 1.956 . S
Li266 O327 1.970 . S
Li267 N317 1.990 . S
Li267 O325 1.961 . S
Li267 O326 1.970 . S
Li267 O327 1.956 . S
C268 C270 1.348 . S
C268 C271 1.356 . S
C268 O324 1.325 . S
N269 C272 1.314 . S
N269 C273 1.279 . S
C270 C268 1.348 . S
C270 C272 1.353 . S
C270 H328 0.929 . S
C271 C268 1.356 . S
C271 C273 1.358 . S
C271 H329 0.930 . S
C272 N269 1.314 . S
C272 C270 1.353 . S
C272 H330 0.930 . S
C273 N269 1.279 . S
C273 C271 1.358 . S
C273 H331 0.930 . S
C274 C277 1.348 . S
C274 C278 1.356 . S
C274 O325 1.325 . S
C275 N276 1.279 . S
C275 C278 1.358 . S
C275 H332 0.930 . S
N276 C275 1.279 . S
N276 C279 1.314 . S
C277 C274 1.348 . S
C277 C279 1.353 . S
C277 H333 0.929 . S
C278 C274 1.356 . S
C278 C275 1.358 . S
C278 H334 0.930 . S
C279 N276 1.314 . S
C279 C277 1.353 . S
C279 H335 0.930 . S
C280 N281 1.314 . S
C280 C285 1.353 . S
C280 H286 0.930 . S
N281 Li264 1.990 . S
N281 C280 1.314 . S
N281 C283 1.279 . S
C282 C283 1.358 . S
C282 C284 1.356 . S
C282 H336 0.930 . S
C283 N281 1.279 . S
C283 C282 1.358 . S
C283 H287 0.930 . S
C284 C282 1.356 . S
C284 C285 1.348 . S
C285 C280 1.353 . S
C285 C284 1.348 . S
C285 H337 0.929 . S
H286 C280 0.930 . S
H287 C283 0.930 . S
C288 N289 1.314 . S
C288 C290 1.353 . S
C288 H294 0.930 . S
N289 Li265 1.990 . S
N289 C288 1.314 . S
N289 C292 1.279 . S
C290 C288 1.353 . S
C290 C293 1.348 . S
C290 H338 0.929 . S
C291 C292 1.358 . S
C291 C293 1.356 . S
C291 H339 0.930 . S
C292 N289 1.279 . S
C292 C291 1.358 . S
C292 H295 0.930 . S
C293 C290 1.348 . S
C293 C291 1.356 . S
H294 C288 0.930 . S
H295 C292 0.930 . S
C296 C298 1.348 . S
C296 C299 1.356 . S
C296 O326 1.325 . S
N297 C300 1.314 . S
N297 C301 1.279 . S
C298 C296 1.348 . S
C298 C300 1.353 . S
C298 H340 0.929 . S
C299 C296 1.356 . S
C299 C301 1.358 . S
C299 H341 0.930 . S
C300 N297 1.314 . S
C300 C298 1.353 . S
C300 H342 0.930 . S
C301 N297 1.279 . S
C301 C299 1.358 . S
C301 H343 0.930 . S
C302 C303 1.348 . S
C302 C304 1.356 . S
C302 O327 1.325 . S
C303 C302 1.348 . S
C303 C305 1.353 . S
C303 H344 0.929 . S
C304 C302 1.356 . S
C304 C306 1.358 . S
C304 H345 0.930 . S
C305 C303 1.353 . S
C305 N307 1.314 . S
C305 H346 0.930 . S
C306 C304 1.358 . S
C306 N307 1.279 . S
C306 H347 0.930 . S
N307 C305 1.314 . S
N307 C306 1.279 . S
C308 C310 1.353 . S
C308 N311 1.314 . S
C308 H314 0.930 . S
C309 N311 1.279 . S
C309 C312 1.358 . S
C309 H315 0.930 . S
C310 C308 1.353 . S
C310 C313 1.348 . S
C310 H348 0.929 . S
N311 Li266 1.990 . S
N311 C308 1.314 . S
N311 C309 1.279 . S
C312 C309 1.358 . S
C312 C313 1.356 . S
C312 H349 0.930 . S
C313 C310 1.348 . S
C313 C312 1.356 . S
H314 C308 0.930 . S
H315 C309 0.930 . S
C316 N317 1.314 . S
C316 C318 1.353 . S
C316 H322 0.930 . S
N317 Li267 1.990 . S
N317 C316 1.314 . S
N317 C320 1.279 . S
C318 C316 1.353 . S
C318 C321 1.348 . S
C318 H350 0.929 . S
C319 C320 1.358 . S
C319 C321 1.356 . S
C319 H351 0.930 . S
C320 N317 1.279 . S
C320 C319 1.358 . S
C320 H323 0.930 . S
C321 C318 1.348 . S
C321 C319 1.356 . S
H322 C316 0.930 . S
H323 C320 0.930 . S
O324 Li264 1.956 . S
O324 Li265 1.970 . S
O324 Li266 1.961 . S
O324 C268 1.325 . S
O325 Li264 1.970 . S
O325 Li265 1.956 . S
O325 Li267 1.961 . S
O325 C274 1.325 . S
O326 Li264 1.961 . S
O326 Li266 1.956 . S
O326 Li267 1.970 . S
O326 C296 1.325 . S
O327 Li265 1.961 . S
O327 Li266 1.970 . S
O327 Li267 1.956 . S
O327 C302 1.325 . S
H328 C270 0.929 . S
H329 C271 0.930 . S
H330 C272 0.930 . S
H331 C273 0.930 . S
H332 C275 0.930 . S
H333 C277 0.929 . S
H334 C278 0.930 . S
H335 C279 0.930 . S
H336 C282 0.930 . S
H337 C285 0.929 . S
H338 C290 0.929 . S
H339 C291 0.930 . S
H340 C298 0.929 . S
H341 C299 0.930 . S
H342 C300 0.930 . S
H343 C301 0.930 . S
H344 C303 0.929 . S
H345 C304 0.930 . S
H346 C305 0.930 . S
H347 C306 0.930 . S
H348 C310 0.929 . S
H349 C312 0.930 . S
H350 C318 0.929 . S
H351 C319 0.930 . S
Li352 N369 1.990 . S
Li352 O412 1.956 . S
Li352 O413 1.970 . S
Li352 O414 1.961 . S
Li353 N377 1.990 . S
Li353 O412 1.970 . S
Li353 O413 1.956 . S
Li353 O415 1.961 . S
Li354 N399 1.990 . S
Li354 O412 1.961 . S
Li354 O414 1.956 . S
Li354 O415 1.970 . S
Li355 N405 1.990 . S
Li355 O413 1.961 . S
Li355 O414 1.970 . S
Li355 O415 1.956 . S
C356 C358 1.348 . S
C356 C359 1.356 . S
C356 O412 1.325 . S
N357 C360 1.314 . S
N357 C361 1.279 . S
C358 C356 1.348 . S
C358 C360 1.353 . S
C358 H416 0.929 . S
C359 C356 1.356 . S
C359 C361 1.358 . S
C359 H417 0.930 . S
C360 N357 1.314 . S
C360 C358 1.353 . S
C360 H418 0.930 . S
C361 N357 1.279 . S
C361 C359 1.358 . S
C361 H419 0.930 . S
C362 C365 1.348 . S
C362 C366 1.356 . S
C362 O413 1.325 . S
C363 N364 1.279 . S
C363 C366 1.358 . S
C363 H420 0.930 . S
N364 C363 1.279 . S
N364 C367 1.314 . S
C365 C362 1.348 . S
C365 C367 1.353 . S
C365 H421 0.929 . S
C366 C362 1.356 . S
C366 C363 1.358 . S
C366 H422 0.930 . S
C367 N364 1.314 . S
C367 C365 1.353 . S
C367 H423 0.930 . S
C368 N369 1.314 . S
C368 C373 1.353 . S
C368 H374 0.930 . S
N369 Li352 1.990 . S
N369 C368 1.314 . S
N369 C371 1.279 . S
C370 C371 1.358 . S
C370 C372 1.356 . S
C370 H424 0.930 . S
C371 N369 1.279 . S
C371 C370 1.358 . S
C371 H375 0.930 . S
C372 C370 1.356 . S
C372 C373 1.348 . S
C373 C368 1.353 . S
C373 C372 1.348 . S
C373 H425 0.929 . S
H374 C368 0.930 . S
H375 C371 0.930 . S
C376 N377 1.314 . S
C376 C378 1.353 . S
C376 H382 0.930 . S
N377 Li353 1.990 . S
N377 C376 1.314 . S
N377 C380 1.279 . S
C378 C376 1.353 . S
C378 C381 1.348 . S
C378 H426 0.929 . S
C379 C380 1.358 . S
C379 C381 1.356 . S
C379 H427 0.930 . S
C380 N377 1.279 . S
C380 C379 1.358 . S
C380 H383 0.930 . S
C381 C378 1.348 . S
C381 C379 1.356 . S
H382 C376 0.930 . S
H383 C380 0.930 . S
C384 C386 1.348 1_455 S
C384 C387 1.356 . S
C384 O414 1.325 . S
N385 C388 1.314 . S
N385 C389 1.279 . S
C386 C384 1.348 1_655 S
C386 C388 1.353 . S
C386 H428 0.929 . S
C387 C384 1.356 . S
C387 C389 1.358 1_455 S
C387 H429 0.930 . S
C388 N385 1.314 . S
C388 C386 1.353 . S
C388 H430 0.930 . S
C389 N385 1.279 . S
C389 C387 1.358 1_655 S
C389 H431 0.930 . S
C390 C391 1.348 . S
C390 C392 1.356 . S
C390 O415 1.325 . S
C391 C390 1.348 . S
C391 C393 1.353 . S
C391 H432 0.929 . S
C392 C390 1.356 . S
C392 C394 1.358 . S
C392 H433 0.930 . S
C393 C391 1.353 . S
C393 N395 1.314 . S
C393 H434 0.930 . S
C394 C392 1.358 . S
C394 N395 1.279 . S
C394 H435 0.930 . S
N395 C393 1.314 . S
N395 C394 1.279 . S
C396 C398 1.353 . S
C396 N399 1.314 . S
C396 H402 0.930 . S
C397 N399 1.279 . S
C397 C400 1.358 . S
C397 H403 0.930 . S
C398 C396 1.353 . S
C398 C401 1.348 . S
C398 H436 0.929 . S
N399 Li354 1.990 . S
N399 C396 1.314 . S
N399 C397 1.279 . S
C400 C397 1.358 . S
C400 C401 1.356 . S
C400 H437 0.930 . S
C401 C398 1.348 . S
C401 C400 1.356 . S
H402 C396 0.930 . S
H403 C397 0.930 . S
C404 N405 1.314 . S
C404 C406 1.353 1_455 S
C404 H410 0.930 . S
N405 Li355 1.990 . S
N405 C404 1.314 . S
N405 C408 1.279 . S
C406 C404 1.353 1_655 S
C406 C409 1.348 . S
C406 H438 0.929 . S
C407 C408 1.358 1_655 S
C407 C409 1.356 . S
C407 H439 0.930 . S
C408 N405 1.279 . S
C408 C407 1.358 1_455 S
C408 H411 0.930 . S
C409 C406 1.348 . S
C409 C407 1.356 . S
H410 C404 0.930 . S
H411 C408 0.930 . S
O412 Li352 1.956 . S
O412 Li353 1.970 . S
O412 Li354 1.961 . S
O412 C356 1.325 . S
O413 Li352 1.970 . S
O413 Li353 1.956 . S
O413 Li355 1.961 . S
O413 C362 1.325 . S
O414 Li352 1.961 . S
O414 Li354 1.956 . S
O414 Li355 1.970 . S
O414 C384 1.325 . S
O415 Li353 1.961 . S
O415 Li354 1.970 . S
O415 Li355 1.956 . S
O415 C390 1.325 . S
H416 C358 0.929 . S
H417 C359 0.930 . S
H418 C360 0.930 . S
H419 C361 0.930 . S
H420 C363 0.930 . S
H421 C365 0.929 . S
H422 C366 0.930 . S
H423 C367 0.930 . S
H424 C370 0.930 . S
H425 C373 0.929 . S
H426 C378 0.929 . S
H427 C379 0.930 . S
H428 C386 0.929 . S
H429 C387 0.930 . S
H430 C388 0.930 . S
H431 C389 0.930 . S
H432 C391 0.929 . S
H433 C392 0.930 . S
H434 C393 0.930 . S
H435 C394 0.930 . S
H436 C398 0.929 . S
H437 C400 0.930 . S
H438 C406 0.929 . S
H439 C407 0.930 . S
Li440 N457 1.990 . S
Li440 O500 1.956 . S
Li440 O501 1.970 . S
Li440 O502 1.961 . S
Li441 N465 1.990 . S
Li441 O500 1.970 . S
Li441 O501 1.956 . S
Li441 O503 1.961 . S
Li442 N487 1.990 . S
Li442 O500 1.961 . S
Li442 O502 1.956 . S
Li442 O503 1.970 . S
Li443 N493 1.990 . S
Li443 O501 1.961 . S
Li443 O502 1.970 . S
Li443 O503 1.956 . S
C444 C446 1.348 . S
C444 C447 1.356 . S
C444 O500 1.325 . S
N445 C448 1.314 . S
N445 C449 1.279 . S
C446 C444 1.348 . S
C446 C448 1.353 . S
C446 H504 0.929 . S
C447 C444 1.356 . S
C447 C449 1.358 . S
C447 H505 0.930 . S
C448 N445 1.314 . S
C448 C446 1.353 . S
C448 H506 0.930 . S
C449 N445 1.279 . S
C449 C447 1.358 . S
C449 H507 0.930 . S
C450 C453 1.348 . S
C450 C454 1.356 . S
C450 O501 1.325 . S
C451 N452 1.279 . S
C451 C454 1.358 . S
C451 H508 0.930 . S
N452 C451 1.279 . S
N452 C455 1.314 . S
C453 C450 1.348 . S
C453 C455 1.353 . S
C453 H509 0.929 . S
C454 C450 1.356 . S
C454 C451 1.358 . S
C454 H510 0.930 . S
C455 N452 1.314 . S
C455 C453 1.353 . S
C455 H511 0.930 . S
C456 N457 1.314 . S
C456 C461 1.353 . S
C456 H462 0.930 . S
N457 Li440 1.990 . S
N457 C456 1.314 . S
N457 C459 1.279 . S
C458 C459 1.358 . S
C458 C460 1.356 . S
C458 H512 0.930 . S
C459 N457 1.279 . S
C459 C458 1.358 . S
C459 H463 0.930 . S
C460 C458 1.356 . S
C460 C461 1.348 . S
C461 C456 1.353 . S
C461 C460 1.348 . S
C461 H513 0.929 . S
H462 C456 0.930 . S
H463 C459 0.930 . S
C464 N465 1.314 . S
C464 C466 1.353 . S
C464 H470 0.930 . S
N465 Li441 1.990 . S
N465 C464 1.314 . S
N465 C468 1.279 . S
C466 C464 1.353 . S
C466 C469 1.348 . S
C466 H514 0.929 . S
C467 C468 1.358 . S
C467 C469 1.356 . S
C467 H515 0.930 . S
C468 N465 1.279 . S
C468 C467 1.358 . S
C468 H471 0.930 . S
C469 C466 1.348 . S
C469 C467 1.356 . S
H470 C464 0.930 . S
H471 C468 0.930 . S
C472 C474 1.348 . S
C472 C475 1.356 . S
C472 O502 1.325 . S
N473 C476 1.314 . S
N473 C477 1.279 . S
C474 C472 1.348 . S
C474 C476 1.353 . S
C474 H516 0.929 . S
C475 C472 1.356 . S
C475 C477 1.358 . S
C475 H517 0.930 . S
C476 N473 1.314 . S
C476 C474 1.353 . S
C476 H518 0.930 . S
C477 N473 1.279 . S
C477 C475 1.358 . S
C477 H519 0.930 . S
C478 C479 1.348 . S
C478 C480 1.356 . S
C478 O503 1.325 . S
C479 C478 1.348 . S
C479 C481 1.353 . S
C479 H520 0.929 . S
C480 C478 1.356 . S
C480 C482 1.358 . S
C480 H521 0.930 . S
C481 C479 1.353 . S
C481 N483 1.314 . S
C481 H522 0.930 . S
C482 C480 1.358 . S
C482 N483 1.279 . S
C482 H523 0.930 . S
N483 C481 1.314 . S
N483 C482 1.279 . S
C484 C486 1.353 . S
C484 N487 1.314 . S
C484 H490 0.930 . S
C485 N487 1.279 . S
C485 C488 1.358 . S
C485 H491 0.930 . S
C486 C484 1.353 . S
C486 C489 1.348 . S
C486 H524 0.929 . S
N487 Li442 1.990 . S
N487 C484 1.314 . S
N487 C485 1.279 . S
C488 C485 1.358 . S
C488 C489 1.356 . S
C488 H525 0.930 . S
C489 C486 1.348 . S
C489 C488 1.356 . S
H490 C484 0.930 . S
H491 C485 0.930 . S
C492 N493 1.314 . S
C492 C494 1.353 . S
C492 H498 0.930 . S
N493 Li443 1.990 . S
N493 C492 1.314 . S
N493 C496 1.279 . S
C494 C492 1.353 . S
C494 C497 1.348 . S
C494 H526 0.929 . S
C495 C496 1.358 . S
C495 C497 1.356 . S
C495 H527 0.930 . S
C496 N493 1.279 . S
C496 C495 1.358 . S
C496 H499 0.930 . S
C497 C494 1.348 . S
C497 C495 1.356 . S
H498 C492 0.930 . S
H499 C496 0.930 . S
O500 Li440 1.956 . S
O500 Li441 1.970 . S
O500 Li442 1.961 . S
O500 C444 1.325 . S
O501 Li440 1.970 . S
O501 Li441 1.956 . S
O501 Li443 1.961 . S
O501 C450 1.325 . S
O502 Li440 1.961 . S
O502 Li442 1.956 . S
O502 Li443 1.970 . S
O502 C472 1.325 . S
O503 Li441 1.961 . S
O503 Li442 1.970 . S
O503 Li443 1.956 . S
O503 C478 1.325 . S
H504 C446 0.929 . S
H505 C447 0.930 . S
H506 C448 0.930 . S
H507 C449 0.930 . S
H508 C451 0.930 . S
H509 C453 0.929 . S
H510 C454 0.930 . S
H511 C455 0.930 . S
H512 C458 0.930 . S
H513 C461 0.929 . S
H514 C466 0.929 . S
H515 C467 0.930 . S
H516 C474 0.929 . S
H517 C475 0.930 . S
H518 C476 0.930 . S
H519 C477 0.930 . S
H520 C479 0.929 . S
H521 C480 0.930 . S
H522 C481 0.930 . S
H523 C482 0.930 . S
H524 C486 0.929 . S
H525 C488 0.930 . S
H526 C494 0.929 . S
H527 C495 0.930 . S
Li528 N545 1.990 . S
Li528 O588 1.956 . S
Li528 O589 1.970 . S
Li528 O590 1.961 . S
Li529 N553 1.990 . S
Li529 O588 1.970 . S
Li529 O589 1.956 . S
Li529 O591 1.961 . S
Li530 N575 1.990 . S
Li530 O588 1.961 . S
Li530 O590 1.956 . S
Li530 O591 1.970 . S
Li531 N581 1.990 . S
Li531 O589 1.961 . S
Li531 O590 1.970 . S
Li531 O591 1.956 . S
C532 C534 1.348 . S
C532 C535 1.356 . S
C532 O588 1.325 . S
N533 C536 1.314 . S
N533 C537 1.279 . S
C534 C532 1.348 . S
C534 C536 1.353 . S
C534 H592 0.929 . S
C535 C532 1.356 . S
C535 C537 1.358 . S
C535 H593 0.930 . S
C536 N533 1.314 . S
C536 C534 1.353 . S
C536 H594 0.930 . S
C537 N533 1.279 . S
C537 C535 1.358 . S
C537 H595 0.930 . S
C538 C541 1.348 . S
C538 C542 1.356 . S
C538 O589 1.325 . S
C539 N540 1.279 . S
C539 C542 1.358 . S
C539 H596 0.930 . S
N540 C539 1.279 . S
N540 C543 1.314 . S
C541 C538 1.348 . S
C541 C543 1.353 . S
C541 H597 0.929 . S
C542 C538 1.356 . S
C542 C539 1.358 . S
C542 H598 0.930 . S
C543 N540 1.314 . S
C543 C541 1.353 . S
C543 H599 0.930 . S
C544 N545 1.314 . S
C544 C549 1.353 . S
C544 H550 0.930 . S
N545 Li528 1.990 . S
N545 C544 1.314 . S
N545 C547 1.279 . S
C546 C547 1.358 . S
C546 C548 1.356 . S
C546 H600 0.930 . S
C547 N545 1.279 . S
C547 C546 1.358 . S
C547 H551 0.930 . S
C548 C546 1.356 . S
C548 C549 1.348 . S
C549 C544 1.353 . S
C549 C548 1.348 . S
C549 H601 0.929 . S
H550 C544 0.930 . S
H551 C547 0.930 . S
C552 N553 1.314 . S
C552 C554 1.353 . S
C552 H558 0.930 . S
N553 Li529 1.990 . S
N553 C552 1.314 . S
N553 C556 1.279 . S
C554 C552 1.353 . S
C554 C557 1.348 . S
C554 H602 0.929 . S
C555 C556 1.358 . S
C555 C557 1.356 . S
C555 H603 0.930 . S
C556 N553 1.279 . S
C556 C555 1.358 . S
C556 H559 0.930 . S
C557 C554 1.348 . S
C557 C555 1.356 . S
H558 C552 0.930 . S
H559 C556 0.930 . S
C560 C562 1.348 . S
C560 C563 1.356 . S
C560 O590 1.325 . S
N561 C564 1.314 . S
N561 C565 1.279 . S
C562 C560 1.348 . S
C562 C564 1.353 . S
C562 H604 0.929 . S
C563 C560 1.356 . S
C563 C565 1.358 . S
C563 H605 0.930 . S
C564 N561 1.314 . S
C564 C562 1.353 . S
C564 H606 0.930 . S
C565 N561 1.279 . S
C565 C563 1.358 . S
C565 H607 0.930 . S
C566 C567 1.348 . S
C566 C568 1.356 . S
C566 O591 1.325 . S
C567 C566 1.348 . S
C567 C569 1.353 . S
C567 H608 0.929 . S
C568 C566 1.356 . S
C568 C570 1.358 . S
C568 H609 0.930 . S
C569 C567 1.353 . S
C569 N571 1.314 . S
C569 H610 0.930 . S
C570 C568 1.358 . S
C570 N571 1.279 . S
C570 H611 0.930 . S
N571 C569 1.314 . S
N571 C570 1.279 . S
C572 C574 1.353 . S
C572 N575 1.314 . S
C572 H578 0.930 . S
C573 N575 1.279 . S
C573 C576 1.358 . S
C573 H579 0.930 . S
C574 C572 1.353 . S
C574 C577 1.348 . S
C574 H612 0.929 . S
N575 Li530 1.990 . S
N575 C572 1.314 . S
N575 C573 1.279 . S
C576 C573 1.358 . S
C576 C577 1.356 . S
C576 H613 0.930 . S
C577 C574 1.348 . S
C577 C576 1.356 . S
H578 C572 0.930 . S
H579 C573 0.930 . S
C580 N581 1.314 . S
C580 C582 1.353 . S
C580 H586 0.930 . S
N581 Li531 1.990 . S
N581 C580 1.314 . S
N581 C584 1.279 . S
C582 C580 1.353 . S
C582 C585 1.348 . S
C582 H614 0.929 . S
C583 C584 1.358 . S
C583 C585 1.356 . S
C583 H615 0.930 . S
C584 N581 1.279 . S
C584 C583 1.358 . S
C584 H587 0.930 . S
C585 C582 1.348 . S
C585 C583 1.356 . S
H586 C580 0.930 . S
H587 C584 0.930 . S
O588 Li528 1.956 . S
O588 Li529 1.970 . S
O588 Li530 1.961 . S
O588 C532 1.325 . S
O589 Li528 1.970 . S
O589 Li529 1.956 . S
O589 Li531 1.961 . S
O589 C538 1.325 . S
O590 Li528 1.961 . S
O590 Li530 1.956 . S
O590 Li531 1.970 . S
O590 C560 1.325 . S
O591 Li529 1.961 . S
O591 Li530 1.970 . S
O591 Li531 1.956 . S
O591 C566 1.325 . S
H592 C534 0.929 . S
H593 C535 0.930 . S
H594 C536 0.930 . S
H595 C537 0.930 . S
H596 C539 0.930 . S
H597 C541 0.929 . S
H598 C542 0.930 . S
H599 C543 0.930 . S
H600 C546 0.930 . S
H601 C549 0.929 . S
H602 C554 0.929 . S
H603 C555 0.930 . S
H604 C562 0.929 . S
H605 C563 0.930 . S
H606 C564 0.930 . S
H607 C565 0.930 . S
H608 C567 0.929 . S
H609 C568 0.930 . S
H610 C569 0.930 . S
H611 C570 0.930 . S
H612 C574 0.929 . S
H613 C576 0.930 . S
H614 C582 0.929 . S
H615 C583 0.930 . S
Li616 N633 1.990 . S
Li616 O676 1.956 1_455 S
Li616 O677 1.970 . S
Li616 O678 1.961 . S
Li617 N641 1.990 . S
Li617 O676 1.970 . S
Li617 O677 1.956 1_655 S
Li617 O679 1.961 1_655 S
Li618 N663 1.990 . S
Li618 O676 1.961 1_455 S
Li618 O678 1.956 . S
Li618 O679 1.970 . S
Li619 N669 1.990 . S
Li619 O677 1.961 . S
Li619 O678 1.970 . S
Li619 O679 1.956 . S
C620 C622 1.348 . S
C620 C623 1.356 . S
C620 O676 1.325 . S
N621 C624 1.314 . S
N621 C625 1.279 . S
C622 C620 1.348 . S
C622 C624 1.353 . S
C622 H680 0.929 . S
C623 C620 1.356 . S
C623 C625 1.358 . S
C623 H681 0.930 . S
C624 N621 1.314 . S
C624 C622 1.353 . S
C624 H682 0.930 . S
C625 N621 1.279 . S
C625 C623 1.358 . S
C625 H683 0.930 1_556 S
C626 C629 1.348 . S
C626 C630 1.356 . S
C626 O677 1.325 . S
C627 N628 1.279 . S
C627 C630 1.358 . S
C627 H684 0.930 . S
N628 C627 1.279 . S
N628 C631 1.314 . S
C629 C626 1.348 . S
C629 C631 1.353 . S
C629 H685 0.929 . S
C630 C626 1.356 . S
C630 C627 1.358 . S
C630 H686 0.930 . S
C631 N628 1.314 . S
C631 C629 1.353 . S
C631 H687 0.930 . S
C632 N633 1.314 . S
C632 C637 1.353 . S
C632 H638 0.930 . S
N633 Li616 1.990 . S
N633 C632 1.314 . S
N633 C635 1.279 . S
C634 C635 1.358 1_554 S
C634 C636 1.356 . S
C634 H688 0.915 1_455 S
C635 N633 1.279 . S
C635 C634 1.358 1_556 S
C635 H639 0.930 1_455 S
C636 C634 1.356 . S
C636 C637 1.348 1_554 S
C637 C632 1.353 . S
C637 C636 1.348 1_556 S
C637 H689 0.929 . S
H638 C632 0.930 . S
H639 C635 0.930 1_655 S
C640 N641 1.314 . S
C640 C642 1.353 . S
C640 H646 0.930 . S
N641 Li617 1.990 . S
N641 C640 1.314 . S
N641 C644 1.279 . S
C642 C640 1.353 . S
C642 C645 1.348 . S
C642 H690 0.929 . S
C643 C644 1.358 . S
C643 C645 1.356 . S
C643 H691 0.930 . S
C644 N641 1.279 . S
C644 C643 1.358 . S
C644 H647 0.930 . S
C645 C642 1.348 . S
C645 C643 1.356 . S
H646 C640 0.930 . S
H647 C644 0.930 . S
C648 C650 1.348 . S
C648 C651 1.356 . S
C648 O678 1.325 . S
N649 C652 1.314 1_554 S
N649 C653 1.279 . S
C650 C648 1.348 . S
C650 C652 1.353 . S
C650 H692 0.929 . S
C651 C648 1.356 . S
C651 C653 1.358 1_556 S
C651 H693 0.930 . S
C652 N649 1.314 1_556 S
C652 C650 1.353 . S
C652 H694 0.930 . S
C653 N649 1.279 . S
C653 C651 1.358 1_554 S
C653 H695 0.930 . S
C654 C655 1.348 . S
C654 C656 1.354 1_455 S
C654 O679 1.325 . S
C655 C654 1.348 . S
C655 C657 1.353 . S
C655 H696 0.929 . S
C656 C654 1.354 1_655 S
C656 C658 1.356 . S
C656 H697 0.934 . S
C657 C655 1.353 . S
C657 N659 1.317 . S
C657 H698 0.930 . S
C658 C656 1.356 . S
C658 N659 1.275 1_655 S
C658 H699 0.930 . S
N659 C657 1.317 . S
N659 C658 1.275 1_455 S
C660 C662 1.353 . S
C660 N663 1.314 1_655 S
C660 H666 0.930 . S
C661 N663 1.279 . S
C661 C664 1.358 . S
C661 H667 0.930 . S
C662 C660 1.353 . S
C662 C665 1.348 1_655 S
C662 H700 0.929 . S
N663 Li618 1.990 . S
N663 C660 1.314 1_455 S
N663 C661 1.279 . S
C664 C661 1.358 . S
C664 C665 1.356 . S
C664 H701 0.930 1_556 S
C665 C662 1.348 1_455 S
C665 C664 1.356 . S
H666 C660 0.930 . S
H667 C661 0.930 . S
C668 N669 1.314 . S
C668 C670 1.353 . S
C668 H674 0.930 . S
N669 Li619 1.990 . S
N669 C668 1.314 . S
N669 C672 1.279 . S
C670 C668 1.353 . S
C670 C673 1.348 . S
C670 H702 0.929 . S
C671 C672 1.358 . S
C671 C673 1.356 . S
C671 H703 0.930 . S
C672 N669 1.279 . S
C672 C671 1.358 . S
C672 H675 0.930 . S
C673 C670 1.348 . S
C673 C671 1.356 . S
H674 C668 0.930 . S
H675 C672 0.930 . S
O676 Li616 1.956 1_655 S
O676 Li617 1.970 . S
O676 Li618 1.961 1_655 S
O676 C620 1.325 . S
O677 Li616 1.970 . S
O677 Li617 1.956 1_455 S
O677 Li619 1.961 . S
O677 C626 1.325 . S
O678 Li616 1.961 . S
O678 Li618 1.956 . S
O678 Li619 1.970 . S
O678 C648 1.325 . S
O679 Li617 1.961 1_455 S
O679 Li618 1.970 . S
O679 Li619 1.956 . S
O679 C654 1.325 . S
H680 C622 0.929 . S
H681 C623 0.930 . S
H682 C624 0.930 . S
H683 C625 0.930 1_554 S
H684 C627 0.930 . S
H685 C629 0.929 . S
H686 C630 0.930 . S
H687 C631 0.930 . S
H688 C634 0.915 1_655 S
H689 C637 0.929 . S
H690 C642 0.929 . S
H691 C643 0.930 . S
H692 C650 0.929 . S
H693 C651 0.930 . S
H694 C652 0.930 . S
H695 C653 0.930 . S
H696 C655 0.929 . S
H697 C656 0.934 . S
H698 C657 0.930 . S
H699 C658 0.930 . S
H700 C662 0.929 . S
H701 C664 0.930 1_554 S
H702 C670 0.929 . S
H703 C671 0.930 . S
Li704 N721 1.990 . S
Li704 O764 1.956 1_545 S
Li704 O765 1.970 . S
Li704 O766 1.961 . S
Li705 N729 1.990 . S
Li705 O764 1.970 . S
Li705 O765 1.956 1_565 S
Li705 O767 1.961 1_565 S
Li706 N751 1.990 . S
Li706 O764 1.961 1_545 S
Li706 O766 1.956 . S
Li706 O767 1.970 . S
Li707 N757 1.990 . S
Li707 O765 1.961 . S
Li707 O766 1.970 . S
Li707 O767 1.956 . S
C708 C710 1.348 . S
C708 C711 1.356 . S
C708 O764 1.325 . S
N709 C712 1.314 . S
N709 C713 1.279 . S
C710 C708 1.348 . S
C710 C712 1.353 . S
C710 H768 0.929 . S
C711 C708 1.356 . S
C711 C713 1.358 . S
C711 H769 0.944 . S
C712 N709 1.314 . S
C712 C710 1.353 . S
C712 H770 0.930 . S
C713 N709 1.279 . S
C713 C711 1.358 . S
C713 H771 0.930 . S
C714 C717 1.348 . S
C714 C718 1.356 . S
C714 O765 1.325 . S
C715 N716 1.279 . S
C715 C718 1.358 . S
C715 H772 0.930 . S
N716 C715 1.279 . S
N716 C719 1.314 . S
C717 C714 1.348 . S
C717 C719 1.353 . S
C717 H773 0.929 . S
C718 C714 1.356 . S
C718 C715 1.358 . S
C718 H774 0.930 . S
C719 N716 1.314 . S
C719 C717 1.353 . S
C719 H775 0.930 . S
C720 N721 1.314 . S
C720 C725 1.353 . S
C720 H726 0.930 . S
N721 Li704 1.990 . S
N721 C720 1.314 . S
N721 C723 1.279 . S
C722 C723 1.358 . S
C722 C724 1.356 . S
C722 H776 0.930 . S
C723 N721 1.279 . S
C723 C722 1.358 . S
C723 H727 0.930 1_545 S
C724 C722 1.356 . S
C724 C725 1.348 . S
C725 C720 1.353 . S
C725 C724 1.348 . S
C725 H777 0.929 . S
H726 C720 0.930 . S
H727 C723 0.930 1_565 S
C728 N729 1.314 . S
C728 C730 1.353 . S
C728 H734 0.930 . S
N729 Li705 1.990 . S
N729 C728 1.314 . S
N729 C732 1.279 . S
C730 C728 1.353 . S
C730 C733 1.348 . S
C730 H778 0.929 . S
C731 C732 1.358 . S
C731 C733 1.356 . S
C731 H779 0.930 . S
C732 N729 1.279 . S
C732 C731 1.358 . S
C732 H735 0.930 . S
C733 C730 1.348 . S
C733 C731 1.356 . S
H734 C728 0.930 . S
H735 C732 0.930 . S
C736 C738 1.348 . S
C736 C739 1.356 . S
C736 O766 1.325 . S
N737 C740 1.314 . S
N737 C741 1.279 . S
C738 C736 1.348 . S
C738 C740 1.353 . S
C738 H780 0.929 . S
C739 C736 1.356 . S
C739 C741 1.358 . S
C739 H781 0.930 . S
C740 N737 1.314 . S
C740 C738 1.353 . S
C740 H782 0.930 . S
C741 N737 1.279 . S
C741 C739 1.358 . S
C741 H783 0.930 . S
C742 C743 1.348 . S
C742 C744 1.356 . S
C742 O767 1.325 . S
C743 C742 1.348 . S
C743 C745 1.353 . S
C743 H784 0.929 . S
C744 C742 1.356 . S
C744 C746 1.358 . S
C744 H785 0.930 . S
C745 C743 1.353 . S
C745 N747 1.314 . S
C745 H786 0.930 . S
C746 C744 1.358 . S
C746 N747 1.279 . S
C746 H787 0.930 1_545 S
N747 C745 1.314 . S
N747 C746 1.279 . S
C748 C750 1.353 . S
C748 N751 1.314 . S
C748 H754 0.930 1_545 S
C749 N751 1.279 . S
C749 C752 1.358 . S
C749 H755 0.930 . S
C750 C748 1.353 . S
C750 C753 1.348 . S
C750 H788 0.929 1_545 S
N751 Li706 1.990 . S
N751 C748 1.314 . S
N751 C749 1.279 . S
C752 C749 1.358 . S
C752 C753 1.356 . S
C752 H789 0.930 . S
C753 C750 1.348 . S
C753 C752 1.356 . S
H754 C748 0.930 1_565 S
H755 C749 0.930 . S
C756 N757 1.314 . S
C756 C758 1.353 . S
C756 H762 0.930 . S
N757 Li707 1.990 . S
N757 C756 1.314 . S
N757 C760 1.279 . S
C758 C756 1.353 . S
C758 C761 1.348 . S
C758 H790 0.929 . S
C759 C760 1.358 . S
C759 C761 1.356 . S
C759 H791 0.930 . S
C760 N757 1.279 . S
C760 C759 1.358 . S
C760 H763 0.930 . S
C761 C758 1.348 . S
C761 C759 1.356 . S
H762 C756 0.930 . S
H763 C760 0.930 . S
O764 Li704 1.956 1_565 S
O764 Li705 1.970 . S
O764 Li706 1.961 1_565 S
O764 C708 1.325 . S
O765 Li704 1.970 . S
O765 Li705 1.956 1_545 S
O765 Li707 1.961 . S
O765 C714 1.325 . S
O766 Li704 1.961 . S
O766 Li706 1.956 . S
O766 Li707 1.970 . S
O766 C736 1.325 . S
O767 Li705 1.961 1_545 S
O767 Li706 1.970 . S
O767 Li707 1.956 . S
O767 C742 1.325 . S
H768 C710 0.929 . S
H769 C711 0.944 . S
H770 C712 0.930 . S
H771 C713 0.930 . S
H772 C715 0.930 . S
H773 C717 0.929 . S
H774 C718 0.930 . S
H775 C719 0.930 . S
H776 C722 0.930 . S
H777 C725 0.929 . S
H778 C730 0.929 . S
H779 C731 0.930 . S
H780 C738 0.929 . S
H781 C739 0.930 . S
H782 C740 0.930 . S
H783 C741 0.930 . S
H784 C743 0.929 . S
H785 C744 0.930 . S
H786 C745 0.930 . S
H787 C746 0.930 1_565 S
H788 C750 0.929 1_565 S
H789 C752 0.930 . S
H790 C758 0.929 . S
H791 C759 0.930 . S
Li792 N809 1.990 . S
Li792 O852 1.956 . S
Li792 O853 1.970 . S
Li792 O854 1.961 . S
Li793 N817 1.990 . S
Li793 O852 1.970 . S
Li793 O853 1.956 . S
Li793 O855 1.961 . S
Li794 N839 1.990 . S
Li794 O852 1.961 . S
Li794 O854 1.956 . S
Li794 O855 1.970 . S
Li795 N845 1.990 . S
Li795 O853 1.961 . S
Li795 O854 1.970 . S
Li795 O855 1.956 . S
C796 C798 1.348 . S
C796 C799 1.356 . S
C796 O852 1.325 . S
N797 C800 1.314 . S
N797 C801 1.279 . S
C798 C796 1.348 . S
C798 C800 1.353 . S
C798 H856 0.929 . S
C799 C796 1.356 . S
C799 C801 1.358 . S
C799 H857 0.930 . S
C800 N797 1.314 . S
C800 C798 1.353 . S
C800 H858 0.930 . S
C801 N797 1.279 . S
C801 C799 1.358 . S
C801 H859 0.930 . S
C802 C805 1.348 . S
C802 C806 1.356 . S
C802 O853 1.325 . S
C803 N804 1.279 . S
C803 C806 1.358 . S
C803 H860 0.930 . S
N804 C803 1.279 . S
N804 C807 1.314 . S
C805 C802 1.348 . S
C805 C807 1.353 . S
C805 H861 0.929 . S
C806 C802 1.356 . S
C806 C803 1.358 . S
C806 H862 0.930 . S
C807 N804 1.314 . S
C807 C805 1.353 . S
C807 H863 0.930 . S
C808 N809 1.314 . S
C808 C813 1.353 . S
C808 H814 0.930 . S
N809 Li792 1.990 . S
N809 C808 1.314 . S
N809 C811 1.279 . S
C810 C811 1.358 . S
C810 C812 1.356 . S
C810 H864 0.930 . S
C811 N809 1.279 . S
C811 C810 1.358 . S
C811 H815 0.930 . S
C812 C810 1.356 . S
C812 C813 1.348 . S
C813 C808 1.353 . S
C813 C812 1.348 . S
C813 H865 0.929 . S
H814 C808 0.930 . S
H815 C811 0.930 . S
C816 N817 1.314 . S
C816 C818 1.353 . S
C816 H822 0.930 . S
N817 Li793 1.990 . S
N817 C816 1.314 . S
N817 C820 1.279 . S
C818 C816 1.353 . S
C818 C821 1.348 . S
C818 H866 0.929 . S
C819 C820 1.358 . S
C819 C821 1.356 . S
C819 H867 0.930 . S
C820 N817 1.279 . S
C820 C819 1.358 . S
C820 H823 0.930 . S
C821 C818 1.348 . S
C821 C819 1.356 . S
H822 C816 0.930 . S
H823 C820 0.930 . S
C824 C826 1.348 . S
C824 C827 1.356 . S
C824 O854 1.325 . S
N825 C828 1.314 . S
N825 C829 1.279 . S
C826 C824 1.348 . S
C826 C828 1.353 . S
C826 H868 0.929 . S
C827 C824 1.356 . S
C827 C829 1.358 . S
C827 H869 0.930 . S
C828 N825 1.314 . S
C828 C826 1.353 . S
C828 H870 0.930 . S
C829 N825 1.279 . S
C829 C827 1.358 . S
C829 H871 0.930 . S
C830 C831 1.348 . S
C830 C832 1.356 . S
C830 O855 1.325 . S
C831 C830 1.348 . S
C831 C833 1.353 . S
C831 H872 0.929 . S
C832 C830 1.356 . S
C832 C834 1.358 . S
C832 H873 0.930 . S
C833 C831 1.353 . S
C833 N835 1.314 . S
C833 H874 0.930 . S
C834 C832 1.358 . S
C834 N835 1.279 . S
C834 H875 0.930 . S
N835 C833 1.314 . S
N835 C834 1.279 . S
C836 C838 1.353 . S
C836 N839 1.314 . S
C836 H842 0.930 . S
C837 N839 1.279 . S
C837 C840 1.358 . S
C837 H843 0.930 . S
C838 C836 1.353 . S
C838 C841 1.348 . S
C838 H876 0.929 . S
N839 Li794 1.990 . S
N839 C836 1.314 . S
N839 C837 1.279 . S
C840 C837 1.358 . S
C840 C841 1.356 . S
C840 H877 0.930 . S
C841 C838 1.348 . S
C841 C840 1.356 . S
H842 C836 0.930 . S
H843 C837 0.930 . S
C844 N845 1.314 . S
C844 C846 1.353 . S
C844 H850 0.930 . S
N845 Li795 1.990 . S
N845 C844 1.314 . S
N845 C848 1.279 . S
C846 C844 1.353 . S
C846 C849 1.348 . S
C846 H878 0.929 . S
C847 C848 1.358 . S
C847 C849 1.356 . S
C847 H879 0.930 . S
C848 N845 1.279 . S
C848 C847 1.358 . S
C848 H851 0.930 . S
C849 C846 1.348 . S
C849 C847 1.356 . S
H850 C844 0.930 . S
H851 C848 0.930 . S
O852 Li792 1.956 . S
O852 Li793 1.970 . S
O852 Li794 1.961 . S
O852 C796 1.325 . S
O853 Li792 1.970 . S
O853 Li793 1.956 . S
O853 Li795 1.961 . S
O853 C802 1.325 . S
O854 Li792 1.961 . S
O854 Li794 1.956 . S
O854 Li795 1.970 . S
O854 C824 1.325 . S
O855 Li793 1.961 . S
O855 Li794 1.970 . S
O855 Li795 1.956 . S
O855 C830 1.325 . S
H856 C798 0.929 . S
H857 C799 0.930 . S
H858 C800 0.930 . S
H859 C801 0.930 . S
H860 C803 0.930 . S
H861 C805 0.929 . S
H862 C806 0.930 . S
H863 C807 0.930 . S
H864 C810 0.930 . S
H865 C813 0.929 . S
H866 C818 0.929 . S
H867 C819 0.930 . S
H868 C826 0.929 . S
H869 C827 0.930 . S
H870 C828 0.930 . S
H871 C829 0.930 . S
H872 C831 0.929 . S
H873 C832 0.930 . S
H874 C833 0.930 . S
H875 C834 0.930 . S
H876 C838 0.929 . S
H877 C840 0.930 . S
H878 C846 0.929 . S
H879 C847 0.930 . S
Li880 N897 1.990 . S
Li880 O940 1.956 . S
Li880 O941 1.970 . S
Li880 O942 1.961 . S
Li881 N905 1.990 . S
Li881 O940 1.970 . S
Li881 O941 1.956 . S
Li881 O943 1.961 . S
Li882 N927 1.990 1_545 S
Li882 O940 1.961 . S
Li882 O942 1.956 . S
Li882 O943 1.970 . S
Li883 N933 1.990 . S
Li883 O941 1.961 . S
Li883 O942 1.970 . S
Li883 O943 1.956 . S
C884 C886 1.348 . S
C884 C887 1.356 . S
C884 O940 1.325 . S
N885 C888 1.314 . S
N885 C889 1.279 . S
C886 C884 1.348 . S
C886 C888 1.353 . S
C886 H944 0.929 . S
C887 C884 1.356 . S
C887 C889 1.358 . S
C887 H945 0.930 . S
C888 N885 1.314 . S
C888 C886 1.353 . S
C888 H946 0.930 . S
C889 N885 1.279 . S
C889 C887 1.358 . S
C889 H947 0.930 . S
C890 C893 1.348 . S
C890 C894 1.356 . S
C890 O941 1.325 . S
C891 N892 1.279 . S
C891 C894 1.358 . S
C891 H948 0.930 . S
N892 C891 1.279 . S
N892 C895 1.314 . S
C893 C890 1.348 . S
C893 C895 1.353 . S
C893 H949 0.929 . S
C894 C890 1.356 . S
C894 C891 1.358 . S
C894 H950 0.930 . S
C895 N892 1.314 . S
C895 C893 1.353 . S
C895 H951 0.930 . S
C896 N897 1.314 . S
C896 C901 1.353 . S
C896 H902 0.930 . S
N897 Li880 1.990 . S
N897 C896 1.314 . S
N897 C899 1.279 . S
C898 C899 1.358 . S
C898 C900 1.356 . S
C898 H952 0.930 . S
C899 N897 1.279 . S
C899 C898 1.358 . S
C899 H903 0.930 . S
C900 C898 1.356 . S
C900 C901 1.348 . S
C901 C896 1.353 . S
C901 C900 1.348 . S
C901 H953 0.929 . S
H902 C896 0.930 . S
H903 C899 0.930 . S
C904 N905 1.314 . S
C904 C906 1.353 . S
C904 H910 0.930 . S
N905 Li881 1.990 . S
N905 C904 1.314 . S
N905 C908 1.279 . S
C906 C904 1.353 . S
C906 C909 1.348 . S
C906 H954 0.924 1_545 S
C907 C908 1.358 . S
C907 C909 1.356 . S
C907 H955 0.930 . S
C908 N905 1.279 . S
C908 C907 1.358 . S
C908 H911 0.930 . S
C909 C906 1.348 . S
C909 C907 1.356 . S
H910 C904 0.930 . S
H911 C908 0.930 . S
C912 C914 1.348 . S
C912 C915 1.356 . S
C912 O942 1.325 . S
N913 C916 1.314 . S
N913 C917 1.279 . S
C914 C912 1.348 . S
C914 C916 1.353 . S
C914 H956 0.929 . S
C915 C912 1.356 . S
C915 C917 1.358 . S
C915 H957 0.930 . S
C916 N913 1.314 . S
C916 C914 1.353 . S
C916 H958 0.930 . S
C917 N913 1.279 . S
C917 C915 1.358 . S
C917 H959 0.930 . S
C918 C919 1.348 . S
C918 C920 1.356 . S
C918 O943 1.325 1_565 S
C919 C918 1.348 . S
C919 C921 1.353 . S
C919 H960 0.929 . S
C920 C918 1.356 . S
C920 C922 1.358 . S
C920 H961 0.930 . S
C921 C919 1.353 . S
C921 N923 1.314 . S
C921 H962 0.930 . S
C922 C920 1.358 . S
C922 N923 1.279 . S
C922 H963 0.930 . S
N923 C921 1.314 . S
N923 C922 1.279 . S
C924 C926 1.353 . S
C924 N927 1.314 . S
C924 H930 0.930 . S
C925 N927 1.279 . S
C925 C928 1.358 . S
C925 H931 0.930 . S
C926 C924 1.353 . S
C926 C929 1.348 . S
C926 H964 0.929 . S
N927 Li882 1.990 1_565 S
N927 C924 1.314 . S
N927 C925 1.279 . S
C928 C925 1.358 . S
C928 C929 1.356 . S
C928 H965 0.930 . S
C929 C926 1.348 . S
C929 C928 1.356 . S
H930 C924 0.930 . S
H931 C925 0.930 . S
C932 N933 1.314 . S
C932 C934 1.353 . S
C932 H938 0.930 . S
N933 Li883 1.990 . S
N933 C932 1.314 . S
N933 C936 1.279 . S
C934 C932 1.353 . S
C934 C937 1.348 . S
C934 H966 0.929 . S
C935 C936 1.361 1_565 S
C935 C937 1.333 1_565 S
C935 H967 0.951 . S
C936 N933 1.279 . S
C936 C935 1.361 1_545 S
C936 H939 0.930 1_545 S
C937 C934 1.348 . S
C937 C935 1.333 1_545 S
H938 C932 0.930 . S
H939 C936 0.930 1_565 S
O940 Li880 1.956 . S
O940 Li881 1.970 . S
O940 Li882 1.961 . S
O940 C884 1.325 . S
O941 Li880 1.970 . S
O941 Li881 1.956 . S
O941 Li883 1.961 . S
O941 C890 1.325 . S
O942 Li880 1.961 . S
O942 Li882 1.956 . S
O942 Li883 1.970 . S
O942 C912 1.325 . S
O943 Li881 1.961 . S
O943 Li882 1.970 . S
O943 Li883 1.956 . S
O943 C918 1.325 1_545 S
H944 C886 0.929 . S
H945 C887 0.930 . S
H946 C888 0.930 . S
H947 C889 0.930 . S
H948 C891 0.930 . S
H949 C893 0.929 . S
H950 C894 0.930 . S
H951 C895 0.930 . S
H952 C898 0.930 . S
H953 C901 0.929 . S
H954 C906 0.924 1_565 S
H955 C907 0.930 . S
H956 C914 0.929 . S
H957 C915 0.930 . S
H958 C916 0.930 . S
H959 C917 0.930 . S
H960 C919 0.929 . S
H961 C920 0.930 . S
H962 C921 0.930 . S
H963 C922 0.930 . S
H964 C926 0.929 . S
H965 C928 0.930 . S
H966 C934 0.929 . S
H967 C935 0.951 . S
Li968 N985 1.990 . S
Li968 O1028 1.972 . S
Li968 O1029 1.971 1_554 S
Li968 O1030 1.941 1_554 S
Li969 N993 1.990 . S
Li969 O1028 1.970 . S
Li969 O1029 1.956 1_554 S
Li969 O1031 1.961 . S
Li970 N1015 1.990 . S
Li970 O1028 1.961 . S
Li970 O1030 1.956 1_554 S
Li970 O1031 1.970 . S
Li971 N1021 1.990 . S
Li971 O1029 1.961 . S
Li971 O1030 1.970 . S
Li971 O1031 1.956 1_556 S
C972 C974 1.348 . S
C972 C975 1.356 . S
C972 O1028 1.325 . S
N973 C976 1.314 . S
N973 C977 1.279 . S
C974 C972 1.348 . S
C974 C976 1.353 . S
C974 H1032 0.929 . S
C975 C972 1.356 . S
C975 C977 1.358 . S
C975 H1033 0.930 . S
C976 N973 1.314 . S
C976 C974 1.353 . S
C976 H1034 0.930 . S
C977 N973 1.279 . S
C977 C975 1.358 . S
C977 H1035 0.930 . S
C978 C981 1.348 . S
C978 C982 1.356 . S
C978 O1029 1.325 . S
C979 N980 1.279 . S
C979 C982 1.358 . S
C979 H1036 0.930 . S
N980 C979 1.279 . S
N980 C983 1.314 . S
C981 C978 1.348 . S
C981 C983 1.353 . S
C981 H1037 0.929 1_556 S
C982 C978 1.356 . S
C982 C979 1.358 . S
C982 H1038 0.930 . S
C983 N980 1.314 . S
C983 C981 1.353 . S
C983 H1039 0.930 . S
C984 N985 1.287 1_556 S
C984 C989 1.353 . S
C984 H990 0.930 . S
N985 Li968 1.990 . S
N985 C984 1.287 1_554 S
N985 C987 1.308 . S
C986 C987 1.358 . S
C986 C988 1.356 1_554 S
C986 H1040 0.930 . S
C987 N985 1.308 . S
C987 C986 1.358 . S
C987 H991 0.930 . S
C988 C986 1.356 1_556 S
C988 C989 1.348 . S
C989 C984 1.353 . S
C989 C988 1.348 . S
C989 H1041 0.929 . S
H990 C984 0.930 . S
H991 C987 0.930 . S
C992 N993 1.314 . S
C992 C994 1.353 . S
C992 H998 0.930 . S
N993 Li969 1.990 . S
N993 C992 1.314 . S
N993 C996 1.279 . S
C994 C992 1.353 . S
C994 C997 1.348 . S
C994 H1042 0.929 . S
C995 C996 1.358 . S
C995 C997 1.356 . S
C995 H1043 0.930 . S
C996 N993 1.279 . S
C996 C995 1.358 . S
C996 H999 0.930 . S
C997 C994 1.348 . S
C997 C995 1.356 . S
H998 C992 0.930 . S
H999 C996 0.930 . S
C1000 C1002 1.348 . S
C1000 C1003 1.356 . S
C1000 O1030 1.325 . S
N1001 C1004 1.314 . S
N1001 C1005 1.279 . S
C1002 C1000 1.348 . S
C1002 C1004 1.353 . S
C1002 H1044 0.929 . S
C1003 C1000 1.356 . S
C1003 C1005 1.358 . S
C1003 H1045 0.930 . S
C1004 N1001 1.314 . S
C1004 C1002 1.353 . S
C1004 H1046 0.930 . S
C1005 N1001 1.279 . S
C1005 C1003 1.358 . S
C1005 H1047 0.930 . S
C1006 C1007 1.332 1_554 S
C1006 C1008 1.367 . S
C1006 O1031 1.328 . S
C1007 C1006 1.332 1_556 S
C1007 C1009 1.353 . S
C1007 H1048 0.929 . S
C1008 C1006 1.367 . S
C1008 C1010 1.358 . S
C1008 H1049 0.930 . S
C1009 C1007 1.353 . S
C1009 N1011 1.324 . S
C1009 H1050 0.930 . S
C1010 C1008 1.358 . S
C1010 N1011 1.269 1_554 S
C1010 H1051 0.930 . S
N1011 C1009 1.324 . S
N1011 C1010 1.269 1_556 S
C1012 C1014 1.353 . S
C1012 N1015 1.314 . S
C1012 H1018 0.930 . S
C1013 N1015 1.279 1_556 S
C1013 C1016 1.358 . S
C1013 H1019 0.930 . S
C1014 C1012 1.353 . S
C1014 C1017 1.348 . S
C1014 H1052 0.929 . S
N1015 Li970 1.990 . S
N1015 C1012 1.314 . S
N1015 C1013 1.279 1_554 S
C1016 C1013 1.358 . S
C1016 C1017 1.356 1_556 S
C1016 H1053 0.930 . S
C1017 C1014 1.348 . S
C1017 C1016 1.356 1_554 S
H1018 C1012 0.930 . S
H1019 C1013 0.930 . S
C1020 N1021 1.314 . S
C1020 C1022 1.353 . S
C1020 H1026 0.930 . S
N1021 Li971 1.990 . S
N1021 C1020 1.314 . S
N1021 C1024 1.279 . S
C1022 C1020 1.353 . S
C1022 C1025 1.348 . S
C1022 H1054 0.929 . S
C1023 C1024 1.358 . S
C1023 C1025 1.356 . S
C1023 H1055 0.930 . S
C1024 N1021 1.279 . S
C1024 C1023 1.358 . S
C1024 H1027 0.930 . S
C1025 C1022 1.348 . S
C1025 C1023 1.356 . S
H1026 C1020 0.930 . S
H1027 C1024 0.930 . S
O1028 Li968 1.972 . S
O1028 Li969 1.970 . S
O1028 Li970 1.961 . S
O1028 C972 1.325 . S
O1029 Li968 1.971 1_556 S
O1029 Li969 1.956 1_556 S
O1029 Li971 1.961 . S
O1029 C978 1.325 . S
O1030 Li968 1.941 1_556 S
O1030 Li970 1.956 1_556 S
O1030 Li971 1.970 . S
O1030 C1000 1.325 . S
O1031 Li969 1.961 . S
O1031 Li970 1.970 . S
O1031 Li971 1.956 1_554 S
O1031 C1006 1.328 . S
H1032 C974 0.929 . S
H1033 C975 0.930 . S
H1034 C976 0.930 . S
H1035 C977 0.930 . S
H1036 C979 0.930 . S
H1037 C981 0.929 1_554 S
H1038 C982 0.930 . S
H1039 C983 0.930 . S
H1040 C986 0.930 . S
H1041 C989 0.929 . S
H1042 C994 0.929 . S
H1043 C995 0.930 . S
H1044 C1002 0.929 . S
H1045 C1003 0.930 . S
H1046 C1004 0.930 . S
H1047 C1005 0.930 . S
H1048 C1007 0.929 . S
H1049 C1008 0.930 . S
H1050 C1009 0.930 . S
H1051 C1010 0.930 . S
H1052 C1014 0.929 . S
H1053 C1016 0.930 . S
H1054 C1022 0.929 . S
H1055 C1023 0.930 . S
Li1056 N1073 1.990 . S
Li1056 O1116 1.956 . S
Li1056 O1117 1.970 . S
Li1056 O1118 1.961 . S
Li1057 N1081 1.990 . S
Li1057 O1116 1.970 . S
Li1057 O1117 1.956 . S
Li1057 O1119 1.961 . S
Li1058 N1103 1.990 . S
Li1058 O1116 1.961 . S
Li1058 O1118 1.956 . S
Li1058 O1119 1.970 . S
Li1059 N1109 1.990 1_554 S
Li1059 O1117 1.961 . S
Li1059 O1118 1.970 . S
Li1059 O1119 1.956 . S
C1060 C1062 1.348 . S
C1060 C1063 1.356 . S
C1060 O1116 1.325 . S
N1061 C1064 1.314 . S
N1061 C1065 1.279 . S
C1062 C1060 1.348 . S
C1062 C1064 1.353 . S
C1062 H1120 0.929 . S
C1063 C1060 1.356 . S
C1063 C1065 1.358 . S
C1063 H1121 0.930 . S
C1064 N1061 1.314 . S
C1064 C1062 1.353 . S
C1064 H1122 0.930 . S
C1065 N1061 1.279 . S
C1065 C1063 1.358 . S
C1065 H1123 0.930 . S
C1066 C1069 1.348 . S
C1066 C1070 1.356 . S
C1066 O1117 1.325 . S
C1067 N1068 1.279 . S
C1067 C1070 1.358 . S
C1067 H1124 0.930 . S
N1068 C1067 1.279 . S
N1068 C1071 1.314 . S
C1069 C1066 1.348 . S
C1069 C1071 1.353 . S
C1069 H1125 0.929 . S
C1070 C1066 1.356 . S
C1070 C1067 1.358 . S
C1070 H1126 0.930 . S
C1071 N1068 1.314 . S
C1071 C1069 1.353 . S
C1071 H1127 0.930 . S
C1072 N1073 1.314 . S
C1072 C1077 1.353 . S
C1072 H1078 0.930 . S
N1073 Li1056 1.990 . S
N1073 C1072 1.314 . S
N1073 C1075 1.279 . S
C1074 C1075 1.358 . S
C1074 C1076 1.356 . S
C1074 H1128 0.930 . S
C1075 N1073 1.279 . S
C1075 C1074 1.358 . S
C1075 H1079 0.930 . S
C1076 C1074 1.356 . S
C1076 C1077 1.348 . S
C1077 C1072 1.353 . S
C1077 C1076 1.348 . S
C1077 H1129 0.929 . S
H1078 C1072 0.930 . S
H1079 C1075 0.930 . S
C1080 N1081 1.314 . S
C1080 C1082 1.353 . S
C1080 H1086 0.930 . S
N1081 Li1057 1.990 . S
N1081 C1080 1.314 . S
N1081 C1084 1.279 . S
C1082 C1080 1.353 . S
C1082 C1085 1.348 . S
C1082 H1130 0.929 . S
C1083 C1084 1.358 . S
C1083 C1085 1.356 . S
C1083 H1131 0.930 . S
C1084 N1081 1.279 . S
C1084 C1083 1.358 . S
C1084 H1087 0.930 . S
C1085 C1082 1.348 . S
C1085 C1083 1.356 . S
H1086 C1080 0.930 . S
H1087 C1084 0.930 . S
C1088 C1090 1.348 . S
C1088 C1091 1.356 1_556 S
C1088 O1118 1.325 1_556 S
N1089 C1092 1.314 . S
N1089 C1093 1.279 . S
C1090 C1088 1.348 . S
C1090 C1092 1.353 . S
C1090 H1132 0.929 . S
C1091 C1088 1.356 1_554 S
C1091 C1093 1.358 1_554 S
C1091 H1133 0.930 . S
C1092 N1089 1.314 . S
C1092 C1090 1.353 . S
C1092 H1134 0.930 . S
C1093 N1089 1.279 . S
C1093 C1091 1.358 1_556 S
C1093 H1135 0.930 . S
C1094 C1095 1.348 . S
C1094 C1096 1.356 . S
C1094 O1119 1.325 . S
C1095 C1094 1.348 . S
C1095 C1097 1.353 . S
C1095 H1136 0.929 . S
C1096 C1094 1.356 . S
C1096 C1098 1.358 . S
C1096 H1137 0.930 . S
C1097 C1095 1.353 . S
C1097 N1099 1.314 . S
C1097 H1138 0.930 . S
C1098 C1096 1.358 . S
C1098 N1099 1.279 . S
C1098 H1139 0.930 . S
N1099 C1097 1.314 . S
N1099 C1098 1.279 . S
C1100 C1102 1.353 . S
C1100 N1103 1.314 . S
C1100 H1106 0.930 . S
C1101 N1103 1.279 . S
C1101 C1104 1.358 . S
C1101 H1107 0.930 . S
C1102 C1100 1.353 . S
C1102 C1105 1.348 . S
C1102 H1140 0.929 . S
N1103 Li1058 1.990 . S
N1103 C1100 1.314 . S
N1103 C1101 1.279 . S
C1104 C1101 1.358 . S
C1104 C1105 1.356 . S
C1104 H1141 0.930 . S
C1105 C1102 1.348 . S
C1105 C1104 1.356 . S
H1106 C1100 0.930 . S
H1107 C1101 0.930 . S
C1108 N1109 1.314 . S
C1108 C1110 1.353 . S
C1108 H1114 0.930 . S
N1109 Li1059 1.990 1_556 S
N1109 C1108 1.314 . S
N1109 C1112 1.279 . S
C1110 C1108 1.353 . S
C1110 C1113 1.348 . S
C1110 H1142 0.929 . S
C1111 C1112 1.358 . S
C1111 C1113 1.356 . S
C1111 H1143 0.930 . S
C1112 N1109 1.279 . S
C1112 C1111 1.358 . S
C1112 H1115 0.930 . S
C1113 C1110 1.348 . S
C1113 C1111 1.356 . S
H1114 C1108 0.930 . S
H1115 C1112 0.930 . S
O1116 Li1056 1.956 . S
O1116 Li1057 1.970 . S
O1116 Li1058 1.961 . S
O1116 C1060 1.325 . S
O1117 Li1056 1.970 . S
O1117 Li1057 1.956 . S
O1117 Li1059 1.961 . S
O1117 C1066 1.325 . S
O1118 Li1056 1.961 . S
O1118 Li1058 1.956 . S
O1118 Li1059 1.970 . S
O1118 C1088 1.325 1_554 S
O1119 Li1057 1.961 . S
O1119 Li1058 1.970 . S
O1119 Li1059 1.956 . S
O1119 C1094 1.325 . S
H1120 C1062 0.929 . S
H1121 C1063 0.930 . S
H1122 C1064 0.930 . S
H1123 C1065 0.930 . S
H1124 C1067 0.930 . S
H1125 C1069 0.929 . S
H1126 C1070 0.930 . S
H1127 C1071 0.930 . S
H1128 C1074 0.930 . S
H1129 C1077 0.929 . S
H1130 C1082 0.929 . S
H1131 C1083 0.930 . S
H1132 C1090 0.929 . S
H1133 C1091 0.930 . S
H1134 C1092 0.930 . S
H1135 C1093 0.930 . S
H1136 C1095 0.929 . S
H1137 C1096 0.930 . S
H1138 C1097 0.930 . S
H1139 C1098 0.930 . S
H1140 C1102 0.929 . S
H1141 C1104 0.930 . S
H1142 C1110 0.929 . S
H1143 C1111 0.930 . S
Li1144 N1161 1.990 . S
Li1144 O1204 1.956 . S
Li1144 O1205 1.970 . S
Li1144 O1206 1.961 . S
Li1145 N1169 1.990 . S
Li1145 O1204 1.970 . S
Li1145 O1205 1.956 . S
Li1145 O1207 1.961 . S
Li1146 N1191 1.990 . S
Li1146 O1204 1.961 . S
Li1146 O1206 1.956 . S
Li1146 O1207 1.970 . S
Li1147 N1197 1.990 . S
Li1147 O1205 1.961 . S
Li1147 O1206 1.970 . S
Li1147 O1207 1.956 . S
C1148 C1150 1.348 . S
C1148 C1151 1.356 . S
C1148 O1204 1.325 . S
N1149 C1152 1.314 . S
N1149 C1153 1.279 . S
C1150 C1148 1.348 . S
C1150 C1152 1.353 . S
C1150 H1208 0.929 . S
C1151 C1148 1.356 . S
C1151 C1153 1.358 . S
C1151 H1209 0.930 . S
C1152 N1149 1.314 . S
C1152 C1150 1.353 . S
C1152 H1210 0.930 . S
C1153 N1149 1.279 . S
C1153 C1151 1.358 . S
C1153 H1211 0.930 . S
C1154 C1157 1.348 . S
C1154 C1158 1.356 . S
C1154 O1205 1.325 . S
C1155 N1156 1.279 . S
C1155 C1158 1.358 . S
C1155 H1212 0.930 . S
N1156 C1155 1.279 . S
N1156 C1159 1.314 . S
C1157 C1154 1.348 . S
C1157 C1159 1.353 . S
C1157 H1213 0.929 . S
C1158 C1154 1.356 . S
C1158 C1155 1.358 . S
C1158 H1214 0.930 . S
C1159 N1156 1.314 . S
C1159 C1157 1.353 . S
C1159 H1215 0.930 . S
C1160 N1161 1.314 . S
C1160 C1165 1.353 . S
C1160 H1166 0.930 . S
N1161 Li1144 1.990 . S
N1161 C1160 1.314 . S
N1161 C1163 1.279 . S
C1162 C1163 1.358 . S
C1162 C1164 1.356 . S
C1162 H1216 0.930 . S
C1163 N1161 1.279 . S
C1163 C1162 1.358 . S
C1163 H1167 0.930 . S
C1164 C1162 1.356 . S
C1164 C1165 1.348 . S
C1165 C1160 1.353 . S
C1165 C1164 1.348 . S
C1165 H1217 0.929 . S
H1166 C1160 0.930 . S
H1167 C1163 0.930 . S
C1168 N1169 1.314 . S
C1168 C1170 1.353 . S
C1168 H1174 0.930 . S
N1169 Li1145 1.990 . S
N1169 C1168 1.314 . S
N1169 C1172 1.279 . S
C1170 C1168 1.353 . S
C1170 C1173 1.348 . S
C1170 H1218 0.929 . S
C1171 C1172 1.358 . S
C1171 C1173 1.356 . S
C1171 H1219 0.930 . S
C1172 N1169 1.279 . S
C1172 C1171 1.358 . S
C1172 H1175 0.930 . S
C1173 C1170 1.348 . S
C1173 C1171 1.356 . S
H1174 C1168 0.930 . S
H1175 C1172 0.930 . S
C1176 C1178 1.348 . S
C1176 C1179 1.356 . S
C1176 O1206 1.325 . S
N1177 C1180 1.314 . S
N1177 C1181 1.279 . S
C1178 C1176 1.348 . S
C1178 C1180 1.353 . S
C1178 H1220 0.929 . S
C1179 C1176 1.356 . S
C1179 C1181 1.358 . S
C1179 H1221 0.930 . S
C1180 N1177 1.314 . S
C1180 C1178 1.353 . S
C1180 H1222 0.930 . S
C1181 N1177 1.279 . S
C1181 C1179 1.358 . S
C1181 H1223 0.930 . S
C1182 C1183 1.348 . S
C1182 C1184 1.356 . S
C1182 O1207 1.325 . S
C1183 C1182 1.348 . S
C1183 C1185 1.353 1_554 S
C1183 H1224 0.929 . S
C1184 C1182 1.356 . S
C1184 C1186 1.358 . S
C1184 H1225 0.930 . S
C1185 C1183 1.353 1_556 S
C1185 N1187 1.314 . S
C1185 H1226 0.930 . S
C1186 C1184 1.358 . S
C1186 N1187 1.279 1_554 S
C1186 H1227 0.930 . S
N1187 C1185 1.314 . S
N1187 C1186 1.279 1_556 S
C1188 C1190 1.353 1_554 S
C1188 N1191 1.314 . S
C1188 H1194 0.930 . S
C1189 N1191 1.279 . S
C1189 C1192 1.403 . S
C1189 H1195 0.930 . S
C1190 C1188 1.353 1_556 S
C1190 C1193 1.348 . S
C1190 H1228 0.929 . S
N1191 Li1146 1.990 . S
N1191 C1188 1.314 . S
N1191 C1189 1.279 . S
C1192 C1189 1.403 . S
C1192 C1193 1.323 1_554 S
C1192 H1229 0.920 1_554 S
C1193 C1190 1.348 . S
C1193 C1192 1.323 1_556 S
H1194 C1188 0.930 . S
H1195 C1189 0.930 . S
C1196 N1197 1.314 . S
C1196 C1198 1.353 . S
C1196 H1202 0.930 . S
N1197 Li1147 1.990 . S
N1197 C1196 1.314 . S
N1197 C1200 1.279 . S
C1198 C1196 1.353 . S
C1198 C1201 1.348 . S
C1198 H1230 0.929 . S
C1199 C1200 1.358 . S
C1199 C1201 1.356 . S
C1199 H1231 0.930 . S
C1200 N1197 1.279 . S
C1200 C1199 1.358 . S
C1200 H1203 0.930 . S
C1201 C1198 1.348 . S
C1201 C1199 1.356 . S
H1202 C1196 0.930 . S
H1203 C1200 0.930 . S
O1204 Li1144 1.956 . S
O1204 Li1145 1.970 . S
O1204 Li1146 1.961 . S
O1204 C1148 1.325 . S
O1205 Li1144 1.970 . S
O1205 Li1145 1.956 . S
O1205 Li1147 1.961 . S
O1205 C1154 1.325 . S
O1206 Li1144 1.961 . S
O1206 Li1146 1.956 . S
O1206 Li1147 1.970 . S
O1206 C1176 1.325 . S
O1207 Li1145 1.961 . S
O1207 Li1146 1.970 . S
O1207 Li1147 1.956 . S
O1207 C1182 1.325 . S
H1208 C1150 0.929 . S
H1209 C1151 0.930 . S
H1210 C1152 0.930 . S
H1211 C1153 0.930 . S
H1212 C1155 0.930 . S
H1213 C1157 0.929 . S
H1214 C1158 0.930 . S
H1215 C1159 0.930 . S
H1216 C1162 0.930 . S
H1217 C1165 0.929 . S
H1218 C1170 0.929 . S
H1219 C1171 0.930 . S
H1220 C1178 0.929 . S
H1221 C1179 0.930 . S
H1222 C1180 0.930 . S
H1223 C1181 0.930 . S
H1224 C1183 0.929 . S
H1225 C1184 0.930 . S
H1226 C1185 0.930 . S
H1227 C1186 0.930 . S
H1228 C1190 0.929 . S
H1229 C1192 0.920 1_556 S
H1230 C1198 0.929 . S
H1231 C1199 0.930 . S
Li1232 N1249 1.990 . S
Li1232 O1292 1.956 . S
Li1232 O1293 1.970 . S
Li1232 O1294 1.961 . S
Li1233 N1257 1.990 . S
Li1233 O1292 1.970 . S
Li1233 O1293 1.956 . S
Li1233 O1295 1.961 . S
Li1234 N1279 1.990 . S
Li1234 O1292 1.961 . S
Li1234 O1294 1.956 . S
Li1234 O1295 1.970 . S
Li1235 N1285 1.990 . S
Li1235 O1293 1.961 . S
Li1235 O1294 1.970 . S
Li1235 O1295 1.956 . S
C1236 C1238 1.348 . S
C1236 C1239 1.356 . S
C1236 O1292 1.325 . S
N1237 C1240 1.314 . S
N1237 C1241 1.279 . S
C1238 C1236 1.348 . S
C1238 C1240 1.353 . S
C1238 H1296 0.929 . S
C1239 C1236 1.356 . S
C1239 C1241 1.358 . S
C1239 H1297 0.930 . S
C1240 N1237 1.314 . S
C1240 C1238 1.353 . S
C1240 H1298 0.930 . S
C1241 N1237 1.279 . S
C1241 C1239 1.358 . S
C1241 H1299 0.930 . S
C1242 C1245 1.348 . S
C1242 C1246 1.356 . S
C1242 O1293 1.325 . S
C1243 N1244 1.279 . S
C1243 C1246 1.358 . S
C1243 H1300 0.930 . S
N1244 C1243 1.279 . S
N1244 C1247 1.314 . S
C1245 C1242 1.348 . S
C1245 C1247 1.353 . S
C1245 H1301 0.929 . S
C1246 C1242 1.356 . S
C1246 C1243 1.358 . S
C1246 H1302 0.930 . S
C1247 N1244 1.314 . S
C1247 C1245 1.353 . S
C1247 H1303 0.930 . S
C1248 N1249 1.314 . S
C1248 C1253 1.353 . S
C1248 H1254 0.930 . S
N1249 Li1232 1.990 . S
N1249 C1248 1.314 . S
N1249 C1251 1.279 . S
C1250 C1251 1.358 . S
C1250 C1252 1.356 . S
C1250 H1304 0.930 . S
C1251 N1249 1.279 . S
C1251 C1250 1.358 . S
C1251 H1255 0.930 . S
C1252 C1250 1.356 . S
C1252 C1253 1.348 . S
C1253 C1248 1.353 . S
C1253 C1252 1.348 . S
C1253 H1305 0.929 . S
H1254 C1248 0.930 . S
H1255 C1251 0.930 . S
C1256 N1257 1.314 . S
C1256 C1258 1.353 . S
C1256 H1262 0.930 . S
N1257 Li1233 1.990 . S
N1257 C1256 1.314 . S
N1257 C1260 1.279 . S
C1258 C1256 1.353 . S
C1258 C1261 1.348 . S
C1258 H1306 0.929 . S
C1259 C1260 1.358 . S
C1259 C1261 1.356 . S
C1259 H1307 0.930 . S
C1260 N1257 1.279 . S
C1260 C1259 1.358 . S
C1260 H1263 0.930 . S
C1261 C1258 1.348 . S
C1261 C1259 1.356 . S
H1262 C1256 0.930 . S
H1263 C1260 0.930 . S
C1264 C1266 1.348 . S
C1264 C1267 1.356 . S
C1264 O1294 1.325 . S
N1265 C1268 1.314 . S
N1265 C1269 1.279 . S
C1266 C1264 1.348 . S
C1266 C1268 1.353 . S
C1266 H1308 0.929 . S
C1267 C1264 1.356 . S
C1267 C1269 1.358 . S
C1267 H1309 0.930 . S
C1268 N1265 1.314 . S
C1268 C1266 1.353 . S
C1268 H1310 0.930 . S
C1269 N1265 1.279 . S
C1269 C1267 1.358 . S
C1269 H1311 0.930 . S
C1270 C1271 1.348 . S
C1270 C1272 1.356 . S
C1270 O1295 1.325 . S
C1271 C1270 1.348 . S
C1271 C1273 1.353 . S
C1271 H1312 0.929 . S
C1272 C1270 1.356 . S
C1272 C1274 1.358 . S
C1272 H1313 0.930 . S
C1273 C1271 1.353 . S
C1273 N1275 1.314 . S
C1273 H1314 0.930 . S
C1274 C1272 1.358 . S
C1274 N1275 1.279 . S
C1274 H1315 0.930 . S
N1275 C1273 1.314 . S
N1275 C1274 1.279 . S
C1276 C1278 1.353 . S
C1276 N1279 1.314 . S
C1276 H1282 0.930 . S
C1277 N1279 1.279 . S
C1277 C1280 1.358 . S
C1277 H1283 0.930 . S
C1278 C1276 1.353 . S
C1278 C1281 1.348 . S
C1278 H1316 0.929 . S
N1279 Li1234 1.990 . S
N1279 C1276 1.314 . S
N1279 C1277 1.279 . S
C1280 C1277 1.358 . S
C1280 C1281 1.356 . S
C1280 H1317 0.930 . S
C1281 C1278 1.348 . S
C1281 C1280 1.356 . S
H1282 C1276 0.930 . S
H1283 C1277 0.930 . S
C1284 N1285 1.314 . S
C1284 C1286 1.353 . S
C1284 H1290 0.930 . S
N1285 Li1235 1.990 . S
N1285 C1284 1.314 . S
N1285 C1288 1.279 . S
C1286 C1284 1.353 . S
C1286 C1289 1.348 . S
C1286 H1318 0.929 . S
C1287 C1288 1.358 . S
C1287 C1289 1.356 . S
C1287 H1319 0.930 . S
C1288 N1285 1.279 . S
C1288 C1287 1.358 . S
C1288 H1291 0.930 . S
C1289 C1286 1.348 . S
C1289 C1287 1.356 . S
H1290 C1284 0.930 . S
H1291 C1288 0.930 . S
O1292 Li1232 1.956 . S
O1292 Li1233 1.970 . S
O1292 Li1234 1.961 . S
O1292 C1236 1.325 . S
O1293 Li1232 1.970 . S
O1293 Li1233 1.956 . S
O1293 Li1235 1.961 . S
O1293 C1242 1.325 . S
O1294 Li1232 1.961 . S
O1294 Li1234 1.956 . S
O1294 Li1235 1.970 . S
O1294 C1264 1.325 . S
O1295 Li1233 1.961 . S
O1295 Li1234 1.970 . S
O1295 Li1235 1.956 . S
O1295 C1270 1.325 . S
H1296 C1238 0.929 . S
H1297 C1239 0.930 . S
H1298 C1240 0.930 . S
H1299 C1241 0.930 . S
H1300 C1243 0.930 . S
H1301 C1245 0.929 . S
H1302 C1246 0.930 . S
H1303 C1247 0.930 . S
H1304 C1250 0.930 . S
H1305 C1253 0.929 . S
H1306 C1258 0.929 . S
H1307 C1259 0.930 . S
H1308 C1266 0.929 . S
H1309 C1267 0.930 . S
H1310 C1268 0.930 . S
H1311 C1269 0.930 . S
H1312 C1271 0.929 . S
H1313 C1272 0.930 . S
H1314 C1273 0.930 . S
H1315 C1274 0.930 . S
H1316 C1278 0.929 . S
H1317 C1280 0.930 . S
H1318 C1286 0.929 . S
H1319 C1287 0.930 . S
Li1320 N1337 1.990 . S
Li1320 O1380 1.956 . S
Li1320 O1381 1.970 . S
Li1320 O1382 1.961 . S
Li1321 N1345 1.990 . S
Li1321 O1380 1.970 . S
Li1321 O1381 1.956 . S
Li1321 O1383 1.961 . S
Li1322 N1367 1.990 . S
Li1322 O1380 1.961 . S
Li1322 O1382 1.956 . S
Li1322 O1383 1.970 . S
Li1323 N1373 1.990 . S
Li1323 O1381 1.961 . S
Li1323 O1382 1.970 . S
Li1323 O1383 1.956 . S
C1324 C1326 1.348 . S
C1324 C1327 1.356 . S
C1324 O1380 1.325 . S
N1325 C1328 1.314 . S
N1325 C1329 1.279 . S
C1326 C1324 1.348 . S
C1326 C1328 1.353 . S
C1326 H1384 0.929 . S
C1327 C1324 1.356 . S
C1327 C1329 1.358 . S
C1327 H1385 0.930 . S
C1328 N1325 1.314 . S
C1328 C1326 1.353 . S
C1328 H1386 0.930 . S
C1329 N1325 1.279 . S
C1329 C1327 1.358 . S
C1329 H1387 0.930 . S
C1330 C1333 1.348 . S
C1330 C1334 1.356 . S
C1330 O1381 1.325 . S
C1331 N1332 1.279 . S
C1331 C1334 1.358 . S
C1331 H1388 0.930 . S
N1332 C1331 1.279 . S
N1332 C1335 1.314 . S
C1333 C1330 1.348 . S
C1333 C1335 1.353 . S
C1333 H1389 0.929 . S
C1334 C1330 1.356 . S
C1334 C1331 1.358 . S
C1334 H1390 0.930 . S
C1335 N1332 1.314 . S
C1335 C1333 1.353 . S
C1335 H1391 0.930 . S
C1336 N1337 1.314 . S
C1336 C1341 1.353 . S
C1336 H1342 0.930 . S
N1337 Li1320 1.990 . S
N1337 C1336 1.314 . S
N1337 C1339 1.279 . S
C1338 C1339 1.358 . S
C1338 C1340 1.356 . S
C1338 H1392 0.930 . S
C1339 N1337 1.279 . S
C1339 C1338 1.358 . S
C1339 H1343 0.930 . S
C1340 C1338 1.356 . S
C1340 C1341 1.348 . S
C1341 C1336 1.353 . S
C1341 C1340 1.348 . S
C1341 H1393 0.929 . S
H1342 C1336 0.930 . S
H1343 C1339 0.930 . S
C1344 N1345 1.314 . S
C1344 C1346 1.353 . S
C1344 H1350 0.930 . S
N1345 Li1321 1.990 . S
N1345 C1344 1.314 . S
N1345 C1348 1.279 . S
C1346 C1344 1.353 . S
C1346 C1349 1.348 . S
C1346 H1394 0.929 . S
C1347 C1348 1.358 . S
C1347 C1349 1.356 . S
C1347 H1395 0.930 . S
C1348 N1345 1.279 . S
C1348 C1347 1.358 . S
C1348 H1351 0.930 . S
C1349 C1346 1.348 . S
C1349 C1347 1.356 . S
H1350 C1344 0.930 . S
H1351 C1348 0.930 . S
C1352 C1354 1.348 . S
C1352 C1355 1.356 . S
C1352 O1382 1.325 . S
N1353 C1356 1.314 . S
N1353 C1357 1.279 . S
C1354 C1352 1.348 . S
C1354 C1356 1.353 . S
C1354 H1396 0.929 . S
C1355 C1352 1.356 . S
C1355 C1357 1.358 . S
C1355 H1397 0.930 . S
C1356 N1353 1.314 . S
C1356 C1354 1.353 . S
C1356 H1398 0.930 . S
C1357 N1353 1.279 . S
C1357 C1355 1.358 . S
C1357 H1399 0.930 . S
C1358 C1359 1.348 . S
C1358 C1360 1.356 . S
C1358 O1383 1.325 . S
C1359 C1358 1.348 . S
C1359 C1361 1.353 . S
C1359 H1400 0.929 . S
C1360 C1358 1.356 . S
C1360 C1362 1.358 . S
C1360 H1401 0.930 . S
C1361 C1359 1.353 . S
C1361 N1363 1.314 . S
C1361 H1402 0.930 . S
C1362 C1360 1.358 . S
C1362 N1363 1.279 . S
C1362 H1403 0.930 . S
N1363 C1361 1.314 . S
N1363 C1362 1.279 . S
C1364 C1366 1.353 . S
C1364 N1367 1.314 . S
C1364 H1370 0.930 . S
C1365 N1367 1.279 . S
C1365 C1368 1.358 . S
C1365 H1371 0.930 . S
C1366 C1364 1.353 . S
C1366 C1369 1.348 . S
C1366 H1404 0.929 . S
N1367 Li1322 1.990 . S
N1367 C1364 1.314 . S
N1367 C1365 1.279 . S
C1368 C1365 1.358 . S
C1368 C1369 1.356 . S
C1368 H1405 0.930 . S
C1369 C1366 1.348 . S
C1369 C1368 1.356 . S
H1370 C1364 0.930 . S
H1371 C1365 0.930 . S
C1372 N1373 1.314 . S
C1372 C1374 1.353 . S
C1372 H1378 0.930 . S
N1373 Li1323 1.990 . S
N1373 C1372 1.314 . S
N1373 C1376 1.279 . S
C1374 C1372 1.353 . S
C1374 C1377 1.348 . S
C1374 H1406 0.929 . S
C1375 C1376 1.358 . S
C1375 C1377 1.356 . S
C1375 H1407 0.930 . S
C1376 N1373 1.279 . S
C1376 C1375 1.358 . S
C1376 H1379 0.930 . S
C1377 C1374 1.348 . S
C1377 C1375 1.356 . S
H1378 C1372 0.930 . S
H1379 C1376 0.930 . S
O1380 Li1320 1.956 . S
O1380 Li1321 1.970 . S
O1380 Li1322 1.961 . S
O1380 C1324 1.325 . S
O1381 Li1320 1.970 . S
O1381 Li1321 1.956 . S
O1381 Li1323 1.961 . S
O1381 C1330 1.325 . S
O1382 Li1320 1.961 . S
O1382 Li1322 1.956 . S
O1382 Li1323 1.970 . S
O1382 C1352 1.325 . S
O1383 Li1321 1.961 . S
O1383 Li1322 1.970 . S
O1383 Li1323 1.956 . S
O1383 C1358 1.325 . S
H1384 C1326 0.929 . S
H1385 C1327 0.930 . S
H1386 C1328 0.930 . S
H1387 C1329 0.930 . S
H1388 C1331 0.930 . S
H1389 C1333 0.929 . S
H1390 C1334 0.930 . S
H1391 C1335 0.930 . S
H1392 C1338 0.930 . S
H1393 C1341 0.929 . S
H1394 C1346 0.929 . S
H1395 C1347 0.930 . S
H1396 C1354 0.929 . S
H1397 C1355 0.930 . S
H1398 C1356 0.930 . S
H1399 C1357 0.930 . S
H1400 C1359 0.929 . S
H1401 C1360 0.930 . S
H1402 C1361 0.930 . S
H1403 C1362 0.930 . S
H1404 C1366 0.929 . S
H1405 C1368 0.930 . S
H1406 C1374 0.929 . S
H1407 C1375 0.930 . S
Li1408 N1425 1.990 . S
Li1408 O1468 1.956 1_545 S
Li1408 O1469 1.970 . S
Li1408 O1470 1.961 . S
Li1409 N1433 1.990 . S
Li1409 O1468 1.970 . S
Li1409 O1469 1.956 1_565 S
Li1409 O1471 1.961 . S
Li1410 N1455 1.990 . S
Li1410 O1468 1.961 1_545 S
Li1410 O1470 1.956 . S
Li1410 O1471 1.970 1_545 S
Li1411 N1461 1.990 . S
Li1411 O1469 1.961 . S
Li1411 O1470 1.970 . S
Li1411 O1471 1.956 1_545 S
C1412 C1414 1.348 . S
C1412 C1415 1.356 . S
C1412 O1468 1.325 . S
N1413 C1416 1.314 . S
N1413 C1417 1.279 . S
C1414 C1412 1.348 . S
C1414 C1416 1.353 . S
C1414 H1472 0.929 . S
C1415 C1412 1.356 . S
C1415 C1417 1.358 . S
C1415 H1473 0.930 . S
C1416 N1413 1.314 . S
C1416 C1414 1.353 . S
C1416 H1474 0.930 . S
C1417 N1413 1.279 . S
C1417 C1415 1.358 . S
C1417 H1475 0.930 . S
C1418 C1421 1.348 1_545 S
C1418 C1422 1.356 . S
C1418 O1469 1.325 . S
C1419 N1420 1.280 1_545 S
C1419 C1422 1.358 . S
C1419 H1476 0.930 . S
N1420 C1419 1.280 1_565 S
N1420 C1423 1.314 . S
C1421 C1418 1.348 1_565 S
C1421 C1423 1.353 . S
C1421 H1477 0.929 . S
C1422 C1418 1.356 . S
C1422 C1419 1.358 . S
C1422 H1478 0.930 . S
C1423 N1420 1.314 . S
C1423 C1421 1.353 . S
C1423 H1479 0.930 . S
C1424 N1425 1.314 . S
C1424 C1429 1.353 . S
C1424 H1430 0.930 . S
N1425 Li1408 1.990 . S
N1425 C1424 1.314 . S
N1425 C1427 1.279 1_545 S
C1426 C1427 1.358 . S
C1426 C1428 1.356 1_565 S
C1426 H1480 0.930 . S
C1427 N1425 1.279 1_565 S
C1427 C1426 1.358 . S
C1427 H1431 0.930 . S
C1428 C1426 1.356 1_545 S
C1428 C1429 1.348 . S
C1429 C1424 1.353 . S
C1429 C1428 1.348 . S
C1429 H1481 0.929 . S
H1430 C1424 0.930 . S
H1431 C1427 0.930 . S
C1432 N1433 1.314 . S
C1432 C1434 1.353 . S
C1432 H1438 0.930 . S
N1433 Li1409 1.990 . S
N1433 C1432 1.314 . S
N1433 C1436 1.279 . S
C1434 C1432 1.353 . S
C1434 C1437 1.348 . S
C1434 H1482 0.929 . S
C1435 C1436 1.358 . S
C1435 C1437 1.356 . S
C1435 H1483 0.930 . S
C1436 N1433 1.279 . S
C1436 C1435 1.358 . S
C1436 H1439 0.930 . S
C1437 C1434 1.348 . S
C1437 C1435 1.356 . S
H1438 C1432 0.930 . S
H1439 C1436 0.930 . S
C1440 C1442 1.348 . S
C1440 C1443 1.356 . S
C1440 O1470 1.325 . S
N1441 C1444 1.314 . S
N1441 C1445 1.279 . S
C1442 C1440 1.348 . S
C1442 C1444 1.353 . S
C1442 H1484 0.929 . S
C1443 C1440 1.356 . S
C1443 C1445 1.358 . S
C1443 H1485 0.930 . S
C1444 N1441 1.314 . S
C1444 C1442 1.353 . S
C1444 H1486 0.930 . S
C1445 N1441 1.279 . S
C1445 C1443 1.358 . S
C1445 H1487 0.930 1_655 S
C1446 C1447 1.348 1_565 S
C1446 C1448 1.356 . S
C1446 O1471 1.325 . S
C1447 C1446 1.348 1_545 S
C1447 C1449 1.353 1_545 S
C1447 H1488 0.929 . S
C1448 C1446 1.356 . S
C1448 C1450 1.358 . S
C1448 H1489 0.930 . S
C1449 C1447 1.353 1_565 S
C1449 N1451 1.314 . S
C1449 H1490 0.930 1_565 S
C1450 C1448 1.358 . S
C1450 N1451 1.279 . S
C1450 H1491 0.930 . S
N1451 C1449 1.314 . S
N1451 C1450 1.279 . S
C1452 C1454 1.353 . S
C1452 N1455 1.314 1_565 S
C1452 H1458 0.930 . S
C1453 N1455 1.279 . S
C1453 C1456 1.358 . S
C1453 H1459 0.930 . S
C1454 C1452 1.353 . S
C1454 C1457 1.348 1_565 S
C1454 H1492 0.929 . S
N1455 Li1410 1.990 . S
N1455 C1452 1.314 1_545 S
N1455 C1453 1.279 . S
C1456 C1453 1.358 . S
C1456 C1457 1.356 . S
C1456 H1493 0.930 . S
C1457 C1454 1.348 1_545 S
C1457 C1456 1.356 . S
H1458 C1452 0.930 . S
H1459 C1453 0.930 . S
C1460 N1461 1.314 . S
C1460 C1462 1.353 . S
C1460 H1466 0.930 . S
N1461 Li1411 1.990 . S
N1461 C1460 1.314 . S
N1461 C1464 1.279 . S
C1462 C1460 1.353 . S
C1462 C1465 1.348 . S
C1462 H1494 0.929 . S
C1463 C1464 1.358 . S
C1463 C1465 1.356 . S
C1463 H1495 0.930 . S
C1464 N1461 1.279 . S
C1464 C1463 1.358 . S
C1464 H1467 0.930 . S
C1465 C1462 1.348 . S
C1465 C1463 1.356 . S
H1466 C1460 0.930 . S
H1467 C1464 0.930 . S
O1468 Li1408 1.956 1_565 S
O1468 Li1409 1.970 . S
O1468 Li1410 1.961 1_565 S
O1468 C1412 1.325 . S
O1469 Li1408 1.970 . S
O1469 Li1409 1.956 1_545 S
O1469 Li1411 1.961 . S
O1469 C1418 1.325 . S
O1470 Li1408 1.961 . S
O1470 Li1410 1.956 . S
O1470 Li1411 1.970 . S
O1470 C1440 1.325 . S
O1471 Li1409 1.961 . S
O1471 Li1410 1.970 1_565 S
O1471 Li1411 1.956 1_565 S
O1471 C1446 1.325 . S
H1472 C1414 0.929 . S
H1473 C1415 0.930 . S
H1474 C1416 0.930 . S
H1475 C1417 0.930 . S
H1476 C1419 0.930 . S
H1477 C1421 0.929 . S
H1478 C1422 0.930 . S
H1479 C1423 0.930 . S
H1480 C1426 0.930 . S
H1481 C1429 0.929 . S
H1482 C1434 0.929 . S
H1483 C1435 0.930 . S
H1484 C1442 0.929 . S
H1485 C1443 0.930 . S
H1486 C1444 0.930 . S
H1487 C1445 0.930 1_455 S
H1488 C1447 0.929 . S
H1489 C1448 0.930 . S
H1490 C1449 0.930 1_545 S
H1491 C1450 0.930 . S
H1492 C1454 0.929 . S
H1493 C1456 0.930 . S
H1494 C1462 0.929 . S
H1495 C1463 0.930 . S
Li1496 N1513 1.990 . S
Li1496 O1556 1.956 . S
Li1496 O1557 1.970 . S
Li1496 O1558 1.961 . S
Li1497 N1521 1.990 . S
Li1497 O1556 1.970 . S
Li1497 O1557 1.956 . S
Li1497 O1559 1.961 . S
Li1498 N1543 1.990 . S
Li1498 O1556 1.961 . S
Li1498 O1558 1.956 . S
Li1498 O1559 1.970 . S
Li1499 N1549 1.990 . S
Li1499 O1557 1.961 . S
Li1499 O1558 1.970 . S
Li1499 O1559 1.956 . S
C1500 C1502 1.348 . S
C1500 C1503 1.356 . S
C1500 O1556 1.325 . S
N1501 C1504 1.314 . S
N1501 C1505 1.279 . S
C1502 C1500 1.348 . S
C1502 C1504 1.353 . S
C1502 H1560 0.929 . S
C1503 C1500 1.356 . S
C1503 C1505 1.358 . S
C1503 H1561 0.930 . S
C1504 N1501 1.314 . S
C1504 C1502 1.353 . S
C1504 H1562 0.930 . S
C1505 N1501 1.279 . S
C1505 C1503 1.358 . S
C1505 H1563 0.930 . S
C1506 C1509 1.348 . S
C1506 C1510 1.356 . S
C1506 O1557 1.325 . S
C1507 N1508 1.279 . S
C1507 C1510 1.358 . S
C1507 H1564 0.930 . S
N1508 C1507 1.279 . S
N1508 C1511 1.314 . S
C1509 C1506 1.348 . S
C1509 C1511 1.353 . S
C1509 H1565 0.929 . S
C1510 C1506 1.356 . S
C1510 C1507 1.358 . S
C1510 H1566 0.930 . S
C1511 N1508 1.314 . S
C1511 C1509 1.353 . S
C1511 H1567 0.930 . S
C1512 N1513 1.314 . S
C1512 C1517 1.353 . S
C1512 H1518 0.930 . S
N1513 Li1496 1.990 . S
N1513 C1512 1.314 . S
N1513 C1515 1.279 . S
C1514 C1515 1.358 . S
C1514 C1516 1.356 . S
C1514 H1568 0.930 . S
C1515 N1513 1.279 . S
C1515 C1514 1.358 . S
C1515 H1519 0.930 . S
C1516 C1514 1.356 . S
C1516 C1517 1.348 . S
C1517 C1512 1.353 . S
C1517 C1516 1.348 . S
C1517 H1569 0.929 . S
H1518 C1512 0.930 . S
H1519 C1515 0.930 . S
C1520 N1521 1.314 . S
C1520 C1522 1.353 . S
C1520 H1526 0.930 . S
N1521 Li1497 1.990 . S
N1521 C1520 1.314 . S
N1521 C1524 1.279 . S
C1522 C1520 1.353 . S
C1522 C1525 1.348 . S
C1522 H1570 0.929 . S
C1523 C1524 1.358 . S
C1523 C1525 1.356 . S
C1523 H1571 0.930 . S
C1524 N1521 1.279 . S
C1524 C1523 1.358 . S
C1524 H1527 0.930 . S
C1525 C1522 1.348 . S
C1525 C1523 1.356 . S
H1526 C1520 0.930 . S
H1527 C1524 0.930 . S
C1528 C1530 1.348 . S
C1528 C1531 1.356 . S
C1528 O1558 1.325 . S
N1529 C1532 1.314 . S
N1529 C1533 1.279 . S
C1530 C1528 1.348 . S
C1530 C1532 1.353 . S
C1530 H1572 0.929 . S
C1531 C1528 1.356 . S
C1531 C1533 1.358 . S
C1531 H1573 0.930 . S
C1532 N1529 1.314 . S
C1532 C1530 1.353 . S
C1532 H1574 0.930 . S
C1533 N1529 1.279 . S
C1533 C1531 1.358 . S
C1533 H1575 0.930 . S
C1534 C1535 1.348 . S
C1534 C1536 1.356 . S
C1534 O1559 1.325 . S
C1535 C1534 1.348 . S
C1535 C1537 1.353 . S
C1535 H1576 0.929 . S
C1536 C1534 1.356 . S
C1536 C1538 1.358 . S
C1536 H1577 0.930 . S
C1537 C1535 1.353 . S
C1537 N1539 1.314 . S
C1537 H1578 0.930 . S
C1538 C1536 1.358 . S
C1538 N1539 1.279 . S
C1538 H1579 0.930 . S
N1539 C1537 1.314 . S
N1539 C1538 1.279 . S
C1540 C1542 1.353 . S
C1540 N1543 1.314 . S
C1540 H1546 0.930 . S
C1541 N1543 1.279 . S
C1541 C1544 1.358 . S
C1541 H1547 0.930 . S
C1542 C1540 1.353 . S
C1542 C1545 1.348 . S
C1542 H1580 0.929 . S
N1543 Li1498 1.990 . S
N1543 C1540 1.314 . S
N1543 C1541 1.279 . S
C1544 C1541 1.358 . S
C1544 C1545 1.356 . S
C1544 H1581 0.930 . S
C1545 C1542 1.348 . S
C1545 C1544 1.356 . S
H1546 C1540 0.930 . S
H1547 C1541 0.930 . S
C1548 N1549 1.314 . S
C1548 C1550 1.353 . S
C1548 H1554 0.930 . S
N1549 Li1499 1.990 . S
N1549 C1548 1.314 . S
N1549 C1552 1.279 . S
C1550 C1548 1.353 . S
C1550 C1553 1.348 . S
C1550 H1582 0.929 . S
C1551 C1552 1.358 . S
C1551 C1553 1.356 . S
C1551 H1583 0.930 . S
C1552 N1549 1.279 . S
C1552 C1551 1.358 . S
C1552 H1555 0.930 . S
C1553 C1550 1.348 . S
C1553 C1551 1.356 . S
H1554 C1548 0.930 . S
H1555 C1552 0.930 . S
O1556 Li1496 1.956 . S
O1556 Li1497 1.970 . S
O1556 Li1498 1.961 . S
O1556 C1500 1.325 . S
O1557 Li1496 1.970 . S
O1557 Li1497 1.956 . S
O1557 Li1499 1.961 . S
O1557 C1506 1.325 . S
O1558 Li1496 1.961 . S
O1558 Li1498 1.956 . S
O1558 Li1499 1.970 . S
O1558 C1528 1.325 . S
O1559 Li1497 1.961 . S
O1559 Li1498 1.970 . S
O1559 Li1499 1.956 . S
O1559 C1534 1.325 . S
H1560 C1502 0.929 . S
H1561 C1503 0.930 . S
H1562 C1504 0.930 . S
H1563 C1505 0.930 . S
H1564 C1507 0.930 . S
H1565 C1509 0.929 . S
H1566 C1510 0.930 . S
H1567 C1511 0.930 . S
H1568 C1514 0.930 . S
H1569 C1517 0.929 . S
H1570 C1522 0.929 . S
H1571 C1523 0.930 . S
H1572 C1530 0.929 . S
H1573 C1531 0.930 . S
H1574 C1532 0.930 . S
H1575 C1533 0.930 . S
H1576 C1535 0.929 . S
H1577 C1536 0.930 . S
H1578 C1537 0.930 . S
H1579 C1538 0.930 . S
H1580 C1542 0.929 . S
H1581 C1544 0.930 . S
H1582 C1550 0.929 . S
H1583 C1551 0.930 . S
Li1584 N1601 1.990 . S
Li1584 O1644 1.956 . S
Li1584 O1645 1.970 . S
Li1584 O1646 1.961 . S
Li1585 N1609 1.990 . S
Li1585 O1644 1.970 . S
Li1585 O1645 1.956 . S
Li1585 O1647 1.961 . S
Li1586 N1631 1.990 . S
Li1586 O1644 1.961 . S
Li1586 O1646 1.956 . S
Li1586 O1647 1.970 . S
Li1587 N1637 1.990 . S
Li1587 O1645 1.961 . S
Li1587 O1646 1.970 . S
Li1587 O1647 1.956 . S
C1588 C1590 1.348 . S
C1588 C1591 1.356 . S
C1588 O1644 1.325 . S
N1589 C1592 1.314 . S
N1589 C1593 1.279 . S
C1590 C1588 1.348 . S
C1590 C1592 1.353 . S
C1590 H1648 0.929 . S
C1591 C1588 1.356 . S
C1591 C1593 1.358 . S
C1591 H1649 0.930 . S
C1592 N1589 1.314 . S
C1592 C1590 1.353 . S
C1592 H1650 0.930 . S
C1593 N1589 1.279 . S
C1593 C1591 1.358 . S
C1593 H1651 0.930 . S
C1594 C1597 1.348 . S
C1594 C1598 1.356 . S
C1594 O1645 1.325 . S
C1595 N1596 1.279 . S
C1595 C1598 1.358 . S
C1595 H1652 0.930 . S
N1596 C1595 1.279 . S
N1596 C1599 1.314 . S
C1597 C1594 1.348 . S
C1597 C1599 1.353 . S
C1597 H1653 0.929 . S
C1598 C1594 1.356 . S
C1598 C1595 1.358 . S
C1598 H1654 0.930 . S
C1599 N1596 1.314 . S
C1599 C1597 1.353 . S
C1599 H1655 0.930 . S
C1600 N1601 1.314 . S
C1600 C1605 1.353 . S
C1600 H1606 0.930 . S
N1601 Li1584 1.990 . S
N1601 C1600 1.314 . S
N1601 C1603 1.279 . S
C1602 C1603 1.358 . S
C1602 C1604 1.356 . S
C1602 H1656 0.930 . S
C1603 N1601 1.279 . S
C1603 C1602 1.358 . S
C1603 H1607 0.930 . S
C1604 C1602 1.356 . S
C1604 C1605 1.348 . S
C1605 C1600 1.353 . S
C1605 C1604 1.348 . S
C1605 H1657 0.929 . S
H1606 C1600 0.930 . S
H1607 C1603 0.930 . S
C1608 N1609 1.314 . S
C1608 C1610 1.353 . S
C1608 H1614 0.930 . S
N1609 Li1585 1.990 . S
N1609 C1608 1.314 . S
N1609 C1612 1.279 . S
C1610 C1608 1.353 . S
C1610 C1613 1.348 . S
C1610 H1658 0.929 . S
C1611 C1612 1.358 . S
C1611 C1613 1.356 . S
C1611 H1659 0.930 . S
C1612 N1609 1.279 . S
C1612 C1611 1.358 . S
C1612 H1615 0.930 . S
C1613 C1610 1.348 . S
C1613 C1611 1.356 . S
H1614 C1608 0.930 . S
H1615 C1612 0.930 . S
C1616 C1618 1.348 . S
C1616 C1619 1.356 . S
C1616 O1646 1.325 . S
N1617 C1620 1.314 . S
N1617 C1621 1.279 . S
C1618 C1616 1.348 . S
C1618 C1620 1.353 . S
C1618 H1660 0.929 . S
C1619 C1616 1.356 . S
C1619 C1621 1.358 . S
C1619 H1661 0.930 . S
C1620 N1617 1.314 . S
C1620 C1618 1.353 . S
C1620 H1662 0.930 . S
C1621 N1617 1.279 . S
C1621 C1619 1.358 . S
C1621 H1663 0.930 . S
C1622 C1623 1.348 . S
C1622 C1624 1.356 . S
C1622 O1647 1.325 . S
C1623 C1622 1.348 . S
C1623 C1625 1.353 . S
C1623 H1664 0.929 . S
C1624 C1622 1.356 . S
C1624 C1626 1.358 . S
C1624 H1665 0.930 . S
C1625 C1623 1.353 . S
C1625 N1627 1.314 . S
C1625 H1666 0.930 . S
C1626 C1624 1.358 . S
C1626 N1627 1.279 . S
C1626 H1667 0.930 . S
N1627 C1625 1.314 . S
N1627 C1626 1.279 . S
C1628 C1630 1.353 . S
C1628 N1631 1.314 . S
C1628 H1634 0.930 . S
C1629 N1631 1.279 . S
C1629 C1632 1.358 . S
C1629 H1635 0.930 . S
C1630 C1628 1.353 . S
C1630 C1633 1.348 . S
C1630 H1668 0.929 . S
N1631 Li1586 1.990 . S
N1631 C1628 1.314 . S
N1631 C1629 1.279 . S
C1632 C1629 1.358 . S
C1632 C1633 1.356 . S
C1632 H1669 0.930 . S
C1633 C1630 1.348 . S
C1633 C1632 1.356 . S
H1634 C1628 0.930 . S
H1635 C1629 0.930 . S
C1636 N1637 1.314 . S
C1636 C1638 1.353 . S
C1636 H1642 0.930 . S
N1637 Li1587 1.990 . S
N1637 C1636 1.314 . S
N1637 C1640 1.279 . S
C1638 C1636 1.353 . S
C1638 C1641 1.348 . S
C1638 H1670 0.929 . S
C1639 C1640 1.358 . S
C1639 C1641 1.356 . S
C1639 H1671 0.930 . S
C1640 N1637 1.279 . S
C1640 C1639 1.358 . S
C1640 H1643 0.930 . S
C1641 C1638 1.348 . S
C1641 C1639 1.356 . S
H1642 C1636 0.930 . S
H1643 C1640 0.930 . S
O1644 Li1584 1.956 . S
O1644 Li1585 1.970 . S
O1644 Li1586 1.961 . S
O1644 C1588 1.325 . S
O1645 Li1584 1.970 . S
O1645 Li1585 1.956 . S
O1645 Li1587 1.961 . S
O1645 C1594 1.325 . S
O1646 Li1584 1.961 . S
O1646 Li1586 1.956 . S
O1646 Li1587 1.970 . S
O1646 C1616 1.325 . S
O1647 Li1585 1.961 . S
O1647 Li1586 1.970 . S
O1647 Li1587 1.956 . S
O1647 C1622 1.325 . S
H1648 C1590 0.929 . S
H1649 C1591 0.930 . S
H1650 C1592 0.930 . S
H1651 C1593 0.930 . S
H1652 C1595 0.930 . S
H1653 C1597 0.929 . S
H1654 C1598 0.930 . S
H1655 C1599 0.930 . S
H1656 C1602 0.930 . S
H1657 C1605 0.929 . S
H1658 C1610 0.929 . S
H1659 C1611 0.930 . S
H1660 C1618 0.929 . S
H1661 C1619 0.930 . S
H1662 C1620 0.930 . S
H1663 C1621 0.930 . S
H1664 C1623 0.929 . S
H1665 C1624 0.930 . S
H1666 C1625 0.930 . S
H1667 C1626 0.930 . S
H1668 C1630 0.929 . S
H1669 C1632 0.930 . S
H1670 C1638 0.929 . S
H1671 C1639 0.930 . S
Li1672 N1689 1.990 . S
Li1672 O1732 1.956 . S
Li1672 O1733 1.970 . S
Li1672 O1734 1.961 1_545 S
Li1673 N1697 1.990 . S
Li1673 O1732 1.970 . S
Li1673 O1733 1.956 . S
Li1673 O1735 1.961 . S
Li1674 N1719 1.990 . S
Li1674 O1732 1.961 . S
Li1674 O1734 1.956 1_545 S
Li1674 O1735 1.970 . S
Li1675 N1725 1.990 . S
Li1675 O1733 1.961 1_565 S
Li1675 O1734 1.970 . S
Li1675 O1735 1.956 1_565 S
C1676 C1678 1.348 . S
C1676 C1679 1.356 . S
C1676 O1732 1.325 . S
N1677 C1680 1.314 . S
N1677 C1681 1.279 . S
C1678 C1676 1.348 . S
C1678 C1680 1.353 . S
C1678 H1736 0.929 . S
C1679 C1676 1.356 . S
C1679 C1681 1.358 . S
C1679 H1737 0.930 . S
C1680 N1677 1.314 . S
C1680 C1678 1.353 . S
C1680 H1738 0.930 . S
C1681 N1677 1.279 . S
C1681 C1679 1.358 . S
C1681 H1739 0.930 . S
C1682 C1685 1.348 . S
C1682 C1686 1.356 . S
C1682 O1733 1.325 . S
C1683 N1684 1.279 . S
C1683 C1686 1.358 . S
C1683 H1740 0.930 . S
N1684 C1683 1.279 . S
N1684 C1687 1.314 . S
C1685 C1682 1.348 . S
C1685 C1687 1.353 . S
C1685 H1741 0.929 . S
C1686 C1682 1.356 . S
C1686 C1683 1.358 . S
C1686 H1742 0.930 . S
C1687 N1684 1.314 . S
C1687 C1685 1.353 . S
C1687 H1743 0.930 . S
C1688 N1689 1.314 1_565 S
C1688 C1693 1.353 . S
C1688 H1694 0.930 . S
N1689 Li1672 1.990 . S
N1689 C1688 1.314 1_545 S
N1689 C1691 1.279 . S
C1690 C1691 1.358 . S
C1690 C1692 1.356 . S
C1690 H1744 0.930 . S
C1691 N1689 1.279 . S
C1691 C1690 1.358 . S
C1691 H1695 0.930 . S
C1692 C1690 1.356 . S
C1692 C1693 1.348 1_545 S
C1693 C1688 1.353 . S
C1693 C1692 1.348 1_565 S
C1693 H1745 0.929 . S
H1694 C1688 0.930 . S
H1695 C1691 0.930 . S
C1696 N1697 1.314 . S
C1696 C1698 1.353 . S
C1696 H1702 0.930 . S
N1697 Li1673 1.990 . S
N1697 C1696 1.314 . S
N1697 C1700 1.279 . S
C1698 C1696 1.353 . S
C1698 C1701 1.348 . S
C1698 H1746 0.929 . S
C1699 C1700 1.358 . S
C1699 C1701 1.356 . S
C1699 H1747 0.930 . S
C1700 N1697 1.279 . S
C1700 C1699 1.358 . S
C1700 H1703 0.930 . S
C1701 C1698 1.348 . S
C1701 C1699 1.356 . S
H1702 C1696 0.930 . S
H1703 C1700 0.930 . S
C1704 C1706 1.348 . S
C1704 C1707 1.356 . S
C1704 O1734 1.325 . S
N1705 C1708 1.314 . S
N1705 C1709 1.279 . S
C1706 C1704 1.348 . S
C1706 C1708 1.353 . S
C1706 H1748 0.929 . S
C1707 C1704 1.356 . S
C1707 C1709 1.358 . S
C1707 H1749 0.930 . S
C1708 N1705 1.314 . S
C1708 C1706 1.353 . S
C1708 H1750 0.930 . S
C1709 N1705 1.279 . S
C1709 C1707 1.358 . S
C1709 H1751 0.930 . S
C1710 C1711 1.348 . S
C1710 C1712 1.356 . S
C1710 O1735 1.325 . S
C1711 C1710 1.348 . S
C1711 C1713 1.353 . S
C1711 H1752 0.927 1_545 S
C1712 C1710 1.356 . S
C1712 C1714 1.358 . S
C1712 H1753 0.930 . S
C1713 C1711 1.353 . S
C1713 N1715 1.314 . S
C1713 H1754 0.939 . S
C1714 C1712 1.358 . S
C1714 N1715 1.279 . S
C1714 H1755 0.930 . S
N1715 C1713 1.314 . S
N1715 C1714 1.279 . S
C1716 C1718 1.353 . S
C1716 N1719 1.314 . S
C1716 H1722 0.930 . S
C1717 N1719 1.279 1_565 S
C1717 C1720 1.358 . S
C1717 H1723 0.930 . S
C1718 C1716 1.353 . S
C1718 C1721 1.328 1_545 S
C1718 H1756 0.929 . S
N1719 Li1674 1.990 . S
N1719 C1716 1.314 . S
N1719 C1717 1.279 1_545 S
C1720 C1717 1.358 . S
C1720 C1721 1.378 . S
C1720 H1757 0.930 . S
C1721 C1718 1.328 1_565 S
C1721 C1720 1.378 . S
H1722 C1716 0.930 . S
H1723 C1717 0.930 . S
C1724 N1725 1.314 . S
C1724 C1726 1.353 . S
C1724 H1730 0.930 . S
N1725 Li1675 1.990 . S
N1725 C1724 1.314 . S
N1725 C1728 1.279 . S
C1726 C1724 1.353 . S
C1726 C1729 1.348 . S
C1726 H1758 0.929 . S
C1727 C1728 1.358 . S
C1727 C1729 1.356 . S
C1727 H1759 0.930 . S
C1728 N1725 1.279 . S
C1728 C1727 1.358 . S
C1728 H1731 0.930 . S
C1729 C1726 1.348 . S
C1729 C1727 1.356 . S
H1730 C1724 0.930 . S
H1731 C1728 0.930 . S
O1732 Li1672 1.956 . S
O1732 Li1673 1.970 . S
O1732 Li1674 1.961 . S
O1732 C1676 1.325 . S
O1733 Li1672 1.970 . S
O1733 Li1673 1.956 . S
O1733 Li1675 1.961 1_545 S
O1733 C1682 1.325 . S
O1734 Li1672 1.961 1_565 S
O1734 Li1674 1.956 1_565 S
O1734 Li1675 1.970 . S
O1734 C1704 1.325 . S
O1735 Li1673 1.961 . S
O1735 Li1674 1.970 . S
O1735 Li1675 1.956 1_545 S
O1735 C1710 1.325 . S
H1736 C1678 0.929 . S
H1737 C1679 0.930 . S
H1738 C1680 0.930 . S
H1739 C1681 0.930 . S
H1740 C1683 0.930 . S
H1741 C1685 0.929 . S
H1742 C1686 0.930 . S
H1743 C1687 0.930 . S
H1744 C1690 0.930 . S
H1745 C1693 0.929 . S
H1746 C1698 0.929 . S
H1747 C1699 0.930 . S
H1748 C1706 0.929 . S
H1749 C1707 0.930 . S
H1750 C1708 0.930 . S
H1751 C1709 0.930 . S
H1752 C1711 0.927 1_565 S
H1753 C1712 0.930 . S
H1754 C1713 0.939 . S
H1755 C1714 0.930 . S
H1756 C1718 0.929 . S
H1757 C1720 0.930 . S
H1758 C1726 0.929 . S
H1759 C1727 0.930 . S
Li1760 N1777 1.990 . S
Li1760 O1820 1.956 . S
Li1760 O1821 1.970 . S
Li1760 O1822 1.961 . S
Li1761 N1785 1.990 . S
Li1761 O1820 1.970 . S
Li1761 O1821 1.956 . S
Li1761 O1823 1.961 . S
Li1762 N1807 1.990 1_554 S
Li1762 O1820 1.961 . S
Li1762 O1822 1.956 . S
Li1762 O1823 1.970 . S
Li1763 N1813 1.990 . S
Li1763 O1821 1.961 . S
Li1763 O1822 1.970 . S
Li1763 O1823 1.956 . S
C1764 C1766 1.348 . S
C1764 C1767 1.356 . S
C1764 O1820 1.325 . S
N1765 C1768 1.314 . S
N1765 C1769 1.279 . S
C1766 C1764 1.348 . S
C1766 C1768 1.353 . S
C1766 H1824 0.929 . S
C1767 C1764 1.356 . S
C1767 C1769 1.358 . S
C1767 H1825 0.930 . S
C1768 N1765 1.314 . S
C1768 C1766 1.353 . S
C1768 H1826 0.930 . S
C1769 N1765 1.279 . S
C1769 C1767 1.358 . S
C1769 H1827 0.930 . S
C1770 C1773 1.348 . S
C1770 C1774 1.356 . S
C1770 O1821 1.325 . S
C1771 N1772 1.279 . S
C1771 C1774 1.358 . S
C1771 H1828 0.930 . S
N1772 C1771 1.279 . S
N1772 C1775 1.314 . S
C1773 C1770 1.348 . S
C1773 C1775 1.353 . S
C1773 H1829 0.929 . S
C1774 C1770 1.356 . S
C1774 C1771 1.358 . S
C1774 H1830 0.930 . S
C1775 N1772 1.314 . S
C1775 C1773 1.353 . S
C1775 H1831 0.930 . S
C1776 N1777 1.314 . S
C1776 C1781 1.353 . S
C1776 H1782 0.930 . S
N1777 Li1760 1.990 . S
N1777 C1776 1.314 . S
N1777 C1779 1.279 . S
C1778 C1779 1.358 . S
C1778 C1780 1.356 . S
C1778 H1832 0.930 . S
C1779 N1777 1.279 . S
C1779 C1778 1.358 . S
C1779 H1783 0.930 . S
C1780 C1778 1.356 . S
C1780 C1781 1.348 . S
C1781 C1776 1.353 . S
C1781 C1780 1.348 . S
C1781 H1833 0.929 . S
H1782 C1776 0.930 . S
H1783 C1779 0.930 . S
C1784 N1785 1.314 . S
C1784 C1786 1.353 . S
C1784 H1790 0.930 . S
N1785 Li1761 1.990 . S
N1785 C1784 1.314 . S
N1785 C1788 1.279 . S
C1786 C1784 1.353 . S
C1786 C1789 1.348 . S
C1786 H1834 0.929 . S
C1787 C1788 1.358 . S
C1787 C1789 1.356 . S
C1787 H1835 0.930 . S
C1788 N1785 1.279 . S
C1788 C1787 1.358 . S
C1788 H1791 0.930 . S
C1789 C1786 1.348 . S
C1789 C1787 1.356 . S
H1790 C1784 0.930 . S
H1791 C1788 0.930 . S
C1792 C1794 1.348 . S
C1792 C1795 1.356 . S
C1792 O1822 1.325 . S
N1793 C1796 1.314 . S
N1793 C1797 1.279 . S
C1794 C1792 1.348 . S
C1794 C1796 1.353 . S
C1794 H1836 0.929 . S
C1795 C1792 1.356 . S
C1795 C1797 1.358 . S
C1795 H1837 0.930 . S
C1796 N1793 1.314 . S
C1796 C1794 1.353 . S
C1796 H1838 0.930 . S
C1797 N1793 1.279 . S
C1797 C1795 1.358 . S
C1797 H1839 0.930 . S
C1798 C1799 1.348 . S
C1798 C1800 1.356 . S
C1798 O1823 1.325 1_556 S
C1799 C1798 1.348 . S
C1799 C1801 1.353 . S
C1799 H1840 0.929 . S
C1800 C1798 1.356 . S
C1800 C1802 1.358 . S
C1800 H1841 0.930 1_556 S
C1801 C1799 1.353 . S
C1801 N1803 1.314 . S
C1801 H1842 0.930 . S
C1802 C1800 1.358 . S
C1802 N1803 1.279 . S
C1802 H1843 0.930 . S
N1803 C1801 1.314 . S
N1803 C1802 1.279 . S
C1804 C1806 1.353 . S
C1804 N1807 1.314 . S
C1804 H1810 0.930 . S
C1805 N1807 1.279 . S
C1805 C1808 1.358 . S
C1805 H1811 0.930 . S
C1806 C1804 1.353 . S
C1806 C1809 1.348 . S
C1806 H1844 0.929 . S
N1807 Li1762 1.990 1_556 S
N1807 C1804 1.314 . S
N1807 C1805 1.279 . S
C1808 C1805 1.358 . S
C1808 C1809 1.356 . S
C1808 H1845 0.930 . S
C1809 C1806 1.348 . S
C1809 C1808 1.356 . S
H1810 C1804 0.930 . S
H1811 C1805 0.930 . S
C1812 N1813 1.314 . S
C1812 C1814 1.353 . S
C1812 H1818 0.930 . S
N1813 Li1763 1.990 . S
N1813 C1812 1.314 . S
N1813 C1816 1.279 . S
C1814 C1812 1.353 . S
C1814 C1817 1.348 . S
C1814 H1846 0.929 . S
C1815 C1816 1.358 . S
C1815 C1817 1.356 . S
C1815 H1847 0.930 1_554 S
C1816 N1813 1.279 . S
C1816 C1815 1.358 . S
C1816 H1819 0.930 1_554 S
C1817 C1814 1.348 . S
C1817 C1815 1.356 . S
H1818 C1812 0.930 . S
H1819 C1816 0.930 1_556 S
O1820 Li1760 1.956 . S
O1820 Li1761 1.970 . S
O1820 Li1762 1.961 . S
O1820 C1764 1.325 . S
O1821 Li1760 1.970 . S
O1821 Li1761 1.956 . S
O1821 Li1763 1.961 . S
O1821 C1770 1.325 . S
O1822 Li1760 1.961 . S
O1822 Li1762 1.956 . S
O1822 Li1763 1.970 . S
O1822 C1792 1.325 . S
O1823 Li1761 1.961 . S
O1823 Li1762 1.970 . S
O1823 Li1763 1.956 . S
O1823 C1798 1.325 1_554 S
H1824 C1766 0.929 . S
H1825 C1767 0.930 . S
H1826 C1768 0.930 . S
H1827 C1769 0.930 . S
H1828 C1771 0.930 . S
H1829 C1773 0.929 . S
H1830 C1774 0.930 . S
H1831 C1775 0.930 . S
H1832 C1778 0.930 . S
H1833 C1781 0.929 . S
H1834 C1786 0.929 . S
H1835 C1787 0.930 . S
H1836 C1794 0.929 . S
H1837 C1795 0.930 . S
H1838 C1796 0.930 . S
H1839 C1797 0.930 . S
H1840 C1799 0.929 . S
H1841 C1800 0.930 1_554 S
H1842 C1801 0.930 . S
H1843 C1802 0.930 . S
H1844 C1806 0.929 . S
H1845 C1808 0.930 . S
H1846 C1814 0.929 . S
H1847 C1815 0.930 1_556 S
Li1848 N1865 1.990 . S
Li1848 O1908 1.956 . S
Li1848 O1909 1.970 . S
Li1848 O1910 1.961 . S
Li1849 N1873 1.990 . S
Li1849 O1908 1.970 . S
Li1849 O1909 1.956 . S
Li1849 O1911 1.961 . S
Li1850 N1895 1.990 . S
Li1850 O1908 1.961 . S
Li1850 O1910 1.956 . S
Li1850 O1911 1.970 . S
Li1851 N1901 1.990 . S
Li1851 O1909 1.961 . S
Li1851 O1910 1.970 . S
Li1851 O1911 1.956 . S
C1852 C1854 1.348 . S
C1852 C1855 1.356 . S
C1852 O1908 1.325 . S
N1853 C1856 1.314 . S
N1853 C1857 1.279 . S
C1854 C1852 1.348 . S
C1854 C1856 1.353 . S
C1854 H1912 0.929 . S
C1855 C1852 1.356 . S
C1855 C1857 1.358 . S
C1855 H1913 0.930 . S
C1856 N1853 1.314 . S
C1856 C1854 1.353 . S
C1856 H1914 0.930 . S
C1857 N1853 1.279 . S
C1857 C1855 1.358 . S
C1857 H1915 0.930 . S
C1858 C1861 1.348 . S
C1858 C1862 1.356 . S
C1858 O1909 1.325 . S
C1859 N1860 1.279 . S
C1859 C1862 1.358 . S
C1859 H1916 0.930 . S
N1860 C1859 1.279 . S
N1860 C1863 1.314 . S
C1861 C1858 1.348 . S
C1861 C1863 1.353 . S
C1861 H1917 0.929 . S
C1862 C1858 1.356 . S
C1862 C1859 1.358 . S
C1862 H1918 0.930 . S
C1863 N1860 1.314 . S
C1863 C1861 1.353 . S
C1863 H1919 0.930 . S
C1864 N1865 1.314 . S
C1864 C1869 1.353 . S
C1864 H1870 0.930 . S
N1865 Li1848 1.990 . S
N1865 C1864 1.314 . S
N1865 C1867 1.279 . S
C1866 C1867 1.358 . S
C1866 C1868 1.356 . S
C1866 H1920 0.930 . S
C1867 N1865 1.279 . S
C1867 C1866 1.358 . S
C1867 H1871 0.930 . S
C1868 C1866 1.356 . S
C1868 C1869 1.348 . S
C1869 C1864 1.353 . S
C1869 C1868 1.348 . S
C1869 H1921 0.929 . S
H1870 C1864 0.930 . S
H1871 C1867 0.930 . S
C1872 N1873 1.314 . S
C1872 C1874 1.353 . S
C1872 H1878 0.930 . S
N1873 Li1849 1.990 . S
N1873 C1872 1.314 . S
N1873 C1876 1.279 . S
C1874 C1872 1.353 . S
C1874 C1877 1.348 . S
C1874 H1922 0.929 . S
C1875 C1876 1.358 . S
C1875 C1877 1.356 . S
C1875 H1923 0.930 . S
C1876 N1873 1.279 . S
C1876 C1875 1.358 . S
C1876 H1879 0.930 . S
C1877 C1874 1.348 . S
C1877 C1875 1.356 . S
H1878 C1872 0.930 . S
H1879 C1876 0.930 . S
C1880 C1882 1.348 . S
C1880 C1883 1.356 . S
C1880 O1910 1.325 . S
N1881 C1884 1.314 . S
N1881 C1885 1.279 . S
C1882 C1880 1.348 . S
C1882 C1884 1.353 . S
C1882 H1924 0.929 . S
C1883 C1880 1.356 . S
C1883 C1885 1.358 . S
C1883 H1925 0.930 . S
C1884 N1881 1.314 . S
C1884 C1882 1.353 . S
C1884 H1926 0.930 . S
C1885 N1881 1.279 . S
C1885 C1883 1.358 . S
C1885 H1927 0.930 . S
C1886 C1887 1.348 . S
C1886 C1888 1.356 . S
C1886 O1911 1.325 . S
C1887 C1886 1.348 . S
C1887 C1889 1.353 . S
C1887 H1928 0.929 . S
C1888 C1886 1.356 . S
C1888 C1890 1.358 . S
C1888 H1929 0.930 . S
C1889 C1887 1.353 . S
C1889 N1891 1.314 . S
C1889 H1930 0.930 . S
C1890 C1888 1.358 . S
C1890 N1891 1.279 . S
C1890 H1931 0.930 . S
N1891 C1889 1.314 . S
N1891 C1890 1.279 . S
C1892 C1894 1.353 . S
C1892 N1895 1.314 . S
C1892 H1898 0.930 . S
C1893 N1895 1.279 . S
C1893 C1896 1.358 . S
C1893 H1899 0.930 . S
C1894 C1892 1.353 . S
C1894 C1897 1.348 . S
C1894 H1932 0.929 . S
N1895 Li1850 1.990 . S
N1895 C1892 1.314 . S
N1895 C1893 1.279 . S
C1896 C1893 1.358 . S
C1896 C1897 1.356 . S
C1896 H1933 0.930 . S
C1897 C1894 1.348 . S
C1897 C1896 1.356 . S
H1898 C1892 0.930 . S
H1899 C1893 0.930 . S
C1900 N1901 1.314 . S
C1900 C1902 1.353 . S
C1900 H1906 0.930 . S
N1901 Li1851 1.990 . S
N1901 C1900 1.314 . S
N1901 C1904 1.279 . S
C1902 C1900 1.353 . S
C1902 C1905 1.348 . S
C1902 H1934 0.929 . S
C1903 C1904 1.358 . S
C1903 C1905 1.356 . S
C1903 H1935 0.930 . S
C1904 N1901 1.279 . S
C1904 C1903 1.358 . S
C1904 H1907 0.930 . S
C1905 C1902 1.348 . S
C1905 C1903 1.356 . S
H1906 C1900 0.930 . S
H1907 C1904 0.930 . S
O1908 Li1848 1.956 . S
O1908 Li1849 1.970 . S
O1908 Li1850 1.961 . S
O1908 C1852 1.325 . S
O1909 Li1848 1.970 . S
O1909 Li1849 1.956 . S
O1909 Li1851 1.961 . S
O1909 C1858 1.325 . S
O1910 Li1848 1.961 . S
O1910 Li1850 1.956 . S
O1910 Li1851 1.970 . S
O1910 C1880 1.325 . S
O1911 Li1849 1.961 . S
O1911 Li1850 1.970 . S
O1911 Li1851 1.956 . S
O1911 C1886 1.325 . S
H1912 C1854 0.929 . S
H1913 C1855 0.930 . S
H1914 C1856 0.930 . S
H1915 C1857 0.930 . S
H1916 C1859 0.930 . S
H1917 C1861 0.929 . S
H1918 C1862 0.930 . S
H1919 C1863 0.930 . S
H1920 C1866 0.930 . S
H1921 C1869 0.929 . S
H1922 C1874 0.929 . S
H1923 C1875 0.930 . S
H1924 C1882 0.929 . S
H1925 C1883 0.930 . S
H1926 C1884 0.930 . S
H1927 C1885 0.930 . S
H1928 C1887 0.929 . S
H1929 C1888 0.930 . S
H1930 C1889 0.930 . S
H1931 C1890 0.930 . S
H1932 C1894 0.929 . S
H1933 C1896 0.930 . S
H1934 C1902 0.929 . S
H1935 C1903 0.930 . S
Li1936 N1953 1.990 . S
Li1936 O1996 1.956 . S
Li1936 O1997 1.970 . S
Li1936 O1998 1.961 . S
Li1937 N1961 1.990 . S
Li1937 O1996 1.970 . S
Li1937 O1997 1.956 . S
Li1937 O1999 1.961 . S
Li1938 N1983 1.990 . S
Li1938 O1996 1.961 . S
Li1938 O1998 1.956 . S
Li1938 O1999 1.970 . S
Li1939 N1989 1.990 . S
Li1939 O1997 1.961 . S
Li1939 O1998 1.970 . S
Li1939 O1999 1.956 . S
C1940 C1942 1.348 . S
C1940 C1943 1.356 . S
C1940 O1996 1.325 . S
N1941 C1944 1.314 . S
N1941 C1945 1.279 . S
C1942 C1940 1.348 . S
C1942 C1944 1.353 . S
C1942 H2000 0.929 . S
C1943 C1940 1.356 . S
C1943 C1945 1.358 . S
C1943 H2001 0.930 . S
C1944 N1941 1.314 . S
C1944 C1942 1.353 . S
C1944 H2002 0.930 . S
C1945 N1941 1.279 . S
C1945 C1943 1.358 . S
C1945 H2003 0.930 . S
C1946 C1949 1.348 . S
C1946 C1950 1.356 . S
C1946 O1997 1.325 . S
C1947 N1948 1.279 . S
C1947 C1950 1.358 . S
C1947 H2004 0.930 . S
N1948 C1947 1.279 . S
N1948 C1951 1.314 . S
C1949 C1946 1.348 . S
C1949 C1951 1.353 . S
C1949 H2005 0.929 . S
C1950 C1946 1.356 . S
C1950 C1947 1.358 . S
C1950 H2006 0.930 . S
C1951 N1948 1.314 . S
C1951 C1949 1.353 . S
C1951 H2007 0.930 . S
C1952 N1953 1.314 . S
C1952 C1957 1.353 . S
C1952 H1958 0.930 . S
N1953 Li1936 1.990 . S
N1953 C1952 1.314 . S
N1953 C1955 1.279 . S
C1954 C1955 1.358 . S
C1954 C1956 1.356 . S
C1954 H2008 0.930 . S
C1955 N1953 1.279 . S
C1955 C1954 1.358 . S
C1955 H1959 0.930 . S
C1956 C1954 1.356 . S
C1956 C1957 1.348 . S
C1957 C1952 1.353 . S
C1957 C1956 1.348 . S
C1957 H2009 0.929 . S
H1958 C1952 0.930 . S
H1959 C1955 0.930 . S
C1960 N1961 1.314 . S
C1960 C1962 1.353 . S
C1960 H1966 0.930 . S
N1961 Li1937 1.990 . S
N1961 C1960 1.314 . S
N1961 C1964 1.279 . S
C1962 C1960 1.353 . S
C1962 C1965 1.348 . S
C1962 H2010 0.929 . S
C1963 C1964 1.358 . S
C1963 C1965 1.356 . S
C1963 H2011 0.930 . S
C1964 N1961 1.279 . S
C1964 C1963 1.358 . S
C1964 H1967 0.930 . S
C1965 C1962 1.348 . S
C1965 C1963 1.356 . S
H1966 C1960 0.930 . S
H1967 C1964 0.930 . S
C1968 C1970 1.348 . S
C1968 C1971 1.356 . S
C1968 O1998 1.325 . S
N1969 C1972 1.314 . S
N1969 C1973 1.279 . S
C1970 C1968 1.348 . S
C1970 C1972 1.353 . S
C1970 H2012 0.929 . S
C1971 C1968 1.356 . S
C1971 C1973 1.358 . S
C1971 H2013 0.930 . S
C1972 N1969 1.314 . S
C1972 C1970 1.353 . S
C1972 H2014 0.930 . S
C1973 N1969 1.279 . S
C1973 C1971 1.358 . S
C1973 H2015 0.930 . S
C1974 C1975 1.348 . S
C1974 C1976 1.356 . S
C1974 O1999 1.325 . S
C1975 C1974 1.348 . S
C1975 C1977 1.353 . S
C1975 H2016 0.929 . S
C1976 C1974 1.356 . S
C1976 C1978 1.358 . S
C1976 H2017 0.930 . S
C1977 C1975 1.353 . S
C1977 N1979 1.314 . S
C1977 H2018 0.930 . S
C1978 C1976 1.358 . S
C1978 N1979 1.279 . S
C1978 H2019 0.930 . S
N1979 C1977 1.314 . S
N1979 C1978 1.279 . S
C1980 C1982 1.353 . S
C1980 N1983 1.314 . S
C1980 H1986 0.930 . S
C1981 N1983 1.279 . S
C1981 C1984 1.358 . S
C1981 H1987 0.930 . S
C1982 C1980 1.353 . S
C1982 C1985 1.348 . S
C1982 H2020 0.929 . S
N1983 Li1938 1.990 . S
N1983 C1980 1.314 . S
N1983 C1981 1.279 . S
C1984 C1981 1.358 . S
C1984 C1985 1.356 . S
C1984 H2021 0.930 . S
C1985 C1982 1.348 . S
C1985 C1984 1.356 . S
H1986 C1980 0.930 . S
H1987 C1981 0.930 . S
C1988 N1989 1.314 . S
C1988 C1990 1.353 . S
C1988 H1994 0.930 . S
N1989 Li1939 1.990 . S
N1989 C1988 1.314 . S
N1989 C1992 1.279 . S
C1990 C1988 1.353 . S
C1990 C1993 1.348 . S
C1990 H2022 0.929 . S
C1991 C1992 1.358 . S
C1991 C1993 1.356 . S
C1991 H2023 0.930 . S
C1992 N1989 1.279 . S
C1992 C1991 1.358 . S
C1992 H1995 0.930 . S
C1993 C1990 1.348 . S
C1993 C1991 1.356 . S
H1994 C1988 0.930 . S
H1995 C1992 0.930 . S
O1996 Li1936 1.956 . S
O1996 Li1937 1.970 . S
O1996 Li1938 1.961 . S
O1996 C1940 1.325 . S
O1997 Li1936 1.970 . S
O1997 Li1937 1.956 . S
O1997 Li1939 1.961 . S
O1997 C1946 1.325 . S
O1998 Li1936 1.961 . S
O1998 Li1938 1.956 . S
O1998 Li1939 1.970 . S
O1998 C1968 1.325 . S
O1999 Li1937 1.961 . S
O1999 Li1938 1.970 . S
O1999 Li1939 1.956 . S
O1999 C1974 1.325 . S
H2000 C1942 0.929 . S
H2001 C1943 0.930 . S
H2002 C1944 0.930 . S
H2003 C1945 0.930 . S
H2004 C1947 0.930 . S
H2005 C1949 0.929 . S
H2006 C1950 0.930 . S
H2007 C1951 0.930 . S
H2008 C1954 0.930 . S
H2009 C1957 0.929 . S
H2010 C1962 0.929 . S
H2011 C1963 0.930 . S
H2012 C1970 0.929 . S
H2013 C1971 0.930 . S
H2014 C1972 0.930 . S
H2015 C1973 0.930 . S
H2016 C1975 0.929 . S
H2017 C1976 0.930 . S
H2018 C1977 0.930 . S
H2019 C1978 0.930 . S
H2020 C1982 0.929 . S
H2021 C1984 0.930 . S
H2022 C1990 0.929 . S
H2023 C1991 0.930 . S
Li2024 N2041 1.990 . S
Li2024 O2084 1.956 . S
Li2024 O2085 1.970 . S
Li2024 O2086 1.961 . S
Li2025 N2049 1.990 . S
Li2025 O2084 1.970 . S
Li2025 O2085 1.956 . S
Li2025 O2087 1.961 . S
Li2026 N2071 1.990 . S
Li2026 O2084 1.961 . S
Li2026 O2086 1.956 . S
Li2026 O2087 1.970 . S
Li2027 N2077 1.990 . S
Li2027 O2085 1.961 . S
Li2027 O2086 1.970 . S
Li2027 O2087 1.956 . S
C2028 C2030 1.348 . S
C2028 C2031 1.356 . S
C2028 O2084 1.325 . S
N2029 C2032 1.314 . S
N2029 C2033 1.279 . S
C2030 C2028 1.348 . S
C2030 C2032 1.353 . S
C2030 H2088 0.929 . S
C2031 C2028 1.356 . S
C2031 C2033 1.358 . S
C2031 H2089 0.930 . S
C2032 N2029 1.314 . S
C2032 C2030 1.353 . S
C2032 H2090 0.930 . S
C2033 N2029 1.279 . S
C2033 C2031 1.358 . S
C2033 H2091 0.930 . S
C2034 C2037 1.348 . S
C2034 C2038 1.356 . S
C2034 O2085 1.325 . S
C2035 N2036 1.279 . S
C2035 C2038 1.358 . S
C2035 H2092 0.930 . S
N2036 C2035 1.279 . S
N2036 C2039 1.314 . S
C2037 C2034 1.348 . S
C2037 C2039 1.353 . S
C2037 H2093 0.929 . S
C2038 C2034 1.356 . S
C2038 C2035 1.358 . S
C2038 H2094 0.930 . S
C2039 N2036 1.314 . S
C2039 C2037 1.353 . S
C2039 H2095 0.930 . S
C2040 N2041 1.314 . S
C2040 C2045 1.353 . S
C2040 H2046 0.930 . S
N2041 Li2024 1.990 . S
N2041 C2040 1.314 . S
N2041 C2043 1.279 . S
C2042 C2043 1.358 . S
C2042 C2044 1.356 . S
C2042 H2096 0.930 . S
C2043 N2041 1.279 . S
C2043 C2042 1.358 . S
C2043 H2047 0.930 . S
C2044 C2042 1.356 . S
C2044 C2045 1.348 . S
C2045 C2040 1.353 . S
C2045 C2044 1.348 . S
C2045 H2097 0.929 . S
H2046 C2040 0.930 . S
H2047 C2043 0.930 . S
C2048 N2049 1.314 . S
C2048 C2050 1.353 . S
C2048 H2054 0.930 . S
N2049 Li2025 1.990 . S
N2049 C2048 1.314 . S
N2049 C2052 1.279 . S
C2050 C2048 1.353 . S
C2050 C2053 1.348 . S
C2050 H2098 0.929 . S
C2051 C2052 1.358 . S
C2051 C2053 1.356 . S
C2051 H2099 0.930 . S
C2052 N2049 1.279 . S
C2052 C2051 1.358 . S
C2052 H2055 0.930 . S
C2053 C2050 1.348 . S
C2053 C2051 1.356 . S
H2054 C2048 0.930 . S
H2055 C2052 0.930 . S
C2056 C2058 1.348 . S
C2056 C2059 1.356 . S
C2056 O2086 1.325 . S
N2057 C2060 1.314 . S
N2057 C2061 1.279 . S
C2058 C2056 1.348 . S
C2058 C2060 1.353 . S
C2058 H2100 0.929 . S
C2059 C2056 1.356 . S
C2059 C2061 1.358 . S
C2059 H2101 0.930 . S
C2060 N2057 1.314 . S
C2060 C2058 1.353 . S
C2060 H2102 0.930 . S
C2061 N2057 1.279 . S
C2061 C2059 1.358 . S
C2061 H2103 0.930 . S
C2062 C2063 1.348 . S
C2062 C2064 1.356 . S
C2062 O2087 1.325 . S
C2063 C2062 1.348 . S
C2063 C2065 1.353 . S
C2063 H2104 0.929 . S
C2064 C2062 1.356 . S
C2064 C2066 1.358 . S
C2064 H2105 0.930 . S
C2065 C2063 1.353 . S
C2065 N2067 1.314 . S
C2065 H2106 0.930 . S
C2066 C2064 1.358 . S
C2066 N2067 1.279 . S
C2066 H2107 0.930 . S
N2067 C2065 1.314 . S
N2067 C2066 1.279 . S
C2068 C2070 1.353 . S
C2068 N2071 1.314 . S
C2068 H2074 0.930 . S
C2069 N2071 1.279 . S
C2069 C2072 1.358 . S
C2069 H2075 0.930 . S
C2070 C2068 1.353 . S
C2070 C2073 1.348 . S
C2070 H2108 0.929 . S
N2071 Li2026 1.990 . S
N2071 C2068 1.314 . S
N2071 C2069 1.279 . S
C2072 C2069 1.358 . S
C2072 C2073 1.356 . S
C2072 H2109 0.930 . S
C2073 C2070 1.348 . S
C2073 C2072 1.356 . S
H2074 C2068 0.930 . S
H2075 C2069 0.930 . S
C2076 N2077 1.314 . S
C2076 C2078 1.353 . S
C2076 H2082 0.930 . S
N2077 Li2027 1.990 . S
N2077 C2076 1.314 . S
N2077 C2080 1.279 . S
C2078 C2076 1.353 . S
C2078 C2081 1.348 . S
C2078 H2110 0.929 . S
C2079 C2080 1.358 . S
C2079 C2081 1.356 . S
C2079 H2111 0.930 . S
C2080 N2077 1.279 . S
C2080 C2079 1.358 . S
C2080 H2083 0.930 . S
C2081 C2078 1.348 . S
C2081 C2079 1.356 . S
H2082 C2076 0.930 . S
H2083 C2080 0.930 . S
O2084 Li2024 1.956 . S
O2084 Li2025 1.970 . S
O2084 Li2026 1.961 . S
O2084 C2028 1.325 . S
O2085 Li2024 1.970 . S
O2085 Li2025 1.956 . S
O2085 Li2027 1.961 . S
O2085 C2034 1.325 . S
O2086 Li2024 1.961 . S
O2086 Li2026 1.956 . S
O2086 Li2027 1.970 . S
O2086 C2056 1.325 . S
O2087 Li2025 1.961 . S
O2087 Li2026 1.970 . S
O2087 Li2027 1.956 . S
O2087 C2062 1.325 . S
H2088 C2030 0.929 . S
H2089 C2031 0.930 . S
H2090 C2032 0.930 . S
H2091 C2033 0.930 . S
H2092 C2035 0.930 . S
H2093 C2037 0.929 . S
H2094 C2038 0.930 . S
H2095 C2039 0.930 . S
H2096 C2042 0.930 . S
H2097 C2045 0.929 . S
H2098 C2050 0.929 . S
H2099 C2051 0.930 . S
H2100 C2058 0.929 . S
H2101 C2059 0.930 . S
H2102 C2060 0.930 . S
H2103 C2061 0.930 . S
H2104 C2063 0.929 . S
H2105 C2064 0.930 . S
H2106 C2065 0.930 . S
H2107 C2066 0.930 . S
H2108 C2070 0.929 . S
H2109 C2072 0.930 . S
H2110 C2078 0.929 . S
H2111 C2079 0.930 . S
Tb2112 C2114 2.809 1_455 S
Tb2112 O2132 2.484 1_455 S
Tb2112 O2133 2.443 1_454 S
Tb2112 O2134 2.658 . S
Tb2112 O2135 2.409 1_554 S
Tb2112 O2136 2.378 . S
Tb2112 O2140 2.325 . S
Tb2112 O2143 2.341 1_545 S
Tb2113 C2123 2.809 1_545 S
Tb2113 O2134 2.325 . S
Tb2113 O2137 2.341 . S
Tb2113 O2138 2.484 1_545 S
Tb2113 O2139 2.440 . S
Tb2113 O2140 2.658 . S
Tb2113 O2141 2.409 . S
Tb2113 O2142 2.378 1_545 S
C2114 Tb2112 2.809 1_655 S
C2114 C2115 1.514 . S
C2114 O2132 1.248 . S
C2114 O2133 1.270 1_554 S
C2115 C2114 1.514 . S
C2115 C2116 1.359 . S
C2115 C2120 1.348 1_554 S
C2116 C2115 1.359 . S
C2116 C2117 1.380 . S
C2116 H2144 0.929 . S
C2117 C2116 1.380 . S
C2117 C2118 1.347 . S
C2117 H2145 0.931 . S
C2118 C2117 1.347 . S
C2118 C2119 1.369 1_554 S
C2119 C2118 1.369 1_556 S
C2119 C2120 1.408 . S
C2119 H2146 0.930 . S
C2120 C2115 1.348 1_556 S
C2120 C2119 1.408 . S
C2120 H2147 0.930 . S
C2121 O2134 1.281 1_556 S
C2121 O2135 1.254 . S
C2122 O2136 1.236 . S
C2122 O2137 1.266 . S
C2123 Tb2113 2.809 1_565 S
C2123 C2124 1.514 . S
C2123 O2138 1.248 . S
C2123 O2139 1.266 1_565 S
C2124 C2123 1.514 . S
C2124 C2125 1.359 . S
C2124 C2129 1.348 . S
C2125 C2124 1.359 . S
C2125 C2126 1.380 . S
C2125 H2148 0.929 . S
C2126 C2125 1.380 . S
C2126 C2127 1.347 . S
C2126 H2149 0.931 . S
C2127 C2126 1.347 . S
C2127 C2128 1.369 . S
C2128 C2127 1.369 . S
C2128 C2129 1.408 . S
C2128 H2150 0.930 . S
C2129 C2124 1.348 . S
C2129 C2128 1.408 . S
C2129 H2151 0.930 . S
C2130 O2140 1.281 . S
C2130 O2141 1.254 . S
C2131 O2142 1.236 . S
C2131 O2143 1.266 . S
O2132 Tb2112 2.484 1_655 S
O2132 C2114 1.248 . S
O2133 Tb2112 2.443 1_656 S
O2133 C2114 1.270 1_556 S
O2134 Tb2112 2.658 . S
O2134 Tb2113 2.325 . S
O2134 C2121 1.281 1_554 S
O2135 Tb2112 2.409 1_556 S
O2135 C2121 1.254 . S
O2136 Tb2112 2.378 . S
O2136 C2122 1.236 . S
O2137 Tb2113 2.341 . S
O2137 C2122 1.266 . S
O2138 Tb2113 2.484 1_565 S
O2138 C2123 1.248 . S
O2139 Tb2113 2.440 . S
O2139 C2123 1.266 1_545 S
O2140 Tb2112 2.325 . S
O2140 Tb2113 2.658 . S
O2140 C2130 1.281 . S
O2141 Tb2113 2.409 . S
O2141 C2130 1.254 . S
O2142 Tb2113 2.378 1_565 S
O2142 C2131 1.236 . S
O2143 Tb2112 2.341 1_565 S
O2143 C2131 1.266 . S
H2144 C2116 0.929 . S
H2145 C2117 0.931 . S
H2146 C2119 0.930 . S
H2147 C2120 0.930 . S
H2148 C2125 0.929 . S
H2149 C2126 0.931 . S
H2150 C2128 0.930 . S
H2151 C2129 0.930 . S
Tb2152 C2154 2.809 . S
Tb2152 O2172 2.484 . S
Tb2152 O2173 2.440 . S
Tb2152 O2174 2.658 . S
Tb2152 O2175 2.409 . S
Tb2152 O2176 2.378 . S
Tb2152 O2180 2.325 . S
Tb2152 O2183 2.341 . S
Tb2153 C2163 2.809 . S
Tb2153 O2174 2.325 . S
Tb2153 O2177 2.341 . S
Tb2153 O2178 2.484 . S
Tb2153 O2179 2.440 . S
Tb2153 O2180 2.658 . S
Tb2153 O2181 2.409 . S
Tb2153 O2182 2.378 . S
C2154 Tb2152 2.809 . S
C2154 C2155 1.514 . S
C2154 O2172 1.248 . S
C2154 O2173 1.266 . S
C2155 C2154 1.514 . S
C2155 C2156 1.359 . S
C2155 C2160 1.348 . S
C2156 C2155 1.359 . S
C2156 C2157 1.380 . S
C2156 H2184 0.929 . S
C2157 C2156 1.380 . S
C2157 C2158 1.347 . S
C2157 H2185 0.931 . S
C2158 C2157 1.347 . S
C2158 C2159 1.369 . S
C2159 C2158 1.369 . S
C2159 C2160 1.408 . S
C2159 H2186 0.930 . S
C2160 C2155 1.348 . S
C2160 C2159 1.408 . S
C2160 H2187 0.930 . S
C2161 O2174 1.281 . S
C2161 O2175 1.254 . S
C2162 O2176 1.236 . S
C2162 O2177 1.266 . S
C2163 Tb2153 2.809 . S
C2163 C2164 1.514 . S
C2163 O2178 1.248 . S
C2163 O2179 1.266 . S
C2164 C2163 1.514 . S
C2164 C2165 1.359 . S
C2164 C2169 1.348 . S
C2165 C2164 1.359 . S
C2165 C2166 1.380 . S
C2165 H2188 0.929 . S
C2166 C2165 1.380 . S
C2166 C2167 1.347 . S
C2166 H2189 0.931 . S
C2167 C2166 1.347 . S
C2167 C2168 1.369 . S
C2168 C2167 1.369 . S
C2168 C2169 1.408 . S
C2168 H2190 0.930 . S
C2169 C2164 1.348 . S
C2169 C2168 1.408 . S
C2169 H2191 0.930 . S
C2170 O2180 1.281 . S
C2170 O2181 1.254 . S
C2171 O2182 1.236 . S
C2171 O2183 1.266 . S
O2172 Tb2152 2.484 . S
O2172 C2154 1.248 . S
O2173 Tb2152 2.440 . S
O2173 C2154 1.266 . S
O2174 Tb2152 2.658 . S
O2174 Tb2153 2.325 . S
O2174 C2161 1.281 . S
O2175 Tb2152 2.409 . S
O2175 C2161 1.254 . S
O2176 Tb2152 2.378 . S
O2176 C2162 1.236 . S
O2177 Tb2153 2.341 . S
O2177 C2162 1.266 . S
O2178 Tb2153 2.484 . S
O2178 C2163 1.248 . S
O2179 Tb2153 2.440 . S
O2179 C2163 1.266 . S
O2180 Tb2152 2.325 . S
O2180 Tb2153 2.658 . S
O2180 C2170 1.281 . S
O2181 Tb2153 2.409 . S
O2181 C2170 1.254 . S
O2182 Tb2153 2.378 . S
O2182 C2171 1.236 . S
O2183 Tb2152 2.341 . S
O2183 C2171 1.266 . S
H2184 C2156 0.929 . S
H2185 C2157 0.931 . S
H2186 C2159 0.930 . S
H2187 C2160 0.930 . S
H2188 C2165 0.929 . S
H2189 C2166 0.931 . S
H2190 C2168 0.930 . S
H2191 C2169 0.930 . S
Tb2192 C2194 2.809 1_545 S
Tb2192 O2212 2.484 1_545 S
Tb2192 O2213 2.440 . S
Tb2192 O2214 2.658 . S
Tb2192 O2215 2.409 . S
Tb2192 O2216 2.378 1_545 S
Tb2192 O2220 2.325 . S
Tb2192 O2223 2.341 . S
Tb2193 C2203 2.809 . S
Tb2193 O2214 2.325 . S
Tb2193 O2217 2.341 1_545 S
Tb2193 O2218 2.484 . S
Tb2193 O2219 2.440 . S
Tb2193 O2220 2.658 . S
Tb2193 O2221 2.409 . S
Tb2193 O2222 2.378 . S
C2194 Tb2192 2.809 1_565 S
C2194 C2195 1.514 . S
C2194 O2212 1.248 . S
C2194 O2213 1.266 1_565 S
C2195 C2194 1.514 . S
C2195 C2196 1.359 . S
C2195 C2200 1.348 . S
C2196 C2195 1.359 . S
C2196 C2197 1.380 . S
C2196 H2224 0.929 . S
C2197 C2196 1.380 . S
C2197 C2198 1.347 . S
C2197 H2225 0.931 . S
C2198 C2197 1.347 . S
C2198 C2199 1.369 . S
C2199 C2198 1.369 . S
C2199 C2200 1.408 . S
C2199 H2226 0.930 . S
C2200 C2195 1.348 . S
C2200 C2199 1.408 . S
C2200 H2227 0.930 . S
C2201 O2214 1.281 . S
C2201 O2215 1.254 . S
C2202 O2216 1.236 . S
C2202 O2217 1.266 . S
C2203 Tb2193 2.809 . S
C2203 C2204 1.514 . S
C2203 O2218 1.248 . S
C2203 O2219 1.266 . S
C2204 C2203 1.514 . S
C2204 C2205 1.359 . S
C2204 C2209 1.348 . S
C2205 C2204 1.359 . S
C2205 C2206 1.380 . S
C2205 H2228 0.929 . S
C2206 C2205 1.380 . S
C2206 C2207 1.347 . S
C2206 H2229 0.931 . S
C2207 C2206 1.347 . S
C2207 C2208 1.369 . S
C2208 C2207 1.369 . S
C2208 C2209 1.408 . S
C2208 H2230 0.930 . S
C2209 C2204 1.348 . S
C2209 C2208 1.408 . S
C2209 H2231 0.930 . S
C2210 O2220 1.281 . S
C2210 O2221 1.254 . S
C2211 O2222 1.236 . S
C2211 O2223 1.266 . S
O2212 Tb2192 2.484 1_565 S
O2212 C2194 1.248 . S
O2213 Tb2192 2.440 . S
O2213 C2194 1.266 1_545 S
O2214 Tb2192 2.658 . S
O2214 Tb2193 2.325 . S
O2214 C2201 1.281 . S
O2215 Tb2192 2.409 . S
O2215 C2201 1.254 . S
O2216 Tb2192 2.378 1_565 S
O2216 C2202 1.236 . S
O2217 Tb2193 2.341 1_565 S
O2217 C2202 1.266 . S
O2218 Tb2193 2.484 . S
O2218 C2203 1.248 . S
O2219 Tb2193 2.440 . S
O2219 C2203 1.266 . S
O2220 Tb2192 2.325 . S
O2220 Tb2193 2.658 . S
O2220 C2210 1.281 . S
O2221 Tb2193 2.409 . S
O2221 C2210 1.254 . S
O2222 Tb2193 2.378 . S
O2222 C2211 1.236 . S
O2223 Tb2192 2.341 . S
O2223 C2211 1.266 . S
H2224 C2196 0.929 . S
H2225 C2197 0.931 . S
H2226 C2199 0.930 . S
H2227 C2200 0.930 . S
H2228 C2205 0.929 . S
H2229 C2206 0.931 . S
H2230 C2208 0.930 . S
H2231 C2209 0.930 . S
Tb2232 C2234 2.809 . S
Tb2232 O2252 2.484 . S
Tb2232 O2253 2.440 . S
Tb2232 O2254 2.658 . S
Tb2232 O2255 2.409 . S
Tb2232 O2256 2.378 . S
Tb2232 O2260 2.325 . S
Tb2232 O2263 2.341 . S
Tb2233 C2243 2.809 . S
Tb2233 O2254 2.325 . S
Tb2233 O2257 2.341 . S
Tb2233 O2258 2.484 . S
Tb2233 O2259 2.440 . S
Tb2233 O2260 2.658 . S
Tb2233 O2261 2.409 . S
Tb2233 O2262 2.378 . S
C2234 Tb2232 2.809 . S
C2234 C2235 1.514 . S
C2234 O2252 1.248 . S
C2234 O2253 1.266 . S
C2235 C2234 1.514 . S
C2235 C2236 1.359 . S
C2235 C2240 1.348 . S
C2236 C2235 1.359 . S
C2236 C2237 1.380 . S
C2236 H2264 0.929 . S
C2237 C2236 1.380 . S
C2237 C2238 1.347 . S
C2237 H2265 0.931 . S
C2238 C2237 1.347 . S
C2238 C2239 1.369 . S
C2239 C2238 1.369 . S
C2239 C2240 1.408 . S
C2239 H2266 0.930 . S
C2240 C2235 1.348 . S
C2240 C2239 1.408 . S
C2240 H2267 0.930 . S
C2241 O2254 1.281 . S
C2241 O2255 1.254 . S
C2242 O2256 1.236 . S
C2242 O2257 1.266 . S
C2243 Tb2233 2.809 . S
C2243 C2244 1.514 . S
C2243 O2258 1.248 . S
C2243 O2259 1.266 . S
C2244 C2243 1.514 . S
C2244 C2245 1.359 . S
C2244 C2249 1.348 . S
C2245 C2244 1.359 . S
C2245 C2246 1.380 . S
C2245 H2268 0.929 . S
C2246 C2245 1.380 . S
C2246 C2247 1.347 . S
C2246 H2269 0.931 . S
C2247 C2246 1.347 . S
C2247 C2248 1.369 . S
C2248 C2247 1.369 . S
C2248 C2249 1.408 . S
C2248 H2270 0.930 . S
C2249 C2244 1.348 . S
C2249 C2248 1.408 . S
C2249 H2271 0.930 . S
C2250 O2260 1.281 . S
C2250 O2261 1.254 . S
C2251 O2262 1.236 . S
C2251 O2263 1.266 . S
O2252 Tb2232 2.484 . S
O2252 C2234 1.248 . S
O2253 Tb2232 2.440 . S
O2253 C2234 1.266 . S
O2254 Tb2232 2.658 . S
O2254 Tb2233 2.325 . S
O2254 C2241 1.281 . S
O2255 Tb2232 2.409 . S
O2255 C2241 1.254 . S
O2256 Tb2232 2.378 . S
O2256 C2242 1.236 . S
O2257 Tb2233 2.341 . S
O2257 C2242 1.266 . S
O2258 Tb2233 2.484 . S
O2258 C2243 1.248 . S
O2259 Tb2233 2.440 . S
O2259 C2243 1.266 . S
O2260 Tb2232 2.325 . S
O2260 Tb2233 2.658 . S
O2260 C2250 1.281 . S
O2261 Tb2233 2.409 . S
O2261 C2250 1.254 . S
O2262 Tb2233 2.378 . S
O2262 C2251 1.236 . S
O2263 Tb2232 2.341 . S
O2263 C2251 1.266 . S
H2264 C2236 0.929 . S
H2265 C2237 0.931 . S
H2266 C2239 0.930 . S
H2267 C2240 0.930 . S
H2268 C2245 0.929 . S
H2269 C2246 0.931 . S
H2270 C2248 0.930 . S
H2271 C2249 0.930 . S
Tb2272 C2274 2.809 . S
Tb2272 O2292 2.484 . S
Tb2272 O2293 2.440 . S
Tb2272 O2294 2.658 . S
Tb2272 O2295 2.409 1_455 S
Tb2272 O2296 2.378 . S
Tb2272 O2300 2.325 . S
Tb2272 O2303 2.341 . S
Tb2273 C2283 2.809 . S
Tb2273 O2294 2.325 1_565 S
Tb2273 O2297 2.341 . S
Tb2273 O2298 2.484 . S
Tb2273 O2299 2.440 . S
Tb2273 O2300 2.658 1_565 S
Tb2273 O2301 2.409 1_565 S
Tb2273 O2302 2.378 1_565 S
C2274 Tb2272 2.809 . S
C2274 C2275 1.514 . S
C2274 O2292 1.248 . S
C2274 O2293 1.266 . S
C2275 C2274 1.514 . S
C2275 C2276 1.359 . S
C2275 C2280 1.348 1_455 S
C2276 C2275 1.359 . S
C2276 C2277 1.380 . S
C2276 H2304 0.929 . S
C2277 C2276 1.380 . S
C2277 C2278 1.398 . S
C2277 H2305 0.931 . S
C2278 C2277 1.398 . S
C2278 C2279 1.332 1_455 S
C2279 C2278 1.332 1_655 S
C2279 C2280 1.408 . S
C2279 H2306 0.930 . S
C2280 C2275 1.348 1_655 S
C2280 C2279 1.408 . S
C2280 H2307 0.930 . S
C2281 O2294 1.281 1_655 S
C2281 O2295 1.254 . S
C2282 O2296 1.236 . S
C2282 O2297 1.266 1_545 S
C2283 Tb2273 2.809 . S
C2283 C2284 1.514 . S
C2283 O2298 1.248 . S
C2283 O2299 1.266 . S
C2284 C2283 1.514 . S
C2284 C2285 1.359 . S
C2284 C2289 1.348 . S
C2285 C2284 1.359 . S
C2285 C2286 1.380 . S
C2285 H2308 0.929 . S
C2286 C2285 1.380 . S
C2286 C2287 1.347 . S
C2286 H2309 0.931 . S
C2287 C2286 1.347 . S
C2287 C2288 1.369 . S
C2288 C2287 1.369 . S
C2288 C2289 1.408 . S
C2288 H2310 0.930 . S
C2289 C2284 1.348 . S
C2289 C2288 1.408 . S
C2289 H2311 0.930 . S
C2290 O2300 1.281 . S
C2290 O2301 1.254 . S
C2291 O2302 1.236 . S
C2291 O2303 1.266 . S
O2292 Tb2272 2.484 . S
O2292 C2274 1.248 . S
O2293 Tb2272 2.440 . S
O2293 C2274 1.266 . S
O2294 Tb2272 2.658 . S
O2294 Tb2273 2.325 1_545 S
O2294 C2281 1.281 1_455 S
O2295 Tb2272 2.409 1_655 S
O2295 C2281 1.254 . S
O2296 Tb2272 2.378 . S
O2296 C2282 1.236 . S
O2297 Tb2273 2.341 . S
O2297 C2282 1.266 1_565 S
O2298 Tb2273 2.484 . S
O2298 C2283 1.248 . S
O2299 Tb2273 2.440 . S
O2299 C2283 1.266 . S
O2300 Tb2272 2.325 . S
O2300 Tb2273 2.658 1_545 S
O2300 C2290 1.281 . S
O2301 Tb2273 2.409 1_545 S
O2301 C2290 1.254 . S
O2302 Tb2273 2.378 1_545 S
O2302 C2291 1.236 . S
O2303 Tb2272 2.341 . S
O2303 C2291 1.266 . S
H2304 C2276 0.929 . S
H2305 C2277 0.931 . S
H2306 C2279 0.930 . S
H2307 C2280 0.930 . S
H2308 C2285 0.929 . S
H2309 C2286 0.931 . S
H2310 C2288 0.930 . S
H2311 C2289 0.930 . S
Tb2312 C2314 2.809 . S
Tb2312 O2332 2.484 . S
Tb2312 O2333 2.440 . S
Tb2312 O2334 2.658 . S
Tb2312 O2335 2.409 . S
Tb2312 O2336 2.378 . S
Tb2312 O2340 2.325 . S
Tb2312 O2343 2.341 . S
Tb2313 C2323 2.809 . S
Tb2313 O2334 2.325 . S
Tb2313 O2337 2.341 . S
Tb2313 O2338 2.484 . S
Tb2313 O2339 2.440 . S
Tb2313 O2340 2.658 . S
Tb2313 O2341 2.409 . S
Tb2313 O2342 2.378 . S
C2314 Tb2312 2.809 . S
C2314 C2315 1.514 . S
C2314 O2332 1.248 . S
C2314 O2333 1.266 . S
C2315 C2314 1.514 . S
C2315 C2316 1.359 . S
C2315 C2320 1.348 . S
C2316 C2315 1.359 . S
C2316 C2317 1.380 . S
C2316 H2344 0.929 . S
C2317 C2316 1.380 . S
C2317 C2318 1.347 . S
C2317 H2345 0.931 . S
C2318 C2317 1.347 . S
C2318 C2319 1.369 . S
C2319 C2318 1.369 . S
C2319 C2320 1.408 . S
C2319 H2346 0.930 . S
C2320 C2315 1.348 . S
C2320 C2319 1.408 . S
C2320 H2347 0.930 . S
C2321 O2334 1.281 . S
C2321 O2335 1.254 . S
C2322 O2336 1.236 . S
C2322 O2337 1.266 . S
C2323 Tb2313 2.809 . S
C2323 C2324 1.514 . S
C2323 O2338 1.248 . S
C2323 O2339 1.266 . S
C2324 C2323 1.514 . S
C2324 C2325 1.359 . S
C2324 C2329 1.348 . S
C2325 C2324 1.359 . S
C2325 C2326 1.380 . S
C2325 H2348 0.929 . S
C2326 C2325 1.380 . S
C2326 C2327 1.347 . S
C2326 H2349 0.931 . S
C2327 C2326 1.347 . S
C2327 C2328 1.369 . S
C2328 C2327 1.369 . S
C2328 C2329 1.408 . S
C2328 H2350 0.930 . S
C2329 C2324 1.348 . S
C2329 C2328 1.408 . S
C2329 H2351 0.930 . S
C2330 O2340 1.281 . S
C2330 O2341 1.254 . S
C2331 O2342 1.236 . S
C2331 O2343 1.266 . S
O2332 Tb2312 2.484 . S
O2332 C2314 1.248 . S
O2333 Tb2312 2.440 . S
O2333 C2314 1.266 . S
O2334 Tb2312 2.658 . S
O2334 Tb2313 2.325 . S
O2334 C2321 1.281 . S
O2335 Tb2312 2.409 . S
O2335 C2321 1.254 . S
O2336 Tb2312 2.378 . S
O2336 C2322 1.236 . S
O2337 Tb2313 2.341 . S
O2337 C2322 1.266 . S
O2338 Tb2313 2.484 . S
O2338 C2323 1.248 . S
O2339 Tb2313 2.440 . S
O2339 C2323 1.266 . S
O2340 Tb2312 2.325 . S
O2340 Tb2313 2.658 . S
O2340 C2330 1.281 . S
O2341 Tb2313 2.409 . S
O2341 C2330 1.254 . S
O2342 Tb2313 2.378 . S
O2342 C2331 1.236 . S
O2343 Tb2312 2.341 . S
O2343 C2331 1.266 . S
H2344 C2316 0.929 . S
H2345 C2317 0.931 . S
H2346 C2319 0.930 . S
H2347 C2320 0.930 . S
H2348 C2325 0.929 . S
H2349 C2326 0.931 . S
H2350 C2328 0.930 . S
H2351 C2329 0.930 . S
Tb2352 C2354 2.809 1_545 S
Tb2352 O2372 2.484 1_545 S
Tb2352 O2373 2.440 . S
Tb2352 O2374 2.658 . S
Tb2352 O2375 2.409 . S
Tb2352 O2376 2.378 . S
Tb2352 O2380 2.325 1_545 S
Tb2352 O2383 2.341 1_554 S
Tb2353 C2363 2.809 . S
Tb2353 O2374 2.325 . S
Tb2353 O2377 2.341 . S
Tb2353 O2378 2.484 . S
Tb2353 O2379 2.440 . S
Tb2353 O2380 2.658 1_545 S
Tb2353 O2381 2.409 1_545 S
Tb2353 O2382 2.378 . S
C2354 Tb2352 2.809 1_565 S
C2354 C2355 1.514 . S
C2354 O2372 1.248 . S
C2354 O2373 1.266 1_565 S
C2355 C2354 1.514 . S
C2355 C2356 1.359 . S
C2355 C2360 1.348 1_565 S
C2356 C2355 1.359 . S
C2356 C2357 1.380 . S
C2356 H2384 0.929 . S
C2357 C2356 1.380 . S
C2357 C2358 1.347 . S
C2357 H2385 0.931 . S
C2358 C2357 1.347 . S
C2358 C2359 1.369 . S
C2359 C2358 1.369 . S
C2359 C2360 1.408 1_565 S
C2359 H2386 0.930 1_565 S
C2360 C2355 1.348 1_545 S
C2360 C2359 1.408 1_545 S
C2360 H2387 0.930 . S
C2361 O2374 1.281 . S
C2361 O2375 1.254 . S
C2362 O2376 1.236 . S
C2362 O2377 1.266 . S
C2363 Tb2353 2.809 . S
C2363 C2364 1.514 . S
C2363 O2378 1.248 . S
C2363 O2379 1.266 . S
C2364 C2363 1.514 . S
C2364 C2365 1.359 . S
C2364 C2369 1.348 . S
C2365 C2364 1.359 . S
C2365 C2366 1.380 . S
C2365 H2388 0.929 . S
C2366 C2365 1.380 . S
C2366 C2367 1.347 . S
C2366 H2389 0.931 . S
C2367 C2366 1.347 . S
C2367 C2368 1.369 . S
C2368 C2367 1.369 . S
C2368 C2369 1.408 . S
C2368 H2390 0.930 . S
C2369 C2364 1.348 . S
C2369 C2368 1.408 . S
C2369 H2391 0.930 . S
C2370 O2380 1.281 . S
C2370 O2381 1.254 . S
C2371 O2382 1.236 . S
C2371 O2383 1.266 1_554 S
O2372 Tb2352 2.484 1_565 S
O2372 C2354 1.248 . S
O2373 Tb2352 2.440 . S
O2373 C2354 1.266 1_545 S
O2374 Tb2352 2.658 . S
O2374 Tb2353 2.325 . S
O2374 C2361 1.281 . S
O2375 Tb2352 2.409 . S
O2375 C2361 1.254 . S
O2376 Tb2352 2.378 . S
O2376 C2362 1.236 . S
O2377 Tb2353 2.341 . S
O2377 C2362 1.266 . S
O2378 Tb2353 2.484 . S
O2378 C2363 1.248 . S
O2379 Tb2353 2.440 . S
O2379 C2363 1.266 . S
O2380 Tb2352 2.325 1_565 S
O2380 Tb2353 2.658 1_565 S
O2380 C2370 1.281 . S
O2381 Tb2353 2.409 1_565 S
O2381 C2370 1.254 . S
O2382 Tb2353 2.378 . S
O2382 C2371 1.236 . S
O2383 Tb2352 2.341 1_556 S
O2383 C2371 1.266 1_556 S
H2384 C2356 0.929 . S
H2385 C2357 0.931 . S
H2386 C2359 0.930 1_545 S
H2387 C2360 0.930 . S
H2388 C2365 0.929 . S
H2389 C2366 0.931 . S
H2390 C2368 0.930 . S
H2391 C2369 0.930 . S
Tb2392 C2394 2.809 . S
Tb2392 O2412 2.484 . S
Tb2392 O2413 2.440 . S
Tb2392 O2414 2.658 . S
Tb2392 O2415 2.409 . S
Tb2392 O2416 2.378 . S
Tb2392 O2420 2.325 . S
Tb2392 O2423 2.341 . S
Tb2393 C2403 2.809 . S
Tb2393 O2414 2.325 . S
Tb2393 O2417 2.341 . S
Tb2393 O2418 2.484 . S
Tb2393 O2419 2.440 . S
Tb2393 O2420 2.658 . S
Tb2393 O2421 2.409 . S
Tb2393 O2422 2.378 . S
C2394 Tb2392 2.809 . S
C2394 C2395 1.514 . S
C2394 O2412 1.248 . S
C2394 O2413 1.266 . S
C2395 C2394 1.514 . S
C2395 C2396 1.359 . S
C2395 C2400 1.348 . S
C2396 C2395 1.359 . S
C2396 C2397 1.380 . S
C2396 H2424 0.929 . S
C2397 C2396 1.380 . S
C2397 C2398 1.347 . S
C2397 H2425 0.931 . S
C2398 C2397 1.347 . S
C2398 C2399 1.369 . S
C2399 C2398 1.369 . S
C2399 C2400 1.408 . S
C2399 H2426 0.930 . S
C2400 C2395 1.348 . S
C2400 C2399 1.408 . S
C2400 H2427 0.930 . S
C2401 O2414 1.281 . S
C2401 O2415 1.254 . S
C2402 O2416 1.236 . S
C2402 O2417 1.266 . S
C2403 Tb2393 2.809 . S
C2403 C2404 1.514 . S
C2403 O2418 1.248 . S
C2403 O2419 1.266 . S
C2404 C2403 1.514 . S
C2404 C2405 1.359 . S
C2404 C2409 1.348 . S
C2405 C2404 1.359 . S
C2405 C2406 1.380 . S
C2405 H2428 0.929 . S
C2406 C2405 1.380 . S
C2406 C2407 1.347 . S
C2406 H2429 0.931 . S
C2407 C2406 1.347 . S
C2407 C2408 1.369 . S
C2408 C2407 1.369 . S
C2408 C2409 1.408 . S
C2408 H2430 0.930 . S
C2409 C2404 1.348 . S
C2409 C2408 1.408 . S
C2409 H2431 0.930 . S
C2410 O2420 1.281 . S
C2410 O2421 1.254 . S
C2411 O2422 1.236 . S
C2411 O2423 1.266 . S
O2412 Tb2392 2.484 . S
O2412 C2394 1.248 . S
O2413 Tb2392 2.440 . S
O2413 C2394 1.266 . S
O2414 Tb2392 2.658 . S
O2414 Tb2393 2.325 . S
O2414 C2401 1.281 . S
O2415 Tb2392 2.409 . S
O2415 C2401 1.254 . S
O2416 Tb2392 2.378 . S
O2416 C2402 1.236 . S
O2417 Tb2393 2.341 . S
O2417 C2402 1.266 . S
O2418 Tb2393 2.484 . S
O2418 C2403 1.248 . S
O2419 Tb2393 2.440 . S
O2419 C2403 1.266 . S
O2420 Tb2392 2.325 . S
O2420 Tb2393 2.658 . S
O2420 C2410 1.281 . S
O2421 Tb2393 2.409 . S
O2421 C2410 1.254 . S
O2422 Tb2393 2.378 . S
O2422 C2411 1.236 . S
O2423 Tb2392 2.341 . S
O2423 C2411 1.266 . S
H2424 C2396 0.929 . S
H2425 C2397 0.931 . S
H2426 C2399 0.930 . S
H2427 C2400 0.930 . S
H2428 C2405 0.929 . S
H2429 C2406 0.931 . S
H2430 C2408 0.930 . S
H2431 C2409 0.930 . S
Tb2432 C2434 2.809 . S
Tb2432 O2452 2.484 . S
Tb2432 O2453 2.440 . S
Tb2432 O2454 2.658 . S
Tb2432 O2455 2.409 . S
Tb2432 O2456 2.378 . S
Tb2432 O2460 2.325 . S
Tb2432 O2463 2.341 . S
Tb2433 C2443 2.809 . S
Tb2433 O2454 2.325 . S
Tb2433 O2457 2.341 1_554 S
Tb2433 O2458 2.484 . S
Tb2433 O2459 2.440 . S
Tb2433 O2460 2.658 . S
Tb2433 O2461 2.409 . S
Tb2433 O2462 2.378 . S
C2434 Tb2432 2.809 . S
C2434 C2435 1.529 . S
C2434 O2452 1.248 . S
C2434 O2453 1.266 . S
C2435 C2434 1.529 . S
C2435 C2436 1.343 1_554 S
C2435 C2440 1.349 1_554 S
C2436 C2435 1.343 1_556 S
C2436 C2437 1.380 . S
C2436 H2464 0.929 . S
C2437 C2436 1.380 . S
C2437 C2438 1.347 . S
C2437 H2465 0.931 . S
C2438 C2437 1.347 . S
C2438 C2439 1.369 . S
C2439 C2438 1.369 . S
C2439 C2440 1.408 . S
C2439 H2466 0.930 . S
C2440 C2435 1.349 1_556 S
C2440 C2439 1.408 . S
C2440 H2467 0.930 1_556 S
C2441 O2454 1.281 . S
C2441 O2455 1.254 . S
C2442 O2456 1.236 1_556 S
C2442 O2457 1.266 . S
C2443 Tb2433 2.809 . S
C2443 C2444 1.514 . S
C2443 O2458 1.248 . S
C2443 O2459 1.266 . S
C2444 C2443 1.514 . S
C2444 C2445 1.359 . S
C2444 C2449 1.348 . S
C2445 C2444 1.359 . S
C2445 C2446 1.380 . S
C2445 H2468 0.929 . S
C2446 C2445 1.380 . S
C2446 C2447 1.347 . S
C2446 H2469 0.931 . S
C2447 C2446 1.347 . S
C2447 C2448 1.369 . S
C2448 C2447 1.369 . S
C2448 C2449 1.408 . S
C2448 H2470 0.930 . S
C2449 C2444 1.348 . S
C2449 C2448 1.408 . S
C2449 H2471 0.930 . S
C2450 O2460 1.281 . S
C2450 O2461 1.254 . S
C2451 O2462 1.236 . S
C2451 O2463 1.266 . S
O2452 Tb2432 2.484 . S
O2452 C2434 1.248 . S
O2453 Tb2432 2.440 . S
O2453 C2434 1.266 . S
O2454 Tb2432 2.658 . S
O2454 Tb2433 2.325 . S
O2454 C2441 1.281 . S
O2455 Tb2432 2.409 . S
O2455 C2441 1.254 . S
O2456 Tb2432 2.378 . S
O2456 C2442 1.236 1_554 S
O2457 Tb2433 2.341 1_556 S
O2457 C2442 1.266 . S
O2458 Tb2433 2.484 . S
O2458 C2443 1.248 . S
O2459 Tb2433 2.440 . S
O2459 C2443 1.266 . S
O2460 Tb2432 2.325 . S
O2460 Tb2433 2.658 . S
O2460 C2450 1.281 . S
O2461 Tb2433 2.409 . S
O2461 C2450 1.254 . S
O2462 Tb2433 2.378 . S
O2462 C2451 1.236 . S
O2463 Tb2432 2.341 . S
O2463 C2451 1.266 . S
H2464 C2436 0.929 . S
H2465 C2437 0.931 . S
H2466 C2439 0.930 . S
H2467 C2440 0.930 1_554 S
H2468 C2445 0.929 . S
H2469 C2446 0.931 . S
H2470 C2448 0.930 . S
H2471 C2449 0.930 . S
Tb2472 C2474 2.809 . S
Tb2472 O2492 2.484 . S
Tb2472 O2493 2.440 . S
Tb2472 O2494 2.658 . S
Tb2472 O2495 2.409 . S
Tb2472 O2496 2.378 . S
Tb2472 O2500 2.325 . S
Tb2472 O2503 2.341 . S
Tb2473 C2483 2.809 . S
Tb2473 O2494 2.325 . S
Tb2473 O2497 2.341 . S
Tb2473 O2498 2.484 . S
Tb2473 O2499 2.440 . S
Tb2473 O2500 2.658 . S
Tb2473 O2501 2.409 . S
Tb2473 O2502 2.378 . S
C2474 Tb2472 2.809 . S
C2474 C2475 1.514 . S
C2474 O2492 1.248 . S
C2474 O2493 1.266 . S
C2475 C2474 1.514 . S
C2475 C2476 1.359 . S
C2475 C2480 1.348 . S
C2476 C2475 1.359 . S
C2476 C2477 1.380 . S
C2476 H2504 0.929 . S
C2477 C2476 1.380 . S
C2477 C2478 1.347 . S
C2477 H2505 0.931 . S
C2478 C2477 1.347 . S
C2478 C2479 1.369 . S
C2479 C2478 1.369 . S
C2479 C2480 1.408 . S
C2479 H2506 0.930 . S
C2480 C2475 1.348 . S
C2480 C2479 1.408 . S
C2480 H2507 0.930 . S
C2481 O2494 1.281 . S
C2481 O2495 1.254 . S
C2482 O2496 1.236 . S
C2482 O2497 1.266 . S
C2483 Tb2473 2.809 . S
C2483 C2484 1.514 . S
C2483 O2498 1.248 . S
C2483 O2499 1.266 . S
C2484 C2483 1.514 . S
C2484 C2485 1.359 . S
C2484 C2489 1.348 . S
C2485 C2484 1.359 . S
C2485 C2486 1.380 . S
C2485 H2508 0.929 . S
C2486 C2485 1.380 . S
C2486 C2487 1.347 . S
C2486 H2509 0.931 . S
C2487 C2486 1.347 . S
C2487 C2488 1.369 . S
C2488 C2487 1.369 . S
C2488 C2489 1.408 . S
C2488 H2510 0.930 . S
C2489 C2484 1.348 . S
C2489 C2488 1.408 . S
C2489 H2511 0.930 . S
C2490 O2500 1.281 . S
C2490 O2501 1.254 . S
C2491 O2502 1.236 . S
C2491 O2503 1.266 . S
O2492 Tb2472 2.484 . S
O2492 C2474 1.248 . S
O2493 Tb2472 2.440 . S
O2493 C2474 1.266 . S
O2494 Tb2472 2.658 . S
O2494 Tb2473 2.325 . S
O2494 C2481 1.281 . S
O2495 Tb2472 2.409 . S
O2495 C2481 1.254 . S
O2496 Tb2472 2.378 . S
O2496 C2482 1.236 . S
O2497 Tb2473 2.341 . S
O2497 C2482 1.266 . S
O2498 Tb2473 2.484 . S
O2498 C2483 1.248 . S
O2499 Tb2473 2.440 . S
O2499 C2483 1.266 . S
O2500 Tb2472 2.325 . S
O2500 Tb2473 2.658 . S
O2500 C2490 1.281 . S
O2501 Tb2473 2.409 . S
O2501 C2490 1.254 . S
O2502 Tb2473 2.378 . S
O2502 C2491 1.236 . S
O2503 Tb2472 2.341 . S
O2503 C2491 1.266 . S
H2504 C2476 0.929 . S
H2505 C2477 0.931 . S
H2506 C2479 0.930 . S
H2507 C2480 0.930 . S
H2508 C2485 0.929 . S
H2509 C2486 0.931 . S
H2510 C2488 0.930 . S
H2511 C2489 0.930 . S
Tb2512 C2514 2.809 1_455 S
Tb2512 O2532 2.484 1_455 S
Tb2512 O2533 2.440 1_455 S
Tb2512 O2534 2.658 . S
Tb2512 O2535 2.409 . S
Tb2512 O2536 2.378 . S
Tb2512 O2540 2.325 . S
Tb2512 O2543 2.341 . S
Tb2513 C2523 2.809 . S
Tb2513 O2534 2.325 . S
Tb2513 O2537 2.341 . S
Tb2513 O2538 2.484 . S
Tb2513 O2539 2.440 . S
Tb2513 O2540 2.658 . S
Tb2513 O2541 2.409 . S
Tb2513 O2542 2.378 . S
C2514 Tb2512 2.809 1_655 S
C2514 C2515 1.514 . S
C2514 O2532 1.248 . S
C2514 O2533 1.266 . S
C2515 C2514 1.514 . S
C2515 C2516 1.359 . S
C2515 C2520 1.348 . S
C2516 C2515 1.359 . S
C2516 C2517 1.380 . S
C2516 H2544 0.929 . S
C2517 C2516 1.380 . S
C2517 C2518 1.347 . S
C2517 H2545 0.931 . S
C2518 C2517 1.347 . S
C2518 C2519 1.369 . S
C2519 C2518 1.369 . S
C2519 C2520 1.408 . S
C2519 H2546 0.930 . S
C2520 C2515 1.348 . S
C2520 C2519 1.408 . S
C2520 H2547 0.930 . S
C2521 O2534 1.281 . S
C2521 O2535 1.254 . S
C2522 O2536 1.236 . S
C2522 O2537 1.266 . S
C2523 Tb2513 2.809 . S
C2523 C2524 1.514 . S
C2523 O2538 1.248 . S
C2523 O2539 1.266 . S
C2524 C2523 1.514 . S
C2524 C2525 1.359 . S
C2524 C2529 1.348 . S
C2525 C2524 1.359 . S
C2525 C2526 1.380 . S
C2525 H2548 0.929 . S
C2526 C2525 1.380 . S
C2526 C2527 1.347 . S
C2526 H2549 0.931 . S
C2527 C2526 1.347 . S
C2527 C2528 1.369 . S
C2528 C2527 1.369 . S
C2528 C2529 1.408 . S
C2528 H2550 0.930 . S
C2529 C2524 1.348 . S
C2529 C2528 1.408 . S
C2529 H2551 0.930 . S
C2530 O2540 1.281 . S
C2530 O2541 1.254 . S
C2531 O2542 1.236 . S
C2531 O2543 1.266 . S
O2532 Tb2512 2.484 1_655 S
O2532 C2514 1.248 . S
O2533 Tb2512 2.440 1_655 S
O2533 C2514 1.266 . S
O2534 Tb2512 2.658 . S
O2534 Tb2513 2.325 . S
O2534 C2521 1.281 . S
O2535 Tb2512 2.409 . S
O2535 C2521 1.254 . S
O2536 Tb2512 2.378 . S
O2536 C2522 1.236 . S
O2537 Tb2513 2.341 . S
O2537 C2522 1.266 . S
O2538 Tb2513 2.484 . S
O2538 C2523 1.248 . S
O2539 Tb2513 2.440 . S
O2539 C2523 1.266 . S
O2540 Tb2512 2.325 . S
O2540 Tb2513 2.658 . S
O2540 C2530 1.281 . S
O2541 Tb2513 2.409 . S
O2541 C2530 1.254 . S
O2542 Tb2513 2.378 . S
O2542 C2531 1.236 . S
O2543 Tb2512 2.341 . S
O2543 C2531 1.266 . S
H2544 C2516 0.929 . S
H2545 C2517 0.931 . S
H2546 C2519 0.930 . S
H2547 C2520 0.930 . S
H2548 C2525 0.929 . S
H2549 C2526 0.931 . S
H2550 C2528 0.930 . S
H2551 C2529 0.930 . S
Tb2552 C2554 2.809 . S
Tb2552 O2572 2.484 . S
Tb2552 O2573 2.440 . S
Tb2552 O2574 2.658 . S
Tb2552 O2575 2.409 . S
Tb2552 O2576 2.378 . S
Tb2552 O2580 2.325 . S
Tb2552 O2583 2.341 . S
Tb2553 C2563 2.809 . S
Tb2553 O2574 2.325 . S
Tb2553 O2577 2.341 . S
Tb2553 O2578 2.484 . S
Tb2553 O2579 2.440 . S
Tb2553 O2580 2.658 . S
Tb2553 O2581 2.409 . S
Tb2553 O2582 2.378 . S
C2554 Tb2552 2.809 . S
C2554 C2555 1.514 . S
C2554 O2572 1.248 . S
C2554 O2573 1.266 . S
C2555 C2554 1.514 . S
C2555 C2556 1.359 . S
C2555 C2560 1.348 . S
C2556 C2555 1.359 . S
C2556 C2557 1.380 . S
C2556 H2584 0.929 . S
C2557 C2556 1.380 . S
C2557 C2558 1.347 . S
C2557 H2585 0.931 . S
C2558 C2557 1.347 . S
C2558 C2559 1.369 . S
C2559 C2558 1.369 . S
C2559 C2560 1.408 . S
C2559 H2586 0.930 . S
C2560 C2555 1.348 . S
C2560 C2559 1.408 . S
C2560 H2587 0.930 . S
C2561 O2574 1.281 . S
C2561 O2575 1.254 . S
C2562 O2576 1.236 . S
C2562 O2577 1.266 . S
C2563 Tb2553 2.809 . S
C2563 C2564 1.514 . S
C2563 O2578 1.248 . S
C2563 O2579 1.266 . S
C2564 C2563 1.514 . S
C2564 C2565 1.359 . S
C2564 C2569 1.348 . S
C2565 C2564 1.359 . S
C2565 C2566 1.380 . S
C2565 H2588 0.929 . S
C2566 C2565 1.380 . S
C2566 C2567 1.347 . S
C2566 H2589 0.931 . S
C2567 C2566 1.347 . S
C2567 C2568 1.369 . S
C2568 C2567 1.369 . S
C2568 C2569 1.408 . S
C2568 H2590 0.930 . S
C2569 C2564 1.348 . S
C2569 C2568 1.408 . S
C2569 H2591 0.930 . S
C2570 O2580 1.281 . S
C2570 O2581 1.254 . S
C2571 O2582 1.236 . S
C2571 O2583 1.266 . S
O2572 Tb2552 2.484 . S
O2572 C2554 1.248 . S
O2573 Tb2552 2.440 . S
O2573 C2554 1.266 . S
O2574 Tb2552 2.658 . S
O2574 Tb2553 2.325 . S
O2574 C2561 1.281 . S
O2575 Tb2552 2.409 . S
O2575 C2561 1.254 . S
O2576 Tb2552 2.378 . S
O2576 C2562 1.236 . S
O2577 Tb2553 2.341 . S
O2577 C2562 1.266 . S
O2578 Tb2553 2.484 . S
O2578 C2563 1.248 . S
O2579 Tb2553 2.440 . S
O2579 C2563 1.266 . S
O2580 Tb2552 2.325 . S
O2580 Tb2553 2.658 . S
O2580 C2570 1.281 . S
O2581 Tb2553 2.409 . S
O2581 C2570 1.254 . S
O2582 Tb2553 2.378 . S
O2582 C2571 1.236 . S
O2583 Tb2552 2.341 . S
O2583 C2571 1.266 . S
H2584 C2556 0.929 . S
H2585 C2557 0.931 . S
H2586 C2559 0.930 . S
H2587 C2560 0.930 . S
H2588 C2565 0.929 . S
H2589 C2566 0.931 . S
H2590 C2568 0.930 . S
H2591 C2569 0.930 . S
Tb2592 C2594 2.809 . S
Tb2592 O2612 2.484 . S
Tb2592 O2613 2.440 . S
Tb2592 O2614 2.658 . S
Tb2592 O2615 2.409 . S
Tb2592 O2616 2.378 . S
Tb2592 O2620 2.325 . S
Tb2592 O2623 2.341 . S
Tb2593 C2603 2.809 . S
Tb2593 O2614 2.325 . S
Tb2593 O2617 2.341 . S
Tb2593 O2618 2.484 . S
Tb2593 O2619 2.440 . S
Tb2593 O2620 2.658 . S
Tb2593 O2621 2.409 . S
Tb2593 O2622 2.378 . S
C2594 Tb2592 2.809 . S
C2594 C2595 1.514 . S
C2594 O2612 1.248 . S
C2594 O2613 1.266 . S
C2595 C2594 1.514 . S
C2595 C2596 1.359 . S
C2595 C2600 1.348 . S
C2596 C2595 1.359 . S
C2596 C2597 1.380 . S
C2596 H2624 0.929 . S
C2597 C2596 1.380 . S
C2597 C2598 1.347 . S
C2597 H2625 0.931 . S
C2598 C2597 1.347 . S
C2598 C2599 1.369 . S
C2599 C2598 1.369 . S
C2599 C2600 1.408 . S
C2599 H2626 0.930 . S
C2600 C2595 1.348 . S
C2600 C2599 1.408 . S
C2600 H2627 0.930 . S
C2601 O2614 1.281 . S
C2601 O2615 1.254 . S
C2602 O2616 1.236 . S
C2602 O2617 1.266 . S
C2603 Tb2593 2.809 . S
C2603 C2604 1.514 . S
C2603 O2618 1.248 . S
C2603 O2619 1.266 . S
C2604 C2603 1.514 . S
C2604 C2605 1.359 . S
C2604 C2609 1.348 . S
C2605 C2604 1.359 . S
C2605 C2606 1.380 . S
C2605 H2628 0.929 . S
C2606 C2605 1.380 . S
C2606 C2607 1.347 . S
C2606 H2629 0.931 . S
C2607 C2606 1.347 . S
C2607 C2608 1.369 . S
C2608 C2607 1.369 . S
C2608 C2609 1.408 . S
C2608 H2630 0.930 . S
C2609 C2604 1.348 . S
C2609 C2608 1.408 . S
C2609 H2631 0.930 . S
C2610 O2620 1.281 . S
C2610 O2621 1.254 . S
C2611 O2622 1.236 . S
C2611 O2623 1.266 . S
O2612 Tb2592 2.484 . S
O2612 C2594 1.248 . S
O2613 Tb2592 2.440 . S
O2613 C2594 1.266 . S
O2614 Tb2592 2.658 . S
O2614 Tb2593 2.325 . S
O2614 C2601 1.281 . S
O2615 Tb2592 2.409 . S
O2615 C2601 1.254 . S
O2616 Tb2592 2.378 . S
O2616 C2602 1.236 . S
O2617 Tb2593 2.341 . S
O2617 C2602 1.266 . S
O2618 Tb2593 2.484 . S
O2618 C2603 1.248 . S
O2619 Tb2593 2.440 . S
O2619 C2603 1.266 . S
O2620 Tb2592 2.325 . S
O2620 Tb2593 2.658 . S
O2620 C2610 1.281 . S
O2621 Tb2593 2.409 . S
O2621 C2610 1.254 . S
O2622 Tb2593 2.378 . S
O2622 C2611 1.236 . S
O2623 Tb2592 2.341 . S
O2623 C2611 1.266 . S
H2624 C2596 0.929 . S
H2625 C2597 0.931 . S
H2626 C2599 0.930 . S
H2627 C2600 0.930 . S
H2628 C2605 0.929 . S
H2629 C2606 0.931 . S
H2630 C2608 0.930 . S
H2631 C2609 0.930 . S
Tb2632 C2634 2.809 . S
Tb2632 O2652 2.484 . S
Tb2632 O2653 2.440 . S
Tb2632 O2654 2.658 . S
Tb2632 O2655 2.409 . S
Tb2632 O2656 2.378 . S
Tb2632 O2660 2.325 . S
Tb2632 O2663 2.341 . S
Tb2633 C2643 2.809 . S
Tb2633 O2654 2.325 . S
Tb2633 O2657 2.341 . S
Tb2633 O2658 2.484 . S
Tb2633 O2659 2.440 . S
Tb2633 O2660 2.658 . S
Tb2633 O2661 2.409 . S
Tb2633 O2662 2.378 . S
C2634 Tb2632 2.809 . S
C2634 C2635 1.514 . S
C2634 O2652 1.248 . S
C2634 O2653 1.266 . S
C2635 C2634 1.514 . S
C2635 C2636 1.359 . S
C2635 C2640 1.348 . S
C2636 C2635 1.359 . S
C2636 C2637 1.380 . S
C2636 H2664 0.929 . S
C2637 C2636 1.380 . S
C2637 C2638 1.347 . S
C2637 H2665 0.931 . S
C2638 C2637 1.347 . S
C2638 C2639 1.369 . S
C2639 C2638 1.369 . S
C2639 C2640 1.408 . S
C2639 H2666 0.930 . S
C2640 C2635 1.348 . S
C2640 C2639 1.408 . S
C2640 H2667 0.930 . S
C2641 O2654 1.281 . S
C2641 O2655 1.254 . S
C2642 O2656 1.236 . S
C2642 O2657 1.266 . S
C2643 Tb2633 2.809 . S
C2643 C2644 1.514 . S
C2643 O2658 1.248 . S
C2643 O2659 1.266 . S
C2644 C2643 1.514 . S
C2644 C2645 1.359 . S
C2644 C2649 1.348 . S
C2645 C2644 1.359 . S
C2645 C2646 1.380 . S
C2645 H2668 0.929 . S
C2646 C2645 1.380 . S
C2646 C2647 1.347 . S
C2646 H2669 0.931 . S
C2647 C2646 1.347 . S
C2647 C2648 1.369 . S
C2648 C2647 1.369 . S
C2648 C2649 1.408 . S
C2648 H2670 0.930 . S
C2649 C2644 1.348 . S
C2649 C2648 1.408 . S
C2649 H2671 0.930 . S
C2650 O2660 1.281 . S
C2650 O2661 1.254 . S
C2651 O2662 1.236 . S
C2651 O2663 1.266 . S
O2652 Tb2632 2.484 . S
O2652 C2634 1.248 . S
O2653 Tb2632 2.440 . S
O2653 C2634 1.266 . S
O2654 Tb2632 2.658 . S
O2654 Tb2633 2.325 . S
O2654 C2641 1.281 . S
O2655 Tb2632 2.409 . S
O2655 C2641 1.254 . S
O2656 Tb2632 2.378 . S
O2656 C2642 1.236 . S
O2657 Tb2633 2.341 . S
O2657 C2642 1.266 . S
O2658 Tb2633 2.484 . S
O2658 C2643 1.248 . S
O2659 Tb2633 2.440 . S
O2659 C2643 1.266 . S
O2660 Tb2632 2.325 . S
O2660 Tb2633 2.658 . S
O2660 C2650 1.281 . S
O2661 Tb2633 2.409 . S
O2661 C2650 1.254 . S
O2662 Tb2633 2.378 . S
O2662 C2651 1.236 . S
O2663 Tb2632 2.341 . S
O2663 C2651 1.266 . S
H2664 C2636 0.929 . S
H2665 C2637 0.931 . S
H2666 C2639 0.930 . S
H2667 C2640 0.930 . S
H2668 C2645 0.929 . S
H2669 C2646 0.931 . S
H2670 C2648 0.930 . S
H2671 C2649 0.930 . S
Tb2672 C2674 2.809 . S
Tb2672 O2692 2.484 . S
Tb2672 O2693 2.440 . S
Tb2672 O2694 2.658 . S
Tb2672 O2695 2.409 . S
Tb2672 O2696 2.378 . S
Tb2672 O2700 2.325 . S
Tb2672 O2703 2.341 . S
Tb2673 C2683 2.809 . S
Tb2673 O2694 2.325 . S
Tb2673 O2697 2.341 . S
Tb2673 O2698 2.484 . S
Tb2673 O2699 2.440 . S
Tb2673 O2700 2.658 . S
Tb2673 O2701 2.409 . S
Tb2673 O2702 2.378 . S
C2674 Tb2672 2.809 . S
C2674 C2675 1.514 . S
C2674 O2692 1.248 . S
C2674 O2693 1.266 . S
C2675 C2674 1.514 . S
C2675 C2676 1.359 . S
C2675 C2680 1.348 . S
C2676 C2675 1.359 . S
C2676 C2677 1.380 . S
C2676 H2704 0.929 . S
C2677 C2676 1.380 . S
C2677 C2678 1.347 . S
C2677 H2705 0.931 . S
C2678 C2677 1.347 . S
C2678 C2679 1.369 . S
C2679 C2678 1.369 . S
C2679 C2680 1.408 . S
C2679 H2706 0.930 . S
C2680 C2675 1.348 . S
C2680 C2679 1.408 . S
C2680 H2707 0.930 . S
C2681 O2694 1.281 . S
C2681 O2695 1.254 . S
C2682 O2696 1.236 . S
C2682 O2697 1.266 . S
C2683 Tb2673 2.809 . S
C2683 C2684 1.514 . S
C2683 O2698 1.248 . S
C2683 O2699 1.266 . S
C2684 C2683 1.514 . S
C2684 C2685 1.359 . S
C2684 C2689 1.348 . S
C2685 C2684 1.359 . S
C2685 C2686 1.380 . S
C2685 H2708 0.929 . S
C2686 C2685 1.380 . S
C2686 C2687 1.347 . S
C2686 H2709 0.931 . S
C2687 C2686 1.347 . S
C2687 C2688 1.369 . S
C2688 C2687 1.369 . S
C2688 C2689 1.408 . S
C2688 H2710 0.930 . S
C2689 C2684 1.348 . S
C2689 C2688 1.408 . S
C2689 H2711 0.930 . S
C2690 O2700 1.281 . S
C2690 O2701 1.254 . S
C2691 O2702 1.236 . S
C2691 O2703 1.266 . S
O2692 Tb2672 2.484 . S
O2692 C2674 1.248 . S
O2693 Tb2672 2.440 . S
O2693 C2674 1.266 . S
O2694 Tb2672 2.658 . S
O2694 Tb2673 2.325 . S
O2694 C2681 1.281 . S
O2695 Tb2672 2.409 . S
O2695 C2681 1.254 . S
O2696 Tb2672 2.378 . S
O2696 C2682 1.236 . S
O2697 Tb2673 2.341 . S
O2697 C2682 1.266 . S
O2698 Tb2673 2.484 . S
O2698 C2683 1.248 . S
O2699 Tb2673 2.440 . S
O2699 C2683 1.266 . S
O2700 Tb2672 2.325 . S
O2700 Tb2673 2.658 . S
O2700 C2690 1.281 . S
O2701 Tb2673 2.409 . S
O2701 C2690 1.254 . S
O2702 Tb2673 2.378 . S
O2702 C2691 1.236 . S
O2703 Tb2672 2.341 . S
O2703 C2691 1.266 . S
H2704 C2676 0.929 . S
H2705 C2677 0.931 . S
H2706 C2679 0.930 . S
H2707 C2680 0.930 . S
H2708 C2685 0.929 . S
H2709 C2686 0.931 . S
H2710 C2688 0.930 . S
H2711 C2689 0.930 . S
Tb2712 C2714 2.809 . S
Tb2712 O2732 2.484 . S
Tb2712 O2733 2.440 . S
Tb2712 O2734 2.658 . S
Tb2712 O2735 2.409 1_554 S
Tb2712 O2736 2.378 . S
Tb2712 O2740 2.325 . S
Tb2712 O2743 2.341 . S
Tb2713 C2723 2.809 1_455 S
Tb2713 O2734 2.325 . S
Tb2713 O2737 2.341 . S
Tb2713 O2738 2.484 1_455 S
Tb2713 O2739 2.440 1_455 S
Tb2713 O2740 2.658 . S
Tb2713 O2741 2.409 . S
Tb2713 O2742 2.378 . S
C2714 Tb2712 2.809 . S
C2714 C2715 1.514 . S
C2714 O2732 1.248 . S
C2714 O2733 1.266 . S
C2715 C2714 1.514 . S
C2715 C2716 1.359 . S
C2715 C2720 1.348 1_554 S
C2716 C2715 1.359 . S
C2716 C2717 1.380 . S
C2716 H2744 0.929 . S
C2717 C2716 1.380 . S
C2717 C2718 1.347 . S
C2717 H2745 0.931 . S
C2718 C2717 1.347 . S
C2718 C2719 1.369 1_554 S
C2719 C2718 1.369 1_556 S
C2719 C2720 1.408 . S
C2719 H2746 0.930 . S
C2720 C2715 1.348 1_556 S
C2720 C2719 1.408 . S
C2720 H2747 0.930 . S
C2721 O2734 1.281 1_556 S
C2721 O2735 1.254 . S
C2722 O2736 1.236 . S
C2722 O2737 1.266 . S
C2723 Tb2713 2.809 1_655 S
C2723 C2724 1.514 . S
C2723 O2738 1.248 . S
C2723 O2739 1.266 . S
C2724 C2723 1.514 . S
C2724 C2725 1.359 . S
C2724 C2729 1.348 . S
C2725 C2724 1.359 . S
C2725 C2726 1.380 . S
C2725 H2748 0.929 . S
C2726 C2725 1.380 . S
C2726 C2727 1.347 . S
C2726 H2749 0.931 . S
C2727 C2726 1.347 . S
C2727 C2728 1.369 . S
C2728 C2727 1.369 . S
C2728 C2729 1.408 . S
C2728 H2750 0.930 . S
C2729 C2724 1.348 . S
C2729 C2728 1.408 . S
C2729 H2751 0.930 . S
C2730 O2740 1.281 . S
C2730 O2741 1.254 . S
C2731 O2742 1.236 . S
C2731 O2743 1.266 . S
O2732 Tb2712 2.484 . S
O2732 C2714 1.248 . S
O2733 Tb2712 2.440 . S
O2733 C2714 1.266 . S
O2734 Tb2712 2.658 . S
O2734 Tb2713 2.325 . S
O2734 C2721 1.281 1_554 S
O2735 Tb2712 2.409 1_556 S
O2735 C2721 1.254 . S
O2736 Tb2712 2.378 . S
O2736 C2722 1.236 . S
O2737 Tb2713 2.341 . S
O2737 C2722 1.266 . S
O2738 Tb2713 2.484 1_655 S
O2738 C2723 1.248 . S
O2739 Tb2713 2.440 1_655 S
O2739 C2723 1.266 . S
O2740 Tb2712 2.325 . S
O2740 Tb2713 2.658 . S
O2740 C2730 1.281 . S
O2741 Tb2713 2.409 . S
O2741 C2730 1.254 . S
O2742 Tb2713 2.378 . S
O2742 C2731 1.236 . S
O2743 Tb2712 2.341 . S
O2743 C2731 1.266 . S
H2744 C2716 0.929 . S
H2745 C2717 0.931 . S
H2746 C2719 0.930 . S
H2747 C2720 0.930 . S
H2748 C2725 0.929 . S
H2749 C2726 0.931 . S
H2750 C2728 0.930 . S
H2751 C2729 0.930 . S
H2752 C2758 0.930 1_656 S
H2753 C2761 0.930 . S
H2754 C2762 0.930 . S
H2755 C2763 0.930 . S
H2756 C2766 0.928 1_655 S
H2757 C2767 0.898 1_656 S
C2758 H2752 0.930 1_454 S
C2758 C2759 1.355 . S
C2758 C2760 1.415 . S
C2759 C2758 1.355 . S
C2759 C2761 1.419 . S
C2760 C2758 1.415 . S
C2760 C2765 1.425 . S
C2760 C2767 1.423 . S
C2761 H2753 0.930 . S
C2761 C2759 1.419 . S
C2761 C2762 1.362 . S
C2762 H2754 0.930 . S
C2762 C2761 1.362 . S
C2762 C2765 1.409 . S
C2763 H2755 0.930 . S
C2763 C2764 1.355 . S
C2763 C2765 1.415 . S
C2764 C2763 1.355 . S
C2764 C2766 1.419 . S
C2765 C2760 1.425 . S
C2765 C2762 1.409 . S
C2765 C2763 1.415 . S
C2766 H2756 0.928 1_455 S
C2766 C2764 1.419 . S
C2766 C2767 1.382 . S
C2767 H2757 0.898 1_454 S
C2767 C2760 1.423 . S
C2767 C2766 1.382 . S
H2768 C2774 0.930 . S
H2769 C2777 0.930 . S
H2770 C2778 0.930 . S
H2771 C2779 0.930 . S
H2772 C2782 0.930 . S
H2773 C2783 0.930 . S
C2774 H2768 0.930 . S
C2774 C2775 1.355 . S
C2774 C2776 1.415 . S
C2775 C2774 1.355 . S
C2775 C2777 1.419 . S
C2776 C2774 1.415 . S
C2776 C2781 1.425 . S
C2776 C2783 1.409 . S
C2777 H2769 0.930 . S
C2777 C2775 1.419 . S
C2777 C2778 1.362 . S
C2778 H2770 0.930 . S
C2778 C2777 1.362 . S
C2778 C2781 1.409 . S
C2779 H2771 0.930 . S
C2779 C2780 1.355 . S
C2779 C2781 1.415 . S
C2780 C2779 1.355 . S
C2780 C2782 1.419 . S
C2781 C2776 1.425 . S
C2781 C2778 1.409 . S
C2781 C2779 1.415 . S
C2782 H2772 0.930 . S
C2782 C2780 1.419 . S
C2782 C2783 1.362 . S
C2783 H2773 0.930 . S
C2783 C2776 1.409 . S
C2783 C2782 1.362 . S
H2784 C2790 0.930 . S
H2785 C2793 0.930 . S
H2786 C2794 0.930 . S
H2787 C2795 0.930 . S
H2788 C2798 0.930 . S
H2789 C2799 0.930 . S
C2790 H2784 0.930 . S
C2790 C2791 1.355 . S
C2790 C2792 1.415 . S
C2791 C2790 1.355 . S
C2791 C2793 1.419 . S
C2792 C2790 1.415 . S
C2792 C2797 1.425 . S
C2792 C2799 1.409 . S
C2793 H2785 0.930 . S
C2793 C2791 1.419 . S
C2793 C2794 1.362 . S
C2794 H2786 0.930 . S
C2794 C2793 1.362 . S
C2794 C2797 1.409 . S
C2795 H2787 0.930 . S
C2795 C2796 1.355 . S
C2795 C2797 1.415 . S
C2796 C2795 1.355 . S
C2796 C2798 1.419 . S
C2797 C2792 1.425 . S
C2797 C2794 1.409 . S
C2797 C2795 1.415 . S
C2798 H2788 0.930 . S
C2798 C2796 1.419 . S
C2798 C2799 1.362 . S
C2799 H2789 0.930 . S
C2799 C2792 1.409 . S
C2799 C2798 1.362 . S
H2800 C2806 0.930 . S
H2801 C2809 0.930 . S
H2802 C2810 0.930 . S
H2803 C2811 0.930 . S
H2804 C2814 0.930 . S
H2805 C2815 0.930 . S
C2806 H2800 0.930 . S
C2806 C2807 1.355 . S
C2806 C2808 1.415 . S
C2807 C2806 1.355 . S
C2807 C2809 1.419 . S
C2808 C2806 1.415 . S
C2808 C2813 1.425 . S
C2808 C2815 1.409 . S
C2809 H2801 0.930 . S
C2809 C2807 1.419 . S
C2809 C2810 1.362 . S
C2810 H2802 0.930 . S
C2810 C2809 1.362 . S
C2810 C2813 1.409 . S
C2811 H2803 0.930 . S
C2811 C2812 1.355 . S
C2811 C2813 1.415 . S
C2812 C2811 1.355 . S
C2812 C2814 1.419 . S
C2813 C2808 1.425 . S
C2813 C2810 1.409 . S
C2813 C2811 1.415 . S
C2814 H2804 0.930 . S
C2814 C2812 1.419 . S
C2814 C2815 1.362 . S
C2815 H2805 0.930 . S
C2815 C2808 1.409 . S
C2815 C2814 1.362 . S
H2816 C2822 0.930 . S
H2817 C2825 0.930 . S
H2818 C2826 0.930 . S
H2819 C2827 0.930 . S
H2820 C2830 0.930 . S
H2821 C2831 0.930 . S
C2822 H2816 0.930 . S
C2822 C2823 1.355 . S
C2822 C2824 1.415 . S
C2823 C2822 1.355 . S
C2823 C2825 1.419 . S
C2824 C2822 1.415 . S
C2824 C2829 1.425 . S
C2824 C2831 1.409 . S
C2825 H2817 0.930 . S
C2825 C2823 1.419 . S
C2825 C2826 1.362 . S
C2826 H2818 0.930 . S
C2826 C2825 1.362 . S
C2826 C2829 1.409 . S
C2827 H2819 0.930 . S
C2827 C2828 1.355 . S
C2827 C2829 1.415 . S
C2828 C2827 1.355 . S
C2828 C2830 1.419 . S
C2829 C2824 1.425 . S
C2829 C2826 1.409 . S
C2829 C2827 1.415 . S
C2830 H2820 0.930 . S
C2830 C2828 1.419 . S
C2830 C2831 1.362 . S
C2831 H2821 0.930 . S
C2831 C2824 1.409 . S
C2831 C2830 1.362 . S
H2832 C2838 0.930 . S
H2833 C2841 0.930 . S
H2834 C2842 0.930 . S
H2835 C2843 0.930 . S
H2836 C2846 0.930 . S
H2837 C2847 0.930 . S
C2838 H2832 0.930 . S
C2838 C2839 1.355 . S
C2838 C2840 1.415 . S
C2839 C2838 1.355 . S
C2839 C2841 1.419 . S
C2840 C2838 1.415 . S
C2840 C2845 1.425 . S
C2840 C2847 1.409 . S
C2841 H2833 0.930 . S
C2841 C2839 1.419 . S
C2841 C2842 1.362 . S
C2842 H2834 0.930 . S
C2842 C2841 1.362 . S
C2842 C2845 1.409 . S
C2843 H2835 0.930 . S
C2843 C2844 1.355 . S
C2843 C2845 1.415 . S
C2844 C2843 1.355 . S
C2844 C2846 1.419 . S
C2845 C2840 1.425 . S
C2845 C2842 1.409 . S
C2845 C2843 1.415 . S
C2846 H2836 0.930 . S
C2846 C2844 1.419 . S
C2846 C2847 1.362 . S
C2847 H2837 0.930 . S
C2847 C2840 1.409 . S
C2847 C2846 1.362 . S
H2848 C2854 0.930 . S
H2849 C2857 0.930 . S
H2850 C2858 0.930 . S
H2851 C2859 0.930 . S
H2852 C2862 0.930 . S
H2853 C2863 0.930 . S
C2854 H2848 0.930 . S
C2854 C2855 1.355 . S
C2854 C2856 1.415 . S
C2855 C2854 1.355 . S
C2855 C2857 1.419 . S
C2856 C2854 1.415 . S
C2856 C2861 1.425 . S
C2856 C2863 1.409 . S
C2857 H2849 0.930 . S
C2857 C2855 1.419 . S
C2857 C2858 1.362 . S
C2858 H2850 0.930 . S
C2858 C2857 1.362 . S
C2858 C2861 1.409 . S
C2859 H2851 0.930 . S
C2859 C2860 1.355 . S
C2859 C2861 1.415 . S
C2860 C2859 1.355 . S
C2860 C2862 1.419 . S
C2861 C2856 1.425 . S
C2861 C2858 1.409 . S
C2861 C2859 1.415 . S
C2862 H2852 0.930 . S
C2862 C2860 1.419 . S
C2862 C2863 1.362 . S
C2863 H2853 0.930 . S
C2863 C2856 1.409 . S
C2863 C2862 1.362 . S
H2864 C2870 0.930 . S
H2865 C2873 0.930 . S
H2866 C2874 0.930 . S
H2867 C2875 0.930 . S
H2868 C2878 0.930 . S
H2869 C2879 0.930 . S
C2870 H2864 0.930 . S
C2870 C2871 1.355 . S
C2870 C2872 1.415 . S
C2871 C2870 1.355 . S
C2871 C2873 1.419 . S
C2872 C2870 1.415 . S
C2872 C2877 1.425 . S
C2872 C2879 1.409 . S
C2873 H2865 0.930 . S
C2873 C2871 1.419 . S
C2873 C2874 1.362 . S
C2874 H2866 0.930 . S
C2874 C2873 1.362 . S
C2874 C2877 1.409 . S
C2875 H2867 0.930 . S
C2875 C2876 1.355 . S
C2875 C2877 1.415 . S
C2876 C2875 1.355 . S
C2876 C2878 1.419 . S
C2877 C2872 1.425 . S
C2877 C2874 1.409 . S
C2877 C2875 1.415 . S
C2878 H2868 0.930 . S
C2878 C2876 1.419 . S
C2878 C2879 1.362 . S
C2879 H2869 0.930 . S
C2879 C2872 1.409 . S
C2879 C2878 1.362 . S
H2880 C2886 0.930 . S
H2881 C2889 0.930 . S
H2882 C2890 0.930 . S
H2883 C2891 0.930 . S
H2884 C2894 0.930 . S
H2885 C2895 0.930 . S
C2886 H2880 0.930 . S
C2886 C2887 1.355 1_565 S
C2886 C2888 1.415 1_665 S
C2887 C2886 1.355 1_545 S
C2887 C2889 1.419 . S
C2888 C2886 1.415 1_445 S
C2888 C2893 1.425 . S
C2888 C2895 1.409 1_545 S
C2889 H2881 0.930 . S
C2889 C2887 1.419 . S
C2889 C2890 1.362 1_655 S
C2890 H2882 0.930 . S
C2890 C2889 1.362 1_455 S
C2890 C2893 1.409 . S
C2891 H2883 0.930 . S
C2891 C2892 1.355 . S
C2891 C2893 1.415 . S
C2892 C2891 1.355 . S
C2892 C2894 1.419 1_545 S
C2893 C2888 1.425 . S
C2893 C2890 1.409 . S
C2893 C2891 1.415 . S
C2894 H2884 0.930 . S
C2894 C2892 1.419 1_565 S
C2894 C2895 1.362 . S
C2895 H2885 0.930 . S
C2895 C2888 1.409 1_565 S
C2895 C2894 1.362 . S
H2896 C2902 0.930 . S
H2897 C2905 0.930 . S
H2898 C2906 0.930 . S
H2899 C2907 0.930 . S
H2900 C2910 0.930 . S
H2901 C2911 0.930 . S
C2902 H2896 0.930 . S
C2902 C2903 1.355 . S
C2902 C2904 1.415 . S
C2903 C2902 1.355 . S
C2903 C2905 1.419 . S
C2904 C2902 1.415 . S
C2904 C2909 1.425 . S
C2904 C2911 1.409 . S
C2905 H2897 0.930 . S
C2905 C2903 1.419 . S
C2905 C2906 1.362 . S
C2906 H2898 0.930 . S
C2906 C2905 1.362 . S
C2906 C2909 1.409 . S
C2907 H2899 0.930 . S
C2907 C2908 1.355 . S
C2907 C2909 1.415 . S
C2908 C2907 1.355 . S
C2908 C2910 1.419 . S
C2909 C2904 1.425 . S
C2909 C2906 1.409 . S
C2909 C2907 1.415 . S
C2910 H2900 0.930 . S
C2910 C2908 1.419 . S
C2910 C2911 1.362 . S
C2911 H2901 0.930 . S
C2911 C2904 1.409 . S
C2911 C2910 1.362 . S
H2912 C2918 0.930 . S
H2913 C2921 0.935 . S
H2914 C2922 0.939 . S
H2915 C2923 0.930 . S
H2916 C2926 0.930 . S
H2917 C2927 0.930 . S
C2918 H2912 0.930 . S
C2918 C2919 1.364 . S
C2918 C2920 1.415 . S
C2919 C2918 1.364 . S
C2919 C2921 1.416 1_545 S
C2920 C2918 1.415 . S
C2920 C2925 1.425 . S
C2920 C2927 1.409 . S
C2921 H2913 0.935 . S
C2921 C2919 1.416 1_565 S
C2921 C2922 1.358 1_565 S
C2922 H2914 0.939 . S
C2922 C2921 1.358 1_545 S
C2922 C2925 1.409 . S
C2923 H2915 0.930 . S
C2923 C2924 1.355 . S
C2923 C2925 1.415 . S
C2924 C2923 1.355 . S
C2924 C2926 1.419 . S
C2925 C2920 1.425 . S
C2925 C2922 1.409 . S
C2925 C2923 1.415 . S
C2926 H2916 0.930 . S
C2926 C2924 1.419 . S
C2926 C2927 1.362 . S
C2927 H2917 0.930 . S
C2927 C2920 1.409 . S
C2927 C2926 1.362 . S
H2928 C2934 0.930 . S
H2929 C2937 0.930 . S
H2930 C2938 0.930 . S
H2931 C2939 0.930 . S
H2932 C2942 0.930 . S
H2933 C2943 0.930 . S
C2934 H2928 0.930 . S
C2934 C2935 1.355 . S
C2934 C2936 1.415 . S
C2935 C2934 1.355 . S
C2935 C2937 1.419 . S
C2936 C2934 1.415 . S
C2936 C2941 1.425 . S
C2936 C2943 1.409 . S
C2937 H2929 0.930 . S
C2937 C2935 1.419 . S
C2937 C2938 1.362 . S
C2938 H2930 0.930 . S
C2938 C2937 1.362 . S
C2938 C2941 1.409 . S
C2939 H2931 0.930 . S
C2939 C2940 1.355 . S
C2939 C2941 1.415 . S
C2940 C2939 1.355 . S
C2940 C2942 1.419 . S
C2941 C2936 1.425 . S
C2941 C2938 1.409 . S
C2941 C2939 1.415 . S
C2942 H2932 0.930 . S
C2942 C2940 1.419 . S
C2942 C2943 1.362 . S
C2943 H2933 0.930 . S
C2943 C2936 1.409 . S
C2943 C2942 1.362 . S
H2944 C2950 0.930 . S
H2945 C2953 0.930 . S
H2946 C2954 0.930 . S
H2947 C2955 0.988 . S
H2948 C2958 0.930 . S
H2949 C2959 0.930 . S
C2950 H2944 0.930 . S
C2950 C2951 1.369 . S
C2950 C2952 1.415 . S
C2951 C2950 1.369 . S
C2951 C2953 1.401 1_455 S
C2952 C2950 1.415 . S
C2952 C2957 1.425 1_455 S
C2952 C2959 1.409 . S
C2953 H2945 0.930 . S
C2953 C2951 1.401 1_655 S
C2953 C2954 1.362 . S
C2954 H2946 0.930 . S
C2954 C2953 1.362 . S
C2954 C2957 1.409 . S
C2955 H2947 0.988 . S
C2955 C2956 1.308 1_655 S
C2955 C2957 1.406 . S
C2956 C2955 1.308 1_455 S
C2956 C2958 1.419 . S
C2957 C2952 1.425 1_655 S
C2957 C2954 1.409 . S
C2957 C2955 1.406 . S
C2958 H2948 0.930 . S
C2958 C2956 1.419 . S
C2958 C2959 1.362 . S
C2959 H2949 0.930 . S
C2959 C2952 1.409 . S
C2959 C2958 1.362 . S
H2960 C2966 0.930 . S
H2961 C2969 0.930 . S
H2962 C2970 0.930 . S
H2963 C2971 0.930 . S
H2964 C2974 0.930 . S
H2965 C2975 0.930 . S
C2966 H2960 0.930 . S
C2966 C2967 1.355 . S
C2966 C2968 1.415 . S
C2967 C2966 1.355 . S
C2967 C2969 1.419 . S
C2968 C2966 1.415 . S
C2968 C2973 1.425 . S
C2968 C2975 1.409 . S
C2969 H2961 0.930 . S
C2969 C2967 1.419 . S
C2969 C2970 1.362 . S
C2970 H2962 0.930 . S
C2970 C2969 1.362 . S
C2970 C2973 1.409 . S
C2971 H2963 0.930 . S
C2971 C2972 1.355 . S
C2971 C2973 1.415 . S
C2972 C2971 1.355 . S
C2972 C2974 1.419 . S
C2973 C2968 1.425 . S
C2973 C2970 1.409 . S
C2973 C2971 1.415 . S
C2974 H2964 0.930 . S
C2974 C2972 1.419 . S
C2974 C2975 1.362 . S
C2975 H2965 0.930 . S
C2975 C2968 1.409 . S
C2975 C2974 1.362 . S
H2976 C2982 0.930 . S
H2977 C2985 0.930 . S
H2978 C2986 0.930 . S
H2979 C2987 0.930 . S
H2980 C2990 0.930 . S
H2981 C2991 0.930 . S
C2982 H2976 0.930 . S
C2982 C2983 1.355 . S
C2982 C2984 1.415 . S
C2983 C2982 1.355 . S
C2983 C2985 1.419 . S
C2984 C2982 1.415 . S
C2984 C2989 1.425 . S
C2984 C2991 1.409 . S
C2985 H2977 0.930 . S
C2985 C2983 1.419 . S
C2985 C2986 1.362 . S
C2986 H2978 0.930 . S
C2986 C2985 1.362 . S
C2986 C2989 1.409 . S
C2987 H2979 0.930 . S
C2987 C2988 1.355 . S
C2987 C2989 1.415 . S
C2988 C2987 1.355 . S
C2988 C2990 1.419 . S
C2989 C2984 1.425 . S
C2989 C2986 1.409 . S
C2989 C2987 1.415 . S
C2990 H2980 0.930 . S
C2990 C2988 1.419 . S
C2990 C2991 1.362 . S
C2991 H2981 0.930 . S
C2991 C2984 1.409 . S
C2991 C2990 1.362 . S
H2992 C2998 0.930 . S
H2993 C3001 0.930 . S
H2994 C3002 0.930 . S
H2995 C3003 0.930 . S
H2996 C3006 0.930 . S
H2997 C3007 0.930 . S
C2998 H2992 0.930 . S
C2998 C2999 1.355 . S
C2998 C3000 1.415 . S
C2999 C2998 1.355 . S
C2999 C3001 1.419 . S
C3000 C2998 1.415 . S
C3000 C3005 1.425 . S
C3000 C3007 1.409 . S
C3001 H2993 0.930 . S
C3001 C2999 1.419 . S
C3001 C3002 1.362 . S
C3002 H2994 0.930 . S
C3002 C3001 1.362 . S
C3002 C3005 1.409 . S
C3003 H2995 0.930 . S
C3003 C3004 1.355 . S
C3003 C3005 1.415 . S
C3004 C3003 1.355 . S
C3004 C3006 1.419 . S
C3005 C3000 1.425 . S
C3005 C3002 1.409 . S
C3005 C3003 1.415 . S
C3006 H2996 0.930 . S
C3006 C3004 1.419 . S
C3006 C3007 1.362 . S
C3007 H2997 0.930 . S
C3007 C3000 1.409 . S
C3007 C3006 1.362 . S
H3008 C3014 0.930 1_556 S
H3009 C3017 0.930 . S
H3010 C3018 0.930 . S
H3011 C3019 0.930 . S
H3012 C3022 0.930 . S
H3013 C3023 0.930 . S
C3014 H3008 0.930 1_554 S
C3014 C3015 1.355 . S
C3014 C3016 1.415 . S
C3015 C3014 1.355 . S
C3015 C3017 1.419 . S
C3016 C3014 1.415 . S
C3016 C3021 1.425 . S
C3016 C3023 1.409 . S
C3017 H3009 0.930 . S
C3017 C3015 1.419 . S
C3017 C3018 1.362 . S
C3018 H3010 0.930 . S
C3018 C3017 1.362 . S
C3018 C3021 1.409 . S
C3019 H3011 0.930 . S
C3019 C3020 1.355 . S
C3019 C3021 1.415 . S
C3020 C3019 1.355 . S
C3020 C3022 1.419 . S
C3021 C3016 1.425 . S
C3021 C3018 1.409 . S
C3021 C3019 1.415 . S
C3022 H3012 0.930 . S
C3022 C3020 1.419 . S
C3022 C3023 1.362 . S
C3023 H3013 0.930 . S
C3023 C3016 1.409 . S
C3023 C3022 1.362 . S
H3024 C3030 0.930 . S
H3025 C3033 0.930 . S
H3026 C3034 0.930 . S
H3027 C3035 0.930 . S
H3028 C3038 0.930 . S
H3029 C3039 0.930 . S
C3030 H3024 0.930 . S
C3030 C3031 1.355 . S
C3030 C3032 1.415 . S
C3031 C3030 1.355 . S
C3031 C3033 1.419 . S
C3032 C3030 1.415 . S
C3032 C3037 1.425 . S
C3032 C3039 1.409 . S
C3033 H3025 0.930 . S
C3033 C3031 1.419 . S
C3033 C3034 1.362 . S
C3034 H3026 0.930 . S
C3034 C3033 1.362 . S
C3034 C3037 1.409 . S
C3035 H3027 0.930 . S
C3035 C3036 1.355 . S
C3035 C3037 1.415 . S
C3036 C3035 1.355 . S
C3036 C3038 1.419 . S
C3037 C3032 1.425 . S
C3037 C3034 1.409 . S
C3037 C3035 1.415 . S
C3038 H3028 0.930 . S
C3038 C3036 1.419 . S
C3038 C3039 1.362 . S
C3039 H3029 0.930 . S
C3039 C3032 1.409 . S
C3039 C3038 1.362 . S
H3040 C3046 0.930 . S
H3041 C3049 0.930 . S
H3042 C3050 0.930 . S
H3043 C3051 0.930 . S
H3044 C3054 0.930 . S
H3045 C3055 0.930 . S
C3046 H3040 0.930 . S
C3046 C3047 1.355 . S
C3046 C3048 1.415 . S
C3047 C3046 1.355 . S
C3047 C3049 1.419 . S
C3048 C3046 1.415 . S
C3048 C3053 1.425 . S
C3048 C3055 1.409 . S
C3049 H3041 0.930 . S
C3049 C3047 1.419 . S
C3049 C3050 1.362 . S
C3050 H3042 0.930 . S
C3050 C3049 1.362 . S
C3050 C3053 1.409 . S
C3051 H3043 0.930 . S
C3051 C3052 1.355 . S
C3051 C3053 1.415 . S
C3052 C3051 1.355 . S
C3052 C3054 1.419 . S
C3053 C3048 1.425 . S
C3053 C3050 1.409 . S
C3053 C3051 1.415 . S
C3054 H3044 0.930 . S
C3054 C3052 1.419 . S
C3054 C3055 1.362 . S
C3055 H3045 0.930 . S
C3055 C3048 1.409 . S
C3055 C3054 1.362 . S
H3056 C3062 0.930 . S
H3057 C3065 0.930 . S
H3058 C3066 0.930 . S
H3059 C3067 0.930 . S
H3060 C3070 0.930 . S
H3061 C3071 0.930 . S
C3062 H3056 0.930 . S
C3062 C3063 1.355 . S
C3062 C3064 1.415 . S
C3063 C3062 1.355 . S
C3063 C3065 1.419 . S
C3064 C3062 1.415 . S
C3064 C3069 1.425 . S
C3064 C3071 1.409 . S
C3065 H3057 0.930 . S
C3065 C3063 1.419 . S
C3065 C3066 1.362 . S
C3066 H3058 0.930 . S
C3066 C3065 1.362 . S
C3066 C3069 1.409 . S
C3067 H3059 0.930 . S
C3067 C3068 1.355 . S
C3067 C3069 1.415 . S
C3068 C3067 1.355 . S
C3068 C3070 1.419 . S
C3069 C3064 1.425 . S
C3069 C3066 1.409 . S
C3069 C3067 1.415 . S
C3070 H3060 0.930 . S
C3070 C3068 1.419 . S
C3070 C3071 1.362 . S
C3071 H3061 0.930 . S
C3071 C3064 1.409 . S
C3071 C3070 1.362 . S
H3072 C3078 0.930 . S
H3073 C3081 0.930 . S
H3074 C3082 0.930 . S
H3075 C3083 0.930 . S
H3076 C3086 0.930 . S
H3077 C3087 0.930 . S
C3078 H3072 0.930 . S
C3078 C3079 1.355 . S
C3078 C3080 1.415 . S
C3079 C3078 1.355 . S
C3079 C3081 1.419 . S
C3080 C3078 1.415 . S
C3080 C3085 1.425 . S
C3080 C3087 1.409 . S
C3081 H3073 0.930 . S
C3081 C3079 1.419 . S
C3081 C3082 1.362 . S
C3082 H3074 0.930 . S
C3082 C3081 1.362 . S
C3082 C3085 1.409 . S
C3083 H3075 0.930 . S
C3083 C3084 1.355 . S
C3083 C3085 1.415 . S
C3084 C3083 1.355 . S
C3084 C3086 1.419 . S
C3085 C3080 1.425 . S
C3085 C3082 1.409 . S
C3085 C3083 1.415 . S
C3086 H3076 0.930 . S
C3086 C3084 1.419 . S
C3086 C3087 1.362 . S
C3087 H3077 0.930 . S
C3087 C3080 1.409 . S
C3087 C3086 1.362 . S
H3088 C3094 0.930 . S
H3089 C3097 0.930 . S
H3090 C3098 0.930 . S
H3091 C3099 0.930 . S
H3092 C3102 0.930 . S
H3093 C3103 0.930 . S
C3094 H3088 0.930 . S
C3094 C3095 1.355 . S
C3094 C3096 1.415 . S
C3095 C3094 1.355 . S
C3095 C3097 1.419 . S
C3096 C3094 1.415 . S
C3096 C3101 1.425 . S
C3096 C3103 1.409 . S
C3097 H3089 0.930 . S
C3097 C3095 1.419 . S
C3097 C3098 1.362 . S
C3098 H3090 0.930 . S
C3098 C3097 1.362 . S
C3098 C3101 1.409 . S
C3099 H3091 0.930 . S
C3099 C3100 1.355 . S
C3099 C3101 1.415 . S
C3100 C3099 1.355 . S
C3100 C3102 1.419 . S
C3101 C3096 1.425 . S
C3101 C3098 1.409 . S
C3101 C3099 1.415 . S
C3102 H3092 0.930 . S
C3102 C3100 1.419 . S
C3102 C3103 1.362 . S
C3103 H3093 0.930 . S
C3103 C3096 1.409 . S
C3103 C3102 1.362 . S
H3104 C3110 0.930 . S
H3105 C3113 0.930 . S
H3106 C3114 0.930 . S
H3107 C3115 0.930 . S
H3108 C3118 0.930 . S
H3109 C3119 0.930 . S
C3110 H3104 0.930 . S
C3110 C3111 1.355 . S
C3110 C3112 1.415 . S
C3111 C3110 1.355 . S
C3111 C3113 1.419 . S
C3112 C3110 1.415 . S
C3112 C3117 1.425 . S
C3112 C3119 1.409 . S
C3113 H3105 0.930 . S
C3113 C3111 1.419 . S
C3113 C3114 1.362 . S
C3114 H3106 0.930 . S
C3114 C3113 1.362 . S
C3114 C3117 1.409 . S
C3115 H3107 0.930 . S
C3115 C3116 1.355 . S
C3115 C3117 1.415 . S
C3116 C3115 1.355 . S
C3116 C3118 1.419 . S
C3117 C3112 1.425 . S
C3117 C3114 1.409 . S
C3117 C3115 1.415 . S
C3118 H3108 0.930 . S
C3118 C3116 1.419 . S
C3118 C3119 1.362 . S
C3119 H3109 0.930 . S
C3119 C3112 1.409 . S
C3119 C3118 1.362 . S
H3120 C3126 0.930 . S
H3121 C3129 0.930 . S
H3122 C3130 0.930 . S
H3123 C3131 0.930 . S
H3124 C3134 0.930 . S
H3125 C3135 0.930 . S
C3126 H3120 0.930 . S
C3126 C3127 1.355 . S
C3126 C3128 1.415 . S
C3127 C3126 1.355 . S
C3127 C3129 1.419 . S
C3128 C3126 1.415 . S
C3128 C3133 1.425 . S
C3128 C3135 1.409 . S
C3129 H3121 0.930 . S
C3129 C3127 1.419 . S
C3129 C3130 1.362 . S
C3130 H3122 0.930 . S
C3130 C3129 1.362 . S
C3130 C3133 1.409 . S
C3131 H3123 0.930 . S
C3131 C3132 1.355 . S
C3131 C3133 1.415 . S
C3132 C3131 1.355 . S
C3132 C3134 1.419 . S
C3133 C3128 1.425 . S
C3133 C3130 1.409 . S
C3133 C3131 1.415 . S
C3134 H3124 0.930 . S
C3134 C3132 1.419 . S
C3134 C3135 1.362 . S
C3135 H3125 0.930 . S
C3135 C3128 1.409 . S
C3135 C3134 1.362 . S
H3136 C3142 0.930 . S
H3137 C3145 0.930 . S
H3138 C3146 0.930 . S
H3139 C3147 0.930 . S
H3140 C3150 0.930 . S
H3141 C3151 0.930 . S
C3142 H3136 0.930 . S
C3142 C3143 1.355 . S
C3142 C3144 1.415 . S
C3143 C3142 1.355 . S
C3143 C3145 1.419 . S
C3144 C3142 1.415 . S
C3144 C3149 1.425 . S
C3144 C3151 1.409 . S
C3145 H3137 0.930 . S
C3145 C3143 1.419 . S
C3145 C3146 1.362 . S
C3146 H3138 0.930 . S
C3146 C3145 1.362 . S
C3146 C3149 1.409 . S
C3147 H3139 0.930 . S
C3147 C3148 1.355 . S
C3147 C3149 1.415 . S
C3148 C3147 1.355 . S
C3148 C3150 1.419 . S
C3149 C3144 1.425 . S
C3149 C3146 1.409 . S
C3149 C3147 1.415 . S
C3150 H3140 0.930 . S
C3150 C3148 1.419 . S
C3150 C3151 1.362 . S
C3151 H3141 0.930 . S
C3151 C3144 1.409 . S
C3151 C3150 1.362 . S
H3152 C3158 0.930 . S
H3153 C3161 0.930 . S
H3154 C3162 0.930 . S
H3155 C3163 0.930 . S
H3156 C3166 0.930 . S
H3157 C3167 0.930 . S
C3158 H3152 0.930 . S
C3158 C3159 1.355 . S
C3158 C3160 1.415 . S
C3159 C3158 1.355 . S
C3159 C3161 1.419 . S
C3160 C3158 1.415 . S
C3160 C3165 1.425 . S
C3160 C3167 1.409 . S
C3161 H3153 0.930 . S
C3161 C3159 1.419 . S
C3161 C3162 1.362 . S
C3162 H3154 0.930 . S
C3162 C3161 1.362 . S
C3162 C3165 1.409 . S
C3163 H3155 0.930 . S
C3163 C3164 1.355 . S
C3163 C3165 1.415 . S
C3164 C3163 1.355 . S
C3164 C3166 1.419 . S
C3165 C3160 1.425 . S
C3165 C3162 1.409 . S
C3165 C3163 1.415 . S
C3166 H3156 0.930 . S
C3166 C3164 1.419 . S
C3166 C3167 1.362 . S
C3167 H3157 0.930 . S
C3167 C3160 1.409 . S
C3167 C3166 1.362 . S
H3168 C3174 0.930 . S
H3169 C3177 0.930 . S
H3170 C3178 0.930 . S
H3171 C3179 0.930 . S
H3172 C3182 0.930 . S
H3173 C3183 0.930 . S
C3174 H3168 0.930 . S
C3174 C3175 1.355 . S
C3174 C3176 1.415 . S
C3175 C3174 1.355 . S
C3175 C3177 1.419 . S
C3176 C3174 1.415 . S
C3176 C3181 1.425 . S
C3176 C3183 1.409 . S
C3177 H3169 0.930 . S
C3177 C3175 1.419 . S
C3177 C3178 1.362 . S
C3178 H3170 0.930 . S
C3178 C3177 1.362 . S
C3178 C3181 1.409 . S
C3179 H3171 0.930 . S
C3179 C3180 1.355 . S
C3179 C3181 1.415 . S
C3180 C3179 1.355 . S
C3180 C3182 1.419 . S
C3181 C3176 1.425 . S
C3181 C3178 1.409 . S
C3181 C3179 1.415 . S
C3182 H3172 0.930 . S
C3182 C3180 1.419 . S
C3182 C3183 1.362 . S
C3183 H3173 0.930 . S
C3183 C3176 1.409 . S
C3183 C3182 1.362 . S
H3184 C3190 0.930 . S
H3185 C3193 0.930 . S
H3186 C3194 0.930 . S
H3187 C3195 0.930 . S
H3188 C3198 0.930 . S
H3189 C3199 0.930 . S
C3190 H3184 0.930 . S
C3190 C3191 1.355 . S
C3190 C3192 1.415 . S
C3191 C3190 1.355 . S
C3191 C3193 1.419 . S
C3192 C3190 1.415 . S
C3192 C3197 1.425 . S
C3192 C3199 1.409 . S
C3193 H3185 0.930 . S
C3193 C3191 1.419 . S
C3193 C3194 1.362 . S
C3194 H3186 0.930 . S
C3194 C3193 1.362 . S
C3194 C3197 1.409 . S
C3195 H3187 0.930 . S
C3195 C3196 1.355 . S
C3195 C3197 1.415 . S
C3196 C3195 1.355 . S
C3196 C3198 1.419 . S
C3197 C3192 1.425 . S
C3197 C3194 1.409 . S
C3197 C3195 1.415 . S
C3198 H3188 0.930 . S
C3198 C3196 1.419 . S
C3198 C3199 1.362 . S
C3199 H3189 0.930 . S
C3199 C3192 1.409 . S
C3199 C3198 1.362 . S
H3200 C3206 0.930 . S
H3201 C3209 0.930 . S
H3202 C3210 0.930 . S
H3203 C3211 0.930 . S
H3204 C3214 0.930 . S
H3205 C3215 0.930 . S
C3206 H3200 0.930 . S
C3206 C3207 1.355 1_455 S
C3206 C3208 1.415 . S
C3207 C3206 1.355 1_655 S
C3207 C3209 1.419 . S
C3208 C3206 1.415 . S
C3208 C3213 1.425 1_455 S
C3208 C3215 1.409 . S
C3209 H3201 0.930 . S
C3209 C3207 1.419 . S
C3209 C3210 1.362 . S
C3210 H3202 0.930 . S
C3210 C3209 1.362 . S
C3210 C3213 1.409 . S
C3211 H3203 0.930 . S
C3211 C3212 1.344 1_655 S
C3211 C3213 1.415 . S
C3212 C3211 1.344 1_455 S
C3212 C3214 1.430 . S
C3213 C3208 1.425 1_655 S
C3213 C3210 1.409 . S
C3213 C3211 1.415 . S
C3214 H3204 0.930 . S
C3214 C3212 1.430 . S
C3214 C3215 1.362 . S
C3215 H3205 0.930 . S
C3215 C3208 1.409 . S
C3215 C3214 1.362 . S
H3216 C3222 0.930 . S
H3217 C3225 0.930 . S
H3218 C3226 0.930 . S
H3219 C3227 0.930 . S
H3220 C3230 0.930 . S
H3221 C3231 0.930 . S
C3222 H3216 0.930 . S
C3222 C3223 1.355 . S
C3222 C3224 1.415 . S
C3223 C3222 1.355 . S
C3223 C3225 1.419 . S
C3224 C3222 1.415 . S
C3224 C3229 1.425 . S
C3224 C3231 1.409 . S
C3225 H3217 0.930 . S
C3225 C3223 1.419 . S
C3225 C3226 1.362 . S
C3226 H3218 0.930 . S
C3226 C3225 1.362 . S
C3226 C3229 1.409 . S
C3227 H3219 0.930 . S
C3227 C3228 1.355 . S
C3227 C3229 1.415 . S
C3228 C3227 1.355 . S
C3228 C3230 1.419 . S
C3229 C3224 1.425 . S
C3229 C3226 1.409 . S
C3229 C3227 1.415 . S
C3230 H3220 0.930 . S
C3230 C3228 1.419 . S
C3230 C3231 1.362 . S
C3231 H3221 0.930 . S
C3231 C3224 1.409 . S
C3231 C3230 1.362 . S
H3232 C3238 0.930 . S
H3233 C3241 0.930 . S
H3234 C3242 0.930 1_554 S
H3235 C3243 0.930 . S
H3236 C3246 0.930 . S
H3237 C3247 0.930 . S
C3238 H3232 0.930 . S
C3238 C3239 1.355 . S
C3238 C3240 1.415 . S
C3239 C3238 1.355 . S
C3239 C3241 1.419 . S
C3240 C3238 1.415 . S
C3240 C3245 1.425 . S
C3240 C3247 1.409 . S
C3241 H3233 0.930 . S
C3241 C3239 1.419 . S
C3241 C3242 1.362 . S
C3242 H3234 0.930 1_556 S
C3242 C3241 1.362 . S
C3242 C3245 1.409 . S
C3243 H3235 0.930 . S
C3243 C3244 1.355 . S
C3243 C3245 1.415 1_554 S
C3244 C3243 1.355 . S
C3244 C3246 1.419 1_554 S
C3245 C3240 1.425 . S
C3245 C3242 1.409 . S
C3245 C3243 1.415 1_556 S
C3246 H3236 0.930 . S
C3246 C3244 1.419 1_556 S
C3246 C3247 1.362 . S
C3247 H3237 0.930 . S
C3247 C3240 1.409 . S
C3247 C3246 1.362 . S
H3248 C3254 0.930 . S
H3249 C3257 0.930 . S
H3250 C3258 0.930 . S
H3251 C3259 0.930 . S
H3252 C3262 0.930 . S
H3253 C3263 0.930 . S
C3254 H3248 0.930 . S
C3254 C3255 1.355 . S
C3254 C3256 1.415 . S
C3255 C3254 1.355 . S
C3255 C3257 1.419 . S
C3256 C3254 1.415 . S
C3256 C3261 1.425 . S
C3256 C3263 1.409 . S
C3257 H3249 0.930 . S
C3257 C3255 1.419 . S
C3257 C3258 1.362 . S
C3258 H3250 0.930 . S
C3258 C3257 1.362 . S
C3258 C3261 1.409 . S
C3259 H3251 0.930 . S
C3259 C3260 1.355 . S
C3259 C3261 1.415 . S
C3260 C3259 1.355 . S
C3260 C3262 1.419 . S
C3261 C3256 1.425 . S
C3261 C3258 1.409 . S
C3261 C3259 1.415 . S
C3262 H3252 0.930 . S
C3262 C3260 1.419 . S
C3262 C3263 1.362 . S
C3263 H3253 0.930 . S
C3263 C3256 1.409 . S
C3263 C3262 1.362 . S
H3264 C3270 0.930 . S
H3265 C3273 0.930 1_565 S
H3266 C3274 0.946 . S
H3267 C3275 0.930 1_565 S
H3268 C3278 0.930 . S
H3269 C3279 0.930 . S
C3270 H3264 0.930 . S
C3270 C3271 1.355 . S
C3270 C3272 1.415 . S
C3271 C3270 1.355 . S
C3271 C3273 1.419 . S
C3272 C3270 1.415 . S
C3272 C3277 1.425 . S
C3272 C3279 1.409 . S
C3273 H3265 0.930 1_545 S
C3273 C3271 1.419 . S
C3273 C3274 1.355 1_545 S
C3274 H3266 0.946 . S
C3274 C3273 1.355 1_565 S
C3274 C3277 1.402 1_565 S
C3275 H3267 0.930 1_545 S
C3275 C3276 1.355 . S
C3275 C3277 1.415 . S
C3276 C3275 1.355 . S
C3276 C3278 1.419 . S
C3277 C3272 1.425 . S
C3277 C3274 1.402 1_545 S
C3277 C3275 1.415 . S
C3278 H3268 0.930 . S
C3278 C3276 1.419 . S
C3278 C3279 1.362 . S
C3279 H3269 0.930 . S
C3279 C3272 1.409 . S
C3279 C3278 1.362 . S
H3280 C3286 0.930 . S
H3281 C3289 0.930 . S
H3282 C3290 0.930 . S
H3283 C3291 0.930 . S
H3284 C3294 0.930 . S
H3285 C3295 0.930 . S
C3286 H3280 0.930 . S
C3286 C3287 1.355 . S
C3286 C3288 1.415 . S
C3287 C3286 1.355 . S
C3287 C3289 1.419 . S
C3288 C3286 1.415 . S
C3288 C3293 1.425 . S
C3288 C3295 1.409 . S
C3289 H3281 0.930 . S
C3289 C3287 1.419 . S
C3289 C3290 1.362 . S
C3290 H3282 0.930 . S
C3290 C3289 1.362 . S
C3290 C3293 1.409 . S
C3291 H3283 0.930 . S
C3291 C3292 1.355 . S
C3291 C3293 1.415 . S
C3292 C3291 1.355 . S
C3292 C3294 1.419 . S
C3293 C3288 1.425 . S
C3293 C3290 1.409 . S
C3293 C3291 1.415 . S
C3294 H3284 0.930 . S
C3294 C3292 1.419 . S
C3294 C3295 1.362 . S
C3295 H3285 0.930 . S
C3295 C3288 1.409 . S
C3295 C3294 1.362 . S
H3296 C3302 0.930 . S
H3297 C3305 0.930 . S
H3298 C3306 0.930 . S
H3299 C3307 0.930 . S
H3300 C3310 0.930 1_565 S
H3301 C3311 0.930 1_565 S
C3302 H3296 0.930 . S
C3302 C3303 1.355 . S
C3302 C3304 1.415 . S
C3303 C3302 1.355 . S
C3303 C3305 1.419 . S
C3304 C3302 1.415 . S
C3304 C3309 1.425 . S
C3304 C3311 1.409 . S
C3305 H3297 0.930 . S
C3305 C3303 1.419 . S
C3305 C3306 1.362 . S
C3306 H3298 0.930 . S
C3306 C3305 1.362 . S
C3306 C3309 1.409 . S
C3307 H3299 0.930 . S
C3307 C3308 1.355 . S
C3307 C3309 1.415 . S
C3308 C3307 1.355 . S
C3308 C3310 1.419 . S
C3309 C3304 1.425 . S
C3309 C3306 1.409 . S
C3309 C3307 1.415 . S
C3310 H3300 0.930 1_545 S
C3310 C3308 1.419 . S
C3310 C3311 1.362 . S
C3311 H3301 0.930 1_545 S
C3311 C3304 1.409 . S
C3311 C3310 1.362 . S
H3312 C3318 0.930 . S
H3313 C3321 0.930 . S
H3314 C3322 0.930 . S
H3315 C3323 0.930 . S
H3316 C3326 0.930 . S
H3317 C3327 0.930 . S
C3318 H3312 0.930 . S
C3318 C3319 1.355 . S
C3318 C3320 1.415 . S
C3319 C3318 1.355 . S
C3319 C3321 1.419 . S
C3320 C3318 1.415 . S
C3320 C3325 1.425 . S
C3320 C3327 1.409 . S
C3321 H3313 0.930 . S
C3321 C3319 1.419 . S
C3321 C3322 1.362 . S
C3322 H3314 0.930 . S
C3322 C3321 1.362 . S
C3322 C3325 1.409 . S
C3323 H3315 0.930 . S
C3323 C3324 1.355 . S
C3323 C3325 1.415 . S
C3324 C3323 1.355 . S
C3324 C3326 1.419 . S
C3325 C3320 1.425 . S
C3325 C3322 1.409 . S
C3325 C3323 1.415 . S
C3326 H3316 0.930 . S
C3326 C3324 1.419 . S
C3326 C3327 1.362 . S
C3327 H3317 0.930 . S
C3327 C3320 1.409 . S
C3327 C3326 1.362 . S
H3328 C3334 0.930 . S
H3329 C3337 0.930 . S
H3330 C3338 0.930 . S
H3331 C3339 0.930 . S
H3332 C3342 0.930 . S
H3333 C3343 0.930 . S
C3334 H3328 0.930 . S
C3334 C3335 1.355 . S
C3334 C3336 1.415 . S
C3335 C3334 1.355 . S
C3335 C3337 1.419 . S
C3336 C3334 1.415 . S
C3336 C3341 1.425 . S
C3336 C3343 1.409 . S
C3337 H3329 0.930 . S
C3337 C3335 1.419 . S
C3337 C3338 1.362 . S
C3338 H3330 0.930 . S
C3338 C3337 1.362 . S
C3338 C3341 1.409 . S
C3339 H3331 0.930 . S
C3339 C3340 1.355 . S
C3339 C3341 1.415 . S
C3340 C3339 1.355 . S
C3340 C3342 1.419 . S
C3341 C3336 1.425 . S
C3341 C3338 1.409 . S
C3341 C3339 1.415 . S
C3342 H3332 0.930 . S
C3342 C3340 1.419 . S
C3342 C3343 1.362 . S
C3343 H3333 0.930 . S
C3343 C3336 1.409 . S
C3343 C3342 1.362 . S
H3344 C3350 0.930 . S
H3345 C3353 0.930 . S
H3346 C3354 0.930 . S
H3347 C3355 0.930 . S
H3348 C3358 0.930 . S
H3349 C3359 0.930 . S
C3350 H3344 0.930 . S
C3350 C3351 1.355 . S
C3350 C3352 1.415 . S
C3351 C3350 1.355 . S
C3351 C3353 1.419 . S
C3352 C3350 1.415 . S
C3352 C3357 1.425 . S
C3352 C3359 1.409 . S
C3353 H3345 0.930 . S
C3353 C3351 1.419 . S
C3353 C3354 1.362 . S
C3354 H3346 0.930 . S
C3354 C3353 1.362 . S
C3354 C3357 1.409 . S
C3355 H3347 0.930 . S
C3355 C3356 1.355 . S
C3355 C3357 1.415 . S
C3356 C3355 1.355 . S
C3356 C3358 1.419 . S
C3357 C3352 1.425 . S
C3357 C3354 1.409 . S
C3357 C3355 1.415 . S
C3358 H3348 0.930 . S
C3358 C3356 1.419 . S
C3358 C3359 1.362 . S
C3359 H3349 0.930 . S
C3359 C3352 1.409 . S
C3359 C3358 1.362 . S
H3360 C3366 0.930 . S
H3361 C3369 0.930 . S
H3362 C3370 0.930 . S
H3363 C3371 0.930 . S
H3364 C3374 0.930 . S
H3365 C3375 0.930 . S
C3366 H3360 0.930 . S
C3366 C3367 1.355 . S
C3366 C3368 1.415 . S
C3367 C3366 1.355 . S
C3367 C3369 1.419 1_545 S
C3368 C3366 1.415 . S
C3368 C3373 1.436 . S
C3368 C3375 1.409 . S
C3369 H3361 0.930 . S
C3369 C3367 1.419 1_565 S
C3369 C3370 1.362 . S
C3370 H3362 0.930 . S
C3370 C3369 1.362 . S
C3370 C3373 1.403 1_565 S
C3371 H3363 0.930 . S
C3371 C3372 1.355 1_565 S
C3371 C3373 1.410 1_565 S
C3372 C3371 1.355 1_545 S
C3372 C3374 1.419 . S
C3373 C3368 1.436 . S
C3373 C3370 1.403 1_545 S
C3373 C3371 1.410 1_545 S
C3374 H3364 0.930 . S
C3374 C3372 1.419 . S
C3374 C3375 1.362 . S
C3375 H3365 0.930 . S
C3375 C3368 1.409 . S
C3375 C3374 1.362 . S
H3376 C3382 0.930 . S
H3377 C3385 0.930 . S
H3378 C3386 0.930 . S
H3379 C3387 0.930 . S
H3380 C3390 0.930 . S
H3381 C3391 0.930 . S
C3382 H3376 0.930 . S
C3382 C3383 1.355 . S
C3382 C3384 1.415 . S
C3383 C3382 1.355 . S
C3383 C3385 1.419 . S
C3384 C3382 1.415 . S
C3384 C3389 1.425 . S
C3384 C3391 1.409 . S
C3385 H3377 0.930 . S
C3385 C3383 1.419 . S
C3385 C3386 1.362 . S
C3386 H3378 0.930 . S
C3386 C3385 1.362 . S
C3386 C3389 1.409 . S
C3387 H3379 0.930 . S
C3387 C3388 1.355 . S
C3387 C3389 1.415 . S
C3388 C3387 1.355 . S
C3388 C3390 1.419 . S
C3389 C3384 1.425 . S
C3389 C3386 1.409 . S
C3389 C3387 1.415 . S
C3390 H3380 0.930 . S
C3390 C3388 1.419 . S
C3390 C3391 1.362 . S
C3391 H3381 0.930 . S
C3391 C3384 1.409 . S
C3391 C3390 1.362 . S
H3392 C3398 0.930 . S
H3393 C3401 0.930 . S
H3394 C3402 0.930 . S
H3395 C3403 0.930 . S
H3396 C3406 0.930 1_556 S
H3397 C3407 0.930 . S
C3398 H3392 0.930 . S
C3398 C3399 1.355 . S
C3398 C3400 1.415 . S
C3399 C3398 1.355 . S
C3399 C3401 1.419 . S
C3400 C3398 1.415 . S
C3400 C3405 1.425 . S
C3400 C3407 1.409 . S
C3401 H3393 0.930 . S
C3401 C3399 1.419 . S
C3401 C3402 1.362 . S
C3402 H3394 0.930 . S
C3402 C3401 1.362 . S
C3402 C3405 1.409 . S
C3403 H3395 0.930 . S
C3403 C3404 1.355 . S
C3403 C3405 1.415 . S
C3404 C3403 1.355 . S
C3404 C3406 1.419 . S
C3405 C3400 1.425 . S
C3405 C3402 1.409 . S
C3405 C3403 1.415 . S
C3406 H3396 0.930 1_554 S
C3406 C3404 1.419 . S
C3406 C3407 1.362 . S
C3407 H3397 0.930 . S
C3407 C3400 1.409 . S
C3407 C3406 1.362 . S
H3408 C3414 0.930 . S
H3409 C3417 0.930 . S
H3410 C3418 0.930 . S
H3411 C3419 0.930 . S
H3412 C3422 0.930 . S
H3413 C3423 0.930 . S
C3414 H3408 0.930 . S
C3414 C3415 1.355 . S
C3414 C3416 1.415 . S
C3415 C3414 1.355 . S
C3415 C3417 1.419 . S
C3416 C3414 1.415 . S
C3416 C3421 1.425 . S
C3416 C3423 1.409 . S
C3417 H3409 0.930 . S
C3417 C3415 1.419 . S
C3417 C3418 1.362 . S
C3418 H3410 0.930 . S
C3418 C3417 1.362 . S
C3418 C3421 1.409 . S
C3419 H3411 0.930 . S
C3419 C3420 1.355 . S
C3419 C3421 1.415 . S
C3420 C3419 1.355 . S
C3420 C3422 1.419 . S
C3421 C3416 1.425 . S
C3421 C3418 1.409 . S
C3421 C3419 1.415 . S
C3422 H3412 0.930 . S
C3422 C3420 1.419 . S
C3422 C3423 1.362 . S
C3423 H3413 0.930 . S
C3423 C3416 1.409 . S
C3423 C3422 1.362 . S
H3424 C3430 0.930 . S
H3425 C3433 0.930 . S
H3426 C3434 0.930 . S
H3427 C3435 0.930 . S
H3428 C3438 0.930 . S
H3429 C3439 0.930 . S
C3430 H3424 0.930 . S
C3430 C3431 1.355 . S
C3430 C3432 1.415 . S
C3431 C3430 1.355 . S
C3431 C3433 1.419 . S
C3432 C3430 1.415 . S
C3432 C3437 1.425 . S
C3432 C3439 1.409 . S
C3433 H3425 0.930 . S
C3433 C3431 1.419 . S
C3433 C3434 1.362 . S
C3434 H3426 0.930 . S
C3434 C3433 1.362 . S
C3434 C3437 1.409 . S
C3435 H3427 0.930 . S
C3435 C3436 1.355 . S
C3435 C3437 1.415 . S
C3436 C3435 1.355 . S
C3436 C3438 1.419 . S
C3437 C3432 1.425 . S
C3437 C3434 1.409 . S
C3437 C3435 1.415 . S
C3438 H3428 0.930 . S
C3438 C3436 1.419 . S
C3438 C3439 1.362 . S
C3439 H3429 0.930 . S
C3439 C3432 1.409 . S
C3439 C3438 1.362 . S
H3440 C3446 0.930 . S
H3441 C3449 0.930 . S
H3442 C3450 0.930 . S
H3443 C3451 0.930 . S
H3444 C3454 0.930 . S
H3445 C3455 0.930 . S
C3446 H3440 0.930 . S
C3446 C3447 1.355 . S
C3446 C3448 1.415 . S
C3447 C3446 1.355 . S
C3447 C3449 1.419 . S
C3448 C3446 1.415 . S
C3448 C3453 1.425 . S
C3448 C3455 1.409 . S
C3449 H3441 0.930 . S
C3449 C3447 1.419 . S
C3449 C3450 1.362 . S
C3450 H3442 0.930 . S
C3450 C3449 1.362 . S
C3450 C3453 1.409 . S
C3451 H3443 0.930 . S
C3451 C3452 1.355 . S
C3451 C3453 1.415 . S
C3452 C3451 1.355 . S
C3452 C3454 1.419 . S
C3453 C3448 1.425 . S
C3453 C3450 1.409 . S
C3453 C3451 1.415 . S
C3454 H3444 0.930 . S
C3454 C3452 1.419 . S
C3454 C3455 1.362 . S
C3455 H3445 0.930 . S
C3455 C3448 1.409 . S
C3455 C3454 1.362 . S
H3456 C3462 0.930 . S
H3457 C3465 0.930 . S
H3458 C3466 0.930 . S
H3459 C3467 0.930 . S
H3460 C3470 0.930 . S
H3461 C3471 0.930 . S
C3462 H3456 0.930 . S
C3462 C3463 1.355 . S
C3462 C3464 1.415 . S
C3463 C3462 1.355 . S
C3463 C3465 1.419 . S
C3464 C3462 1.415 . S
C3464 C3469 1.425 . S
C3464 C3471 1.409 . S
C3465 H3457 0.930 . S
C3465 C3463 1.419 . S
C3465 C3466 1.362 . S
C3466 H3458 0.930 . S
C3466 C3465 1.362 . S
C3466 C3469 1.409 . S
C3467 H3459 0.930 . S
C3467 C3468 1.355 . S
C3467 C3469 1.415 . S
C3468 C3467 1.355 . S
C3468 C3470 1.419 . S
C3469 C3464 1.425 . S
C3469 C3466 1.409 . S
C3469 C3467 1.415 . S
C3470 H3460 0.930 . S
C3470 C3468 1.419 . S
C3470 C3471 1.362 . S
C3471 H3461 0.930 . S
C3471 C3464 1.409 . S
C3471 C3470 1.362 . S
H3472 C3478 0.930 . S
H3473 C3481 0.930 . S
H3474 C3482 0.930 . S
H3475 C3483 0.930 . S
H3476 C3486 0.930 . S
H3477 C3487 0.930 . S
C3478 H3472 0.930 . S
C3478 C3479 1.355 . S
C3478 C3480 1.415 . S
C3479 C3478 1.355 . S
C3479 C3481 1.419 . S
C3480 C3478 1.415 . S
C3480 C3485 1.425 . S
C3480 C3487 1.409 . S
C3481 H3473 0.930 . S
C3481 C3479 1.419 . S
C3481 C3482 1.362 . S
C3482 H3474 0.930 . S
C3482 C3481 1.362 . S
C3482 C3485 1.409 . S
C3483 H3475 0.930 . S
C3483 C3484 1.355 . S
C3483 C3485 1.415 . S
C3484 C3483 1.355 . S
C3484 C3486 1.419 . S
C3485 C3480 1.425 . S
C3485 C3482 1.409 . S
C3485 C3483 1.415 . S
C3486 H3476 0.930 . S
C3486 C3484 1.419 . S
C3486 C3487 1.362 . S
C3487 H3477 0.930 . S
C3487 C3480 1.409 . S
C3487 C3486 1.362 . S
H3488 C3494 0.930 . S
H3489 C3497 0.930 . S
H3490 C3498 0.930 . S
H3491 C3499 0.930 . S
H3492 C3502 0.930 . S
H3493 C3503 0.930 . S
C3494 H3488 0.930 . S
C3494 C3495 1.355 . S
C3494 C3496 1.415 . S
C3495 C3494 1.355 . S
C3495 C3497 1.419 . S
C3496 C3494 1.415 . S
C3496 C3501 1.425 . S
C3496 C3503 1.409 . S
C3497 H3489 0.930 . S
C3497 C3495 1.419 . S
C3497 C3498 1.362 . S
C3498 H3490 0.930 . S
C3498 C3497 1.362 . S
C3498 C3501 1.409 . S
C3499 H3491 0.930 . S
C3499 C3500 1.355 . S
C3499 C3501 1.415 . S
C3500 C3499 1.355 . S
C3500 C3502 1.419 . S
C3501 C3496 1.425 . S
C3501 C3498 1.409 . S
C3501 C3499 1.415 . S
C3502 H3492 0.930 . S
C3502 C3500 1.419 . S
C3502 C3503 1.362 . S
C3503 H3493 0.930 . S
C3503 C3496 1.409 . S
C3503 C3502 1.362 . S
H3504 C3510 0.930 . S
H3505 C3513 0.930 . S
H3506 C3514 0.930 . S
H3507 C3515 0.930 . S
H3508 C3518 0.930 . S
H3509 C3519 0.930 . S
C3510 H3504 0.930 . S
C3510 C3511 1.355 . S
C3510 C3512 1.415 . S
C3511 C3510 1.355 . S
C3511 C3513 1.419 . S
C3512 C3510 1.415 . S
C3512 C3517 1.425 . S
C3512 C3519 1.409 . S
C3513 H3505 0.930 . S
C3513 C3511 1.419 . S
C3513 C3514 1.362 . S
C3514 H3506 0.930 . S
C3514 C3513 1.362 . S
C3514 C3517 1.409 . S
C3515 H3507 0.930 . S
C3515 C3516 1.355 . S
C3515 C3517 1.415 . S
C3516 C3515 1.355 . S
C3516 C3518 1.419 . S
C3517 C3512 1.425 . S
C3517 C3514 1.409 . S
C3517 C3515 1.415 . S
C3518 H3508 0.930 . S
C3518 C3516 1.419 . S
C3518 C3519 1.362 . S
C3519 H3509 0.930 . S
C3519 C3512 1.409 . S
C3519 C3518 1.362 . S
H3520 C3526 0.930 . S
H3521 C3529 0.930 . S
H3522 C3530 0.930 . S
H3523 C3531 0.930 . S
H3524 C3534 0.930 . S
H3525 C3535 0.930 . S
C3526 H3520 0.930 . S
C3526 C3527 1.355 . S
C3526 C3528 1.415 . S
C3527 C3526 1.355 . S
C3527 C3529 1.419 . S
C3528 C3526 1.415 . S
C3528 C3533 1.425 . S
C3528 C3535 1.409 . S
C3529 H3521 0.930 . S
C3529 C3527 1.419 . S
C3529 C3530 1.362 . S
C3530 H3522 0.930 . S
C3530 C3529 1.362 . S
C3530 C3533 1.409 . S
C3531 H3523 0.930 . S
C3531 C3532 1.355 . S
C3531 C3533 1.415 . S
C3532 C3531 1.355 . S
C3532 C3534 1.419 . S
C3533 C3528 1.425 . S
C3533 C3530 1.409 . S
C3533 C3531 1.415 . S
C3534 H3524 0.930 . S
C3534 C3532 1.419 . S
C3534 C3535 1.362 . S
C3535 H3525 0.930 . S
C3535 C3528 1.409 . S
C3535 C3534 1.362 . S
H3536 C3542 0.930 . S
H3537 C3545 0.930 . S
H3538 C3546 0.930 . S
H3539 C3547 0.930 . S
H3540 C3550 0.930 . S
H3541 C3551 0.930 . S
C3542 H3536 0.930 . S
C3542 C3543 1.355 . S
C3542 C3544 1.415 . S
C3543 C3542 1.355 . S
C3543 C3545 1.419 . S
C3544 C3542 1.415 . S
C3544 C3549 1.425 . S
C3544 C3551 1.409 . S
C3545 H3537 0.930 . S
C3545 C3543 1.419 . S
C3545 C3546 1.362 . S
C3546 H3538 0.930 . S
C3546 C3545 1.362 . S
C3546 C3549 1.409 . S
C3547 H3539 0.930 . S
C3547 C3548 1.355 . S
C3547 C3549 1.415 . S
C3548 C3547 1.355 . S
C3548 C3550 1.419 . S
C3549 C3544 1.425 . S
C3549 C3546 1.409 . S
C3549 C3547 1.415 . S
C3550 H3540 0.930 . S
C3550 C3548 1.419 . S
C3550 C3551 1.362 . S
C3551 H3541 0.930 . S
C3551 C3544 1.409 . S
C3551 C3550 1.362 . S
H3552 C3558 0.949 . S
H3553 C3561 0.930 . S
H3554 C3562 0.930 . S
H3555 C3563 0.930 . S
H3556 C3566 0.930 . S
H3557 C3567 0.930 . S
C3558 H3552 0.949 . S
C3558 C3559 1.338 1_556 S
C3558 C3560 1.413 1_556 S
C3559 C3558 1.338 1_554 S
C3559 C3561 1.419 . S
C3560 C3558 1.413 1_554 S
C3560 C3565 1.425 . S
C3560 C3567 1.409 1_554 S
C3561 H3553 0.930 . S
C3561 C3559 1.419 . S
C3561 C3562 1.362 . S
C3562 H3554 0.930 . S
C3562 C3561 1.362 . S
C3562 C3565 1.409 . S
C3563 H3555 0.930 . S
C3563 C3564 1.355 . S
C3563 C3565 1.415 . S
C3564 C3563 1.355 . S
C3564 C3566 1.419 1_554 S
C3565 C3560 1.425 . S
C3565 C3562 1.409 . S
C3565 C3563 1.415 . S
C3566 H3556 0.930 . S
C3566 C3564 1.419 1_556 S
C3566 C3567 1.362 . S
C3567 H3557 0.930 . S
C3567 C3560 1.409 1_556 S
C3567 C3566 1.362 . S
H3568 C3574 0.930 . S
H3569 C3577 0.930 . S
H3570 C3578 0.930 . S
H3571 C3579 0.930 . S
H3572 C3582 0.930 . S
H3573 C3583 0.930 . S
C3574 H3568 0.930 . S
C3574 C3575 1.355 . S
C3574 C3576 1.415 . S
C3575 C3574 1.355 . S
C3575 C3577 1.419 . S
C3576 C3574 1.415 . S
C3576 C3581 1.425 . S
C3576 C3583 1.409 . S
C3577 H3569 0.930 . S
C3577 C3575 1.419 . S
C3577 C3578 1.362 . S
C3578 H3570 0.930 . S
C3578 C3577 1.362 . S
C3578 C3581 1.409 . S
C3579 H3571 0.930 . S
C3579 C3580 1.355 . S
C3579 C3581 1.415 . S
C3580 C3579 1.355 . S
C3580 C3582 1.419 . S
C3581 C3576 1.425 . S
C3581 C3578 1.409 . S
C3581 C3579 1.415 . S
C3582 H3572 0.930 . S
C3582 C3580 1.419 . S
C3582 C3583 1.362 . S
C3583 H3573 0.930 . S
C3583 C3576 1.409 . S
C3583 C3582 1.362 . S
H3584 C3590 0.930 . S
H3585 C3593 0.930 . S
H3586 C3594 0.930 . S
H3587 C3595 0.930 . S
H3588 C3598 0.930 . S
H3589 C3599 0.930 . S
C3590 H3584 0.930 . S
C3590 C3591 1.355 . S
C3590 C3592 1.415 . S
C3591 C3590 1.355 . S
C3591 C3593 1.419 . S
C3592 C3590 1.415 . S
C3592 C3597 1.425 . S
C3592 C3599 1.409 . S
C3593 H3585 0.930 . S
C3593 C3591 1.419 . S
C3593 C3594 1.362 . S
C3594 H3586 0.930 . S
C3594 C3593 1.362 . S
C3594 C3597 1.409 . S
C3595 H3587 0.930 . S
C3595 C3596 1.355 . S
C3595 C3597 1.415 . S
C3596 C3595 1.355 . S
C3596 C3598 1.419 . S
C3597 C3592 1.425 . S
C3597 C3594 1.409 . S
C3597 C3595 1.415 . S
C3598 H3588 0.930 . S
C3598 C3596 1.419 . S
C3598 C3599 1.362 . S
C3599 H3589 0.930 . S
C3599 C3592 1.409 . S
C3599 C3598 1.362 . S
H3600 C3606 0.930 . S
H3601 C3609 0.930 . S
H3602 C3610 0.930 . S
H3603 C3611 0.930 . S
H3604 C3614 0.930 . S
H3605 C3615 0.930 . S
C3606 H3600 0.930 . S
C3606 C3607 1.355 . S
C3606 C3608 1.415 . S
C3607 C3606 1.355 . S
C3607 C3609 1.419 . S
C3608 C3606 1.415 . S
C3608 C3613 1.425 . S
C3608 C3615 1.409 . S
C3609 H3601 0.930 . S
C3609 C3607 1.419 . S
C3609 C3610 1.362 . S
C3610 H3602 0.930 . S
C3610 C3609 1.362 . S
C3610 C3613 1.409 . S
C3611 H3603 0.930 . S
C3611 C3612 1.355 . S
C3611 C3613 1.415 . S
C3612 C3611 1.355 . S
C3612 C3614 1.419 . S
C3613 C3608 1.425 . S
C3613 C3610 1.409 . S
C3613 C3611 1.415 . S
C3614 H3604 0.930 . S
C3614 C3612 1.419 . S
C3614 C3615 1.362 . S
C3615 H3605 0.930 . S
C3615 C3608 1.409 . S
C3615 C3614 1.362 . S
H3616 C3622 0.930 . S
H3617 C3625 0.930 . S
H3618 C3626 0.930 . S
H3619 C3627 0.930 . S
H3620 C3630 0.930 . S
H3621 C3631 0.930 . S
C3622 H3616 0.930 . S
C3622 C3623 1.355 . S
C3622 C3624 1.415 . S
C3623 C3622 1.355 . S
C3623 C3625 1.419 . S
C3624 C3622 1.415 . S
C3624 C3629 1.425 . S
C3624 C3631 1.409 . S
C3625 H3617 0.930 . S
C3625 C3623 1.419 . S
C3625 C3626 1.362 . S
C3626 H3618 0.930 . S
C3626 C3625 1.362 . S
C3626 C3629 1.409 . S
C3627 H3619 0.930 . S
C3627 C3628 1.355 . S
C3627 C3629 1.415 . S
C3628 C3627 1.355 . S
C3628 C3630 1.419 . S
C3629 C3624 1.425 . S
C3629 C3626 1.409 . S
C3629 C3627 1.415 . S
C3630 H3620 0.930 . S
C3630 C3628 1.419 . S
C3630 C3631 1.362 . S
C3631 H3621 0.930 . S
C3631 C3624 1.409 . S
C3631 C3630 1.362 . S
H3632 C3638 0.930 . S
H3633 C3641 0.930 . S
H3634 C3642 0.930 . S
H3635 C3643 0.930 . S
H3636 C3646 0.930 . S
H3637 C3647 0.930 . S
C3638 H3632 0.930 . S
C3638 C3639 1.355 . S
C3638 C3640 1.415 . S
C3639 C3638 1.355 . S
C3639 C3641 1.419 . S
C3640 C3638 1.415 . S
C3640 C3645 1.425 . S
C3640 C3647 1.409 . S
C3641 H3633 0.930 . S
C3641 C3639 1.419 . S
C3641 C3642 1.362 . S
C3642 H3634 0.930 . S
C3642 C3641 1.362 . S
C3642 C3645 1.409 . S
C3643 H3635 0.930 . S
C3643 C3644 1.355 . S
C3643 C3645 1.415 . S
C3644 C3643 1.355 . S
C3644 C3646 1.419 . S
C3645 C3640 1.425 . S
C3645 C3642 1.409 . S
C3645 C3643 1.415 . S
C3646 H3636 0.930 . S
C3646 C3644 1.419 . S
C3646 C3647 1.362 . S
C3647 H3637 0.930 . S
C3647 C3640 1.409 . S
C3647 C3646 1.362 . S
H3648 C3654 0.930 . S
H3649 C3657 0.930 . S
H3650 C3658 0.930 . S
H3651 C3659 0.930 . S
H3652 C3662 0.930 . S
H3653 C3663 0.930 . S
C3654 H3648 0.930 . S
C3654 C3655 1.355 . S
C3654 C3656 1.415 . S
C3655 C3654 1.355 . S
C3655 C3657 1.419 . S
C3656 C3654 1.415 . S
C3656 C3661 1.425 . S
C3656 C3663 1.409 . S
C3657 H3649 0.930 . S
C3657 C3655 1.419 . S
C3657 C3658 1.362 . S
C3658 H3650 0.930 . S
C3658 C3657 1.362 . S
C3658 C3661 1.409 . S
C3659 H3651 0.930 . S
C3659 C3660 1.355 . S
C3659 C3661 1.415 . S
C3660 C3659 1.355 . S
C3660 C3662 1.419 . S
C3661 C3656 1.425 . S
C3661 C3658 1.409 . S
C3661 C3659 1.415 . S
C3662 H3652 0.930 . S
C3662 C3660 1.419 . S
C3662 C3663 1.362 . S
C3663 H3653 0.930 . S
C3663 C3656 1.409 . S
C3663 C3662 1.362 . S
H3664 C3670 0.930 . S
H3665 C3673 0.930 1_554 S
H3666 C3674 0.930 . S
H3667 C3675 0.930 . S
H3668 C3678 0.930 . S
H3669 C3679 0.930 . S
C3670 H3664 0.930 . S
C3670 C3671 1.355 . S
C3670 C3672 1.415 . S
C3671 C3670 1.355 . S
C3671 C3673 1.419 . S
C3672 C3670 1.415 . S
C3672 C3677 1.425 . S
C3672 C3679 1.409 . S
C3673 H3665 0.930 1_556 S
C3673 C3671 1.419 . S
C3673 C3674 1.362 . S
C3674 H3666 0.930 . S
C3674 C3673 1.362 . S
C3674 C3677 1.409 . S
C3675 H3667 0.930 . S
C3675 C3676 1.355 . S
C3675 C3677 1.415 . S
C3676 C3675 1.355 . S
C3676 C3678 1.419 . S
C3677 C3672 1.425 . S
C3677 C3674 1.409 . S
C3677 C3675 1.415 . S
C3678 H3668 0.930 . S
C3678 C3676 1.419 . S
C3678 C3679 1.362 . S
C3679 H3669 0.930 . S
C3679 C3672 1.409 . S
C3679 C3678 1.362 . S
H3680 C3686 0.930 . S
H3681 C3689 0.930 . S
H3682 C3690 0.930 . S
H3683 C3691 0.930 . S
H3684 C3694 0.930 . S
H3685 C3695 0.930 . S
C3686 H3680 0.930 . S
C3686 C3687 1.355 . S
C3686 C3688 1.415 . S
C3687 C3686 1.355 . S
C3687 C3689 1.419 . S
C3688 C3686 1.415 . S
C3688 C3693 1.425 . S
C3688 C3695 1.409 . S
C3689 H3681 0.930 . S
C3689 C3687 1.419 . S
C3689 C3690 1.362 . S
C3690 H3682 0.930 . S
C3690 C3689 1.362 . S
C3690 C3693 1.409 . S
C3691 H3683 0.930 . S
C3691 C3692 1.355 . S
C3691 C3693 1.415 . S
C3692 C3691 1.355 . S
C3692 C3694 1.419 . S
C3693 C3688 1.425 . S
C3693 C3690 1.409 . S
C3693 C3691 1.415 . S
C3694 H3684 0.930 . S
C3694 C3692 1.419 . S
C3694 C3695 1.362 . S
C3695 H3685 0.930 . S
C3695 C3688 1.409 . S
C3695 C3694 1.362 . S
H3696 C3702 0.930 . S
H3697 C3705 0.930 . S
H3698 C3706 0.930 . S
H3699 C3707 0.930 . S
H3700 C3710 0.930 . S
H3701 C3711 0.930 . S
C3702 H3696 0.930 . S
C3702 C3703 1.355 . S
C3702 C3704 1.415 . S
C3703 C3702 1.355 . S
C3703 C3705 1.419 . S
C3704 C3702 1.415 . S
C3704 C3709 1.425 . S
C3704 C3711 1.409 . S
C3705 H3697 0.930 . S
C3705 C3703 1.419 . S
C3705 C3706 1.362 . S
C3706 H3698 0.930 . S
C3706 C3705 1.362 . S
C3706 C3709 1.409 . S
C3707 H3699 0.930 . S
C3707 C3708 1.355 . S
C3707 C3709 1.415 . S
C3708 C3707 1.355 . S
C3708 C3710 1.419 . S
C3709 C3704 1.425 . S
C3709 C3706 1.409 . S
C3709 C3707 1.415 . S
C3710 H3700 0.930 . S
C3710 C3708 1.419 . S
C3710 C3711 1.362 . S
C3711 H3701 0.930 . S
C3711 C3704 1.409 . S
C3711 C3710 1.362 . S
H3712 C3718 0.930 . S
H3713 C3721 0.930 . S
H3714 C3722 0.930 . S
H3715 C3723 0.930 . S
H3716 C3726 0.930 . S
H3717 C3727 0.930 . S
C3718 H3712 0.930 . S
C3718 C3719 1.355 . S
C3718 C3720 1.415 . S
C3719 C3718 1.355 . S
C3719 C3721 1.419 . S
C3720 C3718 1.415 . S
C3720 C3725 1.425 . S
C3720 C3727 1.409 . S
C3721 H3713 0.930 . S
C3721 C3719 1.419 . S
C3721 C3722 1.362 . S
C3722 H3714 0.930 . S
C3722 C3721 1.362 . S
C3722 C3725 1.409 . S
C3723 H3715 0.930 . S
C3723 C3724 1.355 . S
C3723 C3725 1.415 . S
C3724 C3723 1.355 . S
C3724 C3726 1.419 . S
C3725 C3720 1.425 . S
C3725 C3722 1.409 . S
C3725 C3723 1.415 . S
C3726 H3716 0.930 . S
C3726 C3724 1.419 . S
C3726 C3727 1.362 . S
C3727 H3717 0.930 . S
C3727 C3720 1.409 . S
C3727 C3726 1.362 . S
H3728 C3734 0.930 . S
H3729 C3737 0.930 . S
H3730 C3738 0.930 . S
H3731 C3739 0.930 . S
H3732 C3742 0.930 . S
H3733 C3743 0.930 . S
C3734 H3728 0.930 . S
C3734 C3735 1.355 . S
C3734 C3736 1.415 . S
C3735 C3734 1.355 . S
C3735 C3737 1.419 . S
C3736 C3734 1.415 . S
C3736 C3741 1.425 . S
C3736 C3743 1.409 . S
C3737 H3729 0.930 . S
C3737 C3735 1.419 . S
C3737 C3738 1.362 . S
C3738 H3730 0.930 . S
C3738 C3737 1.362 . S
C3738 C3741 1.409 . S
C3739 H3731 0.930 . S
C3739 C3740 1.355 . S
C3739 C3741 1.415 . S
C3740 C3739 1.355 . S
C3740 C3742 1.419 . S
C3741 C3736 1.425 . S
C3741 C3738 1.409 . S
C3741 C3739 1.415 . S
C3742 H3732 0.930 . S
C3742 C3740 1.419 . S
C3742 C3743 1.362 . S
C3743 H3733 0.930 . S
C3743 C3736 1.409 . S
C3743 C3742 1.362 . S
H3744 C3750 0.930 . S
H3745 C3753 0.930 . S
H3746 C3754 0.930 . S
H3747 C3755 0.930 . S
H3748 C3758 0.930 . S
H3749 C3759 0.930 . S
C3750 H3744 0.930 . S
C3750 C3751 1.355 . S
C3750 C3752 1.415 . S
C3751 C3750 1.355 . S
C3751 C3753 1.419 . S
C3752 C3750 1.415 . S
C3752 C3757 1.425 . S
C3752 C3759 1.409 . S
C3753 H3745 0.930 . S
C3753 C3751 1.419 . S
C3753 C3754 1.362 . S
C3754 H3746 0.930 . S
C3754 C3753 1.362 . S
C3754 C3757 1.409 . S
C3755 H3747 0.930 . S
C3755 C3756 1.355 . S
C3755 C3757 1.415 . S
C3756 C3755 1.355 . S
C3756 C3758 1.419 . S
C3757 C3752 1.425 . S
C3757 C3754 1.409 . S
C3757 C3755 1.415 . S
C3758 H3748 0.930 . S
C3758 C3756 1.419 . S
C3758 C3759 1.362 . S
C3759 H3749 0.930 . S
C3759 C3752 1.409 . S
C3759 C3758 1.362 . S
H3760 C3766 0.930 . S
H3761 C3769 0.930 . S
H3762 C3770 0.930 . S
H3763 C3771 0.930 . S
H3764 C3774 0.930 . S
H3765 C3775 0.930 . S
C3766 H3760 0.930 . S
C3766 C3767 1.355 . S
C3766 C3768 1.415 . S
C3767 C3766 1.355 . S
C3767 C3769 1.419 . S
C3768 C3766 1.415 . S
C3768 C3773 1.425 . S
C3768 C3775 1.409 . S
C3769 H3761 0.930 . S
C3769 C3767 1.419 . S
C3769 C3770 1.362 . S
C3770 H3762 0.930 . S
C3770 C3769 1.362 . S
C3770 C3773 1.409 . S
C3771 H3763 0.930 . S
C3771 C3772 1.355 . S
C3771 C3773 1.415 . S
C3772 C3771 1.355 . S
C3772 C3774 1.419 . S
C3773 C3768 1.425 . S
C3773 C3770 1.409 . S
C3773 C3771 1.415 . S
C3774 H3764 0.930 . S
C3774 C3772 1.419 . S
C3774 C3775 1.362 . S
C3775 H3765 0.930 . S
C3775 C3768 1.409 . S
C3775 C3774 1.362 . S
H3776 C3782 0.930 . S
H3777 C3785 0.930 . S
H3778 C3786 0.930 . S
H3779 C3787 0.930 . S
H3780 C3790 0.930 . S
H3781 C3791 0.930 . S
C3782 H3776 0.930 . S
C3782 C3783 1.355 . S
C3782 C3784 1.415 . S
C3783 C3782 1.355 . S
C3783 C3785 1.419 . S
C3784 C3782 1.415 . S
C3784 C3789 1.425 . S
C3784 C3791 1.409 . S
C3785 H3777 0.930 . S
C3785 C3783 1.419 . S
C3785 C3786 1.362 . S
C3786 H3778 0.930 . S
C3786 C3785 1.362 . S
C3786 C3789 1.409 . S
C3787 H3779 0.930 . S
C3787 C3788 1.355 . S
C3787 C3789 1.415 . S
C3788 C3787 1.355 . S
C3788 C3790 1.419 . S
C3789 C3784 1.425 . S
C3789 C3786 1.409 . S
C3789 C3787 1.415 . S
C3790 H3780 0.930 . S
C3790 C3788 1.419 . S
C3790 C3791 1.362 . S
C3791 H3781 0.930 . S
C3791 C3784 1.409 . S
C3791 C3790 1.362 . S
H3792 C3798 0.930 . S
H3793 C3801 0.930 . S
H3794 C3802 0.930 . S
H3795 C3803 0.930 . S
H3796 C3806 0.930 . S
H3797 C3807 0.930 . S
C3798 H3792 0.930 . S
C3798 C3799 1.355 . S
C3798 C3800 1.415 . S
C3799 C3798 1.355 . S
C3799 C3801 1.419 . S
C3800 C3798 1.415 . S
C3800 C3805 1.425 . S
C3800 C3807 1.409 . S
C3801 H3793 0.930 . S
C3801 C3799 1.419 . S
C3801 C3802 1.362 . S
C3802 H3794 0.930 . S
C3802 C3801 1.362 . S
C3802 C3805 1.409 . S
C3803 H3795 0.930 . S
C3803 C3804 1.355 . S
C3803 C3805 1.415 . S
C3804 C3803 1.355 . S
C3804 C3806 1.419 . S
C3805 C3800 1.425 . S
C3805 C3802 1.409 . S
C3805 C3803 1.415 . S
C3806 H3796 0.930 . S
C3806 C3804 1.419 . S
C3806 C3807 1.362 . S
C3807 H3797 0.930 . S
C3807 C3800 1.409 . S
C3807 C3806 1.362 . S
H3808 C3814 0.930 . S
H3809 C3817 0.930 . S
H3810 C3818 0.930 . S
H3811 C3819 0.930 . S
H3812 C3822 0.930 . S
H3813 C3823 0.930 . S
C3814 H3808 0.930 . S
C3814 C3815 1.355 . S
C3814 C3816 1.415 . S
C3815 C3814 1.355 . S
C3815 C3817 1.419 . S
C3816 C3814 1.415 . S
C3816 C3821 1.425 . S
C3816 C3823 1.409 . S
C3817 H3809 0.930 . S
C3817 C3815 1.419 . S
C3817 C3818 1.362 . S
C3818 H3810 0.930 . S
C3818 C3817 1.362 . S
C3818 C3821 1.409 . S
C3819 H3811 0.930 . S
C3819 C3820 1.355 . S
C3819 C3821 1.415 . S
C3820 C3819 1.355 . S
C3820 C3822 1.419 . S
C3821 C3816 1.425 . S
C3821 C3818 1.409 . S
C3821 C3819 1.415 . S
C3822 H3812 0.930 . S
C3822 C3820 1.419 . S
C3822 C3823 1.362 . S
C3823 H3813 0.930 . S
C3823 C3816 1.409 . S
C3823 C3822 1.362 . S
H3824 C3830 0.930 . S
H3825 C3833 0.930 . S
H3826 C3834 0.930 . S
H3827 C3835 0.930 . S
H3828 C3838 0.930 . S
H3829 C3839 0.930 . S
C3830 H3824 0.930 . S
C3830 C3831 1.355 . S
C3830 C3832 1.415 . S
C3831 C3830 1.355 . S
C3831 C3833 1.419 . S
C3832 C3830 1.415 . S
C3832 C3837 1.425 . S
C3832 C3839 1.409 . S
C3833 H3825 0.930 . S
C3833 C3831 1.419 . S
C3833 C3834 1.362 . S
C3834 H3826 0.930 . S
C3834 C3833 1.362 . S
C3834 C3837 1.409 . S
C3835 H3827 0.930 . S
C3835 C3836 1.355 . S
C3835 C3837 1.415 . S
C3836 C3835 1.355 . S
C3836 C3838 1.419 . S
C3837 C3832 1.425 . S
C3837 C3834 1.409 . S
C3837 C3835 1.415 . S
C3838 H3828 0.930 . S
C3838 C3836 1.419 . S
C3838 C3839 1.362 . S
C3839 H3829 0.930 . S
C3839 C3832 1.409 . S
C3839 C3838 1.362 . S
H3840 C3846 0.930 . S
H3841 C3849 0.930 . S
H3842 C3850 0.930 . S
H3843 C3851 0.930 . S
H3844 C3854 0.930 . S
H3845 C3855 0.930 . S
C3846 H3840 0.930 . S
C3846 C3847 1.355 . S
C3846 C3848 1.415 . S
C3847 C3846 1.355 . S
C3847 C3849 1.419 . S
C3848 C3846 1.415 . S
C3848 C3853 1.425 . S
C3848 C3855 1.409 . S
C3849 H3841 0.930 . S
C3849 C3847 1.419 . S
C3849 C3850 1.362 . S
C3850 H3842 0.930 . S
C3850 C3849 1.362 . S
C3850 C3853 1.409 . S
C3851 H3843 0.930 . S
C3851 C3852 1.355 . S
C3851 C3853 1.415 . S
C3852 C3851 1.355 . S
C3852 C3854 1.419 . S
C3853 C3848 1.425 . S
C3853 C3850 1.409 . S
C3853 C3851 1.415 . S
C3854 H3844 0.930 . S
C3854 C3852 1.419 . S
C3854 C3855 1.362 . S
C3855 H3845 0.930 . S
C3855 C3848 1.409 . S
C3855 C3854 1.362 . S
H3856 C3862 0.930 . S
H3857 C3865 0.930 . S
H3858 C3866 0.930 . S
H3859 C3867 0.930 . S
H3860 C3870 0.930 . S
H3861 C3871 0.930 . S
C3862 H3856 0.930 . S
C3862 C3863 1.355 . S
C3862 C3864 1.415 . S
C3863 C3862 1.355 . S
C3863 C3865 1.419 . S
C3864 C3862 1.415 . S
C3864 C3869 1.425 . S
C3864 C3871 1.409 . S
C3865 H3857 0.930 . S
C3865 C3863 1.419 . S
C3865 C3866 1.362 . S
C3866 H3858 0.930 . S
C3866 C3865 1.362 . S
C3866 C3869 1.409 . S
C3867 H3859 0.930 . S
C3867 C3868 1.355 . S
C3867 C3869 1.415 . S
C3868 C3867 1.355 . S
C3868 C3870 1.419 . S
C3869 C3864 1.425 . S
C3869 C3866 1.409 . S
C3869 C3867 1.415 . S
C3870 H3860 0.930 . S
C3870 C3868 1.419 . S
C3870 C3871 1.362 . S
C3871 H3861 0.930 . S
C3871 C3864 1.409 . S
C3871 C3870 1.362 . S
H3872 C3878 0.930 . S
H3873 C3881 0.930 . S
H3874 C3882 0.930 . S
H3875 C3883 0.930 . S
H3876 C3886 0.930 . S
H3877 C3887 0.930 . S
C3878 H3872 0.930 . S
C3878 C3879 1.355 . S
C3878 C3880 1.415 . S
C3879 C3878 1.355 . S
C3879 C3881 1.419 . S
C3880 C3878 1.415 . S
C3880 C3885 1.425 . S
C3880 C3887 1.409 . S
C3881 H3873 0.930 . S
C3881 C3879 1.419 . S
C3881 C3882 1.362 . S
C3882 H3874 0.930 . S
C3882 C3881 1.362 . S
C3882 C3885 1.409 . S
C3883 H3875 0.930 . S
C3883 C3884 1.355 . S
C3883 C3885 1.415 . S
C3884 C3883 1.355 . S
C3884 C3886 1.419 . S
C3885 C3880 1.425 . S
C3885 C3882 1.409 . S
C3885 C3883 1.415 . S
C3886 H3876 0.930 . S
C3886 C3884 1.419 . S
C3886 C3887 1.362 . S
C3887 H3877 0.930 . S
C3887 C3880 1.409 . S
C3887 C3886 1.362 . S
H3888 C3894 0.930 . S
H3889 C3897 0.930 . S
H3890 C3898 0.930 . S
H3891 C3899 0.930 . S
H3892 C3902 0.930 . S
H3893 C3903 0.930 . S
C3894 H3888 0.930 . S
C3894 C3895 1.355 . S
C3894 C3896 1.415 . S
C3895 C3894 1.355 . S
C3895 C3897 1.419 . S
C3896 C3894 1.415 . S
C3896 C3901 1.425 . S
C3896 C3903 1.409 . S
C3897 H3889 0.930 . S
C3897 C3895 1.419 . S
C3897 C3898 1.362 . S
C3898 H3890 0.930 . S
C3898 C3897 1.362 . S
C3898 C3901 1.409 . S
C3899 H3891 0.930 . S
C3899 C3900 1.355 . S
C3899 C3901 1.415 . S
C3900 C3899 1.355 . S
C3900 C3902 1.419 . S
C3901 C3896 1.425 . S
C3901 C3898 1.409 . S
C3901 C3899 1.415 . S
C3902 H3892 0.930 . S
C3902 C3900 1.419 . S
C3902 C3903 1.362 . S
C3903 H3893 0.930 . S
C3903 C3896 1.409 . S
C3903 C3902 1.362 . S
H3904 C3910 0.930 . S
H3905 C3913 0.930 . S
H3906 C3914 0.930 . S
H3907 C3915 0.930 . S
H3908 C3918 0.930 . S
H3909 C3919 0.930 . S
C3910 H3904 0.930 . S
C3910 C3911 1.355 . S
C3910 C3912 1.415 . S
C3911 C3910 1.355 . S
C3911 C3913 1.419 . S
C3912 C3910 1.415 . S
C3912 C3917 1.425 . S
C3912 C3919 1.409 . S
C3913 H3905 0.930 . S
C3913 C3911 1.419 . S
C3913 C3914 1.362 . S
C3914 H3906 0.930 . S
C3914 C3913 1.362 . S
C3914 C3917 1.409 . S
C3915 H3907 0.930 . S
C3915 C3916 1.355 . S
C3915 C3917 1.415 . S
C3916 C3915 1.355 . S
C3916 C3918 1.419 . S
C3917 C3912 1.425 . S
C3917 C3914 1.409 . S
C3917 C3915 1.415 . S
C3918 H3908 0.930 . S
C3918 C3916 1.419 . S
C3918 C3919 1.362 . S
C3919 H3909 0.930 . S
C3919 C3912 1.409 . S
C3919 C3918 1.362 . S
H3920 C3926 0.930 . S
H3921 C3929 0.930 . S
H3922 C3930 0.930 . S
H3923 C3931 0.930 . S
H3924 C3934 0.930 . S
H3925 C3935 0.930 . S
C3926 H3920 0.930 . S
C3926 C3927 1.355 . S
C3926 C3928 1.415 . S
C3927 C3926 1.355 . S
C3927 C3929 1.419 . S
C3928 C3926 1.415 . S
C3928 C3933 1.425 . S
C3928 C3935 1.409 . S
C3929 H3921 0.930 . S
C3929 C3927 1.419 . S
C3929 C3930 1.362 . S
C3930 H3922 0.930 . S
C3930 C3929 1.362 . S
C3930 C3933 1.409 . S
C3931 H3923 0.930 . S
C3931 C3932 1.355 . S
C3931 C3933 1.415 . S
C3932 C3931 1.355 . S
C3932 C3934 1.419 . S
C3933 C3928 1.425 . S
C3933 C3930 1.409 . S
C3933 C3931 1.415 . S
C3934 H3924 0.930 . S
C3934 C3932 1.419 . S
C3934 C3935 1.362 . S
C3935 H3925 0.930 . S
C3935 C3928 1.409 . S
C3935 C3934 1.362 . S
H3936 C3942 0.930 . S
H3937 C3945 0.930 . S
H3938 C3946 0.930 . S
H3939 C3947 0.930 . S
H3940 C3950 0.930 . S
H3941 C3951 0.930 . S
C3942 H3936 0.930 . S
C3942 C3943 1.355 . S
C3942 C3944 1.415 . S
C3943 C3942 1.355 . S
C3943 C3945 1.419 . S
C3944 C3942 1.415 . S
C3944 C3949 1.425 . S
C3944 C3951 1.409 . S
C3945 H3937 0.930 . S
C3945 C3943 1.419 . S
C3945 C3946 1.362 . S
C3946 H3938 0.930 . S
C3946 C3945 1.362 . S
C3946 C3949 1.409 . S
C3947 H3939 0.930 . S
C3947 C3948 1.355 . S
C3947 C3949 1.415 . S
C3948 C3947 1.355 . S
C3948 C3950 1.419 . S
C3949 C3944 1.425 . S
C3949 C3946 1.409 . S
C3949 C3947 1.415 . S
C3950 H3940 0.930 . S
C3950 C3948 1.419 . S
C3950 C3951 1.362 . S
C3951 H3941 0.930 . S
C3951 C3944 1.409 . S
C3951 C3950 1.362 . S
H3952 C3958 0.930 . S
H3953 C3961 0.930 . S
H3954 C3962 0.930 . S
H3955 C3963 0.930 . S
H3956 C3966 0.930 . S
H3957 C3967 0.930 . S
C3958 H3952 0.930 . S
C3958 C3959 1.355 . S
C3958 C3960 1.415 . S
C3959 C3958 1.355 . S
C3959 C3961 1.419 . S
C3960 C3958 1.415 . S
C3960 C3965 1.425 . S
C3960 C3967 1.409 . S
C3961 H3953 0.930 . S
C3961 C3959 1.419 . S
C3961 C3962 1.362 . S
C3962 H3954 0.930 . S
C3962 C3961 1.362 . S
C3962 C3965 1.409 . S
C3963 H3955 0.930 . S
C3963 C3964 1.355 . S
C3963 C3965 1.415 . S
C3964 C3963 1.355 . S
C3964 C3966 1.419 . S
C3965 C3960 1.425 . S
C3965 C3962 1.409 . S
C3965 C3963 1.415 . S
C3966 H3956 0.930 . S
C3966 C3964 1.419 . S
C3966 C3967 1.362 . S
C3967 H3957 0.930 . S
C3967 C3960 1.409 . S
C3967 C3966 1.362 . S
H3968 C3974 0.930 . S
H3969 C3977 0.930 . S
H3970 C3978 0.930 . S
H3971 C3979 0.930 . S
H3972 C3982 0.930 . S
H3973 C3983 0.930 . S
C3974 H3968 0.930 . S
C3974 C3975 1.355 . S
C3974 C3976 1.415 . S
C3975 C3974 1.355 . S
C3975 C3977 1.419 . S
C3976 C3974 1.415 . S
C3976 C3981 1.425 . S
C3976 C3983 1.409 . S
C3977 H3969 0.930 . S
C3977 C3975 1.419 . S
C3977 C3978 1.362 . S
C3978 H3970 0.930 . S
C3978 C3977 1.362 . S
C3978 C3981 1.409 . S
C3979 H3971 0.930 . S
C3979 C3980 1.355 . S
C3979 C3981 1.415 . S
C3980 C3979 1.355 . S
C3980 C3982 1.419 . S
C3981 C3976 1.425 . S
C3981 C3978 1.409 . S
C3981 C3979 1.415 . S
C3982 H3972 0.930 . S
C3982 C3980 1.419 . S
C3982 C3983 1.362 . S
C3983 H3973 0.930 . S
C3983 C3976 1.409 . S
C3983 C3982 1.362 . S
H3984 C3990 0.930 . S
H3985 C3993 0.930 . S
H3986 C3994 0.930 . S
H3987 C3995 0.930 . S
H3988 C3998 0.930 . S
H3989 C3999 0.930 . S
C3990 H3984 0.930 . S
C3990 C3991 1.355 . S
C3990 C3992 1.415 . S
C3991 C3990 1.355 . S
C3991 C3993 1.419 . S
C3992 C3990 1.415 . S
C3992 C3997 1.425 . S
C3992 C3999 1.409 . S
C3993 H3985 0.930 . S
C3993 C3991 1.419 . S
C3993 C3994 1.362 . S
C3994 H3986 0.930 . S
C3994 C3993 1.362 . S
C3994 C3997 1.409 . S
C3995 H3987 0.930 . S
C3995 C3996 1.355 . S
C3995 C3997 1.415 . S
C3996 C3995 1.355 . S
C3996 C3998 1.419 . S
C3997 C3992 1.425 . S
C3997 C3994 1.409 . S
C3997 C3995 1.415 . S
C3998 H3988 0.930 . S
C3998 C3996 1.419 . S
C3998 C3999 1.362 . S
C3999 H3989 0.930 . S
C3999 C3992 1.409 . S
C3999 C3998 1.362 . S
H4000 C4006 0.930 . S
H4001 C4009 0.930 . S
H4002 C4010 0.930 . S
H4003 C4011 0.930 . S
H4004 C4014 0.930 . S
H4005 C4015 0.930 . S
C4006 H4000 0.930 . S
C4006 C4007 1.355 . S
C4006 C4008 1.415 . S
C4007 C4006 1.355 . S
C4007 C4009 1.419 . S
C4008 C4006 1.415 . S
C4008 C4013 1.425 . S
C4008 C4015 1.409 . S
C4009 H4001 0.930 . S
C4009 C4007 1.419 . S
C4009 C4010 1.362 . S
C4010 H4002 0.930 . S
C4010 C4009 1.362 . S
C4010 C4013 1.409 . S
C4011 H4003 0.930 . S
C4011 C4012 1.355 . S
C4011 C4013 1.415 . S
C4012 C4011 1.355 . S
C4012 C4014 1.419 . S
C4013 C4008 1.425 . S
C4013 C4010 1.409 . S
C4013 C4011 1.415 . S
C4014 H4004 0.930 . S
C4014 C4012 1.419 . S
C4014 C4015 1.362 . S
C4015 H4005 0.930 . S
C4015 C4008 1.409 . S
C4015 C4014 1.362 . S
H4016 C4022 0.930 . S
H4017 C4025 0.930 . S
H4018 C4026 0.930 . S
H4019 C4027 0.930 . S
H4020 C4030 0.930 . S
H4021 C4031 0.930 . S
C4022 H4016 0.930 . S
C4022 C4023 1.355 . S
C4022 C4024 1.415 . S
C4023 C4022 1.355 . S
C4023 C4025 1.419 . S
C4024 C4022 1.415 . S
C4024 C4029 1.425 . S
C4024 C4031 1.409 . S
C4025 H4017 0.930 . S
C4025 C4023 1.419 . S
C4025 C4026 1.362 . S
C4026 H4018 0.930 . S
C4026 C4025 1.362 . S
C4026 C4029 1.409 . S
C4027 H4019 0.930 . S
C4027 C4028 1.355 . S
C4027 C4029 1.415 . S
C4028 C4027 1.355 . S
C4028 C4030 1.419 . S
C4029 C4024 1.425 . S
C4029 C4026 1.409 . S
C4029 C4027 1.415 . S
C4030 H4020 0.930 . S
C4030 C4028 1.419 . S
C4030 C4031 1.362 . S
C4031 H4021 0.930 . S
C4031 C4024 1.409 . S
C4031 C4030 1.362 . S
H4032 C4038 0.930 . S
H4033 C4041 0.930 . S
H4034 C4042 0.930 . S
H4035 C4043 0.930 . S
H4036 C4046 0.930 . S
H4037 C4047 0.930 . S
C4038 H4032 0.930 . S
C4038 C4039 1.355 . S
C4038 C4040 1.415 . S
C4039 C4038 1.355 . S
C4039 C4041 1.419 . S
C4040 C4038 1.415 . S
C4040 C4045 1.425 . S
C4040 C4047 1.409 . S
C4041 H4033 0.930 . S
C4041 C4039 1.419 . S
C4041 C4042 1.362 . S
C4042 H4034 0.930 . S
C4042 C4041 1.362 . S
C4042 C4045 1.409 . S
C4043 H4035 0.930 . S
C4043 C4044 1.355 . S
C4043 C4045 1.415 . S
C4044 C4043 1.355 . S
C4044 C4046 1.419 . S
C4045 C4040 1.425 . S
C4045 C4042 1.409 . S
C4045 C4043 1.415 . S
C4046 H4036 0.930 . S
C4046 C4044 1.419 . S
C4046 C4047 1.362 . S
C4047 H4037 0.930 . S
C4047 C4040 1.409 . S
C4047 C4046 1.362 . S
H4048 C4054 0.930 . S
H4049 C4057 0.930 . S
H4050 C4058 0.930 . S
H4051 C4059 0.930 . S
H4052 C4062 0.930 . S
H4053 C4063 0.930 . S
C4054 H4048 0.930 . S
C4054 C4055 1.355 . S
C4054 C4056 1.415 . S
C4055 C4054 1.355 . S
C4055 C4057 1.419 . S
C4056 C4054 1.415 . S
C4056 C4061 1.425 . S
C4056 C4063 1.409 . S
C4057 H4049 0.930 . S
C4057 C4055 1.419 . S
C4057 C4058 1.362 . S
C4058 H4050 0.930 . S
C4058 C4057 1.362 . S
C4058 C4061 1.409 . S
C4059 H4051 0.930 . S
C4059 C4060 1.355 . S
C4059 C4061 1.415 . S
C4060 C4059 1.355 . S
C4060 C4062 1.419 . S
C4061 C4056 1.425 . S
C4061 C4058 1.409 . S
C4061 C4059 1.415 . S
C4062 H4052 0.930 . S
C4062 C4060 1.419 . S
C4062 C4063 1.362 . S
C4063 H4053 0.930 . S
C4063 C4056 1.409 . S
C4063 C4062 1.362 . S
H4064 C4070 0.930 . S
H4065 C4073 0.930 . S
H4066 C4074 0.930 . S
H4067 C4075 0.930 . S
H4068 C4078 0.930 . S
H4069 C4079 0.930 . S
C4070 H4064 0.930 . S
C4070 C4071 1.355 . S
C4070 C4072 1.415 . S
C4071 C4070 1.355 . S
C4071 C4073 1.419 . S
C4072 C4070 1.415 . S
C4072 C4077 1.425 . S
C4072 C4079 1.409 1_655 S
C4073 H4065 0.930 . S
C4073 C4071 1.419 . S
C4073 C4074 1.362 . S
C4074 H4066 0.930 . S
C4074 C4073 1.362 . S
C4074 C4077 1.409 . S
C4075 H4067 0.930 . S
C4075 C4076 1.355 1_655 S
C4075 C4077 1.415 . S
C4076 C4075 1.355 1_455 S
C4076 C4078 1.419 . S
C4077 C4072 1.425 . S
C4077 C4074 1.409 . S
C4077 C4075 1.415 . S
C4078 H4068 0.930 . S
C4078 C4076 1.419 . S
C4078 C4079 1.362 . S
C4079 H4069 0.930 . S
C4079 C4072 1.409 1_455 S
C4079 C4078 1.362 . S
H4080 C4086 0.930 . S
H4081 C4089 0.930 . S
H4082 C4090 0.930 . S
H4083 C4091 0.930 . S
H4084 C4094 0.930 . S
H4085 C4095 0.930 . S
C4086 H4080 0.930 . S
C4086 C4087 1.355 . S
C4086 C4088 1.415 . S
C4087 C4086 1.355 . S
C4087 C4089 1.419 . S
C4088 C4086 1.415 . S
C4088 C4093 1.425 . S
C4088 C4095 1.409 . S
C4089 H4081 0.930 . S
C4089 C4087 1.419 . S
C4089 C4090 1.362 . S
C4090 H4082 0.930 . S
C4090 C4089 1.362 . S
C4090 C4093 1.409 . S
C4091 H4083 0.930 . S
C4091 C4092 1.355 . S
C4091 C4093 1.415 . S
C4092 C4091 1.355 . S
C4092 C4094 1.419 . S
C4093 C4088 1.425 . S
C4093 C4090 1.409 . S
C4093 C4091 1.415 . S
C4094 H4084 0.930 . S
C4094 C4092 1.419 . S
C4094 C4095 1.362 . S
C4095 H4085 0.930 . S
C4095 C4088 1.409 . S
C4095 C4094 1.362 . S
H4096 C4102 0.930 . S
H4097 C4105 0.930 . S
H4098 C4106 0.930 . S
H4099 C4107 0.930 . S
H4100 C4110 0.930 . S
H4101 C4111 0.930 . S
C4102 H4096 0.930 . S
C4102 C4103 1.355 . S
C4102 C4104 1.415 . S
C4103 C4102 1.355 . S
C4103 C4105 1.419 . S
C4104 C4102 1.415 . S
C4104 C4109 1.425 . S
C4104 C4111 1.409 . S
C4105 H4097 0.930 . S
C4105 C4103 1.419 . S
C4105 C4106 1.362 . S
C4106 H4098 0.930 . S
C4106 C4105 1.362 . S
C4106 C4109 1.409 . S
C4107 H4099 0.930 . S
C4107 C4108 1.355 . S
C4107 C4109 1.415 . S
C4108 C4107 1.355 . S
C4108 C4110 1.419 . S
C4109 C4104 1.425 . S
C4109 C4106 1.409 . S
C4109 C4107 1.415 . S
C4110 H4100 0.930 . S
C4110 C4108 1.419 . S
C4110 C4111 1.362 . S
C4111 H4101 0.930 . S
C4111 C4104 1.409 . S
C4111 C4110 1.362 . S
H4112 C4118 0.930 . S
H4113 C4121 0.930 . S
H4114 C4122 0.930 . S
H4115 C4123 0.930 . S
H4116 C4126 0.930 . S
H4117 C4127 0.930 . S
C4118 H4112 0.930 . S
C4118 C4119 1.355 . S
C4118 C4120 1.415 . S
C4119 C4118 1.355 . S
C4119 C4121 1.419 . S
C4120 C4118 1.415 . S
C4120 C4125 1.425 . S
C4120 C4127 1.409 . S
C4121 H4113 0.930 . S
C4121 C4119 1.419 . S
C4121 C4122 1.362 . S
C4122 H4114 0.930 . S
C4122 C4121 1.362 . S
C4122 C4125 1.409 . S
C4123 H4115 0.930 . S
C4123 C4124 1.355 . S
C4123 C4125 1.415 . S
C4124 C4123 1.355 . S
C4124 C4126 1.419 . S
C4125 C4120 1.425 . S
C4125 C4122 1.409 . S
C4125 C4123 1.415 . S
C4126 H4116 0.930 . S
C4126 C4124 1.419 . S
C4126 C4127 1.362 . S
C4127 H4117 0.930 . S
C4127 C4120 1.409 . S
C4127 C4126 1.362 . S
H4128 C4134 0.930 . S
H4129 C4137 0.930 . S
H4130 C4138 0.930 . S
H4131 C4139 0.930 . S
H4132 C4142 0.930 . S
H4133 C4143 0.930 . S
C4134 H4128 0.930 . S
C4134 C4135 1.355 . S
C4134 C4136 1.415 . S
C4135 C4134 1.355 . S
C4135 C4137 1.419 . S
C4136 C4134 1.415 . S
C4136 C4141 1.425 . S
C4136 C4143 1.409 1_655 S
C4137 H4129 0.930 . S
C4137 C4135 1.419 . S
C4137 C4138 1.362 . S
C4138 H4130 0.930 . S
C4138 C4137 1.362 . S
C4138 C4141 1.409 . S
C4139 H4131 0.930 . S
C4139 C4140 1.403 . S
C4139 C4141 1.415 . S
C4140 C4139 1.403 . S
C4140 C4142 1.401 1_655 S
C4141 C4136 1.425 . S
C4141 C4138 1.409 . S
C4141 C4139 1.415 . S
C4142 H4132 0.930 . S
C4142 C4140 1.401 1_455 S
C4142 C4143 1.362 . S
C4143 H4133 0.930 . S
C4143 C4136 1.409 1_455 S
C4143 C4142 1.362 . S
H4144 C4150 0.930 . S
H4145 C4153 0.930 . S
H4146 C4154 0.930 . S
H4147 C4155 0.930 . S
H4148 C4158 0.930 . S
H4149 C4159 0.930 . S
C4150 H4144 0.930 . S
C4150 C4151 1.355 . S
C4150 C4152 1.415 . S
C4151 C4150 1.355 . S
C4151 C4153 1.419 . S
C4152 C4150 1.415 . S
C4152 C4157 1.425 . S
C4152 C4159 1.409 . S
C4153 H4145 0.930 . S
C4153 C4151 1.419 . S
C4153 C4154 1.362 . S
C4154 H4146 0.930 . S
C4154 C4153 1.362 . S
C4154 C4157 1.409 . S
C4155 H4147 0.930 . S
C4155 C4156 1.355 . S
C4155 C4157 1.415 . S
C4156 C4155 1.355 . S
C4156 C4158 1.419 . S
C4157 C4152 1.425 . S
C4157 C4154 1.409 . S
C4157 C4155 1.415 . S
C4158 H4148 0.930 . S
C4158 C4156 1.419 . S
C4158 C4159 1.362 . S
C4159 H4149 0.930 . S
C4159 C4152 1.409 . S
C4159 C4158 1.362 . S
H4160 C4166 0.930 . S
H4161 C4169 0.930 . S
H4162 C4170 0.930 . S
H4163 C4171 0.930 . S
H4164 C4174 0.930 . S
H4165 C4175 0.930 . S
C4166 H4160 0.930 . S
C4166 C4167 1.355 . S
C4166 C4168 1.415 . S
C4167 C4166 1.355 . S
C4167 C4169 1.419 . S
C4168 C4166 1.415 . S
C4168 C4173 1.425 . S
C4168 C4175 1.409 . S
C4169 H4161 0.930 . S
C4169 C4167 1.419 . S
C4169 C4170 1.362 . S
C4170 H4162 0.930 . S
C4170 C4169 1.362 . S
C4170 C4173 1.409 . S
C4171 H4163 0.930 . S
C4171 C4172 1.355 . S
C4171 C4173 1.415 . S
C4172 C4171 1.355 . S
C4172 C4174 1.419 . S
C4173 C4168 1.425 . S
C4173 C4170 1.409 . S
C4173 C4171 1.415 . S
C4174 H4164 0.930 . S
C4174 C4172 1.419 . S
C4174 C4175 1.362 . S
C4175 H4165 0.930 . S
C4175 C4168 1.409 . S
C4175 C4174 1.362 . S
H4176 C4182 0.930 . S
H4177 C4185 0.930 . S
H4178 C4186 0.930 . S
H4179 C4187 0.930 . S
H4180 C4190 0.886 1_545 S
H4181 C4191 0.930 1_545 S
C4182 H4176 0.930 . S
C4182 C4183 1.355 . S
C4182 C4184 1.415 . S
C4183 C4182 1.355 . S
C4183 C4185 1.419 . S
C4184 C4182 1.415 . S
C4184 C4189 1.425 . S
C4184 C4191 1.409 . S
C4185 H4177 0.930 . S
C4185 C4183 1.419 . S
C4185 C4186 1.362 . S
C4186 H4178 0.930 . S
C4186 C4185 1.362 . S
C4186 C4189 1.409 . S
C4187 H4179 0.930 . S
C4187 C4188 1.355 . S
C4187 C4189 1.415 . S
C4188 C4187 1.355 . S
C4188 C4190 1.457 . S
C4189 C4184 1.425 . S
C4189 C4186 1.409 . S
C4189 C4187 1.415 . S
C4190 H4180 0.886 1_565 S
C4190 C4188 1.457 . S
C4190 C4191 1.370 . S
C4191 H4181 0.930 1_565 S
C4191 C4184 1.409 . S
C4191 C4190 1.370 . S
H4192 C4198 0.930 . S
H4193 C4201 0.930 . S
H4194 C4202 0.930 . S
H4195 C4203 0.930 . S
H4196 C4206 0.930 . S
H4197 C4207 0.930 . S
C4198 H4192 0.930 . S
C4198 C4199 1.355 . S
C4198 C4200 1.415 . S
C4199 C4198 1.355 . S
C4199 C4201 1.419 . S
C4200 C4198 1.415 . S
C4200 C4205 1.425 . S
C4200 C4207 1.409 . S
C4201 H4193 0.930 . S
C4201 C4199 1.419 . S
C4201 C4202 1.362 . S
C4202 H4194 0.930 . S
C4202 C4201 1.362 . S
C4202 C4205 1.409 . S
C4203 H4195 0.930 . S
C4203 C4204 1.355 . S
C4203 C4205 1.415 . S
C4204 C4203 1.355 . S
C4204 C4206 1.419 . S
C4205 C4200 1.425 . S
C4205 C4202 1.409 . S
C4205 C4203 1.415 . S
C4206 H4196 0.930 . S
C4206 C4204 1.419 . S
C4206 C4207 1.362 . S
C4207 H4197 0.930 . S
C4207 C4200 1.409 . S
C4207 C4206 1.362 . S
H4208 C4214 0.930 . S
H4209 C4217 0.930 . S
H4210 C4218 0.930 . S
H4211 C4219 0.930 . S
H4212 C4222 0.930 . S
H4213 C4223 0.930 . S
C4214 H4208 0.930 . S
C4214 C4215 1.355 . S
C4214 C4216 1.415 . S
C4215 C4214 1.355 . S
C4215 C4217 1.419 . S
C4216 C4214 1.415 . S
C4216 C4221 1.425 . S
C4216 C4223 1.409 . S
C4217 H4209 0.930 . S
C4217 C4215 1.419 . S
C4217 C4218 1.362 . S
C4218 H4210 0.930 . S
C4218 C4217 1.362 . S
C4218 C4221 1.409 . S
C4219 H4211 0.930 . S
C4219 C4220 1.355 . S
C4219 C4221 1.415 . S
C4220 C4219 1.355 . S
C4220 C4222 1.419 . S
C4221 C4216 1.425 . S
C4221 C4218 1.409 . S
C4221 C4219 1.415 . S
C4222 H4212 0.930 . S
C4222 C4220 1.419 . S
C4222 C4223 1.362 . S
C4223 H4213 0.930 . S
C4223 C4216 1.409 . S
C4223 C4222 1.362 . S
H4224 C4230 0.930 . S
H4225 C4233 0.930 . S
H4226 C4234 0.930 . S
H4227 C4235 0.930 . S
H4228 C4238 0.930 . S
H4229 C4239 0.930 . S
C4230 H4224 0.930 . S
C4230 C4231 1.355 . S
C4230 C4232 1.415 . S
C4231 C4230 1.355 . S
C4231 C4233 1.419 . S
C4232 C4230 1.415 . S
C4232 C4237 1.425 . S
C4232 C4239 1.409 . S
C4233 H4225 0.930 . S
C4233 C4231 1.419 . S
C4233 C4234 1.362 . S
C4234 H4226 0.930 . S
C4234 C4233 1.362 . S
C4234 C4237 1.409 . S
C4235 H4227 0.930 . S
C4235 C4236 1.355 . S
C4235 C4237 1.415 . S
C4236 C4235 1.355 . S
C4236 C4238 1.419 . S
C4237 C4232 1.425 . S
C4237 C4234 1.409 . S
C4237 C4235 1.415 . S
C4238 H4228 0.930 . S
C4238 C4236 1.419 . S
C4238 C4239 1.362 . S
C4239 H4229 0.930 . S
C4239 C4232 1.409 . S
C4239 C4238 1.362 . S
H4240 C4246 0.930 . S
H4241 C4249 0.930 . S
H4242 C4250 0.930 . S
H4243 C4251 0.930 . S
H4244 C4254 0.930 . S
H4245 C4255 0.930 . S
C4246 H4240 0.930 . S
C4246 C4247 1.355 . S
C4246 C4248 1.415 . S
C4247 C4246 1.355 . S
C4247 C4249 1.419 . S
C4248 C4246 1.415 . S
C4248 C4253 1.425 . S
C4248 C4255 1.409 1_554 S
C4249 H4241 0.930 . S
C4249 C4247 1.419 . S
C4249 C4250 1.362 . S
C4250 H4242 0.930 . S
C4250 C4249 1.362 . S
C4250 C4253 1.409 . S
C4251 H4243 0.930 . S
C4251 C4252 1.355 . S
C4251 C4253 1.415 . S
C4252 C4251 1.355 . S
C4252 C4254 1.419 1_554 S
C4253 C4248 1.425 . S
C4253 C4250 1.409 . S
C4253 C4251 1.415 . S
C4254 H4244 0.930 . S
C4254 C4252 1.419 1_556 S
C4254 C4255 1.362 . S
C4255 H4245 0.930 . S
C4255 C4248 1.409 1_556 S
C4255 C4254 1.362 . S
H4256 C4262 0.930 . S
H4257 C4265 0.930 . S
H4258 C4266 0.930 . S
H4259 C4267 0.930 . S
H4260 C4270 0.930 . S
H4261 C4271 0.930 . S
C4262 H4256 0.930 . S
C4262 C4263 1.355 . S
C4262 C4264 1.415 . S
C4263 C4262 1.355 . S
C4263 C4265 1.419 . S
C4264 C4262 1.415 . S
C4264 C4269 1.425 . S
C4264 C4271 1.409 . S
C4265 H4257 0.930 . S
C4265 C4263 1.419 . S
C4265 C4266 1.362 . S
C4266 H4258 0.930 . S
C4266 C4265 1.362 . S
C4266 C4269 1.409 . S
C4267 H4259 0.930 . S
C4267 C4268 1.355 . S
C4267 C4269 1.415 . S
C4268 C4267 1.355 . S
C4268 C4270 1.419 . S
C4269 C4264 1.425 . S
C4269 C4266 1.409 . S
C4269 C4267 1.415 . S
C4270 H4260 0.930 . S
C4270 C4268 1.419 . S
C4270 C4271 1.362 . S
C4271 H4261 0.930 . S
C4271 C4264 1.409 . S
C4271 C4270 1.362 . S
H4272 C4278 0.930 . S
H4273 C4281 0.930 . S
H4274 C4282 0.930 . S
H4275 C4283 0.930 . S
H4276 C4286 0.930 . S
H4277 C4287 0.930 . S
C4278 H4272 0.930 . S
C4278 C4279 1.355 . S
C4278 C4280 1.415 . S
C4279 C4278 1.355 . S
C4279 C4281 1.419 . S
C4280 C4278 1.415 . S
C4280 C4285 1.425 . S
C4280 C4287 1.409 . S
C4281 H4273 0.930 . S
C4281 C4279 1.419 . S
C4281 C4282 1.362 . S
C4282 H4274 0.930 . S
C4282 C4281 1.362 . S
C4282 C4285 1.409 . S
C4283 H4275 0.930 . S
C4283 C4284 1.355 . S
C4283 C4285 1.415 . S
C4284 C4283 1.355 . S
C4284 C4286 1.419 . S
C4285 C4280 1.425 . S
C4285 C4282 1.409 . S
C4285 C4283 1.415 . S
C4286 H4276 0.930 . S
C4286 C4284 1.419 . S
C4286 C4287 1.362 . S
C4287 H4277 0.930 . S
C4287 C4280 1.409 . S
C4287 C4286 1.362 . S
C2759 C665 2.270 1_554 S
C2764 C2122 2.243 . S
C2775 C381 2.016 . S
C2780 C2170 1.992 . S
C2791 C460 1.373 . S
C2796 C2202 1.395 . S
C2812 C2247 1.572 . S
C2807 C585 1.607 . S
C2823 C108 0.930 . S
C2828 C2287 0.939 . S
C2844 C2322 0.998 . S
C2839 C196 0.916 . S
C2860 C2361 1.058 . S
C2855 C313 1.089 . S
C2871 C49 1.203 . S
C2876 C2398 1.232 . S
C2892 C2130 1.980 . S
C2887 C1457 1.993 . S
C2903 C1545 0.681 . S
C2908 C2167 0.725 . S
C2924 C2210 2.418 . S
C2919 C1721 2.449 1_545 S
C2940 C2242 1.220 . S
C2935 C1113 1.192 . S
C2951 C1428 1.254 1_455 S
C2956 C2282 1.340 . S
C2972 C2330 0.664 . S
C2967 C1516 0.659 . S
C2988 C2371 1.825 1_556 S
C2983 C1692 1.936 . S
C3004 C2401 2.004 . S
C2999 C1085 1.991 . S
C3020 C2127 1.276 . S
C3015 C988 1.318 1_554 S
C3031 C1817 2.139 . S
C3036 C2450 2.087 . S
C3052 C2487 1.134 . S
C3047 C2081 1.156 . S
C3068 C2518 0.371 . S
C3063 C1993 0.351 . S
C3079 C761 2.772 . S
C3084 C2411 2.732 . S
C3095 C821 1.361 . S
C3100 C2207 1.337 . S
C3111 C2053 1.713 . S
C3116 C2570 1.722 . S
C3132 C2602 1.887 . S
C3127 C1868 1.869 . S
C3148 C2131 2.252 . S
C3143 C372 2.258 . S
C3164 C2601 2.004 . S
C3159 C645 2.014 . S
C3175 C577 1.346 . S
C3180 C2211 1.394 . S
C3191 C497 1.582 . S
C3196 C2558 1.523 . S
C3212 C2278 0.868 . S
C3207 C57 0.906 . S
C3223 C293 0.983 . S
C3228 C2491 0.987 . S
C3244 C2370 1.073 . S
C3239 C205 1.085 . S
C3260 C2647 1.225 . S
C3255 C145 1.217 . S
C3276 C2121 1.979 . S
C3271 C909 1.994 . S
C3292 C2598 0.671 . S
C3287 C1956 0.618 . S
C3303 C724 2.471 . S
C3308 C2201 2.443 . S
C3319 C1780 1.136 . S
C3324 C2571 1.222 . S
C3335 C937 1.262 . S
C3340 C2291 1.328 . S
C3356 C2481 0.750 . S
C3351 C1985 0.725 . S
C3367 C753 1.934 . S
C3372 C2362 1.818 . S
C3383 C1809 1.997 . S
C3388 C2650 1.976 . S
C3399 C1173 1.412 . S
C3404 C2118 1.378 . S
C3415 C1105 2.135 . S
C3420 C2441 2.113 . S
C3431 C1633 1.170 . S
C3436 C2318 1.162 . S
C3447 C1553 0.329 . S
C3452 C2527 0.360 . S
C3468 C2642 2.708 . S
C3463 C1729 2.770 . S
C3479 C1340 1.371 . S
C3484 C2198 1.354 . S
C3500 C2241 1.708 . S
C3495 C1604 1.701 . S
C3516 C2171 1.878 . S
C3511 C1252 1.865 . S
C3527 C489 2.258 . S
C3532 C2682 2.275 . S
C3548 C2610 1.978 . S
C3543 C557 1.997 . S
C3559 C636 1.380 . S
C3564 C2722 1.391 . S
C3575 C409 1.576 . S
C3580 C2567 1.539 . S
C3591 C284 0.928 . S
C3596 C2447 0.902 . S
C3612 C2482 0.993 . S
C3607 C20 0.953 . S
C3628 C2521 1.106 . S
C3623 C137 1.093 . S
C3644 C2638 1.214 . S
C3639 C225 1.230 . S
C3660 C2690 1.965 . S
C3655 C1641 1.991 . S
C3671 C1193 0.568 . S
C3676 C2607 0.552 . S
C3692 C2730 2.449 . S
C3687 C1289 2.475 . S
C3708 C2562 1.224 . S
C3703 C1377 1.156 . S
C3724 C2442 1.335 . S
C3719 C1613 1.320 . S
C3735 C1164 0.782 . S
C3740 C2490 0.761 . S
C3756 C2531 1.811 . S
C3751 C1261 1.931 . S
C3767 C1349 2.005 . S
C3772 C2641 2.015 . S
C3788 C2687 1.342 . S
C3783 C1965 1.377 . S
C3799 C849 2.144 . S
C3804 C2290 2.095 . S
C3820 C2327 1.166 . S
C3815 C929 1.179 . S
C3836 C2358 0.357 . S
C3831 C1017 0.330 . S
C3852 C2651 2.728 . S
C3847 C1897 2.764 . S
C3863 C1789 1.391 . S
C3868 C2727 1.372 . S
C3884 C2250 1.702 . S
C3879 C900 1.709 . S
C3900 C2162 1.889 . S
C3895 C733 1.823 . S
C3911 C548 2.251 . S
C3916 C2691 2.272 . S
C3932 C2161 1.991 . S
C3927 C469 1.998 . S
C3943 C401 1.376 . S
C3948 C2731 1.388 . S
C3959 C673 1.581 . S
C3964 C2238 1.546 . S
C3975 C233 0.894 . S
C3980 C2438 0.923 . S
C3996 C2331 0.986 . S
C3991 C117 0.943 . S
C4007 C29 1.086 . S
C4012 C2530 1.078 . S
C4023 C321 1.228 . S
C4028 C2407 1.210 . S
C4044 C2681 1.996 . S
C4039 C2044 2.010 . S
C4055 C997 0.783 . S
C4060 C2158 0.802 . S
C4076 C2721 2.418 . S
C4071 C1877 2.446 . S
C4087 C812 1.204 . S
C4092 C2251 1.215 . S
C4103 C2073 1.282 . S
C4108 C2451 1.322 . S
C4124 C2321 0.816 . S
C4119 C1025 0.838 . S
C4135 C1905 1.936 . S
C4140 C2522 1.795 1_655 S
C4156 C2410 1.982 . S
C4151 C841 1.988 . S
C4172 C2678 1.337 . S
C4167 C1525 1.380 . S
C4188 C2281 2.076 1_565 S
C4183 C1369 2.126 . S
C4199 C1465 1.158 . S
C4204 C2478 1.143 . S
C4220 C2367 0.444 . S
C4215 C1201 0.393 . S
C4231 C1281 2.770 . S
C4236 C2402 2.722 . S
C4247 C1076 1.389 . S
C4252 C2718 1.380 . S
C4268 C2561 1.735 . S
C4263 C1437 1.723 . S
C4284 C2611 1.896 . S
C4279 C1701 1.840 . S
