# Generated by pormake.
# Topology anh, (6,3)-cn, num edge types: 1
# Building blocks:
#     Node 0, Type 0, BuildingBlock: NUHQIS_clean_sbu_0, # of connection points: 6
#     Node 1, Type 0, BuildingBlock: NUHQIS_clean_sbu_0, # of connection points: 6
#     Node 2, Type 0, BuildingBlock: NUHQIS_clean_sbu_0, # of connection points: 6
#     Node 3, Type 1, BuildingBlock: WUSLED_clean_sbu_0, # of connection points: 3
#     Node 4, Type 1, BuildingBlock: WUSLED_clean_sbu_0, # of connection points: 3
#     Node 5, Type 1, BuildingBlock: WUSLED_clean_sbu_0, # of connection points: 3
#     Node 6, Type 1, BuildingBlock: WUSLED_clean_sbu_0, # of connection points: 3
#     Node 7, Type 1, BuildingBlock: WUSLED_clean_sbu_0, # of connection points: 3
#     Node 8, Type 1, BuildingBlock: WUSLED_clean_sbu_0, # of connection points: 3
#     Edge 9, Type (0, 1), None
#     Edge 10, Type (0, 1), None
#     Edge 11, Type (0, 1), None
#     Edge 12, Type (0, 1), None
#     Edge 13, Type (0, 1), None
#     Edge 14, Type (0, 1), None
#     Edge 15, Type (0, 1), None
#     Edge 16, Type (0, 1), None
#     Edge 17, Type (0, 1), None
#     Edge 18, Type (0, 1), None
#     Edge 19, Type (0, 1), None
#     Edge 20, Type (0, 1), None
#     Edge 21, Type (0, 1), None
#     Edge 22, Type (0, 1), None
#     Edge 23, Type (0, 1), None
#     Edge 24, Type (0, 1), None
#     Edge 25, Type (0, 1), None
#     Edge 26, Type (0, 1), None
# Relax obj value: 0.379
# Max RMSD: 0.207
# Mean RMSD: 0.169
data_MOF--net-anh--node1-NUHQIS_clean_sbu_0--node2-WUSLED_clean_sbu_0--edge1-none
_symmetry_space_group_name_H-M    P1
_symmetry_Int_Tables_number       1
_symmetry_cell_setting            triclinic
loop_
_symmetry_equiv_pos_as_xyz
'x, y, z'
_cell_length_a     21.778077
_cell_length_b     21.854174
_cell_length_c     40.585464
_cell_angle_alpha  87.830801
_cell_angle_beta   96.34463
_cell_angle_gamma 120.16663
loop_
_atom_site_label
_atom_site_type_symbol
_atom_site_fract_x
_atom_site_fract_y
_atom_site_fract_z
_atom_type_partial_charge
Tb0 Tb 0.3068 0.67444 0.19644 0.0
Eu1 Eu 0.22231 0.75964 0.18203 0.0
C2 C 0.26428 0.72818 0.25481 0.0
C3 C 1.13778 0.59203 0.19734 0.0
C4 C 0.39215 0.57633 0.17953 0.0
C5 C 0.38568 0.47733 0.15136 0.0
C6 C 0.37355 0.50504 0.17869 0.0
C7 C 0.42379 0.62 0.15305 0.0
C8 C 0.43654 0.59263 0.12598 0.0
C9 C 0.41682 0.5208 0.12463 0.0
C10 C 0.36633 0.60119 0.20458 0.0
O11 O 0.27846 0.66445 0.14232 0.0
O12 O 0.26393 0.76062 0.13347 0.0
O13 O 0.33593 0.84276 0.19882 0.0
O14 O 0.39289 0.78277 0.18824 0.0
C15 C 0.27292 0.71052 0.12211 0.0
O16 O 1.14543 0.78252 0.15367 0.0
O17 O 1.20549 0.8435 0.19848 0.0
O18 O 1.21179 0.72449 0.23443 0.0
O19 O 0.31524 0.72181 0.244 0.0
O20 O 1.19951 0.60036 0.21049 0.0
O21 O 1.13497 0.64323 0.18022 0.0
C22 C 0.39498 0.84193 0.19604 0.0
O23 O 0.39991 0.66926 0.21028 0.0
O24 O 0.29755 0.5745 0.20079 0.0
C25 C 1.08185 0.79793 0.1916 0.0
C26 C 0.94226 0.69708 0.20225 0.0
C27 C 0.95495 0.74891 0.17818 0.0
C28 C 1.02477 0.79902 0.17268 0.0
C29 C 1.06859 0.75306 0.21897 0.0
C30 C 0.99898 0.70182 0.22391 0.0
C31 C 1.14913 0.82383 0.1772 0.0
H32 H 0.37002 0.42182 0.15099 0.0
H33 H 0.34735 0.47032 0.1986 0.0
H34 H 0.43704 0.6749 0.15283 0.0
H35 H 0.46259 0.6281 0.10629 0.0
H36 H 0.91136 0.74494 0.16091 0.0
H37 H 1.03389 0.83266 0.15132 0.0
H38 H 1.11187 0.75164 0.23404 0.0
H39 H 0.99011 0.66156 0.24222 0.0
Tb40 Tb 0.83097 0.20152 0.52744 0.0
Eu41 Eu 0.65888 1.12166 0.51041 0.0
C42 C 0.73059 1.10915 0.58221 0.0
C43 C 0.74441 1.03172 0.52304 0.0
C44 C 0.99468 0.34849 0.51841 0.0
C45 C 0.97278 0.44683 0.51066 0.0
C46 C 0.98733 0.40271 0.53168 0.0
C47 C 1.00361 0.35016 0.48457 0.0
C48 C 0.98997 0.39487 0.46356 0.0
C49 C 0.96834 0.43956 0.47607 0.0
C50 C 0.96307 0.27933 0.53485 0.0
O51 O 0.81367 0.19354 0.47293 0.0
O52 O 0.69639 0.16333 0.46087 0.0
O53 O 0.68752 0.22945 0.52954 0.0
O54 O 0.80798 0.28945 0.52694 0.0
C55 C 0.75903 0.18271 0.45143 0.0
O56 O 0.55808 1.04964 0.482 0.0
O57 O 0.56007 1.11174 0.5232 0.0
O58 O 0.67401 1.08427 0.56065 0.0
O59 O 0.79351 0.16069 0.57552 0.0
O60 O 0.80512 1.09099 0.53068 0.0
O61 O 0.6848 1.03189 0.51233 0.0
C62 C 0.7487 0.28882 0.53157 0.0
O63 O 0.92286 0.27264 0.55788 0.0
O64 O 0.93132 0.22431 0.51473 0.0
C65 C 0.47333 0.99353 0.51964 0.0
C66 C 0.37873 0.86419 0.54602 0.0
C67 C 0.45066 0.88372 0.54578 0.0
C68 C 0.49771 0.94813 0.53259 0.0
C69 C 0.40427 0.97831 0.52349 0.0
C70 C 0.35715 0.91401 0.53682 0.0
C71 C 0.52127 1.05753 0.50315 0.0
H72 H 0.96013 0.48277 0.52171 0.0
H73 H 0.98279 0.40478 0.55789 0.0
H74 H 1.01202 0.31084 0.47362 0.0
H75 H 0.99307 0.39157 0.43731 0.0
H76 H 0.46873 0.8466 0.55288 0.0
H77 H 0.55208 0.96075 0.53089 0.0
H78 H 0.38579 1.01431 0.51466 0.0
H79 H 0.30198 0.90058 0.53658 0.0
Tb80 Tb 0.79808 0.75862 0.85631 0.0
Eu81 Eu 0.70434 0.59059 0.85522 0.0
C82 C 0.79186 0.67418 0.91906 0.0
C83 C 0.8781 0.66796 0.856 0.0
C84 C 0.83711 0.92677 0.88342 0.0
C85 C 0.72915 0.90597 0.90534 0.0
C86 C 0.78024 0.88649 0.90266 0.0
C87 C 0.84992 0.99303 0.87237 0.0
C88 C 0.79979 1.01345 0.87587 0.0
C89 C 0.73617 0.96675 0.88963 0.0
C90 C 0.86447 0.88966 0.86611 0.0
O91 O 0.79818 0.72998 0.80516 0.0
O92 O 0.6947 0.62303 0.80204 0.0
O93 O 0.63632 0.62866 0.87453 0.0
O94 O 0.68682 0.73819 0.85249 0.0
C95 C 0.74603 0.67598 0.78751 0.0
O96 O 0.6404 0.48618 0.83226 0.0
O97 O 0.63863 0.50031 0.88479 0.0
O98 O 0.78022 0.62105 0.90091 0.0
O99 O 0.77547 0.72059 0.90634 0.0
O100 O 0.88103 0.72932 0.85902 0.0
O101 O 0.8162 0.60785 0.85147 0.0
C102 C 0.63326 0.68532 0.86617 0.0
O103 O 0.87867 0.84693 0.88423 0.0
O104 O 0.82616 0.85948 0.83822 0.0
C105 C 0.63867 0.40017 0.86726 0.0
C106 C 0.69035 0.32886 0.8359 0.0
C107 C 0.73787 0.38656 0.85685 0.0
C108 C 0.7116 0.42197 0.87312 0.0
C109 C 0.59036 0.3332 0.85345 0.0
C110 C 0.61647 0.29702 0.83766 0.0
C111 C 0.62102 0.45531 0.86054 0.0
H112 H 0.68042 0.86946 0.91599 0.0
H113 H 0.76964 0.83519 0.9116 0.0
H114 H 0.89314 1.02443 0.85736 0.0
H115 H 0.80553 1.06046 0.86334 0.0
H116 H 0.79508 0.41089 0.85639 0.0
H117 H 0.74936 0.47328 0.8845 0.0
H118 H 0.53373 0.31518 0.84955 0.0
H119 H 0.57919 0.25067 0.82248 0.0
C120 C 0.9407 0.39441 0.21253 0.0
C121 C 0.9399 0.45726 0.20412 0.0
C122 C 1.07015 0.52441 0.20336 0.0
C123 C 1.0036 0.52111 0.19982 0.0
C124 C 1.07133 0.4622 0.21286 0.0
C125 C 1.00773 0.39823 0.21715 0.0
U126 U 0.77825 0.22154 0.24672 0.0
O127 O 0.66612 0.16813 0.22408 0.0
O128 O 0.72706 1.11309 0.22495 0.0
C129 C 0.66565 1.11011 0.21604 0.0
C130 C 0.87184 0.32444 0.2114 0.0
C131 C 0.59726 1.04019 0.21581 0.0
C132 C 0.46636 0.97353 0.2088 0.0
C133 C 0.53117 1.03757 0.21502 0.0
C134 C 0.53103 0.91188 0.20405 0.0
C135 C 0.46505 0.9097 0.20277 0.0
C136 C 0.59608 0.97616 0.21035 0.0
C137 C 0.78753 0.21268 0.3465 0.0
C138 C 0.7097 0.17417 0.39098 0.0
C139 C 0.83606 0.21785 0.40427 0.0
C140 C 0.84541 0.22817 0.37047 0.0
C141 C 0.76827 0.1916 0.41517 0.0
C142 C 0.71924 0.18483 0.35703 0.0
C143 C 0.80313 0.23524 0.31189 0.0
O144 O 0.87486 0.26743 0.22022 0.0
O145 O 0.81485 0.3229 0.22033 0.0
O146 O 0.76392 0.25705 0.29397 0.0
O147 O 0.82703 0.20384 0.2943 0.0
H148 H 0.88963 0.45669 0.19999 0.0
H149 H 1.00117 0.56834 0.19368 0.0
H150 H 1.12143 0.46233 0.21611 0.0
H151 H 1.01109 0.35124 0.22317 0.0
H152 H 0.41702 0.97454 0.20813 0.0
H153 H 0.52928 1.08555 0.21818 0.0
H154 H 0.53256 0.86407 0.19979 0.0
H155 H 0.64562 0.97599 0.20991 0.0
H156 H 0.65649 0.15318 0.39829 0.0
H157 H 0.88248 0.23189 0.4219 0.0
H158 H 0.89881 0.25062 0.36311 0.0
H159 H 0.67364 0.17284 0.33919 0.0
C160 C 0.74171 0.83165 0.5426 0.0
C161 C 0.67762 0.83294 0.53449 0.0
C162 C 0.7428 0.96244 0.52949 0.0
C163 C 0.6781 0.89721 0.52818 0.0
C164 C 0.80662 0.96116 0.53843 0.0
C165 C 0.80613 0.89708 0.54465 0.0
U166 U 0.74644 0.66028 0.57906 0.0
O167 O 0.68942 0.55457 0.55425 0.0
O168 O 0.80622 0.6136 0.56017 0.0
C169 C 0.7482 0.55496 0.54911 0.0
C170 C 0.74225 0.76282 0.54323 0.0
C171 C 0.74831 0.48577 0.5497 0.0
C172 C 0.6852 0.35895 0.53481 0.0
C173 C 0.68478 0.42212 0.54014 0.0
C174 C 0.81268 0.41989 0.54894 0.0
C175 C 0.74929 0.35678 0.53849 0.0
C176 C 0.81237 0.48343 0.55417 0.0
C177 C 0.74782 0.66681 0.68056 0.0
C178 C 0.68835 0.61927 0.73083 0.0
C179 C 0.80525 0.72422 0.73473 0.0
C180 C 0.80612 0.72069 0.70024 0.0
C181 C 0.74631 0.67352 0.7506 0.0
C182 C 0.68894 0.61624 0.69632 0.0
C183 C 0.7474 0.66452 0.64376 0.0
O184 O 0.80157 0.76356 0.5546 0.0
O185 O 0.68492 0.70426 0.55046 0.0
O186 O 0.68807 0.63092 0.6237 0.0
O187 O 0.80636 0.6949 0.62898 0.0
H188 H 0.62689 0.7839 0.53208 0.0
H189 H 0.62763 0.89558 0.52197 0.0
H190 H 0.85765 1.00987 0.54008 0.0
H191 H 0.8568 0.89885 0.55015 0.0
H192 H 0.63497 0.31193 0.52691 0.0
H193 H 0.63451 0.42148 0.53561 0.0
H194 H 0.86269 0.42019 0.55309 0.0
H195 H 0.86275 0.53116 0.56096 0.0
H196 H 0.64213 0.57901 0.74198 0.0
H197 H 0.85111 0.7666 0.74897 0.0
H198 H 0.85221 0.76075 0.68892 0.0
H199 H 0.64319 0.57397 0.68196 0.0
C200 C 1.0807 0.66956 0.87571 0.0
C201 C 1.01552 0.60528 0.86954 0.0
C202 C 0.94743 0.66745 0.86195 0.0
C203 C 0.94988 0.60416 0.86297 0.0
C204 C 1.01262 0.7315 0.8686 0.0
C205 C 1.07788 0.73256 0.87523 0.0
U206 U 0.26469 0.6816 0.91375 0.0
O207 O 0.31346 0.62675 0.89234 0.0
O208 O 0.36768 0.74246 0.89179 0.0
C209 C 0.36915 0.68544 0.88385 0.0
C210 C 1.15118 0.67181 0.877 0.0
C211 C 0.43971 0.68799 0.88423 0.0
C212 C 0.50662 0.62555 0.88216 0.0
C213 C 0.44401 0.62581 0.88767 0.0
C214 C 0.56347 0.7495 0.86982 0.0
C215 C 0.56727 0.68727 0.87265 0.0
C216 C 0.50081 0.75005 0.87535 0.0
C217 C 0.27447 0.69467 0.01547 0.0
C218 C 0.27935 0.64969 0.07139 0.0
C219 C 0.2705 0.75531 0.06392 0.0
C220 C 0.27071 0.75033 0.02954 0.0
C221 C 0.2747 0.7051 0.08546 0.0
C222 C 0.27876 0.64432 0.03682 0.0
C223 C 0.27115 0.68841 0.97868 0.0
O224 O 1.20997 0.73197 0.88538 0.0
O225 O 1.15564 0.61659 0.8879 0.0
O226 O 0.24505 0.6279 0.96246 0.0
O227 O 0.29488 0.74465 0.95998 0.0
H228 H 1.01535 0.55569 0.86898 0.0
H229 H 0.90115 0.55368 0.85842 0.0
H230 H 1.01365 0.78157 0.86845 0.0
H231 H 1.1265 0.78333 0.87914 0.0
H232 H 0.50668 0.57608 0.88468 0.0
H233 H 0.39811 0.57642 0.89365 0.0
H234 H 0.60913 0.79749 0.86314 0.0
H235 H 0.49957 0.79879 0.87168 0.0
H236 H 0.28277 0.60999 0.08701 0.0
H237 H 0.26662 0.79864 0.07356 0.0
H238 H 0.26662 0.78962 1.01385 0.0
H239 H 0.28169 0.60073 0.02678 0.0
C240 C 0.94963 0.57449 0.40409 0.0
C241 C 0.91675 0.50234 0.39565 0.0
C242 C 0.94388 0.47956 0.45299 0.0
C243 C 0.91511 0.4549 0.42013 0.0
C244 C 0.956 0.54651 0.46207 0.0
C245 C 0.95483 0.59249 0.43762 0.0
U246 U 1.13739 0.68252 0.42112 0.0
O247 O 1.1309 0.71132 0.4713 0.0
O248 O 1.13419 0.6144 0.46301 0.0
C249 C 1.13832 0.65947 0.4849 0.0
C250 C 1.01284 0.62214 0.38714 0.0
C251 C 1.19773 0.68369 0.51111 0.0
C252 C 0.25793 0.7677 0.55689 0.0
C253 C 1.1948 0.7154 0.53982 0.0
C254 C 0.32643 0.74606 0.52057 0.0
C255 C 0.32348 0.78871 0.54473 0.0
C256 C 0.26359 0.69429 0.50346 0.0
C257 C 0.26395 0.75786 0.35817 0.0
C258 C 0.32593 0.75587 0.31257 0.0
C259 C 1.20476 0.73452 0.30227 0.0
C260 C 1.20412 0.74346 0.33589 0.0
C261 C 0.26522 0.73957 0.29033 0.0
C262 C 0.32518 0.76481 0.34641 0.0
C263 C 0.25603 0.75078 0.39353 0.0
O264 O 1.05699 0.59758 0.38717 0.0
O265 O 1.04554 0.68949 0.39619 0.0
O266 O 0.22509 0.78304 0.40497 0.0
O267 O 0.22965 0.68499 0.40302 0.0
H268 H 0.90725 0.48566 0.36989 0.0
H269 H 0.89852 0.40133 0.41258 0.0
H270 H 0.97466 0.5673 0.48718 0.0
H271 H 0.97468 0.6469 0.44509 0.0
H272 H 0.2547 0.79895 0.576 0.0
H273 H 1.1442 0.70707 0.54627 0.0
H274 H 0.37622 0.76028 0.51087 0.0
H275 H 0.2672 0.66999 0.48152 0.0
H276 H 0.37337 0.76044 0.30396 0.0
H277 H 1.15693 0.72143 0.28587 0.0
H278 H 1.15555 0.73576 0.34469 0.0
H279 H 0.3711 0.77422 0.36349 0.0
C280 C 0.61406 1.02849 0.83065 0.0
C281 C 0.60843 0.96399 0.82291 0.0
C282 C 0.67236 0.96949 0.87647 0.0
C283 C 0.63926 0.93548 0.84557 0.0
C284 C 0.6634 1.0247 0.88659 0.0
C285 C 0.63353 1.05407 0.86358 0.0
U286 U 0.67694 1.09437 0.74571 0.0
O287 O 0.67128 0.17862 0.71639 0.0
O288 O 0.77541 0.19145 0.73553 0.0
C289 C 0.73915 0.22334 0.72601 0.0
C290 C 0.63479 1.08139 0.80498 0.0
C291 C 0.75099 0.27944 0.74914 0.0
C292 C 0.77284 0.30456 0.80855 0.0
C293 C 0.79136 0.28711 0.78008 0.0
C294 C 0.68313 0.3205 0.77484 0.0
C295 C 0.71541 0.31658 0.80621 0.0
C296 C 0.70132 0.30269 0.74638 0.0
C297 C 0.69828 1.01194 0.67701 0.0
C298 C 0.7737 1.10688 0.64164 0.0
C299 C 0.66328 1.00633 0.618 0.0
C300 C 0.65119 0.97558 0.64909 0.0
C301 C 0.72297 1.07378 0.61433 0.0
C302 C 0.76143 1.07628 0.67275 0.0
C303 C 0.67143 0.9964 0.70973 0.0
O304 O 0.70143 1.10625 0.79934 0.0
O305 O 0.59094 1.06707 0.77767 0.0
O306 O 0.61553 1.00426 0.71082 0.0
O307 O 0.72025 1.026 0.73527 0.0
H308 H 0.59421 0.94403 0.79751 0.0
H309 H 0.64921 0.89586 0.83633 0.0
H310 H 0.68925 1.05185 0.91018 0.0
H311 H 0.63788 1.10395 0.86987 0.0
H312 H 0.80023 0.30425 0.83248 0.0
H313 H 0.83152 0.27139 0.78315 0.0
H314 H 0.64123 0.3339 0.77246 0.0
H315 H 0.67026 0.29855 0.72292 0.0
H316 H 0.82061 0.15832 0.63943 0.0
H317 H 0.62411 0.97851 0.59711 0.0
H318 H 0.60188 0.92652 0.65178 0.0
H319 H 0.7986 1.10618 0.69384 0.0
C320 C 0.74584 0.52609 0.16533 0.0
C321 C 0.80935 0.52943 0.15878 0.0
C322 C 0.87614 0.62908 0.19699 0.0
C323 C 0.87414 0.58164 0.17407 0.0
C324 C 0.81262 0.61897 0.20738 0.0
C325 C 0.74724 0.56682 0.19174 0.0
U326 U 0.6999 0.54043 0.07622 0.0
O327 O 0.61238 0.4702 0.03896 0.0
O328 O 0.62908 0.57514 0.05073 0.0
C329 C 0.58456 0.51173 0.03793 0.0
C330 C 0.68806 0.50399 0.13826 0.0
C331 C 0.51514 0.48207 0.05052 0.0
C332 C 0.4686 0.453 0.10389 0.0
C333 C 0.50711 0.44623 0.08062 0.0
C334 C 0.43405 0.51961 0.06471 0.0
C335 C 0.43607 0.49411 0.09696 0.0
C336 C 0.47386 0.5139 0.04156 0.0
C337 C 0.83563 0.65341 0.02207 0.0
C338 C 0.79438 0.70583 0.97744 0.0
C339 C 0.85307 0.64116 0.96538 0.0
C340 C 0.86363 0.63041 0.9991 0.0
C341 C 0.81528 0.67588 0.95435 0.0
C342 C 0.80419 0.69445 1.01111 0.0
C343 C 0.82391 0.62106 0.05494 0.0
O344 O 0.68173 0.55741 0.1262 0.0
O345 O 0.68627 0.46242 0.11501 0.0
O346 O 0.79307 0.55144 0.05438 0.0
O347 O 0.79604 0.64491 0.0745 0.0
H348 H 0.81027 0.49918 0.13848 0.0
H349 H 0.92253 0.59079 0.16462 0.0
H350 H 0.81363 0.65586 0.22482 0.0
H351 H 0.69876 0.5652 0.19704 0.0
H352 H 0.47158 0.43299 0.12849 0.0
H353 H 0.53921 0.4221 0.08833 0.0
H354 H 0.4076 0.54995 0.05849 0.0
H355 H 0.47992 0.54243 0.01861 0.0
H356 H 0.76559 0.73323 0.96943 0.0
H357 H 0.87105 0.61899 0.94781 0.0
H358 H 0.88825 0.59903 1.00692 0.0
H359 H 0.78193 0.71314 0.02812 0.0
loop_
_geom_bond_atom_site_label_1
_geom_bond_atom_site_label_2
_geom_bond_distance
_geom_bond_site_symmetry_2
_ccdc_geom_bond_type
Tb0 C10 2.825 . S
Tb0 O11 2.347 . S
Tb0 O14 2.366 . S
Tb0 O19 2.418 . S
Tb0 O20 2.384 1_455 S
Tb0 O23 2.479 . S
Tb0 O24 2.471 . S
Eu1 O12 2.418 . S
Eu1 O13 2.384 1_655 S
Eu1 O16 2.479 . S
Eu1 O17 2.471 . S
Eu1 O18 2.347 1_655 S
Eu1 O21 2.366 . S
Eu1 C31 2.825 . S
C2 O18 1.259 . S
C2 O19 1.265 . S
C3 O20 1.255 . S
C3 O21 1.265 . S
C4 C6 1.380 . S
C4 C7 1.374 . S
C4 C10 1.507 . S
C5 C6 1.384 . S
C5 C9 1.387 . S
C5 H32 0.930 . S
C6 C4 1.380 . S
C6 C5 1.384 . S
C6 H33 0.931 . S
C7 C4 1.374 . S
C7 C8 1.390 . S
C7 H34 0.930 . S
C8 C7 1.390 . S
C8 C9 1.391 . S
C8 H35 0.930 . S
C9 C5 1.387 . S
C9 C8 1.391 . S
C10 Tb0 2.825 . S
C10 C4 1.507 . S
C10 O23 1.238 . S
C10 O24 1.247 . S
O11 Tb0 2.347 . S
O11 C15 1.259 . S
O12 Eu1 2.418 . S
O12 C15 1.265 1_655 S
O13 Eu1 2.384 1_455 S
O13 C22 1.255 . S
O14 Tb0 2.366 . S
O14 C22 1.265 . S
C15 O11 1.259 . S
C15 O12 1.265 1_455 S
O16 Eu1 2.479 . S
O16 C31 1.238 . S
O17 Eu1 2.471 . S
O17 C31 1.247 . S
O18 Eu1 2.347 1_455 S
O18 C2 1.259 . S
O19 Tb0 2.418 . S
O19 C2 1.265 . S
O20 Tb0 2.384 1_655 S
O20 C3 1.255 . S
O21 Eu1 2.366 . S
O21 C3 1.265 . S
C22 O13 1.255 . S
C22 O14 1.265 . S
O23 Tb0 2.479 . S
O23 C10 1.238 . S
O24 Tb0 2.471 . S
O24 C10 1.247 . S
C25 C28 1.380 . S
C25 C29 1.374 . S
C25 C31 1.507 . S
C26 C27 1.387 . S
C26 C30 1.391 . S
C27 C26 1.387 . S
C27 C28 1.384 . S
C27 H36 0.930 . S
C28 C25 1.380 . S
C28 C27 1.384 . S
C28 H37 0.931 . S
C29 C25 1.374 . S
C29 C30 1.390 . S
C29 H38 0.930 . S
C30 C26 1.391 . S
C30 C29 1.390 . S
C30 H39 0.930 . S
C31 Eu1 2.825 . S
C31 O16 1.238 . S
C31 O17 1.247 . S
C31 C25 1.507 . S
H32 C5 0.930 . S
H33 C6 0.931 . S
H34 C7 0.930 . S
H35 C8 0.930 . S
H36 C27 0.930 . S
H37 C28 0.931 . S
H38 C29 0.930 . S
H39 C30 0.930 . S
Tb40 C50 2.825 . S
Tb40 O51 2.347 . S
Tb40 O54 2.366 . S
Tb40 O59 2.418 . S
Tb40 O60 2.384 1_545 S
Tb40 O63 2.479 . S
Tb40 O64 2.471 . S
Eu41 O52 2.418 . S
Eu41 O53 2.384 . S
Eu41 O56 2.479 1_545 S
Eu41 O57 2.471 1_545 S
Eu41 O58 2.347 . S
Eu41 O61 2.366 1_545 S
Eu41 C71 2.825 1_545 S
C42 O58 1.259 . S
C42 O59 1.265 . S
C43 O60 1.255 . S
C43 O61 1.265 . S
C44 C46 1.380 . S
C44 C47 1.374 . S
C44 C50 1.507 . S
C45 C46 1.384 . S
C45 C49 1.387 . S
C45 H72 0.930 . S
C46 C44 1.380 . S
C46 C45 1.384 . S
C46 H73 0.931 . S
C47 C44 1.374 . S
C47 C48 1.390 . S
C47 H74 0.930 . S
C48 C47 1.390 . S
C48 C49 1.391 . S
C48 H75 0.930 . S
C49 C45 1.387 . S
C49 C48 1.391 . S
C50 Tb40 2.825 . S
C50 C44 1.507 . S
C50 O63 1.238 . S
C50 O64 1.247 . S
O51 Tb40 2.347 . S
O51 C55 1.259 . S
O52 Eu41 2.418 . S
O52 C55 1.265 . S
O53 Eu41 2.384 . S
O53 C62 1.255 . S
O54 Tb40 2.366 . S
O54 C62 1.265 . S
C55 O51 1.259 . S
C55 O52 1.265 . S
O56 Eu41 2.479 1_565 S
O56 C71 1.238 . S
O57 Eu41 2.471 1_565 S
O57 C71 1.247 . S
O58 Eu41 2.347 . S
O58 C42 1.259 . S
O59 Tb40 2.418 . S
O59 C42 1.265 . S
O60 Tb40 2.384 1_565 S
O60 C43 1.255 . S
O61 Eu41 2.366 1_565 S
O61 C43 1.265 . S
C62 O53 1.255 . S
C62 O54 1.265 . S
O63 Tb40 2.479 . S
O63 C50 1.238 . S
O64 Tb40 2.471 . S
O64 C50 1.247 . S
C65 C68 1.380 . S
C65 C69 1.374 . S
C65 C71 1.507 . S
C66 C67 1.387 . S
C66 C70 1.391 . S
C67 C66 1.387 . S
C67 C68 1.384 . S
C67 H76 0.930 . S
C68 C65 1.380 . S
C68 C67 1.384 . S
C68 H77 0.931 . S
C69 C65 1.374 . S
C69 C70 1.390 . S
C69 H78 0.930 . S
C70 C66 1.391 . S
C70 C69 1.390 . S
C70 H79 0.930 . S
C71 Eu41 2.825 1_565 S
C71 O56 1.238 . S
C71 O57 1.247 . S
C71 C65 1.507 . S
H72 C45 0.930 . S
H73 C46 0.931 . S
H74 C47 0.930 . S
H75 C48 0.930 . S
H76 C67 0.930 . S
H77 C68 0.931 . S
H78 C69 0.930 . S
H79 C70 0.930 . S
Tb80 C90 2.825 . S
Tb80 O91 2.347 . S
Tb80 O94 2.366 . S
Tb80 O99 2.418 . S
Tb80 O100 2.384 . S
Tb80 O103 2.479 . S
Tb80 O104 2.471 . S
Eu81 O92 2.418 . S
Eu81 O93 2.384 . S
Eu81 O96 2.479 . S
Eu81 O97 2.471 . S
Eu81 O98 2.347 . S
Eu81 O101 2.366 . S
Eu81 C111 2.825 . S
C82 O98 1.259 . S
C82 O99 1.265 . S
C83 O100 1.255 . S
C83 O101 1.265 . S
C84 C86 1.380 . S
C84 C87 1.374 . S
C84 C90 1.507 . S
C85 C86 1.384 . S
C85 C89 1.387 . S
C85 H112 0.930 . S
C86 C84 1.380 . S
C86 C85 1.384 . S
C86 H113 0.931 . S
C87 C84 1.374 . S
C87 C88 1.390 . S
C87 H114 0.930 . S
C88 C87 1.390 . S
C88 C89 1.391 . S
C88 H115 0.930 . S
C89 C85 1.387 . S
C89 C88 1.391 . S
C90 Tb80 2.825 . S
C90 C84 1.507 . S
C90 O103 1.238 . S
C90 O104 1.247 . S
O91 Tb80 2.347 . S
O91 C95 1.259 . S
O92 Eu81 2.418 . S
O92 C95 1.265 . S
O93 Eu81 2.384 . S
O93 C102 1.255 . S
O94 Tb80 2.366 . S
O94 C102 1.265 . S
C95 O91 1.259 . S
C95 O92 1.265 . S
O96 Eu81 2.479 . S
O96 C111 1.238 . S
O97 Eu81 2.471 . S
O97 C111 1.247 . S
O98 Eu81 2.347 . S
O98 C82 1.259 . S
O99 Tb80 2.418 . S
O99 C82 1.265 . S
O100 Tb80 2.384 . S
O100 C83 1.255 . S
O101 Eu81 2.366 . S
O101 C83 1.265 . S
C102 O93 1.255 . S
C102 O94 1.265 . S
O103 Tb80 2.479 . S
O103 C90 1.238 . S
O104 Tb80 2.471 . S
O104 C90 1.247 . S
C105 C108 1.380 . S
C105 C109 1.374 . S
C105 C111 1.507 . S
C106 C107 1.387 . S
C106 C110 1.391 . S
C107 C106 1.387 . S
C107 C108 1.384 . S
C107 H116 0.930 . S
C108 C105 1.380 . S
C108 C107 1.384 . S
C108 H117 0.931 . S
C109 C105 1.374 . S
C109 C110 1.390 . S
C109 H118 0.930 . S
C110 C106 1.391 . S
C110 C109 1.390 . S
C110 H119 0.930 . S
C111 Eu81 2.825 . S
C111 O96 1.238 . S
C111 O97 1.247 . S
C111 C105 1.507 . S
H112 C85 0.930 . S
H113 C86 0.931 . S
H114 C87 0.930 . S
H115 C88 0.930 . S
H116 C107 0.930 . S
H117 C108 0.931 . S
H118 C109 0.930 . S
H119 C110 0.930 . S
C120 C121 1.264 . S
C120 C125 1.479 . S
C120 C130 1.465 . S
C121 C120 1.264 . S
C121 C123 1.339 . S
C121 H148 0.931 . S
C122 C123 1.395 . S
C122 C124 1.320 . S
C123 C121 1.339 . S
C123 C122 1.395 . S
C123 H149 0.929 . S
C124 C122 1.320 . S
C124 C125 1.405 . S
C124 H150 0.930 . S
C125 C120 1.479 . S
C125 C124 1.405 . S
C125 H151 0.931 . S
U126 O127 2.454 1_545 S
U126 O128 2.458 1_545 S
U126 C129 2.984 1_545 S
U126 C130 2.847 . S
U126 C143 2.882 . S
U126 O144 2.441 . S
U126 O145 2.420 . S
U126 O146 2.455 . S
U126 O147 2.449 . S
O127 U126 2.454 1_565 S
O127 C129 1.353 . S
O128 U126 2.458 1_565 S
O128 C129 1.286 . S
C129 U126 2.984 1_565 S
C129 O127 1.353 . S
C129 O128 1.286 . S
C129 C131 1.363 . S
C130 C120 1.465 . S
C130 U126 2.847 . S
C130 O144 1.249 . S
C130 O145 1.202 . S
C131 C129 1.363 . S
C131 C133 1.408 . S
C131 C136 1.342 . S
C132 C133 1.310 . S
C132 C135 1.461 . S
C132 H152 0.932 . S
C133 C131 1.408 . S
C133 C132 1.310 . S
C133 H153 0.930 . S
C134 C135 1.474 . S
C134 C136 1.285 . S
C134 H154 0.929 . S
C135 C132 1.461 . S
C135 C134 1.474 . S
C136 C131 1.342 . S
C136 C134 1.285 . S
C136 H155 0.930 . S
C137 C140 1.424 . S
C137 C142 1.245 . S
C137 C143 1.428 . S
C138 C141 1.260 . S
C138 C142 1.477 . S
C138 H156 0.932 1_545 S
C139 C140 1.384 . S
C139 C141 1.479 . S
C139 H157 0.929 . S
C140 C137 1.424 . S
C140 C139 1.384 . S
C140 H158 0.928 . S
C141 C138 1.260 . S
C141 C139 1.479 . S
C142 C137 1.245 . S
C142 C138 1.477 . S
C142 H159 0.932 1_545 S
C143 U126 2.882 . S
C143 C137 1.428 . S
C143 O146 1.301 . S
C143 O147 1.282 . S
O144 U126 2.441 . S
O144 C130 1.249 . S
O145 U126 2.420 . S
O145 C130 1.202 . S
O146 U126 2.455 . S
O146 C143 1.301 . S
O147 U126 2.449 . S
O147 C143 1.282 . S
H148 C121 0.931 . S
H149 C123 0.929 . S
H150 C124 0.930 . S
H151 C125 0.931 . S
H152 C132 0.932 . S
H153 C133 0.930 . S
H154 C134 0.929 . S
H155 C136 0.930 . S
H156 C138 0.932 1_565 S
H157 C139 0.929 . S
H158 C140 0.928 . S
H159 C142 0.932 1_565 S
C160 C161 1.264 . S
C160 C165 1.479 . S
C160 C170 1.465 . S
C161 C160 1.264 . S
C161 C163 1.339 . S
C161 H188 0.931 . S
C162 C163 1.395 . S
C162 C164 1.320 . S
C163 C161 1.339 . S
C163 C162 1.395 . S
C163 H189 0.929 . S
C164 C162 1.320 . S
C164 C165 1.405 . S
C164 H190 0.930 . S
C165 C160 1.479 . S
C165 C164 1.405 . S
C165 H191 0.931 . S
U166 O167 2.454 . S
U166 O168 2.458 . S
U166 C169 2.984 . S
U166 C170 2.847 . S
U166 C183 2.882 . S
U166 O184 2.441 . S
U166 O185 2.420 . S
U166 O186 2.455 . S
U166 O187 2.449 . S
O167 U166 2.454 . S
O167 C169 1.353 . S
O168 U166 2.458 . S
O168 C169 1.286 . S
C169 U166 2.984 . S
C169 O167 1.353 . S
C169 O168 1.286 . S
C169 C171 1.363 . S
C170 C160 1.465 . S
C170 U166 2.847 . S
C170 O184 1.249 . S
C170 O185 1.202 . S
C171 C169 1.363 . S
C171 C173 1.408 . S
C171 C176 1.342 . S
C172 C173 1.310 . S
C172 C175 1.461 . S
C172 H192 0.932 . S
C173 C171 1.408 . S
C173 C172 1.310 . S
C173 H193 0.930 . S
C174 C175 1.474 . S
C174 C176 1.285 . S
C174 H194 0.929 . S
C175 C172 1.461 . S
C175 C174 1.474 . S
C176 C171 1.342 . S
C176 C174 1.285 . S
C176 H195 0.930 . S
C177 C180 1.424 . S
C177 C182 1.245 . S
C177 C183 1.428 . S
C178 C181 1.260 . S
C178 C182 1.477 . S
C178 H196 0.932 . S
C179 C180 1.384 . S
C179 C181 1.479 . S
C179 H197 0.929 . S
C180 C177 1.424 . S
C180 C179 1.384 . S
C180 H198 0.928 . S
C181 C178 1.260 . S
C181 C179 1.479 . S
C182 C177 1.245 . S
C182 C178 1.477 . S
C182 H199 0.932 . S
C183 U166 2.882 . S
C183 C177 1.428 . S
C183 O186 1.301 . S
C183 O187 1.282 . S
O184 U166 2.441 . S
O184 C170 1.249 . S
O185 U166 2.420 . S
O185 C170 1.202 . S
O186 U166 2.455 . S
O186 C183 1.301 . S
O187 U166 2.449 . S
O187 C183 1.282 . S
H188 C161 0.931 . S
H189 C163 0.929 . S
H190 C164 0.930 . S
H191 C165 0.931 . S
H192 C172 0.932 . S
H193 C173 0.930 . S
H194 C174 0.929 . S
H195 C176 0.930 . S
H196 C178 0.932 . S
H197 C179 0.929 . S
H198 C180 0.928 . S
H199 C182 0.932 . S
C200 C201 1.264 . S
C200 C205 1.479 . S
C200 C210 1.465 . S
C201 C200 1.264 . S
C201 C203 1.339 . S
C201 H228 0.931 . S
C202 C203 1.395 . S
C202 C204 1.320 . S
C203 C201 1.339 . S
C203 C202 1.395 . S
C203 H229 0.929 . S
C204 C202 1.320 . S
C204 C205 1.405 . S
C204 H230 0.930 . S
C205 C200 1.479 . S
C205 C204 1.405 . S
C205 H231 0.931 . S
U206 O207 2.454 . S
U206 O208 2.458 . S
U206 C209 2.984 . S
U206 C210 2.847 1_455 S
U206 C223 2.882 . S
U206 O224 2.441 1_455 S
U206 O225 2.420 1_455 S
U206 O226 2.455 . S
U206 O227 2.449 1_455 S
O207 U206 2.454 . S
O207 C209 1.353 . S
O208 U206 2.458 . S
O208 C209 1.286 . S
C209 U206 2.984 . S
C209 O207 1.353 . S
C209 O208 1.286 . S
C209 C211 1.363 . S
C210 C200 1.465 . S
C210 U206 2.847 1_655 S
C210 O224 1.249 . S
C210 O225 1.202 . S
C211 C209 1.363 . S
C211 C213 1.408 . S
C211 C216 1.342 . S
C212 C213 1.310 . S
C212 C215 1.461 . S
C212 H232 0.932 . S
C213 C211 1.408 . S
C213 C212 1.310 . S
C213 H233 0.930 . S
C214 C215 1.474 . S
C214 C216 1.285 . S
C214 H234 0.929 . S
C215 C212 1.461 . S
C215 C214 1.474 . S
C216 C211 1.342 . S
C216 C214 1.285 . S
C216 H235 0.930 . S
C217 C220 1.425 1_456 S
C217 C222 1.246 1_556 S
C217 C223 1.425 . S
C218 C221 1.260 . S
C218 C222 1.477 . S
C218 H236 0.932 . S
C219 C220 1.384 . S
C219 C221 1.479 1_655 S
C219 H237 0.929 . S
C220 C217 1.425 1_654 S
C220 C219 1.384 . S
C220 H238 0.928 . S
C221 C218 1.260 . S
C221 C219 1.479 1_455 S
C222 C217 1.246 1_554 S
C222 C218 1.477 . S
C222 H239 0.932 . S
C223 U206 2.882 . S
C223 C217 1.425 . S
C223 O226 1.301 . S
C223 O227 1.282 1_455 S
O224 U206 2.441 1_655 S
O224 C210 1.249 . S
O225 U206 2.420 1_655 S
O225 C210 1.202 . S
O226 U206 2.455 . S
O226 C223 1.301 . S
O227 U206 2.449 1_655 S
O227 C223 1.282 1_655 S
H228 C201 0.931 . S
H229 C203 0.929 . S
H230 C204 0.930 . S
H231 C205 0.931 . S
H232 C212 0.932 . S
H233 C213 0.930 . S
H234 C214 0.929 . S
H235 C216 0.930 . S
H236 C218 0.932 . S
H237 C219 0.929 . S
H238 C220 0.928 . S
H239 C222 0.932 . S
C240 C241 1.264 . S
C240 C245 1.479 . S
C240 C250 1.465 . S
C241 C240 1.264 . S
C241 C243 1.339 . S
C241 H268 0.931 . S
C242 C243 1.395 . S
C242 C244 1.320 . S
C243 C241 1.339 . S
C243 C242 1.395 . S
C243 H269 0.929 . S
C244 C242 1.320 . S
C244 C245 1.405 . S
C244 H270 0.930 . S
C245 C240 1.479 . S
C245 C244 1.405 . S
C245 H271 0.931 . S
U246 O247 2.454 1_655 S
U246 O248 2.458 1_655 S
U246 C249 2.984 1_655 S
U246 C250 2.847 . S
U246 C263 2.882 . S
U246 O264 2.441 . S
U246 O265 2.420 . S
U246 O266 2.455 1_655 S
U246 O267 2.449 . S
O247 U246 2.454 1_455 S
O247 C249 1.353 . S
O248 U246 2.458 1_455 S
O248 C249 1.286 . S
C249 U246 2.984 1_455 S
C249 O247 1.353 . S
C249 O248 1.286 . S
C249 C251 1.363 . S
C250 C240 1.465 . S
C250 U246 2.847 . S
C250 O264 1.249 . S
C250 O265 1.202 . S
C251 C249 1.363 . S
C251 C253 1.408 . S
C251 C256 1.342 . S
C252 C253 1.310 . S
C252 C255 1.461 . S
C252 H272 0.932 . S
C253 C251 1.408 . S
C253 C252 1.310 . S
C253 H273 0.930 . S
C254 C255 1.474 . S
C254 C256 1.285 . S
C254 H274 0.929 . S
C255 C252 1.461 . S
C255 C254 1.474 . S
C256 C251 1.342 . S
C256 C254 1.285 . S
C256 H275 0.930 . S
C257 C260 1.424 . S
C257 C262 1.245 1_655 S
C257 C263 1.428 . S
C258 C261 1.260 1_455 S
C258 C262 1.477 . S
C258 H276 0.932 . S
C259 C260 1.384 . S
C259 C261 1.479 . S
C259 H277 0.929 . S
C260 C257 1.424 . S
C260 C259 1.384 . S
C260 H278 0.928 . S
C261 C258 1.260 1_655 S
C261 C259 1.479 . S
C262 C257 1.245 1_455 S
C262 C258 1.477 . S
C262 H279 0.932 . S
C263 U246 2.882 . S
C263 C257 1.428 . S
C263 O266 1.301 1_655 S
C263 O267 1.282 . S
O264 U246 2.441 . S
O264 C250 1.249 . S
O265 U246 2.420 . S
O265 C250 1.202 . S
O266 U246 2.455 1_455 S
O266 C263 1.301 1_455 S
O267 U246 2.449 . S
O267 C263 1.282 . S
H268 C241 0.931 . S
H269 C243 0.929 . S
H270 C244 0.930 . S
H271 C245 0.931 . S
H272 C252 0.932 . S
H273 C253 0.930 . S
H274 C254 0.929 . S
H275 C256 0.930 . S
H276 C258 0.932 . S
H277 C259 0.929 . S
H278 C260 0.928 . S
H279 C262 0.932 . S
C280 C281 1.264 . S
C280 C285 1.479 . S
C280 C290 1.465 . S
C281 C280 1.264 . S
C281 C283 1.339 . S
C281 H308 0.931 . S
C282 C283 1.395 . S
C282 C284 1.320 . S
C283 C281 1.339 . S
C283 C282 1.395 . S
C283 H309 0.929 . S
C284 C282 1.320 . S
C284 C285 1.405 . S
C284 H310 0.930 . S
C285 C280 1.479 . S
C285 C284 1.405 . S
C285 H311 0.931 . S
U286 O287 2.454 1_565 S
U286 O288 2.458 1_565 S
U286 C289 2.984 1_565 S
U286 C290 2.847 . S
U286 C303 2.882 . S
U286 O304 2.441 . S
U286 O305 2.420 . S
U286 O306 2.455 1_565 S
U286 O307 2.449 . S
O287 U286 2.454 1_545 S
O287 C289 1.353 . S
O288 U286 2.458 1_545 S
O288 C289 1.286 . S
C289 U286 2.984 1_545 S
C289 O287 1.353 . S
C289 O288 1.286 . S
C289 C291 1.363 . S
C290 C280 1.465 . S
C290 U286 2.847 . S
C290 O304 1.249 . S
C290 O305 1.202 . S
C291 C289 1.363 . S
C291 C293 1.408 . S
C291 C296 1.342 . S
C292 C293 1.310 . S
C292 C295 1.461 . S
C292 H312 0.932 . S
C293 C291 1.408 . S
C293 C292 1.310 . S
C293 H313 0.930 . S
C294 C295 1.474 . S
C294 C296 1.285 . S
C294 H314 0.929 . S
C295 C292 1.461 . S
C295 C294 1.474 . S
C296 C291 1.342 . S
C296 C294 1.285 . S
C296 H315 0.930 . S
C297 C300 1.424 . S
C297 C302 1.245 1_565 S
C297 C303 1.428 . S
C298 C301 1.260 1_545 S
C298 C302 1.477 . S
C298 H316 0.932 . S
C299 C300 1.384 . S
C299 C301 1.479 . S
C299 H317 0.929 . S
C300 C297 1.424 . S
C300 C299 1.384 . S
C300 H318 0.928 . S
C301 C298 1.260 1_565 S
C301 C299 1.479 . S
C302 C297 1.245 1_545 S
C302 C298 1.477 . S
C302 H319 0.932 . S
C303 U286 2.882 . S
C303 C297 1.428 . S
C303 O306 1.301 1_565 S
C303 O307 1.282 . S
O304 U286 2.441 . S
O304 C290 1.249 . S
O305 U286 2.420 . S
O305 C290 1.202 . S
O306 U286 2.455 1_545 S
O306 C303 1.301 1_545 S
O307 U286 2.449 . S
O307 C303 1.282 . S
H308 C281 0.931 . S
H309 C283 0.929 . S
H310 C284 0.930 . S
H311 C285 0.931 . S
H312 C292 0.932 . S
H313 C293 0.930 . S
H314 C294 0.929 . S
H315 C296 0.930 . S
H316 C298 0.932 . S
H317 C299 0.929 . S
H318 C300 0.928 . S
H319 C302 0.932 . S
C320 C321 1.264 . S
C320 C325 1.479 . S
C320 C330 1.465 . S
C321 C320 1.264 . S
C321 C323 1.339 . S
C321 H348 0.931 . S
C322 C323 1.395 . S
C322 C324 1.320 . S
C323 C321 1.339 . S
C323 C322 1.395 . S
C323 H349 0.929 . S
C324 C322 1.320 . S
C324 C325 1.405 . S
C324 H350 0.930 . S
C325 C320 1.479 . S
C325 C324 1.405 . S
C325 H351 0.931 . S
U326 O327 2.454 . S
U326 O328 2.458 . S
U326 C329 2.984 . S
U326 C330 2.847 . S
U326 C343 2.882 . S
U326 O344 2.441 . S
U326 O345 2.420 . S
U326 O346 2.455 . S
U326 O347 2.449 . S
O327 U326 2.454 . S
O327 C329 1.353 . S
O328 U326 2.458 . S
O328 C329 1.286 . S
C329 U326 2.984 . S
C329 O327 1.353 . S
C329 O328 1.286 . S
C329 C331 1.363 . S
C330 C320 1.465 . S
C330 U326 2.847 . S
C330 O344 1.249 . S
C330 O345 1.202 . S
C331 C329 1.363 . S
C331 C333 1.408 . S
C331 C336 1.342 . S
C332 C333 1.310 . S
C332 C335 1.461 . S
C332 H352 0.932 . S
C333 C331 1.408 . S
C333 C332 1.310 . S
C333 H353 0.930 . S
C334 C335 1.474 . S
C334 C336 1.285 . S
C334 H354 0.929 . S
C335 C332 1.461 . S
C335 C334 1.474 . S
C336 C331 1.342 . S
C336 C334 1.285 . S
C336 H355 0.930 . S
C337 C340 1.424 . S
C337 C342 1.245 . S
C337 C343 1.428 1_556 S
C338 C341 1.260 . S
C338 C342 1.477 . S
C338 H356 0.932 . S
C339 C340 1.384 . S
C339 C341 1.479 . S
C339 H357 0.929 . S
C340 C337 1.424 . S
C340 C339 1.384 . S
C340 H358 0.928 . S
C341 C338 1.260 . S
C341 C339 1.479 . S
C342 C337 1.245 . S
C342 C338 1.477 . S
C342 H359 0.932 . S
C343 U326 2.882 . S
C343 C337 1.428 1_554 S
C343 O346 1.301 . S
C343 O347 1.282 . S
O344 U326 2.441 . S
O344 C330 1.249 . S
O345 U326 2.420 . S
O345 C330 1.202 . S
O346 U326 2.455 . S
O346 C343 1.301 . S
O347 U326 2.449 . S
O347 C343 1.282 . S
H348 C321 0.931 . S
H349 C323 0.929 . S
H350 C324 0.930 . S
H351 C325 0.931 . S
H352 C332 0.932 . S
H353 C333 0.930 . S
H354 C334 0.929 . S
H355 C336 0.930 . S
H356 C338 0.932 . S
H357 C339 0.929 . S
H358 C340 0.928 . S
H359 C342 0.932 . S
C9 C335 1.872 . S
C49 C242 1.535 . S
C89 C282 1.649 . S
C26 C322 1.723 . S
C255 C66 1.718 . S
C295 C106 1.953 . S
C43 C162 4.970 . S
C83 C202 5.235 . S
C22 C135 5.320 . S
C175 C62 5.305 . S
C215 C102 5.053 . S
C3 C122 4.955 . S
C221 C15 2.050 . S
C55 C141 2.084 . S
C95 C181 2.069 . S
C301 C42 1.629 1_565 S
C341 C82 1.543 . S
C2 C261 1.459 1_455 S
