# Generated by pormake.
# Topology apo, (3,6)-cn, num edge types: 1
# Building blocks:
#     Node 0, Type 0, BuildingBlock: WUSLED_clean_sbu_0, # of connection points: 3
#     Node 1, Type 0, BuildingBlock: WUSLED_clean_sbu_0, # of connection points: 3
#     Node 2, Type 0, BuildingBlock: WUSLED_clean_sbu_0, # of connection points: 3
#     Node 3, Type 0, BuildingBlock: WUSLED_clean_sbu_0, # of connection points: 3
#     Node 4, Type 0, BuildingBlock: WUSLED_clean_sbu_0, # of connection points: 3
#     Node 5, Type 0, BuildingBlock: WUSLED_clean_sbu_0, # of connection points: 3
#     Node 6, Type 0, BuildingBlock: WUSLED_clean_sbu_0, # of connection points: 3
#     Node 7, Type 0, BuildingBlock: WUSLED_clean_sbu_0, # of connection points: 3
#     Node 8, Type 1, BuildingBlock: KUMBOL_clean_sbu_1, # of connection points: 6
#     Node 9, Type 1, BuildingBlock: KUMBOL_clean_sbu_1, # of connection points: 6
#     Node 10, Type 1, BuildingBlock: KUMBOL_clean_sbu_1, # of connection points: 6
#     Node 11, Type 1, BuildingBlock: KUMBOL_clean_sbu_1, # of connection points: 6
#     Edge 12, Type (0, 1), BuildingBlock: ZUJKAS_clean_linker_0, # of connection points: 2
#     Edge 13, Type (0, 1), BuildingBlock: ZUJKAS_clean_linker_0, # of connection points: 2
#     Edge 14, Type (0, 1), BuildingBlock: ZUJKAS_clean_linker_0, # of connection points: 2
#     Edge 15, Type (0, 1), BuildingBlock: ZUJKAS_clean_linker_0, # of connection points: 2
#     Edge 16, Type (0, 1), BuildingBlock: ZUJKAS_clean_linker_0, # of connection points: 2
#     Edge 17, Type (0, 1), BuildingBlock: ZUJKAS_clean_linker_0, # of connection points: 2
#     Edge 18, Type (0, 1), BuildingBlock: ZUJKAS_clean_linker_0, # of connection points: 2
#     Edge 19, Type (0, 1), BuildingBlock: ZUJKAS_clean_linker_0, # of connection points: 2
#     Edge 20, Type (0, 1), BuildingBlock: ZUJKAS_clean_linker_0, # of connection points: 2
#     Edge 21, Type (0, 1), BuildingBlock: ZUJKAS_clean_linker_0, # of connection points: 2
#     Edge 22, Type (0, 1), BuildingBlock: ZUJKAS_clean_linker_0, # of connection points: 2
#     Edge 23, Type (0, 1), BuildingBlock: ZUJKAS_clean_linker_0, # of connection points: 2
#     Edge 24, Type (0, 1), BuildingBlock: ZUJKAS_clean_linker_0, # of connection points: 2
#     Edge 25, Type (0, 1), BuildingBlock: ZUJKAS_clean_linker_0, # of connection points: 2
#     Edge 26, Type (0, 1), BuildingBlock: ZUJKAS_clean_linker_0, # of connection points: 2
#     Edge 27, Type (0, 1), BuildingBlock: ZUJKAS_clean_linker_0, # of connection points: 2
#     Edge 28, Type (0, 1), BuildingBlock: ZUJKAS_clean_linker_0, # of connection points: 2
#     Edge 29, Type (0, 1), BuildingBlock: ZUJKAS_clean_linker_0, # of connection points: 2
#     Edge 30, Type (0, 1), BuildingBlock: ZUJKAS_clean_linker_0, # of connection points: 2
#     Edge 31, Type (0, 1), BuildingBlock: ZUJKAS_clean_linker_0, # of connection points: 2
#     Edge 32, Type (0, 1), BuildingBlock: ZUJKAS_clean_linker_0, # of connection points: 2
#     Edge 33, Type (0, 1), BuildingBlock: ZUJKAS_clean_linker_0, # of connection points: 2
#     Edge 34, Type (0, 1), BuildingBlock: ZUJKAS_clean_linker_0, # of connection points: 2
#     Edge 35, Type (0, 1), BuildingBlock: ZUJKAS_clean_linker_0, # of connection points: 2
# Relax obj value: 0.011
# Max RMSD: 0.090
# Mean RMSD: 0.069
data_MOF--net-apo--node1-WUSLED_clean_sbu_0--node2-KUMBOL_clean_sbu_1--edge1-ZUJKAS_clean_linker_0
_symmetry_space_group_name_H-M    P1
_symmetry_Int_Tables_number       1
_symmetry_cell_setting            triclinic
loop_
_symmetry_equiv_pos_as_xyz
'x, y, z'
_cell_length_a     38.41267
_cell_length_b     67.659055
_cell_length_c     79.23633
_cell_angle_alpha  90.084785
_cell_angle_beta   89.956988
_cell_angle_gamma 90.595725
loop_
_atom_site_label
_atom_site_type_symbol
_atom_site_fract_x
_atom_site_fract_y
_atom_site_fract_z
_atom_type_partial_charge
C0 C 0.31354 0.42239 0.39386 0.0
C1 C 0.33638 0.4349 0.40278 0.0
C2 C 0.34066 0.45687 0.37842 0.0
C3 C 0.34984 0.45202 0.39512 0.0
C4 C 0.31735 0.44434 0.36971 0.0
C5 C 0.30399 0.42729 0.37735 0.0
U6 U 0.2968 0.38651 0.43087 0.0
O7 O 0.24965 0.36887 0.43627 0.0
O8 O 0.29888 0.35401 0.43087 0.0
C9 C 0.26515 0.35201 0.43324 0.0
C10 C 0.29963 0.40403 0.40131 0.0
C11 C 0.24704 0.33879 0.42129 0.0
C12 C 0.22691 0.33101 0.39294 0.0
C13 C 0.24433 0.3437 0.40415 0.0
C14 C 0.21472 0.30838 0.41591 0.0
C15 C 0.21183 0.31318 0.39868 0.0
C16 C 0.23216 0.32107 0.42709 0.0
C17 C 0.32851 0.39898 0.47587 0.0
C18 C 0.34387 0.37715 0.49908 0.0
C19 C 0.32705 0.41088 0.50485 0.0
C20 C 0.32246 0.41413 0.48757 0.0
C21 C 0.338 0.39239 0.51083 0.0
C22 C 0.33903 0.38038 0.48176 0.0
C23 C 0.32461 0.40324 0.45767 0.0
O24 O 0.32283 0.39123 0.40646 0.0
O25 O 0.27352 0.40606 0.41187 0.0
O26 O 0.29282 0.4069 0.4525 0.0
O27 O 0.34222 0.39209 0.44714 0.0
H28 H 0.34402 0.43132 0.41557 0.0
H29 H 0.36791 0.46125 0.40215 0.0
H30 H 0.3092 0.44778 0.35697 0.0
H31 H 0.28623 0.41785 0.37032 0.0
H32 H 0.22485 0.33529 0.37981 0.0
H33 H 0.2556 0.35738 0.39946 0.0
H34 H 0.20388 0.29467 0.42074 0.0
H35 H 0.23409 0.31703 0.44028 0.0
H36 H 0.35197 0.36268 0.50328 0.0
H37 H 0.32274 0.42301 0.51351 0.0
H38 H 0.3145 0.42861 0.48332 0.0
H39 H 0.34371 0.36838 0.47302 0.0
C40 C 0.21026 0.15544 0.97458 0.0
C41 C 0.19369 0.13779 0.9795 0.0
C42 C 0.18738 0.15034 1.00822 0.0
C43 C 0.18237 0.13525 0.99617 0.0
C44 C 0.20392 0.16803 1.00314 0.0
C45 C 0.21524 0.17053 0.98648 0.0
U46 U 0.21662 0.13791 0.92898 0.0
O47 O 0.21276 0.15436 0.90516 0.0
O48 O 0.26076 0.13853 0.91122 0.0
C49 C 0.24489 0.15039 0.90067 0.0
C50 C 0.22248 0.15824 0.95712 0.0
C51 C 0.26568 0.16711 0.89417 0.0
C52 C 0.28936 0.20049 0.89652 0.0
C53 C 0.27026 0.18465 0.90342 0.0
C54 C 0.29963 0.18124 0.87123 0.0
C55 C 0.30424 0.19896 0.88031 0.0
C56 C 0.28059 0.16551 0.87811 0.0
C57 C 0.17276 0.08922 0.91597 0.0
C58 C 0.18768 0.06896 0.89166 0.0
C59 C 0.13051 0.06591 0.90437 0.0
C60 C 0.13963 0.08033 0.91628 0.0
C61 C 0.15447 0.06 0.89196 0.0
C62 C 0.19668 0.08352 0.90349 0.0
C63 C 0.18169 0.10436 0.92872 0.0
O64 O 0.24598 0.14562 0.95193 0.0
O65 O 0.19798 0.16139 0.9459 0.0
O66 O 0.16687 0.12161 0.92669 0.0
O67 O 0.21471 0.10577 0.93298 0.0
H68 H 0.18965 0.12595 0.97046 0.0
H69 H 0.17015 0.12136 0.99966 0.0
H70 H 0.20776 0.18008 1.01198 0.0
H71 H 0.22787 0.18429 0.98287 0.0
H72 H 0.29266 0.21385 0.90392 0.0
H73 H 0.25895 0.18613 0.91588 0.0
H74 H 0.31013 0.17963 0.85863 0.0
H75 H 0.27716 0.1521 0.87076 0.0
H76 H 0.20655 0.06488 0.88214 0.0
H77 H 0.10486 0.05915 0.90504 0.0
H78 H 0.1208 0.08452 0.92579 0.0
H79 H 0.22232 0.09031 0.90288 0.0
C80 C 0.80706 0.10677 0.6457 0.0
C81 C 0.83286 0.09549 0.6378 0.0
C82 C 0.83234 0.0723 0.66138 0.0
C83 C 0.84542 0.0784 0.64558 0.0
C84 C 0.80599 0.08352 0.66902 0.0
C85 C 0.79355 0.10058 0.66127 0.0
U86 U 0.79334 0.14239 0.6085 0.0
O87 O 0.74795 0.16079 0.60279 0.0
O88 O 0.79853 0.1748 0.60805 0.0
C89 C 0.76504 0.17739 0.60563 0.0
C90 C 0.79441 0.12526 0.63823 0.0
C91 C 0.7482 0.1911 0.61744 0.0
C92 C 0.72961 0.1998 0.64581 0.0
C93 C 0.74577 0.18666 0.63469 0.0
C94 C 0.71814 0.22196 0.62252 0.0
C95 C 0.71554 0.21762 0.63985 0.0
C96 C 0.73432 0.20881 0.61143 0.0
C97 C 0.825 0.12896 0.56396 0.0
C98 C 0.8321 0.15207 0.54068 0.0
C99 C 0.83488 0.11684 0.53548 0.0
C100 C 0.8291 0.11323 0.55264 0.0
C101 C 0.83681 0.13631 0.52928 0.0
C102 C 0.82618 0.14842 0.55786 0.0
C103 C 0.82019 0.12469 0.58205 0.0
O104 O 0.81852 0.13778 0.63305 0.0
O105 O 0.7682 0.12346 0.62767 0.0
O106 O 0.78788 0.12185 0.58702 0.0
O107 O 0.83855 0.13568 0.59255 0.0
H108 H 0.84358 0.10004 0.62575 0.0
H109 H 0.86591 0.07023 0.6394 0.0
H110 H 0.79485 0.07909 0.68101 0.0
H111 H 0.77349 0.10906 0.6675 0.0
H112 H 0.7277 0.19587 0.65902 0.0
H113 H 0.75627 0.17299 0.63954 0.0
H114 H 0.70802 0.23564 0.61753 0.0
H115 H 0.73606 0.21249 0.59815 0.0
H116 H 0.83375 0.16725 0.53642 0.0
H117 H 0.83773 0.10433 0.52707 0.0
H118 H 0.82804 0.0981 0.5571 0.0
H119 H 0.82297 0.16079 0.5664 0.0
C120 C 0.70351 0.36405 0.06542 0.0
C121 C 0.68673 0.38079 0.05906 0.0
C122 C 0.68171 0.36514 0.03137 0.0
C123 C 0.67592 0.38133 0.04218 0.0
C124 C 0.69863 0.34844 0.03789 0.0
C125 C 0.70941 0.34792 0.05473 0.0
U126 U 0.70893 0.38601 0.10978 0.0
O127 O 0.70173 0.37188 0.13452 0.0
O128 O 0.75177 0.38601 0.12823 0.0
C129 C 0.73395 0.37552 0.13926 0.0
C130 C 0.71453 0.36304 0.08318 0.0
C131 C 0.75242 0.35899 0.1471 0.0
C132 C 0.77355 0.32524 0.14687 0.0
C133 C 0.75662 0.34085 0.13877 0.0
C134 C 0.78246 0.3459 0.17152 0.0
C135 C 0.78645 0.32756 0.16341 0.0
C136 C 0.7656 0.36143 0.16344 0.0
C137 C 0.66976 0.43587 0.1198 0.0
C138 C 0.66365 0.44716 0.14878 0.0
C139 C 0.65188 0.4695 0.12565 0.0
C140 C 0.65996 0.45458 0.1141 0.0
C141 C 0.65335 0.46594 0.14315 0.0
C142 C 0.67187 0.43228 0.1372 0.0
C143 C 0.67759 0.42018 0.10755 0.0
O144 O 0.73875 0.37585 0.08773 0.0
O145 O 0.68916 0.36137 0.09424 0.0
O146 O 0.66089 0.40336 0.10998 0.0
O147 O 0.71076 0.41787 0.1041 0.0
H148 H 0.68197 0.3934 0.06715 0.0
H149 H 0.66331 0.3945 0.03756 0.0
H150 H 0.70303 0.33558 0.03004 0.0
H151 H 0.72217 0.33484 0.05946 0.0
H152 H 0.77597 0.31127 0.14031 0.0
H153 H 0.74656 0.33873 0.12612 0.0
H154 H 0.79261 0.34834 0.18411 0.0
H155 H 0.76272 0.37537 0.17002 0.0
H156 H 0.66469 0.4438 0.16212 0.0
H157 H 0.64465 0.48387 0.12086 0.0
H158 H 0.65846 0.45764 0.1007 0.0
H159 H 0.67952 0.41791 0.14184 0.0
C160 C 0.70152 0.60509 0.64454 0.0
C161 C 0.67846 0.59285 0.63548 0.0
C162 C 0.67475 0.57017 0.65934 0.0
C163 C 0.6651 0.57555 0.64284 0.0
C164 C 0.69806 0.5825 0.66827 0.0
C165 C 0.71128 0.59979 0.66092 0.0
U166 U 0.71826 0.63997 0.60723 0.0
O167 O 0.71566 0.67239 0.60616 0.0
O168 O 0.76519 0.65759 0.60128 0.0
C169 C 0.7494 0.67447 0.60388 0.0
C170 C 0.7156 0.62346 0.63719 0.0
C171 C 0.76712 0.6881 0.61563 0.0
C172 C 0.78136 0.6985 0.64421 0.0
C173 C 0.76448 0.68542 0.63314 0.0
C174 C 0.80398 0.71697 0.62037 0.0
C175 C 0.80131 0.71447 0.63797 0.0
C176 C 0.78701 0.7039 0.60932 0.0
C177 C 0.68541 0.62484 0.56303 0.0
C178 C 0.69076 0.64504 0.53776 0.0
C179 C 0.66567 0.6121 0.53598 0.0
C180 C 0.67043 0.60968 0.55333 0.0
C181 C 0.67587 0.62977 0.52794 0.0
C182 C 0.69557 0.64257 0.55518 0.0
C183 C 0.69008 0.62169 0.58125 0.0
O184 O 0.7419 0.62131 0.62677 0.0
O185 O 0.69244 0.63614 0.6318 0.0
O186 O 0.67269 0.63356 0.59125 0.0
O187 O 0.72219 0.61872 0.58628 0.0
H188 H 0.67078 0.5967 0.62275 0.0
H189 H 0.64751 0.56629 0.63556 0.0
H190 H 0.70565 0.57898 0.68107 0.0
H191 H 0.72902 0.60909 0.6681 0.0
H192 H 0.77835 0.69624 0.65766 0.0
H193 H 0.74925 0.67325 0.63824 0.0
H194 H 0.81954 0.72888 0.6151 0.0
H195 H 0.7895 0.70612 0.59583 0.0
H196 H 0.69916 0.65876 0.53195 0.0
H197 H 0.65359 0.60017 0.5289 0.0
H198 H 0.66231 0.59593 0.5592 0.0
H199 H 0.70726 0.65443 0.5625 0.0
C200 C 0.80623 0.87309 0.06024 0.0
C201 C 0.80817 0.89215 0.05328 0.0
C202 C 0.82893 0.87858 0.0266 0.0
C203 C 0.81925 0.89486 0.03658 0.0
C204 C 0.82726 0.85955 0.03372 0.0
C205 C 0.81594 0.85685 0.05035 0.0
U206 U 0.79748 0.88943 0.10633 0.0
O207 O 0.75371 0.88649 0.12407 0.0
O208 O 0.80345 0.87228 0.12976 0.0
C209 C 0.77067 0.87449 0.13412 0.0
C210 C 0.79433 0.86979 0.07774 0.0
C211 C 0.75184 0.85655 0.1401 0.0
C212 C 0.69825 0.83732 0.14349 0.0
C213 C 0.71654 0.85315 0.13619 0.0
C214 C 0.75028 0.82766 0.15843 0.0
C215 C 0.71479 0.82452 0.15486 0.0
C216 C 0.76851 0.84353 0.1512 0.0
C217 C 0.83577 0.93944 0.12018 0.0
C218 C 0.85167 0.94889 0.14882 0.0
C219 C 0.84533 0.97403 0.12734 0.0
C220 C 0.83678 0.95941 0.1155 0.0
C221 C 0.85324 0.96893 0.1441 0.0
C222 C 0.84286 0.93428 0.13699 0.0
C223 C 0.82813 0.92429 0.10727 0.0
O224 O 0.8191 0.86726 0.08894 0.0
O225 O 0.76928 0.8813 0.08315 0.0
O226 O 0.79512 0.92179 0.10338 0.0
O227 O 0.84499 0.90756 0.10875 0.0
H228 H 0.80113 0.90494 0.06073 0.0
H229 H 0.82066 0.90972 0.03155 0.0
H230 H 0.83419 0.8467 0.02633 0.0
H231 H 0.81467 0.84203 0.05549 0.0
H232 H 0.67104 0.83519 0.14033 0.0
H233 H 0.70276 0.86294 0.12777 0.0
H234 H 0.76371 0.81827 0.1673 0.0
H235 H 0.7955 0.84594 0.15466 0.0
H236 H 0.85721 0.94451 0.16167 0.0
H237 H 0.84664 0.98929 0.12325 0.0
H238 H 0.8314 0.96369 0.10259 0.0
H239 H 0.84193 0.91896 0.14093 0.0
C240 C 0.20666 0.92274 0.3901 0.0
C241 C 0.18234 0.93464 0.39842 0.0
C242 C 0.18062 0.95684 0.37419 0.0
C243 C 0.16941 0.95157 0.39053 0.0
C244 C 0.2055 0.94499 0.36611 0.0
C245 C 0.21834 0.92812 0.37399 0.0
U246 U 0.22032 0.88721 0.4274 0.0
O247 O 0.2163 0.85472 0.42753 0.0
O248 O 0.26614 0.86929 0.43335 0.0
C249 C 0.24985 0.85254 0.43004 0.0
C250 C 0.21962 0.90444 0.39771 0.0
C251 C 0.26745 0.83947 0.41794 0.0
C252 C 0.29388 0.83388 0.39047 0.0
C253 C 0.27736 0.84643 0.40194 0.0
C254 C 0.29038 0.8072 0.41078 0.0
C255 C 0.30056 0.81409 0.39474 0.0
C256 C 0.27401 0.8198 0.42227 0.0
C257 C 0.18682 0.90005 0.47172 0.0
C258 C 0.19388 0.87863 0.49606 0.0
C259 C 0.16469 0.90999 0.49915 0.0
C260 C 0.16971 0.91377 0.48196 0.0
C261 C 0.17672 0.89238 0.50644 0.0
C262 C 0.1989 0.88244 0.47884 0.0
C263 C 0.19183 0.90443 0.45368 0.0
O264 O 0.24536 0.90652 0.4085 0.0
O265 O 0.1957 0.8917 0.40269 0.0
O266 O 0.17432 0.8931 0.44313 0.0
O267 O 0.22416 0.9077 0.44892 0.0
H268 H 0.17305 0.93069 0.4109 0.0
H269 H 0.15008 0.96026 0.39706 0.0
H270 H 0.21519 0.94879 0.35368 0.0
H271 H 0.23724 0.91914 0.36742 0.0
H272 H 0.30097 0.83959 0.37816 0.0
H273 H 0.27224 0.86157 0.39833 0.0
H274 H 0.29548 0.79212 0.41454 0.0
H275 H 0.26649 0.81417 0.43455 0.0
H276 H 0.20384 0.86503 0.50127 0.0
H277 H 0.15094 0.92078 0.50667 0.0
H278 H 0.16012 0.92742 0.47665 0.0
H279 H 0.21228 0.8717 0.4711 0.0
C280 C 0.31233 0.66379 0.97221 0.0
C281 C 0.33614 0.64962 0.97778 0.0
C282 C 0.33375 0.66319 1.00633 0.0
C283 C 0.34676 0.64932 0.99471 0.0
C284 C 0.30953 0.67716 1.00064 0.0
C285 C 0.299 0.67745 0.98376 0.0
U286 U 0.30751 0.643 0.92713 0.0
O287 O 0.26378 0.64304 0.90915 0.0
O288 O 0.31276 0.6583 0.90281 0.0
C289 C 0.28022 0.65475 0.8985 0.0
C290 C 0.30131 0.66476 0.95445 0.0
C291 C 0.26014 0.67153 0.89166 0.0
C292 C 0.20786 0.68322 0.87765 0.0
C293 C 0.22626 0.66814 0.8856 0.0
C294 C 0.25671 0.70556 0.88181 0.0
C295 C 0.22303 0.70205 0.87542 0.0
C296 C 0.27508 0.69048 0.88983 0.0
C297 C 0.34933 0.59415 0.91544 0.0
C298 C 0.34349 0.58032 0.88723 0.0
C299 C 0.38051 0.56442 0.90777 0.0
C300 C 0.37204 0.57889 0.91967 0.0
C301 C 0.36634 0.56493 0.89139 0.0
C302 C 0.33509 0.59481 0.89915 0.0
C303 C 0.34104 0.6094 0.92802 0.0
O304 O 0.32641 0.66724 0.94333 0.0
O305 O 0.27788 0.65158 0.94974 0.0
O306 O 0.3079 0.61097 0.93188 0.0
O307 O 0.35658 0.62658 0.92571 0.0
H308 H 0.34669 0.63893 0.96902 0.0
H309 H 0.36564 0.63846 0.9986 0.0
H310 H 0.29848 0.68783 1.00926 0.0
H311 H 0.28044 0.68842 0.9797 0.0
H312 H 0.18178 0.68006 0.87314 0.0
H313 H 0.21417 0.65366 0.88673 0.0
H314 H 0.26939 0.7198 0.88015 0.0
H315 H 0.30126 0.69359 0.89422 0.0
H316 H 0.33179 0.58106 0.87482 0.0
H317 H 0.39862 0.55301 0.91135 0.0
H318 H 0.38342 0.57823 0.93216 0.0
H319 H 0.31749 0.60653 0.89566 0.0
C320 C 0.90779 0.11648 0.27583 0.0
C321 C 0.92196 0.08469 0.28787 0.0
C322 C 0.92953 0.10495 0.28555 0.0
C323 C 0.89325 0.07609 0.27955 0.0
C324 C 0.87807 0.10816 0.26807 0.0
C325 C 0.87129 0.08782 0.26971 0.0
N326 N 0.9155 0.136 0.27419 0.0
C327 C 0.89327 0.1484 0.2661 0.0
C328 C 0.85591 0.12061 0.25905 0.0
C329 C 0.86332 0.14087 0.25825 0.0
Gd330 Gd 0.04659 0.15354 0.25358 0.0
Gd331 Gd 0.96685 0.14739 0.28706 0.0
N332 N 0.95682 0.1138 0.29355 0.0
C333 C 0.94274 0.07387 0.29894 0.0
C334 C 0.97492 0.10376 0.30556 0.0
C335 C 0.96889 0.08355 0.30809 0.0
H336 H 0.99365 0.11133 0.31343 0.0
H337 H 0.98404 0.07555 0.3173 0.0
H338 H 0.03682 0.19908 0.23904 0.0
H339 H 0.89907 0.16404 0.26547 0.0
H340 H 0.06589 0.23188 0.24152 0.0
H341 H 0.93784 0.05827 0.30106 0.0
H342 H 0.88726 0.0605 0.28101 0.0
H343 H 0.10596 0.12035 0.26742 0.0
H344 H 0.8328 0.11479 0.25289 0.0
H345 H 0.84606 0.15066 0.25154 0.0
H346 H 0.1646 0.21971 0.27718 0.0
H347 H 0.8488 0.08108 0.26367 0.0
H348 H 0.18801 0.15246 0.29187 0.0
H349 H 0.16001 0.12065 0.28405 0.0
N350 N 0.10069 0.15168 0.26758 0.0
C351 C 0.11707 0.16923 0.27064 0.0
C352 C 0.11675 0.13435 0.27149 0.0
C353 C 0.16367 0.15243 0.28497 0.0
C354 C 0.14791 0.13445 0.28061 0.0
C355 C 0.14881 0.17011 0.27956 0.0
H356 H 0.18945 0.18948 0.28927 0.0
N357 N 0.073 0.18483 0.25506 0.0
C358 C 0.10319 0.18628 0.26386 0.0
C359 C 0.10656 0.22123 0.2578 0.0
C360 C 0.12048 0.20462 0.26577 0.0
C361 C 0.06013 0.2007 0.24657 0.0
C362 C 0.07651 0.2192 0.24796 0.0
O363 O 0.96164 0.13695 0.25988 0.0
O364 O 0.01567 0.12508 0.25395 0.0
O365 O 0.03787 0.15644 0.22662 0.0
O366 O 0.08691 0.14551 0.23562 0.0
O367 O 0.01982 0.1355 0.2945 0.0
O368 O 0.04457 0.1255 0.26937 0.0
O369 O 0.03387 0.17767 0.27251 0.0
O370 O 0.01827 0.16001 0.29582 0.0
O371 O 0.94167 0.1445 0.31161 0.0
O372 O 0.93931 0.17208 0.29809 0.0
O373 O 0.99524 0.16693 0.24591 0.0
O374 O 0.96518 0.17476 0.27056 0.0
C375 C 0.98171 0.12387 0.25264 0.0
C376 C 0.04029 0.12373 0.28582 0.0
C377 C 0.06617 0.13309 0.20965 0.0
C378 C 0.07395 0.12236 0.18041 0.0
C379 C 0.0514 0.09946 0.20155 0.0
C380 C 0.0539 0.11414 0.21388 0.0
C381 C 0.06131 0.10349 0.18493 0.0
C382 C 0.07626 0.13714 0.19294 0.0
C383 C 0.0676 0.14882 0.22247 0.0
C384 C 0.15119 0.20571 0.27534 0.0
C385 C 0.16528 0.18849 0.28227 0.0
H386 H 0.11909 0.23559 0.25894 0.0
C387 C 0.03372 0.17535 0.28893 0.0
C388 C 0.972 0.17731 0.25434 0.0
C389 C 0.94533 0.17371 0.32783 0.0
C390 C 0.9438 0.17768 0.35856 0.0
C391 C 0.98247 0.19821 0.34147 0.0
C392 C 0.97072 0.18879 0.32688 0.0
C393 C 0.96916 0.19277 0.35719 0.0
C394 C 0.93186 0.16826 0.34371 0.0
C395 C 0.93391 0.16313 0.31241 0.0
H396 H 0.04182 0.08487 0.20489 0.0
H397 H 0.04627 0.11074 0.22669 0.0
H398 H 0.05957 0.09173 0.17567 0.0
H399 H 0.08537 0.15187 0.18969 0.0
H400 H 1.00205 0.20978 0.34061 0.0
H401 H 0.98162 0.19327 0.31486 0.0
H402 H 0.97852 0.20054 0.36828 0.0
H403 H 0.9127 0.15642 0.34451 0.0
C404 C 0.62965 0.36945 0.77248 0.0
C405 C 0.65784 0.40159 0.77162 0.0
C406 C 0.62825 0.38964 0.7747 0.0
C407 C 0.68812 0.39295 0.76509 0.0
C408 C 0.66058 0.3605 0.76692 0.0
C409 C 0.68946 0.37242 0.76269 0.0
N410 N 0.6017 0.35844 0.77725 0.0
C411 C 0.60389 0.33836 0.77826 0.0
C412 C 0.662 0.33983 0.76654 0.0
C413 C 0.63374 0.32871 0.77256 0.0
Gd414 Gd 0.46523 0.37457 0.75349 0.0
Gd415 Gd 0.55131 0.37562 0.78494 0.0
N416 N 0.59876 0.39735 0.78123 0.0
C417 C 0.65646 0.42168 0.77585 0.0
C418 C 0.59801 0.41659 0.78647 0.0
C419 C 0.6266 0.42914 0.78358 0.0
H420 H 0.57487 0.42233 0.79243 0.0
H421 H 0.62557 0.44452 0.7873 0.0
H422 H 0.49278 0.33867 0.72639 0.0
H423 H 0.58222 0.32979 0.78315 0.0
H424 H 0.48816 0.30254 0.7238 0.0
H425 H 0.67863 0.43138 0.77369 0.0
H426 H 0.711 0.40191 0.76241 0.0
H427 H 0.3975 0.38877 0.77615 0.0
H428 H 0.68522 0.33235 0.76229 0.0
H429 H 0.63498 0.31275 0.77287 0.0
H430 H 0.40015 0.28444 0.76407 0.0
H431 H 0.71336 0.36586 0.75821 0.0
H432 H 0.34038 0.33718 0.79193 0.0
H433 H 0.34812 0.37357 0.79182 0.0
N434 N 0.41697 0.36124 0.76768 0.0
C435 C 0.41223 0.34139 0.76686 0.0
C436 C 0.39387 0.3729 0.77604 0.0
C437 C 0.36176 0.3438 0.78493 0.0
C438 C 0.36605 0.36435 0.78492 0.0
C439 C 0.38483 0.33204 0.77572 0.0
H440 H 0.36078 0.30387 0.78197 0.0
N441 N 0.4595 0.34029 0.74789 0.0
C442 C 0.43463 0.33052 0.75692 0.0
C443 C 0.45057 0.29963 0.74385 0.0
C444 C 0.42989 0.30989 0.75538 0.0
C445 C 0.47675 0.33065 0.73528 0.0
C446 C 0.47346 0.31015 0.73344 0.0
O447 O 0.54834 0.40077 0.76608 0.0
O448 O 0.51137 0.39205 0.7437 0.0
O449 O 0.4362 0.37112 0.72974 0.0
O450 O 0.43312 0.39845 0.74437 0.0
O451 O 0.51401 0.4009 0.7885 0.0
O452 O 0.46448 0.40072 0.77111 0.0
O453 O 0.46501 0.36731 0.78151 0.0
O454 O 0.51457 0.34976 0.78351 0.0
O455 O 0.52836 0.37747 0.80997 0.0
O456 O 0.58273 0.37042 0.80726 0.0
O457 O 0.5173 0.36515 0.74275 0.0
O458 O 0.5392 0.35109 0.76648 0.0
C459 C 0.53546 0.40337 0.75079 0.0
C460 C 0.48409 0.40822 0.78327 0.0
C461 C 0.39873 0.39721 0.71876 0.0
C462 C 0.37775 0.40143 0.68983 0.0
C463 C 0.351 0.41943 0.713 0.0
C464 C 0.3739 0.4108 0.72438 0.0
C465 C 0.35292 0.41487 0.69586 0.0
C466 C 0.40032 0.39234 0.70146 0.0
C467 C 0.42327 0.38872 0.73103 0.0
C468 C 0.4038 0.30032 0.76487 0.0
C469 C 0.38127 0.31138 0.77501 0.0
H470 H 0.44779 0.28378 0.74229 0.0
C471 C 0.48199 0.35222 0.78762 0.0
C472 C 0.54027 0.35379 0.75013 0.0
C473 C 0.55313 0.35696 0.83067 0.0
C474 C 0.55915 0.34668 0.86009 0.0
C475 C 0.53661 0.32369 0.83896 0.0
C476 C 0.54061 0.33806 0.82647 0.0
C477 C 0.54578 0.32792 0.85565 0.0
C478 C 0.56248 0.36121 0.84743 0.0
C479 C 0.55678 0.37232 0.81766 0.0
H480 H 0.3318 0.42981 0.71747 0.0
H481 H 0.37211 0.41469 0.73762 0.0
H482 H 0.33482 0.42182 0.6873 0.0
H483 H 0.41979 0.38208 0.69701 0.0
H484 H 0.52673 0.30915 0.83565 0.0
H485 H 0.53418 0.33443 0.81356 0.0
H486 H 0.54319 0.31633 0.86499 0.0
H487 H 0.57219 0.37585 0.85061 0.0
C488 C 0.89767 0.8604 0.76461 0.0
C489 C 0.89372 0.82511 0.76983 0.0
C490 C 0.91141 0.84336 0.77145 0.0
C491 C 0.86263 0.82411 0.76054 0.0
C492 C 0.86567 0.85961 0.7559 0.0
C493 C 0.84866 0.84132 0.75357 0.0
N494 N 0.91454 0.87788 0.76732 0.0
C495 C 0.8989 0.89526 0.76319 0.0
C496 C 0.85112 0.87731 0.75032 0.0
C497 C 0.8675 0.89523 0.75427 0.0
Gd498 Gd 0.04834 0.88024 0.74749 0.0
Gd499 Gd 0.96873 0.87593 0.78121 0.0
N500 N 0.9419 0.84472 0.78003 0.0
C501 C 0.90762 0.80848 0.77779 0.0
C502 C 0.95474 0.82885 0.78853 0.0
C503 C 0.93802 0.81043 0.78737 0.0
H504 H 0.97827 0.83041 0.7959 0.0
H505 H 0.94863 0.79775 0.79382 0.0
H506 H 0.02335 0.91357 0.71836 0.0
H507 H 0.91019 0.90925 0.76694 0.0
H508 H 0.03461 0.94863 0.71165 0.0
H509 H 0.8948 0.79418 0.77684 0.0
H510 H 0.84887 0.81017 0.75893 0.0
H511 H 0.11592 0.86501 0.77 0.0
H512 H 0.82659 0.87734 0.74357 0.0
H513 H 0.85569 0.90906 0.75067 0.0
H514 H 0.13006 0.96674 0.74777 0.0
H515 H 0.82425 0.8404 0.74676 0.0
H516 H 0.18281 0.91488 0.77977 0.0
H517 H 0.16915 0.87924 0.78314 0.0
N518 N 0.09973 0.89241 0.75979 0.0
C519 C 0.10779 0.91169 0.75695 0.0
C520 C 0.12192 0.88055 0.7685 0.0
C521 C 0.15958 0.90869 0.77398 0.0
C522 C 0.15197 0.88856 0.77591 0.0
C523 C 0.13762 0.92048 0.76422 0.0
H524 H 0.16745 0.94768 0.76686 0.0
N525 N 0.05954 0.91291 0.73863 0.0
C526 C 0.08665 0.92237 0.74626 0.0
C527 C 0.07499 0.95198 0.73032 0.0
C528 C 0.0949 0.94223 0.74247 0.0
C529 C 0.04215 0.92179 0.72574 0.0
C530 C 0.04898 0.94156 0.72166 0.0
O531 O 0.98107 0.85151 0.7625 0.0
O532 O 0.99637 0.86838 0.73875 0.0
O533 O 0.07527 0.88067 0.72303 0.0
O534 O 0.07235 0.85358 0.73804 0.0
O535 O 0.01987 0.86279 0.78944 0.0
O536 O 0.04937 0.85375 0.765 0.0
O537 O 0.05418 0.89189 0.7743 0.0
O538 O 1.00039 0.90412 0.78039 0.0
O539 O 0.9767 0.87276 0.80819 0.0
O540 O 0.92892 0.88516 0.79904 0.0
O541 O 0.99599 0.89296 0.73991 0.0
O542 O 0.97144 0.90361 0.76494 0.0
C543 C 0.98001 0.85364 0.74607 0.0
C544 C 0.04267 0.85187 0.78128 0.0
C545 C 0.10353 0.85127 0.71146 0.0
C546 C 0.12401 0.84694 0.68241 0.0
C547 C 0.13883 0.82297 0.70406 0.0
C548 C 0.12026 0.83371 0.71601 0.0
C549 C 0.14068 0.82947 0.68739 0.0
C550 C 0.10576 0.85797 0.69463 0.0
C551 C 0.08329 0.8621 0.72429 0.0
C552 C 0.12355 0.95142 0.75037 0.0
C553 C 0.1449 0.94056 0.76121 0.0
H554 H 0.08049 0.96723 0.72702 0.0
C555 C 0.03442 0.90524 0.7814 0.0
C556 C 0.97614 0.9052 0.74849 0.0
C557 C 0.95029 0.89673 0.82522 0.0
C558 C 0.94335 0.90729 0.85455 0.0
C559 C 0.96906 0.92957 0.83378 0.0
C560 C 0.96492 0.91521 0.82127 0.0
C561 C 0.95844 0.92567 0.85032 0.0
C562 C 0.93937 0.89283 0.84184 0.0
C563 C 0.94763 0.88119 0.81226 0.0
H564 H 0.15179 0.80951 0.70772 0.0
H565 H 0.11908 0.82828 0.72886 0.0
H566 H 0.15544 0.82086 0.6784 0.0
H567 H 0.09252 0.87136 0.69097 0.0
H568 H 0.98051 0.94379 0.83064 0.0
H569 H 0.9732 0.91848 0.80853 0.0
H570 H 0.96158 0.93716 0.85974 0.0
H571 H 0.92839 0.87846 0.84491 0.0
C572 C 0.60637 0.68196 0.27488 0.0
C573 C 0.59358 0.71307 0.28856 0.0
C574 C 0.58546 0.69302 0.28544 0.0
C575 C 0.62177 0.72203 0.28009 0.0
C576 C 0.63581 0.69055 0.26707 0.0
C577 C 0.64288 0.71078 0.26939 0.0
N578 N 0.59839 0.66256 0.27262 0.0
C579 C 0.6203 0.65042 0.26398 0.0
C580 C 0.65754 0.67843 0.25744 0.0
C581 C 0.65003 0.65821 0.25611 0.0
Gd582 Gd 0.46538 0.6489 0.2531 0.0
Gd583 Gd 0.54745 0.65073 0.28556 0.0
N584 N 0.55871 0.68379 0.29356 0.0
C585 C 0.57397 0.72327 0.30058 0.0
C586 C 0.54188 0.69315 0.30644 0.0
C587 C 0.54851 0.71313 0.30982 0.0
H588 H 0.52359 0.6852 0.3143 0.0
H589 H 0.53434 0.72061 0.31973 0.0
H590 H 0.46566 0.60329 0.23752 0.0
H591 H 0.61425 0.63483 0.26288 0.0
H592 H 0.4321 0.57196 0.24064 0.0
H593 H 0.57934 0.73869 0.30335 0.0
H594 H 0.62812 0.73748 0.28216 0.0
H595 H 0.41105 0.68473 0.26638 0.0
H596 H 0.68045 0.68445 0.25125 0.0
H597 H 0.667 0.64866 0.24895 0.0
H598 H 0.33987 0.58861 0.27904 0.0
H599 H 0.66506 0.71775 0.26328 0.0
H600 H 0.3266 0.65714 0.29291 0.0
H601 H 0.358 0.68741 0.28377 0.0
N602 N 0.41226 0.65334 0.26751 0.0
C603 C 0.39391 0.63665 0.27124 0.0
C604 C 0.39859 0.67144 0.27102 0.0
C605 C 0.35045 0.65589 0.2857 0.0
C606 C 0.36811 0.67301 0.28057 0.0
C607 C 0.36269 0.63741 0.28058 0.0
H608 H 0.32018 0.62012 0.29118 0.0
N609 N 0.43406 0.61902 0.25483 0.0
C610 C 0.40484 0.61894 0.26443 0.0
C611 C 0.39551 0.58431 0.25831 0.0
C612 C 0.38509 0.60149 0.26673 0.0
C613 C 0.44319 0.60271 0.24573 0.0
C614 C 0.42431 0.58503 0.2475 0.0
O615 O 0.55214 0.66151 0.2585 0.0
O616 O 0.49977 0.67608 0.25386 0.0
O617 O 0.47322 0.64608 0.22607 0.0
O618 O 0.42608 0.65908 0.23544 0.0
O619 O 0.49564 0.66304 0.29428 0.0
O620 O 0.47186 0.67589 0.27001 0.0
O621 O 0.47686 0.6232 0.27062 0.0
O622 O 0.49592 0.63854 0.2946 0.0
O623 O 0.57556 0.65148 0.30966 0.0
O624 O 0.57244 0.62427 0.29476 0.0
O625 O 0.51409 0.63347 0.24427 0.0
O626 O 0.54657 0.62432 0.26783 0.0
C627 C 0.53356 0.67555 0.25167 0.0
C628 C 0.47583 0.67597 0.28653 0.0
C629 C 0.44774 0.67047 0.20926 0.0
C630 C 0.44223 0.68076 0.17981 0.0
C631 C 0.46597 0.70344 0.20089 0.0
C632 C 0.46161 0.6891 0.21338 0.0
C633 C 0.45638 0.69935 0.18422 0.0
C634 C 0.43807 0.66635 0.19251 0.0
C635 C 0.44453 0.65496 0.22216 0.0
C636 C 0.35514 0.60192 0.2769 0.0
C637 C 0.34398 0.61986 0.28383 0.0
H638 H 0.38101 0.57059 0.25972 0.0
C639 C 0.47952 0.6239 0.28712 0.0
C640 C 0.537 0.62211 0.25189 0.0
C641 C 0.60506 0.6224 0.32095 0.0
C642 C 0.6291 0.61928 0.34943 0.0
C643 C 0.64199 0.59468 0.32794 0.0
C644 C 0.6218 0.60486 0.31629 0.0
C645 C 0.64565 0.60178 0.34437 0.0
C646 C 0.60875 0.62957 0.33758 0.0
C647 C 0.58397 0.63298 0.30833 0.0
H648 H 0.47674 0.71779 0.20414 0.0
H649 H 0.4691 0.69251 0.22623 0.0
H650 H 0.45959 0.71086 0.17485 0.0
H651 H 0.42788 0.65181 0.18936 0.0
H652 H 0.65475 0.58115 0.32423 0.0
H653 H 0.61945 0.59905 0.30359 0.0
H654 H 0.66098 0.59334 0.35322 0.0
H655 H 0.59593 0.6431 0.34127 0.0
H656 H 0.16648 0.99342 0.38748 0.0
H657 H 0.14267 0.02214 0.37282 0.0
H658 H 0.13931 0.98889 0.32638 0.0
H659 H 0.16196 0.96001 0.34099 0.0
H660 H 0.17043 0.04268 0.34505 0.0
H661 H 0.0407 1.01058 0.32986 0.0
H662 H 0.06944 0.99972 0.34521 0.0
H663 H 0.07643 0.99564 0.32304 0.0
C664 C 0.16024 0.99214 0.3742 0.0
C665 C 0.16608 0.97438 0.36543 0.0
C666 C 0.14686 1.00861 0.36582 0.0
C667 C 0.13879 1.00757 0.34856 0.0
C668 C 0.14479 0.98993 0.33976 0.0
H669 H 0.05991 0.0881 0.273 0.0
H670 H 0.08568 0.06042 0.28833 0.0
C671 C 0.15814 0.97349 0.3481 0.0
C672 C 0.12483 0.02504 0.33962 0.0
H673 H 0.05564 0.04087 0.31639 0.0
C674 C 0.14524 0.04235 0.33887 0.0
C675 C 0.09197 0.02455 0.33155 0.0
C676 C 0.06818 1.0067 0.33256 0.0
C677 C 0.13403 0.05904 0.32993 0.0
C678 C 0.10132 0.05847 0.32175 0.0
C679 C 0.08081 0.04121 0.32259 0.0
C680 C 0.08765 0.07565 0.31235 0.0
C681 C 0.1576 0.07699 0.32899 0.0
C682 C 0.08032 0.09339 0.32077 0.0
C683 C 0.06572 0.10921 0.31204 0.0
C684 C 0.05794 0.10751 0.29477 0.0
C685 C 0.06582 0.08986 0.28629 0.0
C686 C 0.08036 0.07402 0.29504 0.0
H687 H 0.18492 0.07338 0.33226 0.0
H688 H 0.15715 0.08357 0.31616 0.0
H689 H 0.14836 0.08829 0.33806 0.0
H690 H 0.08521 0.09486 0.33417 0.0
H691 H 0.06 0.12268 0.31886 0.0
H692 H 0.37429 0.52515 0.89645 0.0
H693 H 0.39241 0.50024 0.87599 0.0
H694 H 0.3961 0.5446 0.837 0.0
H695 H 0.37935 0.56981 0.85754 0.0
H696 H 0.36206 0.48749 0.8464 0.0
H697 H 0.4926 0.52049 0.83402 0.0
H698 H 0.46562 0.52823 0.85141 0.0
H699 H 0.45687 0.53685 0.83041 0.0
C700 C 0.37932 0.52969 0.88357 0.0
C701 C 0.37571 0.54956 0.87871 0.0
C702 C 0.38938 0.51538 0.87185 0.0
C703 C 0.39614 0.52059 0.85502 0.0
C704 C 0.39167 0.54029 0.84999 0.0
H705 H 0.42564 0.43006 0.77647 0.0
H706 H 0.40333 0.45819 0.79246 0.0
C707 C 0.38168 0.55465 0.86172 0.0
C708 C 0.40816 0.50536 0.84287 0.0
H709 H 0.47674 0.4925 0.81782 0.0
C710 C 0.38706 0.4886 0.84008 0.0
C711 C 0.44095 0.50677 0.83478 0.0
C712 C 0.46552 0.52394 0.83788 0.0
C713 C 0.398 0.47311 0.82956 0.0
C714 C 0.43067 0.47459 0.82135 0.0
C715 C 0.45158 0.49146 0.824 0.0
C716 C 0.44478 0.45822 0.81095 0.0
C717 C 0.37503 0.45498 0.82786 0.0
C718 C 0.47616 0.44935 0.81563 0.0
C719 C 0.48922 0.43344 0.80643 0.0
C720 C 0.47118 0.42599 0.79228 0.0
C721 C 0.44015 0.43526 0.78734 0.0
C722 C 0.42719 0.45128 0.79655 0.0
H723 H 0.35503 0.4542 0.83798 0.0
H724 H 0.36132 0.45543 0.81555 0.0
H725 H 0.39071 0.44129 0.82827 0.0
H726 H 0.49027 0.45449 0.82666 0.0
H727 H 0.51319 0.42678 0.81066 0.0
H728 H 0.70914 0.54328 0.67884 0.0
H729 H 0.68486 0.51429 0.69322 0.0
H730 H 0.58366 0.5268 0.67256 0.0
H731 H 0.60768 0.55591 0.65821 0.0
H732 H 0.63156 0.51392 0.71722 0.0
H733 H 0.59572 0.46805 0.66158 0.0
H734 H 0.62492 0.48907 0.66013 0.0
H735 H 0.5787 0.49267 0.66135 0.0
C736 C 0.6817 0.53989 0.67735 0.0
C737 C 0.66035 0.55195 0.66737 0.0
C738 C 0.66791 0.52325 0.68551 0.0
C739 C 0.63255 0.51824 0.68381 0.0
C740 C 0.61118 0.53014 0.67377 0.0
H741 H 0.50095 0.42634 0.72821 0.0
H742 H 0.5243 0.45435 0.71197 0.0
C743 C 0.62496 0.54678 0.66557 0.0
C744 C 0.61782 0.50113 0.69321 0.0
H745 H 0.57667 0.45648 0.6883 0.0
C746 C 0.61968 0.50132 0.7109 0.0
C747 C 0.60215 0.48476 0.68494 0.0
C748 C 0.60044 0.48345 0.66595 0.0
C749 C 0.60594 0.48571 0.72058 0.0
C750 C 0.59054 0.46924 0.71231 0.0
C751 C 0.58849 0.4691 0.69462 0.0
C752 C 0.57663 0.45199 0.72184 0.0
C753 C 0.60737 0.48723 0.73957 0.0
C754 C 0.59844 0.44107 0.73245 0.0
C755 C 0.5851 0.42518 0.74176 0.0
C756 C 0.54982 0.41978 0.74055 0.0
C757 C 0.52826 0.43026 0.72946 0.0
C758 C 0.54154 0.44625 0.72021 0.0
H759 H 0.61072 0.50279 0.74383 0.0
H760 H 0.58337 0.48103 0.74543 0.0
H761 H 0.62992 0.47873 0.74428 0.0
H762 H 0.62584 0.44478 0.7335 0.0
H763 H 0.60255 0.41688 0.74963 0.0
H764 H 0.82446 1.00537 0.1492 0.0
H765 H 0.8446 0.03148 0.16848 0.0
H766 H 0.92646 0.99365 0.18613 0.0
H767 H 0.90678 0.96756 0.1668 0.0
H768 H 0.85524 0.02921 0.2058 0.0
H769 H 0.97557 0.04595 0.16917 0.0
H770 H 0.93869 0.033 0.16011 0.0
H771 H 0.96766 0.02034 0.17409 0.0
C772 C 0.84679 1.00263 0.15717 0.0
C773 C 0.86413 0.98442 0.15642 0.0
C774 C 0.85812 0.0175 0.16823 0.0
C775 C 0.88719 0.01453 0.17858 0.0
C776 C 0.90414 0.99627 0.17812 0.0
H777 H 0.0092 0.08766 0.24656 0.0
H778 H 0.98476 0.06104 0.22916 0.0
C779 C 0.8927 0.98134 0.16716 0.0
C780 C 0.90026 0.03065 0.18965 0.0
H781 H 0.96905 0.06234 0.19529 0.0
C782 C 0.88003 0.03654 0.2035 0.0
C783 C 0.93265 0.0401 0.18661 0.0
C784 C 0.95491 0.0347 0.17163 0.0
C785 C 0.89174 0.0514 0.21462 0.0
C786 C 0.92413 0.0609 0.21154 0.0
C787 C 0.94423 0.05504 0.19763 0.0
C788 C 0.93795 0.07683 0.22264 0.0
C789 C 0.86991 0.05639 0.22985 0.0
C790 C 0.91988 0.09463 0.22467 0.0
C791 C 0.93391 0.1099 0.23456 0.0
C792 C 0.96625 0.10765 0.24254 0.0
C793 C 0.98426 0.08984 0.2405 0.0
C794 C 0.97028 0.0746 0.23061 0.0
H795 H 0.85027 0.04466 0.2326 0.0
H796 H 0.88658 0.05853 0.24116 0.0
H797 H 0.85587 0.07036 0.2275 0.0
H798 H 0.8953 0.09688 0.21831 0.0
H799 H 0.91982 0.12361 0.23565 0.0
H800 H 0.85062 0.03668 0.64735 0.0
H801 H 0.87342 1.00757 0.66181 0.0
H802 H 0.86859 0.0385 0.70935 0.0
H803 H 0.8463 0.06769 0.69504 0.0
H804 H 0.93433 1.00451 0.68179 0.0
H805 H 0.81554 0.98657 0.7189 0.0
H806 H 0.81509 1.00303 0.70098 0.0
H807 H 0.83065 1.01165 0.7211 0.0
C808 C 0.85459 0.03735 0.66087 0.0
C809 C 0.84635 0.05452 0.67003 0.0
C810 C 0.86745 0.02066 0.66912 0.0
C811 C 0.87211 0.02075 0.68669 0.0
C812 C 0.86439 0.03793 0.69584 0.0
H813 H 0.95553 0.9407 0.7613 0.0
H814 H 0.9298 0.96836 0.74594 0.0
C815 C 0.8516 0.05461 0.68762 0.0
C816 C 0.88592 1.00311 0.69544 0.0
H817 H 0.86691 0.96917 0.72609 0.0
C818 C 0.9195 0.99666 0.69137 0.0
C819 C 0.86655 0.99297 0.708 0.0
C820 C 0.82983 0.99876 0.71243 0.0
C821 C 0.93457 0.98062 0.69979 0.0
C822 C 0.91529 0.97057 0.71241 0.0
C823 C 0.88162 0.97692 0.71642 0.0
C824 C 0.92984 0.95354 0.72173 0.0
C825 C 0.97145 0.97496 0.69558 0.0
C826 C 0.93764 0.93589 0.71327 0.0
C827 C 0.95213 0.92005 0.72203 0.0
C828 C 0.95914 0.92158 0.73939 0.0
C829 C 0.95044 0.93908 0.74792 0.0
C830 C 0.93585 0.95491 0.73916 0.0
H831 H 0.98494 0.98644 0.6879 0.0
H832 H 0.98659 0.97254 0.70731 0.0
H833 H 0.97124 0.96094 0.68829 0.0
H834 H 0.93252 0.93438 0.69989 0.0
H835 H 0.95801 0.90661 0.71518 0.0
H836 H 0.68403 0.47495 0.17358 0.0
H837 H 0.66633 0.50006 0.19406 0.0
H838 H 0.58382 0.51805 0.16077 0.0
H839 H 0.60028 0.49252 0.1406 0.0
H840 H 0.66272 0.54047 0.19096 0.0
H841 H 0.532 0.50922 0.20472 0.0
H842 H 0.56495 0.49546 0.19365 0.0
H843 H 0.53888 0.5132 0.18259 0.0
C844 C 0.66182 0.48407 0.17071 0.0
C845 C 0.64346 0.4816 0.15546 0.0
C846 C 0.6519 0.49851 0.18238 0.0
C847 C 0.62337 0.51069 0.17909 0.0
C848 C 0.60545 0.50853 0.16375 0.0
H849 H 0.52195 0.61169 0.21933 0.0
H850 H 0.54526 0.58427 0.20308 0.0
C851 C 0.61523 0.49408 0.15212 0.0
C852 C 0.61258 0.52594 0.19148 0.0
H853 H 0.5423 0.54263 0.21353 0.0
C854 C 0.63654 0.54082 0.19608 0.0
C855 C 0.57848 0.52628 0.19825 0.0
C856 C 0.55221 0.51007 0.1947 0.0
C857 C 0.62679 0.55652 0.20666 0.0
C858 C 0.59231 0.55724 0.21284 0.0
C859 C 0.56869 0.54207 0.20867 0.0
C860 C 0.5795 0.57419 0.22284 0.0
C861 C 0.65294 0.57264 0.21066 0.0
C862 C 0.59107 0.57761 0.2394 0.0
C863 C 0.57764 0.59331 0.24885 0.0
C864 C 0.55242 0.60585 0.24187 0.0
C865 C 0.54128 0.6024 0.22519 0.0
C866 C 0.55455 0.5867 0.21583 0.0
H867 H 0.67701 0.57136 0.20297 0.0
H868 H 0.64141 0.58739 0.20845 0.0
H869 H 0.66021 0.57178 0.22419 0.0
H870 H 0.61008 0.56796 0.24509 0.0
H871 H 0.58681 0.59549 0.26165 0.0
H872 H 0.35168 0.49392 0.39185 0.0
H873 H 0.3744 0.5234 0.37743 0.0
H874 H 0.38578 0.48977 0.33154 0.0
H875 H 0.36352 0.46029 0.34582 0.0
H876 H 0.43871 0.52964 0.36077 0.0
H877 H 0.32778 0.53722 0.31658 0.0
H878 H 0.32563 0.5218 0.33514 0.0
H879 H 0.34698 0.51314 0.31637 0.0
C880 C 0.35926 0.49276 0.37872 0.0
C881 C 0.35542 0.47476 0.36996 0.0
C882 C 0.37208 0.50965 0.37049 0.0
C883 C 0.38112 0.50888 0.35333 0.0
C884 C 0.37812 0.49084 0.34467 0.0
H885 H 0.46763 0.58579 0.27731 0.0
H886 H 0.44292 0.55876 0.29407 0.0
C887 C 0.36535 0.47399 0.35287 0.0
C888 C 0.39418 0.5268 0.34444 0.0
H889 H 0.37827 0.55674 0.31069 0.0
C890 C 0.42536 0.5357 0.34992 0.0
C891 C 0.37667 0.53469 0.3303 0.0
C892 C 0.34224 0.52636 0.32432 0.0
C893 C 0.44015 0.55186 0.34126 0.0
C894 C 0.42297 0.5595 0.32692 0.0
C895 C 0.39146 0.55081 0.32165 0.0
C896 C 0.43771 0.5761 0.31688 0.0
C897 C 0.47464 0.5602 0.34718 0.0
C898 C 0.44263 0.5949 0.32407 0.0
C899 C 0.45645 0.61045 0.31444 0.0
C900 C 0.46526 0.60748 0.2974 0.0
C901 C 0.46032 0.58864 0.29027 0.0
C902 C 0.44646 0.57315 0.29987 0.0
H903 H 0.48817 0.54992 0.35584 0.0
H904 H 0.492 0.56345 0.3363 0.0
H905 H 0.47017 0.57423 0.35407 0.0
H906 H 0.43549 0.59761 0.33709 0.0
H907 H 0.45981 0.62484 0.32025 0.0
H908 H 0.19327 0.02848 0.88163 0.0
H909 H 0.17658 1.00243 0.86155 0.0
H910 H 0.07721 0.03016 0.85422 0.0
H911 H 0.09375 0.05631 0.87417 0.0
H912 H 0.11391 0.97684 0.86453 0.0
H913 H 0.1178 0.02116 0.80553 0.0
H914 H 0.14062 0.02861 0.82448 0.0
H915 H 0.09441 0.03186 0.82291 0.0
C916 C 0.16803 0.02915 0.87559 0.0
C917 C 0.14483 0.04446 0.87947 0.0
C918 C 0.15849 0.01422 0.8642 0.0
C919 C 0.12582 0.0145 0.85631 0.0
C920 C 0.1027 0.02981 0.86005 0.0
H921 H 0.00712 0.94139 0.78792 0.0
H922 H 0.03129 0.9675 0.80594 0.0
C923 C 0.11208 0.04464 0.87154 0.0
C924 C 0.11528 0.9984 0.84461 0.0
H925 H 0.09336 0.98891 0.80361 0.0
C926 C 0.10971 0.97939 0.85118 0.0
C927 C 0.10966 1.00187 0.82724 0.0
C928 C 0.11615 0.02193 0.81952 0.0
C929 C 0.09762 0.96382 0.84091 0.0
C930 C 0.09186 0.96729 0.82352 0.0
C931 C 0.0979 0.98627 0.81693 0.0
C932 C 0.07818 0.95161 0.81213 0.0
C933 C 0.08984 0.94402 0.84888 0.0
C934 C 0.09676 0.93412 0.8094 0.0
C935 C 0.08278 0.91907 0.79925 0.0
C936 C 0.0502 0.92137 0.7915 0.0
C937 C 0.03214 0.93912 0.79387 0.0
C938 C 0.046 0.95409 0.80408 0.0
H939 H 0.08773 0.94511 0.86284 0.0
H940 H 0.06519 0.93761 0.84387 0.0
H941 H 0.11121 0.93367 0.84588 0.0
H942 H 0.12193 0.93203 0.81524 0.0
H943 H 0.09708 0.90549 0.79779 0.0
H944 H 0.22064 0.16196 0.03731 0.0
H945 H 0.20089 0.15763 0.06644 0.0
H946 H 0.10772 0.12828 0.04869 0.0
H947 H 0.127 0.13275 0.0195 0.0
H948 H 0.13893 0.17108 0.08186 0.0
H949 H 0.14718 0.08921 0.08331 0.0
H950 H 0.16792 0.10396 0.06713 0.0
H951 H 0.12194 0.0989 0.06619 0.0
C952 C 0.19582 0.1547 0.03956 0.0
C953 C 0.17548 0.14765 0.02601 0.0
C954 C 0.18466 0.15216 0.05625 0.0
C955 C 0.15308 0.14239 0.05976 0.0
C956 C 0.13254 0.13549 0.04629 0.0
H957 H 0.04125 0.11079 0.15125 0.0
H958 H 0.06024 0.11644 0.12216 0.0
C959 C 0.14364 0.13804 0.0296 0.0
C960 C 0.14138 0.13972 0.07749 0.0
H961 H 0.12087 0.1046 0.1069 0.0
C962 C 0.13511 0.15656 0.08738 0.0
C963 C 0.13635 0.12076 0.08465 0.0
C964 C 0.14396 0.10215 0.07486 0.0
C965 C 0.12329 0.15494 0.10412 0.0
C966 C 0.11829 0.13597 0.11129 0.0
C967 C 0.12464 0.11914 0.1014 0.0
C968 C 0.10642 0.13318 0.12901 0.0
C969 C 0.11545 0.17357 0.11384 0.0
C970 C 0.12614 0.14062 0.14257 0.0
C971 C 0.11535 0.1374 0.15923 0.0
C972 C 0.08479 0.12648 0.16268 0.0
C973 C 0.06511 0.11907 0.14906 0.0
C974 C 0.07585 0.12235 0.13241 0.0
H975 H 0.11143 0.18635 0.1053 0.0
H976 H 0.0919 0.17162 0.12182 0.0
H977 H 0.13777 0.17719 0.12222 0.0
H978 H 0.15025 0.14861 0.14028 0.0
H979 H 0.13142 0.14303 0.16942 0.0
H980 H 0.39218 0.37339 0.5262 0.0
H981 H 0.40301 0.36985 0.55654 0.0
H982 H 0.30848 0.40128 0.56734 0.0
H983 H 0.29716 0.40454 0.53712 0.0
H984 H 0.41196 0.40053 0.57985 0.0
H985 H 0.30036 0.3526 0.59793 0.0
H986 H 0.31451 0.35548 0.57632 0.0
H987 H 0.28764 0.3739 0.58605 0.0
C988 C 0.37339 0.37924 0.53504 0.0
C989 C 0.34378 0.38924 0.52923 0.0
C990 C 0.37971 0.37729 0.55237 0.0
C991 C 0.35634 0.38508 0.56422 0.0
C992 C 0.32657 0.39485 0.55845 0.0
H993 H 0.37694 0.42838 0.66432 0.0
H994 H 0.37571 0.42218 0.63398 0.0
C995 C 0.32033 0.39689 0.54116 0.0
C996 C 0.36395 0.38413 0.5826 0.0
H997 H 0.32901 0.37007 0.62046 0.0
C998 C 0.39407 0.39363 0.58871 0.0
C999 C 0.34091 0.37487 0.59416 0.0
C1000 C 0.30922 0.36345 0.58829 0.0
C1001 C 0.4008 0.39503 0.60611 0.0
C1002 C 0.37657 0.3869 0.61771 0.0
C1003 C 0.34742 0.37647 0.61157 0.0
C1004 C 0.37955 0.39041 0.63618 0.0
C1005 C 0.43357 0.40544 0.61193 0.0
C1006 C 0.38181 0.37458 0.64759 0.0
C1007 C 0.38239 0.3781 0.66505 0.0
C1008 C 0.38013 0.39749 0.67137 0.0
C1009 C 0.37839 0.41326 0.65987 0.0
C1010 C 0.37803 0.40976 0.6425 0.0
H1011 H 0.45396 0.40536 0.60198 0.0
H1012 H 0.42756 0.42108 0.61487 0.0
H1013 H 0.44416 0.39847 0.62349 0.0
H1014 H 0.38276 0.35951 0.64298 0.0
H1015 H 0.38348 0.36564 0.67359 0.0
H1016 H 0.7158 0.35121 1.00343 0.0
H1017 H 0.695 0.35018 0.97428 0.0
H1018 H 0.60012 0.3787 0.98946 0.0
H1019 H 0.62053 0.37961 1.0187 0.0
H1020 H 0.63541 0.33118 0.96244 0.0
H1021 H 0.63155 0.41151 0.94854 0.0
H1022 H 0.6549 0.40159 0.96634 0.0
H1023 H 0.60845 0.40427 0.9673 0.0
C1024 C 0.69047 0.35725 1.0006 0.0
C1025 C 0.66982 0.36546 1.01346 0.0
C1026 C 0.67871 0.35674 0.9839 0.0
C1027 C 0.64618 0.36456 0.97964 0.0
C1028 C 0.62562 0.37295 0.99238 0.0
H1029 H 0.52667 0.33559 0.88949 0.0
H1030 H 0.5473 0.34044 0.91842 0.0
C1031 C 0.63735 0.37346 1.00911 0.0
C1032 C 0.63312 0.36295 0.96203 0.0
H1033 H 0.60585 0.38999 0.92821 0.0
C1034 C 0.62901 0.34404 0.95495 0.0
C1035 C 0.62512 0.37975 0.95221 0.0
C1036 C 0.63049 0.40045 0.95888 0.0
C1037 C 0.61671 0.34145 0.9384 0.0
C1038 C 0.60776 0.35821 0.92873 0.0
C1039 C 0.61236 0.37716 0.9357 0.0
C1040 C 0.59419 0.3563 0.91124 0.0
C1041 C 0.61396 0.32078 0.9313 0.0
C1042 C 0.61312 0.36417 0.89761 0.0
C1043 C 0.60141 0.36141 0.88104 0.0
C1044 C 0.57043 0.35078 0.87777 0.0
C1045 C 0.55098 0.34349 0.89152 0.0
C1046 C 0.5627 0.34627 0.90807 0.0
H1047 H 0.6297 0.31014 0.93866 0.0
H1048 H 0.58639 0.31576 0.93177 0.0
H1049 H 0.62267 0.32039 0.91794 0.0
H1050 H 0.63745 0.372 0.89978 0.0
H1051 H 0.6172 0.36708 0.87077 0.0
H1052 H 0.80889 0.16467 0.50861 0.0
H1053 H 0.82256 0.17112 0.47892 0.0
H1054 H 0.89538 0.12308 0.47902 0.0
H1055 H 0.88237 0.11671 0.5087 0.0
H1056 H 0.88716 0.18096 0.46485 0.0
H1057 H 0.8354 0.11129 0.43724 0.0
H1058 H 0.82433 0.11945 0.45827 0.0
H1059 H 0.86522 0.10758 0.45436 0.0
C1060 C 0.82791 0.15551 0.50235 0.0
C1061 C 0.84439 0.1401 0.51109 0.0
C1062 C 0.83552 0.15915 0.48534 0.0
C1063 C 0.85954 0.14737 0.47667 0.0
C1064 C 0.87611 0.13204 0.48533 0.0
H1065 H 0.98062 0.17326 0.38783 0.0
H1066 H 0.95816 0.16616 0.41604 0.0
C1067 C 0.8686 0.12842 0.50233 0.0
C1068 C 0.8686 0.15167 0.4588 0.0
H1069 H 0.87168 0.13113 0.41938 0.0
C1070 C 0.88352 0.17013 0.45489 0.0
C1071 C 0.86344 0.13762 0.44576 0.0
C1072 C 0.84591 0.11794 0.44904 0.0
C1073 C 0.89448 0.17466 0.43841 0.0
C1074 C 0.89084 0.16026 0.42554 0.0
C1075 C 0.87481 0.14206 0.42931 0.0
C1076 C 0.90435 0.16374 0.40821 0.0
C1077 C 0.90987 0.19486 0.43492 0.0
C1078 C 0.8817 0.16406 0.39432 0.0
C1079 C 0.89448 0.16817 0.3781 0.0
C1080 C 0.93019 0.17195 0.37551 0.0
C1081 C 0.95288 0.1709 0.38942 0.0
C1082 C 0.9401 0.16682 0.40556 0.0
H1083 H 0.90239 0.20574 0.44476 0.0
H1084 H 0.93869 0.19388 0.43484 0.0
H1085 H 0.9014 0.20043 0.42242 0.0
H1086 H 0.85402 0.1616 0.39608 0.0
H1087 H 0.87627 0.16896 0.36771 0.0
H1088 H 0.8004 0.90239 1.00245 0.0
H1089 H 0.81896 0.90651 0.97309 0.0
H1090 H 0.90257 0.86557 0.98123 0.0
H1091 H 0.8839 0.8612 1.01053 0.0
H1092 H 0.87907 0.92017 0.9599 0.0
H1093 H 0.8581 0.84267 0.93934 0.0
H1094 H 0.84186 0.85194 0.95917 0.0
H1095 H 0.88667 0.84478 0.95717 0.0
C1096 C 0.8228 0.8943 0.998 0.0
C1097 C 0.84054 0.88137 1.00881 0.0
C1098 C 0.83331 0.89662 0.98119 0.0
C1099 C 0.86177 0.88606 0.97482 0.0
C1100 C 0.87994 0.87344 0.98568 0.0
H1101 H 0.97786 0.91611 0.88387 0.0
H1102 H 0.9579 0.91087 0.91284 0.0
C1103 C 0.86929 0.871 1.00245 0.0
C1104 C 0.87294 0.88869 0.95696 0.0
H1105 H 0.88934 0.86362 0.92036 0.0
C1106 C 0.88117 0.90781 0.95124 0.0
C1107 C 0.87519 0.87261 0.94555 0.0
C1108 C 0.86465 0.85188 0.95054 0.0
C1109 C 0.89214 0.91126 0.93456 0.0
C1110 C 0.89581 0.89507 0.92337 0.0
C1111 C 0.88695 0.876 0.92898 0.0
C1112 C 0.90847 0.89767 0.90574 0.0
C1113 C 0.89902 0.93228 0.92904 0.0
C1114 C 0.88797 0.8913 0.89206 0.0
C1115 C 0.89949 0.89411 0.87545 0.0
C1116 C 0.93176 0.90336 0.87219 0.0
C1117 C 0.95258 0.90929 0.88593 0.0
C1118 C 0.94116 0.90635 0.90252 0.0
H1119 H 0.88546 0.94305 0.93728 0.0
H1120 H 0.92737 0.93547 0.92982 0.0
H1121 H 0.89053 0.93464 0.91581 0.0
H1122 H 0.86274 0.88445 0.89422 0.0
H1123 H 0.88275 0.88947 0.86515 0.0
H1124 H 0.65333 0.66241 0.51057 0.0
H1125 H 0.6424 0.66524 0.48016 0.0
H1126 H 0.67606 0.60523 0.47302 0.0
H1127 H 0.68736 0.60232 0.50322 0.0
H1128 H 0.68722 0.66003 0.45202 0.0
H1129 H 0.57847 0.60559 0.45164 0.0
H1130 H 0.595 0.61662 0.47083 0.0
H1131 H 0.61738 0.5963 0.46118 0.0
C1132 C 0.65872 0.64988 0.5025 0.0
C1133 C 0.67084 0.63205 0.50939 0.0
C1134 C 0.6523 0.6515 0.48514 0.0
C1135 C 0.65773 0.63531 0.47439 0.0
C1136 C 0.67085 0.61774 0.48114 0.0
H1137 H 0.68815 0.6209 0.36861 0.0
H1138 H 0.69288 0.62798 0.39874 0.0
C1139 C 0.67727 0.61611 0.49843 0.0
C1140 C 0.6498 0.6366 0.45608 0.0
H1141 H 0.6029 0.614 0.42481 0.0
C1142 C 0.6685 0.65014 0.44608 0.0
C1143 C 0.62489 0.62395 0.44837 0.0
C1144 C 0.60251 0.60993 0.45857 0.0
C1145 C 0.66418 0.65066 0.42845 0.0
C1146 C 0.6409 0.63712 0.42064 0.0
C1147 C 0.62097 0.62428 0.43076 0.0
C1148 C 0.63844 0.635 0.402 0.0
C1149 C 0.68477 0.66563 0.41837 0.0
C1150 C 0.60621 0.63648 0.39374 0.0
C1151 C 0.60336 0.63224 0.37647 0.0
C1152 C 0.63264 0.6262 0.3672 0.0
C1153 C 0.66504 0.62534 0.37542 0.0
C1154 C 0.66788 0.62961 0.39262 0.0
H1155 H 0.69212 0.67866 0.4262 0.0
H1156 H 0.70913 0.65874 0.41382 0.0
H1157 H 0.66984 0.67078 0.40724 0.0
H1158 H 0.58309 0.64046 0.40075 0.0
H1159 H 0.57798 0.63286 0.37056 0.0
H1160 H 0.34552 0.63142 0.02713 0.0
H1161 H 0.36347 0.632 0.05681 0.0
H1162 H 0.36645 0.69569 0.05582 0.0
H1163 H 0.34895 0.69529 0.0262 0.0
H1164 H 0.42324 0.64853 0.07211 0.0
H1165 H 0.303 0.68332 0.09625 0.0
H1166 H 0.3058 0.67254 0.07544 0.0
H1167 H 0.32333 0.69686 0.07938 0.0
C1168 C 0.35025 0.64556 0.03318 0.0
C1169 C 0.34545 0.66332 0.02428 0.0
C1170 C 0.36035 0.64585 0.05017 0.0
C1171 C 0.36567 0.66389 0.05862 0.0
C1172 C 0.36166 0.68161 0.04968 0.0
H1173 H 0.47633 0.69132 0.15069 0.0
H1174 H 0.45766 0.68571 0.12158 0.0
C1175 C 0.3516 0.68134 0.03273 0.0
C1176 C 0.37578 0.6643 0.07672 0.0
H1177 H 0.35107 0.68215 0.11521 0.0
C1178 C 0.40737 0.65575 0.08157 0.0
C1179 C 0.35478 0.67345 0.0891 0.0
C1180 C 0.31967 0.6819 0.08485 0.0
C1181 C 0.41908 0.65669 0.09837 0.0
C1182 C 0.39888 0.6667 0.11058 0.0
C1183 C 0.36674 0.67466 0.10583 0.0
C1184 C 0.41084 0.66947 0.12829 0.0
C1185 C 0.45287 0.64685 0.1029 0.0
C1186 C 0.3904 0.66257 0.14179 0.0
C1187 C 0.40079 0.66598 0.15849 0.0
C1188 C 0.43174 0.67651 0.16204 0.0
C1189 C 0.4522 0.68332 0.14845 0.0
C1190 C 0.44179 0.6799 0.13177 0.0
H1191 H 0.45972 0.63518 0.09363 0.0
H1192 H 0.47414 0.65807 0.10287 0.0
H1193 H 0.4515 0.64014 0.11566 0.0
H1194 H 0.36626 0.65463 0.13941 0.0
H1195 H 0.38416 0.66075 0.16861 0.0
H1196 H 0.1826 0.91844 0.5329 0.0
H1197 H 0.17289 0.91194 0.56292 0.0
H1198 H 0.14872 0.85099 0.55159 0.0
H1199 H 0.15808 0.85737 0.52154 0.0
H1200 H 0.11287 0.89771 0.57942 0.0
H1201 H 0.2238 0.84686 0.58805 0.0
H1202 H 0.2197 0.86258 0.56978 0.0
H1203 H 0.195 0.83992 0.57116 0.0
C1204 C 0.17503 0.90366 0.53676 0.0
C1205 C 0.17126 0.88841 0.52477 0.0
C1206 C 0.16962 0.89997 0.55395 0.0
C1207 C 0.16055 0.88093 0.55953 0.0
C1208 C 0.15644 0.86571 0.54761 0.0
H1209 H 0.11574 0.82392 0.65436 0.0
H1210 H 0.12335 0.83341 0.62486 0.0
C1211 C 0.16186 0.86938 0.53043 0.0
C1212 C 0.15494 0.87702 0.57779 0.0
H1213 H 0.18332 0.84883 0.61064 0.0
C1214 C 0.1284 0.88713 0.5863 0.0
C1215 C 0.17531 0.86326 0.58675 0.0
C1216 C 0.20527 0.85265 0.57854 0.0
C1217 C 0.12095 0.88336 0.6034 0.0
C1218 C 0.14099 0.86936 0.61228 0.0
C1219 C 0.16786 0.8595 0.60381 0.0
C1220 C 0.1341 0.86423 0.63022 0.0
C1221 C 0.09104 0.89395 0.61166 0.0
C1222 C 0.13731 0.87844 0.6431 0.0
C1223 C 0.13295 0.87303 0.66006 0.0
C1224 C 0.12571 0.85327 0.66443 0.0
C1225 C 0.12181 0.8392 0.65145 0.0
C1226 C 0.12604 0.84462 0.63457 0.0
H1227 H 0.07319 0.90046 0.60219 0.0
H1228 H 0.07586 0.88376 0.61989 0.0
H1229 H 0.10145 0.90614 0.61963 0.0
H1230 H 0.14416 0.89359 0.64009 0.0
H1231 H 0.13648 0.88416 0.66977 0.0
H1232 H 0.15105 0.29255 0.4041 0.0
H1233 H 0.12144 0.26954 0.38493 0.0
H1234 H 0.19984 0.28056 0.34704 0.0
H1235 H 0.23024 0.30316 0.36631 0.0
H1236 H 0.09387 0.27622 0.35279 0.0
H1237 H 0.19828 0.22008 0.35078 0.0
H1238 H 0.19723 0.23948 0.36643 0.0
H1239 H 0.21216 0.24471 0.34539 0.0
C1240 C 0.16225 0.28993 0.39176 0.0
C1241 C 0.19322 0.29961 0.38681 0.0
C1242 C 0.14513 0.27688 0.38077 0.0
C1243 C 0.15867 0.27311 0.36464 0.0
C1244 C 0.18923 0.28298 0.35953 0.0
H1245 H 0.04656 0.21437 0.28234 0.0
H1246 H 0.07733 0.23837 0.30023 0.0
C1247 C 0.20637 0.29607 0.37051 0.0
C1248 C 0.14061 0.25895 0.35319 0.0
H1249 H 0.15053 0.21514 0.3323 0.0
C1250 C 0.10623 0.26286 0.34831 0.0
C1251 C 0.15668 0.24143 0.34749 0.0
C1252 C 0.19301 0.23601 0.35288 0.0
C1253 C 0.08755 0.24979 0.33779 0.0
C1254 C 0.10385 0.23245 0.33184 0.0
C1255 C 0.13816 0.22849 0.3368 0.0
C1256 C 0.08549 0.21795 0.32082 0.0
C1257 C 0.05032 0.2545 0.33343 0.0
C1258 C 0.08053 0.19838 0.32626 0.0
C1259 C 0.06351 0.18458 0.31593 0.0
C1260 C 0.05138 0.19005 0.29989 0.0
C1261 C 0.05621 0.20965 0.2945 0.0
C1262 C 0.07337 0.22344 0.3048 0.0
H1263 H 0.03899 0.26532 0.3424 0.0
H1264 H 0.04944 0.26104 0.32061 0.0
H1265 H 0.03382 0.24094 0.33342 0.0
H1266 H 0.08969 0.1938 0.33856 0.0
H1267 H 0.06013 0.16957 0.32044 0.0
H1268 H 0.28898 0.23855 0.88152 0.0
H1269 H 0.31924 0.26573 0.867 0.0
H1270 H 0.39377 0.22467 0.84699 0.0
H1271 H 0.36419 0.19752 0.86163 0.0
H1272 H 0.39239 0.27852 0.8684 0.0
H1273 H 0.35166 0.2524 0.80483 0.0
H1274 H 0.33067 0.24403 0.82397 0.0
H1275 H 0.37195 0.23406 0.81782 0.0
C1276 C 0.31211 0.23534 0.87424 0.0
C1277 C 0.32391 0.21579 0.8726 0.0
C1278 C 0.32925 0.25087 0.86588 0.0
C1279 C 0.35835 0.24714 0.85569 0.0
C1280 C 0.37092 0.2278 0.85452 0.0
H1281 H 0.49506 0.31292 0.78953 0.0
H1282 H 0.46479 0.28814 0.80679 0.0
C1283 C 0.35391 0.21229 0.86287 0.0
C1284 C 0.37529 0.26331 0.84597 0.0
H1285 H 0.39321 0.2785 0.80577 0.0
C1286 C 0.3924 0.27863 0.85472 0.0
C1287 C 0.37522 0.26338 0.82811 0.0
C1288 C 0.35616 0.2477 0.81808 0.0
C1289 C 0.41037 0.29373 0.84604 0.0
C1290 C 0.41057 0.29366 0.82818 0.0
C1291 C 0.39305 0.27849 0.81946 0.0
C1292 C 0.42942 0.30894 0.81824 0.0
C1293 C 0.4299 0.30928 0.85602 0.0
C1294 C 0.41945 0.32883 0.81889 0.0
C1295 C 0.43677 0.34301 0.80906 0.0
C1296 C 0.46418 0.33748 0.79837 0.0
C1297 C 0.47418 0.31758 0.79778 0.0
C1298 C 0.45683 0.30343 0.80756 0.0
H1299 H 0.43365 0.3048 0.86937 0.0
H1300 H 0.4558 0.31235 0.85029 0.0
H1301 H 0.41493 0.32322 0.85591 0.0
H1302 H 0.39794 0.33334 0.82681 0.0
H1303 H 0.42863 0.35827 0.80973 0.0
H1304 H 0.73578 0.22833 0.67182 0.0
H1305 H 0.70674 0.25108 0.69119 0.0
H1306 H 0.62778 0.26186 0.65378 0.0
H1307 H 0.65597 0.2387 0.63454 0.0
H1308 H 0.69228 0.29107 0.68715 0.0
H1309 H 0.57072 0.24721 0.6956 0.0
H1310 H 0.60957 0.23697 0.68639 0.0
H1311 H 0.58132 0.25213 0.67392 0.0
C1312 C 0.71199 0.23535 0.66778 0.0
C1313 C 0.69813 0.23159 0.65164 0.0
C1314 C 0.69558 0.24846 0.67883 0.0
C1315 C 0.66485 0.25797 0.67402 0.0
C1316 C 0.65114 0.25443 0.65787 0.0
H1317 H 0.56886 0.36125 0.7193 0.0
H1318 H 0.60042 0.33813 0.70109 0.0
C1319 C 0.66753 0.24134 0.64681 0.0
C1320 C 0.64738 0.27181 0.68579 0.0
H1321 H 0.57066 0.28005 0.70634 0.0
C1322 C 0.66573 0.28864 0.6914 0.0
C1323 C 0.61291 0.26847 0.69152 0.0
C1324 C 0.59254 0.25013 0.6867 0.0
C1325 C 0.65027 0.30243 0.70229 0.0
C1326 C 0.61538 0.29945 0.7075 0.0
C1327 C 0.59729 0.28242 0.70218 0.0
C1328 C 0.5972 0.31368 0.71863 0.0
C1329 C 0.67156 0.31991 0.70835 0.0
C1330 C 0.58431 0.3075 0.73436 0.0
C1331 C 0.56619 0.32062 0.74468 0.0
C1332 C 0.56065 0.34018 0.73949 0.0
C1333 C 0.5732 0.34632 0.72367 0.0
C1334 C 0.59139 0.33318 0.71334 0.0
H1335 H 0.69992 0.31745 0.70673 0.0
H1336 H 0.66448 0.33316 0.70091 0.0
H1337 H 0.66625 0.32308 0.72186 0.0
H1338 H 0.58814 0.29247 0.73861 0.0
H1339 H 0.55585 0.31532 0.75658 0.0
H1340 H 0.83339 0.30114 0.15056 0.0
H1341 H 0.86324 0.27462 0.16562 0.0
H1342 H 0.80987 0.29052 0.21149 0.0
H1343 H 0.77919 0.31657 0.19647 0.0
H1344 H 0.90733 0.2786 0.19351 0.0
H1345 H 0.79348 0.23087 0.20905 0.0
H1346 H 0.79164 0.25019 0.19339 0.0
H1347 H 0.78878 0.25616 0.21547 0.0
C1348 C 0.82757 0.29877 0.16379 0.0
C1349 C 0.80387 0.31099 0.1723 0.0
C1350 C 0.84482 0.2837 0.1724 0.0
C1351 C 0.83846 0.28043 0.18963 0.0
C1352 C 0.81473 0.29253 0.19813 0.0
H1353 H 0.92279 0.20289 0.26649 0.0
H1354 H 0.891 0.22801 0.25073 0.0
C1355 C 0.79752 0.30759 0.18956 0.0
C1356 C 0.8577 0.26495 0.19891 0.0
H1357 H 0.8468 0.22326 0.22271 0.0
C1358 C 0.89414 0.26642 0.19979 0.0
C1359 C 0.84041 0.24913 0.20719 0.0
C1360 C 0.80145 0.24633 0.20613 0.0
C1361 C 0.91371 0.25272 0.209 0.0
C1362 C 0.89641 0.23692 0.21729 0.0
C1363 C 0.85999 0.23542 0.21639 0.0
C1364 C 0.91571 0.22166 0.22681 0.0
C1365 C 0.95267 0.25555 0.21008 0.0
C1366 C 0.9398 0.20957 0.21855 0.0
C1367 C 0.95804 0.19523 0.2275 0.0
C1368 C 0.95241 0.19255 0.24491 0.0
C1369 C 0.9279 0.20454 0.25312 0.0
C1370 C 0.90965 0.21891 0.24413 0.0
H1371 H 0.96067 0.27094 0.20696 0.0
H1372 H 0.96236 0.25196 0.22291 0.0
H1373 H 0.96544 0.24552 0.20094 0.0
H1374 H 0.94436 0.21115 0.20513 0.0
H1375 H 0.9765 0.18621 0.22069 0.0
H1376 H 0.80808 0.75474 0.63508 0.0
H1377 H 0.83848 0.77758 0.65408 0.0
H1378 H 0.86403 0.7291 0.68692 0.0
H1379 H 0.83495 0.70602 0.66765 0.0
H1380 H 0.82593 0.78597 0.68755 0.0
H1381 H 0.95848 0.75533 0.67968 0.0
H1382 H 0.92293 0.74887 0.66578 0.0
H1383 H 0.92633 0.73747 0.68619 0.0
C1384 C 0.82059 0.74886 0.64621 0.0
C1385 C 0.81926 0.72847 0.64973 0.0
C1386 C 0.83772 0.76198 0.65713 0.0
C1387 C 0.85401 0.75503 0.67179 0.0
C1388 C 0.85227 0.73476 0.67551 0.0
H1389 H 0.96909 0.81445 0.75248 0.0
H1390 H 0.93674 0.79047 0.73515 0.0
C1391 C 0.83522 0.72161 0.66457 0.0
C1392 C 0.87234 0.76908 0.68326 0.0
H1393 H 0.95163 0.77995 0.70071 0.0
C1394 C 0.85344 0.78468 0.69039 0.0
C1395 C 0.90823 0.76737 0.68699 0.0
C1396 C 0.93031 0.75148 0.67916 0.0
C1397 C 0.86938 0.79851 0.70123 0.0
C1398 C 0.90525 0.79683 0.70488 0.0
C1399 C 0.9241 0.78115 0.6979 0.0
C1400 C 0.92391 0.81147 0.71561 0.0
C1401 C 0.84764 0.81464 0.70891 0.0
C1402 C 0.92765 0.83117 0.7103 0.0
C1403 C 0.94603 0.84486 0.72019 0.0
C1404 C 0.96088 0.83909 0.73559 0.0
C1405 C 0.95737 0.81934 0.74081 0.0
C1406 C 0.93909 0.80563 0.73089 0.0
H1407 H 0.81935 0.81121 0.7081 0.0
H1408 H 0.85468 0.81697 0.72235 0.0
H1409 H 0.85266 0.82868 0.70207 0.0
H1410 H 0.91664 0.8359 0.69841 0.0
H1411 H 0.94838 0.85999 0.71586 0.0
H1412 H 0.64928 0.82631 0.16845 0.0
H1413 H 0.61787 0.80058 0.18412 0.0
H1414 H 0.70352 0.7608 0.17669 0.0
H1415 H 0.73516 0.78647 0.16104 0.0
H1416 H 0.596 0.76301 0.17515 0.0
H1417 H 0.69129 0.75964 0.22765 0.0
H1418 H 0.69179 0.77926 0.21224 0.0
H1419 H 0.71015 0.75561 0.20721 0.0
C1420 C 0.66131 0.81202 0.16999 0.0
C1421 C 0.69486 0.8085 0.16356 0.0
C1422 C 0.64337 0.79736 0.17903 0.0
C1423 C 0.65859 0.77889 0.18187 0.0
C1424 C 0.69161 0.77511 0.17504 0.0
H1425 H 0.59382 0.67182 0.23382 0.0
H1426 H 0.62348 0.69699 0.21675 0.0
C1427 C 0.70964 0.78979 0.16606 0.0
C1428 C 0.63993 0.76363 0.19202 0.0
H1429 H 0.64663 0.73517 0.22746 0.0
C1430 C 0.607 0.75698 0.18662 0.0
C1431 C 0.65425 0.7558 0.20703 0.0
C1432 C 0.68865 0.76306 0.214 0.0
C1433 C 0.58833 0.74245 0.19564 0.0
C1434 C 0.60281 0.73456 0.21055 0.0
C1435 C 0.63567 0.74121 0.21598 0.0
C1436 C 0.58439 0.71932 0.22073 0.0
C1437 C 0.55357 0.73538 0.18897 0.0
C1438 C 0.55274 0.72358 0.22876 0.0
C1439 C 0.53601 0.70929 0.23872 0.0
C1440 C 0.55072 0.69053 0.24085 0.0
C1441 C 0.58223 0.68627 0.23267 0.0
C1442 C 0.59906 0.70058 0.22283 0.0
H1443 H 0.54994 0.73938 0.1755 0.0
H1444 H 0.55077 0.7191 0.19028 0.0
H1445 H 0.53245 0.74235 0.19638 0.0
H1446 H 0.54124 0.73805 0.22753 0.0
H1447 H 0.51187 0.71304 0.24498 0.0
H1448 H 0.35658 0.82239 0.3744 0.0
H1449 H 0.38565 0.80022 0.35453 0.0
H1450 H 0.31409 0.75329 0.36791 0.0
H1451 H 0.28443 0.77544 0.38754 0.0
H1452 H 0.41799 0.76395 0.36194 0.0
H1453 H 0.31042 0.75411 0.31586 0.0
H1454 H 0.31132 0.7739 0.33119 0.0
H1455 H 0.29829 0.74938 0.3374 0.0
C1456 C 0.34674 0.80742 0.37296 0.0
C1457 C 0.31811 0.80071 0.38253 0.0
C1458 C 0.3635 0.79475 0.36166 0.0
C1459 C 0.35176 0.77519 0.35958 0.0
C1460 C 0.32323 0.76842 0.36911 0.0
H1461 H 0.45707 0.67328 0.31963 0.0
H1462 H 0.42774 0.69813 0.33686 0.0
C1463 C 0.30655 0.78105 0.38046 0.0
C1464 C 0.37013 0.76162 0.34792 0.0
H1465 H 0.35864 0.73248 0.31305 0.0
C1466 C 0.40509 0.75716 0.3512 0.0
C1467 C 0.35337 0.75296 0.33379 0.0
C1468 C 0.31637 0.75793 0.3292 0.0
C1469 C 0.42342 0.74381 0.34101 0.0
C1470 C 0.40624 0.73458 0.32728 0.0
C1471 C 0.37162 0.73946 0.32369 0.0
C1472 C 0.42369 0.71952 0.31671 0.0
C1473 C 0.46109 0.73972 0.34495 0.0
C1474 C 0.43055 0.72319 0.2996 0.0
C1475 C 0.44749 0.70905 0.28973 0.0
C1476 C 0.45746 0.69091 0.2968 0.0
C1477 C 0.45002 0.68719 0.31388 0.0
C1478 C 0.4333 0.70136 0.32374 0.0
H1479 H 0.47263 0.75123 0.35332 0.0
H1480 H 0.46294 0.72526 0.35146 0.0
H1481 H 0.47674 0.73892 0.33318 0.0
H1482 H 0.42323 0.73711 0.29394 0.0
H1483 H 0.45307 0.71237 0.27663 0.0
H1484 H 0.18299 0.69777 0.847 0.0
H1485 H 0.15289 0.72344 0.83121 0.0
H1486 H 0.19078 0.7675 0.8662 0.0
H1487 H 0.22062 0.74187 0.88227 0.0
H1488 H 0.10147 0.74981 0.84235 0.0
H1489 H 0.21982 0.78948 0.81966 0.0
H1490 H 0.22118 0.76486 0.82837 0.0
H1491 H 0.21778 0.78589 0.84211 0.0
C1492 C 0.18468 0.71288 0.85148 0.0
C1493 C 0.20429 0.71772 0.86594 0.0
C1494 C 0.1676 0.72755 0.84236 0.0
C1495 C 0.16997 0.7474 0.8474 0.0
C1496 C 0.18918 0.75232 0.8619 0.0
H1497 H 0.03706 0.84333 0.81498 0.0
H1498 H 0.06788 0.81807 0.83086 0.0
C1499 C 0.20624 0.73763 0.87106 0.0
C1500 C 0.15185 0.76287 0.83757 0.0
H1501 H 0.16556 0.80456 0.8141 0.0
C1502 C 0.11545 0.76178 0.83616 0.0
C1503 C 0.17022 0.77831 0.82933 0.0
C1504 C 0.20943 0.7797 0.82977 0.0
C1505 C 0.09687 0.77588 0.82691 0.0
C1506 C 0.11515 0.79163 0.81905 0.0
C1507 C 0.15159 0.79256 0.82025 0.0
C1508 C 0.09689 0.80721 0.80942 0.0
C1509 C 0.05787 0.7736 0.8254 0.0
C1510 C 0.10362 0.80986 0.79215 0.0
C1511 C 0.08613 0.82437 0.783 0.0
C1512 C 0.0617 0.83663 0.79098 0.0
C1513 C 0.05549 0.83412 0.80836 0.0
C1514 C 0.07296 0.8196 0.81748 0.0
H1515 H 0.04904 0.75831 0.8284 0.0
H1516 H 0.04513 0.78379 0.83443 0.0
H1517 H 0.04895 0.77739 0.81249 0.0
H1518 H 0.12214 0.80052 0.78571 0.0
H1519 H 0.0917 0.8259 0.76966 0.0
loop_
_geom_bond_atom_site_label_1
_geom_bond_atom_site_label_2
_geom_bond_distance
_geom_bond_site_symmetry_2
_ccdc_geom_bond_type
C0 C1 1.264 . S
C0 C5 1.479 . S
C0 C10 1.465 . S
C1 C0 1.264 . S
C1 C3 1.339 . S
C1 H28 0.931 . S
C2 C3 1.395 . S
C2 C4 1.320 . S
C3 C1 1.339 . S
C3 C2 1.395 . S
C3 H29 0.929 . S
C4 C2 1.320 . S
C4 C5 1.405 . S
C4 H30 0.930 . S
C5 C0 1.479 . S
C5 C4 1.405 . S
C5 H31 0.931 . S
U6 O7 2.454 . S
U6 O8 2.458 . S
U6 C9 2.984 . S
U6 C10 2.847 . S
U6 C23 2.882 . S
U6 O24 2.441 . S
U6 O25 2.420 . S
U6 O26 2.455 . S
U6 O27 2.449 . S
O7 U6 2.454 . S
O7 C9 1.353 . S
O8 U6 2.458 . S
O8 C9 1.286 . S
C9 U6 2.984 . S
C9 O7 1.353 . S
C9 O8 1.286 . S
C9 C11 1.363 . S
C10 C0 1.465 . S
C10 U6 2.847 . S
C10 O24 1.249 . S
C10 O25 1.202 . S
C11 C9 1.363 . S
C11 C13 1.408 . S
C11 C16 1.342 . S
C12 C13 1.310 . S
C12 C15 1.461 . S
C12 H32 0.932 . S
C13 C11 1.408 . S
C13 C12 1.310 . S
C13 H33 0.930 . S
C14 C15 1.474 . S
C14 C16 1.285 . S
C14 H34 0.929 . S
C15 C12 1.461 . S
C15 C14 1.474 . S
C16 C11 1.342 . S
C16 C14 1.285 . S
C16 H35 0.930 . S
C17 C20 1.424 . S
C17 C22 1.245 . S
C17 C23 1.428 . S
C18 C21 1.260 . S
C18 C22 1.477 . S
C18 H36 0.932 . S
C19 C20 1.384 . S
C19 C21 1.479 . S
C19 H37 0.929 . S
C20 C17 1.424 . S
C20 C19 1.384 . S
C20 H38 0.928 . S
C21 C18 1.260 . S
C21 C19 1.479 . S
C22 C17 1.245 . S
C22 C18 1.477 . S
C22 H39 0.932 . S
C23 U6 2.882 . S
C23 C17 1.428 . S
C23 O26 1.301 . S
C23 O27 1.282 . S
O24 U6 2.441 . S
O24 C10 1.249 . S
O25 U6 2.420 . S
O25 C10 1.202 . S
O26 U6 2.455 . S
O26 C23 1.301 . S
O27 U6 2.449 . S
O27 C23 1.282 . S
H28 C1 0.931 . S
H29 C3 0.929 . S
H30 C4 0.930 . S
H31 C5 0.931 . S
H32 C12 0.932 . S
H33 C13 0.930 . S
H34 C14 0.929 . S
H35 C16 0.930 . S
H36 C18 0.932 . S
H37 C19 0.929 . S
H38 C20 0.928 . S
H39 C22 0.932 . S
C40 C41 1.264 . S
C40 C45 1.479 . S
C40 C50 1.465 . S
C41 C40 1.264 . S
C41 C43 1.339 . S
C41 H68 0.931 . S
C42 C43 1.395 . S
C42 C44 1.320 . S
C43 C41 1.339 . S
C43 C42 1.395 . S
C43 H69 0.929 . S
C44 C42 1.320 . S
C44 C45 1.405 . S
C44 H70 0.930 . S
C45 C40 1.479 . S
C45 C44 1.405 . S
C45 H71 0.931 . S
U46 O47 2.454 . S
U46 O48 2.458 . S
U46 C49 2.984 . S
U46 C50 2.847 . S
U46 C63 2.882 . S
U46 O64 2.441 . S
U46 O65 2.420 . S
U46 O66 2.455 . S
U46 O67 2.449 . S
O47 U46 2.454 . S
O47 C49 1.353 . S
O48 U46 2.458 . S
O48 C49 1.286 . S
C49 U46 2.984 . S
C49 O47 1.353 . S
C49 O48 1.286 . S
C49 C51 1.363 . S
C50 C40 1.465 . S
C50 U46 2.847 . S
C50 O64 1.249 . S
C50 O65 1.202 . S
C51 C49 1.363 . S
C51 C53 1.408 . S
C51 C56 1.342 . S
C52 C53 1.310 . S
C52 C55 1.461 . S
C52 H72 0.932 . S
C53 C51 1.408 . S
C53 C52 1.310 . S
C53 H73 0.930 . S
C54 C55 1.474 . S
C54 C56 1.285 . S
C54 H74 0.929 . S
C55 C52 1.461 . S
C55 C54 1.474 . S
C56 C51 1.342 . S
C56 C54 1.285 . S
C56 H75 0.930 . S
C57 C60 1.424 . S
C57 C62 1.245 . S
C57 C63 1.428 . S
C58 C61 1.260 . S
C58 C62 1.477 . S
C58 H76 0.932 . S
C59 C60 1.384 . S
C59 C61 1.479 . S
C59 H77 0.929 . S
C60 C57 1.424 . S
C60 C59 1.384 . S
C60 H78 0.928 . S
C61 C58 1.260 . S
C61 C59 1.479 . S
C62 C57 1.245 . S
C62 C58 1.477 . S
C62 H79 0.932 . S
C63 U46 2.882 . S
C63 C57 1.428 . S
C63 O66 1.301 . S
C63 O67 1.282 . S
O64 U46 2.441 . S
O64 C50 1.249 . S
O65 U46 2.420 . S
O65 C50 1.202 . S
O66 U46 2.455 . S
O66 C63 1.301 . S
O67 U46 2.449 . S
O67 C63 1.282 . S
H68 C41 0.931 . S
H69 C43 0.929 . S
H70 C44 0.930 . S
H71 C45 0.931 . S
H72 C52 0.932 . S
H73 C53 0.930 . S
H74 C54 0.929 . S
H75 C56 0.930 . S
H76 C58 0.932 . S
H77 C59 0.929 . S
H78 C60 0.928 . S
H79 C62 0.932 . S
C80 C81 1.264 . S
C80 C85 1.479 . S
C80 C90 1.465 . S
C81 C80 1.264 . S
C81 C83 1.339 . S
C81 H108 0.931 . S
C82 C83 1.395 . S
C82 C84 1.320 . S
C83 C81 1.339 . S
C83 C82 1.395 . S
C83 H109 0.929 . S
C84 C82 1.320 . S
C84 C85 1.405 . S
C84 H110 0.930 . S
C85 C80 1.479 . S
C85 C84 1.405 . S
C85 H111 0.931 . S
U86 O87 2.454 . S
U86 O88 2.458 . S
U86 C89 2.984 . S
U86 C90 2.847 . S
U86 C103 2.882 . S
U86 O104 2.441 . S
U86 O105 2.420 . S
U86 O106 2.455 . S
U86 O107 2.449 . S
O87 U86 2.454 . S
O87 C89 1.353 . S
O88 U86 2.458 . S
O88 C89 1.286 . S
C89 U86 2.984 . S
C89 O87 1.353 . S
C89 O88 1.286 . S
C89 C91 1.363 . S
C90 C80 1.465 . S
C90 U86 2.847 . S
C90 O104 1.249 . S
C90 O105 1.202 . S
C91 C89 1.363 . S
C91 C93 1.408 . S
C91 C96 1.342 . S
C92 C93 1.310 . S
C92 C95 1.461 . S
C92 H112 0.932 . S
C93 C91 1.408 . S
C93 C92 1.310 . S
C93 H113 0.930 . S
C94 C95 1.474 . S
C94 C96 1.285 . S
C94 H114 0.929 . S
C95 C92 1.461 . S
C95 C94 1.474 . S
C96 C91 1.342 . S
C96 C94 1.285 . S
C96 H115 0.930 . S
C97 C100 1.424 . S
C97 C102 1.245 . S
C97 C103 1.428 . S
C98 C101 1.260 . S
C98 C102 1.477 . S
C98 H116 0.932 . S
C99 C100 1.384 . S
C99 C101 1.479 . S
C99 H117 0.929 . S
C100 C97 1.424 . S
C100 C99 1.384 . S
C100 H118 0.928 . S
C101 C98 1.260 . S
C101 C99 1.479 . S
C102 C97 1.245 . S
C102 C98 1.477 . S
C102 H119 0.932 . S
C103 U86 2.882 . S
C103 C97 1.428 . S
C103 O106 1.301 . S
C103 O107 1.282 . S
O104 U86 2.441 . S
O104 C90 1.249 . S
O105 U86 2.420 . S
O105 C90 1.202 . S
O106 U86 2.455 . S
O106 C103 1.301 . S
O107 U86 2.449 . S
O107 C103 1.282 . S
H108 C81 0.931 . S
H109 C83 0.929 . S
H110 C84 0.930 . S
H111 C85 0.931 . S
H112 C92 0.932 . S
H113 C93 0.930 . S
H114 C94 0.929 . S
H115 C96 0.930 . S
H116 C98 0.932 . S
H117 C99 0.929 . S
H118 C100 0.928 . S
H119 C102 0.932 . S
C120 C121 1.264 . S
C120 C125 1.479 . S
C120 C130 1.465 . S
C121 C120 1.264 . S
C121 C123 1.339 . S
C121 H148 0.931 . S
C122 C123 1.395 . S
C122 C124 1.320 . S
C123 C121 1.339 . S
C123 C122 1.395 . S
C123 H149 0.929 . S
C124 C122 1.320 . S
C124 C125 1.405 . S
C124 H150 0.930 . S
C125 C120 1.479 . S
C125 C124 1.405 . S
C125 H151 0.931 . S
U126 O127 2.454 . S
U126 O128 2.458 . S
U126 C129 2.984 . S
U126 C130 2.847 . S
U126 C143 2.882 . S
U126 O144 2.441 . S
U126 O145 2.420 . S
U126 O146 2.455 . S
U126 O147 2.449 . S
O127 U126 2.454 . S
O127 C129 1.353 . S
O128 U126 2.458 . S
O128 C129 1.286 . S
C129 U126 2.984 . S
C129 O127 1.353 . S
C129 O128 1.286 . S
C129 C131 1.363 . S
C130 C120 1.465 . S
C130 U126 2.847 . S
C130 O144 1.249 . S
C130 O145 1.202 . S
C131 C129 1.363 . S
C131 C133 1.408 . S
C131 C136 1.342 . S
C132 C133 1.310 . S
C132 C135 1.461 . S
C132 H152 0.932 . S
C133 C131 1.408 . S
C133 C132 1.310 . S
C133 H153 0.930 . S
C134 C135 1.474 . S
C134 C136 1.285 . S
C134 H154 0.929 . S
C135 C132 1.461 . S
C135 C134 1.474 . S
C136 C131 1.342 . S
C136 C134 1.285 . S
C136 H155 0.930 . S
C137 C140 1.424 . S
C137 C142 1.245 . S
C137 C143 1.428 . S
C138 C141 1.260 . S
C138 C142 1.477 . S
C138 H156 0.932 . S
C139 C140 1.384 . S
C139 C141 1.479 . S
C139 H157 0.929 . S
C140 C137 1.424 . S
C140 C139 1.384 . S
C140 H158 0.928 . S
C141 C138 1.260 . S
C141 C139 1.479 . S
C142 C137 1.245 . S
C142 C138 1.477 . S
C142 H159 0.932 . S
C143 U126 2.882 . S
C143 C137 1.428 . S
C143 O146 1.301 . S
C143 O147 1.282 . S
O144 U126 2.441 . S
O144 C130 1.249 . S
O145 U126 2.420 . S
O145 C130 1.202 . S
O146 U126 2.455 . S
O146 C143 1.301 . S
O147 U126 2.449 . S
O147 C143 1.282 . S
H148 C121 0.931 . S
H149 C123 0.929 . S
H150 C124 0.930 . S
H151 C125 0.931 . S
H152 C132 0.932 . S
H153 C133 0.930 . S
H154 C134 0.929 . S
H155 C136 0.930 . S
H156 C138 0.932 . S
H157 C139 0.929 . S
H158 C140 0.928 . S
H159 C142 0.932 . S
C160 C161 1.264 . S
C160 C165 1.479 . S
C160 C170 1.465 . S
C161 C160 1.264 . S
C161 C163 1.339 . S
C161 H188 0.931 . S
C162 C163 1.395 . S
C162 C164 1.320 . S
C163 C161 1.339 . S
C163 C162 1.395 . S
C163 H189 0.929 . S
C164 C162 1.320 . S
C164 C165 1.405 . S
C164 H190 0.930 . S
C165 C160 1.479 . S
C165 C164 1.405 . S
C165 H191 0.931 . S
U166 O167 2.454 . S
U166 O168 2.458 . S
U166 C169 2.984 . S
U166 C170 2.847 . S
U166 C183 2.882 . S
U166 O184 2.441 . S
U166 O185 2.420 . S
U166 O186 2.455 . S
U166 O187 2.449 . S
O167 U166 2.454 . S
O167 C169 1.353 . S
O168 U166 2.458 . S
O168 C169 1.286 . S
C169 U166 2.984 . S
C169 O167 1.353 . S
C169 O168 1.286 . S
C169 C171 1.363 . S
C170 C160 1.465 . S
C170 U166 2.847 . S
C170 O184 1.249 . S
C170 O185 1.202 . S
C171 C169 1.363 . S
C171 C173 1.408 . S
C171 C176 1.342 . S
C172 C173 1.310 . S
C172 C175 1.461 . S
C172 H192 0.932 . S
C173 C171 1.408 . S
C173 C172 1.310 . S
C173 H193 0.930 . S
C174 C175 1.474 . S
C174 C176 1.285 . S
C174 H194 0.929 . S
C175 C172 1.461 . S
C175 C174 1.474 . S
C176 C171 1.342 . S
C176 C174 1.285 . S
C176 H195 0.930 . S
C177 C180 1.424 . S
C177 C182 1.245 . S
C177 C183 1.428 . S
C178 C181 1.260 . S
C178 C182 1.477 . S
C178 H196 0.932 . S
C179 C180 1.384 . S
C179 C181 1.479 . S
C179 H197 0.929 . S
C180 C177 1.424 . S
C180 C179 1.384 . S
C180 H198 0.928 . S
C181 C178 1.260 . S
C181 C179 1.479 . S
C182 C177 1.245 . S
C182 C178 1.477 . S
C182 H199 0.932 . S
C183 U166 2.882 . S
C183 C177 1.428 . S
C183 O186 1.301 . S
C183 O187 1.282 . S
O184 U166 2.441 . S
O184 C170 1.249 . S
O185 U166 2.420 . S
O185 C170 1.202 . S
O186 U166 2.455 . S
O186 C183 1.301 . S
O187 U166 2.449 . S
O187 C183 1.282 . S
H188 C161 0.931 . S
H189 C163 0.929 . S
H190 C164 0.930 . S
H191 C165 0.931 . S
H192 C172 0.932 . S
H193 C173 0.930 . S
H194 C174 0.929 . S
H195 C176 0.930 . S
H196 C178 0.932 . S
H197 C179 0.929 . S
H198 C180 0.928 . S
H199 C182 0.932 . S
C200 C201 1.264 . S
C200 C205 1.479 . S
C200 C210 1.465 . S
C201 C200 1.264 . S
C201 C203 1.339 . S
C201 H228 0.931 . S
C202 C203 1.391 . S
C202 C204 1.318 . S
C203 C201 1.339 . S
C203 C202 1.391 . S
C203 H229 0.929 . S
C204 C202 1.318 . S
C204 C205 1.405 . S
C204 H230 0.934 . S
C205 C200 1.479 . S
C205 C204 1.405 . S
C205 H231 0.931 . S
U206 O207 2.454 . S
U206 O208 2.458 . S
U206 C209 2.984 . S
U206 C210 2.847 . S
U206 C223 2.882 . S
U206 O224 2.441 . S
U206 O225 2.420 . S
U206 O226 2.455 . S
U206 O227 2.449 . S
O207 U206 2.454 . S
O207 C209 1.353 . S
O208 U206 2.458 . S
O208 C209 1.286 . S
C209 U206 2.984 . S
C209 O207 1.353 . S
C209 O208 1.286 . S
C209 C211 1.363 . S
C210 C200 1.465 . S
C210 U206 2.847 . S
C210 O224 1.249 . S
C210 O225 1.202 . S
C211 C209 1.363 . S
C211 C213 1.408 . S
C211 C216 1.342 . S
C212 C213 1.310 . S
C212 C215 1.461 . S
C212 H232 0.932 . S
C213 C211 1.408 . S
C213 C212 1.310 . S
C213 H233 0.930 . S
C214 C215 1.474 . S
C214 C216 1.285 . S
C214 H234 0.929 . S
C215 C212 1.461 . S
C215 C214 1.474 . S
C216 C211 1.342 . S
C216 C214 1.285 . S
C216 H235 0.930 . S
C217 C220 1.424 . S
C217 C222 1.245 . S
C217 C223 1.428 . S
C218 C221 1.260 . S
C218 C222 1.477 . S
C218 H236 0.932 . S
C219 C220 1.384 . S
C219 C221 1.479 . S
C219 H237 0.929 . S
C220 C217 1.424 . S
C220 C219 1.384 . S
C220 H238 0.928 . S
C221 C218 1.260 . S
C221 C219 1.479 . S
C222 C217 1.245 . S
C222 C218 1.477 . S
C222 H239 0.932 . S
C223 U206 2.882 . S
C223 C217 1.428 . S
C223 O226 1.301 . S
C223 O227 1.282 . S
O224 U206 2.441 . S
O224 C210 1.249 . S
O225 U206 2.420 . S
O225 C210 1.202 . S
O226 U206 2.455 . S
O226 C223 1.301 . S
O227 U206 2.449 . S
O227 C223 1.282 . S
H228 C201 0.931 . S
H229 C203 0.929 . S
H230 C204 0.934 . S
H231 C205 0.931 . S
H232 C212 0.932 . S
H233 C213 0.930 . S
H234 C214 0.929 . S
H235 C216 0.930 . S
H236 C218 0.932 . S
H237 C219 0.929 . S
H238 C220 0.928 . S
H239 C222 0.932 . S
C240 C241 1.264 . S
C240 C245 1.479 . S
C240 C250 1.465 . S
C241 C240 1.264 . S
C241 C243 1.339 . S
C241 H268 0.931 . S
C242 C243 1.395 . S
C242 C244 1.320 . S
C243 C241 1.339 . S
C243 C242 1.395 . S
C243 H269 0.929 . S
C244 C242 1.320 . S
C244 C245 1.405 . S
C244 H270 0.930 . S
C245 C240 1.479 . S
C245 C244 1.405 . S
C245 H271 0.931 . S
U246 O247 2.454 . S
U246 O248 2.458 . S
U246 C249 2.984 . S
U246 C250 2.847 . S
U246 C263 2.882 . S
U246 O264 2.441 . S
U246 O265 2.420 . S
U246 O266 2.455 . S
U246 O267 2.449 . S
O247 U246 2.454 . S
O247 C249 1.353 . S
O248 U246 2.458 . S
O248 C249 1.286 . S
C249 U246 2.984 . S
C249 O247 1.353 . S
C249 O248 1.286 . S
C249 C251 1.363 . S
C250 C240 1.465 . S
C250 U246 2.847 . S
C250 O264 1.249 . S
C250 O265 1.202 . S
C251 C249 1.363 . S
C251 C253 1.408 . S
C251 C256 1.342 . S
C252 C253 1.310 . S
C252 C255 1.461 . S
C252 H272 0.932 . S
C253 C251 1.408 . S
C253 C252 1.310 . S
C253 H273 0.930 . S
C254 C255 1.474 . S
C254 C256 1.285 . S
C254 H274 0.929 . S
C255 C252 1.461 . S
C255 C254 1.474 . S
C256 C251 1.342 . S
C256 C254 1.285 . S
C256 H275 0.930 . S
C257 C260 1.424 . S
C257 C262 1.245 . S
C257 C263 1.428 . S
C258 C261 1.260 . S
C258 C262 1.477 . S
C258 H276 0.932 . S
C259 C260 1.384 . S
C259 C261 1.479 . S
C259 H277 0.929 . S
C260 C257 1.424 . S
C260 C259 1.384 . S
C260 H278 0.928 . S
C261 C258 1.260 . S
C261 C259 1.479 . S
C262 C257 1.245 . S
C262 C258 1.477 . S
C262 H279 0.932 . S
C263 U246 2.882 . S
C263 C257 1.428 . S
C263 O266 1.301 . S
C263 O267 1.282 . S
O264 U246 2.441 . S
O264 C250 1.249 . S
O265 U246 2.420 . S
O265 C250 1.202 . S
O266 U246 2.455 . S
O266 C263 1.301 . S
O267 U246 2.449 . S
O267 C263 1.282 . S
H268 C241 0.931 . S
H269 C243 0.929 . S
H270 C244 0.930 . S
H271 C245 0.931 . S
H272 C252 0.932 . S
H273 C253 0.930 . S
H274 C254 0.929 . S
H275 C256 0.930 . S
H276 C258 0.932 . S
H277 C259 0.929 . S
H278 C260 0.928 . S
H279 C262 0.932 . S
C280 C281 1.264 . S
C280 C285 1.479 . S
C280 C290 1.465 . S
C281 C280 1.264 . S
C281 C283 1.339 . S
C281 H308 0.931 . S
C282 C283 1.395 . S
C282 C284 1.320 . S
C283 C281 1.339 . S
C283 C282 1.395 . S
C283 H309 0.929 . S
C284 C282 1.320 . S
C284 C285 1.405 . S
C284 H310 0.930 . S
C285 C280 1.479 . S
C285 C284 1.405 . S
C285 H311 0.931 . S
U286 O287 2.454 . S
U286 O288 2.458 . S
U286 C289 2.984 . S
U286 C290 2.847 . S
U286 C303 2.882 . S
U286 O304 2.441 . S
U286 O305 2.420 . S
U286 O306 2.455 . S
U286 O307 2.449 . S
O287 U286 2.454 . S
O287 C289 1.353 . S
O288 U286 2.458 . S
O288 C289 1.286 . S
C289 U286 2.984 . S
C289 O287 1.353 . S
C289 O288 1.286 . S
C289 C291 1.363 . S
C290 C280 1.465 . S
C290 U286 2.847 . S
C290 O304 1.249 . S
C290 O305 1.202 . S
C291 C289 1.363 . S
C291 C293 1.408 . S
C291 C296 1.342 . S
C292 C293 1.310 . S
C292 C295 1.461 . S
C292 H312 0.932 . S
C293 C291 1.408 . S
C293 C292 1.310 . S
C293 H313 0.930 . S
C294 C295 1.474 . S
C294 C296 1.285 . S
C294 H314 0.929 . S
C295 C292 1.461 . S
C295 C294 1.474 . S
C296 C291 1.342 . S
C296 C294 1.285 . S
C296 H315 0.930 . S
C297 C300 1.424 . S
C297 C302 1.245 . S
C297 C303 1.428 . S
C298 C301 1.260 . S
C298 C302 1.477 . S
C298 H316 0.932 . S
C299 C300 1.384 . S
C299 C301 1.479 . S
C299 H317 0.929 . S
C300 C297 1.424 . S
C300 C299 1.384 . S
C300 H318 0.928 . S
C301 C298 1.260 . S
C301 C299 1.479 . S
C302 C297 1.245 . S
C302 C298 1.477 . S
C302 H319 0.932 . S
C303 U286 2.882 . S
C303 C297 1.428 . S
C303 O306 1.301 . S
C303 O307 1.282 . S
O304 U286 2.441 . S
O304 C290 1.249 . S
O305 U286 2.420 . S
O305 C290 1.202 . S
O306 U286 2.455 . S
O306 C303 1.301 . S
O307 U286 2.449 . S
O307 C303 1.282 . S
H308 C281 0.931 . S
H309 C283 0.929 . S
H310 C284 0.930 . S
H311 C285 0.931 . S
H312 C292 0.932 . S
H313 C293 0.930 . S
H314 C294 0.929 . S
H315 C296 0.930 . S
H316 C298 0.932 . S
H317 C299 0.929 . S
H318 C300 0.928 . S
H319 C302 0.932 . S
C320 C322 1.422 . S
C320 C324 1.415 . S
C320 N326 1.369 . S
C321 C322 1.421 . S
C321 C323 1.417 . S
C321 C333 1.422 . S
C322 C320 1.422 . S
C322 C321 1.421 . S
C322 N332 1.359 . S
C323 C321 1.417 . S
C323 C325 1.329 . S
C323 H342 0.930 . S
C324 C320 1.415 . S
C324 C325 1.437 . S
C324 C328 1.413 . S
C325 C323 1.329 . S
C325 C324 1.437 . S
C325 H347 0.929 . S
N326 C320 1.369 . S
N326 C327 1.338 . S
N326 Gd331 2.622 . S
C327 N326 1.338 . S
C327 C329 1.378 . S
C327 H339 0.929 . S
C328 C324 1.413 . S
C328 C329 1.348 . S
C328 H344 0.931 . S
C329 C327 1.378 . S
C329 C328 1.348 . S
C329 H345 0.930 . S
Gd330 N350 2.622 . S
Gd330 N357 2.570 . S
Gd330 O364 2.353 . S
Gd330 O365 2.468 . S
Gd330 O366 2.427 . S
Gd330 O368 2.388 . S
Gd330 O369 2.386 . S
Gd330 O373 2.310 1_455 S
Gd330 C383 2.805 . S
Gd331 N326 2.622 . S
Gd331 N332 2.570 . S
Gd331 O363 2.386 . S
Gd331 O367 2.307 1_655 S
Gd331 O370 2.365 . S
Gd331 O371 2.468 . S
Gd331 O372 2.427 . S
Gd331 O374 2.388 . S
Gd331 C395 2.805 . S
N332 C322 1.359 . S
N332 Gd331 2.570 . S
N332 C334 1.343 . S
C333 C321 1.422 . S
C333 C335 1.321 . S
C333 H341 0.931 . S
C334 N332 1.343 . S
C334 C335 1.390 . S
C334 H336 0.931 . S
C335 C333 1.321 . S
C335 C334 1.390 . S
C335 H337 0.930 . S
H336 C334 0.931 . S
H337 C335 0.930 . S
H338 C361 0.931 . S
H339 C327 0.929 . S
H340 C362 0.930 . S
H341 C333 0.931 . S
H342 C323 0.930 . S
H343 C352 0.929 . S
H344 C328 0.931 . S
H345 C329 0.930 . S
H346 C384 0.930 . S
H347 C325 0.929 . S
H348 C353 0.931 . S
H349 C354 0.930 . S
N350 Gd330 2.622 . S
N350 C351 1.369 . S
N350 C352 1.338 . S
C351 N350 1.369 . S
C351 C355 1.415 . S
C351 C358 1.422 . S
C352 H343 0.929 . S
C352 N350 1.338 . S
C352 C354 1.378 . S
C353 H348 0.931 . S
C353 C354 1.348 . S
C353 C355 1.413 . S
C354 H349 0.930 . S
C354 C352 1.378 . S
C354 C353 1.348 . S
C355 C351 1.415 . S
C355 C353 1.413 . S
C355 C385 1.437 . S
H356 C385 0.929 . S
N357 Gd330 2.570 . S
N357 C358 1.359 . S
N357 C361 1.343 . S
C358 C351 1.422 . S
C358 N357 1.359 . S
C358 C360 1.421 . S
C359 C360 1.422 . S
C359 C362 1.321 . S
C359 H386 0.931 . S
C360 C358 1.421 . S
C360 C359 1.422 . S
C360 C384 1.417 . S
C361 H338 0.931 . S
C361 N357 1.343 . S
C361 C362 1.390 . S
C362 H340 0.930 . S
C362 C359 1.321 . S
C362 C361 1.390 . S
O363 Gd331 2.386 . S
O363 C375 1.265 . S
O364 Gd330 2.353 . S
O364 C375 1.242 1_455 S
O365 Gd330 2.468 . S
O365 C383 1.263 . S
O366 Gd330 2.427 . S
O366 C383 1.252 . S
O367 Gd331 2.307 1_455 S
O367 C376 1.261 . S
O368 Gd330 2.388 . S
O368 C376 1.252 . S
O369 Gd330 2.386 . S
O369 C387 1.265 . S
O370 Gd331 2.365 . S
O370 C387 1.226 1_655 S
O371 Gd331 2.468 . S
O371 C395 1.263 . S
O372 Gd331 2.427 . S
O372 C395 1.252 . S
O373 Gd330 2.310 1_655 S
O373 C388 1.258 . S
O374 Gd331 2.388 . S
O374 C388 1.252 . S
C375 O363 1.265 . S
C375 O364 1.242 1_655 S
C376 O367 1.261 . S
C376 O368 1.252 . S
C377 C380 1.394 . S
C377 C382 1.370 . S
C377 C383 1.500 . S
C378 C381 1.383 . S
C378 C382 1.395 . S
C379 C380 1.396 . S
C379 C381 1.365 . S
C379 H396 0.929 . S
C380 C377 1.394 . S
C380 C379 1.396 . S
C380 H397 0.930 . S
C381 C378 1.383 . S
C381 C379 1.365 . S
C381 H398 0.931 . S
C382 C377 1.370 . S
C382 C378 1.395 . S
C382 H399 0.930 . S
C383 Gd330 2.805 . S
C383 O365 1.263 . S
C383 O366 1.252 . S
C383 C377 1.500 . S
C384 H346 0.930 . S
C384 C360 1.417 . S
C384 C385 1.329 . S
C385 C355 1.437 . S
C385 H356 0.929 . S
C385 C384 1.329 . S
H386 C359 0.931 . S
C387 O369 1.265 . S
C387 O370 1.226 1_455 S
C388 O373 1.258 . S
C388 O374 1.252 . S
C389 C392 1.394 . S
C389 C394 1.370 . S
C389 C395 1.500 . S
C390 C393 1.383 . S
C390 C394 1.395 . S
C391 C392 1.396 . S
C391 C393 1.365 . S
C391 H400 0.929 . S
C392 C389 1.394 . S
C392 C391 1.396 . S
C392 H401 0.930 . S
C393 C390 1.383 . S
C393 C391 1.365 . S
C393 H402 0.931 . S
C394 C389 1.370 . S
C394 C390 1.395 . S
C394 H403 0.930 . S
C395 Gd331 2.805 . S
C395 O371 1.263 . S
C395 O372 1.252 . S
C395 C389 1.500 . S
H396 C379 0.929 . S
H397 C380 0.930 . S
H398 C381 0.931 . S
H399 C382 0.930 . S
H400 C391 0.929 . S
H401 C392 0.930 . S
H402 C393 0.931 . S
H403 C394 0.930 . S
C404 C406 1.422 . S
C404 C408 1.415 . S
C404 N410 1.369 . S
C405 C406 1.421 . S
C405 C407 1.417 . S
C405 C417 1.422 . S
C406 C404 1.422 . S
C406 C405 1.421 . S
C406 N416 1.359 . S
C407 C405 1.417 . S
C407 C409 1.329 . S
C407 H426 0.930 . S
C408 C404 1.415 . S
C408 C409 1.437 . S
C408 C412 1.413 . S
C409 C407 1.329 . S
C409 C408 1.437 . S
C409 H431 0.929 . S
N410 C404 1.369 . S
N410 C411 1.338 . S
N410 Gd415 2.622 . S
C411 N410 1.338 . S
C411 C413 1.378 . S
C411 H423 0.929 . S
C412 C408 1.413 . S
C412 C413 1.348 . S
C412 H428 0.931 . S
C413 C411 1.378 . S
C413 C412 1.348 . S
C413 H429 0.930 . S
Gd414 N434 2.622 . S
Gd414 N441 2.570 . S
Gd414 O448 2.353 . S
Gd414 O449 2.468 . S
Gd414 O450 2.427 . S
Gd414 O452 2.388 . S
Gd414 O453 2.386 . S
Gd414 O457 2.307 . S
Gd414 C467 2.805 . S
Gd415 N410 2.622 . S
Gd415 N416 2.570 . S
Gd415 O447 2.386 . S
Gd415 O451 2.307 . S
Gd415 O454 2.353 . S
Gd415 O455 2.468 . S
Gd415 O456 2.427 . S
Gd415 O458 2.388 . S
Gd415 C479 2.805 . S
N416 C406 1.359 . S
N416 Gd415 2.570 . S
N416 C418 1.343 . S
C417 C405 1.422 . S
C417 C419 1.321 . S
C417 H425 0.931 . S
C418 N416 1.343 . S
C418 C419 1.390 . S
C418 H420 0.931 . S
C419 C417 1.321 . S
C419 C418 1.390 . S
C419 H421 0.930 . S
H420 C418 0.931 . S
H421 C419 0.930 . S
H422 C445 0.931 . S
H423 C411 0.929 . S
H424 C446 0.930 . S
H425 C417 0.931 . S
H426 C407 0.930 . S
H427 C436 0.929 . S
H428 C412 0.931 . S
H429 C413 0.930 . S
H430 C468 0.930 . S
H431 C409 0.929 . S
H432 C437 0.931 . S
H433 C438 0.930 . S
N434 Gd414 2.622 . S
N434 C435 1.369 . S
N434 C436 1.338 . S
C435 N434 1.369 . S
C435 C439 1.415 . S
C435 C442 1.422 . S
C436 H427 0.929 . S
C436 N434 1.338 . S
C436 C438 1.378 . S
C437 H432 0.931 . S
C437 C438 1.348 . S
C437 C439 1.413 . S
C438 H433 0.930 . S
C438 C436 1.378 . S
C438 C437 1.348 . S
C439 C435 1.415 . S
C439 C437 1.413 . S
C439 C469 1.437 . S
H440 C469 0.929 . S
N441 Gd414 2.570 . S
N441 C442 1.359 . S
N441 C445 1.343 . S
C442 C435 1.422 . S
C442 N441 1.359 . S
C442 C444 1.421 . S
C443 C444 1.422 . S
C443 C446 1.321 . S
C443 H470 0.931 . S
C444 C442 1.421 . S
C444 C443 1.422 . S
C444 C468 1.417 . S
C445 H422 0.931 . S
C445 N441 1.343 . S
C445 C446 1.390 . S
C446 H424 0.930 . S
C446 C443 1.321 . S
C446 C445 1.390 . S
O447 Gd415 2.386 . S
O447 C459 1.265 . S
O448 Gd414 2.353 . S
O448 C459 1.242 . S
O449 Gd414 2.468 . S
O449 C467 1.263 . S
O450 Gd414 2.427 . S
O450 C467 1.252 . S
O451 Gd415 2.307 . S
O451 C460 1.261 . S
O452 Gd414 2.388 . S
O452 C460 1.252 . S
O453 Gd414 2.386 . S
O453 C471 1.265 . S
O454 Gd415 2.353 . S
O454 C471 1.242 . S
O455 Gd415 2.468 . S
O455 C479 1.263 . S
O456 Gd415 2.427 . S
O456 C479 1.252 . S
O457 Gd414 2.307 . S
O457 C472 1.261 . S
O458 Gd415 2.388 . S
O458 C472 1.252 . S
C459 O447 1.265 . S
C459 O448 1.242 . S
C460 O451 1.261 . S
C460 O452 1.252 . S
C461 C464 1.394 . S
C461 C466 1.370 . S
C461 C467 1.500 . S
C462 C465 1.383 . S
C462 C466 1.395 . S
C463 C464 1.396 . S
C463 C465 1.365 . S
C463 H480 0.929 . S
C464 C461 1.394 . S
C464 C463 1.396 . S
C464 H481 0.930 . S
C465 C462 1.383 . S
C465 C463 1.365 . S
C465 H482 0.931 . S
C466 C461 1.370 . S
C466 C462 1.395 . S
C466 H483 0.930 . S
C467 Gd414 2.805 . S
C467 O449 1.263 . S
C467 O450 1.252 . S
C467 C461 1.500 . S
C468 H430 0.930 . S
C468 C444 1.417 . S
C468 C469 1.329 . S
C469 C439 1.437 . S
C469 H440 0.929 . S
C469 C468 1.329 . S
H470 C443 0.931 . S
C471 O453 1.265 . S
C471 O454 1.242 . S
C472 O457 1.261 . S
C472 O458 1.252 . S
C473 C476 1.394 . S
C473 C478 1.370 . S
C473 C479 1.500 . S
C474 C477 1.383 . S
C474 C478 1.395 . S
C475 C476 1.396 . S
C475 C477 1.365 . S
C475 H484 0.929 . S
C476 C473 1.394 . S
C476 C475 1.396 . S
C476 H485 0.930 . S
C477 C474 1.383 . S
C477 C475 1.365 . S
C477 H486 0.931 . S
C478 C473 1.370 . S
C478 C474 1.395 . S
C478 H487 0.930 . S
C479 Gd415 2.805 . S
C479 O455 1.263 . S
C479 O456 1.252 . S
C479 C473 1.500 . S
H480 C463 0.929 . S
H481 C464 0.930 . S
H482 C465 0.931 . S
H483 C466 0.930 . S
H484 C475 0.929 . S
H485 C476 0.930 . S
H486 C477 0.931 . S
H487 C478 0.930 . S
C488 C490 1.422 . S
C488 C492 1.415 . S
C488 N494 1.369 . S
C489 C490 1.421 . S
C489 C491 1.417 . S
C489 C501 1.422 . S
C490 C488 1.422 . S
C490 C489 1.421 . S
C490 N500 1.359 . S
C491 C489 1.417 . S
C491 C493 1.329 . S
C491 H510 0.930 . S
C492 C488 1.415 . S
C492 C493 1.437 . S
C492 C496 1.413 . S
C493 C491 1.329 . S
C493 C492 1.437 . S
C493 H515 0.929 . S
N494 C488 1.369 . S
N494 C495 1.338 . S
N494 Gd499 2.622 . S
C495 N494 1.338 . S
C495 C497 1.378 . S
C495 H507 0.929 . S
C496 C492 1.413 . S
C496 C497 1.348 . S
C496 H512 0.931 . S
C497 C495 1.378 . S
C497 C496 1.348 . S
C497 H513 0.930 . S
Gd498 N518 2.622 . S
Gd498 N525 2.570 . S
Gd498 O532 2.353 . S
Gd498 O533 2.468 . S
Gd498 O534 2.427 . S
Gd498 O536 2.388 . S
Gd498 O537 2.386 . S
Gd498 O541 2.307 . S
Gd498 C551 2.805 . S
Gd499 N494 2.622 . S
Gd499 N500 2.570 . S
Gd499 O531 2.386 . S
Gd499 O535 2.307 1_655 S
Gd499 O538 2.353 1_655 S
Gd499 O539 2.468 . S
Gd499 O540 2.427 . S
Gd499 O542 2.388 . S
Gd499 C563 2.805 . S
N500 C490 1.359 . S
N500 Gd499 2.570 . S
N500 C502 1.343 . S
C501 C489 1.422 . S
C501 C503 1.321 . S
C501 H509 0.931 . S
C502 N500 1.343 . S
C502 C503 1.390 . S
C502 H504 0.931 . S
C503 C501 1.321 . S
C503 C502 1.390 . S
C503 H505 0.930 . S
H504 C502 0.931 . S
H505 C503 0.930 . S
H506 C529 0.931 . S
H507 C495 0.929 . S
H508 C530 0.930 . S
H509 C501 0.931 . S
H510 C491 0.930 . S
H511 C520 0.929 . S
H512 C496 0.931 . S
H513 C497 0.930 . S
H514 C552 0.930 . S
H515 C493 0.929 . S
H516 C521 0.931 . S
H517 C522 0.930 . S
N518 Gd498 2.622 . S
N518 C519 1.369 . S
N518 C520 1.338 . S
C519 N518 1.369 . S
C519 C523 1.415 . S
C519 C526 1.422 . S
C520 H511 0.929 . S
C520 N518 1.338 . S
C520 C522 1.378 . S
C521 H516 0.931 . S
C521 C522 1.348 . S
C521 C523 1.413 . S
C522 H517 0.930 . S
C522 C520 1.378 . S
C522 C521 1.348 . S
C523 C519 1.415 . S
C523 C521 1.413 . S
C523 C553 1.437 . S
H524 C553 0.929 . S
N525 Gd498 2.570 . S
N525 C526 1.359 . S
N525 C529 1.343 . S
C526 C519 1.422 . S
C526 N525 1.359 . S
C526 C528 1.421 . S
C527 C528 1.422 . S
C527 C530 1.321 . S
C527 H554 0.931 . S
C528 C526 1.421 . S
C528 C527 1.422 . S
C528 C552 1.417 . S
C529 H506 0.931 . S
C529 N525 1.343 . S
C529 C530 1.390 . S
C530 H508 0.930 . S
C530 C527 1.321 . S
C530 C529 1.390 . S
O531 Gd499 2.386 . S
O531 C543 1.265 . S
O532 Gd498 2.353 . S
O532 C543 1.242 1_455 S
O533 Gd498 2.468 . S
O533 C551 1.263 . S
O534 Gd498 2.427 . S
O534 C551 1.252 . S
O535 Gd499 2.307 1_455 S
O535 C544 1.261 . S
O536 Gd498 2.388 . S
O536 C544 1.252 . S
O537 Gd498 2.386 . S
O537 C555 1.265 . S
O538 Gd499 2.353 1_455 S
O538 C555 1.242 . S
O539 Gd499 2.468 . S
O539 C563 1.263 . S
O540 Gd499 2.427 . S
O540 C563 1.252 . S
O541 Gd498 2.307 . S
O541 C556 1.261 1_455 S
O542 Gd499 2.388 . S
O542 C556 1.252 . S
C543 O531 1.265 . S
C543 O532 1.242 1_655 S
C544 O535 1.261 . S
C544 O536 1.252 . S
C545 C548 1.394 . S
C545 C550 1.370 . S
C545 C551 1.500 . S
C546 C549 1.383 . S
C546 C550 1.395 . S
C547 C548 1.396 . S
C547 C549 1.365 . S
C547 H564 0.929 . S
C548 C545 1.394 . S
C548 C547 1.396 . S
C548 H565 0.930 . S
C549 C546 1.383 . S
C549 C547 1.365 . S
C549 H566 0.931 . S
C550 C545 1.370 . S
C550 C546 1.395 . S
C550 H567 0.930 . S
C551 Gd498 2.805 . S
C551 O533 1.263 . S
C551 O534 1.252 . S
C551 C545 1.500 . S
C552 H514 0.930 . S
C552 C528 1.417 . S
C552 C553 1.329 . S
C553 C523 1.437 . S
C553 H524 0.929 . S
C553 C552 1.329 . S
H554 C527 0.931 . S
C555 O537 1.265 . S
C555 O538 1.242 . S
C556 O541 1.261 1_655 S
C556 O542 1.252 . S
C557 C560 1.394 . S
C557 C562 1.370 . S
C557 C563 1.500 . S
C558 C561 1.383 . S
C558 C562 1.395 . S
C559 C560 1.396 . S
C559 C561 1.365 . S
C559 H568 0.929 . S
C560 C557 1.394 . S
C560 C559 1.396 . S
C560 H569 0.930 . S
C561 C558 1.383 . S
C561 C559 1.365 . S
C561 H570 0.931 . S
C562 C557 1.370 . S
C562 C558 1.395 . S
C562 H571 0.930 . S
C563 Gd499 2.805 . S
C563 O539 1.263 . S
C563 O540 1.252 . S
C563 C557 1.500 . S
H564 C547 0.929 . S
H565 C548 0.930 . S
H566 C549 0.931 . S
H567 C550 0.930 . S
H568 C559 0.929 . S
H569 C560 0.930 . S
H570 C561 0.931 . S
H571 C562 0.930 . S
C572 C574 1.422 . S
C572 C576 1.415 . S
C572 N578 1.369 . S
C573 C574 1.421 . S
C573 C575 1.417 . S
C573 C585 1.422 . S
C574 C572 1.422 . S
C574 C573 1.421 . S
C574 N584 1.359 . S
C575 C573 1.417 . S
C575 C577 1.329 . S
C575 H594 0.930 . S
C576 C572 1.415 . S
C576 C577 1.437 . S
C576 C580 1.413 . S
C577 C575 1.329 . S
C577 C576 1.437 . S
C577 H599 0.929 . S
N578 C572 1.369 . S
N578 C579 1.338 . S
N578 Gd583 2.622 . S
C579 N578 1.338 . S
C579 C581 1.378 . S
C579 H591 0.929 . S
C580 C576 1.413 . S
C580 C581 1.348 . S
C580 H596 0.931 . S
C581 C579 1.378 . S
C581 C580 1.348 . S
C581 H597 0.930 . S
Gd582 N602 2.622 . S
Gd582 N609 2.570 . S
Gd582 O616 2.353 . S
Gd582 O617 2.468 . S
Gd582 O618 2.427 . S
Gd582 O620 2.388 . S
Gd582 O621 2.386 . S
Gd582 O625 2.307 . S
Gd582 C635 2.805 . S
Gd583 N578 2.622 . S
Gd583 N584 2.570 . S
Gd583 O615 2.386 . S
Gd583 O619 2.307 . S
Gd583 O622 2.353 . S
Gd583 O623 2.468 . S
Gd583 O624 2.427 . S
Gd583 O626 2.388 . S
Gd583 C647 2.805 . S
N584 C574 1.359 . S
N584 Gd583 2.570 . S
N584 C586 1.343 . S
C585 C573 1.422 . S
C585 C587 1.321 . S
C585 H593 0.931 . S
C586 N584 1.343 . S
C586 C587 1.390 . S
C586 H588 0.931 . S
C587 C585 1.321 . S
C587 C586 1.390 . S
C587 H589 0.930 . S
H588 C586 0.931 . S
H589 C587 0.930 . S
H590 C613 0.931 . S
H591 C579 0.929 . S
H592 C614 0.930 . S
H593 C585 0.931 . S
H594 C575 0.930 . S
H595 C604 0.929 . S
H596 C580 0.931 . S
H597 C581 0.930 . S
H598 C636 0.930 . S
H599 C577 0.929 . S
H600 C605 0.931 . S
H601 C606 0.930 . S
N602 Gd582 2.622 . S
N602 C603 1.369 . S
N602 C604 1.338 . S
C603 N602 1.369 . S
C603 C607 1.415 . S
C603 C610 1.422 . S
C604 H595 0.929 . S
C604 N602 1.338 . S
C604 C606 1.378 . S
C605 H600 0.931 . S
C605 C606 1.348 . S
C605 C607 1.413 . S
C606 H601 0.930 . S
C606 C604 1.378 . S
C606 C605 1.348 . S
C607 C603 1.415 . S
C607 C605 1.413 . S
C607 C637 1.437 . S
H608 C637 0.929 . S
N609 Gd582 2.570 . S
N609 C610 1.359 . S
N609 C613 1.343 . S
C610 C603 1.422 . S
C610 N609 1.359 . S
C610 C612 1.421 . S
C611 C612 1.422 . S
C611 C614 1.321 . S
C611 H638 0.931 . S
C612 C610 1.421 . S
C612 C611 1.422 . S
C612 C636 1.417 . S
C613 H590 0.931 . S
C613 N609 1.343 . S
C613 C614 1.390 . S
C614 H592 0.930 . S
C614 C611 1.321 . S
C614 C613 1.390 . S
O615 Gd583 2.386 . S
O615 C627 1.265 . S
O616 Gd582 2.353 . S
O616 C627 1.242 . S
O617 Gd582 2.468 . S
O617 C635 1.263 . S
O618 Gd582 2.427 . S
O618 C635 1.252 . S
O619 Gd583 2.307 . S
O619 C628 1.261 . S
O620 Gd582 2.388 . S
O620 C628 1.252 . S
O621 Gd582 2.386 . S
O621 C639 1.265 . S
O622 Gd583 2.353 . S
O622 C639 1.242 . S
O623 Gd583 2.468 . S
O623 C647 1.263 . S
O624 Gd583 2.427 . S
O624 C647 1.252 . S
O625 Gd582 2.307 . S
O625 C640 1.261 . S
O626 Gd583 2.388 . S
O626 C640 1.252 . S
C627 O615 1.265 . S
C627 O616 1.242 . S
C628 O619 1.261 . S
C628 O620 1.252 . S
C629 C632 1.394 . S
C629 C634 1.370 . S
C629 C635 1.500 . S
C630 C633 1.383 . S
C630 C634 1.395 . S
C631 C632 1.396 . S
C631 C633 1.365 . S
C631 H648 0.929 . S
C632 C629 1.394 . S
C632 C631 1.396 . S
C632 H649 0.930 . S
C633 C630 1.383 . S
C633 C631 1.365 . S
C633 H650 0.931 . S
C634 C629 1.370 . S
C634 C630 1.395 . S
C634 H651 0.930 . S
C635 Gd582 2.805 . S
C635 O617 1.263 . S
C635 O618 1.252 . S
C635 C629 1.500 . S
C636 H598 0.930 . S
C636 C612 1.417 . S
C636 C637 1.329 . S
C637 C607 1.437 . S
C637 H608 0.929 . S
C637 C636 1.329 . S
H638 C611 0.931 . S
C639 O621 1.265 . S
C639 O622 1.242 . S
C640 O625 1.261 . S
C640 O626 1.252 . S
C641 C644 1.394 . S
C641 C646 1.370 . S
C641 C647 1.500 . S
C642 C645 1.383 . S
C642 C646 1.395 . S
C643 C644 1.396 . S
C643 C645 1.365 . S
C643 H652 0.929 . S
C644 C641 1.394 . S
C644 C643 1.396 . S
C644 H653 0.930 . S
C645 C642 1.383 . S
C645 C643 1.365 . S
C645 H654 0.931 . S
C646 C641 1.370 . S
C646 C642 1.395 . S
C646 H655 0.930 . S
C647 Gd583 2.805 . S
C647 O623 1.263 . S
C647 O624 1.252 . S
C647 C641 1.500 . S
H648 C631 0.929 . S
H649 C632 0.930 . S
H650 C633 0.931 . S
H651 C634 0.930 . S
H652 C643 0.929 . S
H653 C644 0.930 . S
H654 C645 0.931 . S
H655 C646 0.930 . S
H656 C664 0.929 . S
H657 C666 0.930 . S
H658 C668 0.930 . S
H659 C671 0.929 . S
H660 C674 0.930 . S
H661 C676 0.960 . S
H662 C676 0.951 1_565 S
H663 C676 0.960 1_565 S
C664 H656 0.929 . S
C664 C665 1.377 . S
C664 C666 1.384 1_565 S
C665 C664 1.377 . S
C665 C671 1.390 . S
C666 H657 0.930 . S
C666 C664 1.384 1_545 S
C666 C667 1.372 . S
C667 C666 1.372 . S
C667 C668 1.400 1_545 S
C667 C672 1.490 . S
C668 H658 0.930 . S
C668 C667 1.400 1_565 S
C668 C671 1.386 . S
H669 C685 0.930 . S
H670 C686 0.931 . S
C671 H659 0.929 . S
C671 C665 1.390 . S
C671 C668 1.386 . S
C672 C667 1.490 . S
C672 C674 1.395 . S
C672 C675 1.403 . S
H673 C679 0.930 . S
C674 H660 0.930 . S
C674 C672 1.395 . S
C674 C677 1.403 . S
C675 C672 1.403 . S
C675 C676 1.524 . S
C675 C679 1.400 . S
C676 H661 0.960 . S
C676 H662 0.951 1_545 S
C676 H663 0.960 1_545 S
C676 C675 1.524 . S
C677 C674 1.403 . S
C677 C678 1.392 . S
C677 C681 1.495 . S
C678 C677 1.392 . S
C678 C679 1.385 . S
C678 C680 1.478 . S
C679 H673 0.930 . S
C679 C675 1.400 . S
C679 C678 1.385 . S
C680 C678 1.478 . S
C680 C682 1.381 . S
C680 C686 1.383 . S
C681 C677 1.495 . S
C681 H687 0.959 . S
C681 H688 0.961 . S
C681 H689 0.960 . S
C682 C680 1.381 . S
C682 C683 1.394 . S
C682 H690 0.930 . S
C683 C682 1.394 . S
C683 C684 1.383 . S
C683 H691 0.929 . S
C684 C683 1.383 . S
C684 C685 1.377 . S
C685 H669 0.930 . S
C685 C684 1.377 . S
C685 C686 1.379 . S
C686 H670 0.931 . S
C686 C680 1.383 . S
C686 C685 1.379 . S
H687 C681 0.959 . S
H688 C681 0.961 . S
H689 C681 0.960 . S
H690 C682 0.930 . S
H691 C683 0.929 . S
H692 C700 0.929 . S
H693 C702 0.930 . S
H694 C704 0.930 . S
H695 C707 0.929 . S
H696 C710 0.930 . S
H697 C712 0.960 . S
H698 C712 0.960 . S
H699 C712 0.960 . S
C700 H692 0.929 . S
C700 C701 1.377 . S
C700 C702 1.384 . S
C701 C700 1.377 . S
C701 C707 1.390 . S
C702 H693 0.930 . S
C702 C700 1.384 . S
C702 C703 1.372 . S
C703 C702 1.372 . S
C703 C704 1.400 . S
C703 C708 1.490 . S
C704 H694 0.930 . S
C704 C703 1.400 . S
C704 C707 1.386 . S
H705 C721 0.930 . S
H706 C722 0.931 . S
C707 H695 0.929 . S
C707 C701 1.390 . S
C707 C704 1.386 . S
C708 C703 1.490 . S
C708 C710 1.395 . S
C708 C711 1.403 . S
H709 C715 0.930 . S
C710 H696 0.930 . S
C710 C708 1.395 . S
C710 C713 1.403 . S
C711 C708 1.403 . S
C711 C712 1.524 . S
C711 C715 1.400 . S
C712 H697 0.960 . S
C712 H698 0.960 . S
C712 H699 0.960 . S
C712 C711 1.524 . S
C713 C710 1.403 . S
C713 C714 1.392 . S
C713 C717 1.495 . S
C714 C713 1.392 . S
C714 C715 1.385 . S
C714 C716 1.478 . S
C715 H709 0.930 . S
C715 C711 1.400 . S
C715 C714 1.385 . S
C716 C714 1.478 . S
C716 C718 1.381 . S
C716 C722 1.383 . S
C717 C713 1.495 . S
C717 H723 0.959 . S
C717 H724 0.961 . S
C717 H725 0.960 . S
C718 C716 1.381 . S
C718 C719 1.394 . S
C718 H726 0.930 . S
C719 C718 1.394 . S
C719 C720 1.383 . S
C719 H727 0.929 . S
C720 C719 1.383 . S
C720 C721 1.377 . S
C721 H705 0.930 . S
C721 C720 1.377 . S
C721 C722 1.379 . S
C722 H706 0.931 . S
C722 C716 1.383 . S
C722 C721 1.379 . S
H723 C717 0.959 . S
H724 C717 0.961 . S
H725 C717 0.960 . S
H726 C718 0.930 . S
H727 C719 0.929 . S
H728 C736 0.929 . S
H729 C738 0.930 . S
H730 C740 0.930 . S
H731 C743 0.929 . S
H732 C746 0.930 . S
H733 C748 0.960 . S
H734 C748 0.960 . S
H735 C748 0.960 . S
C736 H728 0.929 . S
C736 C737 1.377 . S
C736 C738 1.384 . S
C737 C736 1.377 . S
C737 C743 1.390 . S
C738 H729 0.930 . S
C738 C736 1.384 . S
C738 C739 1.372 . S
C739 C738 1.372 . S
C739 C740 1.400 . S
C739 C744 1.490 . S
C740 H730 0.930 . S
C740 C739 1.400 . S
C740 C743 1.386 . S
H741 C757 0.930 . S
H742 C758 0.931 . S
C743 H731 0.929 . S
C743 C737 1.390 . S
C743 C740 1.386 . S
C744 C739 1.490 . S
C744 C746 1.395 . S
C744 C747 1.403 . S
H745 C751 0.930 . S
C746 H732 0.930 . S
C746 C744 1.395 . S
C746 C749 1.403 . S
C747 C744 1.403 . S
C747 C748 1.524 . S
C747 C751 1.400 . S
C748 H733 0.960 . S
C748 H734 0.960 . S
C748 H735 0.960 . S
C748 C747 1.524 . S
C749 C746 1.403 . S
C749 C750 1.392 . S
C749 C753 1.495 . S
C750 C749 1.392 . S
C750 C751 1.385 . S
C750 C752 1.478 . S
C751 H745 0.930 . S
C751 C747 1.400 . S
C751 C750 1.385 . S
C752 C750 1.478 . S
C752 C754 1.381 . S
C752 C758 1.383 . S
C753 C749 1.495 . S
C753 H759 0.959 . S
C753 H760 0.961 . S
C753 H761 0.960 . S
C754 C752 1.381 . S
C754 C755 1.394 . S
C754 H762 0.930 . S
C755 C754 1.394 . S
C755 C756 1.383 . S
C755 H763 0.929 . S
C756 C755 1.383 . S
C756 C757 1.377 . S
C757 H741 0.930 . S
C757 C756 1.377 . S
C757 C758 1.379 . S
C758 H742 0.931 . S
C758 C752 1.383 . S
C758 C757 1.379 . S
H759 C753 0.959 . S
H760 C753 0.961 . S
H761 C753 0.960 . S
H762 C754 0.930 . S
H763 C755 0.929 . S
H764 C772 0.929 1_545 S
H765 C774 0.930 . S
H766 C776 0.930 . S
H767 C779 0.929 . S
H768 C782 0.930 . S
H769 C784 0.960 . S
H770 C784 0.960 . S
H771 C784 0.960 . S
C772 H764 0.929 1_565 S
C772 C773 1.377 . S
C772 C774 1.384 1_565 S
C773 C772 1.377 . S
C773 C779 1.390 . S
C774 H765 0.930 . S
C774 C772 1.384 1_545 S
C774 C775 1.372 . S
C775 C774 1.372 . S
C775 C776 1.400 1_545 S
C775 C780 1.490 . S
C776 H766 0.930 . S
C776 C775 1.400 1_565 S
C776 C779 1.386 . S
H777 C793 0.930 . S
H778 C794 0.931 . S
C779 H767 0.929 . S
C779 C773 1.390 . S
C779 C776 1.386 . S
C780 C775 1.490 . S
C780 C782 1.395 . S
C780 C783 1.403 . S
H781 C787 0.930 . S
C782 H768 0.930 . S
C782 C780 1.395 . S
C782 C785 1.403 . S
C783 C780 1.403 . S
C783 C784 1.524 . S
C783 C787 1.400 . S
C784 H769 0.960 . S
C784 H770 0.960 . S
C784 H771 0.960 . S
C784 C783 1.524 . S
C785 C782 1.403 . S
C785 C786 1.392 . S
C785 C789 1.495 . S
C786 C785 1.392 . S
C786 C787 1.385 . S
C786 C788 1.478 . S
C787 H781 0.930 . S
C787 C783 1.400 . S
C787 C786 1.385 . S
C788 C786 1.478 . S
C788 C790 1.381 . S
C788 C794 1.383 . S
C789 C785 1.495 . S
C789 H795 0.959 . S
C789 H796 0.961 . S
C789 H797 0.960 . S
C790 C788 1.381 . S
C790 C791 1.394 . S
C790 H798 0.930 . S
C791 C790 1.394 . S
C791 C792 1.383 . S
C791 H799 0.929 . S
C792 C791 1.383 . S
C792 C793 1.377 . S
C793 H777 0.930 . S
C793 C792 1.377 . S
C793 C794 1.379 . S
C794 H778 0.931 . S
C794 C788 1.383 . S
C794 C793 1.379 . S
H795 C789 0.959 . S
H796 C789 0.961 . S
H797 C789 0.960 . S
H798 C790 0.930 . S
H799 C791 0.929 . S
H800 C808 0.929 1_565 S
H801 C810 0.930 . S
H802 C812 0.930 . S
H803 C815 0.929 . S
H804 C818 0.930 . S
H805 C820 0.960 . S
H806 C820 0.960 . S
H807 C820 0.960 1_545 S
C808 H800 0.929 1_545 S
C808 C809 1.377 . S
C808 C810 1.384 1_545 S
C809 C808 1.377 . S
C809 C815 1.390 . S
C810 H801 0.930 . S
C810 C808 1.384 1_565 S
C810 C811 1.372 . S
C811 C810 1.372 . S
C811 C812 1.400 1_565 S
C811 C816 1.490 . S
C812 H802 0.930 . S
C812 C811 1.400 1_545 S
C812 C815 1.386 . S
H813 C829 0.930 1_455 S
H814 C830 0.931 . S
C815 H803 0.929 . S
C815 C809 1.390 . S
C815 C812 1.386 . S
C816 C811 1.490 . S
C816 C818 1.395 . S
C816 C819 1.403 . S
H817 C823 0.930 . S
C818 H804 0.930 . S
C818 C816 1.395 . S
C818 C821 1.403 . S
C819 C816 1.403 . S
C819 C820 1.524 . S
C819 C823 1.400 . S
C820 H805 0.960 . S
C820 H806 0.960 . S
C820 H807 0.960 1_565 S
C820 C819 1.524 . S
C821 C818 1.403 . S
C821 C822 1.392 . S
C821 C825 1.495 . S
C822 C821 1.392 . S
C822 C823 1.385 . S
C822 C824 1.478 . S
C823 H817 0.930 . S
C823 C819 1.400 . S
C823 C822 1.385 . S
C824 C822 1.478 . S
C824 C826 1.381 . S
C824 C830 1.383 . S
C825 C821 1.495 . S
C825 H831 0.959 . S
C825 H832 0.961 . S
C825 H833 0.960 . S
C826 C824 1.381 . S
C826 C827 1.394 . S
C826 H834 0.930 . S
C827 C826 1.394 . S
C827 C828 1.383 . S
C827 H835 0.929 . S
C828 C827 1.383 . S
C828 C829 1.377 . S
C829 H813 0.930 1_655 S
C829 C828 1.377 . S
C829 C830 1.379 . S
C830 H814 0.931 . S
C830 C824 1.383 . S
C830 C829 1.379 . S
H831 C825 0.959 . S
H832 C825 0.961 . S
H833 C825 0.960 . S
H834 C826 0.930 . S
H835 C827 0.929 . S
H836 C844 0.929 . S
H837 C846 0.930 . S
H838 C848 0.930 . S
H839 C851 0.929 . S
H840 C854 0.930 . S
H841 C856 0.960 . S
H842 C856 0.960 . S
H843 C856 0.960 . S
C844 H836 0.929 . S
C844 C845 1.377 . S
C844 C846 1.384 . S
C845 C844 1.377 . S
C845 C851 1.390 . S
C846 H837 0.930 . S
C846 C844 1.384 . S
C846 C847 1.372 . S
C847 C846 1.372 . S
C847 C848 1.400 . S
C847 C852 1.490 . S
C848 H838 0.930 . S
C848 C847 1.400 . S
C848 C851 1.386 . S
H849 C865 0.930 . S
H850 C866 0.931 . S
C851 H839 0.929 . S
C851 C845 1.390 . S
C851 C848 1.386 . S
C852 C847 1.490 . S
C852 C854 1.395 . S
C852 C855 1.403 . S
H853 C859 0.930 . S
C854 H840 0.930 . S
C854 C852 1.395 . S
C854 C857 1.403 . S
C855 C852 1.403 . S
C855 C856 1.524 . S
C855 C859 1.400 . S
C856 H841 0.960 . S
C856 H842 0.960 . S
C856 H843 0.960 . S
C856 C855 1.524 . S
C857 C854 1.403 . S
C857 C858 1.392 . S
C857 C861 1.495 . S
C858 C857 1.392 . S
C858 C859 1.385 . S
C858 C860 1.478 . S
C859 H853 0.930 . S
C859 C855 1.400 . S
C859 C858 1.385 . S
C860 C858 1.478 . S
C860 C862 1.381 . S
C860 C866 1.383 . S
C861 C857 1.495 . S
C861 H867 0.959 . S
C861 H868 0.961 . S
C861 H869 0.960 . S
C862 C860 1.381 . S
C862 C863 1.394 . S
C862 H870 0.930 . S
C863 C862 1.394 . S
C863 C864 1.383 . S
C863 H871 0.929 . S
C864 C863 1.383 . S
C864 C865 1.377 . S
C865 H849 0.930 . S
C865 C864 1.377 . S
C865 C866 1.379 . S
C866 H850 0.931 . S
C866 C860 1.383 . S
C866 C865 1.379 . S
H867 C861 0.959 . S
H868 C861 0.961 . S
H869 C861 0.960 . S
H870 C862 0.930 . S
H871 C863 0.929 . S
H872 C880 0.929 . S
H873 C882 0.930 . S
H874 C884 0.930 . S
H875 C887 0.929 . S
H876 C890 0.930 . S
H877 C892 0.960 . S
H878 C892 0.960 . S
H879 C892 0.960 . S
C880 H872 0.929 . S
C880 C881 1.377 . S
C880 C882 1.384 . S
C881 C880 1.377 . S
C881 C887 1.390 . S
C882 H873 0.930 . S
C882 C880 1.384 . S
C882 C883 1.372 . S
C883 C882 1.372 . S
C883 C884 1.400 . S
C883 C888 1.490 . S
C884 H874 0.930 . S
C884 C883 1.400 . S
C884 C887 1.386 . S
H885 C901 0.930 . S
H886 C902 0.931 . S
C887 H875 0.929 . S
C887 C881 1.390 . S
C887 C884 1.386 . S
C888 C883 1.490 . S
C888 C890 1.395 . S
C888 C891 1.403 . S
H889 C895 0.930 . S
C890 H876 0.930 . S
C890 C888 1.395 . S
C890 C893 1.403 . S
C891 C888 1.403 . S
C891 C892 1.524 . S
C891 C895 1.400 . S
C892 H877 0.960 . S
C892 H878 0.960 . S
C892 H879 0.960 . S
C892 C891 1.524 . S
C893 C890 1.403 . S
C893 C894 1.392 . S
C893 C897 1.495 . S
C894 C893 1.392 . S
C894 C895 1.385 . S
C894 C896 1.478 . S
C895 H889 0.930 . S
C895 C891 1.400 . S
C895 C894 1.385 . S
C896 C894 1.478 . S
C896 C898 1.381 . S
C896 C902 1.383 . S
C897 C893 1.495 . S
C897 H903 0.959 . S
C897 H904 0.961 . S
C897 H905 0.960 . S
C898 C896 1.381 . S
C898 C899 1.394 . S
C898 H906 0.930 . S
C899 C898 1.394 . S
C899 C900 1.383 . S
C899 H907 0.929 . S
C900 C899 1.383 . S
C900 C901 1.377 . S
C901 H885 0.930 . S
C901 C900 1.377 . S
C901 C902 1.379 . S
C902 H886 0.931 . S
C902 C896 1.383 . S
C902 C901 1.379 . S
H903 C897 0.959 . S
H904 C897 0.961 . S
H905 C897 0.960 . S
H906 C898 0.930 . S
H907 C899 0.929 . S
H908 C916 0.929 . S
H909 C918 0.930 . S
H910 C920 0.928 1_565 S
H911 C923 0.929 . S
H912 C926 0.930 . S
H913 C928 0.959 . S
H914 C928 0.996 . S
H915 C928 0.984 . S
C916 H908 0.929 . S
C916 C917 1.377 . S
C916 C918 1.384 1_545 S
C917 C916 1.377 . S
C917 C923 1.390 . S
C918 H909 0.930 . S
C918 C916 1.384 1_565 S
C918 C919 1.372 . S
C919 C918 1.372 . S
C919 C920 1.400 1_565 S
C919 C924 1.490 . S
C920 H910 0.928 1_545 S
C920 C919 1.400 1_545 S
C920 C923 1.386 . S
H921 C937 0.930 . S
H922 C938 0.931 . S
C923 H911 0.929 . S
C923 C917 1.390 . S
C923 C920 1.386 . S
C924 C919 1.490 . S
C924 C926 1.395 . S
C924 C927 1.403 . S
H925 C931 0.930 . S
C926 H912 0.930 . S
C926 C924 1.395 . S
C926 C929 1.403 . S
C927 C924 1.403 . S
C927 C928 1.469 1_565 S
C927 C931 1.400 . S
C928 H913 0.959 . S
C928 H914 0.996 . S
C928 H915 0.984 . S
C928 C927 1.469 1_545 S
C929 C926 1.403 . S
C929 C930 1.392 . S
C929 C933 1.495 . S
C930 C929 1.392 . S
C930 C931 1.385 . S
C930 C932 1.478 . S
C931 H925 0.930 . S
C931 C927 1.400 . S
C931 C930 1.385 . S
C932 C930 1.478 . S
C932 C934 1.381 . S
C932 C938 1.383 . S
C933 C929 1.495 . S
C933 H939 0.959 . S
C933 H940 0.961 . S
C933 H941 0.960 . S
C934 C932 1.381 . S
C934 C935 1.394 . S
C934 H942 0.930 . S
C935 C934 1.394 . S
C935 C936 1.383 . S
C935 H943 0.929 . S
C936 C935 1.383 . S
C936 C937 1.377 . S
C937 H921 0.930 . S
C937 C936 1.377 . S
C937 C938 1.379 . S
C938 H922 0.931 . S
C938 C932 1.383 . S
C938 C937 1.379 . S
H939 C933 0.959 . S
H940 C933 0.961 . S
H941 C933 0.960 . S
H942 C934 0.930 . S
H943 C935 0.929 . S
H944 C952 0.929 . S
H945 C954 0.930 . S
H946 C956 0.930 . S
H947 C959 0.929 . S
H948 C962 0.930 . S
H949 C964 0.960 . S
H950 C964 0.960 . S
H951 C964 0.960 . S
C952 H944 0.929 . S
C952 C953 1.377 . S
C952 C954 1.384 . S
C953 C952 1.377 . S
C953 C959 1.390 . S
C954 H945 0.930 . S
C954 C952 1.384 . S
C954 C955 1.372 . S
C955 C954 1.372 . S
C955 C956 1.400 . S
C955 C960 1.490 . S
C956 H946 0.930 . S
C956 C955 1.400 . S
C956 C959 1.386 . S
H957 C973 0.930 . S
H958 C974 0.931 . S
C959 H947 0.929 . S
C959 C953 1.390 . S
C959 C956 1.386 . S
C960 C955 1.490 . S
C960 C962 1.395 . S
C960 C963 1.403 . S
H961 C967 0.930 . S
C962 H948 0.930 . S
C962 C960 1.395 . S
C962 C965 1.403 . S
C963 C960 1.403 . S
C963 C964 1.524 . S
C963 C967 1.400 . S
C964 H949 0.960 . S
C964 H950 0.960 . S
C964 H951 0.960 . S
C964 C963 1.524 . S
C965 C962 1.403 . S
C965 C966 1.392 . S
C965 C969 1.495 . S
C966 C965 1.392 . S
C966 C967 1.385 . S
C966 C968 1.478 . S
C967 H961 0.930 . S
C967 C963 1.400 . S
C967 C966 1.385 . S
C968 C966 1.478 . S
C968 C970 1.381 . S
C968 C974 1.383 . S
C969 C965 1.495 . S
C969 H975 0.959 . S
C969 H976 0.961 . S
C969 H977 0.960 . S
C970 C968 1.381 . S
C970 C971 1.394 . S
C970 H978 0.930 . S
C971 C970 1.394 . S
C971 C972 1.383 . S
C971 H979 0.929 . S
C972 C971 1.383 . S
C972 C973 1.377 . S
C973 H957 0.930 . S
C973 C972 1.377 . S
C973 C974 1.379 . S
C974 H958 0.931 . S
C974 C968 1.383 . S
C974 C973 1.379 . S
H975 C969 0.959 . S
H976 C969 0.961 . S
H977 C969 0.960 . S
H978 C970 0.930 . S
H979 C971 0.929 . S
H980 C988 0.929 . S
H981 C990 0.930 . S
H982 C992 0.930 . S
H983 C995 0.929 . S
H984 C998 0.930 . S
H985 C1000 0.960 . S
H986 C1000 0.960 . S
H987 C1000 0.960 . S
C988 H980 0.929 . S
C988 C989 1.377 . S
C988 C990 1.384 . S
C989 C988 1.377 . S
C989 C995 1.390 . S
C990 H981 0.930 . S
C990 C988 1.384 . S
C990 C991 1.372 . S
C991 C990 1.372 . S
C991 C992 1.400 . S
C991 C996 1.490 . S
C992 H982 0.930 . S
C992 C991 1.400 . S
C992 C995 1.386 . S
H993 C1009 0.930 . S
H994 C1010 0.931 . S
C995 H983 0.929 . S
C995 C989 1.390 . S
C995 C992 1.386 . S
C996 C991 1.490 . S
C996 C998 1.395 . S
C996 C999 1.403 . S
H997 C1003 0.930 . S
C998 H984 0.930 . S
C998 C996 1.395 . S
C998 C1001 1.403 . S
C999 C996 1.403 . S
C999 C1000 1.524 . S
C999 C1003 1.400 . S
C1000 H985 0.960 . S
C1000 H986 0.960 . S
C1000 H987 0.960 . S
C1000 C999 1.524 . S
C1001 C998 1.403 . S
C1001 C1002 1.392 . S
C1001 C1005 1.495 . S
C1002 C1001 1.392 . S
C1002 C1003 1.385 . S
C1002 C1004 1.478 . S
C1003 H997 0.930 . S
C1003 C999 1.400 . S
C1003 C1002 1.385 . S
C1004 C1002 1.478 . S
C1004 C1006 1.381 . S
C1004 C1010 1.383 . S
C1005 C1001 1.495 . S
C1005 H1011 0.959 . S
C1005 H1012 0.961 . S
C1005 H1013 0.960 . S
C1006 C1004 1.381 . S
C1006 C1007 1.394 . S
C1006 H1014 0.930 . S
C1007 C1006 1.394 . S
C1007 C1008 1.383 . S
C1007 H1015 0.929 . S
C1008 C1007 1.383 . S
C1008 C1009 1.377 . S
C1009 H993 0.930 . S
C1009 C1008 1.377 . S
C1009 C1010 1.379 . S
C1010 H994 0.931 . S
C1010 C1004 1.383 . S
C1010 C1009 1.379 . S
H1011 C1005 0.959 . S
H1012 C1005 0.961 . S
H1013 C1005 0.960 . S
H1014 C1006 0.930 . S
H1015 C1007 0.929 . S
H1016 C1024 0.929 . S
H1017 C1026 0.930 . S
H1018 C1028 0.930 . S
H1019 C1031 0.929 . S
H1020 C1034 0.930 . S
H1021 C1036 0.960 . S
H1022 C1036 0.960 . S
H1023 C1036 0.960 . S
C1024 H1016 0.929 . S
C1024 C1025 1.377 . S
C1024 C1026 1.384 . S
C1025 C1024 1.377 . S
C1025 C1031 1.390 . S
C1026 H1017 0.930 . S
C1026 C1024 1.384 . S
C1026 C1027 1.372 . S
C1027 C1026 1.372 . S
C1027 C1028 1.400 . S
C1027 C1032 1.490 . S
C1028 H1018 0.930 . S
C1028 C1027 1.400 . S
C1028 C1031 1.386 . S
H1029 C1045 0.930 . S
H1030 C1046 0.931 . S
C1031 H1019 0.929 . S
C1031 C1025 1.390 . S
C1031 C1028 1.386 . S
C1032 C1027 1.490 . S
C1032 C1034 1.395 . S
C1032 C1035 1.403 . S
H1033 C1039 0.930 . S
C1034 H1020 0.930 . S
C1034 C1032 1.395 . S
C1034 C1037 1.403 . S
C1035 C1032 1.403 . S
C1035 C1036 1.524 . S
C1035 C1039 1.400 . S
C1036 H1021 0.960 . S
C1036 H1022 0.960 . S
C1036 H1023 0.960 . S
C1036 C1035 1.524 . S
C1037 C1034 1.403 . S
C1037 C1038 1.392 . S
C1037 C1041 1.495 . S
C1038 C1037 1.392 . S
C1038 C1039 1.385 . S
C1038 C1040 1.478 . S
C1039 H1033 0.930 . S
C1039 C1035 1.400 . S
C1039 C1038 1.385 . S
C1040 C1038 1.478 . S
C1040 C1042 1.381 . S
C1040 C1046 1.383 . S
C1041 C1037 1.495 . S
C1041 H1047 0.959 . S
C1041 H1048 0.961 . S
C1041 H1049 0.960 . S
C1042 C1040 1.381 . S
C1042 C1043 1.394 . S
C1042 H1050 0.930 . S
C1043 C1042 1.394 . S
C1043 C1044 1.383 . S
C1043 H1051 0.929 . S
C1044 C1043 1.383 . S
C1044 C1045 1.377 . S
C1045 H1029 0.930 . S
C1045 C1044 1.377 . S
C1045 C1046 1.379 . S
C1046 H1030 0.931 . S
C1046 C1040 1.383 . S
C1046 C1045 1.379 . S
H1047 C1041 0.959 . S
H1048 C1041 0.961 . S
H1049 C1041 0.960 . S
H1050 C1042 0.930 . S
H1051 C1043 0.929 . S
H1052 C1060 0.929 . S
H1053 C1062 0.930 . S
H1054 C1064 0.930 . S
H1055 C1067 0.929 . S
H1056 C1070 0.930 . S
H1057 C1072 0.960 . S
H1058 C1072 0.960 . S
H1059 C1072 0.960 . S
C1060 H1052 0.929 . S
C1060 C1061 1.377 . S
C1060 C1062 1.384 . S
C1061 C1060 1.377 . S
C1061 C1067 1.390 . S
C1062 H1053 0.930 . S
C1062 C1060 1.384 . S
C1062 C1063 1.372 . S
C1063 C1062 1.372 . S
C1063 C1064 1.400 . S
C1063 C1068 1.490 . S
C1064 H1054 0.930 . S
C1064 C1063 1.400 . S
C1064 C1067 1.386 . S
H1065 C1081 0.930 . S
H1066 C1082 0.931 . S
C1067 H1055 0.929 . S
C1067 C1061 1.390 . S
C1067 C1064 1.386 . S
C1068 C1063 1.490 . S
C1068 C1070 1.395 . S
C1068 C1071 1.403 . S
H1069 C1075 0.930 . S
C1070 H1056 0.930 . S
C1070 C1068 1.395 . S
C1070 C1073 1.403 . S
C1071 C1068 1.403 . S
C1071 C1072 1.524 . S
C1071 C1075 1.400 . S
C1072 H1057 0.960 . S
C1072 H1058 0.960 . S
C1072 H1059 0.960 . S
C1072 C1071 1.524 . S
C1073 C1070 1.403 . S
C1073 C1074 1.392 . S
C1073 C1077 1.495 . S
C1074 C1073 1.392 . S
C1074 C1075 1.385 . S
C1074 C1076 1.478 . S
C1075 H1069 0.930 . S
C1075 C1071 1.400 . S
C1075 C1074 1.385 . S
C1076 C1074 1.478 . S
C1076 C1078 1.381 . S
C1076 C1082 1.383 . S
C1077 C1073 1.495 . S
C1077 H1083 0.959 . S
C1077 H1084 0.961 . S
C1077 H1085 0.960 . S
C1078 C1076 1.381 . S
C1078 C1079 1.394 . S
C1078 H1086 0.930 . S
C1079 C1078 1.394 . S
C1079 C1080 1.383 . S
C1079 H1087 0.929 . S
C1080 C1079 1.383 . S
C1080 C1081 1.377 . S
C1081 H1065 0.930 . S
C1081 C1080 1.377 . S
C1081 C1082 1.379 . S
C1082 H1066 0.931 . S
C1082 C1076 1.383 . S
C1082 C1081 1.379 . S
H1083 C1077 0.959 . S
H1084 C1077 0.961 . S
H1085 C1077 0.960 . S
H1086 C1078 0.930 . S
H1087 C1079 0.929 . S
H1088 C1096 0.929 . S
H1089 C1098 0.930 . S
H1090 C1100 0.930 . S
H1091 C1103 0.929 . S
H1092 C1106 0.930 . S
H1093 C1108 0.960 . S
H1094 C1108 0.960 . S
H1095 C1108 0.960 . S
C1096 H1088 0.929 . S
C1096 C1097 1.377 . S
C1096 C1098 1.384 . S
C1097 C1096 1.377 . S
C1097 C1103 1.390 . S
C1098 H1089 0.930 . S
C1098 C1096 1.384 . S
C1098 C1099 1.372 . S
C1099 C1098 1.372 . S
C1099 C1100 1.400 . S
C1099 C1104 1.490 . S
C1100 H1090 0.930 . S
C1100 C1099 1.400 . S
C1100 C1103 1.386 . S
H1101 C1117 0.930 . S
H1102 C1118 0.931 . S
C1103 H1091 0.929 . S
C1103 C1097 1.390 . S
C1103 C1100 1.386 . S
C1104 C1099 1.490 . S
C1104 C1106 1.395 . S
C1104 C1107 1.403 . S
H1105 C1111 0.930 . S
C1106 H1092 0.930 . S
C1106 C1104 1.395 . S
C1106 C1109 1.403 . S
C1107 C1104 1.403 . S
C1107 C1108 1.524 . S
C1107 C1111 1.400 . S
C1108 H1093 0.960 . S
C1108 H1094 0.960 . S
C1108 H1095 0.960 . S
C1108 C1107 1.524 . S
C1109 C1106 1.403 . S
C1109 C1110 1.392 . S
C1109 C1113 1.495 . S
C1110 C1109 1.392 . S
C1110 C1111 1.385 . S
C1110 C1112 1.478 . S
C1111 H1105 0.930 . S
C1111 C1107 1.400 . S
C1111 C1110 1.385 . S
C1112 C1110 1.478 . S
C1112 C1114 1.381 . S
C1112 C1118 1.383 . S
C1113 C1109 1.495 . S
C1113 H1119 0.959 . S
C1113 H1120 0.961 . S
C1113 H1121 0.960 . S
C1114 C1112 1.381 . S
C1114 C1115 1.394 . S
C1114 H1122 0.930 . S
C1115 C1114 1.394 . S
C1115 C1116 1.383 . S
C1115 H1123 0.929 . S
C1116 C1115 1.383 . S
C1116 C1117 1.377 . S
C1117 H1101 0.930 . S
C1117 C1116 1.377 . S
C1117 C1118 1.379 . S
C1118 H1102 0.931 . S
C1118 C1112 1.383 . S
C1118 C1117 1.379 . S
H1119 C1113 0.959 . S
H1120 C1113 0.961 . S
H1121 C1113 0.960 . S
H1122 C1114 0.930 . S
H1123 C1115 0.929 . S
H1124 C1132 0.929 . S
H1125 C1134 0.930 . S
H1126 C1136 0.930 . S
H1127 C1139 0.929 . S
H1128 C1142 0.930 . S
H1129 C1144 0.960 . S
H1130 C1144 0.960 . S
H1131 C1144 0.960 . S
C1132 H1124 0.929 . S
C1132 C1133 1.377 . S
C1132 C1134 1.384 . S
C1133 C1132 1.377 . S
C1133 C1139 1.390 . S
C1134 H1125 0.930 . S
C1134 C1132 1.384 . S
C1134 C1135 1.372 . S
C1135 C1134 1.372 . S
C1135 C1136 1.400 . S
C1135 C1140 1.490 . S
C1136 H1126 0.930 . S
C1136 C1135 1.400 . S
C1136 C1139 1.386 . S
H1137 C1153 0.930 . S
H1138 C1154 0.931 . S
C1139 H1127 0.929 . S
C1139 C1133 1.390 . S
C1139 C1136 1.386 . S
C1140 C1135 1.490 . S
C1140 C1142 1.395 . S
C1140 C1143 1.403 . S
H1141 C1147 0.930 . S
C1142 H1128 0.930 . S
C1142 C1140 1.395 . S
C1142 C1145 1.403 . S
C1143 C1140 1.403 . S
C1143 C1144 1.524 . S
C1143 C1147 1.400 . S
C1144 H1129 0.960 . S
C1144 H1130 0.960 . S
C1144 H1131 0.960 . S
C1144 C1143 1.524 . S
C1145 C1142 1.403 . S
C1145 C1146 1.392 . S
C1145 C1149 1.495 . S
C1146 C1145 1.392 . S
C1146 C1147 1.385 . S
C1146 C1148 1.478 . S
C1147 H1141 0.930 . S
C1147 C1143 1.400 . S
C1147 C1146 1.385 . S
C1148 C1146 1.478 . S
C1148 C1150 1.381 . S
C1148 C1154 1.383 . S
C1149 C1145 1.495 . S
C1149 H1155 0.959 . S
C1149 H1156 0.961 . S
C1149 H1157 0.960 . S
C1150 C1148 1.381 . S
C1150 C1151 1.394 . S
C1150 H1158 0.930 . S
C1151 C1150 1.394 . S
C1151 C1152 1.383 . S
C1151 H1159 0.929 . S
C1152 C1151 1.383 . S
C1152 C1153 1.377 . S
C1153 H1137 0.930 . S
C1153 C1152 1.377 . S
C1153 C1154 1.379 . S
C1154 H1138 0.931 . S
C1154 C1148 1.383 . S
C1154 C1153 1.379 . S
H1155 C1149 0.959 . S
H1156 C1149 0.961 . S
H1157 C1149 0.960 . S
H1158 C1150 0.930 . S
H1159 C1151 0.929 . S
H1160 C1168 0.929 . S
H1161 C1170 0.930 . S
H1162 C1172 0.930 . S
H1163 C1175 0.929 . S
H1164 C1178 0.930 . S
H1165 C1180 0.960 . S
H1166 C1180 0.960 . S
H1167 C1180 0.960 . S
C1168 H1160 0.929 . S
C1168 C1169 1.377 . S
C1168 C1170 1.384 . S
C1169 C1168 1.377 . S
C1169 C1175 1.390 . S
C1170 H1161 0.930 . S
C1170 C1168 1.384 . S
C1170 C1171 1.372 . S
C1171 C1170 1.372 . S
C1171 C1172 1.400 . S
C1171 C1176 1.490 . S
C1172 H1162 0.930 . S
C1172 C1171 1.400 . S
C1172 C1175 1.386 . S
H1173 C1189 0.930 . S
H1174 C1190 0.931 . S
C1175 H1163 0.929 . S
C1175 C1169 1.390 . S
C1175 C1172 1.386 . S
C1176 C1171 1.490 . S
C1176 C1178 1.395 . S
C1176 C1179 1.403 . S
H1177 C1183 0.930 . S
C1178 H1164 0.930 . S
C1178 C1176 1.395 . S
C1178 C1181 1.403 . S
C1179 C1176 1.403 . S
C1179 C1180 1.524 . S
C1179 C1183 1.400 . S
C1180 H1165 0.960 . S
C1180 H1166 0.960 . S
C1180 H1167 0.960 . S
C1180 C1179 1.524 . S
C1181 C1178 1.403 . S
C1181 C1182 1.392 . S
C1181 C1185 1.495 . S
C1182 C1181 1.392 . S
C1182 C1183 1.385 . S
C1182 C1184 1.478 . S
C1183 H1177 0.930 . S
C1183 C1179 1.400 . S
C1183 C1182 1.385 . S
C1184 C1182 1.478 . S
C1184 C1186 1.381 . S
C1184 C1190 1.383 . S
C1185 C1181 1.495 . S
C1185 H1191 0.959 . S
C1185 H1192 0.961 . S
C1185 H1193 0.960 . S
C1186 C1184 1.381 . S
C1186 C1187 1.394 . S
C1186 H1194 0.930 . S
C1187 C1186 1.394 . S
C1187 C1188 1.383 . S
C1187 H1195 0.929 . S
C1188 C1187 1.383 . S
C1188 C1189 1.377 . S
C1189 H1173 0.930 . S
C1189 C1188 1.377 . S
C1189 C1190 1.379 . S
C1190 H1174 0.931 . S
C1190 C1184 1.383 . S
C1190 C1189 1.379 . S
H1191 C1185 0.959 . S
H1192 C1185 0.961 . S
H1193 C1185 0.960 . S
H1194 C1186 0.930 . S
H1195 C1187 0.929 . S
H1196 C1204 0.929 . S
H1197 C1206 0.930 . S
H1198 C1208 0.930 . S
H1199 C1211 0.929 . S
H1200 C1214 0.930 . S
H1201 C1216 0.960 . S
H1202 C1216 0.960 . S
H1203 C1216 0.960 . S
C1204 H1196 0.929 . S
C1204 C1205 1.377 . S
C1204 C1206 1.384 . S
C1205 C1204 1.377 . S
C1205 C1211 1.390 . S
C1206 H1197 0.930 . S
C1206 C1204 1.384 . S
C1206 C1207 1.372 . S
C1207 C1206 1.372 . S
C1207 C1208 1.400 . S
C1207 C1212 1.490 . S
C1208 H1198 0.930 . S
C1208 C1207 1.400 . S
C1208 C1211 1.386 . S
H1209 C1225 0.930 . S
H1210 C1226 0.931 . S
C1211 H1199 0.929 . S
C1211 C1205 1.390 . S
C1211 C1208 1.386 . S
C1212 C1207 1.490 . S
C1212 C1214 1.395 . S
C1212 C1215 1.403 . S
H1213 C1219 0.930 . S
C1214 H1200 0.930 . S
C1214 C1212 1.395 . S
C1214 C1217 1.403 . S
C1215 C1212 1.403 . S
C1215 C1216 1.524 . S
C1215 C1219 1.400 . S
C1216 H1201 0.960 . S
C1216 H1202 0.960 . S
C1216 H1203 0.960 . S
C1216 C1215 1.524 . S
C1217 C1214 1.403 . S
C1217 C1218 1.392 . S
C1217 C1221 1.495 . S
C1218 C1217 1.392 . S
C1218 C1219 1.385 . S
C1218 C1220 1.478 . S
C1219 H1213 0.930 . S
C1219 C1215 1.400 . S
C1219 C1218 1.385 . S
C1220 C1218 1.478 . S
C1220 C1222 1.381 . S
C1220 C1226 1.383 . S
C1221 C1217 1.495 . S
C1221 H1227 0.959 . S
C1221 H1228 0.961 . S
C1221 H1229 0.960 . S
C1222 C1220 1.381 . S
C1222 C1223 1.394 . S
C1222 H1230 0.930 . S
C1223 C1222 1.394 . S
C1223 C1224 1.383 . S
C1223 H1231 0.929 . S
C1224 C1223 1.383 . S
C1224 C1225 1.377 . S
C1225 H1209 0.930 . S
C1225 C1224 1.377 . S
C1225 C1226 1.379 . S
C1226 H1210 0.931 . S
C1226 C1220 1.383 . S
C1226 C1225 1.379 . S
H1227 C1221 0.959 . S
H1228 C1221 0.961 . S
H1229 C1221 0.960 . S
H1230 C1222 0.930 . S
H1231 C1223 0.929 . S
H1232 C1240 0.929 . S
H1233 C1242 0.930 . S
H1234 C1244 0.930 . S
H1235 C1247 0.929 . S
H1236 C1250 0.930 . S
H1237 C1252 0.960 . S
H1238 C1252 0.960 . S
H1239 C1252 0.960 . S
C1240 H1232 0.929 . S
C1240 C1241 1.377 . S
C1240 C1242 1.384 . S
C1241 C1240 1.377 . S
C1241 C1247 1.390 . S
C1242 H1233 0.930 . S
C1242 C1240 1.384 . S
C1242 C1243 1.372 . S
C1243 C1242 1.372 . S
C1243 C1244 1.400 . S
C1243 C1248 1.490 . S
C1244 H1234 0.930 . S
C1244 C1243 1.400 . S
C1244 C1247 1.386 . S
H1245 C1261 0.930 . S
H1246 C1262 0.931 . S
C1247 H1235 0.929 . S
C1247 C1241 1.390 . S
C1247 C1244 1.386 . S
C1248 C1243 1.490 . S
C1248 C1250 1.395 . S
C1248 C1251 1.403 . S
H1249 C1255 0.930 . S
C1250 H1236 0.930 . S
C1250 C1248 1.395 . S
C1250 C1253 1.403 . S
C1251 C1248 1.403 . S
C1251 C1252 1.524 . S
C1251 C1255 1.400 . S
C1252 H1237 0.960 . S
C1252 H1238 0.960 . S
C1252 H1239 0.960 . S
C1252 C1251 1.524 . S
C1253 C1250 1.403 . S
C1253 C1254 1.392 . S
C1253 C1257 1.495 . S
C1254 C1253 1.392 . S
C1254 C1255 1.385 . S
C1254 C1256 1.478 . S
C1255 H1249 0.930 . S
C1255 C1251 1.400 . S
C1255 C1254 1.385 . S
C1256 C1254 1.478 . S
C1256 C1258 1.381 . S
C1256 C1262 1.383 . S
C1257 C1253 1.495 . S
C1257 H1263 0.959 . S
C1257 H1264 0.961 . S
C1257 H1265 0.960 . S
C1258 C1256 1.381 . S
C1258 C1259 1.394 . S
C1258 H1266 0.930 . S
C1259 C1258 1.394 . S
C1259 C1260 1.383 . S
C1259 H1267 0.929 . S
C1260 C1259 1.383 . S
C1260 C1261 1.377 . S
C1261 H1245 0.930 . S
C1261 C1260 1.377 . S
C1261 C1262 1.379 . S
C1262 H1246 0.931 . S
C1262 C1256 1.383 . S
C1262 C1261 1.379 . S
H1263 C1257 0.959 . S
H1264 C1257 0.961 . S
H1265 C1257 0.960 . S
H1266 C1258 0.930 . S
H1267 C1259 0.929 . S
H1268 C1276 0.929 . S
H1269 C1278 0.930 . S
H1270 C1280 0.930 . S
H1271 C1283 0.929 . S
H1272 C1286 0.930 . S
H1273 C1288 0.960 . S
H1274 C1288 0.960 . S
H1275 C1288 0.960 . S
C1276 H1268 0.929 . S
C1276 C1277 1.377 . S
C1276 C1278 1.384 . S
C1277 C1276 1.377 . S
C1277 C1283 1.390 . S
C1278 H1269 0.930 . S
C1278 C1276 1.384 . S
C1278 C1279 1.372 . S
C1279 C1278 1.372 . S
C1279 C1280 1.400 . S
C1279 C1284 1.490 . S
C1280 H1270 0.930 . S
C1280 C1279 1.400 . S
C1280 C1283 1.386 . S
H1281 C1297 0.930 . S
H1282 C1298 0.931 . S
C1283 H1271 0.929 . S
C1283 C1277 1.390 . S
C1283 C1280 1.386 . S
C1284 C1279 1.490 . S
C1284 C1286 1.395 . S
C1284 C1287 1.403 . S
H1285 C1291 0.930 . S
C1286 H1272 0.930 . S
C1286 C1284 1.395 . S
C1286 C1289 1.403 . S
C1287 C1284 1.403 . S
C1287 C1288 1.524 . S
C1287 C1291 1.400 . S
C1288 H1273 0.960 . S
C1288 H1274 0.960 . S
C1288 H1275 0.960 . S
C1288 C1287 1.524 . S
C1289 C1286 1.403 . S
C1289 C1290 1.392 . S
C1289 C1293 1.495 . S
C1290 C1289 1.392 . S
C1290 C1291 1.385 . S
C1290 C1292 1.478 . S
C1291 H1285 0.930 . S
C1291 C1287 1.400 . S
C1291 C1290 1.385 . S
C1292 C1290 1.478 . S
C1292 C1294 1.381 . S
C1292 C1298 1.383 . S
C1293 C1289 1.495 . S
C1293 H1299 0.959 . S
C1293 H1300 0.961 . S
C1293 H1301 0.960 . S
C1294 C1292 1.381 . S
C1294 C1295 1.394 . S
C1294 H1302 0.930 . S
C1295 C1294 1.394 . S
C1295 C1296 1.383 . S
C1295 H1303 0.929 . S
C1296 C1295 1.383 . S
C1296 C1297 1.377 . S
C1297 H1281 0.930 . S
C1297 C1296 1.377 . S
C1297 C1298 1.379 . S
C1298 H1282 0.931 . S
C1298 C1292 1.383 . S
C1298 C1297 1.379 . S
H1299 C1293 0.959 . S
H1300 C1293 0.961 . S
H1301 C1293 0.960 . S
H1302 C1294 0.930 . S
H1303 C1295 0.929 . S
H1304 C1312 0.929 . S
H1305 C1314 0.930 . S
H1306 C1316 0.930 . S
H1307 C1319 0.929 . S
H1308 C1322 0.930 . S
H1309 C1324 0.960 . S
H1310 C1324 0.960 . S
H1311 C1324 0.960 . S
C1312 H1304 0.929 . S
C1312 C1313 1.377 . S
C1312 C1314 1.384 . S
C1313 C1312 1.377 . S
C1313 C1319 1.390 . S
C1314 H1305 0.930 . S
C1314 C1312 1.384 . S
C1314 C1315 1.372 . S
C1315 C1314 1.372 . S
C1315 C1316 1.400 . S
C1315 C1320 1.490 . S
C1316 H1306 0.930 . S
C1316 C1315 1.400 . S
C1316 C1319 1.386 . S
H1317 C1333 0.930 . S
H1318 C1334 0.931 . S
C1319 H1307 0.929 . S
C1319 C1313 1.390 . S
C1319 C1316 1.386 . S
C1320 C1315 1.490 . S
C1320 C1322 1.395 . S
C1320 C1323 1.403 . S
H1321 C1327 0.930 . S
C1322 H1308 0.930 . S
C1322 C1320 1.395 . S
C1322 C1325 1.403 . S
C1323 C1320 1.403 . S
C1323 C1324 1.524 . S
C1323 C1327 1.400 . S
C1324 H1309 0.960 . S
C1324 H1310 0.960 . S
C1324 H1311 0.960 . S
C1324 C1323 1.524 . S
C1325 C1322 1.403 . S
C1325 C1326 1.392 . S
C1325 C1329 1.495 . S
C1326 C1325 1.392 . S
C1326 C1327 1.385 . S
C1326 C1328 1.478 . S
C1327 H1321 0.930 . S
C1327 C1323 1.400 . S
C1327 C1326 1.385 . S
C1328 C1326 1.478 . S
C1328 C1330 1.381 . S
C1328 C1334 1.383 . S
C1329 C1325 1.495 . S
C1329 H1335 0.959 . S
C1329 H1336 0.961 . S
C1329 H1337 0.960 . S
C1330 C1328 1.381 . S
C1330 C1331 1.394 . S
C1330 H1338 0.930 . S
C1331 C1330 1.394 . S
C1331 C1332 1.383 . S
C1331 H1339 0.929 . S
C1332 C1331 1.383 . S
C1332 C1333 1.377 . S
C1333 H1317 0.930 . S
C1333 C1332 1.377 . S
C1333 C1334 1.379 . S
C1334 H1318 0.931 . S
C1334 C1328 1.383 . S
C1334 C1333 1.379 . S
H1335 C1329 0.959 . S
H1336 C1329 0.961 . S
H1337 C1329 0.960 . S
H1338 C1330 0.930 . S
H1339 C1331 0.929 . S
H1340 C1348 0.929 . S
H1341 C1350 0.930 . S
H1342 C1352 0.930 . S
H1343 C1355 0.929 . S
H1344 C1358 0.930 . S
H1345 C1360 0.960 . S
H1346 C1360 0.960 . S
H1347 C1360 0.960 . S
C1348 H1340 0.929 . S
C1348 C1349 1.377 . S
C1348 C1350 1.384 . S
C1349 C1348 1.377 . S
C1349 C1355 1.390 . S
C1350 H1341 0.930 . S
C1350 C1348 1.384 . S
C1350 C1351 1.372 . S
C1351 C1350 1.372 . S
C1351 C1352 1.400 . S
C1351 C1356 1.490 . S
C1352 H1342 0.930 . S
C1352 C1351 1.400 . S
C1352 C1355 1.386 . S
H1353 C1369 0.930 . S
H1354 C1370 0.931 . S
C1355 H1343 0.929 . S
C1355 C1349 1.390 . S
C1355 C1352 1.386 . S
C1356 C1351 1.490 . S
C1356 C1358 1.395 . S
C1356 C1359 1.403 . S
H1357 C1363 0.930 . S
C1358 H1344 0.930 . S
C1358 C1356 1.395 . S
C1358 C1361 1.403 . S
C1359 C1356 1.403 . S
C1359 C1360 1.524 . S
C1359 C1363 1.400 . S
C1360 H1345 0.960 . S
C1360 H1346 0.960 . S
C1360 H1347 0.960 . S
C1360 C1359 1.524 . S
C1361 C1358 1.403 . S
C1361 C1362 1.392 . S
C1361 C1365 1.495 . S
C1362 C1361 1.392 . S
C1362 C1363 1.385 . S
C1362 C1364 1.478 . S
C1363 H1357 0.930 . S
C1363 C1359 1.400 . S
C1363 C1362 1.385 . S
C1364 C1362 1.478 . S
C1364 C1366 1.381 . S
C1364 C1370 1.383 . S
C1365 C1361 1.495 . S
C1365 H1371 0.959 . S
C1365 H1372 0.961 . S
C1365 H1373 0.960 . S
C1366 C1364 1.381 . S
C1366 C1367 1.394 . S
C1366 H1374 0.930 . S
C1367 C1366 1.394 . S
C1367 C1368 1.383 . S
C1367 H1375 0.929 . S
C1368 C1367 1.383 . S
C1368 C1369 1.377 . S
C1369 H1353 0.930 . S
C1369 C1368 1.377 . S
C1369 C1370 1.379 . S
C1370 H1354 0.931 . S
C1370 C1364 1.383 . S
C1370 C1369 1.379 . S
H1371 C1365 0.959 . S
H1372 C1365 0.961 . S
H1373 C1365 0.960 . S
H1374 C1366 0.930 . S
H1375 C1367 0.929 . S
H1376 C1384 0.929 . S
H1377 C1386 0.930 . S
H1378 C1388 0.930 . S
H1379 C1391 0.929 . S
H1380 C1394 0.930 . S
H1381 C1396 0.960 . S
H1382 C1396 0.960 . S
H1383 C1396 0.960 . S
C1384 H1376 0.929 . S
C1384 C1385 1.377 . S
C1384 C1386 1.384 . S
C1385 C1384 1.377 . S
C1385 C1391 1.390 . S
C1386 H1377 0.930 . S
C1386 C1384 1.384 . S
C1386 C1387 1.372 . S
C1387 C1386 1.372 . S
C1387 C1388 1.400 . S
C1387 C1392 1.490 . S
C1388 H1378 0.930 . S
C1388 C1387 1.400 . S
C1388 C1391 1.386 . S
H1389 C1405 0.930 . S
H1390 C1406 0.931 . S
C1391 H1379 0.929 . S
C1391 C1385 1.390 . S
C1391 C1388 1.386 . S
C1392 C1387 1.490 . S
C1392 C1394 1.395 . S
C1392 C1395 1.403 . S
H1393 C1399 0.930 . S
C1394 H1380 0.930 . S
C1394 C1392 1.395 . S
C1394 C1397 1.403 . S
C1395 C1392 1.403 . S
C1395 C1396 1.524 . S
C1395 C1399 1.400 . S
C1396 H1381 0.960 . S
C1396 H1382 0.960 . S
C1396 H1383 0.960 . S
C1396 C1395 1.524 . S
C1397 C1394 1.403 . S
C1397 C1398 1.392 . S
C1397 C1401 1.495 . S
C1398 C1397 1.392 . S
C1398 C1399 1.385 . S
C1398 C1400 1.478 . S
C1399 H1393 0.930 . S
C1399 C1395 1.400 . S
C1399 C1398 1.385 . S
C1400 C1398 1.478 . S
C1400 C1402 1.381 . S
C1400 C1406 1.383 . S
C1401 C1397 1.495 . S
C1401 H1407 0.959 . S
C1401 H1408 0.961 . S
C1401 H1409 0.960 . S
C1402 C1400 1.381 . S
C1402 C1403 1.394 . S
C1402 H1410 0.930 . S
C1403 C1402 1.394 . S
C1403 C1404 1.383 . S
C1403 H1411 0.929 . S
C1404 C1403 1.383 . S
C1404 C1405 1.377 . S
C1405 H1389 0.930 . S
C1405 C1404 1.377 . S
C1405 C1406 1.379 . S
C1406 H1390 0.931 . S
C1406 C1400 1.383 . S
C1406 C1405 1.379 . S
H1407 C1401 0.959 . S
H1408 C1401 0.961 . S
H1409 C1401 0.960 . S
H1410 C1402 0.930 . S
H1411 C1403 0.929 . S
H1412 C1420 0.929 . S
H1413 C1422 0.930 . S
H1414 C1424 0.930 . S
H1415 C1427 0.929 . S
H1416 C1430 0.930 . S
H1417 C1432 0.960 . S
H1418 C1432 0.960 . S
H1419 C1432 0.960 . S
C1420 H1412 0.929 . S
C1420 C1421 1.377 . S
C1420 C1422 1.384 . S
C1421 C1420 1.377 . S
C1421 C1427 1.390 . S
C1422 H1413 0.930 . S
C1422 C1420 1.384 . S
C1422 C1423 1.372 . S
C1423 C1422 1.372 . S
C1423 C1424 1.400 . S
C1423 C1428 1.490 . S
C1424 H1414 0.930 . S
C1424 C1423 1.400 . S
C1424 C1427 1.386 . S
H1425 C1441 0.930 . S
H1426 C1442 0.931 . S
C1427 H1415 0.929 . S
C1427 C1421 1.390 . S
C1427 C1424 1.386 . S
C1428 C1423 1.490 . S
C1428 C1430 1.395 . S
C1428 C1431 1.403 . S
H1429 C1435 0.930 . S
C1430 H1416 0.930 . S
C1430 C1428 1.395 . S
C1430 C1433 1.403 . S
C1431 C1428 1.403 . S
C1431 C1432 1.524 . S
C1431 C1435 1.400 . S
C1432 H1417 0.960 . S
C1432 H1418 0.960 . S
C1432 H1419 0.960 . S
C1432 C1431 1.524 . S
C1433 C1430 1.403 . S
C1433 C1434 1.392 . S
C1433 C1437 1.495 . S
C1434 C1433 1.392 . S
C1434 C1435 1.385 . S
C1434 C1436 1.478 . S
C1435 H1429 0.930 . S
C1435 C1431 1.400 . S
C1435 C1434 1.385 . S
C1436 C1434 1.478 . S
C1436 C1438 1.381 . S
C1436 C1442 1.383 . S
C1437 C1433 1.495 . S
C1437 H1443 0.959 . S
C1437 H1444 0.961 . S
C1437 H1445 0.960 . S
C1438 C1436 1.381 . S
C1438 C1439 1.394 . S
C1438 H1446 0.930 . S
C1439 C1438 1.394 . S
C1439 C1440 1.383 . S
C1439 H1447 0.929 . S
C1440 C1439 1.383 . S
C1440 C1441 1.377 . S
C1441 H1425 0.930 . S
C1441 C1440 1.377 . S
C1441 C1442 1.379 . S
C1442 H1426 0.931 . S
C1442 C1436 1.383 . S
C1442 C1441 1.379 . S
H1443 C1437 0.959 . S
H1444 C1437 0.961 . S
H1445 C1437 0.960 . S
H1446 C1438 0.930 . S
H1447 C1439 0.929 . S
H1448 C1456 0.929 . S
H1449 C1458 0.930 . S
H1450 C1460 0.930 . S
H1451 C1463 0.929 . S
H1452 C1466 0.930 . S
H1453 C1468 0.960 . S
H1454 C1468 0.960 . S
H1455 C1468 0.960 . S
C1456 H1448 0.929 . S
C1456 C1457 1.377 . S
C1456 C1458 1.384 . S
C1457 C1456 1.377 . S
C1457 C1463 1.390 . S
C1458 H1449 0.930 . S
C1458 C1456 1.384 . S
C1458 C1459 1.372 . S
C1459 C1458 1.372 . S
C1459 C1460 1.400 . S
C1459 C1464 1.490 . S
C1460 H1450 0.930 . S
C1460 C1459 1.400 . S
C1460 C1463 1.386 . S
H1461 C1477 0.930 . S
H1462 C1478 0.931 . S
C1463 H1451 0.929 . S
C1463 C1457 1.390 . S
C1463 C1460 1.386 . S
C1464 C1459 1.490 . S
C1464 C1466 1.395 . S
C1464 C1467 1.403 . S
H1465 C1471 0.930 . S
C1466 H1452 0.930 . S
C1466 C1464 1.395 . S
C1466 C1469 1.403 . S
C1467 C1464 1.403 . S
C1467 C1468 1.524 . S
C1467 C1471 1.400 . S
C1468 H1453 0.960 . S
C1468 H1454 0.960 . S
C1468 H1455 0.960 . S
C1468 C1467 1.524 . S
C1469 C1466 1.403 . S
C1469 C1470 1.392 . S
C1469 C1473 1.495 . S
C1470 C1469 1.392 . S
C1470 C1471 1.385 . S
C1470 C1472 1.478 . S
C1471 H1465 0.930 . S
C1471 C1467 1.400 . S
C1471 C1470 1.385 . S
C1472 C1470 1.478 . S
C1472 C1474 1.381 . S
C1472 C1478 1.383 . S
C1473 C1469 1.495 . S
C1473 H1479 0.959 . S
C1473 H1480 0.961 . S
C1473 H1481 0.960 . S
C1474 C1472 1.381 . S
C1474 C1475 1.394 . S
C1474 H1482 0.930 . S
C1475 C1474 1.394 . S
C1475 C1476 1.383 . S
C1475 H1483 0.929 . S
C1476 C1475 1.383 . S
C1476 C1477 1.377 . S
C1477 H1461 0.930 . S
C1477 C1476 1.377 . S
C1477 C1478 1.379 . S
C1478 H1462 0.931 . S
C1478 C1472 1.383 . S
C1478 C1477 1.379 . S
H1479 C1473 0.959 . S
H1480 C1473 0.961 . S
H1481 C1473 0.960 . S
H1482 C1474 0.930 . S
H1483 C1475 0.929 . S
H1484 C1492 0.929 . S
H1485 C1494 0.930 . S
H1486 C1496 0.930 . S
H1487 C1499 0.929 . S
H1488 C1502 0.930 . S
H1489 C1504 0.960 . S
H1490 C1504 0.960 . S
H1491 C1504 0.960 . S
C1492 H1484 0.929 . S
C1492 C1493 1.377 . S
C1492 C1494 1.384 . S
C1493 C1492 1.377 . S
C1493 C1499 1.390 . S
C1494 H1485 0.930 . S
C1494 C1492 1.384 . S
C1494 C1495 1.372 . S
C1495 C1494 1.372 . S
C1495 C1496 1.400 . S
C1495 C1500 1.490 . S
C1496 H1486 0.930 . S
C1496 C1495 1.400 . S
C1496 C1499 1.386 . S
H1497 C1513 0.930 . S
H1498 C1514 0.931 . S
C1499 H1487 0.929 . S
C1499 C1493 1.390 . S
C1499 C1496 1.386 . S
C1500 C1495 1.490 . S
C1500 C1502 1.395 . S
C1500 C1503 1.403 . S
H1501 C1507 0.930 . S
C1502 H1488 0.930 . S
C1502 C1500 1.395 . S
C1502 C1505 1.403 . S
C1503 C1500 1.403 . S
C1503 C1504 1.524 . S
C1503 C1507 1.400 . S
C1504 H1489 0.960 . S
C1504 H1490 0.960 . S
C1504 H1491 0.960 . S
C1504 C1503 1.524 . S
C1505 C1502 1.403 . S
C1505 C1506 1.392 . S
C1505 C1509 1.495 . S
C1506 C1505 1.392 . S
C1506 C1507 1.385 . S
C1506 C1508 1.478 . S
C1507 H1501 0.930 . S
C1507 C1503 1.400 . S
C1507 C1506 1.385 . S
C1508 C1506 1.478 . S
C1508 C1510 1.381 . S
C1508 C1514 1.383 . S
C1509 C1505 1.495 . S
C1509 H1515 0.959 . S
C1509 H1516 0.961 . S
C1509 H1517 0.960 . S
C1510 C1508 1.381 . S
C1510 C1511 1.394 . S
C1510 H1518 0.930 . S
C1511 C1510 1.394 . S
C1511 C1512 1.383 . S
C1511 H1519 0.929 . S
C1512 C1511 1.383 . S
C1512 C1513 1.377 . S
C1513 H1497 0.930 . S
C1513 C1512 1.377 . S
C1513 C1514 1.379 . S
C1514 H1498 0.931 . S
C1514 C1508 1.383 . S
C1514 C1513 1.379 . S
H1515 C1509 0.959 . S
H1516 C1509 0.961 . S
H1517 C1509 0.960 . S
H1518 C1510 0.930 . S
H1519 C1511 0.929 . S
C665 C242 1.459 . S
C684 C376 1.475 . S
C720 C460 1.466 . S
C701 C301 1.487 . S
C756 C459 1.484 . S
C737 C162 1.452 . S
C773 C221 1.478 . S
C792 C375 1.470 . S
C828 C556 1.485 . S
C809 C82 1.481 . S
C864 C640 1.469 . S
C845 C141 1.462 . S
C881 C2 1.476 . S
C900 C639 1.479 . S
C917 C61 1.451 . S
C936 C555 1.464 . S
C972 C378 1.368 . S
C953 C42 1.506 1_554 S
C1008 C462 1.378 . S
C989 C21 1.530 . S
C1044 C474 1.385 . S
C1025 C122 1.534 1_556 S
C1080 C390 1.387 . S
C1061 C101 1.553 . S
C1116 C558 1.326 . S
C1097 C202 1.533 1_556 S
C1133 C181 1.494 . S
C1152 C642 1.368 . S
C1188 C630 1.448 . S
C1169 C282 1.551 1_554 S
C1205 C261 1.531 . S
C1224 C546 1.448 . S
C1260 C387 1.623 . S
C1241 C15 1.619 . S
C1296 C471 1.600 . S
C1277 C55 1.602 . S
C1313 C95 1.599 . S
C1332 C472 1.601 . S
C1368 C388 1.578 . S
C1349 C135 1.589 . S
C1404 C543 1.617 . S
C1385 C175 1.618 . S
C1421 C215 1.606 . S
C1440 C627 1.599 . S
C1457 C255 1.598 . S
C1476 C628 1.602 . S
C1493 C295 1.591 . S
C1512 C544 1.591 . S
