# Generated by pormake.
# Topology nia, (6,6)-cn, num edge types: 1
# Building blocks:
#     Node 0, Type 0, BuildingBlock: KUMBUR_clean_sbu_1, # of connection points: 6
#     Node 1, Type 0, BuildingBlock: KUMBUR_clean_sbu_1, # of connection points: 6
#     Node 2, Type 1, BuildingBlock: MIDCAF_clean_sbu_0, # of connection points: 6
#     Node 3, Type 1, BuildingBlock: MIDCAF_clean_sbu_0, # of connection points: 6
#     Edge 4, Type (0, 1), BuildingBlock: FUNLAD_clean_linker_1, # of connection points: 2
#     Edge 5, Type (0, 1), BuildingBlock: FUNLAD_clean_linker_1, # of connection points: 2
#     Edge 6, Type (0, 1), BuildingBlock: FUNLAD_clean_linker_1, # of connection points: 2
#     Edge 7, Type (0, 1), BuildingBlock: FUNLAD_clean_linker_1, # of connection points: 2
#     Edge 8, Type (0, 1), BuildingBlock: FUNLAD_clean_linker_1, # of connection points: 2
#     Edge 9, Type (0, 1), BuildingBlock: FUNLAD_clean_linker_1, # of connection points: 2
#     Edge 10, Type (0, 1), BuildingBlock: FUNLAD_clean_linker_1, # of connection points: 2
#     Edge 11, Type (0, 1), BuildingBlock: FUNLAD_clean_linker_1, # of connection points: 2
#     Edge 12, Type (0, 1), BuildingBlock: FUNLAD_clean_linker_1, # of connection points: 2
#     Edge 13, Type (0, 1), BuildingBlock: FUNLAD_clean_linker_1, # of connection points: 2
#     Edge 14, Type (0, 1), BuildingBlock: FUNLAD_clean_linker_1, # of connection points: 2
#     Edge 15, Type (0, 1), BuildingBlock: FUNLAD_clean_linker_1, # of connection points: 2
# Relax obj value: 0.170
# Max RMSD: 0.278
# Mean RMSD: 0.201
data_MOF--net-nia--node1-KUMBUR_clean_sbu_1--node2-MIDCAF_clean_sbu_0--edge1-FUNLAD_clean_linker_1
_symmetry_space_group_name_H-M    P1
_symmetry_Int_Tables_number       1
_symmetry_cell_setting            triclinic
loop_
_symmetry_equiv_pos_as_xyz
'x, y, z'
_cell_length_a     29.141936
_cell_length_b     29.049296
_cell_length_c     32.972555
_cell_angle_alpha  89.93953
_cell_angle_beta   90.35592
_cell_angle_gamma 135.19823
loop_
_atom_site_label
_atom_site_type_symbol
_atom_site_fract_x
_atom_site_fract_y
_atom_site_fract_z
_atom_type_partial_charge
Tb0 Tb 0.02828 0.96038 0.05325 0.0
C1 C 0.92647 0.95504 0.89433 0.0
N2 N 0.9871 0.00862 0.90821 0.0
C3 C 0.03277 0.01968 0.84425 0.0
C4 C 0.91694 0.9295 0.85534 0.0
C5 C 0.03979 0.04269 0.88339 0.0
C6 C 0.97117 0.96236 0.83032 0.0
C7 C 0.81065 0.86881 0.90684 0.0
C8 C 0.87435 0.92504 0.91998 0.0
C9 C 0.80089 0.84174 0.8685 0.0
C10 C 0.85391 0.87206 0.84279 0.0
Tb11 Tb 0.99436 0.04161 0.9727 0.0
N12 N 0.88589 0.95247 0.95705 0.0
C13 C 0.75854 0.84255 0.93211 0.0
C14 C 0.83441 0.93093 0.97959 0.0
C15 C 0.7704 0.87473 0.96817 0.0
H16 H 0.08725 0.08686 0.89418 0.0
H17 H 0.73013 0.85707 0.98679 0.0
H18 H 0.89559 0.8446 0.10635 0.0
H19 H 0.27784 0.15441 0.10397 0.0
H20 H 0.84155 0.95744 1.00589 0.0
H21 H 0.70887 0.79929 0.92322 0.0
H22 H 0.18938 0.07474 0.05476 0.0
H23 H 0.07483 0.04598 0.82493 0.0
H24 H 0.75238 0.79806 0.85816 0.0
H25 H 0.84558 0.8511 0.81314 0.0
H26 H 0.85888 0.82629 0.17729 0.0
H27 H 0.96592 0.9443 0.80014 0.0
H28 H 0.25121 0.15502 0.17501 0.0
N29 N 0.99006 0.93837 0.11826 0.0
C30 C 0.03414 0.98121 0.14738 0.0
C31 C 0.90812 0.87071 0.16922 0.0
C32 C 0.01619 0.97259 0.1884 0.0
C33 C 0.92847 0.88191 0.12891 0.0
C34 C 0.95177 0.91708 0.199 0.0
N35 N 0.11369 0.03341 0.09707 0.0
C36 C 0.17741 0.07502 0.08563 0.0
C37 C 0.14716 0.07405 0.1657 0.0
C38 C 0.09853 0.03038 0.13644 0.0
C39 C 0.21231 0.12032 0.1535 0.0
C40 C 0.22754 0.12007 0.11343 0.0
H41 H 0.93597 0.90829 0.2302 0.0
H42 H 0.0509 0.01259 0.2492 0.0
H43 H 0.16577 0.10203 0.22918 0.0
O44 O 0.07592 0.9338 0.03335 0.0
O45 O 0.08027 0.06251 0.06381 0.0
O46 O 0.02648 0.08654 0.03344 0.0
O47 O 0.99909 0.87584 0.07668 0.0
O48 O 0.09602 0.01596 1.00216 0.0
O49 O 0.09632 0.09276 0.97928 0.0
O50 O 0.95358 0.07522 0.95172 0.0
O51 O 0.00248 0.97507 0.95522 0.0
O52 O 0.95231 0.90143 0.00654 0.0
O53 O 0.05768 0.13628 0.94791 0.0
O54 O 0.94474 0.00938 0.03103 0.0
O55 O 0.93136 0.92336 0.04822 0.0
C56 C 0.06564 0.09608 0.06117 0.0
C57 C 0.08372 0.88202 0.08474 0.0
C58 C 0.15644 0.86723 0.09056 0.0
C59 C 0.15496 0.87049 0.13306 0.0
C60 C 0.08311 0.88527 0.12724 0.0
C61 C 0.11838 0.87931 0.1511 0.0
C62 C 0.12044 0.87308 0.06678 0.0
C63 C 0.12321 0.07075 0.98346 0.0
C64 C 0.04478 0.88564 0.05881 0.0
C65 C 0.06378 0.0178 0.2176 0.0
C66 C 0.12922 0.06863 0.20622 0.0
C67 C 0.96533 0.91526 0.96794 0.0
C68 C 0.01965 0.18282 0.92113 0.0
C69 C 0.97527 0.22244 0.89246 0.0
C70 C 0.03889 0.28142 0.88229 0.0
C71 C 0.0825 0.24179 0.91028 0.0
C72 C 0.96623 0.17366 0.9124 0.0
C73 C 0.09192 0.29077 0.89113 0.0
C74 C 0.91916 0.95872 0.05378 0.0
C75 C 0.01 0.13045 0.94019 0.0
H76 H 0.18303 0.8684 0.15272 0.0
H77 H 0.05535 0.89221 0.14211 0.0
H78 H 0.11788 0.88219 0.18381 0.0
H79 H 0.12109 0.87085 0.03396 0.0
H80 H 0.04819 0.32106 0.86826 0.0
H81 H 0.12446 0.25011 0.91654 0.0
H82 H 0.91747 0.12828 0.92061 0.0
H83 H 0.1406 0.3363 0.8832 0.0
Tb84 Tb 0.03135 0.97896 0.45982 0.0
C85 C 0.03826 0.066 0.63333 0.0
N86 N 0.98516 0.01418 0.61173 0.0
C87 C 0.94407 0.94571 0.67024 0.0
C88 C 0.04757 0.05886 0.67397 0.0
C89 C 0.93746 0.95489 0.62979 0.0
C90 C 0.99972 0.99767 0.6923 0.0
C91 C 0.14113 0.18025 0.63507 0.0
C92 C 0.08462 0.12583 0.6139 0.0
C93 C 0.15089 0.17322 0.67547 0.0
C94 C 0.10428 0.1127 0.69485 0.0
Tb95 Tb 0.97973 0.03509 0.54608 0.0
N96 N 0.07508 0.13013 0.57408 0.0
C97 C 0.18619 0.24008 0.61498 0.0
C98 C 0.11653 0.18978 0.55559 0.0
C99 C 0.17322 0.24507 0.57533 0.0
H100 H 0.89347 0.91513 0.61334 0.0
H101 H 0.20636 0.29182 0.56015 0.0
H102 H 0.08285 0.08181 0.38504 0.0
H103 H 0.8344 0.71359 0.46403 0.0
H104 H 0.10564 0.19636 0.5263 0.0
H105 H 0.23021 0.28304 0.63013 0.0
H106 H 0.93543 0.82189 0.48813 0.0
H107 H 0.9062 0.89857 0.6844 0.0
H108 H 0.19429 0.21437 0.69204 0.0
H109 H 0.11251 0.10807 0.72603 0.0
H110 H 0.04421 0.07858 0.31688 0.0
H111 H 0.00499 0.9902 0.7235 0.0
H112 H 0.78081 0.7025 0.40141 0.0
N113 N 0.00127 0.98105 0.39608 0.0
C114 C 0.9455 0.92281 0.3808 0.0
C115 C 0.01605 0.03459 0.33465 0.0
C116 C 0.92174 0.91862 0.34213 0.0
C117 C 0.03761 0.03641 0.37322 0.0
C118 C 0.95768 0.97556 0.31914 0.0
N119 N 0.93624 0.874 0.44186 0.0
C120 C 0.911 0.81895 0.46201 0.0
C121 C 0.8539 0.80632 0.38952 0.0
C122 C 0.91141 0.86778 0.40472 0.0
C123 C 0.82452 0.75068 0.41223 0.0
C124 C 0.85427 0.7569 0.44797 0.0
H125 H 0.94105 0.97442 0.28933 0.0
H126 H 0.84345 0.85397 0.29838 0.0
H127 H 0.78436 0.75528 0.33971 0.0
O128 O 0.05934 0.92908 0.45719 0.0
O129 O 0.96944 0.99435 0.44534 0.0
O130 O 0.90505 0.966 0.49991 0.0
O131 O 0.10111 0.0084 0.4171 0.0
O132 O 0.98861 0.92403 0.51729 0.0
O133 O 0.91687 0.93062 0.53602 0.0
O134 O 0.96553 0.09669 0.54445 0.0
O135 O 0.04584 0.02581 0.56212 0.0
O136 O 0.10612 0.04676 0.50642 0.0
O137 O 0.90761 0.01259 0.58316 0.0
O138 O 0.02818 0.0945 0.49101 0.0
O139 O 0.0956 0.08482 0.46516 0.0
C140 C 0.91314 0.96551 0.46069 0.0
C141 C 0.16565 0.99018 0.43407 0.0
C142 C 0.23667 0.97461 0.42291 0.0
C143 C 0.28722 0.03396 0.44316 0.0
C144 C 0.21725 0.0503 0.45302 0.0
C145 C 0.27759 0.07168 0.45791 0.0
C146 C 0.17545 0.95253 0.4191 0.0
C147 C 0.93699 0.90198 0.53729 0.0
C148 C 0.1015 0.9661 0.42872 0.0
C149 C 0.86282 0.85807 0.32785 0.0
C150 C 0.82903 0.80199 0.35147 0.0
C151 C 0.1004 0.05144 0.5455 0.0
C152 C 0.86302 0.05238 0.56406 0.0
C153 C 0.80319 0.07884 0.5831 0.0
C154 C 0.75659 0.03568 0.55276 0.0
C155 C 0.81679 0.01004 0.53373 0.0
C156 C 0.85577 0.0861 0.58873 0.0
C157 C 0.76358 0.00162 0.52828 0.0
C158 C 0.0783 0.11606 0.46929 0.0
C159 C 0.91938 0.06266 0.57122 0.0
H160 H 0.33452 0.05161 0.44704 0.0
H161 H 0.21087 0.08062 0.46381 0.0
H162 H 0.31712 0.11781 0.47295 0.0
H163 H 0.13493 0.90581 0.40498 0.0
H164 H 0.71435 0.02732 0.54823 0.0
H165 H 0.82173 0.98355 0.51455 0.0
H166 H 0.8918 0.11886 0.61216 0.0
H167 H 0.72754 0.96848 0.50507 0.0
Zn168 Zn 0.38573 0.67173 0.17908 0.0
Zn169 Zn 0.33695 0.63411 0.33134 0.0
Zn170 Zn 0.36566 0.65196 0.25445 0.0
C171 C 0.47327 0.72105 0.32528 0.0
C172 C 0.27864 0.51359 0.30112 0.0
O173 O 0.32831 0.69361 0.22982 0.0
O174 O 0.34838 0.70441 0.16411 0.0
C175 C 0.50726 0.74629 0.21286 0.0
O176 O 0.45992 0.7101 0.28702 0.0
O177 O 0.42863 0.69534 0.35079 0.0
O178 O 0.28253 0.53949 0.33343 0.0
O179 O 0.30567 0.54761 0.26844 0.0
O180 O 0.4806 0.73717 0.17942 0.0
O181 O 0.47233 0.71751 0.24499 0.0
O182 O 0.31082 0.55458 0.22572 0.0
O183 O 0.34024 0.58285 0.16168 0.0
C184 C 0.30921 0.53936 0.1886 0.0
O185 O 0.32261 0.68962 0.27231 0.0
O186 O 0.29624 0.66549 0.33711 0.0
C187 C 0.32589 0.70995 0.19395 0.0
C188 C 0.29956 0.69134 0.30503 0.0
Zn189 Zn 0.6569 0.35372 0.83318 0.0
Zn190 Zn 0.65339 0.39147 0.68113 0.0
Zn191 Zn 0.65908 0.3741 0.75716 0.0
C192 C 0.74367 0.51507 0.71345 0.0
C193 C 0.52785 0.30894 0.70426 0.0
O194 O 0.69678 0.32892 0.76767 0.0
O195 O 0.67502 0.30038 0.83225 0.0
C196 C 0.74522 0.4885 0.82466 0.0
O197 O 0.72702 0.48156 0.74593 0.0
O198 O 0.71918 0.48681 0.67965 0.0
O199 O 0.56203 0.34496 0.67439 0.0
O200 O 0.55524 0.31226 0.73669 0.0
O201 O 0.72815 0.4465 0.85027 0.0
O202 O 0.72315 0.47108 0.78794 0.0
O203 O 0.55848 0.31404 0.77951 0.0
O204 O 0.56761 0.30965 0.84557 0.0
C205 C 0.53339 0.29653 0.8152 0.0
O206 O 0.6933 0.33637 0.72488 0.0
O207 O 0.67646 0.3457 0.66113 0.0
C208 C 0.69627 0.30135 0.79874 0.0
C209 C 0.69411 0.32819 0.68654 0.0
H210 H 0.20958 0.88001 0.03749 0.0
C211 C 0.19843 0.86356 0.06881 0.0
H212 H 0.25356 0.84356 0.061 0.0
H213 H 0.32709 0.83941 0.23517 0.0
H214 H 0.40366 0.95803 0.23248 0.0
H215 H 0.39384 0.01043 0.17928 0.0
H216 H 0.3073 0.94471 0.1284 0.0
C217 C 0.22375 0.84148 0.08221 0.0
C218 C 0.21434 0.81205 0.12222 0.0
C219 C 0.26449 0.8508 0.15176 0.0
C220 C 0.27064 0.82064 0.18208 0.0
C221 C 0.32125 0.86038 0.2112 0.0
C222 C 0.36506 0.92819 0.21008 0.0
C223 C 0.35963 0.95775 0.18003 0.0
C224 C 0.31017 0.91971 0.15096 0.0
H225 H 0.33216 0.78035 0.16306 0.0
C226 C 0.30494 0.74273 0.18627 0.0
H227 H 0.21833 0.68111 0.22022 0.0
H228 H 0.10383 0.72456 0.07685 0.0
H229 H 0.02291 0.60593 0.08239 0.0
H230 H 0.0349 0.55329 0.13394 0.0
H231 H 0.12747 0.61862 0.18036 0.0
C232 C 0.25004 0.72293 0.20019 0.0
C233 C 0.22816 0.75192 0.18174 0.0
C234 C 0.17227 0.71297 0.15626 0.0
C235 C 0.16545 0.74326 0.12637 0.0
C236 C 0.11112 0.70356 0.09983 0.0
C237 C 0.06445 0.63569 0.1028 0.0
C238 C 0.0712 0.60604 0.13185 0.0
C239 C 0.12458 0.64401 0.15824 0.0
H240 H 0.15062 0.09387 0.60411 0.0
C241 C 0.1557 0.08382 0.57372 0.0
H242 H 0.21787 0.09217 0.53452 0.0
H243 H 0.48164 0.34084 0.61567 0.0
H244 H 0.49115 0.37682 0.54756 0.0
H245 H 0.39833 0.30741 0.49981 0.0
H246 H 0.29598 0.20076 0.51977 0.0
C247 C 0.21122 0.10169 0.56454 0.0
C248 C 0.26744 0.14232 0.59373 0.0
C249 C 0.32664 0.20547 0.58194 0.0
C250 C 0.37909 0.24681 0.61021 0.0
C251 C 0.43882 0.30823 0.59654 0.0
C252 C 0.44533 0.32952 0.55719 0.0
C253 C 0.39319 0.29039 0.53028 0.0
C254 C 0.33459 0.22903 0.54223 0.0
H255 H 0.43292 0.20719 0.69984 0.0
C256 C 0.45665 0.25745 0.69843 0.0
H257 H 0.45263 0.32316 0.67963 0.0
H258 H 0.1661 0.02001 0.62454 0.0
H259 H 0.1516 0.98716 0.69471 0.0
H260 H 0.23525 0.06481 0.7463 0.0
H261 H 0.33521 0.17493 0.72779 0.0
C262 C 0.42696 0.27217 0.68022 0.0
C263 C 0.37126 0.22648 0.65111 0.0
C264 C 0.31148 0.16369 0.66311 0.0
C265 C 0.26084 0.12054 0.63394 0.0
C266 C 0.20422 0.05609 0.64593 0.0
C267 C 0.19554 0.0364 0.68604 0.0
C268 C 0.24286 0.08 0.71504 0.0
C269 C 0.30028 0.14293 0.70391 0.0
H270 H 0.1037 0.13823 0.12241 0.0
C271 C 0.09337 0.14595 0.09288 0.0
H272 H 0.09746 0.20804 0.05634 0.0
H273 H 0.11264 0.37761 0.18126 0.0
H274 H 0.01039 0.32036 0.14645 0.0
H275 H 0.96231 0.22903 0.09971 0.0
H276 H 0.01633 0.19484 0.08707 0.0
C277 C 0.10799 0.20072 0.08597 0.0
C278 C 0.13404 0.25054 0.11832 0.0
C279 C 0.10041 0.26826 0.12669 0.0
C280 C 0.12741 0.32013 0.15428 0.0
C281 C 0.09407 0.33838 0.16076 0.0
C282 C 0.03527 0.30582 0.14108 0.0
C283 C 0.00823 0.25444 0.11473 0.0
C284 C 0.04003 0.23554 0.1076 0.0
H285 H 0.28921 0.46865 0.1467 0.0
C286 C 0.27456 0.47271 0.17566 0.0
H287 H 0.20388 0.4192 0.22184 0.0
H288 H 0.21612 0.23448 0.10808 0.0
H289 H 0.31226 0.2853 0.14772 0.0
H290 H 0.35149 0.36643 0.20083 0.0
H291 H 0.29482 0.39804 0.21378 0.0
C292 C 0.22339 0.41756 0.19459 0.0
C293 C 0.18754 0.35378 0.17395 0.0
C294 C 0.21844 0.33268 0.16825 0.0
C295 C 0.19319 0.28271 0.13942 0.0
C296 C 0.22961 0.26819 0.13156 0.0
C297 C 0.28579 0.29791 0.15374 0.0
C298 C 0.30809 0.34384 0.18348 0.0
C299 C 0.27539 0.36174 0.19047 0.0
H300 H 0.82292 0.13264 0.63921 0.0
C301 C 0.79848 0.11649 0.60983 0.0
H302 H 0.74572 0.12137 0.56902 0.0
H303 H 0.63684 0.17468 0.70556 0.0
H304 H 0.54268 0.05856 0.6953 0.0
H305 H 0.5498 0.99404 0.65272 0.0
H306 H 0.65144 0.04522 0.62064 0.0
C307 C 0.7696 0.13539 0.59837 0.0
C308 C 0.76692 0.17407 0.62581 0.0
C309 C 0.70673 0.14386 0.64323 0.0
C310 C 0.7021 0.18141 0.66671 0.0
C311 C 0.64221 0.14915 0.6857 0.0
C312 C 0.58799 0.08233 0.6805 0.0
C313 C 0.59206 0.04599 0.65662 0.0
C314 C 0.65063 0.07606 0.63824 0.0
H315 H 0.6827 0.2637 0.64308 0.0
C316 C 0.70773 0.29154 0.6709 0.0
H317 H 0.77993 0.32468 0.71312 0.0
H318 H 0.89097 0.24663 0.59886 0.0
H319 H 0.98611 0.36147 0.6121 0.0
H320 H 0.97783 0.42666 0.65256 0.0
H321 H 0.8743 0.37739 0.67998 0.0
C322 C 0.74901 0.29119 0.68847 0.0
C323 C 0.75709 0.24977 0.6713 0.0
C324 C 0.8184 0.27908 0.6564 0.0
C325 C 0.82328 0.24127 0.63336 0.0
C326 C 0.88456 0.27248 0.61726 0.0
C327 C 0.9396 0.33855 0.62445 0.0
C328 C 0.93492 0.37527 0.6472 0.0
C329 C 0.87511 0.34629 0.66281 0.0
H330 H 0.86861 0.97481 0.09002 0.0
C331 C 0.86932 0.93884 0.08262 0.0
H332 H 0.8187 0.84021 0.08726 0.0
H333 H 0.70446 0.89483 0.2363 0.0
H334 H 0.81368 0.9706 0.26519 0.0
H335 H 0.90364 0.99719 0.22849 0.0
H336 H 0.88492 0.94814 0.1631 0.0
C337 C 0.8226 0.87835 0.09744 0.0
C338 C 0.76859 0.85952 0.12184 0.0
C339 C 0.78071 0.8893 0.16009 0.0
C340 C 0.72897 0.87417 0.18129 0.0
C341 C 0.74213 0.9046 0.21916 0.0
C342 C 0.80453 0.94814 0.23603 0.0
C343 C 0.85513 0.96303 0.21541 0.0
C344 C 0.84369 0.93436 0.17784 0.0
H345 H 0.59277 0.7658 0.23184 0.0
C346 C 0.57654 0.78207 0.21227 0.0
H347 H 0.5961 0.83736 0.16148 0.0
H348 H 0.7277 0.79145 0.05002 0.0
H349 H 0.61784 0.71232 0.02329 0.0
H350 H 0.52797 0.68454 0.06087 0.0
H351 H 0.54794 0.7364 0.12521 0.0
C352 C 0.61379 0.82255 0.18122 0.0
C353 C 0.66578 0.83015 0.16399 0.0
C354 C 0.65298 0.79774 0.12694 0.0
C355 C 0.70441 0.81256 0.10578 0.0
C356 C 0.69047 0.78124 0.06801 0.0
C357 C 0.62747 0.73571 0.05213 0.0
C358 C 0.57696 0.72023 0.07321 0.0
C359 C 0.58925 0.75069 0.11011 0.0
H360 H 0.85224 0.81868 0.57237 0.0
C361 C 0.90214 0.84556 0.56464 0.0
H362 H 0.98175 0.85827 0.57726 0.0
H363 H 0.86441 0.71124 0.7467 0.0
H364 H 0.96266 0.82128 0.76799 0.0
H365 H 0.03075 0.91054 0.71816 0.0
H366 H 0.00112 0.89052 0.64674 0.0
C367 C 0.93061 0.82923 0.58247 0.0
C368 C 0.89384 0.77401 0.61195 0.0
C369 C 0.91299 0.78613 0.65342 0.0
C370 C 0.87409 0.73442 0.6822 0.0
C371 C 0.8929 0.74844 0.72358 0.0
C372 C 0.949 0.81141 0.7362 0.0
C373 C 0.98736 0.86167 0.70813 0.0
C374 C 0.96979 0.84951 0.66721 0.0
H375 H 0.84314 0.61287 0.7134 0.0
C376 C 0.79225 0.58684 0.71366 0.0
H377 H 0.72284 0.58709 0.6979 0.0
H378 H 0.85028 0.73147 0.53426 0.0
H379 H 0.75281 0.62175 0.51243 0.0
H380 H 0.68289 0.53298 0.5622 0.0
H381 H 0.71009 0.5532 0.63345 0.0
C382 C 0.77444 0.61532 0.69855 0.0
C383 C 0.81668 0.67054 0.66933 0.0
C384 C 0.79868 0.65806 0.62759 0.0
C385 C 0.8379 0.7095 0.59892 0.0
C386 C 0.82068 0.69481 0.55733 0.0
C387 C 0.76524 0.63188 0.54437 0.0
C388 C 0.72599 0.58191 0.57235 0.0
C389 C 0.74234 0.59443 0.61339 0.0
H390 H 0.28727 0.94336 0.42155 0.0
C391 C 0.24875 0.93605 0.40723 0.0
H392 H 0.1781 0.88672 0.36 0.0
H393 H 0.37854 0.85294 0.32108 0.0
H394 H 0.45992 0.96918 0.30841 0.0
H395 H 0.43493 0.03371 0.31793 0.0
H396 H 0.32871 0.98233 0.34156 0.0
C397 C 0.21598 0.89436 0.37561 0.0
C398 C 0.22745 0.85412 0.36264 0.0
C399 C 0.28831 0.88405 0.34636 0.0
C400 C 0.3014 0.84607 0.33862 0.0
C401 C 0.36458 0.87843 0.32574 0.0
C402 C 0.41211 0.94544 0.31862 0.0
C403 C 0.39812 0.98182 0.3241 0.0
C404 C 0.33707 0.95177 0.33786 0.0
H405 H 0.28474 0.75041 0.27897 0.0
C406 C 0.28148 0.72769 0.30631 0.0
H407 H 0.26287 0.71491 0.36921 0.0
H408 H 0.10413 0.78081 0.3911 0.0
H409 H 0.02025 0.66338 0.40028 0.0
H410 H 0.04074 0.59658 0.3833 0.0
H411 H 0.14548 0.64693 0.35734 0.0
C412 C 0.26664 0.73781 0.34157 0.0
C413 C 0.25209 0.7775 0.34501 0.0
C414 C 0.18995 0.74715 0.35893 0.0
C415 C 0.17773 0.78549 0.36799 0.0
C416 C 0.11588 0.75401 0.38321 0.0
C417 C 0.06724 0.68659 0.38868 0.0
C418 C 0.0788 0.649 0.37918 0.0
C419 C 0.13927 0.6786 0.36445 0.0
H420 H 0.20567 0.08613 0.96477 0.0
C421 C 0.18348 0.10407 0.96096 0.0
H422 H 0.18798 0.17103 0.92997 0.0
H423 H 0.48494 0.3573 0.88322 0.0
H424 H 0.48882 0.4288 0.92508 0.0
H425 H 0.39048 0.38657 0.95997 0.0
H426 H 0.28768 0.27287 0.95304 0.0
C427 C 0.20845 0.15138 0.93374 0.0
C428 C 0.26536 0.17882 0.90853 0.0
C429 C 0.32468 0.2455 0.91271 0.0
C430 C 0.38154 0.26957 0.89315 0.0
C431 C 0.44053 0.3363 0.89802 0.0
C432 C 0.44336 0.37788 0.9218 0.0
C433 C 0.38797 0.35413 0.94138 0.0
C434 C 0.32923 0.28873 0.93711 0.0
H435 H 0.43798 0.25822 0.79611 0.0
C436 C 0.46593 0.26469 0.82162 0.0
H437 H 0.47013 0.25659 0.88488 0.0
H438 H 0.15566 0.05374 0.88502 0.0
H439 H 0.15133 0.9832 0.84171 0.0
H440 H 0.25146 0.02291 0.81154 0.0
H441 H 0.35616 0.13404 0.82346 0.0
C442 C 0.44115 0.24805 0.85929 0.0
C443 C 0.37904 0.22686 0.86981 0.0
C444 C 0.31858 0.16173 0.86268 0.0
C445 C 0.26131 0.13801 0.88147 0.0
C446 C 0.20103 0.07338 0.87286 0.0
C447 C 0.19781 0.03256 0.84783 0.0
C448 C 0.25417 0.05497 0.83078 0.0
C449 C 0.31399 0.11884 0.8379 0.0
H450 H 0.09075 0.19541 0.4473 0.0
C451 C 0.11111 0.1754 0.44528 0.0
H452 H 0.18327 0.18573 0.41746 0.0
H453 H 0.17875 0.32865 0.27163 0.0
H454 H 0.15682 0.24099 0.2369 0.0
H455 H 0.15399 0.16573 0.2746 0.0
H456 H 0.16999 0.17567 0.34767 0.0
C457 C 0.16263 0.2052 0.42104 0.0
C458 C 0.18883 0.26336 0.39703 0.0
C459 C 0.18438 0.26003 0.35408 0.0
C460 C 0.19027 0.30623 0.33198 0.0
C461 C 0.17847 0.29735 0.28962 0.0
C462 C 0.16542 0.24698 0.26932 0.0
C463 C 0.16342 0.2043 0.29059 0.0
C464 C 0.17213 0.21015 0.33254 0.0
H465 H 0.28033 0.4403 0.28893 0.0
C466 C 0.25314 0.44809 0.30385 0.0
H467 H 0.18175 0.41517 0.34594 0.0
H468 H 0.21963 0.29406 0.47736 0.0
H469 H 0.2528 0.38768 0.51196 0.0
H470 H 0.26684 0.47013 0.47403 0.0
H471 H 0.24793 0.45969 0.40165 0.0
C472 C 0.20785 0.40556 0.33167 0.0
C473 C 0.20562 0.35856 0.35279 0.0
C474 C 0.21815 0.36624 0.39529 0.0
C475 C 0.20981 0.31869 0.41731 0.0
C476 C 0.22318 0.32777 0.45953 0.0
C477 C 0.24294 0.38159 0.47968 0.0
C478 C 0.25089 0.42802 0.45832 0.0
C479 C 0.23924 0.42102 0.41666 0.0
H480 H 0.87609 0.17893 0.90403 0.0
C481 C 0.9182 0.21209 0.88442 0.0
H482 H 0.95598 0.27219 0.83248 0.0
H483 H 0.6875 0.16079 0.77009 0.0
H484 H 0.69709 0.10124 0.72558 0.0
H485 H 0.78439 0.10637 0.73578 0.0
H486 H 0.86063 0.16781 0.79214 0.0
C487 C 0.91697 0.24271 0.85444 0.0
C488 C 0.86224 0.23692 0.84942 0.0
C489 C 0.81952 0.20266 0.81561 0.0
C490 C 0.77038 0.20146 0.80885 0.0
C491 C 0.72669 0.16462 0.77587 0.0
C492 C 0.7317 0.13038 0.7501 0.0
C493 C 0.78063 0.13286 0.75606 0.0
C494 C 0.82415 0.16843 0.78842 0.0
H495 H 0.76625 0.29929 0.77634 0.0
C496 C 0.72765 0.27788 0.79774 0.0
H497 H 0.68052 0.21957 0.85005 0.0
H498 H 0.93634 0.30782 0.91727 0.0
H499 H 0.9228 0.36178 0.96372 0.0
H500 H 0.83727 0.35914 0.95219 0.0
H501 H 0.76493 0.30262 0.89409 0.0
C502 C 0.71749 0.23953 0.82731 0.0
C503 C 0.76502 0.2357 0.83545 0.0
C504 C 0.80627 0.26806 0.87009 0.0
C505 C 0.8552 0.26905 0.87696 0.0
C506 C 0.89731 0.304 0.91095 0.0
C507 C 0.89037 0.33565 0.93782 0.0
C508 C 0.84226 0.3342 0.93132 0.0
C509 C 0.80088 0.30129 0.89782 0.0
H510 H 0.8735 0.95205 0.39995 0.0
C511 C 0.86051 0.93926 0.43168 0.0
H512 H 0.78297 0.88099 0.47305 0.0
H513 H 0.65403 0.88825 0.30709 0.0
H514 H 0.73086 0.00542 0.31838 0.0
H515 H 0.81341 0.05927 0.37301 0.0
H516 H 0.82061 0.99687 0.41607 0.0
C517 C 0.79767 0.89755 0.44192 0.0
C518 C 0.74635 0.86567 0.40988 0.0
C519 C 0.74136 0.90278 0.3861 0.0
C520 C 0.6919 0.87138 0.3558 0.0
C521 C 0.68942 0.90965 0.33137 0.0
C522 C 0.73335 0.97684 0.3374 0.0
C523 C 0.78 0.00719 0.36805 0.0
C524 C 0.78394 0.97081 0.39237 0.0
H525 H 0.5507 0.79041 0.36941 0.0
C526 C 0.54026 0.76505 0.34114 0.0
H527 H 0.57342 0.73774 0.30076 0.0
H528 H 0.74685 0.78142 0.44666 0.0
H529 H 0.67169 0.66519 0.43375 0.0
H530 H 0.5838 0.61047 0.38278 0.0
H531 H 0.57074 0.67181 0.34424 0.0
C532 C 0.58501 0.76785 0.32647 0.0
C533 C 0.64574 0.80273 0.35055 0.0
C534 C 0.65292 0.76626 0.37267 0.0
C535 C 0.70321 0.79773 0.40238 0.0
C536 C 0.70909 0.75999 0.42409 0.0
C537 C 0.66636 0.6932 0.41691 0.0
C538 C 0.61691 0.66241 0.3882 0.0
C539 C 0.60989 0.6982 0.36633 0.0
H540 H 0.95876 0.88196 0.90649 0.0
C541 C 0.94132 0.86524 0.93731 0.0
H542 H 0.8779 0.78286 0.975 0.0
H543 H 0.68686 0.57875 0.83829 0.0
H544 H 0.61951 0.58583 0.87393 0.0
H545 H 0.66688 0.67057 0.92616 0.0
H546 H 0.78156 0.74785 0.94364 0.0
C547 C 0.89838 0.80114 0.94488 0.0
C548 C 0.87161 0.75341 0.91106 0.0
C549 C 0.80461 0.70919 0.90068 0.0
C550 C 0.77757 0.66119 0.86992 0.0
C551 C 0.71013 0.61651 0.8611 0.0
C552 C 0.67088 0.6201 0.88129 0.0
C553 C 0.69751 0.66772 0.91075 0.0
C554 C 0.76346 0.71171 0.92055 0.0
H555 H 0.81602 0.56901 0.86678 0.0
C556 C 0.78858 0.55639 0.83906 0.0
H557 H 0.75593 0.58507 0.79901 0.0
H558 H 0.00261 0.83089 0.92243 0.0
H559 H 0.07162 0.83169 0.88115 0.0
H560 H 0.02577 0.7547 0.82387 0.0
H561 H 0.90988 0.67536 0.80816 0.0
C562 C 0.78713 0.5986 0.82464 0.0
C563 C 0.8177 0.65786 0.84928 0.0
C564 C 0.88571 0.70602 0.85689 0.0
C565 C 0.91254 0.75263 0.88858 0.0
C566 C 0.97991 0.79657 0.89747 0.0
C567 C 0.02008 0.79716 0.87421 0.0
C568 C 0.99424 0.75364 0.84207 0.0
C569 C 0.92777 0.7082 0.83353 0.0
loop_
_geom_bond_atom_site_label_1
_geom_bond_atom_site_label_2
_geom_bond_distance
_geom_bond_site_symmetry_2
_ccdc_geom_bond_type
Tb0 N29 2.617 . S
Tb0 N35 2.572 1_565 S
Tb0 O44 2.465 . S
Tb0 O45 2.387 1_565 S
Tb0 O47 2.428 . S
Tb0 O48 2.308 1_564 S
Tb0 O52 2.344 1_454 S
Tb0 O55 2.393 1_455 S
Tb0 C64 2.802 . S
C1 N2 1.380 1_565 S
C1 C4 1.416 . S
C1 C8 1.424 . S
N2 C1 1.380 1_545 S
N2 C5 1.333 1_655 S
N2 Tb11 2.618 . S
C3 C5 1.390 . S
C3 C6 1.339 . S
C3 H23 0.930 . S
C4 C1 1.416 . S
C4 C6 1.416 1_665 S
C4 C10 1.448 . S
C5 N2 1.333 1_455 S
C5 C3 1.390 . S
C5 H16 0.930 . S
C6 C3 1.339 . S
C6 C4 1.416 1_445 S
C6 H27 0.930 1_545 S
C7 C8 1.413 . S
C7 C9 1.427 . S
C7 C13 1.416 . S
C8 C1 1.424 . S
C8 C7 1.413 . S
C8 N12 1.361 . S
C9 C7 1.427 . S
C9 C10 1.328 . S
C9 H24 0.929 . S
C10 C4 1.448 . S
C10 C9 1.328 . S
C10 H25 0.930 . S
Tb11 N2 2.618 . S
Tb11 N12 2.572 1_545 S
Tb11 O46 2.349 1_656 S
Tb11 O49 2.393 1_655 S
Tb11 O50 2.465 . S
Tb11 O51 2.387 1_545 S
Tb11 O53 2.428 1_655 S
Tb11 O54 2.308 1_546 S
Tb11 C75 2.802 . S
N12 C8 1.361 . S
N12 Tb11 2.572 1_565 S
N12 C14 1.340 . S
C13 C7 1.416 . S
C13 C15 1.332 . S
C13 H21 0.931 . S
C14 N12 1.340 . S
C14 C15 1.407 . S
C14 H20 0.930 . S
C15 C13 1.332 . S
C15 C14 1.407 . S
C15 H17 0.929 . S
H16 C5 0.930 . S
H17 C15 0.929 . S
H18 C33 0.930 . S
H19 C40 0.929 . S
H20 C14 0.930 . S
H21 C13 0.931 . S
H22 C36 0.930 . S
H23 C3 0.930 . S
H24 C9 0.929 . S
H25 C10 0.930 . S
H26 C31 0.930 . S
H27 C6 0.930 1_565 S
H28 C39 0.931 . S
N29 Tb0 2.617 . S
N29 C30 1.379 1_565 S
N29 C33 1.334 1_455 S
C30 N29 1.379 1_545 S
C30 C32 1.416 . S
C30 C38 1.424 . S
C31 H26 0.930 . S
C31 C33 1.390 . S
C31 C34 1.339 1_565 S
C32 C30 1.416 . S
C32 C34 1.416 1_455 S
C32 C65 1.448 . S
C33 H18 0.930 . S
C33 N29 1.334 1_655 S
C33 C31 1.390 . S
C34 C31 1.339 1_545 S
C34 C32 1.416 1_655 S
C34 H41 0.930 . S
N35 Tb0 2.572 1_545 S
N35 C36 1.340 . S
N35 C38 1.361 . S
C36 H22 0.930 . S
C36 N35 1.340 . S
C36 C40 1.407 . S
C37 C38 1.413 . S
C37 C39 1.416 . S
C37 C66 1.427 . S
C38 C30 1.424 . S
C38 N35 1.361 . S
C38 C37 1.413 . S
C39 H28 0.931 . S
C39 C37 1.416 . S
C39 C40 1.332 . S
C40 H19 0.929 . S
C40 C36 1.407 . S
C40 C39 1.332 . S
H41 C34 0.930 . S
H42 C65 0.930 . S
H43 C66 0.929 . S
O44 Tb0 2.465 . S
O44 C64 1.264 . S
O45 Tb0 2.387 1_545 S
O45 C56 1.264 . S
O46 Tb11 2.349 1_454 S
O46 C56 1.243 . S
O47 Tb0 2.428 . S
O47 C64 1.256 . S
O48 Tb0 2.308 1_546 S
O48 C63 1.266 . S
O49 Tb11 2.393 1_455 S
O49 C63 1.248 . S
O50 Tb11 2.465 . S
O50 C75 1.264 . S
O51 Tb11 2.387 1_565 S
O51 C67 1.264 . S
O52 Tb0 2.344 1_656 S
O52 C67 1.250 . S
O53 Tb11 2.428 1_455 S
O53 C75 1.256 1_455 S
O54 Tb11 2.308 1_564 S
O54 C74 1.266 . S
O55 Tb0 2.393 1_655 S
O55 C74 1.248 . S
C56 O45 1.264 . S
C56 O46 1.243 . S
C57 C60 1.399 . S
C57 C62 1.383 . S
C57 C64 1.496 . S
C58 C59 1.399 . S
C58 C62 1.389 . S
C59 C58 1.399 . S
C59 C61 1.380 . S
C59 H76 0.929 . S
C60 C57 1.399 . S
C60 C61 1.392 . S
C60 H77 0.929 1_455 S
C61 C59 1.380 . S
C61 C60 1.392 . S
C61 H78 0.929 . S
C62 C57 1.383 . S
C62 C58 1.389 . S
C62 H79 0.931 . S
C63 O48 1.266 . S
C63 O49 1.248 . S
C64 Tb0 2.802 . S
C64 O44 1.264 . S
C64 O47 1.256 . S
C64 C57 1.496 . S
C65 C32 1.448 . S
C65 H42 0.930 . S
C65 C66 1.328 . S
C66 C37 1.427 . S
C66 H43 0.929 . S
C66 C65 1.328 . S
C67 O51 1.264 . S
C67 O52 1.250 . S
C68 C71 1.399 . S
C68 C72 1.383 . S
C68 C75 1.496 . S
C69 C70 1.399 . S
C69 C72 1.389 . S
C70 C69 1.399 . S
C70 C73 1.380 . S
C70 H80 0.929 . S
C71 C68 1.399 . S
C71 C73 1.392 . S
C71 H81 0.929 1_655 S
C72 C68 1.383 . S
C72 C69 1.389 . S
C72 H82 0.931 . S
C73 C70 1.380 . S
C73 C71 1.392 . S
C73 H83 0.929 1_655 S
C74 O54 1.266 . S
C74 O55 1.248 . S
C75 Tb11 2.802 . S
C75 O50 1.264 . S
C75 O53 1.256 1_655 S
C75 C68 1.496 . S
H76 C59 0.929 . S
H77 C60 0.929 1_655 S
H78 C61 0.929 . S
H79 C62 0.931 . S
H80 C70 0.929 . S
H81 C71 0.929 1_455 S
H82 C72 0.931 . S
H83 C73 0.929 1_455 S
Tb84 N113 2.617 1_565 S
Tb84 N119 2.572 1_455 S
Tb84 O128 2.465 . S
Tb84 O129 2.387 1_455 S
Tb84 O131 2.428 1_565 S
Tb84 O132 2.308 1_455 S
Tb84 O136 2.349 1_565 S
Tb84 O139 2.393 1_565 S
Tb84 C148 2.802 . S
C85 N86 1.379 1_455 S
C85 C88 1.416 . S
C85 C92 1.424 . S
N86 C85 1.379 1_655 S
N86 C89 1.334 1_545 S
N86 Tb95 2.617 . S
C87 C89 1.390 . S
C87 C90 1.339 1_665 S
C87 H107 0.930 . S
C88 C85 1.416 . S
C88 C90 1.416 . S
C88 C94 1.448 . S
C89 N86 1.334 1_565 S
C89 C87 1.390 . S
C89 H100 0.930 . S
C90 C87 1.339 1_445 S
C90 C88 1.416 . S
C90 H111 0.930 1_545 S
C91 C92 1.413 . S
C91 C93 1.427 . S
C91 C97 1.416 . S
C92 C85 1.424 . S
C92 C91 1.413 . S
C92 N96 1.361 . S
C93 C91 1.427 . S
C93 C94 1.328 . S
C93 H108 0.929 . S
C94 C88 1.448 . S
C94 C93 1.328 . S
C94 H109 0.930 . S
Tb95 N86 2.617 . S
Tb95 N96 2.572 1_655 S
Tb95 O130 2.349 1_545 S
Tb95 O133 2.393 1_545 S
Tb95 O134 2.465 . S
Tb95 O135 2.387 1_655 S
Tb95 O137 2.428 . S
Tb95 O138 2.308 1_655 S
Tb95 C159 2.802 . S
N96 C92 1.361 . S
N96 Tb95 2.572 1_455 S
N96 C98 1.340 . S
C97 C91 1.416 . S
C97 C99 1.332 . S
C97 H105 0.931 . S
C98 N96 1.340 . S
C98 C99 1.407 . S
C98 H104 0.930 . S
C99 C97 1.332 . S
C99 C98 1.407 . S
C99 H101 0.929 . S
H100 C89 0.930 . S
H101 C99 0.929 . S
H102 C117 0.930 . S
H103 C124 0.929 . S
H104 C98 0.930 . S
H105 C97 0.931 . S
H106 C120 0.930 . S
H107 C87 0.930 . S
H108 C93 0.929 . S
H109 C94 0.930 . S
H110 C115 0.930 . S
H111 C90 0.930 1_565 S
H112 C123 0.931 . S
N113 Tb84 2.617 1_545 S
N113 C114 1.379 1_445 S
N113 C117 1.334 . S
C114 N113 1.379 1_665 S
C114 C116 1.416 . S
C114 C122 1.424 . S
C115 H110 0.930 . S
C115 C117 1.390 . S
C115 C118 1.339 . S
C116 C114 1.416 . S
C116 C118 1.416 1_665 S
C116 C149 1.448 . S
C117 H102 0.930 . S
C117 N113 1.334 . S
C117 C115 1.390 . S
C118 C115 1.339 . S
C118 C116 1.416 1_445 S
C118 H125 0.930 . S
N119 Tb84 2.572 1_655 S
N119 C120 1.340 . S
N119 C122 1.361 . S
C120 H106 0.930 . S
C120 N119 1.340 . S
C120 C124 1.407 . S
C121 C122 1.413 . S
C121 C123 1.416 . S
C121 C150 1.427 . S
C122 C114 1.424 . S
C122 N119 1.361 . S
C122 C121 1.413 . S
C123 H112 0.931 . S
C123 C121 1.416 . S
C123 C124 1.332 . S
C124 H103 0.929 . S
C124 C120 1.407 . S
C124 C123 1.332 . S
H125 C118 0.930 . S
H126 C149 0.930 . S
H127 C150 0.929 . S
O128 Tb84 2.465 . S
O128 C148 1.264 . S
O129 Tb84 2.387 1_655 S
O129 C140 1.264 . S
O130 Tb95 2.349 1_565 S
O130 C140 1.243 . S
O131 Tb84 2.428 1_545 S
O131 C148 1.256 1_545 S
O132 Tb84 2.308 1_655 S
O132 C147 1.266 . S
O133 Tb95 2.393 1_565 S
O133 C147 1.248 . S
O134 Tb95 2.465 . S
O134 C159 1.264 . S
O135 Tb95 2.387 1_455 S
O135 C151 1.264 . S
O136 Tb84 2.349 1_545 S
O136 C151 1.243 . S
O137 Tb95 2.428 . S
O137 C159 1.256 . S
O138 Tb95 2.308 1_455 S
O138 C158 1.266 . S
O139 Tb84 2.393 1_545 S
O139 C158 1.248 . S
C140 O129 1.264 . S
C140 O130 1.243 . S
C141 C144 1.399 . S
C141 C146 1.383 . S
C141 C148 1.496 . S
C142 C143 1.399 . S
C142 C146 1.389 . S
C143 C142 1.399 . S
C143 C145 1.380 . S
C143 H160 0.929 . S
C144 C141 1.399 . S
C144 C145 1.392 . S
C144 H161 0.929 1_565 S
C145 C143 1.380 . S
C145 C144 1.392 . S
C145 H162 0.929 1_565 S
C146 C141 1.383 . S
C146 C142 1.389 . S
C146 H163 0.931 . S
C147 O132 1.266 . S
C147 O133 1.248 . S
C148 Tb84 2.802 . S
C148 O128 1.264 . S
C148 O131 1.256 1_565 S
C148 C141 1.496 . S
C149 C116 1.448 . S
C149 H126 0.930 . S
C149 C150 1.328 . S
C150 C121 1.427 . S
C150 H127 0.929 . S
C150 C149 1.328 . S
C151 O135 1.264 . S
C151 O136 1.243 . S
C152 C155 1.399 . S
C152 C156 1.383 . S
C152 C159 1.496 . S
C153 C154 1.399 . S
C153 C156 1.389 . S
C154 C153 1.399 . S
C154 C157 1.380 . S
C154 H164 0.929 . S
C155 C152 1.399 . S
C155 C157 1.392 . S
C155 H165 0.929 . S
C156 C152 1.383 . S
C156 C153 1.389 . S
C156 H166 0.931 . S
C157 C154 1.380 . S
C157 C155 1.392 . S
C157 H167 0.929 . S
C158 O138 1.266 . S
C158 O139 1.248 . S
C159 Tb95 2.802 . S
C159 O134 1.264 . S
C159 O137 1.256 . S
C159 C152 1.496 . S
H160 C143 0.929 . S
H161 C144 0.929 1_545 S
H162 C145 0.929 1_545 S
H163 C146 0.931 . S
H164 C154 0.929 . S
H165 C155 0.929 . S
H166 C156 0.931 . S
H167 C157 0.929 . S
Zn168 O174 1.920 . S
Zn168 O180 1.898 . S
Zn168 O183 1.905 . S
Zn169 O177 1.905 . S
Zn169 O178 1.898 . S
Zn169 O186 1.920 . S
Zn170 O173 2.080 . S
Zn170 O176 2.114 . S
Zn170 O179 2.120 . S
Zn170 O181 2.120 . S
Zn170 O182 2.114 . S
Zn170 O185 2.080 . S
C171 O176 1.166 . S
C171 O177 1.182 . S
C172 O178 1.167 . S
C172 O179 1.299 . S
O173 Zn170 2.080 . S
O173 C187 1.305 . S
O174 Zn168 1.920 . S
O174 C187 1.234 . S
C175 O180 1.167 . S
C175 O181 1.299 . S
O176 Zn170 2.114 . S
O176 C171 1.166 . S
O177 Zn169 1.905 . S
O177 C171 1.182 . S
O178 Zn169 1.898 . S
O178 C172 1.167 . S
O179 Zn170 2.120 . S
O179 C172 1.299 . S
O180 Zn168 1.898 . S
O180 C175 1.167 . S
O181 Zn170 2.120 . S
O181 C175 1.299 . S
O182 Zn170 2.114 . S
O182 C184 1.166 . S
O183 Zn168 1.905 . S
O183 C184 1.182 . S
C184 O182 1.166 . S
C184 O183 1.182 . S
O185 Zn170 2.080 . S
O185 C188 1.305 . S
O186 Zn169 1.920 . S
O186 C188 1.234 . S
C187 O173 1.305 . S
C187 O174 1.234 . S
C188 O185 1.305 . S
C188 O186 1.234 . S
Zn189 O195 1.920 . S
Zn189 O201 1.898 . S
Zn189 O204 1.905 . S
Zn190 O198 1.905 . S
Zn190 O199 1.898 . S
Zn190 O207 1.920 . S
Zn191 O194 2.080 . S
Zn191 O197 2.114 . S
Zn191 O200 2.120 . S
Zn191 O202 2.120 . S
Zn191 O203 2.114 . S
Zn191 O206 2.080 . S
C192 O197 1.166 . S
C192 O198 1.182 . S
C193 O199 1.167 . S
C193 O200 1.299 . S
O194 Zn191 2.080 . S
O194 C208 1.305 . S
O195 Zn189 1.920 . S
O195 C208 1.234 . S
C196 O201 1.167 . S
C196 O202 1.299 . S
O197 Zn191 2.114 . S
O197 C192 1.166 . S
O198 Zn190 1.905 . S
O198 C192 1.182 . S
O199 Zn190 1.898 . S
O199 C193 1.167 . S
O200 Zn191 2.120 . S
O200 C193 1.299 . S
O201 Zn189 1.898 . S
O201 C196 1.167 . S
O202 Zn191 2.120 . S
O202 C196 1.299 . S
O203 Zn191 2.114 . S
O203 C205 1.166 . S
O204 Zn189 1.905 . S
O204 C205 1.182 . S
C205 O203 1.166 . S
C205 O204 1.182 . S
O206 Zn191 2.080 . S
O206 C209 1.305 . S
O207 Zn190 1.920 . S
O207 C209 1.234 . S
C208 O194 1.305 . S
C208 O195 1.234 . S
C209 O206 1.305 . S
C209 O207 1.234 . S
H210 C211 0.951 . S
C211 H210 0.951 . S
C211 C217 1.265 . S
H212 C217 0.950 . S
H213 C221 0.949 . S
H214 C222 0.950 . S
H215 C223 0.951 . S
H216 C224 0.951 . S
C217 C211 1.265 . S
C217 H212 0.950 . S
C217 C218 1.478 . S
C218 C217 1.478 . S
C218 C219 1.397 . S
C218 C235 1.394 . S
C219 C218 1.397 . S
C219 C220 1.438 . S
C219 C224 1.429 . S
C220 C219 1.438 . S
C220 C221 1.428 . S
C220 C233 1.394 . S
C221 H213 0.949 . S
C221 C220 1.428 . S
C221 C222 1.345 . S
C222 H214 0.950 . S
C222 C221 1.345 . S
C222 C223 1.424 . S
C223 H215 0.951 . S
C223 C222 1.424 . S
C223 C224 1.347 . S
C224 H216 0.951 . S
C224 C219 1.429 . S
C224 C223 1.347 . S
H225 C226 0.951 . S
C226 H225 0.951 . S
C226 C232 1.265 . S
H227 C232 0.950 . S
H228 C236 0.949 . S
H229 C237 0.950 . S
H230 C238 0.951 . S
H231 C239 0.951 . S
C232 C226 1.265 . S
C232 H227 0.950 . S
C232 C233 1.478 . S
C233 C220 1.394 . S
C233 C232 1.478 . S
C233 C234 1.397 . S
C234 C233 1.397 . S
C234 C235 1.438 . S
C234 C239 1.429 . S
C235 C218 1.394 . S
C235 C234 1.438 . S
C235 C236 1.428 . S
C236 H228 0.949 . S
C236 C235 1.428 . S
C236 C237 1.345 . S
C237 H229 0.950 . S
C237 C236 1.345 . S
C237 C238 1.424 . S
C238 H230 0.951 . S
C238 C237 1.424 . S
C238 C239 1.347 . S
C239 H231 0.951 . S
C239 C234 1.429 . S
C239 C238 1.347 . S
H240 C241 0.951 . S
C241 H240 0.951 . S
C241 C247 1.265 . S
H242 C247 0.950 . S
H243 C251 0.949 . S
H244 C252 0.950 . S
H245 C253 0.951 . S
H246 C254 0.951 . S
C247 C241 1.265 . S
C247 H242 0.950 . S
C247 C248 1.478 . S
C248 C247 1.478 . S
C248 C249 1.397 . S
C248 C265 1.394 . S
C249 C248 1.397 . S
C249 C250 1.438 . S
C249 C254 1.429 . S
C250 C249 1.438 . S
C250 C251 1.428 . S
C250 C263 1.394 . S
C251 H243 0.949 . S
C251 C250 1.428 . S
C251 C252 1.345 . S
C252 H244 0.950 . S
C252 C251 1.345 . S
C252 C253 1.424 . S
C253 H245 0.951 . S
C253 C252 1.424 . S
C253 C254 1.347 . S
C254 H246 0.951 . S
C254 C249 1.429 . S
C254 C253 1.347 . S
H255 C256 0.951 . S
C256 H255 0.951 . S
C256 C262 1.265 . S
H257 C262 0.950 . S
H258 C266 0.949 . S
H259 C267 0.950 . S
H260 C268 0.951 1_565 S
H261 C269 0.951 . S
C262 C256 1.265 . S
C262 H257 0.950 . S
C262 C263 1.478 . S
C263 C250 1.394 . S
C263 C262 1.478 . S
C263 C264 1.397 . S
C264 C263 1.397 . S
C264 C265 1.438 . S
C264 C269 1.429 . S
C265 C248 1.394 . S
C265 C264 1.438 . S
C265 C266 1.428 . S
C266 H258 0.949 . S
C266 C265 1.428 . S
C266 C267 1.345 1_545 S
C267 H259 0.950 . S
C267 C266 1.345 1_565 S
C267 C268 1.424 1_565 S
C268 H260 0.951 1_545 S
C268 C267 1.424 1_545 S
C268 C269 1.347 . S
C269 H261 0.951 . S
C269 C264 1.429 . S
C269 C268 1.347 . S
H270 C271 0.951 . S
C271 H270 0.951 . S
C271 C277 1.265 . S
H272 C277 0.950 . S
H273 C281 0.949 . S
H274 C282 0.950 . S
H275 C283 0.951 . S
H276 C284 0.951 . S
C277 C271 1.265 . S
C277 H272 0.950 . S
C277 C278 1.478 . S
C278 C277 1.478 . S
C278 C279 1.397 . S
C278 C295 1.394 . S
C279 C278 1.397 . S
C279 C280 1.438 . S
C279 C284 1.429 . S
C280 C279 1.438 . S
C280 C281 1.428 . S
C280 C293 1.394 . S
C281 H273 0.949 . S
C281 C280 1.428 . S
C281 C282 1.345 . S
C282 H274 0.950 . S
C282 C281 1.345 . S
C282 C283 1.424 . S
C283 H275 0.951 . S
C283 C282 1.424 . S
C283 C284 1.347 . S
C284 H276 0.951 . S
C284 C279 1.429 . S
C284 C283 1.347 . S
H285 C286 0.951 . S
C286 H285 0.951 . S
C286 C292 1.265 . S
H287 C292 0.950 . S
H288 C296 0.949 . S
H289 C297 0.950 . S
H290 C298 0.951 . S
H291 C299 0.951 . S
C292 C286 1.265 . S
C292 H287 0.950 . S
C292 C293 1.478 . S
C293 C280 1.394 . S
C293 C292 1.478 . S
C293 C294 1.397 . S
C294 C293 1.397 . S
C294 C295 1.438 . S
C294 C299 1.429 . S
C295 C278 1.394 . S
C295 C294 1.438 . S
C295 C296 1.428 . S
C296 H288 0.949 . S
C296 C295 1.428 . S
C296 C297 1.345 . S
C297 H289 0.950 . S
C297 C296 1.345 . S
C297 C298 1.424 . S
C298 H290 0.951 . S
C298 C297 1.424 . S
C298 C299 1.347 . S
C299 H291 0.951 . S
C299 C294 1.429 . S
C299 C298 1.347 . S
H300 C301 0.951 . S
C301 H300 0.951 . S
C301 C307 1.265 . S
H302 C307 0.950 . S
H303 C311 0.949 . S
H304 C312 0.950 . S
H305 C313 0.951 . S
H306 C314 0.951 . S
C307 C301 1.265 . S
C307 H302 0.950 . S
C307 C308 1.478 . S
C308 C307 1.478 . S
C308 C309 1.397 . S
C308 C325 1.394 . S
C309 C308 1.397 . S
C309 C310 1.438 . S
C309 C314 1.429 . S
C310 C309 1.438 . S
C310 C311 1.428 . S
C310 C323 1.394 . S
C311 H303 0.949 . S
C311 C310 1.428 . S
C311 C312 1.345 . S
C312 H304 0.950 . S
C312 C311 1.345 . S
C312 C313 1.424 . S
C313 H305 0.951 . S
C313 C312 1.424 . S
C313 C314 1.347 . S
C314 H306 0.951 . S
C314 C309 1.429 . S
C314 C313 1.347 . S
H315 C316 0.951 . S
C316 H315 0.951 . S
C316 C322 1.265 . S
H317 C322 0.950 . S
H318 C326 0.949 . S
H319 C327 0.950 . S
H320 C328 0.951 . S
H321 C329 0.951 . S
C322 C316 1.265 . S
C322 H317 0.950 . S
C322 C323 1.478 . S
C323 C310 1.394 . S
C323 C322 1.478 . S
C323 C324 1.397 . S
C324 C323 1.397 . S
C324 C325 1.438 . S
C324 C329 1.429 . S
C325 C308 1.394 . S
C325 C324 1.438 . S
C325 C326 1.428 . S
C326 H318 0.949 . S
C326 C325 1.428 . S
C326 C327 1.345 . S
C327 H319 0.950 . S
C327 C326 1.345 . S
C327 C328 1.424 . S
C328 H320 0.951 . S
C328 C327 1.424 . S
C328 C329 1.347 . S
C329 H321 0.951 . S
C329 C324 1.429 . S
C329 C328 1.347 . S
H330 C331 0.951 . S
C331 H330 0.951 . S
C331 C337 1.265 . S
H332 C337 0.950 . S
H333 C341 0.949 . S
H334 C342 0.950 . S
H335 C343 0.951 1_545 S
H336 C344 0.951 . S
C337 C331 1.265 . S
C337 H332 0.950 . S
C337 C338 1.478 . S
C338 C337 1.478 . S
C338 C339 1.397 . S
C338 C355 1.394 . S
C339 C338 1.397 . S
C339 C340 1.438 . S
C339 C344 1.429 . S
C340 C339 1.438 . S
C340 C341 1.428 . S
C340 C353 1.394 . S
C341 H333 0.949 . S
C341 C340 1.428 . S
C341 C342 1.345 . S
C342 H334 0.950 . S
C342 C341 1.345 . S
C342 C343 1.424 . S
C343 H335 0.951 1_565 S
C343 C342 1.424 . S
C343 C344 1.347 . S
C344 H336 0.951 . S
C344 C339 1.429 . S
C344 C343 1.347 . S
H345 C346 0.951 . S
C346 H345 0.951 . S
C346 C352 1.265 . S
H347 C352 0.950 . S
H348 C356 0.949 . S
H349 C357 0.950 . S
H350 C358 0.951 . S
H351 C359 0.951 . S
C352 C346 1.265 . S
C352 H347 0.950 . S
C352 C353 1.478 . S
C353 C340 1.394 . S
C353 C352 1.478 . S
C353 C354 1.397 . S
C354 C353 1.397 . S
C354 C355 1.438 . S
C354 C359 1.429 . S
C355 C338 1.394 . S
C355 C354 1.438 . S
C355 C356 1.428 . S
C356 H348 0.949 . S
C356 C355 1.428 . S
C356 C357 1.345 . S
C357 H349 0.950 . S
C357 C356 1.345 . S
C357 C358 1.424 . S
C358 H350 0.951 . S
C358 C357 1.424 . S
C358 C359 1.347 . S
C359 H351 0.951 . S
C359 C354 1.429 . S
C359 C358 1.347 . S
H360 C361 0.951 . S
C361 H360 0.951 . S
C361 C367 1.265 . S
H362 C367 0.950 . S
H363 C371 0.949 . S
H364 C372 0.950 . S
H365 C373 0.951 1_455 S
H366 C374 0.951 . S
C367 C361 1.265 . S
C367 H362 0.950 . S
C367 C368 1.478 . S
C368 C367 1.478 . S
C368 C369 1.397 . S
C368 C385 1.394 . S
C369 C368 1.397 . S
C369 C370 1.438 . S
C369 C374 1.429 . S
C370 C369 1.438 . S
C370 C371 1.428 . S
C370 C383 1.394 . S
C371 H363 0.949 . S
C371 C370 1.428 . S
C371 C372 1.345 . S
C372 H364 0.950 . S
C372 C371 1.345 . S
C372 C373 1.424 . S
C373 H365 0.951 1_655 S
C373 C372 1.424 . S
C373 C374 1.347 . S
C374 H366 0.951 . S
C374 C369 1.429 . S
C374 C373 1.347 . S
H375 C376 0.951 . S
C376 H375 0.951 . S
C376 C382 1.265 . S
H377 C382 0.950 . S
H378 C386 0.949 . S
H379 C387 0.950 . S
H380 C388 0.951 . S
H381 C389 0.951 . S
C382 C376 1.265 . S
C382 H377 0.950 . S
C382 C383 1.478 . S
C383 C370 1.394 . S
C383 C382 1.478 . S
C383 C384 1.397 . S
C384 C383 1.397 . S
C384 C385 1.438 . S
C384 C389 1.429 . S
C385 C368 1.394 . S
C385 C384 1.438 . S
C385 C386 1.428 . S
C386 H378 0.949 . S
C386 C385 1.428 . S
C386 C387 1.345 . S
C387 H379 0.950 . S
C387 C386 1.345 . S
C387 C388 1.424 . S
C388 H380 0.951 . S
C388 C387 1.424 . S
C388 C389 1.347 . S
C389 H381 0.951 . S
C389 C384 1.429 . S
C389 C388 1.347 . S
H390 C391 0.951 . S
C391 H390 0.951 . S
C391 C397 1.265 . S
H392 C397 0.950 . S
H393 C401 0.949 . S
H394 C402 0.950 . S
H395 C403 0.951 1_545 S
H396 C404 0.951 . S
C397 C391 1.265 . S
C397 H392 0.950 . S
C397 C398 1.478 . S
C398 C397 1.478 . S
C398 C399 1.397 . S
C398 C415 1.394 . S
C399 C398 1.397 . S
C399 C400 1.438 . S
C399 C404 1.429 . S
C400 C399 1.438 . S
C400 C401 1.428 . S
C400 C413 1.394 . S
C401 H393 0.949 . S
C401 C400 1.428 . S
C401 C402 1.345 . S
C402 H394 0.950 . S
C402 C401 1.345 . S
C402 C403 1.424 . S
C403 H395 0.951 1_565 S
C403 C402 1.424 . S
C403 C404 1.347 . S
C404 H396 0.951 . S
C404 C399 1.429 . S
C404 C403 1.347 . S
H405 C406 0.951 . S
C406 H405 0.951 . S
C406 C412 1.265 . S
H407 C412 0.950 . S
H408 C416 0.949 . S
H409 C417 0.950 . S
H410 C418 0.951 . S
H411 C419 0.951 . S
C412 C406 1.265 . S
C412 H407 0.950 . S
C412 C413 1.478 . S
C413 C400 1.394 . S
C413 C412 1.478 . S
C413 C414 1.397 . S
C414 C413 1.397 . S
C414 C415 1.438 . S
C414 C419 1.429 . S
C415 C398 1.394 . S
C415 C414 1.438 . S
C415 C416 1.428 . S
C416 H408 0.949 . S
C416 C415 1.428 . S
C416 C417 1.345 . S
C417 H409 0.950 . S
C417 C416 1.345 . S
C417 C418 1.424 . S
C418 H410 0.951 . S
C418 C417 1.424 . S
C418 C419 1.347 . S
C419 H411 0.951 . S
C419 C414 1.429 . S
C419 C418 1.347 . S
H420 C421 0.951 . S
C421 H420 0.951 . S
C421 C427 1.265 . S
H422 C427 0.950 . S
H423 C431 0.949 . S
H424 C432 0.950 . S
H425 C433 0.951 . S
H426 C434 0.951 . S
C427 C421 1.265 . S
C427 H422 0.950 . S
C427 C428 1.478 . S
C428 C427 1.478 . S
C428 C429 1.397 . S
C428 C445 1.394 . S
C429 C428 1.397 . S
C429 C430 1.438 . S
C429 C434 1.429 . S
C430 C429 1.438 . S
C430 C431 1.428 . S
C430 C443 1.394 . S
C431 H423 0.949 . S
C431 C430 1.428 . S
C431 C432 1.345 . S
C432 H424 0.950 . S
C432 C431 1.345 . S
C432 C433 1.424 . S
C433 H425 0.951 . S
C433 C432 1.424 . S
C433 C434 1.347 . S
C434 H426 0.951 . S
C434 C429 1.429 . S
C434 C433 1.347 . S
H435 C436 0.951 . S
C436 H435 0.951 . S
C436 C442 1.265 . S
H437 C442 0.950 . S
H438 C446 0.949 . S
H439 C447 0.950 1_565 S
H440 C448 0.951 . S
H441 C449 0.951 . S
C442 C436 1.265 . S
C442 H437 0.950 . S
C442 C443 1.478 . S
C443 C430 1.394 . S
C443 C442 1.478 . S
C443 C444 1.397 . S
C444 C443 1.397 . S
C444 C445 1.438 . S
C444 C449 1.429 . S
C445 C428 1.394 . S
C445 C444 1.438 . S
C445 C446 1.428 . S
C446 H438 0.949 . S
C446 C445 1.428 . S
C446 C447 1.345 . S
C447 H439 0.950 1_545 S
C447 C446 1.345 . S
C447 C448 1.424 . S
C448 H440 0.951 . S
C448 C447 1.424 . S
C448 C449 1.347 . S
C449 H441 0.951 . S
C449 C444 1.429 . S
C449 C448 1.347 . S
H450 C451 0.951 . S
C451 H450 0.951 . S
C451 C457 1.265 . S
H452 C457 0.950 . S
H453 C461 0.949 . S
H454 C462 0.950 . S
H455 C463 0.951 . S
H456 C464 0.951 . S
C457 C451 1.265 . S
C457 H452 0.950 . S
C457 C458 1.478 . S
C458 C457 1.478 . S
C458 C459 1.397 . S
C458 C475 1.394 . S
C459 C458 1.397 . S
C459 C460 1.438 . S
C459 C464 1.429 . S
C460 C459 1.438 . S
C460 C461 1.428 . S
C460 C473 1.394 . S
C461 H453 0.949 . S
C461 C460 1.428 . S
C461 C462 1.345 . S
C462 H454 0.950 . S
C462 C461 1.345 . S
C462 C463 1.424 . S
C463 H455 0.951 . S
C463 C462 1.424 . S
C463 C464 1.347 . S
C464 H456 0.951 . S
C464 C459 1.429 . S
C464 C463 1.347 . S
H465 C466 0.951 . S
C466 H465 0.951 . S
C466 C472 1.265 . S
H467 C472 0.950 . S
H468 C476 0.949 . S
H469 C477 0.950 . S
H470 C478 0.951 . S
H471 C479 0.951 . S
C472 C466 1.265 . S
C472 H467 0.950 . S
C472 C473 1.478 . S
C473 C460 1.394 . S
C473 C472 1.478 . S
C473 C474 1.397 . S
C474 C473 1.397 . S
C474 C475 1.438 . S
C474 C479 1.429 . S
C475 C458 1.394 . S
C475 C474 1.438 . S
C475 C476 1.428 . S
C476 H468 0.949 . S
C476 C475 1.428 . S
C476 C477 1.345 . S
C477 H469 0.950 . S
C477 C476 1.345 . S
C477 C478 1.424 . S
C478 H470 0.951 . S
C478 C477 1.424 . S
C478 C479 1.347 . S
C479 H471 0.951 . S
C479 C474 1.429 . S
C479 C478 1.347 . S
H480 C481 0.951 . S
C481 H480 0.951 . S
C481 C487 1.265 . S
H482 C487 0.950 . S
H483 C491 0.949 . S
H484 C492 0.950 . S
H485 C493 0.951 . S
H486 C494 0.951 . S
C487 C481 1.265 . S
C487 H482 0.950 . S
C487 C488 1.478 . S
C488 C487 1.478 . S
C488 C489 1.397 . S
C488 C505 1.394 . S
C489 C488 1.397 . S
C489 C490 1.438 . S
C489 C494 1.429 . S
C490 C489 1.438 . S
C490 C491 1.428 . S
C490 C503 1.394 . S
C491 H483 0.949 . S
C491 C490 1.428 . S
C491 C492 1.345 . S
C492 H484 0.950 . S
C492 C491 1.345 . S
C492 C493 1.424 . S
C493 H485 0.951 . S
C493 C492 1.424 . S
C493 C494 1.347 . S
C494 H486 0.951 . S
C494 C489 1.429 . S
C494 C493 1.347 . S
H495 C496 0.951 . S
C496 H495 0.951 . S
C496 C502 1.265 . S
H497 C502 0.950 . S
H498 C506 0.949 . S
H499 C507 0.955 . S
H500 C508 0.951 . S
H501 C509 0.951 . S
C502 C496 1.265 . S
C502 H497 0.950 . S
C502 C503 1.478 . S
C503 C490 1.394 . S
C503 C502 1.478 . S
C503 C504 1.397 . S
C504 C503 1.397 . S
C504 C505 1.438 . S
C504 C509 1.429 . S
C505 C488 1.394 . S
C505 C504 1.438 . S
C505 C506 1.428 . S
C506 H498 0.949 . S
C506 C505 1.428 . S
C506 C507 1.345 . S
C507 H499 0.955 . S
C507 C506 1.345 . S
C507 C508 1.424 . S
C508 H500 0.951 . S
C508 C507 1.424 . S
C508 C509 1.347 . S
C509 H501 0.951 . S
C509 C504 1.429 . S
C509 C508 1.347 . S
H510 C511 0.951 . S
C511 H510 0.951 . S
C511 C517 1.265 . S
H512 C517 0.950 . S
H513 C521 0.949 . S
H514 C522 0.950 . S
H515 C523 0.951 1_545 S
H516 C524 0.951 . S
C517 C511 1.265 . S
C517 H512 0.950 . S
C517 C518 1.478 . S
C518 C517 1.478 . S
C518 C519 1.397 . S
C518 C535 1.394 . S
C519 C518 1.397 . S
C519 C520 1.438 . S
C519 C524 1.429 . S
C520 C519 1.438 . S
C520 C521 1.428 . S
C520 C533 1.394 . S
C521 H513 0.949 . S
C521 C520 1.428 . S
C521 C522 1.345 . S
C522 H514 0.950 . S
C522 C521 1.345 . S
C522 C523 1.424 . S
C523 H515 0.951 1_565 S
C523 C522 1.424 . S
C523 C524 1.347 . S
C524 H516 0.951 . S
C524 C519 1.429 . S
C524 C523 1.347 . S
H525 C526 0.951 . S
C526 H525 0.951 . S
C526 C532 1.265 . S
H527 C532 0.950 . S
H528 C536 0.949 . S
H529 C537 0.950 . S
H530 C538 0.951 . S
H531 C539 0.951 . S
C532 C526 1.265 . S
C532 H527 0.950 . S
C532 C533 1.478 . S
C533 C520 1.394 . S
C533 C532 1.478 . S
C533 C534 1.397 . S
C534 C533 1.397 . S
C534 C535 1.438 . S
C534 C539 1.429 . S
C535 C518 1.394 . S
C535 C534 1.438 . S
C535 C536 1.428 . S
C536 H528 0.949 . S
C536 C535 1.428 . S
C536 C537 1.345 . S
C537 H529 0.950 . S
C537 C536 1.345 . S
C537 C538 1.424 . S
C538 H530 0.951 . S
C538 C537 1.424 . S
C538 C539 1.347 . S
C539 H531 0.951 . S
C539 C534 1.429 . S
C539 C538 1.347 . S
H540 C541 0.951 . S
C541 H540 0.951 . S
C541 C547 1.265 . S
H542 C547 0.950 . S
H543 C551 0.949 . S
H544 C552 0.950 . S
H545 C553 0.951 . S
H546 C554 0.951 . S
C547 C541 1.265 . S
C547 H542 0.950 . S
C547 C548 1.478 . S
C548 C547 1.478 . S
C548 C549 1.397 . S
C548 C565 1.394 . S
C549 C548 1.397 . S
C549 C550 1.438 . S
C549 C554 1.429 . S
C550 C549 1.438 . S
C550 C551 1.428 . S
C550 C563 1.394 . S
C551 H543 0.949 . S
C551 C550 1.428 . S
C551 C552 1.345 . S
C552 H544 0.950 . S
C552 C551 1.345 . S
C552 C553 1.424 . S
C553 H545 0.951 . S
C553 C552 1.424 . S
C553 C554 1.347 . S
C554 H546 0.951 . S
C554 C549 1.429 . S
C554 C553 1.347 . S
H555 C556 0.951 . S
C556 H555 0.951 . S
C556 C562 1.265 . S
H557 C562 0.950 . S
H558 C566 0.949 . S
H559 C567 0.950 . S
H560 C568 0.951 . S
H561 C569 0.951 . S
C562 C556 1.265 . S
C562 H557 0.950 . S
C562 C563 1.478 . S
C563 C550 1.394 . S
C563 C562 1.478 . S
C563 C564 1.397 . S
C564 C563 1.397 . S
C564 C565 1.438 . S
C564 C569 1.429 . S
C565 C548 1.394 . S
C565 C564 1.438 . S
C565 C566 1.428 . S
C566 H558 0.949 . S
C566 C565 1.428 . S
C566 C567 1.345 1_655 S
C567 H559 0.950 . S
C567 C566 1.345 1_455 S
C567 C568 1.424 . S
C568 H560 0.951 . S
C568 C567 1.424 . S
C568 C569 1.347 1_455 S
C569 H561 0.951 . S
C569 C564 1.429 . S
C569 C568 1.347 1_655 S
C211 C58 1.069 . S
C226 C187 1.188 . S
C241 C151 1.524 . S
C256 C193 1.337 . S
C271 C56 1.590 . S
C286 C184 1.409 . S
C301 C153 1.197 . S
C316 C209 1.193 . S
C331 C74 1.604 . S
C346 C175 1.479 . S
C376 C192 1.483 . S
C361 C147 1.573 . S
C391 C142 1.253 . S
C406 C188 1.330 . S
C436 C205 1.577 . S
C421 C63 1.643 . S
C466 C172 1.406 . S
C451 C158 1.602 . S
C496 C208 1.288 . S
C481 C69 1.298 . S
C526 C171 1.411 . S
C511 C140 1.593 . S
C556 C196 1.317 . S
C541 C67 1.515 . S
