# Generated by pormake.
# Topology soc, (4,6)-cn, num edge types: 1
# Building blocks:
#     Node 0, Type 0, BuildingBlock: ESEHIV_clean_sbu_0, # of connection points: 4
#     Node 1, Type 0, BuildingBlock: ESEHIV_clean_sbu_0, # of connection points: 4
#     Node 2, Type 0, BuildingBlock: ESEHIV_clean_sbu_0, # of connection points: 4
#     Node 3, Type 0, BuildingBlock: ESEHIV_clean_sbu_0, # of connection points: 4
#     Node 4, Type 0, BuildingBlock: ESEHIV_clean_sbu_0, # of connection points: 4
#     Node 5, Type 0, BuildingBlock: ESEHIV_clean_sbu_0, # of connection points: 4
#     Node 6, Type 0, BuildingBlock: ESEHIV_clean_sbu_0, # of connection points: 4
#     Node 7, Type 0, BuildingBlock: ESEHIV_clean_sbu_0, # of connection points: 4
#     Node 8, Type 0, BuildingBlock: ESEHIV_clean_sbu_0, # of connection points: 4
#     Node 9, Type 0, BuildingBlock: ESEHIV_clean_sbu_0, # of connection points: 4
#     Node 10, Type 0, BuildingBlock: ESEHIV_clean_sbu_0, # of connection points: 4
#     Node 11, Type 0, BuildingBlock: ESEHIV_clean_sbu_0, # of connection points: 4
#     Node 12, Type 1, BuildingBlock: KUMJIN_clean_sbu_0, # of connection points: 6
#     Node 13, Type 1, BuildingBlock: KUMJIN_clean_sbu_0, # of connection points: 6
#     Node 14, Type 1, BuildingBlock: KUMJIN_clean_sbu_0, # of connection points: 6
#     Node 15, Type 1, BuildingBlock: KUMJIN_clean_sbu_0, # of connection points: 6
#     Node 16, Type 1, BuildingBlock: KUMJIN_clean_sbu_0, # of connection points: 6
#     Node 17, Type 1, BuildingBlock: KUMJIN_clean_sbu_0, # of connection points: 6
#     Node 18, Type 1, BuildingBlock: KUMJIN_clean_sbu_0, # of connection points: 6
#     Node 19, Type 1, BuildingBlock: KUMJIN_clean_sbu_0, # of connection points: 6
#     Edge 20, Type (0, 1), BuildingBlock: UVAHIK_clean_linker_0, # of connection points: 2
#     Edge 21, Type (0, 1), BuildingBlock: UVAHIK_clean_linker_0, # of connection points: 2
#     Edge 22, Type (0, 1), BuildingBlock: UVAHIK_clean_linker_0, # of connection points: 2
#     Edge 23, Type (0, 1), BuildingBlock: UVAHIK_clean_linker_0, # of connection points: 2
#     Edge 24, Type (0, 1), BuildingBlock: UVAHIK_clean_linker_0, # of connection points: 2
#     Edge 25, Type (0, 1), BuildingBlock: UVAHIK_clean_linker_0, # of connection points: 2
#     Edge 26, Type (0, 1), BuildingBlock: UVAHIK_clean_linker_0, # of connection points: 2
#     Edge 27, Type (0, 1), BuildingBlock: UVAHIK_clean_linker_0, # of connection points: 2
#     Edge 28, Type (0, 1), BuildingBlock: UVAHIK_clean_linker_0, # of connection points: 2
#     Edge 29, Type (0, 1), BuildingBlock: UVAHIK_clean_linker_0, # of connection points: 2
#     Edge 30, Type (0, 1), BuildingBlock: UVAHIK_clean_linker_0, # of connection points: 2
#     Edge 31, Type (0, 1), BuildingBlock: UVAHIK_clean_linker_0, # of connection points: 2
#     Edge 32, Type (0, 1), BuildingBlock: UVAHIK_clean_linker_0, # of connection points: 2
#     Edge 33, Type (0, 1), BuildingBlock: UVAHIK_clean_linker_0, # of connection points: 2
#     Edge 34, Type (0, 1), BuildingBlock: UVAHIK_clean_linker_0, # of connection points: 2
#     Edge 35, Type (0, 1), BuildingBlock: UVAHIK_clean_linker_0, # of connection points: 2
#     Edge 36, Type (0, 1), BuildingBlock: UVAHIK_clean_linker_0, # of connection points: 2
#     Edge 37, Type (0, 1), BuildingBlock: UVAHIK_clean_linker_0, # of connection points: 2
#     Edge 38, Type (0, 1), BuildingBlock: UVAHIK_clean_linker_0, # of connection points: 2
#     Edge 39, Type (0, 1), BuildingBlock: UVAHIK_clean_linker_0, # of connection points: 2
#     Edge 40, Type (0, 1), BuildingBlock: UVAHIK_clean_linker_0, # of connection points: 2
#     Edge 41, Type (0, 1), BuildingBlock: UVAHIK_clean_linker_0, # of connection points: 2
#     Edge 42, Type (0, 1), BuildingBlock: UVAHIK_clean_linker_0, # of connection points: 2
#     Edge 43, Type (0, 1), BuildingBlock: UVAHIK_clean_linker_0, # of connection points: 2
#     Edge 44, Type (0, 1), BuildingBlock: UVAHIK_clean_linker_0, # of connection points: 2
#     Edge 45, Type (0, 1), BuildingBlock: UVAHIK_clean_linker_0, # of connection points: 2
#     Edge 46, Type (0, 1), BuildingBlock: UVAHIK_clean_linker_0, # of connection points: 2
#     Edge 47, Type (0, 1), BuildingBlock: UVAHIK_clean_linker_0, # of connection points: 2
#     Edge 48, Type (0, 1), BuildingBlock: UVAHIK_clean_linker_0, # of connection points: 2
#     Edge 49, Type (0, 1), BuildingBlock: UVAHIK_clean_linker_0, # of connection points: 2
#     Edge 50, Type (0, 1), BuildingBlock: UVAHIK_clean_linker_0, # of connection points: 2
#     Edge 51, Type (0, 1), BuildingBlock: UVAHIK_clean_linker_0, # of connection points: 2
#     Edge 52, Type (0, 1), BuildingBlock: UVAHIK_clean_linker_0, # of connection points: 2
#     Edge 53, Type (0, 1), BuildingBlock: UVAHIK_clean_linker_0, # of connection points: 2
#     Edge 54, Type (0, 1), BuildingBlock: UVAHIK_clean_linker_0, # of connection points: 2
#     Edge 55, Type (0, 1), BuildingBlock: UVAHIK_clean_linker_0, # of connection points: 2
#     Edge 56, Type (0, 1), BuildingBlock: UVAHIK_clean_linker_0, # of connection points: 2
#     Edge 57, Type (0, 1), BuildingBlock: UVAHIK_clean_linker_0, # of connection points: 2
#     Edge 58, Type (0, 1), BuildingBlock: UVAHIK_clean_linker_0, # of connection points: 2
#     Edge 59, Type (0, 1), BuildingBlock: UVAHIK_clean_linker_0, # of connection points: 2
#     Edge 60, Type (0, 1), BuildingBlock: UVAHIK_clean_linker_0, # of connection points: 2
#     Edge 61, Type (0, 1), BuildingBlock: UVAHIK_clean_linker_0, # of connection points: 2
#     Edge 62, Type (0, 1), BuildingBlock: UVAHIK_clean_linker_0, # of connection points: 2
#     Edge 63, Type (0, 1), BuildingBlock: UVAHIK_clean_linker_0, # of connection points: 2
#     Edge 64, Type (0, 1), BuildingBlock: UVAHIK_clean_linker_0, # of connection points: 2
#     Edge 65, Type (0, 1), BuildingBlock: UVAHIK_clean_linker_0, # of connection points: 2
#     Edge 66, Type (0, 1), BuildingBlock: UVAHIK_clean_linker_0, # of connection points: 2
#     Edge 67, Type (0, 1), BuildingBlock: UVAHIK_clean_linker_0, # of connection points: 2
# Relax obj value: 0.054
# Max RMSD: 0.165
# Mean RMSD: 0.131
data_MOF--net-soc--node1-ESEHIV_clean_sbu_0--node2-KUMJIN_clean_sbu_0--edge1-UVAHIK_clean_linker_0
_symmetry_space_group_name_H-M    P1
_symmetry_Int_Tables_number       1
_symmetry_cell_setting            triclinic
loop_
_symmetry_equiv_pos_as_xyz
'x, y, z'
_cell_length_a     64.33675
_cell_length_b     62.27262
_cell_length_c     53.427479
_cell_angle_alpha  85.215496
_cell_angle_beta   83.537593
_cell_angle_gamma 75.82316
loop_
_atom_site_label
_atom_site_type_symbol
_atom_site_fract_x
_atom_site_fract_y
_atom_site_fract_z
_atom_type_partial_charge
Cu0 Cu 0.04062 0.02988 0.33487 0.0
N1 N 0.05463 0.04317 0.35598 0.0
N2 N 0.07247 0.06627 0.36878 0.0
C3 C 0.06451 0.0598 0.34913 0.0
C4 C 0.06702 0.05356 0.38894 0.0
C5 C 0.05599 0.03936 0.38101 0.0
O6 O 0.06194 0.01033 0.31243 0.0
C7 C 1.00565 0.05397 0.30505 0.0
O8 O 1.00512 0.03507 0.29621 0.0
H9 H 0.06554 0.06729 0.33014 0.0
H10 H 0.04926 0.02731 0.3928 0.0
N11 N 0.02596 0.01076 0.35427 0.0
N12 N 1.00301 0.98898 0.3652 0.0
C13 C 1.00658 0.00712 0.3513 0.0
C14 C 0.03488 0.99438 0.37061 0.0
C15 C 1.02075 0.98107 0.37754 0.0
C16 C 0.081 0.01242 0.3055 0.0
O17 O 0.08616 0.03088 0.30945 0.0
H18 H 0.99568 0.01699 0.33851 0.0
H19 H 0.05116 0.99144 0.3758 0.0
O20 O 1.02003 0.05449 0.31939 0.0
H21 H 0.07098 0.05429 0.40797 0.0
H22 H 1.02396 0.96586 0.38935 0.0
Cu23 Cu 0.04804 0.03479 0.74434 0.0
N24 N 0.03553 0.01858 0.72479 0.0
N25 N 1.01625 0.99569 0.71469 0.0
C26 C 1.02199 0.00561 0.73349 0.0
C27 C 0.02662 1.0027 0.69336 0.0
C28 C 0.03843 0.01686 0.69963 0.0
O29 O 0.02534 0.054 0.76559 0.0
C30 C 0.08473 1.00185 0.74596 0.0
O31 O 0.08276 0.00579 0.7217 0.0
H32 H 1.01673 1.00327 0.75328 0.0
H33 H 0.04857 0.02517 0.68679 0.0
N34 N 0.06179 0.05424 0.72442 0.0
N35 N 0.0839 0.077 0.71499 0.0
C36 C 0.07964 0.05974 0.72995 0.0
C37 C 0.05443 0.06848 0.70527 0.0
C38 C 0.06807 0.08257 0.69938 0.0
C39 C 1.00769 0.06266 0.75594 0.0
O40 O 1.00511 0.05706 0.73355 0.0
H41 H 0.08853 0.05215 0.74575 0.0
H42 H 0.03962 0.06929 0.69705 0.0
O43 O 0.0705 0.01332 0.76135 0.0
H44 H 0.02557 0.99811 0.67452 0.0
H45 H 0.06615 0.09622 0.68524 0.0
Cu46 Cu 0.28631 0.05123 0.06426 0.0
N47 N 0.26566 0.04515 0.04574 0.0
N48 N 0.25077 0.02538 0.02313 0.0
C49 C 0.26468 0.02473 0.04037 0.0
C50 C 0.24272 0.04708 0.01716 0.0
C51 C 0.25189 0.05929 0.03129 0.0
O52 O 0.30006 0.02307 0.08142 0.0
C53 C 0.29756 0.08643 0.03483 0.0
O54 O 0.27954 0.09687 0.04704 0.0
H55 H 0.27514 0.00962 0.04752 0.0
H56 H 0.24957 0.07712 0.03007 0.0
N57 N 0.27355 0.07079 0.08937 0.0
N58 N 0.2707 0.09507 0.11877 0.0
C59 C 0.28419 0.07967 0.1045 0.0
C60 C 0.25258 0.08067 0.09443 0.0
C61 C 0.25078 0.09576 0.11252 0.0
C62 C 0.28674 0.01447 0.09598 0.0
O63 O 0.26644 0.02538 0.0985 0.0
H64 H 0.30157 0.07575 0.10405 0.0
H65 H 0.23964 0.07766 0.085 0.0
O66 O 0.30462 0.06565 0.03987 0.0
H67 H 0.23168 0.05357 1.00298 0.0
H68 H 0.23602 0.10665 0.12017 0.0
Cu69 Cu 0.05909 0.30315 0.07349 0.0
N70 N 0.0749 0.31886 0.05059 0.0
N71 N 0.09805 0.32526 0.01805 0.0
C72 C 0.08954 0.30987 0.03197 0.0
C73 C 0.0884 0.34474 0.02825 0.0
C74 C 0.07422 0.34071 0.04848 0.0
O75 O 0.07685 0.29157 0.10155 0.0
C76 C 0.03356 0.275 0.05882 0.0
O77 O 0.02483 0.27554 0.08224 0.0
H78 H 0.09362 0.29239 0.02845 0.0
H79 H 0.06416 0.35285 0.06077 0.0
N80 N 0.03352 0.32205 0.08657 0.0
N81 N 1.00104 0.33165 0.10827 0.0
C82 C 1.02061 0.31727 0.10686 0.0
C83 C 1.02191 0.34033 0.07496 0.0
C84 C 1.00197 0.34636 0.08834 0.0
C85 C 0.09658 0.28105 0.09879 0.0
O86 O 0.10497 0.27418 0.07646 0.0
H87 H 0.02488 0.30238 0.119 0.0
H88 H 0.02697 0.34783 0.05707 0.0
O89 O 0.0502 0.28276 0.053 0.0
H90 H 0.0916 0.36066 0.02177 0.0
H91 H 0.98886 0.3599 0.08299 0.0
Cu92 Cu 0.81329 1.00386 0.99666 0.0
N93 N 0.82872 0.01919 0.97333 0.0
N94 N 0.83573 0.04875 0.95076 0.0
C95 C 0.82181 0.04096 0.96766 0.0
C96 C 0.85204 0.031 0.94528 0.0
C97 C 0.84768 0.01269 0.95939 0.0
O98 O 0.79798 0.02527 0.02119 0.0
C99 C 0.80696 0.9726 0.96747 0.0
O100 O 0.82791 0.96697 0.96855 0.0
H101 H 0.80661 0.05081 0.97567 0.0
H102 H 0.85761 0.99594 0.95953 0.0
N103 N 0.83111 0.9815 0.01503 0.0
N104 N 0.83876 0.95405 0.04448 0.0
C105 C 0.82329 0.96738 0.03157 0.0
C106 C 0.85239 0.97698 0.01732 0.0
C107 C 0.85717 0.96002 0.03571 0.0
C108 C 0.81088 0.03274 0.03265 0.0
O109 O 0.83167 0.02578 0.02647 0.0
H110 H 0.8063 0.96774 0.03496 0.0
H111 H 0.86345 0.98593 1.00713 0.0
O112 O 0.79597 0.98968 0.97858 0.0
H113 H 0.86616 0.03126 0.93228 0.0
H114 H 0.87279 0.953 0.04246 0.0
Cu115 Cu 0.02877 0.75754 0.01601 0.0
N116 N 1.01615 0.74401 0.99369 0.0
N117 N 0.99271 0.73935 0.96796 0.0
C118 C 0.99639 0.75182 0.98572 0.0
C119 C 1.01084 0.72321 0.96444 0.0
C120 C 0.02536 0.7263 0.98005 0.0
O121 O 1.00519 0.77229 0.04086 0.0
C122 C 0.0641 0.77915 1.00098 0.0
O123 O 0.06678 0.77779 0.02509 0.0
H124 H 0.98515 0.76667 0.99234 0.0
H125 H 0.04187 0.71702 0.98021 0.0
N126 N 0.04717 0.73653 0.03565 0.0
N127 N 0.06877 0.72437 0.06641 0.0
C128 C 0.05386 0.74138 0.05698 0.0
C129 C 0.05778 0.7154 0.03177 0.0
C130 C 0.07119 0.7079 0.05066 0.0
C131 C 0.99655 0.75842 0.05486 0.0
O132 O 1.0033 0.73729 0.05037 0.0
H133 H 0.04881 0.75764 0.06452 0.0
H134 H 0.05653 0.70617 0.01606 0.0
O135 O 0.04753 0.77407 0.99418 0.0
H136 H 1.01379 0.71084 0.95055 0.0
H137 H 0.08231 0.69181 0.0522 0.0
Cu138 Cu 0.54117 0.52993 0.83424 0.0
N139 N 0.55382 0.54467 0.85502 0.0
N140 N 0.57279 0.56741 0.86611 0.0
C141 C 0.56886 0.55613 0.84735 0.0
C142 C 0.55974 0.56277 0.88639 0.0
C143 C 0.54804 0.54876 0.87947 0.0
O144 O 0.56494 0.51183 0.81336 0.0
C145 C 0.5069 0.55274 0.80227 0.0
O146 O 0.50814 0.53399 0.79196 0.0
H147 H 0.57589 0.55712 0.82803 0.0
H148 H 0.53559 0.54271 0.89116 0.0
N149 N 0.52676 0.51085 0.85405 0.0
N150 N 0.50473 0.48817 0.86498 0.0
C151 C 0.50934 0.50444 0.84858 0.0
C152 C 0.53331 0.49834 0.87477 0.0
C153 C 0.51968 0.48442 0.88166 0.0
C154 C 0.5645 0.49274 0.80678 0.0
O155 O 0.54608 0.48688 0.80937 0.0
H156 H 0.50063 0.51104 0.83241 0.0
H157 H 0.54756 0.49864 0.88358 0.0
O158 O 0.52014 0.55359 0.81798 0.0
H159 H 0.55839 0.5694 0.90475 0.0
H160 H 0.52133 0.47175 0.89695 0.0
Cu161 Cu 0.5456 0.53834 0.23924 0.0
N162 N 0.53329 0.52055 0.2215 0.0
N163 N 0.51454 0.49643 0.21342 0.0
C164 C 0.51966 0.50795 0.23122 0.0
C165 C 0.52536 0.50207 0.19171 0.0
C166 C 0.53685 0.51695 0.19674 0.0
O167 O 0.52298 0.55805 0.25998 0.0
C168 C 0.58412 0.50832 0.2405 0.0
O169 O 0.58207 0.51259 0.21628 0.0
H170 H 0.51397 0.50694 0.25104 0.0
H171 H 0.54726 0.52445 0.18333 0.0
N172 N 0.55815 0.55773 0.21744 0.0
N173 N 0.57893 0.58137 0.20515 0.0
C174 C 0.5755 0.56482 0.22182 0.0
C175 C 0.55032 0.57022 0.19725 0.0
C176 C 0.56312 0.58488 0.18964 0.0
C177 C 0.50626 0.56731 0.24879 0.0
O178 O 0.50481 0.56104 0.22632 0.0
H179 H 0.58469 0.55881 0.23782 0.0
H180 H 0.53582 0.56939 0.18931 0.0
O181 O 0.56904 0.51827 0.25612 0.0
H182 H 0.52491 0.49598 0.17343 0.0
H183 H 0.56071 0.59745 0.17428 0.0
Cu184 Cu 0.79257 0.56033 0.57838 0.0
N185 N 0.77201 0.58111 0.562 0.0
N186 N 0.76068 0.60743 0.53236 0.0
C187 C 0.77721 0.5969 0.54563 0.0
C188 C 0.74429 0.59789 0.54089 0.0
C189 C 0.75137 0.58159 0.55929 0.0
O190 O 0.8096 0.57746 0.59235 0.0
C191 C 0.82332 0.52399 0.5533 0.0
O192 O 0.83419 0.52008 0.57325 0.0
H193 H 0.79343 0.59923 0.54204 0.0
H194 H 0.74257 0.57003 0.56879 0.0
N195 N 0.77935 0.54429 0.60349 0.0
N196 N 0.77292 0.51533 0.62795 0.0
C197 C 0.78555 0.52232 0.60869 0.0
C198 C 0.76213 0.55162 0.61995 0.0
C199 C 0.75813 0.53376 0.63514 0.0
C200 C 0.81487 0.57472 0.61486 0.0
O201 O 0.81215 0.55701 0.62873 0.0
H202 H 0.79936 0.51175 0.59884 0.0
H203 H 0.75319 0.56873 0.62083 0.0
O204 O 0.80717 0.54049 0.55235 0.0
H205 H 0.72872 0.60166 0.53354 0.0
H206 H 0.74527 0.53433 0.65015 0.0
Cu207 Cu 0.55659 0.79556 0.57075 0.0
N208 N 0.57585 0.77877 0.54595 0.0
N209 N 0.60225 0.77011 0.51429 0.0
C210 C 0.59088 0.78593 0.52978 0.0
C211 C 0.59419 0.75218 0.52122 0.0
C212 C 0.57795 0.75755 0.5406 0.0
O213 O 0.57434 0.8085 0.58942 0.0
C214 C 0.53732 0.82853 0.5335 0.0
O215 O 0.55684 0.8289 0.52355 0.0
H216 H 0.59372 0.80236 0.52965 0.0
H217 H 0.56833 0.74675 0.55009 0.0
N218 N 0.5406 0.77909 0.59344 0.0
N219 N 0.51321 0.77198 0.62057 0.0
C220 C 0.51941 0.78575 0.60172 0.0
C221 C 0.548 0.76037 0.60745 0.0
C222 C 0.53125 0.75597 0.62409 0.0
C223 C 0.57047 0.81238 0.61271 0.0
O224 O 0.55218 0.80999 0.62486 0.0
H225 H 0.50901 0.80104 0.59491 0.0
H226 H 0.56461 0.75102 0.6063 0.0
O227 O 0.53477 0.8172 0.55402 0.0
H228 H 0.59938 0.73638 0.51258 0.0
H229 H 0.5324 0.74216 0.638 0.0
Cu230 Cu 0.30264 0.51406 0.49789 0.0
N231 N 0.31904 0.53068 0.47659 0.0
N232 N 0.3264 0.56045 0.4541 0.0
C233 C 0.31124 0.55183 0.46812 0.0
C234 C 0.34449 0.54392 0.45357 0.0
C235 C 0.33993 0.52562 0.46749 0.0
O236 O 0.28345 0.53529 0.51967 0.0
C237 C 0.30154 0.48627 0.46149 0.0
O238 O 0.3222 0.48548 0.46065 0.0
H239 H 0.29467 0.56071 0.47234 0.0
H240 H 0.35112 0.50986 0.47088 0.0
N241 N 0.31837 0.49268 0.51977 0.0
N242 N 0.32339 0.46727 0.55221 0.0
C243 C 0.30921 0.47976 0.53682 0.0
C244 C 0.33916 0.4883 0.52441 0.0
C245 C 0.34232 0.47255 0.54432 0.0
C246 C 0.29379 0.54606 0.53084 0.0
O247 O 0.31491 0.54129 0.52707 0.0
H248 H 0.29228 0.47989 0.53806 0.0
H249 H 0.35099 0.49653 0.51475 0.0
O250 O 0.28862 0.49857 0.47721 0.0
H251 H 0.36006 0.54507 0.44431 0.0
H252 H 0.35724 0.46619 0.55291 0.0
Cu253 Cu 0.52351 0.27832 0.50847 0.0
N254 N 0.53915 0.29648 0.48932 0.0
N255 N 0.56737 0.30619 0.46713 0.0
C256 C 0.56017 0.28998 0.48118 0.0
C257 C 0.55008 0.32361 0.46641 0.0
C258 C 0.53268 0.31755 0.48015 0.0
O259 O 0.54601 0.25679 0.52545 0.0
C260 C 0.49479 0.25499 0.48868 0.0
O261 O 0.49427 0.24353 0.51043 0.0
H262 H 0.56984 0.27343 0.48504 0.0
H263 H 0.51646 0.32771 0.48313 0.0
N264 N 0.50459 0.29467 0.53309 0.0
N265 N 0.48041 0.30168 0.56678 0.0
C266 C 0.48808 0.28853 0.54726 0.0
C267 C 0.5072 0.31259 0.54363 0.0
C268 C 0.49229 0.317 0.56432 0.0
C269 C 0.54431 0.25151 0.54905 0.0
O270 O 0.52504 0.25444 0.56126 0.0
H271 H 0.48273 0.27391 0.54417 0.0
H272 H 0.51994 0.32097 0.53766 0.0
O273 O 0.50692 0.26857 0.48472 0.0
H274 H 0.54997 0.33962 0.45679 0.0
H275 H 0.49132 0.3296 0.57746 0.0
Eu276 Eu 0.27359 0.27292 0.32425 0.0
C277 C 0.30709 0.28615 0.21114 0.0
C278 C 0.33152 0.25068 0.20265 0.0
C279 C 0.31225 0.27265 0.16895 0.0
C280 C 0.32126 0.26714 0.21953 0.0
C281 C 0.30299 0.28949 0.18557 0.0
C282 C 0.32645 0.25323 0.17751 0.0
C283 C 0.28285 0.32675 0.19421 0.0
N284 N 0.2986 0.30214 0.22763 0.0
C285 C 0.2873 0.32259 0.21944 0.0
C286 C 0.2904 0.30999 0.17729 0.0
Eu287 Eu 0.30643 0.29387 0.27007 0.0
N288 N 0.32603 0.26541 0.24383 0.0
C289 C 0.34218 0.2485 0.25193 0.0
C290 C 0.34709 0.23254 0.21133 0.0
C291 C 0.35271 0.23166 0.23595 0.0
H292 H 0.28129 0.33549 0.23257 0.0
H293 H 0.36508 0.21796 0.24269 0.0
H294 H 0.33396 0.24063 0.16434 0.0
H295 H 0.27351 0.34282 0.18788 0.0
H296 H 0.34656 0.24751 0.27096 0.0
H297 H 0.21131 0.34794 0.3455 0.0
H298 H 0.35529 0.2195 0.19899 0.0
H299 H 0.30097 0.2351 0.36441 0.0
H300 H 0.23207 0.31761 0.31943 0.0
H301 H 0.30877 0.23158 0.40915 0.0
H302 H 0.30907 0.27476 0.1493 0.0
H303 H 0.21956 0.34937 0.38937 0.0
H304 H 0.24092 0.33157 0.42539 0.0
H305 H 0.28694 0.31325 0.15776 0.0
H306 H 0.2676 0.30003 0.44266 0.0
N307 N 0.25215 0.30214 0.34807 0.0
C308 C 0.23575 0.31792 0.33858 0.0
C309 C 0.22869 0.33595 0.37803 0.0
C310 C 0.24479 0.3191 0.38805 0.0
C311 C 0.22396 0.33518 0.3533 0.0
C312 C 0.25628 0.30208 0.37244 0.0
H313 H 0.29274 0.26252 0.43686 0.0
N314 N 0.28143 0.2679 0.36686 0.0
C315 C 0.29837 0.24661 0.40174 0.0
C316 C 0.2715 0.28451 0.38209 0.0
C317 C 0.2939 0.2486 0.37652 0.0
C318 C 0.28934 0.26414 0.4173 0.0
C319 C 0.27538 0.28322 0.40768 0.0
O320 O 0.26605 0.24081 0.33466 0.0
O321 O 0.29185 0.26641 0.28691 0.0
O322 O 0.27508 0.29242 0.25522 0.0
O323 O 0.25254 0.28843 0.29214 0.0
O324 O 0.29567 0.23989 0.31298 0.0
O325 O 0.24033 0.2696 0.32712 0.0
O326 O 0.31591 0.32542 0.26258 0.0
O327 O 0.28785 0.3005 0.3073 0.0
O328 O 0.3048 0.27541 0.33822 0.0
O329 O 0.32756 0.27509 0.30089 0.0
O330 O 0.28433 0.3269 0.28116 0.0
O331 O 0.34019 0.29522 0.26878 0.0
C332 C 0.3005 0.24604 0.28983 0.0
C333 C 0.23189 0.24168 0.35649 0.0
C334 C 0.20551 0.22073 0.37427 0.0
C335 C 0.21793 0.22811 0.35332 0.0
C336 C 0.20749 0.22718 0.3984 0.0
C337 C 0.23319 0.24816 0.38064 0.0
C338 C 0.22111 0.24089 0.40146 0.0
C339 C 0.25598 0.29168 0.26719 0.0
C340 C 0.24529 0.24863 0.33461 0.0
C341 C 0.26465 0.30059 0.42302 0.0
C342 C 0.24941 0.31852 0.4132 0.0
C343 C 0.27905 0.32082 0.30418 0.0
C344 C 0.35043 0.32329 0.24116 0.0
C345 C 0.36363 0.33768 0.24445 0.0
C346 C 0.377 0.34421 0.22386 0.0
C347 C 0.37653 0.33639 0.19999 0.0
C348 C 0.35065 0.31548 0.21726 0.0
C349 C 0.36352 0.3221 0.1968 0.0
C350 C 0.32417 0.27347 0.32594 0.0
C351 C 0.33646 0.31643 0.26258 0.0
H352 H 0.21669 0.22351 0.33453 0.0
H353 H 0.19874 0.22141 0.41506 0.0
H354 H 0.2436 0.2587 0.38349 0.0
H355 H 0.22242 0.24577 0.42008 0.0
H356 H 0.36371 0.34345 0.26301 0.0
H357 H 0.38611 0.34145 0.18361 0.0
H358 H 0.3409 0.30425 0.21439 0.0
H359 H 0.3634 0.31613 0.17837 0.0
Eu360 Eu 0.81246 0.30331 0.30731 0.0
C361 C 0.7295 0.27749 0.28755 0.0
C362 C 0.71968 0.25742 0.32608 0.0
C363 C 0.69184 0.27834 0.30039 0.0
C364 C 0.73541 0.26445 0.30901 0.0
C365 C 0.70772 0.28388 0.28251 0.0
C366 C 0.69781 0.26512 0.32215 0.0
C367 C 0.71929 0.29768 0.24095 0.0
N368 N 0.7453 0.28202 0.27041 0.0
C369 C 0.74066 0.29093 0.24682 0.0
C370 C 0.7027 0.29454 0.25907 0.0
Eu371 Eu 0.78124 0.2691 0.28088 0.0
N372 N 0.75671 0.25694 0.31193 0.0
C373 C 0.76344 0.2414 0.33075 0.0
C374 C 0.72646 0.24209 0.34593 0.0
C375 C 0.74845 0.2338 0.34804 0.0
H376 H 0.75352 0.29334 0.23282 0.0
H377 H 0.75387 0.22168 0.3631 0.0
H378 H 0.68547 0.26024 0.33532 0.0
H379 H 0.71564 0.30529 0.2225 0.0
H380 H 0.78037 0.23496 0.33268 0.0
H381 H 0.80276 0.36411 0.22388 0.0
H382 H 0.71489 0.23618 0.35935 0.0
H383 H 0.85828 0.27738 0.33123 0.0
H384 H 0.7924 0.33652 0.25351 0.0
H385 H 0.89663 0.27747 0.32622 0.0
H386 H 0.67498 0.28339 0.29704 0.0
H387 H 0.83938 0.37013 0.22123 0.0
H388 H 0.87633 0.35839 0.23475 0.0
H389 H 0.68617 0.29964 0.25444 0.0
H390 H 0.9022 0.33382 0.2611 0.0
N391 N 0.82122 0.32872 0.27272 0.0
C392 C 0.80765 0.33995 0.25526 0.0
C393 C 0.83451 0.35855 0.23565 0.0
C394 C 0.84909 0.34577 0.2516 0.0
C395 C 0.81382 0.35531 0.23721 0.0
C396 C 0.842 0.33077 0.27008 0.0
H397 H 0.91004 0.30334 0.29454 0.0
N398 N 0.84993 0.30159 0.30113 0.0
C399 C 0.88569 0.28842 0.31413 0.0
C400 C 0.85675 0.31668 0.28455 0.0
C401 C 0.86391 0.28817 0.31657 0.0
C402 C 0.89314 0.30312 0.29638 0.0
C403 C 0.87865 0.31763 0.28149 0.0
O404 O 0.82021 0.29397 0.34611 0.0
O405 O 0.78818 0.28227 0.31608 0.0
O406 O 0.76189 0.30544 0.28004 0.0
O407 O 0.78228 0.32778 0.29484 0.0
O408 O 0.78136 0.31315 0.33203 0.0
O409 O 0.81936 0.32749 0.33065 0.0
O410 O 0.78313 0.25407 0.24464 0.0
O411 O 0.81064 0.28237 0.27667 0.0
O412 O 0.83214 0.26718 0.30584 0.0
O413 O 0.80758 0.24592 0.30211 0.0
O414 O 0.79602 0.28327 0.24405 0.0
O415 O 0.78718 0.23317 0.27868 0.0
C416 C 0.77508 0.29511 0.33122 0.0
C417 C 0.80979 0.32307 0.37458 0.0
C418 C 0.80452 0.35017 0.40669 0.0
C419 C 0.81583 0.34059 0.38467 0.0
C420 C 0.78719 0.34199 0.41863 0.0
C421 C 0.79277 0.31476 0.38725 0.0
C422 C 0.7815 0.32428 0.40904 0.0
C423 C 0.76489 0.32501 0.28525 0.0
C424 C 0.8212 0.31396 0.35076 0.0
C425 C 0.88548 0.33291 0.26369 0.0
C426 C 0.87073 0.34697 0.2488 0.0
C427 C 0.81217 0.2873 0.25341 0.0
C428 C 0.76991 0.22156 0.24733 0.0
C429 C 0.77599 0.20678 0.22772 0.0
C430 C 0.76168 0.19439 0.22177 0.0
C431 C 0.74111 0.19756 0.23505 0.0
C432 C 0.74943 0.22394 0.26051 0.0
C433 C 0.73507 0.21226 0.25425 0.0
C434 C 0.82699 0.24773 0.30624 0.0
C435 C 0.78493 0.23401 0.25468 0.0
H436 H 0.82905 0.347 0.37517 0.0
H437 H 0.77828 0.34911 0.43561 0.0
H438 H 0.78809 0.30098 0.38033 0.0
H439 H 0.7683 0.3179 0.41853 0.0
H440 H 0.79192 0.20446 0.2177 0.0
H441 H 0.7297 0.18854 0.23063 0.0
H442 H 0.74459 0.23458 0.27593 0.0
H443 H 0.71929 0.2144 0.26455 0.0
Eu444 Eu 0.78673 0.76574 0.26044 0.0
C445 C 0.78582 0.78903 0.36691 0.0
C446 C 0.75322 0.81843 0.36981 0.0
C447 C 0.76283 0.79373 0.40648 0.0
C448 C 0.7718 0.80669 0.35565 0.0
C449 C 0.78189 0.78293 0.39275 0.0
C450 C 0.74853 0.81147 0.39504 0.0
C451 C 0.81743 0.75856 0.39068 0.0
N452 N 0.80429 0.77921 0.35328 0.0
C453 C 0.82068 0.76545 0.36528 0.0
C454 C 0.79772 0.76693 0.40435 0.0
Eu455 Eu 0.80817 0.79074 0.30968 0.0
N456 N 0.77666 0.81288 0.33112 0.0
C457 C 0.76416 0.8315 0.32014 0.0
C458 C 0.74005 0.83702 0.35833 0.0
C459 C 0.7457 0.84372 0.33348 0.0
H460 H 0.83618 0.75926 0.35496 0.0
H461 H 0.73577 0.85827 0.3245 0.0
H462 H 0.73415 0.82005 0.40603 0.0
H463 H 0.83019 0.74694 0.39974 0.0
H464 H 0.76809 0.83715 0.30105 0.0
H465 H 0.85922 0.69783 0.24778 0.0
H466 H 0.72566 0.84645 0.36856 0.0
H467 H 0.75965 0.79735 0.21455 0.0
H468 H 0.82694 0.71955 0.27055 0.0
H469 H 0.76611 0.80879 0.1696 0.0
H470 H 0.75938 0.78901 0.42621 0.0
H471 H 0.86941 0.70839 0.20333 0.0
H472 H 0.86104 0.7337 0.16502 0.0
H473 H 0.7953 0.76177 0.42412 0.0
H474 H 0.83612 0.76445 0.14398 0.0
N475 N 0.81838 0.74303 0.23974 0.0
C476 C 0.83085 0.7247 0.25129 0.0
C477 C 0.85501 0.7181 0.21326 0.0
C478 C 0.84189 0.73636 0.2012 0.0
C479 C 0.84932 0.71212 0.23834 0.0
C480 C 0.82331 0.74852 0.215 0.0
H481 H 0.8007 0.79247 0.14548 0.0
N482 N 0.79106 0.77636 0.21661 0.0
C483 C 0.77856 0.79691 0.17886 0.0
C484 C 0.80939 0.7659 0.2032 0.0
C485 C 0.77507 0.79054 0.20439 0.0
C486 C 0.79809 0.78768 0.16533 0.0
C487 C 0.81354 0.77149 0.17725 0.0
O488 O 0.75783 0.76185 0.24491 0.0
O489 O 0.78107 0.77705 0.29981 0.0
O490 O 0.81444 0.754 0.32061 0.0
O491 O 0.7958 0.74034 0.29288 0.0
O492 O 0.75472 0.78492 0.27912 0.0
O493 O 0.77898 0.73345 0.26217 0.0
O494 O 0.83749 0.79484 0.32392 0.0
O495 O 0.81375 0.77971 0.27014 0.0
O496 O 0.78001 0.80249 0.24973 0.0
O497 O 0.79862 0.81623 0.27742 0.0
O498 O 0.8402 0.77194 0.29076 0.0
O499 O 0.81471 0.82355 0.30973 0.0
C500 C 0.76101 0.78556 0.30113 0.0
C501 C 0.76028 0.7267 0.22939 0.0
C502 C 0.74208 0.70184 0.21235 0.0
C503 C 0.74297 0.71643 0.23076 0.0
C504 C 0.75845 0.698 0.19235 0.0
C505 C 0.77639 0.72272 0.2092 0.0
C506 C 0.77541 0.70853 0.19073 0.0
C507 C 0.80676 0.73811 0.31287 0.0
C508 C 0.76203 0.74046 0.2498 0.0
C509 C 0.83253 0.76017 0.16381 0.0
C510 C 0.84667 0.74261 0.17575 0.0
C511 C 0.83384 0.77134 0.26878 0.0
C512 C 0.83463 0.82898 0.34209 0.0
C513 C 0.84852 0.84349 0.33905 0.0
C514 C 0.85017 0.85616 0.35911 0.0
C515 C 0.83792 0.85384 0.38228 0.0
C516 C 0.8225 0.82713 0.36531 0.0
C517 C 0.8242 0.83941 0.38529 0.0
C518 C 0.78751 0.81845 0.25755 0.0
C519 C 0.83239 0.81641 0.32077 0.0
H520 H 0.7306 0.71925 0.24648 0.0
H521 H 0.75806 0.68691 0.17791 0.0
H522 H 0.78987 0.73029 0.20789 0.0
H523 H 0.78796 0.70549 0.17526 0.0
H524 H 0.85769 0.8452 0.32099 0.0
H525 H 0.83909 0.86302 0.3982 0.0
H526 H 0.81164 0.8163 0.36804 0.0
H527 H 0.81483 0.83777 0.40318 0.0
Eu528 Eu 0.29196 0.7761 0.27347 0.0
C529 C 0.31005 0.86577 0.29697 0.0
C530 C 0.33569 0.8718 0.26175 0.0
C531 C 0.31188 0.90335 0.28213 0.0
C532 C 0.3263 0.85729 0.27852 0.0
C533 C 0.30312 0.88889 0.29938 0.0
C534 C 0.3281 0.89483 0.26335 0.0
C535 C 0.28092 0.88174 0.33725 0.0
N536 N 0.30172 0.85145 0.31331 0.0
C537 C 0.28832 0.85898 0.33414 0.0
C538 C 0.28806 0.89679 0.31954 0.0
Eu539 Eu 0.31564 0.81324 0.30691 0.0
N540 N 0.33316 0.83492 0.27713 0.0
C541 C 0.35024 0.82602 0.26049 0.0
C542 C 0.35258 0.86274 0.24398 0.0
C543 C 0.36005 0.83976 0.24357 0.0
H544 H 0.28282 0.84732 0.34788 0.0
H545 H 0.37326 0.83259 0.23007 0.0
H546 H 0.33495 0.90619 0.25043 0.0
H547 H 0.26976 0.88766 0.3533 0.0
H548 H 0.3561 0.80832 0.25966 0.0
H549 H 0.22644 0.77767 0.34954 0.0
H550 H 0.36012 0.87333 0.23072 0.0
H551 H 0.32712 0.73083 0.2488 0.0
H552 H 0.24875 0.79356 0.3171 0.0
H553 H 0.33843 0.69075 0.25824 0.0
H554 H 0.30656 0.92116 0.28352 0.0
H555 H 0.23447 0.73722 0.3593 0.0
H556 H 0.25782 0.69973 0.35106 0.0
H557 H 0.28235 0.91442 0.32202 0.0
H558 H 0.28885 0.67636 0.32739 0.0
N559 N 0.26983 0.76257 0.30715 0.0
C560 C 0.25271 0.77589 0.32037 0.0
C561 C 0.24441 0.7441 0.34459 0.0
C562 C 0.26187 0.73044 0.3312 0.0
C563 C 0.23985 0.76691 0.33916 0.0
C564 C 0.27441 0.74022 0.31224 0.0
H565 H 0.31917 0.67291 0.29337 0.0
N566 N 0.30383 0.73677 0.28083 0.0
C567 C 0.32564 0.70077 0.27021 0.0
C568 C 0.29202 0.72703 0.29898 0.0
C569 C 0.3196 0.72372 0.26546 0.0
C570 C 0.31463 0.69076 0.2899 0.0
C571 C 0.29727 0.70377 0.30415 0.0
O572 O 0.28995 0.76232 0.23783 0.0
O573 O 0.30266 0.80756 0.27164 0.0
O574 O 0.28083 0.83141 0.30308 0.0
O575 O 0.26603 0.80806 0.2818 0.0
O576 O 0.30752 0.79175 0.23838 0.0
O577 O 0.26084 0.78029 0.25847 0.0
O578 O 0.32111 0.81645 0.34579 0.0
O579 O 0.30684 0.78081 0.30774 0.0
O580 O 0.32811 0.7629 0.26858 0.0
O581 O 0.34271 0.78469 0.29219 0.0
O582 O 0.29918 0.79708 0.34086 0.0
O583 O 0.34794 0.81201 0.31654 0.0
C584 C 0.30953 0.8091 0.24864 0.0
C585 C 0.25798 0.75003 0.23627 0.0
C586 C 0.22679 0.7388 0.22433 0.0
C587 C 0.23752 0.75552 0.22726 0.0
C588 C 0.23668 0.71659 0.23089 0.0
C589 C 0.26764 0.72764 0.2421 0.0
C590 C 0.25696 0.71111 0.2397 0.0
C591 C 0.26461 0.82671 0.2931 0.0
C592 C 0.26893 0.76771 0.23971 0.0
C593 C 0.28493 0.69413 0.32309 0.0
C594 C 0.26723 0.70742 0.33652 0.0
C595 C 0.2996 0.77896 0.33048 0.0
C596 C 0.35538 0.7979 0.35762 0.0
C597 C 0.36925 0.80559 0.37111 0.0
C598 C 0.3824 0.7911 0.38772 0.0
C599 C 0.38141 0.76866 0.39047 0.0
C600 C 0.35468 0.77551 0.3604 0.0
C601 C 0.36765 0.76097 0.37683 0.0
C602 C 0.34446 0.76774 0.27797 0.0
C603 C 0.3419 0.81354 0.34062 0.0
H604 H 0.23001 0.77273 0.22251 0.0
H605 H 0.22905 0.70332 0.22842 0.0
H606 H 0.2835 0.72273 0.24826 0.0
H607 H 0.26461 0.69394 0.24431 0.0
H608 H 0.37 0.82284 0.36832 0.0
H609 H 0.39111 0.75711 0.40332 0.0
H610 H 0.3442 0.76935 0.34985 0.0
H611 H 0.36702 0.74369 0.37901 0.0
Eu612 Eu 0.30301 0.78903 0.82757 0.0
C613 C 0.22335 0.76653 0.80809 0.0
C614 C 0.22426 0.73534 0.8387 0.0
C615 C 0.18987 0.75854 0.82808 0.0
C616 C 0.23504 0.74853 0.82163 0.0
C617 C 0.20058 0.77156 0.81105 0.0
C618 C 0.20168 0.74045 0.84181 0.0
C619 C 0.2004 0.80091 0.77863 0.0
N620 N 0.23414 0.77885 0.79167 0.0
C621 C 0.22288 0.79502 0.77594 0.0
C622 C 0.18918 0.78931 0.79649 0.0
Eu623 Eu 0.27252 0.7663 0.78717 0.0
N624 N 0.2569 0.74441 0.81893 0.0
C625 C 0.26885 0.72734 0.83282 0.0
C626 C 0.2365 0.71773 0.85269 0.0
C627 C 0.25888 0.7138 0.84981 0.0
H628 H 0.23119 0.80317 0.76075 0.0
H629 H 0.26849 0.70035 0.86075 0.0
H630 H 0.19318 0.73061 0.85496 0.0
H631 H 0.19173 0.81406 0.76648 0.0
H632 H 0.2861 0.72401 0.83119 0.0
H633 H 0.27948 0.87524 0.85546 0.0
H634 H 0.22882 0.70731 0.86603 0.0
H635 H 0.35323 0.76191 0.80279 0.0
H636 H 0.27741 0.83637 0.85654 0.0
H637 H 0.38564 0.77087 0.78111 0.0
H638 H 0.17243 0.76228 0.83067 0.0
H639 H 0.30824 0.88796 0.82809 0.0
H640 H 0.34199 0.87851 0.79896 0.0
H641 H 0.17173 0.79372 0.79832 0.0
H642 H 0.37096 0.85003 0.77874 0.0
N643 N 0.30439 0.82681 0.8293 0.0
C644 C 0.29015 0.84147 0.84452 0.0
C645 C 0.30738 0.87077 0.82838 0.0
C646 C 0.32286 0.85543 0.8143 0.0
C647 C 0.29118 0.86366 0.8439 0.0
C648 C 0.32105 0.83319 0.81532 0.0
H649 H 0.38769 0.80991 0.77278 0.0
N650 N 0.3358 0.79564 0.8065 0.0
C651 C 0.37208 0.78408 0.78715 0.0
C652 C 0.33726 0.81715 0.80369 0.0
C653 C 0.35335 0.7791 0.79949 0.0
C654 C 0.37316 0.80612 0.78243 0.0
C655 C 0.35583 0.82297 0.79113 0.0
O656 O 0.3023 0.7691 0.86338 0.0
O657 O 0.27448 0.77418 0.82679 0.0
O658 O 0.25929 0.80358 0.78578 0.0
O659 O 0.28049 0.81881 0.80891 0.0
O660 O 0.27016 0.80172 0.84824 0.0
O661 O 0.32438 0.79026 0.85616 0.0
O662 O 0.2626 0.76466 0.74971 0.0
O663 O 0.30337 0.77651 0.78956 0.0
O664 O 0.3214 0.75361 0.81952 0.0
O665 O 0.30273 0.73866 0.79322 0.0
O666 O 0.28918 0.78601 0.75667 0.0
O667 O 0.27729 0.73441 0.77004 0.0
C668 C 0.26078 0.78773 0.84067 0.0
C669 C 0.31197 0.78347 0.89868 0.0
C670 C 0.29822 0.8118 0.92942 0.0
C671 C 0.30149 0.8053 0.90436 0.0
C672 C 0.30533 0.79575 0.94876 0.0
C673 C 0.31871 0.76777 0.91823 0.0
C674 C 0.31532 0.77389 0.94316 0.0
C675 C 0.26444 0.82056 0.79473 0.0
C676 C 0.31663 0.77689 0.87247 0.0
C677 C 0.35699 0.84527 0.78868 0.0
C678 C 0.34051 0.86148 0.80021 0.0
C679 C 0.30557 0.78664 0.76825 0.0
C680 C 0.25122 0.73235 0.74287 0.0
C681 C 0.2574 0.71417 0.72746 0.0
C682 C 0.24178 0.70412 0.7201 0.0
C683 C 0.22 0.71229 0.72871 0.0
C684 C 0.22931 0.74036 0.75068 0.0
C685 C 0.21387 0.73028 0.74392 0.0
C686 C 0.31917 0.73704 0.8068 0.0
C687 C 0.26761 0.74307 0.75017 0.0
H688 H 0.29599 0.81714 0.88923 0.0
H689 H 0.30363 0.80009 0.96821 0.0
H690 H 0.32679 0.75083 0.91417 0.0
H691 H 0.32075 0.76173 0.95819 0.0
H692 H 0.27427 0.70799 0.72112 0.0
H693 H 0.20756 0.70526 0.72304 0.0
H694 H 0.22389 0.75462 0.76163 0.0
H695 H 0.19704 0.73671 0.7501 0.0
Eu696 Eu 0.28947 0.25932 0.77407 0.0
C697 C 0.28714 0.30173 0.87552 0.0
C698 C 0.25154 0.32628 0.88061 0.0
C699 C 0.26926 0.30911 0.91758 0.0
C700 C 0.26933 0.31502 0.86496 0.0
C701 C 0.2875 0.29909 0.90196 0.0
C702 C 0.25132 0.32272 0.90693 0.0
C703 C 0.32477 0.27899 0.89556 0.0
N704 N 0.30467 0.29261 0.85996 0.0
C705 C 0.32368 0.28223 0.86948 0.0
C706 C 0.30649 0.28716 0.91189 0.0
Eu707 Eu 0.30146 0.29866 0.81613 0.0
N708 N 0.27008 0.31829 0.83944 0.0
C709 C 0.25433 0.33383 0.82846 0.0
C710 C 0.23486 0.34145 0.86938 0.0
C711 C 0.23643 0.34548 0.84323 0.0
H712 H 0.33778 0.27583 0.85681 0.0
H713 H 0.2238 0.35748 0.8344 0.0
H714 H 0.23763 0.33096 0.91921 0.0
H715 H 0.33967 0.27021 0.90305 0.0
H716 H 0.25527 0.33708 0.80829 0.0
H717 H 0.37021 0.20743 0.75102 0.0
H718 H 0.22102 0.35055 0.88076 0.0
H719 H 0.25056 0.27994 0.73616 0.0
H720 H 0.33854 0.2248 0.77888 0.0
H721 H 0.24595 0.28462 0.69047 0.0
H722 H 0.26914 0.30706 0.93794 0.0
H723 H 0.37003 0.21361 0.70471 0.0
H724 H 0.34972 0.23015 0.66749 0.0
H725 H 0.30741 0.28475 0.93209 0.0
H726 H 0.31591 0.25106 0.65099 0.0
N727 N 0.32058 0.24134 0.7488 0.0
C728 C 0.3381 0.22768 0.75876 0.0
C729 C 0.35602 0.22133 0.71687 0.0
C730 C 0.33756 0.23428 0.70674 0.0
C731 C 0.35616 0.21777 0.74299 0.0
C732 C 0.3198 0.24405 0.72342 0.0
H733 H 0.27704 0.27111 0.6594 0.0
N734 N 0.28392 0.26437 0.73075 0.0
C735 C 0.26152 0.27663 0.69685 0.0
C736 C 0.30087 0.2559 0.71411 0.0
C737 C 0.26415 0.27391 0.72264 0.0
C738 C 0.27912 0.26901 0.67938 0.0
C739 C 0.29904 0.25823 0.68792 0.0
O740 O 0.26247 0.24433 0.77082 0.0
O741 O 0.27853 0.27922 0.80776 0.0
O742 O 0.30182 0.26611 0.83861 0.0
O743 O 0.30782 0.24099 0.80702 0.0
O744 O 0.25487 0.27768 0.7856 0.0
O745 O 0.29202 0.22423 0.78426 0.0
O746 O 0.32901 0.31183 0.82218 0.0
O747 O 0.31207 0.27929 0.7821 0.0
O748 O 0.28737 0.29187 0.75124 0.0
O749 O 0.28578 0.31753 0.78154 0.0
O750 O 0.33603 0.28053 0.80372 0.0
O751 O 0.30063 0.33371 0.80785 0.0
C752 C 0.25861 0.28532 0.80588 0.0
C753 C 0.27325 0.20705 0.75938 0.0
C754 C 0.25473 0.1818 0.74353 0.0
C755 C 0.25475 0.19878 0.7594 0.0
C756 C 0.27327 0.17352 0.72737 0.0
C757 C 0.29155 0.19854 0.74297 0.0
C758 C 0.29149 0.18194 0.72704 0.0
C759 C 0.30712 0.24563 0.83096 0.0
C760 C 0.27342 0.22432 0.77663 0.0
C761 C 0.31693 0.24927 0.67119 0.0
C762 C 0.33617 0.23735 0.68058 0.0
C763 C 0.33216 0.27374 0.78294 0.0
C764 C 0.3195 0.3488 0.83475 0.0
C765 C 0.33732 0.35828 0.83396 0.0
C766 C 0.33755 0.37424 0.85115 0.0
C767 C 0.31996 0.38003 0.8695 0.0
C768 C 0.30198 0.35535 0.85288 0.0
C769 C 0.30232 0.37067 0.87027 0.0
C770 C 0.28485 0.31242 0.75804 0.0
C771 C 0.31913 0.33232 0.81657 0.0
H772 H 0.2406 0.2052 0.77208 0.0
H773 H 0.2736 0.16063 0.71481 0.0
H774 H 0.30599 0.20454 0.74256 0.0
H775 H 0.30567 0.17549 0.71447 0.0
H776 H 0.3507 0.35361 0.81967 0.0
H777 H 0.31983 0.39182 0.88336 0.0
H778 H 0.28791 0.34883 0.85354 0.0
H779 H 0.28879 0.37542 0.88431 0.0
Eu780 Eu 0.77872 0.26698 0.77479 0.0
C781 C 0.80392 0.3515 0.8068 0.0
C782 C 0.82546 0.36255 0.77013 0.0
C783 C 0.80449 0.39033 0.79828 0.0
C784 C 0.81767 0.346 0.78526 0.0
C785 C 0.79757 0.37364 0.81388 0.0
C786 C 0.81846 0.38478 0.77648 0.0
C787 C 0.78 0.3608 0.85265 0.0
N788 N 0.79792 0.33494 0.82174 0.0
C789 C 0.78689 0.33908 0.84492 0.0
C790 C 0.78512 0.37821 0.83691 0.0
Eu791 Eu 0.80995 0.29862 0.80739 0.0
N792 N 0.82445 0.32431 0.77994 0.0
C793 C 0.84002 0.31789 0.76066 0.0
C794 C 0.84054 0.35618 0.7495 0.0
C795 C 0.84807 0.33372 0.74496 0.0
H796 H 0.7829 0.32559 0.85706 0.0
H797 H 0.86002 0.32857 0.72933 0.0
H798 H 0.82417 0.39774 0.765 0.0
H799 H 0.77079 0.3641 0.87073 0.0
H800 H 0.84595 0.30061 0.75688 0.0
H801 H 0.72779 0.24374 0.85643 0.0
H802 H 0.84683 0.3684 0.73734 0.0
H803 H 0.80433 0.23552 0.72767 0.0
H804 H 0.74179 0.26935 0.82523 0.0
H805 H 0.81618 0.19571 0.71874 0.0
H806 H 0.79965 0.40747 0.80329 0.0
H807 H 0.74177 0.2032 0.85395 0.0
H808 H 0.76525 0.17138 0.8305 0.0
H809 H 0.77991 0.39501 0.84302 0.0
H810 H 0.78964 0.15824 0.79315 0.0
N811 N 0.76395 0.24367 0.80544 0.0
C812 C 0.74806 0.25173 0.82381 0.0
C813 C 0.74804 0.21438 0.84019 0.0
C814 C 0.76349 0.2062 0.82053 0.0
C815 C 0.74005 0.23724 0.84159 0.0
C816 C 0.7712 0.22145 0.80316 0.0
H817 H 0.80828 0.1672 0.75106 0.0
N818 N 0.79058 0.2293 0.76483 0.0
C819 C 0.80755 0.20063 0.73673 0.0
C820 C 0.785 0.21403 0.78221 0.0
C821 C 0.80079 0.22308 0.74178 0.0
C822 C 0.80315 0.18458 0.75507 0.0
C823 C 0.79132 0.19121 0.77792 0.0
O824 O 0.76719 0.26672 0.73766 0.0
O825 O 0.7933 0.29585 0.77371 0.0
O826 O 0.77587 0.31979 0.80661 0.0
O827 O 0.75597 0.29536 0.79623 0.0
O828 O 0.79436 0.2824 0.73962 0.0
O829 O 0.74428 0.27573 0.76993 0.0
O830 O 0.82239 0.29489 0.84453 0.0
O831 O 0.7955 0.26975 0.80828 0.0
O832 O 0.81318 0.24687 0.77445 0.0
O833 O 0.83272 0.27213 0.78324 0.0
O834 O 0.79395 0.28332 0.84229 0.0
O835 O 0.84459 0.28899 0.81104 0.0
C836 C 0.79892 0.29817 0.75052 0.0
C837 C 0.7339 0.25635 0.73898 0.0
C838 C 0.70659 0.24856 0.71474 0.0
C839 C 0.7194 0.26286 0.72012 0.0
C840 C 0.70897 0.22769 0.72782 0.0
C841 C 0.73555 0.23551 0.75178 0.0
C842 C 0.72338 0.22124 0.74612 0.0
C843 C 0.75742 0.31478 0.80364 0.0
C844 C 0.74687 0.2712 0.74617 0.0
C845 C 0.78472 0.17587 0.79594 0.0
C846 C 0.7708 0.18336 0.81718 0.0
C847 C 0.78995 0.26722 0.83146 0.0
C848 C 0.85646 0.30304 0.84529 0.0
C849 C 0.87162 0.29285 0.86254 0.0
C850 C 0.8854 0.30483 0.87085 0.0
C851 C 0.88337 0.32712 0.86206 0.0
C852 C 0.85499 0.32524 0.8369 0.0
C853 C 0.86827 0.3372 0.84531 0.0
C854 C 0.83154 0.25236 0.77666 0.0
C855 C 0.84257 0.29054 0.83546 0.0
H856 H 0.71767 0.27903 0.71026 0.0
H857 H 0.69954 0.21635 0.72391 0.0
H858 H 0.74605 0.23032 0.76646 0.0
H859 H 0.72494 0.20519 0.7562 0.0
H860 H 0.87299 0.27564 0.869 0.0
H861 H 0.8934 0.33688 0.86833 0.0
H862 H 0.84367 0.33333 0.82368 0.0
H863 H 0.86691 0.35435 0.83871 0.0
Eu864 Eu 0.76932 0.7795 0.80813 0.0
C865 C 0.80197 0.79499 0.69468 0.0
C866 C 0.8286 0.7613 0.68418 0.0
C867 C 0.80761 0.78311 0.65172 0.0
C868 C 0.81747 0.77659 0.70201 0.0
C869 C 0.79726 0.79877 0.66932 0.0
C870 C 0.82323 0.76439 0.65915 0.0
C871 C 0.77408 0.83427 0.68011 0.0
N872 N 0.79249 0.80995 0.71205 0.0
C873 C 0.77938 0.82984 0.705 0.0
C874 C 0.78283 0.81854 0.66225 0.0
Eu875 Eu 0.80189 0.80108 0.75384 0.0
N876 N 0.82236 0.77415 0.72631 0.0
C877 C 0.83918 0.75763 0.73363 0.0
C878 C 0.8451 0.74365 0.69191 0.0
C879 C 0.85059 0.74198 0.71667 0.0
H880 H 0.77255 0.84196 0.71885 0.0
H881 H 0.86355 0.72859 0.72274 0.0
H882 H 0.83144 0.7527 0.64525 0.0
H883 H 0.76326 0.8498 0.67472 0.0
H884 H 0.84353 0.75607 0.75272 0.0
H885 H 0.71098 0.85571 0.83563 0.0
H886 H 0.85396 0.73149 0.67883 0.0
H887 H 0.79406 0.738 0.84614 0.0
H888 H 0.72905 0.82597 0.80755 0.0
H889 H 0.80324 0.73143 0.89037 0.0
H890 H 0.80405 0.7856 0.6322 0.0
H891 H 0.72143 0.85463 0.87896 0.0
H892 H 0.7434 0.83393 0.9133 0.0
H893 H 0.77878 0.82206 0.64295 0.0
H894 H 0.76867 0.80005 0.92825 0.0
N895 N 0.75001 0.80821 0.8344 0.0
C896 C 0.73376 0.8251 0.82641 0.0
C897 C 0.72942 0.84144 0.86671 0.0
C898 C 0.74513 0.8234 0.8753 0.0
C899 C 0.72344 0.84207 0.8423 0.0
C900 C 0.75511 0.80674 0.85854 0.0
H901 H 0.79078 0.76152 0.91997 0.0
N902 N 0.77743 0.77162 0.85061 0.0
C903 C 0.79382 0.74743 0.88398 0.0
C904 C 0.76939 0.78785 0.86689 0.0
C905 C 0.78857 0.75116 0.85903 0.0
C906 C 0.78682 0.76449 0.9006 0.0
C907 C 0.77402 0.78485 0.89229 0.0
O908 O 0.75969 0.74808 0.81589 0.0
O909 O 0.78745 0.77332 0.77037 0.0
O910 O 0.77071 0.7983 0.74005 0.0
O911 O 0.7486 0.79935 0.77791 0.0
O912 O 0.79041 0.74638 0.79612 0.0
O913 O 0.73556 0.77831 0.80932 0.0
O914 O 0.8104 0.83302 0.74599 0.0
O915 O 0.78452 0.80667 0.79187 0.0
O916 O 0.80176 0.77786 0.82141 0.0
O917 O 0.82346 0.782 0.78369 0.0
O918 O 0.78058 0.83393 0.7669 0.0
O919 O 0.83542 0.80329 0.75221 0.0
C920 C 0.79595 0.75287 0.77335 0.0
C921 C 0.72537 0.75077 0.83776 0.0
C922 C 0.70026 0.72869 0.85637 0.0
C923 C 0.71333 0.7351 0.83546 0.0
C924 C 0.69974 0.73806 0.8796 0.0
C925 C 0.72429 0.76006 0.86101 0.0
C926 C 0.71162 0.75366 0.88182 0.0
C927 C 0.7515 0.80091 0.75288 0.0
C928 C 0.73918 0.75719 0.81598 0.0
C929 C 0.76508 0.8019 0.90874 0.0
C930 C 0.75067 0.82117 0.90024 0.0
C931 C 0.7762 0.82717 0.78992 0.0
C932 C 0.84495 0.83211 0.72517 0.0
C933 C 0.85939 0.84471 0.72985 0.0
C934 C 0.87262 0.85222 0.70982 0.0
C935 C 0.87094 0.847 0.68509 0.0
C936 C 0.8438 0.82699 0.7004 0.0
C937 C 0.85669 0.83444 0.6805 0.0
C938 C 0.82064 0.77719 0.80836 0.0
C939 C 0.83106 0.82456 0.74615 0.0
H940 H 0.71395 0.72819 0.81735 0.0
H941 H 0.69028 0.73319 0.8962 0.0
H942 H 0.73323 0.77225 0.86311 0.0
H943 H 0.71102 0.76079 0.89975 0.0
H944 H 0.86046 0.8484 0.74907 0.0
H945 H 0.88045 0.85287 0.66916 0.0
H946 H 0.83291 0.81733 0.69641 0.0
H947 H 0.85556 0.83055 0.6614 0.0
C948 C 0.09958 0.0853 0.34731 0.0
C949 C 0.08487 0.08271 0.36817 0.0
C950 C 0.11224 0.10067 0.34708 0.0
C951 C 0.13115 0.13457 0.39026 0.0
H952 H 0.14805 0.16471 0.32759 0.0
C953 C 0.17128 0.20813 0.38695 0.0
C954 C 0.19074 0.20615 0.37134 0.0
C955 C 0.15812 0.19353 0.38561 0.0
C956 C 0.14352 0.15631 0.34519 0.0
H957 H 0.07136 0.0946 0.4048 0.0
H958 H 0.09271 0.12206 0.40414 0.0
H959 H 0.12504 0.13885 0.32729 0.0
H960 H 0.21113 0.18737 0.34149 0.0
H961 H 0.18761 0.16241 0.33861 0.0
H962 H 0.14914 0.15266 0.40815 0.0
C963 C 0.09515 0.11173 0.38824 0.0
C964 C 0.13041 0.14138 0.34506 0.0
C965 C 0.08278 0.09608 0.38862 0.0
C966 C 0.1962 0.18964 0.35363 0.0
C967 C 0.18279 0.17524 0.35203 0.0
C968 C 0.14392 0.14976 0.39042 0.0
C969 C 0.11026 0.1141 0.36758 0.0
C970 C 0.12406 0.13024 0.36761 0.0
C971 C 0.16382 0.17683 0.36832 0.0
C972 C 0.15026 0.16074 0.3679 0.0
H973 H 0.10171 0.07499 0.33143 0.0
H974 H 0.12392 0.10162 0.33103 0.0
H975 H 0.12712 0.12601 0.40793 0.0
H976 H 0.16617 0.22096 0.40034 0.0
H977 H 0.14339 0.19534 0.39812 0.0
C978 C 0.96816 0.07242 0.29379 0.0
C979 C 0.9878 0.07404 0.30174 0.0
C980 C 0.95046 0.09083 0.29384 0.0
C981 C 0.92978 0.14552 0.32283 0.0
H982 H 0.88809 0.15572 0.27347 0.0
C983 C 0.86553 0.22791 0.31175 0.0
C984 C 0.84442 0.22698 0.3083 0.0
C985 C 0.8823 0.20875 0.31167 0.0
C986 C 0.89948 0.15295 0.28756 0.0
H987 H 1.00449 0.09668 0.31479 0.0
H988 H 0.97409 0.1288 0.31404 0.0
H989 H 0.9191 0.12393 0.27046 0.0
H990 H 0.82463 0.20461 0.30199 0.0
H991 H 0.85402 0.17119 0.30156 0.0
H992 H 0.91039 0.17483 0.33954 0.0
C993 C 0.972 0.11317 0.30855 0.0
C994 C 0.91729 0.13469 0.28586 0.0
C995 C 0.98957 0.09475 0.30873 0.0
C996 C 0.84059 0.20612 0.30488 0.0
C997 C 0.85748 0.18692 0.30445 0.0
C998 C 0.91213 0.16385 0.32435 0.0
C999 C 0.952 0.1114 0.30167 0.0
C1000 C 0.9328 0.13076 0.3034 0.0
C1001 C 0.87857 0.18804 0.30776 0.0
C1002 C 0.8968 0.16788 0.30669 0.0
H1003 H 0.96615 0.0567 0.28845 0.0
H1004 H 0.93537 0.08866 0.2886 0.0
H1005 H 0.94096 0.14284 0.33711 0.0
H1006 H 0.86939 0.24348 0.31396 0.0
H1007 H 0.89838 0.21028 0.31395 0.0
C1008 C 0.97483 0.98039 0.34233 0.0
C1009 C 0.98566 0.9782 0.3642 0.0
C1010 C 0.95919 0.96853 0.34073 0.0
C1011 C 0.9229 0.9384 0.37966 0.0
H1012 H 0.92339 0.90942 0.31802 0.0
C1013 C 0.85763 0.8927 0.36654 0.0
C1014 C 0.86459 0.87178 0.35628 0.0
C1015 C 0.87161 0.90675 0.36589 0.0
C1016 C 0.9231 0.91733 0.33539 0.0
H1017 H 0.98798 0.96238 0.4018 0.0
H1018 H 0.96089 0.94157 0.39896 0.0
H1019 H 0.94917 0.93196 0.32069 0.0
H1020 H 0.89156 0.84951 0.33658 0.0
H1021 H 0.91609 0.87407 0.33547 0.0
H1022 H 0.89724 0.92339 0.39462 0.0
C1023 C 0.96441 0.95252 0.38306 0.0
C1024 C 0.93771 0.93046 0.33683 0.0
C1025 C 0.98009 0.96429 0.38463 0.0
C1026 C 0.88567 0.86558 0.34449 0.0
C1027 C 0.89971 0.87966 0.34387 0.0
C1028 C 0.90828 0.92535 0.3782 0.0
C1029 C 0.95392 0.95431 0.361 0.0
C1030 C 0.93787 0.94104 0.35906 0.0
C1031 C 0.89295 0.90026 0.35496 0.0
C1032 C 0.90824 0.91458 0.35609 0.0
H1033 H 0.97885 0.99074 0.32613 0.0
H1034 H 0.95124 0.97048 0.32357 0.0
H1035 H 0.92244 0.94648 0.39697 0.0
H1036 H 0.84135 0.89818 0.37529 0.0
H1037 H 0.86572 0.9227 0.37411 0.0
C1038 C 0.09397 0.97181 0.29693 0.0
C1039 C 0.09828 0.99286 0.29748 0.0
C1040 C 0.11083 0.95292 0.29294 0.0
C1041 C 0.16978 0.93495 0.27202 0.0
H1042 H 0.16652 0.88189 0.31424 0.0
C1043 C 0.24514 0.86683 0.29287 0.0
C1044 C 0.24444 0.84449 0.29218 0.0
C1045 C 0.22653 0.88385 0.29124 0.0
C1046 C 0.16758 0.89647 0.30208 0.0
H1047 H 0.12377 0.0105 0.29326 0.0
H1048 H 0.15293 0.97784 0.28673 0.0
H1049 H 0.13545 0.91362 0.31461 0.0
H1050 H 0.22347 0.8226 0.28903 0.0
H1051 H 0.19069 0.8525 0.2866 0.0
H1052 H 0.20216 0.91803 0.26018 0.0
C1053 C 0.13658 0.97579 0.28902 0.0
C1054 C 0.14972 0.91469 0.3022 0.0
C1055 C 0.11977 0.99463 0.2929 0.0
C1056 C 0.22455 0.83962 0.28978 0.0
C1057 C 0.20578 0.85672 0.28846 0.0
C1058 C 0.18765 0.91683 0.27207 0.0
C1059 C 0.13243 0.95458 0.28943 0.0
C1060 C 0.15068 0.93436 0.28749 0.0
C1061 C 0.20661 0.87907 0.289 0.0
C1062 C 0.18691 0.89751 0.28741 0.0
H1063 H 0.07763 0.96979 0.30037 0.0
H1064 H 0.10693 0.93696 0.29296 0.0
H1065 H 0.17105 0.94953 0.25997 0.0
H1066 H 0.26018 0.87131 0.29408 0.0
H1067 H 0.22775 0.90084 0.29193 0.0
C1068 C 0.11631 0.97048 0.73615 0.0
C1069 C 0.10348 0.98452 0.75416 0.0
C1070 C 0.13466 0.9547 0.74253 0.0
C1071 C 0.16205 0.92244 0.79573 0.0
H1072 H 0.21092 0.91246 0.74487 0.0
C1073 C 0.24215 0.8567 0.81038 0.0
C1074 C 0.2497 0.84258 0.79044 0.0
C1075 C 0.22562 0.87588 0.80742 0.0
C1076 C 0.19742 0.91499 0.75926 0.0
H1077 H 0.09979 0.99253 0.79334 0.0
H1078 H 0.13228 0.9648 0.8046 0.0
H1079 H 0.17945 0.94242 0.73787 0.0
H1080 H 0.24621 0.83765 0.75166 0.0
H1081 H 0.21769 0.87126 0.74626 0.0
H1082 H 0.1802 0.89477 0.81703 0.0
C1083 C 0.12791 0.96608 0.78546 0.0
C1084 C 0.1793 0.93215 0.75524 0.0
C1085 C 0.10931 0.98199 0.77903 0.0
C1086 C 0.24084 0.84834 0.76727 0.0
C1087 C 0.22454 0.86762 0.7642 0.0
C1088 C 0.18031 0.9053 0.79984 0.0
C1089 C 0.14098 0.95244 0.76712 0.0
C1090 C 0.16112 0.93576 0.77309 0.0
C1091 C 0.21647 0.88146 0.78435 0.0
C1092 C 0.19801 0.90106 0.78136 0.0
H1093 H 0.11225 0.97166 0.71688 0.0
H1094 H 0.14387 0.94413 0.72805 0.0
H1095 H 0.14835 0.92463 0.80984 0.0
H1096 H 0.24817 0.85234 0.82868 0.0
H1097 H 0.21981 0.8862 0.82329 0.0
C1098 C 0.12028 0.0767 0.72581 0.0
C1099 C 0.1005 0.08841 0.71741 0.0
C1100 C 0.13602 0.08781 0.72949 0.0
C1101 C 0.15247 0.14107 0.71396 0.0
H1102 H 0.18771 0.12005 0.76941 0.0
C1103 C 0.21507 0.18624 0.74117 0.0
C1104 C 0.23563 0.17239 0.74377 0.0
C1105 C 0.19747 0.17709 0.7394 0.0
C1106 C 0.17802 0.12608 0.75382 0.0
H1107 H 0.0817 0.121 0.70632 0.0
H1108 H 0.10897 0.14053 0.71316 0.0
H1109 H 0.1592 0.10211 0.76306 0.0
H1110 H 0.25376 0.13822 0.74755 0.0
H1111 H 0.22305 0.12227 0.74482 0.0
H1112 H 0.17131 0.16522 0.70499 0.0
C1113 C 0.11257 0.12266 0.71641 0.0
C1114 C 0.16174 0.11571 0.75005 0.0
C1115 C 0.0969 0.11148 0.71248 0.0
C1116 C 0.23811 0.14928 0.74539 0.0
C1117 C 0.22052 0.14016 0.74399 0.0
C1118 C 0.16863 0.1516 0.71792 0.0
C1119 C 0.13231 0.11099 0.72514 0.0
C1120 C 0.14895 0.12283 0.72982 0.0
C1121 C 0.20006 0.15394 0.74065 0.0
C1122 C 0.18177 0.14399 0.73767 0.0
H1123 H 0.12362 0.05888 0.72942 0.0
H1124 H 0.15118 0.07814 0.73561 0.0
H1125 H 0.14316 0.14689 0.69802 0.0
H1126 H 0.21275 0.20411 0.73975 0.0
H1127 H 0.18186 0.1881 0.73699 0.0
C1128 C 0.96924 0.08183 0.76498 0.0
C1129 C 0.99096 0.08076 0.76754 0.0
C1130 C 0.9533 0.10086 0.77087 0.0
C1131 C 0.94513 0.16067 0.76996 0.0
H1132 H 0.8891 0.15822 0.80364 0.0
C1133 C 0.87192 0.23816 0.77745 0.0
C1134 C 0.85163 0.23425 0.77485 0.0
C1135 C 0.89017 0.2204 0.77898 0.0
C1136 C 0.90458 0.15923 0.79396 0.0
H1137 H 1.01305 0.09858 0.77874 0.0
H1138 H 0.98502 0.13231 0.78871 0.0
H1139 H 0.91855 0.12511 0.80394 0.0
H1140 H 0.83503 0.20828 0.77186 0.0
H1141 H 0.86645 0.17797 0.77322 0.0
H1142 H 0.93089 0.19458 0.75904 0.0
C1143 C 0.98039 0.1182 0.78243 0.0
C1144 C 0.9215 0.14025 0.79432 0.0
C1145 C 0.99637 0.09885 0.77703 0.0
C1146 C 0.85027 0.21222 0.77323 0.0
C1147 C 0.86837 0.19462 0.77461 0.0
C1148 C 0.92808 0.17969 0.76939 0.0
C1149 C 0.95873 0.11952 0.77896 0.0
C1150 C 0.94184 0.14057 0.78184 0.0
C1151 C 0.88852 0.19833 0.77803 0.0
C1152 C 0.90741 0.17903 0.78081 0.0
H1153 H 0.96468 0.0682 0.75746 0.0
H1154 H 0.93683 0.10139 0.76777 0.0
H1155 H 0.96059 0.16139 0.75999 0.0
H1156 H 0.87364 0.25486 0.77899 0.0
H1157 H 0.90541 0.22392 0.78168 0.0
C1158 C 1.00529 0.96391 0.69979 0.0
C1159 C 1.00216 0.98066 0.71687 0.0
C1160 C 0.99161 0.9494 0.70174 0.0
C1161 C 0.93707 0.94449 0.72553 0.0
H1162 H 0.96092 0.88163 0.71784 0.0
C1163 C 0.88252 0.88217 0.73188 0.0
C1164 C 0.88808 0.86556 0.71434 0.0
C1165 C 0.89666 0.89551 0.73481 0.0
C1166 C 0.95393 0.89916 0.71976 0.0
H1167 H 0.98203 0.99541 0.74926 0.0
H1168 H 0.95798 0.97011 0.75259 0.0
H1169 H 0.985 0.90639 0.71751 0.0
H1170 H 0.91338 0.84946 0.68693 0.0
H1171 H 0.93753 0.87303 0.69136 0.0
H1172 H 0.906 0.93744 0.72702 0.0
C1173 C 0.9711 0.9682 0.73773 0.0
C1174 C 0.96778 0.91334 0.71964 0.0
C1175 C 0.98497 0.98257 0.73596 0.0
C1176 C 0.90835 0.86231 0.70032 0.0
C1177 C 0.9224 0.87567 0.70314 0.0
C1178 C 0.92319 0.93033 0.72542 0.0
C1179 C 0.9743 0.95142 0.72066 0.0
C1180 C 0.95952 0.93621 0.72224 0.0
C1181 C 0.91671 0.8926 0.72027 0.0
C1182 C 0.93143 0.90749 0.72222 0.0
H1183 H 1.01848 0.96188 0.68503 0.0
H1184 H 0.99438 0.93679 0.68815 0.0
H1185 H 0.9302 0.96206 0.72735 0.0
H1186 H 0.86701 0.88526 0.74291 0.0
H1187 H 0.89182 0.90817 0.74844 0.0
C1188 C 0.26506 0.13139 0.13712 0.0
C1189 C 0.27661 0.10921 0.13535 0.0
C1190 C 0.27123 0.14535 0.15253 0.0
C1191 C 0.29816 0.14562 0.20878 0.0
H1192 H 0.30218 0.20464 0.18277 0.0
C1193 C 0.31555 0.2085 0.27284 0.0
C1194 C 0.3031 0.23029 0.26979 0.0
C1195 C 0.31621 0.19298 0.25502 0.0
C1196 C 0.30097 0.18828 0.19042 0.0
H1197 H 0.30344 0.08414 0.14861 0.0
H1198 H 0.31399 0.1085 0.17608 0.0
H1199 H 0.29496 0.17891 0.1547 0.0
H1200 H 0.28105 0.25259 0.24608 0.0
H1201 H 0.28192 0.22594 0.21551 0.0
H1202 H 0.30309 0.15522 0.24476 0.0
C1203 C 0.3003 0.11508 0.16531 0.0
C1204 C 0.29691 0.17354 0.17429 0.0
C1205 C 0.29434 0.1012 0.14954 0.0
C1206 C 0.29131 0.23623 0.24869 0.0
C1207 C 0.29186 0.22081 0.23102 0.0
C1208 C 0.30193 0.16047 0.22503 0.0
C1209 C 0.28889 0.13734 0.16679 0.0
C1210 C 0.29507 0.15222 0.18341 0.0
C1211 C 0.30413 0.1989 0.23402 0.0
C1212 C 0.30293 0.18216 0.21617 0.0
H1213 H 0.25149 0.13807 0.12621 0.0
H1214 H 0.26203 0.16239 0.1535 0.0
H1215 H 0.29672 0.12929 0.21631 0.0
H1216 H 0.3246 0.20343 0.28912 0.0
H1217 H 0.32599 0.1763 0.25785 0.0
C1218 C 0.98412 0.31676 0.14783 0.0
C1219 C 0.98213 0.3292 0.12463 0.0
C1220 C 0.9659 0.31282 0.16266 0.0
C1221 C 0.90632 0.33222 0.17247 0.0
H1222 H 0.90932 0.27246 0.20142 0.0
C1223 C 0.83021 0.30359 0.2151 0.0
C1224 C 0.83175 0.29103 0.23816 0.0
C1225 C 0.84866 0.3082 0.20143 0.0
C1226 C 0.90825 0.2893 0.19372 0.0
H1227 H 0.95906 0.34748 0.09917 0.0
H1228 H 0.92749 0.34077 0.12499 0.0
H1229 H 0.94126 0.28157 0.17846 0.0
H1230 H 0.85399 0.27118 0.26343 0.0
H1231 H 0.88608 0.27937 0.23994 0.0
H1232 H 0.87327 0.33992 0.1877 0.0
C1233 C 0.94314 0.33423 0.13188 0.0
C1234 C 0.9266 0.29454 0.18058 0.0
C1235 C 0.96134 0.33812 0.11703 0.0
C1236 C 0.8522 0.2817 0.24629 0.0
C1237 C 0.87066 0.28614 0.23258 0.0
C1238 C 0.88797 0.32698 0.18563 0.0
C1239 C 0.94519 0.32129 0.15471 0.0
C1240 C 0.92585 0.31603 0.16966 0.0
C1241 C 0.86909 0.29981 0.21022 0.0
C1242 C 0.88866 0.30542 0.1963 0.0
H1243 H 0.99979 0.30992 0.15451 0.0
H1244 H 0.96804 0.30309 0.18036 0.0
H1245 H 0.90525 0.34902 0.16463 0.0
H1246 H 0.81465 0.31049 0.2081 0.0
H1247 H 0.84691 0.31835 0.18397 0.0
C1248 C 0.8471 0.936 0.08632 0.0
C1249 C 0.8352 0.93881 0.06531 0.0
C1250 C 0.84148 0.92357 0.10792 0.0
C1251 C 0.81017 0.88215 0.13105 0.0
H1252 H 0.80756 0.90734 0.19566 0.0
C1253 C 0.7738 0.84328 0.22073 0.0
C1254 C 0.78738 0.83825 0.24028 0.0
C1255 C 0.77765 0.858 0.20056 0.0
C1256 C 0.80827 0.90011 0.17775 0.0
H1257 H 0.80905 0.92977 0.04976 0.0
H1258 H 0.79909 0.90835 0.08739 0.0
H1259 H 0.82039 0.9262 0.15722 0.0
H1260 H 0.81422 0.84653 0.25542 0.0
H1261 H 0.82072 0.87231 0.22048 0.0
H1262 H 0.79814 0.85605 0.15151 0.0
C1263 C 0.81273 0.91568 0.08731 0.0
C1264 C 0.81575 0.9108 0.15578 0.0
C1265 C 0.81831 0.9281 0.06583 0.0
C1266 C 0.80345 0.84997 0.24062 0.0
C1267 C 0.80723 0.86475 0.22054 0.0
C1268 C 0.80265 0.87152 0.15296 0.0
C1269 C 0.82396 0.91364 0.10878 0.0
C1270 C 0.81679 0.90191 0.1322 0.0
C1271 C 0.79498 0.86814 0.1998 0.0
C1272 C 0.80162 0.88039 0.17654 0.0
H1273 H 0.86011 0.94417 0.08646 0.0
H1274 H 0.85064 0.922 0.12407 0.0
H1275 H 0.81106 0.87474 0.11321 0.0
H1276 H 0.76084 0.83508 0.22037 0.0
H1277 H 0.76759 0.86077 0.18508 0.0
C1278 C 0.10333 0.713 0.08546 0.0
C1279 C 0.0819 0.72546 0.08618 0.0
C1280 C 0.11694 0.7163 0.1026 0.0
C1281 C 0.11843 0.74013 0.16321 0.0
H1282 H 0.17587 0.74301 0.13452 0.0
C1283 C 0.18997 0.73281 0.22197 0.0
C1284 C 0.20609 0.74392 0.21279 0.0
C1285 C 0.17233 0.73426 0.20839 0.0
C1286 C 0.15979 0.74263 0.1428 0.0
H1287 H 0.05758 0.75008 0.10655 0.0
H1288 H 0.08146 0.75607 0.13628 0.0
H1289 H 0.15026 0.73679 0.10744 0.0
H1290 H 0.21552 0.76665 0.18321 0.0
H1291 H 0.18441 0.76962 0.15977 0.0
H1292 H 0.12806 0.74607 0.19863 0.0
C1293 C 0.08773 0.74378 0.12242 0.0
C1294 C 0.14523 0.73868 0.12733 0.0
C1295 C 0.0741 0.74048 0.10525 0.0
C1296 C 0.20336 0.7579 0.19078 0.0
C1297 C 0.18567 0.75939 0.17721 0.0
C1298 C 0.13306 0.74408 0.17874 0.0
C1299 C 0.10943 0.73212 0.12086 0.0
C1300 C 0.12451 0.73705 0.13741 0.0
C1301 C 0.17041 0.74691 0.18537 0.0
C1302 C 0.15399 0.74512 0.16874 0.0
H1303 H 0.10991 0.70139 0.07098 0.0
H1304 H 0.13349 0.70674 0.10124 0.0
H1305 H 0.10257 0.73895 0.17152 0.0
H1306 H 0.19148 0.7222 0.23913 0.0
H1307 H 0.16091 0.72439 0.2152 0.0
C1308 C 0.24901 0.00685 0.98464 0.0
C1309 C 0.24823 0.00655 0.01103 0.0
C1310 C 0.25003 0.98737 0.97275 0.0
C1311 C 0.24031 0.93154 0.98156 0.0
H1312 H 0.29242 0.91367 0.93673 0.0
C1313 C 0.27547 0.84041 0.95822 0.0
C1314 C 0.28816 0.83533 0.9353 0.0
C1315 C 0.26745 0.8624 0.96462 0.0
C1316 C 0.27749 0.91848 0.94865 0.0
H1317 H 0.24663 0.98629 0.04577 0.0
H1318 H 0.24773 0.95234 0.02505 0.0
H1319 H 0.28279 0.95063 0.95261 0.0
H1320 H 0.30159 0.84988 0.90072 0.0
H1321 H 0.28647 0.88804 0.91111 0.0
H1322 H 0.23479 0.89958 0.97757 0.0
C1323 C 0.24777 0.96752 0.01356 0.0
C1324 C 0.27205 0.9397 0.95783 0.0
C1325 C 0.24723 0.98684 0.02539 0.0
C1326 C 0.29174 0.85297 0.91845 0.0
C1327 C 0.28334 0.87499 0.92464 0.0
C1328 C 0.24551 0.91045 0.97199 0.0
C1329 C 0.24978 0.96746 0.98712 0.0
C1330 C 0.25369 0.94622 0.97481 0.0
C1331 C 0.27148 0.88004 0.94807 0.0
C1332 C 0.26449 0.90339 0.95591 0.0
H1333 H 0.25002 0.02182 0.97321 0.0
H1334 H 0.25158 0.9877 0.95232 0.0
H1335 H 0.22599 0.93628 0.99452 0.0
H1336 H 0.2719 0.82738 0.97148 0.0
H1337 H 0.25863 0.86545 0.98296 0.0
C1338 C 0.11283 0.33662 0.97569 0.0
C1339 C 0.11413 0.32153 0.9968 0.0
C1340 C 0.12815 0.33264 0.95477 0.0
C1341 C 0.17201 0.28747 0.92595 0.0
H1342 H 0.18697 0.33679 0.88486 0.0
C1343 C 0.24593 0.27881 0.85128 0.0
C1344 C 0.24193 0.28942 0.82745 0.0
C1345 C 0.22999 0.28239 0.87156 0.0
C1346 C 0.18288 0.32288 0.89615 0.0
H1347 H 0.13276 0.29085 0.01303 0.0
H1348 H 0.16011 0.28433 0.97729 0.0
H1349 H 0.16065 0.34405 0.92153 0.0
H1350 H 0.21782 0.31086 0.80564 0.0
H1351 H 0.18999 0.31773 0.84144 0.0
H1352 H 0.1951 0.26639 0.90097 0.0
C1353 C 0.14684 0.29882 0.97617 0.0
C1354 C 0.16764 0.32699 0.91711 0.0
C1355 C 0.13125 0.30258 0.99681 0.0
C1356 C 0.2214 0.30291 0.82399 0.0
C1357 C 0.20556 0.30685 0.84442 0.0
C1358 C 0.1876 0.28339 0.90533 0.0
C1359 C 0.14545 0.31367 0.95468 0.0
C1360 C 0.16188 0.30934 0.93233 0.0
C1361 C 0.20975 0.29669 0.86841 0.0
C1362 C 0.19313 0.30105 0.89019 0.0
H1363 H 0.09964 0.35123 0.97513 0.0
H1364 H 0.12614 0.34429 0.93852 0.0
H1365 H 0.16776 0.27337 0.93666 0.0
H1366 H 0.26138 0.26775 0.85428 0.0
H1367 H 0.23362 0.27433 0.88985 0.0
C1368 C 0.82001 0.08879 0.9544 0.0
C1369 C 0.83289 0.07129 0.94051 0.0
C1370 C 0.81529 0.11041 0.94371 0.0
C1371 C 0.81246 0.14074 0.88163 0.0
H1372 H 0.80815 0.19211 0.92005 0.0
C1373 C 0.80785 0.22701 0.83446 0.0
C1374 C 0.79286 0.24515 0.84486 0.0
C1375 C 0.81149 0.20622 0.84705 0.0
C1376 C 0.80898 0.17791 0.90924 0.0
H1377 H 0.85177 0.06296 0.90495 0.0
H1378 H 0.84408 0.10092 0.88643 0.0
H1379 H 0.8187 0.15488 0.94019 0.0
H1380 H 0.77111 0.25624 0.87766 0.0
H1381 H 0.77747 0.2194 0.90014 0.0
H1382 H 0.80335 0.16368 0.85055 0.0
C1383 C 0.83717 0.09776 0.90542 0.0
C1384 C 0.81509 0.1566 0.92071 0.0
C1385 C 0.84181 0.07606 0.9161 0.0
C1386 C 0.78233 0.24233 0.86895 0.0
C1387 C 0.78605 0.22137 0.88178 0.0
C1388 C 0.80653 0.16197 0.87017 0.0
C1389 C 0.82349 0.11509 0.91894 0.0
C1390 C 0.81708 0.13778 0.90694 0.0
C1391 C 0.80054 0.20309 0.87074 0.0
C1392 C 0.80492 0.18077 0.88377 0.0
H1393 H 0.81327 0.08576 0.97347 0.0
H1394 H 0.80465 0.12331 0.95462 0.0
H1395 H 0.81331 0.12664 0.87066 0.0
H1396 H 0.81708 0.22876 0.81671 0.0
H1397 H 0.82324 0.19264 0.83838 0.0
C1398 C 0.96505 0.76522 0.94446 0.0
C1399 C 0.97441 0.74357 0.95353 0.0
C1400 C 0.94839 0.76903 0.92871 0.0
C1401 C 0.90422 0.74818 0.91257 0.0
H1402 H 0.91294 0.77562 0.84561 0.0
C1403 C 0.84332 0.7535 0.83977 0.0
C1404 C 0.83964 0.77205 0.8227 0.0
C1405 C 0.86021 0.74974 0.85514 0.0
C1406 C 0.90997 0.76831 0.86436 0.0
H1407 H 0.97336 0.70908 0.95399 0.0
H1408 H 0.94359 0.71583 0.92716 0.0
H1409 H 0.94058 0.7707 0.87471 0.0
H1410 H 0.85054 0.80123 0.80798 0.0
H1411 H 0.87948 0.79539 0.83548 0.0
H1412 H 0.87336 0.74652 0.90299 0.0
C1413 C 0.9494 0.72975 0.93194 0.0
C1414 C 0.92591 0.76539 0.88096 0.0
C1415 C 0.9664 0.72589 0.94717 0.0
C1416 C 0.8533 0.78664 0.82086 0.0
C1417 C 0.86992 0.78319 0.83662 0.0
C1418 C 0.88806 0.75153 0.89622 0.0
C1419 C 0.94047 0.75131 0.92229 0.0
C1420 C 0.92323 0.75515 0.90511 0.0
C1421 C 0.87352 0.76478 0.85419 0.0
C1422 C 0.89074 0.76146 0.87175 0.0
H1423 H 0.97111 0.77907 0.94891 0.0
H1424 H 0.94168 0.7858 0.92153 0.0
H1425 H 0.90175 0.74039 0.93121 0.0
H1426 H 0.83319 0.74183 0.84117 0.0
H1427 H 0.86275 0.73502 0.86777 0.0
C1428 C 0.10528 0.29443 0.13882 0.0
C1429 C 0.11091 0.27961 0.11932 0.0
C1430 C 0.12003 0.29509 0.1561 0.0
C1431 C 0.17937 0.27753 0.16368 0.0
H1432 H 0.16086 0.2976 0.23107 0.0
C1433 C 0.21852 0.28729 0.2623 0.0
C1434 C 0.23789 0.29236 0.25152 0.0
C1435 C 0.20251 0.2857 0.24712 0.0
C1436 C 0.16646 0.29169 0.21244 0.0
H1437 H 0.13618 0.25306 0.10363 0.0
H1438 H 0.16136 0.25332 0.13428 0.0
H1439 H 0.13431 0.2931 0.20421 0.0
H1440 H 0.25509 0.29997 0.21598 0.0
H1441 H 0.22712 0.29861 0.18995 0.0
H1442 H 0.21153 0.27503 0.17222 0.0
C1443 C 0.14592 0.26518 0.13579 0.0
C1444 C 0.15107 0.28942 0.19675 0.0
C1445 C 0.13132 0.2648 0.11827 0.0
C1446 C 0.24046 0.2963 0.22517 0.0
C1447 C 0.22438 0.29509 0.21006 0.0
C1448 C 0.19473 0.27947 0.17946 0.0
C1449 C 0.14078 0.28071 0.15466 0.0
C1450 C 0.15722 0.28243 0.17198 0.0
C1451 C 0.20525 0.28936 0.22065 0.0
C1452 C 0.1886 0.28682 0.20406 0.0
H1453 H 0.08979 0.30624 0.1401 0.0
H1454 H 0.11533 0.30752 0.16998 0.0
H1455 H 0.18499 0.27247 0.14472 0.0
H1456 H 0.21592 0.28386 0.28247 0.0
H1457 H 0.18827 0.28095 0.25619 0.0
C1458 C 0.08344 0.77803 0.95664 0.0
C1459 C 0.08211 0.78312 0.98207 0.0
C1460 C 0.10195 0.77894 0.94006 0.0
C1461 C 0.16044 0.77806 0.94122 0.0
H1462 H 0.1584 0.79494 0.86992 0.0
C1463 C 0.2389 0.76887 0.87317 0.0
C1464 C 0.23972 0.78522 0.85358 0.0
C1465 C 0.21941 0.76821 0.88771 0.0
C1466 C 0.15932 0.79031 0.88983 0.0
H1467 H 0.09913 0.79415 0.00942 0.0
H1468 H 0.13075 0.79628 0.98071 0.0
H1469 H 0.12493 0.79572 0.89692 0.0
H1470 H 0.22115 0.81489 0.83533 0.0
H1471 H 0.18707 0.81379 0.86044 0.0
H1472 H 0.19467 0.77315 0.9344 0.0
C1473 C 0.11785 0.79096 0.97356 0.0
C1474 C 0.14004 0.79051 0.90534 0.0
C1475 C 0.09948 0.78996 0.99008 0.0
C1476 C 0.2208 0.80153 0.84961 0.0
C1477 C 0.20125 0.80086 0.86405 0.0
C1478 C 0.17965 0.77785 0.92576 0.0
C1479 C 0.11968 0.785 0.94838 0.0
C1480 C 0.14023 0.78453 0.93139 0.0
C1481 C 0.20021 0.78423 0.88347 0.0
C1482 C 0.17949 0.78404 0.8998 0.0
H1483 H 0.07054 0.77251 0.94975 0.0
H1484 H 0.10262 0.7741 0.92093 0.0
H1485 H 0.16153 0.77292 0.96098 0.0
H1486 H 0.25344 0.75669 0.87744 0.0
H1487 H 0.21945 0.75505 0.90229 0.0
C1488 C 0.30475 0.12193 0.0157 0.0
C1489 C 0.30763 0.09897 0.01412 0.0
C1490 C 0.3103 0.13517 0.99488 0.0
C1491 C 0.31477 0.1377 0.92578 0.0
H1492 H 0.33524 0.19024 0.93321 0.0
C1493 C 0.31974 0.20488 0.84371 0.0
C1494 C 0.31158 0.22697 0.85044 0.0
C1495 C 0.32309 0.18739 0.86231 0.0
C1496 C 0.32945 0.17567 0.93079 0.0
H1497 H 0.31934 0.0717 0.98962 0.0
H1498 H 0.32911 0.095 0.95284 0.0
H1499 H 0.33568 0.16246 0.96822 0.0
H1500 H 0.29996 0.24769 0.88221 0.0
H1501 H 0.30613 0.21754 0.91432 0.0
H1502 H 0.30803 0.1513 0.8885 0.0
C1503 C 0.3225 0.10271 0.97036 0.0
C1504 C 0.32974 0.15971 0.95087 0.0
C1505 C 0.31715 0.08932 0.99146 0.0
C1506 C 0.30686 0.23106 0.87621 0.0
C1507 C 0.31036 0.21368 0.89472 0.0
C1508 C 0.31452 0.1537 0.90561 0.0
C1509 C 0.31872 0.12589 0.97171 0.0
C1510 C 0.32182 0.14083 0.94893 0.0
C1511 C 0.31847 0.1916 0.88808 0.0
C1512 C 0.32128 0.1732 0.90814 0.0
H1513 H 0.29739 0.12987 0.03289 0.0
H1514 H 0.30688 0.15293 0.99665 0.0
H1515 H 0.30836 0.12348 0.92366 0.0
H1516 H 0.32347 0.20105 0.82406 0.0
H1517 H 0.3294 0.17059 0.85653 0.0
C1518 C 1.00227 0.26289 0.04497 0.0
C1519 C 1.02128 0.27032 0.03862 0.0
C1520 C 0.98864 0.26206 0.02653 0.0
C1521 C 0.98499 0.26532 0.95665 0.0
H1522 H 0.92386 0.28649 0.97582 0.0
C1523 C 0.92294 0.29826 0.88371 0.0
C1524 C 0.90204 0.29471 0.88856 0.0
C1525 C 0.93795 0.29153 0.90155 0.0
C1526 C 0.94082 0.28017 0.97017 0.0
H1527 H 0.04119 0.2818 0.00741 0.0
H1528 H 1.01745 0.28055 0.97538 0.0
H1529 H 0.94927 0.28162 0.00751 0.0
H1530 H 0.88087 0.28046 0.91575 0.0
H1531 H 0.90719 0.26852 0.94705 0.0
H1532 H 0.97649 0.26446 0.91913 0.0
C1533 C 1.0131 0.27511 0.99461 0.0
C1534 C 0.95549 0.27735 0.98842 0.0
C1535 C 0.02679 0.27586 0.01306 0.0
C1536 C 0.89684 0.28337 0.91138 0.0
C1537 C 0.91187 0.27676 0.92941 0.0
C1538 C 0.97032 0.26821 0.93838 0.0
C1539 C 0.99354 0.26871 1.00115 0.0
C1540 C 0.97784 0.27015 0.98191 0.0
C1541 C 0.93253 0.28109 0.9249 0.0
C1542 C 0.94803 0.27598 0.94479 0.0
H1543 H 0.99749 0.2584 0.06441 0.0
H1544 H 0.97402 0.25655 0.03231 0.0
H1545 H 1.00198 0.25935 0.95089 0.0
H1546 H 0.92754 0.30681 0.86624 0.0
H1547 H 0.95356 0.29536 0.89739 0.0
C1548 C 0.80637 0.93554 0.95464 0.0
C1549 C 0.79717 0.95844 0.95391 0.0
C1550 C 0.80039 0.92195 0.93875 0.0
C1551 C 0.76151 0.91754 0.89439 0.0
H1552 H 0.81167 0.87642 0.86413 0.0
C1553 C 0.76212 0.86413 0.80871 0.0
C1554 C 0.77435 0.84213 0.81059 0.0
C1555 C 0.76211 0.87887 0.8272 0.0
C1556 C 0.79744 0.8876 0.87258 0.0
H1557 H 0.77353 0.98499 0.93706 0.0
H1558 H 0.76326 0.96109 0.9085 0.0
H1559 H 0.81611 0.9012 0.8947 0.0
H1560 H 0.79655 0.81849 0.83295 0.0
H1561 H 0.79631 0.84382 0.86518 0.0
H1562 H 0.74294 0.90379 0.87167 0.0
C1563 C 0.77497 0.95367 0.92169 0.0
C1564 C 0.79997 0.90183 0.89017 0.0
C1565 C 0.78081 0.96734 0.938 0.0
C1566 C 0.78658 0.83515 0.83121 0.0
C1567 C 0.78662 0.84978 0.84957 0.0
C1568 C 0.75896 0.90322 0.87657 0.0
C1569 C 0.78532 0.93094 0.92129 0.0
C1570 C 0.78205 0.91672 0.90167 0.0
C1571 C 0.77472 0.87192 0.84758 0.0
C1572 C 0.77692 0.88786 0.86579 0.0
H1573 H 0.8188 0.92819 0.96701 0.0
H1574 H 0.8082 0.90443 0.93954 0.0
H1575 H 0.74739 0.92883 0.90287 0.0
H1576 H 0.7528 0.86999 0.79278 0.0
H1577 H 0.75294 0.89588 0.82504 0.0
C1578 C 0.96287 0.78309 0.07698 0.0
C1579 C 0.98039 0.76442 0.07714 0.0
C1580 C 0.94615 0.78577 0.09696 0.0
C1581 C 0.92319 0.75158 0.14959 0.0
H1582 H 0.89148 0.80809 0.17472 0.0
C1583 C 0.86959 0.75691 0.24443 0.0
C1584 C 0.84913 0.77158 0.24556 0.0
C1585 C 0.88447 0.75722 0.22313 0.0
C1586 C 0.90005 0.79217 0.16778 0.0
H1587 H 0.99466 0.7348 0.09924 0.0
H1588 H 0.96657 0.7398 0.1339 0.0
H1589 H 0.91958 0.80702 0.13942 0.0
H1590 H 0.82892 0.79934 0.22583 0.0
H1591 H 0.85498 0.80003 0.18861 0.0
H1592 H 0.90402 0.7367 0.17807 0.0
C1593 C 0.96493 0.75201 0.11814 0.0
C1594 C 0.9162 0.79154 0.14744 0.0
C1595 C 0.9813 0.74925 0.09826 0.0
C1596 C 0.84433 0.7874 0.22529 0.0
C1597 C 0.85937 0.78793 0.20404 0.0
C1598 C 0.90727 0.75221 0.16993 0.0
C1599 C 0.94668 0.76989 0.11761 0.0
C1600 C 0.92835 0.77117 0.13827 0.0
C1601 C 0.8796 0.77265 0.20251 0.0
C1602 C 0.89565 0.77245 0.17965 0.0
H1603 H 0.96154 0.795 0.06092 0.0
H1604 H 0.93246 0.79981 0.09572 0.0
H1605 H 0.93149 0.73555 0.14274 0.0
H1606 H 0.87399 0.74491 0.25996 0.0
H1607 H 0.89997 0.74546 0.22294 0.0
C1608 C 0.31253 0.98357 0.11859 0.0
C1609 C 0.29272 0.99193 0.10842 0.0
C1610 C 0.31627 0.96332 0.13317 0.0
C1611 C 0.2851 0.92613 0.17032 0.0
H1612 H 0.34039 0.88401 0.17197 0.0
C1613 C 0.29611 0.85027 0.24103 0.0
C1614 C 0.30963 0.83014 0.23339 0.0
C1615 C 0.2956 0.86995 0.22624 0.0
C1616 C 0.32477 0.8955 0.17157 0.0
H1617 H 0.26203 0.98495 0.10385 0.0
H1618 H 0.26876 0.94967 0.12802 0.0
H1619 H 0.33705 0.91774 0.14422 0.0
H1620 H 0.33231 0.81458 0.20338 0.0
H1621 H 0.33112 0.84889 0.177 0.0
H1622 H 0.2725 0.90379 0.19667 0.0
C1623 C 0.28112 0.95894 0.12594 0.0
C1624 C 0.32292 0.91502 0.15587 0.0
C1625 C 0.27731 0.97915 0.11186 0.0
C1626 C 0.32208 0.82997 0.21002 0.0
C1627 C 0.3215 0.84969 0.19503 0.0
C1628 C 0.28688 0.90666 0.18574 0.0
C1629 C 0.30033 0.95101 0.13755 0.0
C1630 C 0.30297 0.93051 0.15483 0.0
C1631 C 0.3082 0.86999 0.20292 0.0
C1632 C 0.3067 0.89097 0.1866 0.0
H1633 H 0.32468 0.99312 0.11625 0.0
H1634 H 0.33126 0.95778 0.14178 0.0
H1635 H 0.26954 0.93781 0.17059 0.0
H1636 H 0.28597 0.85094 0.25857 0.0
H1637 H 0.28539 0.88518 0.2333 0.0
C1638 C 0.81843 0.05081 0.06919 0.0
C1639 C 0.80357 0.0487 0.05271 0.0
C1640 C 0.81274 0.06642 0.08748 0.0
C1641 C 0.77668 0.11956 0.1032 0.0
H1642 H 0.79457 0.10185 0.17034 0.0
C1643 C 0.77652 0.18264 0.17799 0.0
C1644 C 0.76792 0.17753 0.20249 0.0
C1645 C 0.78034 0.1671 0.15942 0.0
C1646 C 0.78936 0.10708 0.15173 0.0
H1647 H 0.77096 0.06137 0.04258 0.0
H1648 H 0.76092 0.08913 0.07484 0.0
H1649 H 0.80044 0.07418 0.13903 0.0
H1650 H 0.75732 0.15196 0.227 0.0
H1651 H 0.76406 0.12496 0.19485 0.0
H1652 H 0.76565 0.15257 0.11607 0.0
C1653 C 0.77703 0.0785 0.0734 0.0
C1654 C 0.79282 0.09124 0.13376 0.0
C1655 C 0.78269 0.06255 0.05511 0.0
C1656 C 0.76384 0.15642 0.20823 0.0
C1657 C 0.7678 0.1409 0.18984 0.0
C1658 C 0.77335 0.13552 0.12121 0.0
C1659 C 0.79206 0.08054 0.08978 0.0
C1660 C 0.78666 0.09728 0.10924 0.0
C1661 C 0.7759 0.14609 0.16515 0.0
C1662 C 0.7797 0.12943 0.14568 0.0
H1663 H 0.83465 0.04041 0.06794 0.0
H1664 H 0.82477 0.06772 0.09957 0.0
H1665 H 0.77195 0.12474 0.08439 0.0
H1666 H 0.7797 0.19884 0.17303 0.0
H1667 H 0.78681 0.17148 0.14061 0.0
C1668 C 0.58087 0.60158 0.87877 0.0
C1669 C 0.58636 0.58293 0.86411 0.0
C1670 C 0.59349 0.61713 0.87611 0.0
C1671 C 0.64772 0.62466 0.8552 0.0
H1672 H 0.61893 0.68714 0.85114 0.0
C1673 C 0.69529 0.6935 0.84014 0.0
C1674 C 0.68711 0.71236 0.85424 0.0
C1675 C 0.68316 0.67774 0.83929 0.0
C1676 C 0.62726 0.66978 0.85253 0.0
H1677 H 0.60969 0.56574 0.83558 0.0
H1678 H 0.63189 0.5929 0.83104 0.0
H1679 H 0.59776 0.65935 0.85435 0.0
H1680 H 0.65938 0.72974 0.87775 0.0
H1681 H 0.63868 0.70211 0.87698 0.0
H1682 H 0.6772 0.63505 0.85404 0.0
C1683 C 0.61775 0.59548 0.84452 0.0
C1684 C 0.6151 0.65386 0.85431 0.0
C1685 C 0.60497 0.58002 0.84699 0.0
C1686 C 0.66637 0.71526 0.86703 0.0
C1687 C 0.65432 0.69951 0.86628 0.0
C1688 C 0.65991 0.64061 0.85364 0.0
C1689 C 0.61202 0.61431 0.85889 0.0
C1690 C 0.62516 0.63113 0.85592 0.0
C1691 C 0.66256 0.68047 0.85252 0.0
C1692 C 0.64981 0.66341 0.85257 0.0
H1693 H 0.56654 0.60444 0.89193 0.0
H1694 H 0.58878 0.63136 0.88764 0.0
H1695 H 0.65592 0.60726 0.85659 0.0
H1696 H 0.71126 0.69063 0.8302 0.0
H1697 H 0.68993 0.66343 0.82824 0.0
C1698 C 0.47171 0.57105 0.78422 0.0
C1699 C 0.48832 0.57213 0.79878 0.0
C1700 C 0.45311 0.58845 0.78352 0.0
C1701 C 0.42122 0.63406 0.82189 0.0
H1702 H 0.39362 0.65707 0.76112 0.0
C1703 C 0.35442 0.71465 0.82074 0.0
C1704 C 0.33719 0.71672 0.80595 0.0
C1705 C 0.37208 0.69637 0.81921 0.0
C1706 C 0.40092 0.65064 0.77835 0.0
H1707 H 0.49862 0.59295 0.82317 0.0
H1708 H 0.46645 0.62304 0.82186 0.0
H1709 H 0.42614 0.6268 0.75884 0.0
H1710 H 0.32508 0.70074 0.77808 0.0
H1711 H 0.35579 0.66849 0.77579 0.0
H1712 H 0.39611 0.65753 0.84155 0.0
C1713 C 0.4676 0.60864 0.81126 0.0
C1714 C 0.41962 0.63331 0.77701 0.0
C1715 C 0.48617 0.59139 0.81185 0.0
C1716 C 0.33801 0.69973 0.7898 0.0
C1717 C 0.35575 0.68131 0.78831 0.0
C1718 C 0.40252 0.65121 0.82327 0.0
C1719 C 0.45062 0.60725 0.79752 0.0
C1720 C 0.4302 0.62503 0.79873 0.0
C1721 C 0.37307 0.6794 0.80299 0.0
C1722 C 0.39224 0.66003 0.80149 0.0
H1723 H 0.47277 0.55649 0.77394 0.0
H1724 H 0.44033 0.58681 0.77277 0.0
H1725 H 0.42862 0.62777 0.83911 0.0
H1726 H 0.35449 0.72732 0.83343 0.0
H1727 H 0.38519 0.69582 0.83049 0.0
C1728 C 0.48185 0.47327 0.84001 0.0
C1729 C 0.48866 0.47585 0.86346 0.0
C1730 C 0.46649 0.4611 0.83844 0.0
C1731 C 0.42225 0.44217 0.87605 0.0
H1732 H 0.42818 0.40226 0.82228 0.0
C1733 C 0.35165 0.40799 0.85398 0.0
C1734 C 0.35578 0.3852 0.85012 0.0
C1735 C 0.36853 0.4182 0.85504 0.0
C1736 C 0.42638 0.41323 0.83749 0.0
H1737 H 0.48462 0.46765 0.90363 0.0
H1738 H 0.4578 0.44633 0.90093 0.0
H1739 H 0.45671 0.42126 0.82589 0.0
H1740 H 0.38101 0.35545 0.8435 0.0
H1741 H 0.41066 0.37344 0.84508 0.0
H1742 H 0.39199 0.43418 0.8877 0.0
C1743 C 0.46431 0.45383 0.88376 0.0
C1744 C 0.4426 0.42426 0.83943 0.0
C1745 C 0.47978 0.46589 0.8853 0.0
C1746 C 0.37729 0.37304 0.84636 0.0
C1747 C 0.39426 0.38333 0.84732 0.0
C1748 C 0.40599 0.43128 0.87402 0.0
C1749 C 0.45748 0.4513 0.8603 0.0
C1750 C 0.44066 0.43895 0.85866 0.0
C1751 C 0.39002 0.40595 0.85212 0.0
C1752 C 0.40778 0.41682 0.85461 0.0
H1753 H 0.48858 0.48041 0.82276 0.0
H1754 H 0.46143 0.45965 0.82012 0.0
H1755 H 0.42017 0.4535 0.89096 0.0
H1756 H 0.33529 0.41798 0.85632 0.0
H1757 H 0.36474 0.43576 0.85816 0.0
C1758 C 0.60505 0.48005 0.80375 0.0
C1759 C 0.58493 0.47564 0.80146 0.0
C1760 C 0.62388 0.46293 0.80267 0.0
C1761 C 0.64147 0.4019 0.81335 0.0
H1762 H 0.6965 0.4097 0.78154 0.0
C1763 C 0.71712 0.32864 0.80385 0.0
C1764 C 0.73734 0.33285 0.80603 0.0
C1765 C 0.69858 0.34604 0.80343 0.0
C1766 C 0.68133 0.40729 0.79083 0.0
H1767 H 0.56915 0.44983 0.79492 0.0
H1768 H 0.60189 0.42021 0.79274 0.0
H1769 H 0.66451 0.44013 0.77908 0.0
H1770 H 0.7536 0.35898 0.80966 0.0
H1771 H 0.72138 0.38901 0.80977 0.0
H1772 H 0.65823 0.36919 0.82533 0.0
C1773 C 0.60309 0.4368 0.79587 0.0
C1774 C 0.66294 0.42477 0.78934 0.0
C1775 C 0.5843 0.45388 0.79689 0.0
C1776 C 0.73837 0.35492 0.80832 0.0
C1777 C 0.71985 0.37229 0.80797 0.0
C1778 C 0.65985 0.38447 0.81491 0.0
C1779 C 0.62307 0.44096 0.79934 0.0
C1780 C 0.64273 0.42231 0.80054 0.0
C1781 C 0.6997 0.36817 0.80519 0.0
C1782 C 0.68007 0.38687 0.80368 0.0
H1783 H 0.60617 0.49657 0.80738 0.0
H1784 H 0.63895 0.46678 0.80552 0.0
H1785 H 0.62628 0.39951 0.82264 0.0
H1786 H 0.71563 0.31192 0.80189 0.0
H1787 H 0.68344 0.34216 0.80099 0.0
C1788 C 0.62018 0.4835 0.22968 0.0
C1789 C 0.60355 0.49181 0.24833 0.0
C1790 C 0.63792 0.46671 0.23564 0.0
C1791 C 0.67035 0.43749 0.28577 0.0
H1792 H 0.68427 0.38954 0.24019 0.0
C1793 C 0.74945 0.36658 0.284 0.0
C1794 C 0.74688 0.34501 0.28173 0.0
C1795 C 0.73207 0.38512 0.28159 0.0
C1796 C 0.68059 0.40272 0.25318 0.0
H1797 H 0.59315 0.48957 0.28827 0.0
H1798 H 0.62457 0.45986 0.29882 0.0
H1799 H 0.65363 0.42061 0.23398 0.0
H1800 H 0.72348 0.3264 0.27658 0.0
H1801 H 0.69377 0.35829 0.27157 0.0
H1802 H 0.69755 0.41933 0.30493 0.0
C1803 C 0.62361 0.46654 0.27949 0.0
C1804 C 0.66309 0.42062 0.24952 0.0
C1805 C 0.60563 0.48347 0.27346 0.0
C1806 C 0.72648 0.34259 0.27728 0.0
C1807 C 0.70926 0.36098 0.27474 0.0
C1808 C 0.68811 0.41956 0.28931 0.0
C1809 C 0.63969 0.45766 0.26046 0.0
C1810 C 0.65779 0.43828 0.26565 0.0
C1811 C 0.71181 0.3825 0.27673 0.0
C1812 C 0.69338 0.40195 0.27304 0.0
H1813 H 0.6194 0.48968 0.21016 0.0
H1814 H 0.65021 0.46057 0.22064 0.0
H1815 H 0.66671 0.45091 0.29842 0.0
H1816 H 0.76485 0.36917 0.2876 0.0
H1817 H 0.73459 0.40152 0.28309 0.0
C1818 C 0.61554 0.58338 0.21256 0.0
C1819 C 0.59495 0.59391 0.20559 0.0
C1820 C 0.63092 0.59559 0.2139 0.0
C1821 C 0.64318 0.65066 0.19452 0.0
H1822 H 0.68437 0.63189 0.2444 0.0
C1823 C 0.7028 0.70204 0.21577 0.0
C1824 C 0.72445 0.69015 0.21409 0.0
C1825 C 0.68631 0.69095 0.21579 0.0
C1826 C 0.67296 0.63728 0.23037 0.0
H1827 H 0.57414 0.62548 0.19487 0.0
H1828 H 0.60059 0.64703 0.19804 0.0
H1829 H 0.65677 0.61154 0.24233 0.0
H1830 H 0.74585 0.65743 0.21194 0.0
H1831 H 0.717 0.63798 0.21268 0.0
H1832 H 0.65923 0.67681 0.18316 0.0
C1833 C 0.60525 0.62923 0.20171 0.0
C1834 C 0.65722 0.62553 0.229 0.0
C1835 C 0.59001 0.61691 0.19994 0.0
C1836 C 0.72928 0.66696 0.21314 0.0
C1837 C 0.71281 0.65585 0.21368 0.0
C1838 C 0.6587 0.66264 0.19623 0.0
C1839 C 0.62595 0.61876 0.20876 0.0
C1840 C 0.64225 0.63185 0.21082 0.0
C1841 C 0.69118 0.66775 0.2147 0.0
C1842 C 0.67388 0.65591 0.21397 0.0
H1843 H 0.61981 0.56562 0.21674 0.0
H1844 H 0.64677 0.58676 0.21877 0.0
H1845 H 0.63225 0.6559 0.18 0.0
H1846 H 0.6987 0.71994 0.21642 0.0
H1847 H 0.66974 0.70047 0.2167 0.0
C1848 C 0.47146 0.59518 0.24557 0.0
C1849 C 0.49014 0.58714 0.25816 0.0
C1850 C 0.45786 0.61584 0.2504 0.0
C1851 C 0.43836 0.65942 0.29372 0.0
H1852 H 0.42868 0.69717 0.23253 0.0
C1853 C 0.37931 0.74673 0.29423 0.0
C1854 C 0.36544 0.75133 0.2749 0.0
C1855 C 0.39714 0.72847 0.29334 0.0
C1856 C 0.43105 0.68686 0.24981 0.0
H1857 H 0.50835 0.594 0.28705 0.0
H1858 H 0.48397 0.63033 0.29598 0.0
H1859 H 0.45387 0.66099 0.23062 0.0
H1860 H 0.36025 0.74135 0.2387 0.0
H1861 H 0.39081 0.70948 0.23728 0.0
H1862 H 0.41469 0.68487 0.31275 0.0
C1863 C 0.48021 0.62049 0.28211 0.0
C1864 C 0.44559 0.66617 0.24871 0.0
C1865 C 0.49408 0.5997 0.27706 0.0
C1866 C 0.37044 0.73806 0.25406 0.0
C1867 C 0.38817 0.71987 0.25315 0.0
C1868 C 0.42353 0.68013 0.2948 0.0
C1869 C 0.46239 0.62902 0.26814 0.0
C1870 C 0.44902 0.652 0.2705 0.0
C1871 C 0.40156 0.71452 0.27299 0.0
C1872 C 0.41929 0.69388 0.27271 0.0
H1873 H 0.46771 0.58589 0.23112 0.0
H1874 H 0.44402 0.62182 0.23971 0.0
H1875 H 0.44069 0.64878 0.31077 0.0
H1876 H 0.37584 0.7566 0.31062 0.0
H1877 H 0.40724 0.72506 0.30879 0.0
C1878 C 0.48312 0.48378 0.23524 0.0
C1879 C 0.50078 0.48102 0.21673 0.0
C1880 C 0.46938 0.46921 0.2377 0.0
C1881 C 0.45375 0.4277 0.20179 0.0
H1882 H 0.42823 0.40977 0.267 0.0
C1883 C 0.41204 0.3555 0.21332 0.0
C1884 C 0.3915 0.3591 0.22677 0.0
C1885 C 0.42499 0.37044 0.21383 0.0
C1886 C 0.43511 0.41478 0.24866 0.0
H1887 H 0.51837 0.4602 0.18709 0.0
H1888 H 0.49491 0.43462 0.19165 0.0
H1889 H 0.45168 0.43562 0.26448 0.0
H1890 H 0.36898 0.38092 0.2523 0.0
H1891 H 0.39193 0.4069 0.25354 0.0
H1892 H 0.43756 0.40657 0.18603 0.0
C1893 C 0.49111 0.44842 0.20378 0.0
C1894 C 0.44852 0.42965 0.24717 0.0
C1895 C 0.50467 0.46308 0.20117 0.0
C1896 C 0.38472 0.37755 0.24179 0.0
C1897 C 0.39783 0.39247 0.24246 0.0
C1898 C 0.44057 0.41274 0.20331 0.0
C1899 C 0.47309 0.45141 0.22184 0.0
C1900 C 0.4582 0.43615 0.2237 0.0
C1901 C 0.41791 0.38932 0.22801 0.0
C1902 C 0.43125 0.40592 0.22675 0.0
H1903 H 0.4796 0.49754 0.24738 0.0
H1904 H 0.45558 0.47223 0.25165 0.0
H1905 H 0.46035 0.43272 0.18331 0.0
H1906 H 0.41809 0.34118 0.20211 0.0
H1907 H 0.44058 0.36726 0.20294 0.0
C1908 C 0.82657 0.59055 0.6512 0.0
C1909 C 0.81957 0.59346 0.62686 0.0
C1910 C 0.82765 0.60887 0.66411 0.0
C1911 C 0.80049 0.66684 0.66943 0.0
H1912 H 0.84718 0.67021 0.70771 0.0
C1913 C 0.79298 0.74125 0.73026 0.0
C1914 C 0.80219 0.73691 0.7533 0.0
C1915 C 0.79757 0.72509 0.71241 0.0
C1916 C 0.83385 0.66946 0.6974 0.0
H1917 H 0.80915 0.61792 0.5966 0.0
H1918 H 0.81071 0.64981 0.61935 0.0
H1919 H 0.8513 0.639 0.68124 0.0
H1920 H 0.82257 0.71205 0.77628 0.0
H1921 H 0.82994 0.68353 0.74579 0.0
H1922 H 0.78248 0.69642 0.68638 0.0
C1923 C 0.81539 0.63334 0.62836 0.0
C1924 C 0.83632 0.65161 0.6821 0.0
C1925 C 0.81464 0.61502 0.6153 0.0
C1926 C 0.81567 0.71597 0.75838 0.0
C1927 C 0.82002 0.69969 0.74074 0.0
C1928 C 0.79785 0.68444 0.68503 0.0
C1929 C 0.82145 0.6305 0.6531 0.0
C1930 C 0.8196 0.65006 0.66809 0.0
C1931 C 0.81094 0.70392 0.71752 0.0
C1932 C 0.81441 0.68594 0.69947 0.0
H1933 H 0.83049 0.57418 0.66063 0.0
H1934 H 0.8323 0.6062 0.6832 0.0
H1935 H 0.7872 0.66591 0.6591 0.0
H1936 H 0.78201 0.75701 0.72613 0.0
H1937 H 0.79048 0.72921 0.69467 0.0
C1938 C 0.49063 0.76645 0.66053 0.0
C1939 C 0.49228 0.77449 0.63514 0.0
C1940 C 0.47051 0.7686 0.67467 0.0
C1941 C 0.41144 0.79775 0.67445 0.0
H1942 H 0.40534 0.75312 0.7279 0.0
C1943 C 0.3323 0.80559 0.74287 0.0
C1944 C 0.32675 0.78608 0.7534 0.0
C1945 C 0.35212 0.80471 0.72822 0.0
C1946 C 0.40647 0.76567 0.71287 0.0
H1947 H 0.47362 0.7911 0.60484 0.0
H1948 H 0.43854 0.79423 0.62904 0.0
H1949 H 0.43953 0.75016 0.70278 0.0
H1950 H 0.33687 0.75027 0.75513 0.0
H1951 H 0.3709 0.74852 0.72935 0.0
H1952 H 0.37799 0.81265 0.68388 0.0
C1953 C 0.45284 0.78673 0.63843 0.0
C1954 C 0.42646 0.76419 0.69858 0.0
C1955 C 0.47306 0.78486 0.62437 0.0
C1956 C 0.34099 0.76563 0.74798 0.0
C1957 C 0.36065 0.7647 0.73317 0.0
C1958 C 0.39133 0.79909 0.68858 0.0
C1959 C 0.45113 0.77858 0.66389 0.0
C1960 C 0.42944 0.78022 0.67909 0.0
C1961 C 0.36681 0.78421 0.72324 0.0
C1962 C 0.38841 0.78304 0.70808 0.0
H1963 H 0.505 0.75876 0.66971 0.0
H1964 H 0.47029 0.7626 0.69427 0.0
H1965 H 0.41283 0.81071 0.66 0.0
H1966 H 0.32146 0.82158 0.74638 0.0
H1967 H 0.35606 0.8202 0.72131 0.0
C1968 C 0.33544 0.43551 0.58278 0.0
C1969 C 0.31889 0.45246 0.57342 0.0
C1970 C 0.33102 0.42116 0.60324 0.0
C1971 C 0.28998 0.41536 0.65687 0.0
H1972 H 0.31908 0.35306 0.65579 0.0
C1973 C 0.28424 0.35202 0.74266 0.0
C1974 C 0.28423 0.33022 0.73748 0.0
C1975 C 0.28723 0.3677 0.72299 0.0
C1976 C 0.31062 0.37037 0.65633 0.0
H1977 H 0.28465 0.46772 0.57892 0.0
H1978 H 0.27694 0.44248 0.61394 0.0
H1979 H 0.32693 0.37853 0.62101 0.0
H1980 H 0.28665 0.30833 0.70715 0.0
H1981 H 0.29109 0.33559 0.67325 0.0
H1982 H 0.2733 0.40702 0.69199 0.0
C1983 C 0.29341 0.44039 0.60566 0.0
C1984 C 0.31538 0.38507 0.6365 0.0
C1985 C 0.29782 0.45473 0.58524 0.0
C1986 C 0.28636 0.32488 0.71208 0.0
C1987 C 0.28927 0.34051 0.6925 0.0
C1988 C 0.2852 0.40063 0.67674 0.0
C1989 C 0.30993 0.42336 0.61493 0.0
C1990 C 0.30509 0.40778 0.63642 0.0
C1991 C 0.29029 0.36198 0.69765 0.0
C1992 C 0.29537 0.37789 0.67667 0.0
H1993 H 0.35181 0.43311 0.57415 0.0
H1994 H 0.34423 0.40843 0.61001 0.0
H1995 H 0.28192 0.43277 0.65765 0.0
H1996 H 0.28277 0.35679 0.76193 0.0
H1997 H 0.28802 0.38404 0.72772 0.0
C1998 C 0.56099 0.24411 0.59012 0.0
C1999 C 0.56339 0.24797 0.56375 0.0
C2000 C 0.57741 0.245 0.60482 0.0
C2001 C 0.63543 0.24418 0.60364 0.0
H2002 H 0.61607 0.27609 0.66452 0.0
C2003 C 0.6957 0.259 0.67054 0.0
C2004 C 0.69005 0.25482 0.69635 0.0
C2005 C 0.68066 0.26048 0.65287 0.0
C2006 C 0.62182 0.26698 0.64771 0.0
H2007 H 0.58566 0.25463 0.53212 0.0
H2008 H 0.61444 0.25594 0.55784 0.0
H2009 H 0.58988 0.2721 0.63684 0.0
H2010 H 0.6641 0.24991 0.72399 0.0
H2011 H 0.63804 0.2526 0.6936 0.0
H2012 H 0.66741 0.23876 0.61485 0.0
C2013 C 0.59975 0.25228 0.56712 0.0
C2014 C 0.60674 0.26464 0.63181 0.0
C2015 C 0.58323 0.25146 0.55235 0.0
C2016 C 0.66886 0.25327 0.70423 0.0
C2017 C 0.65389 0.25487 0.68673 0.0
C2018 C 0.65057 0.24644 0.61966 0.0
C2019 C 0.59679 0.24972 0.59362 0.0
C2020 C 0.61326 0.25289 0.60977 0.0
C2021 C 0.65964 0.25802 0.66072 0.0
C2022 C 0.64393 0.25756 0.64217 0.0
H2023 H 0.54603 0.24126 0.59961 0.0
H2024 H 0.57474 0.24241 0.62511 0.0
H2025 H 0.64104 0.235 0.58685 0.0
H2026 H 0.712 0.26001 0.66393 0.0
H2027 H 0.68562 0.26317 0.63304 0.0
C2028 C 0.81287 0.51021 0.515 0.0
C2029 C 0.82715 0.50743 0.53376 0.0
C2030 C 0.81438 0.49356 0.4985 0.0
C2031 C 0.83592 0.43292 0.49299 0.0
H2032 H 0.81528 0.44697 0.4267 0.0
C2033 C 0.83141 0.36623 0.42467 0.0
C2034 C 0.81059 0.36872 0.4174 0.0
C2035 C 0.83649 0.38317 0.43673 0.0
C2036 C 0.82116 0.44281 0.44514 0.0
H2037 H 0.85495 0.48525 0.54896 0.0
H2038 H 0.85812 0.45639 0.51946 0.0
H2039 H 0.81998 0.47663 0.45094 0.0
H2040 H 0.779 0.39094 0.41622 0.0
H2041 H 0.78807 0.42084 0.43655 0.0
H2042 H 0.83727 0.39896 0.48677 0.0
C2043 C 0.84531 0.47127 0.51801 0.0
C2044 C 0.82373 0.45981 0.45917 0.0
C2045 C 0.84364 0.48792 0.5348 0.0
C2046 C 0.79516 0.38866 0.42167 0.0
C2047 C 0.80037 0.40575 0.43318 0.0
C2048 C 0.83372 0.41586 0.47872 0.0
C2049 C 0.83041 0.47367 0.49993 0.0
C2050 C 0.83055 0.45522 0.48363 0.0
C2051 C 0.82098 0.40306 0.44115 0.0
C2052 C 0.8258 0.42073 0.45493 0.0
H2053 H 0.79988 0.52495 0.51362 0.0
H2054 H 0.80231 0.49602 0.48528 0.0
H2055 H 0.84094 0.42864 0.5118 0.0
H2056 H 0.84352 0.35093 0.42171 0.0
H2057 H 0.8525 0.38073 0.44266 0.0
C2058 C 0.63614 0.75374 0.48818 0.0
C2059 C 0.61901 0.77203 0.49413 0.0
C2060 C 0.65213 0.75541 0.46836 0.0
C2061 C 0.67354 0.79727 0.42334 0.0
H2062 H 0.70255 0.74471 0.38793 0.0
C2063 C 0.72538 0.79938 0.32631 0.0
C2064 C 0.74581 0.78462 0.3243 0.0
C2065 C 0.71065 0.79816 0.34763 0.0
C2066 C 0.69471 0.75953 0.39773 0.0
H2067 H 0.60525 0.80641 0.48341 0.0
H2068 H 0.63235 0.8092 0.44834 0.0
H2069 H 0.67549 0.74212 0.42303 0.0
H2070 H 0.76616 0.75601 0.34251 0.0
H2071 H 0.7403 0.75346 0.37934 0.0
H2072 H 0.69235 0.81472 0.39701 0.0
C2073 C 0.63409 0.79364 0.45944 0.0
C2074 C 0.67916 0.75807 0.41813 0.0
C2075 C 0.61834 0.79206 0.47961 0.0
C2076 C 0.75078 0.76796 0.34367 0.0
C2077 C 0.73588 0.76641 0.36474 0.0
C2078 C 0.68879 0.79878 0.40261 0.0
C2079 C 0.65136 0.77533 0.45335 0.0
C2080 C 0.66823 0.77691 0.43144 0.0
C2081 C 0.71563 0.78159 0.36711 0.0
C2082 C 0.69961 0.77993 0.3895 0.0
H2083 H 0.63735 0.73813 0.49914 0.0
H2084 H 0.66523 0.74098 0.46507 0.0
H2085 H 0.66611 0.81217 0.43313 0.0
H2086 H 0.7209 0.81211 0.31148 0.0
H2087 H 0.69515 0.80995 0.34864 0.0
C2088 C 0.33758 0.58745 0.4217 0.0
C2089 C 0.32387 0.58279 0.44279 0.0
C2090 C 0.33508 0.60907 0.41076 0.0
C2091 C 0.29557 0.66364 0.40654 0.0
H2092 H 0.34619 0.68527 0.38207 0.0
C2093 C 0.28968 0.75469 0.36762 0.0
C2094 C 0.30274 0.7574 0.34529 0.0
C2095 C 0.29247 0.73396 0.38098 0.0
C2096 C 0.33186 0.67946 0.38861 0.0
H2097 H 0.29702 0.59759 0.46917 0.0
H2098 H 0.2927 0.63515 0.45016 0.0
H2099 H 0.35041 0.64799 0.40192 0.0
H2100 H 0.33019 0.74118 0.32066 0.0
H2101 H 0.33498 0.70521 0.34361 0.0
H2102 H 0.27704 0.69514 0.39315 0.0
C2103 C 0.30515 0.62201 0.44176 0.0
C2104 C 0.33429 0.65801 0.39997 0.0
C2105 C 0.30764 0.60039 0.45269 0.0
C2106 C 0.31948 0.73944 0.33744 0.0
C2107 C 0.3224 0.71885 0.35083 0.0
C2108 C 0.29315 0.68512 0.39519 0.0
C2109 C 0.31883 0.62666 0.42064 0.0
C2110 C 0.31619 0.64973 0.40895 0.0
C2111 C 0.30874 0.71569 0.37257 0.0
C2112 C 0.31126 0.69326 0.38589 0.0
H2113 H 0.35006 0.57432 0.41335 0.0
H2114 H 0.34571 0.61191 0.39428 0.0
H2115 H 0.28125 0.65777 0.41292 0.0
H2116 H 0.27696 0.76844 0.37434 0.0
H2117 H 0.28189 0.73224 0.39789 0.0
C2118 C 0.46667 0.23856 0.4732 0.0
C2119 C 0.47959 0.25402 0.46981 0.0
C2120 C 0.45119 0.23886 0.45652 0.0
C2121 C 0.43301 0.26264 0.39328 0.0
H2122 H 0.37918 0.24931 0.42173 0.0
C2123 C 0.36418 0.26225 0.33084 0.0
C2124 C 0.34283 0.26985 0.34138 0.0
C2125 C 0.38151 0.25905 0.34574 0.0
C2126 C 0.39401 0.25331 0.41339 0.0
H2127 H 0.48641 0.28176 0.44574 0.0
H2128 H 0.45927 0.28263 0.41718 0.0
H2129 H 0.40785 0.24644 0.44861 0.0
H2130 H 0.3232 0.28082 0.3758 0.0
H2131 H 0.35305 0.27563 0.40138 0.0
H2132 H 0.41874 0.27044 0.35826 0.0
C2133 C 0.4613 0.26991 0.4324 0.0
C2134 C 0.4107 0.2513 0.42884 0.0
C2135 C 0.47688 0.26948 0.44894 0.0
C2136 C 0.33933 0.27444 0.36707 0.0
C2137 C 0.35658 0.27139 0.38186 0.0
C2138 C 0.41622 0.2648 0.37784 0.0
C2139 C 0.448 0.25476 0.43604 0.0
C2140 C 0.43047 0.25606 0.41912 0.0
C2141 C 0.37798 0.26354 0.37154 0.0
C2142 C 0.39636 0.26035 0.38768 0.0
H2143 H 0.46832 0.22633 0.48895 0.0
H2144 H 0.44168 0.22659 0.4598 0.0
H2145 H 0.44801 0.26616 0.38485 0.0
H2146 H 0.36752 0.25855 0.31113 0.0
H2147 H 0.39767 0.25277 0.33705 0.0
C2148 C 0.58403 0.8196 0.65275 0.0
C2149 C 0.5877 0.81641 0.62673 0.0
C2150 C 0.60092 0.82081 0.66655 0.0
C2151 C 0.65722 0.82801 0.65999 0.0
H2152 H 0.65986 0.79572 0.72528 0.0
C2153 C 0.7345 0.80369 0.71224 0.0
C2154 C 0.73224 0.80537 0.73856 0.0
C2155 C 0.71638 0.8071 0.69886 0.0
C2156 C 0.65924 0.80507 0.70725 0.0
H2157 H 0.61195 0.81276 0.59468 0.0
H2158 H 0.64137 0.81457 0.61871 0.0
H2159 H 0.62908 0.79849 0.70153 0.0
H2160 H 0.70897 0.81208 0.77136 0.0
H2161 H 0.67741 0.81795 0.748 0.0
H2162 H 0.68769 0.83414 0.66558 0.0
C2163 C 0.6254 0.81641 0.62848 0.0
C2164 C 0.64154 0.80671 0.69361 0.0
C2165 C 0.6085 0.81528 0.61468 0.0
C2166 C 0.71137 0.81062 0.75112 0.0
C2167 C 0.69325 0.8139 0.73774 0.0
C2168 C 0.67499 0.82628 0.67361 0.0
C2169 C 0.62193 0.81879 0.65469 0.0
C2170 C 0.64033 0.81809 0.66972 0.0
C2171 C 0.69552 0.81208 0.71146 0.0
C2172 C 0.67628 0.81468 0.69734 0.0
H2173 H 0.56819 0.82064 0.66264 0.0
H2174 H 0.59754 0.82308 0.6866 0.0
H2175 H 0.65672 0.83718 0.64185 0.0
H2176 H 0.75028 0.79926 0.70196 0.0
H2177 H 0.71874 0.80523 0.67869 0.0
C2178 C 0.59238 0.31836 0.43331 0.0
C2179 C 0.58886 0.30476 0.45494 0.0
C2180 C 0.61311 0.31655 0.42116 0.0
C2181 C 0.66731 0.27842 0.41395 0.0
H2182 H 0.68454 0.33193 0.3873 0.0
C2183 C 0.75377 0.27956 0.36723 0.0
C2184 C 0.75433 0.29276 0.34463 0.0
C2185 C 0.7342 0.28019 0.38209 0.0
C2186 C 0.67993 0.3168 0.39448 0.0
H2187 H 0.60465 0.27891 0.48103 0.0
H2188 H 0.64075 0.27578 0.45985 0.0
H2189 H 0.64923 0.33475 0.41035 0.0
H2190 H 0.73518 0.31866 0.32171 0.0
H2191 H 0.70129 0.31912 0.34635 0.0
H2192 H 0.69815 0.26053 0.39788 0.0
C2193 C 0.6274 0.28759 0.45203 0.0
C2194 C 0.65965 0.31842 0.40766 0.0
C2195 C 0.60666 0.2894 0.46419 0.0
C2196 C 0.73522 0.30738 0.33801 0.0
C2197 C 0.71575 0.30796 0.35256 0.0
C2198 C 0.68768 0.27681 0.40075 0.0
C2199 C 0.63089 0.30113 0.43034 0.0
C2200 C 0.65294 0.29927 0.41729 0.0
C2201 C 0.71496 0.29449 0.37488 0.0
C2202 C 0.69408 0.29598 0.39054 0.0
H2203 H 0.57906 0.33012 0.42542 0.0
H2204 H 0.61514 0.327 0.40426 0.0
H2205 H 0.66259 0.26331 0.42094 0.0
H2206 H 0.76851 0.26902 0.37354 0.0
H2207 H 0.73418 0.26989 0.39944 0.0
C2208 C 0.75096 0.62192 0.4896 0.0
C2209 C 0.76235 0.62225 0.51047 0.0
C2210 C 0.75552 0.63348 0.46686 0.0
C2211 C 0.80022 0.65273 0.43169 0.0
H2212 H 0.75707 0.68956 0.39136 0.0
C2213 C 0.8197 0.71348 0.35023 0.0
C2214 C 0.80652 0.71844 0.33029 0.0
C2215 C 0.81545 0.69895 0.37042 0.0
C2216 C 0.76934 0.67895 0.40212 0.0
H2217 H 0.78605 0.63643 0.52455 0.0
H2218 H 0.7941 0.65642 0.4849 0.0
H2219 H 0.74582 0.67131 0.43096 0.0
H2220 H 0.78013 0.70994 0.31441 0.0
H2221 H 0.77334 0.68395 0.34903 0.0
H2222 H 0.82376 0.66023 0.40295 0.0
C2223 C 0.78201 0.64685 0.48594 0.0
C2224 C 0.76285 0.66864 0.42487 0.0
C2225 C 0.77737 0.63547 0.50862 0.0
C2226 C 0.7905 0.70671 0.3296 0.0
C2227 C 0.78637 0.69203 0.34964 0.0
C2228 C 0.80671 0.66286 0.40886 0.0
C2229 C 0.77159 0.64546 0.46465 0.0
C2230 C 0.77825 0.65571 0.44003 0.0
C2231 C 0.79816 0.68876 0.3708 0.0
C2232 C 0.79136 0.67633 0.39395 0.0
H2233 H 0.7394 0.61179 0.49037 0.0
H2234 H 0.74723 0.63218 0.45069 0.0
H2235 H 0.81242 0.64249 0.44283 0.0
H2236 H 0.83263 0.72165 0.35087 0.0
H2237 H 0.82495 0.69675 0.38634 0.0
C2238 C 0.5219 0.84255 0.4925 0.0
C2239 C 0.51877 0.8362 0.51825 0.0
C2240 C 0.50548 0.84435 0.4768 0.0
C2241 C 0.47738 0.8256 0.44716 0.0
H2242 H 0.41635 0.84031 0.46926 0.0
C2243 C 0.41802 0.78652 0.40512 0.0
C2244 C 0.39721 0.79944 0.40178 0.0
C2245 C 0.43211 0.79461 0.41775 0.0
C2246 C 0.43329 0.8364 0.46256 0.0
H2247 H 0.49524 0.82907 0.54818 0.0
H2248 H 0.46697 0.83175 0.52094 0.0
H2249 H 0.44141 0.85145 0.49351 0.0
H2250 H 0.37479 0.83092 0.4096 0.0
H2251 H 0.3996 0.84529 0.43091 0.0
H2252 H 0.46929 0.81069 0.41614 0.0
C2253 C 0.48195 0.83546 0.51271 0.0
C2254 C 0.4477 0.84261 0.47662 0.0
C2255 C 0.49828 0.83377 0.52837 0.0
C2256 C 0.39081 0.82063 0.41151 0.0
C2257 C 0.40496 0.82878 0.42401 0.0
C2258 C 0.46297 0.81955 0.43301 0.0
C2259 C 0.48566 0.8398 0.48655 0.0
C2260 C 0.46999 0.83675 0.46948 0.0
C2261 C 0.42581 0.8159 0.42724 0.0
C2262 C 0.44082 0.82433 0.44091 0.0
H2263 H 0.53743 0.84475 0.48413 0.0
H2264 H 0.50869 0.84826 0.45682 0.0
H2265 H 0.49442 0.82056 0.44117 0.0
H2266 H 0.42357 0.77024 0.39766 0.0
H2267 H 0.4479 0.78405 0.4203 0.0
C2268 C 0.30818 0.46324 0.4243 0.0
C2269 C 0.29433 0.47197 0.44516 0.0
C2270 C 0.30321 0.44763 0.41025 0.0
C2271 C 0.26055 0.42182 0.39542 0.0
H2272 H 0.30968 0.3733 0.37886 0.0
C2273 C 0.28656 0.3314 0.34583 0.0
C2274 C 0.27553 0.33683 0.32409 0.0
C2275 C 0.28543 0.34731 0.36313 0.0
C2276 C 0.29565 0.38648 0.38359 0.0
H2277 H 0.26378 0.472 0.46689 0.0
H2278 H 0.25511 0.44424 0.44227 0.0
H2279 H 0.31383 0.40247 0.40372 0.0
H2280 H 0.25486 0.3633 0.30323 0.0
H2281 H 0.25342 0.39152 0.33311 0.0
H2282 H 0.24237 0.40548 0.37525 0.0
C2283 C 0.26981 0.44968 0.43682 0.0
C2284 C 0.29813 0.40345 0.39757 0.0
C2285 C 0.27477 0.46553 0.45092 0.0
C2286 C 0.26324 0.35859 0.32007 0.0
C2287 C 0.2623 0.37468 0.33728 0.0
C2288 C 0.25804 0.40472 0.38134 0.0
C2289 C 0.28433 0.44012 0.41676 0.0
C2290 C 0.28076 0.42153 0.4033 0.0
C2291 C 0.27383 0.36934 0.35873 0.0
C2292 C 0.27565 0.38693 0.37507 0.0
H2293 H 0.32321 0.46811 0.41908 0.0
H2294 H 0.31445 0.4411 0.39449 0.0
H2295 H 0.24686 0.43553 0.39955 0.0
H2296 H 0.2966 0.31502 0.34923 0.0
H2297 H 0.29422 0.34246 0.37964 0.0
C2298 C 0.45457 0.31568 0.60314 0.0
C2299 C 0.46518 0.29817 0.58788 0.0
C2300 C 0.44065 0.31209 0.62429 0.0
C2301 C 0.42654 0.26753 0.66886 0.0
H2302 H 0.37444 0.3128 0.68447 0.0
C2303 C 0.37008 0.26545 0.76217 0.0
C2304 C 0.34785 0.27313 0.76022 0.0
C2305 C 0.38494 0.26708 0.74115 0.0
C2306 C 0.38882 0.29985 0.68031 0.0
H2307 H 0.46932 0.263 0.58325 0.0
H2308 H 0.44459 0.25697 0.61952 0.0
H2309 H 0.39865 0.31844 0.64761 0.0
H2310 H 0.32412 0.28879 0.73451 0.0
H2311 H 0.34943 0.29083 0.6982 0.0
H2312 H 0.41626 0.24871 0.70134 0.0
C2313 C 0.44731 0.27343 0.61536 0.0
C2314 C 0.40289 0.30325 0.6593 0.0
C2315 C 0.46128 0.277 0.59424 0.0
C2316 C 0.3409 0.28232 0.73682 0.0
C2317 C 0.35559 0.28379 0.7159 0.0
C2318 C 0.41238 0.26409 0.68991 0.0
C2319 C 0.43686 0.29091 0.63073 0.0
C2320 C 0.42194 0.28715 0.65325 0.0
C2321 C 0.37782 0.27665 0.71784 0.0
C2322 C 0.39328 0.28018 0.69582 0.0
H2323 H 0.457 0.33222 0.59878 0.0
H2324 H 0.43309 0.32592 0.63581 0.0
H2325 H 0.4412 0.25487 0.66497 0.0
H2326 H 0.37595 0.25857 0.78005 0.0
H2327 H 0.40198 0.26156 0.74339 0.0
C2328 C 0.78685 0.47479 0.62498 0.0
C2329 C 0.7755 0.49297 0.63891 0.0
C2330 C 0.79053 0.45324 0.63599 0.0
C2331 C 0.79229 0.42281 0.69845 0.0
H2332 H 0.78906 0.37311 0.66105 0.0
C2333 C 0.78553 0.33929 0.74698 0.0
C2334 C 0.79857 0.31985 0.73691 0.0
C2335 C 0.78447 0.3598 0.73407 0.0
C2336 C 0.79032 0.3868 0.67157 0.0
H2337 H 0.75869 0.50249 0.67529 0.0
H2338 H 0.76447 0.46486 0.69425 0.0
H2339 H 0.7828 0.41037 0.64043 0.0
H2340 H 0.81948 0.30636 0.70449 0.0
H2341 H 0.81757 0.34261 0.68146 0.0
H2342 H 0.79913 0.39938 0.72975 0.0
C2343 C 0.77099 0.46736 0.67493 0.0
C2344 C 0.78672 0.40814 0.65981 0.0
C2345 C 0.7674 0.48895 0.66394 0.0
C2346 C 0.80973 0.32121 0.71291 0.0
C2347 C 0.80856 0.34186 0.69977 0.0
C2348 C 0.79571 0.40157 0.7102 0.0
C2349 C 0.78283 0.44928 0.66118 0.0
C2350 C 0.78738 0.42644 0.67324 0.0
C2351 C 0.79606 0.36136 0.71042 0.0
C2352 C 0.79449 0.3834 0.69701 0.0
H2353 H 0.793 0.47715 0.60551 0.0
H2354 H 0.7998 0.43973 0.62489 0.0
H2355 H 0.79346 0.43641 0.70917 0.0
H2356 H 0.77591 0.3388 0.76474 0.0
H2357 H 0.77425 0.37445 0.74247 0.0
C2358 C 0.26511 0.56258 0.56433 0.0
C2359 C 0.28303 0.56409 0.5473 0.0
C2360 C 0.25753 0.57831 0.58259 0.0
C2361 C 0.25959 0.63417 0.59904 0.0
H2362 H 0.25669 0.61037 0.66842 0.0
C2363 C 0.26193 0.68754 0.68061 0.0
C2364 C 0.24762 0.68611 0.70222 0.0
C2365 C 0.2651 0.67225 0.66203 0.0
C2366 C 0.25714 0.61733 0.64916 0.0
H2367 H 0.30625 0.58366 0.53474 0.0
H2368 H 0.29285 0.61118 0.56604 0.0
H2369 H 0.26151 0.58552 0.63409 0.0
H2370 H 0.22644 0.66668 0.722 0.0
H2371 H 0.23162 0.64029 0.68937 0.0
H2372 H 0.25543 0.66592 0.61391 0.0
C2373 C 0.28469 0.59793 0.56559 0.0
C2374 C 0.2598 0.60311 0.62952 0.0
C2375 C 0.29244 0.58212 0.54777 0.0
C2376 C 0.23734 0.66842 0.70538 0.0
C2377 C 0.24044 0.65318 0.68677 0.0
C2378 C 0.25683 0.6484 0.61862 0.0
C2379 C 0.26753 0.59592 0.58359 0.0
C2380 C 0.26147 0.61134 0.60428 0.0
C2381 C 0.25398 0.65521 0.66461 0.0
C2382 C 0.256 0.64009 0.64391 0.0
H2383 H 0.25772 0.5487 0.56436 0.0
H2384 H 0.2442 0.57647 0.59622 0.0
H2385 H 0.26062 0.64098 0.57973 0.0
H2386 H 0.27 0.70103 0.67753 0.0
H2387 H 0.27601 0.67399 0.64543 0.0
loop_
_geom_bond_atom_site_label_1
_geom_bond_atom_site_label_2
_geom_bond_distance
_geom_bond_site_symmetry_2
_ccdc_geom_bond_type
Cu0 N1 1.999 . S
Cu0 O6 1.989 . S
Cu0 N11 1.989 . S
Cu0 O20 1.959 1_455 S
N1 Cu0 1.999 . S
N1 C3 1.263 . S
N1 C5 1.389 . S
N2 C3 1.358 . S
N2 C4 1.400 . S
C3 N1 1.263 . S
C3 N2 1.358 . S
C3 H9 0.930 . S
C4 N2 1.400 . S
C4 C5 1.351 . S
C4 H21 0.930 . S
C5 N1 1.389 . S
C5 C4 1.351 . S
C5 H10 0.930 . S
O6 Cu0 1.989 . S
O6 C16 1.275 1_545 S
C7 O8 1.261 . S
C7 O20 1.251 . S
O8 C7 1.261 . S
H9 C3 0.930 . S
H10 C5 0.930 . S
N11 Cu0 1.989 . S
N11 C13 1.334 1_455 S
N11 C14 1.386 1_545 S
N12 C13 1.345 1_565 S
N12 C15 1.336 . S
C13 N11 1.334 1_655 S
C13 N12 1.345 1_545 S
C13 H18 0.930 . S
C14 N11 1.386 1_565 S
C14 C15 1.346 1_455 S
C14 H19 0.930 . S
C15 N12 1.336 . S
C15 C14 1.346 1_655 S
C15 H22 0.929 . S
C16 O6 1.275 1_565 S
C16 O17 1.214 1_565 S
O17 C16 1.214 1_545 S
H18 C13 0.930 . S
H19 C14 0.930 . S
O20 Cu0 1.959 1_655 S
O20 C7 1.251 . S
H21 C4 0.930 . S
H22 C15 0.929 . S
Cu23 N24 1.999 . S
Cu23 O29 1.974 1_455 S
Cu23 N34 1.985 . S
Cu23 O43 1.959 . S
N24 Cu23 1.999 . S
N24 C26 1.263 1_455 S
N24 C28 1.389 1_545 S
N25 C26 1.358 1_565 S
N25 C27 1.400 . S
C26 N24 1.263 1_655 S
C26 N25 1.358 1_545 S
C26 H32 0.930 . S
C27 N25 1.400 . S
C27 C28 1.351 1_655 S
C27 H44 0.930 . S
C28 N24 1.389 1_565 S
C28 C27 1.351 1_455 S
C28 H33 0.930 . S
O29 Cu23 1.974 1_655 S
O29 C39 1.282 . S
C30 O31 1.261 . S
C30 O43 1.251 . S
O31 C30 1.261 . S
H32 C26 0.930 . S
H33 C28 0.930 . S
N34 Cu23 1.985 . S
N34 C36 1.335 . S
N34 C37 1.390 . S
N35 C36 1.345 . S
N35 C38 1.336 . S
C36 N34 1.335 . S
C36 N35 1.345 . S
C36 H41 0.930 . S
C37 N34 1.390 . S
C37 C38 1.346 . S
C37 H42 0.930 . S
C38 N35 1.336 . S
C38 C37 1.346 . S
C38 H45 0.929 . S
C39 O29 1.282 . S
C39 O40 1.216 . S
O40 C39 1.216 . S
H41 C36 0.930 . S
H42 C37 0.930 . S
O43 Cu23 1.959 . S
O43 C30 1.251 . S
H44 C27 0.930 . S
H45 C38 0.929 . S
Cu46 N47 1.999 . S
Cu46 O52 1.974 . S
Cu46 N57 1.985 . S
Cu46 O66 1.959 . S
N47 Cu46 1.999 . S
N47 C49 1.263 . S
N47 C51 1.389 . S
N48 C49 1.358 . S
N48 C50 1.400 . S
C49 N47 1.263 . S
C49 N48 1.358 . S
C49 H55 0.930 . S
C50 N48 1.400 . S
C50 C51 1.351 . S
C50 H67 0.930 1_554 S
C51 N47 1.389 . S
C51 C50 1.351 . S
C51 H56 0.930 . S
O52 Cu46 1.974 . S
O52 C62 1.282 . S
C53 O54 1.261 . S
C53 O66 1.251 . S
O54 C53 1.261 . S
H55 C49 0.930 . S
H56 C51 0.930 . S
N57 Cu46 1.985 . S
N57 C59 1.335 . S
N57 C60 1.390 . S
N58 C59 1.345 . S
N58 C61 1.336 . S
C59 N57 1.335 . S
C59 N58 1.345 . S
C59 H64 0.930 . S
C60 N57 1.390 . S
C60 C61 1.346 . S
C60 H65 0.930 . S
C61 N58 1.336 . S
C61 C60 1.346 . S
C61 H68 0.929 . S
C62 O52 1.282 . S
C62 O63 1.216 . S
O63 C62 1.216 . S
H64 C59 0.930 . S
H65 C60 0.930 . S
O66 Cu46 1.959 . S
O66 C53 1.251 . S
H67 C50 0.930 1_556 S
H68 C61 0.929 . S
Cu69 N70 1.999 . S
Cu69 O75 1.974 . S
Cu69 N80 1.985 . S
Cu69 O89 1.959 . S
N70 Cu69 1.999 . S
N70 C72 1.263 . S
N70 C74 1.389 . S
N71 C72 1.358 . S
N71 C73 1.400 1_554 S
C72 N70 1.263 . S
C72 N71 1.358 . S
C72 H78 0.930 . S
C73 N71 1.400 1_556 S
C73 C74 1.351 1_556 S
C73 H90 0.930 . S
C74 N70 1.389 . S
C74 C73 1.351 1_554 S
C74 H79 0.930 . S
O75 Cu69 1.974 . S
O75 C85 1.282 . S
C76 O77 1.261 . S
C76 O89 1.251 . S
O77 C76 1.261 . S
H78 C72 0.930 . S
H79 C74 0.930 . S
N80 Cu69 1.985 . S
N80 C82 1.335 1_455 S
N80 C83 1.390 . S
N81 C82 1.345 . S
N81 C84 1.336 1_655 S
C82 N80 1.335 1_655 S
C82 N81 1.345 . S
C82 H87 0.930 . S
C83 N80 1.390 . S
C83 C84 1.346 . S
C83 H88 0.930 . S
C84 N81 1.336 1_455 S
C84 C83 1.346 . S
C84 H91 0.929 . S
C85 O75 1.282 . S
C85 O86 1.216 . S
O86 C85 1.216 . S
H87 C82 0.930 . S
H88 C83 0.930 . S
O89 Cu69 1.959 . S
O89 C76 1.251 . S
H90 C73 0.930 . S
H91 C84 0.929 . S
Cu92 N93 1.999 1_554 S
Cu92 O98 1.974 . S
Cu92 N103 1.985 1_545 S
Cu92 O112 1.959 1_544 S
N93 Cu92 1.999 1_556 S
N93 C95 1.263 . S
N93 C97 1.389 . S
N94 C95 1.358 . S
N94 C96 1.400 . S
C95 N93 1.263 . S
C95 N94 1.358 . S
C95 H101 0.930 . S
C96 N94 1.400 . S
C96 C97 1.351 . S
C96 H113 0.930 . S
C97 N93 1.389 . S
C97 C96 1.351 . S
C97 H102 0.930 . S
O98 Cu92 1.974 . S
O98 C108 1.282 . S
C99 O100 1.261 . S
C99 O112 1.251 . S
O100 C99 1.261 . S
H101 C95 0.930 . S
H102 C97 0.930 . S
N103 Cu92 1.985 1_565 S
N103 C105 1.335 . S
N103 C106 1.390 . S
N104 C105 1.345 . S
N104 C107 1.336 . S
C105 N103 1.335 . S
C105 N104 1.345 . S
C105 H110 0.930 . S
C106 N103 1.390 . S
C106 C107 1.346 . S
C106 H111 0.930 . S
C107 N104 1.336 . S
C107 C106 1.346 . S
C107 H114 0.929 . S
C108 O98 1.282 . S
C108 O109 1.216 . S
O109 C108 1.216 . S
H110 C105 0.930 . S
H111 C106 0.930 . S
O112 Cu92 1.959 1_566 S
O112 C99 1.251 . S
H113 C96 0.930 . S
H114 C107 0.929 . S
Cu115 N116 1.999 1_454 S
Cu115 O121 1.974 1_455 S
Cu115 N126 1.985 . S
Cu115 O135 1.959 1_554 S
N116 Cu115 1.999 1_656 S
N116 C118 1.263 . S
N116 C120 1.389 . S
N117 C118 1.358 . S
N117 C119 1.400 . S
C118 N116 1.263 . S
C118 N117 1.358 . S
C118 H124 0.930 . S
C119 N117 1.400 . S
C119 C120 1.351 . S
C119 H136 0.930 . S
C120 N116 1.389 . S
C120 C119 1.351 . S
C120 H125 0.930 1_655 S
O121 Cu115 1.974 1_655 S
O121 C131 1.282 . S
C122 O123 1.261 . S
C122 O135 1.251 . S
O123 C122 1.261 . S
H124 C118 0.930 . S
H125 C120 0.930 1_455 S
N126 Cu115 1.985 . S
N126 C128 1.335 . S
N126 C129 1.390 . S
N127 C128 1.345 . S
N127 C130 1.336 . S
C128 N126 1.335 . S
C128 N127 1.345 . S
C128 H133 0.930 . S
C129 N126 1.390 . S
C129 C130 1.346 . S
C129 H134 0.913 1_455 S
C130 N127 1.336 . S
C130 C129 1.346 . S
C130 H137 0.929 . S
C131 O121 1.282 . S
C131 O132 1.216 . S
O132 C131 1.216 . S
H133 C128 0.930 . S
H134 C129 0.913 1_655 S
O135 Cu115 1.959 1_556 S
O135 C122 1.251 . S
H136 C119 0.930 . S
H137 C130 0.929 . S
Cu138 N139 1.999 . S
Cu138 O144 1.974 . S
Cu138 N149 1.985 . S
Cu138 O158 1.959 . S
N139 Cu138 1.999 . S
N139 C141 1.263 . S
N139 C143 1.389 . S
N140 C141 1.358 . S
N140 C142 1.400 . S
C141 N139 1.263 . S
C141 N140 1.358 . S
C141 H147 0.930 . S
C142 N140 1.400 . S
C142 C143 1.351 . S
C142 H159 0.930 . S
C143 N139 1.389 . S
C143 C142 1.351 . S
C143 H148 0.930 . S
O144 Cu138 1.974 . S
O144 C154 1.282 . S
C145 O146 1.261 . S
C145 O158 1.251 . S
O146 C145 1.261 . S
H147 C141 0.930 . S
H148 C143 0.930 . S
N149 Cu138 1.985 . S
N149 C151 1.335 . S
N149 C152 1.390 . S
N150 C151 1.345 . S
N150 C153 1.336 . S
C151 N149 1.335 . S
C151 N150 1.345 . S
C151 H156 0.930 . S
C152 N149 1.390 . S
C152 C153 1.346 . S
C152 H157 0.930 . S
C153 N150 1.336 . S
C153 C152 1.346 . S
C153 H160 0.929 . S
C154 O144 1.282 . S
C154 O155 1.216 . S
O155 C154 1.216 . S
H156 C151 0.930 . S
H157 C152 0.930 . S
O158 Cu138 1.959 . S
O158 C145 1.251 . S
H159 C142 0.930 . S
H160 C153 0.929 . S
Cu161 N162 1.999 . S
Cu161 O167 1.974 . S
Cu161 N172 1.985 . S
Cu161 O181 1.959 . S
N162 Cu161 1.999 . S
N162 C164 1.263 . S
N162 C166 1.389 . S
N163 C164 1.358 . S
N163 C165 1.400 . S
C164 N162 1.263 . S
C164 N163 1.358 . S
C164 H170 0.930 . S
C165 N163 1.400 . S
C165 C166 1.351 . S
C165 H182 0.930 . S
C166 N162 1.389 . S
C166 C165 1.351 . S
C166 H171 0.930 . S
O167 Cu161 1.974 . S
O167 C177 1.282 . S
C168 O169 1.261 . S
C168 O181 1.251 . S
O169 C168 1.261 . S
H170 C164 0.930 . S
H171 C166 0.930 . S
N172 Cu161 1.985 . S
N172 C174 1.335 . S
N172 C175 1.390 . S
N173 C174 1.345 . S
N173 C176 1.336 . S
C174 N172 1.335 . S
C174 N173 1.345 . S
C174 H179 0.930 . S
C175 N172 1.390 . S
C175 C176 1.346 . S
C175 H180 0.930 . S
C176 N173 1.336 . S
C176 C175 1.346 . S
C176 H183 0.929 . S
C177 O167 1.282 . S
C177 O178 1.216 . S
O178 C177 1.216 . S
H179 C174 0.930 . S
H180 C175 0.930 . S
O181 Cu161 1.959 . S
O181 C168 1.251 . S
H182 C165 0.930 . S
H183 C176 0.929 . S
Cu184 N185 1.999 . S
Cu184 O190 1.974 . S
Cu184 N195 1.985 . S
Cu184 O204 1.959 . S
N185 Cu184 1.999 . S
N185 C187 1.263 . S
N185 C189 1.389 . S
N186 C187 1.358 . S
N186 C188 1.400 . S
C187 N185 1.263 . S
C187 N186 1.358 . S
C187 H193 0.930 . S
C188 N186 1.400 . S
C188 C189 1.351 . S
C188 H205 0.930 . S
C189 N185 1.389 . S
C189 C188 1.351 . S
C189 H194 0.930 . S
O190 Cu184 1.974 . S
O190 C200 1.282 . S
C191 O192 1.261 . S
C191 O204 1.251 . S
O192 C191 1.261 . S
H193 C187 0.930 . S
H194 C189 0.930 . S
N195 Cu184 1.985 . S
N195 C197 1.335 . S
N195 C198 1.390 . S
N196 C197 1.345 . S
N196 C199 1.336 . S
C197 N195 1.335 . S
C197 N196 1.345 . S
C197 H202 0.930 . S
C198 N195 1.390 . S
C198 C199 1.346 . S
C198 H203 0.930 . S
C199 N196 1.336 . S
C199 C198 1.346 . S
C199 H206 0.929 . S
C200 O190 1.282 . S
C200 O201 1.216 . S
O201 C200 1.216 . S
H202 C197 0.930 . S
H203 C198 0.930 . S
O204 Cu184 1.959 . S
O204 C191 1.251 . S
H205 C188 0.930 . S
H206 C199 0.929 . S
Cu207 N208 1.999 . S
Cu207 O213 1.974 . S
Cu207 N218 1.985 . S
Cu207 O227 1.959 . S
N208 Cu207 1.999 . S
N208 C210 1.263 . S
N208 C212 1.389 . S
N209 C210 1.358 . S
N209 C211 1.400 . S
C210 N208 1.263 . S
C210 N209 1.358 . S
C210 H216 0.930 . S
C211 N209 1.400 . S
C211 C212 1.351 . S
C211 H228 0.930 . S
C212 N208 1.389 . S
C212 C211 1.351 . S
C212 H217 0.930 . S
O213 Cu207 1.974 . S
O213 C223 1.282 . S
C214 O215 1.261 . S
C214 O227 1.251 . S
O215 C214 1.261 . S
H216 C210 0.930 . S
H217 C212 0.930 . S
N218 Cu207 1.985 . S
N218 C220 1.335 . S
N218 C221 1.390 . S
N219 C220 1.345 . S
N219 C222 1.336 . S
C220 N218 1.335 . S
C220 N219 1.345 . S
C220 H225 0.930 . S
C221 N218 1.390 . S
C221 C222 1.346 . S
C221 H226 0.930 . S
C222 N219 1.336 . S
C222 C221 1.346 . S
C222 H229 0.929 . S
C223 O213 1.282 . S
C223 O224 1.216 . S
O224 C223 1.216 . S
H225 C220 0.930 . S
H226 C221 0.930 . S
O227 Cu207 1.959 . S
O227 C214 1.251 . S
H228 C211 0.930 . S
H229 C222 0.929 . S
Cu230 N231 1.999 . S
Cu230 O236 1.974 . S
Cu230 N241 1.985 . S
Cu230 O250 1.959 . S
N231 Cu230 1.999 . S
N231 C233 1.263 . S
N231 C235 1.389 . S
N232 C233 1.358 . S
N232 C234 1.400 . S
C233 N231 1.263 . S
C233 N232 1.358 . S
C233 H239 0.930 . S
C234 N232 1.400 . S
C234 C235 1.351 . S
C234 H251 0.930 . S
C235 N231 1.389 . S
C235 C234 1.351 . S
C235 H240 0.930 . S
O236 Cu230 1.974 . S
O236 C246 1.282 . S
C237 O238 1.261 . S
C237 O250 1.251 . S
O238 C237 1.261 . S
H239 C233 0.930 . S
H240 C235 0.930 . S
N241 Cu230 1.985 . S
N241 C243 1.335 . S
N241 C244 1.390 . S
N242 C243 1.345 . S
N242 C245 1.336 . S
C243 N241 1.335 . S
C243 N242 1.345 . S
C243 H248 0.930 . S
C244 N241 1.390 . S
C244 C245 1.346 . S
C244 H249 0.930 . S
C245 N242 1.336 . S
C245 C244 1.346 . S
C245 H252 0.929 . S
C246 O236 1.282 . S
C246 O247 1.216 . S
O247 C246 1.216 . S
H248 C243 0.930 . S
H249 C244 0.930 . S
O250 Cu230 1.959 . S
O250 C237 1.251 . S
H251 C234 0.930 . S
H252 C245 0.929 . S
Cu253 N254 1.999 . S
Cu253 O259 1.974 . S
Cu253 N264 1.985 . S
Cu253 O273 1.959 . S
N254 Cu253 1.999 . S
N254 C256 1.263 . S
N254 C258 1.389 . S
N255 C256 1.358 . S
N255 C257 1.400 . S
C256 N254 1.263 . S
C256 N255 1.358 . S
C256 H262 0.930 . S
C257 N255 1.400 . S
C257 C258 1.351 . S
C257 H274 0.930 . S
C258 N254 1.389 . S
C258 C257 1.351 . S
C258 H263 0.930 . S
O259 Cu253 1.974 . S
O259 C269 1.282 . S
C260 O261 1.261 . S
C260 O273 1.251 . S
O261 C260 1.261 . S
H262 C256 0.930 . S
H263 C258 0.930 . S
N264 Cu253 1.985 . S
N264 C266 1.335 . S
N264 C267 1.390 . S
N265 C266 1.345 . S
N265 C268 1.336 . S
C266 N264 1.335 . S
C266 N265 1.345 . S
C266 H271 0.930 . S
C267 N264 1.390 . S
C267 C268 1.346 . S
C267 H272 0.930 . S
C268 N265 1.336 . S
C268 C267 1.346 . S
C268 H275 0.929 . S
C269 O259 1.282 . S
C269 O270 1.216 . S
O270 C269 1.216 . S
H271 C266 0.930 . S
H272 C267 0.930 . S
O273 Cu253 1.959 . S
O273 C260 1.251 . S
H274 C257 0.930 . S
H275 C268 0.929 . S
Eu276 N307 2.657 . S
Eu276 N314 2.609 . S
Eu276 O320 2.558 . S
Eu276 O321 2.612 . S
Eu276 O323 2.339 . S
Eu276 O324 2.563 . S
Eu276 O325 2.419 . S
Eu276 O327 2.380 . S
Eu276 O328 2.432 . S
Eu276 C340 2.848 . S
C277 C280 1.429 . S
C277 C281 1.411 . S
C277 N284 1.377 . S
C278 C280 1.420 . S
C278 C282 1.423 . S
C278 C290 1.392 . S
C279 C281 1.420 . S
C279 C282 1.351 . S
C279 H302 0.931 . S
C280 C277 1.429 . S
C280 C278 1.420 . S
C280 N288 1.362 . S
C281 C277 1.411 . S
C281 C279 1.420 . S
C281 C286 1.395 . S
C282 C278 1.423 . S
C282 C279 1.351 . S
C282 H294 0.930 . S
C283 C285 1.400 . S
C283 C286 1.386 . S
C283 H295 0.930 . S
N284 C277 1.377 . S
N284 C285 1.321 . S
N284 Eu287 2.609 . S
C285 C283 1.400 . S
C285 N284 1.321 . S
C285 H292 0.930 . S
C286 C281 1.395 . S
C286 C283 1.386 . S
C286 H305 0.930 . S
Eu287 N284 2.609 . S
Eu287 N288 2.657 . S
Eu287 O321 2.380 . S
Eu287 O322 2.432 . S
Eu287 O326 2.558 . S
Eu287 O327 2.612 . S
Eu287 O329 2.339 . S
Eu287 O330 2.563 . S
Eu287 O331 2.419 . S
Eu287 C351 2.848 . S
N288 C280 1.362 . S
N288 Eu287 2.657 . S
N288 C289 1.334 . S
C289 N288 1.334 . S
C289 C291 1.413 . S
C289 H296 0.929 . S
C290 C278 1.392 . S
C290 C291 1.367 . S
C290 H298 0.930 . S
C291 C289 1.413 . S
C291 C290 1.367 . S
C291 H293 0.930 . S
H292 C285 0.930 . S
H293 C291 0.930 . S
H294 C282 0.930 . S
H295 C283 0.930 . S
H296 C289 0.929 . S
H297 C311 0.930 . S
H298 C290 0.930 . S
H299 C317 0.930 . S
H300 C308 0.929 . S
H301 C315 0.930 . S
H302 C279 0.931 . S
H303 C309 0.930 . S
H304 C342 0.930 . S
H305 C286 0.930 . S
H306 C341 0.931 . S
N307 Eu276 2.657 . S
N307 C308 1.334 . S
N307 C312 1.362 . S
C308 H300 0.929 . S
C308 N307 1.334 . S
C308 C311 1.413 . S
C309 H303 0.930 . S
C309 C310 1.392 . S
C309 C311 1.367 . S
C310 C309 1.392 . S
C310 C312 1.420 . S
C310 C342 1.423 . S
C311 H297 0.930 . S
C311 C308 1.413 . S
C311 C309 1.367 . S
C312 N307 1.362 . S
C312 C310 1.420 . S
C312 C316 1.429 . S
H313 C318 0.930 . S
N314 Eu276 2.609 . S
N314 C316 1.377 . S
N314 C317 1.321 . S
C315 H301 0.930 . S
C315 C317 1.400 . S
C315 C318 1.386 . S
C316 C312 1.429 . S
C316 N314 1.377 . S
C316 C319 1.411 . S
C317 H299 0.930 . S
C317 N314 1.321 . S
C317 C315 1.400 . S
C318 H313 0.930 . S
C318 C315 1.386 . S
C318 C319 1.395 . S
C319 C316 1.411 . S
C319 C318 1.395 . S
C319 C341 1.420 . S
O320 Eu276 2.558 . S
O320 C340 1.257 . S
O321 Eu276 2.612 . S
O321 Eu287 2.380 . S
O321 C332 1.276 . S
O322 Eu287 2.432 . S
O322 C339 1.264 . S
O323 Eu276 2.339 . S
O323 C339 1.254 . S
O324 Eu276 2.563 . S
O324 C332 1.235 . S
O325 Eu276 2.419 . S
O325 C340 1.249 . S
O326 Eu287 2.558 . S
O326 C351 1.257 . S
O327 Eu276 2.380 . S
O327 Eu287 2.612 . S
O327 C343 1.276 . S
O328 Eu276 2.432 . S
O328 C350 1.264 . S
O329 Eu287 2.339 . S
O329 C350 1.254 . S
O330 Eu287 2.563 . S
O330 C343 1.235 . S
O331 Eu287 2.419 . S
O331 C351 1.249 . S
C332 O321 1.276 . S
C332 O324 1.235 . S
C333 C335 1.393 . S
C333 C337 1.395 . S
C333 C340 1.492 . S
C334 C335 1.392 . S
C334 C336 1.386 . S
C335 C333 1.393 . S
C335 C334 1.392 . S
C335 H352 0.930 . S
C336 C334 1.386 . S
C336 C338 1.395 . S
C336 H353 0.930 . S
C337 C333 1.395 . S
C337 C338 1.379 . S
C337 H354 0.930 . S
C338 C336 1.395 . S
C338 C337 1.379 . S
C338 H355 0.930 . S
C339 O322 1.264 . S
C339 O323 1.254 . S
C340 Eu276 2.848 . S
C340 O320 1.257 . S
C340 O325 1.249 . S
C340 C333 1.492 . S
C341 H306 0.931 . S
C341 C319 1.420 . S
C341 C342 1.351 . S
C342 H304 0.930 . S
C342 C310 1.423 . S
C342 C341 1.351 . S
C343 O327 1.276 . S
C343 O330 1.235 . S
C344 C345 1.393 . S
C344 C348 1.395 . S
C344 C351 1.492 . S
C345 C344 1.393 . S
C345 C346 1.392 . S
C345 H356 0.930 . S
C346 C345 1.392 . S
C346 C347 1.386 . S
C347 C346 1.386 . S
C347 C349 1.395 . S
C347 H357 0.930 . S
C348 C344 1.395 . S
C348 C349 1.379 . S
C348 H358 0.930 . S
C349 C347 1.395 . S
C349 C348 1.379 . S
C349 H359 0.930 . S
C350 O328 1.264 . S
C350 O329 1.254 . S
C351 Eu287 2.848 . S
C351 O326 1.257 . S
C351 O331 1.249 . S
C351 C344 1.492 . S
H352 C335 0.930 . S
H353 C336 0.930 . S
H354 C337 0.930 . S
H355 C338 0.930 . S
H356 C345 0.930 . S
H357 C347 0.930 . S
H358 C348 0.930 . S
H359 C349 0.930 . S
Eu360 N391 2.657 . S
Eu360 N398 2.609 . S
Eu360 O404 2.558 . S
Eu360 O405 2.612 . S
Eu360 O407 2.339 . S
Eu360 O408 2.563 . S
Eu360 O409 2.419 . S
Eu360 O411 2.380 . S
Eu360 O412 2.432 . S
Eu360 C424 2.848 . S
C361 C364 1.429 . S
C361 C365 1.411 . S
C361 N368 1.377 . S
C362 C364 1.420 . S
C362 C366 1.423 . S
C362 C374 1.392 . S
C363 C365 1.420 . S
C363 C366 1.351 . S
C363 H386 0.931 . S
C364 C361 1.429 . S
C364 C362 1.420 . S
C364 N372 1.362 . S
C365 C361 1.411 . S
C365 C363 1.420 . S
C365 C370 1.395 . S
C366 C362 1.423 . S
C366 C363 1.351 . S
C366 H378 0.930 . S
C367 C369 1.400 . S
C367 C370 1.386 . S
C367 H379 0.930 . S
N368 C361 1.377 . S
N368 C369 1.321 . S
N368 Eu371 2.609 . S
C369 C367 1.400 . S
C369 N368 1.321 . S
C369 H376 0.930 . S
C370 C365 1.395 . S
C370 C367 1.386 . S
C370 H389 0.930 . S
Eu371 N368 2.609 . S
Eu371 N372 2.657 . S
Eu371 O405 2.380 . S
Eu371 O406 2.432 . S
Eu371 O410 2.558 . S
Eu371 O411 2.612 . S
Eu371 O413 2.339 . S
Eu371 O414 2.563 . S
Eu371 O415 2.419 . S
Eu371 C435 2.848 . S
N372 C364 1.362 . S
N372 Eu371 2.657 . S
N372 C373 1.334 . S
C373 N372 1.334 . S
C373 C375 1.413 . S
C373 H380 0.929 . S
C374 C362 1.392 . S
C374 C375 1.367 . S
C374 H382 0.930 . S
C375 C373 1.413 . S
C375 C374 1.367 . S
C375 H377 0.930 . S
H376 C369 0.930 . S
H377 C375 0.930 . S
H378 C366 0.930 . S
H379 C367 0.930 . S
H380 C373 0.929 . S
H381 C395 0.930 . S
H382 C374 0.930 . S
H383 C401 0.930 . S
H384 C392 0.929 . S
H385 C399 0.930 . S
H386 C363 0.931 . S
H387 C393 0.930 . S
H388 C426 0.930 . S
H389 C370 0.930 . S
H390 C425 0.931 . S
N391 Eu360 2.657 . S
N391 C392 1.334 . S
N391 C396 1.362 . S
C392 H384 0.929 . S
C392 N391 1.334 . S
C392 C395 1.413 . S
C393 H387 0.930 . S
C393 C394 1.392 . S
C393 C395 1.367 . S
C394 C393 1.392 . S
C394 C396 1.420 . S
C394 C426 1.423 . S
C395 H381 0.930 . S
C395 C392 1.413 . S
C395 C393 1.367 . S
C396 N391 1.362 . S
C396 C394 1.420 . S
C396 C400 1.429 . S
H397 C402 0.930 . S
N398 Eu360 2.609 . S
N398 C400 1.377 . S
N398 C401 1.321 . S
C399 H385 0.930 . S
C399 C401 1.400 . S
C399 C402 1.386 . S
C400 C396 1.429 . S
C400 N398 1.377 . S
C400 C403 1.411 . S
C401 H383 0.930 . S
C401 N398 1.321 . S
C401 C399 1.400 . S
C402 H397 0.930 . S
C402 C399 1.386 . S
C402 C403 1.395 . S
C403 C400 1.411 . S
C403 C402 1.395 . S
C403 C425 1.420 . S
O404 Eu360 2.558 . S
O404 C424 1.257 . S
O405 Eu360 2.612 . S
O405 Eu371 2.380 . S
O405 C416 1.276 . S
O406 Eu371 2.432 . S
O406 C423 1.264 . S
O407 Eu360 2.339 . S
O407 C423 1.254 . S
O408 Eu360 2.563 . S
O408 C416 1.235 . S
O409 Eu360 2.419 . S
O409 C424 1.249 . S
O410 Eu371 2.558 . S
O410 C435 1.257 . S
O411 Eu360 2.380 . S
O411 Eu371 2.612 . S
O411 C427 1.276 . S
O412 Eu360 2.432 . S
O412 C434 1.264 . S
O413 Eu371 2.339 . S
O413 C434 1.254 . S
O414 Eu371 2.563 . S
O414 C427 1.235 . S
O415 Eu371 2.419 . S
O415 C435 1.249 . S
C416 O405 1.276 . S
C416 O408 1.235 . S
C417 C419 1.393 . S
C417 C421 1.395 . S
C417 C424 1.492 . S
C418 C419 1.392 . S
C418 C420 1.386 . S
C419 C417 1.393 . S
C419 C418 1.392 . S
C419 H436 0.930 . S
C420 C418 1.386 . S
C420 C422 1.395 . S
C420 H437 0.930 . S
C421 C417 1.395 . S
C421 C422 1.379 . S
C421 H438 0.930 . S
C422 C420 1.395 . S
C422 C421 1.379 . S
C422 H439 0.930 . S
C423 O406 1.264 . S
C423 O407 1.254 . S
C424 Eu360 2.848 . S
C424 O404 1.257 . S
C424 O409 1.249 . S
C424 C417 1.492 . S
C425 H390 0.931 . S
C425 C403 1.420 . S
C425 C426 1.351 . S
C426 H388 0.930 . S
C426 C394 1.423 . S
C426 C425 1.351 . S
C427 O411 1.276 . S
C427 O414 1.235 . S
C428 C429 1.393 . S
C428 C432 1.395 . S
C428 C435 1.492 . S
C429 C428 1.393 . S
C429 C430 1.392 . S
C429 H440 0.930 . S
C430 C429 1.392 . S
C430 C431 1.386 . S
C431 C430 1.386 . S
C431 C433 1.395 . S
C431 H441 0.930 . S
C432 C428 1.395 . S
C432 C433 1.379 . S
C432 H442 0.930 . S
C433 C431 1.395 . S
C433 C432 1.379 . S
C433 H443 0.930 . S
C434 O412 1.264 . S
C434 O413 1.254 . S
C435 Eu371 2.848 . S
C435 O410 1.257 . S
C435 O415 1.249 . S
C435 C428 1.492 . S
H436 C419 0.930 . S
H437 C420 0.930 . S
H438 C421 0.930 . S
H439 C422 0.930 . S
H440 C429 0.930 . S
H441 C431 0.930 . S
H442 C432 0.930 . S
H443 C433 0.930 . S
Eu444 N475 2.657 . S
Eu444 N482 2.609 . S
Eu444 O488 2.558 . S
Eu444 O489 2.612 . S
Eu444 O491 2.339 . S
Eu444 O492 2.563 . S
Eu444 O493 2.419 . S
Eu444 O495 2.380 . S
Eu444 O496 2.432 . S
Eu444 C508 2.848 . S
C445 C448 1.429 . S
C445 C449 1.411 . S
C445 N452 1.377 . S
C446 C448 1.420 . S
C446 C450 1.423 . S
C446 C458 1.392 . S
C447 C449 1.420 . S
C447 C450 1.351 . S
C447 H470 0.931 . S
C448 C445 1.429 . S
C448 C446 1.420 . S
C448 N456 1.362 . S
C449 C445 1.411 . S
C449 C447 1.420 . S
C449 C454 1.395 . S
C450 C446 1.423 . S
C450 C447 1.351 . S
C450 H462 0.930 . S
C451 C453 1.400 . S
C451 C454 1.386 . S
C451 H463 0.930 . S
N452 C445 1.377 . S
N452 C453 1.321 . S
N452 Eu455 2.609 . S
C453 C451 1.400 . S
C453 N452 1.321 . S
C453 H460 0.930 . S
C454 C449 1.395 . S
C454 C451 1.386 . S
C454 H473 0.930 . S
Eu455 N452 2.609 . S
Eu455 N456 2.657 . S
Eu455 O489 2.380 . S
Eu455 O490 2.432 . S
Eu455 O494 2.558 . S
Eu455 O495 2.612 . S
Eu455 O497 2.339 . S
Eu455 O498 2.563 . S
Eu455 O499 2.419 . S
Eu455 C519 2.848 . S
N456 C448 1.362 . S
N456 Eu455 2.657 . S
N456 C457 1.334 . S
C457 N456 1.334 . S
C457 C459 1.413 . S
C457 H464 0.929 . S
C458 C446 1.392 . S
C458 C459 1.367 . S
C458 H466 0.930 . S
C459 C457 1.413 . S
C459 C458 1.367 . S
C459 H461 0.930 . S
H460 C453 0.930 . S
H461 C459 0.930 . S
H462 C450 0.930 . S
H463 C451 0.930 . S
H464 C457 0.929 . S
H465 C479 0.930 . S
H466 C458 0.930 . S
H467 C485 0.930 . S
H468 C476 0.929 . S
H469 C483 0.930 . S
H470 C447 0.931 . S
H471 C477 0.930 . S
H472 C510 0.930 . S
H473 C454 0.930 . S
H474 C509 0.931 . S
N475 Eu444 2.657 . S
N475 C476 1.334 . S
N475 C480 1.362 . S
C476 H468 0.929 . S
C476 N475 1.334 . S
C476 C479 1.413 . S
C477 H471 0.930 . S
C477 C478 1.392 . S
C477 C479 1.367 . S
C478 C477 1.392 . S
C478 C480 1.420 . S
C478 C510 1.423 . S
C479 H465 0.930 . S
C479 C476 1.413 . S
C479 C477 1.367 . S
C480 N475 1.362 . S
C480 C478 1.420 . S
C480 C484 1.429 . S
H481 C486 0.930 . S
N482 Eu444 2.609 . S
N482 C484 1.377 . S
N482 C485 1.321 . S
C483 H469 0.930 . S
C483 C485 1.400 . S
C483 C486 1.386 . S
C484 C480 1.429 . S
C484 N482 1.377 . S
C484 C487 1.411 . S
C485 H467 0.930 . S
C485 N482 1.321 . S
C485 C483 1.400 . S
C486 H481 0.930 . S
C486 C483 1.386 . S
C486 C487 1.395 . S
C487 C484 1.411 . S
C487 C486 1.395 . S
C487 C509 1.420 . S
O488 Eu444 2.558 . S
O488 C508 1.257 . S
O489 Eu444 2.612 . S
O489 Eu455 2.380 . S
O489 C500 1.276 . S
O490 Eu455 2.432 . S
O490 C507 1.264 . S
O491 Eu444 2.339 . S
O491 C507 1.254 . S
O492 Eu444 2.563 . S
O492 C500 1.235 . S
O493 Eu444 2.419 . S
O493 C508 1.249 . S
O494 Eu455 2.558 . S
O494 C519 1.257 . S
O495 Eu444 2.380 . S
O495 Eu455 2.612 . S
O495 C511 1.276 . S
O496 Eu444 2.432 . S
O496 C518 1.264 . S
O497 Eu455 2.339 . S
O497 C518 1.254 . S
O498 Eu455 2.563 . S
O498 C511 1.235 . S
O499 Eu455 2.419 . S
O499 C519 1.249 . S
C500 O489 1.276 . S
C500 O492 1.235 . S
C501 C503 1.393 . S
C501 C505 1.395 . S
C501 C508 1.492 . S
C502 C503 1.392 . S
C502 C504 1.386 . S
C503 C501 1.393 . S
C503 C502 1.392 . S
C503 H520 0.930 . S
C504 C502 1.386 . S
C504 C506 1.395 . S
C504 H521 0.930 . S
C505 C501 1.395 . S
C505 C506 1.379 . S
C505 H522 0.930 . S
C506 C504 1.395 . S
C506 C505 1.379 . S
C506 H523 0.930 . S
C507 O490 1.264 . S
C507 O491 1.254 . S
C508 Eu444 2.848 . S
C508 O488 1.257 . S
C508 O493 1.249 . S
C508 C501 1.492 . S
C509 H474 0.931 . S
C509 C487 1.420 . S
C509 C510 1.351 . S
C510 H472 0.930 . S
C510 C478 1.423 . S
C510 C509 1.351 . S
C511 O495 1.276 . S
C511 O498 1.235 . S
C512 C513 1.393 . S
C512 C516 1.395 . S
C512 C519 1.492 . S
C513 C512 1.393 . S
C513 C514 1.392 . S
C513 H524 0.930 . S
C514 C513 1.392 . S
C514 C515 1.386 . S
C515 C514 1.386 . S
C515 C517 1.395 . S
C515 H525 0.930 . S
C516 C512 1.395 . S
C516 C517 1.379 . S
C516 H526 0.930 . S
C517 C515 1.395 . S
C517 C516 1.379 . S
C517 H527 0.930 . S
C518 O496 1.264 . S
C518 O497 1.254 . S
C519 Eu455 2.848 . S
C519 O494 1.257 . S
C519 O499 1.249 . S
C519 C512 1.492 . S
H520 C503 0.930 . S
H521 C504 0.930 . S
H522 C505 0.930 . S
H523 C506 0.930 . S
H524 C513 0.930 . S
H525 C515 0.930 . S
H526 C516 0.930 . S
H527 C517 0.930 . S
Eu528 N559 2.657 . S
Eu528 N566 2.609 . S
Eu528 O572 2.558 . S
Eu528 O573 2.612 . S
Eu528 O575 2.339 . S
Eu528 O576 2.563 . S
Eu528 O577 2.419 . S
Eu528 O579 2.380 . S
Eu528 O580 2.432 . S
Eu528 C592 2.848 . S
C529 C532 1.429 . S
C529 C533 1.411 . S
C529 N536 1.377 . S
C530 C532 1.420 . S
C530 C534 1.423 . S
C530 C542 1.392 . S
C531 C533 1.420 . S
C531 C534 1.351 . S
C531 H554 0.931 . S
C532 C529 1.429 . S
C532 C530 1.420 . S
C532 N540 1.362 . S
C533 C529 1.411 . S
C533 C531 1.420 . S
C533 C538 1.395 . S
C534 C530 1.423 . S
C534 C531 1.351 . S
C534 H546 0.930 . S
C535 C537 1.400 . S
C535 C538 1.386 . S
C535 H547 0.930 . S
N536 C529 1.377 . S
N536 C537 1.321 . S
N536 Eu539 2.609 . S
C537 C535 1.400 . S
C537 N536 1.321 . S
C537 H544 0.930 . S
C538 C533 1.395 . S
C538 C535 1.386 . S
C538 H557 0.930 . S
Eu539 N536 2.609 . S
Eu539 N540 2.657 . S
Eu539 O573 2.380 . S
Eu539 O574 2.432 . S
Eu539 O578 2.558 . S
Eu539 O579 2.612 . S
Eu539 O581 2.339 . S
Eu539 O582 2.563 . S
Eu539 O583 2.419 . S
Eu539 C603 2.848 . S
N540 C532 1.362 . S
N540 Eu539 2.657 . S
N540 C541 1.334 . S
C541 N540 1.334 . S
C541 C543 1.413 . S
C541 H548 0.929 . S
C542 C530 1.392 . S
C542 C543 1.367 . S
C542 H550 0.930 . S
C543 C541 1.413 . S
C543 C542 1.367 . S
C543 H545 0.930 . S
H544 C537 0.930 . S
H545 C543 0.930 . S
H546 C534 0.930 . S
H547 C535 0.930 . S
H548 C541 0.929 . S
H549 C563 0.930 . S
H550 C542 0.930 . S
H551 C569 0.930 . S
H552 C560 0.929 . S
H553 C567 0.930 . S
H554 C531 0.931 . S
H555 C561 0.930 . S
H556 C594 0.930 . S
H557 C538 0.930 . S
H558 C593 0.931 . S
N559 Eu528 2.657 . S
N559 C560 1.334 . S
N559 C564 1.362 . S
C560 H552 0.929 . S
C560 N559 1.334 . S
C560 C563 1.413 . S
C561 H555 0.930 . S
C561 C562 1.392 . S
C561 C563 1.367 . S
C562 C561 1.392 . S
C562 C564 1.420 . S
C562 C594 1.423 . S
C563 H549 0.930 . S
C563 C560 1.413 . S
C563 C561 1.367 . S
C564 N559 1.362 . S
C564 C562 1.420 . S
C564 C568 1.429 . S
H565 C570 0.930 . S
N566 Eu528 2.609 . S
N566 C568 1.377 . S
N566 C569 1.321 . S
C567 H553 0.930 . S
C567 C569 1.400 . S
C567 C570 1.386 . S
C568 C564 1.429 . S
C568 N566 1.377 . S
C568 C571 1.411 . S
C569 H551 0.930 . S
C569 N566 1.321 . S
C569 C567 1.400 . S
C570 H565 0.930 . S
C570 C567 1.386 . S
C570 C571 1.395 . S
C571 C568 1.411 . S
C571 C570 1.395 . S
C571 C593 1.420 . S
O572 Eu528 2.558 . S
O572 C592 1.257 . S
O573 Eu528 2.612 . S
O573 Eu539 2.380 . S
O573 C584 1.276 . S
O574 Eu539 2.432 . S
O574 C591 1.264 . S
O575 Eu528 2.339 . S
O575 C591 1.254 . S
O576 Eu528 2.563 . S
O576 C584 1.235 . S
O577 Eu528 2.419 . S
O577 C592 1.249 . S
O578 Eu539 2.558 . S
O578 C603 1.257 . S
O579 Eu528 2.380 . S
O579 Eu539 2.612 . S
O579 C595 1.276 . S
O580 Eu528 2.432 . S
O580 C602 1.264 . S
O581 Eu539 2.339 . S
O581 C602 1.254 . S
O582 Eu539 2.563 . S
O582 C595 1.235 . S
O583 Eu539 2.419 . S
O583 C603 1.249 . S
C584 O573 1.276 . S
C584 O576 1.235 . S
C585 C587 1.393 . S
C585 C589 1.395 . S
C585 C592 1.492 . S
C586 C587 1.392 . S
C586 C588 1.386 . S
C587 C585 1.393 . S
C587 C586 1.392 . S
C587 H604 0.930 . S
C588 C586 1.386 . S
C588 C590 1.395 . S
C588 H605 0.930 . S
C589 C585 1.395 . S
C589 C590 1.379 . S
C589 H606 0.930 . S
C590 C588 1.395 . S
C590 C589 1.379 . S
C590 H607 0.930 . S
C591 O574 1.264 . S
C591 O575 1.254 . S
C592 Eu528 2.848 . S
C592 O572 1.257 . S
C592 O577 1.249 . S
C592 C585 1.492 . S
C593 H558 0.931 . S
C593 C571 1.420 . S
C593 C594 1.351 . S
C594 H556 0.930 . S
C594 C562 1.423 . S
C594 C593 1.351 . S
C595 O579 1.276 . S
C595 O582 1.235 . S
C596 C597 1.393 . S
C596 C600 1.395 . S
C596 C603 1.492 . S
C597 C596 1.393 . S
C597 C598 1.392 . S
C597 H608 0.930 . S
C598 C597 1.392 . S
C598 C599 1.386 . S
C599 C598 1.386 . S
C599 C601 1.395 . S
C599 H609 0.930 . S
C600 C596 1.395 . S
C600 C601 1.379 . S
C600 H610 0.930 . S
C601 C599 1.395 . S
C601 C600 1.379 . S
C601 H611 0.930 . S
C602 O580 1.264 . S
C602 O581 1.254 . S
C603 Eu539 2.848 . S
C603 O578 1.257 . S
C603 O583 1.249 . S
C603 C596 1.492 . S
H604 C587 0.930 . S
H605 C588 0.930 . S
H606 C589 0.930 . S
H607 C590 0.930 . S
H608 C597 0.930 . S
H609 C599 0.930 . S
H610 C600 0.930 . S
H611 C601 0.930 . S
Eu612 N643 2.657 . S
Eu612 N650 2.609 . S
Eu612 O656 2.558 . S
Eu612 O657 2.612 . S
Eu612 O659 2.339 . S
Eu612 O660 2.563 . S
Eu612 O661 2.419 . S
Eu612 O663 2.380 . S
Eu612 O664 2.432 . S
Eu612 C676 2.848 . S
C613 C616 1.429 . S
C613 C617 1.411 . S
C613 N620 1.377 . S
C614 C616 1.420 . S
C614 C618 1.423 . S
C614 C626 1.392 . S
C615 C617 1.420 . S
C615 C618 1.351 . S
C615 H638 0.931 . S
C616 C613 1.429 . S
C616 C614 1.420 . S
C616 N624 1.362 . S
C617 C613 1.411 . S
C617 C615 1.420 . S
C617 C622 1.395 . S
C618 C614 1.423 . S
C618 C615 1.351 . S
C618 H630 0.930 . S
C619 C621 1.400 . S
C619 C622 1.386 . S
C619 H631 0.930 . S
N620 C613 1.377 . S
N620 C621 1.321 . S
N620 Eu623 2.609 . S
C621 C619 1.400 . S
C621 N620 1.321 . S
C621 H628 0.930 . S
C622 C617 1.395 . S
C622 C619 1.386 . S
C622 H641 0.930 . S
Eu623 N620 2.609 . S
Eu623 N624 2.657 . S
Eu623 O657 2.380 . S
Eu623 O658 2.432 . S
Eu623 O662 2.558 . S
Eu623 O663 2.612 . S
Eu623 O665 2.339 . S
Eu623 O666 2.563 . S
Eu623 O667 2.419 . S
Eu623 C687 2.848 . S
N624 C616 1.362 . S
N624 Eu623 2.657 . S
N624 C625 1.334 . S
C625 N624 1.334 . S
C625 C627 1.413 . S
C625 H632 0.929 . S
C626 C614 1.392 . S
C626 C627 1.367 . S
C626 H634 0.930 . S
C627 C625 1.413 . S
C627 C626 1.367 . S
C627 H629 0.930 . S
H628 C621 0.930 . S
H629 C627 0.930 . S
H630 C618 0.930 . S
H631 C619 0.930 . S
H632 C625 0.929 . S
H633 C647 0.930 . S
H634 C626 0.930 . S
H635 C653 0.930 . S
H636 C644 0.929 . S
H637 C651 0.930 . S
H638 C615 0.931 . S
H639 C645 0.930 . S
H640 C678 0.930 . S
H641 C622 0.930 . S
H642 C677 0.931 . S
N643 Eu612 2.657 . S
N643 C644 1.334 . S
N643 C648 1.362 . S
C644 H636 0.929 . S
C644 N643 1.334 . S
C644 C647 1.413 . S
C645 H639 0.930 . S
C645 C646 1.392 . S
C645 C647 1.367 . S
C646 C645 1.392 . S
C646 C648 1.420 . S
C646 C678 1.423 . S
C647 H633 0.930 . S
C647 C644 1.413 . S
C647 C645 1.367 . S
C648 N643 1.362 . S
C648 C646 1.420 . S
C648 C652 1.429 . S
H649 C654 0.930 . S
N650 Eu612 2.609 . S
N650 C652 1.377 . S
N650 C653 1.321 . S
C651 H637 0.930 . S
C651 C653 1.400 . S
C651 C654 1.386 . S
C652 C648 1.429 . S
C652 N650 1.377 . S
C652 C655 1.411 . S
C653 H635 0.930 . S
C653 N650 1.321 . S
C653 C651 1.400 . S
C654 H649 0.930 . S
C654 C651 1.386 . S
C654 C655 1.395 . S
C655 C652 1.411 . S
C655 C654 1.395 . S
C655 C677 1.420 . S
O656 Eu612 2.558 . S
O656 C676 1.257 . S
O657 Eu612 2.612 . S
O657 Eu623 2.380 . S
O657 C668 1.276 . S
O658 Eu623 2.432 . S
O658 C675 1.264 . S
O659 Eu612 2.339 . S
O659 C675 1.254 . S
O660 Eu612 2.563 . S
O660 C668 1.235 . S
O661 Eu612 2.419 . S
O661 C676 1.249 . S
O662 Eu623 2.558 . S
O662 C687 1.257 . S
O663 Eu612 2.380 . S
O663 Eu623 2.612 . S
O663 C679 1.276 . S
O664 Eu612 2.432 . S
O664 C686 1.264 . S
O665 Eu623 2.339 . S
O665 C686 1.254 . S
O666 Eu623 2.563 . S
O666 C679 1.235 . S
O667 Eu623 2.419 . S
O667 C687 1.249 . S
C668 O657 1.276 . S
C668 O660 1.235 . S
C669 C671 1.393 . S
C669 C673 1.395 . S
C669 C676 1.492 . S
C670 C671 1.392 . S
C670 C672 1.386 . S
C671 C669 1.393 . S
C671 C670 1.392 . S
C671 H688 0.930 . S
C672 C670 1.386 . S
C672 C674 1.395 . S
C672 H689 0.930 . S
C673 C669 1.395 . S
C673 C674 1.379 . S
C673 H690 0.930 . S
C674 C672 1.395 . S
C674 C673 1.379 . S
C674 H691 0.930 . S
C675 O658 1.264 . S
C675 O659 1.254 . S
C676 Eu612 2.848 . S
C676 O656 1.257 . S
C676 O661 1.249 . S
C676 C669 1.492 . S
C677 H642 0.931 . S
C677 C655 1.420 . S
C677 C678 1.351 . S
C678 H640 0.930 . S
C678 C646 1.423 . S
C678 C677 1.351 . S
C679 O663 1.276 . S
C679 O666 1.235 . S
C680 C681 1.393 . S
C680 C684 1.395 . S
C680 C687 1.492 . S
C681 C680 1.393 . S
C681 C682 1.392 . S
C681 H692 0.930 . S
C682 C681 1.392 . S
C682 C683 1.386 . S
C683 C682 1.386 . S
C683 C685 1.395 . S
C683 H693 0.930 . S
C684 C680 1.395 . S
C684 C685 1.379 . S
C684 H694 0.930 . S
C685 C683 1.395 . S
C685 C684 1.379 . S
C685 H695 0.930 . S
C686 O664 1.264 . S
C686 O665 1.254 . S
C687 Eu623 2.848 . S
C687 O662 1.257 . S
C687 O667 1.249 . S
C687 C680 1.492 . S
H688 C671 0.930 . S
H689 C672 0.930 . S
H690 C673 0.930 . S
H691 C674 0.930 . S
H692 C681 0.930 . S
H693 C683 0.930 . S
H694 C684 0.930 . S
H695 C685 0.930 . S
Eu696 N727 2.657 . S
Eu696 N734 2.609 . S
Eu696 O740 2.558 . S
Eu696 O741 2.612 . S
Eu696 O743 2.339 . S
Eu696 O744 2.563 . S
Eu696 O745 2.419 . S
Eu696 O747 2.380 . S
Eu696 O748 2.432 . S
Eu696 C760 2.848 . S
C697 C700 1.429 . S
C697 C701 1.411 . S
C697 N704 1.377 . S
C698 C700 1.420 . S
C698 C702 1.423 . S
C698 C710 1.392 . S
C699 C701 1.420 . S
C699 C702 1.351 . S
C699 H722 0.931 . S
C700 C697 1.429 . S
C700 C698 1.420 . S
C700 N708 1.362 . S
C701 C697 1.411 . S
C701 C699 1.420 . S
C701 C706 1.395 . S
C702 C698 1.423 . S
C702 C699 1.351 . S
C702 H714 0.930 . S
C703 C705 1.400 . S
C703 C706 1.386 . S
C703 H715 0.930 . S
N704 C697 1.377 . S
N704 C705 1.321 . S
N704 Eu707 2.609 . S
C705 C703 1.400 . S
C705 N704 1.321 . S
C705 H712 0.930 . S
C706 C701 1.395 . S
C706 C703 1.386 . S
C706 H725 0.930 . S
Eu707 N704 2.609 . S
Eu707 N708 2.657 . S
Eu707 O741 2.380 . S
Eu707 O742 2.432 . S
Eu707 O746 2.558 . S
Eu707 O747 2.612 . S
Eu707 O749 2.339 . S
Eu707 O750 2.563 . S
Eu707 O751 2.419 . S
Eu707 C771 2.848 . S
N708 C700 1.362 . S
N708 Eu707 2.657 . S
N708 C709 1.334 . S
C709 N708 1.334 . S
C709 C711 1.413 . S
C709 H716 0.929 . S
C710 C698 1.392 . S
C710 C711 1.367 . S
C710 H718 0.930 . S
C711 C709 1.413 . S
C711 C710 1.367 . S
C711 H713 0.930 . S
H712 C705 0.930 . S
H713 C711 0.930 . S
H714 C702 0.930 . S
H715 C703 0.930 . S
H716 C709 0.929 . S
H717 C731 0.930 . S
H718 C710 0.930 . S
H719 C737 0.930 . S
H720 C728 0.929 . S
H721 C735 0.930 . S
H722 C699 0.931 . S
H723 C729 0.930 . S
H724 C762 0.930 . S
H725 C706 0.930 . S
H726 C761 0.931 . S
N727 Eu696 2.657 . S
N727 C728 1.334 . S
N727 C732 1.362 . S
C728 H720 0.929 . S
C728 N727 1.334 . S
C728 C731 1.413 . S
C729 H723 0.930 . S
C729 C730 1.392 . S
C729 C731 1.367 . S
C730 C729 1.392 . S
C730 C732 1.420 . S
C730 C762 1.423 . S
C731 H717 0.930 . S
C731 C728 1.413 . S
C731 C729 1.367 . S
C732 N727 1.362 . S
C732 C730 1.420 . S
C732 C736 1.429 . S
H733 C738 0.930 . S
N734 Eu696 2.609 . S
N734 C736 1.377 . S
N734 C737 1.321 . S
C735 H721 0.930 . S
C735 C737 1.400 . S
C735 C738 1.386 . S
C736 C732 1.429 . S
C736 N734 1.377 . S
C736 C739 1.411 . S
C737 H719 0.930 . S
C737 N734 1.321 . S
C737 C735 1.400 . S
C738 H733 0.930 . S
C738 C735 1.386 . S
C738 C739 1.395 . S
C739 C736 1.411 . S
C739 C738 1.395 . S
C739 C761 1.420 . S
O740 Eu696 2.558 . S
O740 C760 1.257 . S
O741 Eu696 2.612 . S
O741 Eu707 2.380 . S
O741 C752 1.276 . S
O742 Eu707 2.432 . S
O742 C759 1.264 . S
O743 Eu696 2.339 . S
O743 C759 1.254 . S
O744 Eu696 2.563 . S
O744 C752 1.235 . S
O745 Eu696 2.419 . S
O745 C760 1.249 . S
O746 Eu707 2.558 . S
O746 C771 1.257 . S
O747 Eu696 2.380 . S
O747 Eu707 2.612 . S
O747 C763 1.276 . S
O748 Eu696 2.432 . S
O748 C770 1.264 . S
O749 Eu707 2.339 . S
O749 C770 1.254 . S
O750 Eu707 2.563 . S
O750 C763 1.235 . S
O751 Eu707 2.419 . S
O751 C771 1.249 . S
C752 O741 1.276 . S
C752 O744 1.235 . S
C753 C755 1.393 . S
C753 C757 1.395 . S
C753 C760 1.492 . S
C754 C755 1.392 . S
C754 C756 1.386 . S
C755 C753 1.393 . S
C755 C754 1.392 . S
C755 H772 0.930 . S
C756 C754 1.386 . S
C756 C758 1.395 . S
C756 H773 0.930 . S
C757 C753 1.395 . S
C757 C758 1.379 . S
C757 H774 0.930 . S
C758 C756 1.395 . S
C758 C757 1.379 . S
C758 H775 0.930 . S
C759 O742 1.264 . S
C759 O743 1.254 . S
C760 Eu696 2.848 . S
C760 O740 1.257 . S
C760 O745 1.249 . S
C760 C753 1.492 . S
C761 H726 0.931 . S
C761 C739 1.420 . S
C761 C762 1.351 . S
C762 H724 0.930 . S
C762 C730 1.423 . S
C762 C761 1.351 . S
C763 O747 1.276 . S
C763 O750 1.235 . S
C764 C765 1.393 . S
C764 C768 1.395 . S
C764 C771 1.492 . S
C765 C764 1.393 . S
C765 C766 1.392 . S
C765 H776 0.930 . S
C766 C765 1.392 . S
C766 C767 1.386 . S
C767 C766 1.386 . S
C767 C769 1.395 . S
C767 H777 0.930 . S
C768 C764 1.395 . S
C768 C769 1.379 . S
C768 H778 0.930 . S
C769 C767 1.395 . S
C769 C768 1.379 . S
C769 H779 0.930 . S
C770 O748 1.264 . S
C770 O749 1.254 . S
C771 Eu707 2.848 . S
C771 O746 1.257 . S
C771 O751 1.249 . S
C771 C764 1.492 . S
H772 C755 0.930 . S
H773 C756 0.930 . S
H774 C757 0.930 . S
H775 C758 0.930 . S
H776 C765 0.930 . S
H777 C767 0.930 . S
H778 C768 0.930 . S
H779 C769 0.930 . S
Eu780 N811 2.657 . S
Eu780 N818 2.609 . S
Eu780 O824 2.558 . S
Eu780 O825 2.612 . S
Eu780 O827 2.339 . S
Eu780 O828 2.563 . S
Eu780 O829 2.419 . S
Eu780 O831 2.380 . S
Eu780 O832 2.432 . S
Eu780 C844 2.848 . S
C781 C784 1.429 . S
C781 C785 1.411 . S
C781 N788 1.377 . S
C782 C784 1.420 . S
C782 C786 1.423 . S
C782 C794 1.392 . S
C783 C785 1.420 . S
C783 C786 1.351 . S
C783 H806 0.931 . S
C784 C781 1.429 . S
C784 C782 1.420 . S
C784 N792 1.362 . S
C785 C781 1.411 . S
C785 C783 1.420 . S
C785 C790 1.395 . S
C786 C782 1.423 . S
C786 C783 1.351 . S
C786 H798 0.930 . S
C787 C789 1.400 . S
C787 C790 1.386 . S
C787 H799 0.930 . S
N788 C781 1.377 . S
N788 C789 1.321 . S
N788 Eu791 2.609 . S
C789 C787 1.400 . S
C789 N788 1.321 . S
C789 H796 0.930 . S
C790 C785 1.395 . S
C790 C787 1.386 . S
C790 H809 0.930 . S
Eu791 N788 2.609 . S
Eu791 N792 2.657 . S
Eu791 O825 2.380 . S
Eu791 O826 2.432 . S
Eu791 O830 2.558 . S
Eu791 O831 2.612 . S
Eu791 O833 2.339 . S
Eu791 O834 2.563 . S
Eu791 O835 2.419 . S
Eu791 C855 2.848 . S
N792 C784 1.362 . S
N792 Eu791 2.657 . S
N792 C793 1.334 . S
C793 N792 1.334 . S
C793 C795 1.413 . S
C793 H800 0.929 . S
C794 C782 1.392 . S
C794 C795 1.367 . S
C794 H802 0.930 . S
C795 C793 1.413 . S
C795 C794 1.367 . S
C795 H797 0.930 . S
H796 C789 0.930 . S
H797 C795 0.930 . S
H798 C786 0.930 . S
H799 C787 0.930 . S
H800 C793 0.929 . S
H801 C815 0.930 . S
H802 C794 0.930 . S
H803 C821 0.930 . S
H804 C812 0.929 . S
H805 C819 0.930 . S
H806 C783 0.931 . S
H807 C813 0.930 . S
H808 C846 0.930 . S
H809 C790 0.930 . S
H810 C845 0.931 . S
N811 Eu780 2.657 . S
N811 C812 1.334 . S
N811 C816 1.362 . S
C812 H804 0.929 . S
C812 N811 1.334 . S
C812 C815 1.413 . S
C813 H807 0.930 . S
C813 C814 1.392 . S
C813 C815 1.367 . S
C814 C813 1.392 . S
C814 C816 1.420 . S
C814 C846 1.423 . S
C815 H801 0.930 . S
C815 C812 1.413 . S
C815 C813 1.367 . S
C816 N811 1.362 . S
C816 C814 1.420 . S
C816 C820 1.429 . S
H817 C822 0.930 . S
N818 Eu780 2.609 . S
N818 C820 1.377 . S
N818 C821 1.321 . S
C819 H805 0.930 . S
C819 C821 1.400 . S
C819 C822 1.386 . S
C820 C816 1.429 . S
C820 N818 1.377 . S
C820 C823 1.411 . S
C821 H803 0.930 . S
C821 N818 1.321 . S
C821 C819 1.400 . S
C822 H817 0.930 . S
C822 C819 1.386 . S
C822 C823 1.395 . S
C823 C820 1.411 . S
C823 C822 1.395 . S
C823 C845 1.420 . S
O824 Eu780 2.558 . S
O824 C844 1.257 . S
O825 Eu780 2.612 . S
O825 Eu791 2.380 . S
O825 C836 1.276 . S
O826 Eu791 2.432 . S
O826 C843 1.264 . S
O827 Eu780 2.339 . S
O827 C843 1.254 . S
O828 Eu780 2.563 . S
O828 C836 1.235 . S
O829 Eu780 2.419 . S
O829 C844 1.249 . S
O830 Eu791 2.558 . S
O830 C855 1.257 . S
O831 Eu780 2.380 . S
O831 Eu791 2.612 . S
O831 C847 1.276 . S
O832 Eu780 2.432 . S
O832 C854 1.264 . S
O833 Eu791 2.339 . S
O833 C854 1.254 . S
O834 Eu791 2.563 . S
O834 C847 1.235 . S
O835 Eu791 2.419 . S
O835 C855 1.249 . S
C836 O825 1.276 . S
C836 O828 1.235 . S
C837 C839 1.393 . S
C837 C841 1.395 . S
C837 C844 1.492 . S
C838 C839 1.392 . S
C838 C840 1.386 . S
C839 C837 1.393 . S
C839 C838 1.392 . S
C839 H856 0.930 . S
C840 C838 1.386 . S
C840 C842 1.395 . S
C840 H857 0.930 . S
C841 C837 1.395 . S
C841 C842 1.379 . S
C841 H858 0.930 . S
C842 C840 1.395 . S
C842 C841 1.379 . S
C842 H859 0.930 . S
C843 O826 1.264 . S
C843 O827 1.254 . S
C844 Eu780 2.848 . S
C844 O824 1.257 . S
C844 O829 1.249 . S
C844 C837 1.492 . S
C845 H810 0.931 . S
C845 C823 1.420 . S
C845 C846 1.351 . S
C846 H808 0.930 . S
C846 C814 1.423 . S
C846 C845 1.351 . S
C847 O831 1.276 . S
C847 O834 1.235 . S
C848 C849 1.393 . S
C848 C852 1.395 . S
C848 C855 1.492 . S
C849 C848 1.393 . S
C849 C850 1.392 . S
C849 H860 0.930 . S
C850 C849 1.392 . S
C850 C851 1.386 . S
C851 C850 1.386 . S
C851 C853 1.395 . S
C851 H861 0.930 . S
C852 C848 1.395 . S
C852 C853 1.379 . S
C852 H862 0.930 . S
C853 C851 1.395 . S
C853 C852 1.379 . S
C853 H863 0.930 . S
C854 O832 1.264 . S
C854 O833 1.254 . S
C855 Eu791 2.848 . S
C855 O830 1.257 . S
C855 O835 1.249 . S
C855 C848 1.492 . S
H856 C839 0.930 . S
H857 C840 0.930 . S
H858 C841 0.930 . S
H859 C842 0.930 . S
H860 C849 0.930 . S
H861 C851 0.930 . S
H862 C852 0.930 . S
H863 C853 0.930 . S
Eu864 N895 2.657 . S
Eu864 N902 2.609 . S
Eu864 O908 2.558 . S
Eu864 O909 2.612 . S
Eu864 O911 2.339 . S
Eu864 O912 2.563 . S
Eu864 O913 2.419 . S
Eu864 O915 2.380 . S
Eu864 O916 2.432 . S
Eu864 C928 2.848 . S
C865 C868 1.429 . S
C865 C869 1.411 . S
C865 N872 1.377 . S
C866 C868 1.420 . S
C866 C870 1.423 . S
C866 C878 1.392 . S
C867 C869 1.420 . S
C867 C870 1.351 . S
C867 H890 0.931 . S
C868 C865 1.429 . S
C868 C866 1.420 . S
C868 N876 1.362 . S
C869 C865 1.411 . S
C869 C867 1.420 . S
C869 C874 1.395 . S
C870 C866 1.423 . S
C870 C867 1.351 . S
C870 H882 0.930 . S
C871 C873 1.400 . S
C871 C874 1.386 . S
C871 H883 0.930 . S
N872 C865 1.377 . S
N872 C873 1.321 . S
N872 Eu875 2.609 . S
C873 C871 1.400 . S
C873 N872 1.321 . S
C873 H880 0.930 . S
C874 C869 1.395 . S
C874 C871 1.386 . S
C874 H893 0.930 . S
Eu875 N872 2.609 . S
Eu875 N876 2.657 . S
Eu875 O909 2.380 . S
Eu875 O910 2.432 . S
Eu875 O914 2.558 . S
Eu875 O915 2.612 . S
Eu875 O917 2.339 . S
Eu875 O918 2.563 . S
Eu875 O919 2.419 . S
Eu875 C939 2.848 . S
N876 C868 1.362 . S
N876 Eu875 2.657 . S
N876 C877 1.334 . S
C877 N876 1.334 . S
C877 C879 1.413 . S
C877 H884 0.929 . S
C878 C866 1.392 . S
C878 C879 1.367 . S
C878 H886 0.930 . S
C879 C877 1.413 . S
C879 C878 1.367 . S
C879 H881 0.930 . S
H880 C873 0.930 . S
H881 C879 0.930 . S
H882 C870 0.930 . S
H883 C871 0.930 . S
H884 C877 0.929 . S
H885 C899 0.930 . S
H886 C878 0.930 . S
H887 C905 0.930 . S
H888 C896 0.929 . S
H889 C903 0.930 . S
H890 C867 0.931 . S
H891 C897 0.930 . S
H892 C930 0.930 . S
H893 C874 0.930 . S
H894 C929 0.931 . S
N895 Eu864 2.657 . S
N895 C896 1.334 . S
N895 C900 1.362 . S
C896 H888 0.929 . S
C896 N895 1.334 . S
C896 C899 1.413 . S
C897 H891 0.930 . S
C897 C898 1.392 . S
C897 C899 1.367 . S
C898 C897 1.392 . S
C898 C900 1.420 . S
C898 C930 1.423 . S
C899 H885 0.930 . S
C899 C896 1.413 . S
C899 C897 1.367 . S
C900 N895 1.362 . S
C900 C898 1.420 . S
C900 C904 1.429 . S
H901 C906 0.930 . S
N902 Eu864 2.609 . S
N902 C904 1.377 . S
N902 C905 1.321 . S
C903 H889 0.930 . S
C903 C905 1.400 . S
C903 C906 1.386 . S
C904 C900 1.429 . S
C904 N902 1.377 . S
C904 C907 1.411 . S
C905 H887 0.930 . S
C905 N902 1.321 . S
C905 C903 1.400 . S
C906 H901 0.930 . S
C906 C903 1.386 . S
C906 C907 1.395 . S
C907 C904 1.411 . S
C907 C906 1.395 . S
C907 C929 1.420 . S
O908 Eu864 2.558 . S
O908 C928 1.257 . S
O909 Eu864 2.612 . S
O909 Eu875 2.380 . S
O909 C920 1.276 . S
O910 Eu875 2.432 . S
O910 C927 1.264 . S
O911 Eu864 2.339 . S
O911 C927 1.254 . S
O912 Eu864 2.563 . S
O912 C920 1.235 . S
O913 Eu864 2.419 . S
O913 C928 1.249 . S
O914 Eu875 2.558 . S
O914 C939 1.257 . S
O915 Eu864 2.380 . S
O915 Eu875 2.612 . S
O915 C931 1.276 . S
O916 Eu864 2.432 . S
O916 C938 1.264 . S
O917 Eu875 2.339 . S
O917 C938 1.254 . S
O918 Eu875 2.563 . S
O918 C931 1.235 . S
O919 Eu875 2.419 . S
O919 C939 1.249 . S
C920 O909 1.276 . S
C920 O912 1.235 . S
C921 C923 1.393 . S
C921 C925 1.395 . S
C921 C928 1.492 . S
C922 C923 1.392 . S
C922 C924 1.386 . S
C923 C921 1.393 . S
C923 C922 1.392 . S
C923 H940 0.930 . S
C924 C922 1.386 . S
C924 C926 1.395 . S
C924 H941 0.930 . S
C925 C921 1.395 . S
C925 C926 1.379 . S
C925 H942 0.930 . S
C926 C924 1.395 . S
C926 C925 1.379 . S
C926 H943 0.930 . S
C927 O910 1.264 . S
C927 O911 1.254 . S
C928 Eu864 2.848 . S
C928 O908 1.257 . S
C928 O913 1.249 . S
C928 C921 1.492 . S
C929 H894 0.931 . S
C929 C907 1.420 . S
C929 C930 1.351 . S
C930 H892 0.930 . S
C930 C898 1.423 . S
C930 C929 1.351 . S
C931 O915 1.276 . S
C931 O918 1.235 . S
C932 C933 1.393 . S
C932 C936 1.395 . S
C932 C939 1.492 . S
C933 C932 1.393 . S
C933 C934 1.392 . S
C933 H944 0.930 . S
C934 C933 1.392 . S
C934 C935 1.386 . S
C935 C934 1.386 . S
C935 C937 1.395 . S
C935 H945 0.930 . S
C936 C932 1.395 . S
C936 C937 1.379 . S
C936 H946 0.930 . S
C937 C935 1.395 . S
C937 C936 1.379 . S
C937 H947 0.930 . S
C938 O916 1.264 . S
C938 O917 1.254 . S
C939 Eu875 2.848 . S
C939 O914 1.257 . S
C939 O919 1.249 . S
C939 C932 1.492 . S
H940 C923 0.930 . S
H941 C924 0.930 . S
H942 C925 0.930 . S
H943 C926 0.930 . S
H944 C933 0.930 . S
H945 C935 0.930 . S
H946 C936 0.930 . S
H947 C937 0.930 . S
C948 C949 1.349 . S
C948 C950 1.327 . S
C948 H973 0.950 . S
C949 C948 1.349 . S
C949 C965 1.349 . S
C950 C948 1.327 . S
C950 C969 1.429 . S
C950 H974 0.950 . S
C951 C968 1.574 . S
C951 C970 1.368 . S
C951 H975 0.949 . S
H952 C956 0.949 . S
C953 C954 1.349 . S
C953 C955 1.327 . S
C953 H976 0.950 . S
C954 C953 1.349 . S
C954 C966 1.349 . S
C955 C953 1.327 . S
C955 C971 1.429 . S
C955 H977 0.950 . S
C956 H952 0.949 . S
C956 C964 1.574 . S
C956 C972 1.368 . S
H957 C965 0.950 . S
H958 C963 0.950 . S
H959 C964 0.949 . S
H960 C966 0.950 . S
H961 C967 0.950 . S
H962 C968 0.949 . S
C963 H958 0.950 . S
C963 C965 1.327 . S
C963 C969 1.429 . S
C964 C956 1.574 . S
C964 H959 0.949 . S
C964 C970 1.368 . S
C965 C949 1.349 . S
C965 H957 0.950 . S
C965 C963 1.327 . S
C966 C954 1.349 . S
C966 H960 0.950 . S
C966 C967 1.327 . S
C967 H961 0.950 . S
C967 C966 1.327 . S
C967 C971 1.429 . S
C968 C951 1.574 . S
C968 H962 0.949 . S
C968 C972 1.368 . S
C969 C950 1.429 . S
C969 C963 1.429 . S
C969 C970 1.523 . S
C970 C951 1.368 . S
C970 C964 1.368 . S
C970 C969 1.523 . S
C971 C955 1.429 . S
C971 C967 1.429 . S
C971 C972 1.523 . S
C972 C956 1.368 . S
C972 C968 1.368 . S
C972 C971 1.523 . S
H973 C948 0.950 . S
H974 C950 0.950 . S
H975 C951 0.949 . S
H976 C953 0.950 . S
H977 C955 0.950 . S
C978 C979 1.349 . S
C978 C980 1.327 . S
C978 H1003 0.950 . S
C979 C978 1.349 . S
C979 C995 1.349 . S
C980 C978 1.327 . S
C980 C999 1.429 . S
C980 H1004 0.950 . S
C981 C998 1.574 . S
C981 C1000 1.368 . S
C981 H1005 0.949 . S
H982 C986 0.949 . S
C983 C984 1.349 . S
C983 C985 1.327 . S
C983 H1006 0.950 . S
C984 C983 1.349 . S
C984 C996 1.349 . S
C985 C983 1.327 . S
C985 C1001 1.429 . S
C985 H1007 0.950 . S
C986 H982 0.949 . S
C986 C994 1.574 . S
C986 C1002 1.368 . S
H987 C995 0.950 . S
H988 C993 0.950 . S
H989 C994 0.949 . S
H990 C996 0.950 . S
H991 C997 0.950 . S
H992 C998 0.949 . S
C993 H988 0.950 . S
C993 C995 1.327 . S
C993 C999 1.429 . S
C994 C986 1.574 . S
C994 H989 0.949 . S
C994 C1000 1.368 . S
C995 C979 1.349 . S
C995 H987 0.950 . S
C995 C993 1.327 . S
C996 C984 1.349 . S
C996 H990 0.950 . S
C996 C997 1.327 . S
C997 H991 0.950 . S
C997 C996 1.327 . S
C997 C1001 1.429 . S
C998 C981 1.574 . S
C998 H992 0.949 . S
C998 C1002 1.368 . S
C999 C980 1.429 . S
C999 C993 1.429 . S
C999 C1000 1.523 . S
C1000 C981 1.368 . S
C1000 C994 1.368 . S
C1000 C999 1.523 . S
C1001 C985 1.429 . S
C1001 C997 1.429 . S
C1001 C1002 1.523 . S
C1002 C986 1.368 . S
C1002 C998 1.368 . S
C1002 C1001 1.523 . S
H1003 C978 0.950 . S
H1004 C980 0.950 . S
H1005 C981 0.949 . S
H1006 C983 0.950 . S
H1007 C985 0.950 . S
C1008 C1009 1.349 . S
C1008 C1010 1.327 . S
C1008 H1033 0.950 . S
C1009 C1008 1.349 . S
C1009 C1025 1.349 . S
C1010 C1008 1.327 . S
C1010 C1029 1.429 . S
C1010 H1034 0.950 . S
C1011 C1028 1.574 . S
C1011 C1030 1.368 . S
C1011 H1035 0.949 . S
H1012 C1016 0.949 . S
C1013 C1014 1.349 . S
C1013 C1015 1.327 . S
C1013 H1036 0.950 . S
C1014 C1013 1.349 . S
C1014 C1026 1.349 . S
C1015 C1013 1.327 . S
C1015 C1031 1.429 . S
C1015 H1037 0.950 . S
C1016 H1012 0.949 . S
C1016 C1024 1.574 . S
C1016 C1032 1.368 . S
H1017 C1025 0.950 . S
H1018 C1023 0.950 . S
H1019 C1024 0.949 . S
H1020 C1026 0.950 . S
H1021 C1027 0.950 . S
H1022 C1028 0.949 . S
C1023 H1018 0.950 . S
C1023 C1025 1.327 . S
C1023 C1029 1.429 . S
C1024 C1016 1.574 . S
C1024 H1019 0.949 . S
C1024 C1030 1.368 . S
C1025 C1009 1.349 . S
C1025 H1017 0.950 . S
C1025 C1023 1.327 . S
C1026 C1014 1.349 . S
C1026 H1020 0.950 . S
C1026 C1027 1.327 . S
C1027 H1021 0.950 . S
C1027 C1026 1.327 . S
C1027 C1031 1.429 . S
C1028 C1011 1.574 . S
C1028 H1022 0.949 . S
C1028 C1032 1.368 . S
C1029 C1010 1.429 . S
C1029 C1023 1.429 . S
C1029 C1030 1.523 . S
C1030 C1011 1.368 . S
C1030 C1024 1.368 . S
C1030 C1029 1.523 . S
C1031 C1015 1.429 . S
C1031 C1027 1.429 . S
C1031 C1032 1.523 . S
C1032 C1016 1.368 . S
C1032 C1028 1.368 . S
C1032 C1031 1.523 . S
H1033 C1008 0.950 . S
H1034 C1010 0.950 . S
H1035 C1011 0.949 . S
H1036 C1013 0.950 . S
H1037 C1015 0.950 . S
C1038 C1039 1.349 . S
C1038 C1040 1.327 . S
C1038 H1063 0.950 . S
C1039 C1038 1.349 . S
C1039 C1055 1.349 . S
C1040 C1038 1.327 . S
C1040 C1059 1.429 . S
C1040 H1064 0.950 . S
C1041 C1058 1.574 . S
C1041 C1060 1.368 . S
C1041 H1065 0.949 . S
H1042 C1046 0.949 . S
C1043 C1044 1.349 . S
C1043 C1045 1.327 . S
C1043 H1066 0.950 . S
C1044 C1043 1.349 . S
C1044 C1056 1.349 . S
C1045 C1043 1.327 . S
C1045 C1061 1.429 . S
C1045 H1067 0.950 . S
C1046 H1042 0.949 . S
C1046 C1054 1.574 . S
C1046 C1062 1.368 . S
H1047 C1055 0.950 . S
H1048 C1053 0.950 . S
H1049 C1054 0.949 . S
H1050 C1056 0.950 . S
H1051 C1057 0.950 . S
H1052 C1058 0.949 . S
C1053 H1048 0.950 . S
C1053 C1055 1.327 . S
C1053 C1059 1.429 . S
C1054 C1046 1.574 . S
C1054 H1049 0.949 . S
C1054 C1060 1.368 . S
C1055 C1039 1.349 . S
C1055 H1047 0.950 . S
C1055 C1053 1.327 . S
C1056 C1044 1.349 . S
C1056 H1050 0.950 . S
C1056 C1057 1.327 . S
C1057 H1051 0.950 . S
C1057 C1056 1.327 . S
C1057 C1061 1.429 . S
C1058 C1041 1.574 . S
C1058 H1052 0.949 . S
C1058 C1062 1.368 . S
C1059 C1040 1.429 . S
C1059 C1053 1.429 . S
C1059 C1060 1.523 . S
C1060 C1041 1.368 . S
C1060 C1054 1.368 . S
C1060 C1059 1.523 . S
C1061 C1045 1.429 . S
C1061 C1057 1.429 . S
C1061 C1062 1.523 . S
C1062 C1046 1.368 . S
C1062 C1058 1.368 . S
C1062 C1061 1.523 . S
H1063 C1038 0.950 . S
H1064 C1040 0.950 . S
H1065 C1041 0.949 . S
H1066 C1043 0.950 . S
H1067 C1045 0.950 . S
C1068 C1069 1.349 . S
C1068 C1070 1.327 . S
C1068 H1093 0.950 . S
C1069 C1068 1.349 . S
C1069 C1085 1.349 . S
C1070 C1068 1.327 . S
C1070 C1089 1.429 . S
C1070 H1094 0.950 . S
C1071 C1088 1.574 . S
C1071 C1090 1.368 . S
C1071 H1095 0.949 . S
H1072 C1076 0.949 . S
C1073 C1074 1.349 . S
C1073 C1075 1.327 . S
C1073 H1096 0.950 . S
C1074 C1073 1.349 . S
C1074 C1086 1.349 . S
C1075 C1073 1.327 . S
C1075 C1091 1.429 . S
C1075 H1097 0.950 . S
C1076 H1072 0.949 . S
C1076 C1084 1.574 . S
C1076 C1092 1.368 . S
H1077 C1085 0.950 . S
H1078 C1083 0.950 . S
H1079 C1084 0.949 . S
H1080 C1086 0.950 . S
H1081 C1087 0.950 . S
H1082 C1088 0.949 . S
C1083 H1078 0.950 . S
C1083 C1085 1.327 . S
C1083 C1089 1.429 . S
C1084 C1076 1.574 . S
C1084 H1079 0.949 . S
C1084 C1090 1.368 . S
C1085 C1069 1.349 . S
C1085 H1077 0.950 . S
C1085 C1083 1.327 . S
C1086 C1074 1.349 . S
C1086 H1080 0.950 . S
C1086 C1087 1.327 . S
C1087 H1081 0.950 . S
C1087 C1086 1.327 . S
C1087 C1091 1.429 . S
C1088 C1071 1.574 . S
C1088 H1082 0.949 . S
C1088 C1092 1.368 . S
C1089 C1070 1.429 . S
C1089 C1083 1.429 . S
C1089 C1090 1.523 . S
C1090 C1071 1.368 . S
C1090 C1084 1.368 . S
C1090 C1089 1.523 . S
C1091 C1075 1.429 . S
C1091 C1087 1.429 . S
C1091 C1092 1.523 . S
C1092 C1076 1.368 . S
C1092 C1088 1.368 . S
C1092 C1091 1.523 . S
H1093 C1068 0.950 . S
H1094 C1070 0.950 . S
H1095 C1071 0.949 . S
H1096 C1073 0.950 . S
H1097 C1075 0.950 . S
C1098 C1099 1.349 . S
C1098 C1100 1.327 . S
C1098 H1123 0.950 . S
C1099 C1098 1.349 . S
C1099 C1115 1.349 . S
C1100 C1098 1.327 . S
C1100 C1119 1.429 . S
C1100 H1124 0.950 . S
C1101 C1118 1.574 . S
C1101 C1120 1.368 . S
C1101 H1125 0.949 . S
H1102 C1106 0.949 . S
C1103 C1104 1.349 . S
C1103 C1105 1.327 . S
C1103 H1126 0.950 . S
C1104 C1103 1.349 . S
C1104 C1116 1.349 . S
C1105 C1103 1.327 . S
C1105 C1121 1.429 . S
C1105 H1127 0.950 . S
C1106 H1102 0.949 . S
C1106 C1114 1.574 . S
C1106 C1122 1.368 . S
H1107 C1115 0.950 . S
H1108 C1113 0.950 . S
H1109 C1114 0.949 . S
H1110 C1116 0.950 . S
H1111 C1117 0.950 . S
H1112 C1118 0.949 . S
C1113 H1108 0.950 . S
C1113 C1115 1.327 . S
C1113 C1119 1.429 . S
C1114 C1106 1.574 . S
C1114 H1109 0.949 . S
C1114 C1120 1.368 . S
C1115 C1099 1.349 . S
C1115 H1107 0.950 . S
C1115 C1113 1.327 . S
C1116 C1104 1.349 . S
C1116 H1110 0.950 . S
C1116 C1117 1.327 . S
C1117 H1111 0.950 . S
C1117 C1116 1.327 . S
C1117 C1121 1.429 . S
C1118 C1101 1.574 . S
C1118 H1112 0.949 . S
C1118 C1122 1.368 . S
C1119 C1100 1.429 . S
C1119 C1113 1.429 . S
C1119 C1120 1.523 . S
C1120 C1101 1.368 . S
C1120 C1114 1.368 . S
C1120 C1119 1.523 . S
C1121 C1105 1.429 . S
C1121 C1117 1.429 . S
C1121 C1122 1.523 . S
C1122 C1106 1.368 . S
C1122 C1118 1.368 . S
C1122 C1121 1.523 . S
H1123 C1098 0.950 . S
H1124 C1100 0.950 . S
H1125 C1101 0.949 . S
H1126 C1103 0.950 . S
H1127 C1105 0.950 . S
C1128 C1129 1.349 . S
C1128 C1130 1.327 . S
C1128 H1153 0.950 . S
C1129 C1128 1.349 . S
C1129 C1145 1.349 . S
C1130 C1128 1.327 . S
C1130 C1149 1.429 . S
C1130 H1154 0.950 . S
C1131 C1148 1.574 . S
C1131 C1150 1.368 . S
C1131 H1155 0.949 . S
H1132 C1136 0.949 . S
C1133 C1134 1.349 . S
C1133 C1135 1.327 . S
C1133 H1156 0.950 . S
C1134 C1133 1.349 . S
C1134 C1146 1.349 . S
C1135 C1133 1.327 . S
C1135 C1151 1.429 . S
C1135 H1157 0.950 . S
C1136 H1132 0.949 . S
C1136 C1144 1.574 . S
C1136 C1152 1.368 . S
H1137 C1145 0.950 . S
H1138 C1143 0.950 . S
H1139 C1144 0.949 . S
H1140 C1146 0.950 . S
H1141 C1147 0.950 . S
H1142 C1148 0.949 . S
C1143 H1138 0.950 . S
C1143 C1145 1.327 . S
C1143 C1149 1.429 . S
C1144 C1136 1.574 . S
C1144 H1139 0.949 . S
C1144 C1150 1.368 . S
C1145 C1129 1.349 . S
C1145 H1137 0.950 . S
C1145 C1143 1.327 . S
C1146 C1134 1.349 . S
C1146 H1140 0.950 . S
C1146 C1147 1.327 . S
C1147 H1141 0.950 . S
C1147 C1146 1.327 . S
C1147 C1151 1.429 . S
C1148 C1131 1.574 . S
C1148 H1142 0.949 . S
C1148 C1152 1.368 . S
C1149 C1130 1.429 . S
C1149 C1143 1.429 . S
C1149 C1150 1.523 . S
C1150 C1131 1.368 . S
C1150 C1144 1.368 . S
C1150 C1149 1.523 . S
C1151 C1135 1.429 . S
C1151 C1147 1.429 . S
C1151 C1152 1.523 . S
C1152 C1136 1.368 . S
C1152 C1148 1.368 . S
C1152 C1151 1.523 . S
H1153 C1128 0.950 . S
H1154 C1130 0.950 . S
H1155 C1131 0.949 . S
H1156 C1133 0.950 . S
H1157 C1135 0.950 . S
C1158 C1159 1.349 . S
C1158 C1160 1.327 . S
C1158 H1183 0.950 . S
C1159 C1158 1.349 . S
C1159 C1175 1.349 . S
C1160 C1158 1.327 . S
C1160 C1179 1.429 . S
C1160 H1184 0.950 . S
C1161 C1178 1.574 . S
C1161 C1180 1.368 . S
C1161 H1185 0.949 . S
H1162 C1166 0.949 . S
C1163 C1164 1.349 . S
C1163 C1165 1.327 . S
C1163 H1186 0.950 . S
C1164 C1163 1.349 . S
C1164 C1176 1.349 . S
C1165 C1163 1.327 . S
C1165 C1181 1.429 . S
C1165 H1187 0.950 . S
C1166 H1162 0.949 . S
C1166 C1174 1.574 . S
C1166 C1182 1.368 . S
H1167 C1175 0.950 1_545 S
H1168 C1173 0.950 . S
H1169 C1174 0.949 . S
H1170 C1176 0.950 . S
H1171 C1177 0.950 . S
H1172 C1178 0.949 . S
C1173 H1168 0.950 . S
C1173 C1175 1.327 . S
C1173 C1179 1.429 . S
C1174 C1166 1.574 . S
C1174 H1169 0.949 . S
C1174 C1180 1.368 . S
C1175 C1159 1.349 . S
C1175 H1167 0.950 1_565 S
C1175 C1173 1.327 . S
C1176 C1164 1.349 . S
C1176 H1170 0.950 . S
C1176 C1177 1.327 . S
C1177 H1171 0.950 . S
C1177 C1176 1.327 . S
C1177 C1181 1.429 . S
C1178 C1161 1.574 . S
C1178 H1172 0.949 . S
C1178 C1182 1.368 . S
C1179 C1160 1.429 . S
C1179 C1173 1.429 . S
C1179 C1180 1.523 . S
C1180 C1161 1.368 . S
C1180 C1174 1.368 . S
C1180 C1179 1.523 . S
C1181 C1165 1.429 . S
C1181 C1177 1.429 . S
C1181 C1182 1.523 . S
C1182 C1166 1.368 . S
C1182 C1178 1.368 . S
C1182 C1181 1.523 . S
H1183 C1158 0.950 . S
H1184 C1160 0.950 . S
H1185 C1161 0.949 . S
H1186 C1163 0.950 . S
H1187 C1165 0.950 . S
C1188 C1189 1.349 . S
C1188 C1190 1.327 . S
C1188 H1213 0.950 . S
C1189 C1188 1.349 . S
C1189 C1205 1.349 . S
C1190 C1188 1.327 . S
C1190 C1209 1.429 . S
C1190 H1214 0.950 . S
C1191 C1208 1.574 . S
C1191 C1210 1.368 . S
C1191 H1215 0.949 . S
H1192 C1196 0.949 . S
C1193 C1194 1.349 . S
C1193 C1195 1.327 . S
C1193 H1216 0.950 . S
C1194 C1193 1.349 . S
C1194 C1206 1.349 . S
C1195 C1193 1.327 . S
C1195 C1211 1.429 . S
C1195 H1217 0.950 . S
C1196 H1192 0.949 . S
C1196 C1204 1.574 . S
C1196 C1212 1.368 . S
H1197 C1205 0.950 . S
H1198 C1203 0.950 . S
H1199 C1204 0.949 . S
H1200 C1206 0.950 . S
H1201 C1207 0.950 . S
H1202 C1208 0.949 . S
C1203 H1198 0.950 . S
C1203 C1205 1.327 . S
C1203 C1209 1.429 . S
C1204 C1196 1.574 . S
C1204 H1199 0.949 . S
C1204 C1210 1.368 . S
C1205 C1189 1.349 . S
C1205 H1197 0.950 . S
C1205 C1203 1.327 . S
C1206 C1194 1.349 . S
C1206 H1200 0.950 . S
C1206 C1207 1.327 . S
C1207 H1201 0.950 . S
C1207 C1206 1.327 . S
C1207 C1211 1.429 . S
C1208 C1191 1.574 . S
C1208 H1202 0.949 . S
C1208 C1212 1.368 . S
C1209 C1190 1.429 . S
C1209 C1203 1.429 . S
C1209 C1210 1.523 . S
C1210 C1191 1.368 . S
C1210 C1204 1.368 . S
C1210 C1209 1.523 . S
C1211 C1195 1.429 . S
C1211 C1207 1.429 . S
C1211 C1212 1.523 . S
C1212 C1196 1.368 . S
C1212 C1208 1.368 . S
C1212 C1211 1.523 . S
H1213 C1188 0.950 . S
H1214 C1190 0.950 . S
H1215 C1191 0.949 . S
H1216 C1193 0.950 . S
H1217 C1195 0.950 . S
C1218 C1219 1.349 . S
C1218 C1220 1.327 . S
C1218 H1243 0.950 . S
C1219 C1218 1.349 . S
C1219 C1235 1.349 . S
C1220 C1218 1.327 . S
C1220 C1239 1.429 . S
C1220 H1244 0.950 . S
C1221 C1238 1.574 . S
C1221 C1240 1.368 . S
C1221 H1245 0.949 . S
H1222 C1226 0.949 . S
C1223 C1224 1.349 . S
C1223 C1225 1.327 . S
C1223 H1246 0.950 . S
C1224 C1223 1.349 . S
C1224 C1236 1.349 . S
C1225 C1223 1.327 . S
C1225 C1241 1.429 . S
C1225 H1247 0.950 . S
C1226 H1222 0.949 . S
C1226 C1234 1.574 . S
C1226 C1242 1.368 . S
H1227 C1235 0.950 . S
H1228 C1233 0.950 . S
H1229 C1234 0.949 . S
H1230 C1236 0.950 . S
H1231 C1237 0.950 . S
H1232 C1238 0.949 . S
C1233 H1228 0.950 . S
C1233 C1235 1.327 . S
C1233 C1239 1.429 . S
C1234 C1226 1.574 . S
C1234 H1229 0.949 . S
C1234 C1240 1.368 . S
C1235 C1219 1.349 . S
C1235 H1227 0.950 . S
C1235 C1233 1.327 . S
C1236 C1224 1.349 . S
C1236 H1230 0.950 . S
C1236 C1237 1.327 . S
C1237 H1231 0.950 . S
C1237 C1236 1.327 . S
C1237 C1241 1.429 . S
C1238 C1221 1.574 . S
C1238 H1232 0.949 . S
C1238 C1242 1.368 . S
C1239 C1220 1.429 . S
C1239 C1233 1.429 . S
C1239 C1240 1.523 . S
C1240 C1221 1.368 . S
C1240 C1234 1.368 . S
C1240 C1239 1.523 . S
C1241 C1225 1.429 . S
C1241 C1237 1.429 . S
C1241 C1242 1.523 . S
C1242 C1226 1.368 . S
C1242 C1238 1.368 . S
C1242 C1241 1.523 . S
H1243 C1218 0.950 . S
H1244 C1220 0.950 . S
H1245 C1221 0.949 . S
H1246 C1223 0.950 . S
H1247 C1225 0.950 . S
C1248 C1249 1.349 . S
C1248 C1250 1.327 . S
C1248 H1273 0.950 . S
C1249 C1248 1.349 . S
C1249 C1265 1.349 . S
C1250 C1248 1.327 . S
C1250 C1269 1.429 . S
C1250 H1274 0.950 . S
C1251 C1268 1.574 . S
C1251 C1270 1.368 . S
C1251 H1275 0.949 . S
H1252 C1256 0.949 . S
C1253 C1254 1.349 . S
C1253 C1255 1.327 . S
C1253 H1276 0.950 . S
C1254 C1253 1.349 . S
C1254 C1266 1.349 . S
C1255 C1253 1.327 . S
C1255 C1271 1.429 . S
C1255 H1277 0.950 . S
C1256 H1252 0.949 . S
C1256 C1264 1.574 . S
C1256 C1272 1.368 . S
H1257 C1265 0.950 . S
H1258 C1263 0.950 . S
H1259 C1264 0.949 . S
H1260 C1266 0.950 . S
H1261 C1267 0.950 . S
H1262 C1268 0.949 . S
C1263 H1258 0.950 . S
C1263 C1265 1.327 . S
C1263 C1269 1.429 . S
C1264 C1256 1.574 . S
C1264 H1259 0.949 . S
C1264 C1270 1.368 . S
C1265 C1249 1.349 . S
C1265 H1257 0.950 . S
C1265 C1263 1.327 . S
C1266 C1254 1.349 . S
C1266 H1260 0.950 . S
C1266 C1267 1.327 . S
C1267 H1261 0.950 . S
C1267 C1266 1.327 . S
C1267 C1271 1.429 . S
C1268 C1251 1.574 . S
C1268 H1262 0.949 . S
C1268 C1272 1.368 . S
C1269 C1250 1.429 . S
C1269 C1263 1.429 . S
C1269 C1270 1.523 . S
C1270 C1251 1.368 . S
C1270 C1264 1.368 . S
C1270 C1269 1.523 . S
C1271 C1255 1.429 . S
C1271 C1267 1.429 . S
C1271 C1272 1.523 . S
C1272 C1256 1.368 . S
C1272 C1268 1.368 . S
C1272 C1271 1.523 . S
H1273 C1248 0.950 . S
H1274 C1250 0.950 . S
H1275 C1251 0.949 . S
H1276 C1253 0.950 . S
H1277 C1255 0.950 . S
C1278 C1279 1.349 . S
C1278 C1280 1.327 . S
C1278 H1303 0.950 . S
C1279 C1278 1.349 . S
C1279 C1295 1.349 . S
C1280 C1278 1.327 . S
C1280 C1299 1.429 . S
C1280 H1304 0.950 . S
C1281 C1298 1.574 . S
C1281 C1300 1.368 . S
C1281 H1305 0.949 . S
H1282 C1286 0.949 . S
C1283 C1284 1.349 . S
C1283 C1285 1.327 . S
C1283 H1306 0.950 . S
C1284 C1283 1.349 . S
C1284 C1296 1.349 . S
C1285 C1283 1.327 . S
C1285 C1301 1.429 . S
C1285 H1307 0.950 . S
C1286 H1282 0.949 . S
C1286 C1294 1.574 . S
C1286 C1302 1.368 . S
H1287 C1295 0.950 . S
H1288 C1293 0.950 . S
H1289 C1294 0.949 . S
H1290 C1296 0.950 . S
H1291 C1297 0.950 . S
H1292 C1298 0.949 . S
C1293 H1288 0.950 . S
C1293 C1295 1.327 . S
C1293 C1299 1.429 . S
C1294 C1286 1.574 . S
C1294 H1289 0.949 . S
C1294 C1300 1.368 . S
C1295 C1279 1.349 . S
C1295 H1287 0.950 . S
C1295 C1293 1.327 . S
C1296 C1284 1.349 . S
C1296 H1290 0.950 . S
C1296 C1297 1.327 . S
C1297 H1291 0.950 . S
C1297 C1296 1.327 . S
C1297 C1301 1.429 . S
C1298 C1281 1.574 . S
C1298 H1292 0.949 . S
C1298 C1302 1.368 . S
C1299 C1280 1.429 . S
C1299 C1293 1.429 . S
C1299 C1300 1.523 . S
C1300 C1281 1.368 . S
C1300 C1294 1.368 . S
C1300 C1299 1.523 . S
C1301 C1285 1.429 . S
C1301 C1297 1.429 . S
C1301 C1302 1.523 . S
C1302 C1286 1.368 . S
C1302 C1298 1.368 . S
C1302 C1301 1.523 . S
H1303 C1278 0.950 . S
H1304 C1280 0.950 . S
H1305 C1281 0.949 . S
H1306 C1283 0.950 . S
H1307 C1285 0.950 . S
C1308 C1309 1.349 1_556 S
C1308 C1310 1.327 . S
C1308 H1333 0.950 1_565 S
C1309 C1308 1.349 1_554 S
C1309 C1325 1.349 . S
C1310 C1308 1.327 . S
C1310 C1329 1.429 . S
C1310 H1334 0.950 . S
C1311 C1328 1.574 . S
C1311 C1330 1.368 . S
C1311 H1335 0.949 . S
H1312 C1316 0.949 . S
C1313 C1314 1.349 . S
C1313 C1315 1.327 . S
C1313 H1336 0.950 . S
C1314 C1313 1.349 . S
C1314 C1326 1.349 . S
C1315 C1313 1.327 . S
C1315 C1331 1.429 . S
C1315 H1337 0.950 . S
C1316 H1312 0.949 . S
C1316 C1324 1.574 . S
C1316 C1332 1.368 . S
H1317 C1325 0.950 . S
H1318 C1323 0.950 . S
H1319 C1324 0.949 . S
H1320 C1326 0.950 . S
H1321 C1327 0.950 . S
H1322 C1328 0.949 . S
C1323 H1318 0.950 . S
C1323 C1325 1.327 . S
C1323 C1329 1.429 1_554 S
C1324 C1316 1.574 . S
C1324 H1319 0.949 . S
C1324 C1330 1.368 . S
C1325 C1309 1.349 . S
C1325 H1317 0.950 . S
C1325 C1323 1.327 . S
C1326 C1314 1.349 . S
C1326 H1320 0.950 . S
C1326 C1327 1.327 . S
C1327 H1321 0.950 . S
C1327 C1326 1.327 . S
C1327 C1331 1.429 . S
C1328 C1311 1.574 . S
C1328 H1322 0.949 . S
C1328 C1332 1.368 . S
C1329 C1310 1.429 . S
C1329 C1323 1.429 1_556 S
C1329 C1330 1.523 . S
C1330 C1311 1.368 . S
C1330 C1324 1.368 . S
C1330 C1329 1.523 . S
C1331 C1315 1.429 . S
C1331 C1327 1.429 . S
C1331 C1332 1.523 . S
C1332 C1316 1.368 . S
C1332 C1328 1.368 . S
C1332 C1331 1.523 . S
H1333 C1308 0.950 1_545 S
H1334 C1310 0.950 . S
H1335 C1311 0.949 . S
H1336 C1313 0.950 . S
H1337 C1315 0.950 . S
C1338 C1339 1.349 . S
C1338 C1340 1.327 . S
C1338 H1363 0.950 1_556 S
C1339 C1338 1.349 . S
C1339 C1355 1.349 . S
C1340 C1338 1.327 . S
C1340 C1359 1.429 . S
C1340 H1364 0.950 . S
C1341 C1358 1.574 . S
C1341 C1360 1.368 . S
C1341 H1365 0.949 . S
H1342 C1346 0.949 . S
C1343 C1344 1.349 . S
C1343 C1345 1.327 . S
C1343 H1366 0.950 . S
C1344 C1343 1.349 . S
C1344 C1356 1.349 . S
C1345 C1343 1.327 . S
C1345 C1361 1.429 . S
C1345 H1367 0.950 . S
C1346 H1342 0.949 . S
C1346 C1354 1.574 . S
C1346 C1362 1.368 . S
H1347 C1355 0.950 . S
H1348 C1353 0.950 . S
H1349 C1354 0.949 . S
H1350 C1356 0.950 . S
H1351 C1357 0.950 . S
H1352 C1358 0.949 . S
C1353 H1348 0.950 . S
C1353 C1355 1.327 . S
C1353 C1359 1.429 . S
C1354 C1346 1.574 . S
C1354 H1349 0.949 . S
C1354 C1360 1.368 . S
C1355 C1339 1.349 . S
C1355 H1347 0.950 . S
C1355 C1353 1.327 . S
C1356 C1344 1.349 . S
C1356 H1350 0.950 . S
C1356 C1357 1.327 . S
C1357 H1351 0.950 . S
C1357 C1356 1.327 . S
C1357 C1361 1.429 . S
C1358 C1341 1.574 . S
C1358 H1352 0.949 . S
C1358 C1362 1.368 . S
C1359 C1340 1.429 . S
C1359 C1353 1.429 . S
C1359 C1360 1.523 . S
C1360 C1341 1.368 . S
C1360 C1354 1.368 . S
C1360 C1359 1.523 . S
C1361 C1345 1.429 . S
C1361 C1357 1.429 . S
C1361 C1362 1.523 . S
C1362 C1346 1.368 . S
C1362 C1358 1.368 . S
C1362 C1361 1.523 . S
H1363 C1338 0.950 1_554 S
H1364 C1340 0.950 . S
H1365 C1341 0.949 . S
H1366 C1343 0.950 . S
H1367 C1345 0.950 . S
C1368 C1369 1.349 . S
C1368 C1370 1.327 . S
C1368 H1393 0.950 . S
C1369 C1368 1.349 . S
C1369 C1385 1.349 . S
C1370 C1368 1.327 . S
C1370 C1389 1.429 . S
C1370 H1394 0.950 . S
C1371 C1388 1.574 . S
C1371 C1390 1.368 . S
C1371 H1395 0.949 . S
H1372 C1376 0.949 . S
C1373 C1374 1.349 . S
C1373 C1375 1.327 . S
C1373 H1396 0.950 . S
C1374 C1373 1.349 . S
C1374 C1386 1.349 . S
C1375 C1373 1.327 . S
C1375 C1391 1.429 . S
C1375 H1397 0.950 . S
C1376 H1372 0.949 . S
C1376 C1384 1.574 . S
C1376 C1392 1.368 . S
H1377 C1385 0.950 . S
H1378 C1383 0.950 . S
H1379 C1384 0.949 . S
H1380 C1386 0.950 . S
H1381 C1387 0.950 . S
H1382 C1388 0.949 . S
C1383 H1378 0.950 . S
C1383 C1385 1.327 . S
C1383 C1389 1.429 . S
C1384 C1376 1.574 . S
C1384 H1379 0.949 . S
C1384 C1390 1.368 . S
C1385 C1369 1.349 . S
C1385 H1377 0.950 . S
C1385 C1383 1.327 . S
C1386 C1374 1.349 . S
C1386 H1380 0.950 . S
C1386 C1387 1.327 . S
C1387 H1381 0.950 . S
C1387 C1386 1.327 . S
C1387 C1391 1.429 . S
C1388 C1371 1.574 . S
C1388 H1382 0.949 . S
C1388 C1392 1.368 . S
C1389 C1370 1.429 . S
C1389 C1383 1.429 . S
C1389 C1390 1.523 . S
C1390 C1371 1.368 . S
C1390 C1384 1.368 . S
C1390 C1389 1.523 . S
C1391 C1375 1.429 . S
C1391 C1387 1.429 . S
C1391 C1392 1.523 . S
C1392 C1376 1.368 . S
C1392 C1388 1.368 . S
C1392 C1391 1.523 . S
H1393 C1368 0.950 . S
H1394 C1370 0.950 . S
H1395 C1371 0.949 . S
H1396 C1373 0.950 . S
H1397 C1375 0.950 . S
C1398 C1399 1.349 . S
C1398 C1400 1.327 . S
C1398 H1423 0.950 . S
C1399 C1398 1.349 . S
C1399 C1415 1.349 . S
C1400 C1398 1.327 . S
C1400 C1419 1.429 . S
C1400 H1424 0.950 . S
C1401 C1418 1.574 . S
C1401 C1420 1.368 . S
C1401 H1425 0.949 . S
H1402 C1406 0.949 . S
C1403 C1404 1.349 . S
C1403 C1405 1.327 . S
C1403 H1426 0.950 . S
C1404 C1403 1.349 . S
C1404 C1416 1.349 . S
C1405 C1403 1.327 . S
C1405 C1421 1.429 . S
C1405 H1427 0.950 . S
C1406 H1402 0.949 . S
C1406 C1414 1.574 . S
C1406 C1422 1.368 . S
H1407 C1415 0.950 . S
H1408 C1413 0.950 . S
H1409 C1414 0.949 . S
H1410 C1416 0.950 . S
H1411 C1417 0.950 . S
H1412 C1418 0.949 . S
C1413 H1408 0.950 . S
C1413 C1415 1.327 . S
C1413 C1419 1.429 . S
C1414 C1406 1.574 . S
C1414 H1409 0.949 . S
C1414 C1420 1.368 . S
C1415 C1399 1.349 . S
C1415 H1407 0.950 . S
C1415 C1413 1.327 . S
C1416 C1404 1.349 . S
C1416 H1410 0.950 . S
C1416 C1417 1.327 . S
C1417 H1411 0.950 . S
C1417 C1416 1.327 . S
C1417 C1421 1.429 . S
C1418 C1401 1.574 . S
C1418 H1412 0.949 . S
C1418 C1422 1.368 . S
C1419 C1400 1.429 . S
C1419 C1413 1.429 . S
C1419 C1420 1.523 . S
C1420 C1401 1.368 . S
C1420 C1414 1.368 . S
C1420 C1419 1.523 . S
C1421 C1405 1.429 . S
C1421 C1417 1.429 . S
C1421 C1422 1.523 . S
C1422 C1406 1.368 . S
C1422 C1418 1.368 . S
C1422 C1421 1.523 . S
H1423 C1398 0.950 . S
H1424 C1400 0.950 . S
H1425 C1401 0.949 . S
H1426 C1403 0.950 . S
H1427 C1405 0.950 . S
C1428 C1429 1.349 . S
C1428 C1430 1.327 . S
C1428 H1453 0.950 . S
C1429 C1428 1.349 . S
C1429 C1445 1.349 . S
C1430 C1428 1.327 . S
C1430 C1449 1.429 . S
C1430 H1454 0.950 . S
C1431 C1448 1.574 . S
C1431 C1450 1.368 . S
C1431 H1455 0.949 . S
H1432 C1436 0.949 . S
C1433 C1434 1.349 . S
C1433 C1435 1.327 . S
C1433 H1456 0.950 . S
C1434 C1433 1.349 . S
C1434 C1446 1.349 . S
C1435 C1433 1.327 . S
C1435 C1451 1.429 . S
C1435 H1457 0.950 . S
C1436 H1432 0.949 . S
C1436 C1444 1.574 . S
C1436 C1452 1.368 . S
H1437 C1445 0.950 . S
H1438 C1443 0.950 . S
H1439 C1444 0.949 . S
H1440 C1446 0.950 . S
H1441 C1447 0.950 . S
H1442 C1448 0.949 . S
C1443 H1438 0.950 . S
C1443 C1445 1.327 . S
C1443 C1449 1.429 . S
C1444 C1436 1.574 . S
C1444 H1439 0.949 . S
C1444 C1450 1.368 . S
C1445 C1429 1.349 . S
C1445 H1437 0.950 . S
C1445 C1443 1.327 . S
C1446 C1434 1.349 . S
C1446 H1440 0.950 . S
C1446 C1447 1.327 . S
C1447 H1441 0.950 . S
C1447 C1446 1.327 . S
C1447 C1451 1.429 . S
C1448 C1431 1.574 . S
C1448 H1442 0.949 . S
C1448 C1452 1.368 . S
C1449 C1430 1.429 . S
C1449 C1443 1.429 . S
C1449 C1450 1.523 . S
C1450 C1431 1.368 . S
C1450 C1444 1.368 . S
C1450 C1449 1.523 . S
C1451 C1435 1.429 . S
C1451 C1447 1.429 . S
C1451 C1452 1.523 . S
C1452 C1436 1.368 . S
C1452 C1448 1.368 . S
C1452 C1451 1.523 . S
H1453 C1428 0.950 . S
H1454 C1430 0.950 . S
H1455 C1431 0.949 . S
H1456 C1433 0.950 . S
H1457 C1435 0.950 . S
C1458 C1459 1.349 . S
C1458 C1460 1.327 . S
C1458 H1483 0.950 . S
C1459 C1458 1.349 . S
C1459 C1475 1.349 . S
C1460 C1458 1.327 . S
C1460 C1479 1.429 . S
C1460 H1484 0.950 . S
C1461 C1478 1.574 . S
C1461 C1480 1.368 . S
C1461 H1485 0.949 . S
H1462 C1466 0.949 . S
C1463 C1464 1.349 . S
C1463 C1465 1.327 . S
C1463 H1486 0.950 . S
C1464 C1463 1.349 . S
C1464 C1476 1.349 . S
C1465 C1463 1.327 . S
C1465 C1481 1.429 . S
C1465 H1487 0.950 . S
C1466 H1462 0.949 . S
C1466 C1474 1.574 . S
C1466 C1482 1.368 . S
H1467 C1475 0.950 . S
H1468 C1473 0.950 . S
H1469 C1474 0.949 . S
H1470 C1476 0.950 . S
H1471 C1477 0.950 . S
H1472 C1478 0.949 . S
C1473 H1468 0.950 . S
C1473 C1475 1.327 . S
C1473 C1479 1.429 . S
C1474 C1466 1.574 . S
C1474 H1469 0.949 . S
C1474 C1480 1.368 . S
C1475 C1459 1.349 . S
C1475 H1467 0.950 . S
C1475 C1473 1.327 . S
C1476 C1464 1.349 . S
C1476 H1470 0.950 . S
C1476 C1477 1.327 . S
C1477 H1471 0.950 . S
C1477 C1476 1.327 . S
C1477 C1481 1.429 . S
C1478 C1461 1.574 . S
C1478 H1472 0.949 . S
C1478 C1482 1.368 . S
C1479 C1460 1.429 . S
C1479 C1473 1.429 . S
C1479 C1480 1.523 . S
C1480 C1461 1.368 . S
C1480 C1474 1.368 . S
C1480 C1479 1.523 . S
C1481 C1465 1.429 . S
C1481 C1477 1.429 . S
C1481 C1482 1.523 . S
C1482 C1466 1.368 . S
C1482 C1478 1.368 . S
C1482 C1481 1.523 . S
H1483 C1458 0.950 . S
H1484 C1460 0.950 . S
H1485 C1461 0.949 . S
H1486 C1463 0.950 . S
H1487 C1465 0.950 . S
C1488 C1489 1.349 . S
C1488 C1490 1.354 . S
C1488 H1513 0.950 . S
C1489 C1488 1.349 . S
C1489 C1505 1.349 1_554 S
C1490 C1488 1.354 . S
C1490 C1509 1.394 1_554 S
C1490 H1514 0.958 . S
C1491 C1508 1.574 . S
C1491 C1510 1.368 . S
C1491 H1515 0.949 . S
H1492 C1496 0.949 . S
C1493 C1494 1.349 . S
C1493 C1495 1.327 . S
C1493 H1516 0.950 . S
C1494 C1493 1.349 . S
C1494 C1506 1.349 . S
C1495 C1493 1.327 . S
C1495 C1511 1.429 . S
C1495 H1517 0.950 . S
C1496 H1492 0.949 . S
C1496 C1504 1.574 . S
C1496 C1512 1.368 . S
H1497 C1505 0.950 . S
H1498 C1503 0.950 . S
H1499 C1504 0.949 . S
H1500 C1506 0.950 . S
H1501 C1507 0.950 . S
H1502 C1508 0.949 . S
C1503 H1498 0.950 . S
C1503 C1505 1.327 . S
C1503 C1509 1.429 . S
C1504 C1496 1.574 . S
C1504 H1499 0.949 . S
C1504 C1510 1.368 . S
C1505 C1489 1.349 1_556 S
C1505 H1497 0.950 . S
C1505 C1503 1.327 . S
C1506 C1494 1.349 . S
C1506 H1500 0.950 . S
C1506 C1507 1.327 . S
C1507 H1501 0.950 . S
C1507 C1506 1.327 . S
C1507 C1511 1.429 . S
C1508 C1491 1.574 . S
C1508 H1502 0.949 . S
C1508 C1512 1.368 . S
C1509 C1490 1.394 1_556 S
C1509 C1503 1.429 . S
C1509 C1510 1.523 . S
C1510 C1491 1.368 . S
C1510 C1504 1.368 . S
C1510 C1509 1.523 . S
C1511 C1495 1.429 . S
C1511 C1507 1.429 . S
C1511 C1512 1.523 . S
C1512 C1496 1.368 . S
C1512 C1508 1.368 . S
C1512 C1511 1.523 . S
H1513 C1488 0.950 . S
H1514 C1490 0.958 . S
H1515 C1491 0.949 . S
H1516 C1493 0.950 . S
H1517 C1495 0.950 . S
C1518 C1519 1.349 . S
C1518 C1520 1.327 . S
C1518 H1543 0.950 . S
C1519 C1518 1.349 . S
C1519 C1535 1.349 1_554 S
C1520 C1518 1.327 . S
C1520 C1539 1.429 1_554 S
C1520 H1544 0.950 . S
C1521 C1538 1.574 . S
C1521 C1540 1.368 . S
C1521 H1545 0.949 . S
H1522 C1526 0.949 . S
C1523 C1524 1.349 . S
C1523 C1525 1.327 . S
C1523 H1546 0.950 . S
C1524 C1523 1.349 . S
C1524 C1536 1.349 . S
C1525 C1523 1.327 . S
C1525 C1541 1.429 . S
C1525 H1547 0.950 . S
C1526 H1522 0.949 . S
C1526 C1534 1.574 . S
C1526 C1542 1.368 . S
H1527 C1535 0.950 1_455 S
H1528 C1533 0.950 . S
H1529 C1534 0.949 . S
H1530 C1536 0.950 . S
H1531 C1537 0.950 . S
H1532 C1538 0.949 . S
C1533 H1528 0.950 . S
C1533 C1535 1.327 . S
C1533 C1539 1.429 . S
C1534 C1526 1.574 . S
C1534 H1529 0.949 . S
C1534 C1540 1.368 . S
C1535 C1519 1.349 1_556 S
C1535 H1527 0.950 1_655 S
C1535 C1533 1.327 . S
C1536 C1524 1.349 . S
C1536 H1530 0.950 . S
C1536 C1537 1.327 . S
C1537 H1531 0.950 . S
C1537 C1536 1.327 . S
C1537 C1541 1.429 . S
C1538 C1521 1.574 . S
C1538 H1532 0.949 . S
C1538 C1542 1.368 . S
C1539 C1520 1.429 1_556 S
C1539 C1533 1.429 . S
C1539 C1540 1.523 . S
C1540 C1521 1.368 . S
C1540 C1534 1.368 . S
C1540 C1539 1.523 . S
C1541 C1525 1.429 . S
C1541 C1537 1.429 . S
C1541 C1542 1.523 . S
C1542 C1526 1.368 . S
C1542 C1538 1.368 . S
C1542 C1541 1.523 . S
H1543 C1518 0.950 . S
H1544 C1520 0.950 . S
H1545 C1521 0.949 . S
H1546 C1523 0.950 . S
H1547 C1525 0.950 . S
C1548 C1549 1.349 . S
C1548 C1550 1.327 . S
C1548 H1573 0.950 . S
C1549 C1548 1.349 . S
C1549 C1565 1.349 . S
C1550 C1548 1.327 . S
C1550 C1569 1.429 . S
C1550 H1574 0.950 . S
C1551 C1568 1.574 . S
C1551 C1570 1.368 . S
C1551 H1575 0.949 . S
H1552 C1556 0.949 . S
C1553 C1554 1.349 . S
C1553 C1555 1.327 . S
C1553 H1576 0.950 . S
C1554 C1553 1.349 . S
C1554 C1566 1.349 . S
C1555 C1553 1.327 . S
C1555 C1571 1.429 . S
C1555 H1577 0.950 . S
C1556 H1552 0.949 . S
C1556 C1564 1.574 . S
C1556 C1572 1.368 . S
H1557 C1565 0.950 . S
H1558 C1563 0.950 . S
H1559 C1564 0.949 . S
H1560 C1566 0.950 . S
H1561 C1567 0.950 . S
H1562 C1568 0.949 . S
C1563 H1558 0.950 . S
C1563 C1565 1.327 . S
C1563 C1569 1.429 . S
C1564 C1556 1.574 . S
C1564 H1559 0.949 . S
C1564 C1570 1.368 . S
C1565 C1549 1.349 . S
C1565 H1557 0.950 . S
C1565 C1563 1.327 . S
C1566 C1554 1.349 . S
C1566 H1560 0.950 . S
C1566 C1567 1.327 . S
C1567 H1561 0.950 . S
C1567 C1566 1.327 . S
C1567 C1571 1.429 . S
C1568 C1551 1.574 . S
C1568 H1562 0.949 . S
C1568 C1572 1.368 . S
C1569 C1550 1.429 . S
C1569 C1563 1.429 . S
C1569 C1570 1.523 . S
C1570 C1551 1.368 . S
C1570 C1564 1.368 . S
C1570 C1569 1.523 . S
C1571 C1555 1.429 . S
C1571 C1567 1.429 . S
C1571 C1572 1.523 . S
C1572 C1556 1.368 . S
C1572 C1568 1.368 . S
C1572 C1571 1.523 . S
H1573 C1548 0.950 . S
H1574 C1550 0.950 . S
H1575 C1551 0.949 . S
H1576 C1553 0.950 . S
H1577 C1555 0.950 . S
C1578 C1579 1.349 . S
C1578 C1580 1.327 . S
C1578 H1603 0.950 . S
C1579 C1578 1.349 . S
C1579 C1595 1.349 . S
C1580 C1578 1.327 . S
C1580 C1599 1.429 . S
C1580 H1604 0.950 . S
C1581 C1598 1.574 . S
C1581 C1600 1.368 . S
C1581 H1605 0.949 . S
H1582 C1586 0.949 . S
C1583 C1584 1.349 . S
C1583 C1585 1.327 . S
C1583 H1606 0.950 . S
C1584 C1583 1.349 . S
C1584 C1596 1.349 . S
C1585 C1583 1.327 . S
C1585 C1601 1.429 . S
C1585 H1607 0.950 . S
C1586 H1582 0.949 . S
C1586 C1594 1.574 . S
C1586 C1602 1.368 . S
H1587 C1595 0.950 . S
H1588 C1593 0.950 . S
H1589 C1594 0.949 . S
H1590 C1596 0.950 . S
H1591 C1597 0.950 . S
H1592 C1598 0.949 . S
C1593 H1588 0.950 . S
C1593 C1595 1.327 . S
C1593 C1599 1.429 . S
C1594 C1586 1.574 . S
C1594 H1589 0.949 . S
C1594 C1600 1.368 . S
C1595 C1579 1.349 . S
C1595 H1587 0.950 . S
C1595 C1593 1.327 . S
C1596 C1584 1.349 . S
C1596 H1590 0.950 . S
C1596 C1597 1.327 . S
C1597 H1591 0.950 . S
C1597 C1596 1.327 . S
C1597 C1601 1.429 . S
C1598 C1581 1.574 . S
C1598 H1592 0.949 . S
C1598 C1602 1.368 . S
C1599 C1580 1.429 . S
C1599 C1593 1.429 . S
C1599 C1600 1.523 . S
C1600 C1581 1.368 . S
C1600 C1594 1.368 . S
C1600 C1599 1.523 . S
C1601 C1585 1.429 . S
C1601 C1597 1.429 . S
C1601 C1602 1.523 . S
C1602 C1586 1.368 . S
C1602 C1598 1.368 . S
C1602 C1601 1.523 . S
H1603 C1578 0.950 . S
H1604 C1580 0.950 . S
H1605 C1581 0.949 . S
H1606 C1583 0.950 . S
H1607 C1585 0.950 . S
C1608 C1609 1.354 . S
C1608 C1610 1.327 . S
C1608 H1633 0.950 . S
C1609 C1608 1.354 . S
C1609 C1625 1.354 . S
C1610 C1608 1.327 . S
C1610 C1629 1.429 . S
C1610 H1634 0.950 . S
C1611 C1628 1.574 . S
C1611 C1630 1.368 . S
C1611 H1635 0.949 . S
H1612 C1616 0.949 . S
C1613 C1614 1.349 . S
C1613 C1615 1.327 . S
C1613 H1636 0.950 . S
C1614 C1613 1.349 . S
C1614 C1626 1.349 . S
C1615 C1613 1.327 . S
C1615 C1631 1.429 . S
C1615 H1637 0.950 . S
C1616 H1612 0.949 . S
C1616 C1624 1.574 . S
C1616 C1632 1.368 . S
H1617 C1625 0.950 1_545 S
H1618 C1623 0.950 . S
H1619 C1624 0.949 . S
H1620 C1626 0.950 . S
H1621 C1627 0.950 . S
H1622 C1628 0.949 . S
C1623 H1618 0.950 . S
C1623 C1625 1.327 . S
C1623 C1629 1.429 . S
C1624 C1616 1.574 . S
C1624 H1619 0.949 . S
C1624 C1630 1.368 . S
C1625 C1609 1.354 . S
C1625 H1617 0.950 1_565 S
C1625 C1623 1.327 . S
C1626 C1614 1.349 . S
C1626 H1620 0.950 . S
C1626 C1627 1.327 . S
C1627 H1621 0.950 . S
C1627 C1626 1.327 . S
C1627 C1631 1.429 . S
C1628 C1611 1.574 . S
C1628 H1622 0.949 . S
C1628 C1632 1.368 . S
C1629 C1610 1.429 . S
C1629 C1623 1.429 . S
C1629 C1630 1.523 . S
C1630 C1611 1.368 . S
C1630 C1624 1.368 . S
C1630 C1629 1.523 . S
C1631 C1615 1.429 . S
C1631 C1627 1.429 . S
C1631 C1632 1.523 . S
C1632 C1616 1.368 . S
C1632 C1628 1.368 . S
C1632 C1631 1.523 . S
H1633 C1608 0.950 . S
H1634 C1610 0.950 . S
H1635 C1611 0.949 . S
H1636 C1613 0.950 . S
H1637 C1615 0.950 . S
C1638 C1639 1.349 . S
C1638 C1640 1.327 . S
C1638 H1663 0.950 . S
C1639 C1638 1.349 . S
C1639 C1655 1.349 . S
C1640 C1638 1.327 . S
C1640 C1659 1.429 . S
C1640 H1664 0.950 . S
C1641 C1658 1.574 . S
C1641 C1660 1.368 . S
C1641 H1665 0.949 . S
H1642 C1646 0.949 . S
C1643 C1644 1.349 . S
C1643 C1645 1.327 . S
C1643 H1666 0.950 . S
C1644 C1643 1.349 . S
C1644 C1656 1.349 . S
C1645 C1643 1.327 . S
C1645 C1661 1.429 . S
C1645 H1667 0.950 . S
C1646 H1642 0.949 . S
C1646 C1654 1.574 . S
C1646 C1662 1.368 . S
H1647 C1655 0.950 . S
H1648 C1653 0.950 . S
H1649 C1654 0.949 . S
H1650 C1656 0.950 . S
H1651 C1657 0.950 . S
H1652 C1658 0.949 . S
C1653 H1648 0.950 . S
C1653 C1655 1.327 . S
C1653 C1659 1.429 . S
C1654 C1646 1.574 . S
C1654 H1649 0.949 . S
C1654 C1660 1.368 . S
C1655 C1639 1.349 . S
C1655 H1647 0.950 . S
C1655 C1653 1.327 . S
C1656 C1644 1.349 . S
C1656 H1650 0.950 . S
C1656 C1657 1.327 . S
C1657 H1651 0.950 . S
C1657 C1656 1.327 . S
C1657 C1661 1.429 . S
C1658 C1641 1.574 . S
C1658 H1652 0.949 . S
C1658 C1662 1.368 . S
C1659 C1640 1.429 . S
C1659 C1653 1.429 . S
C1659 C1660 1.523 . S
C1660 C1641 1.368 . S
C1660 C1654 1.368 . S
C1660 C1659 1.523 . S
C1661 C1645 1.429 . S
C1661 C1657 1.429 . S
C1661 C1662 1.523 . S
C1662 C1646 1.368 . S
C1662 C1658 1.368 . S
C1662 C1661 1.523 . S
H1663 C1638 0.950 . S
H1664 C1640 0.950 . S
H1665 C1641 0.949 . S
H1666 C1643 0.950 . S
H1667 C1645 0.950 . S
C1668 C1669 1.349 . S
C1668 C1670 1.327 . S
C1668 H1693 0.950 . S
C1669 C1668 1.349 . S
C1669 C1685 1.349 . S
C1670 C1668 1.327 . S
C1670 C1689 1.429 . S
C1670 H1694 0.950 . S
C1671 C1688 1.574 . S
C1671 C1690 1.368 . S
C1671 H1695 0.949 . S
H1672 C1676 0.949 . S
C1673 C1674 1.349 . S
C1673 C1675 1.327 . S
C1673 H1696 0.950 . S
C1674 C1673 1.349 . S
C1674 C1686 1.349 . S
C1675 C1673 1.327 . S
C1675 C1691 1.429 . S
C1675 H1697 0.950 . S
C1676 H1672 0.949 . S
C1676 C1684 1.574 . S
C1676 C1692 1.368 . S
H1677 C1685 0.950 . S
H1678 C1683 0.950 . S
H1679 C1684 0.949 . S
H1680 C1686 0.950 . S
H1681 C1687 0.950 . S
H1682 C1688 0.949 . S
C1683 H1678 0.950 . S
C1683 C1685 1.327 . S
C1683 C1689 1.429 . S
C1684 C1676 1.574 . S
C1684 H1679 0.949 . S
C1684 C1690 1.368 . S
C1685 C1669 1.349 . S
C1685 H1677 0.950 . S
C1685 C1683 1.327 . S
C1686 C1674 1.349 . S
C1686 H1680 0.950 . S
C1686 C1687 1.327 . S
C1687 H1681 0.950 . S
C1687 C1686 1.327 . S
C1687 C1691 1.429 . S
C1688 C1671 1.574 . S
C1688 H1682 0.949 . S
C1688 C1692 1.368 . S
C1689 C1670 1.429 . S
C1689 C1683 1.429 . S
C1689 C1690 1.523 . S
C1690 C1671 1.368 . S
C1690 C1684 1.368 . S
C1690 C1689 1.523 . S
C1691 C1675 1.429 . S
C1691 C1687 1.429 . S
C1691 C1692 1.523 . S
C1692 C1676 1.368 . S
C1692 C1688 1.368 . S
C1692 C1691 1.523 . S
H1693 C1668 0.950 . S
H1694 C1670 0.950 . S
H1695 C1671 0.949 . S
H1696 C1673 0.950 . S
H1697 C1675 0.950 . S
C1698 C1699 1.349 . S
C1698 C1700 1.327 . S
C1698 H1723 0.950 . S
C1699 C1698 1.349 . S
C1699 C1715 1.349 . S
C1700 C1698 1.327 . S
C1700 C1719 1.429 . S
C1700 H1724 0.950 . S
C1701 C1718 1.574 . S
C1701 C1720 1.368 . S
C1701 H1725 0.949 . S
H1702 C1706 0.949 . S
C1703 C1704 1.349 . S
C1703 C1705 1.327 . S
C1703 H1726 0.950 . S
C1704 C1703 1.349 . S
C1704 C1716 1.349 . S
C1705 C1703 1.327 . S
C1705 C1721 1.429 . S
C1705 H1727 0.950 . S
C1706 H1702 0.949 . S
C1706 C1714 1.574 . S
C1706 C1722 1.368 . S
H1707 C1715 0.950 . S
H1708 C1713 0.950 . S
H1709 C1714 0.949 . S
H1710 C1716 0.950 . S
H1711 C1717 0.950 . S
H1712 C1718 0.949 . S
C1713 H1708 0.950 . S
C1713 C1715 1.327 . S
C1713 C1719 1.429 . S
C1714 C1706 1.574 . S
C1714 H1709 0.949 . S
C1714 C1720 1.368 . S
C1715 C1699 1.349 . S
C1715 H1707 0.950 . S
C1715 C1713 1.327 . S
C1716 C1704 1.349 . S
C1716 H1710 0.950 . S
C1716 C1717 1.327 . S
C1717 H1711 0.950 . S
C1717 C1716 1.327 . S
C1717 C1721 1.429 . S
C1718 C1701 1.574 . S
C1718 H1712 0.949 . S
C1718 C1722 1.368 . S
C1719 C1700 1.429 . S
C1719 C1713 1.429 . S
C1719 C1720 1.523 . S
C1720 C1701 1.368 . S
C1720 C1714 1.368 . S
C1720 C1719 1.523 . S
C1721 C1705 1.429 . S
C1721 C1717 1.429 . S
C1721 C1722 1.523 . S
C1722 C1706 1.368 . S
C1722 C1718 1.368 . S
C1722 C1721 1.523 . S
H1723 C1698 0.950 . S
H1724 C1700 0.950 . S
H1725 C1701 0.949 . S
H1726 C1703 0.950 . S
H1727 C1705 0.950 . S
C1728 C1729 1.349 . S
C1728 C1730 1.327 . S
C1728 H1753 0.950 . S
C1729 C1728 1.349 . S
C1729 C1745 1.349 . S
C1730 C1728 1.327 . S
C1730 C1749 1.429 . S
C1730 H1754 0.950 . S
C1731 C1748 1.574 . S
C1731 C1750 1.368 . S
C1731 H1755 0.949 . S
H1732 C1736 0.949 . S
C1733 C1734 1.349 . S
C1733 C1735 1.327 . S
C1733 H1756 0.950 . S
C1734 C1733 1.349 . S
C1734 C1746 1.349 . S
C1735 C1733 1.327 . S
C1735 C1751 1.429 . S
C1735 H1757 0.950 . S
C1736 H1732 0.949 . S
C1736 C1744 1.574 . S
C1736 C1752 1.368 . S
H1737 C1745 0.950 . S
H1738 C1743 0.950 . S
H1739 C1744 0.949 . S
H1740 C1746 0.950 . S
H1741 C1747 0.950 . S
H1742 C1748 0.949 . S
C1743 H1738 0.950 . S
C1743 C1745 1.327 . S
C1743 C1749 1.429 . S
C1744 C1736 1.574 . S
C1744 H1739 0.949 . S
C1744 C1750 1.368 . S
C1745 C1729 1.349 . S
C1745 H1737 0.950 . S
C1745 C1743 1.327 . S
C1746 C1734 1.349 . S
C1746 H1740 0.950 . S
C1746 C1747 1.327 . S
C1747 H1741 0.950 . S
C1747 C1746 1.327 . S
C1747 C1751 1.429 . S
C1748 C1731 1.574 . S
C1748 H1742 0.949 . S
C1748 C1752 1.368 . S
C1749 C1730 1.429 . S
C1749 C1743 1.429 . S
C1749 C1750 1.523 . S
C1750 C1731 1.368 . S
C1750 C1744 1.368 . S
C1750 C1749 1.523 . S
C1751 C1735 1.429 . S
C1751 C1747 1.429 . S
C1751 C1752 1.523 . S
C1752 C1736 1.368 . S
C1752 C1748 1.368 . S
C1752 C1751 1.523 . S
H1753 C1728 0.950 . S
H1754 C1730 0.950 . S
H1755 C1731 0.949 . S
H1756 C1733 0.950 . S
H1757 C1735 0.950 . S
C1758 C1759 1.349 . S
C1758 C1760 1.327 . S
C1758 H1783 0.950 . S
C1759 C1758 1.349 . S
C1759 C1775 1.349 . S
C1760 C1758 1.327 . S
C1760 C1779 1.429 . S
C1760 H1784 0.950 . S
C1761 C1778 1.574 . S
C1761 C1780 1.368 . S
C1761 H1785 0.949 . S
H1762 C1766 0.949 . S
C1763 C1764 1.349 . S
C1763 C1765 1.327 . S
C1763 H1786 0.950 . S
C1764 C1763 1.349 . S
C1764 C1776 1.349 . S
C1765 C1763 1.327 . S
C1765 C1781 1.429 . S
C1765 H1787 0.950 . S
C1766 H1762 0.949 . S
C1766 C1774 1.574 . S
C1766 C1782 1.368 . S
H1767 C1775 0.950 . S
H1768 C1773 0.950 . S
H1769 C1774 0.949 . S
H1770 C1776 0.950 . S
H1771 C1777 0.950 . S
H1772 C1778 0.949 . S
C1773 H1768 0.950 . S
C1773 C1775 1.327 . S
C1773 C1779 1.429 . S
C1774 C1766 1.574 . S
C1774 H1769 0.949 . S
C1774 C1780 1.368 . S
C1775 C1759 1.349 . S
C1775 H1767 0.950 . S
C1775 C1773 1.327 . S
C1776 C1764 1.349 . S
C1776 H1770 0.950 . S
C1776 C1777 1.327 . S
C1777 H1771 0.950 . S
C1777 C1776 1.327 . S
C1777 C1781 1.429 . S
C1778 C1761 1.574 . S
C1778 H1772 0.949 . S
C1778 C1782 1.368 . S
C1779 C1760 1.429 . S
C1779 C1773 1.429 . S
C1779 C1780 1.523 . S
C1780 C1761 1.368 . S
C1780 C1774 1.368 . S
C1780 C1779 1.523 . S
C1781 C1765 1.429 . S
C1781 C1777 1.429 . S
C1781 C1782 1.523 . S
C1782 C1766 1.368 . S
C1782 C1778 1.368 . S
C1782 C1781 1.523 . S
H1783 C1758 0.950 . S
H1784 C1760 0.950 . S
H1785 C1761 0.949 . S
H1786 C1763 0.950 . S
H1787 C1765 0.950 . S
C1788 C1789 1.349 . S
C1788 C1790 1.327 . S
C1788 H1813 0.950 . S
C1789 C1788 1.349 . S
C1789 C1805 1.349 . S
C1790 C1788 1.327 . S
C1790 C1809 1.429 . S
C1790 H1814 0.950 . S
C1791 C1808 1.574 . S
C1791 C1810 1.368 . S
C1791 H1815 0.949 . S
H1792 C1796 0.949 . S
C1793 C1794 1.349 . S
C1793 C1795 1.327 . S
C1793 H1816 0.950 . S
C1794 C1793 1.349 . S
C1794 C1806 1.349 . S
C1795 C1793 1.327 . S
C1795 C1811 1.429 . S
C1795 H1817 0.950 . S
C1796 H1792 0.949 . S
C1796 C1804 1.574 . S
C1796 C1812 1.368 . S
H1797 C1805 0.950 . S
H1798 C1803 0.950 . S
H1799 C1804 0.949 . S
H1800 C1806 0.950 . S
H1801 C1807 0.950 . S
H1802 C1808 0.949 . S
C1803 H1798 0.950 . S
C1803 C1805 1.327 . S
C1803 C1809 1.429 . S
C1804 C1796 1.574 . S
C1804 H1799 0.949 . S
C1804 C1810 1.368 . S
C1805 C1789 1.349 . S
C1805 H1797 0.950 . S
C1805 C1803 1.327 . S
C1806 C1794 1.349 . S
C1806 H1800 0.950 . S
C1806 C1807 1.327 . S
C1807 H1801 0.950 . S
C1807 C1806 1.327 . S
C1807 C1811 1.429 . S
C1808 C1791 1.574 . S
C1808 H1802 0.949 . S
C1808 C1812 1.368 . S
C1809 C1790 1.429 . S
C1809 C1803 1.429 . S
C1809 C1810 1.523 . S
C1810 C1791 1.368 . S
C1810 C1804 1.368 . S
C1810 C1809 1.523 . S
C1811 C1795 1.429 . S
C1811 C1807 1.429 . S
C1811 C1812 1.523 . S
C1812 C1796 1.368 . S
C1812 C1808 1.368 . S
C1812 C1811 1.523 . S
H1813 C1788 0.950 . S
H1814 C1790 0.950 . S
H1815 C1791 0.949 . S
H1816 C1793 0.950 . S
H1817 C1795 0.950 . S
C1818 C1819 1.349 . S
C1818 C1820 1.327 . S
C1818 H1843 0.950 . S
C1819 C1818 1.349 . S
C1819 C1835 1.349 . S
C1820 C1818 1.327 . S
C1820 C1839 1.429 . S
C1820 H1844 0.950 . S
C1821 C1838 1.574 . S
C1821 C1840 1.368 . S
C1821 H1845 0.949 . S
H1822 C1826 0.949 . S
C1823 C1824 1.349 . S
C1823 C1825 1.327 . S
C1823 H1846 0.950 . S
C1824 C1823 1.349 . S
C1824 C1836 1.349 . S
C1825 C1823 1.327 . S
C1825 C1841 1.429 . S
C1825 H1847 0.950 . S
C1826 H1822 0.949 . S
C1826 C1834 1.574 . S
C1826 C1842 1.368 . S
H1827 C1835 0.950 . S
H1828 C1833 0.950 . S
H1829 C1834 0.949 . S
H1830 C1836 0.950 . S
H1831 C1837 0.950 . S
H1832 C1838 0.949 . S
C1833 H1828 0.950 . S
C1833 C1835 1.327 . S
C1833 C1839 1.429 . S
C1834 C1826 1.574 . S
C1834 H1829 0.949 . S
C1834 C1840 1.368 . S
C1835 C1819 1.349 . S
C1835 H1827 0.950 . S
C1835 C1833 1.327 . S
C1836 C1824 1.349 . S
C1836 H1830 0.950 . S
C1836 C1837 1.327 . S
C1837 H1831 0.950 . S
C1837 C1836 1.327 . S
C1837 C1841 1.429 . S
C1838 C1821 1.574 . S
C1838 H1832 0.949 . S
C1838 C1842 1.368 . S
C1839 C1820 1.429 . S
C1839 C1833 1.429 . S
C1839 C1840 1.523 . S
C1840 C1821 1.368 . S
C1840 C1834 1.368 . S
C1840 C1839 1.523 . S
C1841 C1825 1.429 . S
C1841 C1837 1.429 . S
C1841 C1842 1.523 . S
C1842 C1826 1.368 . S
C1842 C1838 1.368 . S
C1842 C1841 1.523 . S
H1843 C1818 0.950 . S
H1844 C1820 0.950 . S
H1845 C1821 0.949 . S
H1846 C1823 0.950 . S
H1847 C1825 0.950 . S
C1848 C1849 1.349 . S
C1848 C1850 1.327 . S
C1848 H1873 0.950 . S
C1849 C1848 1.349 . S
C1849 C1865 1.349 . S
C1850 C1848 1.327 . S
C1850 C1869 1.429 . S
C1850 H1874 0.950 . S
C1851 C1868 1.574 . S
C1851 C1870 1.368 . S
C1851 H1875 0.949 . S
H1852 C1856 0.949 . S
C1853 C1854 1.349 . S
C1853 C1855 1.327 . S
C1853 H1876 0.950 . S
C1854 C1853 1.349 . S
C1854 C1866 1.349 . S
C1855 C1853 1.327 . S
C1855 C1871 1.429 . S
C1855 H1877 0.950 . S
C1856 H1852 0.949 . S
C1856 C1864 1.574 . S
C1856 C1872 1.368 . S
H1857 C1865 0.950 . S
H1858 C1863 0.950 . S
H1859 C1864 0.949 . S
H1860 C1866 0.950 . S
H1861 C1867 0.950 . S
H1862 C1868 0.949 . S
C1863 H1858 0.950 . S
C1863 C1865 1.327 . S
C1863 C1869 1.429 . S
C1864 C1856 1.574 . S
C1864 H1859 0.949 . S
C1864 C1870 1.368 . S
C1865 C1849 1.349 . S
C1865 H1857 0.950 . S
C1865 C1863 1.327 . S
C1866 C1854 1.349 . S
C1866 H1860 0.950 . S
C1866 C1867 1.327 . S
C1867 H1861 0.950 . S
C1867 C1866 1.327 . S
C1867 C1871 1.429 . S
C1868 C1851 1.574 . S
C1868 H1862 0.949 . S
C1868 C1872 1.368 . S
C1869 C1850 1.429 . S
C1869 C1863 1.429 . S
C1869 C1870 1.523 . S
C1870 C1851 1.368 . S
C1870 C1864 1.368 . S
C1870 C1869 1.523 . S
C1871 C1855 1.429 . S
C1871 C1867 1.429 . S
C1871 C1872 1.523 . S
C1872 C1856 1.368 . S
C1872 C1868 1.368 . S
C1872 C1871 1.523 . S
H1873 C1848 0.950 . S
H1874 C1850 0.950 . S
H1875 C1851 0.949 . S
H1876 C1853 0.950 . S
H1877 C1855 0.950 . S
C1878 C1879 1.349 . S
C1878 C1880 1.327 . S
C1878 H1903 0.950 . S
C1879 C1878 1.349 . S
C1879 C1895 1.349 . S
C1880 C1878 1.327 . S
C1880 C1899 1.429 . S
C1880 H1904 0.950 . S
C1881 C1898 1.574 . S
C1881 C1900 1.368 . S
C1881 H1905 0.949 . S
H1882 C1886 0.949 . S
C1883 C1884 1.349 . S
C1883 C1885 1.327 . S
C1883 H1906 0.950 . S
C1884 C1883 1.349 . S
C1884 C1896 1.349 . S
C1885 C1883 1.327 . S
C1885 C1901 1.429 . S
C1885 H1907 0.950 . S
C1886 H1882 0.949 . S
C1886 C1894 1.574 . S
C1886 C1902 1.368 . S
H1887 C1895 0.950 . S
H1888 C1893 0.950 . S
H1889 C1894 0.949 . S
H1890 C1896 0.950 . S
H1891 C1897 0.950 . S
H1892 C1898 0.949 . S
C1893 H1888 0.950 . S
C1893 C1895 1.327 . S
C1893 C1899 1.429 . S
C1894 C1886 1.574 . S
C1894 H1889 0.949 . S
C1894 C1900 1.368 . S
C1895 C1879 1.349 . S
C1895 H1887 0.950 . S
C1895 C1893 1.327 . S
C1896 C1884 1.349 . S
C1896 H1890 0.950 . S
C1896 C1897 1.327 . S
C1897 H1891 0.950 . S
C1897 C1896 1.327 . S
C1897 C1901 1.429 . S
C1898 C1881 1.574 . S
C1898 H1892 0.949 . S
C1898 C1902 1.368 . S
C1899 C1880 1.429 . S
C1899 C1893 1.429 . S
C1899 C1900 1.523 . S
C1900 C1881 1.368 . S
C1900 C1894 1.368 . S
C1900 C1899 1.523 . S
C1901 C1885 1.429 . S
C1901 C1897 1.429 . S
C1901 C1902 1.523 . S
C1902 C1886 1.368 . S
C1902 C1898 1.368 . S
C1902 C1901 1.523 . S
H1903 C1878 0.950 . S
H1904 C1880 0.950 . S
H1905 C1881 0.949 . S
H1906 C1883 0.950 . S
H1907 C1885 0.950 . S
C1908 C1909 1.349 . S
C1908 C1910 1.327 . S
C1908 H1933 0.950 . S
C1909 C1908 1.349 . S
C1909 C1925 1.349 . S
C1910 C1908 1.327 . S
C1910 C1929 1.429 . S
C1910 H1934 0.950 . S
C1911 C1928 1.574 . S
C1911 C1930 1.368 . S
C1911 H1935 0.949 . S
H1912 C1916 0.949 . S
C1913 C1914 1.349 . S
C1913 C1915 1.327 . S
C1913 H1936 0.950 . S
C1914 C1913 1.349 . S
C1914 C1926 1.349 . S
C1915 C1913 1.327 . S
C1915 C1931 1.429 . S
C1915 H1937 0.950 . S
C1916 H1912 0.949 . S
C1916 C1924 1.574 . S
C1916 C1932 1.368 . S
H1917 C1925 0.950 . S
H1918 C1923 0.950 . S
H1919 C1924 0.949 . S
H1920 C1926 0.950 . S
H1921 C1927 0.950 . S
H1922 C1928 0.949 . S
C1923 H1918 0.950 . S
C1923 C1925 1.327 . S
C1923 C1929 1.429 . S
C1924 C1916 1.574 . S
C1924 H1919 0.949 . S
C1924 C1930 1.368 . S
C1925 C1909 1.349 . S
C1925 H1917 0.950 . S
C1925 C1923 1.327 . S
C1926 C1914 1.349 . S
C1926 H1920 0.950 . S
C1926 C1927 1.327 . S
C1927 H1921 0.950 . S
C1927 C1926 1.327 . S
C1927 C1931 1.429 . S
C1928 C1911 1.574 . S
C1928 H1922 0.949 . S
C1928 C1932 1.368 . S
C1929 C1910 1.429 . S
C1929 C1923 1.429 . S
C1929 C1930 1.523 . S
C1930 C1911 1.368 . S
C1930 C1924 1.368 . S
C1930 C1929 1.523 . S
C1931 C1915 1.429 . S
C1931 C1927 1.429 . S
C1931 C1932 1.523 . S
C1932 C1916 1.368 . S
C1932 C1928 1.368 . S
C1932 C1931 1.523 . S
H1933 C1908 0.950 . S
H1934 C1910 0.950 . S
H1935 C1911 0.949 . S
H1936 C1913 0.950 . S
H1937 C1915 0.950 . S
C1938 C1939 1.349 . S
C1938 C1940 1.327 . S
C1938 H1963 0.950 . S
C1939 C1938 1.349 . S
C1939 C1955 1.349 . S
C1940 C1938 1.327 . S
C1940 C1959 1.429 . S
C1940 H1964 0.950 . S
C1941 C1958 1.574 . S
C1941 C1960 1.368 . S
C1941 H1965 0.949 . S
H1942 C1946 0.949 . S
C1943 C1944 1.349 . S
C1943 C1945 1.327 . S
C1943 H1966 0.950 . S
C1944 C1943 1.349 . S
C1944 C1956 1.349 . S
C1945 C1943 1.327 . S
C1945 C1961 1.429 . S
C1945 H1967 0.950 . S
C1946 H1942 0.949 . S
C1946 C1954 1.574 . S
C1946 C1962 1.368 . S
H1947 C1955 0.950 . S
H1948 C1953 0.950 . S
H1949 C1954 0.949 . S
H1950 C1956 0.950 . S
H1951 C1957 0.950 . S
H1952 C1958 0.949 . S
C1953 H1948 0.950 . S
C1953 C1955 1.327 . S
C1953 C1959 1.429 . S
C1954 C1946 1.574 . S
C1954 H1949 0.949 . S
C1954 C1960 1.368 . S
C1955 C1939 1.349 . S
C1955 H1947 0.950 . S
C1955 C1953 1.327 . S
C1956 C1944 1.349 . S
C1956 H1950 0.950 . S
C1956 C1957 1.327 . S
C1957 H1951 0.950 . S
C1957 C1956 1.327 . S
C1957 C1961 1.429 . S
C1958 C1941 1.574 . S
C1958 H1952 0.949 . S
C1958 C1962 1.368 . S
C1959 C1940 1.429 . S
C1959 C1953 1.429 . S
C1959 C1960 1.523 . S
C1960 C1941 1.368 . S
C1960 C1954 1.368 . S
C1960 C1959 1.523 . S
C1961 C1945 1.429 . S
C1961 C1957 1.429 . S
C1961 C1962 1.523 . S
C1962 C1946 1.368 . S
C1962 C1958 1.368 . S
C1962 C1961 1.523 . S
H1963 C1938 0.950 . S
H1964 C1940 0.950 . S
H1965 C1941 0.949 . S
H1966 C1943 0.950 . S
H1967 C1945 0.950 . S
C1968 C1969 1.349 . S
C1968 C1970 1.327 . S
C1968 H1993 0.950 . S
C1969 C1968 1.349 . S
C1969 C1985 1.349 . S
C1970 C1968 1.327 . S
C1970 C1989 1.429 . S
C1970 H1994 0.950 . S
C1971 C1988 1.574 . S
C1971 C1990 1.368 . S
C1971 H1995 0.949 . S
H1972 C1976 0.949 . S
C1973 C1974 1.349 . S
C1973 C1975 1.327 . S
C1973 H1996 0.950 . S
C1974 C1973 1.349 . S
C1974 C1986 1.349 . S
C1975 C1973 1.327 . S
C1975 C1991 1.429 . S
C1975 H1997 0.950 . S
C1976 H1972 0.949 . S
C1976 C1984 1.574 . S
C1976 C1992 1.368 . S
H1977 C1985 0.950 . S
H1978 C1983 0.950 . S
H1979 C1984 0.949 . S
H1980 C1986 0.950 . S
H1981 C1987 0.950 . S
H1982 C1988 0.949 . S
C1983 H1978 0.950 . S
C1983 C1985 1.327 . S
C1983 C1989 1.429 . S
C1984 C1976 1.574 . S
C1984 H1979 0.949 . S
C1984 C1990 1.368 . S
C1985 C1969 1.349 . S
C1985 H1977 0.950 . S
C1985 C1983 1.327 . S
C1986 C1974 1.349 . S
C1986 H1980 0.950 . S
C1986 C1987 1.327 . S
C1987 H1981 0.950 . S
C1987 C1986 1.327 . S
C1987 C1991 1.429 . S
C1988 C1971 1.574 . S
C1988 H1982 0.949 . S
C1988 C1992 1.368 . S
C1989 C1970 1.429 . S
C1989 C1983 1.429 . S
C1989 C1990 1.523 . S
C1990 C1971 1.368 . S
C1990 C1984 1.368 . S
C1990 C1989 1.523 . S
C1991 C1975 1.429 . S
C1991 C1987 1.429 . S
C1991 C1992 1.523 . S
C1992 C1976 1.368 . S
C1992 C1988 1.368 . S
C1992 C1991 1.523 . S
H1993 C1968 0.950 . S
H1994 C1970 0.950 . S
H1995 C1971 0.949 . S
H1996 C1973 0.950 . S
H1997 C1975 0.950 . S
C1998 C1999 1.349 . S
C1998 C2000 1.327 . S
C1998 H2023 0.950 . S
C1999 C1998 1.349 . S
C1999 C2015 1.349 . S
C2000 C1998 1.327 . S
C2000 C2019 1.429 . S
C2000 H2024 0.950 . S
C2001 C2018 1.574 . S
C2001 C2020 1.368 . S
C2001 H2025 0.949 . S
H2002 C2006 0.949 . S
C2003 C2004 1.349 . S
C2003 C2005 1.327 . S
C2003 H2026 0.950 . S
C2004 C2003 1.349 . S
C2004 C2016 1.349 . S
C2005 C2003 1.327 . S
C2005 C2021 1.429 . S
C2005 H2027 0.950 . S
C2006 H2002 0.949 . S
C2006 C2014 1.574 . S
C2006 C2022 1.368 . S
H2007 C2015 0.950 . S
H2008 C2013 0.950 . S
H2009 C2014 0.949 . S
H2010 C2016 0.950 . S
H2011 C2017 0.950 . S
H2012 C2018 0.949 . S
C2013 H2008 0.950 . S
C2013 C2015 1.327 . S
C2013 C2019 1.429 . S
C2014 C2006 1.574 . S
C2014 H2009 0.949 . S
C2014 C2020 1.368 . S
C2015 C1999 1.349 . S
C2015 H2007 0.950 . S
C2015 C2013 1.327 . S
C2016 C2004 1.349 . S
C2016 H2010 0.950 . S
C2016 C2017 1.327 . S
C2017 H2011 0.950 . S
C2017 C2016 1.327 . S
C2017 C2021 1.429 . S
C2018 C2001 1.574 . S
C2018 H2012 0.949 . S
C2018 C2022 1.368 . S
C2019 C2000 1.429 . S
C2019 C2013 1.429 . S
C2019 C2020 1.523 . S
C2020 C2001 1.368 . S
C2020 C2014 1.368 . S
C2020 C2019 1.523 . S
C2021 C2005 1.429 . S
C2021 C2017 1.429 . S
C2021 C2022 1.523 . S
C2022 C2006 1.368 . S
C2022 C2018 1.368 . S
C2022 C2021 1.523 . S
H2023 C1998 0.950 . S
H2024 C2000 0.950 . S
H2025 C2001 0.949 . S
H2026 C2003 0.950 . S
H2027 C2005 0.950 . S
C2028 C2029 1.349 . S
C2028 C2030 1.327 . S
C2028 H2053 0.950 . S
C2029 C2028 1.349 . S
C2029 C2045 1.349 . S
C2030 C2028 1.327 . S
C2030 C2049 1.429 . S
C2030 H2054 0.950 . S
C2031 C2048 1.574 . S
C2031 C2050 1.368 . S
C2031 H2055 0.949 . S
H2032 C2036 0.949 . S
C2033 C2034 1.349 . S
C2033 C2035 1.327 . S
C2033 H2056 0.950 . S
C2034 C2033 1.349 . S
C2034 C2046 1.349 . S
C2035 C2033 1.327 . S
C2035 C2051 1.429 . S
C2035 H2057 0.950 . S
C2036 H2032 0.949 . S
C2036 C2044 1.574 . S
C2036 C2052 1.368 . S
H2037 C2045 0.950 . S
H2038 C2043 0.950 . S
H2039 C2044 0.949 . S
H2040 C2046 0.950 . S
H2041 C2047 0.950 . S
H2042 C2048 0.949 . S
C2043 H2038 0.950 . S
C2043 C2045 1.327 . S
C2043 C2049 1.429 . S
C2044 C2036 1.574 . S
C2044 H2039 0.949 . S
C2044 C2050 1.368 . S
C2045 C2029 1.349 . S
C2045 H2037 0.950 . S
C2045 C2043 1.327 . S
C2046 C2034 1.349 . S
C2046 H2040 0.950 . S
C2046 C2047 1.327 . S
C2047 H2041 0.950 . S
C2047 C2046 1.327 . S
C2047 C2051 1.429 . S
C2048 C2031 1.574 . S
C2048 H2042 0.949 . S
C2048 C2052 1.368 . S
C2049 C2030 1.429 . S
C2049 C2043 1.429 . S
C2049 C2050 1.523 . S
C2050 C2031 1.368 . S
C2050 C2044 1.368 . S
C2050 C2049 1.523 . S
C2051 C2035 1.429 . S
C2051 C2047 1.429 . S
C2051 C2052 1.523 . S
C2052 C2036 1.368 . S
C2052 C2048 1.368 . S
C2052 C2051 1.523 . S
H2053 C2028 0.950 . S
H2054 C2030 0.950 . S
H2055 C2031 0.949 . S
H2056 C2033 0.950 . S
H2057 C2035 0.950 . S
C2058 C2059 1.349 . S
C2058 C2060 1.327 . S
C2058 H2083 0.950 . S
C2059 C2058 1.349 . S
C2059 C2075 1.349 . S
C2060 C2058 1.327 . S
C2060 C2079 1.429 . S
C2060 H2084 0.950 . S
C2061 C2078 1.574 . S
C2061 C2080 1.368 . S
C2061 H2085 0.949 . S
H2062 C2066 0.949 . S
C2063 C2064 1.349 . S
C2063 C2065 1.327 . S
C2063 H2086 0.950 . S
C2064 C2063 1.349 . S
C2064 C2076 1.349 . S
C2065 C2063 1.327 . S
C2065 C2081 1.429 . S
C2065 H2087 0.950 . S
C2066 H2062 0.949 . S
C2066 C2074 1.574 . S
C2066 C2082 1.368 . S
H2067 C2075 0.950 . S
H2068 C2073 0.950 . S
H2069 C2074 0.949 . S
H2070 C2076 0.950 . S
H2071 C2077 0.950 . S
H2072 C2078 0.949 . S
C2073 H2068 0.950 . S
C2073 C2075 1.327 . S
C2073 C2079 1.429 . S
C2074 C2066 1.574 . S
C2074 H2069 0.949 . S
C2074 C2080 1.368 . S
C2075 C2059 1.349 . S
C2075 H2067 0.950 . S
C2075 C2073 1.327 . S
C2076 C2064 1.349 . S
C2076 H2070 0.950 . S
C2076 C2077 1.327 . S
C2077 H2071 0.950 . S
C2077 C2076 1.327 . S
C2077 C2081 1.429 . S
C2078 C2061 1.574 . S
C2078 H2072 0.949 . S
C2078 C2082 1.368 . S
C2079 C2060 1.429 . S
C2079 C2073 1.429 . S
C2079 C2080 1.523 . S
C2080 C2061 1.368 . S
C2080 C2074 1.368 . S
C2080 C2079 1.523 . S
C2081 C2065 1.429 . S
C2081 C2077 1.429 . S
C2081 C2082 1.523 . S
C2082 C2066 1.368 . S
C2082 C2078 1.368 . S
C2082 C2081 1.523 . S
H2083 C2058 0.950 . S
H2084 C2060 0.950 . S
H2085 C2061 0.949 . S
H2086 C2063 0.950 . S
H2087 C2065 0.950 . S
C2088 C2089 1.349 . S
C2088 C2090 1.327 . S
C2088 H2113 0.950 . S
C2089 C2088 1.349 . S
C2089 C2105 1.349 . S
C2090 C2088 1.327 . S
C2090 C2109 1.429 . S
C2090 H2114 0.950 . S
C2091 C2108 1.574 . S
C2091 C2110 1.368 . S
C2091 H2115 0.949 . S
H2092 C2096 0.949 . S
C2093 C2094 1.349 . S
C2093 C2095 1.327 . S
C2093 H2116 0.950 . S
C2094 C2093 1.349 . S
C2094 C2106 1.349 . S
C2095 C2093 1.327 . S
C2095 C2111 1.429 . S
C2095 H2117 0.950 . S
C2096 H2092 0.949 . S
C2096 C2104 1.574 . S
C2096 C2112 1.368 . S
H2097 C2105 0.950 . S
H2098 C2103 0.950 . S
H2099 C2104 0.949 . S
H2100 C2106 0.950 . S
H2101 C2107 0.950 . S
H2102 C2108 0.949 . S
C2103 H2098 0.950 . S
C2103 C2105 1.327 . S
C2103 C2109 1.429 . S
C2104 C2096 1.574 . S
C2104 H2099 0.949 . S
C2104 C2110 1.368 . S
C2105 C2089 1.349 . S
C2105 H2097 0.950 . S
C2105 C2103 1.327 . S
C2106 C2094 1.349 . S
C2106 H2100 0.950 . S
C2106 C2107 1.327 . S
C2107 H2101 0.950 . S
C2107 C2106 1.327 . S
C2107 C2111 1.429 . S
C2108 C2091 1.574 . S
C2108 H2102 0.949 . S
C2108 C2112 1.368 . S
C2109 C2090 1.429 . S
C2109 C2103 1.429 . S
C2109 C2110 1.523 . S
C2110 C2091 1.368 . S
C2110 C2104 1.368 . S
C2110 C2109 1.523 . S
C2111 C2095 1.429 . S
C2111 C2107 1.429 . S
C2111 C2112 1.523 . S
C2112 C2096 1.368 . S
C2112 C2108 1.368 . S
C2112 C2111 1.523 . S
H2113 C2088 0.950 . S
H2114 C2090 0.950 . S
H2115 C2091 0.949 . S
H2116 C2093 0.950 . S
H2117 C2095 0.950 . S
C2118 C2119 1.349 . S
C2118 C2120 1.327 . S
C2118 H2143 0.950 . S
C2119 C2118 1.349 . S
C2119 C2135 1.349 . S
C2120 C2118 1.327 . S
C2120 C2139 1.429 . S
C2120 H2144 0.950 . S
C2121 C2138 1.574 . S
C2121 C2140 1.368 . S
C2121 H2145 0.949 . S
H2122 C2126 0.949 . S
C2123 C2124 1.349 . S
C2123 C2125 1.327 . S
C2123 H2146 0.950 . S
C2124 C2123 1.349 . S
C2124 C2136 1.349 . S
C2125 C2123 1.327 . S
C2125 C2141 1.429 . S
C2125 H2147 0.950 . S
C2126 H2122 0.949 . S
C2126 C2134 1.574 . S
C2126 C2142 1.368 . S
H2127 C2135 0.950 . S
H2128 C2133 0.950 . S
H2129 C2134 0.949 . S
H2130 C2136 0.950 . S
H2131 C2137 0.950 . S
H2132 C2138 0.949 . S
C2133 H2128 0.950 . S
C2133 C2135 1.327 . S
C2133 C2139 1.429 . S
C2134 C2126 1.574 . S
C2134 H2129 0.949 . S
C2134 C2140 1.368 . S
C2135 C2119 1.349 . S
C2135 H2127 0.950 . S
C2135 C2133 1.327 . S
C2136 C2124 1.349 . S
C2136 H2130 0.950 . S
C2136 C2137 1.327 . S
C2137 H2131 0.950 . S
C2137 C2136 1.327 . S
C2137 C2141 1.429 . S
C2138 C2121 1.574 . S
C2138 H2132 0.949 . S
C2138 C2142 1.368 . S
C2139 C2120 1.429 . S
C2139 C2133 1.429 . S
C2139 C2140 1.523 . S
C2140 C2121 1.368 . S
C2140 C2134 1.368 . S
C2140 C2139 1.523 . S
C2141 C2125 1.429 . S
C2141 C2137 1.429 . S
C2141 C2142 1.523 . S
C2142 C2126 1.368 . S
C2142 C2138 1.368 . S
C2142 C2141 1.523 . S
H2143 C2118 0.950 . S
H2144 C2120 0.950 . S
H2145 C2121 0.949 . S
H2146 C2123 0.950 . S
H2147 C2125 0.950 . S
C2148 C2149 1.349 . S
C2148 C2150 1.327 . S
C2148 H2173 0.950 . S
C2149 C2148 1.349 . S
C2149 C2165 1.349 . S
C2150 C2148 1.327 . S
C2150 C2169 1.429 . S
C2150 H2174 0.950 . S
C2151 C2168 1.574 . S
C2151 C2170 1.368 . S
C2151 H2175 0.949 . S
H2152 C2156 0.949 . S
C2153 C2154 1.349 . S
C2153 C2155 1.327 . S
C2153 H2176 0.950 . S
C2154 C2153 1.349 . S
C2154 C2166 1.349 . S
C2155 C2153 1.327 . S
C2155 C2171 1.429 . S
C2155 H2177 0.950 . S
C2156 H2152 0.949 . S
C2156 C2164 1.574 . S
C2156 C2172 1.368 . S
H2157 C2165 0.950 . S
H2158 C2163 0.950 . S
H2159 C2164 0.949 . S
H2160 C2166 0.950 . S
H2161 C2167 0.950 . S
H2162 C2168 0.949 . S
C2163 H2158 0.950 . S
C2163 C2165 1.327 . S
C2163 C2169 1.429 . S
C2164 C2156 1.574 . S
C2164 H2159 0.949 . S
C2164 C2170 1.368 . S
C2165 C2149 1.349 . S
C2165 H2157 0.950 . S
C2165 C2163 1.327 . S
C2166 C2154 1.349 . S
C2166 H2160 0.950 . S
C2166 C2167 1.327 . S
C2167 H2161 0.950 . S
C2167 C2166 1.327 . S
C2167 C2171 1.429 . S
C2168 C2151 1.574 . S
C2168 H2162 0.949 . S
C2168 C2172 1.368 . S
C2169 C2150 1.429 . S
C2169 C2163 1.429 . S
C2169 C2170 1.523 . S
C2170 C2151 1.368 . S
C2170 C2164 1.368 . S
C2170 C2169 1.523 . S
C2171 C2155 1.429 . S
C2171 C2167 1.429 . S
C2171 C2172 1.523 . S
C2172 C2156 1.368 . S
C2172 C2168 1.368 . S
C2172 C2171 1.523 . S
H2173 C2148 0.950 . S
H2174 C2150 0.950 . S
H2175 C2151 0.949 . S
H2176 C2153 0.950 . S
H2177 C2155 0.950 . S
C2178 C2179 1.349 . S
C2178 C2180 1.327 . S
C2178 H2203 0.950 . S
C2179 C2178 1.349 . S
C2179 C2195 1.349 . S
C2180 C2178 1.327 . S
C2180 C2199 1.429 . S
C2180 H2204 0.950 . S
C2181 C2198 1.574 . S
C2181 C2200 1.368 . S
C2181 H2205 0.949 . S
H2182 C2186 0.949 . S
C2183 C2184 1.349 . S
C2183 C2185 1.327 . S
C2183 H2206 0.950 . S
C2184 C2183 1.349 . S
C2184 C2196 1.349 . S
C2185 C2183 1.327 . S
C2185 C2201 1.429 . S
C2185 H2207 0.950 . S
C2186 H2182 0.949 . S
C2186 C2194 1.574 . S
C2186 C2202 1.368 . S
H2187 C2195 0.950 . S
H2188 C2193 0.950 . S
H2189 C2194 0.949 . S
H2190 C2196 0.950 . S
H2191 C2197 0.950 . S
H2192 C2198 0.949 . S
C2193 H2188 0.950 . S
C2193 C2195 1.327 . S
C2193 C2199 1.429 . S
C2194 C2186 1.574 . S
C2194 H2189 0.949 . S
C2194 C2200 1.368 . S
C2195 C2179 1.349 . S
C2195 H2187 0.950 . S
C2195 C2193 1.327 . S
C2196 C2184 1.349 . S
C2196 H2190 0.950 . S
C2196 C2197 1.327 . S
C2197 H2191 0.950 . S
C2197 C2196 1.327 . S
C2197 C2201 1.429 . S
C2198 C2181 1.574 . S
C2198 H2192 0.949 . S
C2198 C2202 1.368 . S
C2199 C2180 1.429 . S
C2199 C2193 1.429 . S
C2199 C2200 1.523 . S
C2200 C2181 1.368 . S
C2200 C2194 1.368 . S
C2200 C2199 1.523 . S
C2201 C2185 1.429 . S
C2201 C2197 1.429 . S
C2201 C2202 1.523 . S
C2202 C2186 1.368 . S
C2202 C2198 1.368 . S
C2202 C2201 1.523 . S
H2203 C2178 0.950 . S
H2204 C2180 0.950 . S
H2205 C2181 0.949 . S
H2206 C2183 0.950 . S
H2207 C2185 0.950 . S
C2208 C2209 1.349 . S
C2208 C2210 1.327 . S
C2208 H2233 0.950 . S
C2209 C2208 1.349 . S
C2209 C2225 1.349 . S
C2210 C2208 1.327 . S
C2210 C2229 1.429 . S
C2210 H2234 0.950 . S
C2211 C2228 1.574 . S
C2211 C2230 1.368 . S
C2211 H2235 0.949 . S
H2212 C2216 0.949 . S
C2213 C2214 1.349 . S
C2213 C2215 1.327 . S
C2213 H2236 0.950 . S
C2214 C2213 1.349 . S
C2214 C2226 1.349 . S
C2215 C2213 1.327 . S
C2215 C2231 1.429 . S
C2215 H2237 0.950 . S
C2216 H2212 0.949 . S
C2216 C2224 1.574 . S
C2216 C2232 1.368 . S
H2217 C2225 0.950 . S
H2218 C2223 0.950 . S
H2219 C2224 0.949 . S
H2220 C2226 0.950 . S
H2221 C2227 0.950 . S
H2222 C2228 0.949 . S
C2223 H2218 0.950 . S
C2223 C2225 1.327 . S
C2223 C2229 1.429 . S
C2224 C2216 1.574 . S
C2224 H2219 0.949 . S
C2224 C2230 1.368 . S
C2225 C2209 1.349 . S
C2225 H2217 0.950 . S
C2225 C2223 1.327 . S
C2226 C2214 1.349 . S
C2226 H2220 0.950 . S
C2226 C2227 1.327 . S
C2227 H2221 0.950 . S
C2227 C2226 1.327 . S
C2227 C2231 1.429 . S
C2228 C2211 1.574 . S
C2228 H2222 0.949 . S
C2228 C2232 1.368 . S
C2229 C2210 1.429 . S
C2229 C2223 1.429 . S
C2229 C2230 1.523 . S
C2230 C2211 1.368 . S
C2230 C2224 1.368 . S
C2230 C2229 1.523 . S
C2231 C2215 1.429 . S
C2231 C2227 1.429 . S
C2231 C2232 1.523 . S
C2232 C2216 1.368 . S
C2232 C2228 1.368 . S
C2232 C2231 1.523 . S
H2233 C2208 0.950 . S
H2234 C2210 0.950 . S
H2235 C2211 0.949 . S
H2236 C2213 0.950 . S
H2237 C2215 0.950 . S
C2238 C2239 1.349 . S
C2238 C2240 1.327 . S
C2238 H2263 0.950 . S
C2239 C2238 1.349 . S
C2239 C2255 1.349 . S
C2240 C2238 1.327 . S
C2240 C2259 1.429 . S
C2240 H2264 0.950 . S
C2241 C2258 1.574 . S
C2241 C2260 1.368 . S
C2241 H2265 0.949 . S
H2242 C2246 0.949 . S
C2243 C2244 1.349 . S
C2243 C2245 1.327 . S
C2243 H2266 0.950 . S
C2244 C2243 1.349 . S
C2244 C2256 1.349 . S
C2245 C2243 1.327 . S
C2245 C2261 1.429 . S
C2245 H2267 0.950 . S
C2246 H2242 0.949 . S
C2246 C2254 1.574 . S
C2246 C2262 1.368 . S
H2247 C2255 0.950 . S
H2248 C2253 0.950 . S
H2249 C2254 0.949 . S
H2250 C2256 0.950 . S
H2251 C2257 0.950 . S
H2252 C2258 0.949 . S
C2253 H2248 0.950 . S
C2253 C2255 1.327 . S
C2253 C2259 1.429 . S
C2254 C2246 1.574 . S
C2254 H2249 0.949 . S
C2254 C2260 1.368 . S
C2255 C2239 1.349 . S
C2255 H2247 0.950 . S
C2255 C2253 1.327 . S
C2256 C2244 1.349 . S
C2256 H2250 0.950 . S
C2256 C2257 1.327 . S
C2257 H2251 0.950 . S
C2257 C2256 1.327 . S
C2257 C2261 1.429 . S
C2258 C2241 1.574 . S
C2258 H2252 0.949 . S
C2258 C2262 1.368 . S
C2259 C2240 1.429 . S
C2259 C2253 1.429 . S
C2259 C2260 1.523 . S
C2260 C2241 1.368 . S
C2260 C2254 1.368 . S
C2260 C2259 1.523 . S
C2261 C2245 1.429 . S
C2261 C2257 1.429 . S
C2261 C2262 1.523 . S
C2262 C2246 1.368 . S
C2262 C2258 1.368 . S
C2262 C2261 1.523 . S
H2263 C2238 0.950 . S
H2264 C2240 0.950 . S
H2265 C2241 0.949 . S
H2266 C2243 0.950 . S
H2267 C2245 0.950 . S
C2268 C2269 1.349 . S
C2268 C2270 1.327 . S
C2268 H2293 0.950 . S
C2269 C2268 1.349 . S
C2269 C2285 1.349 . S
C2270 C2268 1.327 . S
C2270 C2289 1.429 . S
C2270 H2294 0.950 . S
C2271 C2288 1.574 . S
C2271 C2290 1.368 . S
C2271 H2295 0.949 . S
H2272 C2276 0.949 . S
C2273 C2274 1.349 . S
C2273 C2275 1.327 . S
C2273 H2296 0.950 . S
C2274 C2273 1.349 . S
C2274 C2286 1.349 . S
C2275 C2273 1.327 . S
C2275 C2291 1.429 . S
C2275 H2297 0.950 . S
C2276 H2272 0.949 . S
C2276 C2284 1.574 . S
C2276 C2292 1.368 . S
H2277 C2285 0.950 . S
H2278 C2283 0.950 . S
H2279 C2284 0.949 . S
H2280 C2286 0.950 . S
H2281 C2287 0.950 . S
H2282 C2288 0.949 . S
C2283 H2278 0.950 . S
C2283 C2285 1.327 . S
C2283 C2289 1.429 . S
C2284 C2276 1.574 . S
C2284 H2279 0.949 . S
C2284 C2290 1.368 . S
C2285 C2269 1.349 . S
C2285 H2277 0.950 . S
C2285 C2283 1.327 . S
C2286 C2274 1.349 . S
C2286 H2280 0.950 . S
C2286 C2287 1.327 . S
C2287 H2281 0.950 . S
C2287 C2286 1.327 . S
C2287 C2291 1.429 . S
C2288 C2271 1.574 . S
C2288 H2282 0.949 . S
C2288 C2292 1.368 . S
C2289 C2270 1.429 . S
C2289 C2283 1.429 . S
C2289 C2290 1.523 . S
C2290 C2271 1.368 . S
C2290 C2284 1.368 . S
C2290 C2289 1.523 . S
C2291 C2275 1.429 . S
C2291 C2287 1.429 . S
C2291 C2292 1.523 . S
C2292 C2276 1.368 . S
C2292 C2288 1.368 . S
C2292 C2291 1.523 . S
H2293 C2268 0.950 . S
H2294 C2270 0.950 . S
H2295 C2271 0.949 . S
H2296 C2273 0.950 . S
H2297 C2275 0.950 . S
C2298 C2299 1.349 . S
C2298 C2300 1.327 . S
C2298 H2323 0.950 . S
C2299 C2298 1.349 . S
C2299 C2315 1.349 . S
C2300 C2298 1.327 . S
C2300 C2319 1.429 . S
C2300 H2324 0.950 . S
C2301 C2318 1.574 . S
C2301 C2320 1.368 . S
C2301 H2325 0.949 . S
H2302 C2306 0.949 . S
C2303 C2304 1.349 . S
C2303 C2305 1.327 . S
C2303 H2326 0.950 . S
C2304 C2303 1.349 . S
C2304 C2316 1.349 . S
C2305 C2303 1.327 . S
C2305 C2321 1.429 . S
C2305 H2327 0.950 . S
C2306 H2302 0.949 . S
C2306 C2314 1.574 . S
C2306 C2322 1.368 . S
H2307 C2315 0.950 . S
H2308 C2313 0.950 . S
H2309 C2314 0.949 . S
H2310 C2316 0.950 . S
H2311 C2317 0.950 . S
H2312 C2318 0.949 . S
C2313 H2308 0.950 . S
C2313 C2315 1.327 . S
C2313 C2319 1.429 . S
C2314 C2306 1.574 . S
C2314 H2309 0.949 . S
C2314 C2320 1.368 . S
C2315 C2299 1.349 . S
C2315 H2307 0.950 . S
C2315 C2313 1.327 . S
C2316 C2304 1.349 . S
C2316 H2310 0.950 . S
C2316 C2317 1.327 . S
C2317 H2311 0.950 . S
C2317 C2316 1.327 . S
C2317 C2321 1.429 . S
C2318 C2301 1.574 . S
C2318 H2312 0.949 . S
C2318 C2322 1.368 . S
C2319 C2300 1.429 . S
C2319 C2313 1.429 . S
C2319 C2320 1.523 . S
C2320 C2301 1.368 . S
C2320 C2314 1.368 . S
C2320 C2319 1.523 . S
C2321 C2305 1.429 . S
C2321 C2317 1.429 . S
C2321 C2322 1.523 . S
C2322 C2306 1.368 . S
C2322 C2318 1.368 . S
C2322 C2321 1.523 . S
H2323 C2298 0.950 . S
H2324 C2300 0.950 . S
H2325 C2301 0.949 . S
H2326 C2303 0.950 . S
H2327 C2305 0.950 . S
C2328 C2329 1.349 . S
C2328 C2330 1.327 . S
C2328 H2353 0.950 . S
C2329 C2328 1.349 . S
C2329 C2345 1.349 . S
C2330 C2328 1.327 . S
C2330 C2349 1.429 . S
C2330 H2354 0.950 . S
C2331 C2348 1.574 . S
C2331 C2350 1.368 . S
C2331 H2355 0.949 . S
H2332 C2336 0.949 . S
C2333 C2334 1.349 . S
C2333 C2335 1.327 . S
C2333 H2356 0.950 . S
C2334 C2333 1.349 . S
C2334 C2346 1.349 . S
C2335 C2333 1.327 . S
C2335 C2351 1.429 . S
C2335 H2357 0.950 . S
C2336 H2332 0.949 . S
C2336 C2344 1.574 . S
C2336 C2352 1.368 . S
H2337 C2345 0.950 . S
H2338 C2343 0.950 . S
H2339 C2344 0.949 . S
H2340 C2346 0.950 . S
H2341 C2347 0.950 . S
H2342 C2348 0.949 . S
C2343 H2338 0.950 . S
C2343 C2345 1.327 . S
C2343 C2349 1.429 . S
C2344 C2336 1.574 . S
C2344 H2339 0.949 . S
C2344 C2350 1.368 . S
C2345 C2329 1.349 . S
C2345 H2337 0.950 . S
C2345 C2343 1.327 . S
C2346 C2334 1.349 . S
C2346 H2340 0.950 . S
C2346 C2347 1.327 . S
C2347 H2341 0.950 . S
C2347 C2346 1.327 . S
C2347 C2351 1.429 . S
C2348 C2331 1.574 . S
C2348 H2342 0.949 . S
C2348 C2352 1.368 . S
C2349 C2330 1.429 . S
C2349 C2343 1.429 . S
C2349 C2350 1.523 . S
C2350 C2331 1.368 . S
C2350 C2344 1.368 . S
C2350 C2349 1.523 . S
C2351 C2335 1.429 . S
C2351 C2347 1.429 . S
C2351 C2352 1.523 . S
C2352 C2336 1.368 . S
C2352 C2348 1.368 . S
C2352 C2351 1.523 . S
H2353 C2328 0.950 . S
H2354 C2330 0.950 . S
H2355 C2331 0.949 . S
H2356 C2333 0.950 . S
H2357 C2335 0.950 . S
C2358 C2359 1.349 . S
C2358 C2360 1.327 . S
C2358 H2383 0.950 . S
C2359 C2358 1.349 . S
C2359 C2375 1.349 . S
C2360 C2358 1.327 . S
C2360 C2379 1.429 . S
C2360 H2384 0.950 . S
C2361 C2378 1.574 . S
C2361 C2380 1.368 . S
C2361 H2385 0.949 . S
H2362 C2366 0.949 . S
C2363 C2364 1.349 . S
C2363 C2365 1.327 . S
C2363 H2386 0.950 . S
C2364 C2363 1.349 . S
C2364 C2376 1.349 . S
C2365 C2363 1.327 . S
C2365 C2381 1.429 . S
C2365 H2387 0.950 . S
C2366 H2362 0.949 . S
C2366 C2374 1.574 . S
C2366 C2382 1.368 . S
H2367 C2375 0.950 . S
H2368 C2373 0.950 . S
H2369 C2374 0.949 . S
H2370 C2376 0.950 . S
H2371 C2377 0.950 . S
H2372 C2378 0.949 . S
C2373 H2368 0.950 . S
C2373 C2375 1.327 . S
C2373 C2379 1.429 . S
C2374 C2366 1.574 . S
C2374 H2369 0.949 . S
C2374 C2380 1.368 . S
C2375 C2359 1.349 . S
C2375 H2367 0.950 . S
C2375 C2373 1.327 . S
C2376 C2364 1.349 . S
C2376 H2370 0.950 . S
C2376 C2377 1.327 . S
C2377 H2371 0.950 . S
C2377 C2376 1.327 . S
C2377 C2381 1.429 . S
C2378 C2361 1.574 . S
C2378 H2372 0.949 . S
C2378 C2382 1.368 . S
C2379 C2360 1.429 . S
C2379 C2373 1.429 . S
C2379 C2380 1.523 . S
C2380 C2361 1.368 . S
C2380 C2374 1.368 . S
C2380 C2379 1.523 . S
C2381 C2365 1.429 . S
C2381 C2377 1.429 . S
C2381 C2382 1.523 . S
C2382 C2366 1.368 . S
C2382 C2378 1.368 . S
C2382 C2381 1.523 . S
H2383 C2358 0.950 . S
H2384 C2360 0.950 . S
H2385 C2361 0.949 . S
H2386 C2363 0.950 . S
H2387 C2365 0.950 . S
C954 C334 1.271 . S
C949 N2 1.408 . S
C984 C434 2.255 . S
C979 C7 2.265 . S
C1014 C514 1.215 . S
C1009 N12 1.381 . S
C1039 C16 2.017 . S
C1044 C591 2.041 . S
C1074 C675 2.278 . S
C1069 C30 2.290 1_565 S
C1104 C754 1.103 . S
C1099 N35 1.270 . S
C1129 C39 2.098 . S
C1134 C854 2.084 . S
C1164 C934 1.200 . S
C1159 N25 1.273 . S
C1194 C332 1.002 . S
C1189 N58 1.012 . S
C1219 N81 1.794 . S
C1224 C427 1.797 . S
C1254 C518 1.061 . S
C1249 N104 1.024 . S
C1279 N127 1.080 . S
C1284 C586 0.930 . S
C1314 C670 0.729 . S
C1309 N48 0.687 1_565 S
C1344 C752 1.465 . S
C1339 N71 1.442 1_556 S
C1369 N94 1.228 . S
C1374 C847 1.232 . S
C1404 C938 1.558 . S
C1399 N117 1.533 . S
C1429 C85 2.070 . S
C1434 C339 2.077 . S
C1459 C122 2.310 . S
C1464 C668 2.268 . S
C1489 C53 1.629 . S
C1494 C759 1.656 . S
C1524 C850 1.222 . S
C1519 C76 1.455 1_655 S
C1554 C931 1.599 . S
C1549 C99 1.671 . S
C1584 C511 1.893 . S
C1579 C131 1.919 . S
C1614 C584 1.698 . S
C1609 C62 1.727 1_565 S
C1639 C108 1.025 . S
C1644 C430 0.903 . S
C1674 C922 1.291 . S
C1669 N140 1.455 . S
C1699 C145 2.257 . S
C1704 C686 2.248 . S
C1734 C766 1.156 . S
C1729 N150 1.291 . S
C1759 C154 2.017 . S
C1764 C843 2.042 . S
C1794 C423 2.274 . S
C1789 C168 2.287 . S
C1819 N173 1.178 . S
C1824 C502 1.047 . S
C1854 C602 2.085 . S
C1849 C177 2.100 . S
C1884 C346 1.219 . S
C1879 N163 1.310 . S
C1914 C920 1.426 . S
C1909 C200 1.464 . S
C1944 C679 2.103 . S
C1939 N219 2.099 . S
C1969 N242 1.277 . S
C1974 C770 1.342 . S
C2004 C838 1.153 . S
C1999 C269 1.400 . S
C2034 C418 0.859 . S
C2029 C191 0.973 . S
C2059 N209 1.707 . S
C2064 C500 1.731 . S
C2089 N232 1.542 . S
C2094 C595 1.554 . S
C2119 C260 2.040 . S
C2124 C350 2.030 . S
C2149 C223 1.757 . S
C2154 C927 1.762 . S
C2179 N255 1.880 . S
C2184 C416 1.876 . S
C2209 N186 1.196 . S
C2214 C507 1.241 . S
C2244 C598 0.974 . S
C2239 C214 1.127 . S
C2274 C343 1.291 . S
C2269 C237 1.343 . S
C2304 C763 1.476 . S
C2299 N265 1.447 . S
C2334 C836 1.323 . S
C2329 N196 1.323 . S
C2364 C682 0.729 . S
C2359 C246 0.703 . S
