# Generated by pormake.
# Topology pyr, (3,6)-cn, num edge types: 1
# Building blocks:
#     Node 0, Type 0, BuildingBlock: OLANEW_clean_sbu_2, # of connection points: 3
#     Node 1, Type 0, BuildingBlock: OLANEW_clean_sbu_2, # of connection points: 3
#     Node 2, Type 0, BuildingBlock: OLANEW_clean_sbu_2, # of connection points: 3
#     Node 3, Type 0, BuildingBlock: OLANEW_clean_sbu_2, # of connection points: 3
#     Node 4, Type 0, BuildingBlock: OLANEW_clean_sbu_2, # of connection points: 3
#     Node 5, Type 0, BuildingBlock: OLANEW_clean_sbu_2, # of connection points: 3
#     Node 6, Type 0, BuildingBlock: OLANEW_clean_sbu_2, # of connection points: 3
#     Node 7, Type 0, BuildingBlock: OLANEW_clean_sbu_2, # of connection points: 3
#     Node 8, Type 1, BuildingBlock: GEDQOX_clean_sbu_0, # of connection points: 6
#     Node 9, Type 1, BuildingBlock: GEDQOX_clean_sbu_0, # of connection points: 6
#     Node 10, Type 1, BuildingBlock: GEDQOX_clean_sbu_0, # of connection points: 6
#     Node 11, Type 1, BuildingBlock: GEDQOX_clean_sbu_0, # of connection points: 6
#     Edge 12, Type (0, 1), BuildingBlock: TEMPAE_clean_linker_10, # of connection points: 2
#     Edge 13, Type (0, 1), BuildingBlock: TEMPAE_clean_linker_10, # of connection points: 2
#     Edge 14, Type (0, 1), BuildingBlock: TEMPAE_clean_linker_10, # of connection points: 2
#     Edge 15, Type (0, 1), BuildingBlock: TEMPAE_clean_linker_10, # of connection points: 2
#     Edge 16, Type (0, 1), BuildingBlock: TEMPAE_clean_linker_10, # of connection points: 2
#     Edge 17, Type (0, 1), BuildingBlock: TEMPAE_clean_linker_10, # of connection points: 2
#     Edge 18, Type (0, 1), BuildingBlock: TEMPAE_clean_linker_10, # of connection points: 2
#     Edge 19, Type (0, 1), BuildingBlock: TEMPAE_clean_linker_10, # of connection points: 2
#     Edge 20, Type (0, 1), BuildingBlock: TEMPAE_clean_linker_10, # of connection points: 2
#     Edge 21, Type (0, 1), BuildingBlock: TEMPAE_clean_linker_10, # of connection points: 2
#     Edge 22, Type (0, 1), BuildingBlock: TEMPAE_clean_linker_10, # of connection points: 2
#     Edge 23, Type (0, 1), BuildingBlock: TEMPAE_clean_linker_10, # of connection points: 2
#     Edge 24, Type (0, 1), BuildingBlock: TEMPAE_clean_linker_10, # of connection points: 2
#     Edge 25, Type (0, 1), BuildingBlock: TEMPAE_clean_linker_10, # of connection points: 2
#     Edge 26, Type (0, 1), BuildingBlock: TEMPAE_clean_linker_10, # of connection points: 2
#     Edge 27, Type (0, 1), BuildingBlock: TEMPAE_clean_linker_10, # of connection points: 2
#     Edge 28, Type (0, 1), BuildingBlock: TEMPAE_clean_linker_10, # of connection points: 2
#     Edge 29, Type (0, 1), BuildingBlock: TEMPAE_clean_linker_10, # of connection points: 2
#     Edge 30, Type (0, 1), BuildingBlock: TEMPAE_clean_linker_10, # of connection points: 2
#     Edge 31, Type (0, 1), BuildingBlock: TEMPAE_clean_linker_10, # of connection points: 2
#     Edge 32, Type (0, 1), BuildingBlock: TEMPAE_clean_linker_10, # of connection points: 2
#     Edge 33, Type (0, 1), BuildingBlock: TEMPAE_clean_linker_10, # of connection points: 2
#     Edge 34, Type (0, 1), BuildingBlock: TEMPAE_clean_linker_10, # of connection points: 2
#     Edge 35, Type (0, 1), BuildingBlock: TEMPAE_clean_linker_10, # of connection points: 2
# Relax obj value: 0.173
# Max RMSD: 0.181
# Mean RMSD: 0.131
data_MOF--net-pyr--node1-OLANEW_clean_sbu_2--node2-GEDQOX_clean_sbu_0--edge1-TEMPAE_clean_linker_10
_symmetry_space_group_name_H-M    P1
_symmetry_Int_Tables_number       1
_symmetry_cell_setting            triclinic
loop_
_symmetry_equiv_pos_as_xyz
'x, y, z'
_cell_length_a     43.230728
_cell_length_b     43.126392
_cell_length_c     37.765225
_cell_angle_alpha  92.960186
_cell_angle_beta   92.975991
_cell_angle_gamma 93.128822
loop_
_atom_site_label
_atom_site_type_symbol
_atom_site_fract_x
_atom_site_fract_y
_atom_site_fract_z
_atom_type_partial_charge
O0 O 0.25459 0.18342 0.159 0.0
Cd1 Cd 0.20716 0.21715 0.16546 0.0
O2 O 0.25391 0.146 0.19849 0.0
Cd3 Cd 0.21601 0.1423 0.23941 0.0
O4 O 0.18845 0.13032 0.28854 0.0
C5 C 0.16535 0.11026 0.28846 0.0
O6 O 0.156 0.09559 0.25811 0.0
C7 C 0.26645 0.15957 0.17259 0.0
C8 C 0.18837 0.27198 0.1296 0.0
O9 O 0.20465 0.27414 0.15913 0.0
O10 O 0.18257 0.2444 0.11552 0.0
O11 O 0.37649 0.8156 0.83079 0.0
Cd12 Cd 0.34954 0.77523 0.79042 0.0
O13 O 0.34258 0.81028 0.87187 0.0
Cd14 Cd 0.31266 0.77707 0.83866 0.0
O15 O 0.27593 0.77161 0.79682 0.0
C16 C 0.24842 0.77639 0.80513 0.0
O17 O 0.24302 0.78124 0.83883 0.0
C18 C 0.36715 0.82352 0.86121 0.0
C19 C 0.38794 0.73835 0.75092 0.0
O20 O 0.37962 0.7306 0.78149 0.0
O21 O 0.37858 0.76385 0.73937 0.0
O22 O 0.78496 0.47397 0.89092 0.0
Cd23 Cd 0.72905 0.46126 0.88548 0.0
O24 O 0.78038 0.44261 0.93398 0.0
Cd25 Cd 0.79222 0.40996 0.97403 0.0
O26 O 0.76592 0.36856 0.98955 0.0
C27 C 0.73801 0.37271 0.99684 0.0
O28 O 0.72845 0.40113 0.99747 0.0
C29 C 0.79767 0.45959 0.91579 0.0
C30 C 0.69761 0.48049 0.82511 0.0
O31 O 0.69747 0.49629 0.8548 0.0
O32 O 0.71324 0.45609 0.82378 0.0
O33 O 0.05551 0.80027 0.40045 0.0
Cd34 Cd 0.08062 0.75543 0.37651 0.0
O35 O 1.01255 0.77084 0.39857 0.0
Cd36 Cd 0.96523 0.75788 0.4116 0.0
O37 O 0.92226 0.73708 0.42958 0.0
C38 C 0.89809 0.75233 0.43218 0.0
O39 O 0.89891 0.78145 0.42346 0.0
C40 C 0.02687 0.79702 0.40635 0.0
C41 C 0.04054 0.7215 0.32731 0.0
O42 O 0.06067 0.74171 0.31736 0.0
O43 O 0.03954 0.71716 0.36055 0.0
O44 O 0.89687 0.86626 0.84242 0.0
Cd45 Cd 0.88911 0.82275 0.8862 0.0
O46 O 0.85812 0.89756 0.85004 0.0
Cd47 Cd 0.81501 0.92348 0.86741 0.0
O48 O 0.77066 0.93824 0.89513 0.0
C49 C 0.76141 0.96598 0.89908 0.0
O50 O 0.77814 0.98868 0.8862 0.0
C51 C 0.88262 0.89054 0.83374 0.0
C52 C 0.92616 0.77041 0.90233 0.0
O53 O 0.90613 0.76899 0.87589 0.0
O54 O 0.93037 0.79679 0.91976 0.0
O55 O 0.70617 0.2658 0.24693 0.0
Cd56 Cd 0.73616 0.30106 0.29037 0.0
O57 O 0.66548 0.26512 0.27958 0.0
Cd58 Cd 0.68444 0.29965 0.32056 0.0
O59 O 0.68325 0.33621 0.36271 0.0
C60 C 0.68427 0.36463 0.35522 0.0
O61 O 0.68808 0.37161 0.3222 0.0
C62 C 0.67859 0.25581 0.2519 0.0
C63 C 0.77631 0.26897 0.33369 0.0
O64 O 0.74818 0.27244 0.34159 0.0
O65 O 0.78549 0.28077 0.30532 0.0
O66 O 0.4597 0.6525 0.15922 0.0
Cd67 Cd 0.45552 0.59968 0.17913 0.0
O68 O 0.4091 0.65155 0.15642 0.0
Cd69 Cd 0.36166 0.66512 0.14577 0.0
O70 O 0.31185 0.65493 0.13534 0.0
C71 C 0.30398 0.62953 0.11776 0.0
O72 O 0.32586 0.61213 0.10644 0.0
C73 C 0.43496 0.66633 0.153 0.0
C74 C 0.4713 0.60012 0.25164 0.0
O75 O 0.49176 0.59654 0.22861 0.0
O76 O 0.44322 0.60317 0.24032 0.0
O77 O 0.23836 0.26632 0.78211 0.0
Cd78 Cd 0.24666 0.23053 0.73192 0.0
O79 O 0.27484 0.25049 0.81852 0.0
Cd80 Cd 0.27254 0.20728 0.78579 0.0
O81 O 0.24085 0.17179 0.75836 0.0
C82 C 0.21265 0.17327 0.76604 0.0
O83 O 0.20554 0.19462 0.78989 0.0
C84 C 0.25491 0.2701 0.81102 0.0
C85 C 0.28054 0.26618 0.68645 0.0
O86 O 0.25082 0.26409 0.68369 0.0
O87 O 0.2942 0.25014 0.70957 0.0
Nd88 Nd 0.03806 0.9905 0.56781 0.0
Nd89 Nd 0.99749 0.04312 0.56675 0.0
C90 C 0.06922 0.93988 0.55979 0.0
C91 C 0.08295 0.91836 0.58415 0.0
C92 C 0.09331 0.88996 0.57108 0.0
C93 C 0.10791 0.87026 0.59415 0.0
C94 C 0.1126 0.87893 0.6305 0.0
C95 C 0.10145 0.90706 0.64357 0.0
C96 C 0.08663 0.92655 0.6206 0.0
C97 C 0.05365 0.034 0.62288 0.0
C98 C 0.98448 0.99258 0.62474 0.0
C99 C 0.96918 0.09615 0.5653 0.0
C100 C 0.95126 0.11349 0.53929 0.0
C101 C 0.96049 0.14445 0.53366 0.0
C102 C 0.94325 0.16156 0.51001 0.0
C103 C 0.91625 0.14808 0.49163 0.0
C104 C 0.90724 0.11693 0.49713 0.0
C105 C 0.9246 0.09979 0.52057 0.0
C106 C 0.97494 0.99119 0.52589 0.0
C107 C 0.05135 0.04155 0.50719 0.0
O108 O 0.03886 0.93952 0.55768 0.0
O109 O 0.08233 0.96805 0.56161 0.0
O110 O 0.05387 1.00426 0.62567 0.0
O111 O 0.04585 0.04006 0.5915 0.0
O112 O 0.99713 0.97382 0.60138 0.0
O113 O 0.98749 0.02298 0.62128 0.0
O114 O 0.99877 0.09431 0.56081 0.0
O115 O 0.95623 0.07019 0.57517 0.0
O116 O 0.95771 1.00655 0.54668 0.0
O117 O 1.00194 1.00306 0.52758 0.0
O118 O 0.02694 0.05573 0.51865 0.0
O119 O 0.06034 0.01613 0.52204 0.0
H120 H 0.09071 0.88331 0.54302 0.0
H121 H 0.11647 0.84878 0.58341 0.0
H122 H 0.10446 0.91411 0.67155 0.0
H123 H 0.07856 0.94828 0.63121 0.0
H124 H 0.981 0.15549 0.54774 0.0
H125 H 0.95114 0.18533 0.50605 0.0
H126 H 0.88637 0.1059 0.48387 0.0
H127 H 0.91688 0.07591 0.52428 0.0
Nd128 Nd 0.51786 0.03305 0.07502 0.0
Nd129 Nd 0.51084 0.07052 0.01928 0.0
C130 C 0.52292 0.98656 0.11794 0.0
C131 C 0.50932 0.95455 0.11937 0.0
C132 C 0.50922 0.93311 0.09003 0.0
C133 C 0.49655 0.90278 0.09212 0.0
C134 C 0.48367 0.8933 0.12354 0.0
C135 C 0.48341 0.91499 0.15264 0.0
C136 C 0.49616 0.94528 0.15057 0.0
C137 C 0.46929 0.07242 0.08539 0.0
C138 C 0.47606 1.00513 1.00534 0.0
C139 C 0.50665 0.11919 0.97988 0.0
C140 C 0.52703 0.14796 0.97977 0.0
C141 C 0.52906 0.1698 0.00892 0.0
C142 C 0.5515 0.19448 0.01101 0.0
C143 C 0.57246 0.19791 0.98409 0.0
C144 C 0.56955 0.1769 0.95419 0.0
C145 C 0.54703 0.15222 0.95204 0.0
C146 C 0.55906 0.03173 1.00689 0.0
C147 C 0.55632 0.09617 0.08834 0.0
O148 O 0.54171 0.99191 0.09273 0.0
O149 O 0.50425 1.00888 0.12296 0.0
O150 O 0.49211 0.06909 0.1083 0.0
O151 O 0.47359 0.05678 0.05677 0.0
O152 O 0.49553 0.99873 0.03145 0.0
O153 O 0.47333 0.03418 0.99732 0.0
O154 O 0.49076 0.11545 0.00799 0.0
O155 O 0.51877 0.09358 0.96899 0.0
O156 O 0.5366 0.03662 0.98416 0.0
O157 O 0.55502 0.04627 0.03645 0.0
O158 O 0.53748 0.1038 0.0621 0.0
O159 O 0.55659 0.06718 0.09684 0.0
H160 H 0.5192 0.93961 0.06558 0.0
H161 H 0.49757 0.88654 0.06943 0.0
H162 H 0.47333 0.90855 0.17707 0.0
H163 H 0.49584 0.96149 0.17343 0.0
H164 H 0.51395 0.1674 0.03073 0.0
H165 H 0.55265 0.21073 0.03392 0.0
H166 H 0.5854 0.17886 0.93303 0.0
H167 H 0.54601 0.13578 0.92927 0.0
Nd168 Nd 0.5222 0.53347 0.55366 0.0
Nd169 Nd 0.57834 0.57951 0.5681 0.0
C170 C 0.4687 0.5028 0.5344 0.0
C171 C 0.44593 0.48188 0.54995 0.0
C172 C 0.42174 0.46711 0.52816 0.0
C173 C 0.40175 0.4446 0.5416 0.0
C174 C 0.40571 0.4365 0.57708 0.0
C175 C 0.42955 0.45205 0.59911 0.0
C176 C 0.44957 0.47453 0.5856 0.0
C177 C 0.55893 0.52186 0.61256 0.0
C178 C 0.51514 0.59755 0.60164 0.0
C179 C 0.63232 0.60943 0.58599 0.0
C180 C 0.65892 0.62285 0.5682 0.0
C181 C 0.68876 0.62236 0.58439 0.0
C182 C 0.71422 0.63596 0.56849 0.0
C183 C 0.71024 0.65046 0.53614 0.0
C184 C 0.68027 0.65045 0.51973 0.0
C185 C 0.65485 0.63665 0.53554 0.0
C186 C 0.54169 0.59017 0.50829 0.0
C187 C 0.58548 0.51627 0.51832 0.0
O188 O 0.47077 0.53185 0.5465 0.0
O189 O 0.49573 0.49152 0.5301 0.0
O190 O 0.54306 0.50019 0.59339 0.0
O191 O 0.55222 0.54818 0.60298 0.0
O192 O 0.50139 0.57793 0.57688 0.0
O193 O 0.54541 0.59801 0.60843 0.0
O194 O 0.62849 0.57907 0.58418 0.0
O195 O 0.60627 0.62323 0.58189 0.0
O196 O 0.55678 0.61217 0.5278 0.0
O197 O 0.54878 0.56427 0.51871 0.0
O198 O 0.59979 0.53654 0.54197 0.0
O199 O 0.55503 0.51521 0.51301 0.0
H200 H 0.41876 0.47247 0.50052 0.0
H201 H 0.38338 0.4333 0.52413 0.0
H202 H 0.43339 0.44609 0.62644 0.0
H203 H 0.46838 0.48556 0.60266 0.0
H204 H 0.69233 0.61161 0.60948 0.0
H205 H 0.73705 0.63503 0.5815 0.0
H206 H 0.67632 0.66165 0.49501 0.0
H207 H 0.63198 0.63712 0.52248 0.0
Nd208 Nd 0.03216 0.51239 0.03465 0.0
Nd209 Nd 0.08268 0.5247 0.9829 0.0
C210 C 0.9796 0.50478 0.06667 0.0
C211 C 0.96263 0.52591 0.08926 0.0
C212 C 0.9506 0.51509 0.12039 0.0
C213 C 0.94317 0.53618 0.14753 0.0
C214 C 0.94771 0.56835 0.14378 0.0
C215 C 0.95643 0.57902 0.111 0.0
C216 C 0.96403 0.55793 0.08398 0.0
C217 C 0.0836 0.54685 0.06328 0.0
C218 C 0.03032 0.57572 0.98573 0.0
C219 C 0.13566 0.53239 0.9519 0.0
C220 C 0.1623 0.51299 0.94766 0.0
C221 C 0.17441 0.49677 0.97611 0.0
C222 C 0.19551 0.47394 0.97012 0.0
C223 C 0.20464 0.4668 0.93561 0.0
C224 C 0.19419 0.48466 0.90773 0.0
C225 C 0.17321 0.50758 0.91374 0.0
C226 C 0.02912 0.49385 0.95434 0.0
C227 C 0.08478 0.46175 0.03108 0.0
O228 O 0.98065 0.51078 0.03309 0.0
O229 O 1.00649 0.49795 0.0807 0.0
O230 O 0.06812 0.52686 0.08097 0.0
O231 O 0.07057 0.54938 0.03322 0.0
O232 O 1.0151 0.55576 1.00531 0.0
O233 O 0.05897 0.57084 0.97681 0.0
O234 O 0.13142 0.54355 0.98408 0.0
O235 O 0.10985 0.52166 0.93484 0.0
O236 O 0.04452 0.51517 0.93832 0.0
O237 O 0.04301 0.48867 0.98338 0.0
O238 O 0.10076 0.48304 0.01416 0.0
O239 O 0.05524 0.46537 0.03709 0.0
H240 H 0.94947 0.49046 0.12495 0.0
H241 H 0.93629 0.52741 0.17249 0.0
H242 H 0.9604 0.60366 0.10746 0.0
H243 H 0.97349 0.56685 0.06027 0.0
H244 H 0.16647 0.50061 1.00264 0.0
H245 H 0.20363 0.46091 0.99215 0.0
H246 H 0.20054 0.47952 0.88077 0.0
H247 H 0.16411 0.51981 0.89147 0.0
C248 C 0.15893 0.11548 0.3557 0.0
C249 C 0.14896 0.10252 0.32176 0.0
C250 C 0.14366 0.10723 0.38665 0.0
C251 C 0.11756 0.08545 0.38406 0.0
C252 C 0.10728 0.07262 0.34984 0.0
C253 C 0.12293 0.08118 0.31951 0.0
C254 C 0.1557 0.12162 0.42229 0.0
C255 C 0.07972 0.04943 0.34519 0.0
C256 C 0.09448 0.03851 0.46396 0.0
C257 C 0.06868 0.0536 0.47631 0.0
C258 C 0.11078 0.04893 0.43479 0.0
C259 C 0.1014 0.07532 0.41687 0.0
C260 C 0.0756 0.0909 0.42942 0.0
C261 C 0.05969 0.07997 0.45873 0.0
C262 C 0.13792 0.0313 0.4228 0.0
C263 C 0.06445 0.11901 0.41148 0.0
H264 H 0.17889 0.13192 0.35818 0.0
H265 H 0.11467 0.07086 0.29375 0.0
H266 H 0.13693 0.13352 0.43548 0.0
H267 H 0.16317 0.10316 0.43971 0.0
H268 H 0.17561 0.13868 0.42006 0.0
H269 H 0.07402 0.04205 0.31688 0.0
H270 H 0.0845 0.0285 0.36 0.0
H271 H 0.05908 0.05962 0.35636 0.0
H272 H 0.10197 0.01819 0.47701 0.0
H273 H 0.03996 0.09205 0.46771 0.0
H274 H 0.15887 0.04732 0.42247 0.0
H275 H 0.13287 0.02137 0.39529 0.0
H276 H 0.14325 1.01208 0.44021 0.0
H277 H 0.08378 0.13694 0.41084 0.0
H278 H 0.04499 0.12941 0.42506 0.0
H279 H 0.0566 0.11238 0.38354 0.0
C280 C 0.36953 0.86269 0.91268 0.0
C281 C 0.38348 0.84954 0.88314 0.0
C282 C 0.38363 0.88859 0.93245 0.0
C283 C 0.41257 0.90149 0.92273 0.0
C284 C 0.427 0.88811 0.89326 0.0
C285 C 0.41221 0.8624 0.87369 0.0
C286 C 0.36747 0.90228 0.96363 0.0
C287 C 0.45812 0.90091 0.88247 0.0
C288 C 0.43868 0.9843 0.95538 0.0
C289 C 0.4588 0.97905 0.9845 0.0
C290 C 0.42326 0.95927 0.9351 0.0
C291 C 0.42823 0.92835 0.94412 0.0
C292 C 0.44829 0.92298 0.97366 0.0
C293 C 0.46321 0.94834 0.99349 0.0
C294 C 0.40177 0.96585 0.90394 0.0
C295 C 0.45421 0.89041 0.98423 0.0
H296 H 0.34723 0.85309 0.92007 0.0
H297 H 0.42316 0.8524 0.85094 0.0
H298 H 0.38225 0.90116 0.98837 0.0
H299 H 0.36371 0.92717 0.9599 0.0
H300 H 0.34469 0.88996 0.96721 0.0
H301 H 0.46619 0.88793 0.85883 0.0
H302 H 0.45677 0.92572 0.87643 0.0
H303 H 0.47574 0.89986 0.90475 0.0
H304 H 0.43511 1.00793 0.94829 0.0
H305 H 0.47862 0.94395 0.01598 0.0
H306 H 0.37825 0.95514 0.90729 0.0
H307 H 0.41019 0.95522 0.87912 0.0
H308 H 0.39993 0.99117 0.90082 0.0
H309 H 0.43217 0.87827 0.99094 0.0
H310 H 0.47107 0.89023 1.00742 0.0
H311 H 0.46328 0.87684 0.96166 0.0
C312 C 0.65181 0.50495 0.79795 0.0
C313 C 0.67899 0.48921 0.79368 0.0
C314 C 0.63238 0.51101 0.76848 0.0
C315 C 0.6409 0.50192 0.73392 0.0
C316 C 0.66896 0.48708 0.72942 0.0
C317 C 0.68744 0.48044 0.75943 0.0
C318 C 0.60227 0.52619 0.7744 0.0
C319 C 0.67928 0.47793 0.69294 0.0
C320 C 0.57825 0.4882 0.65963 0.0
C321 C 0.57972 0.51672 0.64356 0.0
C322 C 0.59777 0.48323 0.68942 0.0
C323 C 0.61993 0.50702 0.70257 0.0
C324 C 0.62184 0.53569 0.68594 0.0
C325 C 0.60126 0.54039 0.65702 0.0
C326 C 0.59445 0.45266 0.70704 0.0
C327 C 0.64574 0.56127 0.69849 0.0
H328 H 0.6451 0.5115 0.82445 0.0
H329 H 0.70858 0.46844 0.75611 0.0
H330 H 0.60135 0.54783 0.75985 0.0
H331 H 0.58247 0.51038 0.76374 0.0
H332 H 0.59915 0.53198 0.80295 0.0
H333 H 0.70278 0.46868 0.69392 0.0
H334 H 0.66267 0.45987 0.6798 0.0
H335 H 0.67946 0.49828 0.67611 0.0
H336 H 0.56144 0.46996 0.64931 0.0
H337 H 0.60234 0.56249 0.64459 0.0
H338 H 0.58982 0.45692 0.73546 0.0
H339 H 0.6164 0.44056 0.70603 0.0
H340 H 0.57538 0.437 0.69423 0.0
H341 H 0.64154 0.56956 0.72601 0.0
H342 H 0.64536 0.5814 0.68129 0.0
H343 H 0.6693 0.55222 0.69893 0.0
C344 C 0.02878 0.69824 0.2661 0.0
C345 C 1.02 0.70268 0.30108 0.0
C346 C 1.01141 0.6777 0.2418 0.0
C347 C 0.98418 0.66187 0.25256 0.0
C348 C 0.97405 0.66793 0.28714 0.0
C349 C 0.99237 0.68795 0.31123 0.0
C350 C 0.02328 0.67155 0.20531 0.0
C351 C 0.94461 0.65229 0.29914 0.0
C352 C 0.93836 0.61968 0.17463 0.0
C353 C 0.9504 0.59018 0.17549 0.0
C354 C 0.94705 0.6428 0.20142 0.0
C355 C 0.96886 0.63633 0.22897 0.0
C356 C 0.97937 0.60595 0.23118 0.0
C357 C 0.96978 0.58319 0.20456 0.0
C358 C 0.93455 0.67463 0.19888 0.0
C359 C 1.00297 0.59814 0.25981 0.0
H360 H 0.0501 0.70965 0.25818 0.0
H361 H 0.98528 0.69176 0.33816 0.0
H362 H 0.02964 0.64701 0.20222 0.0
H363 H 1.0049 0.675 0.18453 0.0
H364 H 0.04396 0.68692 0.20055 0.0
H365 H 0.93725 0.66339 0.3243 0.0
H366 H 0.92551 0.65296 0.27844 0.0
H367 H 0.94831 0.62749 0.30345 0.0
H368 H 0.92325 0.62506 0.15223 0.0
H369 H 0.97952 0.56056 0.20508 0.0
H370 H 0.95241 0.69067 0.18847 0.0
H371 H 0.92899 0.68431 0.22545 0.0
H372 H 0.9134 0.67409 0.18079 0.0
H373 H 0.02546 0.61087 0.25598 0.0
H374 H 1.00677 0.57286 0.25946 0.0
H375 H 0.9955 0.60561 0.28641 0.0
C376 C 0.3138 0.16376 0.1345 0.0
C377 C 0.29582 0.147 0.15798 0.0
C378 C 0.34152 0.15239 0.12131 0.0
C379 C 0.35189 0.12311 0.13112 0.0
C380 C 0.33361 0.1059 0.15438 0.0
C381 C 0.30626 0.11799 0.16756 0.0
C382 C 0.36004 0.17207 0.09715 0.0
C383 C 0.34302 0.07452 0.16554 0.0
C384 C 0.41132 0.08077 0.07484 0.0
C385 C 0.43931 0.08645 0.09548 0.0
C386 C 0.38298 0.09251 0.08585 0.0
C387 C 0.38221 0.11096 0.11818 0.0
C388 C 0.41062 0.11727 0.13861 0.0
C389 C 0.43842 0.10488 0.12727 0.0
C390 C 0.35362 0.08462 0.06313 0.0
C391 C 0.41166 0.13703 0.17286 0.0
H392 H 0.30645 0.18616 0.12671 0.0
H393 H 0.29288 0.10445 0.18541 0.0
H394 H 0.38365 0.17784 0.1095 0.0
H395 H 0.36282 0.15886 0.07163 0.0
H396 H 0.34897 0.19406 0.09152 0.0
H397 H 0.32586 0.06327 0.18243 0.0
H398 H 0.34571 0.0589 0.14175 0.0
H399 H 0.36585 0.07704 0.18056 0.0
H400 H 0.4114 0.06652 0.05035 0.0
H401 H 0.4597 0.10965 0.14357 0.0
H402 H 0.34287 0.10625 0.05548 0.0
H403 H 0.33662 0.07151 0.07853 0.0
H404 H 0.35784 0.07046 0.03862 0.0
H405 H 0.40209 0.15989 0.16803 0.0
H406 H 0.43559 0.14105 0.18501 0.0
H407 H 0.39697 0.12559 0.19218 0.0
C408 C 0.23174 0.78196 0.74145 0.0
C409 C 0.22447 0.78243 0.77725 0.0
C410 C 0.21148 0.79337 0.71563 0.0
C411 C 0.1833 0.80545 0.72589 0.0
C412 C 0.17473 0.80367 0.76143 0.0
C413 C 0.19543 0.79216 0.78671 0.0
C414 C 0.22136 0.79468 0.67794 0.0
C415 C 0.14474 0.81605 0.77334 0.0
C416 C 0.15462 0.87374 0.67707 0.0
C417 C 0.13053 0.85967 0.65455 0.0
C418 C 0.17205 0.85621 0.70012 0.0
C419 C 0.16505 0.8238 0.7009 0.0
C420 C 0.14078 0.80937 0.67816 0.0
C421 C 0.12388 0.8275 0.65502 0.0
C422 C 0.19799 0.87244 0.72364 0.0
C423 C 0.13254 0.77494 0.67856 0.0
H424 H 0.25399 0.77419 0.73381 0.0
H425 H 0.18946 0.7923 0.81424 0.0
H426 H 0.20197 0.78644 0.65879 0.0
H427 H 0.22787 0.81914 0.67242 0.0
H428 H 0.24156 0.78046 0.67318 0.0
H429 H 0.13947 0.80901 0.80037 0.0
H430 H 0.14638 0.84183 0.77366 0.0
H431 H 0.12509 0.80777 0.75455 0.0
H432 H 0.16008 0.89853 0.67632 0.0
H433 H 0.10514 0.81666 0.63769 0.0
H434 H 0.22026 0.86186 0.71845 0.0
H435 H 0.19349 0.86947 0.75195 0.0
H436 H 0.20069 0.89773 0.71938 0.0
H437 H 0.15312 0.7616 0.67293 0.0
H438 H 0.1134 0.76721 0.65877 0.0
H439 H 0.12542 0.76908 0.70533 0.0
C440 C 0.85069 0.4602 0.89326 0.0
C441 C 0.83164 0.46168 0.92208 0.0
C442 C 0.88309 0.46336 0.89849 0.0
C443 C 0.89663 0.46952 0.93327 0.0
C444 C 0.87741 0.47111 0.96252 0.0
C445 C 0.84507 0.46649 0.95661 0.0
C446 C 0.90281 0.46039 0.86676 0.0
C447 C 0.8909 0.47888 0.99983 0.0
C448 C 0.98228 0.45742 0.95238 0.0
C449 C 0.99559 0.48708 0.94753 0.0
C450 C 0.95008 0.45115 0.94719 0.0
C451 C 0.93081 0.47558 0.93873 0.0
C452 C 0.94425 0.50582 0.9348 0.0
C453 C 0.97658 0.511 0.93837 0.0
C454 C 0.93675 0.41839 0.95036 0.0
C455 C 0.9245 0.53283 0.92736 0.0
H456 H 0.84019 0.45627 0.86658 0.0
H457 H 0.8302 0.46791 0.97882 0.0
H458 H 0.91504 0.48309 0.86265 0.0
H459 H 0.92079 0.44343 0.87152 0.0
H460 H 0.88883 0.45275 0.84202 0.0
H461 H 0.87278 0.47918 0.01964 0.0
H462 H 0.90795 0.46177 1.00739 0.0
H463 H 0.90353 0.50206 1.00111 0.0
H464 H 0.99715 0.43905 0.95967 0.0
H465 H 0.98693 0.5341 0.93521 0.0
H466 H 0.92324 0.41033 0.92547 0.0
H467 H 0.92053 0.41777 0.97215 0.0
H468 H 0.95503 0.40183 0.95565 0.0
H469 H 0.91217 0.5289 0.90089 0.0
H470 H 0.93845 0.5553 0.92793 0.0
H471 H 0.90661 0.53472 0.94728 0.0
C472 C 0.8429 0.75416 0.44904 0.0
C473 C 0.86968 0.73752 0.44574 0.0
C474 C 0.81614 0.7405 0.46272 0.0
C475 C 0.81624 0.70952 0.47342 0.0
C476 C 0.84307 0.6925 0.46978 0.0
C477 C 0.86943 0.70668 0.45595 0.0
C478 C 0.78788 0.7593 0.46609 0.0
C479 C 0.84407 0.65942 0.48097 0.0
C480 C 0.76004 0.68338 0.54127 0.0
C481 C 0.7372 0.6659 0.51988 0.0
C482 C 0.78576 0.69787 0.52644 0.0
C483 C 0.7886 0.69507 0.48927 0.0
C484 C 0.76547 0.67781 0.46744 0.0
C485 C 0.74011 0.66332 0.48302 0.0
C486 C 0.81002 0.71602 0.55059 0.0
C487 C 0.7677 0.67438 0.42767 0.0
H488 H 0.84287 0.77797 0.44114 0.0
H489 H 0.89 0.69361 0.45346 0.0
H490 H 0.76751 0.74691 0.45154 0.0
H491 H 0.7823 0.76204 0.49439 0.0
H492 H 0.79125 0.78278 0.45561 0.0
H493 H 0.86651 0.64918 0.4757 0.0
H494 H 0.84035 0.65868 0.50977 0.0
H495 H 0.8251 0.64466 0.46668 0.0
H496 H 0.75769 0.68597 0.56969 0.0
H497 H 0.72277 0.64956 0.46634 0.0
H498 H 0.81254 0.74041 0.54268 0.0
H499 H 0.83287 0.70583 0.54802 0.0
H500 H 0.80423 0.71617 0.57892 0.0
H501 H 0.76984 0.69764 0.41648 0.0
H502 H 0.74721 0.66113 0.41432 0.0
H503 H 0.78884 0.66222 0.42128 0.0
C504 C 0.15925 0.29798 0.07984 0.0
C505 C 0.17518 0.30019 0.11345 0.0
C506 C 0.14524 0.32387 0.06538 0.0
C507 C 0.14659 0.35302 0.08494 0.0
C508 C 0.1629 0.35546 0.11872 0.0
C509 C 0.17699 0.32931 0.13236 0.0
C510 C 0.12868 0.31991 0.02914 0.0
C511 C 0.16506 0.38573 0.14086 0.0
C512 C 0.13153 0.42834 0.03707 0.0
C513 C 0.10046 0.43351 0.04402 0.0
C514 C 0.14664 0.40242 0.04993 0.0
C515 C 0.13059 0.3807 0.07046 0.0
C516 C 0.09921 0.38573 0.07743 0.0
C517 C 0.08465 0.41179 0.06421 0.0
C518 C 0.17995 0.39827 0.04159 0.0
C519 C 0.08098 0.36363 0.09927 0.0
H520 H 0.15754 0.27582 0.06476 0.0
H521 H 0.18898 0.33157 0.15836 0.0
H522 H 0.10388 0.3248 0.03114 0.0
H523 H 0.13885 0.33687 0.01124 0.0
H524 H 0.13009 0.2961 0.01687 0.0
H525 H 0.17897 0.38422 0.16622 0.0
H526 H 0.17573 0.40454 0.12575 0.0
H527 H 0.14145 0.3925 0.14699 0.0
H528 H 0.14424 0.44466 0.02157 0.0
H529 H 0.06077 0.41525 0.07005 0.0
H530 H 0.18161 0.37609 0.02577 0.0
H531 H 0.19446 0.39683 0.06648 0.0
H532 H 0.18974 0.41757 0.02656 0.0
H533 H 0.08016 0.33978 0.08662 0.0
H534 H 0.05683 0.37051 0.10237 0.0
H535 H 0.09266 0.36273 0.12603 0.0
C536 C 0.68493 0.35115 0.00866 0.0
C537 C 0.71548 0.34595 1.00008 0.0
C538 C 0.66227 0.32654 0.00808 0.0
C539 C 0.6703 0.29596 0.99858 0.0
C540 C 0.70135 0.29035 0.99116 0.0
C541 C 0.72361 0.31542 0.99207 0.0
C542 C 0.62948 0.33344 0.01647 0.0
C543 C 0.7108 0.25803 0.98101 0.0
C544 C 0.6147 0.22911 0.02026 0.0
C545 C 0.59776 0.22283 0.9877 0.0
C546 C 0.63864 0.25258 0.02412 0.0
C547 C 0.64582 0.27019 0.99472 0.0
C548 C 0.62901 0.26377 0.96171 0.0
C549 C 0.6052 0.24017 0.95861 0.0
C550 C 0.65612 0.2587 0.05967 0.0
C551 C 0.63595 0.28208 0.92975 0.0
H552 H 0.67846 0.37462 0.01508 0.0
H553 H 0.74715 0.31118 0.9854 0.0
H554 H 0.61374 0.32804 0.99254 0.0
H555 H 0.62131 0.31848 0.03753 0.0
H556 H 0.62742 0.35816 0.02538 0.0
H557 H 0.73621 0.25724 0.97831 0.0
H558 H 0.70372 0.24162 1.00118 0.0
H559 H 0.69873 0.24967 0.95536 0.0
H560 H 0.60945 0.21541 0.04269 0.0
H561 H 0.59203 0.23562 0.93349 0.0
H562 H 0.65283 0.28276 0.07003 0.0
H563 H 0.68135 0.25671 0.05674 0.0
H564 H 0.64838 0.24232 0.07957 0.0
H565 H 0.63197 0.30699 0.93551 0.0
H566 H 0.62133 0.27363 0.90576 0.0
H567 H 0.6607 0.2806 0.92377 0.0
C568 C 0.97998 0.82758 0.41675 0.0
C569 C 1.01151 0.82293 0.42388 0.0
C570 C 0.96613 0.85332 0.43239 0.0
C571 C 0.98435 0.87472 0.45557 0.0
C572 C 1.01609 0.86974 0.4631 0.0
C573 C 0.02919 0.84394 0.44723 0.0
C574 C 0.93228 0.8579 0.42369 0.0
C575 C 0.03644 0.89159 0.48798 0.0
C576 C 0.97407 0.96024 0.46947 0.0
C577 C 0.96634 0.9622 0.50497 0.0
C578 C 0.97636 0.93136 0.45145 0.0
C579 C 0.97161 0.90387 0.46986 0.0
C580 C 0.96084 0.90574 0.5047 0.0
C581 C 0.95817 0.93511 0.52192 0.0
C582 C 0.98771 0.93053 0.41429 0.0
C583 C 0.95537 0.87701 0.52514 0.0
H584 H 0.96639 0.81179 0.39802 0.0
H585 H 0.0535 0.84023 0.45308 0.0
H586 H 0.91912 0.85543 0.44793 0.0
H587 H 0.92918 0.88169 0.41474 0.0
H588 H 0.92209 0.8408 0.40271 0.0
H589 H 0.0614 0.88705 0.48658 0.0
H590 H 0.03352 0.9162 0.48201 0.0
H591 H 0.02966 0.88845 0.51553 0.0
H592 H 0.98063 0.98137 0.45663 0.0
H593 H 0.95265 0.93677 0.54962 0.0
H594 H 0.97492 0.91184 0.39726 0.0
H595 H 1.01265 0.9255 0.41533 0.0
H596 H 0.98516 0.95305 0.40171 0.0
H597 H 0.94368 0.85785 0.5078 0.0
H598 H 0.94112 0.88162 0.54829 0.0
H599 H 0.97803 0.86902 0.53509 0.0
C600 C 0.41584 0.68942 0.74133 0.0
C601 C 0.40717 0.71809 0.72923 0.0
C602 C 0.4333 0.66962 0.72062 0.0
C603 C 0.44239 0.67874 0.68703 0.0
C604 C 0.43391 0.70773 0.67476 0.0
C605 C 0.41638 0.72703 0.69598 0.0
C606 C 0.4419 0.63889 0.73462 0.0
C607 C 0.4433 0.71832 0.63916 0.0
C608 C 0.51108 0.6408 0.64767 0.0
C609 C 0.4964 0.61852 0.62305 0.0
C610 C 0.49379 0.66061 0.66853 0.0
C611 C 0.46099 0.65803 0.66482 0.0
C612 C 0.44601 0.63565 0.63999 0.0
C613 C 0.46389 0.61621 0.61933 0.0
C614 C 0.51064 0.68426 0.6946 0.0
C615 C 0.41107 0.63213 0.63538 0.0
H616 H 0.4088 0.68229 0.76695 0.0
H617 H 0.4098 0.74913 0.6864 0.0
H618 H 0.4325 0.61952 0.71597 0.0
H619 H 0.4675 0.63772 0.73649 0.0
H620 H 0.43295 0.63519 0.76121 0.0
H621 H 0.43494 0.74157 0.63353 0.0
H622 H 0.46894 0.71937 0.63823 0.0
H623 H 0.43387 0.70132 0.61773 0.0
H624 H 0.53619 0.64286 0.65071 0.0
H625 H 0.45233 0.59903 0.60045 0.0
H626 H 0.50376 0.68009 0.72193 0.0
H627 H 0.50406 0.70801 0.68859 0.0
H628 H 0.53626 0.68348 0.69405 0.0
H629 H 0.40116 0.62642 0.66093 0.0
H630 H 0.40298 0.61364 0.61489 0.0
H631 H 0.40171 0.65441 0.62768 0.0
C632 C 0.9279 0.90962 0.79941 0.0
C633 C 0.8959 0.90963 0.80491 0.0
C634 C 0.94127 0.92454 0.7709 0.0
C635 C 0.92236 0.93956 0.74599 0.0
C636 C 0.89002 0.94006 0.75154 0.0
C637 C 0.87729 0.92551 0.78099 0.0
C638 C 0.97584 0.92379 0.76722 0.0
C639 C 0.86862 0.95513 0.72564 0.0
C640 C 0.96266 0.99791 0.68606 0.0
C641 C 0.96749 0.97942 0.65522 0.0
C642 C 0.9478 0.98552 0.71534 0.0
C643 C 0.93656 0.95383 0.71394 0.0
C644 C 0.94068 0.9353 0.68245 0.0
C645 C 0.95628 0.94809 0.65394 0.0
C646 C 0.94491 1.00623 0.74829 0.0
C647 C 0.9288 0.90168 0.67893 0.0
H648 H 0.94274 0.89765 0.81756 0.0
H649 H 0.85257 0.92552 0.78445 0.0
H650 H 0.98052 0.91034 0.74243 0.0
H651 H 0.98615 0.94773 0.76526 0.0
H652 H 0.98772 0.91308 0.78993 0.0
H653 H 0.84431 0.95445 0.73388 0.0
H654 H 0.87669 0.9797 0.72293 0.0
H655 H 0.86906 0.94304 0.69902 0.0
H656 H 0.97124 0.02206 0.68775 0.0
H657 H 0.95953 0.93346 0.63037 0.0
H658 H 0.95794 0.99683 0.77105 0.0
H659 H 0.92028 1.0066 0.75509 0.0
H660 H 0.95394 0.03048 0.7451 0.0
H661 H 0.9416 0.88816 0.69852 0.0
H662 H 0.93148 0.89099 0.65195 0.0
H663 H 0.90391 0.89969 0.68485 0.0
C664 C 0.67441 0.22444 0.19366 0.0
C665 C 0.66152 0.23336 0.22575 0.0
C666 C 0.65831 0.20305 0.16899 0.0
C667 C 0.62883 0.19 0.1768 0.0
C668 C 0.61561 0.19912 0.20896 0.0
C669 C 0.63206 0.22069 0.23294 0.0
C670 C 0.67323 0.19389 0.13501 0.0
C671 C 0.58423 0.18574 0.21829 0.0
C672 C 0.57286 0.152 0.10429 0.0
C673 C 0.57631 0.12031 0.10916 0.0
C674 C 0.59039 0.175 0.12552 0.0
C675 C 0.61201 0.16608 0.15203 0.0
C676 C 0.61629 0.13417 0.15627 0.0
C677 C 0.59834 0.11168 0.13487 0.0
C678 C 0.58517 0.20882 0.12032 0.0
C679 C 0.63923 0.12373 0.18411 0.0
H680 H 0.69711 0.23412 0.1878 0.0
H681 H 0.62184 0.22741 0.25761 0.0
H682 H 0.68178 0.17021 0.13686 0.0
H683 H 0.65617 0.19316 0.11196 0.0
H684 H 0.69315 0.21012 0.12988 0.0
H685 H 0.57684 0.19587 0.24392 0.0
H686 H 0.56645 0.18998 0.19711 0.0
H687 H 0.58487 0.16018 0.22008 0.0
H688 H 0.55593 0.15888 0.08448 0.0
H689 H 0.60135 0.08726 0.13863 0.0
H690 H 0.60753 0.2217 0.1164 0.0
H691 H 0.57559 0.21946 0.14448 0.0
H692 H 0.56888 0.21199 0.09727 0.0
H693 H 0.66261 0.13475 0.18072 0.0
H694 H 0.64083 0.09808 0.18291 0.0
H695 H 0.63229 0.13129 0.21094 0.0
C696 C 0.45763 0.60576 0.31525 0.0
C697 C 0.47991 0.60069 0.29015 0.0
C698 C 0.46551 0.60593 0.35181 0.0
C699 C 0.49636 0.60083 0.36349 0.0
C700 C 0.51901 0.59607 0.33831 0.0
C701 C 0.51053 0.5961 0.30196 0.0
C702 C 0.44076 0.61112 0.37792 0.0
C703 C 0.55215 0.59041 0.34974 0.0
C704 C 0.52771 0.62301 0.45781 0.0
C705 C 0.527 0.59396 0.47279 0.0
C706 C 0.51674 0.62586 0.4225 0.0
C707 C 0.50484 0.59902 0.40195 0.0
C708 C 0.50288 0.56989 0.41756 0.0
C709 C 0.51394 0.56774 0.45282 0.0
C710 C 0.51902 0.65733 0.40679 0.0
C711 C 0.49028 0.54073 0.39661 0.0
H712 H 0.43394 0.60944 0.30634 0.0
H713 H 0.5279 0.59223 0.28278 0.0
H714 H 0.43727 0.5902 0.39346 0.0
H715 H 0.44822 0.63082 0.39707 0.0
H716 H 0.4182 0.61611 0.36459 0.0
H717 H 0.56716 0.58806 0.32687 0.0
H718 H 0.56204 0.60983 0.368 0.0
H719 H 0.55281 0.56885 0.36451 0.0
H720 H 0.5377 0.64332 0.47328 0.0
H721 H 0.51312 0.54528 0.46448 0.0
H722 H 0.49633 0.6626 0.39408 0.0
H723 H 0.53605 0.65717 0.3858 0.0
H724 H 0.5264 0.67625 0.42704 0.0
H725 H 0.467 0.5443 0.38423 0.0
H726 H 0.48845 0.52034 0.41335 0.0
H727 H 0.50571 0.53529 0.37482 0.0
C728 C 0.22726 0.31748 0.82725 0.0
C729 C 0.2512 0.2978 0.8349 0.0
C730 C 0.22376 0.34455 0.84832 0.0
C731 C 0.24476 0.35227 0.87786 0.0
C732 C 0.26879 0.33239 0.88613 0.0
C733 C 0.27173 0.30527 0.86452 0.0
C734 C 0.19766 0.36505 0.83868 0.0
C735 C 0.29156 0.33999 0.91743 0.0
C736 C 0.24394 0.43803 0.90261 0.0
C737 C 0.22098 0.43816 0.92747 0.0
C738 C 0.25426 0.40995 0.8885 0.0
C739 C 0.24116 0.38145 0.8995 0.0
C740 C 0.22014 0.38153 0.92699 0.0
C741 C 0.21025 0.40994 0.94064 0.0
C742 C 0.27696 0.41083 0.85947 0.0
C743 C 0.2057 0.35165 0.93951 0.0
H744 H 0.2112 0.31186 0.80453 0.0
H745 H 0.29032 0.29019 0.87055 0.0
H746 H 0.18252 0.36788 0.86133 0.0
H747 H 0.20727 0.38854 0.83297 0.0
H748 H 0.18312 0.35546 0.8151 0.0
H749 H 0.30822 0.32154 0.92105 0.0
H750 H 0.30481 0.36223 0.91369 0.0
H751 H 0.27899 0.34319 0.94211 0.0
H752 H 0.2526 0.45985 0.89277 0.0
H753 H 0.19225 0.40982 0.95957 0.0
H754 H 0.26435 0.40478 0.83346 0.0
H755 H 0.29469 0.3935 0.86336 0.0
H756 H 0.28887 0.43421 0.8583 0.0
H757 H 0.18844 0.34132 0.91884 0.0
H758 H 0.1937 0.35548 0.96453 0.0
H759 H 0.22352 0.33447 0.94375 0.0
C760 C 0.72227 1.0042 0.91895 0.0
C761 C 0.73212 0.97353 0.91767 0.0
C762 C 0.69503 0.01244 0.93558 0.0
C763 C 0.67652 0.9897 0.952 0.0
C764 C 0.68645 0.95872 0.95131 0.0
C765 C 0.71386 0.95102 0.9342 0.0
C766 C 0.68575 0.04567 0.93498 0.0
C767 C 0.6679 0.93353 0.96843 0.0
C768 C 0.61655 0.02032 0.01662 0.0
C769 C 0.58904 0.01903 0.99485 0.0
C770 C 0.64483 1.01006 1.00358 0.0
C771 C 0.64603 0.9982 0.96775 0.0
C772 C 0.61809 0.99626 0.94609 0.0
C773 C 0.5903 1.00649 0.95978 0.0
C774 C 0.67366 0.01252 0.02801 0.0
C775 C 0.61764 0.98412 0.90784 0.0
H776 H 0.7358 0.02207 0.90651 0.0
H777 H 0.72093 0.92729 0.93376 0.0
H778 H 0.66294 0.0465 0.92028 0.0
H779 H 0.68309 0.0552 0.96244 0.0
H780 H 0.70295 0.06093 0.92226 0.0
H781 H 0.67931 0.91106 0.96752 0.0
H782 H 0.6645 0.94068 0.99655 0.0
H783 H 0.64455 0.92994 0.95473 0.0
H784 H 0.61615 0.02986 0.0437 0.0
H785 H 0.5694 1.00512 0.9425 0.0
H786 H 0.69086 0.02958 0.01813 0.0
H787 H 0.68449 0.98979 0.02822 0.0
H788 H 0.66873 0.01997 0.05565 0.0
H789 H 0.63283 0.99959 0.89274 0.0
H790 H 0.59394 0.9827 0.89481 0.0
H791 H 0.62696 0.96066 0.90615 0.0
C792 C 0.82924 0.25169 0.35052 0.0
C793 C 0.7975 0.25174 0.3566 0.0
C794 C 0.84953 0.23543 0.37203 0.0
C795 C 0.83775 0.21856 0.40005 0.0
C796 C 0.80572 0.21845 0.40626 0.0
C797 C 0.78602 0.23516 0.38458 0.0
C798 C 0.88359 0.23634 0.36481 0.0
C799 C 0.79222 0.20051 0.43569 0.0
C800 C 0.88328 0.15279 0.43556 0.0
C801 C 0.89713 0.16655 0.46743 0.0
C802 C 0.8641 0.1695 0.41328 0.0
C803 C 0.85884 0.20087 0.42285 0.0
C804 C 0.87321 0.21511 0.45458 0.0
C805 C 0.89203 0.19776 0.47655 0.0
C806 C 0.84912 0.15346 0.3797 0.0
C807 C 0.86832 0.24858 0.46558 0.0
H808 H 0.83832 0.26453 0.32903 0.0
H809 H 0.76151 0.23499 0.38939 0.0
H810 H 0.89761 0.24575 0.3888 0.0
H811 H 0.89081 0.21244 0.35874 0.0
H812 H 0.88913 0.25085 0.34226 0.0
H813 H 0.76681 0.20268 0.43692 0.0
H814 H 0.79674 0.17552 0.43178 0.0
H815 H 0.80362 0.20896 0.46165 0.0
H816 H 0.88748 0.12888 0.42794 0.0
H817 H 0.90222 0.2085 0.50133 0.0
H818 H 0.85583 0.16629 0.35631 0.0
H819 H 0.8235 0.15346 0.38045 0.0
H820 H 0.85576 0.12903 0.37591 0.0
H821 H 0.87468 0.2639 0.44407 0.0
H822 H 0.88222 0.25661 0.49024 0.0
H823 H 0.84344 0.25137 0.47006 0.0
C824 C 0.24742 0.63548 0.12648 0.0
C825 C 0.27088 0.61905 0.11099 0.0
C826 C 0.21606 0.6252 0.12078 0.0
C827 C 0.20801 0.59799 0.09895 0.0
C828 C 0.23156 0.58141 0.0831 0.0
C829 C 0.26268 0.59209 0.0894 0.0
C830 C 0.19155 0.64343 0.13812 0.0
C831 C 0.22385 0.55241 0.05938 0.0
C832 C 0.13072 0.55269 0.10478 0.0
C833 C 0.11414 0.56199 0.07469 0.0
C834 C 0.16104 0.56499 0.11373 0.0
C835 C 0.17495 0.58701 0.09197 0.0
C836 C 0.15781 0.59724 0.06226 0.0
C837 C 0.12754 0.58469 0.05409 0.0
C838 C 0.17856 0.55363 0.1457 0.0
C839 C 0.17182 0.62057 0.03832 0.0
H840 H 0.25354 0.65627 0.14328 0.0
H841 H 0.28063 0.57927 0.07727 0.0
H842 H 0.17519 0.65166 0.1175 0.0
H843 H 0.17783 0.62823 0.15507 0.0
H844 H 0.20165 0.66388 0.15472 0.0
H845 H 0.24489 0.54217 0.04915 0.0
H846 H 0.21114 0.53465 0.07418 0.0
H847 H 0.20838 0.55785 0.03642 0.0
H848 H 0.12033 0.53517 0.12076 0.0
H849 H 0.1146 0.59214 0.03098 0.0
H850 H 0.18812 0.57364 0.16331 0.0
H851 H 0.19848 0.54056 0.13697 0.0
H852 H 0.16372 0.53821 0.1613 0.0
H853 H 0.18113 0.64173 0.05415 0.0
H854 H 0.15476 0.62749 0.01759 0.0
H855 H 0.19154 0.61049 0.02501 0.0
C856 C 0.33099 0.2906 0.6692 0.0
C857 C 0.29848 0.28832 0.66559 0.0
C858 C 0.34817 0.3138 0.65278 0.0
C859 C 0.33246 0.3353 0.63236 0.0
C860 C 0.29972 0.33245 0.62754 0.0
C861 C 0.28311 0.30894 0.64416 0.0
C862 C 0.38309 0.31596 0.65828 0.0
C863 C 0.28217 0.35492 0.6059 0.0
C864 C 0.37414 0.41424 0.62451 0.0
C865 C 0.38587 0.41105 0.59068 0.0
C866 C 0.35634 0.3899 0.63816 0.0
C867 C 0.35023 0.36166 0.61752 0.0
C868 C 0.36167 0.35842 0.58318 0.0
C869 C 0.37935 0.38317 0.57016 0.0
C870 C 0.34435 0.39429 0.67484 0.0
C871 C 0.35572 0.32863 0.56046 0.0
H872 H 0.34305 0.27472 0.68562 0.0
H873 H 0.258 0.30736 0.64123 0.0
H874 H 0.39396 0.31624 0.63231 0.0
H875 H 0.39073 0.33804 0.67337 0.0
H876 H 0.39188 0.29631 0.67304 0.0
H877 H 0.25692 0.34838 0.60291 0.0
H878 H 0.28541 0.37863 0.61888 0.0
H879 H 0.2914 0.35601 0.5791 0.0
H880 H 0.37881 0.43586 0.64029 0.0
H881 H 0.38871 0.38042 0.54418 0.0
H882 H 0.35403 0.37694 0.69239 0.0
H883 H 0.31873 0.39034 0.67357 0.0
H884 H 0.35054 0.41793 0.6871 0.0
H885 H 0.36632 0.30921 0.57392 0.0
H886 H 0.36534 0.33025 0.53386 0.0
H887 H 0.33043 0.32266 0.55689 0.0
C888 C 0.96116 0.74302 0.94541 0.0
C889 C 0.94257 0.74212 0.91359 0.0
C890 C 0.97523 0.71626 0.9574 0.0
C891 C 0.97104 0.68749 0.93718 0.0
C892 C 0.95258 0.6865 0.90484 0.0
C893 C 0.93858 0.71357 0.8936 0.0
C894 C 0.9944 0.71873 0.99208 0.0
C895 C 0.94751 0.6567 0.88204 0.0
C896 C 0.03048 0.62524 0.95206 0.0
C897 C 1.01502 0.60433 0.97354 0.0
C898 C 1.01651 0.65202 0.94005 0.0
C899 C 0.98614 0.65863 0.94967 0.0
C900 C 0.97038 0.63762 0.97134 0.0
C901 C 0.98485 0.61088 0.98282 0.0
C902 C 0.03435 0.67328 0.91687 0.0
C903 C 0.93812 0.64343 0.98256 0.0
H904 H 0.9644 0.76467 0.96138 0.0
H905 H 0.9243 0.71228 0.86907 0.0
H906 H 0.98453 0.70224 0.01069 0.0
H907 H 1.0184 0.71217 0.98758 0.0
H908 H 0.99543 0.74257 1.00489 0.0
H909 H 0.93289 0.65962 0.8575 0.0
H910 H 0.97016 0.64828 0.87441 0.0
H911 H 0.93617 0.63839 0.89731 0.0
H912 H 0.05368 0.62068 0.94441 0.0
H913 H 0.97241 0.59507 0.99919 0.0
H914 H 0.0375 0.69697 0.92992 0.0
H915 H 1.02103 0.67529 0.89125 0.0
H916 H 0.05754 0.66489 0.91131 0.0
H917 H 0.93813 0.66639 0.99724 0.0
H918 H 0.92902 0.62526 0.99971 0.0
H919 H 0.92206 0.64415 0.95877 0.0
C920 C 0.41428 0.71955 0.15196 0.0
C921 C 0.43705 0.69905 0.14294 0.0
C922 C 0.41838 0.75149 0.14653 0.0
C923 C 0.44594 0.76309 0.13192 0.0
C924 C 0.46833 0.74225 0.12135 0.0
C925 C 0.46365 0.71053 0.12709 0.0
C926 C 0.39401 0.77301 0.1582 0.0
C927 C 0.49799 0.75362 0.10552 0.0
C928 C 0.45464 0.84444 0.098 0.0
C929 C 0.47184 0.86055 0.12642 0.0
C930 C 0.44508 0.81291 0.09978 0.0
C931 C 0.45295 0.79717 0.13068 0.0
C932 C 0.46953 0.81355 0.1598 0.0
C933 C 0.4788 0.84498 0.15729 0.0
C934 C 0.4273 0.79626 0.06827 0.0
C935 C 0.47846 0.7976 0.19321 0.0
H936 H 0.39404 0.71102 0.16498 0.0
H937 H 0.48129 0.69476 0.11996 0.0
H938 H 0.40317 0.78754 0.18194 0.0
H939 H 0.38825 0.789 0.13705 0.0
H940 H 0.37238 0.76006 0.16498 0.0
H941 H 0.5118 0.73417 0.09605 0.0
H942 H 0.49276 0.76828 0.08293 0.0
H943 H 0.51243 0.76829 0.12575 0.0
H944 H 0.4488 0.85644 0.07425 0.0
H945 H 0.49244 0.85711 0.17916 0.0
H946 H 0.40565 0.78455 0.07678 0.0
H947 H 0.44141 0.77794 0.05674 0.0
H948 H 0.42122 0.8123 0.04722 0.0
H949 H 0.45767 0.78593 0.20383 0.0
H950 H 0.48967 0.81407 0.21424 0.0
H951 H 0.4948 0.77935 0.18703 0.0
C952 C 0.15704 0.1541 0.75674 0.0
C953 C 0.18794 0.15254 0.74735 0.0
C954 C 0.13312 0.13547 0.73849 0.0
C955 C 0.14026 0.11484 0.71013 0.0
C956 C 0.17142 0.11292 0.70072 0.0
C957 C 0.1949 0.13177 0.71949 0.0
C958 C 0.10018 0.13802 0.74936 0.0
C959 C 0.17991 0.09117 0.67057 0.0
C960 C 0.08587 0.04571 0.67907 0.0
C961 C 0.07231 0.05606 0.64763 0.0
C962 C 0.10728 0.06501 0.70039 0.0
C963 C 0.1152 0.09536 0.68997 0.0
C964 C 0.10038 0.10645 0.65917 0.0
C965 C 0.07902 0.08665 0.63836 0.0
C966 C 0.1224 0.05245 0.73321 0.0
C967 C 0.1081 0.13875 0.64734 0.0
H968 H 0.15144 0.17006 0.77828 0.0
H969 H 0.21869 0.13045 0.71204 0.0
H970 H 0.08548 0.1456 0.72682 0.0
H971 H 0.09039 0.11495 0.75629 0.0
H972 H 0.09859 0.15479 0.77245 0.0
H973 H 0.20526 0.09226 0.66682 0.0
H974 H 0.17233 0.06689 0.67565 0.0
H975 H 0.16767 0.09709 0.64548 0.0
H976 H 0.08058 0.02211 0.68641 0.0
H977 H 0.06845 0.09475 0.61412 0.0
H978 H 0.12044 0.06879 0.75654 0.0
H979 H 0.14749 0.0502 0.72951 0.0
H980 H 0.11192 0.02932 0.73913 0.0
H981 H 0.10577 0.15629 0.66943 0.0
H982 H 0.09294 0.14459 0.62425 0.0
H983 H 0.13258 0.1406 0.63981 0.0
C984 C 0.67416 0.41982 0.3727 0.0
C985 C 0.67695 0.38902 0.38216 0.0
C986 C 0.66299 0.4422 0.39639 0.0
C987 C 0.65444 0.43358 0.43036 0.0
C988 C 0.65905 0.40306 0.44087 0.0
C989 C 0.67024 0.38114 0.41665 0.0
C990 C 0.65856 0.47456 0.38423 0.0
C991 C 0.65038 0.39298 0.47693 0.0
C992 C 0.63609 0.49606 0.5 0.0
C993 C 0.60359 0.49541 0.49602 0.0
C994 C 0.65311 0.47616 0.47878 0.0
C995 C 0.63722 0.45516 0.45307 0.0
C996 C 0.60446 0.4545 0.44894 0.0
C997 C 0.5881 0.47458 0.47041 0.0
C998 C 0.68803 0.47752 0.48387 0.0
C999 C 0.5866 0.43248 0.42182 0.0
H1000 H 0.67951 0.42623 0.34622 0.0
H1001 H 0.67258 0.35748 0.42434 0.0
H1002 H 0.63341 0.47802 0.38019 0.0
H1003 H 0.66819 0.49229 0.40477 0.0
H1004 H 0.66978 0.47866 0.35895 0.0
H1005 H 0.65877 0.36976 0.48259 0.0
H1006 H 0.66005 0.41012 0.49809 0.0
H1007 H 0.62476 0.39191 0.47822 0.0
H1008 H 0.64826 0.51209 0.5197 0.0
H1009 H 0.56301 0.47385 0.46705 0.0
H1010 H 0.69862 0.48293 0.4586 0.0
H1011 H 0.69585 0.45452 0.49123 0.0
H1012 H 0.69691 0.49531 0.50479 0.0
H1013 H 0.59429 0.43677 0.39484 0.0
H1014 H 0.56115 0.43497 0.42187 0.0
H1015 H 0.59133 0.40809 0.42723 0.0
loop_
_geom_bond_atom_site_label_1
_geom_bond_atom_site_label_2
_geom_bond_distance
_geom_bond_site_symmetry_2
_ccdc_geom_bond_type
O0 Cd1 2.300 . S
O0 C7 1.275 . S
Cd1 O0 2.300 . S
Cd1 O9 2.381 . S
Cd1 O10 2.378 . S
O2 Cd3 2.385 . S
O2 C7 1.255 . S
Cd3 O2 2.385 . S
Cd3 O4 2.317 . S
O4 Cd3 2.317 . S
O4 C5 1.232 . S
C5 O4 1.232 . S
C5 O6 1.218 . S
O6 C5 1.218 . S
C7 O0 1.275 . S
C7 O2 1.255 . S
C8 O9 1.258 . S
C8 O10 1.256 . S
O9 Cd1 2.381 . S
O9 C8 1.258 . S
O10 Cd1 2.378 . S
O10 C8 1.256 . S
O11 Cd12 2.300 . S
O11 C18 1.275 . S
Cd12 O11 2.300 . S
Cd12 O20 2.381 . S
Cd12 O21 2.378 . S
O13 Cd14 2.385 . S
O13 C18 1.255 . S
Cd14 O13 2.385 . S
Cd14 O15 2.317 . S
O15 Cd14 2.317 . S
O15 C16 1.232 . S
C16 O15 1.232 . S
C16 O17 1.218 . S
O17 C16 1.218 . S
C18 O11 1.275 . S
C18 O13 1.255 . S
C19 O20 1.258 . S
C19 O21 1.256 . S
O20 Cd12 2.381 . S
O20 C19 1.258 . S
O21 Cd12 2.378 . S
O21 C19 1.256 . S
O22 Cd23 2.300 . S
O22 C29 1.275 . S
Cd23 O22 2.300 . S
Cd23 O31 2.381 . S
Cd23 O32 2.378 . S
O24 Cd25 2.385 . S
O24 C29 1.255 . S
Cd25 O24 2.385 . S
Cd25 O26 2.317 . S
O26 Cd25 2.317 . S
O26 C27 1.232 . S
C27 O26 1.232 . S
C27 O28 1.218 . S
O28 C27 1.218 . S
C29 O22 1.275 . S
C29 O24 1.255 . S
C30 O31 1.258 . S
C30 O32 1.256 . S
O31 Cd23 2.381 . S
O31 C30 1.258 . S
O32 Cd23 2.378 . S
O32 C30 1.256 . S
O33 Cd34 2.300 . S
O33 C40 1.275 . S
Cd34 O33 2.300 . S
Cd34 O42 2.381 . S
Cd34 O43 2.378 . S
O35 Cd36 2.385 . S
O35 C40 1.255 . S
Cd36 O35 2.385 . S
Cd36 O37 2.317 . S
O37 Cd36 2.317 . S
O37 C38 1.232 . S
C38 O37 1.232 . S
C38 O39 1.218 . S
O39 C38 1.218 . S
C40 O33 1.275 . S
C40 O35 1.255 . S
C41 O42 1.258 . S
C41 O43 1.256 . S
O42 Cd34 2.381 . S
O42 C41 1.258 . S
O43 Cd34 2.378 . S
O43 C41 1.256 . S
O44 Cd45 2.300 . S
O44 C51 1.275 . S
Cd45 O44 2.300 . S
Cd45 O53 2.381 . S
Cd45 O54 2.378 . S
O46 Cd47 2.385 . S
O46 C51 1.255 . S
Cd47 O46 2.385 . S
Cd47 O48 2.317 . S
O48 Cd47 2.317 . S
O48 C49 1.232 . S
C49 O48 1.232 . S
C49 O50 1.218 . S
O50 C49 1.218 . S
C51 O44 1.275 . S
C51 O46 1.255 . S
C52 O53 1.258 . S
C52 O54 1.256 . S
O53 Cd45 2.381 . S
O53 C52 1.258 . S
O54 Cd45 2.378 . S
O54 C52 1.256 . S
O55 Cd56 2.300 . S
O55 C62 1.275 . S
Cd56 O55 2.300 . S
Cd56 O64 2.381 . S
Cd56 O65 2.378 . S
O57 Cd58 2.385 . S
O57 C62 1.255 . S
Cd58 O57 2.385 . S
Cd58 O59 2.317 . S
O59 Cd58 2.317 . S
O59 C60 1.232 . S
C60 O59 1.232 . S
C60 O61 1.218 . S
O61 C60 1.218 . S
C62 O55 1.275 . S
C62 O57 1.255 . S
C63 O64 1.258 . S
C63 O65 1.256 . S
O64 Cd56 2.381 . S
O64 C63 1.258 . S
O65 Cd56 2.378 . S
O65 C63 1.256 . S
O66 Cd67 2.300 . S
O66 C73 1.275 . S
Cd67 O66 2.300 . S
Cd67 O75 2.381 . S
Cd67 O76 2.378 . S
O68 Cd69 2.385 . S
O68 C73 1.255 . S
Cd69 O68 2.385 . S
Cd69 O70 2.317 . S
O70 Cd69 2.317 . S
O70 C71 1.232 . S
C71 O70 1.232 . S
C71 O72 1.218 . S
O72 C71 1.218 . S
C73 O66 1.275 . S
C73 O68 1.255 . S
C74 O75 1.258 . S
C74 O76 1.256 . S
O75 Cd67 2.381 . S
O75 C74 1.258 . S
O76 Cd67 2.378 . S
O76 C74 1.256 . S
O77 Cd78 2.300 . S
O77 C84 1.275 . S
Cd78 O77 2.300 . S
Cd78 O86 2.381 . S
Cd78 O87 2.378 . S
O79 Cd80 2.385 . S
O79 C84 1.255 . S
Cd80 O79 2.385 . S
Cd80 O81 2.317 . S
O81 Cd80 2.317 . S
O81 C82 1.232 . S
C82 O81 1.232 . S
C82 O83 1.218 . S
O83 C82 1.218 . S
C84 O77 1.275 . S
C84 O79 1.255 . S
C85 O86 1.258 . S
C85 O87 1.256 . S
O86 Cd78 2.381 . S
O86 C85 1.258 . S
O87 Cd78 2.378 . S
O87 C85 1.256 . S
Nd88 C90 2.836 . S
Nd88 O108 2.500 . S
Nd88 O109 2.492 . S
Nd88 O110 2.487 1_565 S
Nd88 O111 2.682 1_565 S
Nd88 O112 2.410 . S
Nd88 O117 2.423 . S
Nd88 O119 2.424 1_565 S
Nd89 C99 2.836 . S
Nd89 O111 2.414 1_655 S
Nd89 O113 2.424 1_545 S
Nd89 O114 2.500 . S
Nd89 O115 2.492 . S
Nd89 O116 2.487 1_545 S
Nd89 O117 2.676 1_645 S
Nd89 O118 2.410 1_655 S
C90 Nd88 2.836 . S
C90 C91 1.498 . S
C90 O108 1.258 . S
C90 O109 1.239 . S
C91 C90 1.498 . S
C91 C92 1.366 . S
C91 C96 1.407 . S
C92 C91 1.366 . S
C92 C93 1.392 . S
C92 H120 0.930 . S
C93 C92 1.392 . S
C93 C94 1.398 . S
C93 H121 0.929 . S
C94 C93 1.398 . S
C94 C95 1.352 . S
C95 C94 1.352 . S
C95 C96 1.384 . S
C95 H122 0.930 . S
C96 C91 1.407 . S
C96 C95 1.384 . S
C96 H123 0.929 . S
C97 O110 1.241 . S
C97 O111 1.273 . S
C98 O112 1.251 1_655 S
C98 O113 1.268 . S
C99 Nd89 2.836 . S
C99 C100 1.498 . S
C99 O114 1.258 . S
C99 O115 1.239 . S
C100 C99 1.498 . S
C100 C101 1.366 . S
C100 C105 1.407 . S
C101 C100 1.366 . S
C101 C102 1.392 . S
C101 H124 0.930 . S
C102 C101 1.392 . S
C102 C103 1.398 . S
C102 H125 0.929 . S
C103 C102 1.398 . S
C103 C104 1.352 . S
C104 C103 1.352 . S
C104 C105 1.384 . S
C104 H126 0.930 . S
C105 C100 1.407 . S
C105 C104 1.384 . S
C105 H127 0.929 . S
C106 O116 1.241 . S
C106 O117 1.266 1_655 S
C107 O118 1.251 . S
C107 O119 1.268 . S
O108 Nd88 2.500 . S
O108 C90 1.258 . S
O109 Nd88 2.492 . S
O109 C90 1.239 . S
O110 Nd88 2.487 1_545 S
O110 C97 1.241 . S
O111 Nd88 2.682 1_545 S
O111 Nd89 2.414 1_455 S
O111 C97 1.273 . S
O112 Nd88 2.410 . S
O112 C98 1.251 1_455 S
O113 Nd89 2.424 1_565 S
O113 C98 1.268 . S
O114 Nd89 2.500 . S
O114 C99 1.258 . S
O115 Nd89 2.492 . S
O115 C99 1.239 . S
O116 Nd89 2.487 1_565 S
O116 C106 1.241 . S
O117 Nd88 2.423 . S
O117 Nd89 2.676 1_465 S
O117 C106 1.266 1_455 S
O118 Nd89 2.410 1_455 S
O118 C107 1.251 . S
O119 Nd88 2.424 1_545 S
O119 C107 1.268 . S
H120 C92 0.930 . S
H121 C93 0.929 . S
H122 C95 0.930 . S
H123 C96 0.929 . S
H124 C101 0.930 . S
H125 C102 0.929 . S
H126 C104 0.930 . S
H127 C105 0.929 . S
Nd128 C130 2.858 . S
Nd128 O148 2.524 . S
Nd128 O149 2.508 . S
Nd128 O150 2.473 1_565 S
Nd128 O151 2.662 1_565 S
Nd128 O152 2.416 . S
Nd128 O157 2.414 . S
Nd128 O159 2.405 1_565 S
Nd129 C139 2.832 1_554 S
Nd129 O151 2.414 . S
Nd129 O153 2.424 1_544 S
Nd129 O154 2.500 . S
Nd129 O155 2.492 1_554 S
Nd129 O156 2.487 . S
Nd129 O157 2.678 1_545 S
Nd129 O158 2.410 . S
C130 Nd128 2.858 . S
C130 C131 1.498 . S
C130 O148 1.258 . S
C130 O149 1.239 . S
C131 C130 1.498 . S
C131 C132 1.366 . S
C131 C136 1.407 . S
C132 C131 1.366 . S
C132 C133 1.392 . S
C132 H160 0.930 . S
C133 C132 1.392 . S
C133 C134 1.398 . S
C133 H161 0.929 . S
C134 C133 1.398 . S
C134 C135 1.352 . S
C135 C134 1.352 . S
C135 C136 1.384 . S
C135 H162 0.930 . S
C136 C131 1.407 . S
C136 C135 1.384 . S
C136 H163 0.929 . S
C137 O150 1.241 . S
C137 O151 1.273 . S
C138 O152 1.251 . S
C138 O153 1.268 1_554 S
C139 Nd129 2.832 1_556 S
C139 C140 1.502 . S
C139 O154 1.250 1_556 S
C139 O155 1.243 . S
C140 C139 1.502 . S
C140 C141 1.366 1_556 S
C140 C145 1.407 . S
C141 C140 1.366 1_554 S
C141 C142 1.392 . S
C141 H164 0.930 . S
C142 C141 1.392 . S
C142 C143 1.398 1_554 S
C142 H165 0.929 . S
C143 C142 1.398 1_556 S
C143 C144 1.352 . S
C144 C143 1.352 . S
C144 C145 1.384 . S
C144 H166 0.930 . S
C145 C140 1.407 . S
C145 C144 1.384 . S
C145 H167 0.929 . S
C146 O156 1.241 1_565 S
C146 O157 1.273 . S
C147 O158 1.251 . S
C147 O159 1.268 . S
O148 Nd128 2.524 . S
O148 C130 1.258 . S
O149 Nd128 2.508 . S
O149 C130 1.239 . S
O150 Nd128 2.473 1_545 S
O150 C137 1.241 . S
O151 Nd128 2.662 1_545 S
O151 Nd129 2.414 . S
O151 C137 1.273 . S
O152 Nd128 2.416 . S
O152 C138 1.251 . S
O153 Nd129 2.424 1_566 S
O153 C138 1.268 1_556 S
O154 Nd129 2.500 . S
O154 C139 1.250 1_554 S
O155 Nd129 2.492 1_556 S
O155 C139 1.243 . S
O156 Nd129 2.487 . S
O156 C146 1.241 1_545 S
O157 Nd128 2.414 . S
O157 Nd129 2.678 1_565 S
O157 C146 1.273 . S
O158 Nd129 2.410 . S
O158 C147 1.251 . S
O159 Nd128 2.405 1_545 S
O159 C147 1.268 . S
H160 C132 0.930 . S
H161 C133 0.929 . S
H162 C135 0.930 . S
H163 C136 0.929 . S
H164 C141 0.930 . S
H165 C142 0.929 . S
H166 C144 0.930 . S
H167 C145 0.929 . S
Nd168 C170 2.836 . S
Nd168 O188 2.500 . S
Nd168 O189 2.492 . S
Nd168 O190 2.487 . S
Nd168 O191 2.682 . S
Nd168 O192 2.410 . S
Nd168 O197 2.414 . S
Nd168 O199 2.424 . S
Nd169 C179 2.836 . S
Nd169 O191 2.414 . S
Nd169 O193 2.424 . S
Nd169 O194 2.500 . S
Nd169 O195 2.492 . S
Nd169 O196 2.487 . S
Nd169 O197 2.682 . S
Nd169 O198 2.410 . S
C170 Nd168 2.836 . S
C170 C171 1.498 . S
C170 O188 1.258 . S
C170 O189 1.239 . S
C171 C170 1.498 . S
C171 C172 1.366 . S
C171 C176 1.407 . S
C172 C171 1.366 . S
C172 C173 1.392 . S
C172 H200 0.930 . S
C173 C172 1.392 . S
C173 C174 1.398 . S
C173 H201 0.929 . S
C174 C173 1.398 . S
C174 C175 1.352 . S
C175 C174 1.352 . S
C175 C176 1.384 . S
C175 H202 0.930 . S
C176 C171 1.407 . S
C176 C175 1.384 . S
C176 H203 0.929 . S
C177 O190 1.241 . S
C177 O191 1.273 . S
C178 O192 1.251 . S
C178 O193 1.268 . S
C179 Nd169 2.836 . S
C179 C180 1.498 . S
C179 O194 1.258 . S
C179 O195 1.239 . S
C180 C179 1.498 . S
C180 C181 1.366 . S
C180 C185 1.407 . S
C181 C180 1.366 . S
C181 C182 1.392 . S
C181 H204 0.930 . S
C182 C181 1.392 . S
C182 C183 1.398 . S
C182 H205 0.929 . S
C183 C182 1.398 . S
C183 C184 1.352 . S
C184 C183 1.352 . S
C184 C185 1.384 . S
C184 H206 0.930 . S
C185 C180 1.407 . S
C185 C184 1.384 . S
C185 H207 0.929 . S
C186 O196 1.241 . S
C186 O197 1.273 . S
C187 O198 1.251 . S
C187 O199 1.268 . S
O188 Nd168 2.500 . S
O188 C170 1.258 . S
O189 Nd168 2.492 . S
O189 C170 1.239 . S
O190 Nd168 2.487 . S
O190 C177 1.241 . S
O191 Nd168 2.682 . S
O191 Nd169 2.414 . S
O191 C177 1.273 . S
O192 Nd168 2.410 . S
O192 C178 1.251 . S
O193 Nd169 2.424 . S
O193 C178 1.268 . S
O194 Nd169 2.500 . S
O194 C179 1.258 . S
O195 Nd169 2.492 . S
O195 C179 1.239 . S
O196 Nd169 2.487 . S
O196 C186 1.241 . S
O197 Nd168 2.414 . S
O197 Nd169 2.682 . S
O197 C186 1.273 . S
O198 Nd169 2.410 . S
O198 C187 1.251 . S
O199 Nd168 2.424 . S
O199 C187 1.268 . S
H200 C172 0.930 . S
H201 C173 0.929 . S
H202 C175 0.930 . S
H203 C176 0.929 . S
H204 C181 0.930 . S
H205 C182 0.929 . S
H206 C184 0.930 . S
H207 C185 0.929 . S
Nd208 C210 2.836 1_455 S
Nd208 O228 2.500 1_455 S
Nd208 O229 2.492 . S
Nd208 O230 2.487 . S
Nd208 O231 2.682 . S
Nd208 O232 2.410 . S
Nd208 O237 2.414 1_454 S
Nd208 O239 2.424 . S
Nd209 C219 2.836 . S
Nd209 O231 2.414 1_556 S
Nd209 O233 2.424 . S
Nd209 O234 2.500 . S
Nd209 O235 2.492 . S
Nd209 O236 2.487 1_455 S
Nd209 O237 2.682 1_455 S
Nd209 O238 2.410 . S
C210 Nd208 2.836 1_655 S
C210 C211 1.498 . S
C210 O228 1.258 . S
C210 O229 1.239 1_655 S
C211 C210 1.498 . S
C211 C212 1.366 . S
C211 C216 1.407 . S
C212 C211 1.366 . S
C212 C213 1.392 . S
C212 H240 0.930 . S
C213 C212 1.392 . S
C213 C214 1.398 . S
C213 H241 0.929 . S
C214 C213 1.398 . S
C214 C215 1.352 . S
C215 C214 1.352 . S
C215 C216 1.384 . S
C215 H242 0.930 . S
C216 C211 1.407 . S
C216 C215 1.384 . S
C216 H243 0.929 1_655 S
C217 O230 1.241 . S
C217 O231 1.273 . S
C218 O232 1.251 1_556 S
C218 O233 1.268 . S
C219 Nd209 2.836 . S
C219 C220 1.498 . S
C219 O234 1.258 . S
C219 O235 1.239 . S
C220 C219 1.498 . S
C220 C221 1.366 . S
C220 C225 1.407 . S
C221 C220 1.366 . S
C221 C222 1.392 . S
C221 H244 0.930 . S
C222 C221 1.392 . S
C222 C223 1.398 . S
C222 H245 0.929 . S
C223 C222 1.398 . S
C223 C224 1.352 . S
C224 C223 1.352 . S
C224 C225 1.384 . S
C224 H246 0.930 . S
C225 C220 1.407 . S
C225 C224 1.384 . S
C225 H247 0.929 . S
C226 O236 1.241 . S
C226 O237 1.273 . S
C227 O238 1.251 1_554 S
C227 O239 1.268 . S
O228 Nd208 2.500 1_655 S
O228 C210 1.258 . S
O229 Nd208 2.492 . S
O229 C210 1.239 1_455 S
O230 Nd208 2.487 . S
O230 C217 1.241 . S
O231 Nd208 2.682 . S
O231 Nd209 2.414 1_554 S
O231 C217 1.273 . S
O232 Nd208 2.410 . S
O232 C218 1.251 1_554 S
O233 Nd209 2.424 . S
O233 C218 1.268 . S
O234 Nd209 2.500 . S
O234 C219 1.258 . S
O235 Nd209 2.492 . S
O235 C219 1.239 . S
O236 Nd209 2.487 1_655 S
O236 C226 1.241 . S
O237 Nd208 2.414 1_656 S
O237 Nd209 2.682 1_655 S
O237 C226 1.273 . S
O238 Nd209 2.410 . S
O238 C227 1.251 1_556 S
O239 Nd208 2.424 . S
O239 C227 1.268 . S
H240 C212 0.930 . S
H241 C213 0.929 . S
H242 C215 0.930 . S
H243 C216 0.929 1_455 S
H244 C221 0.930 . S
H245 C222 0.929 . S
H246 C224 0.930 . S
H247 C225 0.929 . S
C248 C249 1.391 . S
C248 C250 1.394 . S
C248 H264 0.931 . S
C249 C248 1.391 . S
C249 C253 1.376 . S
C250 C248 1.394 . S
C250 C251 1.369 . S
C250 C254 1.531 . S
C251 C250 1.369 . S
C251 C252 1.410 . S
C251 C259 1.503 . S
C252 C251 1.410 . S
C252 C253 1.392 . S
C252 C255 1.511 . S
C253 C249 1.376 . S
C253 C252 1.392 . S
C253 H265 0.929 . S
C254 C250 1.531 . S
C254 H266 0.960 . S
C254 H267 0.962 . S
C254 H268 0.960 . S
C255 C252 1.511 . S
C255 H269 0.961 . S
C255 H270 0.961 . S
C255 H271 0.961 . S
C256 C257 1.370 . S
C256 C258 1.363 . S
C256 H272 0.931 . S
C257 C256 1.370 . S
C257 C261 1.408 . S
C258 C256 1.363 . S
C258 C259 1.370 . S
C258 C262 1.524 . S
C259 C251 1.503 . S
C259 C258 1.370 . S
C259 C260 1.403 . S
C260 C259 1.403 . S
C260 C261 1.404 . S
C260 C263 1.539 . S
C261 C257 1.408 . S
C261 C260 1.404 . S
C261 H273 0.930 . S
C262 C258 1.524 . S
C262 H274 0.956 . S
C262 H275 0.961 . S
C262 H276 0.961 . S
C263 C260 1.539 . S
C263 H277 0.958 . S
C263 H278 0.961 . S
C263 H279 0.960 . S
H264 C248 0.931 . S
H265 C253 0.929 . S
H266 C254 0.960 . S
H267 C254 0.962 . S
H268 C254 0.960 . S
H269 C255 0.961 . S
H270 C255 0.961 . S
H271 C255 0.961 . S
H272 C256 0.931 . S
H273 C261 0.930 . S
H274 C262 0.956 . S
H275 C262 0.961 . S
H276 C262 0.961 . S
H277 C263 0.958 . S
H278 C263 0.961 . S
H279 C263 0.960 . S
C280 C281 1.391 . S
C280 C282 1.394 . S
C280 H296 0.931 . S
C281 C280 1.391 . S
C281 C285 1.376 . S
C282 C280 1.394 . S
C282 C283 1.369 . S
C282 C286 1.531 . S
C283 C282 1.369 . S
C283 C284 1.410 . S
C283 C291 1.503 . S
C284 C283 1.410 . S
C284 C285 1.392 . S
C284 C287 1.511 . S
C285 C281 1.376 . S
C285 C284 1.392 . S
C285 H297 0.929 . S
C286 C282 1.531 . S
C286 H298 0.960 . S
C286 H299 0.962 . S
C286 H300 0.960 . S
C287 C284 1.511 . S
C287 H301 0.961 . S
C287 H302 0.961 . S
C287 H303 0.961 . S
C288 C289 1.370 . S
C288 C290 1.363 . S
C288 H304 0.931 . S
C289 C288 1.370 . S
C289 C293 1.407 . S
C290 C288 1.363 . S
C290 C291 1.370 . S
C290 C294 1.524 . S
C291 C283 1.503 . S
C291 C290 1.370 . S
C291 C292 1.403 . S
C292 C291 1.403 . S
C292 C293 1.403 . S
C292 C295 1.539 1_556 S
C293 C289 1.407 . S
C293 C292 1.403 . S
C293 H305 0.932 1_556 S
C294 C290 1.524 . S
C294 H306 0.956 . S
C294 H307 0.961 . S
C294 H308 0.961 . S
C295 C292 1.539 1_554 S
C295 H309 0.955 1_554 S
C295 H310 0.961 . S
C295 H311 0.960 1_554 S
H296 C280 0.931 . S
H297 C285 0.929 . S
H298 C286 0.960 . S
H299 C286 0.962 . S
H300 C286 0.960 . S
H301 C287 0.961 . S
H302 C287 0.961 . S
H303 C287 0.961 . S
H304 C288 0.931 . S
H305 C293 0.932 1_554 S
H306 C294 0.956 . S
H307 C294 0.961 . S
H308 C294 0.961 . S
H309 C295 0.955 1_556 S
H310 C295 0.961 . S
H311 C295 0.960 1_556 S
C312 C313 1.391 . S
C312 C314 1.394 . S
C312 H328 0.931 . S
C313 C312 1.391 . S
C313 C317 1.376 . S
C314 C312 1.394 . S
C314 C315 1.369 . S
C314 C318 1.531 . S
C315 C314 1.369 . S
C315 C316 1.410 . S
C315 C323 1.503 . S
C316 C315 1.410 . S
C316 C317 1.392 . S
C316 C319 1.511 . S
C317 C313 1.376 . S
C317 C316 1.392 . S
C317 H329 0.929 . S
C318 C314 1.531 . S
C318 H330 0.960 . S
C318 H331 0.962 . S
C318 H332 0.960 . S
C319 C316 1.511 . S
C319 H333 0.961 . S
C319 H334 0.961 . S
C319 H335 0.961 . S
C320 C321 1.370 . S
C320 C322 1.363 . S
C320 H336 0.931 . S
C321 C320 1.370 . S
C321 C325 1.408 . S
C322 C320 1.363 . S
C322 C323 1.370 . S
C322 C326 1.524 . S
C323 C315 1.503 . S
C323 C322 1.370 . S
C323 C324 1.403 . S
C324 C323 1.403 . S
C324 C325 1.404 . S
C324 C327 1.539 . S
C325 C321 1.408 . S
C325 C324 1.404 . S
C325 H337 0.930 . S
C326 C322 1.524 . S
C326 H338 0.956 . S
C326 H339 0.961 . S
C326 H340 0.961 . S
C327 C324 1.539 . S
C327 H341 0.958 . S
C327 H342 0.961 . S
C327 H343 0.960 . S
H328 C312 0.931 . S
H329 C317 0.929 . S
H330 C318 0.960 . S
H331 C318 0.962 . S
H332 C318 0.960 . S
H333 C319 0.961 . S
H334 C319 0.961 . S
H335 C319 0.961 . S
H336 C320 0.931 . S
H337 C325 0.930 . S
H338 C326 0.956 . S
H339 C326 0.961 . S
H340 C326 0.961 . S
H341 C327 0.958 . S
H342 C327 0.961 . S
H343 C327 0.960 . S
C344 C345 1.391 . S
C344 C346 1.394 . S
C344 H360 0.931 . S
C345 C344 1.391 . S
C345 C349 1.376 . S
C346 C344 1.394 . S
C346 C347 1.369 . S
C346 C350 1.531 . S
C347 C346 1.369 . S
C347 C348 1.410 . S
C347 C355 1.503 . S
C348 C347 1.410 . S
C348 C349 1.392 . S
C348 C351 1.511 . S
C349 C345 1.376 . S
C349 C348 1.392 . S
C349 H361 0.929 . S
C350 C346 1.531 . S
C350 H362 0.960 . S
C350 H363 0.962 . S
C350 H364 0.960 1_655 S
C351 C348 1.511 . S
C351 H365 0.961 . S
C351 H366 0.961 . S
C351 H367 0.961 . S
C352 C353 1.370 . S
C352 C354 1.363 . S
C352 H368 0.931 . S
C353 C352 1.370 . S
C353 C357 1.408 . S
C354 C352 1.363 . S
C354 C355 1.370 . S
C354 C358 1.524 . S
C355 C347 1.503 . S
C355 C354 1.370 . S
C355 C356 1.403 . S
C356 C355 1.403 . S
C356 C357 1.404 . S
C356 C359 1.539 . S
C357 C353 1.408 . S
C357 C356 1.404 . S
C357 H369 0.930 . S
C358 C354 1.524 . S
C358 H370 0.956 . S
C358 H371 0.961 . S
C358 H372 0.961 . S
C359 C356 1.539 . S
C359 H373 0.958 . S
C359 H374 0.961 . S
C359 H375 0.960 . S
H360 C344 0.931 . S
H361 C349 0.929 . S
H362 C350 0.960 . S
H363 C350 0.962 . S
H364 C350 0.960 1_455 S
H365 C351 0.961 . S
H366 C351 0.961 . S
H367 C351 0.961 . S
H368 C352 0.931 . S
H369 C357 0.930 . S
H370 C358 0.956 . S
H371 C358 0.961 . S
H372 C358 0.961 . S
H373 C359 0.958 . S
H374 C359 0.961 . S
H375 C359 0.960 . S
C376 C377 1.391 . S
C376 C378 1.394 . S
C376 H392 0.931 . S
C377 C376 1.391 . S
C377 C381 1.376 . S
C378 C376 1.394 . S
C378 C379 1.369 . S
C378 C382 1.531 . S
C379 C378 1.369 . S
C379 C380 1.410 . S
C379 C387 1.503 . S
C380 C379 1.410 . S
C380 C381 1.392 . S
C380 C383 1.511 . S
C381 C377 1.376 . S
C381 C380 1.392 . S
C381 H393 0.929 . S
C382 C378 1.531 . S
C382 H394 0.960 . S
C382 H395 0.962 . S
C382 H396 0.960 . S
C383 C380 1.511 . S
C383 H397 0.961 . S
C383 H398 0.961 . S
C383 H399 0.961 . S
C384 C385 1.370 . S
C384 C386 1.363 . S
C384 H400 0.931 . S
C385 C384 1.370 . S
C385 C389 1.408 . S
C386 C384 1.363 . S
C386 C387 1.370 . S
C386 C390 1.524 . S
C387 C379 1.503 . S
C387 C386 1.370 . S
C387 C388 1.403 . S
C388 C387 1.403 . S
C388 C389 1.404 . S
C388 C391 1.539 . S
C389 C385 1.408 . S
C389 C388 1.404 . S
C389 H401 0.930 . S
C390 C386 1.524 . S
C390 H402 0.956 . S
C390 H403 0.961 . S
C390 H404 0.961 . S
C391 C388 1.539 . S
C391 H405 0.958 . S
C391 H406 0.961 . S
C391 H407 0.960 . S
H392 C376 0.931 . S
H393 C381 0.929 . S
H394 C382 0.960 . S
H395 C382 0.962 . S
H396 C382 0.960 . S
H397 C383 0.961 . S
H398 C383 0.961 . S
H399 C383 0.961 . S
H400 C384 0.931 . S
H401 C389 0.930 . S
H402 C390 0.956 . S
H403 C390 0.961 . S
H404 C390 0.961 . S
H405 C391 0.958 . S
H406 C391 0.961 . S
H407 C391 0.960 . S
C408 C409 1.391 . S
C408 C410 1.394 . S
C408 H424 0.931 . S
C409 C408 1.391 . S
C409 C413 1.376 . S
C410 C408 1.394 . S
C410 C411 1.369 . S
C410 C414 1.531 . S
C411 C410 1.369 . S
C411 C412 1.410 . S
C411 C419 1.503 . S
C412 C411 1.410 . S
C412 C413 1.392 . S
C412 C415 1.511 . S
C413 C409 1.376 . S
C413 C412 1.392 . S
C413 H425 0.929 . S
C414 C410 1.531 . S
C414 H426 0.960 . S
C414 H427 0.962 . S
C414 H428 0.960 . S
C415 C412 1.511 . S
C415 H429 0.961 . S
C415 H430 0.961 . S
C415 H431 0.961 . S
C416 C417 1.370 . S
C416 C418 1.363 . S
C416 H432 0.931 . S
C417 C416 1.370 . S
C417 C421 1.408 . S
C418 C416 1.363 . S
C418 C419 1.370 . S
C418 C422 1.524 . S
C419 C411 1.503 . S
C419 C418 1.370 . S
C419 C420 1.403 . S
C420 C419 1.403 . S
C420 C421 1.404 . S
C420 C423 1.539 . S
C421 C417 1.408 . S
C421 C420 1.404 . S
C421 H433 0.930 . S
C422 C418 1.524 . S
C422 H434 0.956 . S
C422 H435 0.961 . S
C422 H436 0.961 . S
C423 C420 1.539 . S
C423 H437 0.958 . S
C423 H438 0.961 . S
C423 H439 0.960 . S
H424 C408 0.931 . S
H425 C413 0.929 . S
H426 C414 0.960 . S
H427 C414 0.962 . S
H428 C414 0.960 . S
H429 C415 0.961 . S
H430 C415 0.961 . S
H431 C415 0.961 . S
H432 C416 0.931 . S
H433 C421 0.930 . S
H434 C422 0.956 . S
H435 C422 0.961 . S
H436 C422 0.961 . S
H437 C423 0.958 . S
H438 C423 0.961 . S
H439 C423 0.960 . S
C440 C441 1.391 . S
C440 C442 1.394 . S
C440 H456 0.931 . S
C441 C440 1.391 . S
C441 C445 1.376 . S
C442 C440 1.394 . S
C442 C443 1.369 . S
C442 C446 1.531 . S
C443 C442 1.369 . S
C443 C444 1.410 . S
C443 C451 1.503 . S
C444 C443 1.410 . S
C444 C445 1.392 . S
C444 C447 1.511 . S
C445 C441 1.376 . S
C445 C444 1.392 . S
C445 H457 0.929 . S
C446 C442 1.531 . S
C446 H458 0.960 . S
C446 H459 0.962 . S
C446 H460 0.960 . S
C447 C444 1.511 . S
C447 H461 0.961 . S
C447 H462 0.961 . S
C447 H463 0.961 1_556 S
C448 C449 1.370 . S
C448 C450 1.363 . S
C448 H464 0.931 . S
C449 C448 1.370 . S
C449 C453 1.408 . S
C450 C448 1.363 . S
C450 C451 1.370 . S
C450 C454 1.524 . S
C451 C443 1.503 . S
C451 C450 1.370 . S
C451 C452 1.403 . S
C452 C451 1.403 . S
C452 C453 1.404 . S
C452 C455 1.539 . S
C453 C449 1.408 . S
C453 C452 1.404 . S
C453 H465 0.930 . S
C454 C450 1.524 . S
C454 H466 0.956 . S
C454 H467 0.961 . S
C454 H468 0.961 . S
C455 C452 1.539 . S
C455 H469 0.958 . S
C455 H470 0.961 . S
C455 H471 0.960 . S
H456 C440 0.931 . S
H457 C445 0.929 . S
H458 C446 0.960 . S
H459 C446 0.962 . S
H460 C446 0.960 . S
H461 C447 0.961 . S
H462 C447 0.961 . S
H463 C447 0.961 1_554 S
H464 C448 0.931 . S
H465 C453 0.930 . S
H466 C454 0.956 . S
H467 C454 0.961 . S
H468 C454 0.961 . S
H469 C455 0.958 . S
H470 C455 0.961 . S
H471 C455 0.960 . S
C472 C473 1.391 . S
C472 C474 1.394 . S
C472 H488 0.931 . S
C473 C472 1.391 . S
C473 C477 1.376 . S
C474 C472 1.394 . S
C474 C475 1.369 . S
C474 C478 1.531 . S
C475 C474 1.369 . S
C475 C476 1.410 . S
C475 C483 1.503 . S
C476 C475 1.410 . S
C476 C477 1.392 . S
C476 C479 1.511 . S
C477 C473 1.376 . S
C477 C476 1.392 . S
C477 H489 0.929 . S
C478 C474 1.531 . S
C478 H490 0.960 . S
C478 H491 0.962 . S
C478 H492 0.960 . S
C479 C476 1.511 . S
C479 H493 0.961 . S
C479 H494 0.961 . S
C479 H495 0.961 . S
C480 C481 1.370 . S
C480 C482 1.363 . S
C480 H496 0.931 . S
C481 C480 1.370 . S
C481 C485 1.408 . S
C482 C480 1.363 . S
C482 C483 1.370 . S
C482 C486 1.524 . S
C483 C475 1.503 . S
C483 C482 1.370 . S
C483 C484 1.403 . S
C484 C483 1.403 . S
C484 C485 1.404 . S
C484 C487 1.539 . S
C485 C481 1.408 . S
C485 C484 1.404 . S
C485 H497 0.930 . S
C486 C482 1.524 . S
C486 H498 0.956 . S
C486 H499 0.961 . S
C486 H500 0.961 . S
C487 C484 1.539 . S
C487 H501 0.958 . S
C487 H502 0.961 . S
C487 H503 0.960 . S
H488 C472 0.931 . S
H489 C477 0.929 . S
H490 C478 0.960 . S
H491 C478 0.962 . S
H492 C478 0.960 . S
H493 C479 0.961 . S
H494 C479 0.961 . S
H495 C479 0.961 . S
H496 C480 0.931 . S
H497 C485 0.930 . S
H498 C486 0.956 . S
H499 C486 0.961 . S
H500 C486 0.961 . S
H501 C487 0.958 . S
H502 C487 0.961 . S
H503 C487 0.960 . S
C504 C505 1.391 . S
C504 C506 1.394 . S
C504 H520 0.931 . S
C505 C504 1.391 . S
C505 C509 1.376 . S
C506 C504 1.394 . S
C506 C507 1.369 . S
C506 C510 1.531 . S
C507 C506 1.369 . S
C507 C508 1.410 . S
C507 C515 1.503 . S
C508 C507 1.410 . S
C508 C509 1.392 . S
C508 C511 1.511 . S
C509 C505 1.376 . S
C509 C508 1.392 . S
C509 H521 0.929 . S
C510 C506 1.531 . S
C510 H522 0.960 . S
C510 H523 0.962 . S
C510 H524 0.960 . S
C511 C508 1.511 . S
C511 H525 0.961 . S
C511 H526 0.961 . S
C511 H527 0.961 . S
C512 C513 1.370 . S
C512 C514 1.363 . S
C512 H528 0.931 1_554 S
C513 C512 1.370 . S
C513 C517 1.408 . S
C514 C512 1.363 . S
C514 C515 1.370 . S
C514 C518 1.524 . S
C515 C507 1.503 . S
C515 C514 1.370 . S
C515 C516 1.403 . S
C516 C515 1.403 . S
C516 C517 1.404 . S
C516 C519 1.539 . S
C517 C513 1.408 . S
C517 C516 1.404 . S
C517 H529 0.930 . S
C518 C514 1.524 . S
C518 H530 0.956 . S
C518 H531 0.961 . S
C518 H532 0.961 1_554 S
C519 C516 1.539 . S
C519 H533 0.958 . S
C519 H534 0.961 . S
C519 H535 0.960 . S
H520 C504 0.931 . S
H521 C509 0.929 . S
H522 C510 0.960 . S
H523 C510 0.962 . S
H524 C510 0.960 . S
H525 C511 0.961 . S
H526 C511 0.961 . S
H527 C511 0.961 . S
H528 C512 0.931 1_556 S
H529 C517 0.930 . S
H530 C518 0.956 . S
H531 C518 0.961 . S
H532 C518 0.961 1_556 S
H533 C519 0.958 . S
H534 C519 0.961 . S
H535 C519 0.960 . S
C536 C537 1.391 . S
C536 C538 1.394 . S
C536 H552 0.931 . S
C537 C536 1.391 . S
C537 C541 1.376 . S
C538 C536 1.394 . S
C538 C539 1.369 . S
C538 C542 1.531 . S
C539 C538 1.369 . S
C539 C540 1.410 . S
C539 C547 1.503 . S
C540 C539 1.410 . S
C540 C541 1.392 . S
C540 C543 1.511 . S
C541 C537 1.376 . S
C541 C540 1.392 . S
C541 H553 0.929 . S
C542 C538 1.531 . S
C542 H554 0.960 . S
C542 H555 0.962 . S
C542 H556 0.960 . S
C543 C540 1.511 . S
C543 H557 0.961 . S
C543 H558 0.961 . S
C543 H559 0.961 . S
C544 C545 1.370 . S
C544 C546 1.363 . S
C544 H560 0.931 1_556 S
C545 C544 1.370 . S
C545 C549 1.408 . S
C546 C544 1.363 . S
C546 C547 1.370 . S
C546 C550 1.524 1_556 S
C547 C539 1.503 . S
C547 C546 1.370 . S
C547 C548 1.403 . S
C548 C547 1.403 . S
C548 C549 1.404 . S
C548 C551 1.539 . S
C549 C545 1.408 . S
C549 C548 1.404 . S
C549 H561 0.930 . S
C550 C546 1.524 1_554 S
C550 H562 0.956 . S
C550 H563 0.961 1_554 S
C550 H564 0.961 . S
C551 C548 1.539 . S
C551 H565 0.958 . S
C551 H566 0.961 . S
C551 H567 0.960 . S
H552 C536 0.931 . S
H553 C541 0.929 . S
H554 C542 0.960 . S
H555 C542 0.962 . S
H556 C542 0.960 . S
H557 C543 0.961 . S
H558 C543 0.961 . S
H559 C543 0.961 . S
H560 C544 0.931 1_554 S
H561 C549 0.930 . S
H562 C550 0.956 . S
H563 C550 0.961 1_556 S
H564 C550 0.961 . S
H565 C551 0.958 . S
H566 C551 0.961 . S
H567 C551 0.960 . S
C568 C569 1.391 . S
C568 C570 1.394 . S
C568 H584 0.931 . S
C569 C568 1.391 . S
C569 C573 1.376 . S
C570 C568 1.394 . S
C570 C571 1.369 . S
C570 C574 1.531 . S
C571 C570 1.369 . S
C571 C572 1.410 . S
C571 C579 1.503 . S
C572 C571 1.410 . S
C572 C573 1.392 . S
C572 C575 1.511 . S
C573 C569 1.376 . S
C573 C572 1.392 . S
C573 H585 0.929 . S
C574 C570 1.531 . S
C574 H586 0.960 . S
C574 H587 0.962 . S
C574 H588 0.960 . S
C575 C572 1.511 . S
C575 H589 0.961 . S
C575 H590 0.961 . S
C575 H591 0.961 . S
C576 C577 1.370 . S
C576 C578 1.363 . S
C576 H592 0.931 . S
C577 C576 1.370 . S
C577 C581 1.408 . S
C578 C576 1.363 . S
C578 C579 1.370 . S
C578 C582 1.524 . S
C579 C571 1.503 . S
C579 C578 1.370 . S
C579 C580 1.403 . S
C580 C579 1.403 . S
C580 C581 1.404 . S
C580 C583 1.539 . S
C581 C577 1.408 . S
C581 C580 1.404 . S
C581 H593 0.930 . S
C582 C578 1.524 . S
C582 H594 0.956 . S
C582 H595 0.961 . S
C582 H596 0.961 . S
C583 C580 1.539 . S
C583 H597 0.958 . S
C583 H598 0.961 . S
C583 H599 0.960 . S
H584 C568 0.931 . S
H585 C573 0.929 . S
H586 C574 0.960 . S
H587 C574 0.962 . S
H588 C574 0.960 . S
H589 C575 0.961 . S
H590 C575 0.961 . S
H591 C575 0.961 . S
H592 C576 0.931 . S
H593 C581 0.930 . S
H594 C582 0.956 . S
H595 C582 0.961 . S
H596 C582 0.961 . S
H597 C583 0.958 . S
H598 C583 0.961 . S
H599 C583 0.960 . S
C600 C601 1.391 . S
C600 C602 1.394 . S
C600 H616 0.931 . S
C601 C600 1.391 . S
C601 C605 1.376 . S
C602 C600 1.394 . S
C602 C603 1.369 . S
C602 C606 1.531 . S
C603 C602 1.369 . S
C603 C604 1.410 . S
C603 C611 1.503 . S
C604 C603 1.410 . S
C604 C605 1.392 . S
C604 C607 1.511 . S
C605 C601 1.376 . S
C605 C604 1.392 . S
C605 H617 0.929 . S
C606 C602 1.531 . S
C606 H618 0.960 . S
C606 H619 0.962 . S
C606 H620 0.960 . S
C607 C604 1.511 . S
C607 H621 0.961 . S
C607 H622 0.961 . S
C607 H623 0.961 . S
C608 C609 1.370 . S
C608 C610 1.363 . S
C608 H624 0.931 . S
C609 C608 1.370 . S
C609 C613 1.408 . S
C610 C608 1.363 . S
C610 C611 1.370 . S
C610 C614 1.524 . S
C611 C603 1.503 . S
C611 C610 1.370 . S
C611 C612 1.403 . S
C612 C611 1.403 . S
C612 C613 1.404 . S
C612 C615 1.539 . S
C613 C609 1.408 . S
C613 C612 1.404 . S
C613 H625 0.930 . S
C614 C610 1.524 . S
C614 H626 0.956 . S
C614 H627 0.961 . S
C614 H628 0.961 . S
C615 C612 1.539 . S
C615 H629 0.958 . S
C615 H630 0.961 . S
C615 H631 0.960 . S
H616 C600 0.931 . S
H617 C605 0.929 . S
H618 C606 0.960 . S
H619 C606 0.962 . S
H620 C606 0.960 . S
H621 C607 0.961 . S
H622 C607 0.961 . S
H623 C607 0.961 . S
H624 C608 0.931 . S
H625 C613 0.930 . S
H626 C614 0.956 . S
H627 C614 0.961 . S
H628 C614 0.961 . S
H629 C615 0.958 . S
H630 C615 0.961 . S
H631 C615 0.960 . S
C632 C633 1.391 . S
C632 C634 1.394 . S
C632 H648 0.931 . S
C633 C632 1.391 . S
C633 C637 1.376 . S
C634 C632 1.394 . S
C634 C635 1.369 . S
C634 C638 1.531 . S
C635 C634 1.369 . S
C635 C636 1.410 . S
C635 C643 1.503 . S
C636 C635 1.410 . S
C636 C637 1.392 . S
C636 C639 1.511 . S
C637 C633 1.376 . S
C637 C636 1.392 . S
C637 H649 0.929 . S
C638 C634 1.531 . S
C638 H650 0.960 . S
C638 H651 0.962 . S
C638 H652 0.960 . S
C639 C636 1.511 . S
C639 H653 0.961 . S
C639 H654 0.961 . S
C639 H655 0.961 . S
C640 C641 1.370 . S
C640 C642 1.363 . S
C640 H656 0.931 . S
C641 C640 1.370 . S
C641 C645 1.408 . S
C642 C640 1.363 . S
C642 C643 1.370 . S
C642 C646 1.524 . S
C643 C635 1.503 . S
C643 C642 1.370 . S
C643 C644 1.403 . S
C644 C643 1.403 . S
C644 C645 1.404 . S
C644 C647 1.539 . S
C645 C641 1.408 . S
C645 C644 1.404 . S
C645 H657 0.930 . S
C646 C642 1.524 . S
C646 H658 0.956 . S
C646 H659 0.961 . S
C646 H660 0.961 1_565 S
C647 C644 1.539 . S
C647 H661 0.958 . S
C647 H662 0.961 . S
C647 H663 0.960 . S
H648 C632 0.931 . S
H649 C637 0.929 . S
H650 C638 0.960 . S
H651 C638 0.962 . S
H652 C638 0.960 . S
H653 C639 0.961 . S
H654 C639 0.961 . S
H655 C639 0.961 . S
H656 C640 0.931 . S
H657 C645 0.930 . S
H658 C646 0.956 . S
H659 C646 0.961 . S
H660 C646 0.961 1_545 S
H661 C647 0.958 . S
H662 C647 0.961 . S
H663 C647 0.960 . S
C664 C665 1.391 . S
C664 C666 1.394 . S
C664 H680 0.931 . S
C665 C664 1.391 . S
C665 C669 1.376 . S
C666 C664 1.394 . S
C666 C667 1.369 . S
C666 C670 1.531 . S
C667 C666 1.369 . S
C667 C668 1.410 . S
C667 C675 1.503 . S
C668 C667 1.410 . S
C668 C669 1.392 . S
C668 C671 1.511 . S
C669 C665 1.376 . S
C669 C668 1.392 . S
C669 H681 0.929 . S
C670 C666 1.531 . S
C670 H682 0.960 . S
C670 H683 0.962 . S
C670 H684 0.960 . S
C671 C668 1.511 . S
C671 H685 0.961 . S
C671 H686 0.961 . S
C671 H687 0.961 . S
C672 C673 1.370 . S
C672 C674 1.363 . S
C672 H688 0.931 . S
C673 C672 1.370 . S
C673 C677 1.408 . S
C674 C672 1.363 . S
C674 C675 1.370 . S
C674 C678 1.524 . S
C675 C667 1.503 . S
C675 C674 1.370 . S
C675 C676 1.403 . S
C676 C675 1.403 . S
C676 C677 1.404 . S
C676 C679 1.539 . S
C677 C673 1.408 . S
C677 C676 1.404 . S
C677 H689 0.930 . S
C678 C674 1.524 . S
C678 H690 0.956 . S
C678 H691 0.961 . S
C678 H692 0.961 . S
C679 C676 1.539 . S
C679 H693 0.958 . S
C679 H694 0.961 . S
C679 H695 0.960 . S
H680 C664 0.931 . S
H681 C669 0.929 . S
H682 C670 0.960 . S
H683 C670 0.962 . S
H684 C670 0.960 . S
H685 C671 0.961 . S
H686 C671 0.961 . S
H687 C671 0.961 . S
H688 C672 0.931 . S
H689 C677 0.930 . S
H690 C678 0.956 . S
H691 C678 0.961 . S
H692 C678 0.961 . S
H693 C679 0.958 . S
H694 C679 0.961 . S
H695 C679 0.960 . S
C696 C697 1.391 . S
C696 C698 1.394 . S
C696 H712 0.931 . S
C697 C696 1.391 . S
C697 C701 1.376 . S
C698 C696 1.394 . S
C698 C699 1.369 . S
C698 C702 1.531 . S
C699 C698 1.369 . S
C699 C700 1.410 . S
C699 C707 1.503 . S
C700 C699 1.410 . S
C700 C701 1.392 . S
C700 C703 1.511 . S
C701 C697 1.376 . S
C701 C700 1.392 . S
C701 H713 0.929 . S
C702 C698 1.531 . S
C702 H714 0.960 . S
C702 H715 0.962 . S
C702 H716 0.960 . S
C703 C700 1.511 . S
C703 H717 0.961 . S
C703 H718 0.961 . S
C703 H719 0.961 . S
C704 C705 1.370 . S
C704 C706 1.363 . S
C704 H720 0.931 . S
C705 C704 1.370 . S
C705 C709 1.408 . S
C706 C704 1.363 . S
C706 C707 1.370 . S
C706 C710 1.524 . S
C707 C699 1.503 . S
C707 C706 1.370 . S
C707 C708 1.403 . S
C708 C707 1.403 . S
C708 C709 1.404 . S
C708 C711 1.539 . S
C709 C705 1.408 . S
C709 C708 1.404 . S
C709 H721 0.930 . S
C710 C706 1.524 . S
C710 H722 0.956 . S
C710 H723 0.961 . S
C710 H724 0.961 . S
C711 C708 1.539 . S
C711 H725 0.958 . S
C711 H726 0.961 . S
C711 H727 0.960 . S
H712 C696 0.931 . S
H713 C701 0.929 . S
H714 C702 0.960 . S
H715 C702 0.962 . S
H716 C702 0.960 . S
H717 C703 0.961 . S
H718 C703 0.961 . S
H719 C703 0.961 . S
H720 C704 0.931 . S
H721 C709 0.930 . S
H722 C710 0.956 . S
H723 C710 0.961 . S
H724 C710 0.961 . S
H725 C711 0.958 . S
H726 C711 0.961 . S
H727 C711 0.960 . S
C728 C729 1.391 . S
C728 C730 1.394 . S
C728 H744 0.931 . S
C729 C728 1.391 . S
C729 C733 1.376 . S
C730 C728 1.394 . S
C730 C731 1.369 . S
C730 C734 1.531 . S
C731 C730 1.369 . S
C731 C732 1.410 . S
C731 C739 1.503 . S
C732 C731 1.410 . S
C732 C733 1.392 . S
C732 C735 1.511 . S
C733 C729 1.376 . S
C733 C732 1.392 . S
C733 H745 0.929 . S
C734 C730 1.531 . S
C734 H746 0.960 . S
C734 H747 0.962 . S
C734 H748 0.960 . S
C735 C732 1.511 . S
C735 H749 0.961 . S
C735 H750 0.961 . S
C735 H751 0.961 . S
C736 C737 1.370 . S
C736 C738 1.363 . S
C736 H752 0.931 . S
C737 C736 1.370 . S
C737 C741 1.408 . S
C738 C736 1.363 . S
C738 C739 1.370 . S
C738 C742 1.524 . S
C739 C731 1.503 . S
C739 C738 1.370 . S
C739 C740 1.403 . S
C740 C739 1.403 . S
C740 C741 1.404 . S
C740 C743 1.539 . S
C741 C737 1.408 . S
C741 C740 1.404 . S
C741 H753 0.930 . S
C742 C738 1.524 . S
C742 H754 0.956 . S
C742 H755 0.961 . S
C742 H756 0.961 . S
C743 C740 1.539 . S
C743 H757 0.958 . S
C743 H758 0.961 . S
C743 H759 0.960 . S
H744 C728 0.931 . S
H745 C733 0.929 . S
H746 C734 0.960 . S
H747 C734 0.962 . S
H748 C734 0.960 . S
H749 C735 0.961 . S
H750 C735 0.961 . S
H751 C735 0.961 . S
H752 C736 0.931 . S
H753 C741 0.930 . S
H754 C742 0.956 . S
H755 C742 0.961 . S
H756 C742 0.961 . S
H757 C743 0.958 . S
H758 C743 0.961 . S
H759 C743 0.960 . S
C760 C761 1.391 . S
C760 C762 1.394 . S
C760 H776 0.931 1_556 S
C761 C760 1.391 . S
C761 C765 1.376 . S
C762 C760 1.394 . S
C762 C763 1.369 . S
C762 C766 1.531 1_556 S
C763 C762 1.369 . S
C763 C764 1.410 . S
C763 C771 1.503 . S
C764 C763 1.410 . S
C764 C765 1.392 . S
C764 C767 1.511 . S
C765 C761 1.376 . S
C765 C764 1.392 . S
C765 H777 0.929 . S
C766 C762 1.531 1_554 S
C766 H778 0.960 . S
C766 H779 0.962 . S
C766 H780 0.960 . S
C767 C764 1.511 . S
C767 H781 0.961 . S
C767 H782 0.961 . S
C767 H783 0.961 . S
C768 C769 1.370 . S
C768 C770 1.363 . S
C768 H784 0.931 . S
C769 C768 1.370 . S
C769 C773 1.408 1_554 S
C770 C768 1.363 . S
C770 C771 1.370 1_554 S
C770 C774 1.524 . S
C771 C763 1.503 . S
C771 C770 1.370 1_556 S
C771 C772 1.403 . S
C772 C771 1.403 . S
C772 C773 1.404 . S
C772 C775 1.539 . S
C773 C769 1.408 1_556 S
C773 C772 1.404 . S
C773 H785 0.930 1_565 S
C774 C770 1.524 . S
C774 H786 0.956 . S
C774 H787 0.961 . S
C774 H788 0.961 . S
C775 C772 1.539 . S
C775 H789 0.958 1_565 S
C775 H790 0.979 . S
C775 H791 0.960 . S
H776 C760 0.931 1_554 S
H777 C765 0.929 . S
H778 C766 0.960 . S
H779 C766 0.962 . S
H780 C766 0.960 . S
H781 C767 0.961 . S
H782 C767 0.961 . S
H783 C767 0.961 . S
H784 C768 0.931 . S
H785 C773 0.930 1_545 S
H786 C774 0.956 . S
H787 C774 0.961 . S
H788 C774 0.961 . S
H789 C775 0.958 1_545 S
H790 C775 0.979 . S
H791 C775 0.960 . S
C792 C793 1.391 . S
C792 C794 1.394 . S
C792 H808 0.931 . S
C793 C792 1.391 . S
C793 C797 1.376 . S
C794 C792 1.394 . S
C794 C795 1.369 . S
C794 C798 1.531 . S
C795 C794 1.369 . S
C795 C796 1.410 . S
C795 C803 1.503 . S
C796 C795 1.410 . S
C796 C797 1.392 . S
C796 C799 1.511 . S
C797 C793 1.376 . S
C797 C796 1.392 . S
C797 H809 0.929 . S
C798 C794 1.531 . S
C798 H810 0.960 . S
C798 H811 0.962 . S
C798 H812 0.960 . S
C799 C796 1.511 . S
C799 H813 0.961 . S
C799 H814 0.961 . S
C799 H815 0.961 . S
C800 C801 1.370 . S
C800 C802 1.363 . S
C800 H816 0.931 . S
C801 C800 1.370 . S
C801 C805 1.408 . S
C802 C800 1.363 . S
C802 C803 1.370 . S
C802 C806 1.524 . S
C803 C795 1.503 . S
C803 C802 1.370 . S
C803 C804 1.403 . S
C804 C803 1.403 . S
C804 C805 1.404 . S
C804 C807 1.539 . S
C805 C801 1.408 . S
C805 C804 1.404 . S
C805 H817 0.930 . S
C806 C802 1.524 . S
C806 H818 0.956 . S
C806 H819 0.961 . S
C806 H820 0.961 . S
C807 C804 1.539 . S
C807 H821 0.958 . S
C807 H822 0.961 . S
C807 H823 0.960 . S
H808 C792 0.931 . S
H809 C797 0.929 . S
H810 C798 0.960 . S
H811 C798 0.962 . S
H812 C798 0.960 . S
H813 C799 0.961 . S
H814 C799 0.961 . S
H815 C799 0.961 . S
H816 C800 0.931 . S
H817 C805 0.930 . S
H818 C806 0.956 . S
H819 C806 0.961 . S
H820 C806 0.961 . S
H821 C807 0.958 . S
H822 C807 0.961 . S
H823 C807 0.960 . S
C824 C825 1.391 . S
C824 C826 1.394 . S
C824 H840 0.931 . S
C825 C824 1.391 . S
C825 C829 1.376 . S
C826 C824 1.394 . S
C826 C827 1.369 . S
C826 C830 1.531 . S
C827 C826 1.369 . S
C827 C828 1.410 . S
C827 C835 1.503 . S
C828 C827 1.410 . S
C828 C829 1.392 . S
C828 C831 1.511 . S
C829 C825 1.376 . S
C829 C828 1.392 . S
C829 H841 0.929 . S
C830 C826 1.531 . S
C830 H842 0.960 . S
C830 H843 0.962 . S
C830 H844 0.960 . S
C831 C828 1.511 . S
C831 H845 0.961 . S
C831 H846 0.961 . S
C831 H847 0.961 . S
C832 C833 1.370 . S
C832 C834 1.363 . S
C832 H848 0.931 . S
C833 C832 1.370 . S
C833 C837 1.408 . S
C834 C832 1.363 . S
C834 C835 1.370 . S
C834 C838 1.524 . S
C835 C827 1.503 . S
C835 C834 1.370 . S
C835 C836 1.403 . S
C836 C835 1.403 . S
C836 C837 1.404 . S
C836 C839 1.539 . S
C837 C833 1.408 . S
C837 C836 1.404 . S
C837 H849 0.930 . S
C838 C834 1.524 . S
C838 H850 0.956 . S
C838 H851 0.961 . S
C838 H852 0.961 . S
C839 C836 1.539 . S
C839 H853 0.958 . S
C839 H854 0.961 . S
C839 H855 0.960 . S
H840 C824 0.931 . S
H841 C829 0.929 . S
H842 C830 0.960 . S
H843 C830 0.962 . S
H844 C830 0.960 . S
H845 C831 0.961 . S
H846 C831 0.961 . S
H847 C831 0.961 . S
H848 C832 0.931 . S
H849 C837 0.930 . S
H850 C838 0.956 . S
H851 C838 0.961 . S
H852 C838 0.961 . S
H853 C839 0.958 . S
H854 C839 0.961 . S
H855 C839 0.960 . S
C856 C857 1.391 . S
C856 C858 1.394 . S
C856 H872 0.931 . S
C857 C856 1.391 . S
C857 C861 1.376 . S
C858 C856 1.394 . S
C858 C859 1.369 . S
C858 C862 1.531 . S
C859 C858 1.369 . S
C859 C860 1.410 . S
C859 C867 1.503 . S
C860 C859 1.410 . S
C860 C861 1.392 . S
C860 C863 1.511 . S
C861 C857 1.376 . S
C861 C860 1.392 . S
C861 H873 0.929 . S
C862 C858 1.531 . S
C862 H874 0.960 . S
C862 H875 0.962 . S
C862 H876 0.960 . S
C863 C860 1.511 . S
C863 H877 0.961 . S
C863 H878 0.961 . S
C863 H879 0.961 . S
C864 C865 1.370 . S
C864 C866 1.363 . S
C864 H880 0.931 . S
C865 C864 1.370 . S
C865 C869 1.408 . S
C866 C864 1.363 . S
C866 C867 1.370 . S
C866 C870 1.524 . S
C867 C859 1.503 . S
C867 C866 1.370 . S
C867 C868 1.403 . S
C868 C867 1.403 . S
C868 C869 1.404 . S
C868 C871 1.539 . S
C869 C865 1.408 . S
C869 C868 1.404 . S
C869 H881 0.930 . S
C870 C866 1.524 . S
C870 H882 0.956 . S
C870 H883 0.961 . S
C870 H884 0.961 . S
C871 C868 1.539 . S
C871 H885 0.958 . S
C871 H886 0.961 . S
C871 H887 0.960 . S
H872 C856 0.931 . S
H873 C861 0.929 . S
H874 C862 0.960 . S
H875 C862 0.962 . S
H876 C862 0.960 . S
H877 C863 0.961 . S
H878 C863 0.961 . S
H879 C863 0.961 . S
H880 C864 0.931 . S
H881 C869 0.930 . S
H882 C870 0.956 . S
H883 C870 0.961 . S
H884 C870 0.961 . S
H885 C871 0.958 . S
H886 C871 0.961 . S
H887 C871 0.960 . S
C888 C889 1.391 . S
C888 C890 1.394 . S
C888 H904 0.931 . S
C889 C888 1.391 . S
C889 C893 1.376 . S
C890 C888 1.394 . S
C890 C891 1.369 . S
C890 C894 1.531 1_556 S
C891 C890 1.369 . S
C891 C892 1.410 . S
C891 C899 1.503 . S
C892 C891 1.410 . S
C892 C893 1.392 . S
C892 C895 1.511 . S
C893 C889 1.376 . S
C893 C892 1.392 . S
C893 H905 0.929 . S
C894 C890 1.531 1_554 S
C894 H906 0.960 . S
C894 H907 0.962 1_655 S
C894 H908 0.960 . S
C895 C892 1.511 . S
C895 H909 0.961 . S
C895 H910 0.961 . S
C895 H911 0.961 . S
C896 C897 1.370 . S
C896 C898 1.363 . S
C896 H912 0.931 1_655 S
C897 C896 1.370 . S
C897 C901 1.408 1_556 S
C898 C896 1.363 . S
C898 C899 1.370 . S
C898 C902 1.524 . S
C899 C891 1.503 . S
C899 C898 1.370 . S
C899 C900 1.403 1_556 S
C900 C899 1.403 1_554 S
C900 C901 1.404 . S
C900 C903 1.539 . S
C901 C897 1.408 1_554 S
C901 C900 1.404 . S
C901 H913 0.930 . S
C902 C898 1.524 . S
C902 H914 0.956 . S
C902 H915 0.961 . S
C902 H916 0.935 1_655 S
C903 C900 1.539 . S
C903 H917 0.958 . S
C903 H918 0.961 . S
C903 H919 0.960 . S
H904 C888 0.931 . S
H905 C893 0.929 . S
H906 C894 0.960 . S
H907 C894 0.962 1_455 S
H908 C894 0.960 . S
H909 C895 0.961 . S
H910 C895 0.961 . S
H911 C895 0.961 . S
H912 C896 0.931 1_455 S
H913 C901 0.930 . S
H914 C902 0.956 . S
H915 C902 0.961 . S
H916 C902 0.935 1_455 S
H917 C903 0.958 . S
H918 C903 0.961 . S
H919 C903 0.960 . S
C920 C921 1.391 . S
C920 C922 1.394 . S
C920 H936 0.931 . S
C921 C920 1.391 . S
C921 C925 1.376 . S
C922 C920 1.394 . S
C922 C923 1.369 . S
C922 C926 1.531 . S
C923 C922 1.369 . S
C923 C924 1.410 . S
C923 C931 1.503 . S
C924 C923 1.410 . S
C924 C925 1.392 . S
C924 C927 1.511 . S
C925 C921 1.376 . S
C925 C924 1.392 . S
C925 H937 0.929 . S
C926 C922 1.531 . S
C926 H938 0.960 . S
C926 H939 0.962 . S
C926 H940 0.960 . S
C927 C924 1.511 . S
C927 H941 0.961 . S
C927 H942 0.961 . S
C927 H943 0.961 . S
C928 C929 1.370 . S
C928 C930 1.363 . S
C928 H944 0.931 . S
C929 C928 1.370 . S
C929 C933 1.408 . S
C930 C928 1.363 . S
C930 C931 1.370 . S
C930 C934 1.524 . S
C931 C923 1.503 . S
C931 C930 1.370 . S
C931 C932 1.403 . S
C932 C931 1.403 . S
C932 C933 1.404 . S
C932 C935 1.539 . S
C933 C929 1.408 . S
C933 C932 1.404 . S
C933 H945 0.930 . S
C934 C930 1.524 . S
C934 H946 0.956 . S
C934 H947 0.961 . S
C934 H948 0.961 . S
C935 C932 1.539 . S
C935 H949 0.958 . S
C935 H950 0.961 . S
C935 H951 0.960 . S
H936 C920 0.931 . S
H937 C925 0.929 . S
H938 C926 0.960 . S
H939 C926 0.962 . S
H940 C926 0.960 . S
H941 C927 0.961 . S
H942 C927 0.961 . S
H943 C927 0.961 . S
H944 C928 0.931 . S
H945 C933 0.930 . S
H946 C934 0.956 . S
H947 C934 0.961 . S
H948 C934 0.961 . S
H949 C935 0.958 . S
H950 C935 0.961 . S
H951 C935 0.960 . S
C952 C953 1.391 . S
C952 C954 1.394 . S
C952 H968 0.931 . S
C953 C952 1.391 . S
C953 C957 1.376 . S
C954 C952 1.394 . S
C954 C955 1.369 . S
C954 C958 1.531 . S
C955 C954 1.369 . S
C955 C956 1.410 . S
C955 C963 1.503 . S
C956 C955 1.410 . S
C956 C957 1.392 . S
C956 C959 1.511 . S
C957 C953 1.376 . S
C957 C956 1.392 . S
C957 H969 0.929 . S
C958 C954 1.531 . S
C958 H970 0.960 . S
C958 H971 0.962 . S
C958 H972 0.960 . S
C959 C956 1.511 . S
C959 H973 0.961 . S
C959 H974 0.961 . S
C959 H975 0.961 . S
C960 C961 1.370 . S
C960 C962 1.363 . S
C960 H976 0.931 . S
C961 C960 1.370 . S
C961 C965 1.408 . S
C962 C960 1.363 . S
C962 C963 1.370 . S
C962 C966 1.524 . S
C963 C955 1.503 . S
C963 C962 1.370 . S
C963 C964 1.403 . S
C964 C963 1.403 . S
C964 C965 1.404 . S
C964 C967 1.539 . S
C965 C961 1.408 . S
C965 C964 1.404 . S
C965 H977 0.930 . S
C966 C962 1.524 . S
C966 H978 0.956 . S
C966 H979 0.961 . S
C966 H980 0.961 . S
C967 C964 1.539 . S
C967 H981 0.958 . S
C967 H982 0.961 . S
C967 H983 0.960 . S
H968 C952 0.931 . S
H969 C957 0.929 . S
H970 C958 0.960 . S
H971 C958 0.962 . S
H972 C958 0.960 . S
H973 C959 0.961 . S
H974 C959 0.961 . S
H975 C959 0.961 . S
H976 C960 0.931 . S
H977 C965 0.930 . S
H978 C966 0.956 . S
H979 C966 0.961 . S
H980 C966 0.961 . S
H981 C967 0.958 . S
H982 C967 0.961 . S
H983 C967 0.960 . S
C984 C985 1.391 . S
C984 C986 1.394 . S
C984 H1000 0.931 . S
C985 C984 1.391 . S
C985 C989 1.376 . S
C986 C984 1.394 . S
C986 C987 1.369 . S
C986 C990 1.531 . S
C987 C986 1.369 . S
C987 C988 1.410 . S
C987 C995 1.503 . S
C988 C987 1.410 . S
C988 C989 1.392 . S
C988 C991 1.511 . S
C989 C985 1.376 . S
C989 C988 1.392 . S
C989 H1001 0.929 . S
C990 C986 1.531 . S
C990 H1002 0.960 . S
C990 H1003 0.962 . S
C990 H1004 0.960 . S
C991 C988 1.511 . S
C991 H1005 0.961 . S
C991 H1006 0.961 . S
C991 H1007 0.961 . S
C992 C993 1.370 . S
C992 C994 1.363 . S
C992 H1008 0.931 . S
C993 C992 1.370 . S
C993 C997 1.408 . S
C994 C992 1.363 . S
C994 C995 1.370 . S
C994 C998 1.524 . S
C995 C987 1.503 . S
C995 C994 1.370 . S
C995 C996 1.403 . S
C996 C995 1.403 . S
C996 C997 1.404 . S
C996 C999 1.539 . S
C997 C993 1.408 . S
C997 C996 1.404 . S
C997 H1009 0.930 . S
C998 C994 1.524 . S
C998 H1010 0.956 . S
C998 H1011 0.961 . S
C998 H1012 0.961 . S
C999 C996 1.539 . S
C999 H1013 0.958 . S
C999 H1014 0.961 . S
C999 H1015 0.960 . S
H1000 C984 0.931 . S
H1001 C989 0.929 . S
H1002 C990 0.960 . S
H1003 C990 0.962 . S
H1004 C990 0.960 . S
H1005 C991 0.961 . S
H1006 C991 0.961 . S
H1007 C991 0.961 . S
H1008 C992 0.931 . S
H1009 C997 0.930 . S
H1010 C998 0.956 . S
H1011 C998 0.961 . S
H1012 C998 0.961 . S
H1013 C999 0.958 . S
H1014 C999 0.961 . S
H1015 C999 0.960 . S
C249 C5 3.013 . S
C257 C107 3.205 . S
C281 C18 2.287 . S
C289 C138 2.297 1_556 S
C321 C177 1.039 . S
C313 C30 1.055 . S
C345 C41 0.446 . S
C353 C214 0.458 . S
C385 C137 3.182 . S
C377 C7 3.207 . S
C417 C94 1.612 . S
C409 C16 1.465 . S
C449 C226 1.450 . S
C441 C29 1.432 . S
C481 C183 0.839 . S
C473 C38 0.825 . S
C505 C8 2.476 . S
C513 C227 2.478 . S
C545 C143 1.494 . S
C537 C27 1.333 . S
C569 C40 0.410 . S
C577 C106 0.510 . S
C601 C19 2.071 . S
C609 C178 2.068 . S
C641 C98 3.007 . S
C633 C51 2.919 . S
C665 C62 2.334 . S
C673 C147 2.460 . S
C697 C74 1.239 . S
C705 C186 1.192 . S
C729 C84 0.520 . S
C737 C223 0.435 . S
C761 C49 3.001 . S
C769 C146 3.125 . S
C801 C103 1.359 . S
C793 C63 1.363 . S
C833 C217 1.279 . S
C825 C71 1.103 . S
C865 C174 0.890 . S
C857 C85 0.899 . S
C889 C52 2.335 . S
C897 C218 2.349 1_655 S
C929 C134 1.449 . S
C921 C73 1.332 . S
C961 C97 0.512 . S
C953 C82 0.633 . S
C985 C60 2.382 . S
C993 C187 2.403 . S
