# Generated by pormake.
# Topology zzz, (3,6)-cn, num edge types: 1
# Building blocks:
#     Node 0, Type 0, BuildingBlock: WUSLED_clean_sbu_0, # of connection points: 3
#     Node 1, Type 0, BuildingBlock: WUSLED_clean_sbu_0, # of connection points: 3
#     Node 2, Type 0, BuildingBlock: WUSLED_clean_sbu_0, # of connection points: 3
#     Node 3, Type 0, BuildingBlock: WUSLED_clean_sbu_0, # of connection points: 3
#     Node 4, Type 0, BuildingBlock: WUSLED_clean_sbu_0, # of connection points: 3
#     Node 5, Type 0, BuildingBlock: WUSLED_clean_sbu_0, # of connection points: 3
#     Node 6, Type 0, BuildingBlock: WUSLED_clean_sbu_0, # of connection points: 3
#     Node 7, Type 0, BuildingBlock: WUSLED_clean_sbu_0, # of connection points: 3
#     Node 8, Type 1, BuildingBlock: BETDAH_clean_sbu_0, # of connection points: 6
#     Node 9, Type 1, BuildingBlock: BETDAH_clean_sbu_0, # of connection points: 6
#     Node 10, Type 1, BuildingBlock: BETDAH_clean_sbu_0, # of connection points: 6
#     Node 11, Type 1, BuildingBlock: BETDAH_clean_sbu_0, # of connection points: 6
#     Edge 12, Type (0, 1), BuildingBlock: TEMPAE_clean_linker_10, # of connection points: 2
#     Edge 13, Type (0, 1), BuildingBlock: TEMPAE_clean_linker_10, # of connection points: 2
#     Edge 14, Type (0, 1), BuildingBlock: TEMPAE_clean_linker_10, # of connection points: 2
#     Edge 15, Type (0, 1), BuildingBlock: TEMPAE_clean_linker_10, # of connection points: 2
#     Edge 16, Type (0, 1), BuildingBlock: TEMPAE_clean_linker_10, # of connection points: 2
#     Edge 17, Type (0, 1), BuildingBlock: TEMPAE_clean_linker_10, # of connection points: 2
#     Edge 18, Type (0, 1), BuildingBlock: TEMPAE_clean_linker_10, # of connection points: 2
#     Edge 19, Type (0, 1), BuildingBlock: TEMPAE_clean_linker_10, # of connection points: 2
#     Edge 20, Type (0, 1), BuildingBlock: TEMPAE_clean_linker_10, # of connection points: 2
#     Edge 21, Type (0, 1), BuildingBlock: TEMPAE_clean_linker_10, # of connection points: 2
#     Edge 22, Type (0, 1), BuildingBlock: TEMPAE_clean_linker_10, # of connection points: 2
#     Edge 23, Type (0, 1), BuildingBlock: TEMPAE_clean_linker_10, # of connection points: 2
#     Edge 24, Type (0, 1), BuildingBlock: TEMPAE_clean_linker_10, # of connection points: 2
#     Edge 25, Type (0, 1), BuildingBlock: TEMPAE_clean_linker_10, # of connection points: 2
#     Edge 26, Type (0, 1), BuildingBlock: TEMPAE_clean_linker_10, # of connection points: 2
#     Edge 27, Type (0, 1), BuildingBlock: TEMPAE_clean_linker_10, # of connection points: 2
#     Edge 28, Type (0, 1), BuildingBlock: TEMPAE_clean_linker_10, # of connection points: 2
#     Edge 29, Type (0, 1), BuildingBlock: TEMPAE_clean_linker_10, # of connection points: 2
#     Edge 30, Type (0, 1), BuildingBlock: TEMPAE_clean_linker_10, # of connection points: 2
#     Edge 31, Type (0, 1), BuildingBlock: TEMPAE_clean_linker_10, # of connection points: 2
#     Edge 32, Type (0, 1), BuildingBlock: TEMPAE_clean_linker_10, # of connection points: 2
#     Edge 33, Type (0, 1), BuildingBlock: TEMPAE_clean_linker_10, # of connection points: 2
#     Edge 34, Type (0, 1), BuildingBlock: TEMPAE_clean_linker_10, # of connection points: 2
#     Edge 35, Type (0, 1), BuildingBlock: TEMPAE_clean_linker_10, # of connection points: 2
# Relax obj value: 0.413
# Max RMSD: 0.267
# Mean RMSD: 0.249
data_MOF--net-zzz--node1-WUSLED_clean_sbu_0--node2-BETDAH_clean_sbu_0--edge1-TEMPAE_clean_linker_10
_symmetry_space_group_name_H-M    P1
_symmetry_Int_Tables_number       1
_symmetry_cell_setting            triclinic
loop_
_symmetry_equiv_pos_as_xyz
'x, y, z'
_cell_length_a     64.812403
_cell_length_b     64.797278
_cell_length_c     19.517341
_cell_angle_alpha  89.972024
_cell_angle_beta   90.042572
_cell_angle_gamma 89.918076
loop_
_atom_site_label
_atom_site_type_symbol
_atom_site_fract_x
_atom_site_fract_y
_atom_site_fract_z
_atom_type_partial_charge
C0 C 0.77664 0.50862 0.43485 0.0
C1 C 0.7883 0.52679 0.42766 0.0
C2 C 0.81831 0.51017 0.48079 0.0
C3 C 0.8089 0.52753 0.45013 0.0
C4 C 0.80647 0.49207 0.48791 0.0
C5 C 0.78597 0.49132 0.46512 0.0
U6 U 0.73158 0.52168 0.31189 0.0
O7 O 0.70746 0.50065 0.27496 0.0
O8 O 0.69866 0.52851 0.33157 0.0
C9 C 0.69228 0.51263 0.29534 0.0
C10 C 0.75478 0.50726 0.41215 0.0
C11 C 0.67595 0.51664 0.24376 0.0
C12 C 0.63944 0.51701 0.21359 0.0
C13 C 0.65514 0.51504 0.26269 0.0
C14 C 0.66513 0.52263 0.12571 0.0
C15 C 0.64419 0.52054 0.1441 0.0
C16 C 0.68081 0.52074 0.17496 0.0
C17 C 0.77254 0.55075 0.21748 0.0
C18 C 0.7996 0.57175 0.16769 0.0
C19 C 0.80841 0.5423 0.23866 0.0
C20 C 0.78754 0.5384 0.24912 0.0
C21 C 0.81473 0.55868 0.19625 0.0
C22 C 0.77862 0.56776 0.17817 0.0
C23 C 0.75072 0.54507 0.22308 0.0
O24 O 0.74353 0.52411 0.41737 0.0
O25 O 0.75146 0.49717 0.35481 0.0
O26 O 0.747 0.52538 0.21273 0.0
O27 O 0.74101 0.55259 0.27666 0.0
H28 H 0.78152 0.54039 0.40446 0.0
H29 H 0.81752 0.54166 0.44277 0.0
H30 H 0.81294 0.47848 0.51214 0.0
H31 H 0.7773 0.47717 0.47163 0.0
H32 H 0.62356 0.51564 0.23014 0.0
H33 H 0.65101 0.51189 0.31545 0.0
H34 H 0.6695 0.52509 0.0728 0.0
H35 H 0.69677 0.52199 0.15897 0.0
H36 H 0.80397 0.58461 0.13537 0.0
H37 H 0.81951 0.53166 0.26053 0.0
H38 H 0.7831 0.52515 0.27952 0.0
H39 H 0.76718 0.57754 0.15386 0.0
C40 C 0.01505 0.77048 0.43322 0.0
C41 C 0.03306 0.78127 0.45083 0.0
C42 C 0.01298 0.81177 0.48287 0.0
C43 C 0.03207 0.80158 0.4754 0.0
C44 C 0.99491 0.80094 0.46476 0.0
C45 C 0.99592 0.78053 0.44071 0.0
U46 U 1.00477 0.72589 0.3052 0.0
O47 O 0.02682 0.70215 0.27131 0.0
O48 O 0.99813 0.69286 0.32188 0.0
C49 C 0.01474 0.68677 0.28883 0.0
C50 C 0.01675 0.74867 0.40973 0.0
C51 C 0.01181 0.67076 0.23568 0.0
C52 C 0.0203 0.63668 0.19123 0.0
C53 C 0.02177 0.65165 0.24277 0.0
C54 C 0.99853 0.65957 0.12489 0.0
C55 C 1.00882 0.64047 0.13121 0.0
C56 C 1.00007 0.67459 0.17652 0.0
C57 C 0.97682 0.76677 0.20398 0.0
C58 C 0.97563 0.79743 0.13312 0.0
C59 C 0.96955 0.80017 0.2553 0.0
C60 C 0.97204 0.77883 0.26162 0.0
C61 C 0.97189 0.80979 0.19119 0.0
C62 C 0.97804 0.77613 0.13953 0.0
C63 C 0.98325 0.74515 0.21135 0.0
O64 O 0.99987 0.7374 0.41029 0.0
O65 O 0.02817 0.7455 0.35512 0.0
O66 O 1.00327 0.74229 0.20685 0.0
O67 O 0.9747 0.73473 0.26172 0.0
H68 H 0.048 0.77387 0.44638 0.0
H69 H 0.04631 0.80912 0.48984 0.0
H70 H 0.97993 0.80825 0.46883 0.0
H71 H 0.9817 0.77261 0.42851 0.0
H72 H 0.0282 0.62209 0.19844 0.0
H73 H 0.03093 0.64839 0.28796 0.0
H74 H 0.98975 0.66315 0.07917 0.0
H75 H 0.99237 0.68931 0.16978 0.0
H76 H 0.97793 0.8043 0.08312 0.0
H77 H 0.96648 0.80919 0.30088 0.0
H78 H 0.97102 0.77186 0.31186 0.0
H79 H 0.98192 0.7671 0.09461 0.0
C80 C 0.74472 0.99427 0.43812 0.0
C81 C 0.72886 0.99775 0.39019 0.0
C82 C 0.70264 0.99369 0.47942 0.0
C83 C 0.70807 0.99749 0.41061 0.0
C84 C 0.71859 0.98988 0.52684 0.0
C85 C 0.73934 0.99019 0.50643 0.0
U86 U 0.7896 0.98617 0.31144 0.0
O87 O 0.81549 1.00697 0.28897 0.0
O88 O 0.82177 0.97571 0.32657 0.0
C89 C 0.82954 0.99273 0.30048 0.0
C90 C 0.76688 0.99553 0.41889 0.0
C91 C 0.8452 0.9901 0.24581 0.0
C92 C 0.88127 0.98678 0.2119 0.0
C93 C 0.86613 0.98808 0.26313 0.0
C94 C 0.85472 0.98924 0.12502 0.0
C95 C 0.87579 0.98761 0.1421 0.0
C96 C 0.8396 0.9904 0.17625 0.0
C97 C 0.74729 0.96595 0.19847 0.0
C98 C 0.7172 0.96836 0.12551 0.0
C99 C 0.71319 0.95953 0.24547 0.0
C100 C 0.73456 0.96072 0.25404 0.0
C101 C 0.70422 0.96376 0.18134 0.0
C102 C 0.73852 0.96937 0.13403 0.0
C103 C 0.76928 0.97028 0.20853 0.0
O104 O 0.77679 0.9779 0.41275 0.0
O105 O 0.77162 1.00883 0.37052 0.0
O106 O 0.77372 0.99002 0.21281 0.0
O107 O 0.77876 0.95894 0.25478 0.0
H108 H 0.73252 1.00085 0.33704 0.0
H109 H 0.69625 1.0002 0.37242 0.0
H110 H 0.71509 0.98713 0.58032 0.0
H111 H 0.75125 0.98753 0.54442 0.0
H112 H 0.89731 0.9857 0.227 0.0
H113 H 0.87082 0.98786 0.31641 0.0
H114 H 0.8499 0.98962 0.07189 0.0
H115 H 0.82354 0.99181 0.1615 0.0
H116 H 0.71089 0.97221 0.07573 0.0
H117 H 0.70369 0.95582 0.28939 0.0
H118 H 0.74105 0.95824 0.30457 0.0
H119 H 0.7481 0.9737 0.09088 0.0
C120 C 0.51303 0.74525 0.44869 0.0
C121 C 0.50811 0.7289 0.40409 0.0
C122 C 0.51452 0.70362 0.49482 0.0
C123 C 0.50879 0.70836 0.42694 0.0
C124 C 0.51988 0.72 0.53875 0.0
C125 C 0.51908 0.74053 0.516 0.0
U126 U 0.52145 0.78939 0.31946 0.0
O127 O 0.49988 0.81411 0.2896 0.0
O128 O 0.53002 0.82207 0.33311 0.0
C129 C 0.51305 0.82891 0.30377 0.0
C130 C 0.51117 0.76723 0.42723 0.0
C131 C 0.51547 0.84487 0.25001 0.0
C132 C 0.50398 0.87736 0.19984 0.0
C133 C 0.50272 0.86237 0.25144 0.0
C134 C 0.53109 0.85777 0.14469 0.0
C135 C 0.51806 0.87523 0.14542 0.0
C136 C 0.52974 0.84269 0.19631 0.0
C137 C 0.54503 0.74644 0.21888 0.0
C138 C 0.54555 0.715 0.15205 0.0
C139 C 0.54945 0.71329 0.27547 0.0
C140 C 0.54802 0.73478 0.27883 0.0
C141 C 0.54774 0.70311 0.21214 0.0
C142 C 0.54424 0.73646 0.15547 0.0
C143 C 0.53993 0.76846 0.22295 0.0
O144 O 0.52843 0.77783 0.42359 0.0
O145 O 0.49852 0.77113 0.37615 0.0
O146 O 0.52003 0.77234 0.22233 0.0
O147 O 0.55006 0.77907 0.2695 0.0
H148 H 0.50355 0.73198 0.35166 0.0
H149 H 0.50485 0.69616 0.39137 0.0
H150 H 0.52418 0.71699 0.59146 0.0
H151 H 0.52289 0.75279 0.5515 0.0
H152 H 0.49388 0.89067 0.20263 0.0
H153 H 0.4916 0.86438 0.29234 0.0
H154 H 0.54195 0.85548 0.10324 0.0
H155 H 0.53965 0.82923 0.19384 0.0
H156 H 0.54371 0.70771 0.10251 0.0
H157 H 0.55126 0.70465 0.3226 0.0
H158 H 0.54842 0.74222 0.32851 0.0
H159 H 0.54162 0.74519 0.10889 0.0
C160 C 0.24024 0.49473 0.95187 0.0
C161 C 0.22569 0.5073 0.98501 0.0
C162 C 0.19964 0.49907 0.89811 0.0
C163 C 0.2056 0.50942 0.95861 0.0
C164 C 0.21454 0.48686 0.86448 0.0
C165 C 0.23451 0.48469 0.89116 0.0
U166 U 0.28479 0.50531 0.0802 0.0
O167 O 0.3052 0.48222 0.12738 0.0
O168 O 0.31854 0.50668 0.0638 0.0
C169 C 0.32215 0.49134 0.10633 0.0
C170 C 0.2612 0.4913 0.98027 0.0
C171 C 0.33818 0.49478 0.15944 0.0
C172 C 0.37447 0.49467 0.1927 0.0
C173 C 0.35912 0.49278 0.14234 0.0
C174 C 0.34818 0.50081 0.27826 0.0
C175 C 0.3692 0.49847 0.26154 0.0
C176 C 0.33286 0.49907 0.2278 0.0
C177 C 0.24847 0.54403 0.16268 0.0
C178 C 0.22787 0.57527 0.17349 0.0
C179 C 0.21117 0.54186 0.16886 0.0
C180 C 0.2303 0.53228 0.16295 0.0
C181 C 0.2097 0.56344 0.17486 0.0
C182 C 0.24712 0.56561 0.1673 0.0
C183 C 0.26879 0.53388 0.15886 0.0
O184 O 0.27456 0.50636 0.97229 0.0
O185 O 0.2621 0.48287 0.04147 0.0
O186 O 0.26911 0.51419 0.17515 0.0
O187 O 0.27988 0.53821 0.10436 0.0
H188 H 0.22981 0.51529 0.0316 0.0
H189 H 0.19463 0.51882 0.98651 0.0
H190 H 0.21082 0.47898 0.81716 0.0
H191 H 0.24551 0.47499 0.86442 0.0
H192 H 0.39046 0.49264 0.178 0.0
H193 H 0.36362 0.4894 0.09006 0.0
H194 H 0.34356 0.50407 0.33047 0.0
H195 H 0.31683 0.50082 0.24242 0.0
H196 H 0.22721 0.59191 0.17806 0.0
H197 H 0.19756 0.53221 0.17143 0.0
H198 H 0.23082 0.5156 0.15959 0.0
H199 H 0.26097 0.57495 0.16712 0.0
C200 C 0.02964 0.2323 0.96396 0.0
C201 C 0.04625 0.21851 0.95773 0.0
C202 C 0.02373 0.19199 0.90936 0.0
C203 C 0.04336 0.19865 0.93103 0.0
C204 C 1.00696 0.20572 0.9169 0.0
C205 C 1.00988 0.22565 0.94379 0.0
U206 U 0.01887 0.28052 0.07717 0.0
O207 O 0.04212 0.29988 0.12776 0.0
O208 O 0.02077 0.31388 0.05402 0.0
C209 C 0.03505 0.31707 0.10079 0.0
C210 C 0.03372 0.25364 0.98865 0.0
C211 C 0.03115 0.33399 0.15018 0.0
C212 C 0.0364 0.36969 0.18518 0.0
C213 C 0.03866 0.35386 0.13672 0.0
C214 C 0.01876 0.34605 0.26108 0.0
C215 C 0.02663 0.36597 0.2485 0.0
C216 C 0.02095 0.33027 0.21245 0.0
C217 C 0.97569 0.24921 0.15496 0.0
C218 C 0.9496 0.22879 0.21216 0.0
C219 C 0.97502 0.21212 0.13965 0.0
C220 C 0.98356 0.23131 0.12429 0.0
C221 C 0.95843 0.21058 0.18588 0.0
C222 C 0.95827 0.24798 0.19703 0.0
C223 C 0.98703 0.26865 0.14962 0.0
O224 O 0.02027 0.26806 0.97218 0.0
O225 O 0.04055 0.25536 0.05181 0.0
O226 O 1.00614 0.2676 0.17182 0.0
O227 O 0.98519 0.27855 0.09114 0.0
H228 H 0.06163 0.22319 0.97298 0.0
H229 H 0.05658 0.18848 0.92761 0.0
H230 H 0.99164 0.20127 0.90054 0.0
H231 H 0.99673 0.23589 0.94802 0.0
H232 H 0.04235 0.38485 0.17294 0.0
H233 H 0.04655 0.3571 0.089 0.0
H234 H 0.01138 0.34244 0.30936 0.0
H235 H 0.01505 0.31503 0.2241 0.0
H236 H 0.93663 0.22811 0.24705 0.0
H237 H 0.98236 0.19844 0.11908 0.0
H238 H 0.99708 0.23205 0.09177 0.0
H239 H 0.95199 0.26173 0.2208 0.0
C240 C 0.28095 1.00501 0.9464 0.0
C241 C 0.29746 0.99802 0.98733 0.0
C242 C 0.32234 1.00722 0.89824 0.0
C243 C 0.31786 0.99908 0.96348 0.0
C244 C 0.30585 0.0146 0.85806 0.0
C245 C 0.28544 0.01343 0.88175 0.0
U246 U 0.23621 0.01429 0.0733 0.0
O247 O 0.21244 0.9923 0.10627 0.0
O248 O 0.20313 0.02141 0.05787 0.0
C249 C 0.19711 1.0048 0.09109 0.0
C250 C 0.25904 1.00277 0.96848 0.0
C251 C 0.18151 1.00783 0.14583 0.0
C252 C 0.14548 0.01164 0.17962 0.0
C253 C 0.16061 1.01013 0.12845 0.0
C254 C 0.17195 1.00881 0.26663 0.0
C255 C 0.15092 0.01071 0.24942 0.0
C256 C 0.18707 1.00748 0.21548 0.0
C257 C 0.27747 0.04153 0.17211 0.0
C258 C 0.30716 0.04827 0.24383 0.0
C259 C 0.31181 0.04166 0.12248 0.0
C260 C 0.29047 0.0398 0.11487 0.0
C261 C 0.32036 0.04518 0.18754 0.0
C262 C 0.28584 0.04638 0.23616 0.0
C263 C 0.25578 0.03551 0.16689 0.0
O264 O 0.25557 0.99103 0.02221 0.0
O265 O 0.24767 0.01961 0.96806 0.0
O266 O 0.24532 0.04423 0.11689 0.0
O267 O 0.25276 0.01551 0.17135 0.0
H268 H 0.29465 0.99157 0.03765 0.0
H269 H 0.33017 0.99354 0.99628 0.0
H270 H 0.30866 0.0208 0.80739 0.0
H271 H 0.27307 0.01883 0.8489 0.0
H272 H 0.12945 0.01295 0.16447 0.0
H273 H 0.15593 0.0104 0.07515 0.0
H274 H 0.17672 1.00835 0.3198 0.0
H275 H 0.20309 1.00586 0.23042 0.0
H276 H 0.3134 0.05119 0.2944 0.0
H277 H 0.32163 0.03902 0.07844 0.0
H278 H 0.2842 0.03596 0.06506 0.0
H279 H 0.27599 0.04769 0.28079 0.0
C280 C 0.4856 0.28019 0.95202 0.0
C281 C 0.4689 0.294 0.94884 0.0
C282 C 0.49099 0.32118 0.902 0.0
C283 C 0.47154 0.31419 0.92443 0.0
C284 C 0.50779 0.30738 0.90603 0.0
C285 C 0.50514 0.28717 0.93064 0.0
U286 U 0.49686 0.2345 0.07337 0.0
O287 O 0.47489 0.21297 0.12055 0.0
O288 O 0.49959 0.20092 0.05499 0.0
C289 C 0.48453 0.19649 0.0977 0.0
C290 C 0.48212 0.25863 0.97627 0.0
C291 C 0.48867 0.1801 0.14906 0.0
C292 C 0.48852 0.1436 0.17933 0.0
C293 C 0.48624 0.15934 0.13055 0.0
C294 C 0.49613 0.16912 0.26613 0.0
C295 C 0.49321 0.14825 0.24814 0.0
C296 C 0.49391 0.18485 0.21716 0.0
C297 C 0.53248 0.27313 0.14993 0.0
C298 C 0.55508 0.29959 0.19486 0.0
C299 C 0.52718 0.30891 0.11792 0.0
C300 C 0.52175 0.28819 0.11253 0.0
C301 C 0.54351 0.31493 0.16086 0.0
C302 C 0.54952 0.27881 0.18964 0.0
C303 C 0.52481 0.25189 0.15069 0.0
O304 O 0.49708 0.24523 0.96618 0.0
O305 O 0.47339 0.25665 0.03671 0.0
O306 O 0.50533 0.25031 0.16859 0.0
O307 O 0.52952 0.24082 0.09648 0.0
H308 H 0.45369 0.28913 0.96507 0.0
H309 H 0.45828 0.32437 0.92357 0.0
H310 H 0.52296 0.31202 0.88882 0.0
H311 H 0.5184 0.277 0.93253 0.0
H312 H 0.48653 0.12776 0.16303 0.0
H313 H 0.48224 0.15527 0.07835 0.0
H314 H 0.49956 0.17339 0.31854 0.0
H315 H 0.49588 0.20077 0.23285 0.0
H316 H 0.56795 0.30373 0.22748 0.0
H317 H 0.51775 0.32025 0.0917 0.0
H318 H 0.50849 0.284 0.08179 0.0
H319 H 0.55805 0.2673 0.21839 0.0
Ho320 Ho 0.02677 0.99716 0.75189 0.0
Ho321 Ho 0.99817 1.0068 0.63733 0.0
C322 C 1.00949 0.95991 0.65694 0.0
C323 C 0.04368 0.98335 0.86299 0.0
C324 C 0.03579 0.96977 0.91688 0.0
C325 C 0.01454 0.96587 0.92138 0.0
C326 C 1.00693 0.95244 0.97109 0.0
C327 C 0.02051 0.94246 0.01643 0.0
C328 C 0.04176 0.94673 0.01265 0.0
C329 C 0.04934 0.96037 0.96325 0.0
C330 C 0.04646 1.00959 0.63615 0.0
C331 C 0.01406 0.04428 0.73447 0.0
C332 C 0.97897 0.01892 0.52808 0.0
C333 C 0.97403 0.03814 0.49237 0.0
C334 C 0.98376 0.05667 0.51017 0.0
C335 C 0.97939 0.0747 0.47376 0.0
C336 C 0.96524 0.07441 0.41904 0.0
C337 C 0.95527 0.05584 0.4023 0.0
C338 C 0.95967 0.03783 0.43874 0.0
C339 C 0.97922 0.99316 0.75327 0.0
O340 O 0.0151 0.96539 0.71973 0.0
O341 O 1.00472 0.974 0.61094 0.0
O342 O 0.04637 0.9748 0.80311 0.0
O343 O 0.03443 1.00118 0.85862 0.0
O344 O 0.05259 0.01377 0.69772 0.0
O345 O 0.03099 0.99788 0.63942 0.0
O346 O 1.00685 0.03905 0.67333 0.0
O347 O 0.02057 0.03014 0.77794 0.0
O348 O 0.9699 0.01613 0.58705 0.0
O349 O 0.99846 0.01372 0.52918 0.0
O350 O 0.97373 0.98807 0.69172 0.0
O351 O 0.99404 1.00567 0.74996 0.0
H352 H 1.00391 0.97289 0.88546 0.0
H353 H 0.99054 0.94917 0.97206 0.0
H354 H 0.05252 0.93922 0.04712 0.0
H355 H 0.06578 0.96329 0.96043 0.0
H356 H 0.99486 0.05715 0.55163 0.0
H357 H 0.98707 0.08886 0.4884 0.0
H358 H 0.94444 0.05515 0.36007 0.0
H359 H 0.95206 0.02358 0.42449 0.0
Ho360 Ho 0.51699 0.02004 0.73753 0.0
Ho361 Ho 0.50484 0.99144 0.61401 0.0
C362 C 0.55308 1.00037 0.63984 0.0
C363 C 0.531 0.03552 0.85007 0.0
C364 C 0.54541 0.02778 0.90175 0.0
C365 C 0.5533 1.00769 0.89629 0.0
C366 C 0.56633 0.99988 0.94687 0.0
C367 C 0.57205 0.01225 1.00272 0.0
C368 C 0.56425 0.03243 1.00788 0.0
C369 C 0.55082 0.04009 0.95789 0.0
C370 C 0.50218 0.04023 0.62508 0.0
C371 C 0.47001 1.00731 0.71938 0.0
C372 C 0.49348 0.97834 0.49468 0.0
C373 C 0.48324 0.98709 0.4341 0.0
C374 C 0.48818 1.00687 0.40984 0.0
C375 C 0.47634 0.01601 0.35831 0.0
C376 C 0.45942 1.00546 0.33018 0.0
C377 C 0.45537 0.98514 0.35158 0.0
C378 C 0.46718 0.97606 0.40319 0.0
C379 C 0.51298 0.96818 0.72847 0.0
O380 O 0.54827 1.00901 0.69952 0.0
O381 O 0.53888 0.9937 0.59654 0.0
O382 O 0.53892 0.03967 0.7899 0.0
O383 O 0.51375 0.02519 0.84598 0.0
O384 O 0.49982 0.0464 0.68774 0.0
O385 O 0.51355 0.02441 0.62527 0.0
O386 O 0.47429 1.00368 0.65396 0.0
O387 O 0.48484 0.01053 0.76458 0.0
O388 O 0.48197 0.97689 0.54949 0.0
O389 O 0.51211 0.98494 0.50819 0.0
O390 O 0.50805 0.96046 0.66951 0.0
O391 O 0.51361 0.98734 0.7207 0.0
H392 H 0.54947 0.99812 0.85264 0.0
H393 H 0.5725 0.98442 0.94117 0.0
H394 H 0.56866 0.04226 0.05032 0.0
H395 H 0.54477 0.05562 0.96276 0.0
H396 H 0.50072 0.01552 0.43219 0.0
H397 H 0.47994 0.03156 0.34221 0.0
H398 H 0.44226 0.97672 0.33151 0.0
H399 H 0.46319 0.96074 0.42112 0.0
Ho400 Ho 0.49608 0.51854 0.76265 0.0
Ho401 Ho 0.51908 0.50619 0.63635 0.0
C402 C 0.51081 0.55525 0.6675 0.0
C403 C 0.48568 0.52396 0.88909 0.0
C404 C 0.49011 0.54016 0.93936 0.0
C405 C 0.49292 0.56062 0.91795 0.0
C406 C 0.49838 0.57575 0.96516 0.0
C407 C 0.50132 0.5707 0.03457 0.0
C408 C 0.4987 0.55016 0.05587 0.0
C409 C 0.49307 0.53499 0.00848 0.0
C410 C 0.47193 0.51421 0.6506 0.0
C411 C 0.50407 0.46929 0.73034 0.0
C412 C 0.53133 0.50194 0.51096 0.0
C413 C 0.53134 0.48594 0.45826 0.0
C414 C 0.52074 0.46738 0.46849 0.0
C415 C 0.52155 0.45192 0.41884 0.0
C416 C 0.53298 0.45481 0.35827 0.0
C417 C 0.5432 0.47366 0.34777 0.0
C418 C 0.54237 0.48912 0.39751 0.0
C419 C 0.54295 0.51057 0.74927 0.0
O420 O 0.50574 0.55051 0.73122 0.0
O421 O 0.51483 0.54065 0.62211 0.0
O422 O 0.47389 0.52917 0.8374 0.0
O423 O 0.5017 0.5131 0.87029 0.0
O424 O 0.4687 0.52765 0.69857 0.0
O425 O 0.48676 0.50258 0.66718 0.0
O426 O 0.50989 0.47404 0.66728 0.0
O427 O 0.49943 0.48387 0.77535 0.0
O428 O 0.54313 0.49848 0.56405 0.0
O429 O 0.51321 0.50918 0.52794 0.0
O430 O 0.54602 0.4968 0.7022 0.0
O431 O 0.52828 0.52226 0.73173 0.0
H432 H 0.49118 0.56486 0.86455 0.0
H433 H 0.50075 0.59138 0.94704 0.0
H434 H 0.50094 0.54589 0.10902 0.0
H435 H 0.49127 0.51918 0.02555 0.0
H436 H 0.51215 0.46474 0.51529 0.0
H437 H 0.51378 0.43745 0.42895 0.0
H438 H 0.55198 0.47638 0.30142 0.0
H439 H 0.55054 0.50347 0.38893 0.0
Ho440 Ho 1.00374 0.49281 0.74477 0.0
Ho441 Ho 0.01613 0.51826 0.61155 0.0
C442 C 0.96795 0.51025 0.64244 0.0
C443 C 0.98883 0.48078 0.86025 0.0
C444 C 0.97241 0.48888 0.90502 0.0
C445 C 0.97764 0.49728 0.96907 0.0
C446 C 0.96269 0.50701 0.00918 0.0
C447 C 0.94219 0.50806 0.98645 0.0
C448 C 0.9368 0.4991 0.92347 0.0
C449 C 0.95179 0.48969 0.88286 0.0
C450 C 0.01598 0.47039 0.63467 0.0
C451 C 0.05149 0.50507 0.7222 0.0
C452 C 0.02744 0.52814 0.48954 0.0
C453 C 0.04379 0.54099 0.46055 0.0
C454 C 0.04306 0.54663 0.39131 0.0
C455 C 0.05965 0.55706 0.36158 0.0
C456 C 0.07719 0.56181 0.40085 0.0
C457 C 0.07735 0.5571 0.47116 0.0
C458 C 0.06072 0.54682 0.50089 0.0
C459 C 0.01127 0.5437 0.72257 0.0
O460 O 0.97289 0.50478 0.70605 0.0
O461 O 0.98215 0.5138 0.59511 0.0
O462 O 0.98317 0.47287 0.80132 0.0
O463 O 1.00518 0.49251 0.85516 0.0
O464 O 0.01903 0.46487 0.69783 0.0
O465 O 1.00534 0.4867 0.63374 0.0
O466 O 0.04726 0.51013 0.65762 0.0
O467 O 0.03691 0.50011 0.76683 0.0
O468 O 0.01295 0.53802 0.52299 0.0
O469 O 0.03376 0.51136 0.52098 0.0
O470 O 0.01675 0.55012 0.66226 0.0
O471 O 1.009 0.52455 0.71789 0.0
H472 H 0.99342 0.49675 0.98733 0.0
H473 H 0.96711 0.51371 0.05787 0.0
H474 H 0.92105 0.49983 0.90488 0.0
H475 H 0.94725 0.48343 0.83368 0.0
H476 H 0.03001 0.5423 0.35972 0.0
H477 H 0.05927 0.56034 0.30716 0.0
H478 H 0.09068 0.5607 0.50248 0.0
H479 H 0.0614 0.54273 0.5547 0.0
C480 C 0.11821 0.02524 0.30061 0.0
C481 C 0.13473 0.01122 0.30405 0.0
C482 C 0.10297 0.02587 0.35206 0.0
C483 C 0.10409 0.01199 0.40814 0.0
C484 C 0.12061 0.99767 0.41145 0.0
C485 C 0.13572 0.99752 0.35972 0.0
C486 C 0.08579 0.04154 0.34683 0.0
C487 C 0.12234 0.98245 0.46979 0.0
C488 C 0.07769 0.02407 0.57817 0.0
C489 C 0.06006 0.01156 0.57523 0.0
C490 C 0.09176 0.02485 0.52336 0.0
C491 C 0.0883 0.01265 0.4642 0.0
C492 C 0.07021 1.0004 0.46023 0.0
C493 C 0.05626 1.0001 0.51559 0.0
C494 C 0.11065 0.03833 0.52958 0.0
C495 C 0.06593 0.98708 0.39844 0.0
H496 H 0.11739 0.03601 0.25818 0.0
H497 H 0.14823 0.98642 0.36236 0.0
H498 H 0.07062 0.03364 0.34711 0.0
H499 H 0.08617 0.05193 0.39198 0.0
H500 H 0.08693 0.05106 0.29964 0.0
H501 H 0.13582 0.97198 0.46413 0.0
H502 H 0.1238 0.99084 0.51909 0.0
H503 H 0.10813 0.97296 0.47279 0.0
H504 H 0.08066 0.03306 0.62396 0.0
H505 H 0.04267 0.99039 0.51296 0.0
H506 H 0.11185 0.04871 0.48453 0.0
H507 H 0.12472 0.02856 0.53032 0.0
H508 H 0.11043 0.04789 0.57682 0.0
H509 H 0.06628 0.99655 0.35109 0.0
H510 H 0.05074 0.97922 0.40174 0.0
H511 H 0.07816 0.97518 0.39352 0.0
C512 C 0.48061 0.11481 0.29957 0.0
C513 C 0.49446 0.13147 0.30105 0.0
C514 C 0.48125 0.09911 0.34945 0.0
C515 C 0.49614 0.0999 0.40256 0.0
C516 C 0.51025 0.11661 0.40429 0.0
C517 C 0.50926 0.13212 0.3537 0.0
C518 C 0.46603 0.08161 0.34476 0.0
C519 C 0.52633 0.11819 0.46001 0.0
C520 C 0.48644 0.07161 0.57131 0.0
C521 C 0.49938 0.05433 0.56553 0.0
C522 C 0.48494 0.08627 0.51824 0.0
C523 C 0.49664 0.08365 0.4575 0.0
C524 C 0.5093 0.06589 0.45064 0.0
C525 C 0.51065 0.05156 0.50492 0.0
C526 C 0.47111 0.10482 0.52776 0.0
C527 C 0.5218 0.06226 0.3866 0.0
H528 H 0.46891 0.11419 0.25992 0.0
H529 H 0.52023 0.14471 0.35513 0.0
H530 H 0.47439 0.06728 0.33111 0.0
H531 H 0.45839 0.07898 0.39485 0.0
H532 H 0.45401 0.08442 0.30525 0.0
H533 H 0.53632 0.13198 0.45389 0.0
H534 H 0.5187 0.11898 0.51082 0.0
H535 H 0.53623 0.1042 0.45991 0.0
H536 H 0.47771 0.07388 0.61807 0.0
H537 H 0.52097 0.03846 0.50061 0.0
H538 H 0.45978 0.10574 0.48521 0.0
H539 H 0.48046 0.11914 0.52626 0.0
H540 H 0.46257 0.10433 0.57706 0.0
H541 H 0.51162 0.06266 0.3409 0.0
H542 H 0.53002 0.0472 0.38769 0.0
H543 H 0.53333 0.07476 0.3805 0.0
C544 C 0.40386 0.51067 0.30449 0.0
C545 C 0.38547 0.49974 0.31586 0.0
C546 C 0.419 0.51243 0.35603 0.0
C547 C 0.41582 0.50292 0.42059 0.0
C548 C 0.39752 0.49145 0.43177 0.0
C549 C 0.38259 0.49007 0.37956 0.0
C550 C 0.43816 0.52496 0.34199 0.0
C551 C 0.39354 0.48089 0.49945 0.0
C552 C 0.46106 0.49502 0.54427 0.0
C553 C 0.45819 0.51138 0.59036 0.0
C554 C 0.44761 0.49218 0.48819 0.0
C555 C 0.43091 0.50604 0.47793 0.0
C556 C 0.42823 0.52277 0.52382 0.0
C557 C 0.44185 0.5252 0.57931 0.0
C558 C 0.45109 0.47417 0.44058 0.0
C559 C 0.4108 0.53804 0.51478 0.0
H560 H 0.4062 0.51832 0.25572 0.0
H561 H 0.36862 0.4813 0.38855 0.0
H562 H 0.43851 0.5386 0.37631 0.0
H563 H 0.45215 0.51567 0.35316 0.0
H564 H 0.43891 0.53039 0.28806 0.0
H565 H 0.37912 0.47164 0.49884 0.0
H566 H 0.40664 0.47058 0.5126 0.0
H567 H 0.39234 0.4926 0.54073 0.0
H568 H 0.47371 0.48433 0.55238 0.0
H569 H 0.4396 0.53795 0.61447 0.0
H570 H 0.45214 0.47963 0.38682 0.0
H571 H 0.43777 0.46347 0.44352 0.0
H572 H 0.46538 0.46547 0.45327 0.0
H573 H 0.41151 0.54506 0.46298 0.0
H574 H 0.41123 0.55058 0.55353 0.0
H575 H 0.39577 0.52996 0.51894 0.0
C576 C 1.00747 0.38442 0.34319 0.0
C577 C 0.02511 0.38259 0.3018 0.0
C578 C 1.00619 0.39941 0.39523 0.0
C579 C 0.02289 0.41311 0.4063 0.0
C580 C 0.04058 0.41164 0.36396 0.0
C581 C 0.04151 0.39641 0.31258 0.0
C582 C 0.98704 0.40039 0.43912 0.0
C583 C 0.05872 0.42593 0.37375 0.0
C584 C 0.01212 0.46213 0.50945 0.0
C585 C 0.019 0.45647 0.575 0.0
C586 C 0.01366 0.44837 0.45375 0.0
C587 C 0.02214 0.42841 0.46388 0.0
C588 C 0.02947 0.42282 0.52978 0.0
C589 C 0.02787 0.43691 0.58434 0.0
C590 C 1.00583 0.45506 0.38435 0.0
C591 C 0.0386 0.40174 0.54309 0.0
H592 H 0.99455 0.37413 0.33484 0.0
H593 H 0.05536 0.39504 0.28186 0.0
H594 H 0.99115 0.39743 0.49345 0.0
H595 H 0.98016 0.41606 0.43655 0.0
H596 H 0.97521 0.38897 0.42312 0.0
H597 H 0.07085 0.42357 0.33434 0.0
H598 H 0.05352 0.44224 0.37168 0.0
H599 H 0.06564 0.42338 0.42506 0.0
H600 H 1.00522 0.47721 0.50188 0.0
H601 H 0.03323 0.43243 0.63483 0.0
H602 H 0.99269 0.44516 0.36877 0.0
H603 H 0.01811 0.45311 0.34529 0.0
H604 H 1.00066 0.47141 0.38405 0.0
H605 H 0.02687 0.38968 0.53273 0.0
H606 H 0.0441 0.39996 0.59669 0.0
H607 H 0.05174 0.39889 0.50793 0.0
C608 C 0.90891 0.97388 0.09085 0.0
C609 C 0.89197 0.98741 0.08734 0.0
C610 C 0.92414 0.97363 0.03928 0.0
C611 C 0.92256 0.98739 0.983 0.0
C612 C 0.90561 1.00121 0.97959 0.0
C613 C 0.89055 1.001 0.03146 0.0
C614 C 0.94185 0.95855 0.04474 0.0
C615 C 0.90339 0.01629 0.92105 0.0
C616 C 0.96945 1.00165 0.87451 0.0
C617 C 0.96595 0.99024 0.81455 0.0
C618 C 0.95586 1.00037 0.93064 0.0
C619 C 0.93837 0.98729 0.92696 0.0
C620 C 0.93528 0.9751 0.86753 0.0
C621 C 0.94904 0.97679 0.81204 0.0
C622 C 0.95981 0.01361 0.99285 0.0
C623 C 0.91705 0.96074 0.86165 0.0
H624 H 0.91009 0.96321 0.13347 0.0
H625 H 0.87776 0.01175 0.02874 0.0
H626 H 0.94206 0.94827 0.99929 0.0
H627 H 0.95673 0.96698 0.04539 0.0
H628 H 0.94087 0.94887 0.09158 0.0
H629 H 0.88952 0.02626 0.9264 0.0
H630 H 0.91723 0.02631 0.91816 0.0
H631 H 0.9023 1.00781 0.87182 0.0
H632 H 0.98255 0.01201 0.87692 0.0
H633 H 0.94634 0.96781 0.76604 0.0
H634 H 0.95981 1.004 0.03989 0.0
H635 H 0.94723 0.02513 0.99829 0.0
H636 H 0.97475 0.02194 0.98962 0.0
H637 H 0.91637 0.95035 0.90679 0.0
H638 H 0.91768 0.95117 0.81448 0.0
H639 H 0.90254 0.96985 0.86094 0.0
C640 C 0.50013 0.89856 0.06099 0.0
C641 C 0.51859 0.89078 0.08861 0.0
C642 C 0.50018 0.91256 1.00585 0.0
C643 C 0.51917 0.91911 0.97727 0.0
C644 C 0.5379 0.91182 1.00614 0.0
C645 C 0.53739 0.89768 0.06108 0.0
C646 C 0.47984 0.91982 0.97674 0.0
C647 C 0.55849 0.9186 0.97797 0.0
C648 C 0.51704 0.93456 0.78905 0.0
C649 C 0.51603 0.95615 0.79248 0.0
C650 C 0.51862 0.92246 0.84859 0.0
C651 C 0.51925 0.93212 0.91367 0.0
C652 C 0.51872 0.954 0.91742 0.0
C653 C 0.51696 0.96575 0.85675 0.0
C654 C 0.51909 0.89924 0.84181 0.0
C655 C 0.51959 0.96498 0.98552 0.0
H656 H 0.48551 0.89321 0.08123 0.0
H657 H 0.55174 0.89202 0.08261 0.0
H658 H 0.47942 0.93693 0.97459 0.0
H659 H 0.4781 0.91408 0.92349 0.0
H660 H 0.46647 0.91437 1.00735 0.0
H661 H 0.57161 0.91276 0.00911 0.0
H662 H 0.56027 0.91289 0.92472 0.0
H663 H 0.5593 0.93569 0.97606 0.0
H664 H 0.51628 0.92704 0.7395 0.0
H665 H 0.51579 0.98239 0.85972 0.0
H666 H 0.50531 0.89251 0.86703 0.0
H667 H 0.53289 0.89289 0.86807 0.0
H668 H 0.51932 0.89415 0.78748 0.0
H669 H 0.50633 0.96023 0.01779 0.0
H670 H 0.51929 0.98204 0.97972 0.0
H671 H 0.53386 0.96056 0.01333 0.0
C672 C 0.62879 0.53482 0.03475 0.0
C673 C 0.62751 0.52122 0.09072 0.0
C674 C 0.61398 0.53458 0.98189 0.0
C675 C 0.5973 0.52047 0.98479 0.0
C676 C 0.59546 0.50726 0.04232 0.0
C677 C 0.61056 0.50772 0.09423 0.0
C678 C 0.61658 0.54896 0.92165 0.0
C679 C 0.57794 0.49201 0.04783 0.0
C680 C 0.55174 0.52768 0.86164 0.0
C681 C 0.55657 0.51345 0.80984 0.0
C682 C 0.56466 0.53003 0.9194 0.0
C683 C 0.58302 0.51815 0.92479 0.0
C684 C 0.58793 0.50389 0.87221 0.0
C685 C 0.57461 0.50162 0.8159 0.0
C686 C 0.55858 0.54512 0.97476 0.0
C687 C 0.60736 0.49101 0.87524 0.0
H688 H 0.64152 0.5456 0.03186 0.0
H689 H 0.60943 0.49695 0.13653 0.0
H690 H 0.61959 0.53983 0.8746 0.0
H691 H 0.60219 0.55787 0.91288 0.0
H692 H 0.62951 0.55996 0.92911 0.0
H693 H 0.57747 0.48434 0.09872 0.0
H694 H 0.56295 0.49985 0.03879 0.0
H695 H 0.57966 0.47996 1.00786 0.0
H696 H 0.5378 0.53684 0.85732 0.0
H697 H 0.57845 0.49061 0.77609 0.0
H698 H 0.57087 0.55684 0.98155 0.0
H699 H 0.5569 0.53691 0.02433 0.0
H700 H 0.54384 0.55316 0.96301 0.0
H701 H 0.62107 0.50121 0.87829 0.0
H702 H 0.60907 0.4808 0.82991 0.0
H703 H 0.6073 0.48129 0.92204 0.0
C704 C 0.02608 0.614 0.05588 0.0
C705 C 1.00817 0.62484 0.07468 0.0
C706 C 0.02597 0.59976 1.00145 0.0
C707 C 1.00752 0.59622 0.96432 0.0
C708 C 0.98924 0.60665 0.98418 0.0
C709 C 0.9898 0.62086 0.03879 0.0
C710 C 0.04568 0.58864 0.98313 0.0
C711 C 0.96913 0.60287 0.94734 0.0
C712 C 0.01351 0.57803 0.77972 0.0
C713 C 1.00961 0.55681 0.7848 0.0
C714 C 0.01254 0.59096 0.83744 0.0
C715 C 1.00772 0.58251 0.90244 0.0
C716 C 1.00366 0.56104 0.90788 0.0
C717 C 1.00444 0.5485 0.84884 0.0
C718 C 0.01687 0.61371 0.82888 0.0
C719 C 0.99824 0.55117 0.97553 0.0
H720 H 0.04041 0.617 0.08275 0.0
H721 H 0.97577 0.62882 0.05364 0.0
H722 H 0.04309 0.5717 0.98394 0.0
H723 H 0.05044 0.59285 0.93035 0.0
H724 H 0.05851 0.59237 0.0188 0.0
H725 H 0.95621 0.61199 0.96933 0.0
H726 H 0.97075 0.60689 0.89233 0.0
H727 H 0.96512 0.58624 0.95018 0.0
H728 H 0.01741 0.5846 0.73031 0.0
H729 H 1.00111 0.5322 0.85299 0.0
H730 H 0.03049 0.61811 0.86008 0.0
H731 H 1.00357 0.62289 0.8477 0.0
H732 H 0.01988 0.61798 0.77466 0.0
H733 H 1.00564 0.5591 0.01946 0.0
H734 H 1.00294 0.5347 0.97647 0.0
H735 H 0.98127 0.55189 0.98271 0.0
C736 C 0.95017 0.18785 0.2852 0.0
C737 C 0.95267 0.19013 0.21421 0.0
C738 C 0.94902 0.16827 0.31522 0.0
C739 C 0.95053 0.15054 0.27324 0.0
C740 C 0.95143 0.1527 0.20115 0.0
C741 C 0.95248 0.17253 0.1724 0.0
C742 C 0.94798 0.16661 0.39235 0.0
C743 C 0.95284 0.13413 0.15472 0.0
C744 C 0.97787 0.10578 0.35826 0.0
C745 C 0.96131 0.09335 0.3786 0.0
C746 C 0.97453 0.12411 0.32196 0.0
C747 C 0.9541 0.13014 0.30559 0.0
C748 C 0.93733 0.11738 0.32421 0.0
C749 C 0.94113 0.09908 0.36063 0.0
C750 C 0.99286 0.13726 0.30264 0.0
C751 C 0.91537 0.12336 0.30752 0.0
H752 H 0.95055 0.20131 0.31809 0.0
H753 H 0.95408 0.17421 0.1174 0.0
H754 H 0.93625 0.15509 0.40797 0.0
H755 H 0.96311 0.16127 0.41234 0.0
H756 H 0.9442 0.18162 0.41683 0.0
H757 H 0.95019 0.13826 0.10015 0.0
H758 H 0.96842 0.12715 0.15929 0.0
H759 H 0.94147 0.12221 0.17002 0.0
H760 H 0.9935 0.10116 0.37086 0.0
H761 H 0.92829 0.08953 0.37657 0.0
H762 H 0.99186 0.1524 0.32902 0.0
H763 H 0.99281 0.14032 0.24671 0.0
H764 H 1.00777 0.12988 0.31653 0.0
H765 H 0.91103 0.13732 0.33713 0.0
H766 H 0.90427 0.11085 0.31982 0.0
H767 H 0.91391 0.1273 0.2524 0.0
C768 C 0.35719 0.05227 0.15481 0.0
C769 C 0.34282 0.04286 0.1985 0.0
C770 C 0.37848 0.04911 0.16408 0.0
C771 C 0.38534 0.03593 0.21731 0.0
C772 C 0.37082 0.02632 0.26109 0.0
C773 C 0.34979 0.02998 0.25128 0.0
C774 C 0.39353 0.05964 0.11664 0.0
C775 C 0.37745 0.01198 0.31823 0.0
C776 C 0.4351 1.00646 0.23072 0.0
C777 C 0.44413 0.01638 0.28699 0.0
C778 C 0.41688 0.01411 0.20129 0.0
C779 C 0.4076 0.03201 0.22926 0.0
C780 C 0.41797 0.04335 0.28072 0.0
C781 C 0.43611 0.03532 0.30926 0.0
C782 C 0.40642 1.00172 0.14583 0.0
C783 C 0.40865 0.06266 0.31104 0.0
H784 H 0.35177 0.06215 0.11372 0.0
H785 H 0.33869 0.0223 0.28406 0.0
H786 H 0.4061 0.06708 0.1463 0.0
H787 H 0.40077 0.04801 0.08257 0.0
H788 H 0.38591 0.0715 0.08417 0.0
H789 H 0.36413 1.00551 0.34682 0.0
H790 H 0.3866 0.99898 0.29705 0.0
H791 H 0.38745 0.02036 0.35501 0.0
H792 H 0.44148 0.99195 0.21282 0.0
H793 H 0.44291 0.04292 0.35325 0.0
H794 H 0.39973 0.01197 0.10611 0.0
H795 H 0.39359 0.99272 0.16867 0.0
H796 H 0.41726 0.99075 0.12088 0.0
H797 H 0.40374 0.07337 0.26972 0.0
H798 H 0.41957 0.07082 0.3455 0.0
H799 H 0.39471 0.05859 0.34111 0.0
C800 C 0.5495 0.34313 0.24525 0.0
C801 C 0.54648 0.33711 0.17702 0.0
C802 C 0.54887 0.36394 0.26411 0.0
C803 C 0.54504 0.37914 0.21355 0.0
C804 C 0.54313 0.37333 0.14396 0.0
C805 C 0.54389 0.35233 0.12646 0.0
C806 C 0.55106 0.36951 0.33898 0.0
C807 C 0.53921 0.38913 0.08858 0.0
C808 C 0.51848 0.42494 0.2933 0.0
C809 C 0.53535 0.43758 0.30902 0.0
C810 C 0.52118 0.40653 0.25687 0.0
C811 C 0.54124 0.4007 0.23557 0.0
C812 C 0.55801 0.41428 0.24592 0.0
C813 C 0.55489 0.43257 0.28287 0.0
C814 C 0.50284 0.39255 0.24613 0.0
C815 C 0.57956 0.40875 0.22302 0.0
H816 H 0.55116 0.33152 0.28485 0.0
H817 H 0.54181 0.34779 0.07345 0.0
H818 H 0.56291 0.38167 0.34562 0.0
H819 H 0.53622 0.37578 0.35832 0.0
H820 H 0.55542 0.35602 0.37105 0.0
H821 H 0.54141 0.38256 0.03655 0.0
H822 H 0.52312 0.39486 0.0926 0.0
H823 H 0.54959 0.40261 0.09476 0.0
H824 H 0.50327 0.42903 0.31202 0.0
H825 H 0.56801 0.44227 0.29486 0.0
H826 H 0.50425 0.37888 0.2801 0.0
H827 H 0.50236 0.38688 0.19255 0.0
H828 H 0.48802 0.40044 0.25773 0.0
H829 H 0.5861 0.39703 0.25842 0.0
H830 H 0.58992 0.42239 0.22291 0.0
H831 H 0.57936 0.40191 0.17092 0.0
C832 C 0.18725 0.58717 0.24333 0.0
C833 C 0.18932 0.57289 0.18976 0.0
C834 C 0.1678 0.59148 0.27145 0.0
C835 C 0.1503 0.58088 0.24632 0.0
C836 C 0.15199 0.5687 0.18644 0.0
C837 C 0.17153 0.56502 0.15838 0.0
C838 C 0.16636 0.60551 0.33292 0.0
C839 C 0.13365 0.55741 0.15711 0.0
C840 C 0.11451 0.55768 0.37767 0.0
C841 C 0.09629 0.5688 0.36677 0.0
C842 C 0.13232 0.56201 0.34012 0.0
C843 C 0.13203 0.57817 0.29116 0.0
C844 C 0.11397 0.59023 0.28244 0.0
C845 C 0.09612 0.58515 0.31967 0.0
C846 C 0.15115 0.54855 0.35066 0.0
C847 C 0.11313 0.60793 0.23229 0.0
H848 H 0.20089 0.59358 0.26736 0.0
H849 H 0.17302 0.55457 0.11527 0.0
H850 H 0.15194 0.61477 0.3313 0.0
H851 H 0.16605 0.59605 0.38032 0.0
H852 H 0.17978 0.61612 0.33594 0.0
H853 H 0.13692 0.551 0.10545 0.0
H854 H 0.12945 0.54446 0.19165 0.0
H855 H 0.1201 0.56781 0.1535 0.0
H856 H 0.11455 0.54485 0.41337 0.0
H857 H 0.082 0.59379 0.31143 0.0
H858 H 0.16457 0.55816 0.3655 0.0
H859 H 0.15514 0.54059 0.30209 0.0
H860 H 0.14876 0.53668 0.39096 0.0
H861 H 0.12826 0.61583 0.22805 0.0
H862 H 0.10124 0.61943 0.24739 0.0
H863 H 0.10894 0.60196 0.18089 0.0
C864 C 0.96531 0.84245 0.12637 0.0
C865 C 0.97296 0.83262 0.18513 0.0
C866 C 0.9708 0.86283 0.11103 0.0
C867 C 0.98392 0.87371 0.15634 0.0
C868 C 0.98951 0.86479 0.21985 0.0
C869 C 0.98416 0.8442 0.23325 0.0
C870 C 0.96427 0.87189 0.04307 0.0
C871 C 1.00272 0.87627 0.27087 0.0
C872 C 0.02238 0.90664 0.0612 0.0
C873 C 0.01271 0.92595 0.06184 0.0
C874 C 0.01361 0.88975 0.09494 0.0
C875 C 0.99482 0.89233 0.13102 0.0
C876 C 0.9857 0.91214 0.13581 0.0
C877 C 0.99463 0.92872 0.10029 0.0
C878 C 0.02381 0.86886 0.08813 0.0
C879 C 0.96601 0.91568 0.17534 0.0
H880 H 0.95608 0.83379 0.0901 0.0
H881 H 0.99007 0.83683 0.2791 0.0
H882 H 0.95819 0.88775 0.05002 0.0
H883 H 0.97788 0.87291 0.00871 0.0
H884 H 0.95229 0.86241 0.01733 0.0
H885 H 1.00188 0.86922 0.32272 0.0
H886 H 0.01903 0.8759 0.25378 0.0
H887 H 0.99794 0.89269 0.27436 0.0
H888 H 0.03622 0.90442 0.03091 0.0
H889 H 0.98725 0.94374 0.10131 0.0
H890 H 0.01352 0.85827 0.05932 0.0
H891 H 0.02644 0.86197 0.13943 0.0
H892 H 0.03884 0.8697 0.06097 0.0
H893 H 0.95264 0.91145 0.1428 0.0
H894 H 0.96426 0.93214 0.19019 0.0
H895 H 0.96547 0.90601 0.22224 0.0
C896 C 0.67224 0.95953 0.11113 0.0
C897 C 0.68148 0.96535 0.17313 0.0
C898 C 0.65196 0.96531 0.09573 0.0
C899 C 0.6404 0.97658 0.14459 0.0
C900 C 0.64874 0.98029 0.21043 0.0
C901 C 0.66934 0.97491 0.22367 0.0
C902 C 0.64366 0.96102 0.02479 0.0
C903 C 0.63649 0.99132 0.2651 0.0
C904 C 0.60617 0.01586 0.05849 0.0
C905 C 0.58787 1.00472 0.05094 0.0
C906 C 0.62307 1.00731 0.09301 0.0
C907 C 0.62135 0.98733 0.122 0.0
C908 C 0.60225 0.97678 0.11971 0.0
C909 C 0.58577 0.98547 0.08292 0.0
C910 C 0.64324 0.01898 0.09331 0.0
C911 C 0.59952 0.95585 0.1523 0.0
H912 H 0.68128 0.95146 0.07285 0.0
H913 H 0.67623 0.97939 0.27201 0.0
H914 H 0.62832 0.95354 0.02788 0.0
H915 H 0.64165 0.97579 0.99672 0.0
H916 H 0.65409 0.95092 0.99451 0.0
H917 H 0.64315 0.98877 0.31693 0.0
H918 H 0.63654 1.00815 0.25468 0.0
H919 H 0.62019 0.98609 0.26508 0.0
H920 H 0.60776 0.03069 0.03324 0.0
H921 H 0.57147 0.97696 0.07736 0.0
H922 H 0.65483 0.01046 0.06239 0.0
H923 H 0.64936 0.0202 0.1462 0.0
H924 H 0.64164 0.03479 0.07187 0.0
H925 H 0.60525 0.94376 0.11686 0.0
H926 H 0.583 0.95261 0.16309 0.0
H927 H 0.6084 0.95462 0.20076 0.0
C928 C 0.53388 0.66946 0.25609 0.0
C929 C 0.546 0.68028 0.20844 0.0
C930 C 0.5283 0.64884 0.24448 0.0
C931 C 0.53459 0.63909 0.18309 0.0
C932 C 0.54854 0.64923 0.13859 0.0
C933 C 0.55426 0.66963 0.15229 0.0
C934 C 0.51421 0.63821 0.29487 0.0
C935 C 0.5558 0.63932 0.07282 0.0
C936 C 0.52443 0.58401 0.12761 0.0
C937 C 0.50763 0.58699 0.08331 0.0
C938 C 0.53251 0.60056 0.16557 0.0
C939 C 0.5237 0.62043 0.158 0.0
C940 C 0.50576 0.62307 0.11742 0.0
C941 C 0.49791 0.60628 0.08087 0.0
C942 C 0.55125 0.59699 0.20994 0.0
C943 C 0.49572 0.64396 0.10838 0.0
H944 H 0.52751 0.67745 0.30002 0.0
H945 H 0.56422 0.67767 0.11659 0.0
H946 H 0.49805 0.63933 0.27647 0.0
H947 H 0.51812 0.62159 0.29966 0.0
H948 H 0.51503 0.64547 0.3464 0.0
H949 H 0.56826 0.64832 0.04774 0.0
H950 H 0.56153 0.62346 0.08261 0.0
H951 H 0.54265 0.63812 0.03658 0.0
H952 H 0.53194 0.56907 0.12977 0.0
H953 H 0.4846 0.60844 0.04788 0.0
H954 H 0.55064 0.60655 0.25705 0.0
H955 H 0.56531 0.6014 0.1811 0.0
H956 H 0.55275 0.5805 0.22478 0.0
H957 H 0.49239 0.651 0.15896 0.0
H958 H 0.48108 0.64306 0.07888 0.0
H959 H 0.50642 0.65443 0.08082 0.0
C960 C 0.85255 0.55466 0.22016 0.0
C961 C 0.83665 0.5599 0.17444 0.0
C962 C 0.87237 0.54985 0.19611 0.0
C963 C 0.87633 0.55061 0.12488 0.0
C964 C 0.86111 0.55842 0.07974 0.0
C965 C 0.84138 0.56285 0.10501 0.0
C966 C 0.88827 0.54185 0.24607 0.0
C967 C 0.86486 0.55986 1.00354 0.0
C968 C 0.929 0.53912 0.04843 0.0
C969 C 0.92632 0.51858 0.02775 0.0
C970 C 0.91309 0.54976 0.08226 0.0
C971 C 0.89432 0.53943 0.09603 0.0
C972 C 0.89198 0.5184 0.07775 0.0
C973 C 0.90798 0.50828 0.04338 0.0
C974 C 0.91606 0.57219 0.1004 0.0
C975 C 0.8723 0.50672 0.09236 0.0
H976 H 0.84915 0.55291 0.27423 0.0
H977 H 0.82926 0.56689 0.06912 0.0
H978 H 0.88888 0.52476 0.24282 0.0
H979 H 0.90386 0.54779 0.23346 0.0
H980 H 0.88447 0.54616 0.29971 0.0
H981 H 0.8531 0.56962 0.97762 0.0
H982 H 0.88038 0.56628 0.99279 0.0
H983 H 0.86423 0.54417 0.98085 0.0
H984 H 0.94321 0.54706 0.03581 0.0
H985 H 0.90609 0.49233 0.02786 0.0
H986 H 0.91112 0.57519 0.15388 0.0
H987 H 0.9063 0.58189 0.0665 0.0
H988 H 0.93237 0.57714 0.09442 0.0
H989 H 0.86829 0.50794 0.14747 0.0
H990 H 0.87352 0.49012 0.07872 0.0
H991 H 0.85939 0.51358 0.06268 0.0
C992 C 0.03612 0.16257 0.83505 0.0
C993 C 0.02097 0.17092 0.87859 0.0
C994 C 0.03434 0.14249 0.80813 0.0
C995 C 0.01689 0.13029 0.82444 0.0
C996 C 1.00126 0.13877 0.8668 0.0
C997 C 1.00349 0.1589 0.89337 0.0
C998 C 0.05142 0.13414 0.76342 0.0
C999 C 0.98239 0.12638 0.88556 0.0
C1000 C 1.00623 0.08218 0.71552 0.0
C1001 C 0.01464 0.0664 0.75633 0.0
C1002 C 1.00663 0.10299 0.73711 0.0
C1003 C 0.01574 0.10824 0.80093 0.0
C1004 C 0.02424 0.09237 0.84218 0.0
C1005 C 0.02355 0.07177 0.81957 0.0
C1006 C 0.99731 0.11936 0.69161 0.0
C1007 C 0.03422 0.09715 0.91029 0.0
H1008 H 0.04949 0.17176 0.82189 0.0
H1009 H 0.99175 0.165 0.92731 0.0
H1010 H 0.05874 0.12065 0.78875 0.0
H1011 H 0.04504 0.12871 0.71386 0.0
H1012 H 0.06353 0.14584 0.75298 0.0
H1013 H 0.97097 0.1356 0.91501 0.0
H1014 H 0.97482 0.12038 0.83862 0.0
H1015 H 0.987 0.11285 0.91692 0.0
H1016 H 0.99924 0.0783 0.66677 0.0
H1017 H 0.03014 0.05983 0.85178 0.0
H1018 H 1.00923 0.13086 0.6774 0.0
H1019 H 0.98501 0.12775 0.71972 0.0
H1020 H 0.99061 0.11281 0.64394 0.0
H1021 H 0.04737 0.10785 0.90268 0.0
H1022 H 0.03998 0.08306 0.93661 0.0
H1023 H 0.02301 0.105 0.94441 0.0
C1024 C 0.35169 0.02489 0.83668 0.0
C1025 C 0.34401 1.00755 0.87151 0.0
C1026 C 0.37198 0.02527 0.81072 0.0
C1027 C 0.38497 1.00782 0.81895 0.0
C1028 C 0.37728 0.99024 0.85383 0.0
C1029 C 0.35701 0.99036 0.87988 0.0
C1030 C 0.37959 0.04447 0.77498 0.0
C1031 C 0.39046 0.97123 0.86344 0.0
C1032 C 0.43181 1.00159 0.70101 0.0
C1033 C 0.44812 1.00787 0.74357 0.0
C1034 C 0.41124 1.00153 0.72469 0.0
C1035 C 0.40672 1.00808 0.79243 0.0
C1036 C 0.42309 0.01467 0.83528 0.0
C1037 C 0.44349 0.01441 0.81055 0.0
C1038 C 0.39433 0.9942 0.67743 0.0
C1039 C 0.41906 0.02195 0.90759 0.0
H1040 H 0.34189 0.03833 0.83055 0.0
H1041 H 0.35118 0.97678 0.90587 0.0
H1042 H 0.39324 0.05069 0.80235 0.0
H1043 H 0.38458 0.04066 0.72211 0.0
H1044 H 0.3676 0.05671 0.77235 0.0
H1045 H 0.38209 0.95866 0.89028 0.0
H1046 H 0.39572 0.96541 0.81291 0.0
H1047 H 0.40445 0.97514 0.8935 0.0
H1048 H 0.43514 0.99645 0.64935 0.0
H1049 H 0.45586 0.01938 0.84405 0.0
H1050 H 0.38262 1.00654 0.67066 0.0
H1051 H 0.38637 0.98073 0.70047 0.0
H1052 H 0.40029 0.9897 0.62622 0.0
H1053 H 0.40784 0.0349 0.90716 0.0
H1054 H 0.43336 0.02716 0.93378 0.0
H1055 H 0.41211 1.0093 0.9381 0.0
C1056 C 0.51148 0.35419 0.88731 0.0
C1057 C 0.49358 0.34263 0.87382 0.0
C1058 C 0.51392 0.37439 0.86154 0.0
C1059 C 0.49801 0.38352 0.82179 0.0
C1060 C 0.47999 0.37192 0.80763 0.0
C1061 C 0.47805 0.3517 0.83334 0.0
C1062 C 0.53343 0.3861 0.87794 0.0
C1063 C 0.46255 0.381 0.766 0.0
C1064 C 0.49412 0.44234 0.81701 0.0
C1065 C 0.50237 0.44722 0.75237 0.0
C1066 C 0.49266 0.4218 0.83997 0.0
C1067 C 0.49974 0.4055 0.79771 0.0
C1068 C 0.50814 0.41026 0.73245 0.0
C1069 C 0.50928 0.431 0.71048 0.0
C1070 C 0.48345 0.41755 0.90962 0.0
C1071 C 0.51607 0.39342 0.68599 0.0
H1072 H 0.5235 0.34761 0.91922 0.0
H1073 H 0.46431 0.34291 0.82125 0.0
H1074 H 0.54023 0.39259 0.83045 0.0
H1075 H 0.52977 0.39925 0.91225 0.0
H1076 H 0.54516 0.37622 0.90346 0.0
H1077 H 0.44971 0.3699 0.75834 0.0
H1078 H 0.45638 0.39491 0.79209 0.0
H1079 H 0.4683 0.38597 0.71509 0.0
H1080 H 0.48869 0.45463 0.85008 0.0
H1081 H 0.51578 0.43451 0.66067 0.0
H1082 H 0.49488 0.40947 0.94245 0.0
H1083 H 0.4699 0.40722 0.90437 0.0
H1084 H 0.47849 0.43189 0.93611 0.0
H1085 H 0.52838 0.38454 0.71244 0.0
H1086 H 0.52236 0.3996 0.6372 0.0
H1087 H 0.50346 0.38244 0.67391 0.0
C1088 C 0.16687 0.51926 0.87404 0.0
C1089 C 0.17801 0.50064 0.87061 0.0
C1090 C 0.14653 0.52078 0.84867 0.0
C1091 C 0.13695 0.5033 0.81872 0.0
C1092 C 0.14812 0.48453 0.81471 0.0
C1093 C 0.16836 0.48341 0.84079 0.0
C1094 C 0.13523 0.54109 0.8543 0.0
C1095 C 0.13856 0.46546 0.78361 0.0
C1096 C 0.07811 0.49986 0.81473 0.0
C1097 C 0.07343 0.50498 0.74641 0.0
C1098 C 0.09859 0.4995 0.83886 0.0
C1099 C 0.11502 0.50437 0.79386 0.0
C1100 C 0.11044 0.50973 0.72499 0.0
C1101 C 0.08977 0.50998 0.70214 0.0
C1102 C 0.10264 0.49373 0.91265 0.0
C1103 C 0.12743 0.51504 0.67521 0.0
H1104 H 0.17413 0.53278 0.896 0.0
H1105 H 0.17652 0.46882 0.83881 0.0
H1106 H 0.13022 0.54633 0.80278 0.0
H1107 H 0.12112 0.53912 0.88577 0.0
H1108 H 0.1449 0.55334 0.87782 0.0
H1109 H 0.14949 0.45225 0.78203 0.0
H1110 H 0.12481 0.46084 0.81369 0.0
H1111 H 0.13327 0.46879 0.73067 0.0
H1112 H 0.06574 0.49602 0.84978 0.0
H1113 H 0.08645 0.51403 0.64938 0.0
H1114 H 0.11124 0.50628 0.93866 0.0
H1115 H 0.1124 0.47967 0.91494 0.0
H1116 H 0.08818 0.49077 0.94154 0.0
H1117 H 0.13678 0.528 0.69548 0.0
H1118 H 0.12137 0.51943 0.62397 0.0
H1119 H 0.13794 0.50163 0.66912 0.0
C1120 C 0.02726 0.84795 0.49329 0.0
C1121 C 0.012 0.83342 0.51032 0.0
C1122 C 0.02682 0.86817 0.51978 0.0
C1123 C 0.01059 0.87429 0.56398 0.0
C1124 C 0.99505 0.85981 0.58107 0.0
C1125 C 0.99599 0.8396 0.55442 0.0
C1126 C 0.04371 0.88304 0.5 0.0
C1127 C 0.97733 0.86569 0.62729 0.0
C1128 C 0.01835 0.92231 0.67571 0.0
C1129 C 1.00882 0.93772 0.63619 0.0
C1130 C 0.01891 0.9016 0.65328 0.0
C1131 C 1.00951 0.89605 0.5902 0.0
C1132 C 0.99944 0.91148 0.55104 0.0
C1133 C 0.99932 0.93204 0.57424 0.0
C1134 C 0.02999 0.88571 0.69632 0.0
C1135 C 0.989 0.90633 0.48398 0.0
H1136 H 0.03952 0.84361 0.45842 0.0
H1137 H 0.98425 0.82856 0.56897 0.0
H1138 H 0.03704 0.89621 0.47112 0.0
H1139 H 0.05111 0.88944 0.54665 0.0
H1140 H 0.05577 0.87566 0.46786 0.0
H1141 H 0.9665 0.85267 0.6359 0.0
H1142 H 0.9833 0.87094 0.67762 0.0
H1143 H 0.96864 0.87877 0.60454 0.0
H1144 H 0.02582 0.92649 0.72341 0.0
H1145 H 0.99179 0.94373 0.5433 0.0
H1146 H 0.04308 0.87913 0.66688 0.0
H1147 H 0.01944 0.87279 0.70884 0.0
H1148 H 0.03604 0.89231 0.74486 0.0
H1149 H 1.00053 0.90044 0.44682 0.0
H1150 H 0.98111 0.9199 0.46097 0.0
H1151 H 0.97745 0.89393 0.49184 0.0
C1152 C 0.6669 1.00936 0.478 0.0
C1153 C 0.68053 0.99412 0.50222 0.0
C1154 C 0.64631 0.01041 0.50102 0.0
C1155 C 0.63895 0.99577 0.54917 0.0
C1156 C 0.65253 0.98018 0.57309 0.0
C1157 C 0.67309 0.97959 0.54962 0.0
C1158 C 0.63246 0.02733 0.47419 0.0
C1159 C 0.64532 0.96402 0.62336 0.0
C1160 C 0.59093 1.00863 0.65554 0.0
C1161 C 0.57523 0.99856 0.61891 0.0
C1162 C 0.61167 1.00786 0.63355 0.0
C1163 C 0.61699 0.99659 0.57378 0.0
C1164 C 0.60127 0.98613 0.53726 0.0
C1165 C 0.58069 0.9873 0.56 0.0
C1166 C 0.62786 0.0194 0.67376 0.0
C1167 C 0.60618 0.97375 0.47374 0.0
H1168 H 0.67247 0.02081 0.44202 0.0
H1169 H 0.68332 0.96756 0.56798 0.0
H1170 H 0.61896 0.02052 0.44759 0.0
H1171 H 0.62645 0.03667 0.51747 0.0
H1172 H 0.64058 0.03774 0.43791 0.0
H1173 H 0.6577 0.95285 0.63677 0.0
H1174 H 0.63983 0.97153 0.67107 0.0
H1175 H 0.63209 0.95539 0.60148 0.0
H1176 H 0.58699 0.01746 0.70084 0.0
H1177 H 0.56881 0.97937 0.53115 0.0
H1178 H 0.63539 0.03103 0.64039 0.0
H1179 H 0.64005 1.00858 0.69131 0.0
H1180 H 0.62131 0.02739 0.71917 0.0
H1181 H 0.61287 0.98396 0.4339 0.0
H1182 H 0.59233 0.96607 0.45208 0.0
H1183 H 0.6179 0.96179 0.48573 0.0
C1184 C 0.53038 0.67438 0.5626 0.0
C1185 C 0.51444 0.68178 0.52032 0.0
C1186 C 0.53025 0.65402 0.58806 0.0
C1187 C 0.51366 0.64065 0.57165 0.0
C1188 C 0.49754 0.64802 0.52898 0.0
C1189 C 0.49818 0.66838 0.50362 0.0
C1190 C 0.54798 0.64674 0.6321 0.0
C1191 C 0.4795 0.63441 0.51036 0.0
C1192 C 0.52124 0.58225 0.58174 0.0
C1193 C 0.51219 0.57728 0.64508 0.0
C1194 C 0.52207 0.60274 0.55787 0.0
C1195 C 0.51341 0.61883 0.59772 0.0
C1196 C 0.50435 0.61397 0.66192 0.0
C1197 C 0.50396 0.59332 0.68501 0.0
C1198 C 0.53213 0.60714 0.48961 0.0
C1199 C 0.49472 0.63057 0.70574 0.0
H1200 H 0.54315 0.68447 0.57514 0.0
H1201 H 0.48566 0.67395 0.4717 0.0
H1202 H 0.54217 0.64161 0.68275 0.0
H1203 H 0.55558 0.63326 0.60777 0.0
H1204 H 0.55971 0.65898 0.64024 0.0
H1205 H 0.46788 0.64261 0.47849 0.0
H1206 H 0.48501 0.6207 0.48168 0.0
H1207 H 0.47185 0.62872 0.55758 0.0
H1208 H 0.52775 0.57008 0.5504 0.0
H1209 H 0.49684 0.5897 0.73379 0.0
H1210 H 0.54458 0.61871 0.49605 0.0
H1211 H 0.52065 0.61383 0.45368 0.0
H1212 H 0.5388 0.59305 0.46589 0.0
H1213 H 0.50631 0.64259 0.71794 0.0
H1214 H 0.48842 0.62436 0.75449 0.0
H1215 H 0.48204 0.63821 0.67707 0.0
C1216 C 0.84824 0.52859 0.53758 0.0
C1217 C 0.84027 0.51086 0.50562 0.0
C1218 C 0.86872 0.52925 0.56196 0.0
C1219 C 0.88171 0.51176 0.5546 0.0
C1220 C 0.87378 0.49384 0.52242 0.0
C1221 C 0.85329 0.49362 0.49827 0.0
C1222 C 0.8765 0.54871 0.59563 0.0
C1223 C 0.88703 0.47486 0.51306 0.0
C1224 C 0.9403 0.51822 0.55555 0.0
C1225 C 0.94573 0.51164 0.62186 0.0
C1226 C 0.9196 0.51867 0.53361 0.0
C1227 C 0.90372 0.51233 0.57878 0.0
C1228 C 0.90902 0.50599 0.64616 0.0
C1229 C 0.92989 0.50576 0.6669 0.0
C1230 C 0.91476 0.52566 0.46151 0.0
C1231 C 0.89265 0.49907 0.69605 0.0
H1232 H 0.83835 0.54192 0.54454 0.0
H1233 H 0.84755 0.47994 0.47274 0.0
H1234 H 0.88175 0.54529 0.64855 0.0
H1235 H 0.89 0.55475 0.56709 0.0
H1236 H 0.8645 0.56096 0.59784 0.0
H1237 H 0.87846 0.46197 0.48866 0.0
H1238 H 0.90059 0.47863 0.48075 0.0
H1239 H 0.89297 0.46954 0.5634 0.0
H1240 H 0.95228 0.52289 0.52011 0.0
H1241 H 0.93379 0.50064 0.71816 0.0
H1242 H 0.90348 0.53855 0.46258 0.0
H1243 H 0.90756 0.51284 0.43244 0.0
H1244 H 0.92874 0.53083 0.43346 0.0
H1245 H 0.88077 0.51128 0.70202 0.0
H1246 H 0.89913 0.49536 0.74733 0.0
H1247 H 0.88475 0.48516 0.67582 0.0
loop_
_geom_bond_atom_site_label_1
_geom_bond_atom_site_label_2
_geom_bond_distance
_geom_bond_site_symmetry_2
_ccdc_geom_bond_type
C0 C1 1.264 . S
C0 C5 1.479 . S
C0 C10 1.465 . S
C1 C0 1.264 . S
C1 C3 1.339 . S
C1 H28 0.931 . S
C2 C3 1.395 . S
C2 C4 1.320 . S
C3 C1 1.339 . S
C3 C2 1.395 . S
C3 H29 0.929 . S
C4 C2 1.320 . S
C4 C5 1.405 . S
C4 H30 0.930 . S
C5 C0 1.479 . S
C5 C4 1.405 . S
C5 H31 0.931 . S
U6 O7 2.454 . S
U6 O8 2.458 . S
U6 C9 2.984 . S
U6 C10 2.847 . S
U6 C23 2.882 . S
U6 O24 2.441 . S
U6 O25 2.420 . S
U6 O26 2.455 . S
U6 O27 2.449 . S
O7 U6 2.454 . S
O7 C9 1.353 . S
O8 U6 2.458 . S
O8 C9 1.286 . S
C9 U6 2.984 . S
C9 O7 1.353 . S
C9 O8 1.286 . S
C9 C11 1.363 . S
C10 C0 1.465 . S
C10 U6 2.847 . S
C10 O24 1.249 . S
C10 O25 1.202 . S
C11 C9 1.363 . S
C11 C13 1.408 . S
C11 C16 1.342 . S
C12 C13 1.310 . S
C12 C15 1.461 . S
C12 H32 0.932 . S
C13 C11 1.408 . S
C13 C12 1.310 . S
C13 H33 0.930 . S
C14 C15 1.474 . S
C14 C16 1.285 . S
C14 H34 0.929 . S
C15 C12 1.461 . S
C15 C14 1.474 . S
C16 C11 1.342 . S
C16 C14 1.285 . S
C16 H35 0.930 . S
C17 C20 1.424 . S
C17 C22 1.245 . S
C17 C23 1.428 . S
C18 C21 1.260 . S
C18 C22 1.477 . S
C18 H36 0.932 . S
C19 C20 1.384 . S
C19 C21 1.479 . S
C19 H37 0.929 . S
C20 C17 1.424 . S
C20 C19 1.384 . S
C20 H38 0.928 . S
C21 C18 1.260 . S
C21 C19 1.479 . S
C22 C17 1.245 . S
C22 C18 1.477 . S
C22 H39 0.932 . S
C23 U6 2.882 . S
C23 C17 1.428 . S
C23 O26 1.301 . S
C23 O27 1.282 . S
O24 U6 2.441 . S
O24 C10 1.249 . S
O25 U6 2.420 . S
O25 C10 1.202 . S
O26 U6 2.455 . S
O26 C23 1.301 . S
O27 U6 2.449 . S
O27 C23 1.282 . S
H28 C1 0.931 . S
H29 C3 0.929 . S
H30 C4 0.930 . S
H31 C5 0.931 . S
H32 C12 0.932 . S
H33 C13 0.930 . S
H34 C14 0.929 . S
H35 C16 0.930 . S
H36 C18 0.932 . S
H37 C19 0.929 . S
H38 C20 0.928 . S
H39 C22 0.932 . S
C40 C41 1.264 . S
C40 C45 1.479 . S
C40 C50 1.465 . S
C41 C40 1.264 . S
C41 C43 1.339 . S
C41 H68 0.931 . S
C42 C43 1.408 . S
C42 C44 1.320 . S
C43 C41 1.339 . S
C43 C42 1.408 . S
C43 H69 0.929 . S
C44 C42 1.320 . S
C44 C45 1.415 . S
C44 H70 0.921 1_455 S
C45 C40 1.479 . S
C45 C44 1.415 . S
C45 H71 0.931 . S
U46 O47 2.454 . S
U46 O48 2.458 . S
U46 C49 2.984 . S
U46 C50 2.847 . S
U46 C63 2.882 . S
U46 O64 2.441 . S
U46 O65 2.420 . S
U46 O66 2.455 . S
U46 O67 2.449 . S
O47 U46 2.454 . S
O47 C49 1.353 . S
O48 U46 2.458 . S
O48 C49 1.286 . S
C49 U46 2.984 . S
C49 O47 1.353 . S
C49 O48 1.286 . S
C49 C51 1.363 . S
C50 C40 1.465 . S
C50 U46 2.847 . S
C50 O64 1.249 . S
C50 O65 1.202 . S
C51 C49 1.363 . S
C51 C53 1.408 . S
C51 C56 1.341 1_455 S
C52 C53 1.311 1_655 S
C52 C55 1.460 . S
C52 H72 0.932 . S
C53 C51 1.408 . S
C53 C52 1.311 1_455 S
C53 H73 0.930 . S
C54 C55 1.474 . S
C54 C56 1.286 . S
C54 H74 0.929 . S
C55 C52 1.460 . S
C55 C54 1.474 . S
C56 C51 1.341 1_655 S
C56 C54 1.286 . S
C56 H75 0.929 . S
C57 C60 1.424 . S
C57 C62 1.245 . S
C57 C63 1.428 . S
C58 C61 1.260 . S
C58 C62 1.477 . S
C58 H76 0.932 . S
C59 C60 1.384 . S
C59 C61 1.479 . S
C59 H77 0.929 . S
C60 C57 1.424 . S
C60 C59 1.384 . S
C60 H78 0.928 . S
C61 C58 1.260 . S
C61 C59 1.479 . S
C62 C57 1.245 . S
C62 C58 1.477 . S
C62 H79 0.932 . S
C63 U46 2.882 . S
C63 C57 1.428 . S
C63 O66 1.301 . S
C63 O67 1.282 . S
O64 U46 2.441 . S
O64 C50 1.249 . S
O65 U46 2.420 . S
O65 C50 1.202 . S
O66 U46 2.455 . S
O66 C63 1.301 . S
O67 U46 2.449 . S
O67 C63 1.282 . S
H68 C41 0.931 . S
H69 C43 0.929 . S
H70 C44 0.921 1_655 S
H71 C45 0.931 . S
H72 C52 0.932 . S
H73 C53 0.930 . S
H74 C54 0.929 . S
H75 C56 0.929 . S
H76 C58 0.932 . S
H77 C59 0.929 . S
H78 C60 0.928 . S
H79 C62 0.932 . S
C80 C81 1.264 . S
C80 C85 1.479 . S
C80 C90 1.465 . S
C81 C80 1.264 . S
C81 C83 1.339 . S
C81 H108 0.931 . S
C82 C83 1.395 . S
C82 C84 1.320 . S
C83 C81 1.339 . S
C83 C82 1.395 . S
C83 H109 0.929 . S
C84 C82 1.320 . S
C84 C85 1.405 . S
C84 H110 0.930 1_545 S
C85 C80 1.479 . S
C85 C84 1.405 . S
C85 H111 0.931 . S
U86 O87 2.454 . S
U86 O88 2.458 . S
U86 C89 2.984 . S
U86 C90 2.847 . S
U86 C103 2.882 . S
U86 O104 2.441 . S
U86 O105 2.420 . S
U86 O106 2.455 . S
U86 O107 2.449 . S
O87 U86 2.454 . S
O87 C89 1.353 . S
O88 U86 2.458 . S
O88 C89 1.286 . S
C89 U86 2.984 . S
C89 O87 1.353 . S
C89 O88 1.286 . S
C89 C91 1.363 . S
C90 C80 1.465 . S
C90 U86 2.847 . S
C90 O104 1.249 . S
C90 O105 1.202 . S
C91 C89 1.363 . S
C91 C93 1.408 . S
C91 C96 1.345 . S
C92 C93 1.315 . S
C92 C95 1.458 1_545 S
C92 H112 0.932 . S
C93 C91 1.408 . S
C93 C92 1.315 . S
C93 H113 0.930 . S
C94 C95 1.475 . S
C94 C96 1.284 1_565 S
C94 H114 0.929 . S
C95 C92 1.458 1_565 S
C95 C94 1.475 . S
C96 C91 1.345 . S
C96 C94 1.284 1_545 S
C96 H115 0.929 1_545 S
C97 C100 1.424 . S
C97 C102 1.245 . S
C97 C103 1.428 . S
C98 C101 1.260 . S
C98 C102 1.477 . S
C98 H116 0.932 . S
C99 C100 1.384 . S
C99 C101 1.479 . S
C99 H117 0.929 . S
C100 C97 1.424 . S
C100 C99 1.384 . S
C100 H118 0.928 . S
C101 C98 1.260 . S
C101 C99 1.479 . S
C102 C97 1.245 . S
C102 C98 1.477 . S
C102 H119 0.932 . S
C103 U86 2.882 . S
C103 C97 1.428 . S
C103 O106 1.301 . S
C103 O107 1.282 . S
O104 U86 2.441 . S
O104 C90 1.249 . S
O105 U86 2.420 . S
O105 C90 1.202 . S
O106 U86 2.455 . S
O106 C103 1.301 . S
O107 U86 2.449 . S
O107 C103 1.282 . S
H108 C81 0.931 . S
H109 C83 0.929 . S
H110 C84 0.930 1_565 S
H111 C85 0.931 . S
H112 C92 0.932 . S
H113 C93 0.930 . S
H114 C94 0.929 . S
H115 C96 0.929 1_565 S
H116 C98 0.932 . S
H117 C99 0.929 . S
H118 C100 0.928 . S
H119 C102 0.932 . S
C120 C121 1.264 . S
C120 C125 1.479 . S
C120 C130 1.465 . S
C121 C120 1.264 . S
C121 C123 1.339 . S
C121 H148 0.931 . S
C122 C123 1.395 . S
C122 C124 1.320 . S
C123 C121 1.339 . S
C123 C122 1.395 . S
C123 H149 0.929 . S
C124 C122 1.320 . S
C124 C125 1.405 . S
C124 H150 0.930 . S
C125 C120 1.479 . S
C125 C124 1.405 . S
C125 H151 0.931 . S
U126 O127 2.454 . S
U126 O128 2.458 . S
U126 C129 2.984 . S
U126 C130 2.847 . S
U126 C143 2.882 . S
U126 O144 2.441 . S
U126 O145 2.420 . S
U126 O146 2.455 . S
U126 O147 2.449 . S
O127 U126 2.454 . S
O127 C129 1.353 . S
O128 U126 2.458 . S
O128 C129 1.286 . S
C129 U126 2.984 . S
C129 O127 1.353 . S
C129 O128 1.286 . S
C129 C131 1.363 . S
C130 C120 1.465 . S
C130 U126 2.847 . S
C130 O144 1.249 . S
C130 O145 1.202 . S
C131 C129 1.363 . S
C131 C133 1.408 . S
C131 C136 1.342 . S
C132 C133 1.310 . S
C132 C135 1.461 . S
C132 H152 0.932 . S
C133 C131 1.408 . S
C133 C132 1.310 . S
C133 H153 0.930 . S
C134 C135 1.474 . S
C134 C136 1.285 . S
C134 H154 0.929 . S
C135 C132 1.461 . S
C135 C134 1.474 . S
C136 C131 1.342 . S
C136 C134 1.285 . S
C136 H155 0.930 . S
C137 C140 1.424 . S
C137 C142 1.245 . S
C137 C143 1.428 . S
C138 C141 1.260 . S
C138 C142 1.477 . S
C138 H156 0.932 . S
C139 C140 1.384 . S
C139 C141 1.479 . S
C139 H157 0.929 . S
C140 C137 1.424 . S
C140 C139 1.384 . S
C140 H158 0.928 . S
C141 C138 1.260 . S
C141 C139 1.479 . S
C142 C137 1.245 . S
C142 C138 1.477 . S
C142 H159 0.932 . S
C143 U126 2.882 . S
C143 C137 1.428 . S
C143 O146 1.301 . S
C143 O147 1.282 . S
O144 U126 2.441 . S
O144 C130 1.249 . S
O145 U126 2.420 . S
O145 C130 1.202 . S
O146 U126 2.455 . S
O146 C143 1.301 . S
O147 U126 2.449 . S
O147 C143 1.282 . S
H148 C121 0.931 . S
H149 C123 0.929 . S
H150 C124 0.930 . S
H151 C125 0.931 . S
H152 C132 0.932 . S
H153 C133 0.930 . S
H154 C134 0.929 . S
H155 C136 0.930 . S
H156 C138 0.932 . S
H157 C139 0.929 . S
H158 C140 0.928 . S
H159 C142 0.932 . S
C160 C161 1.264 . S
C160 C165 1.479 . S
C160 C170 1.465 . S
C161 C160 1.264 . S
C161 C163 1.339 . S
C161 H188 0.931 . S
C162 C163 1.395 . S
C162 C164 1.320 . S
C163 C161 1.339 . S
C163 C162 1.395 . S
C163 H189 0.929 . S
C164 C162 1.320 . S
C164 C165 1.405 . S
C164 H190 0.930 . S
C165 C160 1.479 . S
C165 C164 1.405 . S
C165 H191 0.931 . S
U166 O167 2.454 . S
U166 O168 2.458 . S
U166 C169 2.984 . S
U166 C170 2.847 1_554 S
U166 C183 2.882 . S
U166 O184 2.441 1_554 S
U166 O185 2.420 1_554 S
U166 O186 2.455 . S
U166 O187 2.449 . S
O167 U166 2.454 . S
O167 C169 1.353 . S
O168 U166 2.458 . S
O168 C169 1.286 . S
C169 U166 2.984 . S
C169 O167 1.353 . S
C169 O168 1.286 . S
C169 C171 1.363 . S
C170 C160 1.465 . S
C170 U166 2.847 1_556 S
C170 O184 1.249 . S
C170 O185 1.202 . S
C171 C169 1.363 . S
C171 C173 1.408 . S
C171 C176 1.342 . S
C172 C173 1.310 . S
C172 C175 1.461 . S
C172 H192 0.932 . S
C173 C171 1.408 . S
C173 C172 1.310 . S
C173 H193 0.930 1_554 S
C174 C175 1.474 . S
C174 C176 1.285 . S
C174 H194 0.929 . S
C175 C172 1.461 . S
C175 C174 1.474 . S
C176 C171 1.342 . S
C176 C174 1.285 . S
C176 H195 0.930 . S
C177 C180 1.424 . S
C177 C182 1.245 . S
C177 C183 1.428 . S
C178 C181 1.260 . S
C178 C182 1.477 . S
C178 H196 0.932 . S
C179 C180 1.384 . S
C179 C181 1.479 . S
C179 H197 0.929 . S
C180 C177 1.424 . S
C180 C179 1.384 . S
C180 H198 0.928 . S
C181 C178 1.260 . S
C181 C179 1.479 . S
C182 C177 1.245 . S
C182 C178 1.477 . S
C182 H199 0.932 . S
C183 U166 2.882 . S
C183 C177 1.428 . S
C183 O186 1.301 . S
C183 O187 1.282 . S
O184 U166 2.441 1_556 S
O184 C170 1.249 . S
O185 U166 2.420 1_556 S
O185 C170 1.202 . S
O186 U166 2.455 . S
O186 C183 1.301 . S
O187 U166 2.449 . S
O187 C183 1.282 . S
H188 C161 0.931 . S
H189 C163 0.929 . S
H190 C164 0.930 . S
H191 C165 0.931 . S
H192 C172 0.932 . S
H193 C173 0.930 1_556 S
H194 C174 0.929 . S
H195 C176 0.930 . S
H196 C178 0.932 . S
H197 C179 0.929 . S
H198 C180 0.928 . S
H199 C182 0.932 . S
C200 C201 1.264 . S
C200 C205 1.479 . S
C200 C210 1.465 . S
C201 C200 1.264 . S
C201 C203 1.339 . S
C201 H228 0.931 . S
C202 C203 1.395 . S
C202 C204 1.320 . S
C203 C201 1.339 . S
C203 C202 1.395 . S
C203 H229 0.929 . S
C204 C202 1.320 . S
C204 C205 1.405 . S
C204 H230 0.930 . S
C205 C200 1.479 . S
C205 C204 1.405 . S
C205 H231 0.931 . S
U206 O207 2.454 . S
U206 O208 2.458 . S
U206 C209 2.984 . S
U206 C210 2.847 1_554 S
U206 C223 2.882 . S
U206 O224 2.441 1_554 S
U206 O225 2.420 1_554 S
U206 O226 2.455 . S
U206 O227 2.449 . S
O207 U206 2.454 . S
O207 C209 1.353 . S
O208 U206 2.458 . S
O208 C209 1.286 . S
C209 U206 2.984 . S
C209 O207 1.353 . S
C209 O208 1.286 . S
C209 C211 1.363 . S
C210 C200 1.465 . S
C210 U206 2.847 1_556 S
C210 O224 1.249 . S
C210 O225 1.202 . S
C211 C209 1.363 . S
C211 C213 1.408 . S
C211 C216 1.342 . S
C212 C213 1.310 . S
C212 C215 1.461 . S
C212 H232 0.932 . S
C213 C211 1.408 . S
C213 C212 1.310 . S
C213 H233 0.930 1_554 S
C214 C215 1.474 . S
C214 C216 1.285 . S
C214 H234 0.931 . S
C215 C212 1.461 . S
C215 C214 1.474 . S
C216 C211 1.342 . S
C216 C214 1.285 . S
C216 H235 0.930 . S
C217 C220 1.424 . S
C217 C222 1.245 . S
C217 C223 1.428 . S
C218 C221 1.260 . S
C218 C222 1.477 . S
C218 H236 0.932 . S
C219 C220 1.384 . S
C219 C221 1.479 . S
C219 H237 0.929 . S
C220 C217 1.424 . S
C220 C219 1.384 . S
C220 H238 0.928 . S
C221 C218 1.260 . S
C221 C219 1.479 . S
C222 C217 1.245 . S
C222 C218 1.477 . S
C222 H239 0.932 . S
C223 U206 2.882 . S
C223 C217 1.428 . S
C223 O226 1.301 . S
C223 O227 1.282 . S
O224 U206 2.441 1_556 S
O224 C210 1.249 . S
O225 U206 2.420 1_556 S
O225 C210 1.202 . S
O226 U206 2.455 . S
O226 C223 1.301 . S
O227 U206 2.449 . S
O227 C223 1.282 . S
H228 C201 0.931 . S
H229 C203 0.929 . S
H230 C204 0.930 . S
H231 C205 0.931 . S
H232 C212 0.932 . S
H233 C213 0.930 1_556 S
H234 C214 0.931 . S
H235 C216 0.930 . S
H236 C218 0.932 . S
H237 C219 0.929 . S
H238 C220 0.928 . S
H239 C222 0.932 . S
C240 C241 1.264 . S
C240 C245 1.479 . S
C240 C250 1.465 . S
C241 C240 1.264 . S
C241 C243 1.339 . S
C241 H268 0.931 . S
C242 C243 1.395 . S
C242 C244 1.320 . S
C243 C241 1.339 . S
C243 C242 1.395 . S
C243 H269 0.929 . S
C244 C242 1.320 . S
C244 C245 1.405 . S
C244 H270 0.935 . S
C245 C240 1.479 . S
C245 C244 1.405 . S
C245 H271 0.931 . S
U246 O247 2.454 . S
U246 O248 2.458 . S
U246 C249 2.984 . S
U246 C250 2.847 1_554 S
U246 C263 2.882 . S
U246 O264 2.441 1_554 S
U246 O265 2.420 1_554 S
U246 O266 2.455 . S
U246 O267 2.449 . S
O247 U246 2.454 . S
O247 C249 1.353 . S
O248 U246 2.458 . S
O248 C249 1.286 . S
C249 U246 2.984 . S
C249 O247 1.353 . S
C249 O248 1.286 . S
C249 C251 1.363 . S
C250 C240 1.465 . S
C250 U246 2.847 1_556 S
C250 O264 1.249 . S
C250 O265 1.202 . S
C251 C249 1.363 . S
C251 C253 1.408 . S
C251 C256 1.342 . S
C252 C253 1.310 . S
C252 C255 1.461 . S
C252 H272 0.932 . S
C253 C251 1.408 . S
C253 C252 1.310 . S
C253 H273 0.930 1_554 S
C254 C255 1.476 . S
C254 C256 1.291 . S
C254 H274 0.925 1_545 S
C255 C252 1.461 . S
C255 C254 1.476 . S
C256 C251 1.342 . S
C256 C254 1.291 . S
C256 H275 0.930 . S
C257 C260 1.424 . S
C257 C262 1.245 . S
C257 C263 1.428 . S
C258 C261 1.260 . S
C258 C262 1.477 . S
C258 H276 0.932 . S
C259 C260 1.384 . S
C259 C261 1.479 . S
C259 H277 0.929 . S
C260 C257 1.424 . S
C260 C259 1.384 . S
C260 H278 0.928 . S
C261 C258 1.260 . S
C261 C259 1.479 . S
C262 C257 1.245 . S
C262 C258 1.477 . S
C262 H279 0.932 . S
C263 U246 2.882 . S
C263 C257 1.428 . S
C263 O266 1.301 . S
C263 O267 1.282 . S
O264 U246 2.441 1_556 S
O264 C250 1.249 . S
O265 U246 2.420 1_556 S
O265 C250 1.202 . S
O266 U246 2.455 . S
O266 C263 1.301 . S
O267 U246 2.449 . S
O267 C263 1.282 . S
H268 C241 0.931 . S
H269 C243 0.929 . S
H270 C244 0.935 . S
H271 C245 0.931 . S
H272 C252 0.932 . S
H273 C253 0.930 1_556 S
H274 C254 0.925 1_565 S
H275 C256 0.930 . S
H276 C258 0.932 . S
H277 C259 0.929 . S
H278 C260 0.928 . S
H279 C262 0.932 . S
C280 C281 1.264 . S
C280 C285 1.479 . S
C280 C290 1.465 . S
C281 C280 1.264 . S
C281 C283 1.339 . S
C281 H308 0.931 . S
C282 C283 1.395 . S
C282 C284 1.320 . S
C283 C281 1.339 . S
C283 C282 1.395 . S
C283 H309 0.929 . S
C284 C282 1.320 . S
C284 C285 1.405 . S
C284 H310 0.930 . S
C285 C280 1.479 . S
C285 C284 1.405 . S
C285 H311 0.931 . S
U286 O287 2.454 . S
U286 O288 2.458 . S
U286 C289 2.984 . S
U286 C290 2.847 1_554 S
U286 C303 2.882 . S
U286 O304 2.441 1_554 S
U286 O305 2.420 1_554 S
U286 O306 2.455 . S
U286 O307 2.449 . S
O287 U286 2.454 . S
O287 C289 1.353 . S
O288 U286 2.458 . S
O288 C289 1.286 . S
C289 U286 2.984 . S
C289 O287 1.353 . S
C289 O288 1.286 . S
C289 C291 1.363 . S
C290 C280 1.465 . S
C290 U286 2.847 1_556 S
C290 O304 1.249 . S
C290 O305 1.202 . S
C291 C289 1.363 . S
C291 C293 1.408 . S
C291 C296 1.342 . S
C292 C293 1.310 . S
C292 C295 1.461 . S
C292 H312 0.932 . S
C293 C291 1.408 . S
C293 C292 1.310 . S
C293 H313 0.930 1_554 S
C294 C295 1.474 . S
C294 C296 1.285 . S
C294 H314 0.929 . S
C295 C292 1.461 . S
C295 C294 1.474 . S
C296 C291 1.342 . S
C296 C294 1.285 . S
C296 H315 0.930 . S
C297 C300 1.424 . S
C297 C302 1.245 . S
C297 C303 1.428 . S
C298 C301 1.260 . S
C298 C302 1.477 . S
C298 H316 0.932 . S
C299 C300 1.384 . S
C299 C301 1.479 . S
C299 H317 0.929 . S
C300 C297 1.424 . S
C300 C299 1.384 . S
C300 H318 0.928 . S
C301 C298 1.260 . S
C301 C299 1.479 . S
C302 C297 1.245 . S
C302 C298 1.477 . S
C302 H319 0.932 . S
C303 U286 2.882 . S
C303 C297 1.428 . S
C303 O306 1.301 . S
C303 O307 1.282 . S
O304 U286 2.441 1_556 S
O304 C290 1.249 . S
O305 U286 2.420 1_556 S
O305 C290 1.202 . S
O306 U286 2.455 . S
O306 C303 1.301 . S
O307 U286 2.449 . S
O307 C303 1.282 . S
H308 C281 0.931 . S
H309 C283 0.929 . S
H310 C284 0.930 . S
H311 C285 0.931 . S
H312 C292 0.932 . S
H313 C293 0.930 1_556 S
H314 C294 0.929 . S
H315 C296 0.930 . S
H316 C298 0.932 . S
H317 C299 0.929 . S
H318 C300 0.928 . S
H319 C302 0.932 . S
Ho320 C323 2.811 . S
Ho320 O340 2.322 . S
Ho320 O342 2.378 . S
Ho320 O343 2.545 . S
Ho320 O344 2.381 . S
Ho320 O345 2.669 1_565 S
Ho320 O347 2.346 1_565 S
Ho320 O351 2.305 1_455 S
Ho321 C332 2.811 . S
Ho321 O341 2.346 1_545 S
Ho321 O345 2.305 1_655 S
Ho321 O346 2.322 . S
Ho321 O348 2.378 . S
Ho321 O349 2.540 . S
Ho321 O350 2.381 . S
Ho321 O351 2.669 1_545 S
C322 O340 1.259 1_655 S
C322 O341 1.268 . S
C323 Ho320 2.811 . S
C323 C324 1.488 . S
C323 O342 1.215 . S
C323 O343 1.338 . S
C324 C323 1.488 . S
C324 C325 1.348 . S
C324 C329 1.413 . S
C325 C324 1.348 . S
C325 C326 1.442 . S
C325 H352 0.930 1_455 S
C326 C325 1.442 . S
C326 C327 1.381 . S
C326 H353 0.931 1_455 S
C327 C326 1.381 . S
C327 C328 1.321 . S
C328 C327 1.321 . S
C328 C329 1.403 . S
C328 H354 0.934 . S
C329 C324 1.413 . S
C329 C328 1.403 . S
C329 H355 0.930 . S
C330 O344 1.295 . S
C330 O345 1.245 1_565 S
C331 O346 1.259 1_455 S
C331 O347 1.268 . S
C332 Ho321 2.811 . S
C332 C333 1.488 . S
C332 O348 1.215 . S
C332 O349 1.326 . S
C333 C332 1.488 . S
C333 C334 1.348 . S
C333 C338 1.413 . S
C334 C333 1.348 . S
C334 C335 1.442 . S
C334 H356 0.930 1_655 S
C335 C334 1.442 . S
C335 C336 1.381 . S
C335 H357 0.931 1_655 S
C336 C335 1.381 . S
C336 C337 1.321 . S
C337 C336 1.321 . S
C337 C338 1.403 . S
C337 H358 0.934 . S
C338 C333 1.413 . S
C338 C337 1.403 . S
C338 H359 0.930 . S
C339 O350 1.303 . S
C339 O351 1.241 1_545 S
O340 Ho320 2.322 . S
O340 C322 1.259 1_455 S
O341 Ho321 2.346 1_565 S
O341 C322 1.268 . S
O342 Ho320 2.378 . S
O342 C323 1.215 . S
O343 Ho320 2.545 . S
O343 C323 1.338 . S
O344 Ho320 2.381 . S
O344 C330 1.295 . S
O345 Ho320 2.669 1_545 S
O345 Ho321 2.305 1_455 S
O345 C330 1.245 1_545 S
O346 Ho321 2.322 . S
O346 C331 1.259 1_655 S
O347 Ho320 2.346 1_545 S
O347 C331 1.268 . S
O348 Ho321 2.378 . S
O348 C332 1.215 . S
O349 Ho321 2.540 . S
O349 C332 1.326 . S
O350 Ho321 2.381 . S
O350 C339 1.303 . S
O351 Ho320 2.305 1_655 S
O351 Ho321 2.669 1_565 S
O351 C339 1.241 1_565 S
H352 C325 0.930 1_655 S
H353 C326 0.931 1_655 S
H354 C328 0.934 . S
H355 C329 0.930 . S
H356 C334 0.930 1_455 S
H357 C335 0.931 1_455 S
H358 C337 0.934 . S
H359 C338 0.930 . S
Ho360 C363 2.811 . S
Ho360 O380 2.322 . S
Ho360 O382 2.378 . S
Ho360 O383 2.524 . S
Ho360 O384 2.381 . S
Ho360 O385 2.669 . S
Ho360 O387 2.346 . S
Ho360 O391 2.305 1_545 S
Ho361 C372 2.811 . S
Ho361 O381 2.346 . S
Ho361 O385 2.305 1_565 S
Ho361 O386 2.322 . S
Ho361 O388 2.378 . S
Ho361 O389 2.542 . S
Ho361 O390 2.381 . S
Ho361 O391 2.669 . S
C362 O380 1.259 1_565 S
C362 O381 1.268 . S
C363 Ho360 2.811 . S
C363 C364 1.488 . S
C363 O382 1.215 . S
C363 O383 1.289 . S
C364 C363 1.488 . S
C364 C365 1.348 . S
C364 C369 1.413 . S
C365 C364 1.348 . S
C365 C366 1.442 . S
C365 H392 0.930 1_545 S
C366 C365 1.442 . S
C366 C367 1.381 . S
C366 H393 0.931 1_545 S
C367 C366 1.381 . S
C367 C368 1.321 . S
C368 C367 1.321 . S
C368 C369 1.403 . S
C368 H394 0.934 . S
C369 C364 1.413 . S
C369 C368 1.403 . S
C369 H395 0.930 . S
C370 O384 1.275 . S
C370 O385 1.256 . S
C371 O386 1.259 1_545 S
C371 O387 1.268 . S
C372 Ho361 2.811 . S
C372 C373 1.488 . S
C372 O388 1.215 . S
C372 O389 1.332 . S
C373 C372 1.488 . S
C373 C374 1.348 . S
C373 C378 1.413 . S
C374 C373 1.348 . S
C374 C375 1.442 . S
C374 H396 0.930 1_565 S
C375 C374 1.442 . S
C375 C376 1.381 . S
C375 H397 0.931 1_565 S
C376 C375 1.381 . S
C376 C377 1.321 . S
C377 C376 1.321 . S
C377 C378 1.403 . S
C377 H398 0.934 . S
C378 C373 1.413 . S
C378 C377 1.403 . S
C378 H399 0.930 . S
C379 O390 1.275 . S
C379 O391 1.256 . S
O380 Ho360 2.322 . S
O380 C362 1.259 1_545 S
O381 Ho361 2.346 . S
O381 C362 1.268 . S
O382 Ho360 2.378 . S
O382 C363 1.215 . S
O383 Ho360 2.524 . S
O383 C363 1.289 . S
O384 Ho360 2.381 . S
O384 C370 1.275 . S
O385 Ho360 2.669 . S
O385 Ho361 2.305 1_545 S
O385 C370 1.256 . S
O386 Ho361 2.322 . S
O386 C371 1.259 1_565 S
O387 Ho360 2.346 . S
O387 C371 1.268 . S
O388 Ho361 2.378 . S
O388 C372 1.215 . S
O389 Ho361 2.542 . S
O389 C372 1.332 . S
O390 Ho361 2.381 . S
O390 C379 1.275 . S
O391 Ho360 2.305 1_565 S
O391 Ho361 2.669 . S
O391 C379 1.256 . S
H392 C365 0.930 1_565 S
H393 C366 0.931 1_565 S
H394 C368 0.934 . S
H395 C369 0.930 . S
H396 C374 0.930 1_545 S
H397 C375 0.931 1_545 S
H398 C377 0.934 . S
H399 C378 0.930 . S
Ho400 C403 2.811 . S
Ho400 O420 2.322 . S
Ho400 O422 2.378 . S
Ho400 O423 2.524 . S
Ho400 O424 2.381 . S
Ho400 O425 2.669 . S
Ho400 O427 2.346 . S
Ho400 O431 2.305 . S
Ho401 C412 2.811 . S
Ho401 O421 2.346 . S
Ho401 O425 2.305 . S
Ho401 O426 2.322 . S
Ho401 O428 2.378 . S
Ho401 O429 2.524 . S
Ho401 O430 2.381 . S
Ho401 O431 2.669 . S
C402 O420 1.259 . S
C402 O421 1.268 . S
C403 Ho400 2.811 . S
C403 C404 1.488 . S
C403 O422 1.215 . S
C403 O423 1.289 . S
C404 C403 1.488 . S
C404 C405 1.348 . S
C404 C409 1.413 . S
C405 C404 1.348 . S
C405 C406 1.442 . S
C405 H432 0.930 . S
C406 C405 1.442 . S
C406 C407 1.381 . S
C406 H433 0.931 . S
C407 C406 1.381 . S
C407 C408 1.321 . S
C408 C407 1.321 . S
C408 C409 1.403 . S
C408 H434 0.934 . S
C409 C404 1.413 . S
C409 C408 1.403 . S
C409 H435 0.930 . S
C410 O424 1.275 . S
C410 O425 1.256 . S
C411 O426 1.259 . S
C411 O427 1.268 . S
C412 Ho401 2.811 . S
C412 C413 1.488 . S
C412 O428 1.215 . S
C412 O429 1.289 . S
C413 C412 1.488 . S
C413 C414 1.348 . S
C413 C418 1.413 . S
C414 C413 1.348 . S
C414 C415 1.442 . S
C414 H436 0.930 . S
C415 C414 1.442 . S
C415 C416 1.381 . S
C415 H437 0.931 . S
C416 C415 1.381 . S
C416 C417 1.321 . S
C417 C416 1.321 . S
C417 C418 1.403 . S
C417 H438 0.934 . S
C418 C413 1.413 . S
C418 C417 1.403 . S
C418 H439 0.930 . S
C419 O430 1.275 . S
C419 O431 1.256 . S
O420 Ho400 2.322 . S
O420 C402 1.259 . S
O421 Ho401 2.346 . S
O421 C402 1.268 . S
O422 Ho400 2.378 . S
O422 C403 1.215 . S
O423 Ho400 2.524 . S
O423 C403 1.289 . S
O424 Ho400 2.381 . S
O424 C410 1.275 . S
O425 Ho400 2.669 . S
O425 Ho401 2.305 . S
O425 C410 1.256 . S
O426 Ho401 2.322 . S
O426 C411 1.259 . S
O427 Ho400 2.346 . S
O427 C411 1.268 . S
O428 Ho401 2.378 . S
O428 C412 1.215 . S
O429 Ho401 2.524 . S
O429 C412 1.289 . S
O430 Ho401 2.381 . S
O430 C419 1.275 . S
O431 Ho400 2.305 . S
O431 Ho401 2.669 . S
O431 C419 1.256 . S
H432 C405 0.930 . S
H433 C406 0.931 . S
H434 C408 0.934 . S
H435 C409 0.930 . S
H436 C414 0.930 . S
H437 C415 0.931 . S
H438 C417 0.934 . S
H439 C418 0.930 . S
Ho440 C443 2.811 . S
Ho440 O460 2.322 . S
Ho440 O462 2.378 . S
Ho440 O463 2.524 . S
Ho440 O464 2.381 . S
Ho440 O465 2.669 1_655 S
Ho440 O467 2.346 1_655 S
Ho440 O471 2.305 . S
Ho441 C452 2.811 . S
Ho441 O461 2.346 1_455 S
Ho441 O465 2.305 . S
Ho441 O466 2.322 . S
Ho441 O468 2.378 . S
Ho441 O469 2.524 . S
Ho441 O470 2.381 . S
Ho441 O471 2.669 1_455 S
C442 O460 1.259 . S
C442 O461 1.268 . S
C443 Ho440 2.811 . S
C443 C444 1.488 . S
C443 O462 1.215 . S
C443 O463 1.289 . S
C444 C443 1.488 . S
C444 C445 1.348 . S
C444 C449 1.413 . S
C445 C444 1.348 . S
C445 C446 1.442 . S
C445 H472 0.930 . S
C446 C445 1.442 . S
C446 C447 1.381 . S
C446 H473 0.931 . S
C447 C446 1.381 . S
C447 C448 1.321 . S
C448 C447 1.321 . S
C448 C449 1.403 . S
C448 H474 0.934 . S
C449 C444 1.413 . S
C449 C448 1.403 . S
C449 H475 0.930 . S
C450 O464 1.292 . S
C450 O465 1.247 1_655 S
C451 O466 1.259 . S
C451 O467 1.268 . S
C452 Ho441 2.811 . S
C452 C453 1.488 . S
C452 O468 1.215 . S
C452 O469 1.289 . S
C453 C452 1.488 . S
C453 C454 1.348 . S
C453 C458 1.413 . S
C454 C453 1.348 . S
C454 C455 1.442 . S
C454 H476 0.930 . S
C455 C454 1.442 . S
C455 C456 1.381 . S
C455 H477 0.931 . S
C456 C455 1.381 . S
C456 C457 1.321 . S
C457 C456 1.321 . S
C457 C458 1.403 . S
C457 H478 0.934 . S
C458 C453 1.413 . S
C458 C457 1.403 . S
C458 H479 0.930 . S
C459 O470 1.299 . S
C459 O471 1.243 1_455 S
O460 Ho440 2.322 . S
O460 C442 1.259 . S
O461 Ho441 2.346 1_655 S
O461 C442 1.268 . S
O462 Ho440 2.378 . S
O462 C443 1.215 . S
O463 Ho440 2.524 . S
O463 C443 1.289 . S
O464 Ho440 2.381 . S
O464 C450 1.292 . S
O465 Ho440 2.669 1_455 S
O465 Ho441 2.305 . S
O465 C450 1.247 1_455 S
O466 Ho441 2.322 . S
O466 C451 1.259 . S
O467 Ho440 2.346 1_455 S
O467 C451 1.268 . S
O468 Ho441 2.378 . S
O468 C452 1.215 . S
O469 Ho441 2.524 . S
O469 C452 1.289 . S
O470 Ho441 2.381 . S
O470 C459 1.299 . S
O471 Ho440 2.305 . S
O471 Ho441 2.669 1_655 S
O471 C459 1.243 1_655 S
H472 C445 0.930 . S
H473 C446 0.931 . S
H474 C448 0.934 . S
H475 C449 0.930 . S
H476 C454 0.930 . S
H477 C455 0.931 . S
H478 C457 0.934 . S
H479 C458 0.930 . S
C480 C481 1.384 1_545 S
C480 C482 1.394 . S
C480 H496 0.931 . S
C481 C480 1.384 1_565 S
C481 C485 1.384 . S
C482 C480 1.394 . S
C482 C483 1.369 1_545 S
C482 C486 1.531 . S
C483 C482 1.369 1_565 S
C483 C484 1.410 . S
C483 C491 1.503 . S
C484 C483 1.410 . S
C484 C485 1.392 . S
C484 C487 1.511 . S
C485 C481 1.384 . S
C485 C484 1.392 . S
C485 H497 0.929 . S
C486 C482 1.531 . S
C486 H498 0.960 . S
C486 H499 0.962 . S
C486 H500 0.960 . S
C487 C484 1.511 . S
C487 H501 0.961 . S
C487 H502 0.961 . S
C487 H503 0.961 . S
C488 C489 1.406 . S
C488 C490 1.363 . S
C488 H504 0.931 . S
C489 C488 1.406 . S
C489 C493 1.370 1_545 S
C490 C488 1.363 . S
C490 C491 1.370 1_545 S
C490 C494 1.524 . S
C491 C483 1.503 . S
C491 C490 1.370 1_565 S
C491 C492 1.403 . S
C492 C491 1.403 . S
C492 C493 1.404 . S
C492 C495 1.539 . S
C493 C489 1.370 1_565 S
C493 C492 1.404 . S
C493 H505 0.930 . S
C494 C490 1.524 . S
C494 H506 0.956 . S
C494 H507 0.961 . S
C494 H508 0.961 . S
C495 C492 1.539 . S
C495 H509 0.958 . S
C495 H510 0.961 . S
C495 H511 0.960 . S
H496 C480 0.931 . S
H497 C485 0.929 . S
H498 C486 0.960 . S
H499 C486 0.962 . S
H500 C486 0.960 . S
H501 C487 0.961 . S
H502 C487 0.961 . S
H503 C487 0.961 . S
H504 C488 0.931 . S
H505 C493 0.930 . S
H506 C494 0.956 . S
H507 C494 0.961 . S
H508 C494 0.961 . S
H509 C495 0.958 . S
H510 C495 0.961 . S
H511 C495 0.960 . S
C512 C513 1.391 . S
C512 C514 1.394 . S
C512 H528 0.931 . S
C513 C512 1.391 . S
C513 C517 1.376 . S
C514 C512 1.394 . S
C514 C515 1.369 . S
C514 C518 1.531 . S
C515 C514 1.369 . S
C515 C516 1.410 . S
C515 C523 1.503 . S
C516 C515 1.410 . S
C516 C517 1.392 . S
C516 C519 1.511 . S
C517 C513 1.376 . S
C517 C516 1.392 . S
C517 H529 0.929 . S
C518 C514 1.531 . S
C518 H530 0.960 . S
C518 H531 0.962 . S
C518 H532 0.960 . S
C519 C516 1.511 . S
C519 H533 0.961 . S
C519 H534 0.961 . S
C519 H535 0.961 . S
C520 C521 1.370 . S
C520 C522 1.363 . S
C520 H536 0.931 . S
C521 C520 1.370 . S
C521 C525 1.408 . S
C522 C520 1.363 . S
C522 C523 1.370 . S
C522 C526 1.524 . S
C523 C515 1.503 . S
C523 C522 1.370 . S
C523 C524 1.403 . S
C524 C523 1.403 . S
C524 C525 1.404 . S
C524 C527 1.539 . S
C525 C521 1.408 . S
C525 C524 1.404 . S
C525 H537 0.930 . S
C526 C522 1.524 . S
C526 H538 0.956 . S
C526 H539 0.961 . S
C526 H540 0.961 . S
C527 C524 1.539 . S
C527 H541 0.958 . S
C527 H542 0.961 . S
C527 H543 0.960 . S
H528 C512 0.931 . S
H529 C517 0.929 . S
H530 C518 0.960 . S
H531 C518 0.962 . S
H532 C518 0.960 . S
H533 C519 0.961 . S
H534 C519 0.961 . S
H535 C519 0.961 . S
H536 C520 0.931 . S
H537 C525 0.930 . S
H538 C526 0.956 . S
H539 C526 0.961 . S
H540 C526 0.961 . S
H541 C527 0.958 . S
H542 C527 0.961 . S
H543 C527 0.960 . S
C544 C545 1.391 . S
C544 C546 1.394 . S
C544 H560 0.931 . S
C545 C544 1.391 . S
C545 C549 1.376 . S
C546 C544 1.394 . S
C546 C547 1.369 . S
C546 C550 1.531 . S
C547 C546 1.369 . S
C547 C548 1.410 . S
C547 C555 1.503 . S
C548 C547 1.410 . S
C548 C549 1.392 . S
C548 C551 1.511 . S
C549 C545 1.376 . S
C549 C548 1.392 . S
C549 H561 0.929 . S
C550 C546 1.531 . S
C550 H562 0.960 . S
C550 H563 0.962 . S
C550 H564 0.960 . S
C551 C548 1.511 . S
C551 H565 0.961 . S
C551 H566 0.961 . S
C551 H567 0.961 . S
C552 C553 1.370 . S
C552 C554 1.363 . S
C552 H568 0.931 . S
C553 C552 1.370 . S
C553 C557 1.408 . S
C554 C552 1.363 . S
C554 C555 1.370 . S
C554 C558 1.524 . S
C555 C547 1.503 . S
C555 C554 1.370 . S
C555 C556 1.403 . S
C556 C555 1.403 . S
C556 C557 1.404 . S
C556 C559 1.539 . S
C557 C553 1.408 . S
C557 C556 1.404 . S
C557 H569 0.930 . S
C558 C554 1.524 . S
C558 H570 0.956 . S
C558 H571 0.961 . S
C558 H572 0.961 . S
C559 C556 1.539 . S
C559 H573 0.958 . S
C559 H574 0.961 . S
C559 H575 0.960 . S
H560 C544 0.931 . S
H561 C549 0.929 . S
H562 C550 0.960 . S
H563 C550 0.962 . S
H564 C550 0.960 . S
H565 C551 0.961 . S
H566 C551 0.961 . S
H567 C551 0.961 . S
H568 C552 0.931 . S
H569 C557 0.930 . S
H570 C558 0.956 . S
H571 C558 0.961 . S
H572 C558 0.961 . S
H573 C559 0.958 . S
H574 C559 0.961 . S
H575 C559 0.960 . S
C576 C577 1.391 1_655 S
C576 C578 1.394 . S
C576 H592 0.931 . S
C577 C576 1.391 1_455 S
C577 C581 1.376 . S
C578 C576 1.394 . S
C578 C579 1.369 1_655 S
C578 C582 1.531 . S
C579 C578 1.369 1_455 S
C579 C580 1.410 . S
C579 C587 1.503 . S
C580 C579 1.410 . S
C580 C581 1.392 . S
C580 C583 1.511 . S
C581 C577 1.376 . S
C581 C580 1.392 . S
C581 H593 0.929 . S
C582 C578 1.531 . S
C582 H594 0.960 . S
C582 H595 0.962 . S
C582 H596 0.960 . S
C583 C580 1.511 . S
C583 H597 0.961 . S
C583 H598 0.961 . S
C583 H599 0.961 . S
C584 C585 1.370 1_655 S
C584 C586 1.363 . S
C584 H600 0.931 . S
C585 C584 1.370 1_455 S
C585 C589 1.408 . S
C586 C584 1.363 . S
C586 C587 1.370 1_655 S
C586 C590 1.524 . S
C587 C579 1.503 . S
C587 C586 1.370 1_455 S
C587 C588 1.403 . S
C588 C587 1.403 . S
C588 C589 1.404 . S
C588 C591 1.539 . S
C589 C585 1.408 . S
C589 C588 1.404 . S
C589 H601 0.930 . S
C590 C586 1.524 . S
C590 H602 0.956 . S
C590 H603 0.961 . S
C590 H604 0.961 . S
C591 C588 1.539 . S
C591 H605 0.958 . S
C591 H606 0.961 . S
C591 H607 0.960 . S
H592 C576 0.931 . S
H593 C581 0.929 . S
H594 C582 0.960 . S
H595 C582 0.962 . S
H596 C582 0.960 . S
H597 C583 0.961 . S
H598 C583 0.961 . S
H599 C583 0.961 . S
H600 C584 0.931 . S
H601 C589 0.930 . S
H602 C590 0.956 . S
H603 C590 0.961 . S
H604 C590 0.961 . S
H605 C591 0.958 . S
H606 C591 0.961 . S
H607 C591 0.960 . S
C608 C609 1.391 . S
C608 C610 1.394 . S
C608 H624 0.931 . S
C609 C608 1.391 . S
C609 C613 1.376 1_565 S
C610 C608 1.394 . S
C610 C611 1.369 . S
C610 C614 1.531 . S
C611 C610 1.369 . S
C611 C612 1.410 1_565 S
C611 C619 1.503 1_554 S
C612 C611 1.410 1_545 S
C612 C613 1.392 . S
C612 C615 1.511 1_554 S
C613 C609 1.376 1_545 S
C613 C612 1.392 . S
C613 H625 0.929 . S
C614 C610 1.531 . S
C614 H626 0.960 . S
C614 H627 0.962 . S
C614 H628 0.960 . S
C615 C612 1.511 1_556 S
C615 H629 0.961 1_556 S
C615 H630 0.961 . S
C615 H631 0.961 . S
C616 C617 1.370 1_545 S
C616 C618 1.363 . S
C616 H632 0.931 . S
C617 C616 1.370 1_565 S
C617 C621 1.408 . S
C618 C616 1.363 . S
C618 C619 1.370 1_545 S
C618 C622 1.524 1_556 S
C619 C611 1.503 1_556 S
C619 C618 1.370 1_565 S
C619 C620 1.403 . S
C620 C619 1.403 . S
C620 C621 1.404 . S
C620 C623 1.539 . S
C621 C617 1.408 . S
C621 C620 1.404 . S
C621 H633 0.930 . S
C622 C618 1.524 1_554 S
C622 H634 0.956 . S
C622 H635 0.961 . S
C622 H636 0.961 1_554 S
C623 C620 1.539 . S
C623 H637 0.958 . S
C623 H638 0.961 . S
C623 H639 0.960 . S
H624 C608 0.931 . S
H625 C613 0.929 . S
H626 C614 0.960 . S
H627 C614 0.962 . S
H628 C614 0.960 . S
H629 C615 0.961 1_554 S
H630 C615 0.961 . S
H631 C615 0.961 . S
H632 C616 0.931 . S
H633 C621 0.930 . S
H634 C622 0.956 . S
H635 C622 0.961 . S
H636 C622 0.961 1_556 S
H637 C623 0.958 . S
H638 C623 0.961 . S
H639 C623 0.960 . S
C640 C641 1.391 . S
C640 C642 1.394 . S
C640 H656 0.931 . S
C641 C640 1.391 . S
C641 C645 1.376 . S
C642 C640 1.394 . S
C642 C643 1.369 . S
C642 C646 1.531 . S
C643 C642 1.369 . S
C643 C644 1.410 . S
C643 C651 1.503 1_554 S
C644 C643 1.410 . S
C644 C645 1.392 . S
C644 C647 1.511 1_554 S
C645 C641 1.376 . S
C645 C644 1.392 . S
C645 H657 0.929 . S
C646 C642 1.531 . S
C646 H658 0.960 . S
C646 H659 0.962 . S
C646 H660 0.960 . S
C647 C644 1.511 1_556 S
C647 H661 0.961 1_556 S
C647 H662 0.961 . S
C647 H663 0.961 . S
C648 C649 1.370 . S
C648 C650 1.363 . S
C648 H664 0.931 . S
C649 C648 1.370 . S
C649 C653 1.408 . S
C650 C648 1.363 . S
C650 C651 1.370 . S
C650 C654 1.524 . S
C651 C643 1.503 1_556 S
C651 C650 1.370 . S
C651 C652 1.403 . S
C652 C651 1.403 . S
C652 C653 1.404 . S
C652 C655 1.539 . S
C653 C649 1.408 . S
C653 C652 1.404 . S
C653 H665 0.930 . S
C654 C650 1.524 . S
C654 H666 0.956 . S
C654 H667 0.961 . S
C654 H668 0.961 . S
C655 C652 1.539 . S
C655 H669 0.958 1_556 S
C655 H670 0.961 . S
C655 H671 0.960 1_556 S
H656 C640 0.931 . S
H657 C645 0.929 . S
H658 C646 0.960 . S
H659 C646 0.962 . S
H660 C646 0.960 . S
H661 C647 0.961 1_554 S
H662 C647 0.961 . S
H663 C647 0.961 . S
H664 C648 0.931 . S
H665 C653 0.930 . S
H666 C654 0.956 . S
H667 C654 0.961 . S
H668 C654 0.961 . S
H669 C655 0.958 1_554 S
H670 C655 0.961 . S
H671 C655 0.960 1_554 S
C672 C673 1.391 . S
C672 C674 1.394 . S
C672 H688 0.931 . S
C673 C672 1.391 . S
C673 C677 1.376 . S
C674 C672 1.394 . S
C674 C675 1.369 . S
C674 C678 1.531 . S
C675 C674 1.369 . S
C675 C676 1.410 . S
C675 C683 1.503 1_554 S
C676 C675 1.410 . S
C676 C677 1.392 . S
C676 C679 1.511 . S
C677 C673 1.376 . S
C677 C676 1.392 . S
C677 H689 0.929 . S
C678 C674 1.531 . S
C678 H690 0.960 1_554 S
C678 H691 0.962 . S
C678 H692 0.960 . S
C679 C676 1.511 . S
C679 H693 0.961 . S
C679 H694 0.961 . S
C679 H695 0.961 . S
C680 C681 1.370 . S
C680 C682 1.363 . S
C680 H696 0.931 . S
C681 C680 1.370 . S
C681 C685 1.408 . S
C682 C680 1.363 . S
C682 C683 1.370 . S
C682 C686 1.524 1_556 S
C683 C675 1.503 1_556 S
C683 C682 1.370 . S
C683 C684 1.403 . S
C684 C683 1.403 . S
C684 C685 1.404 . S
C684 C687 1.539 . S
C685 C681 1.408 . S
C685 C684 1.404 . S
C685 H697 0.930 . S
C686 C682 1.524 1_554 S
C686 H698 0.956 . S
C686 H699 0.961 . S
C686 H700 0.961 . S
C687 C684 1.539 . S
C687 H701 0.958 . S
C687 H702 0.961 . S
C687 H703 0.960 . S
H688 C672 0.931 . S
H689 C677 0.929 . S
H690 C678 0.960 1_556 S
H691 C678 0.962 . S
H692 C678 0.960 . S
H693 C679 0.961 . S
H694 C679 0.961 . S
H695 C679 0.961 . S
H696 C680 0.931 . S
H697 C685 0.930 . S
H698 C686 0.956 . S
H699 C686 0.961 . S
H700 C686 0.961 . S
H701 C687 0.958 . S
H702 C687 0.961 . S
H703 C687 0.960 . S
C704 C705 1.391 1_455 S
C704 C706 1.394 . S
C704 H720 0.931 . S
C705 C704 1.391 1_655 S
C705 C709 1.376 . S
C706 C704 1.394 . S
C706 C707 1.369 1_455 S
C706 C710 1.531 . S
C707 C706 1.369 1_655 S
C707 C708 1.410 . S
C707 C715 1.503 1_554 S
C708 C707 1.410 . S
C708 C709 1.392 . S
C708 C711 1.511 1_554 S
C709 C705 1.376 . S
C709 C708 1.392 . S
C709 H721 0.929 . S
C710 C706 1.531 . S
C710 H722 0.960 . S
C710 H723 0.962 . S
C710 H724 0.960 . S
C711 C708 1.511 1_556 S
C711 H725 0.961 . S
C711 H726 0.961 . S
C711 H727 0.961 . S
C712 C713 1.370 1_455 S
C712 C714 1.363 . S
C712 H728 0.931 . S
C713 C712 1.370 1_655 S
C713 C717 1.408 . S
C714 C712 1.363 . S
C714 C715 1.370 1_455 S
C714 C718 1.524 . S
C715 C707 1.503 1_556 S
C715 C714 1.370 1_655 S
C715 C716 1.403 . S
C716 C715 1.403 . S
C716 C717 1.404 . S
C716 C719 1.539 . S
C717 C713 1.408 . S
C717 C716 1.404 . S
C717 H729 0.930 . S
C718 C714 1.524 . S
C718 H730 0.956 . S
C718 H731 0.961 . S
C718 H732 0.961 . S
C719 C716 1.539 . S
C719 H733 0.958 1_556 S
C719 H734 0.961 . S
C719 H735 0.960 1_556 S
H720 C704 0.931 . S
H721 C709 0.929 . S
H722 C710 0.960 . S
H723 C710 0.962 . S
H724 C710 0.960 . S
H725 C711 0.961 . S
H726 C711 0.961 . S
H727 C711 0.961 . S
H728 C712 0.931 . S
H729 C717 0.930 . S
H730 C718 0.956 . S
H731 C718 0.961 . S
H732 C718 0.961 . S
H733 C719 0.958 1_554 S
H734 C719 0.961 . S
H735 C719 0.960 1_554 S
C736 C737 1.391 . S
C736 C738 1.394 . S
C736 H752 0.931 . S
C737 C736 1.391 . S
C737 C741 1.376 1_455 S
C738 C736 1.394 . S
C738 C739 1.369 1_455 S
C738 C742 1.531 . S
C739 C738 1.369 1_655 S
C739 C740 1.410 . S
C739 C747 1.503 . S
C740 C739 1.410 . S
C740 C741 1.392 . S
C740 C743 1.511 . S
C741 C737 1.376 1_655 S
C741 C740 1.392 . S
C741 H753 0.929 . S
C742 C738 1.531 . S
C742 H754 0.960 . S
C742 H755 0.962 . S
C742 H756 0.960 . S
C743 C740 1.511 . S
C743 H757 0.961 . S
C743 H758 0.961 . S
C743 H759 0.961 . S
C744 C745 1.370 . S
C744 C746 1.363 . S
C744 H760 0.931 . S
C745 C744 1.370 . S
C745 C749 1.408 . S
C746 C744 1.363 . S
C746 C747 1.370 . S
C746 C750 1.524 1_655 S
C747 C739 1.503 . S
C747 C746 1.370 . S
C747 C748 1.403 . S
C748 C747 1.403 . S
C748 C749 1.404 . S
C748 C751 1.539 . S
C749 C745 1.408 . S
C749 C748 1.404 . S
C749 H761 0.930 . S
C750 C746 1.524 1_455 S
C750 H762 0.956 . S
C750 H763 0.961 1_455 S
C750 H764 0.961 . S
C751 C748 1.539 . S
C751 H765 0.958 . S
C751 H766 0.961 . S
C751 H767 0.960 . S
H752 C736 0.931 . S
H753 C741 0.929 . S
H754 C742 0.960 . S
H755 C742 0.962 . S
H756 C742 0.960 . S
H757 C743 0.961 . S
H758 C743 0.961 . S
H759 C743 0.961 . S
H760 C744 0.931 . S
H761 C749 0.930 . S
H762 C750 0.956 . S
H763 C750 0.961 1_655 S
H764 C750 0.961 . S
H765 C751 0.958 . S
H766 C751 0.961 . S
H767 C751 0.960 . S
C768 C769 1.391 . S
C768 C770 1.394 . S
C768 H784 0.931 . S
C769 C768 1.391 . S
C769 C773 1.376 1_545 S
C770 C768 1.394 . S
C770 C771 1.369 1_545 S
C770 C774 1.531 . S
C771 C770 1.369 1_565 S
C771 C772 1.410 . S
C771 C779 1.503 . S
C772 C771 1.410 . S
C772 C773 1.392 . S
C772 C775 1.511 . S
C773 C769 1.376 1_565 S
C773 C772 1.392 . S
C773 H785 0.929 . S
C774 C770 1.531 . S
C774 H786 0.960 . S
C774 H787 0.962 . S
C774 H788 0.960 . S
C775 C772 1.511 . S
C775 H789 0.961 . S
C775 H790 0.961 . S
C775 H791 0.961 . S
C776 C777 1.370 . S
C776 C778 1.363 . S
C776 H792 0.931 . S
C777 C776 1.370 . S
C777 C781 1.408 . S
C778 C776 1.363 . S
C778 C779 1.370 . S
C778 C782 1.524 . S
C779 C771 1.503 . S
C779 C778 1.370 . S
C779 C780 1.403 . S
C780 C779 1.403 . S
C780 C781 1.404 . S
C780 C783 1.539 . S
C781 C777 1.408 . S
C781 C780 1.404 . S
C781 H793 0.930 . S
C782 C778 1.524 . S
C782 H794 0.956 . S
C782 H795 0.961 . S
C782 H796 0.961 . S
C783 C780 1.539 . S
C783 H797 0.958 1_565 S
C783 H798 0.961 . S
C783 H799 0.960 . S
H784 C768 0.931 . S
H785 C773 0.929 . S
H786 C774 0.960 . S
H787 C774 0.962 . S
H788 C774 0.960 . S
H789 C775 0.961 . S
H790 C775 0.961 . S
H791 C775 0.961 . S
H792 C776 0.931 . S
H793 C781 0.930 . S
H794 C782 0.956 . S
H795 C782 0.961 . S
H796 C782 0.961 . S
H797 C783 0.958 1_545 S
H798 C783 0.961 . S
H799 C783 0.960 . S
C800 C801 1.391 . S
C800 C802 1.394 . S
C800 H816 0.931 . S
C801 C800 1.391 . S
C801 C805 1.376 . S
C802 C800 1.394 . S
C802 C803 1.369 . S
C802 C806 1.531 . S
C803 C802 1.369 . S
C803 C804 1.410 . S
C803 C811 1.503 . S
C804 C803 1.410 . S
C804 C805 1.392 . S
C804 C807 1.511 . S
C805 C801 1.376 . S
C805 C804 1.392 . S
C805 H817 0.929 . S
C806 C802 1.531 . S
C806 H818 0.960 . S
C806 H819 0.962 . S
C806 H820 0.960 . S
C807 C804 1.511 . S
C807 H821 0.961 . S
C807 H822 0.961 . S
C807 H823 0.961 . S
C808 C809 1.370 . S
C808 C810 1.363 . S
C808 H824 0.931 . S
C809 C808 1.370 . S
C809 C813 1.408 . S
C810 C808 1.363 . S
C810 C811 1.370 . S
C810 C814 1.524 . S
C811 C803 1.503 . S
C811 C810 1.370 . S
C811 C812 1.403 . S
C812 C811 1.403 . S
C812 C813 1.404 . S
C812 C815 1.539 . S
C813 C809 1.408 . S
C813 C812 1.404 . S
C813 H825 0.930 . S
C814 C810 1.524 . S
C814 H826 0.956 . S
C814 H827 0.961 . S
C814 H828 0.961 . S
C815 C812 1.539 . S
C815 H829 0.958 . S
C815 H830 0.961 . S
C815 H831 0.960 . S
H816 C800 0.931 . S
H817 C805 0.929 . S
H818 C806 0.960 . S
H819 C806 0.962 . S
H820 C806 0.960 . S
H821 C807 0.961 . S
H822 C807 0.961 . S
H823 C807 0.961 . S
H824 C808 0.931 . S
H825 C813 0.930 . S
H826 C814 0.956 . S
H827 C814 0.961 . S
H828 C814 0.961 . S
H829 C815 0.958 . S
H830 C815 0.961 . S
H831 C815 0.960 . S
C832 C833 1.391 . S
C832 C834 1.394 . S
C832 H848 0.931 . S
C833 C832 1.391 . S
C833 C837 1.376 . S
C834 C832 1.394 . S
C834 C835 1.369 . S
C834 C838 1.531 . S
C835 C834 1.369 . S
C835 C836 1.410 . S
C835 C843 1.503 . S
C836 C835 1.410 . S
C836 C837 1.392 . S
C836 C839 1.511 . S
C837 C833 1.376 . S
C837 C836 1.392 . S
C837 H849 0.929 . S
C838 C834 1.531 . S
C838 H850 0.960 . S
C838 H851 0.962 . S
C838 H852 0.960 . S
C839 C836 1.511 . S
C839 H853 0.961 . S
C839 H854 0.961 . S
C839 H855 0.961 . S
C840 C841 1.370 . S
C840 C842 1.363 . S
C840 H856 0.931 . S
C841 C840 1.370 . S
C841 C845 1.408 . S
C842 C840 1.363 . S
C842 C843 1.370 . S
C842 C846 1.524 . S
C843 C835 1.503 . S
C843 C842 1.370 . S
C843 C844 1.403 . S
C844 C843 1.403 . S
C844 C845 1.404 . S
C844 C847 1.539 . S
C845 C841 1.408 . S
C845 C844 1.404 . S
C845 H857 0.930 . S
C846 C842 1.524 . S
C846 H858 0.956 . S
C846 H859 0.961 . S
C846 H860 0.961 . S
C847 C844 1.539 . S
C847 H861 0.958 . S
C847 H862 0.961 . S
C847 H863 0.960 . S
H848 C832 0.931 . S
H849 C837 0.929 . S
H850 C838 0.960 . S
H851 C838 0.962 . S
H852 C838 0.960 . S
H853 C839 0.961 . S
H854 C839 0.961 . S
H855 C839 0.961 . S
H856 C840 0.931 . S
H857 C845 0.930 . S
H858 C846 0.956 . S
H859 C846 0.961 . S
H860 C846 0.961 . S
H861 C847 0.958 . S
H862 C847 0.961 . S
H863 C847 0.960 . S
C864 C865 1.391 . S
C864 C866 1.394 1_554 S
C864 H880 0.935 . S
C865 C864 1.391 . S
C865 C869 1.376 1_655 S
C866 C864 1.394 1_556 S
C866 C867 1.369 1_656 S
C866 C870 1.531 . S
C867 C866 1.369 1_454 S
C867 C868 1.410 . S
C867 C875 1.503 1_554 S
C868 C867 1.410 . S
C868 C869 1.392 . S
C868 C871 1.511 . S
C869 C865 1.376 1_455 S
C869 C868 1.392 . S
C869 H881 0.929 . S
C870 C866 1.531 . S
C870 H882 0.960 . S
C870 H883 0.962 . S
C870 H884 0.960 . S
C871 C868 1.511 . S
C871 H885 0.961 . S
C871 H886 0.961 . S
C871 H887 0.961 . S
C872 C873 1.370 . S
C872 C874 1.363 . S
C872 H888 0.931 . S
C873 C872 1.370 . S
C873 C877 1.408 . S
C874 C872 1.363 . S
C874 C875 1.370 . S
C874 C878 1.524 . S
C875 C867 1.503 1_556 S
C875 C874 1.370 . S
C875 C876 1.403 1_556 S
C876 C875 1.403 1_554 S
C876 C877 1.404 1_554 S
C876 C879 1.523 1_455 S
C877 C873 1.408 . S
C877 C876 1.404 1_556 S
C877 H889 0.930 . S
C878 C874 1.524 . S
C878 H890 0.956 . S
C878 H891 0.961 . S
C878 H892 0.961 . S
C879 C876 1.523 1_655 S
C879 H893 0.989 . S
C879 H894 0.951 1_655 S
C879 H895 0.956 1_655 S
H880 C864 0.935 . S
H881 C869 0.929 . S
H882 C870 0.960 . S
H883 C870 0.962 . S
H884 C870 0.960 . S
H885 C871 0.961 . S
H886 C871 0.961 . S
H887 C871 0.961 . S
H888 C872 0.931 . S
H889 C877 0.930 . S
H890 C878 0.956 . S
H891 C878 0.961 . S
H892 C878 0.961 . S
H893 C879 0.989 . S
H894 C879 0.951 1_455 S
H895 C879 0.956 1_455 S
C896 C897 1.391 1_556 S
C896 C898 1.394 . S
C896 H912 0.931 . S
C897 C896 1.391 1_554 S
C897 C901 1.376 1_565 S
C898 C896 1.394 . S
C898 C899 1.369 1_566 S
C898 C902 1.531 . S
C899 C898 1.369 1_544 S
C899 C900 1.410 . S
C899 C907 1.503 1_554 S
C900 C899 1.410 . S
C900 C901 1.392 . S
C900 C903 1.511 . S
C901 C897 1.376 1_545 S
C901 C900 1.392 . S
C901 H913 0.929 . S
C902 C898 1.531 . S
C902 H914 0.960 . S
C902 H915 0.962 . S
C902 H916 0.960 . S
C903 C900 1.511 . S
C903 H917 0.961 . S
C903 H918 0.961 . S
C903 H919 0.961 . S
C904 C905 1.370 . S
C904 C906 1.363 . S
C904 H920 0.931 . S
C905 C904 1.370 . S
C905 C909 1.408 . S
C906 C904 1.363 . S
C906 C907 1.370 . S
C906 C910 1.524 . S
C907 C899 1.503 1_556 S
C907 C906 1.370 . S
C907 C908 1.403 . S
C908 C907 1.403 . S
C908 C909 1.404 . S
C908 C911 1.539 1_546 S
C909 C905 1.408 . S
C909 C908 1.404 . S
C909 H921 0.930 . S
C910 C906 1.524 . S
C910 H922 0.956 . S
C910 H923 0.961 . S
C910 H924 0.961 . S
C911 C908 1.539 1_564 S
C911 H925 0.958 1_554 S
C911 H926 0.961 . S
C911 H927 0.960 . S
H912 C896 0.931 . S
H913 C901 0.929 . S
H914 C902 0.960 . S
H915 C902 0.962 . S
H916 C902 0.960 . S
H917 C903 0.961 . S
H918 C903 0.961 . S
H919 C903 0.961 . S
H920 C904 0.931 . S
H921 C909 0.930 . S
H922 C910 0.956 . S
H923 C910 0.961 . S
H924 C910 0.961 . S
H925 C911 0.958 1_556 S
H926 C911 0.961 . S
H927 C911 0.960 . S
C928 C929 1.391 . S
C928 C930 1.394 . S
C928 H944 0.931 . S
C929 C928 1.391 . S
C929 C933 1.376 1_554 S
C930 C928 1.394 . S
C930 C931 1.369 1_554 S
C930 C934 1.531 . S
C931 C930 1.369 1_556 S
C931 C932 1.410 . S
C931 C939 1.503 . S
C932 C931 1.410 . S
C932 C933 1.392 . S
C932 C935 1.511 . S
C933 C929 1.376 1_556 S
C933 C932 1.392 . S
C933 H945 0.929 . S
C934 C930 1.531 . S
C934 H946 0.960 . S
C934 H947 0.962 . S
C934 H948 0.960 . S
C935 C932 1.511 . S
C935 H949 0.961 . S
C935 H950 0.961 . S
C935 H951 0.961 . S
C936 C937 1.370 . S
C936 C938 1.363 . S
C936 H952 0.931 . S
C937 C936 1.370 . S
C937 C941 1.408 . S
C938 C936 1.363 . S
C938 C939 1.370 . S
C938 C942 1.524 . S
C939 C931 1.503 . S
C939 C938 1.370 . S
C939 C940 1.403 . S
C940 C939 1.403 . S
C940 C941 1.404 . S
C940 C943 1.539 . S
C941 C937 1.408 . S
C941 C940 1.404 . S
C941 H953 0.930 . S
C942 C938 1.524 . S
C942 H954 0.956 1_556 S
C942 H955 0.961 . S
C942 H956 0.961 . S
C943 C940 1.539 . S
C943 H957 0.958 . S
C943 H958 0.961 . S
C943 H959 0.960 . S
H944 C928 0.931 . S
H945 C933 0.929 . S
H946 C934 0.960 . S
H947 C934 0.962 . S
H948 C934 0.960 . S
H949 C935 0.961 . S
H950 C935 0.961 . S
H951 C935 0.961 . S
H952 C936 0.931 . S
H953 C941 0.930 . S
H954 C942 0.956 1_554 S
H955 C942 0.961 . S
H956 C942 0.961 . S
H957 C943 0.958 . S
H958 C943 0.961 . S
H959 C943 0.960 . S
C960 C961 1.391 . S
C960 C962 1.394 . S
C960 H976 0.931 . S
C961 C960 1.391 . S
C961 C965 1.376 1_554 S
C962 C960 1.394 . S
C962 C963 1.369 . S
C962 C966 1.531 . S
C963 C962 1.369 . S
C963 C964 1.410 1_554 S
C963 C971 1.503 1_554 S
C964 C963 1.410 1_556 S
C964 C965 1.392 . S
C964 C967 1.511 . S
C965 C961 1.376 1_556 S
C965 C964 1.392 . S
C965 H977 0.929 . S
C966 C962 1.531 . S
C966 H978 0.960 . S
C966 H979 0.962 . S
C966 H980 0.960 . S
C967 C964 1.511 . S
C967 H981 0.961 . S
C967 H982 0.961 . S
C967 H983 0.961 . S
C968 C969 1.370 . S
C968 C970 1.363 . S
C968 H984 0.931 . S
C969 C968 1.370 . S
C969 C973 1.408 . S
C970 C968 1.363 . S
C970 C971 1.370 . S
C970 C974 1.524 . S
C971 C963 1.503 1_556 S
C971 C970 1.370 . S
C971 C972 1.403 . S
C972 C971 1.403 . S
C972 C973 1.404 . S
C972 C975 1.539 1_556 S
C973 C969 1.408 . S
C973 C972 1.404 . S
C973 H985 0.930 . S
C974 C970 1.524 . S
C974 H986 0.956 . S
C974 H987 0.961 . S
C974 H988 0.961 . S
C975 C972 1.539 1_554 S
C975 H989 0.958 . S
C975 H990 0.961 1_554 S
C975 H991 0.960 . S
H976 C960 0.931 . S
H977 C965 0.929 . S
H978 C966 0.960 . S
H979 C966 0.962 . S
H980 C966 0.960 . S
H981 C967 0.961 . S
H982 C967 0.961 . S
H983 C967 0.961 . S
H984 C968 0.931 . S
H985 C973 0.930 . S
H986 C974 0.956 . S
H987 C974 0.961 . S
H988 C974 0.961 . S
H989 C975 0.958 . S
H990 C975 0.961 1_556 S
H991 C975 0.960 . S
C992 C993 1.391 . S
C992 C994 1.394 . S
C992 H1008 0.931 . S
C993 C992 1.391 . S
C993 C997 1.376 1_455 S
C994 C992 1.394 . S
C994 C995 1.369 . S
C994 C998 1.531 . S
C995 C994 1.369 . S
C995 C996 1.410 1_455 S
C995 C1003 1.503 . S
C996 C995 1.410 1_655 S
C996 C997 1.392 . S
C996 C999 1.511 . S
C997 C993 1.376 1_655 S
C997 C996 1.392 . S
C997 H1009 0.929 . S
C998 C994 1.531 . S
C998 H1010 0.960 . S
C998 H1011 0.962 . S
C998 H1012 0.960 . S
C999 C996 1.511 . S
C999 H1013 0.961 . S
C999 H1014 0.961 . S
C999 H1015 0.961 . S
C1000 C1001 1.370 . S
C1000 C1002 1.363 . S
C1000 H1016 0.931 . S
C1001 C1000 1.370 . S
C1001 C1005 1.408 1_455 S
C1002 C1000 1.363 . S
C1002 C1003 1.370 . S
C1002 C1006 1.524 . S
C1003 C995 1.503 . S
C1003 C1002 1.370 . S
C1003 C1004 1.403 1_455 S
C1004 C1003 1.403 1_655 S
C1004 C1005 1.404 . S
C1004 C1007 1.539 . S
C1005 C1001 1.408 1_655 S
C1005 C1004 1.404 . S
C1005 H1017 0.930 . S
C1006 C1002 1.524 . S
C1006 H1018 0.956 . S
C1006 H1019 0.961 . S
C1006 H1020 0.961 . S
C1007 C1004 1.539 . S
C1007 H1021 0.958 . S
C1007 H1022 0.961 . S
C1007 H1023 0.960 . S
H1008 C992 0.931 . S
H1009 C997 0.929 . S
H1010 C998 0.960 . S
H1011 C998 0.962 . S
H1012 C998 0.960 . S
H1013 C999 0.961 . S
H1014 C999 0.961 . S
H1015 C999 0.961 . S
H1016 C1000 0.931 . S
H1017 C1005 0.930 . S
H1018 C1006 0.956 . S
H1019 C1006 0.961 . S
H1020 C1006 0.961 . S
H1021 C1007 0.958 . S
H1022 C1007 0.961 . S
H1023 C1007 0.960 . S
C1024 C1025 1.391 . S
C1024 C1026 1.394 . S
C1024 H1040 0.931 . S
C1025 C1024 1.391 . S
C1025 C1029 1.376 . S
C1026 C1024 1.394 . S
C1026 C1027 1.369 . S
C1026 C1030 1.531 . S
C1027 C1026 1.369 . S
C1027 C1028 1.410 . S
C1027 C1035 1.503 . S
C1028 C1027 1.410 . S
C1028 C1029 1.392 . S
C1028 C1031 1.511 . S
C1029 C1025 1.376 . S
C1029 C1028 1.392 . S
C1029 H1041 0.932 . S
C1030 C1026 1.531 . S
C1030 H1042 0.960 . S
C1030 H1043 0.962 . S
C1030 H1044 0.960 . S
C1031 C1028 1.511 . S
C1031 H1045 0.961 1_545 S
C1031 H1046 0.961 1_545 S
C1031 H1047 0.961 . S
C1032 C1033 1.370 1_565 S
C1032 C1034 1.363 . S
C1032 H1048 0.931 . S
C1033 C1032 1.370 1_545 S
C1033 C1037 1.408 . S
C1034 C1032 1.363 . S
C1034 C1035 1.370 1_565 S
C1034 C1038 1.524 . S
C1035 C1027 1.503 . S
C1035 C1034 1.370 1_545 S
C1035 C1036 1.403 . S
C1036 C1035 1.403 . S
C1036 C1037 1.404 . S
C1036 C1039 1.539 . S
C1037 C1033 1.408 . S
C1037 C1036 1.404 . S
C1037 H1049 0.930 . S
C1038 C1034 1.524 . S
C1038 H1050 0.956 . S
C1038 H1051 0.961 . S
C1038 H1052 0.961 . S
C1039 C1036 1.539 . S
C1039 H1053 0.958 . S
C1039 H1054 0.961 . S
C1039 H1055 0.960 . S
H1040 C1024 0.931 . S
H1041 C1029 0.932 . S
H1042 C1030 0.960 . S
H1043 C1030 0.962 . S
H1044 C1030 0.960 . S
H1045 C1031 0.961 1_565 S
H1046 C1031 0.961 1_565 S
H1047 C1031 0.961 . S
H1048 C1032 0.931 . S
H1049 C1037 0.930 . S
H1050 C1038 0.956 . S
H1051 C1038 0.961 . S
H1052 C1038 0.961 . S
H1053 C1039 0.958 . S
H1054 C1039 0.961 . S
H1055 C1039 0.960 . S
C1056 C1057 1.391 . S
C1056 C1058 1.394 . S
C1056 H1072 0.931 . S
C1057 C1056 1.391 . S
C1057 C1061 1.376 . S
C1058 C1056 1.394 . S
C1058 C1059 1.369 . S
C1058 C1062 1.531 . S
C1059 C1058 1.369 . S
C1059 C1060 1.410 . S
C1059 C1067 1.503 . S
C1060 C1059 1.410 . S
C1060 C1061 1.392 . S
C1060 C1063 1.511 . S
C1061 C1057 1.376 . S
C1061 C1060 1.392 . S
C1061 H1073 0.929 . S
C1062 C1058 1.531 . S
C1062 H1074 0.960 . S
C1062 H1075 0.962 . S
C1062 H1076 0.960 . S
C1063 C1060 1.511 . S
C1063 H1077 0.961 . S
C1063 H1078 0.961 . S
C1063 H1079 0.961 . S
C1064 C1065 1.370 . S
C1064 C1066 1.363 . S
C1064 H1080 0.931 . S
C1065 C1064 1.370 . S
C1065 C1069 1.408 . S
C1066 C1064 1.363 . S
C1066 C1067 1.370 . S
C1066 C1070 1.524 . S
C1067 C1059 1.503 . S
C1067 C1066 1.370 . S
C1067 C1068 1.403 . S
C1068 C1067 1.403 . S
C1068 C1069 1.404 . S
C1068 C1071 1.539 . S
C1069 C1065 1.408 . S
C1069 C1068 1.404 . S
C1069 H1081 0.930 . S
C1070 C1066 1.524 . S
C1070 H1082 0.956 . S
C1070 H1083 0.961 . S
C1070 H1084 0.961 . S
C1071 C1068 1.539 . S
C1071 H1085 0.958 . S
C1071 H1086 0.961 . S
C1071 H1087 0.960 . S
H1072 C1056 0.931 . S
H1073 C1061 0.929 . S
H1074 C1062 0.960 . S
H1075 C1062 0.962 . S
H1076 C1062 0.960 . S
H1077 C1063 0.961 . S
H1078 C1063 0.961 . S
H1079 C1063 0.961 . S
H1080 C1064 0.931 . S
H1081 C1069 0.930 . S
H1082 C1070 0.956 . S
H1083 C1070 0.961 . S
H1084 C1070 0.961 . S
H1085 C1071 0.958 . S
H1086 C1071 0.961 . S
H1087 C1071 0.960 . S
C1088 C1089 1.391 . S
C1088 C1090 1.394 . S
C1088 H1104 0.931 . S
C1089 C1088 1.391 . S
C1089 C1093 1.376 . S
C1090 C1088 1.394 . S
C1090 C1091 1.369 . S
C1090 C1094 1.531 . S
C1091 C1090 1.369 . S
C1091 C1092 1.410 . S
C1091 C1099 1.503 . S
C1092 C1091 1.410 . S
C1092 C1093 1.392 . S
C1092 C1095 1.511 . S
C1093 C1089 1.376 . S
C1093 C1092 1.392 . S
C1093 H1105 0.929 . S
C1094 C1090 1.531 . S
C1094 H1106 0.960 . S
C1094 H1107 0.962 . S
C1094 H1108 0.960 . S
C1095 C1092 1.511 . S
C1095 H1109 0.961 . S
C1095 H1110 0.961 . S
C1095 H1111 0.961 . S
C1096 C1097 1.370 . S
C1096 C1098 1.363 . S
C1096 H1112 0.931 . S
C1097 C1096 1.370 . S
C1097 C1101 1.408 . S
C1098 C1096 1.363 . S
C1098 C1099 1.370 . S
C1098 C1102 1.524 . S
C1099 C1091 1.503 . S
C1099 C1098 1.370 . S
C1099 C1100 1.403 . S
C1100 C1099 1.403 . S
C1100 C1101 1.404 . S
C1100 C1103 1.539 . S
C1101 C1097 1.408 . S
C1101 C1100 1.404 . S
C1101 H1113 0.930 . S
C1102 C1098 1.524 . S
C1102 H1114 0.956 . S
C1102 H1115 0.961 . S
C1102 H1116 0.961 . S
C1103 C1100 1.539 . S
C1103 H1117 0.958 . S
C1103 H1118 0.961 . S
C1103 H1119 0.960 . S
H1104 C1088 0.931 . S
H1105 C1093 0.929 . S
H1106 C1094 0.960 . S
H1107 C1094 0.962 . S
H1108 C1094 0.960 . S
H1109 C1095 0.961 . S
H1110 C1095 0.961 . S
H1111 C1095 0.961 . S
H1112 C1096 0.931 . S
H1113 C1101 0.930 . S
H1114 C1102 0.956 . S
H1115 C1102 0.961 . S
H1116 C1102 0.961 . S
H1117 C1103 0.958 . S
H1118 C1103 0.961 . S
H1119 C1103 0.960 . S
C1120 C1121 1.391 1_455 S
C1120 C1122 1.394 . S
C1120 H1136 0.931 . S
C1121 C1120 1.391 1_655 S
C1121 C1125 1.376 . S
C1122 C1120 1.394 . S
C1122 C1123 1.369 1_455 S
C1122 C1126 1.531 . S
C1123 C1122 1.369 1_655 S
C1123 C1124 1.410 . S
C1123 C1131 1.503 . S
C1124 C1123 1.410 . S
C1124 C1125 1.392 . S
C1124 C1127 1.511 . S
C1125 C1121 1.376 . S
C1125 C1124 1.392 . S
C1125 H1137 0.929 . S
C1126 C1122 1.531 . S
C1126 H1138 0.960 . S
C1126 H1139 0.962 . S
C1126 H1140 0.960 . S
C1127 C1124 1.511 . S
C1127 H1141 0.961 . S
C1127 H1142 0.961 . S
C1127 H1143 0.961 . S
C1128 C1129 1.370 1_455 S
C1128 C1130 1.363 . S
C1128 H1144 0.931 . S
C1129 C1128 1.370 1_655 S
C1129 C1133 1.408 . S
C1130 C1128 1.363 . S
C1130 C1131 1.370 1_455 S
C1130 C1134 1.524 . S
C1131 C1123 1.503 . S
C1131 C1130 1.370 1_655 S
C1131 C1132 1.403 . S
C1132 C1131 1.403 . S
C1132 C1133 1.404 . S
C1132 C1135 1.539 . S
C1133 C1129 1.408 . S
C1133 C1132 1.404 . S
C1133 H1145 0.930 . S
C1134 C1130 1.524 . S
C1134 H1146 0.956 . S
C1134 H1147 0.961 . S
C1134 H1148 0.961 . S
C1135 C1132 1.539 . S
C1135 H1149 0.958 . S
C1135 H1150 0.961 . S
C1135 H1151 0.960 . S
H1136 C1120 0.931 . S
H1137 C1125 0.929 . S
H1138 C1126 0.960 . S
H1139 C1126 0.962 . S
H1140 C1126 0.960 . S
H1141 C1127 0.961 . S
H1142 C1127 0.961 . S
H1143 C1127 0.961 . S
H1144 C1128 0.931 . S
H1145 C1133 0.930 . S
H1146 C1134 0.956 . S
H1147 C1134 0.961 . S
H1148 C1134 0.961 . S
H1149 C1135 0.958 . S
H1150 C1135 0.961 . S
H1151 C1135 0.960 . S
C1152 C1153 1.391 1_545 S
C1152 C1154 1.394 . S
C1152 H1168 0.931 . S
C1153 C1152 1.391 1_565 S
C1153 C1157 1.376 . S
C1154 C1152 1.394 . S
C1154 C1155 1.369 1_545 S
C1154 C1158 1.531 . S
C1155 C1154 1.369 1_565 S
C1155 C1156 1.410 . S
C1155 C1163 1.503 . S
C1156 C1155 1.410 . S
C1156 C1157 1.392 . S
C1156 C1159 1.511 . S
C1157 C1153 1.376 . S
C1157 C1156 1.392 . S
C1157 H1169 0.929 . S
C1158 C1154 1.531 . S
C1158 H1170 0.960 . S
C1158 H1171 0.962 . S
C1158 H1172 0.960 . S
C1159 C1156 1.511 . S
C1159 H1173 0.961 . S
C1159 H1174 0.961 . S
C1159 H1175 0.961 . S
C1160 C1161 1.370 . S
C1160 C1162 1.363 . S
C1160 H1176 0.931 . S
C1161 C1160 1.370 . S
C1161 C1165 1.408 . S
C1162 C1160 1.363 . S
C1162 C1163 1.370 . S
C1162 C1166 1.524 . S
C1163 C1155 1.503 . S
C1163 C1162 1.370 . S
C1163 C1164 1.403 . S
C1164 C1163 1.403 . S
C1164 C1165 1.404 . S
C1164 C1167 1.539 . S
C1165 C1161 1.408 . S
C1165 C1164 1.404 . S
C1165 H1177 0.930 . S
C1166 C1162 1.524 . S
C1166 H1178 0.956 1_565 S
C1166 H1179 0.961 . S
C1166 H1180 0.961 . S
C1167 C1164 1.539 . S
C1167 H1181 0.958 1_565 S
C1167 H1182 0.961 . S
C1167 H1183 0.960 . S
H1168 C1152 0.931 . S
H1169 C1157 0.929 . S
H1170 C1158 0.960 . S
H1171 C1158 0.962 . S
H1172 C1158 0.960 . S
H1173 C1159 0.961 . S
H1174 C1159 0.961 . S
H1175 C1159 0.961 . S
H1176 C1160 0.931 . S
H1177 C1165 0.930 . S
H1178 C1166 0.956 1_545 S
H1179 C1166 0.961 . S
H1180 C1166 0.961 . S
H1181 C1167 0.958 1_545 S
H1182 C1167 0.961 . S
H1183 C1167 0.960 . S
C1184 C1185 1.391 . S
C1184 C1186 1.394 . S
C1184 H1200 0.931 . S
C1185 C1184 1.391 . S
C1185 C1189 1.376 . S
C1186 C1184 1.394 . S
C1186 C1187 1.369 . S
C1186 C1190 1.531 . S
C1187 C1186 1.369 . S
C1187 C1188 1.410 . S
C1187 C1195 1.503 . S
C1188 C1187 1.410 . S
C1188 C1189 1.392 . S
C1188 C1191 1.511 . S
C1189 C1185 1.376 . S
C1189 C1188 1.392 . S
C1189 H1201 0.929 . S
C1190 C1186 1.531 . S
C1190 H1202 0.960 . S
C1190 H1203 0.962 . S
C1190 H1204 0.960 . S
C1191 C1188 1.511 . S
C1191 H1205 0.961 . S
C1191 H1206 0.961 . S
C1191 H1207 0.961 . S
C1192 C1193 1.370 . S
C1192 C1194 1.363 . S
C1192 H1208 0.931 . S
C1193 C1192 1.370 . S
C1193 C1197 1.408 . S
C1194 C1192 1.363 . S
C1194 C1195 1.370 . S
C1194 C1198 1.524 . S
C1195 C1187 1.503 . S
C1195 C1194 1.370 . S
C1195 C1196 1.403 . S
C1196 C1195 1.403 . S
C1196 C1197 1.404 . S
C1196 C1199 1.539 . S
C1197 C1193 1.408 . S
C1197 C1196 1.404 . S
C1197 H1209 0.930 . S
C1198 C1194 1.524 . S
C1198 H1210 0.956 . S
C1198 H1211 0.961 . S
C1198 H1212 0.961 . S
C1199 C1196 1.539 . S
C1199 H1213 0.958 . S
C1199 H1214 0.961 . S
C1199 H1215 0.960 . S
H1200 C1184 0.931 . S
H1201 C1189 0.929 . S
H1202 C1190 0.960 . S
H1203 C1190 0.962 . S
H1204 C1190 0.960 . S
H1205 C1191 0.961 . S
H1206 C1191 0.961 . S
H1207 C1191 0.961 . S
H1208 C1192 0.931 . S
H1209 C1197 0.930 . S
H1210 C1198 0.956 . S
H1211 C1198 0.961 . S
H1212 C1198 0.961 . S
H1213 C1199 0.958 . S
H1214 C1199 0.961 . S
H1215 C1199 0.960 . S
C1216 C1217 1.391 . S
C1216 C1218 1.394 . S
C1216 H1232 0.931 . S
C1217 C1216 1.391 . S
C1217 C1221 1.376 . S
C1218 C1216 1.394 . S
C1218 C1219 1.369 . S
C1218 C1222 1.531 . S
C1219 C1218 1.369 . S
C1219 C1220 1.410 . S
C1219 C1227 1.503 . S
C1220 C1219 1.410 . S
C1220 C1221 1.392 . S
C1220 C1223 1.511 . S
C1221 C1217 1.376 . S
C1221 C1220 1.392 . S
C1221 H1233 0.929 . S
C1222 C1218 1.531 . S
C1222 H1234 0.960 . S
C1222 H1235 0.962 . S
C1222 H1236 0.960 . S
C1223 C1220 1.511 . S
C1223 H1237 0.961 . S
C1223 H1238 0.961 . S
C1223 H1239 0.961 . S
C1224 C1225 1.370 . S
C1224 C1226 1.363 . S
C1224 H1240 0.931 . S
C1225 C1224 1.370 . S
C1225 C1229 1.408 . S
C1226 C1224 1.363 . S
C1226 C1227 1.370 . S
C1226 C1230 1.524 . S
C1227 C1219 1.503 . S
C1227 C1226 1.370 . S
C1227 C1228 1.403 . S
C1228 C1227 1.403 . S
C1228 C1229 1.404 . S
C1228 C1231 1.539 . S
C1229 C1225 1.408 . S
C1229 C1228 1.404 . S
C1229 H1241 0.930 . S
C1230 C1226 1.524 . S
C1230 H1242 0.956 . S
C1230 H1243 0.961 . S
C1230 H1244 0.961 . S
C1231 C1228 1.539 . S
C1231 H1245 0.958 . S
C1231 H1246 0.961 . S
C1231 H1247 0.960 . S
H1232 C1216 0.931 . S
H1233 C1221 0.929 . S
H1234 C1222 0.960 . S
H1235 C1222 0.962 . S
H1236 C1222 0.960 . S
H1237 C1223 0.961 . S
H1238 C1223 0.961 . S
H1239 C1223 0.961 . S
H1240 C1224 0.931 . S
H1241 C1229 0.930 . S
H1242 C1230 0.956 . S
H1243 C1230 0.961 . S
H1244 C1230 0.961 . S
H1245 C1231 0.958 . S
H1246 C1231 0.961 . S
H1247 C1231 0.960 . S
C481 C255 2.238 1_565 S
C489 C330 2.416 1_545 S
C521 C370 2.419 . S
C513 C295 2.246 . S
C553 C410 2.424 . S
C545 C175 2.196 . S
C585 C450 2.425 1_455 S
C577 C215 2.198 . S
C617 C339 2.423 1_565 S
C609 C95 2.210 . S
C641 C135 2.244 . S
C649 C379 2.424 . S
C673 C15 2.192 . S
C681 C419 2.425 . S
C705 C55 2.238 . S
C713 C459 2.421 1_655 S
C745 C336 0.475 . S
C737 C221 0.495 . S
C777 C376 0.442 . S
C769 C261 0.516 . S
C809 C416 0.481 . S
C801 C301 0.481 . S
C833 C181 0.416 . S
C841 C456 0.488 . S
C865 C61 0.517 1_655 S
C873 C327 0.447 . S
C905 C367 0.425 . S
C897 C101 0.571 1_565 S
C937 C407 0.481 . S
C929 C141 0.477 . S
C961 C21 0.427 . S
C969 C447 0.488 . S
C993 C202 3.119 . S
C1001 C331 3.498 . S
C1025 C242 3.123 . S
C1033 C371 3.504 . S
C1065 C411 3.501 . S
C1057 C282 3.153 . S
C1097 C451 3.495 . S
C1089 C162 3.143 . S
C1121 C42 3.134 1_655 S
C1129 C322 3.504 . S
C1161 C362 3.502 . S
C1153 C82 3.125 1_565 S
C1193 C402 3.495 . S
C1185 C122 3.161 . S
C1217 C2 3.176 . S
C1225 C442 3.499 . S
