# Generated by pormake.
# Topology pyr, (3,6)-cn, num edge types: 1
# Building blocks:
#     Node 0, Type 0, BuildingBlock: OLANEW_clean_sbu_2, # of connection points: 3
#     Node 1, Type 0, BuildingBlock: OLANEW_clean_sbu_2, # of connection points: 3
#     Node 2, Type 0, BuildingBlock: OLANEW_clean_sbu_2, # of connection points: 3
#     Node 3, Type 0, BuildingBlock: OLANEW_clean_sbu_2, # of connection points: 3
#     Node 4, Type 0, BuildingBlock: OLANEW_clean_sbu_2, # of connection points: 3
#     Node 5, Type 0, BuildingBlock: OLANEW_clean_sbu_2, # of connection points: 3
#     Node 6, Type 0, BuildingBlock: OLANEW_clean_sbu_2, # of connection points: 3
#     Node 7, Type 0, BuildingBlock: OLANEW_clean_sbu_2, # of connection points: 3
#     Node 8, Type 1, BuildingBlock: INOVEN_clean_sbu_0, # of connection points: 6
#     Node 9, Type 1, BuildingBlock: INOVEN_clean_sbu_0, # of connection points: 6
#     Node 10, Type 1, BuildingBlock: INOVEN_clean_sbu_0, # of connection points: 6
#     Node 11, Type 1, BuildingBlock: INOVEN_clean_sbu_0, # of connection points: 6
#     Edge 12, Type (0, 1), BuildingBlock: AJUNOK_clean_linker_0, # of connection points: 2
#     Edge 13, Type (0, 1), BuildingBlock: AJUNOK_clean_linker_0, # of connection points: 2
#     Edge 14, Type (0, 1), BuildingBlock: AJUNOK_clean_linker_0, # of connection points: 2
#     Edge 15, Type (0, 1), BuildingBlock: AJUNOK_clean_linker_0, # of connection points: 2
#     Edge 16, Type (0, 1), BuildingBlock: AJUNOK_clean_linker_0, # of connection points: 2
#     Edge 17, Type (0, 1), BuildingBlock: AJUNOK_clean_linker_0, # of connection points: 2
#     Edge 18, Type (0, 1), BuildingBlock: AJUNOK_clean_linker_0, # of connection points: 2
#     Edge 19, Type (0, 1), BuildingBlock: AJUNOK_clean_linker_0, # of connection points: 2
#     Edge 20, Type (0, 1), BuildingBlock: AJUNOK_clean_linker_0, # of connection points: 2
#     Edge 21, Type (0, 1), BuildingBlock: AJUNOK_clean_linker_0, # of connection points: 2
#     Edge 22, Type (0, 1), BuildingBlock: AJUNOK_clean_linker_0, # of connection points: 2
#     Edge 23, Type (0, 1), BuildingBlock: AJUNOK_clean_linker_0, # of connection points: 2
#     Edge 24, Type (0, 1), BuildingBlock: AJUNOK_clean_linker_0, # of connection points: 2
#     Edge 25, Type (0, 1), BuildingBlock: AJUNOK_clean_linker_0, # of connection points: 2
#     Edge 26, Type (0, 1), BuildingBlock: AJUNOK_clean_linker_0, # of connection points: 2
#     Edge 27, Type (0, 1), BuildingBlock: AJUNOK_clean_linker_0, # of connection points: 2
#     Edge 28, Type (0, 1), BuildingBlock: AJUNOK_clean_linker_0, # of connection points: 2
#     Edge 29, Type (0, 1), BuildingBlock: AJUNOK_clean_linker_0, # of connection points: 2
#     Edge 30, Type (0, 1), BuildingBlock: AJUNOK_clean_linker_0, # of connection points: 2
#     Edge 31, Type (0, 1), BuildingBlock: AJUNOK_clean_linker_0, # of connection points: 2
#     Edge 32, Type (0, 1), BuildingBlock: AJUNOK_clean_linker_0, # of connection points: 2
#     Edge 33, Type (0, 1), BuildingBlock: AJUNOK_clean_linker_0, # of connection points: 2
#     Edge 34, Type (0, 1), BuildingBlock: AJUNOK_clean_linker_0, # of connection points: 2
#     Edge 35, Type (0, 1), BuildingBlock: AJUNOK_clean_linker_0, # of connection points: 2
# Relax obj value: 0.178
# Max RMSD: 0.176
# Mean RMSD: 0.124
data_MOF--net-pyr--node1-OLANEW_clean_sbu_2--node2-INOVEN_clean_sbu_0--edge1-AJUNOK_clean_linker_0
_symmetry_space_group_name_H-M    P1
_symmetry_Int_Tables_number       1
_symmetry_cell_setting            triclinic
loop_
_symmetry_equiv_pos_as_xyz
'x, y, z'
_cell_length_a     30.745019
_cell_length_b     34.868958
_cell_length_c     30.613907
_cell_angle_alpha  96.877305
_cell_angle_beta   87.453569
_cell_angle_gamma 104.75803
loop_
_atom_site_label
_atom_site_type_symbol
_atom_site_fract_x
_atom_site_fract_y
_atom_site_fract_z
_atom_type_partial_charge
O0 O 0.42439 0.28283 0.162 0.0
Cd1 Cd 0.41238 0.34961 0.18946 0.0
O2 O 0.38117 0.26407 0.21727 0.0
Cd3 Cd 0.35291 0.22943 0.26923 0.0
O4 O 0.32288 0.22034 0.33247 0.0
C5 C 0.33552 0.24478 0.36638 0.0
O6 O 0.36873 0.27673 0.36402 0.0
C7 C 0.40666 0.25554 0.18602 0.0
C8 C 0.33465 0.37408 0.17363 0.0
O9 O 0.36603 0.37408 0.14459 0.0
O10 O 0.33852 0.3604 0.20993 0.0
O11 O 0.26274 0.89259 0.71153 0.0
Cd12 Cd 0.22995 0.85965 0.64201 0.0
O13 O 0.215 0.854 0.7538 0.0
Cd14 Cd 0.17141 0.82969 0.69871 0.0
O15 O 0.14668 0.86985 0.664 0.0
C16 C 0.14718 0.90325 0.68596 0.0
O17 O 0.15851 0.90913 0.72756 0.0
C18 C 0.25011 0.88187 0.74923 0.0
C19 C 0.28442 0.8099 0.61241 0.0
O20 O 0.24829 0.79703 0.63445 0.0
O21 O 0.29339 0.84583 0.60261 0.0
O22 O 0.7547 0.43478 0.87871 0.0
Cd23 Cd 0.68699 0.42954 0.8266 0.0
O24 O 0.74562 0.38437 0.91995 0.0
Cd25 Cd 0.70292 0.32467 0.94026 0.0
O26 O 0.66169 0.26332 0.9572 0.0
C27 C 0.64313 0.25742 0.99494 0.0
O28 O 0.64795 0.28823 0.02519 0.0
C29 C 0.76941 0.41785 0.90842 0.0
C30 C 0.66494 0.47166 0.75619 0.0
O31 O 0.6688 0.48737 0.79644 0.0
O32 O 0.67438 0.43769 0.74809 0.0
O33 O 0.95666 0.79175 0.38446 0.0
Cd34 Cd 0.93552 0.72224 0.33848 0.0
O35 O 0.91805 0.774 0.44516 0.0
Cd36 Cd 0.87985 0.71256 0.42796 0.0
O37 O 0.81781 0.67129 0.44835 0.0
C38 C 0.78614 0.68735 0.46175 0.0
O39 O 0.79264 0.72601 0.46095 0.0
C40 C 0.94445 0.80036 0.42447 0.0
C41 C 0.96758 0.68234 0.25926 0.0
O42 O 0.93845 0.70278 0.25769 0.0
O43 O 0.98435 0.68324 0.29718 0.0
O44 O 0.67581 0.74187 0.77652 0.0
Cd45 Cd 0.63587 0.6959 0.82548 0.0
O46 O 0.65608 0.78587 0.82509 0.0
Cd47 Cd 0.66293 0.84569 0.85837 0.0
O48 O 0.64645 0.89229 0.90464 0.0
C49 C 0.60609 0.89513 0.90517 0.0
O50 O 0.57777 0.8714 0.87674 0.0
C51 C 0.6798 0.77788 0.79198 0.0
C52 C 0.70748 0.67923 0.86432 0.0
O53 O 0.68638 0.65596 0.83236 0.0
O54 O 0.69317 0.70964 0.87976 0.0
O55 O 0.79306 0.22233 0.4466 0.0
Cd56 Cd 0.85949 0.24957 0.48933 0.0
O57 O 0.82623 0.26125 0.39732 0.0
Cd58 Cd 0.86775 0.30217 0.44684 0.0
O59 O 0.82223 0.33763 0.47337 0.0
C60 C 0.7868 0.32302 0.495 0.0
O61 O 0.78034 0.28713 0.50721 0.0
C62 C 0.79402 0.23307 0.40841 0.0
C63 C 0.89185 0.18858 0.51166 0.0
O64 O 0.8666 0.20516 0.53786 0.0
O65 O 0.90204 0.20085 0.47383 0.0
O66 O 0.45407 0.82709 0.25238 0.0
Cd67 Cd 0.45166 0.76135 0.29288 0.0
O68 O 0.39756 0.81092 0.20439 0.0
Cd69 Cd 0.3492 0.75143 0.20117 0.0
O70 O 0.28936 0.70508 0.17414 0.0
C71 C 0.27276 0.71037 0.13855 0.0
O72 O 0.29145 0.743 0.12034 0.0
C73 C 0.43206 0.83613 0.22145 0.0
C74 C 0.47376 0.71297 0.35886 0.0
O75 O 0.50463 0.73717 0.33871 0.0
O76 O 0.43319 0.71264 0.35002 0.0
O77 O 0.17663 0.45736 0.79191 0.0
Cd78 Cd 0.2232 0.43041 0.73016 0.0
O79 O 0.1269 0.40328 0.81204 0.0
Cd80 Cd 0.13506 0.35134 0.76462 0.0
O81 O 0.12354 0.29041 0.72666 0.0
C82 C 0.09206 0.26174 0.73853 0.0
O83 O 0.06669 0.26926 0.77249 0.0
C84 C 0.14426 0.44101 0.81707 0.0
C85 C 0.30022 0.47373 0.6832 0.0
O86 O 0.26027 0.46638 0.66822 0.0
O87 O 0.30381 0.46303 0.72128 0.0
Gd88 Gd 0.04248 0.04677 0.54706 0.0
Gd89 Gd 0.9844 1.01539 0.62162 0.0
C90 C 0.05011 0.10278 0.63814 0.0
C91 C 0.08089 0.0779 0.4799 0.0
C92 C 0.12165 0.1099 0.47797 0.0
C93 C 0.15842 0.11216 0.50473 0.0
C94 C 0.12267 0.14007 0.45156 0.0
C95 C 0.19913 0.17216 0.47432 0.0
C96 C 0.16126 0.17094 0.44952 0.0
C97 C 0.19703 0.1431 0.50279 0.0
C98 C 0.08447 0.01941 0.60758 0.0
C99 C 0.98256 0.95657 0.52993 0.0
C100 C 0.93371 0.98644 0.68434 0.0
C101 C 0.90072 0.95437 0.70204 0.0
C102 C 0.86308 0.96444 0.72289 0.0
C103 C 0.90328 0.9146 0.69548 0.0
C104 C 0.82964 0.89515 0.73031 0.0
C105 C 0.86771 0.88494 0.70986 0.0
C106 C 0.82768 0.93504 0.73682 0.0
C107 C 0.95604 0.06793 0.5811 0.0
O108 O 0.05154 0.10234 0.59495 0.0
O109 O 0.03306 0.06945 0.65647 0.0
O110 O 0.08629 0.04405 0.49048 0.0
O111 O 0.04703 0.08912 0.50024 0.0
O112 O 0.10382 0.04951 0.5867 0.0
O113 O 0.04601 1.00381 0.59285 0.0
O114 O 0.97024 0.95941 0.57214 0.0
O115 O 1.00768 0.9874 0.51189 0.0
O116 O 0.91944 1.00005 0.65125 0.0
O117 O 0.97655 0.98652 0.68187 0.0
O118 O 0.95685 0.06841 0.62311 0.0
O119 O 0.97083 0.03986 0.56177 0.0
H120 H 0.15776 0.08963 0.52637 0.0
H121 H 0.09403 0.13917 0.4317 0.0
H122 H 0.16234 0.19237 0.42639 0.0
H123 H 0.22596 0.14336 0.52191 0.0
H124 H 0.86065 0.99516 0.72756 0.0
H125 H 0.932 0.90655 0.67871 0.0
H126 H 0.86946 0.85409 0.70433 0.0
H127 H 0.79879 0.94347 0.7528 0.0
Gd128 Gd 0.53524 0.05751 0.12524 0.0
Gd129 Gd 0.46402 0.0434 0.07133 0.0
C130 C 0.46461 0.10756 0.15386 0.0
C131 C 0.61087 0.07334 0.16448 0.0
C132 C 0.6299 0.10012 0.20275 0.0
C133 C 0.64503 0.08368 0.23677 0.0
C134 C 0.63106 0.14093 0.20704 0.0
C135 C 0.66596 0.14895 0.2779 0.0
C136 C 0.64944 0.16537 0.24448 0.0
C137 C 0.66294 0.10791 0.27416 0.0
C138 C 0.47159 0.99461 0.15179 0.0
C139 C 0.53588 0.99999 0.03508 0.0
C140 C 0.39009 0.02709 0.02856 0.0
C141 C 0.37584 1.0058 0.98509 0.0
C142 C 0.37424 0.0277 0.94976 0.0
C143 C 0.36335 0.96386 0.97842 0.0
C144 C 0.34503 0.9664 0.90302 0.0
C145 C 0.34797 0.94429 0.93752 0.0
C146 C 0.35888 1.00807 0.90892 0.0
C147 C 0.53394 0.10304 0.04561 0.0
O148 O 0.50776 0.10899 0.15472 0.0
O149 O 0.43808 0.07759 0.12998 0.0
O150 O 0.57664 0.04459 0.17342 0.0
O151 O 0.60548 0.08938 0.12936 0.0
O152 O 0.49018 0.02661 0.17711 0.0
O153 O 0.4826 1.00013 0.11189 0.0
O154 O 0.49279 0.99735 0.03381 0.0
O155 O 0.56083 0.02536 0.0649 0.0
O156 O 0.42059 0.06073 0.02817 0.0
O157 O 0.39689 1.00589 0.05883 0.0
O158 O 0.51189 0.07335 0.01919 0.0
O159 O 0.5187 0.09913 0.0842 0.0
H160 H 0.64356 0.05209 0.23409 0.0
H161 H 0.61847 0.15398 0.18142 0.0
H162 H 0.65183 0.1971 0.24693 0.0
H163 H 0.67641 0.09485 0.29919 0.0
H164 H 0.38387 0.06003 0.95395 0.0
H165 H 0.36443 0.94616 1.00492 0.0
H166 H 0.33671 0.912 0.93326 0.0
H167 H 0.35625 0.02535 0.88244 0.0
Gd168 Gd 0.53642 0.53555 0.52474 0.0
Gd169 Gd 0.54234 0.60553 0.5875 0.0
C170 C 0.58374 0.54115 0.62196 0.0
C171 C 0.5534 0.47373 0.47954 0.0
C172 C 0.58376 0.44936 0.48861 0.0
C173 C 0.57124 0.40785 0.47792 0.0
C174 C 0.62542 0.46748 0.50845 0.0
C175 C 0.64385 0.40369 0.5019 0.0
C176 C 0.65547 0.44486 0.51462 0.0
C177 C 0.60124 0.38501 0.48458 0.0
C178 C 0.45918 0.53386 0.5723 0.0
C179 C 0.50998 0.60777 0.48606 0.0
C180 C 0.51672 0.66121 0.63564 0.0
C181 C 0.48516 0.68349 0.62487 0.0
C182 C 0.48743 0.72157 0.64635 0.0
C183 C 0.45223 0.66645 0.59293 0.0
C184 C 0.42197 0.72433 0.6064 0.0
C185 C 0.42118 0.68695 0.58337 0.0
C186 C 0.45583 0.74189 0.63731 0.0
C187 C 0.62136 0.60612 0.54567 0.0
O188 O 0.57831 0.52415 0.58061 0.0
O189 O 0.56886 0.57303 0.63461 0.0
O190 O 0.51842 0.47155 0.50573 0.0
O191 O 0.57286 0.51027 0.47171 0.0
O192 O 0.46015 0.52352 0.5301 0.0
O193 O 0.49888 0.54488 0.58623 0.0
O194 O 0.51303 0.62372 0.52765 0.0
O195 O 0.5195 0.57292 0.47484 0.0
O196 O 0.55478 0.66789 0.61351 0.0
O197 O 0.49863 0.62332 0.63848 0.0
O198 O 0.61754 0.61943 0.58683 0.0
O199 O 0.58298 0.59542 0.5282 0.0
H200 H 0.53884 0.39332 0.46346 0.0
H201 H 0.63519 0.49928 0.51814 0.0
H202 H 0.68833 0.45962 0.52801 0.0
H203 H 0.59202 0.35317 0.47447 0.0
H204 H 0.51287 0.73511 0.6708 0.0
H205 H 0.44963 0.63683 0.57619 0.0
H206 H 0.39587 0.67318 0.55885 0.0
H207 H 0.45689 0.7707 0.65556 0.0
Gd208 Gd 0.03445 0.5129 0.05372 0.0
Gd209 Gd 0.0204 0.58744 1.00695 0.0
C210 C 0.11054 0.59992 0.0622 0.0
C211 C 0.0723 0.45793 0.06871 0.0
C212 C 0.11099 0.45494 0.09424 0.0
C213 C 0.10421 0.42982 0.12782 0.0
C214 C 0.15538 0.47364 0.08211 0.0
C215 C 0.18502 0.43749 0.1319 0.0
C216 C 0.19189 0.4649 0.10065 0.0
C217 C 0.14091 0.42119 0.14658 0.0
C218 C 1.00407 0.56648 0.11326 0.0
C219 C 0.94268 0.50203 0.99698 0.0
C220 C 0.98984 0.64594 0.98998 0.0
C221 C 0.94824 0.64794 0.96947 0.0
C222 C 0.95088 0.66617 0.93069 0.0
C223 C 0.90579 0.63167 0.98803 0.0
C224 C 0.86972 0.65412 0.93082 0.0
C225 C 0.86681 0.63483 0.9688 0.0
C226 C 0.91181 0.66939 0.91153 0.0
C227 C 0.05945 0.53857 0.9494 0.0
O228 O 0.09889 0.56165 0.06912 0.0
O229 O 0.08537 0.61672 0.04055 0.0
O230 O 0.03591 0.46315 0.09023 0.0
O231 O 0.08241 0.47865 0.0351 0.0
O232 O 0.0124 0.53381 0.12306 0.0
O233 O 0.01096 0.56685 0.07217 0.0
O234 O 0.9548 0.54109 0.99438 0.0
O235 O 0.96794 0.48362 0.01734 0.0
O236 O 0.01873 0.63222 0.96401 0.0
O237 O 0.98536 0.63252 0.02841 0.0
O238 O 0.05094 0.57134 0.9405 0.0
O239 O 0.04676 0.53468 0.989 0.0
H240 H 0.07044 0.41522 0.13797 0.0
H241 H 0.16209 0.49363 0.05674 0.0
H242 H 0.22556 0.47829 0.08915 0.0
H243 H 0.13458 0.39982 0.17048 0.0
H244 H 0.98319 0.67832 0.91551 0.0
H245 H 0.90256 0.61682 0.01753 0.0
H246 H 0.83443 0.62297 0.98404 0.0
H247 H 0.9144 0.68407 0.88193 0.0
C248 C 0.31193 0.19816 0.42118 0.0
C249 C 0.31282 0.23541 0.40789 0.0
C250 C 0.27743 0.17969 0.4484 0.0
C251 C 0.24277 0.19802 0.46274 0.0
H252 H 0.33525 0.18139 0.4067 0.0
H253 H 0.2752 0.14908 0.45376 0.0
S254 S 0.23576 0.29932 0.44476 0.0
N255 N 0.2809 0.29293 0.41637 0.0
N256 N 0.216 0.25829 0.46883 0.0
C257 C 0.24673 0.2375 0.45447 0.0
C258 C 0.2819 0.25629 0.42652 0.0
C259 C 0.32077 0.90769 0.79135 0.0
C260 C 0.27438 0.90384 0.78803 0.0
C261 C 0.34406 0.92831 0.82887 0.0
C262 C 0.3215 0.94622 0.86307 0.0
H263 H 0.33881 0.89407 0.76528 0.0
H264 H 0.37961 0.9302 0.83127 0.0
S265 S 0.20154 0.94787 0.86779 0.0
N266 N 0.20747 0.92121 0.82055 0.0
N267 N 0.25163 0.961 0.89058 0.0
C268 C 0.27562 0.94366 0.85939 0.0
C269 C 0.25186 0.92214 0.82183 0.0
C270 C 0.63057 0.46828 0.68074 0.0
C271 C 0.64733 0.49075 0.72085 0.0
C272 C 0.61102 0.4847 0.64866 0.0
C273 C 0.60704 0.52446 0.65501 0.0
H274 H 0.63159 0.4373 0.67436 0.0
H275 H 0.59801 0.46572 0.61905 0.0
S276 S 0.64958 0.59758 0.75158 0.0
N277 N 0.66104 0.55615 0.76302 0.0
N278 N 0.6249 0.58666 0.70339 0.0
C279 C 0.62489 0.54756 0.69425 0.0
C280 C 0.64475 0.53089 0.72683 0.0
C281 C 0.00932 0.63225 0.22355 0.0
C282 C 0.97909 0.65604 0.21958 0.0
C283 C 0.01766 0.60459 0.18858 0.0
C284 C 0.99655 0.59918 0.14749 0.0
H285 H 0.02612 0.63427 0.2544 0.0
H286 H 0.04069 0.5868 0.19408 0.0
S287 S 0.91277 0.65215 0.11968 0.0
N288 N 0.92746 0.67156 0.1704 0.0
N289 N 0.94213 0.6188 0.10589 0.0
C290 C 0.96639 0.62271 0.1428 0.0
C291 C 0.95796 0.65119 0.17841 0.0
C292 C 0.46512 0.21725 0.17053 0.0
C293 C 0.42004 0.21705 0.18073 0.0
C294 C 0.47945 0.18184 0.16497 0.0
C295 C 0.44912 0.14438 0.16788 0.0
H296 H 0.48974 0.24514 0.16694 0.0
H297 H 0.51448 0.18388 0.15674 0.0
S298 S 0.32733 0.12722 0.19478 0.0
N299 N 0.34516 0.17616 0.19515 0.0
N300 N 0.37181 0.10934 0.1826 0.0
C301 C 0.40392 0.14365 0.17847 0.0
C302 C 0.38949 0.18 0.18546 0.0
C303 C 0.12334 0.96687 0.69164 0.0
C304 C 0.13566 0.93525 0.66519 0.0
C305 C 0.10959 0.99631 0.67265 0.0
C306 C 0.10887 0.99533 0.62686 0.0
H307 H 0.12256 0.96805 0.72718 0.0
H308 H 0.09768 0.01889 0.69374 0.0
S309 S 0.13976 0.9209 0.54306 0.0
N310 N 0.14784 0.9061 0.59064 0.0
N311 N 0.12206 0.96183 0.55538 0.0
C312 C 0.12252 0.96503 0.60007 0.0
C313 C 0.136 0.93484 0.61917 0.0
C314 C 0.83279 0.4213 0.96262 0.0
C315 C 0.81436 0.43837 0.93029 0.0
C316 C 0.87426 0.44109 0.9837 0.0
C317 C 0.89925 0.47918 0.97389 0.0
H318 H 0.81496 0.3924 0.97198 0.0
H319 H 0.88638 0.42666 1.00834 0.0
S320 S 0.86868 0.53572 0.88917 0.0
N321 N 0.8269 0.49522 0.88834 0.0
N322 N 0.90319 0.53156 0.92689 0.0
C323 C 0.88159 0.49595 0.94092 0.0
C324 C 0.83984 0.47592 0.91955 0.0
C325 C 0.70699 0.68184 0.48817 0.0
C326 C 0.74323 0.66395 0.47983 0.0
C327 C 0.6671 0.66211 0.5082 0.0
C328 C 0.66187 0.6238 0.52067 0.0
H329 H 0.70958 0.71168 0.47987 0.0
H330 H 0.64055 0.6774 0.51511 0.0
S331 S 0.74511 0.56291 0.50558 0.0
N332 N 0.77024 0.60467 0.4847 0.0
N333 N 0.69512 0.56813 0.52314 0.0
C334 C 0.69707 0.60506 0.512 0.0
C335 C 0.73777 0.62497 0.49124 0.0
C336 C 0.28636 0.39357 0.12128 0.0
C337 C 0.29571 0.39003 0.16496 0.0
C338 C 0.25085 0.40923 0.11129 0.0
C339 C 0.22319 0.42235 0.14453 0.0
H340 H 0.30644 0.38382 0.0943 0.0
H341 H 0.24461 0.41053 0.07701 0.0
S342 S 0.23546 0.42328 0.26457 0.0
N343 N 0.27562 0.4032 0.24223 0.0
N344 N 0.20886 0.43296 0.22312 0.0
C345 C 0.23237 0.41969 0.18848 0.0
C346 C 0.26863 0.40353 0.19878 0.0
C347 C 0.59767 0.21294 0.04879 0.0
C348 C 0.61624 0.21687 1.00599 0.0
C349 C 0.57221 0.17613 0.06119 0.0
C350 C 0.56315 0.14118 0.03141 0.0
H351 H 0.60273 0.23866 0.07338 0.0
H352 H 0.55907 0.17524 0.09449 0.0
S353 S 0.60509 0.1335 0.91589 0.0
N354 N 0.62477 0.18116 0.93406 0.0
N355 N 0.5763 0.11234 0.95733 0.0
C356 C 0.58173 0.1442 0.98862 0.0
C357 C 0.60826 0.18181 0.97595 0.0
C358 C 0.97086 0.846 0.49318 0.0
C359 C 0.95848 0.84144 0.44858 0.0
C360 C 0.97759 0.883 0.5195 0.0
C361 C 0.97194 0.9171 0.5025 0.0
H362 H 0.9749 0.82048 0.50808 0.0
H363 H 0.98782 0.885 0.55329 0.0
S364 S 0.93493 0.92077 0.38974 0.0
N365 N 0.93762 0.87404 0.38993 0.0
N366 N 0.95091 0.94357 0.43903 0.0
C367 C 0.95927 0.91305 0.45819 0.0
C368 C 0.95233 0.8753 0.43137 0.0
C369 C 0.36288 0.80509 0.5958 0.0
C370 C 0.31749 0.78578 0.60318 0.0
C371 C 0.39645 0.78451 0.59493 0.0
C372 C 0.38571 0.74388 0.60093 0.0
H373 H 0.37297 0.83681 0.59297 0.0
H374 H 0.4312 0.80077 0.59092 0.0
S375 S 0.27165 0.67853 0.61657 0.0
N376 N 0.26319 0.7229 0.61272 0.0
N377 N 0.32653 0.68424 0.61145 0.0
C378 C 0.34029 0.7236 0.60571 0.0
C379 C 0.30609 0.74459 0.60678 0.0
C380 C 0.71083 0.83532 0.74938 0.0
C381 C 0.71753 0.80842 0.77731 0.0
C382 C 0.74761 0.8631 0.73357 0.0
C383 C 0.79176 0.86463 0.74559 0.0
H384 H 0.67723 0.83449 0.73931 0.0
H385 H 0.74158 0.88338 0.71169 0.0
S386 S 0.82576 0.80268 0.8213 0.0
N387 N 0.77051 0.78597 0.81827 0.0
N388 N 0.83971 0.83888 0.7892 0.0
C389 C 0.79856 0.8384 0.7743 0.0
C390 C 0.76127 0.8101 0.79013 0.0
C391 C 0.7625 0.22354 0.33363 0.0
C392 C 0.75793 0.21372 0.37712 0.0
C393 C 0.73045 0.20434 0.30225 0.0
C394 C 0.69274 0.17478 0.31336 0.0
H395 H 0.79181 0.24527 0.32317 0.0
H396 H 0.73658 0.2111 0.26853 0.0
S397 S 0.66128 0.14169 0.42342 0.0
N398 N 0.71006 0.17503 0.43058 0.0
N399 N 0.64955 0.13909 0.37089 0.0
C400 C 0.68609 0.16624 0.35707 0.0
C401 C 0.71881 0.18566 0.38917 0.0
C402 C 0.44896 0.65672 0.40884 0.0
C403 C 0.48404 0.68558 0.39056 0.0
C404 C 0.45729 0.63101 0.43853 0.0
C405 C 0.50121 0.63245 0.45143 0.0
H406 H 0.41442 0.65403 0.40035 0.0
H407 H 0.42897 0.61012 0.45191 0.0
S408 S 0.60555 0.70131 0.41414 0.0
N409 N 0.56521 0.71287 0.38851 0.0
N410 N 0.58022 0.66499 0.44352 0.0
C411 C 0.53656 0.66062 0.43333 0.0
C412 C 0.52823 0.68686 0.4032 0.0
C413 C 0.10869 0.45296 0.89273 0.0
C414 C 0.12437 0.46633 0.85164 0.0
C415 C 0.08813 0.476 0.92466 0.0
C416 C 0.08209 0.51336 0.91687 0.0
H417 H 0.11224 0.42434 0.90026 0.0
H418 H 0.07596 0.46387 0.95497 0.0
S419 S 0.11254 0.55967 0.81253 0.0
N420 N 0.12929 0.51802 0.80411 0.0
N421 N 0.09119 0.56091 0.86292 0.0
C422 C 0.09686 0.5264 0.8754 0.0
C423 C 0.11789 0.50316 0.84327 0.0
C424 C 0.54803 0.93066 0.9333 0.0
C425 C 0.5904 0.92343 0.93817 0.0
C426 C 0.53114 0.95585 0.96464 0.0
C427 C 0.55588 0.97482 1.00218 0.0
H428 H 0.52749 0.91665 0.9051 0.0
H429 H 0.49827 0.96034 0.95929 0.0
S430 S 0.6684 0.96553 0.03107 0.0
N431 N 0.65677 0.93718 0.98376 0.0
N432 N 0.62485 0.98471 0.04279 0.0
C433 C 0.59852 0.9683 1.00743 0.0
C434 C 0.6158 0.94254 0.97541 0.0
C435 C 0.91825 0.16004 0.57167 0.0
C436 C 0.9106 0.1579 0.52658 0.0
C437 C 0.93417 0.13106 0.58836 0.0
C438 C 0.94254 0.09859 0.56063 0.0
H439 H 0.91184 0.18434 0.59445 0.0
H440 H 0.93936 0.13403 0.62352 0.0
S441 S 0.9288 0.07931 0.43989 0.0
N442 N 0.9136 0.12138 0.45391 0.0
N443 N 0.94318 0.06585 0.48601 0.0
C444 C 0.93608 0.09623 0.51529 0.0
C445 C 0.92014 0.12623 0.49803 0.0
C446 C 0.20623 0.65036 0.14127 0.0
C447 C 0.23277 0.6808 0.11789 0.0
C448 C 0.16746 0.62337 0.12269 0.0
C449 C 0.15358 0.62596 0.08016 0.0
H450 H 0.21495 0.64779 0.17449 0.0
H451 H 0.14748 0.60112 0.14226 0.0
S452 S 0.2131 0.6971 1.00328 0.0
N453 N 0.24357 0.70951 0.04824 0.0
N454 N 0.17085 0.65941 0.01413 0.0
C455 C 0.1803 0.65543 0.05607 0.0
C456 C 0.2198 0.68263 0.07469 0.0
C457 C 0.3372 0.49361 0.61068 0.0
C458 C 0.34094 0.49166 0.65617 0.0
C459 C 0.37523 0.50769 0.58391 0.0
C460 C 0.4188 0.52097 0.60144 0.0
H461 H 0.30464 0.48332 0.59524 0.0
H462 H 0.37046 0.50782 0.54909 0.0
S463 S 0.44774 0.52289 0.71839 0.0
N464 N 0.39262 0.50476 0.71726 0.0
N465 N 0.46331 0.53161 0.6675 0.0
C466 C 0.42302 0.51985 0.64693 0.0
C467 C 0.38444 0.50511 0.67406 0.0
C468 C 0.78195 0.70432 0.90061 0.0
C469 C 0.74832 0.67203 0.88151 0.0
C470 C 0.82182 0.69835 0.9156 0.0
C471 C 0.82881 0.65989 0.91262 0.0
H472 H 0.77775 0.73444 0.90343 0.0
H473 H 0.84705 0.72381 0.9302 0.0
S474 S 0.75175 0.56567 0.86537 0.0
N475 N 0.72523 0.6004 0.85976 0.0
N476 N 0.79968 0.58933 0.88943 0.0
C477 C 0.79564 0.62747 0.89377 0.0
C478 C 0.75548 0.63353 0.87774 0.0
C479 C 0.46416 0.91258 0.22926 0.0
C480 C 0.44527 0.87648 0.20304 0.0
C481 C 0.47163 0.95026 0.21277 0.0
C482 C 0.46132 0.95401 0.16896 0.0
H483 H 0.47216 0.91189 0.26319 0.0
H484 H 0.48596 0.9768 0.23474 0.0
S485 S 0.41413 0.86913 0.08529 0.0
N486 N 0.4181 0.84767 0.1297 0.0
N487 N 0.43298 0.91757 0.0994 0.0
C488 C 0.44362 0.91822 0.14213 0.0
C489 C 0.43543 0.87996 0.15892 0.0
C490 C 0.10147 0.2138 0.67195 0.0
C491 C 0.08332 0.2205 0.71444 0.0
C492 C 0.0915 0.17553 0.64806 0.0
C493 C 0.06356 0.14211 0.66581 0.0
H494 H 0.12271 0.23846 0.65652 0.0
H495 H 0.10552 0.17225 0.61513 0.0
S496 S 0.00851 0.14296 0.77618 0.0
N497 N 0.03663 0.18976 0.77351 0.0
N498 N 0.01845 0.11835 0.7289 0.0
C499 C 0.04609 0.14817 0.7086 0.0
C500 C 0.05578 0.18716 0.73274 0.0
C501 C 0.74798 0.36965 0.46794 0.0
C502 C 0.75002 0.34341 0.4989 0.0
C503 C 0.71291 0.38843 0.46901 0.0
C504 C 0.6787 0.38172 0.50105 0.0
H505 H 0.77334 0.37538 0.44218 0.0
H506 H 0.71252 0.40843 0.44459 0.0
S507 S 0.6684 0.31707 0.59025 0.0
N508 N 0.71463 0.31211 0.56295 0.0
N509 N 0.64857 0.34814 0.56485 0.0
C510 C 0.67988 0.35571 0.53218 0.0
C511 C 0.71563 0.33632 0.53111 0.0
loop_
_geom_bond_atom_site_label_1
_geom_bond_atom_site_label_2
_geom_bond_distance
_geom_bond_site_symmetry_2
_ccdc_geom_bond_type
O0 Cd1 2.300 . S
O0 C7 1.275 . S
Cd1 O0 2.300 . S
Cd1 O9 2.381 . S
Cd1 O10 2.378 . S
O2 Cd3 2.385 . S
O2 C7 1.255 . S
Cd3 O2 2.385 . S
Cd3 O4 2.317 . S
O4 Cd3 2.317 . S
O4 C5 1.232 . S
C5 O4 1.232 . S
C5 O6 1.218 . S
O6 C5 1.218 . S
C7 O0 1.275 . S
C7 O2 1.255 . S
C8 O9 1.258 . S
C8 O10 1.256 . S
O9 Cd1 2.381 . S
O9 C8 1.258 . S
O10 Cd1 2.378 . S
O10 C8 1.256 . S
O11 Cd12 2.300 . S
O11 C18 1.275 . S
Cd12 O11 2.300 . S
Cd12 O20 2.381 . S
Cd12 O21 2.378 . S
O13 Cd14 2.385 . S
O13 C18 1.255 . S
Cd14 O13 2.385 . S
Cd14 O15 2.317 . S
O15 Cd14 2.317 . S
O15 C16 1.232 . S
C16 O15 1.232 . S
C16 O17 1.218 . S
O17 C16 1.218 . S
C18 O11 1.275 . S
C18 O13 1.255 . S
C19 O20 1.258 . S
C19 O21 1.256 . S
O20 Cd12 2.381 . S
O20 C19 1.258 . S
O21 Cd12 2.378 . S
O21 C19 1.256 . S
O22 Cd23 2.300 . S
O22 C29 1.275 . S
Cd23 O22 2.300 . S
Cd23 O31 2.381 . S
Cd23 O32 2.378 . S
O24 Cd25 2.385 . S
O24 C29 1.255 . S
Cd25 O24 2.385 . S
Cd25 O26 2.317 . S
O26 Cd25 2.317 . S
O26 C27 1.232 . S
C27 O26 1.232 . S
C27 O28 1.218 . S
O28 C27 1.218 . S
C29 O22 1.275 . S
C29 O24 1.255 . S
C30 O31 1.258 . S
C30 O32 1.256 . S
O31 Cd23 2.381 . S
O31 C30 1.258 . S
O32 Cd23 2.378 . S
O32 C30 1.256 . S
O33 Cd34 2.300 . S
O33 C40 1.275 . S
Cd34 O33 2.300 . S
Cd34 O42 2.381 . S
Cd34 O43 2.378 . S
O35 Cd36 2.385 . S
O35 C40 1.255 . S
Cd36 O35 2.385 . S
Cd36 O37 2.317 . S
O37 Cd36 2.317 . S
O37 C38 1.232 . S
C38 O37 1.232 . S
C38 O39 1.218 . S
O39 C38 1.218 . S
C40 O33 1.275 . S
C40 O35 1.255 . S
C41 O42 1.258 . S
C41 O43 1.256 . S
O42 Cd34 2.381 . S
O42 C41 1.258 . S
O43 Cd34 2.378 . S
O43 C41 1.256 . S
O44 Cd45 2.300 . S
O44 C51 1.275 . S
Cd45 O44 2.300 . S
Cd45 O53 2.381 . S
Cd45 O54 2.378 . S
O46 Cd47 2.385 . S
O46 C51 1.255 . S
Cd47 O46 2.385 . S
Cd47 O48 2.317 . S
O48 Cd47 2.317 . S
O48 C49 1.232 . S
C49 O48 1.232 . S
C49 O50 1.218 . S
O50 C49 1.218 . S
C51 O44 1.275 . S
C51 O46 1.255 . S
C52 O53 1.258 . S
C52 O54 1.256 . S
O53 Cd45 2.381 . S
O53 C52 1.258 . S
O54 Cd45 2.378 . S
O54 C52 1.256 . S
O55 Cd56 2.300 . S
O55 C62 1.275 . S
Cd56 O55 2.300 . S
Cd56 O64 2.381 . S
Cd56 O65 2.378 . S
O57 Cd58 2.385 . S
O57 C62 1.255 . S
Cd58 O57 2.385 . S
Cd58 O59 2.317 . S
O59 Cd58 2.317 . S
O59 C60 1.232 . S
C60 O59 1.232 . S
C60 O61 1.218 . S
O61 C60 1.218 . S
C62 O55 1.275 . S
C62 O57 1.255 . S
C63 O64 1.258 . S
C63 O65 1.256 . S
O64 Cd56 2.381 . S
O64 C63 1.258 . S
O65 Cd56 2.378 . S
O65 C63 1.256 . S
O66 Cd67 2.300 . S
O66 C73 1.275 . S
Cd67 O66 2.300 . S
Cd67 O75 2.381 . S
Cd67 O76 2.378 . S
O68 Cd69 2.385 . S
O68 C73 1.255 . S
Cd69 O68 2.385 . S
Cd69 O70 2.317 . S
O70 Cd69 2.317 . S
O70 C71 1.232 . S
C71 O70 1.232 . S
C71 O72 1.218 . S
O72 C71 1.218 . S
C73 O66 1.275 . S
C73 O68 1.255 . S
C74 O75 1.258 . S
C74 O76 1.256 . S
O75 Cd67 2.381 . S
O75 C74 1.258 . S
O76 Cd67 2.378 . S
O76 C74 1.256 . S
O77 Cd78 2.300 . S
O77 C84 1.275 . S
Cd78 O77 2.300 . S
Cd78 O86 2.381 . S
Cd78 O87 2.378 . S
O79 Cd80 2.385 . S
O79 C84 1.255 . S
Cd80 O79 2.385 . S
Cd80 O81 2.317 . S
O81 Cd80 2.317 . S
O81 C82 1.232 . S
C82 O81 1.232 . S
C82 O83 1.218 . S
O83 C82 1.218 . S
C84 O77 1.275 . S
C84 O79 1.255 . S
C85 O86 1.258 . S
C85 O87 1.256 . S
O86 Cd78 2.381 . S
O86 C85 1.258 . S
O87 Cd78 2.378 . S
O87 C85 1.256 . S
Gd88 C91 2.818 . S
Gd88 O108 2.377 . S
Gd88 O110 2.448 . S
Gd88 O111 2.506 . S
Gd88 O112 2.435 . S
Gd88 O113 2.717 1_545 S
Gd88 O115 2.395 1_445 S
Gd88 O119 2.327 1_455 S
Gd89 C100 2.818 1_545 S
Gd89 O109 2.395 1_655 S
Gd89 O113 2.327 1_645 S
Gd89 O114 2.377 1_545 S
Gd89 O116 2.448 1_545 S
Gd89 O117 2.506 1_545 S
Gd89 O118 2.435 . S
Gd89 O119 2.717 . S
C90 O108 1.240 . S
C90 O109 1.240 . S
C91 Gd88 2.818 . S
C91 C92 1.510 . S
C91 O110 1.249 . S
C91 O111 1.252 . S
C92 C91 1.510 . S
C92 C93 1.404 . S
C92 C94 1.352 . S
C93 C92 1.404 . S
C93 C97 1.389 . S
C93 H120 0.930 . S
C94 C92 1.352 . S
C94 C96 1.374 . S
C94 H121 0.931 . S
C95 C96 1.359 . S
C95 C97 1.364 . S
C96 C94 1.374 . S
C96 C95 1.359 . S
C96 H122 0.931 . S
C97 C93 1.389 . S
C97 C95 1.364 . S
C97 H123 0.931 . S
C98 O112 1.256 1_565 S
C98 O113 1.257 . S
C99 O114 1.240 . S
C99 O115 1.240 . S
C100 Gd89 2.818 1_565 S
C100 C101 1.510 . S
C100 O116 1.249 . S
C100 O117 1.252 . S
C101 C100 1.510 . S
C101 C102 1.404 . S
C101 C103 1.352 . S
C102 C101 1.404 . S
C102 C106 1.389 . S
C102 H124 0.930 . S
C103 C101 1.352 . S
C103 C105 1.374 . S
C103 H125 0.931 . S
C104 C105 1.359 . S
C104 C106 1.364 . S
C105 C103 1.374 . S
C105 C104 1.359 . S
C105 H126 0.931 . S
C106 C102 1.389 . S
C106 C104 1.364 . S
C106 H127 0.931 . S
C107 O118 1.256 . S
C107 O119 1.257 . S
O108 Gd88 2.377 . S
O108 C90 1.240 . S
O109 Gd89 2.395 1_455 S
O109 C90 1.240 . S
O110 Gd88 2.448 . S
O110 C91 1.249 . S
O111 Gd88 2.506 . S
O111 C91 1.252 . S
O112 Gd88 2.435 . S
O112 C98 1.256 1_545 S
O113 Gd88 2.717 1_565 S
O113 Gd89 2.327 1_465 S
O113 C98 1.257 . S
O114 Gd89 2.377 1_565 S
O114 C99 1.240 . S
O115 Gd88 2.395 1_665 S
O115 C99 1.240 . S
O116 Gd89 2.448 1_565 S
O116 C100 1.249 . S
O117 Gd89 2.506 1_565 S
O117 C100 1.252 . S
O118 Gd89 2.435 . S
O118 C107 1.256 . S
O119 Gd88 2.327 1_655 S
O119 Gd89 2.717 . S
O119 C107 1.257 . S
H120 C93 0.930 . S
H121 C94 0.931 . S
H122 C96 0.931 . S
H123 C97 0.931 . S
H124 C102 0.930 . S
H125 C103 0.931 . S
H126 C105 0.931 . S
H127 C106 0.931 . S
Gd128 C131 2.818 . S
Gd128 O148 2.377 . S
Gd128 O150 2.448 . S
Gd128 O151 2.506 . S
Gd128 O152 2.435 1_545 S
Gd128 O153 2.717 . S
Gd128 O155 2.395 . S
Gd128 O159 2.327 . S
Gd129 C140 2.818 1_544 S
Gd129 O149 2.395 . S
Gd129 O153 2.327 . S
Gd129 O154 2.377 1_554 S
Gd129 O156 2.448 1_554 S
Gd129 O157 2.506 1_544 S
Gd129 O158 2.435 . S
Gd129 O159 2.717 . S
C130 O148 1.240 . S
C130 O149 1.240 . S
C131 Gd128 2.818 . S
C131 C132 1.510 . S
C131 O150 1.249 . S
C131 O151 1.252 . S
C132 C131 1.510 . S
C132 C133 1.404 . S
C132 C134 1.352 . S
C133 C132 1.404 . S
C133 C137 1.389 . S
C133 H160 0.930 . S
C134 C132 1.352 . S
C134 C136 1.374 . S
C134 H161 0.931 . S
C135 C136 1.359 . S
C135 C137 1.364 . S
C136 C134 1.374 . S
C136 C135 1.359 . S
C136 H162 0.931 . S
C137 C133 1.389 . S
C137 C135 1.364 . S
C137 H163 0.931 . S
C138 O152 1.256 . S
C138 O153 1.257 1_565 S
C139 O154 1.240 1_564 S
C139 O155 1.240 1_565 S
C140 Gd129 2.818 1_566 S
C140 C141 1.510 . S
C140 O156 1.249 1_565 S
C140 O157 1.252 . S
C141 C140 1.510 . S
C141 C142 1.404 . S
C141 C143 1.352 . S
C142 C141 1.404 . S
C142 C146 1.389 . S
C142 H164 0.930 1_565 S
C143 C141 1.352 . S
C143 C145 1.374 . S
C143 H165 0.931 . S
C144 C145 1.359 . S
C144 C146 1.364 . S
C145 C143 1.374 . S
C145 C144 1.359 . S
C145 H166 0.931 . S
C146 C142 1.389 . S
C146 C144 1.364 . S
C146 H167 0.931 . S
C147 O158 1.256 . S
C147 O159 1.257 . S
O148 Gd128 2.377 . S
O148 C130 1.240 . S
O149 Gd129 2.395 . S
O149 C130 1.240 . S
O150 Gd128 2.448 . S
O150 C131 1.249 . S
O151 Gd128 2.506 . S
O151 C131 1.252 . S
O152 Gd128 2.435 1_565 S
O152 C138 1.256 . S
O153 Gd128 2.717 . S
O153 Gd129 2.327 . S
O153 C138 1.257 1_545 S
O154 Gd129 2.377 1_556 S
O154 C139 1.240 1_546 S
O155 Gd128 2.395 . S
O155 C139 1.240 1_545 S
O156 Gd129 2.448 1_556 S
O156 C140 1.249 1_545 S
O157 Gd129 2.506 1_566 S
O157 C140 1.252 . S
O158 Gd129 2.435 . S
O158 C147 1.256 . S
O159 Gd128 2.327 . S
O159 Gd129 2.717 . S
O159 C147 1.257 . S
H160 C133 0.930 . S
H161 C134 0.931 . S
H162 C136 0.931 . S
H163 C137 0.931 . S
H164 C142 0.930 1_545 S
H165 C143 0.931 . S
H166 C145 0.931 . S
H167 C146 0.931 . S
Gd168 C171 2.818 . S
Gd168 O188 2.377 . S
Gd168 O190 2.448 . S
Gd168 O191 2.506 . S
Gd168 O192 2.435 . S
Gd168 O193 2.717 . S
Gd168 O195 2.395 . S
Gd168 O199 2.327 . S
Gd169 C180 2.818 . S
Gd169 O189 2.395 . S
Gd169 O193 2.327 . S
Gd169 O194 2.377 . S
Gd169 O196 2.448 . S
Gd169 O197 2.506 . S
Gd169 O198 2.435 . S
Gd169 O199 2.717 . S
C170 O188 1.240 . S
C170 O189 1.240 . S
C171 Gd168 2.818 . S
C171 C172 1.510 . S
C171 O190 1.249 . S
C171 O191 1.252 . S
C172 C171 1.510 . S
C172 C173 1.404 . S
C172 C174 1.352 . S
C173 C172 1.404 . S
C173 C177 1.389 . S
C173 H200 0.930 . S
C174 C172 1.352 . S
C174 C176 1.374 . S
C174 H201 0.931 . S
C175 C176 1.359 . S
C175 C177 1.364 . S
C176 C174 1.374 . S
C176 C175 1.359 . S
C176 H202 0.931 . S
C177 C173 1.389 . S
C177 C175 1.364 . S
C177 H203 0.931 . S
C178 O192 1.256 . S
C178 O193 1.257 . S
C179 O194 1.240 . S
C179 O195 1.240 . S
C180 Gd169 2.818 . S
C180 C181 1.510 . S
C180 O196 1.249 . S
C180 O197 1.252 . S
C181 C180 1.510 . S
C181 C182 1.404 . S
C181 C183 1.352 . S
C182 C181 1.404 . S
C182 C186 1.389 . S
C182 H204 0.930 . S
C183 C181 1.352 . S
C183 C185 1.374 . S
C183 H205 0.931 . S
C184 C185 1.359 . S
C184 C186 1.364 . S
C185 C183 1.374 . S
C185 C184 1.359 . S
C185 H206 0.931 . S
C186 C182 1.389 . S
C186 C184 1.364 . S
C186 H207 0.931 . S
C187 O198 1.256 . S
C187 O199 1.257 . S
O188 Gd168 2.377 . S
O188 C170 1.240 . S
O189 Gd169 2.395 . S
O189 C170 1.240 . S
O190 Gd168 2.448 . S
O190 C171 1.249 . S
O191 Gd168 2.506 . S
O191 C171 1.252 . S
O192 Gd168 2.435 . S
O192 C178 1.256 . S
O193 Gd168 2.717 . S
O193 Gd169 2.327 . S
O193 C178 1.257 . S
O194 Gd169 2.377 . S
O194 C179 1.240 . S
O195 Gd168 2.395 . S
O195 C179 1.240 . S
O196 Gd169 2.448 . S
O196 C180 1.249 . S
O197 Gd169 2.506 . S
O197 C180 1.252 . S
O198 Gd169 2.435 . S
O198 C187 1.256 . S
O199 Gd168 2.327 . S
O199 Gd169 2.717 . S
O199 C187 1.257 . S
H200 C173 0.930 . S
H201 C174 0.931 . S
H202 C176 0.931 . S
H203 C177 0.931 . S
H204 C182 0.930 . S
H205 C183 0.931 . S
H206 C185 0.931 . S
H207 C186 0.931 . S
Gd208 C211 2.818 . S
Gd208 O228 2.377 . S
Gd208 O230 2.448 . S
Gd208 O231 2.506 . S
Gd208 O232 2.435 1_455 S
Gd208 O233 2.719 . S
Gd208 O235 2.395 1_455 S
Gd208 O239 2.327 1_554 S
Gd209 C220 2.818 1_455 S
Gd209 O229 2.395 1_556 S
Gd209 O233 2.328 1_556 S
Gd209 O234 2.377 1_455 S
Gd209 O236 2.448 1_455 S
Gd209 O237 2.506 1_455 S
Gd209 O238 2.435 . S
Gd209 O239 2.717 . S
C210 O228 1.240 . S
C210 O229 1.240 . S
C211 Gd208 2.818 . S
C211 C212 1.510 . S
C211 O230 1.249 . S
C211 O231 1.252 . S
C212 C211 1.510 . S
C212 C213 1.404 . S
C212 C214 1.352 . S
C213 C212 1.404 . S
C213 C217 1.389 . S
C213 H240 0.930 . S
C214 C212 1.352 . S
C214 C216 1.374 . S
C214 H241 0.931 . S
C215 C216 1.359 . S
C215 C217 1.364 . S
C216 C214 1.374 . S
C216 C215 1.359 . S
C216 H242 0.931 . S
C217 C213 1.389 . S
C217 C215 1.364 . S
C217 H243 0.931 . S
C218 O232 1.256 . S
C218 O233 1.257 1_655 S
C219 O234 1.240 . S
C219 O235 1.240 1_556 S
C220 Gd209 2.818 1_655 S
C220 C221 1.510 . S
C220 O236 1.249 . S
C220 O237 1.252 . S
C221 C220 1.510 . S
C221 C222 1.404 . S
C221 C223 1.352 . S
C222 C221 1.404 . S
C222 C226 1.389 . S
C222 H244 0.930 . S
C223 C221 1.352 . S
C223 C225 1.374 . S
C223 H245 0.931 . S
C224 C225 1.359 . S
C224 C226 1.364 . S
C225 C223 1.374 . S
C225 C224 1.359 . S
C225 H246 0.931 . S
C226 C222 1.389 . S
C226 C224 1.364 . S
C226 H247 0.931 . S
C227 O238 1.256 . S
C227 O239 1.257 . S
O228 Gd208 2.377 . S
O228 C210 1.240 . S
O229 Gd209 2.395 1_554 S
O229 C210 1.240 . S
O230 Gd208 2.448 . S
O230 C211 1.249 . S
O231 Gd208 2.506 . S
O231 C211 1.252 . S
O232 Gd208 2.435 1_655 S
O232 C218 1.256 . S
O233 Gd208 2.719 . S
O233 Gd209 2.328 1_554 S
O233 C218 1.257 1_455 S
O234 Gd209 2.377 1_655 S
O234 C219 1.240 . S
O235 Gd208 2.395 1_655 S
O235 C219 1.240 1_554 S
O236 Gd209 2.448 1_655 S
O236 C220 1.249 . S
O237 Gd209 2.506 1_655 S
O237 C220 1.252 . S
O238 Gd209 2.435 . S
O238 C227 1.256 . S
O239 Gd208 2.327 1_556 S
O239 Gd209 2.717 . S
O239 C227 1.257 . S
H240 C213 0.930 . S
H241 C214 0.931 . S
H242 C216 0.931 . S
H243 C217 0.931 . S
H244 C222 0.930 . S
H245 C223 0.931 . S
H246 C225 0.931 . S
H247 C226 0.931 . S
C248 C249 1.369 . S
C248 C250 1.419 . S
C248 H252 0.930 . S
C249 C248 1.369 . S
C249 C258 1.429 . S
C250 C248 1.419 . S
C250 C251 1.363 . S
C250 H253 0.929 . S
C251 C250 1.363 . S
C251 C257 1.428 . S
H252 C248 0.930 . S
H253 C250 0.929 . S
S254 N255 1.613 . S
S254 N256 1.610 . S
N255 S254 1.613 . S
N255 C258 1.350 . S
N256 S254 1.610 . S
N256 C257 1.351 . S
C257 C251 1.428 . S
C257 N256 1.351 . S
C257 C258 1.434 . S
C258 C249 1.429 . S
C258 N255 1.350 . S
C258 C257 1.434 . S
C259 C260 1.369 . S
C259 C261 1.419 . S
C259 H263 0.930 . S
C260 C259 1.369 . S
C260 C269 1.429 . S
C261 C259 1.419 . S
C261 C262 1.363 . S
C261 H264 0.929 . S
C262 C261 1.363 . S
C262 C268 1.428 . S
H263 C259 0.930 . S
H264 C261 0.929 . S
S265 N266 1.613 . S
S265 N267 1.610 . S
N266 S265 1.613 . S
N266 C269 1.350 . S
N267 S265 1.610 . S
N267 C268 1.351 . S
C268 C262 1.428 . S
C268 N267 1.351 . S
C268 C269 1.434 . S
C269 C260 1.429 . S
C269 N266 1.350 . S
C269 C268 1.434 . S
C270 C271 1.369 . S
C270 C272 1.419 . S
C270 H274 0.930 . S
C271 C270 1.369 . S
C271 C280 1.429 . S
C272 C270 1.419 . S
C272 C273 1.363 . S
C272 H275 0.929 . S
C273 C272 1.363 . S
C273 C279 1.428 . S
H274 C270 0.930 . S
H275 C272 0.929 . S
S276 N277 1.613 . S
S276 N278 1.610 . S
N277 S276 1.613 . S
N277 C280 1.350 . S
N278 S276 1.610 . S
N278 C279 1.351 . S
C279 C273 1.428 . S
C279 N278 1.351 . S
C279 C280 1.434 . S
C280 C271 1.429 . S
C280 N277 1.350 . S
C280 C279 1.434 . S
C281 C282 1.369 . S
C281 C283 1.419 . S
C281 H285 0.930 . S
C282 C281 1.369 . S
C282 C291 1.429 . S
C283 C281 1.419 . S
C283 C284 1.363 . S
C283 H286 0.929 1_655 S
C284 C283 1.363 . S
C284 C290 1.428 . S
H285 C281 0.930 . S
H286 C283 0.929 1_455 S
S287 N288 1.613 . S
S287 N289 1.610 . S
N288 S287 1.613 . S
N288 C291 1.350 . S
N289 S287 1.610 . S
N289 C290 1.351 . S
C290 C284 1.428 . S
C290 N289 1.351 . S
C290 C291 1.434 . S
C291 C282 1.429 . S
C291 N288 1.350 . S
C291 C290 1.434 . S
C292 C293 1.369 . S
C292 C294 1.419 . S
C292 H296 0.930 . S
C293 C292 1.369 . S
C293 C302 1.429 . S
C294 C292 1.419 . S
C294 C295 1.363 . S
C294 H297 0.929 . S
C295 C294 1.363 . S
C295 C301 1.428 . S
H296 C292 0.930 . S
H297 C294 0.929 . S
S298 N299 1.613 . S
S298 N300 1.610 . S
N299 S298 1.613 . S
N299 C302 1.350 . S
N300 S298 1.610 . S
N300 C301 1.351 . S
C301 C295 1.428 . S
C301 N300 1.351 . S
C301 C302 1.434 . S
C302 C293 1.429 . S
C302 N299 1.350 . S
C302 C301 1.434 . S
C303 C304 1.369 . S
C303 C305 1.419 . S
C303 H307 0.930 . S
C304 C303 1.369 . S
C304 C313 1.429 . S
C305 C303 1.419 . S
C305 C306 1.363 . S
C305 H308 0.929 . S
C306 C305 1.363 . S
C306 C312 1.428 . S
H307 C303 0.930 . S
H308 C305 0.929 . S
S309 N310 1.613 . S
S309 N311 1.610 . S
N310 S309 1.613 . S
N310 C313 1.350 . S
N311 S309 1.610 . S
N311 C312 1.351 . S
C312 C306 1.428 . S
C312 N311 1.351 . S
C312 C313 1.434 . S
C313 C304 1.429 . S
C313 N310 1.350 . S
C313 C312 1.434 . S
C314 C315 1.369 . S
C314 C316 1.419 . S
C314 H318 0.930 . S
C315 C314 1.369 . S
C315 C324 1.429 . S
C316 C314 1.419 . S
C316 C317 1.363 . S
C316 H319 0.929 . S
C317 C316 1.363 . S
C317 C323 1.428 . S
H318 C314 0.930 . S
H319 C316 0.929 . S
S320 N321 1.613 . S
S320 N322 1.610 . S
N321 S320 1.613 . S
N321 C324 1.350 . S
N322 S320 1.610 . S
N322 C323 1.351 . S
C323 C317 1.428 . S
C323 N322 1.351 . S
C323 C324 1.434 . S
C324 C315 1.429 . S
C324 N321 1.350 . S
C324 C323 1.434 . S
C325 C326 1.369 . S
C325 C327 1.419 . S
C325 H329 0.930 . S
C326 C325 1.369 . S
C326 C335 1.429 . S
C327 C325 1.419 . S
C327 C328 1.363 . S
C327 H330 0.929 . S
C328 C327 1.363 . S
C328 C334 1.428 . S
H329 C325 0.930 . S
H330 C327 0.929 . S
S331 N332 1.613 . S
S331 N333 1.610 . S
N332 S331 1.613 . S
N332 C335 1.350 . S
N333 S331 1.610 . S
N333 C334 1.351 . S
C334 C328 1.428 . S
C334 N333 1.351 . S
C334 C335 1.434 . S
C335 C326 1.429 . S
C335 N332 1.350 . S
C335 C334 1.434 . S
C336 C337 1.369 . S
C336 C338 1.419 . S
C336 H340 0.930 . S
C337 C336 1.369 . S
C337 C346 1.429 . S
C338 C336 1.419 . S
C338 C339 1.363 . S
C338 H341 0.929 . S
C339 C338 1.363 . S
C339 C345 1.428 . S
H340 C336 0.930 . S
H341 C338 0.929 . S
S342 N343 1.613 . S
S342 N344 1.610 . S
N343 S342 1.613 . S
N343 C346 1.350 . S
N344 S342 1.610 . S
N344 C345 1.351 . S
C345 C339 1.428 . S
C345 N344 1.351 . S
C345 C346 1.434 . S
C346 C337 1.429 . S
C346 N343 1.350 . S
C346 C345 1.434 . S
C347 C348 1.369 . S
C347 C349 1.419 1_556 S
C347 H351 0.930 1_556 S
C348 C347 1.369 . S
C348 C357 1.429 . S
C349 C347 1.419 1_554 S
C349 C350 1.363 1_554 S
C349 H352 0.929 . S
C350 C349 1.363 1_556 S
C350 C356 1.428 . S
H351 C347 0.930 1_554 S
H352 C349 0.929 . S
S353 N354 1.613 . S
S353 N355 1.610 . S
N354 S353 1.613 . S
N354 C357 1.350 . S
N355 S353 1.610 . S
N355 C356 1.351 . S
C356 C350 1.428 . S
C356 N355 1.351 . S
C356 C357 1.434 . S
C357 C348 1.429 . S
C357 N354 1.350 . S
C357 C356 1.434 . S
C358 C359 1.369 . S
C358 C360 1.419 . S
C358 H362 0.930 . S
C359 C358 1.369 . S
C359 C368 1.429 . S
C360 C358 1.419 . S
C360 C361 1.363 . S
C360 H363 0.929 . S
C361 C360 1.363 . S
C361 C367 1.428 . S
H362 C358 0.930 . S
H363 C360 0.929 . S
S364 N365 1.613 . S
S364 N366 1.610 . S
N365 S364 1.613 . S
N365 C368 1.350 . S
N366 S364 1.610 . S
N366 C367 1.351 . S
C367 C361 1.428 . S
C367 N366 1.351 . S
C367 C368 1.434 . S
C368 C359 1.429 . S
C368 N365 1.350 . S
C368 C367 1.434 . S
C369 C370 1.369 . S
C369 C371 1.419 . S
C369 H373 0.930 . S
C370 C369 1.369 . S
C370 C379 1.429 . S
C371 C369 1.419 . S
C371 C372 1.363 . S
C371 H374 0.929 . S
C372 C371 1.363 . S
C372 C378 1.428 . S
H373 C369 0.930 . S
H374 C371 0.929 . S
S375 N376 1.613 . S
S375 N377 1.610 . S
N376 S375 1.613 . S
N376 C379 1.350 . S
N377 S375 1.610 . S
N377 C378 1.351 . S
C378 C372 1.428 . S
C378 N377 1.351 . S
C378 C379 1.434 . S
C379 C370 1.429 . S
C379 N376 1.350 . S
C379 C378 1.434 . S
C380 C381 1.369 . S
C380 C382 1.419 . S
C380 H384 0.930 . S
C381 C380 1.369 . S
C381 C390 1.429 . S
C382 C380 1.419 . S
C382 C383 1.363 . S
C382 H385 0.929 . S
C383 C382 1.363 . S
C383 C389 1.428 . S
H384 C380 0.930 . S
H385 C382 0.929 . S
S386 N387 1.613 . S
S386 N388 1.610 . S
N387 S386 1.613 . S
N387 C390 1.350 . S
N388 S386 1.610 . S
N388 C389 1.351 . S
C389 C383 1.428 . S
C389 N388 1.351 . S
C389 C390 1.434 . S
C390 C381 1.429 . S
C390 N387 1.350 . S
C390 C389 1.434 . S
C391 C392 1.369 . S
C391 C393 1.419 . S
C391 H395 0.930 . S
C392 C391 1.369 . S
C392 C401 1.429 . S
C393 C391 1.419 . S
C393 C394 1.363 . S
C393 H396 0.929 . S
C394 C393 1.363 . S
C394 C400 1.428 . S
H395 C391 0.930 . S
H396 C393 0.929 . S
S397 N398 1.613 . S
S397 N399 1.610 . S
N398 S397 1.613 . S
N398 C401 1.350 . S
N399 S397 1.610 . S
N399 C400 1.351 . S
C400 C394 1.428 . S
C400 N399 1.351 . S
C400 C401 1.434 . S
C401 C392 1.429 . S
C401 N398 1.350 . S
C401 C400 1.434 . S
C402 C403 1.369 . S
C402 C404 1.419 . S
C402 H406 0.930 . S
C403 C402 1.369 . S
C403 C412 1.429 . S
C404 C402 1.419 . S
C404 C405 1.363 . S
C404 H407 0.929 . S
C405 C404 1.363 . S
C405 C411 1.428 . S
H406 C402 0.930 . S
H407 C404 0.929 . S
S408 N409 1.613 . S
S408 N410 1.610 . S
N409 S408 1.613 . S
N409 C412 1.350 . S
N410 S408 1.610 . S
N410 C411 1.351 . S
C411 C405 1.428 . S
C411 N410 1.351 . S
C411 C412 1.434 . S
C412 C403 1.429 . S
C412 N409 1.350 . S
C412 C411 1.434 . S
C413 C414 1.369 . S
C413 C415 1.419 . S
C413 H417 0.930 . S
C414 C413 1.369 . S
C414 C423 1.429 . S
C415 C413 1.419 . S
C415 C416 1.363 . S
C415 H418 0.929 . S
C416 C415 1.363 . S
C416 C422 1.428 . S
H417 C413 0.930 . S
H418 C415 0.929 . S
S419 N420 1.613 . S
S419 N421 1.610 . S
N420 S419 1.613 . S
N420 C423 1.350 . S
N421 S419 1.610 . S
N421 C422 1.351 . S
C422 C416 1.428 . S
C422 N421 1.351 . S
C422 C423 1.434 . S
C423 C414 1.429 . S
C423 N420 1.350 . S
C423 C422 1.434 . S
C424 C425 1.369 . S
C424 C426 1.419 . S
C424 H428 0.930 . S
C425 C424 1.369 . S
C425 C434 1.429 . S
C426 C424 1.419 . S
C426 C427 1.363 . S
C426 H429 0.929 . S
C427 C426 1.363 . S
C427 C433 1.428 . S
H428 C424 0.930 . S
H429 C426 0.929 . S
S430 N431 1.613 . S
S430 N432 1.610 . S
N431 S430 1.613 . S
N431 C434 1.350 . S
N432 S430 1.610 . S
N432 C433 1.351 . S
C433 C427 1.428 . S
C433 N432 1.351 . S
C433 C434 1.434 . S
C434 C425 1.429 . S
C434 N431 1.350 . S
C434 C433 1.434 . S
C435 C436 1.369 . S
C435 C437 1.419 . S
C435 H439 0.930 . S
C436 C435 1.369 . S
C436 C445 1.429 . S
C437 C435 1.419 . S
C437 C438 1.363 . S
C437 H440 0.929 . S
C438 C437 1.363 . S
C438 C444 1.428 . S
H439 C435 0.930 . S
H440 C437 0.929 . S
S441 N442 1.613 . S
S441 N443 1.610 . S
N442 S441 1.613 . S
N442 C445 1.350 . S
N443 S441 1.610 . S
N443 C444 1.351 . S
C444 C438 1.428 . S
C444 N443 1.351 . S
C444 C445 1.434 . S
C445 C436 1.429 . S
C445 N442 1.350 . S
C445 C444 1.434 . S
C446 C447 1.369 . S
C446 C448 1.419 . S
C446 H450 0.930 . S
C447 C446 1.369 . S
C447 C456 1.429 . S
C448 C446 1.419 . S
C448 C449 1.363 . S
C448 H451 0.929 . S
C449 C448 1.363 . S
C449 C455 1.428 . S
H450 C446 0.930 . S
H451 C448 0.929 . S
S452 N453 1.613 . S
S452 N454 1.610 . S
N453 S452 1.613 . S
N453 C456 1.350 . S
N454 S452 1.610 . S
N454 C455 1.351 . S
C455 C449 1.428 . S
C455 N454 1.351 . S
C455 C456 1.434 . S
C456 C447 1.429 . S
C456 N453 1.350 . S
C456 C455 1.434 . S
C457 C458 1.369 . S
C457 C459 1.419 . S
C457 H461 0.930 . S
C458 C457 1.369 . S
C458 C467 1.429 . S
C459 C457 1.419 . S
C459 C460 1.363 . S
C459 H462 0.929 . S
C460 C459 1.363 . S
C460 C466 1.428 . S
H461 C457 0.930 . S
H462 C459 0.929 . S
S463 N464 1.613 . S
S463 N465 1.610 . S
N464 S463 1.613 . S
N464 C467 1.350 . S
N465 S463 1.610 . S
N465 C466 1.351 . S
C466 C460 1.428 . S
C466 N465 1.351 . S
C466 C467 1.434 . S
C467 C458 1.429 . S
C467 N464 1.350 . S
C467 C466 1.434 . S
C468 C469 1.369 . S
C468 C470 1.419 . S
C468 H472 0.930 . S
C469 C468 1.369 . S
C469 C478 1.429 . S
C470 C468 1.419 . S
C470 C471 1.363 . S
C470 H473 0.929 . S
C471 C470 1.363 . S
C471 C477 1.428 . S
H472 C468 0.930 . S
H473 C470 0.929 . S
S474 N475 1.613 . S
S474 N476 1.610 . S
N475 S474 1.613 . S
N475 C478 1.350 . S
N476 S474 1.610 . S
N476 C477 1.351 . S
C477 C471 1.428 . S
C477 N476 1.351 . S
C477 C478 1.434 . S
C478 C469 1.429 . S
C478 N475 1.350 . S
C478 C477 1.434 . S
C479 C480 1.369 . S
C479 C481 1.419 . S
C479 H483 0.930 . S
C480 C479 1.369 . S
C480 C489 1.429 . S
C481 C479 1.419 . S
C481 C482 1.363 . S
C481 H484 0.929 . S
C482 C481 1.363 . S
C482 C488 1.428 . S
H483 C479 0.930 . S
H484 C481 0.929 . S
S485 N486 1.613 . S
S485 N487 1.610 . S
N486 S485 1.613 . S
N486 C489 1.350 . S
N487 S485 1.610 . S
N487 C488 1.351 . S
C488 C482 1.428 . S
C488 N487 1.351 . S
C488 C489 1.434 . S
C489 C480 1.429 . S
C489 N486 1.350 . S
C489 C488 1.434 . S
C490 C491 1.369 . S
C490 C492 1.419 . S
C490 H494 0.930 . S
C491 C490 1.369 . S
C491 C500 1.429 . S
C492 C490 1.419 . S
C492 C493 1.363 . S
C492 H495 0.929 . S
C493 C492 1.363 . S
C493 C499 1.428 . S
H494 C490 0.930 . S
H495 C492 0.929 . S
S496 N497 1.613 . S
S496 N498 1.610 . S
N497 S496 1.613 . S
N497 C500 1.350 . S
N498 S496 1.610 . S
N498 C499 1.351 . S
C499 C493 1.428 . S
C499 N498 1.351 . S
C499 C500 1.434 . S
C500 C491 1.429 . S
C500 N497 1.350 . S
C500 C499 1.434 . S
C501 C502 1.369 . S
C501 C503 1.419 . S
C501 H505 0.930 . S
C502 C501 1.369 . S
C502 C511 1.429 . S
C503 C501 1.419 . S
C503 C504 1.363 . S
C503 H506 0.929 . S
C504 C503 1.363 . S
C504 C510 1.428 . S
H505 C501 0.930 . S
H506 C503 0.929 . S
S507 N508 1.613 . S
S507 N509 1.610 . S
N508 S507 1.613 . S
N508 C511 1.350 . S
N509 S507 1.610 . S
N509 C510 1.351 . S
C510 C504 1.428 . S
C510 N509 1.351 . S
C510 C511 1.434 . S
C511 C502 1.429 . S
C511 N508 1.350 . S
C511 C510 1.434 . S
C249 C5 1.014 . S
C251 C95 1.262 . S
C260 C18 1.070 . S
C262 C144 1.189 . S
C273 C170 2.363 . S
C271 C30 2.392 . S
C282 C41 2.195 . S
C284 C218 2.153 . S
C295 C130 2.294 . S
C293 C7 2.037 . S
C306 C98 0.896 . S
C304 C16 0.876 . S
C317 C219 2.003 . S
C315 C29 1.960 . S
C328 C187 1.373 . S
C326 C38 1.241 . S
C337 C8 1.478 . S
C339 C215 1.617 . S
C350 C147 2.541 1_556 S
C348 C27 2.360 . S
C359 C40 2.454 . S
C361 C99 2.462 . S
C370 C19 1.124 . S
C372 C184 1.096 . S
C383 C104 1.260 . S
C381 C51 0.983 . S
C392 C62 1.532 . S
C394 C135 1.436 . S
C403 C74 2.490 . S
C405 C179 2.465 . S
C414 C84 2.262 . S
C416 C227 2.349 . S
C425 C49 1.767 . S
C427 C139 2.492 1_556 S
C438 C107 1.047 . S
C436 C63 1.045 . S
C449 C210 1.858 . S
C447 C71 1.761 . S
C460 C178 1.523 . S
C458 C85 1.505 . S
C469 C52 1.555 . S
C471 C224 1.688 . S
C482 C138 2.633 . S
C480 C73 2.705 . S
C493 C90 2.077 . S
C491 C82 1.770 . S
C502 C60 0.991 . S
C504 C175 1.065 . S
