# Generated by pormake.
# Topology ocu, (6,8)-cn, num edge types: 1
# Building blocks:
#     Node 0, Type 0, BuildingBlock: JUFBIX_clean_sbu_0, # of connection points: 6
#     Node 1, Type 0, BuildingBlock: JUFBIX_clean_sbu_0, # of connection points: 6
#     Node 2, Type 0, BuildingBlock: JUFBIX_clean_sbu_0, # of connection points: 6
#     Node 3, Type 0, BuildingBlock: JUFBIX_clean_sbu_0, # of connection points: 6
#     Node 4, Type 0, BuildingBlock: JUFBIX_clean_sbu_0, # of connection points: 6
#     Node 5, Type 0, BuildingBlock: JUFBIX_clean_sbu_0, # of connection points: 6
#     Node 6, Type 0, BuildingBlock: JUFBIX_clean_sbu_0, # of connection points: 6
#     Node 7, Type 0, BuildingBlock: JUFBIX_clean_sbu_0, # of connection points: 6
#     Node 8, Type 1, BuildingBlock: GIZVER_clean_sbu_0, # of connection points: 8
#     Node 9, Type 1, BuildingBlock: GIZVER_clean_sbu_0, # of connection points: 8
#     Node 10, Type 1, BuildingBlock: GIZVER_clean_sbu_0, # of connection points: 8
#     Node 11, Type 1, BuildingBlock: GIZVER_clean_sbu_0, # of connection points: 8
#     Node 12, Type 1, BuildingBlock: GIZVER_clean_sbu_0, # of connection points: 8
#     Node 13, Type 1, BuildingBlock: GIZVER_clean_sbu_0, # of connection points: 8
#     Edge 14, Type (0, 1), BuildingBlock: EZIPEK_clean_linker_0, # of connection points: 2
#     Edge 15, Type (0, 1), BuildingBlock: EZIPEK_clean_linker_0, # of connection points: 2
#     Edge 16, Type (0, 1), BuildingBlock: EZIPEK_clean_linker_0, # of connection points: 2
#     Edge 17, Type (0, 1), BuildingBlock: EZIPEK_clean_linker_0, # of connection points: 2
#     Edge 18, Type (0, 1), BuildingBlock: EZIPEK_clean_linker_0, # of connection points: 2
#     Edge 19, Type (0, 1), BuildingBlock: EZIPEK_clean_linker_0, # of connection points: 2
#     Edge 20, Type (0, 1), BuildingBlock: EZIPEK_clean_linker_0, # of connection points: 2
#     Edge 21, Type (0, 1), BuildingBlock: EZIPEK_clean_linker_0, # of connection points: 2
#     Edge 22, Type (0, 1), BuildingBlock: EZIPEK_clean_linker_0, # of connection points: 2
#     Edge 23, Type (0, 1), BuildingBlock: EZIPEK_clean_linker_0, # of connection points: 2
#     Edge 24, Type (0, 1), BuildingBlock: EZIPEK_clean_linker_0, # of connection points: 2
#     Edge 25, Type (0, 1), BuildingBlock: EZIPEK_clean_linker_0, # of connection points: 2
#     Edge 26, Type (0, 1), BuildingBlock: EZIPEK_clean_linker_0, # of connection points: 2
#     Edge 27, Type (0, 1), BuildingBlock: EZIPEK_clean_linker_0, # of connection points: 2
#     Edge 28, Type (0, 1), BuildingBlock: EZIPEK_clean_linker_0, # of connection points: 2
#     Edge 29, Type (0, 1), BuildingBlock: EZIPEK_clean_linker_0, # of connection points: 2
#     Edge 30, Type (0, 1), BuildingBlock: EZIPEK_clean_linker_0, # of connection points: 2
#     Edge 31, Type (0, 1), BuildingBlock: EZIPEK_clean_linker_0, # of connection points: 2
#     Edge 32, Type (0, 1), BuildingBlock: EZIPEK_clean_linker_0, # of connection points: 2
#     Edge 33, Type (0, 1), BuildingBlock: EZIPEK_clean_linker_0, # of connection points: 2
#     Edge 34, Type (0, 1), BuildingBlock: EZIPEK_clean_linker_0, # of connection points: 2
#     Edge 35, Type (0, 1), BuildingBlock: EZIPEK_clean_linker_0, # of connection points: 2
#     Edge 36, Type (0, 1), BuildingBlock: EZIPEK_clean_linker_0, # of connection points: 2
#     Edge 37, Type (0, 1), BuildingBlock: EZIPEK_clean_linker_0, # of connection points: 2
#     Edge 38, Type (0, 1), BuildingBlock: EZIPEK_clean_linker_0, # of connection points: 2
#     Edge 39, Type (0, 1), BuildingBlock: EZIPEK_clean_linker_0, # of connection points: 2
#     Edge 40, Type (0, 1), BuildingBlock: EZIPEK_clean_linker_0, # of connection points: 2
#     Edge 41, Type (0, 1), BuildingBlock: EZIPEK_clean_linker_0, # of connection points: 2
#     Edge 42, Type (0, 1), BuildingBlock: EZIPEK_clean_linker_0, # of connection points: 2
#     Edge 43, Type (0, 1), BuildingBlock: EZIPEK_clean_linker_0, # of connection points: 2
#     Edge 44, Type (0, 1), BuildingBlock: EZIPEK_clean_linker_0, # of connection points: 2
#     Edge 45, Type (0, 1), BuildingBlock: EZIPEK_clean_linker_0, # of connection points: 2
#     Edge 46, Type (0, 1), BuildingBlock: EZIPEK_clean_linker_0, # of connection points: 2
#     Edge 47, Type (0, 1), BuildingBlock: EZIPEK_clean_linker_0, # of connection points: 2
#     Edge 48, Type (0, 1), BuildingBlock: EZIPEK_clean_linker_0, # of connection points: 2
#     Edge 49, Type (0, 1), BuildingBlock: EZIPEK_clean_linker_0, # of connection points: 2
#     Edge 50, Type (0, 1), BuildingBlock: EZIPEK_clean_linker_0, # of connection points: 2
#     Edge 51, Type (0, 1), BuildingBlock: EZIPEK_clean_linker_0, # of connection points: 2
#     Edge 52, Type (0, 1), BuildingBlock: EZIPEK_clean_linker_0, # of connection points: 2
#     Edge 53, Type (0, 1), BuildingBlock: EZIPEK_clean_linker_0, # of connection points: 2
#     Edge 54, Type (0, 1), BuildingBlock: EZIPEK_clean_linker_0, # of connection points: 2
#     Edge 55, Type (0, 1), BuildingBlock: EZIPEK_clean_linker_0, # of connection points: 2
#     Edge 56, Type (0, 1), BuildingBlock: EZIPEK_clean_linker_0, # of connection points: 2
#     Edge 57, Type (0, 1), BuildingBlock: EZIPEK_clean_linker_0, # of connection points: 2
#     Edge 58, Type (0, 1), BuildingBlock: EZIPEK_clean_linker_0, # of connection points: 2
#     Edge 59, Type (0, 1), BuildingBlock: EZIPEK_clean_linker_0, # of connection points: 2
#     Edge 60, Type (0, 1), BuildingBlock: EZIPEK_clean_linker_0, # of connection points: 2
#     Edge 61, Type (0, 1), BuildingBlock: EZIPEK_clean_linker_0, # of connection points: 2
# Relax obj value: 0.297
# Max RMSD: 0.336
# Mean RMSD: 0.219
data_MOF--net-ocu--node1-JUFBIX_clean_sbu_0--node2-GIZVER_clean_sbu_0--edge1-EZIPEK_clean_linker_0
_symmetry_space_group_name_H-M    P1
_symmetry_Int_Tables_number       1
_symmetry_cell_setting            triclinic
loop_
_symmetry_equiv_pos_as_xyz
'x, y, z'
_cell_length_a     31.111482
_cell_length_b     32.622337
_cell_length_c     24.036748
_cell_angle_alpha  93.329109
_cell_angle_beta   95.531975
_cell_angle_gamma 103.07079
loop_
_atom_site_label
_atom_site_type_symbol
_atom_site_fract_x
_atom_site_fract_y
_atom_site_fract_z
_atom_type_partial_charge
Co0 Co 0.25072 0.26523 0.25689 0.0
C1 C 0.24449 0.33866 0.32676 0.0
Co2 Co 0.30874 0.31731 0.26129 0.0
C3 C 0.19479 0.18217 0.2669 0.0
C4 C 0.15789 0.22886 0.24983 0.0
N5 N 0.19951 0.22273 0.25464 0.0
N6 N 0.15208 0.16364 0.27247 0.0
C7 C 0.12881 0.19277 0.261 0.0
H8 H 0.22243 0.16772 0.27648 0.0
H9 H 0.14942 0.25854 0.24265 0.0
C10 C 0.31658 0.24322 0.19453 0.0
N11 N 0.35833 0.36047 0.26545 0.0
C12 C 0.35948 0.40127 0.2579 0.0
C13 C 0.40104 0.35803 0.27258 0.0
N14 N 0.40129 0.42441 0.25815 0.0
C15 C 0.42745 0.39716 0.26807 0.0
C16 C 0.31856 0.25907 0.34226 0.0
O17 O 0.27704 0.22949 0.20695 0.0
O18 O 0.33508 0.28203 0.20987 0.0
O19 O 0.33656 0.29369 0.32351 0.0
O20 O 0.279 0.24146 0.32066 0.0
O21 O 0.28314 0.35201 0.31223 0.0
H22 H 0.41221 0.32927 0.27709 0.0
H23 H 0.32997 0.41316 0.25001 0.0
O24 O 0.22493 0.30094 0.30791 0.0
O25 O 0.22281 0.28953 0.19318 0.0
O26 O 0.28104 0.34186 0.19911 0.0
C27 C 0.24146 0.32538 0.17742 0.0
H28 H 0.09367 0.18903 0.2642 0.0
H29 H 0.46301 0.4041 0.26633 0.0
Co30 Co 0.8073 0.27227 0.23417 0.0
C31 C 0.83756 0.33482 0.32511 0.0
Co32 Co 0.76685 0.26863 0.30284 0.0
C33 C 0.85572 0.32067 0.15983 0.0
C34 C 0.88047 0.26554 0.17411 0.0
N35 N 0.84547 0.28268 0.18075 0.0
N36 N 0.89693 0.32938 0.14542 0.0
C37 C 0.91247 0.29453 0.15265 0.0
H38 H 0.83601 0.34396 0.16129 0.0
H39 H 0.88476 0.23601 0.18927 0.0
C40 C 0.73497 0.20847 0.20821 0.0
N41 N 0.72907 0.25962 0.35669 0.0
C42 C 0.70944 0.21989 0.36435 0.0
C43 C 0.70631 0.28363 0.38397 0.0
N44 N 0.6739 0.21719 0.39199 0.0
C45 C 0.67194 0.2572 0.40633 0.0
C46 C 0.74053 0.31923 0.22149 0.0
O47 O 0.77035 0.22559 0.18824 0.0
O48 O 0.72902 0.22141 0.25691 0.0
O49 O 0.7314 0.30413 0.26765 0.0
O50 O 0.7731 0.30931 0.20091 0.0
O51 O 0.80369 0.3159 0.34686 0.0
H52 H 0.71188 0.31754 0.38362 0.0
H53 H 0.71842 0.19264 0.34525 0.0
O54 O 0.84446 0.32 0.27789 0.0
O55 O 0.84134 0.23483 0.26901 0.0
O56 O 0.80219 0.2325 0.33925 0.0
C57 C 0.83392 0.22174 0.31683 0.0
H58 H 0.94557 0.29142 0.14608 0.0
H59 H 0.64589 0.26637 0.42732 0.0
Co60 Co 0.76954 0.75975 0.28804 0.0
C61 C 0.8451 0.8224 0.32664 0.0
Co62 Co 0.78928 0.80327 0.22565 0.0
C63 C 0.77821 0.6954 0.35913 0.0
C64 C 0.71312 0.70705 0.35601 0.0
N65 N 0.75326 0.72028 0.33744 0.0
N66 N 0.75532 0.66702 0.39 0.0
C67 C 0.71443 0.67414 0.38909 0.0
H68 H 0.81266 0.69799 0.35263 0.0
H69 H 0.68467 0.72016 0.3456 0.0
C70 C 0.71498 0.7374 0.18855 0.0
N71 N 0.80006 0.84148 0.17216 0.0
C72 C 0.76628 0.85546 0.14716 0.0
C73 C 0.83537 0.85856 0.14554 0.0
N74 N 0.77835 0.88066 0.10671 0.0
C75 C 0.82194 0.88297 0.10475 0.0
C76 C 0.82886 0.73631 0.21291 0.0
O77 O 0.71815 0.73192 0.24022 0.0
O78 O 0.7427 0.76796 0.17227 0.0
O79 O 0.82988 0.77288 0.1967 0.0
O80 O 0.80413 0.72371 0.25105 0.0
O81 O 0.83644 0.8368 0.27942 0.0
H82 H 0.86827 0.85309 0.15444 0.0
H83 H 0.73256 0.84686 0.1578 0.0
O84 O 0.82136 0.78715 0.33722 0.0
O85 O 0.73607 0.79543 0.3243 0.0
O86 O 0.74827 0.835 0.25517 0.0
C87 C 0.73029 0.8276 0.29996 0.0
H88 H 0.68803 0.65717 0.41104 0.0
H89 H 0.84229 0.90074 0.0762 0.0
Co90 Co 0.25272 0.8077 0.24311 0.0
C91 C 0.31641 0.8379 0.33369 0.0
Co92 Co 0.29526 0.76593 0.26074 0.0
C93 C 0.18604 0.84798 0.26712 0.0
C94 C 0.19656 0.85124 0.18077 0.0
N95 N 0.21301 0.83991 0.23026 0.0
N96 N 0.15259 0.86257 0.24266 0.0
C97 C 0.15863 0.86499 0.1883 0.0
H98 H 0.18924 0.84087 0.31059 0.0
H99 H 0.20938 0.8468 0.14115 0.0
C100 C 0.22862 0.7377 0.16945 0.0
N101 N 0.33369 0.73171 0.26915 0.0
C102 C 0.35364 0.71847 0.22697 0.0
C103 C 0.34259 0.70904 0.31228 0.0
N104 N 0.37394 0.6879 0.24129 0.0
C105 C 0.36717 0.68143 0.29484 0.0
C106 C 0.21698 0.73511 0.31533 0.0
O107 O 0.22519 0.77503 0.17752 0.0
O108 O 0.26032 0.72696 0.19818 0.0
O109 O 0.25616 0.73018 0.31131 0.0
O110 O 0.20824 0.76699 0.29044 0.0
O111 O 0.32794 0.80351 0.32281 0.0
H112 H 0.32998 0.71077 0.35252 0.0
H113 H 0.35068 0.72882 0.18507 0.0
O114 O 0.2807 0.84333 0.30808 0.0
O115 O 0.29478 0.84608 0.19862 0.0
O116 O 0.33713 0.8026 0.20973 0.0
C117 C 0.33208 0.8377 0.19078 0.0
H118 H 0.13659 0.87452 0.15657 0.0
H119 H 0.37774 0.65753 0.31854 0.0
Co120 Co 0.31343 0.76974 0.72279 0.0
C121 C 0.34968 0.83249 0.81468 0.0
Co122 Co 0.27475 0.77006 0.79334 0.0
C123 C 0.36735 0.8138 0.65225 0.0
C124 C 0.37558 0.75035 0.64996 0.0
N125 N 0.3503 0.77573 0.66878 0.0
N126 N 0.4031 0.81388 0.62593 0.0
C127 C 0.40878 0.77421 0.62336 0.0
H128 H 0.35635 0.84205 0.66371 0.0
H129 H 0.37238 0.71775 0.65895 0.0
C130 C 0.23974 0.70717 0.701 0.0
N131 N 0.23804 0.76244 0.84864 0.0
C132 C 0.21726 0.72296 0.85658 0.0
C133 C 0.21541 0.78739 0.87413 0.0
N134 N 0.18063 0.72127 0.88189 0.0
C135 C 0.17976 0.76184 0.89515 0.0
C136 C 0.24885 0.81877 0.71047 0.0
O137 O 0.27461 0.72303 0.6793 0.0
O138 O 0.23446 0.72272 0.74869 0.0
O139 O 0.24153 0.80708 0.75897 0.0
O140 O 0.27983 0.80712 0.68741 0.0
O141 O 0.31467 0.81697 0.83683 0.0
H142 H 0.22091 0.82112 0.87132 0.0
H143 H 0.22529 0.69528 0.83722 0.0
O144 O 0.35416 0.8172 0.76638 0.0
O145 O 0.34595 0.73262 0.7571 0.0
O146 O 0.30773 0.73253 0.82838 0.0
C147 C 0.33807 0.72034 0.80492 0.0
H148 H 0.4358 0.76399 0.60593 0.0
H149 H 0.15235 0.77203 0.91159 0.0
Co150 Co 0.27935 0.25363 0.78364 0.0
C151 C 0.35503 0.32036 0.81126 0.0
Co152 Co 0.29505 0.29612 0.71819 0.0
C153 C 0.30266 0.20642 0.86816 0.0
C154 C 0.23491 0.20881 0.87172 0.0
N155 N 0.26965 0.22044 0.84174 0.0
N156 N 0.29056 0.18675 0.9133 0.0
C157 C 0.2479 0.18778 0.9165 0.0
H158 H 0.33586 0.21165 0.8556 0.0
H159 H 0.20289 0.21618 0.86262 0.0
C160 C 0.21994 0.22961 0.6906 0.0
N161 N 0.30566 0.32842 0.65927 0.0
C162 C 0.27508 0.34589 0.63344 0.0
C163 C 0.3372 0.33029 0.62384 0.0
N164 N 0.28543 0.35767 0.58302 0.0
C165 C 0.32437 0.34789 0.57607 0.0
C166 C 0.33247 0.22513 0.70742 0.0
O167 O 0.23003 0.21913 0.73933 0.0
O168 O 0.24241 0.26362 0.67507 0.0
O169 O 0.32831 0.2588 0.68598 0.0
O170 O 0.31557 0.21718 0.7529 0.0
O171 O 0.34738 0.32911 0.76101 0.0
H172 H 0.366 0.31705 0.63034 0.0
H173 H 0.24396 0.34716 0.64932 0.0
O174 O 0.32991 0.2887 0.8289 0.0
O175 O 0.24243 0.28885 0.8133 0.0
O176 O 0.26078 0.33347 0.75039 0.0
C177 C 0.23981 0.32335 0.79252 0.0
H178 H 0.22812 0.1748 0.94876 0.0
H179 H 0.34128 0.35192 0.53876 0.0
Co180 Co 0.76182 0.29219 0.74453 0.0
C181 C 0.83646 0.3236 0.8263 0.0
Co182 Co 0.8072 0.25167 0.7525 0.0
C183 C 0.68064 0.316 0.75164 0.0
C184 C 0.73184 0.3681 0.7352 0.0
N185 N 0.72284 0.32631 0.74006 0.0
N186 N 0.66308 0.34999 0.75812 0.0
C187 C 0.6954 0.38272 0.74628 0.0
H188 H 0.66512 0.28458 0.76053 0.0
H189 H 0.76406 0.3874 0.72978 0.0
C190 C 0.73577 0.21897 0.66977 0.0
N191 N 0.8461 0.21774 0.75694 0.0
C192 C 0.89027 0.2318 0.76085 0.0
C193 C 0.83828 0.17595 0.74305 0.0
N194 N 0.91027 0.20186 0.74411 0.0
C195 C 0.87783 0.16615 0.73461 0.0
C196 C 0.73325 0.22268 0.81961 0.0
O197 O 0.72414 0.25287 0.68404 0.0
O198 O 0.77303 0.21472 0.69153 0.0
O199 O 0.77007 0.21501 0.80677 0.0
O200 O 0.72523 0.25659 0.80058 0.0
O201 O 0.84312 0.28757 0.81347 0.0
H202 H 0.80581 0.15504 0.73317 0.0
H203 H 0.90725 0.26403 0.77128 0.0
O204 O 0.80022 0.33152 0.80497 0.0
O205 O 0.79699 0.32817 0.69008 0.0
O206 O 0.84462 0.28943 0.69654 0.0
C207 C 0.83486 0.32327 0.67842 0.0
H208 H 0.6955 0.41584 0.75268 0.0
H209 H 0.88154 0.13648 0.7153 0.0
Co210 Co 0.75776 0.75919 0.74485 0.0
C211 C 0.74813 0.83124 0.81369 0.0
Co212 Co 0.81479 0.81223 0.75165 0.0
C213 C 0.71304 0.67389 0.75368 0.0
C214 C 0.66805 0.71486 0.74822 0.0
N215 N 0.71089 0.71397 0.74593 0.0
N216 N 0.6736 0.65013 0.76361 0.0
C217 C 0.64511 0.67569 0.75941 0.0
H218 H 0.74342 0.66305 0.75425 0.0
H219 H 0.655 0.7428 0.74581 0.0
C220 C 0.8238 0.73956 0.68302 0.0
N221 N 0.8609 0.85751 0.74293 0.0
C222 C 0.88695 0.89106 0.77516 0.0
C223 C 0.87052 0.86439 0.6901 0.0
N224 N 0.91097 0.91851 0.74332 0.0
C225 C 0.90067 0.90146 0.69019 0.0
C226 C 0.83091 0.75542 0.82831 0.0
O227 O 0.78386 0.72564 0.69302 0.0
O228 O 0.84186 0.77721 0.70269 0.0
O229 O 0.84781 0.79252 0.81448 0.0
O230 O 0.79146 0.73765 0.80632 0.0
O231 O 0.78758 0.84686 0.80198 0.0
H232 H 0.85556 0.84407 0.65287 0.0
H233 H 0.88804 0.89542 0.8203 0.0
O234 O 0.73129 0.79244 0.79745 0.0
O235 O 0.724 0.78077 0.68348 0.0
O236 O 0.78209 0.83224 0.68903 0.0
C237 C 0.74229 0.81685 0.66847 0.0
H238 H 0.61086 0.66742 0.76823 0.0
H239 H 0.91536 0.91446 0.65407 0.0
Co240 Co 0.07308 0.92744 0.49502 0.0
Co241 Co 0.10625 0.96997 0.58432 0.0
Co242 Co 0.03935 1.01667 0.51387 0.0
O243 O 0.08694 0.98504 0.51812 0.0
H244 H 0.11298 1.00064 0.50347 0.0
O245 O 0.99154 0.04939 0.50919 0.0
Co246 Co 1.00765 0.1091 0.52771 0.0
Co247 Co 0.97532 0.0642 0.43816 0.0
H248 H 0.96581 0.0354 0.52612 0.0
O249 O 0.16242 0.96244 0.60071 0.0
O250 O 0.10032 0.91121 0.5707 0.0
O251 O 0.07628 0.98826 0.64308 0.0
O252 O 1.01698 0.99565 0.58702 0.0
O253 O 0.08276 0.06466 0.55655 0.0
O254 O 1.02023 0.16284 0.55016 0.0
O255 O 0.95873 0.11157 0.55774 0.0
O256 O 0.06386 0.11237 0.50474 0.0
O257 O 0.06377 0.03699 0.44242 0.0
O258 O 1.01364 0.05557 0.38287 0.0
O259 O 0.98024 0.12246 0.45154 0.0
O260 O 0.91932 0.07211 0.41663 0.0
C261 C 0.09633 0.89708 0.44081 0.0
C262 C 0.98758 0.93047 0.48216 0.0
C263 C 0.03593 0.99035 0.63543 0.0
C264 C 0.14182 0.92272 0.59466 0.0
C265 C 0.98359 0.14933 0.57173 0.0
C266 C 0.08998 0.10253 0.54336 0.0
C267 C 0.05161 0.04786 0.39418 0.0
C268 C 0.93906 0.1118 0.4269 0.0
O269 O 0.06271 0.87622 0.46384 0.0
O270 O 0.12319 0.93071 0.4667 0.0
O271 O 0.99578 0.96866 0.46976 0.0
O272 O 1.01487 0.9187 0.51738 0.0
Co273 Co 0.60168 0.9494 0.98826 0.0
Co274 Co 0.57944 0.97405 0.09038 0.0
Co275 Co 0.53602 0.02928 0.01093 0.0
O276 O 0.58703 1.00128 0.02019 0.0
H277 H 0.61439 1.02283 0.02592 0.0
O278 O 0.48555 0.06019 0.00527 0.0
Co279 Co 0.47838 0.10759 0.06124 0.0
Co280 Co 0.49602 0.10405 0.9565 0.0
H281 H 0.4574 0.04063 0.99345 0.0
O282 O 0.6287 0.96562 0.13337 0.0
O283 O 0.58972 0.92693 0.05703 0.0
O284 O 0.52391 0.95603 0.12176 0.0
O285 O 0.48928 0.98478 0.05553 0.0
O286 O 0.56435 0.06614 0.08064 0.0
O287 O 0.46842 0.14957 0.10878 0.0
O288 O 0.41567 0.09861 0.06227 0.0
O289 O 0.54105 0.12564 0.07303 0.0
O290 O 0.58189 0.07214 0.9622 0.0
O291 O 0.55352 0.12421 0.92962 0.0
O292 O 0.47609 0.14276 0.9985 0.0
O293 O 0.44744 0.11054 0.91268 0.0
C294 C 0.63316 0.92692 0.92222 0.0
C295 C 0.50812 0.9497 0.93287 0.0
C296 C 0.48755 0.95914 0.09641 0.0
C297 C 0.62529 0.93648 0.09303 0.0
C298 C 0.42624 0.1325 0.09803 0.0
C299 C 0.57115 0.10634 0.08759 0.0
C300 C 0.58608 0.10675 0.93446 0.0
C301 C 0.44437 0.13423 0.95687 0.0
O302 O 0.6158 0.90285 0.95882 0.0
O303 O 0.62472 0.96476 0.92083 0.0
O304 O 0.5086 0.98932 0.94253 0.0
O305 O 0.54015 0.93296 0.95148 0.0
Co306 Co 0.08841 0.45338 0.94506 0.0
Co307 Co 0.10459 0.48134 0.04933 0.0
Co308 Co 1.03191 0.53271 0.99408 0.0
O309 O 0.08674 0.50711 0.98599 0.0
H310 H 0.11175 0.52843 0.97782 0.0
O311 O 0.97781 0.55935 1.00176 0.0
Co312 Co 0.9795 0.61412 0.04322 0.0
Co313 Co 0.96062 0.58753 0.93989 0.0
H314 H 0.95253 0.53818 0.00991 0.0
O315 O 0.16195 0.47796 0.07428 0.0
O316 O 0.1107 0.42854 0.01828 0.0
O317 O 0.06179 0.47113 0.10206 0.0
O318 O 1.00874 0.494 0.05214 0.0
O319 O 0.06961 0.57638 0.05136 0.0
O320 O 0.97525 0.66119 0.08562 0.0
O321 O 0.92218 0.60276 0.06201 0.0
O322 O 0.04218 0.63288 0.03361 0.0
O323 O 0.05411 0.56935 0.93415 0.0
O324 O 1.00179 0.59341 0.88521 0.0
O325 O 0.96071 0.64186 0.97234 0.0
O326 O 0.9043 0.59736 0.91811 0.0
C327 C 0.13433 0.42796 0.901 0.0
C328 C 0.99081 0.44898 0.93931 0.0
C329 C 1.02159 0.47255 0.0905 0.0
C330 C 0.14777 0.43905 0.05334 0.0
C331 C 0.93515 0.63965 0.09061 0.0
C332 C 0.07441 0.61635 0.05066 0.0
C333 C 0.04082 0.58762 0.89237 0.0
C334 C 0.92269 0.6354 0.93991 0.0
O335 O 0.09409 0.40649 0.9045 0.0
O336 O 0.14646 0.4658 0.92753 0.0
O337 O 0.99431 0.48873 0.93769 0.0
O338 O 1.02485 0.43335 0.95079 0.0
Co339 Co 0.57963 0.42864 1.00077 0.0
Co340 Co 0.59588 0.47174 0.09367 0.0
Co341 Co 0.54155 0.51872 1.00338 0.0
O342 O 0.58867 0.48764 0.02219 0.0
H343 H 0.61702 0.50346 0.01324 0.0
O344 O 0.49321 0.54798 0.98427 0.0
Co345 Co 0.49625 0.60106 0.02039 0.0
Co346 Co 0.49073 0.57559 0.92251 0.0
H347 H 0.46455 0.52934 0.98579 0.0
O348 O 0.65054 0.46774 0.12662 0.0
O349 O 0.59623 0.41503 0.08043 0.0
O350 O 0.55057 0.47947 0.13826 0.0
O351 O 0.50888 0.50235 0.07088 0.0
O352 O 0.58045 0.56934 0.04929 0.0
O353 O 0.49472 0.64776 0.05946 0.0
O354 O 0.44121 0.58759 0.03839 0.0
O355 O 0.5561 0.62029 0.00921 0.0
O356 O 0.57389 0.53561 0.9364 0.0
O357 O 0.54231 0.57866 0.88482 0.0
O358 O 0.47737 0.62559 0.94836 0.0
O359 O 0.43715 0.57439 0.88316 0.0
C360 C 0.61303 0.3961 0.96044 0.0
C361 C 0.49318 0.43109 0.96798 0.0
C362 C 0.51555 0.49061 0.12041 0.0
C363 C 0.63471 0.42784 0.11157 0.0
C364 C 0.45679 0.62367 0.0676 0.0
C365 C 0.58492 0.60844 0.04151 0.0
C366 C 0.57277 0.5591 0.8957 0.0
C367 C 0.4442 0.61206 0.90849 0.0
O368 O 0.57616 0.37636 0.97745 0.0
O369 O 0.63469 0.43283 0.98432 0.0
O370 O 0.50368 0.46923 0.95612 0.0
O371 O 0.51673 0.41777 0.00664 0.0
Co372 Co 0.12118 0.4886 0.51843 0.0
Co373 Co 0.09225 0.49842 0.41673 0.0
Co374 Co 1.02884 0.53136 0.50476 0.0
O375 O 0.06356 0.48863 0.48305 0.0
H376 H 0.04463 0.46047 0.4794 0.0
O377 O 0.99214 0.5734 0.52523 0.0
Co378 Co 0.92735 0.55705 0.52134 0.0
Co379 Co 0.97328 0.57246 0.59852 0.0
H380 H 1.00283 0.60128 0.51324 0.0
O381 O 0.09905 0.45232 0.36994 0.0
O382 O 0.14668 0.48812 0.44202 0.0
O383 O 0.10568 0.55564 0.39465 0.0
O384 O 0.06787 0.58172 0.45752 0.0
O385 O 0.98709 0.50544 0.43716 0.0
O386 O 0.86732 0.54675 0.51164 0.0
O387 O 0.91615 0.59281 0.47013 0.0
O388 O 0.92507 0.51546 0.46528 0.0
O389 O 0.9891 0.48241 0.5519 0.0
O390 O 0.95012 0.51146 0.61113 0.0
O391 O 0.92474 0.59855 0.58142 0.0
O392 O 0.97451 0.61923 0.65553 0.0
C393 C 0.15761 0.44566 0.53334 0.0
C394 C 0.11471 0.56737 0.56919 0.0
C395 C 0.09551 0.5876 0.41779 0.0
C396 C 0.1366 0.45741 0.40112 0.0
C397 C 0.87559 0.57749 0.47954 0.0
C398 C 0.94494 0.49542 0.43435 0.0
C399 C 0.95945 0.47809 0.58916 0.0
C400 C 0.93825 0.62279 0.62697 0.0
O401 O 0.17265 0.48494 0.55152 0.0
O402 O 0.11632 0.43275 0.51122 0.0
O403 O 0.07284 0.55523 0.57219 0.0
O404 O 0.13364 0.54927 0.53293 0.0
Co405 Co 0.61546 0.97779 0.5162 0.0
Co406 Co 0.5766 0.97284 0.41632 0.0
Co407 Co 0.525 0.02914 0.49559 0.0
O408 O 0.55632 0.98069 0.48417 0.0
H409 H 0.53755 0.95438 0.4919 0.0
O410 O 0.49278 0.07693 0.51041 0.0
Co411 Co 0.43752 0.08785 0.46958 0.0
Co412 Co 0.45168 0.06045 0.56209 0.0
H413 H 0.51357 0.10308 0.52428 0.0
O414 O 0.58146 0.92061 0.38541 0.0
O415 O 0.63569 0.96856 0.43771 0.0
O416 O 0.57545 1.01932 0.37119 0.0
O417 O 0.54993 0.06003 0.43263 0.0
O418 O 0.47173 0.99684 0.44362 0.0
O419 O 0.39042 0.10201 0.43179 0.0
O420 O 0.45072 0.14656 0.47732 0.0
O421 O 0.41509 0.02838 0.45251 0.0
O422 O 0.50353 0.99801 0.56011 0.0
O423 O 0.43432 0.9987 0.56891 0.0
O424 O 0.40609 0.08677 0.54055 0.0
O425 O 0.45257 0.09931 0.62143 0.0
C426 C 0.64505 0.92948 0.54827 0.0
C427 C 0.61915 0.0685 0.5411 0.0
C428 C 0.56809 0.05444 0.38824 0.0
C429 C 0.62357 0.93476 0.40185 0.0
C430 C 0.41203 0.14064 0.44691 0.0
C431 C 0.43004 0.9964 0.43824 0.0
C432 C 0.4641 0.97813 0.56391 0.0
C433 C 0.41918 0.10717 0.59051 0.0
O434 O 0.6672 0.96872 0.54986 0.0
O435 O 0.60419 0.91986 0.52379 0.0
O436 O 0.57772 0.06269 0.54657 0.0
O437 O 0.63541 0.03976 0.51759 0.0
C438 C 0.15106 0.11745 0.35124 0.0
C439 C 0.13462 0.12467 0.29647 0.0
C440 C 0.07116 0.06447 0.29723 0.0
C441 C 0.08538 0.06109 0.35428 0.0
N442 N 0.1511 0.06555 0.41867 0.0
N443 N 0.08772 0.09764 0.21103 0.0
C444 C 0.12955 0.08118 0.37578 0.0
C445 C 0.09748 0.09535 0.26718 0.0
N446 N 0.1846 0.14655 0.38199 0.0
N447 N 1.03244 0.03842 0.27271 0.0
H448 H 0.10759 0.11963 0.18877 0.0
H449 H 0.06244 0.07624 0.1859 0.0
H450 H 1.01553 1.01315 0.2929 0.0
H451 H 1.01734 0.04155 0.23316 0.0
H452 H 0.19564 0.14302 0.4233 0.0
H453 H 0.19799 0.17614 0.3691 0.0
H454 H 0.18441 0.07792 0.43347 0.0
H455 H 0.13796 0.03627 0.43256 0.0
C456 C 0.90905 0.20215 0.34386 0.0
C457 C 0.86211 0.19473 0.3465 0.0
C458 C 0.86984 0.14089 0.41324 0.0
C459 C 0.91489 0.14394 0.40387 0.0
N460 N 0.97431 0.17288 0.34957 0.0
N461 N 0.79734 0.14751 0.37419 0.0
C462 C 0.93372 0.17343 0.36641 0.0
C463 C 0.84243 0.16162 0.37892 0.0
N464 N 0.93097 0.23749 0.32183 0.0
N465 N 0.85307 0.11853 0.45574 0.0
H466 H 0.77616 0.15831 0.34543 0.0
H467 H 0.78145 0.12118 0.39312 0.0
H468 H 0.87227 0.10399 0.48263 0.0
H469 H 0.82182 0.1185 0.46801 0.0
H470 H 0.96549 0.24672 0.32451 0.0
H471 H 0.91527 0.26 0.30638 0.0
H472 H 0.98725 0.19024 0.31745 0.0
H473 H 0.9932 0.15212 0.36349 0.0
C474 C 0.92457 0.86386 0.3496 0.0
C475 C 0.88306 0.84611 0.36855 0.0
C476 C 0.9149 0.87505 0.4653 0.0
C477 C 0.95326 0.89844 0.44425 0.0
N478 N 0.99376 0.91659 0.36486 0.0
N479 N 0.83794 0.83694 0.44601 0.0
C480 C 0.95773 0.89324 0.38597 0.0
C481 C 0.87818 0.85171 0.42701 0.0
N482 N 0.93351 0.8508 0.29774 0.0
N483 N 0.91336 0.87535 0.52198 0.0
H484 H 0.80989 0.81976 0.42083 0.0
H485 H 0.83099 0.84474 0.48624 0.0
H486 H 0.9386 0.89346 0.55096 0.0
H487 H 0.88894 0.85512 0.54054 0.0
H488 H 0.96485 0.85894 0.28402 0.0
H489 H 0.91118 0.8279 0.27066 0.0
H490 H 0.99602 0.91869 0.32211 0.0
H491 H 1.02043 0.93584 0.39018 0.0
C492 C 0.09497 0.83793 0.30011 0.0
C493 C 0.11781 0.87135 0.27206 0.0
C494 C 0.10877 0.92111 0.34586 0.0
C495 C 0.10002 0.88718 0.38133 0.0
N496 N 0.08568 0.81182 0.39105 0.0
N497 N 0.14239 0.94542 0.26356 0.0
C498 C 0.09202 0.84486 0.35797 0.0
C499 C 0.12202 0.91327 0.29267 0.0
N500 N 0.08049 0.79909 0.27196 0.0
N501 N 0.10358 0.96035 0.36194 0.0
H502 H 0.15058 0.94018 0.22314 0.0
H503 H 0.15259 0.97672 0.28032 0.0
H504 H 0.09219 0.96783 0.39961 0.0
H505 H 0.10561 0.98421 0.33473 0.0
H506 H 0.06172 0.77317 0.28898 0.0
H507 H 0.08362 0.79503 0.22927 0.0
H508 H 0.08344 0.78077 0.37578 0.0
H509 H 0.08723 0.81567 0.43456 0.0
C510 C 0.21229 0.88113 0.7082 0.0
C511 C 0.22026 0.84432 0.68043 0.0
C512 C 0.17525 0.85739 0.59535 0.0
C513 C 0.16462 0.89236 0.62454 0.0
N514 N 0.16439 0.93007 0.71383 0.0
N515 N 0.20021 0.79234 0.60079 0.0
C516 C 0.18058 0.90189 0.68251 0.0
C517 C 0.19916 0.83103 0.6249 0.0
N518 N 0.23663 0.89777 0.75807 0.0
N519 N 0.16433 0.85022 0.53878 0.0
H520 H 0.21683 0.77181 0.62039 0.0
H521 H 0.1808 0.77882 0.56369 0.0
H522 H 0.14672 0.86841 0.51615 0.0
H523 H 0.17578 0.82859 0.51397 0.0
H524 H 0.23566 0.92695 0.77729 0.0
H525 H 0.26133 0.88475 0.77734 0.0
H526 H 0.17117 0.93508 0.75731 0.0
H527 H 0.14033 0.94503 0.69724 0.0
C528 C 0.14939 0.17365 0.67338 0.0
C529 C 0.18476 0.20045 0.6512 0.0
C530 C 0.15302 0.16815 0.55693 0.0
C531 C 0.1227 0.13619 0.58061 0.0
N532 N 0.10295 0.10407 0.66731 0.0
N533 N 0.22652 0.21364 0.57118 0.0
C534 C 0.12436 0.13719 0.64047 0.0
C535 C 0.18826 0.19559 0.59267 0.0
N536 N 0.13816 0.18366 0.7252 0.0
N537 N 0.14993 0.1716 0.50044 0.0
H538 H 0.25579 0.22913 0.5955 0.0
H539 H 0.23107 0.2084 0.5293 0.0
H540 H 0.12822 0.14991 0.47132 0.0
H541 H 0.16767 0.19784 0.4829 0.0
H542 H 0.11062 0.1661 0.74158 0.0
H543 H 0.15268 0.21228 0.74848 0.0
H544 H 0.10916 0.10263 0.71052 0.0
H545 H 0.08023 0.07766 0.64806 0.0
C546 C 0.97564 0.18003 0.72215 0.0
C547 C 0.94878 0.20885 0.71475 0.0
C548 C 0.95499 0.20735 0.61472 0.0
C549 C 0.97572 0.17353 0.62074 0.0
N550 N 1.01965 0.1374 0.67968 0.0
N551 N 0.93807 0.26765 0.66278 0.0
C552 C 0.99115 0.16341 0.67461 0.0
C553 C 0.94675 0.22861 0.66381 0.0
N554 N 0.98173 0.16574 0.77386 0.0
N555 N 0.94209 0.21819 0.56273 0.0
H556 H 0.93715 0.2859 0.69928 0.0
H557 H 0.93907 0.28431 0.62708 0.0
H558 H 0.94866 0.2034 0.52585 0.0
H559 H 0.92252 0.23992 0.55639 0.0
H560 H 0.99658 0.14084 0.78205 0.0
H561 H 0.97026 0.17889 0.80858 0.0
H562 H 0.03357 0.13012 0.71786 0.0
H563 H 1.03098 0.1248 0.64477 0.0
C564 C 0.94523 0.99017 0.73145 0.0
C565 C 0.948 0.95357 0.75845 0.0
C566 C 1.01544 0.94983 0.71968 0.0
C567 C 1.00929 0.98202 0.6836 0.0
N568 N 0.97618 0.04139 0.66807 0.0
N569 N 0.99734 0.91794 0.80593 0.0
C570 C 0.97705 1.00556 0.69424 0.0
C571 C 0.98877 0.94229 0.7641 0.0
N572 N 0.90824 1.00543 0.7354 0.0
N573 N 0.04171 0.92278 0.7078 0.0
H574 H 0.97517 0.91011 0.83576 0.0
H575 H 1.02765 0.90953 0.81357 0.0
H576 H 0.05605 0.92144 0.67061 0.0
H577 H 0.0443 0.8975 0.73147 0.0
H578 H 0.90026 0.0292 0.71226 0.0
H579 H 0.88486 0.99257 0.76191 0.0
H580 H 0.95491 0.06089 0.67628 0.0
H581 H 0.99901 0.05321 0.64067 0.0
C582 C 0.385 0.20993 0.19799 0.0
C583 C 0.34301 0.21264 0.17015 0.0
C584 C 0.34869 0.15283 0.10282 0.0
C585 C 0.39311 0.15419 0.12634 0.0
N586 N 0.44149 0.16983 0.21291 0.0
N587 N 0.28737 0.18807 0.09136 0.0
C588 C 0.40805 0.1792 0.17833 0.0
C589 C 0.32545 0.18407 0.12164 0.0
N590 N 0.40335 0.23657 0.24429 0.0
N591 N 0.32674 0.11955 0.06622 0.0
H592 H 0.27018 0.21072 0.10256 0.0
H593 H 0.27517 0.17187 0.0524 0.0
H594 H 0.3402 0.09405 0.05622 0.0
H595 H 0.29313 0.11419 0.05187 0.0
H596 H 0.43666 0.24194 0.2602 0.0
H597 H 0.38589 0.25467 0.26579 0.0
H598 H 0.45149 0.18326 0.25379 0.0
H599 H 0.45497 0.14399 0.20406 0.0
C600 C 0.9297 0.40712 0.16352 0.0
C601 C 0.9212 0.36852 0.12874 0.0
C602 C 0.9796 0.39752 0.07439 0.0
C603 C 0.98762 0.43717 0.10632 0.0
N604 N 0.96374 0.48252 0.17334 0.0
N605 N 0.92507 0.33428 0.03927 0.0
C606 C 0.96015 0.44311 0.14809 0.0
C607 C 0.94167 0.36649 0.07996 0.0
N608 N 0.91084 0.40905 0.21217 0.0
N609 N 1.00935 0.38811 0.04101 0.0
H610 H 0.89613 0.31137 0.04242 0.0
H611 H 0.93704 0.33342 1.00025 0.0
H612 H 0.03896 0.40913 0.03834 0.0
H613 H 1.00669 0.35813 0.02138 0.0
H614 H 0.91818 0.43567 0.24049 0.0
H615 H 0.89 0.38328 0.22643 0.0
H616 H 0.94158 0.48959 0.20016 0.0
H617 H 0.98718 0.50888 0.16415 0.0
C618 C 0.74818 0.94295 0.09293 0.0
C619 C 0.74782 0.90068 0.07654 0.0
C620 C 0.66709 0.88322 0.05864 0.0
C621 C 0.66688 0.92482 0.07921 0.0
N622 N 0.70791 0.998 0.08775 0.0
N623 N 0.71087 0.83801 0.01959 0.0
C624 C 0.70769 0.95608 0.08732 0.0
C625 C 0.70836 0.87383 0.04975 0.0
N626 N 0.78646 0.96971 0.11716 0.0
N627 N 0.62894 0.85212 0.0513 0.0
H628 H 0.74146 0.8306 0.01556 0.0
H629 H 0.68377 0.81911 0.99417 0.0
H630 H 0.59844 0.8567 0.06129 0.0
H631 H 0.62811 0.82093 0.03865 0.0
H632 H 0.78735 0.99941 0.13643 0.0
H633 H 0.81693 0.96133 0.11974 0.0
H634 H 0.73702 1.02155 0.08956 0.0
H635 H 0.67907 1.00872 0.07892 0.0
C636 C 0.1453 0.70542 0.1501 0.0
C637 C 0.18982 0.70595 0.13785 0.0
C638 C 0.15856 0.64517 0.06839 0.0
C639 C 0.11504 0.64486 0.08198 0.0
N640 N 0.07155 0.66248 0.15294 0.0
N641 N 0.23698 0.67395 0.0826 0.0
C642 C 0.10972 0.67156 0.12752 0.0
C643 C 0.19599 0.6748 0.09735 0.0
N644 N 0.13552 0.73676 0.18321 0.0
N645 N 0.16474 0.61699 0.02768 0.0
H646 H 0.26626 0.69536 0.09939 0.0
H647 H 0.26626 0.69536 0.09939 0.0
H648 H 0.1384 0.59724 1.00217 0.0
H649 H 0.19627 0.61391 0.01963 0.0
H650 H 0.10303 0.73988 0.1843 0.0
H651 H 0.15812 0.76115 0.20659 0.0
H652 H 0.06821 0.67747 0.19126 0.0
H653 H 0.04562 0.63622 0.14013 0.0
C654 C 0.40448 0.90395 0.82563 0.0
C655 C 0.38784 0.86427 0.84677 0.0
C656 C 0.44648 0.88307 0.92629 0.0
C657 C 0.46653 0.92065 0.90231 0.0
N658 N 0.46633 0.96503 0.82553 0.0
N659 N 0.39815 0.81314 0.9125 0.0
C660 C 0.44578 0.93075 0.85104 0.0
C661 C 0.41024 0.8531 0.89576 0.0
N662 N 0.38036 0.91617 0.78167 0.0
N663 N 0.46019 0.87687 0.9801 0.0
H664 H 0.37121 0.79024 0.89288 0.0
H665 H 0.41732 0.80136 0.94278 0.0
H666 H 0.4848 0.89877 0.00539 0.0
H667 H 0.4436 0.85242 1.00161 0.0
H668 H 0.38791 0.94603 0.76696 0.0
H669 H 0.35028 0.89735 0.76251 0.0
H670 H 0.45419 0.97359 0.78721 0.0
H671 H 0.49765 0.98353 0.84066 0.0
C672 C 0.22969 0.37583 0.87022 0.0
C673 C 0.21341 0.35201 0.81805 0.0
C674 C 0.1474 0.38301 0.81549 0.0
C675 C 0.16477 0.40781 0.86729 0.0
N676 N 0.23281 0.44062 0.92578 0.0
N677 N 0.15942 0.33794 0.73645 0.0
C678 C 0.20893 0.40808 0.88941 0.0
C679 C 0.1731 0.35732 0.7892 0.0
N680 N 0.26478 0.36752 0.90253 0.0
N681 N 0.10648 0.38465 0.79068 0.0
H682 H 0.17591 0.31739 0.71739 0.0
H683 H 0.13332 0.34388 0.71017 0.0
H684 H 0.08982 0.40734 0.8034 0.0
H685 H 0.08879 0.3634 0.75794 0.0
H686 H 0.2752 0.38141 0.9432 0.0
H687 H 0.28098 0.34426 0.89067 0.0
H688 H 0.26654 0.4441 0.93855 0.0
H689 H 0.22118 0.46715 0.93639 0.0
C690 C 0.65249 0.17371 0.82306 0.0
C691 C 0.69727 0.18993 0.8493 0.0
C692 C 0.67238 0.14534 0.93013 0.0
C693 C 0.6277 0.12942 0.90349 0.0
N694 N 0.58167 0.12123 0.81565 0.0
N695 N 0.74974 0.18463 0.92719 0.0
C696 C 0.61996 0.14204 0.84765 0.0
C697 C 0.70696 0.17337 0.90245 0.0
N698 N 0.64032 0.18828 0.77322 0.0
N699 N 0.68175 0.13468 0.98321 0.0
H700 H 0.77443 0.20626 0.91086 0.0
H701 H 0.76148 0.1712 0.962 0.0
H702 H 0.65886 0.11325 1.00251 0.0
H703 H 0.71086 0.14826 0.0091 0.0
H704 H 0.60743 0.18411 0.75612 0.0
H705 H 0.66287 0.20639 0.74991 0.0
H706 H 0.57503 0.12427 0.77302 0.0
H707 H 0.5586 0.09689 0.83013 0.0
C708 C 0.90077 0.72565 0.85056 0.0
C709 C 0.85804 0.73017 0.86384 0.0
C710 C 0.85918 0.67445 0.93047 0.0
C711 C 0.90275 0.67164 0.91937 0.0
N712 N 0.96819 0.70189 0.87627 0.0
N713 N 0.80195 0.71482 0.92679 0.0
C714 C 0.92457 0.69989 0.88229 0.0
C715 C 0.83898 0.70628 0.90698 0.0
N716 N 0.9176 0.74309 0.8046 0.0
N717 N 0.83652 0.64598 0.96291 0.0
H718 H 0.78717 0.73833 0.91182 0.0
H719 H 0.78853 0.70182 0.96162 0.0
H720 H 0.85022 0.62287 0.98086 0.0
H721 H 0.80348 0.64348 0.96939 0.0
H722 H 0.94519 0.73614 0.78823 0.0
H723 H 0.90197 0.76132 0.7792 0.0
H724 H 0.98753 0.7253 0.85562 0.0
H725 H 0.98626 0.68247 0.89584 0.0
C726 C 0.23586 0.37544 0.09923 0.0
C727 C 0.21562 0.35092 0.14097 0.0
C728 C 0.14817 0.37849 0.11751 0.0
C729 C 0.17 0.40611 0.07966 0.0
N730 N 0.2406 0.4386 0.04948 0.0
N731 N 0.15657 0.34139 0.20074 0.0
C732 C 0.21556 0.40673 0.07482 0.0
C733 C 0.17255 0.35523 0.15249 0.0
N734 N 0.27433 0.36856 0.08187 0.0
N735 N 0.10455 0.3762 0.12318 0.0
H736 H 0.17504 0.32915 0.23108 0.0
H737 H 0.12771 0.34738 0.2146 0.0
H738 H 0.08725 0.39679 0.10545 0.0
H739 H 0.08523 0.35261 0.14363 0.0
H740 H 0.28868 0.38287 0.04835 0.0
H741 H 0.28934 0.34529 0.09712 0.0
H742 H 0.27488 0.44329 0.0498 0.0
H743 H 0.22784 0.46275 0.03293 0.0
C744 C 0.10461 0.68449 0.8395 0.0
C745 C 0.14457 0.6844 0.87406 0.0
C746 C 0.11952 0.60831 0.87572 0.0
C747 C 0.07567 0.61187 0.86096 0.0
N748 N 1.02885 0.64684 0.8053 0.0
N749 N 0.19326 0.643 0.91493 0.0
C750 C 0.06884 0.64805 0.83499 0.0
C751 C 0.15306 0.64524 0.8887 0.0
N752 N 0.10239 0.71754 0.80779 0.0
N753 N 0.12925 0.57001 0.88066 0.0
H754 H 0.21751 0.66964 0.93143 0.0
H755 H 0.2012 0.61421 0.92229 0.0
H756 H 0.10571 0.54157 0.8699 0.0
H757 H 0.10571 0.54157 0.8699 0.0
H758 H 0.07516 0.71861 0.77966 0.0
H759 H 0.12966 0.74223 0.80478 0.0
H760 H 1.01937 0.67319 0.79049 0.0
H761 H 1.00532 0.61844 0.79454 0.0
C762 C 0.3576 0.19777 0.97713 0.0
C763 C 0.32031 0.16913 0.94799 0.0
C764 C 0.36166 0.11427 0.94659 0.0
C765 C 0.40158 0.14581 0.96207 0.0
N766 N 0.43774 0.21859 0.99264 0.0
N767 N 0.28468 0.09966 0.90706 0.0
C768 C 0.39971 0.18773 0.97922 0.0
C769 C 0.32141 0.12686 0.93472 0.0
N770 N 0.35248 0.23563 0.99909 0.0
N771 N 0.36206 0.0724 0.94465 0.0
H772 H 0.25429 0.10799 0.89998 0.0
H773 H 0.28492 0.06984 0.88925 0.0
H774 H 0.39062 0.06177 0.95581 0.0
H775 H 0.33331 0.04825 0.93834 0.0
H776 H 0.37737 0.25722 0.02466 0.0
H777 H 0.32146 0.24313 0.99578 0.0
H778 H 0.43801 0.25042 0.99995 0.0
H779 H 0.46944 0.21321 0.99226 0.0
C780 C 0.91645 0.36788 0.83269 0.0
C781 C 0.87479 0.35798 0.85584 0.0
C782 C 0.9089 0.41062 0.93545 0.0
C783 C 0.94953 0.41984 0.91071 0.0
N784 N 0.98673 0.41696 0.82805 0.0
N785 N 0.83061 0.3736 0.92756 0.0
C786 C 0.9517 0.40118 0.85731 0.0
C787 C 0.87073 0.38075 0.90667 0.0
N788 N 0.92315 0.34555 0.78639 0.0
N789 N 0.90715 0.42997 0.98678 0.0
H790 H 0.80311 0.3506 0.90927 0.0
H791 H 0.82369 0.39136 0.96145 0.0
H792 H 0.93333 0.45357 0.0066 0.0
H793 H 0.88085 0.4219 0.01074 0.0
H794 H 0.95441 0.34525 0.7744 0.0
H795 H 0.89742 0.32651 0.76097 0.0
H796 H 0.98743 0.40853 0.78573 0.0
H797 H 1.01323 0.44194 0.84384 0.0
C798 C 0.7361 0.88775 0.88752 0.0
C799 C 0.71953 0.85895 0.83913 0.0
C800 C 0.64698 0.87984 0.84048 0.0
C801 C 0.6644 0.91012 0.88655 0.0
N802 N 0.72838 0.94798 0.94775 0.0
N803 N 0.66076 0.8364 0.7623 0.0
C804 C 0.70996 0.91571 0.90776 0.0
C805 C 0.67538 0.8575 0.81374 0.0
N806 N 0.77575 0.88669 0.91656 0.0
N807 N 0.60256 0.87146 0.82277 0.0
H808 H 0.6798 0.82038 0.7403 0.0
H809 H 0.63158 0.83848 0.73867 0.0
H810 H 0.58148 0.88884 0.83871 0.0
H811 H 0.58624 0.8458 0.79487 0.0
H812 H 0.78757 0.90317 0.95545 0.0
H813 H 0.79496 0.86607 0.90452 0.0
H814 H 0.76215 0.95671 0.96176 0.0
H815 H 0.71028 0.96858 0.96319 0.0
C816 C 0.89979 0.71016 0.20643 0.0
C817 C 0.85497 0.70816 0.18568 0.0
C818 C 0.85853 0.65061 0.11563 0.0
C819 C 0.90566 0.65811 0.12852 0.0
N820 N 0.96894 0.68898 0.19618 0.0
N821 N 0.79311 0.67934 0.11563 0.0
C822 C 0.92559 0.68639 0.17682 0.0
C823 C 0.83488 0.67921 0.13895 0.0
N824 N 0.91719 0.73378 0.25571 0.0
N825 N 0.83517 0.61466 0.0848 0.0
H826 H 0.77437 0.69895 0.13183 0.0
H827 H 0.7788 0.66273 0.07749 0.0
H828 H 0.84913 0.59019 0.07194 0.0
H829 H 0.80058 0.60625 0.07873 0.0
H830 H 0.94833 0.73469 0.27648 0.0
H831 H 0.89906 0.75087 0.27824 0.0
H832 H 0.98817 0.71299 0.22449 0.0
H833 H 0.98554 0.666 0.18464 0.0
C834 C 0.37561 0.91476 0.16623 0.0
C835 C 0.36984 0.86927 0.16266 0.0
C836 C 0.44171 0.88339 0.11821 0.0
C837 C 0.44421 0.92804 0.11417 0.0
N838 N 0.40618 0.98321 0.13054 0.0
N839 N 0.39474 0.81254 0.11712 0.0
C840 C 0.40846 0.9424 0.13631 0.0
C841 C 0.40224 0.85455 0.13352 0.0
N842 N 0.35238 0.9328 0.20203 0.0
N843 N 0.47747 0.86735 0.10852 0.0
H844 H 0.36561 0.79089 0.12283 0.0
H845 H 0.41461 0.8003 0.09118 0.0
H846 H 0.50598 0.88436 0.09383 0.0
H847 H 0.47964 0.8371 0.1183 0.0
H848 H 0.3581 0.9653 0.21122 0.0
H849 H 0.33161 0.91562 0.22817 0.0
H850 H 0.37898 0.9949 0.13998 0.0
H851 H 0.4298 1.00423 0.1117 0.0
C852 C 0.67665 0.1404 0.19194 0.0
C853 C 0.69692 0.17964 0.17271 0.0
C854 C 0.63686 0.16912 0.09517 0.0
C855 C 0.61437 0.1316 0.11727 0.0
N856 N 0.60841 0.08777 0.19529 0.0
N857 N 0.69135 0.23511 0.11192 0.0
C858 C 0.63319 0.11867 0.16783 0.0
C859 C 0.67588 0.19482 0.12568 0.0
N860 N 0.69916 0.12375 0.23314 0.0
N861 N 0.62176 0.18024 0.04425 0.0
H862 H 0.72038 0.25479 0.13142 0.0
H863 H 0.67357 0.25031 0.08425 0.0
H864 H 0.59254 0.16414 0.02072 0.0
H865 H 0.64029 0.20359 0.02269 0.0
H866 H 0.68802 0.09343 0.2455 0.0
H867 H 0.73114 0.13878 0.2511 0.0
H868 H 0.61871 0.08016 0.23512 0.0
H869 H 0.57544 0.07303 0.18151 0.0
C870 C 0.62589 0.58025 0.76547 0.0
C871 C 0.66417 0.61065 0.78883 0.0
C872 C 0.65195 0.58983 0.88276 0.0
C873 C 0.60937 0.56566 0.86031 0.0
N874 N 0.56247 0.52495 0.78168 0.0
N875 N 0.72442 0.62808 0.86349 0.0
C876 C 0.5989 0.55604 0.80174 0.0
C877 C 0.68109 0.60964 0.84542 0.0
N878 N 0.61391 0.57793 0.70909 0.0
N879 N 0.66323 0.59659 0.93947 0.0
H880 H 0.74712 0.64093 0.83663 0.0
H881 H 0.73922 0.62558 0.90343 0.0
H882 H 0.64393 0.58091 0.96822 0.0
H883 H 0.69092 0.61905 0.95828 0.0
H884 H 0.58411 0.55962 0.68881 0.0
H885 H 0.63452 0.59554 0.68285 0.0
H886 H 0.55384 0.51479 0.7394 0.0
H887 H 0.54283 0.50698 0.80854 0.0
C888 C 0.34408 0.65389 0.85204 0.0
C889 C 0.36514 0.69337 0.83368 0.0
C890 C 0.43824 0.67906 0.8629 0.0
C891 C 0.41723 0.64145 0.88588 0.0
N892 N 0.34994 0.59599 0.90924 0.0
N893 N 0.43255 0.74698 0.83111 0.0
C894 C 0.37005 0.6298 0.88249 0.0
C895 C 0.4123 0.70693 0.84189 0.0
N896 N 0.29951 0.63817 0.83771 0.0
N897 N 0.48272 0.6871 0.85782 0.0
H898 H 0.41523 0.7685 0.81557 0.0
H899 H 0.46619 0.7603 0.84258 0.0
H900 H 0.50296 0.66729 0.87113 0.0
H901 H 0.49881 0.71127 0.83541 0.0
H902 H 0.28293 0.6077 0.84453 0.0
H903 H 0.27961 0.65402 0.81403 0.0
H904 H 0.3162 0.58871 0.91392 0.0
H905 H 0.36763 0.57739 0.93144 0.0
C906 C 0.38355 0.38744 0.87401 0.0
C907 C 0.39036 0.3487 0.85075 0.0
C908 C 0.46616 0.36771 0.89678 0.0
C909 C 0.45681 0.40161 0.92953 0.0
N910 N 0.4035 0.44245 0.95001 0.0
N911 N 0.4372 0.29911 0.84676 0.0
C912 C 0.41448 0.41107 0.91839 0.0
C913 C 0.43104 0.3375 0.86521 0.0
N914 N 0.34856 0.40264 0.85244 0.0
N915 N 0.50877 0.36809 0.88836 0.0
H916 H 0.41263 0.27656 0.8219 0.0
H917 H 0.46568 0.28889 0.86 0.0
H918 H 0.53357 0.39536 0.89939 0.0
H919 H 0.51749 0.34557 0.86185 0.0
H920 H 0.34466 0.4328 0.86373 0.0
H921 H 0.32542 0.38658 0.8197 0.0
H922 H 0.37142 0.4473 0.94801 0.0
H923 H 0.42555 0.4615 0.98136 0.0
C924 C 0.62024 0.39387 0.80382 0.0
C925 C 0.6297 0.35409 0.79471 0.0
C926 C 0.62137 0.33954 0.89136 0.0
C927 C 0.62125 0.38248 0.90393 0.0
N928 N 0.61041 0.44882 0.86989 0.0
N929 N 0.60314 0.28289 0.81768 0.0
C930 C 0.61732 0.40928 0.85941 0.0
C931 C 0.61923 0.32454 0.83474 0.0
N932 N 0.61277 0.41552 0.75835 0.0
N933 N 0.62453 0.31338 0.93314 0.0
H934 H 0.5955 0.27277 0.77509 0.0
H935 H 0.59203 0.26012 0.84502 0.0
H936 H 0.62746 0.32366 0.97557 0.0
H937 H 0.62824 0.28265 0.92543 0.0
H938 H 0.60294 0.44395 0.75992 0.0
H939 H 0.61345 0.40248 0.71777 0.0
H940 H 0.61314 0.47132 0.84073 0.0
H941 H 0.60191 0.45975 0.90785 0.0
C942 C 0.68027 0.36248 0.21911 0.0
C943 C 0.71325 0.34705 0.19164 0.0
C944 C 0.697 0.38933 0.11295 0.0
C945 C 0.65917 0.39711 0.13602 0.0
N946 N 0.61034 0.38391 0.208 0.0
N947 N 0.74309 0.34052 0.10099 0.0
C948 C 0.649 0.38067 0.18758 0.0
C949 C 0.71878 0.35874 0.13527 0.0
N950 N 0.68087 0.36406 0.27608 0.0
N951 N 0.71341 0.41195 0.07047 0.0
H952 H 0.75914 0.31696 0.11077 0.0
H953 H 0.74305 0.34562 0.05855 0.0
H954 H 0.69951 0.43548 0.05412 0.0
H955 H 0.74371 0.41063 0.05616 0.0
H956 H 0.65912 0.3774 0.29747 0.0
H957 H 0.70727 0.3594 0.3028 0.0
H958 H 0.59945 0.36889 0.24294 0.0
H959 H 0.5874 0.3982 0.18703 0.0
C960 C 0.66536 0.71388 0.09509 0.0
C961 C 0.68352 0.70455 0.1482 0.0
C962 C 0.63364 0.63431 0.13332 0.0
C963 C 0.62017 0.64113 0.07713 0.0
N964 N 0.63519 0.68531 1.00047 0.0
N965 N 0.69669 0.64727 0.20306 0.0
C966 C 0.63975 0.68026 0.05656 0.0
C967 C 0.67142 0.66216 0.16292 0.0
N968 N 0.67007 0.75454 0.08187 0.0
N969 N 0.60926 0.60314 0.16041 0.0
H970 H 0.72801 0.66419 0.22074 0.0
H971 H 0.68939 0.6157 0.21213 0.0
H972 H 0.578 0.58565 0.14359 0.0
H973 H 0.61728 0.59947 0.20272 0.0
H974 H 0.65396 0.76194 0.0452 0.0
H975 H 0.68483 0.78051 0.10997 0.0
H976 H 0.65224 0.71211 0.98342 0.0
H977 H 0.61895 0.66094 0.97055 0.0
C978 C 0.43902 0.66574 0.21069 0.0
C979 C 0.39309 0.66407 0.20295 0.0
C980 C 0.38812 0.63545 0.10602 0.0
C981 C 0.4338 0.63556 0.11431 0.0
N982 N 0.49845 0.6369 0.17988 0.0
N983 N 0.32166 0.63556 0.1506 0.0
C984 C 0.45804 0.64635 0.16838 0.0
C985 C 0.36686 0.64474 0.15292 0.0
N986 N 0.46489 0.68775 0.25674 0.0
N987 N 0.36579 0.62919 0.05334 0.0
H988 H 0.30551 0.64127 0.18535 0.0
H989 H 0.30072 0.61845 0.11654 0.0
H990 H 0.38118 0.62479 0.01759 0.0
H991 H 0.33341 0.63272 0.04477 0.0
H992 H 0.49945 0.69368 0.26116 0.0
H993 H 0.45213 0.70302 0.28831 0.0
H994 H 0.5154 0.64089 0.22012 0.0
H995 H 0.51264 0.62067 0.15076 0.0
C996 C 0.40246 0.4597 0.17251 0.0
C997 C 0.41548 0.46224 0.23042 0.0
C998 C 0.48857 0.50313 0.21437 0.0
C999 C 0.4795 0.48634 0.15722 0.0
N1000 N 0.42711 0.44092 0.0856 0.0
N1001 N 0.46663 0.49586 0.3086 0.0
C1002 C 0.43585 0.46348 0.13651 0.0
C1003 C 0.45675 0.48884 0.25188 0.0
N1004 N 0.35875 0.45066 0.1521 0.0
N1005 N 0.52755 0.53133 0.23282 0.0
H1006 H 0.4427 0.48505 0.33537 0.0
H1007 H 0.49795 0.5107 0.32857 0.0
H1008 H 0.552 0.541 0.20671 0.0
H1009 H 0.5343 0.54709 0.27273 0.0
H1010 H 0.34831 0.44966 0.10937 0.0
H1011 H 0.334 0.4505 0.1784 0.0
H1012 H 0.39607 0.42133 0.07146 0.0
H1013 H 0.4521 0.43715 0.06148 0.0
C1014 C 0.89799 0.72615 0.65335 0.0
C1015 C 0.85189 0.71043 0.6592 0.0
C1016 C 0.86368 0.6377 0.64606 0.0
C1017 C 0.9102 0.65335 0.64441 0.0
N1018 N 0.97225 0.7136 0.65236 0.0
N1019 N 0.78993 0.65093 0.63261 0.0
C1020 C 0.92748 0.69791 0.65017 0.0
C1021 C 0.83442 0.66603 0.64783 0.0
N1022 N 0.91262 0.76756 0.64362 0.0
N1023 N 0.84733 0.59534 0.64829 0.0
H1024 H 0.76848 0.67066 0.62417 0.0
H1025 H 0.77555 0.61949 0.61905 0.0
H1026 H 0.86745 0.57372 0.64884 0.0
H1027 H 0.81488 0.58224 0.65595 0.0
H1028 H 0.94467 0.78089 0.63485 0.0
H1029 H 0.89089 0.78698 0.635 0.0
H1030 H 0.98775 0.7451 0.66406 0.0
H1031 H 0.99453 0.69462 0.64677 0.0
C1032 C 0.42322 0.85948 0.55252 0.0
C1033 C 0.42992 0.85112 0.6087 0.0
C1034 C 0.46547 0.92547 0.63597 0.0
C1035 C 0.45664 0.93396 0.57932 0.0
N1036 N 0.44861 0.90473 0.48287 0.0
N1037 N 0.46205 0.87206 0.70356 0.0
C1038 C 0.44175 0.89984 0.53717 0.0
C1039 C 0.45351 0.88295 0.65028 0.0
N1040 N 0.39711 0.82936 0.51407 0.0
N1041 N 0.48542 0.95788 0.67526 0.0
H1042 H 0.45387 0.84071 0.71354 0.0
H1043 H 0.47812 0.89303 0.73734 0.0
H1044 H 0.49383 0.98931 0.66586 0.0
H1045 H 0.49483 0.95402 0.71686 0.0
H1046 H 0.38629 0.83588 0.47383 0.0
H1047 H 0.38372 0.79864 0.52364 0.0
H1048 H 0.44182 0.8798 0.45173 0.0
H1049 H 0.46783 0.93203 0.47128 0.0
C1050 C 0.21249 0.35224 0.53429 0.0
C1051 C 0.2571 0.37484 0.54549 0.0
C1052 C 0.23506 0.43883 0.52235 0.0
C1053 C 0.19017 0.41896 0.52967 0.0
N1054 N 0.13701 0.35463 0.54542 0.0
N1055 N 0.31207 0.44016 0.54905 0.0
C1056 C 0.17857 0.3747 0.53479 0.0
C1057 C 0.26894 0.41808 0.53766 0.0
N1058 N 0.20323 0.30925 0.5281 0.0
N1059 N 0.24567 0.47698 0.50018 0.0
H1060 H 0.3382 0.4258 0.55872 0.0
H1061 H 0.32146 0.47304 0.55181 0.0
H1062 H 0.2223 0.49292 0.48482 0.0
H1063 H 0.27739 0.49015 0.48993 0.0
H1064 H 0.17137 0.29058 0.51629 0.0
H1065 H 0.22868 0.2931 0.52926 0.0
H1066 H 0.1289 0.32309 0.55424 0.0
H1067 H 0.11171 0.36992 0.55136 0.0
C1068 C 0.67803 0.1853 0.58588 0.0
C1069 C 0.70444 0.18126 0.63598 0.0
C1070 C 0.67869 0.10342 0.61936 0.0
C1071 C 0.64983 0.10748 0.5717 0.0
N1072 N 0.6144 0.15365 0.5182 0.0
N1073 N 0.71542 0.13539 0.70902 0.0
C1074 C 0.64701 0.14886 0.55779 0.0
C1075 C 0.70112 0.13998 0.6548 0.0
N1076 N 0.6837 0.22342 0.56348 0.0
N1077 N 0.68339 0.06444 0.63298 0.0
H1078 H 0.70956 0.1066 0.72695 0.0
H1079 H 0.72751 0.16083 0.73836 0.0
H1080 H 0.66376 0.03626 0.6133 0.0
H1081 H 0.70868 0.06026 0.66232 0.0
H1082 H 0.66858 0.22734 0.52419 0.0
H1083 H 0.70677 0.25032 0.58165 0.0
H1084 H 0.60739 0.18279 0.51109 0.0
H1085 H 0.59262 0.12824 0.49471 0.0
C1086 C 0.84657 0.40369 0.38238 0.0
C1087 C 0.86604 0.37596 0.35136 0.0
C1088 C 0.9354 0.43152 0.36305 0.0
C1089 C 0.91796 0.45489 0.40354 0.0
N1090 N 0.86045 0.44674 0.4682 0.0
N1091 N 0.93547 0.36385 0.32111 0.0
C1092 C 0.87446 0.43664 0.41808 0.0
C1093 C 0.91218 0.38954 0.34468 0.0
N1094 N 0.80174 0.39981 0.37753 0.0
N1095 N 0.97398 0.44844 0.34157 0.0
H1096 H 0.92265 0.33198 0.30858 0.0
H1097 H 0.92265 0.33198 0.30858 0.0
H1098 H 0.98922 0.4805 0.34647 0.0
H1099 H 0.98769 0.43105 0.31311 0.0
H1100 H 0.78747 0.42155 0.39827 0.0
H1101 H 0.77992 0.37921 0.34733 0.0
H1102 H 0.82925 0.43212 0.47893 0.0
H1103 H 0.88166 0.46248 0.50275 0.0
C1104 C 0.66418 0.86187 0.29716 0.0
C1105 C 0.70516 0.85771 0.32476 0.0
C1106 C 0.6984 0.91037 0.4004 0.0
C1107 C 0.65642 0.91382 0.37335 0.0
N1108 N 0.61299 0.90716 0.2829 0.0
N1109 N 0.76757 0.88858 0.39271 0.0
C1110 C 0.64321 0.89358 0.31791 0.0
C1111 C 0.72391 0.8848 0.37379 0.0
N1112 N 0.64473 0.83523 0.25115 0.0
N1113 N 0.71476 0.93161 0.45121 0.0
H1114 H 0.78775 0.87284 0.3719 0.0
H1115 H 0.78506 0.91062 0.42475 0.0
H1116 H 0.70381 0.95723 0.46668 0.0
H1117 H 0.73987 0.924 0.47763 0.0
H1118 H 0.6126 0.83377 0.23284 0.0
H1119 H 0.65924 0.81219 0.23415 0.0
H1120 H 0.60488 0.89627 0.24073 0.0
H1121 H 0.60107 0.93365 0.29362 0.0
C1122 C 0.17687 0.70184 0.4021 0.0
C1123 C 0.18134 0.7008 0.34296 0.0
C1124 C 0.12006 0.6336 0.33476 0.0
C1125 C 0.11925 0.63134 0.39432 0.0
N1126 N 0.15572 0.66342 0.48394 0.0
N1127 N 0.16259 0.65586 0.25727 0.0
C1128 C 0.14988 0.66595 0.42756 0.0
C1129 C 0.15408 0.66399 0.31079 0.0
N1130 N 0.19895 0.7373 0.43477 0.0
N1131 N 0.08743 0.60645 0.29984 0.0
H1132 H 0.18868 0.67485 0.24007 0.0
H1133 H 0.14757 0.62792 0.23285 0.0
H1134 H 0.06181 0.58499 0.31491 0.0
H1135 H 0.08302 0.60863 0.25666 0.0
H1136 H 0.19454 0.74268 0.47672 0.0
H1137 H 0.21905 0.7628 0.41832 0.0
H1138 H 0.18018 0.68428 0.51101 0.0
H1139 H 0.13809 0.63785 0.50252 0.0
C1140 C 0.32312 0.20525 0.41574 0.0
C1141 C 0.34516 0.23644 0.38262 0.0
C1142 C 0.41376 0.21046 0.40186 0.0
C1143 C 0.39085 0.17664 0.43041 0.0
N1144 N 0.32471 0.14509 0.47131 0.0
N1145 N 0.41763 0.28159 0.37619 0.0
C1146 C 0.3458 0.17526 0.4396 0.0
C1147 C 0.39236 0.24304 0.38508 0.0
N1148 N 0.28188 0.20715 0.42889 0.0
N1149 N 0.45534 0.21073 0.38786 0.0
H1150 H 0.40483 0.30834 0.37407 0.0
H1151 H 0.45223 0.28869 0.3809 0.0
H1152 H 0.47222 0.18757 0.39824 0.0
H1153 H 0.47132 0.2319 0.36136 0.0
H1154 H 0.26427 0.1876 0.4555 0.0
H1155 H 0.26698 0.23154 0.41767 0.0
H1156 H 0.29079 0.13795 0.47449 0.0
H1157 H 0.34144 0.12642 0.49475 0.0
C1158 C 0.69143 0.8304 0.58263 0.0
C1159 C 0.71612 0.84453 0.63626 0.0
C1160 C 0.68547 0.90873 0.63473 0.0
C1161 C 0.66596 0.89763 0.57858 0.0
N1162 N 0.65252 0.84788 0.49726 0.0
N1163 N 0.74176 0.90348 0.7078 0.0
C1164 C 0.66916 0.85819 0.5522 0.0
C1165 C 0.71479 0.88553 0.66035 0.0
N1166 N 0.68965 0.79055 0.56018 0.0
N1167 N 0.67398 0.94043 0.66548 0.0
H1168 H 0.76252 0.88867 0.73103 0.0
H1169 H 0.74628 0.93515 0.72191 0.0
H1170 H 0.65121 0.95706 0.64957 0.0
H1171 H 0.68263 0.94665 0.70864 0.0
H1172 H 0.66843 0.77623 0.5248 0.0
H1173 H 0.70788 0.77076 0.57871 0.0
H1174 H 0.65835 0.82262 0.47303 0.0
H1175 H 0.63512 0.86639 0.47459 0.0
C1176 C 0.60033 0.1686 0.36249 0.0
C1177 C 0.64307 0.17755 0.39378 0.0
C1178 C 0.64063 0.10252 0.39144 0.0
C1179 C 0.59509 0.0933 0.37059 0.0
N1180 N 0.5301 0.11738 0.33873 0.0
N1181 N 0.69972 0.15282 0.44787 0.0
C1182 C 0.57445 0.1264 0.35668 0.0
C1183 C 0.6615 0.14418 0.41183 0.0
N1184 N 0.58541 0.1994 0.33591 0.0
N1185 N 0.66406 0.0718 0.39191 0.0
H1186 H 0.7153 0.18355 0.4641 0.0
H1187 H 0.71283 0.12941 0.46611 0.0
H1188 H 0.65118 0.04142 0.37302 0.0
H1189 H 0.69815 0.07812 0.40398 0.0
H1190 H 0.55638 0.19322 0.3082 0.0
H1191 H 0.60358 0.23048 0.33773 0.0
H1192 H 0.51207 0.14052 0.33399 0.0
H1193 H 0.51126 0.08636 0.331 0.0
C1194 C 0.80571 0.65792 0.46812 0.0
C1195 C 0.77467 0.63926 0.42235 0.0
C1196 C 0.80395 0.57587 0.42134 0.0
C1197 C 0.84028 0.59815 0.46003 0.0
N1198 N 0.87918 0.66385 0.51352 0.0
N1199 N 0.74287 0.58162 0.35346 0.0
C1200 C 0.84203 0.64002 0.48215 0.0
C1201 C 0.77274 0.59807 0.39907 0.0
N1202 N 0.80115 0.69402 0.49618 0.0
N1203 N 0.80013 0.5343 0.40468 0.0
H1204 H 0.71917 0.5973 0.33761 0.0
H1205 H 0.74283 0.55373 0.33007 0.0
H1206 H 0.824 0.51783 0.41724 0.0
H1207 H 0.77214 0.51552 0.38081 0.0
H1208 H 0.82072 0.70762 0.53316 0.0
H1209 H 0.77463 0.70776 0.4852 0.0
H1210 H 0.88328 0.69585 0.52539 0.0
H1211 H 0.90795 0.65346 0.52302 0.0
C1212 C 0.38778 0.8944 0.34449 0.0
C1213 C 0.34768 0.87523 0.36628 0.0
C1214 C 0.36013 0.93645 0.43621 0.0
C1215 C 0.39812 0.957 0.41087 0.0
N1216 N 0.43858 0.95995 0.33008 0.0
N1217 N 0.29334 0.87986 0.42969 0.0
C1218 C 0.40912 0.93716 0.36191 0.0
C1219 C 0.3332 0.89694 0.41116 0.0
N1220 N 0.40623 0.87204 0.30746 0.0
N1221 N 0.35034 0.95362 0.48523 0.0
H1222 H 0.27471 0.84955 0.41589 0.0
H1223 H 0.27773 0.89635 0.45668 0.0
H1224 H 0.36607 0.98368 0.50296 0.0
H1225 H 0.3277 0.93719 0.50997 0.0
H1226 H 0.43753 0.88354 0.29484 0.0
H1227 H 0.39326 0.84046 0.29408 0.0
H1228 H 0.44424 0.9486 0.29067 0.0
H1229 H 0.45316 0.99199 0.33969 0.0
C1230 C 0.23862 0.41293 0.36735 0.0
C1231 C 0.2203 0.36834 0.35829 0.0
C1232 C 0.1501 0.38224 0.39006 0.0
C1233 C 0.16648 0.42691 0.38925 0.0
N1234 N 0.22521 0.48348 0.36753 0.0
N1235 N 0.16095 0.31075 0.37645 0.0
C1236 C 0.2104 0.44173 0.37524 0.0
C1237 C 0.17661 0.35317 0.37415 0.0
N1238 N 0.28359 0.42813 0.37347 0.0
N1239 N 0.10958 0.36752 0.40842 0.0
H1240 H 0.18201 0.29014 0.38069 0.0
H1241 H 0.12765 0.29599 0.37672 0.0
H1242 H 0.08899 0.38704 0.41944 0.0
H1243 H 0.09675 0.33632 0.41592 0.0
H1244 H 0.29877 0.45987 0.38418 0.0
H1245 H 0.30575 0.40862 0.37773 0.0
H1246 H 0.25489 0.49535 0.35105 0.0
H1247 H 0.20607 0.50555 0.37298 0.0
C1248 C 0.39943 0.20744 0.66662 0.0
C1249 C 0.35431 0.19458 0.67712 0.0
C1250 C 0.35049 0.12435 0.62842 0.0
C1251 C 0.3949 0.138 0.61542 0.0
N1252 N 0.45875 0.19537 0.61345 0.0
N1253 N 0.28436 0.14331 0.6576 0.0
C1254 C 0.41845 0.18041 0.63212 0.0
C1255 C 0.32917 0.1537 0.65509 0.0
N1256 N 0.42481 0.24501 0.69148 0.0
N1257 N 0.32912 0.08277 0.61765 0.0
H1258 H 0.26757 0.16338 0.67696 0.0
H1259 H 0.26326 0.11639 0.63642 0.0
H1260 H 0.34314 0.06051 0.59787 0.0
H1261 H 0.29893 0.06964 0.6321 0.0
H1262 H 0.45907 0.25425 0.69117 0.0
H1263 H 0.41223 0.2656 0.71665 0.0
H1264 H 0.47559 0.22702 0.61855 0.0
H1265 H 0.47363 0.1768 0.58821 0.0
C1266 C 0.8867 0.35781 0.60062 0.0
C1267 C 0.86968 0.36085 0.65419 0.0
C1268 C 0.92141 0.43413 0.66763 0.0
C1269 C 0.9334 0.43425 0.61122 0.0
N1270 N 0.9236 0.39207 0.52336 0.0
N1271 N 0.86794 0.40974 0.73284 0.0
C1272 C 0.91511 0.39462 0.57785 0.0
C1273 C 0.88616 0.40138 0.68533 0.0
N1274 N 0.87544 0.31941 0.57065 0.0
N1275 N 0.94608 0.46445 0.70689 0.0
H1276 H 0.8439 0.38765 0.74905 0.0
H1277 H 0.87415 0.43982 0.75353 0.0
H1278 H 0.97442 0.48603 0.69823 0.0
H1279 H 0.94234 0.46444 0.7495 0.0
H1280 H 0.88939 0.31253 0.53462 0.0
H1281 H 0.85427 0.29337 0.58455 0.0
H1282 H 0.90777 0.36715 0.49413 0.0
H1283 H 0.94476 0.41643 0.50643 0.0
C1284 C 0.1623 0.67528 0.65333 0.0
C1285 C 0.20568 0.67064 0.67175 0.0
C1286 C 0.18259 0.59557 0.63844 0.0
C1287 C 0.14294 0.60214 0.60982 0.0
N1288 N 0.09531 0.64985 0.58915 0.0
N1289 N 0.2577 0.62596 0.68102 0.0
C1290 C 0.13239 0.64223 0.6179 0.0
C1291 C 0.21608 0.6307 0.66373 0.0
N1292 N 0.14957 0.71126 0.6693 0.0
N1293 N 0.18668 0.55533 0.64524 0.0
H1294 H 0.28237 0.64998 0.70317 0.0
H1295 H 0.26849 0.59883 0.6704 0.0
H1296 H 0.16035 0.5293 0.63316 0.0
H1297 H 0.21319 0.54813 0.66946 0.0
H1298 H 0.11686 0.71427 0.66321 0.0
H1299 H 0.17084 0.73712 0.69261 0.0
H1300 H 0.08869 0.6797 0.58805 0.0
H1301 H 0.07318 0.62727 0.56175 0.0
loop_
_geom_bond_atom_site_label_1
_geom_bond_atom_site_label_2
_geom_bond_distance
_geom_bond_site_symmetry_2
_ccdc_geom_bond_type
Co0 N5 2.057 . S
Co0 O17 2.021 . S
Co0 O20 2.062 . S
Co0 O24 2.117 . S
Co0 O25 2.020 . S
C1 O21 1.259 . S
C1 O24 1.258 . S
Co2 N11 2.057 . S
Co2 O18 2.117 . S
Co2 O19 2.020 . S
Co2 O21 2.021 . S
Co2 O26 2.062 . S
C3 N5 1.316 . S
C3 N6 1.347 . S
C3 H8 0.931 . S
C4 N5 1.375 . S
C4 C7 1.350 . S
C4 H9 0.930 . S
N5 Co0 2.057 . S
N5 C3 1.316 . S
N5 C4 1.375 . S
N6 C3 1.347 . S
N6 C7 1.373 . S
C7 C4 1.350 . S
C7 N6 1.373 . S
C7 H28 0.931 . S
H8 C3 0.931 . S
H9 C4 0.930 . S
C10 O17 1.259 . S
C10 O18 1.258 . S
N11 Co2 2.057 . S
N11 C12 1.316 . S
N11 C13 1.375 . S
C12 N11 1.316 . S
C12 N14 1.347 . S
C12 H23 0.931 . S
C13 N11 1.375 . S
C13 C15 1.350 . S
C13 H22 0.930 . S
N14 C12 1.347 . S
N14 C15 1.373 . S
C15 C13 1.350 . S
C15 N14 1.373 . S
C15 H29 0.931 . S
C16 O19 1.256 . S
C16 O20 1.255 . S
O17 Co0 2.021 . S
O17 C10 1.259 . S
O18 Co2 2.117 . S
O18 C10 1.258 . S
O19 Co2 2.020 . S
O19 C16 1.256 . S
O20 Co0 2.062 . S
O20 C16 1.255 . S
O21 C1 1.259 . S
O21 Co2 2.021 . S
H22 C13 0.930 . S
H23 C12 0.931 . S
O24 Co0 2.117 . S
O24 C1 1.258 . S
O25 Co0 2.020 . S
O25 C27 1.256 . S
O26 Co2 2.062 . S
O26 C27 1.255 . S
C27 O25 1.256 . S
C27 O26 1.255 . S
H28 C7 0.931 . S
H29 C15 0.931 . S
Co30 N35 2.057 . S
Co30 O47 2.021 . S
Co30 O50 2.062 . S
Co30 O54 2.117 . S
Co30 O55 2.020 . S
C31 O51 1.259 . S
C31 O54 1.258 . S
Co32 N41 2.057 . S
Co32 O48 2.117 . S
Co32 O49 2.020 . S
Co32 O51 2.021 . S
Co32 O56 2.062 . S
C33 N35 1.316 . S
C33 N36 1.347 . S
C33 H38 0.931 . S
C34 N35 1.375 . S
C34 C37 1.350 . S
C34 H39 0.930 . S
N35 Co30 2.057 . S
N35 C33 1.316 . S
N35 C34 1.375 . S
N36 C33 1.347 . S
N36 C37 1.373 . S
C37 C34 1.350 . S
C37 N36 1.373 . S
C37 H58 0.931 . S
H38 C33 0.931 . S
H39 C34 0.930 . S
C40 O47 1.259 . S
C40 O48 1.258 . S
N41 Co32 2.057 . S
N41 C42 1.316 . S
N41 C43 1.375 . S
C42 N41 1.316 . S
C42 N44 1.347 . S
C42 H53 0.931 . S
C43 N41 1.375 . S
C43 C45 1.350 . S
C43 H52 0.930 . S
N44 C42 1.347 . S
N44 C45 1.373 . S
C45 C43 1.350 . S
C45 N44 1.373 . S
C45 H59 0.931 . S
C46 O49 1.256 . S
C46 O50 1.255 . S
O47 Co30 2.021 . S
O47 C40 1.259 . S
O48 Co32 2.117 . S
O48 C40 1.258 . S
O49 Co32 2.020 . S
O49 C46 1.256 . S
O50 Co30 2.062 . S
O50 C46 1.255 . S
O51 C31 1.259 . S
O51 Co32 2.021 . S
H52 C43 0.930 . S
H53 C42 0.931 . S
O54 Co30 2.117 . S
O54 C31 1.258 . S
O55 Co30 2.020 . S
O55 C57 1.256 . S
O56 Co32 2.062 . S
O56 C57 1.255 . S
C57 O55 1.256 . S
C57 O56 1.255 . S
H58 C37 0.931 . S
H59 C45 0.931 . S
Co60 N65 2.057 . S
Co60 O77 2.021 . S
Co60 O80 2.062 . S
Co60 O84 2.117 . S
Co60 O85 2.020 . S
C61 O81 1.259 . S
C61 O84 1.258 . S
Co62 N71 2.057 . S
Co62 O78 2.117 . S
Co62 O79 2.020 . S
Co62 O81 2.021 . S
Co62 O86 2.062 . S
C63 N65 1.316 . S
C63 N66 1.347 . S
C63 H68 0.931 . S
C64 N65 1.375 . S
C64 C67 1.350 . S
C64 H69 0.930 . S
N65 Co60 2.057 . S
N65 C63 1.316 . S
N65 C64 1.375 . S
N66 C63 1.347 . S
N66 C67 1.373 . S
C67 C64 1.350 . S
C67 N66 1.373 . S
C67 H88 0.931 . S
H68 C63 0.931 . S
H69 C64 0.930 . S
C70 O77 1.259 . S
C70 O78 1.258 . S
N71 Co62 2.057 . S
N71 C72 1.316 . S
N71 C73 1.375 . S
C72 N71 1.316 . S
C72 N74 1.347 . S
C72 H83 0.931 . S
C73 N71 1.375 . S
C73 C75 1.350 . S
C73 H82 0.930 . S
N74 C72 1.347 . S
N74 C75 1.373 . S
C75 C73 1.350 . S
C75 N74 1.373 . S
C75 H89 0.931 . S
C76 O79 1.256 . S
C76 O80 1.255 . S
O77 Co60 2.021 . S
O77 C70 1.259 . S
O78 Co62 2.117 . S
O78 C70 1.258 . S
O79 Co62 2.020 . S
O79 C76 1.256 . S
O80 Co60 2.062 . S
O80 C76 1.255 . S
O81 C61 1.259 . S
O81 Co62 2.021 . S
H82 C73 0.930 . S
H83 C72 0.931 . S
O84 Co60 2.117 . S
O84 C61 1.258 . S
O85 Co60 2.020 . S
O85 C87 1.256 . S
O86 Co62 2.062 . S
O86 C87 1.255 . S
C87 O85 1.256 . S
C87 O86 1.255 . S
H88 C67 0.931 . S
H89 C75 0.931 . S
Co90 N95 2.057 . S
Co90 O107 2.021 . S
Co90 O110 2.062 . S
Co90 O114 2.117 . S
Co90 O115 2.020 . S
C91 O111 1.259 . S
C91 O114 1.258 . S
Co92 N101 2.057 . S
Co92 O108 2.117 . S
Co92 O109 2.020 . S
Co92 O111 2.021 . S
Co92 O116 2.062 . S
C93 N95 1.316 . S
C93 N96 1.347 . S
C93 H98 0.931 . S
C94 N95 1.375 . S
C94 C97 1.350 . S
C94 H99 0.930 . S
N95 Co90 2.057 . S
N95 C93 1.316 . S
N95 C94 1.375 . S
N96 C93 1.347 . S
N96 C97 1.373 . S
C97 C94 1.350 . S
C97 N96 1.373 . S
C97 H118 0.931 . S
H98 C93 0.931 . S
H99 C94 0.930 . S
C100 O107 1.259 . S
C100 O108 1.258 . S
N101 Co92 2.057 . S
N101 C102 1.316 . S
N101 C103 1.375 . S
C102 N101 1.316 . S
C102 N104 1.347 . S
C102 H113 0.931 . S
C103 N101 1.375 . S
C103 C105 1.350 . S
C103 H112 0.930 . S
N104 C102 1.347 . S
N104 C105 1.373 . S
C105 C103 1.350 . S
C105 N104 1.373 . S
C105 H119 0.931 . S
C106 O109 1.256 . S
C106 O110 1.255 . S
O107 Co90 2.021 . S
O107 C100 1.259 . S
O108 Co92 2.117 . S
O108 C100 1.258 . S
O109 Co92 2.020 . S
O109 C106 1.256 . S
O110 Co90 2.062 . S
O110 C106 1.255 . S
O111 C91 1.259 . S
O111 Co92 2.021 . S
H112 C103 0.930 . S
H113 C102 0.931 . S
O114 Co90 2.117 . S
O114 C91 1.258 . S
O115 Co90 2.020 . S
O115 C117 1.256 . S
O116 Co92 2.062 . S
O116 C117 1.255 . S
C117 O115 1.256 . S
C117 O116 1.255 . S
H118 C97 0.931 . S
H119 C105 0.931 . S
Co120 N125 2.057 . S
Co120 O137 2.021 . S
Co120 O140 2.062 . S
Co120 O144 2.117 . S
Co120 O145 2.020 . S
C121 O141 1.259 . S
C121 O144 1.258 . S
Co122 N131 2.057 . S
Co122 O138 2.117 . S
Co122 O139 2.020 . S
Co122 O141 2.021 . S
Co122 O146 2.062 . S
C123 N125 1.316 . S
C123 N126 1.347 . S
C123 H128 0.931 . S
C124 N125 1.375 . S
C124 C127 1.350 . S
C124 H129 0.930 . S
N125 Co120 2.057 . S
N125 C123 1.316 . S
N125 C124 1.375 . S
N126 C123 1.347 . S
N126 C127 1.373 . S
C127 C124 1.350 . S
C127 N126 1.373 . S
C127 H148 0.931 . S
H128 C123 0.931 . S
H129 C124 0.930 . S
C130 O137 1.259 . S
C130 O138 1.258 . S
N131 Co122 2.057 . S
N131 C132 1.316 . S
N131 C133 1.375 . S
C132 N131 1.316 . S
C132 N134 1.347 . S
C132 H143 0.931 . S
C133 N131 1.375 . S
C133 C135 1.350 . S
C133 H142 0.930 . S
N134 C132 1.347 . S
N134 C135 1.373 . S
C135 C133 1.350 . S
C135 N134 1.373 . S
C135 H149 0.931 . S
C136 O139 1.256 . S
C136 O140 1.255 . S
O137 Co120 2.021 . S
O137 C130 1.259 . S
O138 Co122 2.117 . S
O138 C130 1.258 . S
O139 Co122 2.020 . S
O139 C136 1.256 . S
O140 Co120 2.062 . S
O140 C136 1.255 . S
O141 C121 1.259 . S
O141 Co122 2.021 . S
H142 C133 0.930 . S
H143 C132 0.931 . S
O144 Co120 2.117 . S
O144 C121 1.258 . S
O145 Co120 2.020 . S
O145 C147 1.256 . S
O146 Co122 2.062 . S
O146 C147 1.255 . S
C147 O145 1.256 . S
C147 O146 1.255 . S
H148 C127 0.931 . S
H149 C135 0.931 . S
Co150 N155 2.057 . S
Co150 O167 2.021 . S
Co150 O170 2.062 . S
Co150 O174 2.117 . S
Co150 O175 2.020 . S
C151 O171 1.259 . S
C151 O174 1.258 . S
Co152 N161 2.057 . S
Co152 O168 2.117 . S
Co152 O169 2.020 . S
Co152 O171 2.021 . S
Co152 O176 2.062 . S
C153 N155 1.316 . S
C153 N156 1.347 . S
C153 H158 0.931 . S
C154 N155 1.375 . S
C154 C157 1.350 . S
C154 H159 0.930 . S
N155 Co150 2.057 . S
N155 C153 1.316 . S
N155 C154 1.375 . S
N156 C153 1.347 . S
N156 C157 1.373 . S
C157 C154 1.350 . S
C157 N156 1.373 . S
C157 H178 0.931 . S
H158 C153 0.931 . S
H159 C154 0.930 . S
C160 O167 1.259 . S
C160 O168 1.258 . S
N161 Co152 2.057 . S
N161 C162 1.316 . S
N161 C163 1.375 . S
C162 N161 1.316 . S
C162 N164 1.347 . S
C162 H173 0.931 . S
C163 N161 1.375 . S
C163 C165 1.350 . S
C163 H172 0.930 . S
N164 C162 1.347 . S
N164 C165 1.373 . S
C165 C163 1.350 . S
C165 N164 1.373 . S
C165 H179 0.931 . S
C166 O169 1.256 . S
C166 O170 1.255 . S
O167 Co150 2.021 . S
O167 C160 1.259 . S
O168 Co152 2.117 . S
O168 C160 1.258 . S
O169 Co152 2.020 . S
O169 C166 1.256 . S
O170 Co150 2.062 . S
O170 C166 1.255 . S
O171 C151 1.259 . S
O171 Co152 2.021 . S
H172 C163 0.930 . S
H173 C162 0.931 . S
O174 Co150 2.117 . S
O174 C151 1.258 . S
O175 Co150 2.020 . S
O175 C177 1.256 . S
O176 Co152 2.062 . S
O176 C177 1.255 . S
C177 O175 1.256 . S
C177 O176 1.255 . S
H178 C157 0.931 . S
H179 C165 0.931 . S
Co180 N185 2.057 . S
Co180 O197 2.021 . S
Co180 O200 2.062 . S
Co180 O204 2.117 . S
Co180 O205 2.020 . S
C181 O201 1.259 . S
C181 O204 1.258 . S
Co182 N191 2.057 . S
Co182 O198 2.117 . S
Co182 O199 2.020 . S
Co182 O201 2.021 . S
Co182 O206 2.062 . S
C183 N185 1.316 . S
C183 N186 1.347 . S
C183 H188 0.931 . S
C184 N185 1.375 . S
C184 C187 1.350 . S
C184 H189 0.930 . S
N185 Co180 2.057 . S
N185 C183 1.316 . S
N185 C184 1.375 . S
N186 C183 1.347 . S
N186 C187 1.373 . S
C187 C184 1.350 . S
C187 N186 1.373 . S
C187 H208 0.931 . S
H188 C183 0.931 . S
H189 C184 0.930 . S
C190 O197 1.259 . S
C190 O198 1.258 . S
N191 Co182 2.057 . S
N191 C192 1.316 . S
N191 C193 1.375 . S
C192 N191 1.316 . S
C192 N194 1.347 . S
C192 H203 0.931 . S
C193 N191 1.375 . S
C193 C195 1.350 . S
C193 H202 0.930 . S
N194 C192 1.347 . S
N194 C195 1.373 . S
C195 C193 1.350 . S
C195 N194 1.373 . S
C195 H209 0.931 . S
C196 O199 1.256 . S
C196 O200 1.255 . S
O197 Co180 2.021 . S
O197 C190 1.259 . S
O198 Co182 2.117 . S
O198 C190 1.258 . S
O199 Co182 2.020 . S
O199 C196 1.256 . S
O200 Co180 2.062 . S
O200 C196 1.255 . S
O201 C181 1.259 . S
O201 Co182 2.021 . S
H202 C193 0.930 . S
H203 C192 0.931 . S
O204 Co180 2.117 . S
O204 C181 1.258 . S
O205 Co180 2.020 . S
O205 C207 1.256 . S
O206 Co182 2.062 . S
O206 C207 1.255 . S
C207 O205 1.256 . S
C207 O206 1.255 . S
H208 C187 0.931 . S
H209 C195 0.931 . S
Co210 N215 2.057 . S
Co210 O227 2.021 . S
Co210 O230 2.062 . S
Co210 O234 2.117 . S
Co210 O235 2.020 . S
C211 O231 1.259 . S
C211 O234 1.258 . S
Co212 N221 2.057 . S
Co212 O228 2.117 . S
Co212 O229 2.020 . S
Co212 O231 2.021 . S
Co212 O236 2.062 . S
C213 N215 1.316 . S
C213 N216 1.347 . S
C213 H218 0.931 . S
C214 N215 1.375 . S
C214 C217 1.350 . S
C214 H219 0.930 . S
N215 Co210 2.057 . S
N215 C213 1.316 . S
N215 C214 1.375 . S
N216 C213 1.347 . S
N216 C217 1.373 . S
C217 C214 1.350 . S
C217 N216 1.373 . S
C217 H238 0.931 . S
H218 C213 0.931 . S
H219 C214 0.930 . S
C220 O227 1.259 . S
C220 O228 1.258 . S
N221 Co212 2.057 . S
N221 C222 1.316 . S
N221 C223 1.375 . S
C222 N221 1.316 . S
C222 N224 1.347 . S
C222 H233 0.931 . S
C223 N221 1.375 . S
C223 C225 1.350 . S
C223 H232 0.930 . S
N224 C222 1.347 . S
N224 C225 1.373 . S
C225 C223 1.350 . S
C225 N224 1.373 . S
C225 H239 0.931 . S
C226 O229 1.256 . S
C226 O230 1.255 . S
O227 Co210 2.021 . S
O227 C220 1.259 . S
O228 Co212 2.117 . S
O228 C220 1.258 . S
O229 Co212 2.020 . S
O229 C226 1.256 . S
O230 Co210 2.062 . S
O230 C226 1.255 . S
O231 C211 1.259 . S
O231 Co212 2.021 . S
H232 C223 0.930 . S
H233 C222 0.931 . S
O234 Co210 2.117 . S
O234 C211 1.258 . S
O235 Co210 2.020 . S
O235 C237 1.256 . S
O236 Co212 2.062 . S
O236 C237 1.255 . S
C237 O235 1.256 . S
C237 O236 1.255 . S
H238 C217 0.931 . S
H239 C225 0.931 . S
Co240 O243 2.042 . S
Co240 O250 2.264 . S
Co240 O269 2.286 . S
Co240 O270 2.069 . S
Co240 O272 2.015 1_455 S
Co241 O243 2.122 . S
Co241 O249 2.073 . S
Co241 O250 2.327 . S
Co241 O251 1.976 1_455 S
Co242 O243 2.087 1_545 S
Co242 O245 2.087 1_455 S
Co242 O252 2.109 1_445 S
Co242 O253 2.146 . S
Co242 O257 2.114 . S
Co242 O271 2.141 1_445 S
O243 Co240 2.042 . S
O243 Co241 2.122 . S
O243 Co242 2.087 1_565 S
O243 H244 0.980 . S
H244 O243 0.980 . S
O245 Co242 2.087 1_655 S
O245 Co246 2.042 . S
O245 Co247 2.122 . S
O245 H248 0.980 . S
Co246 O245 2.042 . S
Co246 O254 2.286 . S
Co246 O255 2.069 . S
Co246 O256 2.015 1_655 S
Co246 O259 2.264 . S
Co247 O245 2.122 . S
Co247 O258 1.976 1_655 S
Co247 O259 2.327 . S
Co247 O260 2.073 . S
H248 O245 0.980 . S
O249 Co241 2.073 . S
O249 C264 1.245 . S
O250 Co240 2.264 . S
O250 Co241 2.327 . S
O250 C264 1.257 . S
O251 Co241 1.976 1_655 S
O251 C263 1.251 . S
O252 Co242 2.109 1_665 S
O252 C263 1.274 . S
O253 Co242 2.146 . S
O253 C266 1.246 . S
O254 Co246 2.286 . S
O254 C265 1.259 . S
O255 Co246 2.069 . S
O255 C265 1.289 . S
O256 Co246 2.015 1_455 S
O256 C266 1.257 . S
O257 Co242 2.114 . S
O257 C267 1.274 . S
O258 Co247 1.976 1_455 S
O258 C267 1.251 . S
O259 Co246 2.264 . S
O259 Co247 2.327 . S
O259 C268 1.257 . S
O260 Co247 2.073 . S
O260 C268 1.245 . S
C261 O269 1.259 . S
C261 O270 1.289 . S
C262 O271 1.246 . S
C262 O272 1.257 . S
C263 O251 1.251 . S
C263 O252 1.274 . S
C264 O249 1.245 . S
C264 O250 1.257 . S
C265 O254 1.259 . S
C265 O255 1.289 . S
C266 O253 1.246 . S
C266 O256 1.257 . S
C267 O257 1.274 . S
C267 O258 1.251 . S
C268 O259 1.257 . S
C268 O260 1.245 . S
O269 Co240 2.286 . S
O269 C261 1.259 . S
O270 Co240 2.069 . S
O270 C261 1.289 . S
O271 Co242 2.141 1_665 S
O271 C262 1.246 . S
O272 Co240 2.015 1_655 S
O272 C262 1.257 . S
Co273 O276 2.042 1_556 S
Co273 O283 2.264 1_556 S
Co273 O302 2.286 . S
Co273 O303 2.069 . S
Co273 O305 2.015 . S
Co274 O276 2.122 . S
Co274 O282 2.073 . S
Co274 O283 2.327 . S
Co274 O284 1.976 . S
Co275 O276 2.085 1_545 S
Co275 O278 2.089 1_554 S
Co275 O285 2.111 1_545 S
Co275 O286 2.145 . S
Co275 O290 2.112 1_554 S
Co275 O304 2.142 1_544 S
O276 Co273 2.042 1_554 S
O276 Co274 2.122 . S
O276 Co275 2.085 1_565 S
O276 H277 0.980 . S
H277 O276 0.980 . S
O278 Co275 2.089 1_556 S
O278 Co279 2.042 1_556 S
O278 Co280 2.122 . S
O278 H281 0.980 . S
Co279 O278 2.042 1_554 S
Co279 O287 2.286 . S
Co279 O288 2.069 . S
Co279 O289 2.015 . S
Co279 O292 2.264 1_554 S
Co280 O278 2.122 . S
Co280 O291 1.976 . S
Co280 O292 2.327 . S
Co280 O293 2.073 . S
H281 O278 0.980 . S
O282 Co274 2.073 . S
O282 C297 1.245 . S
O283 Co273 2.264 1_554 S
O283 Co274 2.327 . S
O283 C297 1.257 . S
O284 Co274 1.976 . S
O284 C296 1.251 . S
O285 Co275 2.111 1_565 S
O285 C296 1.274 . S
O286 Co275 2.145 . S
O286 C299 1.246 . S
O287 Co279 2.286 . S
O287 C298 1.259 . S
O288 Co279 2.069 . S
O288 C298 1.289 . S
O289 Co279 2.015 . S
O289 C299 1.257 . S
O290 Co275 2.112 1_556 S
O290 C300 1.274 . S
O291 Co280 1.976 . S
O291 C300 1.251 . S
O292 Co279 2.264 1_556 S
O292 Co280 2.327 . S
O292 C301 1.257 . S
O293 Co280 2.073 . S
O293 C301 1.245 . S
C294 O302 1.259 . S
C294 O303 1.289 . S
C295 O304 1.246 . S
C295 O305 1.257 . S
C296 O284 1.251 . S
C296 O285 1.274 . S
C297 O282 1.245 . S
C297 O283 1.257 . S
C298 O287 1.259 . S
C298 O288 1.289 . S
C299 O286 1.246 . S
C299 O289 1.257 . S
C300 O290 1.274 . S
C300 O291 1.251 . S
C301 O292 1.257 . S
C301 O293 1.245 . S
O302 Co273 2.286 . S
O302 C294 1.259 . S
O303 Co273 2.069 . S
O303 C294 1.289 . S
O304 Co275 2.142 1_566 S
O304 C295 1.246 . S
O305 Co273 2.015 . S
O305 C295 1.257 . S
Co306 O309 2.042 1_556 S
Co306 O316 2.264 1_556 S
Co306 O335 2.286 . S
Co306 O336 2.069 . S
Co306 O338 2.015 1_455 S
Co307 O309 2.122 . S
Co307 O315 2.073 . S
Co307 O316 2.327 . S
Co307 O317 1.976 1_455 S
Co308 O309 2.089 . S
Co308 O311 2.085 1_454 S
Co308 O318 2.110 1_455 S
Co308 O319 2.144 . S
Co308 O323 2.113 1_554 S
Co308 O337 2.143 1_454 S
O309 Co306 2.042 1_554 S
O309 Co307 2.122 . S
O309 Co308 2.089 . S
O309 H310 0.980 . S
H310 O309 0.980 . S
O311 Co308 2.085 1_656 S
O311 Co312 2.042 1_556 S
O311 Co313 2.122 . S
O311 H314 0.980 . S
Co312 O311 2.042 1_554 S
Co312 O320 2.286 . S
Co312 O321 2.069 . S
Co312 O322 2.015 1_655 S
Co312 O325 2.264 1_554 S
Co313 O311 2.122 . S
Co313 O324 1.976 1_655 S
Co313 O325 2.327 . S
Co313 O326 2.073 . S
H314 O311 0.980 . S
O315 Co307 2.073 . S
O315 C330 1.245 . S
O316 Co306 2.264 1_554 S
O316 Co307 2.327 . S
O316 C330 1.257 . S
O317 Co307 1.976 1_655 S
O317 C329 1.251 . S
O318 Co308 2.110 1_655 S
O318 C329 1.274 . S
O319 Co308 2.144 . S
O319 C332 1.246 . S
O320 Co312 2.286 . S
O320 C331 1.259 . S
O321 Co312 2.069 . S
O321 C331 1.289 . S
O322 Co312 2.015 1_455 S
O322 C332 1.257 . S
O323 Co308 2.113 1_556 S
O323 C333 1.274 . S
O324 Co313 1.976 1_455 S
O324 C333 1.251 . S
O325 Co312 2.264 1_556 S
O325 Co313 2.327 . S
O325 C334 1.257 . S
O326 Co313 2.073 . S
O326 C334 1.245 . S
C327 O335 1.259 . S
C327 O336 1.289 . S
C328 O337 1.246 . S
C328 O338 1.257 . S
C329 O317 1.251 . S
C329 O318 1.274 . S
C330 O315 1.245 . S
C330 O316 1.257 . S
C331 O320 1.259 . S
C331 O321 1.289 . S
C332 O319 1.246 . S
C332 O322 1.257 . S
C333 O323 1.274 . S
C333 O324 1.251 . S
C334 O325 1.257 . S
C334 O326 1.245 . S
O335 Co306 2.286 . S
O335 C327 1.259 . S
O336 Co306 2.069 . S
O336 C327 1.289 . S
O337 Co308 2.143 1_656 S
O337 C328 1.246 . S
O338 Co306 2.015 1_655 S
O338 C328 1.257 . S
Co339 O342 2.042 1_556 S
Co339 O349 2.264 1_556 S
Co339 O368 2.286 . S
Co339 O369 2.069 . S
Co339 O371 2.015 . S
Co340 O342 2.122 . S
Co340 O348 2.073 . S
Co340 O349 2.327 . S
Co340 O350 1.976 . S
Co341 O342 2.087 . S
Co341 O344 2.087 1_554 S
Co341 O351 2.111 . S
Co341 O352 2.143 . S
Co341 O356 2.111 1_554 S
Co341 O370 2.143 1_554 S
O342 Co339 2.042 1_554 S
O342 Co340 2.122 . S
O342 Co341 2.087 . S
O342 H343 0.980 . S
H343 O342 0.980 . S
O344 Co341 2.087 1_556 S
O344 Co345 2.042 1_556 S
O344 Co346 2.122 . S
O344 H347 0.980 . S
Co345 O344 2.042 1_554 S
Co345 O353 2.286 . S
Co345 O354 2.069 . S
Co345 O355 2.015 . S
Co345 O358 2.264 1_554 S
Co346 O344 2.122 . S
Co346 O357 1.976 . S
Co346 O358 2.327 . S
Co346 O359 2.073 . S
H347 O344 0.980 . S
O348 Co340 2.073 . S
O348 C363 1.245 . S
O349 Co339 2.264 1_554 S
O349 Co340 2.327 . S
O349 C363 1.257 . S
O350 Co340 1.976 . S
O350 C362 1.251 . S
O351 Co341 2.111 . S
O351 C362 1.274 . S
O352 Co341 2.143 . S
O352 C365 1.246 . S
O353 Co345 2.286 . S
O353 C364 1.259 . S
O354 Co345 2.069 . S
O354 C364 1.289 . S
O355 Co345 2.015 . S
O355 C365 1.257 . S
O356 Co341 2.111 1_556 S
O356 C366 1.274 . S
O357 Co346 1.976 . S
O357 C366 1.251 . S
O358 Co345 2.264 1_556 S
O358 Co346 2.327 . S
O358 C367 1.257 . S
O359 Co346 2.073 . S
O359 C367 1.245 . S
C360 O368 1.259 . S
C360 O369 1.289 . S
C361 O370 1.246 . S
C361 O371 1.257 . S
C362 O350 1.251 . S
C362 O351 1.274 . S
C363 O348 1.245 . S
C363 O349 1.257 . S
C364 O353 1.259 . S
C364 O354 1.289 . S
C365 O352 1.246 . S
C365 O355 1.257 . S
C366 O356 1.274 . S
C366 O357 1.251 . S
C367 O358 1.257 . S
C367 O359 1.245 . S
O368 Co339 2.286 . S
O368 C360 1.259 . S
O369 Co339 2.069 . S
O369 C360 1.289 . S
O370 Co341 2.143 1_556 S
O370 C361 1.246 . S
O371 Co339 2.015 . S
O371 C361 1.257 . S
Co372 O375 2.042 . S
Co372 O382 2.264 . S
Co372 O401 2.286 . S
Co372 O402 2.069 . S
Co372 O404 2.015 . S
Co373 O375 2.122 . S
Co373 O381 2.073 . S
Co373 O382 2.327 . S
Co373 O383 1.976 . S
Co374 O375 2.089 . S
Co374 O377 2.085 1_455 S
Co374 O384 2.112 . S
Co374 O385 2.142 1_455 S
Co374 O389 2.111 1_455 S
Co374 O403 2.145 . S
O375 Co372 2.042 . S
O375 Co373 2.122 . S
O375 Co374 2.089 . S
O375 H376 0.980 . S
H376 O375 0.980 . S
O377 Co374 2.085 1_655 S
O377 Co378 2.042 . S
O377 Co379 2.122 . S
O377 H380 0.980 . S
Co378 O377 2.042 . S
Co378 O386 2.286 . S
Co378 O387 2.069 . S
Co378 O388 2.015 . S
Co378 O391 2.264 . S
Co379 O377 2.122 . S
Co379 O390 1.976 . S
Co379 O391 2.327 . S
Co379 O392 2.073 . S
H380 O377 0.980 . S
O381 Co373 2.073 . S
O381 C396 1.245 . S
O382 Co372 2.264 . S
O382 Co373 2.327 . S
O382 C396 1.257 . S
O383 Co373 1.976 . S
O383 C395 1.251 . S
O384 Co374 2.112 . S
O384 C395 1.274 . S
O385 Co374 2.142 1_655 S
O385 C398 1.246 . S
O386 Co378 2.286 . S
O386 C397 1.259 . S
O387 Co378 2.069 . S
O387 C397 1.289 . S
O388 Co378 2.015 . S
O388 C398 1.257 . S
O389 Co374 2.111 1_655 S
O389 C399 1.274 . S
O390 Co379 1.976 . S
O390 C399 1.251 . S
O391 Co378 2.264 . S
O391 Co379 2.327 . S
O391 C400 1.257 . S
O392 Co379 2.073 . S
O392 C400 1.245 . S
C393 O401 1.259 . S
C393 O402 1.289 . S
C394 O403 1.246 . S
C394 O404 1.257 . S
C395 O383 1.251 . S
C395 O384 1.274 . S
C396 O381 1.245 . S
C396 O382 1.257 . S
C397 O386 1.259 . S
C397 O387 1.289 . S
C398 O385 1.246 . S
C398 O388 1.257 . S
C399 O389 1.274 . S
C399 O390 1.251 . S
C400 O391 1.257 . S
C400 O392 1.245 . S
O401 Co372 2.286 . S
O401 C393 1.259 . S
O402 Co372 2.069 . S
O402 C393 1.289 . S
O403 Co374 2.145 . S
O403 C394 1.246 . S
O404 Co372 2.015 . S
O404 C394 1.257 . S
Co405 O408 2.042 . S
Co405 O415 2.264 . S
Co405 O434 2.286 . S
Co405 O435 2.069 . S
Co405 O437 2.015 1_565 S
Co406 O408 2.122 . S
Co406 O414 2.073 . S
Co406 O415 2.327 . S
Co406 O416 1.976 1_565 S
Co407 O408 2.085 1_545 S
Co407 O410 2.089 . S
Co407 O417 2.113 . S
Co407 O418 2.143 1_545 S
Co407 O422 2.110 1_545 S
Co407 O436 2.144 . S
O408 Co405 2.042 . S
O408 Co406 2.122 . S
O408 Co407 2.085 1_565 S
O408 H409 0.980 . S
H409 O408 0.980 . S
O410 Co407 2.089 . S
O410 Co411 2.042 . S
O410 Co412 2.122 . S
O410 H413 0.980 . S
Co411 O410 2.042 . S
Co411 O419 2.286 . S
Co411 O420 2.069 . S
Co411 O421 2.015 1_545 S
Co411 O424 2.264 . S
Co412 O410 2.122 . S
Co412 O423 1.976 1_545 S
Co412 O424 2.327 . S
Co412 O425 2.073 . S
H413 O410 0.980 . S
O414 Co406 2.073 . S
O414 C429 1.245 . S
O415 Co405 2.264 . S
O415 Co406 2.327 . S
O415 C429 1.257 . S
O416 Co406 1.976 1_545 S
O416 C428 1.251 . S
O417 Co407 2.113 . S
O417 C428 1.274 . S
O418 Co407 2.143 1_565 S
O418 C431 1.246 . S
O419 Co411 2.286 . S
O419 C430 1.259 . S
O420 Co411 2.069 . S
O420 C430 1.289 . S
O421 Co411 2.015 1_565 S
O421 C431 1.257 . S
O422 Co407 2.110 1_565 S
O422 C432 1.274 . S
O423 Co412 1.976 1_565 S
O423 C432 1.251 . S
O424 Co411 2.264 . S
O424 Co412 2.327 . S
O424 C433 1.257 . S
O425 Co412 2.073 . S
O425 C433 1.245 . S
C426 O434 1.259 . S
C426 O435 1.289 . S
C427 O436 1.246 . S
C427 O437 1.257 . S
C428 O416 1.251 . S
C428 O417 1.274 . S
C429 O414 1.245 . S
C429 O415 1.257 . S
C430 O419 1.259 . S
C430 O420 1.289 . S
C431 O418 1.246 . S
C431 O421 1.257 . S
C432 O422 1.274 . S
C432 O423 1.251 . S
C433 O424 1.257 . S
C433 O425 1.245 . S
O434 Co405 2.286 . S
O434 C426 1.259 . S
O435 Co405 2.069 . S
O435 C426 1.289 . S
O436 Co407 2.144 . S
O436 C427 1.246 . S
O437 Co405 2.015 1_545 S
O437 C427 1.257 . S
C438 C439 1.363 . S
C438 C444 1.379 . S
C438 N446 1.356 . S
C439 C438 1.363 . S
C439 C445 1.363 . S
C440 C441 1.363 . S
C440 C445 1.379 . S
C440 N447 1.356 . S
C441 C440 1.363 . S
C441 C444 1.363 . S
N442 C444 1.356 . S
N442 H454 0.984 . S
N442 H455 0.985 . S
N443 C445 1.356 . S
N443 H448 0.984 . S
N443 H449 0.985 . S
C444 C438 1.379 . S
C444 C441 1.363 . S
C444 N442 1.356 . S
C445 C439 1.363 . S
C445 C440 1.379 . S
C445 N443 1.356 . S
N446 C438 1.356 . S
N446 H452 0.984 . S
N446 H453 0.984 . S
N447 C440 1.356 . S
N447 H450 0.984 . S
N447 H451 0.985 . S
H448 N443 0.984 . S
H449 N443 0.985 . S
H450 N447 0.984 . S
H451 N447 0.985 . S
H452 N446 0.984 . S
H453 N446 0.984 . S
H454 N442 0.984 . S
H455 N442 0.985 . S
C456 C457 1.363 . S
C456 C462 1.379 . S
C456 N464 1.356 . S
C457 C456 1.363 . S
C457 C463 1.363 . S
C458 C459 1.363 . S
C458 C463 1.379 . S
C458 N465 1.356 . S
C459 C458 1.363 . S
C459 C462 1.363 . S
N460 C462 1.356 . S
N460 H472 0.984 . S
N460 H473 0.985 . S
N461 C463 1.356 . S
N461 H466 0.984 . S
N461 H467 0.985 . S
C462 C456 1.379 . S
C462 C459 1.363 . S
C462 N460 1.356 . S
C463 C457 1.363 . S
C463 C458 1.379 . S
C463 N461 1.356 . S
N464 C456 1.356 . S
N464 H470 0.984 . S
N464 H471 0.984 . S
N465 C458 1.356 . S
N465 H468 0.984 . S
N465 H469 0.985 . S
H466 N461 0.984 . S
H467 N461 0.985 . S
H468 N465 0.984 . S
H469 N465 0.985 . S
H470 N464 0.984 . S
H471 N464 0.984 . S
H472 N460 0.984 . S
H473 N460 0.985 . S
C474 C475 1.363 . S
C474 C480 1.379 . S
C474 N482 1.356 . S
C475 C474 1.363 . S
C475 C481 1.363 . S
C476 C477 1.363 . S
C476 C481 1.379 . S
C476 N483 1.356 . S
C477 C476 1.363 . S
C477 C480 1.363 . S
N478 C480 1.356 . S
N478 H490 0.984 . S
N478 H491 0.985 . S
N479 C481 1.356 . S
N479 H484 0.984 . S
N479 H485 0.985 . S
C480 C474 1.379 . S
C480 C477 1.363 . S
C480 N478 1.356 . S
C481 C475 1.363 . S
C481 C476 1.379 . S
C481 N479 1.356 . S
N482 C474 1.356 . S
N482 H488 0.984 . S
N482 H489 0.984 . S
N483 C476 1.356 . S
N483 H486 0.984 . S
N483 H487 0.985 . S
H484 N479 0.984 . S
H485 N479 0.985 . S
H486 N483 0.984 . S
H487 N483 0.985 . S
H488 N482 0.984 . S
H489 N482 0.984 . S
H490 N478 0.984 . S
H491 N478 0.985 . S
C492 C493 1.363 . S
C492 C498 1.379 . S
C492 N500 1.356 . S
C493 C492 1.363 . S
C493 C499 1.363 . S
C494 C495 1.363 . S
C494 C499 1.379 . S
C494 N501 1.356 . S
C495 C494 1.363 . S
C495 C498 1.363 . S
N496 C498 1.356 . S
N496 H508 0.984 . S
N496 H509 0.985 . S
N497 C499 1.356 . S
N497 H502 0.984 . S
N497 H503 0.985 . S
C498 C492 1.379 . S
C498 C495 1.363 . S
C498 N496 1.356 . S
C499 C493 1.363 . S
C499 C494 1.379 . S
C499 N497 1.356 . S
N500 C492 1.356 . S
N500 H506 0.984 . S
N500 H507 0.984 . S
N501 C494 1.356 . S
N501 H504 0.984 . S
N501 H505 0.985 . S
H502 N497 0.984 . S
H503 N497 0.985 . S
H504 N501 0.984 . S
H505 N501 0.985 . S
H506 N500 0.984 . S
H507 N500 0.984 . S
H508 N496 0.984 . S
H509 N496 0.985 . S
C510 C511 1.363 . S
C510 C516 1.379 . S
C510 N518 1.356 . S
C511 C510 1.363 . S
C511 C517 1.363 . S
C512 C513 1.363 . S
C512 C517 1.379 . S
C512 N519 1.356 . S
C513 C512 1.363 . S
C513 C516 1.363 . S
N514 C516 1.356 . S
N514 H526 0.984 . S
N514 H527 0.985 . S
N515 C517 1.356 . S
N515 H520 0.984 . S
N515 H521 0.985 . S
C516 C510 1.379 . S
C516 C513 1.363 . S
C516 N514 1.356 . S
C517 C511 1.363 . S
C517 C512 1.379 . S
C517 N515 1.356 . S
N518 C510 1.356 . S
N518 H524 0.984 . S
N518 H525 0.984 . S
N519 C512 1.356 . S
N519 H522 0.984 . S
N519 H523 0.985 . S
H520 N515 0.984 . S
H521 N515 0.985 . S
H522 N519 0.984 . S
H523 N519 0.985 . S
H524 N518 0.984 . S
H525 N518 0.984 . S
H526 N514 0.984 . S
H527 N514 0.985 . S
C528 C529 1.363 . S
C528 C534 1.379 . S
C528 N536 1.356 . S
C529 C528 1.363 . S
C529 C535 1.363 . S
C530 C531 1.363 . S
C530 C535 1.379 . S
C530 N537 1.356 . S
C531 C530 1.363 . S
C531 C534 1.363 . S
N532 C534 1.356 . S
N532 H544 0.984 . S
N532 H545 0.985 . S
N533 C535 1.356 . S
N533 H538 0.984 . S
N533 H539 0.985 . S
C534 C528 1.379 . S
C534 C531 1.363 . S
C534 N532 1.356 . S
C535 C529 1.363 . S
C535 C530 1.379 . S
C535 N533 1.356 . S
N536 C528 1.356 . S
N536 H542 0.984 . S
N536 H543 0.984 . S
N537 C530 1.356 . S
N537 H540 0.984 . S
N537 H541 0.985 . S
H538 N533 0.984 . S
H539 N533 0.985 . S
H540 N537 0.984 . S
H541 N537 0.985 . S
H542 N536 0.984 . S
H543 N536 0.984 . S
H544 N532 0.984 . S
H545 N532 0.985 . S
C546 C547 1.363 . S
C546 C552 1.379 . S
C546 N554 1.356 . S
C547 C546 1.363 . S
C547 C553 1.363 . S
C548 C549 1.363 . S
C548 C553 1.379 . S
C548 N555 1.356 . S
C549 C548 1.363 . S
C549 C552 1.363 . S
N550 C552 1.356 . S
N550 H562 0.984 . S
N550 H563 0.985 . S
N551 C553 1.356 . S
N551 H556 0.984 . S
N551 H557 0.985 . S
C552 C546 1.379 . S
C552 C549 1.363 . S
C552 N550 1.356 . S
C553 C547 1.363 . S
C553 C548 1.379 . S
C553 N551 1.356 . S
N554 C546 1.356 . S
N554 H560 0.984 . S
N554 H561 0.984 . S
N555 C548 1.356 . S
N555 H558 0.984 . S
N555 H559 0.985 . S
H556 N551 0.984 . S
H557 N551 0.985 . S
H558 N555 0.984 . S
H559 N555 0.985 . S
H560 N554 0.984 . S
H561 N554 0.984 . S
H562 N550 0.984 . S
H563 N550 0.985 . S
C564 C565 1.363 . S
C564 C570 1.379 . S
C564 N572 1.356 . S
C565 C564 1.363 . S
C565 C571 1.363 . S
C566 C567 1.363 . S
C566 C571 1.379 . S
C566 N573 1.356 . S
C567 C566 1.363 . S
C567 C570 1.363 . S
N568 C570 1.356 . S
N568 H580 0.984 1_565 S
N568 H581 0.985 . S
N569 C571 1.356 . S
N569 H574 0.984 . S
N569 H575 0.985 . S
C570 C564 1.379 . S
C570 C567 1.363 . S
C570 N568 1.356 . S
C571 C565 1.363 . S
C571 C566 1.379 . S
C571 N569 1.356 . S
N572 C564 1.356 . S
N572 H578 0.984 . S
N572 H579 0.984 . S
N573 C566 1.356 . S
N573 H576 0.984 . S
N573 H577 0.985 . S
H574 N569 0.984 . S
H575 N569 0.985 . S
H576 N573 0.984 . S
H577 N573 0.985 . S
H578 N572 0.984 . S
H579 N572 0.984 . S
H580 N568 0.984 1_545 S
H581 N568 0.985 . S
C582 C583 1.363 . S
C582 C588 1.379 . S
C582 N590 1.356 . S
C583 C582 1.363 . S
C583 C589 1.363 . S
C584 C585 1.363 . S
C584 C589 1.379 . S
C584 N591 1.356 . S
C585 C584 1.363 . S
C585 C588 1.363 . S
N586 C588 1.356 . S
N586 H598 0.984 . S
N586 H599 0.985 . S
N587 C589 1.356 . S
N587 H592 0.984 . S
N587 H593 0.985 . S
C588 C582 1.379 . S
C588 C585 1.363 . S
C588 N586 1.356 . S
C589 C583 1.363 . S
C589 C584 1.379 . S
C589 N587 1.356 . S
N590 C582 1.356 . S
N590 H596 0.984 . S
N590 H597 0.984 . S
N591 C584 1.356 . S
N591 H594 0.984 . S
N591 H595 0.985 1_554 S
H592 N587 0.984 . S
H593 N587 0.985 . S
H594 N591 0.984 . S
H595 N591 0.985 1_556 S
H596 N590 0.984 . S
H597 N590 0.984 . S
H598 N586 0.984 . S
H599 N586 0.985 . S
C600 C601 1.363 . S
C600 C606 1.379 . S
C600 N608 1.356 . S
C601 C600 1.363 . S
C601 C607 1.363 . S
C602 C603 1.363 . S
C602 C607 1.379 . S
C602 N609 1.356 1_554 S
C603 C602 1.363 . S
C603 C606 1.363 . S
N604 C606 1.356 . S
N604 H616 0.984 . S
N604 H617 0.985 . S
N605 C607 1.356 . S
N605 H610 0.984 . S
N605 H611 0.985 1_554 S
C606 C600 1.379 . S
C606 C603 1.363 . S
C606 N604 1.356 . S
C607 C601 1.363 . S
C607 C602 1.379 . S
C607 N605 1.356 . S
N608 C600 1.356 . S
N608 H614 0.984 . S
N608 H615 0.984 . S
N609 C602 1.356 1_556 S
N609 H612 0.984 1_556 S
N609 H613 0.985 . S
H610 N605 0.984 . S
H611 N605 0.985 1_556 S
H612 N609 0.984 1_554 S
H613 N609 0.985 . S
H614 N608 0.984 . S
H615 N608 0.984 . S
H616 N604 0.984 . S
H617 N604 0.985 . S
C618 C619 1.363 . S
C618 C624 1.379 . S
C618 N626 1.356 . S
C619 C618 1.363 . S
C619 C625 1.363 . S
C620 C621 1.363 . S
C620 C625 1.379 . S
C620 N627 1.356 . S
C621 C620 1.363 . S
C621 C624 1.363 . S
N622 C624 1.356 1_556 S
N622 H634 0.984 . S
N622 H635 0.985 . S
N623 C625 1.356 . S
N623 H628 0.984 . S
N623 H629 0.985 . S
C624 C618 1.379 . S
C624 C621 1.363 . S
C624 N622 1.356 1_554 S
C625 C619 1.363 . S
C625 C620 1.379 . S
C625 N623 1.356 . S
N626 C618 1.356 . S
N626 H632 0.984 1_554 S
N626 H633 0.984 . S
N627 C620 1.356 . S
N627 H630 0.984 . S
N627 H631 0.985 . S
H628 N623 0.984 . S
H629 N623 0.985 . S
H630 N627 0.984 . S
H631 N627 0.985 . S
H632 N626 0.984 1_556 S
H633 N626 0.984 . S
H634 N622 0.984 . S
H635 N622 0.985 . S
C636 C637 1.363 . S
C636 C642 1.379 . S
C636 N644 1.356 . S
C637 C636 1.363 . S
C637 C643 1.363 . S
C638 C639 1.363 . S
C638 C643 1.379 . S
C638 N645 1.356 . S
C639 C638 1.363 . S
C639 C642 1.363 . S
N640 C642 1.356 . S
N640 H652 0.984 . S
N640 H653 0.985 . S
N641 C643 1.356 . S
N641 H646 0.984 . S
N641 H647 0.985 . S
C642 C636 1.379 . S
C642 C639 1.363 . S
C642 N640 1.356 . S
C643 C637 1.363 . S
C643 C638 1.379 . S
C643 N641 1.356 . S
N644 C636 1.356 . S
N644 H650 0.984 . S
N644 H651 0.984 . S
N645 C638 1.356 . S
N645 H648 0.984 . S
N645 H649 0.985 1_554 S
H646 N641 0.984 . S
H647 N641 0.985 . S
H648 N645 0.984 . S
H649 N645 0.985 1_556 S
H650 N644 0.984 . S
H651 N644 0.984 . S
H652 N640 0.984 . S
H653 N640 0.985 . S
C654 C655 1.363 . S
C654 C660 1.379 . S
C654 N662 1.356 . S
C655 C654 1.363 . S
C655 C661 1.363 . S
C656 C657 1.363 . S
C656 C661 1.379 . S
C656 N663 1.356 . S
C657 C656 1.363 . S
C657 C660 1.363 . S
N658 C660 1.356 . S
N658 H670 0.984 . S
N658 H671 0.985 . S
N659 C661 1.356 . S
N659 H664 0.984 . S
N659 H665 0.985 . S
C660 C654 1.379 . S
C660 C657 1.363 . S
C660 N658 1.356 . S
C661 C655 1.363 . S
C661 C656 1.379 . S
C661 N659 1.356 . S
N662 C654 1.356 . S
N662 H668 0.984 . S
N662 H669 0.984 . S
N663 C656 1.356 . S
N663 H666 0.984 . S
N663 H667 0.985 1_556 S
H664 N659 0.984 . S
H665 N659 0.985 . S
H666 N663 0.984 . S
H667 N663 0.985 1_554 S
H668 N662 0.984 . S
H669 N662 0.984 . S
H670 N658 0.984 . S
H671 N658 0.985 . S
C672 C673 1.363 . S
C672 C678 1.379 . S
C672 N680 1.356 . S
C673 C672 1.363 . S
C673 C679 1.363 . S
C674 C675 1.363 . S
C674 C679 1.379 . S
C674 N681 1.356 . S
C675 C674 1.363 . S
C675 C678 1.363 . S
N676 C678 1.356 . S
N676 H688 0.984 1_556 S
N676 H689 0.985 . S
N677 C679 1.356 . S
N677 H682 0.984 . S
N677 H683 0.985 . S
C678 C672 1.379 . S
C678 C675 1.363 . S
C678 N676 1.356 . S
C679 C673 1.363 . S
C679 C674 1.379 . S
C679 N677 1.356 . S
N680 C672 1.356 . S
N680 H686 0.984 . S
N680 H687 0.984 . S
N681 C674 1.356 . S
N681 H684 0.984 . S
N681 H685 0.985 . S
H682 N677 0.984 . S
H683 N677 0.985 . S
H684 N681 0.984 . S
H685 N681 0.985 . S
H686 N680 0.984 . S
H687 N680 0.984 . S
H688 N676 0.984 1_554 S
H689 N676 0.985 . S
C690 C691 1.363 . S
C690 C696 1.379 . S
C690 N698 1.356 . S
C691 C690 1.363 . S
C691 C697 1.363 . S
C692 C693 1.363 . S
C692 C697 1.379 . S
C692 N699 1.356 . S
C693 C692 1.363 . S
C693 C696 1.363 . S
N694 C696 1.356 . S
N694 H706 0.984 . S
N694 H707 0.985 . S
N695 C697 1.356 . S
N695 H700 0.984 . S
N695 H701 0.985 . S
C696 C690 1.379 . S
C696 C693 1.363 . S
C696 N694 1.356 . S
C697 C691 1.363 . S
C697 C692 1.379 . S
C697 N695 1.356 . S
N698 C690 1.356 . S
N698 H704 0.984 . S
N698 H705 0.984 . S
N699 C692 1.356 . S
N699 H702 0.984 . S
N699 H703 0.985 1_556 S
H700 N695 0.984 . S
H701 N695 0.985 . S
H702 N699 0.984 . S
H703 N699 0.985 1_554 S
H704 N698 0.984 . S
H705 N698 0.984 . S
H706 N694 0.984 . S
H707 N694 0.985 . S
C708 C709 1.363 . S
C708 C714 1.379 . S
C708 N716 1.356 . S
C709 C708 1.363 . S
C709 C715 1.363 . S
C710 C711 1.363 . S
C710 C715 1.379 . S
C710 N717 1.356 . S
C711 C710 1.363 . S
C711 C714 1.363 . S
N712 C714 1.356 . S
N712 H724 0.984 . S
N712 H725 0.985 . S
N713 C715 1.356 . S
N713 H718 0.984 . S
N713 H719 0.985 . S
C714 C708 1.379 . S
C714 C711 1.363 . S
C714 N712 1.356 . S
C715 C709 1.363 . S
C715 C710 1.379 . S
C715 N713 1.356 . S
N716 C708 1.356 . S
N716 H722 0.984 . S
N716 H723 0.984 . S
N717 C710 1.356 . S
N717 H720 0.984 . S
N717 H721 0.985 1_556 S
H718 N713 0.984 . S
H719 N713 0.985 . S
H720 N717 0.984 . S
H721 N717 0.985 1_554 S
H722 N716 0.984 . S
H723 N716 0.984 . S
H724 N712 0.984 . S
H725 N712 0.985 . S
C726 C727 1.363 . S
C726 C732 1.379 . S
C726 N734 1.356 . S
C727 C726 1.363 . S
C727 C733 1.363 . S
C728 C729 1.363 . S
C728 C733 1.379 . S
C728 N735 1.356 . S
C729 C728 1.363 . S
C729 C732 1.363 . S
N730 C732 1.356 . S
N730 H742 0.984 1_554 S
N730 H743 0.985 . S
N731 C733 1.356 . S
N731 H736 0.984 . S
N731 H737 0.985 . S
C732 C726 1.379 . S
C732 C729 1.363 . S
C732 N730 1.356 . S
C733 C727 1.363 . S
C733 C728 1.379 . S
C733 N731 1.356 . S
N734 C726 1.356 . S
N734 H740 0.984 . S
N734 H741 0.984 . S
N735 C728 1.356 . S
N735 H738 0.984 . S
N735 H739 0.985 . S
H736 N731 0.984 . S
H737 N731 0.985 . S
H738 N735 0.984 . S
H739 N735 0.985 . S
H740 N734 0.984 . S
H741 N734 0.984 . S
H742 N730 0.984 1_556 S
H743 N730 0.985 . S
C744 C745 1.363 . S
C744 C750 1.379 . S
C744 N752 1.356 . S
C745 C744 1.363 . S
C745 C751 1.363 . S
C746 C747 1.363 . S
C746 C751 1.379 . S
C746 N753 1.356 1_556 S
C747 C746 1.363 . S
C747 C750 1.363 . S
N748 C750 1.356 . S
N748 H760 0.984 . S
N748 H761 0.985 . S
N749 C751 1.356 . S
N749 H754 0.984 . S
N749 H755 0.985 1_556 S
C750 C744 1.379 . S
C750 C747 1.363 . S
C750 N748 1.356 . S
C751 C745 1.363 . S
C751 C746 1.379 . S
C751 N749 1.356 . S
N752 C744 1.356 . S
N752 H758 0.984 . S
N752 H759 0.984 . S
N753 C746 1.356 1_554 S
N753 H756 0.984 . S
N753 H757 0.985 . S
H754 N749 0.984 . S
H755 N749 0.985 1_554 S
H756 N753 0.984 . S
H757 N753 0.985 . S
H758 N752 0.984 . S
H759 N752 0.984 . S
H760 N748 0.984 . S
H761 N748 0.985 . S
C762 C763 1.363 . S
C762 C768 1.379 . S
C762 N770 1.356 . S
C763 C762 1.363 . S
C763 C769 1.363 . S
C764 C765 1.363 . S
C764 C769 1.379 . S
C764 N771 1.356 . S
C765 C764 1.363 . S
C765 C768 1.363 . S
N766 C768 1.356 . S
N766 H778 0.984 . S
N766 H779 0.985 . S
N767 C769 1.356 . S
N767 H772 0.984 . S
N767 H773 0.985 . S
C768 C762 1.379 . S
C768 C765 1.363 . S
C768 N766 1.356 . S
C769 C763 1.363 . S
C769 C764 1.379 . S
C769 N767 1.356 . S
N770 C762 1.356 . S
N770 H776 0.984 . S
N770 H777 0.984 . S
N771 C764 1.356 . S
N771 H774 0.984 . S
N771 H775 0.985 . S
H772 N767 0.984 . S
H773 N767 0.985 . S
H774 N771 0.984 . S
H775 N771 0.985 . S
H776 N770 0.984 . S
H777 N770 0.984 . S
H778 N766 0.984 . S
H779 N766 0.985 . S
C780 C781 1.363 . S
C780 C786 1.379 . S
C780 N788 1.356 . S
C781 C780 1.363 . S
C781 C787 1.363 . S
C782 C783 1.363 . S
C782 C787 1.379 . S
C782 N789 1.358 1_556 S
C783 C782 1.363 . S
C783 C786 1.363 . S
N784 C786 1.356 . S
N784 H796 0.984 . S
N784 H797 0.985 . S
N785 C787 1.356 . S
N785 H790 0.984 . S
N785 H791 0.985 . S
C786 C780 1.379 . S
C786 C783 1.363 . S
C786 N784 1.356 . S
C787 C781 1.363 . S
C787 C782 1.379 . S
C787 N785 1.356 . S
N788 C780 1.356 . S
N788 H794 0.984 . S
N788 H795 0.984 . S
N789 C782 1.358 1_554 S
N789 H792 0.985 . S
N789 H793 0.983 . S
H790 N785 0.984 . S
H791 N785 0.985 . S
H792 N789 0.985 . S
H793 N789 0.983 . S
H794 N788 0.984 . S
H795 N788 0.984 . S
H796 N784 0.984 . S
H797 N784 0.985 . S
C798 C799 1.363 . S
C798 C804 1.379 . S
C798 N806 1.356 . S
C799 C798 1.363 . S
C799 C805 1.363 . S
C800 C801 1.363 . S
C800 C805 1.379 . S
C800 N807 1.356 . S
C801 C800 1.363 . S
C801 C804 1.363 . S
N802 C804 1.356 . S
N802 H814 0.984 1_556 S
N802 H815 0.985 . S
N803 C805 1.356 . S
N803 H808 0.984 . S
N803 H809 0.985 . S
C804 C798 1.379 . S
C804 C801 1.363 . S
C804 N802 1.356 . S
C805 C799 1.363 . S
C805 C800 1.379 . S
C805 N803 1.356 . S
N806 C798 1.356 . S
N806 H812 0.984 . S
N806 H813 0.984 . S
N807 C800 1.356 . S
N807 H810 0.984 . S
N807 H811 0.985 . S
H808 N803 0.984 . S
H809 N803 0.985 . S
H810 N807 0.984 . S
H811 N807 0.985 . S
H812 N806 0.984 . S
H813 N806 0.984 . S
H814 N802 0.984 1_554 S
H815 N802 0.985 . S
C816 C817 1.363 . S
C816 C822 1.379 . S
C816 N824 1.356 . S
C817 C816 1.363 . S
C817 C823 1.363 . S
C818 C819 1.363 . S
C818 C823 1.379 . S
C818 N825 1.356 . S
C819 C818 1.363 . S
C819 C822 1.363 . S
N820 C822 1.356 . S
N820 H832 0.984 . S
N820 H833 0.985 . S
N821 C823 1.356 . S
N821 H826 0.984 . S
N821 H827 0.985 . S
C822 C816 1.379 . S
C822 C819 1.363 . S
C822 N820 1.356 . S
C823 C817 1.363 . S
C823 C818 1.379 . S
C823 N821 1.356 . S
N824 C816 1.356 . S
N824 H830 0.984 . S
N824 H831 0.984 . S
N825 C818 1.356 . S
N825 H828 0.984 . S
N825 H829 0.985 . S
H826 N821 0.984 . S
H827 N821 0.985 . S
H828 N825 0.984 . S
H829 N825 0.985 . S
H830 N824 0.984 . S
H831 N824 0.984 . S
H832 N820 0.984 . S
H833 N820 0.985 . S
C834 C835 1.363 . S
C834 C840 1.379 . S
C834 N842 1.356 . S
C835 C834 1.363 . S
C835 C841 1.363 . S
C836 C837 1.363 . S
C836 C841 1.379 . S
C836 N843 1.356 . S
C837 C836 1.363 . S
C837 C840 1.363 . S
N838 C840 1.356 . S
N838 H850 0.984 . S
N838 H851 0.985 . S
N839 C841 1.356 . S
N839 H844 0.984 . S
N839 H845 0.985 . S
C840 C834 1.379 . S
C840 C837 1.363 . S
C840 N838 1.356 . S
C841 C835 1.363 . S
C841 C836 1.379 . S
C841 N839 1.356 . S
N842 C834 1.356 . S
N842 H848 0.984 . S
N842 H849 0.984 . S
N843 C836 1.356 . S
N843 H846 0.984 . S
N843 H847 0.985 1_554 S
H844 N839 0.984 . S
H845 N839 0.985 . S
H846 N843 0.984 . S
H847 N843 0.985 1_556 S
H848 N842 0.984 . S
H849 N842 0.984 . S
H850 N838 0.984 . S
H851 N838 0.985 . S
C852 C853 1.363 . S
C852 C858 1.379 . S
C852 N860 1.356 . S
C853 C852 1.363 . S
C853 C859 1.363 . S
C854 C855 1.363 . S
C854 C859 1.379 . S
C854 N861 1.356 . S
C855 C854 1.363 . S
C855 C858 1.363 . S
N856 C858 1.356 . S
N856 H868 0.984 . S
N856 H869 0.985 . S
N857 C859 1.356 . S
N857 H862 0.984 . S
N857 H863 0.985 . S
C858 C852 1.379 . S
C858 C855 1.363 . S
C858 N856 1.356 . S
C859 C853 1.363 . S
C859 C854 1.379 . S
C859 N857 1.356 . S
N860 C852 1.356 . S
N860 H866 0.984 . S
N860 H867 0.984 . S
N861 C854 1.356 . S
N861 H864 0.984 . S
N861 H865 0.985 . S
H862 N857 0.984 . S
H863 N857 0.985 . S
H864 N861 0.984 . S
H865 N861 0.985 . S
H866 N860 0.984 . S
H867 N860 0.984 . S
H868 N856 0.984 . S
H869 N856 0.985 . S
C870 C871 1.363 . S
C870 C876 1.379 . S
C870 N878 1.356 . S
C871 C870 1.363 . S
C871 C877 1.363 . S
C872 C873 1.363 . S
C872 C877 1.379 . S
C872 N879 1.356 . S
C873 C872 1.363 . S
C873 C876 1.363 . S
N874 C876 1.356 . S
N874 H886 0.984 . S
N874 H887 0.985 . S
N875 C877 1.356 . S
N875 H880 0.984 . S
N875 H881 0.985 . S
C876 C870 1.379 . S
C876 C873 1.363 . S
C876 N874 1.356 . S
C877 C871 1.363 . S
C877 C872 1.379 . S
C877 N875 1.356 . S
N878 C870 1.356 . S
N878 H884 0.984 . S
N878 H885 0.984 . S
N879 C872 1.356 . S
N879 H882 0.984 1_556 S
N879 H883 0.985 1_556 S
H880 N875 0.984 . S
H881 N875 0.985 . S
H882 N879 0.984 1_554 S
H883 N879 0.985 1_554 S
H884 N878 0.984 . S
H885 N878 0.984 . S
H886 N874 0.984 . S
H887 N874 0.985 . S
C888 C889 1.363 . S
C888 C894 1.379 . S
C888 N896 1.356 . S
C889 C888 1.363 . S
C889 C895 1.363 . S
C890 C891 1.363 . S
C890 C895 1.379 . S
C890 N897 1.356 . S
C891 C890 1.363 . S
C891 C894 1.363 . S
N892 C894 1.356 . S
N892 H904 0.984 . S
N892 H905 0.985 . S
N893 C895 1.356 . S
N893 H898 0.984 . S
N893 H899 0.985 . S
C894 C888 1.379 . S
C894 C891 1.363 . S
C894 N892 1.356 . S
C895 C889 1.363 . S
C895 C890 1.379 . S
C895 N893 1.356 . S
N896 C888 1.356 . S
N896 H902 0.984 . S
N896 H903 0.984 . S
N897 C890 1.356 . S
N897 H900 0.984 . S
N897 H901 0.985 . S
H898 N893 0.984 . S
H899 N893 0.985 . S
H900 N897 0.984 . S
H901 N897 0.985 . S
H902 N896 0.984 . S
H903 N896 0.984 . S
H904 N892 0.984 . S
H905 N892 0.985 . S
C906 C907 1.363 . S
C906 C912 1.379 . S
C906 N914 1.356 . S
C907 C906 1.363 . S
C907 C913 1.363 . S
C908 C909 1.363 . S
C908 C913 1.379 . S
C908 N915 1.356 . S
C909 C908 1.363 . S
C909 C912 1.363 . S
N910 C912 1.356 . S
N910 H922 0.984 . S
N910 H923 0.985 . S
N911 C913 1.356 . S
N911 H916 0.984 . S
N911 H917 0.985 . S
C912 C906 1.379 . S
C912 C909 1.363 . S
C912 N910 1.356 . S
C913 C907 1.363 . S
C913 C908 1.379 . S
C913 N911 1.356 . S
N914 C906 1.356 . S
N914 H920 0.984 . S
N914 H921 0.984 . S
N915 C908 1.356 . S
N915 H918 0.984 . S
N915 H919 0.985 . S
H916 N911 0.984 . S
H917 N911 0.985 . S
H918 N915 0.984 . S
H919 N915 0.985 . S
H920 N914 0.984 . S
H921 N914 0.984 . S
H922 N910 0.984 . S
H923 N910 0.985 . S
C924 C925 1.363 . S
C924 C930 1.379 . S
C924 N932 1.356 . S
C925 C924 1.363 . S
C925 C931 1.363 . S
C926 C927 1.363 . S
C926 C931 1.379 . S
C926 N933 1.356 . S
C927 C926 1.363 . S
C927 C930 1.363 . S
N928 C930 1.356 . S
N928 H940 0.984 . S
N928 H941 0.985 . S
N929 C931 1.356 . S
N929 H934 0.984 . S
N929 H935 0.985 . S
C930 C924 1.379 . S
C930 C927 1.363 . S
C930 N928 1.356 . S
C931 C925 1.363 . S
C931 C926 1.379 . S
C931 N929 1.356 . S
N932 C924 1.356 . S
N932 H938 0.984 . S
N932 H939 0.984 . S
N933 C926 1.356 . S
N933 H936 0.984 . S
N933 H937 0.985 . S
H934 N929 0.984 . S
H935 N929 0.985 . S
H936 N933 0.984 . S
H937 N933 0.985 . S
H938 N932 0.984 . S
H939 N932 0.984 . S
H940 N928 0.984 . S
H941 N928 0.985 . S
C942 C943 1.363 . S
C942 C948 1.379 . S
C942 N950 1.356 . S
C943 C942 1.363 . S
C943 C949 1.363 . S
C944 C945 1.363 . S
C944 C949 1.379 . S
C944 N951 1.356 . S
C945 C944 1.363 . S
C945 C948 1.363 . S
N946 C948 1.356 . S
N946 H958 0.984 . S
N946 H959 0.985 . S
N947 C949 1.356 . S
N947 H952 0.984 . S
N947 H953 0.985 . S
C948 C942 1.379 . S
C948 C945 1.363 . S
C948 N946 1.356 . S
C949 C943 1.363 . S
C949 C944 1.379 . S
C949 N947 1.356 . S
N950 C942 1.356 . S
N950 H956 0.984 . S
N950 H957 0.984 . S
N951 C944 1.356 . S
N951 H954 0.984 . S
N951 H955 0.985 . S
H952 N947 0.984 . S
H953 N947 0.985 . S
H954 N951 0.984 . S
H955 N951 0.985 . S
H956 N950 0.984 . S
H957 N950 0.984 . S
H958 N946 0.984 . S
H959 N946 0.985 . S
C960 C961 1.363 . S
C960 C966 1.379 . S
C960 N968 1.356 . S
C961 C960 1.363 . S
C961 C967 1.363 . S
C962 C963 1.363 . S
C962 C967 1.379 . S
C962 N969 1.356 . S
C963 C962 1.363 . S
C963 C966 1.363 . S
N964 C966 1.356 . S
N964 H976 0.984 . S
N964 H977 0.985 . S
N965 C967 1.356 . S
N965 H970 0.984 . S
N965 H971 0.985 . S
C966 C960 1.379 . S
C966 C963 1.363 . S
C966 N964 1.356 . S
C967 C961 1.363 . S
C967 C962 1.379 . S
C967 N965 1.356 . S
N968 C960 1.356 . S
N968 H974 0.984 . S
N968 H975 0.984 . S
N969 C962 1.356 . S
N969 H972 0.984 . S
N969 H973 0.985 . S
H970 N965 0.984 . S
H971 N965 0.985 . S
H972 N969 0.984 . S
H973 N969 0.985 . S
H974 N968 0.984 . S
H975 N968 0.984 . S
H976 N964 0.984 . S
H977 N964 0.985 . S
C978 C979 1.363 . S
C978 C984 1.379 . S
C978 N986 1.356 . S
C979 C978 1.363 . S
C979 C985 1.363 . S
C980 C981 1.363 . S
C980 C985 1.379 . S
C980 N987 1.356 . S
C981 C980 1.363 . S
C981 C984 1.363 . S
N982 C984 1.356 . S
N982 H994 0.984 . S
N982 H995 0.985 . S
N983 C985 1.356 . S
N983 H988 0.984 . S
N983 H989 0.985 . S
C984 C978 1.379 . S
C984 C981 1.363 . S
C984 N982 1.356 . S
C985 C979 1.363 . S
C985 C980 1.379 . S
C985 N983 1.356 . S
N986 C978 1.356 . S
N986 H992 0.984 . S
N986 H993 0.984 . S
N987 C980 1.356 . S
N987 H990 0.984 1_554 S
N987 H991 0.985 . S
H988 N983 0.984 . S
H989 N983 0.985 . S
H990 N987 0.984 1_556 S
H991 N987 0.985 . S
H992 N986 0.984 . S
H993 N986 0.984 . S
H994 N982 0.984 . S
H995 N982 0.985 . S
C996 C997 1.363 . S
C996 C1002 1.379 . S
C996 N1004 1.356 . S
C997 C996 1.363 . S
C997 C1003 1.363 . S
C998 C999 1.363 . S
C998 C1003 1.379 . S
C998 N1005 1.356 . S
C999 C998 1.363 . S
C999 C1002 1.363 . S
N1000 C1002 1.356 . S
N1000 H1012 0.984 . S
N1000 H1013 0.985 . S
N1001 C1003 1.356 . S
N1001 H1006 0.984 . S
N1001 H1007 0.985 . S
C1002 C996 1.379 . S
C1002 C999 1.363 . S
C1002 N1000 1.356 . S
C1003 C997 1.363 . S
C1003 C998 1.379 . S
C1003 N1001 1.356 . S
N1004 C996 1.356 . S
N1004 H1010 0.984 . S
N1004 H1011 0.984 . S
N1005 C998 1.356 . S
N1005 H1008 0.984 . S
N1005 H1009 0.985 . S
H1006 N1001 0.984 . S
H1007 N1001 0.985 . S
H1008 N1005 0.984 . S
H1009 N1005 0.985 . S
H1010 N1004 0.984 . S
H1011 N1004 0.984 . S
H1012 N1000 0.984 . S
H1013 N1000 0.985 . S
C1014 C1015 1.363 . S
C1014 C1020 1.379 . S
C1014 N1022 1.356 . S
C1015 C1014 1.363 . S
C1015 C1021 1.363 . S
C1016 C1017 1.363 . S
C1016 C1021 1.379 . S
C1016 N1023 1.356 . S
C1017 C1016 1.363 . S
C1017 C1020 1.363 . S
N1018 C1020 1.356 . S
N1018 H1030 0.984 . S
N1018 H1031 0.985 . S
N1019 C1021 1.356 . S
N1019 H1024 0.984 . S
N1019 H1025 0.985 . S
C1020 C1014 1.379 . S
C1020 C1017 1.363 . S
C1020 N1018 1.356 . S
C1021 C1015 1.363 . S
C1021 C1016 1.379 . S
C1021 N1019 1.356 . S
N1022 C1014 1.356 . S
N1022 H1028 0.984 . S
N1022 H1029 0.984 . S
N1023 C1016 1.356 . S
N1023 H1026 0.984 . S
N1023 H1027 0.985 . S
H1024 N1019 0.984 . S
H1025 N1019 0.985 . S
H1026 N1023 0.984 . S
H1027 N1023 0.985 . S
H1028 N1022 0.984 . S
H1029 N1022 0.984 . S
H1030 N1018 0.984 . S
H1031 N1018 0.985 . S
C1032 C1033 1.363 . S
C1032 C1038 1.379 . S
C1032 N1040 1.356 . S
C1033 C1032 1.363 . S
C1033 C1039 1.363 . S
C1034 C1035 1.363 . S
C1034 C1039 1.379 . S
C1034 N1041 1.356 . S
C1035 C1034 1.363 . S
C1035 C1038 1.363 . S
N1036 C1038 1.356 . S
N1036 H1048 0.984 . S
N1036 H1049 0.985 . S
N1037 C1039 1.356 . S
N1037 H1042 0.984 . S
N1037 H1043 0.985 . S
C1038 C1032 1.379 . S
C1038 C1035 1.363 . S
C1038 N1036 1.356 . S
C1039 C1033 1.363 . S
C1039 C1034 1.379 . S
C1039 N1037 1.356 . S
N1040 C1032 1.356 . S
N1040 H1046 0.984 . S
N1040 H1047 0.984 . S
N1041 C1034 1.356 . S
N1041 H1044 0.984 . S
N1041 H1045 0.985 . S
H1042 N1037 0.984 . S
H1043 N1037 0.985 . S
H1044 N1041 0.984 . S
H1045 N1041 0.985 . S
H1046 N1040 0.984 . S
H1047 N1040 0.984 . S
H1048 N1036 0.984 . S
H1049 N1036 0.985 . S
C1050 C1051 1.363 . S
C1050 C1056 1.379 . S
C1050 N1058 1.356 . S
C1051 C1050 1.363 . S
C1051 C1057 1.363 . S
C1052 C1053 1.363 . S
C1052 C1057 1.379 . S
C1052 N1059 1.356 . S
C1053 C1052 1.363 . S
C1053 C1056 1.363 . S
N1054 C1056 1.356 . S
N1054 H1066 0.984 . S
N1054 H1067 0.985 . S
N1055 C1057 1.356 . S
N1055 H1060 0.984 . S
N1055 H1061 0.985 . S
C1056 C1050 1.379 . S
C1056 C1053 1.363 . S
C1056 N1054 1.356 . S
C1057 C1051 1.363 . S
C1057 C1052 1.379 . S
C1057 N1055 1.356 . S
N1058 C1050 1.356 . S
N1058 H1064 0.984 . S
N1058 H1065 0.984 . S
N1059 C1052 1.356 . S
N1059 H1062 0.984 . S
N1059 H1063 0.985 . S
H1060 N1055 0.984 . S
H1061 N1055 0.985 . S
H1062 N1059 0.984 . S
H1063 N1059 0.985 . S
H1064 N1058 0.984 . S
H1065 N1058 0.984 . S
H1066 N1054 0.984 . S
H1067 N1054 0.985 . S
C1068 C1069 1.363 . S
C1068 C1074 1.379 . S
C1068 N1076 1.356 . S
C1069 C1068 1.363 . S
C1069 C1075 1.363 . S
C1070 C1071 1.363 . S
C1070 C1075 1.379 . S
C1070 N1077 1.356 . S
C1071 C1070 1.363 . S
C1071 C1074 1.363 . S
N1072 C1074 1.356 . S
N1072 H1084 0.984 . S
N1072 H1085 0.985 . S
N1073 C1075 1.356 . S
N1073 H1078 0.984 . S
N1073 H1079 0.985 . S
C1074 C1068 1.379 . S
C1074 C1071 1.363 . S
C1074 N1072 1.356 . S
C1075 C1069 1.363 . S
C1075 C1070 1.379 . S
C1075 N1073 1.356 . S
N1076 C1068 1.356 . S
N1076 H1082 0.984 . S
N1076 H1083 0.984 . S
N1077 C1070 1.356 . S
N1077 H1080 0.984 . S
N1077 H1081 0.985 . S
H1078 N1073 0.984 . S
H1079 N1073 0.985 . S
H1080 N1077 0.984 . S
H1081 N1077 0.985 . S
H1082 N1076 0.984 . S
H1083 N1076 0.984 . S
H1084 N1072 0.984 . S
H1085 N1072 0.985 . S
C1086 C1087 1.363 . S
C1086 C1092 1.379 . S
C1086 N1094 1.356 . S
C1087 C1086 1.363 . S
C1087 C1093 1.363 . S
C1088 C1089 1.363 . S
C1088 C1093 1.379 . S
C1088 N1095 1.356 . S
C1089 C1088 1.363 . S
C1089 C1092 1.363 . S
N1090 C1092 1.356 . S
N1090 H1102 0.984 . S
N1090 H1103 0.985 . S
N1091 C1093 1.356 . S
N1091 H1096 0.984 . S
N1091 H1097 0.985 . S
C1092 C1086 1.379 . S
C1092 C1089 1.363 . S
C1092 N1090 1.356 . S
C1093 C1087 1.363 . S
C1093 C1088 1.379 . S
C1093 N1091 1.356 . S
N1094 C1086 1.356 . S
N1094 H1100 0.984 . S
N1094 H1101 0.984 . S
N1095 C1088 1.356 . S
N1095 H1098 0.984 . S
N1095 H1099 0.985 . S
H1096 N1091 0.984 . S
H1097 N1091 0.985 . S
H1098 N1095 0.984 . S
H1099 N1095 0.985 . S
H1100 N1094 0.984 . S
H1101 N1094 0.984 . S
H1102 N1090 0.984 . S
H1103 N1090 0.985 . S
C1104 C1105 1.363 . S
C1104 C1110 1.379 . S
C1104 N1112 1.356 . S
C1105 C1104 1.363 . S
C1105 C1111 1.363 . S
C1106 C1107 1.363 . S
C1106 C1111 1.379 . S
C1106 N1113 1.356 . S
C1107 C1106 1.363 . S
C1107 C1110 1.363 . S
N1108 C1110 1.356 . S
N1108 H1120 0.984 . S
N1108 H1121 0.985 . S
N1109 C1111 1.356 . S
N1109 H1114 0.984 . S
N1109 H1115 0.985 . S
C1110 C1104 1.379 . S
C1110 C1107 1.363 . S
C1110 N1108 1.356 . S
C1111 C1105 1.363 . S
C1111 C1106 1.379 . S
C1111 N1109 1.356 . S
N1112 C1104 1.356 . S
N1112 H1118 0.984 . S
N1112 H1119 0.984 . S
N1113 C1106 1.356 . S
N1113 H1116 0.984 . S
N1113 H1117 0.985 . S
H1114 N1109 0.984 . S
H1115 N1109 0.985 . S
H1116 N1113 0.984 . S
H1117 N1113 0.985 . S
H1118 N1112 0.984 . S
H1119 N1112 0.984 . S
H1120 N1108 0.984 . S
H1121 N1108 0.985 . S
C1122 C1123 1.363 . S
C1122 C1128 1.379 . S
C1122 N1130 1.356 . S
C1123 C1122 1.363 . S
C1123 C1129 1.363 . S
C1124 C1125 1.363 . S
C1124 C1129 1.379 . S
C1124 N1131 1.356 . S
C1125 C1124 1.363 . S
C1125 C1128 1.363 . S
N1126 C1128 1.356 . S
N1126 H1138 0.984 . S
N1126 H1139 0.985 . S
N1127 C1129 1.356 . S
N1127 H1132 0.984 . S
N1127 H1133 0.985 . S
C1128 C1122 1.379 . S
C1128 C1125 1.363 . S
C1128 N1126 1.356 . S
C1129 C1123 1.363 . S
C1129 C1124 1.379 . S
C1129 N1127 1.356 . S
N1130 C1122 1.356 . S
N1130 H1136 0.984 . S
N1130 H1137 0.984 . S
N1131 C1124 1.356 . S
N1131 H1134 0.984 . S
N1131 H1135 0.985 . S
H1132 N1127 0.984 . S
H1133 N1127 0.985 . S
H1134 N1131 0.984 . S
H1135 N1131 0.985 . S
H1136 N1130 0.984 . S
H1137 N1130 0.984 . S
H1138 N1126 0.984 . S
H1139 N1126 0.985 . S
C1140 C1141 1.363 . S
C1140 C1146 1.379 . S
C1140 N1148 1.356 . S
C1141 C1140 1.363 . S
C1141 C1147 1.363 . S
C1142 C1143 1.363 . S
C1142 C1147 1.379 . S
C1142 N1149 1.356 . S
C1143 C1142 1.363 . S
C1143 C1146 1.363 . S
N1144 C1146 1.356 . S
N1144 H1156 0.984 . S
N1144 H1157 0.985 . S
N1145 C1147 1.356 . S
N1145 H1150 0.984 . S
N1145 H1151 0.985 . S
C1146 C1140 1.379 . S
C1146 C1143 1.363 . S
C1146 N1144 1.356 . S
C1147 C1141 1.363 . S
C1147 C1142 1.379 . S
C1147 N1145 1.356 . S
N1148 C1140 1.356 . S
N1148 H1154 0.984 . S
N1148 H1155 0.984 . S
N1149 C1142 1.356 . S
N1149 H1152 0.984 . S
N1149 H1153 0.985 . S
H1150 N1145 0.984 . S
H1151 N1145 0.985 . S
H1152 N1149 0.984 . S
H1153 N1149 0.985 . S
H1154 N1148 0.984 . S
H1155 N1148 0.984 . S
H1156 N1144 0.984 . S
H1157 N1144 0.985 . S
C1158 C1159 1.363 . S
C1158 C1164 1.379 . S
C1158 N1166 1.356 . S
C1159 C1158 1.363 . S
C1159 C1165 1.363 . S
C1160 C1161 1.363 . S
C1160 C1165 1.379 . S
C1160 N1167 1.356 . S
C1161 C1160 1.363 . S
C1161 C1164 1.363 . S
N1162 C1164 1.356 . S
N1162 H1174 0.984 . S
N1162 H1175 0.985 . S
N1163 C1165 1.356 . S
N1163 H1168 0.984 . S
N1163 H1169 0.985 . S
C1164 C1158 1.379 . S
C1164 C1161 1.363 . S
C1164 N1162 1.356 . S
C1165 C1159 1.363 . S
C1165 C1160 1.379 . S
C1165 N1163 1.356 . S
N1166 C1158 1.356 . S
N1166 H1172 0.984 . S
N1166 H1173 0.984 . S
N1167 C1160 1.356 . S
N1167 H1170 0.984 . S
N1167 H1171 0.985 . S
H1168 N1163 0.984 . S
H1169 N1163 0.985 . S
H1170 N1167 0.984 . S
H1171 N1167 0.985 . S
H1172 N1166 0.984 . S
H1173 N1166 0.984 . S
H1174 N1162 0.984 . S
H1175 N1162 0.985 . S
C1176 C1177 1.363 . S
C1176 C1182 1.379 . S
C1176 N1184 1.356 . S
C1177 C1176 1.363 . S
C1177 C1183 1.363 . S
C1178 C1179 1.363 . S
C1178 C1183 1.379 . S
C1178 N1185 1.356 . S
C1179 C1178 1.363 . S
C1179 C1182 1.363 . S
N1180 C1182 1.356 . S
N1180 H1192 0.984 . S
N1180 H1193 0.985 . S
N1181 C1183 1.356 . S
N1181 H1186 0.984 . S
N1181 H1187 0.985 . S
C1182 C1176 1.379 . S
C1182 C1179 1.363 . S
C1182 N1180 1.356 . S
C1183 C1177 1.363 . S
C1183 C1178 1.379 . S
C1183 N1181 1.356 . S
N1184 C1176 1.356 . S
N1184 H1190 0.984 . S
N1184 H1191 0.984 . S
N1185 C1178 1.356 . S
N1185 H1188 0.984 . S
N1185 H1189 0.985 . S
H1186 N1181 0.984 . S
H1187 N1181 0.985 . S
H1188 N1185 0.984 . S
H1189 N1185 0.985 . S
H1190 N1184 0.984 . S
H1191 N1184 0.984 . S
H1192 N1180 0.984 . S
H1193 N1180 0.985 . S
C1194 C1195 1.363 . S
C1194 C1200 1.379 . S
C1194 N1202 1.356 . S
C1195 C1194 1.363 . S
C1195 C1201 1.363 . S
C1196 C1197 1.363 . S
C1196 C1201 1.379 . S
C1196 N1203 1.356 . S
C1197 C1196 1.363 . S
C1197 C1200 1.363 . S
N1198 C1200 1.356 . S
N1198 H1210 0.984 . S
N1198 H1211 0.985 . S
N1199 C1201 1.356 . S
N1199 H1204 0.984 . S
N1199 H1205 0.985 . S
C1200 C1194 1.379 . S
C1200 C1197 1.363 . S
C1200 N1198 1.356 . S
C1201 C1195 1.363 . S
C1201 C1196 1.379 . S
C1201 N1199 1.356 . S
N1202 C1194 1.356 . S
N1202 H1208 0.984 . S
N1202 H1209 0.984 . S
N1203 C1196 1.356 . S
N1203 H1206 0.984 . S
N1203 H1207 0.985 . S
H1204 N1199 0.984 . S
H1205 N1199 0.985 . S
H1206 N1203 0.984 . S
H1207 N1203 0.985 . S
H1208 N1202 0.984 . S
H1209 N1202 0.984 . S
H1210 N1198 0.984 . S
H1211 N1198 0.985 . S
C1212 C1213 1.363 . S
C1212 C1218 1.379 . S
C1212 N1220 1.356 . S
C1213 C1212 1.363 . S
C1213 C1219 1.363 . S
C1214 C1215 1.363 . S
C1214 C1219 1.379 . S
C1214 N1221 1.356 . S
C1215 C1214 1.363 . S
C1215 C1218 1.363 . S
N1216 C1218 1.356 . S
N1216 H1228 0.984 . S
N1216 H1229 0.985 . S
N1217 C1219 1.356 . S
N1217 H1222 0.984 . S
N1217 H1223 0.985 . S
C1218 C1212 1.379 . S
C1218 C1215 1.363 . S
C1218 N1216 1.356 . S
C1219 C1213 1.363 . S
C1219 C1214 1.379 . S
C1219 N1217 1.356 . S
N1220 C1212 1.356 . S
N1220 H1226 0.984 . S
N1220 H1227 0.984 . S
N1221 C1214 1.356 . S
N1221 H1224 0.984 . S
N1221 H1225 0.985 . S
H1222 N1217 0.984 . S
H1223 N1217 0.985 . S
H1224 N1221 0.984 . S
H1225 N1221 0.985 . S
H1226 N1220 0.984 . S
H1227 N1220 0.984 . S
H1228 N1216 0.984 . S
H1229 N1216 0.985 . S
C1230 C1231 1.363 . S
C1230 C1236 1.379 . S
C1230 N1238 1.356 . S
C1231 C1230 1.363 . S
C1231 C1237 1.363 . S
C1232 C1233 1.363 . S
C1232 C1237 1.379 . S
C1232 N1239 1.356 . S
C1233 C1232 1.363 . S
C1233 C1236 1.363 . S
N1234 C1236 1.356 . S
N1234 H1246 0.984 . S
N1234 H1247 0.985 . S
N1235 C1237 1.356 . S
N1235 H1240 0.984 . S
N1235 H1241 0.985 . S
C1236 C1230 1.379 . S
C1236 C1233 1.363 . S
C1236 N1234 1.356 . S
C1237 C1231 1.363 . S
C1237 C1232 1.379 . S
C1237 N1235 1.356 . S
N1238 C1230 1.356 . S
N1238 H1244 0.984 . S
N1238 H1245 0.984 . S
N1239 C1232 1.356 . S
N1239 H1242 0.984 . S
N1239 H1243 0.985 . S
H1240 N1235 0.984 . S
H1241 N1235 0.985 . S
H1242 N1239 0.984 . S
H1243 N1239 0.985 . S
H1244 N1238 0.984 . S
H1245 N1238 0.984 . S
H1246 N1234 0.984 . S
H1247 N1234 0.985 . S
C1248 C1249 1.363 . S
C1248 C1254 1.379 . S
C1248 N1256 1.356 . S
C1249 C1248 1.363 . S
C1249 C1255 1.363 . S
C1250 C1251 1.363 . S
C1250 C1255 1.379 . S
C1250 N1257 1.356 . S
C1251 C1250 1.363 . S
C1251 C1254 1.363 . S
N1252 C1254 1.356 . S
N1252 H1264 0.984 . S
N1252 H1265 0.985 . S
N1253 C1255 1.356 . S
N1253 H1258 0.984 . S
N1253 H1259 0.985 . S
C1254 C1248 1.379 . S
C1254 C1251 1.363 . S
C1254 N1252 1.356 . S
C1255 C1249 1.363 . S
C1255 C1250 1.379 . S
C1255 N1253 1.356 . S
N1256 C1248 1.356 . S
N1256 H1262 0.984 . S
N1256 H1263 0.984 . S
N1257 C1250 1.356 . S
N1257 H1260 0.984 . S
N1257 H1261 0.985 . S
H1258 N1253 0.984 . S
H1259 N1253 0.985 . S
H1260 N1257 0.984 . S
H1261 N1257 0.985 . S
H1262 N1256 0.984 . S
H1263 N1256 0.984 . S
H1264 N1252 0.984 . S
H1265 N1252 0.985 . S
C1266 C1267 1.363 . S
C1266 C1272 1.379 . S
C1266 N1274 1.356 . S
C1267 C1266 1.363 . S
C1267 C1273 1.363 . S
C1268 C1269 1.363 . S
C1268 C1273 1.379 . S
C1268 N1275 1.356 . S
C1269 C1268 1.363 . S
C1269 C1272 1.363 . S
N1270 C1272 1.356 . S
N1270 H1282 0.984 . S
N1270 H1283 0.985 . S
N1271 C1273 1.356 . S
N1271 H1276 0.984 . S
N1271 H1277 0.985 . S
C1272 C1266 1.379 . S
C1272 C1269 1.363 . S
C1272 N1270 1.356 . S
C1273 C1267 1.363 . S
C1273 C1268 1.379 . S
C1273 N1271 1.356 . S
N1274 C1266 1.356 . S
N1274 H1280 0.984 . S
N1274 H1281 0.984 . S
N1275 C1268 1.356 . S
N1275 H1278 0.984 . S
N1275 H1279 0.985 . S
H1276 N1271 0.984 . S
H1277 N1271 0.985 . S
H1278 N1275 0.984 . S
H1279 N1275 0.985 . S
H1280 N1274 0.984 . S
H1281 N1274 0.984 . S
H1282 N1270 0.984 . S
H1283 N1270 0.985 . S
C1284 C1285 1.363 . S
C1284 C1290 1.379 . S
C1284 N1292 1.356 . S
C1285 C1284 1.363 . S
C1285 C1291 1.363 . S
C1286 C1287 1.363 . S
C1286 C1291 1.379 . S
C1286 N1293 1.356 . S
C1287 C1286 1.363 . S
C1287 C1290 1.363 . S
N1288 C1290 1.356 . S
N1288 H1300 0.984 . S
N1288 H1301 0.985 . S
N1289 C1291 1.356 . S
N1289 H1294 0.984 . S
N1289 H1295 0.985 . S
C1290 C1284 1.379 . S
C1290 C1287 1.363 . S
C1290 N1288 1.356 . S
C1291 C1285 1.363 . S
C1291 C1286 1.379 . S
C1291 N1289 1.356 . S
N1292 C1284 1.356 . S
N1292 H1298 0.984 . S
N1292 H1299 0.984 . S
N1293 C1286 1.356 . S
N1293 H1296 0.984 . S
N1293 H1297 0.985 . S
H1294 N1289 0.984 . S
H1295 N1289 0.985 . S
H1296 N1293 0.984 . S
H1297 N1293 0.985 . S
H1298 N1292 0.984 . S
H1299 N1292 0.984 . S
H1300 N1288 0.984 . S
H1301 N1288 0.985 . S
C441 C267 0.881 . S
C439 N6 0.913 . S
C459 C268 2.102 . S
C457 C57 2.244 . S
C477 C262 1.486 . S
C475 C61 1.521 . S
C493 N96 0.709 . S
C495 C261 0.688 . S
C511 C136 2.244 . S
C513 C264 2.102 . S
C531 C266 1.486 . S
C529 C160 1.521 . S
C547 N194 0.709 . S
C549 C265 0.688 . S
C565 N224 0.913 . S
C567 C263 0.881 . S
C585 C298 2.090 . S
C583 C10 2.039 . S
C601 N36 0.961 . S
C603 C329 1.039 . S
C621 C297 0.742 . S
C619 N74 0.744 . S
C639 C332 1.375 . S
C637 C100 1.413 . S
C655 C121 1.587 . S
C657 C295 1.574 . S
C675 C327 1.953 . S
C673 C177 1.939 . S
C691 C196 2.192 . S
C693 C300 2.161 . S
C709 C226 1.992 . S
C711 C334 1.958 . S
C727 C27 1.992 . S
C729 C330 1.957 . S
C745 N134 0.961 . S
C747 C333 1.039 . S
C765 C301 0.742 . S
C763 N156 0.745 . S
C783 C328 1.375 . S
C781 C181 1.415 . S
C799 C211 2.040 . S
C801 C294 2.091 . S
C817 C76 1.938 . S
C819 C331 1.952 . S
C837 C296 2.161 . S
C835 C117 2.191 . S
C853 C40 1.587 . S
C855 C299 1.573 . S
C871 N216 0.925 . S
C873 C366 0.908 . S
C889 C147 1.959 . S
C891 C367 1.829 . S
C909 C361 1.377 . S
C907 C151 1.418 . S
C927 C360 0.700 . S
C925 N186 0.708 . S
C943 C46 1.959 . S
C945 C363 1.827 . S
C963 C365 1.377 . S
C961 C70 1.416 . S
C979 N104 0.708 . S
C981 C364 0.700 . S
C997 N14 0.925 . S
C999 C362 0.907 . S
C1015 C220 2.122 . S
C1017 C400 2.053 . S
C1035 C432 1.161 . S
C1033 N126 0.981 . S
C1051 N164 0.600 . S
C1053 C393 0.569 . S
C1069 C190 1.636 . S
C1071 C427 1.652 . S
C1089 C398 1.441 . S
C1087 C31 1.445 . S
C1105 C87 2.129 . S
C1107 C429 2.089 . S
C1125 C395 2.255 . S
C1123 C106 2.337 . S
C1143 C430 2.023 . S
C1141 C16 1.929 . S
C1161 C426 2.023 . S
C1159 C237 1.929 . S
C1177 N44 0.981 . S
C1179 C428 1.161 . S
C1195 N66 0.600 . S
C1197 C397 0.569 . S
C1215 C431 1.652 . S
C1213 C91 1.636 . S
C1231 C1 2.122 . S
C1233 C396 2.053 . S
C1249 C166 2.129 . S
C1251 C433 2.089 . S
C1269 C399 2.255 . S
C1267 C207 2.337 . S
C1287 C394 1.441 . S
C1285 C130 1.445 . S
