# Generated by pormake.
# Topology dag, (6,3)-cn, num edge types: 1
# Building blocks:
#     Node 0, Type 0, BuildingBlock: IZENUY_clean_sbu_0, # of connection points: 6
#     Node 1, Type 0, BuildingBlock: IZENUY_clean_sbu_0, # of connection points: 6
#     Node 2, Type 0, BuildingBlock: IZENUY_clean_sbu_0, # of connection points: 6
#     Node 3, Type 0, BuildingBlock: IZENUY_clean_sbu_0, # of connection points: 6
#     Node 4, Type 1, BuildingBlock: OLANEW_clean_sbu_2, # of connection points: 3
#     Node 5, Type 1, BuildingBlock: OLANEW_clean_sbu_2, # of connection points: 3
#     Node 6, Type 1, BuildingBlock: OLANEW_clean_sbu_2, # of connection points: 3
#     Node 7, Type 1, BuildingBlock: OLANEW_clean_sbu_2, # of connection points: 3
#     Node 8, Type 1, BuildingBlock: OLANEW_clean_sbu_2, # of connection points: 3
#     Node 9, Type 1, BuildingBlock: OLANEW_clean_sbu_2, # of connection points: 3
#     Node 10, Type 1, BuildingBlock: OLANEW_clean_sbu_2, # of connection points: 3
#     Node 11, Type 1, BuildingBlock: OLANEW_clean_sbu_2, # of connection points: 3
#     Edge 12, Type (0, 1), BuildingBlock: ZUJKAS_clean_linker_0, # of connection points: 2
#     Edge 13, Type (0, 1), BuildingBlock: ZUJKAS_clean_linker_0, # of connection points: 2
#     Edge 14, Type (0, 1), BuildingBlock: ZUJKAS_clean_linker_0, # of connection points: 2
#     Edge 15, Type (0, 1), BuildingBlock: ZUJKAS_clean_linker_0, # of connection points: 2
#     Edge 16, Type (0, 1), BuildingBlock: ZUJKAS_clean_linker_0, # of connection points: 2
#     Edge 17, Type (0, 1), BuildingBlock: ZUJKAS_clean_linker_0, # of connection points: 2
#     Edge 18, Type (0, 1), BuildingBlock: ZUJKAS_clean_linker_0, # of connection points: 2
#     Edge 19, Type (0, 1), BuildingBlock: ZUJKAS_clean_linker_0, # of connection points: 2
#     Edge 20, Type (0, 1), BuildingBlock: ZUJKAS_clean_linker_0, # of connection points: 2
#     Edge 21, Type (0, 1), BuildingBlock: ZUJKAS_clean_linker_0, # of connection points: 2
#     Edge 22, Type (0, 1), BuildingBlock: ZUJKAS_clean_linker_0, # of connection points: 2
#     Edge 23, Type (0, 1), BuildingBlock: ZUJKAS_clean_linker_0, # of connection points: 2
#     Edge 24, Type (0, 1), BuildingBlock: ZUJKAS_clean_linker_0, # of connection points: 2
#     Edge 25, Type (0, 1), BuildingBlock: ZUJKAS_clean_linker_0, # of connection points: 2
#     Edge 26, Type (0, 1), BuildingBlock: ZUJKAS_clean_linker_0, # of connection points: 2
#     Edge 27, Type (0, 1), BuildingBlock: ZUJKAS_clean_linker_0, # of connection points: 2
#     Edge 28, Type (0, 1), BuildingBlock: ZUJKAS_clean_linker_0, # of connection points: 2
#     Edge 29, Type (0, 1), BuildingBlock: ZUJKAS_clean_linker_0, # of connection points: 2
#     Edge 30, Type (0, 1), BuildingBlock: ZUJKAS_clean_linker_0, # of connection points: 2
#     Edge 31, Type (0, 1), BuildingBlock: ZUJKAS_clean_linker_0, # of connection points: 2
#     Edge 32, Type (0, 1), BuildingBlock: ZUJKAS_clean_linker_0, # of connection points: 2
#     Edge 33, Type (0, 1), BuildingBlock: ZUJKAS_clean_linker_0, # of connection points: 2
#     Edge 34, Type (0, 1), BuildingBlock: ZUJKAS_clean_linker_0, # of connection points: 2
#     Edge 35, Type (0, 1), BuildingBlock: ZUJKAS_clean_linker_0, # of connection points: 2
# Relax obj value: 0.127
# Max RMSD: 0.149
# Mean RMSD: 0.112
data_MOF--net-dag--node1-IZENUY_clean_sbu_0--node2-OLANEW_clean_sbu_2--edge1-ZUJKAS_clean_linker_0
_symmetry_space_group_name_H-M    P1
_symmetry_Int_Tables_number       1
_symmetry_cell_setting            triclinic
loop_
_symmetry_equiv_pos_as_xyz
'x, y, z'
_cell_length_a     55.292203
_cell_length_b     51.985983
_cell_length_c     47.511108
_cell_angle_alpha  92.152654
_cell_angle_beta   94.057972
_cell_angle_gamma 91.213262
loop_
_atom_site_label
_atom_site_type_symbol
_atom_site_fract_x
_atom_site_fract_y
_atom_site_fract_z
_atom_type_partial_charge
Fe0 Fe 0.15966 0.88666 0.01233 0.0
Fe1 Fe 0.10467 0.89442 0.00461 0.0
O2 O 0.12984 0.87386 0.00413 0.0
Fe3 Fe 0.12489 0.84058 0.99533 0.0
O4 O 0.15021 0.82976 0.01863 0.0
O5 O 0.16526 0.86497 0.041 0.0
O6 O 0.15043 0.91053 0.03899 0.0
C7 C 0.1313 0.91231 0.0522 0.0
C8 C 0.16522 0.85059 0.96667 0.0
O9 O 0.11135 0.90272 0.04171 0.0
C10 C 0.09202 0.86502 0.95688 0.0
O11 O 0.15675 0.90948 0.98431 0.0
O12 O 0.121 0.92317 0.99416 0.0
O13 O 0.14363 0.84211 0.96572 0.0
O14 O 0.17398 0.86501 0.98718 0.0
C15 C 0.08665 0.8488 0.02752 0.0
O16 O 0.09657 0.88737 0.96747 0.0
O17 O 0.09868 0.84535 0.97011 0.0
C18 C 0.1404 0.92594 0.98194 0.0
O19 O 0.08326 0.86974 0.01525 0.0
O20 O 0.10573 0.83646 0.02445 0.0
C21 C 0.16285 0.84078 0.03904 0.0
Fe22 Fe 0.68211 0.62109 0.47291 0.0
Fe23 Fe 0.64539 0.66295 0.45893 0.0
O24 O 0.65168 0.6311 0.46877 0.0
Fe25 Fe 0.62766 0.60932 0.47444 0.0
O26 O 0.63922 0.6048 0.51057 0.0
O27 O 0.67691 0.59857 0.5009 0.0
O28 O 0.68938 0.64548 0.50057 0.0
C29 C 0.68687 0.66928 0.49746 0.0
C30 C 0.66058 0.57849 0.44567 0.0
O31 O 0.67319 0.67731 0.47726 0.0
C32 C 0.60791 0.63322 0.42828 0.0
O33 O 0.69304 0.64176 0.44571 0.0
O34 O 0.65992 0.6581 0.42607 0.0
O35 O 0.64306 0.58076 0.46133 0.0
O36 O 0.6767 0.59601 0.4455 0.0
C37 C 0.61287 0.65649 0.49905 0.0
O38 O 0.61645 0.6545 0.43892 0.0
O39 O 0.6143 0.61228 0.43877 0.0
C40 C 0.68166 0.65153 0.42481 0.0
O41 O 0.63039 0.66969 0.49113 0.0
O42 O 0.60808 0.63404 0.48854 0.0
C43 C 0.66019 0.5972 0.5177 0.0
Fe44 Fe 0.87533 0.17923 0.03841 0.0
Fe45 Fe 0.89019 0.12514 0.01984 0.0
O46 O 0.8674 0.14798 0.02417 0.0
Fe47 Fe 0.83675 0.13936 0.01415 0.0
O48 O 0.83454 0.16457 0.98891 0.0
O49 O 0.8514 0.19545 0.01714 0.0
O50 O 0.89527 0.18537 0.01035 0.0
C51 C 0.91287 0.17141 0.00489 0.0
C52 C 0.83374 0.1695 0.06465 0.0
O53 O 0.91403 0.14874 0.01352 0.0
C54 C 0.85169 0.09521 0.03853 0.0
O55 O 0.90058 0.1684 0.06223 0.0
O56 O 0.89861 0.12613 0.05738 0.0
O57 O 0.82415 0.15983 0.04156 0.0
O58 O 0.85607 0.17529 0.06741 0.0
C59 C 0.86242 0.11647 0.97058 0.0
O60 O 0.87074 0.09714 0.02544 0.0
O61 O 0.83697 0.11342 0.03887 0.0
C62 C 0.90541 0.14635 0.07153 0.0
O63 O 0.88308 0.12288 0.98198 0.0
O64 O 0.84382 0.11745 0.9847 0.0
C65 C 0.83903 0.18815 0.99461 0.0
Fe66 Fe 0.36807 0.38165 0.55282 0.0
Fe67 Fe 0.31454 0.36617 0.55576 0.0
O68 O 0.34556 0.35802 0.55805 0.0
Fe69 Fe 0.35411 0.32624 0.56571 0.0
O70 O 0.37208 0.3372 0.5975 0.0
O71 O 0.39112 0.36845 0.57764 0.0
O72 O 0.35893 0.40158 0.5821 0.0
C73 C 0.33788 0.41003 0.58401 0.0
C74 C 0.38602 0.34048 0.52446 0.0
O75 O 0.31993 0.39962 0.56944 0.0
C76 C 0.31435 0.31613 0.52935 0.0
O77 O 0.34914 0.3992 0.52709 0.0
O78 O 0.31578 0.37553 0.51937 0.0
O79 O 0.38073 0.32652 0.54455 0.0
O80 O 0.37865 0.36322 0.52318 0.0
C81 C 0.31636 0.33574 0.60157 0.0
O82 O 0.30351 0.33418 0.54162 0.0
O83 O 0.33677 0.3132 0.53452 0.0
C84 C 0.33048 0.39222 0.51144 0.0
O85 O 0.31142 0.35748 0.59202 0.0
O86 O 0.32906 0.32014 0.58819 0.0
C87 C 0.38914 0.35373 0.59805 0.0
O88 O 0.14101 0.04541 0.33656 0.0
Cd89 Cd 0.1397 0.06275 0.38503 0.0
O90 O 0.12711 0.08122 0.31984 0.0
Cd91 Cd 0.11775 0.1113 0.29026 0.0
O92 O 0.12095 0.15439 0.28289 0.0
C93 C 0.10472 0.16952 0.27299 0.0
O94 O 0.12172 0.15479 0.28314 0.0
C95 C 0.13445 0.05849 0.3154 0.0
C96 C 0.17023 0.10559 0.39889 0.0
O97 O 0.17808 0.08265 0.40079 0.0
O98 O 0.14806 0.1083 0.38987 0.0
O99 O 0.34085 0.67861 0.71158 0.0
Cd100 Cd 0.35331 0.72286 0.72656 0.0
O101 O 0.37805 0.6653 0.72043 0.0
Cd102 Cd 0.3964 0.70302 0.72352 0.0
O103 O 0.42748 0.71862 0.70313 0.0
C104 C 0.4256 0.71713 0.67629 0.0
O105 O 0.40486 0.70897 0.66346 0.0
C106 C 0.35576 0.66033 0.71347 0.0
C107 C 0.32239 0.74515 0.76424 0.0
O108 O 0.31985 0.74935 0.73779 0.0
O109 O 0.33944 0.73041 0.77283 0.0
O110 O 0.87078 0.7061 0.12203 0.0
Cd111 Cd 0.82998 0.68694 0.12298 0.0
O112 O 0.85373 0.74285 0.13039 0.0
Cd113 Cd 0.85026 0.78446 0.13682 0.0
O114 O 0.84325 0.82556 0.13561 0.0
C115 C 0.83911 0.8349 0.11147 0.0
O116 O 0.83936 0.81954 0.08889 0.0
C117 C 0.87254 0.73049 0.12472 0.0
C118 C 0.8113 0.68334 0.17574 0.0
O119 O 0.82131 0.66404 0.16409 0.0
O120 O 0.81074 0.70455 0.16283 0.0
O121 O 0.68038 0.42583 0.76432 0.0
Cd122 Cd 0.66661 0.39538 0.79846 0.0
O123 O 0.65693 0.45596 0.78025 0.0
Cd124 Cd 0.63602 0.42977 0.80454 0.0
O125 O 0.60043 0.41052 0.79877 0.0
C126 C 0.59815 0.38834 0.78657 0.0
O127 O 0.61775 0.37612 0.78032 0.0
C128 C 0.67296 0.44884 0.76386 0.0
C129 C 0.7019 0.36537 0.82562 0.0
O130 O 0.69068 0.35758 0.80221 0.0
O131 O 0.69697 0.38769 0.83578 0.0
O132 O 0.65318 0.31124 0.32348 0.0
Cd133 Cd 0.64154 0.26606 0.31326 0.0
O134 O 0.66107 0.30501 0.36867 0.0
Cd135 Cd 0.64021 0.26886 0.36667 0.0
O136 O 0.60313 0.26095 0.37744 0.0
C137 C 0.58733 0.27559 0.36628 0.0
O138 O 0.59408 0.2919 0.34769 0.0
C139 C 0.66143 0.31964 0.34785 0.0
C140 C 0.67237 0.2445 0.2753 0.0
O141 O 0.65207 0.25392 0.26662 0.0
O142 O 0.67791 0.2449 0.30197 0.0
O143 O 0.21046 0.19478 0.92189 0.0
Cd144 Cd 0.21835 0.24103 0.91822 0.0
O145 O 0.17707 0.20054 0.89576 0.0
Cd146 Cd 0.14425 0.19184 0.86827 0.0
O147 O 0.12316 0.19557 0.82797 0.0
C148 C 0.10152 0.20314 0.82378 0.0
O149 O 0.09286 0.20633 0.79771 0.0
C150 C 0.19095 0.18543 0.90942 0.0
C151 C 0.23442 0.25437 0.86613 0.0
O152 O 0.24954 0.25097 0.88732 0.0
O153 O 0.21177 0.25121 0.86949 0.0
O154 O 0.37063 0.6366 0.25459 0.0
Cd155 Cd 0.32928 0.62649 0.23422 0.0
O156 O 0.38261 0.59794 0.24221 0.0
Cd157 Cd 0.34614 0.58092 0.23506 0.0
O158 O 0.32553 0.55275 0.25738 0.0
C159 C 0.32291 0.55861 0.28318 0.0
O160 O 0.3305 0.5815 0.29324 0.0
C161 C 0.38755 0.62056 0.25244 0.0
C162 C 0.30612 0.6668 0.20648 0.0
O163 O 0.32098 0.65247 0.194 0.0
O164 O 0.30252 0.66243 0.23224 0.0
O165 O 0.91058 0.87413 0.7114 0.0
Cd166 Cd 0.87673 0.89118 0.68214 0.0
O167 O 0.88706 0.85964 0.74303 0.0
Cd168 Cd 0.85692 0.88309 0.72838 0.0
O169 O 0.84352 0.92072 0.74036 0.0
C170 C 0.85786 0.9398 0.73789 0.0
O171 O 0.87808 0.93594 0.72554 0.0
C172 C 0.90794 0.86169 0.73358 0.0
C173 C 0.84732 0.85273 0.65374 0.0
O174 O 0.86542 0.86259 0.64217 0.0
O175 O 0.84325 0.86095 0.67865 0.0
H176 H 0.17027 0.93772 0.08039 0.0
H177 H 0.17072 0.96423 0.12409 0.0
H178 H 0.094 0.94969 0.12793 0.0
H179 H 0.09334 0.92291 0.08452 0.0
H180 H 0.14426 0.00884 0.13611 0.0
H181 H 0.12271 0.9292 0.20567 0.0
H182 H 0.13241 0.92354 0.17054 0.0
H183 H 0.10162 0.93204 0.17548 0.0
C184 C 0.15349 0.94004 0.09057 0.0
C185 C 0.13179 0.92804 0.07897 0.0
C186 C 0.15378 0.95529 0.11549 0.0
C187 C 0.13245 0.95871 0.12939 0.0
C188 C 0.11074 0.94696 0.11779 0.0
H189 H 0.10785 0.07018 0.26649 0.0
H190 H 0.10795 0.04779 0.2202 0.0
C191 C 0.11041 0.9317 0.0929 0.0
C192 C 0.13293 0.97453 0.15607 0.0
H193 H 0.12328 0.97147 0.22604 0.0
C194 C 0.13969 0.00072 0.15581 0.0
C195 C 0.12715 0.9638 0.18175 0.0
C196 C 0.12077 0.93556 0.18357 0.0
C197 C 0.14067 0.01651 0.18057 0.0
C198 C 0.13451 0.00584 0.20613 0.0
C199 C 0.12784 0.97964 0.20636 0.0
C200 C 0.13574 0.02111 0.23323 0.0
C201 C 0.14881 0.0443 0.17934 0.0
C202 C 0.15127 0.01357 0.25588 0.0
C203 C 0.15129 0.02634 0.28224 0.0
C204 C 0.13577 0.04699 0.28656 0.0
C205 C 0.12052 0.05489 0.2637 0.0
C206 C 0.12047 0.042 0.23724 0.0
H207 H 0.15792 0.04801 0.15973 0.0
H208 H 0.13276 0.05674 0.17981 0.0
H209 H 0.16144 0.04999 0.19784 0.0
H210 H 0.16315 0.99747 0.25328 0.0
H211 H 0.16325 0.01976 0.2994 0.0
H212 H 0.5724 0.63413 0.51806 0.0
H213 H 0.545 0.65229 0.55099 0.0
H214 H 0.58851 0.72234 0.55964 0.0
H215 H 0.61611 0.70437 0.52614 0.0
H216 H 0.55575 0.66943 0.6069 0.0
H217 H 0.51928 0.74774 0.54051 0.0
H218 H 0.53584 0.72133 0.52616 0.0
H219 H 0.55171 0.74682 0.54681 0.0
C220 C 0.57621 0.65345 0.5268 0.0
C221 C 0.59643 0.66783 0.51927 0.0
C222 C 0.5605 0.66378 0.54571 0.0
C223 C 0.56457 0.68874 0.55755 0.0
C224 C 0.58483 0.70318 0.55038 0.0
H225 H 0.47252 0.72929 0.69611 0.0
H226 H 0.50875 0.7277 0.66926 0.0
C227 C 0.60062 0.69283 0.53133 0.0
C228 C 0.54749 0.69909 0.5776 0.0
H229 H 0.50261 0.7426 0.58419 0.0
C230 C 0.54434 0.68567 0.6022 0.0
C231 C 0.53259 0.72018 0.57123 0.0
C232 C 0.53479 0.73484 0.54468 0.0
C233 C 0.52602 0.69202 0.62003 0.0
C234 C 0.51073 0.71278 0.61337 0.0
C235 C 0.51449 0.72686 0.58934 0.0
C236 C 0.48902 0.71801 0.62916 0.0
C237 C 0.5223 0.67548 0.64489 0.0
C238 C 0.46589 0.71451 0.61526 0.0
C239 C 0.4452 0.71565 0.63044 0.0
C240 C 0.44722 0.72027 0.65988 0.0
C241 C 0.47034 0.72544 0.6735 0.0
C242 C 0.49107 0.7244 0.65823 0.0
H243 H 0.53258 0.65737 0.64384 0.0
H244 H 0.52863 0.68632 0.6647 0.0
H245 H 0.50279 0.67042 0.64601 0.0
H246 H 0.46387 0.70968 0.59282 0.0
H247 H 0.42768 0.71178 0.61921 0.0
H248 H 0.87813 0.05179 0.03697 0.0
H249 H 0.86932 0.01048 0.05655 0.0
H250 H 0.80403 0.04027 0.08868 0.0
H251 H 0.81253 0.08212 0.06851 0.0
H252 H 0.86404 0.99927 0.11256 0.0
H253 H 0.7805 0.97386 0.04374 0.0
H254 H 0.80102 0.99964 0.03586 0.0
H255 H 0.78113 0.00393 0.06382 0.0
C256 C 0.86181 0.04972 0.04811 0.0
C257 C 0.84595 0.0703 0.05099 0.0
C258 C 0.85686 0.02603 0.05938 0.0
C259 C 0.83596 0.02224 0.07389 0.0
C260 C 0.8201 0.04272 0.07719 0.0
H261 H 0.8332 0.8714 0.15348 0.0
H262 H 0.82829 0.91777 0.14847 0.0
C263 C 0.82502 0.0666 0.06576 0.0
C264 C 0.83132 0.99656 0.08518 0.0
H265 H 0.79632 0.94188 0.07282 0.0
C266 C 0.849 0.9868 0.10431 0.0
C267 C 0.81174 0.98041 0.0742 0.0
C268 C 0.79252 0.98979 0.05314 0.0
C269 C 0.84847 0.96088 0.1115 0.0
C270 C 0.82935 0.94444 0.09973 0.0
C271 C 0.81091 0.95457 0.08183 0.0
C272 C 0.82976 0.91621 0.10303 0.0
C273 C 0.86925 0.95099 0.1301 0.0
C274 C 0.83127 0.89985 0.07908 0.0
C275 C 0.83381 0.87339 0.08183 0.0
C276 C 0.83497 0.86275 0.10864 0.0
C277 C 0.83266 0.87905 0.13257 0.0
C278 C 0.82992 0.90555 0.12976 0.0
H279 H 0.88479 0.96498 0.13277 0.0
H280 H 0.86299 0.94745 0.15132 0.0
H281 H 0.87575 0.93255 0.12119 0.0
H282 H 0.83118 0.90766 0.05825 0.0
H283 H 0.83543 0.86139 0.06296 0.0
H284 H 0.42674 0.3885 0.60738 0.0
H285 H 0.45999 0.38843 0.6439 0.0
H286 H 0.42928 0.32026 0.67775 0.0
H287 H 0.39553 0.32033 0.64136 0.0
H288 H 0.44621 0.35744 0.71945 0.0
H289 H 0.51555 0.33775 0.6434 0.0
H290 H 0.4978 0.36521 0.63461 0.0
H291 H 0.48345 0.33377 0.63396 0.0
C292 C 0.42697 0.37345 0.62255 0.0
C293 C 0.4086 0.35422 0.62119 0.0
C294 C 0.44607 0.3734 0.64336 0.0
C295 C 0.44737 0.35402 0.66312 0.0
C296 C 0.4287 0.33526 0.66251 0.0
H297 H 0.58659 0.34175 0.75975 0.0
H298 H 0.54827 0.32891 0.73365 0.0
C299 C 0.40946 0.33533 0.64169 0.0
C300 C 0.46843 0.35347 0.68417 0.0
H301 H 0.53025 0.35353 0.68954 0.0
C302 C 0.46459 0.35624 0.71301 0.0
C303 C 0.49236 0.35134 0.67576 0.0
C304 C 0.49757 0.34658 0.64526 0.0
C305 C 0.48418 0.35832 0.73357 0.0
C306 C 0.50817 0.35805 0.72494 0.0
C307 C 0.51189 0.35395 0.6962 0.0
C308 C 0.52974 0.36371 0.7448 0.0
C309 C 0.47897 0.3609 0.76426 0.0
C310 C 0.53191 0.38725 0.76035 0.0
C311 C 0.55372 0.39454 0.77548 0.0
C312 C 0.57395 0.37862 0.77497 0.0
C313 C 0.57139 0.35451 0.76051 0.0
C314 C 0.5495 0.34714 0.74555 0.0
H315 H 0.46116 0.35182 0.76795 0.0
H316 H 0.49327 0.35199 0.77804 0.0
H317 H 0.47822 0.38163 0.77055 0.0
H318 H 0.51717 0.40065 0.75958 0.0
H319 H 0.55508 0.41329 0.78629 0.0
H320 H 0.69635 0.56544 0.41079 0.0
H321 H 0.70138 0.52388 0.38603 0.0
H322 H 0.63677 0.49416 0.4204 0.0
H323 H 0.63134 0.53547 0.4447 0.0
H324 H 0.70806 0.47666 0.40871 0.0
H325 H 0.62462 0.47389 0.33737 0.0
H326 H 0.63612 0.50309 0.35587 0.0
H327 H 0.61801 0.48022 0.37335 0.0
C328 C 0.68308 0.55012 0.41286 0.0
C329 C 0.66341 0.55382 0.42972 0.0
C330 C 0.686 0.52641 0.3987 0.0
C331 C 0.66922 0.50609 0.40099 0.0
C332 C 0.6496 0.50976 0.41775 0.0
H333 H 0.6755 0.34471 0.39806 0.0
H334 H 0.68176 0.39086 0.40696 0.0
C335 C 0.64663 0.53339 0.43182 0.0
C336 C 0.67272 0.48049 0.38729 0.0
H337 H 0.6424 0.43282 0.34703 0.0
C338 C 0.69391 0.46721 0.39478 0.0
C339 C 0.65452 0.46836 0.36864 0.0
C340 C 0.63217 0.48226 0.35809 0.0
C341 C 0.69665 0.4415 0.38564 0.0
C342 C 0.67746 0.42866 0.36907 0.0
C343 C 0.657 0.44252 0.36003 0.0
C344 C 0.67709 0.40046 0.36298 0.0
C345 C 0.71989 0.42827 0.39422 0.0
C346 C 0.67229 0.39038 0.33527 0.0
C347 C 0.66836 0.36389 0.33011 0.0
C348 C 0.66906 0.34703 0.35262 0.0
C349 C 0.67492 0.3571 0.38021 0.0
C350 C 0.67871 0.38354 0.38534 0.0
H351 H 0.73535 0.44234 0.3973 0.0
H352 H 0.71797 0.41899 0.41462 0.0
H353 H 0.72424 0.41327 0.37822 0.0
H354 H 0.67082 0.4031 0.31771 0.0
H355 H 0.66391 0.35679 0.30861 0.0
H356 H 0.91596 0.21679 0.97702 0.0
H357 H 0.94957 0.23167 0.95003 0.0
H358 H 0.98949 0.16407 0.97198 0.0
H359 H 0.95642 0.14919 0.99887 0.0
H360 H 0.0177 0.21233 0.97604 0.0
H361 H 0.96359 0.19483 0.87333 0.0
H362 H 0.95074 0.21495 0.89977 0.0
H363 H 0.95463 0.18135 0.90558 0.0
C364 C 0.93199 0.20524 0.97627 0.0
C365 C 0.93339 0.1817 0.98991 0.0
C366 C 0.95113 0.21373 0.96082 0.0
C367 C 0.9719 0.19884 0.95889 0.0
C368 C 0.97363 0.17584 0.97324 0.0
H369 H 0.1012 0.17857 0.87373 0.0
H370 H 0.07104 0.18239 0.90878 0.0
C371 C 0.95459 0.16732 0.98849 0.0
C372 C 0.99142 0.20603 0.94067 0.0
H373 H 0.00455 0.20627 0.87166 0.0
C374 C 0.01483 0.2114 0.9532 0.0
C375 C 0.98757 0.20478 0.91094 0.0
C376 C 0.96285 0.19853 0.89643 0.0
C377 C 0.03465 0.21505 0.9367 0.0
C378 C 0.03101 0.21257 0.90692 0.0
C379 C 0.00739 0.20816 0.89447 0.0
C380 C 0.05138 0.21287 0.88809 0.0
C381 C 0.05924 0.22144 0.95139 0.0
C382 C 0.05043 0.2286 0.86468 0.0
C383 C 0.06742 0.22611 0.8444 0.0
C384 C 0.08588 0.20804 0.84727 0.0
C385 C 0.08753 0.19308 0.87131 0.0
C386 C 0.07029 0.19531 0.89142 0.0
H387 H 0.05756 0.23146 0.97221 0.0
H388 H 0.06899 0.20332 0.95525 0.0
H389 H 0.07033 0.23377 0.93843 0.0
H390 H 0.03601 0.24222 0.86157 0.0
H391 H 0.06573 0.2379 0.82608 0.0
H392 H 0.35813 0.42929 0.48927 0.0
H393 H 0.34957 0.45221 0.44614 0.0
H394 H 0.28263 0.40852 0.42925 0.0
H395 H 0.2909 0.38545 0.47296 0.0
H396 H 0.34244 0.43213 0.39056 0.0
H397 H 0.2618 0.48429 0.42443 0.0
H398 H 0.28243 0.46871 0.44916 0.0
H399 H 0.26109 0.44979 0.42639 0.0
C400 C 0.34151 0.42449 0.47653 0.0
C401 C 0.32511 0.40561 0.48476 0.0
C402 C 0.3367 0.43761 0.45178 0.0
C403 C 0.31537 0.43226 0.43463 0.0
C404 C 0.29902 0.41321 0.44244 0.0
H405 H 0.31053 0.50772 0.27095 0.0
H406 H 0.30389 0.47425 0.30477 0.0
C407 C 0.30384 0.39999 0.46734 0.0
C408 C 0.31073 0.44691 0.40868 0.0
H409 H 0.27602 0.49452 0.38068 0.0
C410 C 0.32769 0.44549 0.3881 0.0
C411 C 0.29156 0.4644 0.40572 0.0
C412 C 0.2732 0.46715 0.42761 0.0
C413 C 0.32669 0.46191 0.36528 0.0
C414 C 0.30788 0.47991 0.36269 0.0
C415 C 0.2903 0.48057 0.38263 0.0
C416 C 0.30799 0.50022 0.34156 0.0
C417 C 0.34664 0.4609 0.34517 0.0
C418 C 0.3112 0.52607 0.3509 0.0
C419 C 0.31477 0.54521 0.33168 0.0
C420 C 0.31522 0.5389 0.30268 0.0
C421 C 0.31049 0.5132 0.29316 0.0
C422 C 0.30683 0.49402 0.31247 0.0
H423 H 0.36212 0.4493 0.35322 0.0
H424 H 0.33936 0.452 0.32463 0.0
H425 H 0.35353 0.48058 0.34135 0.0
H426 H 0.31206 0.53131 0.37324 0.0
H427 H 0.31817 0.56481 0.33974 0.0
H428 H 0.0723 0.9026 0.92412 0.0
H429 H 0.04353 0.89695 0.88275 0.0
H430 H 0.04669 0.81451 0.88849 0.0
H431 H 0.07567 0.81987 0.92976 0.0
H432 H 0.04705 0.83278 0.83186 0.0
H433 H 0.97262 0.87281 0.89145 0.0
H434 H 0.9993 0.89323 0.89218 0.0
H435 H 0.0008 0.86267 0.90862 0.0
C436 C 0.06703 0.88324 0.91653 0.0
C437 C 0.07606 0.86169 0.93053 0.0
C438 C 0.05055 0.88007 0.8929 0.0
C439 C 0.04274 0.85533 0.88289 0.0
C440 C 0.05245 0.83376 0.89601 0.0
H441 H 0.9086 0.83093 0.77898 0.0
H442 H 0.94273 0.82463 0.81331 0.0
C443 C 0.06894 0.83689 0.91965 0.0
C444 C 0.02352 0.85205 0.85964 0.0
H445 H 0.9644 0.86554 0.84219 0.0
C446 C 0.02892 0.8398 0.83407 0.0
C447 C 0.99981 0.86082 0.86284 0.0
C448 C 0.99263 0.87291 0.89032 0.0
C449 C 0.01132 0.83676 0.81126 0.0
C450 C 0.98787 0.84647 0.81413 0.0
C451 C 0.98239 0.85814 0.83997 0.0
C452 C 0.96876 0.84571 0.79057 0.0
C453 C 0.01791 0.82305 0.78443 0.0
C454 C 0.97225 0.85886 0.76584 0.0
C455 C 0.95277 0.86233 0.74602 0.0
C456 C 0.92939 0.85305 0.75083 0.0
C457 C 0.92633 0.83846 0.77471 0.0
C458 C 0.94582 0.83485 0.79438 0.0
H459 H 0.03354 0.81027 0.78838 0.0
H460 H 0.00232 0.81137 0.7745 0.0
H461 H 0.02313 0.83753 0.76925 0.0
H462 H 0.98965 0.86782 0.76268 0.0
H463 H 0.95574 0.87375 0.72792 0.0
H464 H 0.89748 0.11346 0.93275 0.0
H465 H 0.89486 0.09046 0.88675 0.0
H466 H 0.82055 0.06848 0.89768 0.0
H467 H 0.82278 0.09189 0.94327 0.0
H468 H 0.88698 0.03961 0.87912 0.0
H469 H 0.81526 0.08975 0.81681 0.0
H470 H 0.82979 0.10345 0.84936 0.0
H471 H 0.80556 0.07985 0.85005 0.0
C472 C 0.88046 0.10406 0.92518 0.0
C473 C 0.86038 0.1044 0.94177 0.0
C474 C 0.87898 0.09098 0.89885 0.0
C475 C 0.85741 0.07804 0.88858 0.0
C476 C 0.83718 0.07887 0.9048 0.0
H477 H 0.82093 0.95236 0.77103 0.0
H478 H 0.82011 0.98925 0.80447 0.0
C479 C 0.83858 0.09208 0.93102 0.0
C480 C 0.85688 0.06141 0.8625 0.0
H481 H 0.8251 0.0475 0.7992 0.0
C482 C 0.87369 0.04162 0.86146 0.0
C483 C 0.83942 0.06395 0.83955 0.0
C484 C 0.82164 0.08557 0.83883 0.0
C485 C 0.87307 0.0238 0.83855 0.0
C486 C 0.8553 0.02599 0.81593 0.0
C487 C 0.83868 0.04597 0.81664 0.0
C488 C 0.85333 0.0068 0.7921 0.0
C489 C 0.89092 0.00221 0.83911 0.0
C490 C 0.87173 0.00518 0.77333 0.0
C491 C 0.87229 0.98415 0.75423 0.0
C492 C 0.85446 0.96439 0.75368 0.0
C493 C 0.83502 0.96715 0.77105 0.0
C494 C 0.83448 0.98822 0.79013 0.0
H495 H 0.90079 0.00079 0.86018 0.0
H496 H 0.88149 0.98348 0.83331 0.0
H497 H 0.90446 0.0056 0.82341 0.0
H498 H 0.88632 0.01951 0.77445 0.0
H499 H 0.88741 0.98274 0.74099 0.0
H500 H 0.40023 0.36398 0.47747 0.0
H501 H 0.43072 0.3496 0.4459 0.0
H502 H 0.44213 0.28194 0.49451 0.0
H503 H 0.41136 0.29583 0.5258 0.0
H504 H 0.47818 0.34269 0.46089 0.0
H505 H 0.4371 0.25101 0.41486 0.0
H506 H 0.41994 0.27445 0.43356 0.0
H507 H 0.43901 0.2525 0.45275 0.0
C508 C 0.409 0.34587 0.48126 0.0
C509 C 0.40337 0.33109 0.50423 0.0
C510 C 0.42641 0.33767 0.46317 0.0
C511 C 0.43846 0.31451 0.46759 0.0
C512 C 0.43264 0.29954 0.49024 0.0
H513 H 0.56899 0.24885 0.40905 0.0
H514 H 0.53122 0.25704 0.43157 0.0
C515 C 0.41516 0.30765 0.50827 0.0
C516 C 0.45849 0.30711 0.44996 0.0
H517 H 0.47918 0.25844 0.40832 0.0
C518 C 0.47826 0.32439 0.44915 0.0
C519 C 0.45862 0.28315 0.43477 0.0
C520 C 0.43743 0.26431 0.43376 0.0
C521 C 0.49838 0.31816 0.4341 0.0
C522 C 0.49864 0.29412 0.41921 0.0
C523 C 0.47887 0.27684 0.41982 0.0
C524 C 0.5196 0.2867 0.40325 0.0
C525 C 0.51952 0.33709 0.43477 0.0
C526 C 0.52502 0.30003 0.3793 0.0
C527 C 0.54651 0.29541 0.36638 0.0
C528 C 0.56297 0.27737 0.37722 0.0
C529 C 0.55676 0.26295 0.40025 0.0
C530 C 0.5352 0.26758 0.41314 0.0
H531 H 0.5185 0.35243 0.45155 0.0
H532 H 0.53696 0.32709 0.43828 0.0
H533 H 0.51955 0.34641 0.41414 0.0
H534 H 0.51302 0.31465 0.37119 0.0
H535 H 0.55062 0.30672 0.34856 0.0
H536 H 0.10764 0.96252 0.96747 0.0
H537 H 0.11559 0.00491 0.94928 0.0
H538 H 0.19155 0.98808 0.94789 0.0
H539 H 0.18367 0.9453 0.96556 0.0
H540 H 0.14391 0.04225 0.9762 0.0
H541 H 0.17847 0.01925 0.87166 0.0
H542 H 0.16301 0.99562 0.89125 0.0
H543 H 0.1945 0.00363 0.90015 0.0
C544 C 0.12601 0.96764 0.96292 0.0
C545 C 0.14504 0.95051 0.9681 0.0
C546 C 0.13052 0.99192 0.9525 0.0
C547 C 0.15412 0.99966 0.94697 0.0
C548 C 0.1731 0.98237 0.95141 0.0
H549 H 0.22243 0.14649 0.91813 0.0
H550 H 0.21275 0.10112 0.92525 0.0
C551 C 0.16858 0.95794 0.96167 0.0
C552 C 0.15902 0.02652 0.93888 0.0
H553 H 0.1836 0.06286 0.8891 0.0
C554 C 0.15238 0.04673 0.957 0.0
C555 C 0.17017 0.03237 0.91389 0.0
C556 C 0.17675 0.01159 0.89297 0.0
C557 C 0.15694 0.07256 0.95113 0.0
C558 C 0.16823 0.0784 0.92628 0.0
C559 C 0.17488 0.05827 0.90809 0.0
C560 C 0.17392 0.10536 0.91947 0.0
C561 C 0.15021 0.09342 0.97191 0.0
C562 C 0.15528 0.12265 0.91332 0.0
C563 C 0.16075 0.14859 0.90918 0.0
C564 C 0.18497 0.15764 0.91107 0.0
C565 C 0.20359 0.1401 0.91654 0.0
C566 C 0.19811 0.11416 0.92051 0.0
H567 H 0.14607 0.08559 0.99252 0.0
H568 H 0.16512 0.10808 0.9756 0.0
H569 H 0.13389 0.10324 0.96313 0.0
H570 H 0.13647 0.11617 0.91234 0.0
H571 H 0.14597 0.16166 0.90571 0.0
H572 H 0.5794 0.59226 0.40695 0.0
H573 H 0.54415 0.59309 0.37288 0.0
H574 H 0.55546 0.6747 0.3648 0.0
H575 H 0.59075 0.67414 0.39886 0.0
H576 H 0.50258 0.62503 0.38119 0.0
H577 H 0.54586 0.64433 0.28165 0.0
H578 H 0.56224 0.63118 0.31188 0.0
H579 H 0.55548 0.66479 0.31195 0.0
C580 C 0.57462 0.61035 0.39769 0.0
C581 C 0.58788 0.63316 0.40577 0.0
C582 C 0.55444 0.61078 0.37825 0.0
C583 C 0.54732 0.63392 0.36621 0.0
C584 C 0.56085 0.65659 0.37359 0.0
H585 H 0.40302 0.66169 0.2875 0.0
H586 H 0.4427 0.66762 0.31368 0.0
C587 C 0.58095 0.65623 0.39318 0.0
C588 C 0.52477 0.63459 0.34747 0.0
H589 H 0.50293 0.64419 0.27966 0.0
C590 C 0.50263 0.62929 0.35901 0.0
C591 C 0.52497 0.64007 0.31856 0.0
C592 C 0.54838 0.64526 0.30508 0.0
C593 C 0.48062 0.6293 0.34239 0.0
C594 C 0.48076 0.63495 0.31351 0.0
C595 C 0.50291 0.64018 0.3019 0.0
C596 C 0.45811 0.63375 0.29485 0.0
C597 C 0.45739 0.62266 0.35565 0.0
C598 C 0.45404 0.61334 0.27485 0.0
C599 C 0.43144 0.60986 0.25994 0.0
C600 C 0.41251 0.62685 0.26462 0.0
C601 C 0.41717 0.64824 0.2834 0.0
C602 C 0.43979 0.65161 0.29847 0.0
H603 H 0.46082 0.61469 0.3769 0.0
H604 H 0.44661 0.64029 0.35789 0.0
H605 H 0.4463 0.60842 0.34201 0.0
H606 H 0.468 0.59941 0.27173 0.0
H607 H 0.42853 0.59327 0.24551 0.0
H608 H 0.297 0.43888 0.58632 0.0
H609 H 0.29294 0.48024 0.61181 0.0
H610 H 0.36739 0.47731 0.645 0.0
H611 H 0.37166 0.43601 0.61982 0.0
H612 H 0.33269 0.49264 0.68556 0.0
H613 H 0.32563 0.54814 0.58736 0.0
H614 H 0.30512 0.521 0.58904 0.0
H615 H 0.33703 0.51586 0.58796 0.0
C616 C 0.31248 0.44694 0.59919 0.0
C617 C 0.33474 0.43421 0.6008 0.0
C618 C 0.31013 0.47062 0.61364 0.0
C619 C 0.32995 0.48194 0.62998 0.0
C620 C 0.3519 0.46891 0.6324 0.0
H621 H 0.38213 0.61703 0.72039 0.0
H622 H 0.37159 0.57347 0.70246 0.0
C623 C 0.35432 0.44533 0.6179 0.0
C624 C 0.32827 0.50772 0.64398 0.0
H625 H 0.32592 0.5717 0.63048 0.0
C626 C 0.33095 0.50993 0.67357 0.0
C627 C 0.32582 0.5302 0.62825 0.0
C628 C 0.32338 0.5289 0.59639 0.0
C629 C 0.33187 0.53411 0.68785 0.0
C630 C 0.3306 0.55666 0.67207 0.0
C631 C 0.32686 0.55439 0.64254 0.0
C632 C 0.3356 0.58266 0.68544 0.0
C633 C 0.33446 0.53529 0.71969 0.0
C634 C 0.31893 0.60248 0.68168 0.0
C635 C 0.32496 0.62762 0.69186 0.0
C636 C 0.34792 0.63339 0.70563 0.0
C637 C 0.36428 0.61331 0.70993 0.0
C638 C 0.35821 0.58828 0.69987 0.0
H639 H 0.32697 0.51752 0.72844 0.0
H640 H 0.35399 0.53697 0.72687 0.0
H641 H 0.32513 0.55218 0.72849 0.0
H642 H 0.30145 0.59859 0.67038 0.0
H643 H 0.312 0.64265 0.68807 0.0
H644 H 0.04218 0.86887 0.03482 0.0
H645 H 0.00778 0.84856 0.05542 0.0
H646 H 0.05047 0.78201 0.07375 0.0
H647 H 0.08524 0.80223 0.05318 0.0
H648 H 0.98621 0.80029 0.03516 0.0
H649 H 0.01844 0.79931 0.14872 0.0
H650 H 0.03177 0.82035 0.12432 0.0
H651 H 0.03875 0.78679 0.12389 0.0
C652 C 0.04444 0.85002 0.04348 0.0
C653 C 0.06651 0.83715 0.0422 0.0
C654 C 0.02471 0.83845 0.05526 0.0
C655 C 0.02661 0.81388 0.06628 0.0
C656 C 0.04873 0.80116 0.06572 0.0
H657 H 0.91829 0.71209 0.13213 0.0
H658 H 0.95614 0.73217 0.11882 0.0
C659 C 0.06854 0.8127 0.05383 0.0
C660 C 0.00486 0.80105 0.07652 0.0
H661 H 0.98062 0.77862 0.13534 0.0
C662 C 0.98496 0.79558 0.05707 0.0
C663 C 0.0034 0.79475 0.10505 0.0
C664 C 0.02412 0.80071 0.12685 0.0
C665 C 0.96362 0.78391 0.06534 0.0
C666 C 0.96188 0.77813 0.09402 0.0
C667 C 0.98193 0.78323 0.11342 0.0
C668 C 0.93931 0.76686 0.10412 0.0
C669 C 0.94329 0.77748 0.04312 0.0
C670 C 0.91739 0.77993 0.1009 0.0
C671 C 0.89577 0.76845 0.10829 0.0
C672 C 0.89568 0.74385 0.1196 0.0
C673 C 0.91779 0.73112 0.12362 0.0
C674 C 0.93943 0.74258 0.11609 0.0
H675 H 0.94992 0.77634 0.02159 0.0
H676 H 0.93415 0.75888 0.04712 0.0
H677 H 0.92964 0.79281 0.04355 0.0
H678 H 0.9169 0.7988 0.09198 0.0
H679 H 0.87906 0.77839 0.10381 0.0
H680 H 0.70313 0.57885 0.54013 0.0
H681 H 0.71005 0.5548 0.58312 0.0
H682 H 0.63471 0.56161 0.59945 0.0
H683 H 0.6275 0.58559 0.55643 0.0
H684 H 0.70111 0.56868 0.64101 0.0
H685 H 0.64708 0.48289 0.59807 0.0
H686 H 0.65763 0.50761 0.57587 0.0
H687 H 0.63162 0.51289 0.59577 0.0
C688 C 0.688 0.57532 0.55287 0.0
C689 C 0.66468 0.58394 0.54463 0.0
C690 C 0.69204 0.56162 0.57747 0.0
C691 C 0.67283 0.55614 0.59421 0.0
C692 C 0.64969 0.56532 0.58655 0.0
H693 H 0.66427 0.50022 0.76044 0.0
H694 H 0.6685 0.52677 0.71971 0.0
C695 C 0.64564 0.5791 0.562 0.0
C696 C 0.67685 0.54034 0.61936 0.0
H697 H 0.65999 0.48348 0.64678 0.0
C698 C 0.69225 0.54999 0.64227 0.0
C699 C 0.66557 0.5158 0.62071 0.0
C700 C 0.64971 0.504 0.59623 0.0
C701 C 0.69602 0.53605 0.66693 0.0
C702 C 0.68397 0.51195 0.66868 0.0
C703 C 0.66918 0.50199 0.64541 0.0
C704 C 0.68524 0.49727 0.69488 0.0
C705 C 0.71283 0.54717 0.6909 0.0
C706 C 0.69362 0.47196 0.69466 0.0
C707 C 0.69127 0.45668 0.71799 0.0
C708 C 0.68013 0.46634 0.74179 0.0
C709 C 0.67292 0.49215 0.74247 0.0
C710 C 0.67543 0.50744 0.71923 0.0
H711 H 0.72554 0.56193 0.68358 0.0
H712 H 0.70194 0.55653 0.70696 0.0
H713 H 0.72352 0.53184 0.70124 0.0
H714 H 0.70116 0.46372 0.676 0.0
H715 H 0.69692 0.43687 0.7167 0.0
H716 H 0.92126 0.10243 0.09654 0.0
H717 H 0.95235 0.09921 0.13557 0.0
H718 H 0.95906 0.18194 0.14299 0.0
H719 H 0.92806 0.18552 0.10408 0.0
H720 H 0.00443 0.14093 0.13198 0.0
H721 H 0.95017 0.13402 0.22604 0.0
H722 H 0.93984 0.11872 0.19241 0.0
H723 H 0.93967 0.15307 0.19677 0.0
C724 C 0.92912 0.11998 0.10666 0.0
C725 C 0.92229 0.14426 0.09698 0.0
C726 C 0.94683 0.11806 0.12898 0.0
C727 C 0.95787 0.14033 0.14204 0.0
C728 C 0.95059 0.16456 0.13314 0.0
H729 H 0.06416 0.19585 0.26568 0.0
H730 H 0.02731 0.18383 0.23613 0.0
C731 C 0.93289 0.16653 0.11089 0.0
C732 C 0.97843 0.13857 0.1634 0.0
H733 H 0.99275 0.13865 0.23448 0.0
C734 C 0.00198 0.13999 0.15438 0.0
C735 C 0.97496 0.1374 0.19247 0.0
C736 C 0.94984 0.13567 0.20277 0.0
C737 C 0.02229 0.14126 0.17385 0.0
C738 C 0.01887 0.14088 0.20307 0.0
C739 C 0.99528 0.13869 0.21205 0.0
C740 C 0.03944 0.1459 0.22436 0.0
C741 C 0.04721 0.14434 0.16317 0.0
C742 C 0.05815 0.12822 0.22814 0.0
C743 C 0.07921 0.13501 0.24518 0.0
C744 C 0.08172 0.15962 0.2586 0.0
C745 C 0.06255 0.17674 0.25569 0.0
C746 C 0.0415 0.16989 0.2389 0.0
H747 H 0.04646 0.14754 0.14013 0.0
H748 H 0.05725 0.1608 0.1745 0.0
H749 H 0.05764 0.1267 0.16729 0.0
H750 H 0.05686 0.10961 0.21701 0.0
H751 H 0.0939 0.1216 0.24652 0.0
H752 H 0.20381 0.85462 0.07254 0.0
H753 H 0.22921 0.82671 0.102 0.0
H754 H 0.17888 0.76317 0.08115 0.0
H755 H 0.154 0.79065 0.05081 0.0
H756 H 0.22299 0.80024 0.14731 0.0
H757 H 0.24038 0.73148 0.0598 0.0
H758 H 0.22578 0.76167 0.05388 0.0
H759 H 0.20858 0.73414 0.06409 0.0
C760 C 0.19813 0.83472 0.07432 0.0
C761 C 0.17706 0.82475 0.05904 0.0
C762 C 0.21267 0.81877 0.09115 0.0
C763 C 0.20634 0.79262 0.09322 0.0
C764 C 0.18464 0.78301 0.07913 0.0
H765 H 0.26499 0.69075 0.22087 0.0
H766 H 0.24169 0.7222 0.19404 0.0
C767 C 0.17032 0.79881 0.06195 0.0
C768 C 0.22244 0.77537 0.10997 0.0
H769 H 0.25136 0.71807 0.10633 0.0
C770 C 0.22934 0.78235 0.1383 0.0
C771 C 0.23122 0.75227 0.0981 0.0
C772 C 0.22634 0.74458 0.06722 0.0
C773 C 0.24425 0.76664 0.15522 0.0
C774 C 0.25184 0.74281 0.14379 0.0
C775 C 0.24536 0.73613 0.11529 0.0
C776 C 0.26647 0.72443 0.16083 0.0
C777 C 0.2521 0.77608 0.18496 0.0
C778 C 0.28785 0.7145 0.15081 0.0
C779 C 0.30087 0.696 0.16578 0.0
C780 C 0.29294 0.68721 0.19126 0.0
C781 C 0.27174 0.69738 0.20149 0.0
C782 C 0.25849 0.71555 0.18625 0.0
H783 H 0.25185 0.79743 0.1871 0.0
H784 H 0.23929 0.76832 0.19966 0.0
H785 H 0.27062 0.76972 0.1915 0.0
H786 H 0.29438 0.72093 0.13122 0.0
H787 H 0.31713 0.68855 0.15734 0.0
H788 H 0.71675 0.65944 0.54406 0.0
H789 H 0.74326 0.69 0.57268 0.0
H790 H 0.71901 0.75144 0.51987 0.0
H791 H 0.69211 0.7212 0.49149 0.0
H792 H 0.78089 0.71919 0.55623 0.0
H793 H 0.71111 0.78209 0.59831 0.0
H794 H 0.70375 0.751 0.58129 0.0
H795 H 0.7086 0.77862 0.56049 0.0
C796 C 0.7169 0.67949 0.53865 0.0
C797 C 0.70226 0.68787 0.5155 0.0
C798 C 0.73208 0.69692 0.55502 0.0
C799 C 0.73287 0.72305 0.54863 0.0
C800 C 0.71828 0.73148 0.52557 0.0
H801 H 0.84782 0.83508 0.59878 0.0
H802 H 0.82043 0.80291 0.57383 0.0
C803 C 0.703 0.71411 0.50927 0.0
C804 C 0.74967 0.74128 0.56537 0.0
H805 H 0.75202 0.79792 0.60429 0.0
C806 C 0.77458 0.73633 0.56691 0.0
C807 C 0.74137 0.76344 0.57957 0.0
C808 C 0.71473 0.76901 0.58012 0.0
C809 C 0.79149 0.75322 0.58178 0.0
C810 C 0.78328 0.77596 0.59494 0.0
C811 C 0.75832 0.78063 0.59391 0.0
C812 C 0.80021 0.79512 0.61009 0.0
C813 C 0.81792 0.74635 0.58358 0.0
C814 C 0.79758 0.80186 0.63856 0.0
C815 C 0.813 0.82045 0.65277 0.0
C816 C 0.83136 0.83267 0.63875 0.0
C817 C 0.83398 0.82587 0.61022 0.0
C818 C 0.81844 0.80738 0.59598 0.0
H819 H 0.82026 0.72537 0.57966 0.0
H820 H 0.82728 0.75667 0.56728 0.0
H821 H 0.8269 0.75206 0.6046 0.0
H822 H 0.78358 0.79272 0.64982 0.0
H823 H 0.81049 0.82526 0.67473 0.0
H824 H 0.78424 0.16978 0.06217 0.0
H825 H 0.75835 0.1812 0.09999 0.0
H826 H 0.82158 0.19427 0.1577 0.0
H827 H 0.84774 0.18357 0.11969 0.0
H828 H 0.75261 0.15964 0.1498 0.0
H829 H 0.78636 0.26061 0.16856 0.0
H830 H 0.79375 0.2411 0.13831 0.0
H831 H 0.80969 0.23724 0.17217 0.0
C832 C 0.7927 0.17517 0.08287 0.0
C833 C 0.8181 0.176 0.08783 0.0
C834 C 0.77784 0.18166 0.10449 0.0
C835 C 0.78801 0.18903 0.13156 0.0
C836 C 0.81334 0.18931 0.13679 0.0
H837 H 0.71945 0.23069 0.28632 0.0
H838 H 0.74787 0.21567 0.25231 0.0
C839 C 0.82826 0.18306 0.11508 0.0
C840 C 0.77195 0.19616 0.15421 0.0
H841 H 0.75867 0.24511 0.20019 0.0
C842 C 0.75394 0.17833 0.1608 0.0
C843 C 0.77367 0.2206 0.16852 0.0
C844 C 0.79175 0.24109 0.16139 0.0
C845 C 0.73763 0.1843 0.18128 0.0
C846 C 0.73938 0.20868 0.19548 0.0
C847 C 0.75754 0.22638 0.18927 0.0
C848 C 0.72192 0.21658 0.21614 0.0
C849 C 0.71863 0.16454 0.18771 0.0
C850 C 0.698 0.22206 0.20693 0.0
C851 C 0.68179 0.23083 0.22621 0.0
C852 C 0.68922 0.23414 0.25507 0.0
C853 C 0.71314 0.22825 0.26425 0.0
C854 C 0.72941 0.21971 0.24489 0.0
H855 H 0.72232 0.14515 0.17859 0.0
H856 H 0.71762 0.16328 0.21088 0.0
H857 H 0.70063 0.1705 0.17869 0.0
H858 H 0.69201 0.21997 0.18473 0.0
H859 H 0.6635 0.2352 0.21846 0.0
H860 H 0.30841 0.28676 0.61795 0.0
H861 H 0.29304 0.27324 0.66214 0.0
H862 H 0.28764 0.35281 0.68982 0.0
H863 H 0.30195 0.36644 0.64499 0.0
H864 H 0.31153 0.27941 0.71363 0.0
H865 H 0.22263 0.32663 0.70755 0.0
H866 H 0.24128 0.32462 0.67796 0.0
H867 H 0.24729 0.34924 0.70542 0.0
C868 C 0.30368 0.30139 0.63332 0.0
C869 C 0.3062 0.32767 0.62792 0.0
C870 C 0.29493 0.29364 0.65861 0.0
C871 C 0.28879 0.31197 0.67922 0.0
C872 C 0.29152 0.33826 0.67397 0.0
H873 H 0.27874 0.27468 0.85569 0.0
H874 H 0.29205 0.28879 0.81065 0.0
C875 C 0.29984 0.34605 0.6484 0.0
C876 C 0.28054 0.30339 0.70658 0.0
H877 H 0.23569 0.30997 0.75201 0.0
C878 C 0.29485 0.28598 0.72192 0.0
C879 C 0.25862 0.31166 0.71729 0.0
C880 C 0.24145 0.32884 0.70105 0.0
C881 C 0.28797 0.27672 0.74763 0.0
C882 C 0.26661 0.28587 0.75895 0.0
C883 C 0.2522 0.30314 0.74353 0.0
C884 C 0.25859 0.27747 0.78647 0.0
C885 C 0.30338 0.2567 0.76191 0.0
C886 C 0.23503 0.26725 0.78819 0.0
C887 C 0.22719 0.25974 0.81405 0.0
C888 C 0.24282 0.26208 0.83871 0.0
C889 C 0.26638 0.27232 0.837 0.0
C890 C 0.27408 0.28024 0.8112 0.0
H891 H 0.31408 0.24598 0.74659 0.0
H892 H 0.3164 0.26636 0.77798 0.0
H893 H 0.29212 0.24263 0.77258 0.0
H894 H 0.2227 0.265 0.76945 0.0
H895 H 0.20893 0.25193 0.81469 0.0
H896 H 0.7299 0.66203 0.42291 0.0
H897 H 0.75213 0.67013 0.38142 0.0
H898 H 0.68574 0.66001 0.32825 0.0
H899 H 0.6632 0.65336 0.37005 0.0
H900 H 0.76022 0.64073 0.33921 0.0
H901 H 0.71077 0.72386 0.29692 0.0
H902 H 0.70604 0.71188 0.33126 0.0
H903 H 0.69076 0.69672 0.29998 0.0
C904 C 0.72 0.66184 0.40238 0.0
C905 C 0.6948 0.65723 0.39968 0.0
C906 C 0.73273 0.66645 0.37866 0.0
C907 C 0.72063 0.66611 0.35163 0.0
C908 C 0.69543 0.66123 0.34888 0.0
H909 H 0.79522 0.63936 0.19852 0.0
H910 H 0.77364 0.63546 0.24131 0.0
C911 C 0.68257 0.65724 0.37274 0.0
C912 C 0.73469 0.66957 0.3264 0.0
H913 H 0.73682 0.70265 0.26584 0.0
C914 C 0.75519 0.65446 0.32332 0.0
C915 C 0.72847 0.68776 0.3058 0.0
C916 C 0.70797 0.70616 0.3088 0.0
C917 C 0.76944 0.6568 0.3002 0.0
C918 C 0.7624 0.67392 0.27878 0.0
C919 C 0.7421 0.68929 0.28203 0.0
C920 C 0.77576 0.67621 0.25285 0.0
C921 C 0.7922 0.64132 0.29949 0.0
C922 C 0.78343 0.7005 0.24438 0.0
C923 C 0.79518 0.70284 0.21945 0.0
C924 C 0.79979 0.68088 0.20269 0.0
C925 C 0.79229 0.65658 0.21126 0.0
C926 C 0.78007 0.65432 0.23585 0.0
H927 H 0.79929 0.63658 0.32111 0.0
H928 H 0.78799 0.62287 0.28747 0.0
H929 H 0.80669 0.65182 0.28927 0.0
H930 H 0.78025 0.71771 0.25704 0.0
H931 H 0.80071 0.72182 0.21333 0.0
H932 H 0.81415 0.17957 0.94317 0.0
H933 H 0.79383 0.21103 0.91344 0.0
H934 H 0.81701 0.27184 0.97423 0.0
H935 H 0.83783 0.24054 0.00394 0.0
H936 H 0.75668 0.24165 0.92698 0.0
H937 H 0.8353 0.30213 0.90092 0.0
H938 H 0.83876 0.27096 0.91603 0.0
H939 H 0.83301 0.2987 0.9381 0.0
C940 C 0.81514 0.19966 0.95017 0.0
C941 C 0.82764 0.2075 0.976 0.0
C942 C 0.8035 0.21763 0.9331 0.0
C943 C 0.80412 0.24384 0.9414 0.0
C944 C 0.81672 0.2518 0.96707 0.0
H945 H 0.72872 0.37642 0.8755 0.0
H946 H 0.75429 0.34719 0.90306 0.0
C947 C 0.82849 0.23384 0.98413 0.0
C948 C 0.79041 0.26249 0.92391 0.0
H949 H 0.7961 0.31777 0.8879 0.0
C950 C 0.76534 0.25821 0.91831 0.0
C951 C 0.80171 0.28416 0.91269 0.0
C952 C 0.82871 0.2892 0.91699 0.0
C953 C 0.75122 0.2751 0.90209 0.0
C954 C 0.76251 0.29671 0.89085 0.0
C955 C 0.78753 0.30115 0.89654 0.0
C956 C 0.74847 0.31488 0.87316 0.0
C957 C 0.72423 0.26995 0.89753 0.0
C958 C 0.73724 0.30657 0.84689 0.0
C959 C 0.72266 0.32321 0.83106 0.0
C960 C 0.71906 0.34851 0.84121 0.0
C961 C 0.73103 0.35704 0.86711 0.0
C962 C 0.74567 0.34039 0.88289 0.0
H963 H 0.71766 0.25612 0.91272 0.0
H964 H 0.71414 0.28809 0.89964 0.0
H965 H 0.71995 0.26161 0.87587 0.0
H966 H 0.73947 0.28707 0.83881 0.0
H967 H 0.7138 0.31604 0.81115 0.0
H968 H 0.3307 0.27147 0.50583 0.0
H969 H 0.30679 0.23719 0.4797 0.0
H970 H 0.24203 0.28103 0.4866 0.0
H971 H 0.26576 0.31554 0.51286 0.0
H972 H 0.26599 0.21083 0.5025 0.0
H973 H 0.24085 0.25711 0.40125 0.0
H974 H 0.26631 0.26828 0.42482 0.0
H975 H 0.23597 0.27561 0.43303 0.0
C976 C 0.31141 0.27403 0.50158 0.0
C977 C 0.30014 0.29626 0.5116 0.0
C978 C 0.29779 0.25438 0.48662 0.0
C979 C 0.27271 0.25668 0.48105 0.0
C980 C 0.26144 0.27906 0.49037 0.0
H981 H 0.15695 0.15563 0.40637 0.0
H982 H 0.1824 0.19216 0.42546 0.0
C983 C 0.27502 0.2987 0.5055 0.0
C984 C 0.25815 0.23487 0.46728 0.0
H985 H 0.22245 0.21647 0.40806 0.0
C986 C 0.25656 0.21196 0.48178 0.0
C987 C 0.24576 0.23657 0.44039 0.0
C988 C 0.24735 0.26062 0.42376 0.0
C989 C 0.24252 0.19078 0.47035 0.0
C990 C 0.23029 0.19231 0.44327 0.0
C991 C 0.23191 0.21527 0.42874 0.0
C992 C 0.21532 0.17045 0.42999 0.0
C993 C 0.24037 0.16729 0.48784 0.0
C994 C 0.22549 0.14625 0.42545 0.0
C995 C 0.21094 0.12527 0.41483 0.0
C996 C 0.186 0.12819 0.40809 0.0
C997 C 0.17608 0.15271 0.41143 0.0
C998 C 0.19061 0.17363 0.42233 0.0
H999 H 0.24493 0.17192 0.51064 0.0
H1000 H 0.22175 0.1587 0.48525 0.0
H1001 H 0.25322 0.15265 0.48089 0.0
H1002 H 0.24465 0.14349 0.43046 0.0
H1003 H 0.2192 0.1067 0.41219 0.0
H1004 H 0.15865 0.80793 0.93143 0.0
H1005 H 0.18581 0.79163 0.89696 0.0
H1006 H 0.2344 0.85687 0.91668 0.0
H1007 H 0.20778 0.87268 0.95224 0.0
H1008 H 0.20044 0.80925 0.85046 0.0
H1009 H 0.28122 0.80015 0.92497 0.0
H1010 H 0.25173 0.80719 0.93678 0.0
H1011 H 0.27051 0.83244 0.92424 0.0
C1012 C 0.17515 0.81881 0.92849 0.0
C1013 C 0.18119 0.84149 0.94478 0.0
C1014 C 0.19068 0.80946 0.90873 0.0
C1015 C 0.21247 0.82269 0.90456 0.0
C1016 C 0.21813 0.84584 0.92011 0.0
H1017 H 0.29387 0.78702 0.75667 0.0
H1018 H 0.2676 0.80683 0.79024 0.0
C1019 C 0.2028 0.85497 0.94029 0.0
C1020 C 0.22901 0.8122 0.88377 0.0
H1021 H 0.28727 0.79398 0.87625 0.0
C1022 C 0.21942 0.80584 0.85614 0.0
C1023 C 0.25371 0.80736 0.89123 0.0
C1024 C 0.26485 0.81188 0.92098 0.0
C1025 C 0.23373 0.79474 0.83585 0.0
C1026 C 0.25865 0.79079 0.84302 0.0
C1027 C 0.26825 0.79721 0.87062 0.0
C1028 C 0.27495 0.7792 0.8226 0.0
C1029 C 0.2217 0.78658 0.80731 0.0
C1030 C 0.28867 0.75769 0.82992 0.0
C1031 C 0.30419 0.74676 0.81105 0.0
C1032 C 0.30613 0.75694 0.78429 0.0
C1033 C 0.29251 0.77854 0.77699 0.0
C1034 C 0.27733 0.78977 0.79611 0.0
H1035 H 0.20183 0.78347 0.80824 0.0
H1036 H 0.22448 0.802 0.79225 0.0
H1037 H 0.22945 0.76856 0.79893 0.0
H1038 H 0.28725 0.7492 0.85024 0.0
H1039 H 0.31444 0.73013 0.81729 0.0
loop_
_geom_bond_atom_site_label_1
_geom_bond_atom_site_label_2
_geom_bond_distance
_geom_bond_site_symmetry_2
_ccdc_geom_bond_type
Fe0 O2 1.918 1_554 S
Fe0 O5 1.997 . S
Fe0 O6 2.002 . S
Fe0 O11 1.976 1_554 S
Fe0 O14 1.996 1_554 S
Fe1 O2 1.918 1_554 S
Fe1 O9 1.997 . S
Fe1 O12 1.996 1_554 S
Fe1 O16 1.976 1_554 S
Fe1 O19 2.002 . S
O2 Fe0 1.918 1_556 S
O2 Fe1 1.918 1_556 S
O2 Fe3 1.918 . S
Fe3 O2 1.918 . S
Fe3 O4 2.002 1_556 S
Fe3 O13 1.976 . S
Fe3 O17 1.996 . S
Fe3 O20 1.997 1_556 S
O4 Fe3 2.002 1_554 S
O4 C21 1.295 . S
O5 Fe0 1.997 . S
O5 C21 1.235 . S
O6 Fe0 2.002 . S
O6 C7 1.295 . S
C7 O6 1.295 . S
C7 O9 1.235 . S
C8 O13 1.287 . S
C8 O14 1.255 . S
O9 Fe1 1.997 . S
O9 C7 1.235 . S
C10 O16 1.287 . S
C10 O17 1.255 . S
O11 Fe0 1.976 1_556 S
O11 C18 1.287 . S
O12 Fe1 1.996 1_556 S
O12 C18 1.255 . S
O13 Fe3 1.976 . S
O13 C8 1.287 . S
O14 Fe0 1.996 1_556 S
O14 C8 1.255 . S
C15 O19 1.295 . S
C15 O20 1.235 . S
O16 Fe1 1.976 1_556 S
O16 C10 1.287 . S
O17 Fe3 1.996 . S
O17 C10 1.255 . S
C18 O11 1.287 . S
C18 O12 1.255 . S
O19 Fe1 2.002 . S
O19 C15 1.295 . S
O20 Fe3 1.997 1_554 S
O20 C15 1.235 . S
C21 O4 1.295 . S
C21 O5 1.235 . S
Fe22 O24 1.918 . S
Fe22 O27 1.997 . S
Fe22 O28 2.002 . S
Fe22 O33 1.976 . S
Fe22 O36 1.996 . S
Fe23 O24 1.918 . S
Fe23 O31 1.997 . S
Fe23 O34 1.996 . S
Fe23 O38 1.976 . S
Fe23 O41 2.002 . S
O24 Fe22 1.918 . S
O24 Fe23 1.918 . S
O24 Fe25 1.918 . S
Fe25 O24 1.918 . S
Fe25 O26 2.002 . S
Fe25 O35 1.976 . S
Fe25 O39 1.996 . S
Fe25 O42 1.997 . S
O26 Fe25 2.002 . S
O26 C43 1.295 . S
O27 Fe22 1.997 . S
O27 C43 1.235 . S
O28 Fe22 2.002 . S
O28 C29 1.295 . S
C29 O28 1.295 . S
C29 O31 1.235 . S
C30 O35 1.287 . S
C30 O36 1.255 . S
O31 Fe23 1.997 . S
O31 C29 1.235 . S
C32 O38 1.287 . S
C32 O39 1.255 . S
O33 Fe22 1.976 . S
O33 C40 1.287 . S
O34 Fe23 1.996 . S
O34 C40 1.255 . S
O35 Fe25 1.976 . S
O35 C30 1.287 . S
O36 Fe22 1.996 . S
O36 C30 1.255 . S
C37 O41 1.295 . S
C37 O42 1.235 . S
O38 Fe23 1.976 . S
O38 C32 1.287 . S
O39 Fe25 1.996 . S
O39 C32 1.255 . S
C40 O33 1.287 . S
C40 O34 1.255 . S
O41 Fe23 2.002 . S
O41 C37 1.295 . S
O42 Fe25 1.997 . S
O42 C37 1.235 . S
C43 O26 1.295 . S
C43 O27 1.235 . S
Fe44 O46 1.918 . S
Fe44 O49 1.997 . S
Fe44 O50 2.002 . S
Fe44 O55 1.976 . S
Fe44 O58 1.996 . S
Fe45 O46 1.918 . S
Fe45 O53 1.997 . S
Fe45 O56 1.996 . S
Fe45 O60 1.976 . S
Fe45 O63 2.002 1_554 S
O46 Fe44 1.918 . S
O46 Fe45 1.918 . S
O46 Fe47 1.918 . S
Fe47 O46 1.918 . S
Fe47 O48 2.002 1_554 S
Fe47 O57 1.976 . S
Fe47 O61 1.996 . S
Fe47 O64 1.997 1_554 S
O48 Fe47 2.002 1_556 S
O48 C65 1.295 . S
O49 Fe44 1.997 . S
O49 C65 1.235 1_554 S
O50 Fe44 2.002 . S
O50 C51 1.295 . S
C51 O50 1.295 . S
C51 O53 1.235 . S
C52 O57 1.287 . S
C52 O58 1.255 . S
O53 Fe45 1.997 . S
O53 C51 1.235 . S
C54 O60 1.287 . S
C54 O61 1.255 . S
O55 Fe44 1.976 . S
O55 C62 1.287 . S
O56 Fe45 1.996 . S
O56 C62 1.255 . S
O57 Fe47 1.976 . S
O57 C52 1.287 . S
O58 Fe44 1.996 . S
O58 C52 1.255 . S
C59 O63 1.295 . S
C59 O64 1.235 . S
O60 Fe45 1.976 . S
O60 C54 1.287 . S
O61 Fe47 1.996 . S
O61 C54 1.255 . S
C62 O55 1.287 . S
C62 O56 1.255 . S
O63 Fe45 2.002 1_556 S
O63 C59 1.295 . S
O64 Fe47 1.997 1_556 S
O64 C59 1.235 . S
C65 O48 1.295 . S
C65 O49 1.235 1_556 S
Fe66 O68 1.918 . S
Fe66 O71 1.997 . S
Fe66 O72 2.002 . S
Fe66 O77 1.976 . S
Fe66 O80 1.996 . S
Fe67 O68 1.918 . S
Fe67 O75 1.997 . S
Fe67 O78 1.996 . S
Fe67 O82 1.976 . S
Fe67 O85 2.002 . S
O68 Fe66 1.918 . S
O68 Fe67 1.918 . S
O68 Fe69 1.918 . S
Fe69 O68 1.918 . S
Fe69 O70 2.002 . S
Fe69 O79 1.976 . S
Fe69 O83 1.996 . S
Fe69 O86 1.997 . S
O70 Fe69 2.002 . S
O70 C87 1.295 . S
O71 Fe66 1.997 . S
O71 C87 1.235 . S
O72 Fe66 2.002 . S
O72 C73 1.295 . S
C73 O72 1.295 . S
C73 O75 1.235 . S
C74 O79 1.287 . S
C74 O80 1.255 . S
O75 Fe67 1.997 . S
O75 C73 1.235 . S
C76 O82 1.287 . S
C76 O83 1.255 . S
O77 Fe66 1.976 . S
O77 C84 1.287 . S
O78 Fe67 1.996 . S
O78 C84 1.255 . S
O79 Fe69 1.976 . S
O79 C74 1.287 . S
O80 Fe66 1.996 . S
O80 C74 1.255 . S
C81 O85 1.295 . S
C81 O86 1.235 . S
O82 Fe67 1.976 . S
O82 C76 1.287 . S
O83 Fe69 1.996 . S
O83 C76 1.255 . S
C84 O77 1.287 . S
C84 O78 1.255 . S
O85 Fe67 2.002 . S
O85 C81 1.295 . S
O86 Fe69 1.997 . S
O86 C81 1.235 . S
C87 O70 1.295 . S
C87 O71 1.235 . S
O88 Cd89 2.300 . S
O88 C95 1.275 . S
Cd89 O88 2.300 . S
Cd89 O97 2.381 . S
Cd89 O98 2.378 . S
O90 Cd91 2.385 . S
O90 C95 1.255 . S
Cd91 O90 2.385 . S
Cd91 O92 2.317 . S
O92 Cd91 2.317 . S
O92 C93 1.232 . S
C93 O92 1.232 . S
C93 O94 1.218 . S
O94 C93 1.218 . S
C95 O88 1.275 . S
C95 O90 1.255 . S
C96 O97 1.258 . S
C96 O98 1.256 . S
O97 Cd89 2.381 . S
O97 C96 1.258 . S
O98 Cd89 2.378 . S
O98 C96 1.256 . S
O99 Cd100 2.300 . S
O99 C106 1.275 . S
Cd100 O99 2.300 . S
Cd100 O108 2.381 . S
Cd100 O109 2.378 . S
O101 Cd102 2.385 . S
O101 C106 1.255 . S
Cd102 O101 2.385 . S
Cd102 O103 2.317 . S
O103 Cd102 2.317 . S
O103 C104 1.232 . S
C104 O103 1.232 . S
C104 O105 1.218 . S
O105 C104 1.218 . S
C106 O99 1.275 . S
C106 O101 1.255 . S
C107 O108 1.258 . S
C107 O109 1.256 . S
O108 Cd100 2.381 . S
O108 C107 1.258 . S
O109 Cd100 2.378 . S
O109 C107 1.256 . S
O110 Cd111 2.300 . S
O110 C117 1.275 . S
Cd111 O110 2.300 . S
Cd111 O119 2.381 . S
Cd111 O120 2.378 . S
O112 Cd113 2.385 . S
O112 C117 1.255 . S
Cd113 O112 2.385 . S
Cd113 O114 2.317 . S
O114 Cd113 2.317 . S
O114 C115 1.232 . S
C115 O114 1.232 . S
C115 O116 1.218 . S
O116 C115 1.218 . S
C117 O110 1.275 . S
C117 O112 1.255 . S
C118 O119 1.258 . S
C118 O120 1.256 . S
O119 Cd111 2.381 . S
O119 C118 1.258 . S
O120 Cd111 2.378 . S
O120 C118 1.256 . S
O121 Cd122 2.300 . S
O121 C128 1.275 . S
Cd122 O121 2.300 . S
Cd122 O130 2.381 . S
Cd122 O131 2.378 . S
O123 Cd124 2.385 . S
O123 C128 1.255 . S
Cd124 O123 2.385 . S
Cd124 O125 2.317 . S
O125 Cd124 2.317 . S
O125 C126 1.232 . S
C126 O125 1.232 . S
C126 O127 1.218 . S
O127 C126 1.218 . S
C128 O121 1.275 . S
C128 O123 1.255 . S
C129 O130 1.258 . S
C129 O131 1.256 . S
O130 Cd122 2.381 . S
O130 C129 1.258 . S
O131 Cd122 2.378 . S
O131 C129 1.256 . S
O132 Cd133 2.300 . S
O132 C139 1.275 . S
Cd133 O132 2.300 . S
Cd133 O141 2.381 . S
Cd133 O142 2.378 . S
O134 Cd135 2.385 . S
O134 C139 1.255 . S
Cd135 O134 2.385 . S
Cd135 O136 2.317 . S
O136 Cd135 2.317 . S
O136 C137 1.232 . S
C137 O136 1.232 . S
C137 O138 1.218 . S
O138 C137 1.218 . S
C139 O132 1.275 . S
C139 O134 1.255 . S
C140 O141 1.258 . S
C140 O142 1.256 . S
O141 Cd133 2.381 . S
O141 C140 1.258 . S
O142 Cd133 2.378 . S
O142 C140 1.256 . S
O143 Cd144 2.300 . S
O143 C150 1.275 . S
Cd144 O143 2.300 . S
Cd144 O152 2.381 . S
Cd144 O153 2.378 . S
O145 Cd146 2.385 . S
O145 C150 1.255 . S
Cd146 O145 2.385 . S
Cd146 O147 2.317 . S
O147 Cd146 2.317 . S
O147 C148 1.232 . S
C148 O147 1.232 . S
C148 O149 1.218 . S
O149 C148 1.218 . S
C150 O143 1.275 . S
C150 O145 1.255 . S
C151 O152 1.258 . S
C151 O153 1.256 . S
O152 Cd144 2.381 . S
O152 C151 1.258 . S
O153 Cd144 2.378 . S
O153 C151 1.256 . S
O154 Cd155 2.300 . S
O154 C161 1.275 . S
Cd155 O154 2.300 . S
Cd155 O163 2.381 . S
Cd155 O164 2.378 . S
O156 Cd157 2.385 . S
O156 C161 1.255 . S
Cd157 O156 2.385 . S
Cd157 O158 2.317 . S
O158 Cd157 2.317 . S
O158 C159 1.232 . S
C159 O158 1.232 . S
C159 O160 1.218 . S
O160 C159 1.218 . S
C161 O154 1.275 . S
C161 O156 1.255 . S
C162 O163 1.258 . S
C162 O164 1.256 . S
O163 Cd155 2.381 . S
O163 C162 1.258 . S
O164 Cd155 2.378 . S
O164 C162 1.256 . S
O165 Cd166 2.300 . S
O165 C172 1.275 . S
Cd166 O165 2.300 . S
Cd166 O174 2.381 . S
Cd166 O175 2.378 . S
O167 Cd168 2.385 . S
O167 C172 1.255 . S
Cd168 O167 2.385 . S
Cd168 O169 2.317 . S
O169 Cd168 2.317 . S
O169 C170 1.232 . S
C170 O169 1.232 . S
C170 O171 1.218 . S
O171 C170 1.218 . S
C172 O165 1.275 . S
C172 O167 1.255 . S
C173 O174 1.258 . S
C173 O175 1.256 . S
O174 Cd166 2.381 . S
O174 C173 1.258 . S
O175 Cd166 2.378 . S
O175 C173 1.256 . S
H176 C184 0.929 . S
H177 C186 0.930 . S
H178 C188 0.930 . S
H179 C191 0.929 . S
H180 C194 0.930 . S
H181 C196 0.960 . S
H182 C196 0.960 . S
H183 C196 0.960 . S
C184 H176 0.929 . S
C184 C185 1.377 . S
C184 C186 1.384 . S
C185 C184 1.377 . S
C185 C191 1.390 . S
C186 H177 0.930 . S
C186 C184 1.384 . S
C186 C187 1.372 . S
C187 C186 1.372 . S
C187 C188 1.400 . S
C187 C192 1.490 . S
C188 H178 0.930 . S
C188 C187 1.400 . S
C188 C191 1.386 . S
H189 C205 0.930 . S
H190 C206 0.931 . S
C191 H179 0.929 . S
C191 C185 1.390 . S
C191 C188 1.386 . S
C192 C187 1.490 . S
C192 C194 1.395 . S
C192 C195 1.403 . S
H193 C199 0.930 . S
C194 H180 0.930 . S
C194 C192 1.395 . S
C194 C197 1.403 1_565 S
C195 C192 1.403 . S
C195 C196 1.524 . S
C195 C199 1.400 . S
C196 H181 0.960 . S
C196 H182 0.960 . S
C196 H183 0.960 . S
C196 C195 1.524 . S
C197 C194 1.403 1_545 S
C197 C198 1.392 . S
C197 C201 1.495 . S
C198 C197 1.392 . S
C198 C199 1.385 1_545 S
C198 C200 1.478 . S
C199 H193 0.930 . S
C199 C195 1.400 . S
C199 C198 1.385 1_565 S
C200 C198 1.478 . S
C200 C202 1.381 . S
C200 C206 1.383 . S
C201 C197 1.495 . S
C201 H207 0.959 . S
C201 H208 0.961 . S
C201 H209 0.960 . S
C202 C200 1.381 . S
C202 C203 1.394 . S
C202 H210 0.930 . S
C203 C202 1.394 . S
C203 C204 1.383 . S
C203 H211 0.929 . S
C204 C203 1.383 . S
C204 C205 1.377 . S
C205 H189 0.930 . S
C205 C204 1.377 . S
C205 C206 1.379 . S
C206 H190 0.931 . S
C206 C200 1.383 . S
C206 C205 1.379 . S
H207 C201 0.959 . S
H208 C201 0.961 . S
H209 C201 0.960 . S
H210 C202 0.930 . S
H211 C203 0.929 . S
H212 C220 0.929 . S
H213 C222 0.930 . S
H214 C224 0.930 . S
H215 C227 0.929 . S
H216 C230 0.930 . S
H217 C232 0.960 . S
H218 C232 0.960 . S
H219 C232 0.960 . S
C220 H212 0.929 . S
C220 C221 1.377 . S
C220 C222 1.384 . S
C221 C220 1.377 . S
C221 C227 1.390 . S
C222 H213 0.930 . S
C222 C220 1.384 . S
C222 C223 1.372 . S
C223 C222 1.372 . S
C223 C224 1.400 . S
C223 C228 1.490 . S
C224 H214 0.930 . S
C224 C223 1.400 . S
C224 C227 1.386 . S
H225 C241 0.930 . S
H226 C242 0.931 . S
C227 H215 0.929 . S
C227 C221 1.390 . S
C227 C224 1.386 . S
C228 C223 1.490 . S
C228 C230 1.395 . S
C228 C231 1.403 . S
H229 C235 0.930 . S
C230 H216 0.930 . S
C230 C228 1.395 . S
C230 C233 1.403 . S
C231 C228 1.403 . S
C231 C232 1.524 . S
C231 C235 1.400 . S
C232 H217 0.960 . S
C232 H218 0.960 . S
C232 H219 0.960 . S
C232 C231 1.524 . S
C233 C230 1.403 . S
C233 C234 1.392 . S
C233 C237 1.495 . S
C234 C233 1.392 . S
C234 C235 1.385 . S
C234 C236 1.478 . S
C235 H229 0.930 . S
C235 C231 1.400 . S
C235 C234 1.385 . S
C236 C234 1.478 . S
C236 C238 1.381 . S
C236 C242 1.383 . S
C237 C233 1.495 . S
C237 H243 0.959 . S
C237 H244 0.961 . S
C237 H245 0.960 . S
C238 C236 1.381 . S
C238 C239 1.394 . S
C238 H246 0.930 . S
C239 C238 1.394 . S
C239 C240 1.383 . S
C239 H247 0.929 . S
C240 C239 1.383 . S
C240 C241 1.377 . S
C241 H225 0.930 . S
C241 C240 1.377 . S
C241 C242 1.379 . S
C242 H226 0.931 . S
C242 C236 1.383 . S
C242 C241 1.379 . S
H243 C237 0.959 . S
H244 C237 0.961 . S
H245 C237 0.960 . S
H246 C238 0.930 . S
H247 C239 0.929 . S
H248 C256 0.929 . S
H249 C258 0.930 . S
H250 C260 0.930 . S
H251 C263 0.929 . S
H252 C266 0.930 . S
H253 C268 0.960 . S
H254 C268 0.960 . S
H255 C268 0.960 . S
C256 H248 0.929 . S
C256 C257 1.377 . S
C256 C258 1.384 . S
C257 C256 1.377 . S
C257 C263 1.390 . S
C258 H249 0.930 . S
C258 C256 1.384 . S
C258 C259 1.372 . S
C259 C258 1.372 . S
C259 C260 1.400 . S
C259 C264 1.490 1_545 S
C260 H250 0.930 . S
C260 C259 1.400 . S
C260 C263 1.386 . S
H261 C277 0.930 . S
H262 C278 0.931 . S
C263 H251 0.929 . S
C263 C257 1.390 . S
C263 C260 1.386 . S
C264 C259 1.490 1_565 S
C264 C266 1.395 . S
C264 C267 1.403 . S
H265 C271 0.930 . S
C266 H252 0.930 . S
C266 C264 1.395 . S
C266 C269 1.403 . S
C267 C264 1.403 . S
C267 C268 1.524 . S
C267 C271 1.400 . S
C268 H253 0.960 . S
C268 H254 0.960 . S
C268 H255 0.960 . S
C268 C267 1.524 . S
C269 C266 1.403 . S
C269 C270 1.392 . S
C269 C273 1.495 . S
C270 C269 1.392 . S
C270 C271 1.385 . S
C270 C272 1.478 . S
C271 H265 0.930 . S
C271 C267 1.400 . S
C271 C270 1.385 . S
C272 C270 1.478 . S
C272 C274 1.381 . S
C272 C278 1.383 . S
C273 C269 1.495 . S
C273 H279 0.959 . S
C273 H280 0.961 . S
C273 H281 0.960 . S
C274 C272 1.381 . S
C274 C275 1.394 . S
C274 H282 0.930 . S
C275 C274 1.394 . S
C275 C276 1.383 . S
C275 H283 0.929 . S
C276 C275 1.383 . S
C276 C277 1.377 . S
C277 H261 0.930 . S
C277 C276 1.377 . S
C277 C278 1.379 . S
C278 H262 0.931 . S
C278 C272 1.383 . S
C278 C277 1.379 . S
H279 C273 0.959 . S
H280 C273 0.961 . S
H281 C273 0.960 . S
H282 C274 0.930 . S
H283 C275 0.929 . S
H284 C292 0.929 . S
H285 C294 0.930 . S
H286 C296 0.930 . S
H287 C299 0.929 . S
H288 C302 0.930 . S
H289 C304 0.960 . S
H290 C304 0.960 . S
H291 C304 0.960 . S
C292 H284 0.929 . S
C292 C293 1.377 . S
C292 C294 1.384 . S
C293 C292 1.377 . S
C293 C299 1.390 . S
C294 H285 0.930 . S
C294 C292 1.384 . S
C294 C295 1.372 . S
C295 C294 1.372 . S
C295 C296 1.400 . S
C295 C300 1.490 . S
C296 H286 0.930 . S
C296 C295 1.400 . S
C296 C299 1.386 . S
H297 C313 0.930 . S
H298 C314 0.931 . S
C299 H287 0.929 . S
C299 C293 1.390 . S
C299 C296 1.386 . S
C300 C295 1.490 . S
C300 C302 1.395 . S
C300 C303 1.403 . S
H301 C307 0.930 . S
C302 H288 0.930 . S
C302 C300 1.395 . S
C302 C305 1.403 . S
C303 C300 1.403 . S
C303 C304 1.524 . S
C303 C307 1.400 . S
C304 H289 0.960 . S
C304 H290 0.960 . S
C304 H291 0.960 . S
C304 C303 1.524 . S
C305 C302 1.403 . S
C305 C306 1.392 . S
C305 C309 1.495 . S
C306 C305 1.392 . S
C306 C307 1.385 . S
C306 C308 1.478 . S
C307 H301 0.930 . S
C307 C303 1.400 . S
C307 C306 1.385 . S
C308 C306 1.478 . S
C308 C310 1.381 . S
C308 C314 1.383 . S
C309 C305 1.495 . S
C309 H315 0.959 . S
C309 H316 0.961 . S
C309 H317 0.960 . S
C310 C308 1.381 . S
C310 C311 1.394 . S
C310 H318 0.930 . S
C311 C310 1.394 . S
C311 C312 1.383 . S
C311 H319 0.929 . S
C312 C311 1.383 . S
C312 C313 1.377 . S
C313 H297 0.930 . S
C313 C312 1.377 . S
C313 C314 1.379 . S
C314 H298 0.931 . S
C314 C308 1.383 . S
C314 C313 1.379 . S
H315 C309 0.959 . S
H316 C309 0.961 . S
H317 C309 0.960 . S
H318 C310 0.930 . S
H319 C311 0.929 . S
H320 C328 0.929 . S
H321 C330 0.930 . S
H322 C332 0.930 . S
H323 C335 0.929 . S
H324 C338 0.930 . S
H325 C340 0.960 . S
H326 C340 0.960 . S
H327 C340 0.960 . S
C328 H320 0.929 . S
C328 C329 1.377 . S
C328 C330 1.384 . S
C329 C328 1.377 . S
C329 C335 1.390 . S
C330 H321 0.930 . S
C330 C328 1.384 . S
C330 C331 1.372 . S
C331 C330 1.372 . S
C331 C332 1.400 . S
C331 C336 1.490 . S
C332 H322 0.930 . S
C332 C331 1.400 . S
C332 C335 1.386 . S
H333 C349 0.930 . S
H334 C350 0.931 . S
C335 H323 0.929 . S
C335 C329 1.390 . S
C335 C332 1.386 . S
C336 C331 1.490 . S
C336 C338 1.395 . S
C336 C339 1.403 . S
H337 C343 0.930 . S
C338 H324 0.930 . S
C338 C336 1.395 . S
C338 C341 1.403 . S
C339 C336 1.403 . S
C339 C340 1.524 . S
C339 C343 1.400 . S
C340 H325 0.960 . S
C340 H326 0.960 . S
C340 H327 0.960 . S
C340 C339 1.524 . S
C341 C338 1.403 . S
C341 C342 1.392 . S
C341 C345 1.495 . S
C342 C341 1.392 . S
C342 C343 1.385 . S
C342 C344 1.478 . S
C343 H337 0.930 . S
C343 C339 1.400 . S
C343 C342 1.385 . S
C344 C342 1.478 . S
C344 C346 1.381 . S
C344 C350 1.383 . S
C345 C341 1.495 . S
C345 H351 0.959 . S
C345 H352 0.961 . S
C345 H353 0.960 . S
C346 C344 1.381 . S
C346 C347 1.394 . S
C346 H354 0.930 . S
C347 C346 1.394 . S
C347 C348 1.383 . S
C347 H355 0.929 . S
C348 C347 1.383 . S
C348 C349 1.377 . S
C349 H333 0.930 . S
C349 C348 1.377 . S
C349 C350 1.379 . S
C350 H334 0.931 . S
C350 C344 1.383 . S
C350 C349 1.379 . S
H351 C345 0.959 . S
H352 C345 0.961 . S
H353 C345 0.960 . S
H354 C346 0.930 . S
H355 C347 0.929 . S
H356 C364 0.929 . S
H357 C366 0.930 . S
H358 C368 0.930 . S
H359 C371 0.929 . S
H360 C374 0.930 1_554 S
H361 C376 0.960 . S
H362 C376 0.960 . S
H363 C376 0.960 . S
C364 H356 0.929 . S
C364 C365 1.377 1_554 S
C364 C366 1.384 . S
C365 C364 1.377 1_556 S
C365 C371 1.390 . S
C366 H357 0.930 . S
C366 C364 1.384 . S
C366 C367 1.372 1_554 S
C367 C366 1.372 1_556 S
C367 C368 1.400 . S
C367 C372 1.490 . S
C368 H358 0.930 . S
C368 C367 1.400 . S
C368 C371 1.386 . S
H369 C385 0.930 . S
H370 C386 0.931 . S
C371 H359 0.929 . S
C371 C365 1.390 . S
C371 C368 1.386 . S
C372 C367 1.490 . S
C372 C374 1.395 1_655 S
C372 C375 1.403 . S
H373 C379 0.930 . S
C374 H360 0.930 1_556 S
C374 C372 1.395 1_455 S
C374 C377 1.403 . S
C375 C372 1.403 . S
C375 C376 1.524 . S
C375 C379 1.400 1_655 S
C376 H361 0.960 . S
C376 H362 0.960 . S
C376 H363 0.960 . S
C376 C375 1.524 . S
C377 C374 1.403 . S
C377 C378 1.392 . S
C377 C381 1.495 1_556 S
C378 C377 1.392 . S
C378 C379 1.385 . S
C378 C380 1.478 . S
C379 H373 0.930 . S
C379 C375 1.400 1_455 S
C379 C378 1.385 . S
C380 C378 1.478 . S
C380 C382 1.381 . S
C380 C386 1.383 . S
C381 C377 1.495 1_554 S
C381 H387 0.959 . S
C381 H388 0.961 1_554 S
C381 H389 0.960 . S
C382 C380 1.381 . S
C382 C383 1.394 . S
C382 H390 0.930 . S
C383 C382 1.394 . S
C383 C384 1.383 . S
C383 H391 0.929 . S
C384 C383 1.383 . S
C384 C385 1.377 . S
C385 H369 0.930 . S
C385 C384 1.377 . S
C385 C386 1.379 . S
C386 H370 0.931 . S
C386 C380 1.383 . S
C386 C385 1.379 . S
H387 C381 0.959 . S
H388 C381 0.961 1_556 S
H389 C381 0.960 . S
H390 C382 0.930 . S
H391 C383 0.929 . S
H392 C400 0.929 . S
H393 C402 0.930 . S
H394 C404 0.930 . S
H395 C407 0.929 . S
H396 C410 0.930 . S
H397 C412 0.960 . S
H398 C412 0.960 . S
H399 C412 0.960 . S
C400 H392 0.929 . S
C400 C401 1.377 . S
C400 C402 1.384 . S
C401 C400 1.377 . S
C401 C407 1.390 . S
C402 H393 0.930 . S
C402 C400 1.384 . S
C402 C403 1.372 . S
C403 C402 1.372 . S
C403 C404 1.400 . S
C403 C408 1.490 . S
C404 H394 0.930 . S
C404 C403 1.400 . S
C404 C407 1.386 . S
H405 C421 0.930 . S
H406 C422 0.931 . S
C407 H395 0.929 . S
C407 C401 1.390 . S
C407 C404 1.386 . S
C408 C403 1.490 . S
C408 C410 1.395 . S
C408 C411 1.403 . S
H409 C415 0.930 . S
C410 H396 0.930 . S
C410 C408 1.395 . S
C410 C413 1.403 . S
C411 C408 1.403 . S
C411 C412 1.524 . S
C411 C415 1.400 . S
C412 H397 0.960 . S
C412 H398 0.960 . S
C412 H399 0.960 . S
C412 C411 1.524 . S
C413 C410 1.403 . S
C413 C414 1.392 . S
C413 C417 1.495 . S
C414 C413 1.392 . S
C414 C415 1.385 . S
C414 C416 1.478 . S
C415 H409 0.930 . S
C415 C411 1.400 . S
C415 C414 1.385 . S
C416 C414 1.478 . S
C416 C418 1.381 . S
C416 C422 1.383 . S
C417 C413 1.495 . S
C417 H423 0.959 . S
C417 H424 0.961 . S
C417 H425 0.960 . S
C418 C416 1.381 . S
C418 C419 1.394 . S
C418 H426 0.930 . S
C419 C418 1.394 . S
C419 C420 1.383 . S
C419 H427 0.929 . S
C420 C419 1.383 . S
C420 C421 1.377 . S
C421 H405 0.930 . S
C421 C420 1.377 . S
C421 C422 1.379 . S
C422 H406 0.931 . S
C422 C416 1.383 . S
C422 C421 1.379 . S
H423 C417 0.959 . S
H424 C417 0.961 . S
H425 C417 0.960 . S
H426 C418 0.930 . S
H427 C419 0.929 . S
H428 C436 0.929 . S
H429 C438 0.930 . S
H430 C440 0.930 . S
H431 C443 0.929 . S
H432 C446 0.930 . S
H433 C448 0.960 . S
H434 C448 0.960 . S
H435 C448 0.960 . S
C436 H428 0.929 . S
C436 C437 1.377 . S
C436 C438 1.384 . S
C437 C436 1.377 . S
C437 C443 1.390 . S
C438 H429 0.930 . S
C438 C436 1.384 . S
C438 C439 1.372 . S
C439 C438 1.372 . S
C439 C440 1.400 . S
C439 C444 1.490 . S
C440 H430 0.930 . S
C440 C439 1.400 . S
C440 C443 1.386 . S
H441 C457 0.930 . S
H442 C458 0.931 . S
C443 H431 0.929 . S
C443 C437 1.390 . S
C443 C440 1.386 . S
C444 C439 1.490 . S
C444 C446 1.395 . S
C444 C447 1.403 1_455 S
H445 C451 0.930 . S
C446 H432 0.930 . S
C446 C444 1.395 . S
C446 C449 1.403 . S
C447 C444 1.403 1_655 S
C447 C448 1.524 . S
C447 C451 1.400 . S
C448 H433 0.960 . S
C448 H434 0.960 . S
C448 H435 0.960 . S
C448 C447 1.524 . S
C449 C446 1.403 . S
C449 C450 1.392 1_455 S
C449 C453 1.495 . S
C450 C449 1.392 1_655 S
C450 C451 1.385 . S
C450 C452 1.478 . S
C451 H445 0.930 . S
C451 C447 1.400 . S
C451 C450 1.385 . S
C452 C450 1.478 . S
C452 C454 1.381 . S
C452 C458 1.383 . S
C453 C449 1.495 . S
C453 H459 0.959 . S
C453 H460 0.961 . S
C453 H461 0.960 . S
C454 C452 1.381 . S
C454 C455 1.394 . S
C454 H462 0.930 . S
C455 C454 1.394 . S
C455 C456 1.383 . S
C455 H463 0.929 . S
C456 C455 1.383 . S
C456 C457 1.377 . S
C457 H441 0.930 . S
C457 C456 1.377 . S
C457 C458 1.379 . S
C458 H442 0.931 . S
C458 C452 1.383 . S
C458 C457 1.379 . S
H459 C453 0.959 . S
H460 C453 0.961 . S
H461 C453 0.960 . S
H462 C454 0.930 . S
H463 C455 0.929 . S
H464 C472 0.929 . S
H465 C474 0.930 . S
H466 C476 0.930 . S
H467 C479 0.929 . S
H468 C482 0.930 . S
H469 C484 0.960 . S
H470 C484 0.960 . S
H471 C484 0.960 . S
C472 H464 0.929 . S
C472 C473 1.377 . S
C472 C474 1.384 . S
C473 C472 1.377 . S
C473 C479 1.390 . S
C474 H465 0.930 . S
C474 C472 1.384 . S
C474 C475 1.372 . S
C475 C474 1.372 . S
C475 C476 1.400 . S
C475 C480 1.490 . S
C476 H466 0.930 . S
C476 C475 1.400 . S
C476 C479 1.386 . S
H477 C493 0.930 . S
H478 C494 0.931 . S
C479 H467 0.929 . S
C479 C473 1.390 . S
C479 C476 1.386 . S
C480 C475 1.490 . S
C480 C482 1.395 . S
C480 C483 1.403 . S
H481 C487 0.930 . S
C482 H468 0.930 . S
C482 C480 1.395 . S
C482 C485 1.403 . S
C483 C480 1.403 . S
C483 C484 1.524 . S
C483 C487 1.400 . S
C484 H469 0.960 . S
C484 H470 0.960 . S
C484 H471 0.960 . S
C484 C483 1.524 . S
C485 C482 1.403 . S
C485 C486 1.392 . S
C485 C489 1.495 1_545 S
C486 C485 1.392 . S
C486 C487 1.385 . S
C486 C488 1.478 1_545 S
C487 H481 0.930 . S
C487 C483 1.400 . S
C487 C486 1.385 . S
C488 C486 1.478 1_565 S
C488 C490 1.381 . S
C488 C494 1.383 . S
C489 C485 1.495 1_565 S
C489 H495 0.959 . S
C489 H496 0.961 . S
C489 H497 0.960 . S
C490 C488 1.381 . S
C490 C491 1.394 . S
C490 H498 0.930 . S
C491 C490 1.394 . S
C491 C492 1.383 . S
C491 H499 0.929 . S
C492 C491 1.383 . S
C492 C493 1.377 . S
C493 H477 0.930 . S
C493 C492 1.377 . S
C493 C494 1.379 . S
C494 H478 0.931 . S
C494 C488 1.383 . S
C494 C493 1.379 . S
H495 C489 0.959 . S
H496 C489 0.961 . S
H497 C489 0.960 . S
H498 C490 0.930 . S
H499 C491 0.929 . S
H500 C508 0.929 . S
H501 C510 0.930 . S
H502 C512 0.930 . S
H503 C515 0.929 . S
H504 C518 0.930 . S
H505 C520 0.960 . S
H506 C520 0.960 . S
H507 C520 0.960 . S
C508 H500 0.929 . S
C508 C509 1.377 . S
C508 C510 1.384 . S
C509 C508 1.377 . S
C509 C515 1.390 . S
C510 H501 0.930 . S
C510 C508 1.384 . S
C510 C511 1.372 . S
C511 C510 1.372 . S
C511 C512 1.400 . S
C511 C516 1.490 . S
C512 H502 0.930 . S
C512 C511 1.400 . S
C512 C515 1.386 . S
H513 C529 0.930 . S
H514 C530 0.931 . S
C515 H503 0.929 . S
C515 C509 1.390 . S
C515 C512 1.386 . S
C516 C511 1.490 . S
C516 C518 1.395 . S
C516 C519 1.403 . S
H517 C523 0.930 . S
C518 H504 0.930 . S
C518 C516 1.395 . S
C518 C521 1.403 . S
C519 C516 1.403 . S
C519 C520 1.524 . S
C519 C523 1.400 . S
C520 H505 0.960 . S
C520 H506 0.960 . S
C520 H507 0.960 . S
C520 C519 1.524 . S
C521 C518 1.403 . S
C521 C522 1.392 . S
C521 C525 1.495 . S
C522 C521 1.392 . S
C522 C523 1.385 . S
C522 C524 1.478 . S
C523 H517 0.930 . S
C523 C519 1.400 . S
C523 C522 1.385 . S
C524 C522 1.478 . S
C524 C526 1.381 . S
C524 C530 1.383 . S
C525 C521 1.495 . S
C525 H531 0.959 . S
C525 H532 0.961 . S
C525 H533 0.960 . S
C526 C524 1.381 . S
C526 C527 1.394 . S
C526 H534 0.930 . S
C527 C526 1.394 . S
C527 C528 1.383 . S
C527 H535 0.929 . S
C528 C527 1.383 . S
C528 C529 1.377 . S
C529 H513 0.930 . S
C529 C528 1.377 . S
C529 C530 1.379 . S
C530 H514 0.931 . S
C530 C524 1.383 . S
C530 C529 1.379 . S
H531 C525 0.959 . S
H532 C525 0.961 . S
H533 C525 0.960 . S
H534 C526 0.930 . S
H535 C527 0.929 . S
H536 C544 0.929 1_554 S
H537 C546 0.930 . S
H538 C548 0.930 . S
H539 C551 0.929 . S
H540 C554 0.930 . S
H541 C556 0.960 . S
H542 C556 0.960 . S
H543 C556 0.960 . S
C544 H536 0.929 1_556 S
C544 C545 1.377 . S
C544 C546 1.384 1_565 S
C545 C544 1.377 . S
C545 C551 1.390 . S
C546 H537 0.930 . S
C546 C544 1.384 1_545 S
C546 C547 1.372 . S
C547 C546 1.372 . S
C547 C548 1.400 1_545 S
C547 C552 1.490 . S
C548 H538 0.930 . S
C548 C547 1.400 1_565 S
C548 C551 1.386 . S
H549 C565 0.930 . S
H550 C566 0.931 . S
C551 H539 0.929 . S
C551 C545 1.390 . S
C551 C548 1.386 . S
C552 C547 1.490 . S
C552 C554 1.395 . S
C552 C555 1.403 . S
H553 C559 0.930 . S
C554 H540 0.930 . S
C554 C552 1.395 . S
C554 C557 1.403 . S
C555 C552 1.403 . S
C555 C556 1.524 . S
C555 C559 1.400 . S
C556 H541 0.960 . S
C556 H542 0.960 . S
C556 H543 0.960 . S
C556 C555 1.524 . S
C557 C554 1.403 . S
C557 C558 1.392 . S
C557 C561 1.495 . S
C558 C557 1.392 . S
C558 C559 1.385 . S
C558 C560 1.478 . S
C559 H553 0.930 . S
C559 C555 1.400 . S
C559 C558 1.385 . S
C560 C558 1.478 . S
C560 C562 1.381 . S
C560 C566 1.383 . S
C561 C557 1.495 . S
C561 H567 0.959 1_556 S
C561 H568 0.961 . S
C561 H569 0.956 1_556 S
C562 C560 1.381 . S
C562 C563 1.394 . S
C562 H570 0.930 . S
C563 C562 1.394 . S
C563 C564 1.383 . S
C563 H571 0.929 . S
C564 C563 1.383 . S
C564 C565 1.377 . S
C565 H549 0.930 . S
C565 C564 1.377 . S
C565 C566 1.379 . S
C566 H550 0.931 . S
C566 C560 1.383 . S
C566 C565 1.379 . S
H567 C561 0.959 1_554 S
H568 C561 0.961 . S
H569 C561 0.956 1_554 S
H570 C562 0.930 . S
H571 C563 0.929 . S
H572 C580 0.929 . S
H573 C582 0.930 . S
H574 C584 0.930 . S
H575 C587 0.929 . S
H576 C590 0.930 . S
H577 C592 0.960 . S
H578 C592 0.960 . S
H579 C592 0.960 . S
C580 H572 0.929 . S
C580 C581 1.377 . S
C580 C582 1.384 . S
C581 C580 1.377 . S
C581 C587 1.390 . S
C582 H573 0.930 . S
C582 C580 1.384 . S
C582 C583 1.372 . S
C583 C582 1.372 . S
C583 C584 1.400 . S
C583 C588 1.490 . S
C584 H574 0.930 . S
C584 C583 1.400 . S
C584 C587 1.386 . S
H585 C601 0.930 . S
H586 C602 0.931 . S
C587 H575 0.929 . S
C587 C581 1.390 . S
C587 C584 1.386 . S
C588 C583 1.490 . S
C588 C590 1.395 . S
C588 C591 1.403 . S
H589 C595 0.930 . S
C590 H576 0.930 . S
C590 C588 1.395 . S
C590 C593 1.403 . S
C591 C588 1.403 . S
C591 C592 1.524 . S
C591 C595 1.400 . S
C592 H577 0.960 . S
C592 H578 0.960 . S
C592 H579 0.960 . S
C592 C591 1.524 . S
C593 C590 1.403 . S
C593 C594 1.392 . S
C593 C597 1.495 . S
C594 C593 1.392 . S
C594 C595 1.385 . S
C594 C596 1.478 . S
C595 H589 0.930 . S
C595 C591 1.400 . S
C595 C594 1.385 . S
C596 C594 1.478 . S
C596 C598 1.381 . S
C596 C602 1.383 . S
C597 C593 1.495 . S
C597 H603 0.959 . S
C597 H604 0.961 . S
C597 H605 0.960 . S
C598 C596 1.381 . S
C598 C599 1.394 . S
C598 H606 0.930 . S
C599 C598 1.394 . S
C599 C600 1.383 . S
C599 H607 0.929 . S
C600 C599 1.383 . S
C600 C601 1.377 . S
C601 H585 0.930 . S
C601 C600 1.377 . S
C601 C602 1.379 . S
C602 H586 0.931 . S
C602 C596 1.383 . S
C602 C601 1.379 . S
H603 C597 0.959 . S
H604 C597 0.961 . S
H605 C597 0.960 . S
H606 C598 0.930 . S
H607 C599 0.929 . S
H608 C616 0.929 . S
H609 C618 0.930 . S
H610 C620 0.930 . S
H611 C623 0.929 . S
H612 C626 0.930 . S
H613 C628 0.960 . S
H614 C628 0.960 . S
H615 C628 0.960 . S
C616 H608 0.929 . S
C616 C617 1.377 . S
C616 C618 1.384 . S
C617 C616 1.377 . S
C617 C623 1.390 . S
C618 H609 0.930 . S
C618 C616 1.384 . S
C618 C619 1.372 . S
C619 C618 1.372 . S
C619 C620 1.400 . S
C619 C624 1.490 . S
C620 H610 0.930 . S
C620 C619 1.400 . S
C620 C623 1.386 . S
H621 C637 0.930 . S
H622 C638 0.931 . S
C623 H611 0.929 . S
C623 C617 1.390 . S
C623 C620 1.386 . S
C624 C619 1.490 . S
C624 C626 1.395 . S
C624 C627 1.403 . S
H625 C631 0.930 . S
C626 H612 0.930 . S
C626 C624 1.395 . S
C626 C629 1.403 . S
C627 C624 1.403 . S
C627 C628 1.524 . S
C627 C631 1.400 . S
C628 H613 0.960 . S
C628 H614 0.960 . S
C628 H615 0.960 . S
C628 C627 1.524 . S
C629 C626 1.403 . S
C629 C630 1.392 . S
C629 C633 1.495 . S
C630 C629 1.392 . S
C630 C631 1.385 . S
C630 C632 1.478 . S
C631 H625 0.930 . S
C631 C627 1.400 . S
C631 C630 1.385 . S
C632 C630 1.478 . S
C632 C634 1.381 . S
C632 C638 1.383 . S
C633 C629 1.495 . S
C633 H639 0.959 . S
C633 H640 0.961 . S
C633 H641 0.960 . S
C634 C632 1.381 . S
C634 C635 1.394 . S
C634 H642 0.930 . S
C635 C634 1.394 . S
C635 C636 1.383 . S
C635 H643 0.929 . S
C636 C635 1.383 . S
C636 C637 1.377 . S
C637 H621 0.930 . S
C637 C636 1.377 . S
C637 C638 1.379 . S
C638 H622 0.931 . S
C638 C632 1.383 . S
C638 C637 1.379 . S
H639 C633 0.959 . S
H640 C633 0.961 . S
H641 C633 0.960 . S
H642 C634 0.930 . S
H643 C635 0.929 . S
H644 C652 0.929 . S
H645 C654 0.930 . S
H646 C656 0.930 . S
H647 C659 0.929 . S
H648 C662 0.930 . S
H649 C664 0.960 . S
H650 C664 0.960 . S
H651 C664 0.960 . S
C652 H644 0.929 . S
C652 C653 1.377 . S
C652 C654 1.384 . S
C653 C652 1.377 . S
C653 C659 1.390 . S
C654 H645 0.930 . S
C654 C652 1.384 . S
C654 C655 1.372 . S
C655 C654 1.372 . S
C655 C656 1.400 . S
C655 C660 1.490 1_455 S
C656 H646 0.930 . S
C656 C655 1.400 . S
C656 C659 1.386 . S
H657 C673 0.930 . S
H658 C674 0.931 . S
C659 H647 0.929 . S
C659 C653 1.390 . S
C659 C656 1.386 . S
C660 C655 1.490 1_655 S
C660 C662 1.395 . S
C660 C663 1.403 . S
H661 C667 0.930 . S
C662 H648 0.930 . S
C662 C660 1.395 . S
C662 C665 1.403 . S
C663 C660 1.403 . S
C663 C664 1.524 1_655 S
C663 C667 1.400 . S
C664 H649 0.960 . S
C664 H650 0.960 . S
C664 H651 0.960 . S
C664 C663 1.524 1_455 S
C665 C662 1.403 . S
C665 C666 1.392 . S
C665 C669 1.495 . S
C666 C665 1.392 . S
C666 C667 1.385 . S
C666 C668 1.478 . S
C667 H661 0.930 . S
C667 C663 1.400 . S
C667 C666 1.385 . S
C668 C666 1.478 . S
C668 C670 1.381 . S
C668 C674 1.383 . S
C669 C665 1.495 . S
C669 H675 0.959 . S
C669 H676 0.961 . S
C669 H677 0.960 . S
C670 C668 1.381 . S
C670 C671 1.394 . S
C670 H678 0.930 . S
C671 C670 1.394 . S
C671 C672 1.383 . S
C671 H679 0.929 . S
C672 C671 1.383 . S
C672 C673 1.377 . S
C673 H657 0.930 . S
C673 C672 1.377 . S
C673 C674 1.379 . S
C674 H658 0.931 . S
C674 C668 1.383 . S
C674 C673 1.379 . S
H675 C669 0.959 . S
H676 C669 0.961 . S
H677 C669 0.960 . S
H678 C670 0.930 . S
H679 C671 0.929 . S
H680 C688 0.929 . S
H681 C690 0.930 . S
H682 C692 0.930 . S
H683 C695 0.929 . S
H684 C698 0.930 . S
H685 C700 0.960 . S
H686 C700 0.960 . S
H687 C700 0.960 . S
C688 H680 0.929 . S
C688 C689 1.377 . S
C688 C690 1.384 . S
C689 C688 1.377 . S
C689 C695 1.390 . S
C690 H681 0.930 . S
C690 C688 1.384 . S
C690 C691 1.372 . S
C691 C690 1.372 . S
C691 C692 1.400 . S
C691 C696 1.490 . S
C692 H682 0.930 . S
C692 C691 1.400 . S
C692 C695 1.386 . S
H693 C709 0.930 . S
H694 C710 0.931 . S
C695 H683 0.929 . S
C695 C689 1.390 . S
C695 C692 1.386 . S
C696 C691 1.490 . S
C696 C698 1.395 . S
C696 C699 1.403 . S
H697 C703 0.930 . S
C698 H684 0.930 . S
C698 C696 1.395 . S
C698 C701 1.403 . S
C699 C696 1.403 . S
C699 C700 1.524 . S
C699 C703 1.400 . S
C700 H685 0.960 . S
C700 H686 0.960 . S
C700 H687 0.960 . S
C700 C699 1.524 . S
C701 C698 1.403 . S
C701 C702 1.392 . S
C701 C705 1.495 . S
C702 C701 1.392 . S
C702 C703 1.385 . S
C702 C704 1.478 . S
C703 H697 0.930 . S
C703 C699 1.400 . S
C703 C702 1.385 . S
C704 C702 1.478 . S
C704 C706 1.381 . S
C704 C710 1.383 . S
C705 C701 1.495 . S
C705 H711 0.959 . S
C705 H712 0.961 . S
C705 H713 0.960 . S
C706 C704 1.381 . S
C706 C707 1.394 . S
C706 H714 0.930 . S
C707 C706 1.394 . S
C707 C708 1.383 . S
C707 H715 0.929 . S
C708 C707 1.383 . S
C708 C709 1.377 . S
C709 H693 0.930 . S
C709 C708 1.377 . S
C709 C710 1.379 . S
C710 H694 0.931 . S
C710 C704 1.383 . S
C710 C709 1.379 . S
H711 C705 0.959 . S
H712 C705 0.961 . S
H713 C705 0.960 . S
H714 C706 0.930 . S
H715 C707 0.929 . S
H716 C724 0.929 . S
H717 C726 0.930 . S
H718 C728 0.930 . S
H719 C731 0.929 . S
H720 C734 0.930 . S
H721 C736 0.960 . S
H722 C736 0.960 . S
H723 C736 0.960 . S
C724 H716 0.929 . S
C724 C725 1.377 . S
C724 C726 1.384 . S
C725 C724 1.377 . S
C725 C731 1.390 . S
C726 H717 0.930 . S
C726 C724 1.384 . S
C726 C727 1.372 . S
C727 C726 1.372 . S
C727 C728 1.400 . S
C727 C732 1.490 . S
C728 H718 0.930 . S
C728 C727 1.400 . S
C728 C731 1.386 . S
H729 C745 0.930 . S
H730 C746 0.931 . S
C731 H719 0.929 . S
C731 C725 1.390 . S
C731 C728 1.386 . S
C732 C727 1.490 . S
C732 C734 1.395 . S
C732 C735 1.403 . S
H733 C739 0.930 . S
C734 H720 0.930 . S
C734 C732 1.395 . S
C734 C737 1.403 1_655 S
C735 C732 1.403 . S
C735 C736 1.524 . S
C735 C739 1.400 . S
C736 H721 0.960 . S
C736 H722 0.960 . S
C736 H723 0.960 . S
C736 C735 1.524 . S
C737 C734 1.403 1_455 S
C737 C738 1.392 . S
C737 C741 1.495 . S
C738 C737 1.392 . S
C738 C739 1.385 1_455 S
C738 C740 1.478 . S
C739 H733 0.930 . S
C739 C735 1.400 . S
C739 C738 1.385 1_655 S
C740 C738 1.478 . S
C740 C742 1.381 . S
C740 C746 1.383 . S
C741 C737 1.495 . S
C741 H747 0.959 . S
C741 H748 0.961 . S
C741 H749 0.960 . S
C742 C740 1.381 . S
C742 C743 1.394 . S
C742 H750 0.930 . S
C743 C742 1.394 . S
C743 C744 1.383 . S
C743 H751 0.929 . S
C744 C743 1.383 . S
C744 C745 1.377 . S
C745 H729 0.930 . S
C745 C744 1.377 . S
C745 C746 1.379 . S
C746 H730 0.931 . S
C746 C740 1.383 . S
C746 C745 1.379 . S
H747 C741 0.959 . S
H748 C741 0.961 . S
H749 C741 0.960 . S
H750 C742 0.930 . S
H751 C743 0.929 . S
H752 C760 0.929 . S
H753 C762 0.930 . S
H754 C764 0.930 . S
H755 C767 0.929 . S
H756 C770 0.930 . S
H757 C772 0.960 . S
H758 C772 0.960 . S
H759 C772 0.960 . S
C760 H752 0.929 . S
C760 C761 1.377 . S
C760 C762 1.384 . S
C761 C760 1.377 . S
C761 C767 1.390 . S
C762 H753 0.930 . S
C762 C760 1.384 . S
C762 C763 1.372 . S
C763 C762 1.372 . S
C763 C764 1.400 . S
C763 C768 1.490 . S
C764 H754 0.930 . S
C764 C763 1.400 . S
C764 C767 1.386 . S
H765 C781 0.930 . S
H766 C782 0.931 . S
C767 H755 0.929 . S
C767 C761 1.390 . S
C767 C764 1.386 . S
C768 C763 1.490 . S
C768 C770 1.395 . S
C768 C771 1.403 . S
H769 C775 0.930 . S
C770 H756 0.930 . S
C770 C768 1.395 . S
C770 C773 1.403 . S
C771 C768 1.403 . S
C771 C772 1.524 . S
C771 C775 1.400 . S
C772 H757 0.960 . S
C772 H758 0.960 . S
C772 H759 0.960 . S
C772 C771 1.524 . S
C773 C770 1.403 . S
C773 C774 1.392 . S
C773 C777 1.495 . S
C774 C773 1.392 . S
C774 C775 1.385 . S
C774 C776 1.478 . S
C775 H769 0.930 . S
C775 C771 1.400 . S
C775 C774 1.385 . S
C776 C774 1.478 . S
C776 C778 1.381 . S
C776 C782 1.383 . S
C777 C773 1.495 . S
C777 H783 0.959 . S
C777 H784 0.961 . S
C777 H785 0.960 . S
C778 C776 1.381 . S
C778 C779 1.394 . S
C778 H786 0.930 . S
C779 C778 1.394 . S
C779 C780 1.383 . S
C779 H787 0.929 . S
C780 C779 1.383 . S
C780 C781 1.377 . S
C781 H765 0.930 . S
C781 C780 1.377 . S
C781 C782 1.379 . S
C782 H766 0.931 . S
C782 C776 1.383 . S
C782 C781 1.379 . S
H783 C777 0.959 . S
H784 C777 0.961 . S
H785 C777 0.960 . S
H786 C778 0.930 . S
H787 C779 0.929 . S
H788 C796 0.929 . S
H789 C798 0.930 . S
H790 C800 0.930 . S
H791 C803 0.929 . S
H792 C806 0.930 . S
H793 C808 0.960 . S
H794 C808 0.960 . S
H795 C808 0.960 . S
C796 H788 0.929 . S
C796 C797 1.377 . S
C796 C798 1.384 . S
C797 C796 1.377 . S
C797 C803 1.390 . S
C798 H789 0.930 . S
C798 C796 1.384 . S
C798 C799 1.372 . S
C799 C798 1.372 . S
C799 C800 1.400 . S
C799 C804 1.490 . S
C800 H790 0.930 . S
C800 C799 1.400 . S
C800 C803 1.386 . S
H801 C817 0.930 . S
H802 C818 0.931 . S
C803 H791 0.929 . S
C803 C797 1.390 . S
C803 C800 1.386 . S
C804 C799 1.490 . S
C804 C806 1.395 . S
C804 C807 1.403 . S
H805 C811 0.930 . S
C806 H792 0.930 . S
C806 C804 1.395 . S
C806 C809 1.403 . S
C807 C804 1.403 . S
C807 C808 1.524 . S
C807 C811 1.400 . S
C808 H793 0.960 . S
C808 H794 0.960 . S
C808 H795 0.960 . S
C808 C807 1.524 . S
C809 C806 1.403 . S
C809 C810 1.392 . S
C809 C813 1.495 . S
C810 C809 1.392 . S
C810 C811 1.385 . S
C810 C812 1.478 . S
C811 H805 0.930 . S
C811 C807 1.400 . S
C811 C810 1.385 . S
C812 C810 1.478 . S
C812 C814 1.381 . S
C812 C818 1.383 . S
C813 C809 1.495 . S
C813 H819 0.959 . S
C813 H820 0.961 . S
C813 H821 0.960 . S
C814 C812 1.381 . S
C814 C815 1.394 . S
C814 H822 0.930 . S
C815 C814 1.394 . S
C815 C816 1.383 . S
C815 H823 0.929 . S
C816 C815 1.383 . S
C816 C817 1.377 . S
C817 H801 0.930 . S
C817 C816 1.377 . S
C817 C818 1.379 . S
C818 H802 0.931 . S
C818 C812 1.383 . S
C818 C817 1.379 . S
H819 C813 0.959 . S
H820 C813 0.961 . S
H821 C813 0.960 . S
H822 C814 0.930 . S
H823 C815 0.929 . S
H824 C832 0.929 . S
H825 C834 0.930 . S
H826 C836 0.930 . S
H827 C839 0.929 . S
H828 C842 0.930 . S
H829 C844 0.960 . S
H830 C844 0.960 . S
H831 C844 0.960 . S
C832 H824 0.929 . S
C832 C833 1.377 . S
C832 C834 1.384 . S
C833 C832 1.377 . S
C833 C839 1.390 . S
C834 H825 0.930 . S
C834 C832 1.384 . S
C834 C835 1.372 . S
C835 C834 1.372 . S
C835 C836 1.400 . S
C835 C840 1.490 . S
C836 H826 0.930 . S
C836 C835 1.400 . S
C836 C839 1.386 . S
H837 C853 0.930 . S
H838 C854 0.931 . S
C839 H827 0.929 . S
C839 C833 1.390 . S
C839 C836 1.386 . S
C840 C835 1.490 . S
C840 C842 1.395 . S
C840 C843 1.403 . S
H841 C847 0.930 . S
C842 H828 0.930 . S
C842 C840 1.395 . S
C842 C845 1.403 . S
C843 C840 1.403 . S
C843 C844 1.524 . S
C843 C847 1.400 . S
C844 H829 0.960 . S
C844 H830 0.960 . S
C844 H831 0.960 . S
C844 C843 1.524 . S
C845 C842 1.403 . S
C845 C846 1.392 . S
C845 C849 1.495 . S
C846 C845 1.392 . S
C846 C847 1.385 . S
C846 C848 1.478 . S
C847 H841 0.930 . S
C847 C843 1.400 . S
C847 C846 1.385 . S
C848 C846 1.478 . S
C848 C850 1.381 . S
C848 C854 1.383 . S
C849 C845 1.495 . S
C849 H855 0.959 . S
C849 H856 0.961 . S
C849 H857 0.960 . S
C850 C848 1.381 . S
C850 C851 1.394 . S
C850 H858 0.930 . S
C851 C850 1.394 . S
C851 C852 1.383 . S
C851 H859 0.929 . S
C852 C851 1.383 . S
C852 C853 1.377 . S
C853 H837 0.930 . S
C853 C852 1.377 . S
C853 C854 1.379 . S
C854 H838 0.931 . S
C854 C848 1.383 . S
C854 C853 1.379 . S
H855 C849 0.959 . S
H856 C849 0.961 . S
H857 C849 0.960 . S
H858 C850 0.930 . S
H859 C851 0.929 . S
H860 C868 0.929 . S
H861 C870 0.930 . S
H862 C872 0.930 . S
H863 C875 0.929 . S
H864 C878 0.930 . S
H865 C880 0.960 . S
H866 C880 0.960 . S
H867 C880 0.960 . S
C868 H860 0.929 . S
C868 C869 1.377 . S
C868 C870 1.384 . S
C869 C868 1.377 . S
C869 C875 1.390 . S
C870 H861 0.930 . S
C870 C868 1.384 . S
C870 C871 1.372 . S
C871 C870 1.372 . S
C871 C872 1.400 . S
C871 C876 1.490 . S
C872 H862 0.930 . S
C872 C871 1.400 . S
C872 C875 1.386 . S
H873 C889 0.930 . S
H874 C890 0.931 . S
C875 H863 0.929 . S
C875 C869 1.390 . S
C875 C872 1.386 . S
C876 C871 1.490 . S
C876 C878 1.395 . S
C876 C879 1.403 . S
H877 C883 0.930 . S
C878 H864 0.930 . S
C878 C876 1.395 . S
C878 C881 1.403 . S
C879 C876 1.403 . S
C879 C880 1.524 . S
C879 C883 1.400 . S
C880 H865 0.960 . S
C880 H866 0.960 . S
C880 H867 0.960 . S
C880 C879 1.524 . S
C881 C878 1.403 . S
C881 C882 1.392 . S
C881 C885 1.495 . S
C882 C881 1.392 . S
C882 C883 1.385 . S
C882 C884 1.478 . S
C883 H877 0.930 . S
C883 C879 1.400 . S
C883 C882 1.385 . S
C884 C882 1.478 . S
C884 C886 1.381 . S
C884 C890 1.383 . S
C885 C881 1.495 . S
C885 H891 0.959 . S
C885 H892 0.961 . S
C885 H893 0.960 . S
C886 C884 1.381 . S
C886 C887 1.394 . S
C886 H894 0.930 . S
C887 C886 1.394 . S
C887 C888 1.383 . S
C887 H895 0.929 . S
C888 C887 1.383 . S
C888 C889 1.377 . S
C889 H873 0.930 . S
C889 C888 1.377 . S
C889 C890 1.379 . S
C890 H874 0.931 . S
C890 C884 1.383 . S
C890 C889 1.379 . S
H891 C885 0.959 . S
H892 C885 0.961 . S
H893 C885 0.960 . S
H894 C886 0.930 . S
H895 C887 0.929 . S
H896 C904 0.929 . S
H897 C906 0.930 . S
H898 C908 0.930 . S
H899 C911 0.929 . S
H900 C914 0.930 . S
H901 C916 0.960 . S
H902 C916 0.960 . S
H903 C916 0.960 . S
C904 H896 0.929 . S
C904 C905 1.377 . S
C904 C906 1.384 . S
C905 C904 1.377 . S
C905 C911 1.390 . S
C906 H897 0.930 . S
C906 C904 1.384 . S
C906 C907 1.372 . S
C907 C906 1.372 . S
C907 C908 1.400 . S
C907 C912 1.490 . S
C908 H898 0.930 . S
C908 C907 1.400 . S
C908 C911 1.386 . S
H909 C925 0.930 . S
H910 C926 0.931 . S
C911 H899 0.929 . S
C911 C905 1.390 . S
C911 C908 1.386 . S
C912 C907 1.490 . S
C912 C914 1.395 . S
C912 C915 1.403 . S
H913 C919 0.930 . S
C914 H900 0.930 . S
C914 C912 1.395 . S
C914 C917 1.403 . S
C915 C912 1.403 . S
C915 C916 1.524 . S
C915 C919 1.400 . S
C916 H901 0.960 . S
C916 H902 0.960 . S
C916 H903 0.960 . S
C916 C915 1.524 . S
C917 C914 1.403 . S
C917 C918 1.392 . S
C917 C921 1.495 . S
C918 C917 1.392 . S
C918 C919 1.385 . S
C918 C920 1.478 . S
C919 H913 0.930 . S
C919 C915 1.400 . S
C919 C918 1.385 . S
C920 C918 1.478 . S
C920 C922 1.381 . S
C920 C926 1.383 . S
C921 C917 1.495 . S
C921 H927 0.959 . S
C921 H928 0.961 . S
C921 H929 0.960 . S
C922 C920 1.381 . S
C922 C923 1.394 . S
C922 H930 0.930 . S
C923 C922 1.394 . S
C923 C924 1.383 . S
C923 H931 0.929 . S
C924 C923 1.383 . S
C924 C925 1.377 . S
C925 H909 0.930 . S
C925 C924 1.377 . S
C925 C926 1.379 . S
C926 H910 0.931 . S
C926 C920 1.383 . S
C926 C925 1.379 . S
H927 C921 0.959 . S
H928 C921 0.961 . S
H929 C921 0.960 . S
H930 C922 0.930 . S
H931 C923 0.929 . S
H932 C940 0.929 . S
H933 C942 0.930 . S
H934 C944 0.930 . S
H935 C947 0.929 1_554 S
H936 C950 0.930 . S
H937 C952 0.960 . S
H938 C952 0.960 . S
H939 C952 0.960 . S
C940 H932 0.929 . S
C940 C941 1.377 . S
C940 C942 1.384 . S
C941 C940 1.377 . S
C941 C947 1.390 . S
C942 H933 0.930 . S
C942 C940 1.384 . S
C942 C943 1.372 . S
C943 C942 1.372 . S
C943 C944 1.400 . S
C943 C948 1.490 . S
C944 H934 0.930 . S
C944 C943 1.400 . S
C944 C947 1.386 . S
H945 C961 0.930 . S
H946 C962 0.931 . S
C947 H935 0.929 1_556 S
C947 C941 1.390 . S
C947 C944 1.386 . S
C948 C943 1.490 . S
C948 C950 1.395 . S
C948 C951 1.403 . S
H949 C955 0.930 . S
C950 H936 0.930 . S
C950 C948 1.395 . S
C950 C953 1.403 . S
C951 C948 1.403 . S
C951 C952 1.524 . S
C951 C955 1.400 . S
C952 H937 0.960 . S
C952 H938 0.960 . S
C952 H939 0.960 . S
C952 C951 1.524 . S
C953 C950 1.403 . S
C953 C954 1.392 . S
C953 C957 1.495 . S
C954 C953 1.392 . S
C954 C955 1.385 . S
C954 C956 1.478 . S
C955 H949 0.930 . S
C955 C951 1.400 . S
C955 C954 1.385 . S
C956 C954 1.478 . S
C956 C958 1.381 . S
C956 C962 1.383 . S
C957 C953 1.495 . S
C957 H963 0.959 . S
C957 H964 0.961 . S
C957 H965 0.960 . S
C958 C956 1.381 . S
C958 C959 1.394 . S
C958 H966 0.930 . S
C959 C958 1.394 . S
C959 C960 1.383 . S
C959 H967 0.929 . S
C960 C959 1.383 . S
C960 C961 1.377 . S
C961 H945 0.930 . S
C961 C960 1.377 . S
C961 C962 1.379 . S
C962 H946 0.931 . S
C962 C956 1.383 . S
C962 C961 1.379 . S
H963 C957 0.959 . S
H964 C957 0.961 . S
H965 C957 0.960 . S
H966 C958 0.930 . S
H967 C959 0.929 . S
H968 C976 0.929 . S
H969 C978 0.930 . S
H970 C980 0.930 . S
H971 C983 0.929 . S
H972 C986 0.930 . S
H973 C988 0.960 . S
H974 C988 0.960 . S
H975 C988 0.960 . S
C976 H968 0.929 . S
C976 C977 1.377 . S
C976 C978 1.384 . S
C977 C976 1.377 . S
C977 C983 1.390 . S
C978 H969 0.930 . S
C978 C976 1.384 . S
C978 C979 1.372 . S
C979 C978 1.372 . S
C979 C980 1.400 . S
C979 C984 1.490 . S
C980 H970 0.930 . S
C980 C979 1.400 . S
C980 C983 1.386 . S
H981 C997 0.930 . S
H982 C998 0.931 . S
C983 H971 0.929 . S
C983 C977 1.390 . S
C983 C980 1.386 . S
C984 C979 1.490 . S
C984 C986 1.395 . S
C984 C987 1.403 . S
H985 C991 0.930 . S
C986 H972 0.930 . S
C986 C984 1.395 . S
C986 C989 1.403 . S
C987 C984 1.403 . S
C987 C988 1.524 . S
C987 C991 1.400 . S
C988 H973 0.960 . S
C988 H974 0.960 . S
C988 H975 0.960 . S
C988 C987 1.524 . S
C989 C986 1.403 . S
C989 C990 1.392 . S
C989 C993 1.495 . S
C990 C989 1.392 . S
C990 C991 1.385 . S
C990 C992 1.478 . S
C991 H985 0.930 . S
C991 C987 1.400 . S
C991 C990 1.385 . S
C992 C990 1.478 . S
C992 C994 1.381 . S
C992 C998 1.383 . S
C993 C989 1.495 . S
C993 H999 0.959 . S
C993 H1000 0.961 . S
C993 H1001 0.960 . S
C994 C992 1.381 . S
C994 C995 1.394 . S
C994 H1002 0.930 . S
C995 C994 1.394 . S
C995 C996 1.383 . S
C995 H1003 0.929 . S
C996 C995 1.383 . S
C996 C997 1.377 . S
C997 H981 0.930 . S
C997 C996 1.377 . S
C997 C998 1.379 . S
C998 H982 0.931 . S
C998 C992 1.383 . S
C998 C997 1.379 . S
H999 C993 0.959 . S
H1000 C993 0.961 . S
H1001 C993 0.960 . S
H1002 C994 0.930 . S
H1003 C995 0.929 . S
H1004 C1012 0.929 . S
H1005 C1014 0.930 . S
H1006 C1016 0.930 . S
H1007 C1019 0.929 . S
H1008 C1022 0.930 . S
H1009 C1024 0.960 . S
H1010 C1024 0.960 . S
H1011 C1024 0.960 . S
C1012 H1004 0.929 . S
C1012 C1013 1.377 . S
C1012 C1014 1.384 . S
C1013 C1012 1.377 . S
C1013 C1019 1.390 . S
C1014 H1005 0.930 . S
C1014 C1012 1.384 . S
C1014 C1015 1.372 . S
C1015 C1014 1.372 . S
C1015 C1016 1.400 . S
C1015 C1020 1.490 . S
C1016 H1006 0.930 . S
C1016 C1015 1.400 . S
C1016 C1019 1.386 . S
H1017 C1033 0.930 . S
H1018 C1034 0.931 . S
C1019 H1007 0.929 . S
C1019 C1013 1.390 . S
C1019 C1016 1.386 . S
C1020 C1015 1.490 . S
C1020 C1022 1.395 . S
C1020 C1023 1.403 . S
H1021 C1027 0.930 . S
C1022 H1008 0.930 . S
C1022 C1020 1.395 . S
C1022 C1025 1.403 . S
C1023 C1020 1.403 . S
C1023 C1024 1.524 . S
C1023 C1027 1.400 . S
C1024 H1009 0.960 . S
C1024 H1010 0.960 . S
C1024 H1011 0.960 . S
C1024 C1023 1.524 . S
C1025 C1022 1.403 . S
C1025 C1026 1.392 . S
C1025 C1029 1.495 . S
C1026 C1025 1.392 . S
C1026 C1027 1.385 . S
C1026 C1028 1.478 . S
C1027 H1021 0.930 . S
C1027 C1023 1.400 . S
C1027 C1026 1.385 . S
C1028 C1026 1.478 . S
C1028 C1030 1.381 . S
C1028 C1034 1.383 . S
C1029 C1025 1.495 . S
C1029 H1035 0.959 . S
C1029 H1036 0.961 . S
C1029 H1037 0.960 . S
C1030 C1028 1.381 . S
C1030 C1031 1.394 . S
C1030 H1038 0.930 . S
C1031 C1030 1.394 . S
C1031 C1032 1.383 . S
C1031 H1039 0.929 . S
C1032 C1031 1.383 . S
C1032 C1033 1.377 . S
C1033 H1017 0.930 . S
C1033 C1032 1.377 . S
C1033 C1034 1.379 . S
C1034 H1018 0.931 . S
C1034 C1028 1.383 . S
C1034 C1033 1.379 . S
H1035 C1029 0.959 . S
H1036 C1029 0.961 . S
H1037 C1029 0.960 . S
H1038 C1030 0.930 . S
H1039 C1031 0.929 . S
C185 C7 1.467 . S
C204 C95 1.365 . S
C221 C37 1.325 . S
C240 C104 0.987 . S
C257 C54 1.189 . S
C276 C115 0.868 . S
C312 C126 0.953 . S
C293 C87 1.044 . S
C348 C139 1.189 . S
C329 C30 1.211 . S
C365 C51 1.146 1_556 S
C384 C148 0.906 . S
C401 C84 0.948 . S
C420 C159 0.802 . S
C437 C10 1.559 . S
C456 C172 1.507 . S
C473 C59 1.107 . S
C492 C170 0.787 . S
C528 C137 1.008 . S
C509 C74 1.218 . S
C564 C150 1.548 . S
C545 C18 1.590 . S
C581 C32 1.614 . S
C600 C161 1.621 . S
C636 C106 1.331 . S
C617 C73 1.370 . S
C653 C15 1.605 . S
C672 C117 1.567 . S
C708 C128 1.353 . S
C689 C43 1.337 . S
C744 C93 0.790 . S
C725 C62 1.081 . S
C780 C162 1.375 . S
C761 C21 1.363 . S
C816 C173 1.451 . S
C797 C29 1.474 . S
C833 C52 1.225 . S
C852 C140 1.228 . S
C888 C151 1.397 . S
C869 C81 1.438 . S
C924 C118 1.493 . S
C905 C40 1.560 . S
C941 C65 1.241 . S
C960 C129 1.227 . S
C996 C96 1.331 . S
C977 C76 1.353 . S
C1032 C107 1.390 . S
C1013 C8 1.413 . S
