# Generated by pormake.
# Topology gar, (4,6)-cn, num edge types: 1
# Building blocks:
#     Node 0, Type 0, BuildingBlock: GALJAG_clean_sbu_0, # of connection points: 4
#     Node 1, Type 0, BuildingBlock: GALJAG_clean_sbu_0, # of connection points: 4
#     Node 2, Type 0, BuildingBlock: GALJAG_clean_sbu_0, # of connection points: 4
#     Node 3, Type 0, BuildingBlock: GALJAG_clean_sbu_0, # of connection points: 4
#     Node 4, Type 0, BuildingBlock: GALJAG_clean_sbu_0, # of connection points: 4
#     Node 5, Type 0, BuildingBlock: GALJAG_clean_sbu_0, # of connection points: 4
#     Node 6, Type 0, BuildingBlock: GALJAG_clean_sbu_0, # of connection points: 4
#     Node 7, Type 0, BuildingBlock: GALJAG_clean_sbu_0, # of connection points: 4
#     Node 8, Type 0, BuildingBlock: GALJAG_clean_sbu_0, # of connection points: 4
#     Node 9, Type 0, BuildingBlock: GALJAG_clean_sbu_0, # of connection points: 4
#     Node 10, Type 0, BuildingBlock: GALJAG_clean_sbu_0, # of connection points: 4
#     Node 11, Type 0, BuildingBlock: GALJAG_clean_sbu_0, # of connection points: 4
#     Node 12, Type 0, BuildingBlock: GALJAG_clean_sbu_0, # of connection points: 4
#     Node 13, Type 0, BuildingBlock: GALJAG_clean_sbu_0, # of connection points: 4
#     Node 14, Type 0, BuildingBlock: GALJAG_clean_sbu_0, # of connection points: 4
#     Node 15, Type 0, BuildingBlock: GALJAG_clean_sbu_0, # of connection points: 4
#     Node 16, Type 0, BuildingBlock: GALJAG_clean_sbu_0, # of connection points: 4
#     Node 17, Type 0, BuildingBlock: GALJAG_clean_sbu_0, # of connection points: 4
#     Node 18, Type 0, BuildingBlock: GALJAG_clean_sbu_0, # of connection points: 4
#     Node 19, Type 0, BuildingBlock: GALJAG_clean_sbu_0, # of connection points: 4
#     Node 20, Type 0, BuildingBlock: GALJAG_clean_sbu_0, # of connection points: 4
#     Node 21, Type 0, BuildingBlock: GALJAG_clean_sbu_0, # of connection points: 4
#     Node 22, Type 0, BuildingBlock: GALJAG_clean_sbu_0, # of connection points: 4
#     Node 23, Type 0, BuildingBlock: GALJAG_clean_sbu_0, # of connection points: 4
#     Node 24, Type 1, BuildingBlock: BETDIP_clean_sbu_0, # of connection points: 6
#     Node 25, Type 1, BuildingBlock: BETDIP_clean_sbu_0, # of connection points: 6
#     Node 26, Type 1, BuildingBlock: BETDIP_clean_sbu_0, # of connection points: 6
#     Node 27, Type 1, BuildingBlock: BETDIP_clean_sbu_0, # of connection points: 6
#     Node 28, Type 1, BuildingBlock: BETDIP_clean_sbu_0, # of connection points: 6
#     Node 29, Type 1, BuildingBlock: BETDIP_clean_sbu_0, # of connection points: 6
#     Node 30, Type 1, BuildingBlock: BETDIP_clean_sbu_0, # of connection points: 6
#     Node 31, Type 1, BuildingBlock: BETDIP_clean_sbu_0, # of connection points: 6
#     Node 32, Type 1, BuildingBlock: BETDIP_clean_sbu_0, # of connection points: 6
#     Node 33, Type 1, BuildingBlock: BETDIP_clean_sbu_0, # of connection points: 6
#     Node 34, Type 1, BuildingBlock: BETDIP_clean_sbu_0, # of connection points: 6
#     Node 35, Type 1, BuildingBlock: BETDIP_clean_sbu_0, # of connection points: 6
#     Node 36, Type 1, BuildingBlock: BETDIP_clean_sbu_0, # of connection points: 6
#     Node 37, Type 1, BuildingBlock: BETDIP_clean_sbu_0, # of connection points: 6
#     Node 38, Type 1, BuildingBlock: BETDIP_clean_sbu_0, # of connection points: 6
#     Node 39, Type 1, BuildingBlock: BETDIP_clean_sbu_0, # of connection points: 6
#     Edge 40, Type (0, 1), BuildingBlock: MIFKUJ_clean_linker_0, # of connection points: 2
#     Edge 41, Type (0, 1), BuildingBlock: MIFKUJ_clean_linker_0, # of connection points: 2
#     Edge 42, Type (0, 1), BuildingBlock: MIFKUJ_clean_linker_0, # of connection points: 2
#     Edge 43, Type (0, 1), BuildingBlock: MIFKUJ_clean_linker_0, # of connection points: 2
#     Edge 44, Type (0, 1), BuildingBlock: MIFKUJ_clean_linker_0, # of connection points: 2
#     Edge 45, Type (0, 1), BuildingBlock: MIFKUJ_clean_linker_0, # of connection points: 2
#     Edge 46, Type (0, 1), BuildingBlock: MIFKUJ_clean_linker_0, # of connection points: 2
#     Edge 47, Type (0, 1), BuildingBlock: MIFKUJ_clean_linker_0, # of connection points: 2
#     Edge 48, Type (0, 1), BuildingBlock: MIFKUJ_clean_linker_0, # of connection points: 2
#     Edge 49, Type (0, 1), BuildingBlock: MIFKUJ_clean_linker_0, # of connection points: 2
#     Edge 50, Type (0, 1), BuildingBlock: MIFKUJ_clean_linker_0, # of connection points: 2
#     Edge 51, Type (0, 1), BuildingBlock: MIFKUJ_clean_linker_0, # of connection points: 2
#     Edge 52, Type (0, 1), BuildingBlock: MIFKUJ_clean_linker_0, # of connection points: 2
#     Edge 53, Type (0, 1), BuildingBlock: MIFKUJ_clean_linker_0, # of connection points: 2
#     Edge 54, Type (0, 1), BuildingBlock: MIFKUJ_clean_linker_0, # of connection points: 2
#     Edge 55, Type (0, 1), BuildingBlock: MIFKUJ_clean_linker_0, # of connection points: 2
#     Edge 56, Type (0, 1), BuildingBlock: MIFKUJ_clean_linker_0, # of connection points: 2
#     Edge 57, Type (0, 1), BuildingBlock: MIFKUJ_clean_linker_0, # of connection points: 2
#     Edge 58, Type (0, 1), BuildingBlock: MIFKUJ_clean_linker_0, # of connection points: 2
#     Edge 59, Type (0, 1), BuildingBlock: MIFKUJ_clean_linker_0, # of connection points: 2
#     Edge 60, Type (0, 1), BuildingBlock: MIFKUJ_clean_linker_0, # of connection points: 2
#     Edge 61, Type (0, 1), BuildingBlock: MIFKUJ_clean_linker_0, # of connection points: 2
#     Edge 62, Type (0, 1), BuildingBlock: MIFKUJ_clean_linker_0, # of connection points: 2
#     Edge 63, Type (0, 1), BuildingBlock: MIFKUJ_clean_linker_0, # of connection points: 2
#     Edge 64, Type (0, 1), BuildingBlock: MIFKUJ_clean_linker_0, # of connection points: 2
#     Edge 65, Type (0, 1), BuildingBlock: MIFKUJ_clean_linker_0, # of connection points: 2
#     Edge 66, Type (0, 1), BuildingBlock: MIFKUJ_clean_linker_0, # of connection points: 2
#     Edge 67, Type (0, 1), BuildingBlock: MIFKUJ_clean_linker_0, # of connection points: 2
#     Edge 68, Type (0, 1), BuildingBlock: MIFKUJ_clean_linker_0, # of connection points: 2
#     Edge 69, Type (0, 1), BuildingBlock: MIFKUJ_clean_linker_0, # of connection points: 2
#     Edge 70, Type (0, 1), BuildingBlock: MIFKUJ_clean_linker_0, # of connection points: 2
#     Edge 71, Type (0, 1), BuildingBlock: MIFKUJ_clean_linker_0, # of connection points: 2
#     Edge 72, Type (0, 1), BuildingBlock: MIFKUJ_clean_linker_0, # of connection points: 2
#     Edge 73, Type (0, 1), BuildingBlock: MIFKUJ_clean_linker_0, # of connection points: 2
#     Edge 74, Type (0, 1), BuildingBlock: MIFKUJ_clean_linker_0, # of connection points: 2
#     Edge 75, Type (0, 1), BuildingBlock: MIFKUJ_clean_linker_0, # of connection points: 2
#     Edge 76, Type (0, 1), BuildingBlock: MIFKUJ_clean_linker_0, # of connection points: 2
#     Edge 77, Type (0, 1), BuildingBlock: MIFKUJ_clean_linker_0, # of connection points: 2
#     Edge 78, Type (0, 1), BuildingBlock: MIFKUJ_clean_linker_0, # of connection points: 2
#     Edge 79, Type (0, 1), BuildingBlock: MIFKUJ_clean_linker_0, # of connection points: 2
#     Edge 80, Type (0, 1), BuildingBlock: MIFKUJ_clean_linker_0, # of connection points: 2
#     Edge 81, Type (0, 1), BuildingBlock: MIFKUJ_clean_linker_0, # of connection points: 2
#     Edge 82, Type (0, 1), BuildingBlock: MIFKUJ_clean_linker_0, # of connection points: 2
#     Edge 83, Type (0, 1), BuildingBlock: MIFKUJ_clean_linker_0, # of connection points: 2
#     Edge 84, Type (0, 1), BuildingBlock: MIFKUJ_clean_linker_0, # of connection points: 2
#     Edge 85, Type (0, 1), BuildingBlock: MIFKUJ_clean_linker_0, # of connection points: 2
#     Edge 86, Type (0, 1), BuildingBlock: MIFKUJ_clean_linker_0, # of connection points: 2
#     Edge 87, Type (0, 1), BuildingBlock: MIFKUJ_clean_linker_0, # of connection points: 2
#     Edge 88, Type (0, 1), BuildingBlock: MIFKUJ_clean_linker_0, # of connection points: 2
#     Edge 89, Type (0, 1), BuildingBlock: MIFKUJ_clean_linker_0, # of connection points: 2
#     Edge 90, Type (0, 1), BuildingBlock: MIFKUJ_clean_linker_0, # of connection points: 2
#     Edge 91, Type (0, 1), BuildingBlock: MIFKUJ_clean_linker_0, # of connection points: 2
#     Edge 92, Type (0, 1), BuildingBlock: MIFKUJ_clean_linker_0, # of connection points: 2
#     Edge 93, Type (0, 1), BuildingBlock: MIFKUJ_clean_linker_0, # of connection points: 2
#     Edge 94, Type (0, 1), BuildingBlock: MIFKUJ_clean_linker_0, # of connection points: 2
#     Edge 95, Type (0, 1), BuildingBlock: MIFKUJ_clean_linker_0, # of connection points: 2
#     Edge 96, Type (0, 1), BuildingBlock: MIFKUJ_clean_linker_0, # of connection points: 2
#     Edge 97, Type (0, 1), BuildingBlock: MIFKUJ_clean_linker_0, # of connection points: 2
#     Edge 98, Type (0, 1), BuildingBlock: MIFKUJ_clean_linker_0, # of connection points: 2
#     Edge 99, Type (0, 1), BuildingBlock: MIFKUJ_clean_linker_0, # of connection points: 2
#     Edge 100, Type (0, 1), BuildingBlock: MIFKUJ_clean_linker_0, # of connection points: 2
#     Edge 101, Type (0, 1), BuildingBlock: MIFKUJ_clean_linker_0, # of connection points: 2
#     Edge 102, Type (0, 1), BuildingBlock: MIFKUJ_clean_linker_0, # of connection points: 2
#     Edge 103, Type (0, 1), BuildingBlock: MIFKUJ_clean_linker_0, # of connection points: 2
#     Edge 104, Type (0, 1), BuildingBlock: MIFKUJ_clean_linker_0, # of connection points: 2
#     Edge 105, Type (0, 1), BuildingBlock: MIFKUJ_clean_linker_0, # of connection points: 2
#     Edge 106, Type (0, 1), BuildingBlock: MIFKUJ_clean_linker_0, # of connection points: 2
#     Edge 107, Type (0, 1), BuildingBlock: MIFKUJ_clean_linker_0, # of connection points: 2
#     Edge 108, Type (0, 1), BuildingBlock: MIFKUJ_clean_linker_0, # of connection points: 2
#     Edge 109, Type (0, 1), BuildingBlock: MIFKUJ_clean_linker_0, # of connection points: 2
#     Edge 110, Type (0, 1), BuildingBlock: MIFKUJ_clean_linker_0, # of connection points: 2
#     Edge 111, Type (0, 1), BuildingBlock: MIFKUJ_clean_linker_0, # of connection points: 2
#     Edge 112, Type (0, 1), BuildingBlock: MIFKUJ_clean_linker_0, # of connection points: 2
#     Edge 113, Type (0, 1), BuildingBlock: MIFKUJ_clean_linker_0, # of connection points: 2
#     Edge 114, Type (0, 1), BuildingBlock: MIFKUJ_clean_linker_0, # of connection points: 2
#     Edge 115, Type (0, 1), BuildingBlock: MIFKUJ_clean_linker_0, # of connection points: 2
#     Edge 116, Type (0, 1), BuildingBlock: MIFKUJ_clean_linker_0, # of connection points: 2
#     Edge 117, Type (0, 1), BuildingBlock: MIFKUJ_clean_linker_0, # of connection points: 2
#     Edge 118, Type (0, 1), BuildingBlock: MIFKUJ_clean_linker_0, # of connection points: 2
#     Edge 119, Type (0, 1), BuildingBlock: MIFKUJ_clean_linker_0, # of connection points: 2
#     Edge 120, Type (0, 1), BuildingBlock: MIFKUJ_clean_linker_0, # of connection points: 2
#     Edge 121, Type (0, 1), BuildingBlock: MIFKUJ_clean_linker_0, # of connection points: 2
#     Edge 122, Type (0, 1), BuildingBlock: MIFKUJ_clean_linker_0, # of connection points: 2
#     Edge 123, Type (0, 1), BuildingBlock: MIFKUJ_clean_linker_0, # of connection points: 2
#     Edge 124, Type (0, 1), BuildingBlock: MIFKUJ_clean_linker_0, # of connection points: 2
#     Edge 125, Type (0, 1), BuildingBlock: MIFKUJ_clean_linker_0, # of connection points: 2
#     Edge 126, Type (0, 1), BuildingBlock: MIFKUJ_clean_linker_0, # of connection points: 2
#     Edge 127, Type (0, 1), BuildingBlock: MIFKUJ_clean_linker_0, # of connection points: 2
#     Edge 128, Type (0, 1), BuildingBlock: MIFKUJ_clean_linker_0, # of connection points: 2
#     Edge 129, Type (0, 1), BuildingBlock: MIFKUJ_clean_linker_0, # of connection points: 2
#     Edge 130, Type (0, 1), BuildingBlock: MIFKUJ_clean_linker_0, # of connection points: 2
#     Edge 131, Type (0, 1), BuildingBlock: MIFKUJ_clean_linker_0, # of connection points: 2
#     Edge 132, Type (0, 1), BuildingBlock: MIFKUJ_clean_linker_0, # of connection points: 2
#     Edge 133, Type (0, 1), BuildingBlock: MIFKUJ_clean_linker_0, # of connection points: 2
#     Edge 134, Type (0, 1), BuildingBlock: MIFKUJ_clean_linker_0, # of connection points: 2
#     Edge 135, Type (0, 1), BuildingBlock: MIFKUJ_clean_linker_0, # of connection points: 2
# Relax obj value: 0.166
# Max RMSD: 0.268
# Mean RMSD: 0.157
data_MOF--net-gar--node1-GALJAG_clean_sbu_0--node2-BETDIP_clean_sbu_0--edge1-MIFKUJ_clean_linker_0
_symmetry_space_group_name_H-M    P1
_symmetry_Int_Tables_number       1
_symmetry_cell_setting            triclinic
loop_
_symmetry_equiv_pos_as_xyz
'x, y, z'
_cell_length_a     80.251047
_cell_length_b     73.306354
_cell_length_c     70.837145
_cell_angle_alpha  96.209051
_cell_angle_beta   97.688282
_cell_angle_gamma 99.948586
loop_
_atom_site_label
_atom_site_type_symbol
_atom_site_fract_x
_atom_site_fract_y
_atom_site_fract_z
_atom_type_partial_charge
In0 In 0.03217 0.29912 0.38522 0.0
O1 O 0.04643 0.30585 0.36092 0.0
O2 O 0.05996 0.29774 0.38579 0.0
C3 C 1.00432 0.29237 0.35909 0.0
C4 C 0.03083 0.26778 0.40078 0.0
C5 C 0.0306 0.33096 0.40642 0.0
O6 O 0.01777 0.30324 0.35702 0.0
O7 O 1.00513 0.28473 0.3742 0.0
O8 O 0.04468 0.32655 0.40378 0.0
O9 O 0.01754 0.31895 0.39918 0.0
C10 C 0.06025 0.30243 0.36919 0.0
O11 O 0.03101 0.28321 0.41075 0.0
O12 O 0.03181 0.26843 0.38326 0.0
In13 In 0.05955 0.76099 0.68407 0.0
O14 O 0.06166 0.77719 0.65944 0.0
O15 O 0.06354 0.79274 0.68719 0.0
C16 C 0.05356 0.72893 0.66051 0.0
C17 C 0.09211 0.76504 0.70039 0.0
C18 C 0.03102 0.75934 0.69989 0.0
O19 O 0.05014 0.74391 0.65537 0.0
O20 O 0.05965 0.72983 0.67803 0.0
O21 O 0.04509 0.75813 0.70957 0.0
O22 O 0.03161 0.76171 0.68265 0.0
C23 C 0.06408 0.79295 0.66945 0.0
O24 O 0.08002 0.76198 0.71009 0.0
O25 O 0.08761 0.76554 0.68279 0.0
In26 In 0.5305 0.8006 0.88404 0.0
O27 O 0.54632 0.808 0.86098 0.0
O28 O 0.5574 0.79571 0.88445 0.0
C29 C 0.49969 0.79563 0.86343 0.0
C30 C 0.52722 0.76813 0.89727 0.0
C31 C 0.53187 0.83312 0.90519 0.0
O32 O 0.51275 0.79411 0.85567 0.0
O33 O 0.50237 0.79996 0.88141 0.0
O34 O 0.5279 0.81775 0.91145 0.0
O35 O 0.53612 0.83207 0.88869 0.0
C36 C 0.55897 0.80192 0.86873 0.0
O37 O 0.53536 0.78297 0.9076 0.0
O38 O 0.52123 0.76978 0.88031 0.0
In39 In 0.55718 0.26017 0.18538 0.0
O40 O 0.56177 0.24795 0.15661 0.0
O41 O 0.55159 0.22919 0.17523 0.0
C42 C 0.56068 0.29079 0.16815 0.0
C43 C 0.52855 0.25681 0.20106 0.0
C44 C 0.58789 0.2612 0.20582 0.0
O45 O 0.55473 0.27476 0.15906 0.0
O46 O 0.56388 0.29151 0.18615 0.0
O47 O 0.58115 0.27543 0.20526 0.0
O48 O 0.57867 0.24623 0.19712 0.0
C49 C 0.55645 0.2313 0.15919 0.0
O50 O 0.54315 0.26136 0.21112 0.0
O51 O 0.5284 0.2541 0.18322 0.0
In52 In 0.06985 0.79316 0.14263 0.0
O53 O 0.05354 0.76485 0.12786 0.0
O54 O 0.07858 0.77158 0.12155 0.0
C55 C 0.06976 0.82536 0.12584 0.0
C56 C 0.04247 0.78982 0.16211 0.0
C57 C 0.10098 0.79525 0.16517 0.0
O58 O 0.06176 0.8095 0.11771 0.0
O59 O 0.07803 0.82503 0.14221 0.0
O60 O 0.08725 0.79528 0.17212 0.0
O61 O 0.09904 0.79468 0.14714 0.0
C62 C 0.06493 0.75962 0.11922 0.0
O63 O 0.05512 0.78203 0.16629 0.0
O64 O 0.04407 0.79993 0.14889 0.0
In65 In 0.52195 0.7638 0.42032 0.0
O66 O 0.53722 0.76014 0.3947 0.0
O67 O 0.55099 0.77328 0.42159 0.0
C68 C 0.48878 0.76159 0.40234 0.0
C69 C 0.52389 0.73287 0.43874 0.0
C70 C 0.52384 0.79857 0.43893 0.0
O71 O 0.50137 0.76167 0.39327 0.0
O72 O 0.49275 0.76148 0.42021 0.0
O73 O 0.52599 0.78492 0.44782 0.0
O74 O 0.52104 0.79475 0.42087 0.0
C75 C 0.55166 0.76773 0.40432 0.0
O76 O 0.52847 0.74943 0.44703 0.0
O77 O 0.51772 0.7317 0.42117 0.0
In78 In 0.56806 0.29299 0.64296 0.0
O79 O 0.57335 0.27306 0.61771 0.0
O80 O 0.55511 0.26225 0.63473 0.0
C81 C 0.56914 0.32536 0.62605 0.0
C82 C 0.53939 0.289 0.66046 0.0
C83 C 0.59945 0.29357 0.66454 0.0
O84 O 0.56303 0.30932 0.61691 0.0
O85 O 0.57499 0.32505 0.6434 0.0
O86 O 0.58902 0.30336 0.66999 0.0
O87 O 0.59411 0.28373 0.64847 0.0
C88 C 0.56304 0.25901 0.6209 0.0
O89 O 0.55398 0.28787 0.669 0.0
O90 O 0.5394 0.29264 0.64346 0.0
In91 In 0.02242 0.2646 0.92214 0.0
O92 O 0.02076 0.24939 0.94916 0.0
O93 O 0.02385 0.23354 0.92361 0.0
C94 C 0.02718 0.3 0.94001 0.0
C95 C 0.05222 0.26871 0.90633 0.0
C96 C 0.98923 0.26268 0.90399 0.0
O97 O 0.02848 0.28635 0.94926 0.0
O98 O 0.02409 0.2958 0.92196 0.0
O99 O 0.99999 0.25507 0.89603 0.0
O100 O 0.99492 0.27025 0.92095 0.0
C101 C 0.02271 0.23382 0.94122 0.0
O102 O 0.03752 0.26433 0.8962 0.0
O103 O 0.05183 0.27095 0.92414 0.0
In104 In 0.41242 0.04648 0.26787 0.0
O105 O 0.43631 0.05105 0.25017 0.0
O106 O 0.41226 0.04111 0.23367 0.0
C107 C 0.43316 0.04645 0.30455 0.0
C108 C 0.39551 0.07877 0.26709 0.0
C109 C 0.39254 0.01007 0.26763 0.0
O110 O 0.43825 0.04383 0.28847 0.0
O111 O 0.41821 0.04996 0.30229 0.0
O112 O 0.39023 0.02476 0.27717 0.0
O113 O 0.40425 0.01366 0.25757 0.0
C114 C 0.42817 0.04567 0.23326 0.0
O115 O 0.38824 0.06193 0.26141 0.0
O116 O 0.4113 0.07959 0.27297 0.0
In117 In 0.27571 0.16417 0.5136 0.0
O118 O 0.28032 0.19073 0.53593 0.0
O119 O 0.27644 0.16434 0.54591 0.0
C120 C 0.27665 0.18098 0.4808 0.0
C121 C 0.30504 0.14983 0.51707 0.0
C122 C 0.24325 0.14366 0.51117 0.0
O123 O 0.27725 0.18987 0.49724 0.0
O124 O 0.27531 0.16355 0.48076 0.0
O125 O 0.25654 0.13656 0.51224 0.0
O126 O 0.24617 0.16107 0.51055 0.0
C127 C 0.27939 0.18184 0.5502 0.0
O128 O 0.29043 0.13986 0.51106 0.0
O129 O 0.30493 0.16703 0.52068 0.0
In130 In 0.14791 0.04771 0.8028 0.0
O131 O 0.12478 0.0506 0.78071 0.0
O132 O 0.14558 0.04016 0.77074 0.0
C133 C 0.13464 0.04568 0.8361 0.0
C134 C 0.16061 0.01621 0.80017 0.0
C135 C 0.16927 0.0806 0.80303 0.0
O136 O 0.12549 0.04132 0.81975 0.0
O137 O 0.15027 0.05148 0.83563 0.0
O138 O 0.17395 0.06505 0.80192 0.0
O139 O 0.15366 0.07982 0.80459 0.0
C140 C 0.13109 0.04427 0.76648 0.0
O141 O 0.16958 0.0318 0.80777 0.0
O142 O 0.14498 0.01634 0.79493 0.0
In143 In 0.25191 0.87013 1.00067 0.0
O144 O 0.25473 0.84921 0.02135 0.0
O145 O 0.26166 0.87856 0.03164 0.0
C146 C 0.24935 0.84907 0.96769 0.0
C147 C 0.22231 0.88007 1.00395 0.0
C148 C 0.28213 0.89221 1.00164 0.0
O149 O 0.25136 0.84258 0.98347 0.0
O150 O 0.24703 0.86572 0.96871 0.0
O151 O 0.26892 0.89868 1.00444 0.0
O152 O 0.27987 0.87472 0.99754 0.0
C153 C 0.26082 0.86201 0.03527 0.0
O154 O 0.2331 0.88889 0.99515 0.0
O155 O 0.22595 0.86534 0.00967 0.0
In156 In 0.31271 0.3995 0.04823 0.0
O157 O 0.31351 0.37392 0.06418 0.0
O158 O 0.30883 0.39835 0.07985 0.0
C159 C 0.30898 0.37501 0.01577 0.0
C160 C 0.28345 0.41443 0.04537 0.0
C161 C 0.34478 0.42089 0.04784 0.0
O162 O 0.31728 0.37268 0.03147 0.0
O163 O 0.30244 0.38946 0.01656 0.0
O164 O 0.33273 0.41773 0.03387 0.0
O165 O 0.34049 0.41426 0.06258 0.0
C166 C 0.31034 0.38146 0.07984 0.0
O167 O 0.2983 0.42452 0.04869 0.0
O168 O 0.28348 0.39715 0.04385 0.0
In169 In 0.82378 0.16688 0.04706 0.0
O170 O 0.83813 0.143 0.04654 0.0
O171 O 0.85151 0.17085 0.046 0.0
C172 C 0.79091 0.15138 0.04142 0.0
C173 C 0.83105 0.18141 0.08347 0.0
C174 C 0.82049 0.18543 0.01735 0.0
O175 O 0.80222 0.1417 0.03871 0.0
O176 O 0.79638 0.16842 0.04768 0.0
O177 O 0.8221 0.19315 0.03447 0.0
O178 O 0.82148 0.16833 0.01527 0.0
C179 C 0.85222 0.15393 0.04674 0.0
O180 O 0.83451 0.19068 0.07005 0.0
O181 O 0.82335 0.16471 0.07847 0.0
In182 In 0.16779 0.51065 0.29249 0.0
O183 O 0.19076 0.49374 0.28651 0.0
O184 O 0.17063 0.47865 0.29706 0.0
C185 C 0.18747 0.54785 0.29824 0.0
C186 C 0.14866 0.50924 0.25483 0.0
C187 C 0.14948 0.51368 0.32491 0.0
O188 O 0.19399 0.53332 0.29618 0.0
O189 O 0.17155 0.54367 0.29823 0.0
O190 O 0.14297 0.51308 0.30749 0.0
O191 O 0.16511 0.51223 0.32622 0.0
C192 C 0.18492 0.47807 0.29145 0.0
O193 O 0.14387 0.49886 0.26705 0.0
O194 O 0.163 0.51956 0.26122 0.0
In195 In 0.81379 0.89833 0.54837 0.0
O196 O 0.81029 0.87193 0.56321 0.0
O197 O 0.81209 0.89777 0.58068 0.0
C198 C 0.81242 0.87579 0.51489 0.0
C199 C 0.78437 0.91286 0.54545 0.0
C200 C 0.84591 0.92008 0.54993 0.0
O201 O 0.82114 0.87377 0.53042 0.0
O202 O 0.80433 0.88902 0.51625 0.0
O203 O 0.83272 0.92254 0.5394 0.0
O204 O 0.84278 0.90749 0.56045 0.0
C205 C 0.81017 0.88019 0.57975 0.0
O206 O 0.79911 0.92303 0.5504 0.0
O207 O 0.78455 0.89563 0.54232 0.0
In208 In 0.93638 0.0125 0.26096 0.0
O209 O 0.95569 1.00479 0.24143 0.0
O210 O 0.94096 0.0247 0.2332 0.0
C211 C 0.95534 0.01542 0.29597 0.0
C212 C 0.92219 0.04318 0.26563 0.0
C213 C 0.91564 0.97834 0.25785 0.0
O214 O 0.96165 0.02139 0.2819 0.0
O215 O 0.93965 1.00817 0.29233 0.0
O216 O 0.90996 0.99339 0.25861 0.0
O217 O 0.93151 0.98047 0.25748 0.0
C218 C 0.95251 0.01585 0.22958 0.0
O219 O 0.91474 0.02859 0.25439 0.0
O220 O 0.93664 0.04216 0.27453 0.0
In221 In 0.32131 0.66848 0.53979 0.0
O222 O 0.33209 0.64193 0.53709 0.0
O223 O 0.34891 0.66825 0.5466 0.0
C224 C 0.28779 0.65648 0.53736 0.0
C225 C 0.32808 0.68996 0.57314 0.0
C226 C 0.32283 0.68137 0.50663 0.0
O227 O 0.29858 0.64757 0.54471 0.0
O228 O 0.29392 0.67136 0.53138 0.0
O229 O 0.32698 0.69176 0.52257 0.0
O230 O 0.31897 0.66405 0.50754 0.0
C231 C 0.34716 0.6508 0.54313 0.0
O232 O 0.32882 0.69659 0.55751 0.0
O233 O 0.32322 0.6725 0.57179 0.0
In234 In 0.43853 0.51122 0.76077 0.0
O235 O 0.41632 0.52689 0.75728 0.0
O236 O 0.44062 0.54209 0.77134 0.0
C237 C 0.4172 0.47763 0.75752 0.0
C238 C 0.45347 0.51363 0.72868 0.0
C239 C 0.45737 0.51324 0.79575 0.0
O240 O 0.41259 0.493 0.76166 0.0
O241 O 0.43237 0.47919 0.75401 0.0
O242 O 0.4632 0.52133 0.78252 0.0
O243 O 0.4423 0.50414 0.79125 0.0
C244 C 0.42512 0.54235 0.76555 0.0
O245 O 0.45927 0.50588 0.74252 0.0
O246 O 0.43982 0.5194 0.73066 0.0
In247 In 0.66834 0.01117 0.79283 0.0
O248 O 0.69325 0.99583 0.79383 0.0
O249 O 0.66981 0.97806 0.79113 0.0
C250 C 0.68739 0.04829 0.79534 0.0
C251 C 0.64863 1.00985 0.75562 0.0
C252 C 0.65052 0.01403 0.82583 0.0
O253 O 0.69349 0.03522 0.80249 0.0
O254 O 0.67214 0.04266 0.78701 0.0
O255 O 0.64629 1.00108 0.81175 0.0
O256 O 0.66387 0.0251 0.82375 0.0
C257 C 0.68581 0.97886 0.79218 0.0
O258 O 0.64247 0.00999 0.77116 0.0
O259 O 0.66448 1.00956 0.75857 0.0
In260 In 0.77479 0.66281 0.01312 0.0
O261 O 0.78949 0.63839 0.01441 0.0
O262 O 0.80413 0.66569 0.01698 0.0
C263 C 0.74208 0.64277 0.01107 0.0
C264 C 0.77969 0.68131 0.04944 0.0
C265 C 0.77517 0.67954 0.98018 0.0
O266 O 0.7546 0.6353 0.00764 0.0
O267 O 0.74585 0.66037 0.01471 0.0
O268 O 0.77574 0.68839 0.99662 0.0
O269 O 0.77399 0.66213 0.98016 0.0
C270 C 0.80423 0.64852 0.01694 0.0
O271 O 0.78007 0.68976 0.03484 0.0
O272 O 0.77674 0.66375 0.04568 0.0
In273 In 0.91329 0.54693 0.76733 0.0
O274 O 0.88845 0.56186 0.76495 0.0
O275 O 0.91201 0.57996 0.7703 0.0
C276 C 0.89252 0.51115 0.76798 0.0
C277 C 0.92948 0.54575 0.73288 0.0
C278 C 0.93513 0.54718 0.80327 0.0
O279 O 0.89578 0.51756 0.75276 0.0
O280 O 0.89882 0.52292 0.78259 0.0
O281 O 0.93585 0.53736 0.78762 0.0
O282 O 0.92433 0.55775 0.80067 0.0
C283 C 0.89591 0.57887 0.76766 0.0
O284 O 0.93763 0.54976 0.7499 0.0
O285 O 0.91354 0.54264 0.7332 0.0
In286 In 0.75352 0.37281 0.50198 0.0
O287 O 0.75159 0.34974 0.52101 0.0
O288 O 0.75749 0.37836 0.53372 0.0
C289 C 0.75148 0.35583 0.46677 0.0
C290 C 0.72745 0.39017 0.50227 0.0
C291 C 0.78561 0.3916 0.50621 0.0
O292 O 0.75189 0.34674 0.48093 0.0
O293 O 0.75033 0.37269 0.47045 0.0
O294 O 0.7728 0.39941 0.50535 0.0
O295 O 0.7823 0.37402 0.50491 0.0
C296 C 0.75544 0.36142 0.53616 0.0
O297 O 0.74213 0.39792 0.49987 0.0
O298 O 0.72546 0.37283 0.50341 0.0
In299 In 0.64771 0.54757 0.30226 0.0
O300 O 0.67077 0.53336 0.30485 0.0
O301 O 0.64625 0.51611 0.29624 0.0
C302 C 0.66806 0.58119 0.30449 0.0
C303 C 0.63148 0.54517 0.266 0.0
C304 C 0.63297 0.54684 0.33462 0.0
O305 O 0.67353 0.56693 0.30925 0.0
O306 O 0.65205 0.5787 0.29915 0.0
O307 O 0.62574 0.53763 0.31871 0.0
O308 O 0.64738 0.55661 0.33412 0.0
C309 C 0.66222 0.51713 0.29935 0.0
O310 O 0.62377 0.54722 0.28032 0.0
O311 O 0.64715 0.54476 0.27013 0.0
Tb312 Tb 0.03434 0.02538 0.03157 0.0
Tb313 Tb 0.07046 0.0453 0.05097 0.0
C314 C 1.00269 0.01651 0.02686 0.0
C315 C 0.99112 0.02929 0.02219 0.0
C316 C 0.99325 0.04657 0.03383 0.0
C317 C 0.98508 0.06044 0.02758 0.0
C318 C 0.97462 0.05738 0.00961 0.0
C319 C 0.97202 0.04 0.99815 0.0
C320 C 0.98031 0.02601 1.00439 0.0
C321 C 0.05543 0.02611 0.00567 0.0
C322 C 0.04706 0.06902 0.02976 0.0
C323 C 0.10191 0.05457 0.06214 0.0
C324 C 0.1146 0.04268 0.06233 0.0
C325 C 0.11071 0.02565 0.05016 0.0
C326 C 0.12192 0.01333 0.05102 0.0
C327 C 0.13746 0.01807 0.06368 0.0
C328 C 0.14133 0.03505 0.07607 0.0
C329 C 0.12983 0.04732 0.07546 0.0
C330 C 0.04559 0.04669 0.07159 0.0
C331 C 0.05826 1.00024 0.04932 0.0
O332 O 0.01202 0.02052 0.04395 0.0
O333 O 0.01163 0.01253 0.01335 0.0
O334 O 0.05883 0.03253 0.02328 0.0
O335 O 0.03944 0.01814 1.00232 0.0
O336 O 0.03389 0.05525 0.0298 0.0
O337 O 0.06304 0.06743 0.03556 0.0
O338 O 0.09463 0.05646 0.04495 0.0
O339 O 0.09083 0.05078 0.07381 0.0
O340 O 0.0476 0.03324 0.06012 0.0
O341 O 0.05832 0.06044 0.07214 0.0
O342 O 0.07094 0.01521 0.05302 0.0
O343 O 0.04266 1.00108 0.04117 0.0
H344 H 1.00166 0.0497 0.04754 0.0
H345 H 0.98677 0.07351 0.03702 0.0
H346 H 0.96367 0.03732 0.98441 0.0
H347 H 0.97876 0.0129 0.99509 0.0
H348 H 0.09896 0.02182 0.03996 0.0
H349 H 0.11847 1.00013 0.04163 0.0
H350 H 0.15331 0.03894 0.0859 0.0
H351 H 0.13279 0.06034 0.08512 0.0
Tb352 Tb 0.29495 0.77305 0.27288 0.0
Tb353 Tb 0.28763 0.78876 0.31317 0.0
C354 C 0.29207 0.76426 0.23768 0.0
C355 C 0.29969 0.77558 0.22424 0.0
C356 C 0.29726 0.79409 0.22406 0.0
C357 C 0.30563 0.80539 0.21247 0.0
C358 C 0.31669 0.79846 0.20098 0.0
C359 C 0.31964 0.7802 0.20171 0.0
C360 C 0.31111 0.76879 0.21324 0.0
C361 C 0.32274 0.77565 0.2994 0.0
C362 C 0.3071 0.81711 0.28735 0.0
C363 C 0.28914 0.79969 0.34796 0.0
C364 C 0.27623 0.79647 0.36045 0.0
C365 C 0.28102 0.8006 0.38032 0.0
C366 C 0.26992 0.79347 0.39238 0.0
C367 C 0.25393 0.78202 0.38462 0.0
C368 C 0.2484 0.78 0.36472 0.0
C369 C 0.25959 0.78698 0.35267 0.0
C370 C 0.26055 0.78719 0.28596 0.0
C371 C 0.27569 0.74428 0.29804 0.0
O372 O 0.2802 0.77076 0.24587 0.0
O373 O 0.30315 0.75853 0.24985 0.0
O374 O 0.30831 0.77963 0.30169 0.0
O375 O 0.32154 0.76993 0.28125 0.0
O376 O 0.30384 0.80346 0.2725 0.0
O377 O 0.30322 0.81381 0.30458 0.0
O378 O 0.29461 0.78461 0.34163 0.0
O379 O 0.28563 0.80995 0.33447 0.0
O380 O 0.275 0.78307 0.28459 0.0
O381 O 0.26102 0.79241 0.30408 0.0
O382 O 0.27701 0.75827 0.31235 0.0
O383 O 0.2817 0.74714 0.28176 0.0
H384 H 0.28883 0.79989 0.23277 0.0
H385 H 0.30274 0.81923 0.21184 0.0
H386 H 0.32809 0.77459 0.1929 0.0
H387 H 0.31345 0.7547 0.21364 0.0
H388 H 0.29382 0.80798 0.38645 0.0
H389 H 0.27474 0.79519 0.40762 0.0
H390 H 0.23615 0.77138 0.35836 0.0
H391 H 0.25571 0.78368 0.33729 0.0
Tb392 Tb 0.55914 0.02809 0.52518 0.0
Tb393 Tb 0.52145 0.02577 0.53598 0.0
C394 C 0.59038 0.02522 0.52843 0.0
C395 C 0.60227 0.01218 0.52441 0.0
C396 C 0.60232 0.99599 0.5335 0.0
C397 C 0.61563 0.98588 0.53269 0.0
C398 C 0.62931 0.99161 0.52276 0.0
C399 C 0.62871 1.00723 0.51284 0.0
C400 C 0.61546 0.01741 0.51376 0.0
C401 C 0.53551 0.02885 0.4935 0.0
C402 C 0.53349 0.98881 0.52057 0.0
C403 C 0.49036 0.02862 0.53269 0.0
C404 C 0.47894 0.04147 0.53849 0.0
C405 C 0.48001 0.05919 0.53228 0.0
C406 C 0.46728 0.06973 0.5347 0.0
C407 C 0.45317 0.06294 0.54354 0.0
C408 C 0.45264 0.04565 0.55067 0.0
C409 C 0.4653 0.03502 0.54806 0.0
C410 C 0.54478 0.02459 0.56755 0.0
C411 C 0.54722 0.06512 0.54206 0.0
O412 O 0.5803 0.02104 0.54094 0.0
O413 O 0.58277 0.0325 0.51432 0.0
O414 O 0.53363 0.02772 0.51102 0.0
O415 O 0.55184 0.02935 0.49382 0.0
O416 O 0.54937 0.99814 0.52169 0.0
O417 O 0.52034 0.99685 0.52382 0.0
O418 O 0.50078 0.03435 0.52095 0.0
O419 O 0.49747 0.01961 0.54562 0.0
O420 O 0.54688 0.026 0.55013 0.0
O421 O 0.52841 0.02388 0.56713 0.0
O422 O 0.53148 0.05558 0.54138 0.0
O423 O 0.56014 0.05733 0.53716 0.0
H424 H 0.59247 0.99154 0.54199 0.0
H425 H 0.61557 0.97408 0.54067 0.0
H426 H 0.63871 0.01192 0.50465 0.0
H427 H 0.6159 0.02985 0.50672 0.0
H428 H 0.49029 0.06462 0.52476 0.0
H429 H 0.46815 0.08281 0.52879 0.0
H430 H 0.44223 0.04009 0.55793 0.0
H431 H 0.46407 0.02141 0.55292 0.0
Tb432 Tb 0.2808 0.28111 0.78432 0.0
Tb433 Tb 0.31727 0.27203 0.78689 0.0
C434 C 0.25019 0.28341 0.78751 0.0
C435 C 0.23682 0.28352 0.8002 0.0
C436 C 0.23545 0.27247 0.81519 0.0
C437 C 0.2217 0.27225 0.82574 0.0
C438 C 0.20895 0.28292 0.82138 0.0
C439 C 0.21074 0.29427 0.80669 0.0
C440 C 0.22445 0.29456 0.79632 0.0
C441 C 0.30437 0.3064 0.77382 0.0
C442 C 0.30468 0.28718 0.82514 0.0
C443 C 0.34907 0.27285 0.78861 0.0
C444 C 0.36141 0.26951 0.77515 0.0
C445 C 0.36385 0.28043 0.76022 0.0
C446 C 0.37678 0.27862 0.74904 0.0
C447 C 0.38766 0.26572 0.75231 0.0
C448 C 0.38481 0.25435 0.76685 0.0
C449 C 0.37192 0.25628 0.77814 0.0
C450 C 0.29189 0.24349 0.7857 0.0
C451 C 0.29347 0.26506 0.74722 0.0
O452 O 0.25511 0.26765 0.78249 0.0
O453 O 0.2628 0.29783 0.79022 0.0
O454 O 0.3064 0.29652 0.78708 0.0
O455 O 0.28819 0.30344 0.76697 0.0
O456 O 0.2898 0.28799 0.81495 0.0
O457 O 0.31718 0.28085 0.81749 0.0
O458 O 0.34181 0.28738 0.78696 0.0
O459 O 0.33832 0.25841 0.792 0.0
O460 O 0.2932 0.25975 0.79422 0.0
O461 O 0.30564 0.24242 0.77823 0.0
O462 O 0.3094 0.27099 0.75608 0.0
O463 O 0.28003 0.26489 0.7563 0.0
H464 H 0.24481 0.26381 0.81854 0.0
H465 H 0.22075 0.2633 0.83691 0.0
H466 H 0.20145 0.30293 0.80309 0.0
H467 H 0.2252 0.30324 0.7849 0.0
H468 H 0.3561 0.29079 0.7574 0.0
H469 H 0.37859 0.28788 0.73827 0.0
H470 H 0.39262 0.244 0.76966 0.0
H471 H 0.3704 0.24766 0.78952 0.0
Tb472 Tb 0.0438 0.04118 0.53115 0.0
Tb473 Tb 0.0514 1.00502 0.52497 0.0
C474 C 0.04283 0.07505 0.53803 0.0
C475 C 0.03868 0.08806 0.52454 0.0
C476 C 0.05044 0.09488 0.51274 0.0
C477 C 0.04569 0.10559 0.49862 0.0
C478 C 0.02913 0.10959 0.49603 0.0
C479 C 0.01741 0.10285 0.50783 0.0
C480 C 0.02218 0.09227 0.52204 0.0
C481 C 0.01623 0.01451 0.52774 0.0
C482 C 0.03798 0.02343 0.48914 0.0
C483 C 0.05206 0.97111 0.51739 0.0
C484 C 0.05725 0.95826 0.53043 0.0
C485 C 0.05145 0.9581 0.54827 0.0
C486 C 0.05784 0.94747 0.56157 0.0
C487 C 0.07035 0.93706 0.55741 0.0
C488 C 0.07609 0.93717 0.53953 0.0
C489 C 0.06955 0.94771 0.52611 0.0
C490 C 0.07882 0.03189 0.52784 0.0
C491 C 0.05829 0.02319 0.56708 0.0
O492 O 0.05708 0.06888 0.53699 0.0
O493 O 0.03014 0.06174 0.53944 0.0
O494 O 0.03084 0.01446 0.53715 0.0
O495 O 0.01696 0.02976 0.52001 0.0
O496 O 0.04212 0.03959 0.50026 0.0
O497 O 0.03869 1.00774 0.49639 0.0
O498 O 0.03812 0.97734 0.52005 0.0
O499 O 0.06443 0.98437 0.51504 0.0
O500 O 0.06409 0.03168 0.51878 0.0
O501 O 0.07851 0.01649 0.53524 0.0
O502 O 0.05543 1.00704 0.55598 0.0
O503 O 0.0558 0.03858 0.56003 0.0
H504 H 0.06324 0.09181 0.51425 0.0
H505 H 0.05508 0.111 0.48996 0.0
H506 H 1.00454 0.10572 0.50602 0.0
H507 H 0.01284 0.08706 0.53084 0.0
H508 H 0.04217 0.96639 0.55213 0.0
H509 H 0.0529 0.94734 0.57506 0.0
H510 H 0.08582 0.92936 0.53606 0.0
H511 H 0.0744 0.94801 0.51256 0.0
Tb512 Tb 0.30718 0.77227 0.764 0.0
Tb513 Tb 0.30166 0.81308 0.77108 0.0
C514 C 0.31535 0.7422 0.75149 0.0
C515 C 0.32676 0.72975 0.7585 0.0
C516 C 0.341 0.7277 0.7495 0.0
C517 C 0.35113 0.71482 0.75475 0.0
C518 C 0.34713 0.70365 0.76906 0.0
C519 C 0.33323 0.70618 0.77854 0.0
C520 C 0.32315 0.71911 0.77334 0.0
C521 C 0.30889 0.785 0.80021 0.0
C522 C 0.33817 0.80634 0.77007 0.0
C523 C 0.29597 0.8448 0.78185 0.0
C524 C 0.28277 0.85578 0.77733 0.0
C525 C 0.27783 0.8663 0.79253 0.0
C526 C 0.26618 0.87793 0.78882 0.0
C527 C 0.25938 0.8793 0.76982 0.0
C528 C 0.26374 0.86811 0.75457 0.0
C529 C 0.2754 0.85636 0.75831 0.0
C530 C 0.30032 0.7988 0.73509 0.0
C531 C 0.26992 0.77938 0.76438 0.0
O532 O 0.32282 0.75861 0.74813 0.0
O533 O 0.30182 0.74303 0.75979 0.0
O534 O 0.31314 0.79427 0.78726 0.0
O535 O 0.30557 0.76743 0.79375 0.0
O536 O 0.33126 0.78976 0.76022 0.0
O537 O 0.32888 0.81638 0.77928 0.0
O538 O 0.29136 0.83017 0.79025 0.0
O539 O 0.30532 0.84157 0.76853 0.0
O540 O 0.29539 0.79083 0.74845 0.0
O541 O 0.30546 0.81637 0.74117 0.0
O542 O 0.27623 0.79689 0.77223 0.0
O543 O 0.27949 0.76851 0.75661 0.0
H544 H 0.34403 0.7357 0.73799 0.0
H545 H 0.36163 0.71304 0.74702 0.0
H546 H 0.32998 0.69791 0.78977 0.0
H547 H 0.31231 0.72042 0.78067 0.0
H548 H 0.28323 0.86577 0.80728 0.0
H549 H 0.26268 0.88609 0.80084 0.0
H550 H 0.25859 0.86892 0.73981 0.0
H551 H 0.27892 0.84808 0.74638 0.0
Tb552 Tb 0.51712 0.03705 0.00919 0.0
Tb553 Tb 0.5475 0.03348 0.03699 0.0
C554 C 0.48907 0.03133 0.98725 0.0
C555 C 0.47097 0.02793 0.98871 0.0
C556 C 0.46555 0.02792 0.0067 0.0
C557 C 0.44854 0.02076 0.00784 0.0
C558 C 0.43692 0.01357 0.99097 0.0
C559 C 0.44216 0.015 0.97297 0.0
C560 C 0.45916 0.0221 0.97187 0.0
C561 C 0.53658 0.06842 0.02589 0.0
C562 C 0.51331 0.03368 0.05509 0.0
C563 C 0.57666 0.04114 0.05642 0.0
C564 C 0.59328 0.04789 0.05079 0.0
C565 C 0.60311 0.06471 0.06058 0.0
C566 C 0.61727 0.07351 0.05344 0.0
C567 C 0.62193 0.06539 0.03657 0.0
C568 C 0.61254 0.04814 0.02715 0.0
C569 C 0.59817 0.03949 0.03412 0.0
C570 C 0.52817 1.00186 0.02009 0.0
C571 C 0.55168 0.03616 0.9916 0.0
O572 O 0.49703 0.01799 0.99223 0.0
O573 O 0.49777 0.04807 0.99409 0.0
O574 O 0.53238 0.05383 0.03313 0.0
O575 O 0.52897 0.06618 0.00822 0.0
O576 O 0.50561 0.03329 0.03682 0.0
O577 O 0.53014 0.03445 0.05859 0.0
O578 O 0.56628 0.05309 0.05528 0.0
O579 O 0.56903 0.02397 0.04947 0.0
O580 O 0.53217 0.01664 0.013 0.0
O581 O 0.53622 1.00426 0.03765 0.0
O582 O 0.55924 0.038 0.00997 0.0
O583 O 0.53472 0.03408 0.98773 0.0
H584 H 0.47462 0.0324 0.01981 0.0
H585 H 0.44481 0.01964 0.02187 0.0
H586 H 0.43332 1.00969 0.95981 0.0
H587 H 0.46328 0.02205 0.95791 0.0
H588 H 0.5994 0.07135 0.07334 0.0
H589 H 0.62452 0.08672 0.06104 0.0
H590 H 0.61601 0.04169 0.0141 0.0
H591 H 0.59059 0.02664 0.0261 0.0
Tb592 Tb 0.273 0.26435 0.26862 0.0
Tb593 Tb 0.30436 0.28943 0.28418 0.0
C594 C 0.2432 0.24571 0.26359 0.0
C595 C 0.22739 0.25033 0.26909 0.0
C596 C 0.22764 0.26039 0.28719 0.0
C597 C 0.21264 0.26487 0.29239 0.0
C598 C 0.19728 0.25961 0.2795 0.0
C599 C 0.19706 0.25007 0.26119 0.0
C600 C 0.2121 0.24535 0.25604 0.0
C601 C 0.28899 0.27933 0.24212 0.0
C602 C 0.27183 0.30874 0.2824 0.0
C603 C 0.33446 0.30664 0.28703 0.0
C604 C 0.34941 0.29967 0.28146 0.0
C605 C 0.34824 0.28908 0.2634 0.0
C606 C 0.36219 0.28187 0.25837 0.0
C607 C 0.3775 0.28484 0.27139 0.0
C608 C 0.37855 0.29513 0.28961 0.0
C609 C 0.3646 0.30255 0.29457 0.0
C610 C 0.28867 0.27481 0.31106 0.0
C611 C 0.30557 0.24508 0.27058 0.0
O612 O 0.25497 0.24463 0.27788 0.0
O613 O 0.24939 0.25502 0.25058 0.0
O614 O 0.28721 0.28725 0.25818 0.0
O615 O 0.28142 0.26198 0.24036 0.0
O616 O 0.26332 0.29092 0.27854 0.0
O617 O 0.28883 0.31178 0.28435 0.0
O618 O 0.32247 0.30727 0.27281 0.0
O619 O 0.32828 0.29968 0.30145 0.0
O620 O 0.29003 0.26656 0.29489 0.0
O621 O 0.29657 0.29209 0.31262 0.0
O622 O 0.31405 0.26276 0.27552 0.0
O623 O 0.28857 0.24206 0.26757 0.0
H624 H 0.23939 0.26479 0.29735 0.0
H625 H 0.21305 0.27255 0.30647 0.0
H626 H 0.18525 0.24602 0.25108 0.0
H627 H 0.21183 0.23785 0.24192 0.0
H628 H 0.33655 0.28631 0.25308 0.0
H629 H 0.36104 0.27425 0.24413 0.0
H630 H 0.3901 0.29737 0.30007 0.0
H631 H 0.3656 0.31038 0.30869 0.0
Tb632 Tb 0.54363 0.54379 0.03192 0.0
Tb633 Tb 0.54945 0.50147 0.02573 0.0
C634 C 0.54908 0.57838 0.03371 0.0
C635 C 0.54371 0.59142 0.02122 0.0
C636 C 0.55661 0.60353 0.01489 0.0
C637 C 0.55243 0.6146 1.00106 0.0
C638 C 0.53523 0.61412 0.9937 0.0
C639 C 0.52222 0.6019 0.99991 0.0
C640 C 0.52646 0.59043 0.01356 0.0
C641 C 0.51481 0.51841 0.03071 0.0
C642 C 0.53645 0.52112 0.99026 0.0
C643 C 0.54493 0.46694 0.02415 0.0
C644 C 0.55396 0.4549 0.03534 0.0
C645 C 0.55201 0.45392 0.05464 0.0
C646 C 0.56121 0.44325 0.06546 0.0
C647 C 0.57256 0.4334 0.05723 0.0
C648 C 0.57451 0.43426 0.03797 0.0
C649 C 0.56526 0.44497 0.02708 0.0
C650 C 0.57842 0.52644 0.02617 0.0
C651 C 0.55785 0.52492 0.06733 0.0
O652 O 0.55847 0.5677 0.02589 0.0
O653 O 0.53763 0.56929 0.04269 0.0
O654 O 0.52984 0.51634 0.02945 0.0
O655 O 0.5155 0.53636 0.03261 0.0
O656 O 0.53967 0.53773 1.00086 0.0
O657 O 0.53749 0.50525 0.99733 0.0
O658 O 0.53609 0.47725 0.03363 0.0
O659 O 0.55378 0.47611 0.01266 0.0
O660 O 0.56361 0.52894 0.02848 0.0
O661 O 0.57716 0.5084 0.02359 0.0
O662 O 0.55499 0.50814 0.05698 0.0
O663 O 0.55552 0.54048 0.06034 0.0
H664 H 0.57 0.60398 0.02025 0.0
H665 H 0.56272 0.6235 0.99607 0.0
H666 H 0.50886 0.60135 0.99437 0.0
H667 H 0.51635 0.58073 0.01791 0.0
H668 H 0.5434 0.46138 0.06148 0.0
H669 H 0.55913 0.44234 0.08016 0.0
H670 H 0.58312 0.42662 0.03137 0.0
H671 H 0.56701 0.44558 0.01224 0.0
Tb672 Tb 0.80314 0.27253 0.26309 0.0
Tb673 Tb 0.80392 0.31458 0.27163 0.0
C674 C 0.80779 0.24076 0.25044 0.0
C675 C 0.82037 0.22874 0.25459 0.0
C676 C 0.82351 0.21651 0.23948 0.0
C677 C 0.83412 0.20369 0.24307 0.0
C678 C 0.84166 0.20262 0.26194 0.0
C679 C 0.83916 0.21552 0.27703 0.0
C680 C 0.82861 0.22853 0.27337 0.0
C681 C 0.80395 0.28539 0.2992 0.0
C682 C 0.83845 0.30155 0.27257 0.0
C683 C 0.79937 0.34627 0.28402 0.0
C684 C 0.7861 0.35725 0.27895 0.0
C685 C 0.76955 0.35251 0.2836 0.0
C686 C 0.75728 0.36329 0.27887 0.0
C687 C 0.7613 0.37895 0.26934 0.0
C688 C 0.77769 0.38332 0.2642 0.0
C689 C 0.78999 0.37266 0.26908 0.0
C690 C 0.80347 0.30172 0.23566 0.0
C691 C 0.7683 0.28534 0.26107 0.0
O692 O 0.81309 0.25592 0.24304 0.0
O693 O 0.79818 0.24364 0.2636 0.0
O694 O 0.81135 0.29348 0.28721 0.0
O695 O 0.79692 0.2685 0.29177 0.0
O696 O 0.8299 0.28522 0.26349 0.0
O697 O 0.83071 0.31432 0.28029 0.0
O698 O 0.79486 0.33137 0.29225 0.0
O699 O 0.80897 0.34338 0.27084 0.0
O700 O 0.79586 0.29385 0.24765 0.0
O701 O 0.81116 0.31838 0.24326 0.0
O702 O 0.77667 0.30196 0.26985 0.0
O703 O 0.7764 0.27249 0.25416 0.0
H704 H 0.8174 0.21656 0.2249 0.0
H705 H 0.83616 0.19432 0.23105 0.0
H706 H 0.8448 0.2151 0.29171 0.0
H707 H 0.82649 0.23802 0.28526 0.0
H708 H 0.76612 0.34065 0.29113 0.0
H709 H 0.74484 0.3597 0.28326 0.0
H710 H 0.78109 0.39513 0.25659 0.0
H711 H 0.80262 0.37653 0.26521 0.0
Tb712 Tb 0.01692 0.53883 0.50785 0.0
Tb713 Tb 0.04595 0.53143 0.53472 0.0
C714 C 0.98844 0.53593 0.48727 0.0
C715 C 0.97083 0.53171 0.49084 0.0
C716 C 0.95811 0.52215 0.47589 0.0
C717 C 0.94221 0.51406 0.47994 0.0
C718 C 0.93911 0.51528 0.49901 0.0
C719 C 0.95143 0.52585 0.51379 0.0
C720 C 0.96719 0.53425 0.50966 0.0
C721 C 0.03863 0.56864 0.52472 0.0
C722 C 0.01265 0.53374 0.5534 0.0
C723 C 0.07518 0.53544 0.55329 0.0
C724 C 0.09122 0.54383 0.54747 0.0
C725 C 0.09187 0.55953 0.5376 0.0
C726 C 0.10688 0.56713 0.5313 0.0
C727 C 0.12142 0.55904 0.5346 0.0
C728 C 0.12059 0.54301 0.54397 0.0
C729 C 0.10556 0.53548 0.55041 0.0
C730 C 0.02444 0.50147 0.51696 0.0
C731 C 0.05108 0.53624 0.48999 0.0
O732 O 0.99662 0.52204 0.48878 0.0
O733 O 0.9976 0.55193 0.49584 0.0
O734 O 0.03345 0.55421 0.53191 0.0
O735 O 0.0307 0.5671 0.50723 0.0
O736 O 1.0053 0.53489 0.53538 0.0
O737 O 0.02911 0.5327 0.55666 0.0
O738 O 0.06481 0.547 0.55636 0.0
O739 O 0.06735 0.51959 0.54304 0.0
O740 O 0.02962 0.51626 0.51036 0.0
O741 O 0.03217 0.50308 0.53458 0.0
O742 O 0.05816 0.53601 0.50818 0.0
O743 O 0.03442 0.53654 0.48614 0.0
H744 H 0.96084 0.51995 0.46133 0.0
H745 H 0.93281 0.50571 0.46845 0.0
H746 H 0.94914 0.52681 0.52857 0.0
H747 H 0.97682 0.54181 0.52131 0.0
H748 H 0.08079 0.56601 0.53478 0.0
H749 H 0.10724 0.5796 0.52432 0.0
H750 H 0.13161 0.53639 0.54643 0.0
H751 H 0.10511 0.52312 0.5576 0.0
Tb752 Tb 0.78021 0.77943 0.28301 0.0
Tb753 Tb 0.81664 0.77152 0.28583 0.0
C754 C 0.74923 0.77784 0.28748 0.0
C755 C 0.73719 0.78215 0.30093 0.0
C756 C 0.73658 0.77425 0.31817 0.0
C757 C 0.72299 0.77548 0.32863 0.0
C758 C 0.70961 0.78453 0.32206 0.0
C759 C 0.71079 0.79322 0.30536 0.0
C760 C 0.72434 0.792 0.29495 0.0
C761 C 0.80395 0.80768 0.27834 0.0
C762 C 0.8043 0.78472 0.32412 0.0
C763 C 0.8473 0.76982 0.28216 0.0
C764 C 0.8593 0.76822 0.26799 0.0
C765 C 0.86599 0.78364 0.25925 0.0
C766 C 0.87927 0.78274 0.24835 0.0
C767 C 0.88628 0.76643 0.24593 0.0
C768 C 0.87911 0.75081 0.25411 0.0
C769 C 0.86586 0.75173 0.26503 0.0
C770 C 0.7926 0.74374 0.29055 0.0
C771 C 0.79274 0.7668 0.24506 0.0
O772 O 0.7581 0.76493 0.29119 0.0
O773 O 0.758 0.7915 0.28029 0.0
O774 O 0.80564 0.79586 0.28978 0.0
O775 O 0.78805 0.80483 0.27019 0.0
O776 O 0.78887 0.78305 0.31397 0.0
O777 O 0.81788 0.78236 0.31602 0.0
O778 O 0.84165 0.78546 0.28499 0.0
O779 O 0.8355 0.7552 0.28265 0.0
O780 O 0.79132 0.75535 0.2789 0.0
O781 O 0.80821 0.74677 0.29946 0.0
O782 O 0.80853 0.77126 0.25478 0.0
O783 O 0.77908 0.76621 0.25375 0.0
H784 H 0.74619 0.76643 0.32319 0.0
H785 H 0.72257 0.76854 0.34135 0.0
H786 H 0.701 0.80067 0.30002 0.0
H787 H 0.72436 0.79812 0.2817 0.0
H788 H 0.86141 0.79666 0.26137 0.0
H789 H 0.88452 0.79516 0.24252 0.0
H790 H 0.88391 0.73791 0.25234 0.0
H791 H 0.86113 0.73965 0.2717 0.0
Tb792 Tb 0.79678 0.27294 0.77311 0.0
Tb793 Tb 0.7855 0.29006 0.80612 0.0
C794 C 0.79805 0.26333 0.73859 0.0
C795 C 0.80263 0.27559 0.72445 0.0
C796 C 0.79395 0.29034 0.72147 0.0
C797 C 0.80004 0.3038 0.7105 0.0
C798 C 0.81505 0.30294 0.70252 0.0
C799 C 0.82371 0.28818 0.70547 0.0
C800 C 0.81749 0.27454 0.71632 0.0
C801 C 0.82213 0.27385 0.80148 0.0
C802 C 0.80873 0.31746 0.78527 0.0
C803 C 0.77661 0.2997 0.83768 0.0
C804 C 0.76837 0.28877 0.85096 0.0
C805 C 0.77216 0.27115 0.85335 0.0
C806 C 0.76339 0.26011 0.86486 0.0
C807 C 0.7506 0.26644 0.87413 0.0
C808 C 0.74662 0.28398 0.87145 0.0
C809 C 0.75545 0.29508 0.85983 0.0
C810 C 0.76618 0.29207 0.77337 0.0
C811 C 0.77583 0.24456 0.79544 0.0
O812 O 0.78369 0.26445 0.74505 0.0
O813 O 0.8106 0.2634 0.75234 0.0
O814 O 0.80842 0.27993 0.80325 0.0
O815 O 0.82116 0.26619 0.78406 0.0
O816 O 0.80508 0.30338 0.77092 0.0
O817 O 0.80415 0.31452 0.80209 0.0
O818 O 0.79224 0.29771 0.83588 0.0
O819 O 0.76701 0.29892 0.82116 0.0
O820 O 0.77208 0.27801 0.77822 0.0
O821 O 0.77213 0.30594 0.78682 0.0
O822 O 0.77449 0.25973 0.80703 0.0
O823 O 0.78456 0.24639 0.781 0.0
H824 H 0.78263 0.29174 0.72787 0.0
H825 H 0.79273 0.31466 0.70795 0.0
H826 H 0.83525 0.28718 0.69937 0.0
H827 H 0.82454 0.26346 0.71886 0.0
H828 H 0.78197 0.26593 0.84641 0.0
H829 H 0.76717 0.24692 0.86711 0.0
H830 H 0.73694 0.2892 0.8786 0.0
H831 H 0.7522 0.30854 0.85774 0.0
Tb832 Tb 0.77332 0.76432 0.77017 0.0
Tb833 Tb 0.80527 0.78954 0.78446 0.0
C834 C 0.7439 0.74534 0.76807 0.0
C835 C 0.72687 0.74918 0.76985 0.0
C836 C 0.7184 0.7413 0.7839 0.0
C837 C 0.703 0.74603 0.78749 0.0
C838 C 0.69561 0.75848 0.77681 0.0
C839 C 0.70389 0.766 0.76232 0.0
C840 C 0.71951 0.76148 0.75894 0.0
C841 C 0.78802 0.77926 0.74286 0.0
C842 C 0.77273 0.80923 0.78303 0.0
C843 C 0.83535 0.80603 0.78533 0.0
C844 C 0.84986 0.79825 0.77959 0.0
C845 C 0.84736 0.78486 0.76317 0.0
C846 C 0.86096 0.77717 0.75781 0.0
C847 C 0.87735 0.78279 0.76867 0.0
C848 C 0.8798 0.79585 0.78534 0.0
C849 C 0.8661 0.80352 0.79078 0.0
C850 C 0.79067 0.77476 0.81186 0.0
C851 C 0.80584 0.74487 0.7714 0.0
O852 O 0.75491 0.74982 0.78398 0.0
O853 O 0.75053 0.75 0.75297 0.0
O854 O 0.78708 0.78719 0.75926 0.0
O855 O 0.78007 0.76202 0.74109 0.0
O856 O 0.76395 0.79157 0.77807 0.0
O857 O 0.78979 0.81199 0.78592 0.0
O858 O 0.82298 0.80605 0.77129 0.0
O859 O 0.82966 0.80026 0.80053 0.0
O860 O 0.79151 0.76663 0.79546 0.0
O861 O 0.7987 0.79201 0.81351 0.0
O862 O 0.81443 0.76254 0.77581 0.0
O863 O 0.78885 0.74194 0.76922 0.0
H864 H 0.72402 0.73196 0.79259 0.0
H865 H 0.69723 0.7404 0.79912 0.0
H866 H 0.69842 0.77555 0.7538 0.0
H867 H 0.72592 0.76787 0.74811 0.0
H868 H 0.8349 0.78034 0.75437 0.0
H869 H 0.85869 0.76694 0.74506 0.0
H870 H 0.89237 0.80053 0.79386 0.0
H871 H 0.8682 0.81365 0.80359 0.0
Tb872 Tb 0.53875 0.52523 0.52912 0.0
Tb873 Tb 0.57101 0.54501 0.55125 0.0
C874 C 0.50794 0.51609 0.51521 0.0
C875 C 0.49587 0.5288 0.51439 0.0
C876 C 0.49637 0.54201 0.53047 0.0
C877 C 0.48745 0.55644 0.52894 0.0
C878 C 0.47803 0.55806 0.51127 0.0
C879 C 0.47724 0.54473 0.49523 0.0
C880 C 0.4862 0.53015 0.49679 0.0
C881 C 0.56471 0.52431 0.5101 0.0
C882 C 0.54925 0.56979 0.53044 0.0
C883 C 0.60198 0.55447 0.56517 0.0
C884 C 0.61417 0.54196 0.56756 0.0
C885 C 0.6119 0.52577 0.55426 0.0
C886 C 0.6214 0.51211 0.55772 0.0
C887 C 0.63344 0.51444 0.57446 0.0
C888 C 0.63629 0.53092 0.58746 0.0
C889 C 0.62648 0.5446 0.58412 0.0
C890 C 0.54469 0.54557 0.56986 0.0
C891 C 0.56012 0.50015 0.54966 0.0
O892 O 0.51394 0.51315 0.53251 0.0
O893 O 0.51996 0.5197 0.50464 0.0
O894 O 0.56231 0.53801 0.52109 0.0
O895 O 0.55211 0.5105 0.50952 0.0
O896 O 0.53666 0.55501 0.52836 0.0
O897 O 0.5649 0.56876 0.53801 0.0
O898 O 0.59604 0.55564 0.54731 0.0
O899 O 0.58985 0.55201 0.57576 0.0
O900 O 0.5476 0.53204 0.55913 0.0
O901 O 0.55714 0.55965 0.57073 0.0
O902 O 0.57258 0.51516 0.55304 0.0
O903 O 0.5447 0.50104 0.54128 0.0
H904 H 0.50407 0.54159 0.54416 0.0
H905 H 0.48783 0.56624 0.54166 0.0
H906 H 0.46987 0.54572 0.48153 0.0
H907 H 0.48606 0.52032 0.48416 0.0
H908 H 0.60246 0.52337 0.54136 0.0
H909 H 0.61936 0.49971 0.54723 0.0
H910 H 0.64576 0.53297 0.6003 0.0
H911 H 0.62819 0.55694 0.5946 0.0
Tb912 Tb 0.05735 0.52842 0.02591 0.0
Tb913 Tb 0.02198 0.52592 0.0376 0.0
C914 C 0.0885 0.52524 0.02965 0.0
C915 C 0.1004 0.51221 0.02551 0.0
C916 C 0.10147 0.49695 0.03586 0.0
C917 C 0.11483 0.48696 0.03484 0.0
C918 C 0.12756 0.49184 0.02339 0.0
C919 C 0.12593 0.5065 0.01229 0.0
C920 C 0.11263 0.51659 0.01344 0.0
C921 C 0.03409 0.529 0.99392 0.0
C922 C 0.03205 0.48917 0.02095 0.0
C923 C 0.99221 0.52902 0.04363 0.0
C924 C 0.97985 0.54181 0.04383 0.0
C925 C 0.97964 0.55589 0.03188 0.0
C926 C 0.96682 0.56679 0.03173 0.0
C927 C 0.95399 0.56373 0.04347 0.0
C928 C 0.95469 0.54997 0.0558 0.0
C929 C 0.96744 0.53917 0.05594 0.0
C930 C 0.04654 0.51952 0.06482 0.0
C931 C 0.04568 0.56586 0.03872 0.0
O932 O 0.07815 0.52069 0.04185 0.0
O933 O 0.08126 0.53308 0.01574 0.0
O934 O 0.03174 0.52796 0.01128 0.0
O935 O 0.0504 0.52927 0.99441 0.0
O936 O 0.04799 0.49842 0.02346 0.0
O937 O 0.019 0.49752 0.02328 0.0
O938 O 0.99575 0.52252 0.02697 0.0
O939 O 1.00571 0.53308 0.05696 0.0
O940 O 0.04796 0.53166 0.0532 0.0
O941 O 0.03078 0.51064 0.06106 0.0
O942 O 0.03006 0.55592 0.03764 0.0
O943 O 0.05898 0.55796 0.03597 0.0
H944 H 0.09243 0.49317 0.0455 0.0
H945 H 0.11557 0.47598 0.0438 0.0
H946 H 0.13516 0.5105 1.00294 0.0
H947 H 0.11231 0.52832 0.00541 0.0
H948 H 0.98915 0.55823 0.02244 0.0
H949 H 0.96665 0.5772 0.02199 0.0
H950 H 0.94529 0.54744 0.06532 0.0
H951 H 0.96743 0.52846 0.06536 0.0
H952 H 0.01429 0.22792 0.97681 0.0
H953 H 0.01726 0.20102 0.99389 0.0
H954 H 0.03927 0.1766 0.94721 0.0
H955 H 0.03532 0.20285 0.92972 0.0
H956 H 0.01903 0.15077 0.9569 0.0
H957 H 0.06243 0.20039 0.99643 0.0
H958 H 0.07199 0.23079 0.01704 0.0
H959 H 0.03754 0.21321 0.05587 0.0
H960 H 0.02767 0.1828 0.0354 0.0
H961 H 0.06772 0.09208 0.01105 0.0
H962 H 0.06226 0.12058 0.99809 0.0
H963 H 0.01455 0.11542 0.02037 0.0
H964 H 0.01946 0.08624 0.03246 0.0
H965 H 0.04583 0.15582 0.02498 0.0
H966 H 1.00067 0.10909 0.9863 0.0
H967 H 0.98764 0.0795 0.9656 0.0
H968 H 0.02172 0.09308 0.92512 0.0
H969 H 0.0356 0.12219 0.94626 0.0
C970 C 0.01971 0.21677 0.97019 0.0
C971 C 0.02447 0.21753 0.95182 0.0
C972 C 0.02161 0.20142 0.9801 0.0
C973 C 0.02884 0.1867 0.97216 0.0
C974 C 0.03365 0.18761 0.95382 0.0
C975 C 0.03139 0.20269 0.94376 0.0
C976 C 0.03081 0.16996 0.98228 0.0
C977 C 0.02513 0.15206 0.97173 0.0
C978 C 0.03807 0.17122 1.00195 0.0
C979 C 0.04423 0.1894 0.01431 0.0
C980 C 0.05686 0.20305 0.00933 0.0
C981 C 0.06233 0.22028 0.02099 0.0
C982 C 0.05535 0.22395 0.03773 0.0
C983 C 0.04293 0.21037 0.04289 0.0
C984 C 0.03741 0.19313 0.03128 0.0
C985 C 0.05602 0.09696 0.01316 0.0
C986 C 0.04393 0.08674 0.02263 0.0
C987 C 0.05293 0.11328 0.00574 0.0
C988 C 0.03788 0.12004 0.00802 0.0
C989 C 0.02609 0.11029 0.01813 0.0
C990 C 0.02891 0.09362 0.02503 0.0
C991 C 0.0344 0.13698 0.99934 0.0
C992 C 0.03984 0.15475 0.01014 0.0
C993 C 0.02666 0.13571 0.98001 0.0
C994 C 0.01947 0.1175 0.96814 0.0
C995 C 1.00579 0.1054 0.97336 0.0
C996 C 0.99819 0.08876 0.96149 0.0
C997 C 1.00391 0.08433 0.9441 0.0
C998 C 0.01739 0.09642 0.93868 0.0
C999 C 0.02523 0.1129 0.95069 0.0
H1000 H 0.99776 0.07162 0.93475 0.0
H1001 H 0.05958 0.2373 0.04672 0.0
H1002 H 0.13242 0.79843 0.15341 0.0
H1003 H 0.16002 0.79732 0.17218 0.0
H1004 H 0.13555 0.78976 0.22217 0.0
H1005 H 0.10799 0.79161 0.20354 0.0
H1006 H 0.16431 0.81228 0.23312 0.0
H1007 H 0.14914 0.7529 0.19231 0.0
H1008 H 0.14098 0.73237 0.16127 0.0
H1009 H 0.18743 0.75744 0.14279 0.0
H1010 H 0.19575 0.77829 0.17363 0.0
H1011 H 0.22775 0.78092 0.29189 0.0
H1012 H 0.2019 0.78221 0.27014 0.0
H1013 H 0.23189 0.79284 0.22498 0.0
H1014 H 0.25804 0.79151 0.24699 0.0
H1015 H 0.20167 0.77012 0.21017 0.0
H1016 H 0.21746 0.82847 0.25099 0.0
H1017 H 0.22563 0.84982 0.28148 0.0
H1018 H 0.17808 0.82752 0.29942 0.0
H1019 H 0.16973 0.80583 0.26915 0.0
C1020 C 0.1329 0.7966 0.16843 0.0
C1021 C 0.11791 0.79509 0.17692 0.0
C1022 C 0.14875 0.79578 0.17917 0.0
C1023 C 0.15005 0.79303 0.19865 0.0
C1024 C 0.13507 0.79181 0.2072 0.0
C1025 C 0.11924 0.79285 0.19651 0.0
C1026 C 0.16693 0.79171 0.21019 0.0
C1027 C 0.1723 0.80282 0.22815 0.0
C1028 C 0.1779 0.77993 0.20362 0.0
C1029 C 0.17299 0.76725 0.1852 0.0
C1030 C 0.15757 0.75409 0.18158 0.0
C1031 C 0.15292 0.7424 0.16403 0.0
C1032 C 0.16366 0.74363 0.15005 0.0
C1033 C 0.17911 0.75652 0.15362 0.0
C1034 C 0.18381 0.76826 0.17114 0.0
C1035 C 0.22889 0.78328 0.27724 0.0
C1036 C 0.24503 0.78578 0.27117 0.0
C1037 C 0.21402 0.78417 0.2648 0.0
C1038 C 0.21477 0.78799 0.24588 0.0
C1039 C 0.23083 0.78989 0.23947 0.0
C1040 C 0.24583 0.78889 0.25201 0.0
C1041 C 0.19881 0.79039 0.23325 0.0
C1042 C 0.19366 0.77956 0.2151 0.0
C1043 C 0.18801 0.80247 0.2396 0.0
C1044 C 0.19304 0.81541 0.25787 0.0
C1045 C 0.20881 0.82801 0.26151 0.0
C1046 C 0.21346 0.84019 0.27874 0.0
C1047 C 0.2024 0.84 0.2924 0.0
C1048 C 0.18665 0.82764 0.28884 0.0
C1049 C 0.18194 0.81541 0.27164 0.0
H1050 H 0.20602 0.84945 0.30572 0.0
H1051 H 0.16003 0.73458 0.13647 0.0
H1052 H 0.50504 0.82355 0.42666 0.0
H1053 H 0.50481 0.85474 0.4424 0.0
H1054 H 0.54354 0.84795 0.48831 0.0
H1055 H 0.54259 0.81596 0.47327 0.0
H1056 H 0.52481 0.86616 0.50374 0.0
H1057 H 0.55137 0.87534 0.44857 0.0
H1058 H 0.55499 0.8717 0.41442 0.0
H1059 H 0.50978 0.89431 0.39965 0.0
H1060 H 0.50578 0.89787 0.4337 0.0
H1061 H 0.55605 0.96576 0.52757 0.0
H1062 H 0.55247 0.93247 0.51584 0.0
H1063 H 0.50113 0.9324 0.48849 0.0
H1064 H 0.50446 0.96576 0.50061 0.0
H1065 H 0.52587 0.9183 0.46447 0.0
H1066 H 0.50298 0.91088 0.52382 0.0
H1067 H 0.50435 0.9165 0.559 0.0
H1068 H 0.54977 0.89288 0.5668 0.0
H1069 H 0.54883 0.88739 0.53166 0.0
C1070 C 0.51346 0.82873 0.44015 0.0
C1071 C 0.52395 0.81745 0.44868 0.0
C1072 C 0.51346 0.84667 0.44909 0.0
C1073 C 0.52456 0.85413 0.46633 0.0
C1074 C 0.53489 0.84268 0.47501 0.0
C1075 C 0.53442 0.82442 0.46638 0.0
C1076 C 0.52535 0.87379 0.4752 0.0
C1077 C 0.52525 0.87752 0.49509 0.0
C1078 C 0.52587 0.88885 0.46412 0.0
C1079 C 0.52818 0.88669 0.44364 0.0
C1080 C 0.54214 0.87941 0.43801 0.0
C1081 C 0.54427 0.87738 0.41868 0.0
C1082 C 0.53259 0.88272 0.40487 0.0
C1083 C 0.51879 0.89015 0.41036 0.0
C1084 C 0.51659 0.89219 0.42967 0.0
C1085 C 0.5439 0.95861 0.51926 0.0
C1086 C 0.53054 0.96836 0.51494 0.0
C1087 C 0.54188 0.93959 0.51264 0.0
C1088 C 0.52655 0.93002 0.50134 0.0
C1089 C 0.51304 0.93959 0.49727 0.0
C1090 C 0.51493 0.95858 0.50424 0.0
C1091 C 0.52517 0.91039 0.49272 0.0
C1092 C 0.5253 0.90678 0.47294 0.0
C1093 C 0.5254 0.89565 0.50401 0.0
C1094 C 0.5259 0.89885 0.52512 0.0
C1095 C 0.51334 0.90703 0.53304 0.0
C1096 C 0.51402 0.91016 0.55297 0.0
C1097 C 0.52715 0.90508 0.56513 0.0
C1098 C 0.53961 0.89682 0.55737 0.0
C1099 C 0.539 0.89368 0.53745 0.0
H1100 H 0.52766 0.90751 0.58056 0.0
H1101 H 0.53427 0.88114 0.38991 0.0
H1102 H 0.5067 0.28974 0.64399 0.0
H1103 H 0.48029 0.28323 0.6578 0.0
H1104 H 0.50919 0.27337 0.71032 0.0
H1105 H 0.53569 0.27959 0.6964 0.0
H1106 H 0.47957 0.24746 0.70017 0.0
H1107 H 0.49474 0.31524 0.70596 0.0
H1108 H 0.50172 0.34514 0.69313 0.0
H1109 H 0.45354 0.33239 0.65527 0.0
H1110 H 0.4464 0.30231 0.66771 0.0
H1111 H 0.41976 0.25864 0.76472 0.0
H1112 H 0.44406 0.25943 0.74729 0.0
H1113 H 0.41358 0.27218 0.69733 0.0
H1114 H 0.38903 0.27088 0.71442 0.0
H1115 H 0.44308 0.29543 0.7044 0.0
H1116 H 0.42605 0.23006 0.69756 0.0
H1117 H 0.41765 0.19853 0.70637 0.0
H1118 H 0.46669 0.20414 0.74146 0.0
H1119 H 0.4753 0.23587 0.73312 0.0
C1120 C 0.50747 0.28625 0.65851 0.0
C1121 C 0.52339 0.2854 0.66915 0.0
C1122 C 0.49232 0.28254 0.66642 0.0
C1123 C 0.49267 0.27804 0.68526 0.0
C1124 C 0.50852 0.27686 0.6958 0.0
C1125 C 0.5237 0.28054 0.68786 0.0
C1126 C 0.47662 0.27495 0.6941 0.0
C1127 C 0.47173 0.25806 0.70137 0.0
C1128 C 0.46587 0.28837 0.69494 0.0
C1129 C 0.47011 0.3065 0.68764 0.0
C1130 C 0.48569 0.31879 0.69482 0.0
C1131 C 0.48967 0.33576 0.68763 0.0
C1132 C 0.4781 0.34064 0.67336 0.0
C1133 C 0.4625 0.32859 0.6663 0.0
C1134 C 0.45848 0.31159 0.67342 0.0
C1135 C 0.41801 0.2612 0.74989 0.0
C1136 C 0.40227 0.26481 0.74115 0.0
C1137 C 0.43203 0.26169 0.73991 0.0
C1138 C 0.43076 0.26585 0.72091 0.0
C1139 C 0.41499 0.26905 0.71199 0.0
C1140 C 0.40093 0.26842 0.7219 0.0
C1141 C 0.44611 0.26804 0.71082 0.0
C1142 C 0.45088 0.28477 0.70327 0.0
C1143 C 0.4565 0.25429 0.70936 0.0
C1144 C 0.45124 0.23545 0.71491 0.0
C1145 C 0.43497 0.22468 0.70737 0.0
C1146 C 0.43019 0.20675 0.71223 0.0
C1147 C 0.44161 0.19936 0.72452 0.0
C1148 C 0.45784 0.2099 0.73198 0.0
C1149 C 0.46268 0.22787 0.72719 0.0
H1150 H 0.43791 0.18545 0.72821 0.0
H1151 H 0.48121 0.35379 0.6678 0.0
H1152 H 0.06875 0.82898 0.6868 0.0
H1153 H 0.07625 0.85736 0.67187 0.0
H1154 H 0.07706 0.82353 0.61831 0.0
H1155 H 0.06971 0.79533 0.63299 0.0
H1156 H 0.10376 0.85366 0.62663 0.0
H1157 H 0.0424 0.83914 0.62355 0.0
H1158 H 0.01579 0.83212 0.63742 0.0
H1159 H 0.029 0.88536 0.67303 0.0
H1160 H 0.05583 0.89257 0.65952 0.0
H1161 H 0.07623 0.90165 0.55039 0.0
H1162 H 0.08239 0.88103 0.57412 0.0
H1163 H 0.08429 0.92559 0.61992 0.0
H1164 H 0.07862 0.94654 0.59627 0.0
H1165 H 0.06001 0.89383 0.62039 0.0
H1166 H 0.11957 0.90969 0.61593 0.0
H1167 H 0.14479 0.91472 0.5994 0.0
H1168 H 0.1334 0.85703 0.57456 0.0
H1169 H 0.10794 0.85172 0.5907 0.0
C1170 C 0.07059 0.82769 0.67188 0.0
C1171 C 0.06846 0.81008 0.66095 0.0
C1172 C 0.07495 0.8438 0.66345 0.0
C1173 C 0.07718 0.84236 0.64408 0.0
C1174 C 0.0755 0.82481 0.63334 0.0
C1175 C 0.0711 0.80876 0.64169 0.0
C1176 C 0.07981 0.85899 0.63434 0.0
C1177 C 0.09429 0.86256 0.62528 0.0
C1178 C 0.06741 0.87047 0.63281 0.0
C1179 C 0.0512 0.86629 0.64073 0.0
C1180 C 0.03968 0.84928 0.63444 0.0
C1181 C 0.02456 0.84528 0.64221 0.0
C1182 C 0.02074 0.85825 0.65615 0.0
C1183 C 0.032 0.8753 0.66227 0.0
C1184 C 0.04716 0.87936 0.65456 0.0
C1185 C 0.07855 0.90725 0.56549 0.0
C1186 C 0.07675 0.9256 0.57152 0.0
C1187 C 0.08206 0.89548 0.57901 0.0
C1188 C 0.08382 0.90193 0.59866 0.0
C1189 C 0.08299 0.9205 0.60475 0.0
C1190 C 0.07962 0.93234 0.59126 0.0
C1191 C 0.08399 0.88856 0.61256 0.0
C1192 C 0.06984 0.88541 0.62223 0.0
C1193 C 0.09651 0.87723 0.61425 0.0
C1194 C 0.1118 0.88034 0.60448 0.0
C1195 C 0.12236 0.89811 0.60683 0.0
C1196 C 0.13672 0.901 0.59754 0.0
C1197 C 0.14069 0.88621 0.58592 0.0
C1198 C 0.13031 0.86848 0.58357 0.0
C1199 C 0.11593 0.86551 0.59281 0.0
H1200 H 0.15182 0.88848 0.57876 0.0
H1201 H 1.00903 0.85512 0.66217 0.0
H1202 H 0.47056 0.79947 0.87742 0.0
H1203 H 0.44265 0.79887 0.85886 0.0
H1204 H 0.4622 0.78484 0.80634 0.0
H1205 H 0.49042 0.78586 0.82485 0.0
H1206 H 0.44854 0.81559 0.80617 0.0
H1207 H 0.43185 0.75358 0.8215 0.0
H1208 H 0.42833 0.72886 0.84243 0.0
H1209 H 0.39651 0.75832 0.87358 0.0
H1210 H 0.40003 0.78336 0.85302 0.0
H1211 H 0.36211 0.79417 0.75088 0.0
H1212 H 0.39137 0.79315 0.76537 0.0
H1213 H 0.3844 0.82518 0.81752 0.0
H1214 H 0.3555 0.82684 0.80311 0.0
H1215 H 0.39122 0.78378 0.81617 0.0
H1216 H 0.41099 0.84704 0.80514 0.0
H1217 H 0.41401 0.87265 0.78523 0.0
H1218 H 0.43973 0.8413 0.74755 0.0
H1219 H 0.43659 0.81536 0.76712 0.0
C1220 C 0.46884 0.79597 0.86193 0.0
C1221 C 0.48259 0.79299 0.85244 0.0
C1222 C 0.45287 0.79544 0.8514 0.0
C1223 C 0.45047 0.79166 0.83133 0.0
C1224 C 0.46395 0.78771 0.82188 0.0
C1225 C 0.47998 0.78835 0.83241 0.0
C1226 C 0.43464 0.79446 0.82022 0.0
C1227 C 0.43601 0.80831 0.80802 0.0
C1228 C 0.4184 0.78544 0.82333 0.0
C1229 C 0.4163 0.77041 0.83578 0.0
C1230 C 0.42422 0.75487 0.83291 0.0
C1231 C 0.4222 0.74078 0.8447 0.0
C1232 C 0.41223 0.74203 0.85935 0.0
C1233 C 0.40423 0.75737 0.86223 0.0
C1234 C 0.40622 0.7715 0.8505 0.0
C1235 C 0.36711 0.80162 0.76513 0.0
C1236 C 0.35665 0.81046 0.77595 0.0
C1237 C 0.38367 0.80096 0.77335 0.0
C1238 C 0.38966 0.80896 0.79241 0.0
C1239 C 0.37976 0.81901 0.80273 0.0
C1240 C 0.36337 0.82003 0.79441 0.0
C1241 C 0.40532 0.80479 0.8023 0.0
C1242 C 0.40383 0.79077 0.81423 0.0
C1243 C 0.42144 0.81373 0.79917 0.0
C1244 C 0.42335 0.82921 0.78739 0.0
C1245 C 0.4171 0.84553 0.79247 0.0
C1246 C 0.41888 0.86012 0.78129 0.0
C1247 C 0.427 0.85857 0.76509 0.0
C1248 C 0.4334 0.84245 0.76008 0.0
C1249 C 0.43163 0.82781 0.7712 0.0
H1250 H 0.42838 0.86989 0.75646 0.0
H1251 H 0.41068 0.73111 0.86844 0.0
H1252 H 0.56742 0.23278 0.12467 0.0
H1253 H 0.56714 0.2065 0.10024 0.0
H1254 H 0.54454 0.16828 0.13617 0.0
H1255 H 0.54504 0.19448 0.16085 0.0
H1256 H 0.57078 0.15671 0.12131 0.0
H1257 H 0.52011 0.17976 0.09883 0.0
H1258 H 0.50405 0.20394 0.08923 0.0
H1259 H 0.53385 0.21316 0.0439 0.0
H1260 H 0.55024 0.1892 0.05344 0.0
H1261 H 0.53313 0.07527 0.06299 0.0
H1262 H 0.53973 0.10493 0.0834 0.0
H1263 H 0.55878 0.13216 0.03734 0.0
H1264 H 0.55098 0.10206 0.016 0.0
H1265 H 0.53883 0.15159 0.05531 0.0
H1266 H 0.58919 0.12666 0.07876 0.0
H1267 H 0.60382 0.10183 0.08958 0.0
H1268 H 0.57167 0.09439 0.1331 0.0
H1269 H 0.55742 0.11982 0.12298 0.0
C1270 C 0.5624 0.21877 0.12735 0.0
C1271 C 0.55621 0.21556 0.14456 0.0
C1272 C 0.56221 0.20384 0.11339 0.0
C1273 C 0.55569 0.1856 0.11644 0.0
C1274 C 0.54962 0.18235 0.13367 0.0
C1275 C 0.54986 0.19726 0.14767 0.0
C1276 C 0.55527 0.16979 0.10171 0.0
C1277 C 0.56381 0.15558 0.10688 0.0
C1278 C 0.54647 0.16863 0.08283 0.0
C1279 C 0.53652 0.18287 0.07697 0.0
C1280 C 0.52332 0.18705 0.08691 0.0
C1281 C 0.51414 0.2007 0.08147 0.0
C1282 C 0.51796 0.21013 0.066 0.0
C1283 C 0.53092 0.20588 0.0559 0.0
C1284 C 0.54015 0.19226 0.06131 0.0
C1285 C 0.5389 0.08749 0.05716 0.0
C1286 C 0.54178 0.08646 0.038 0.0
C1287 C 0.54281 0.10443 0.06894 0.0
C1288 C 0.55035 0.12057 0.06209 0.0
C1289 C 0.55322 0.1197 0.0429 0.0
C1290 C 0.54883 0.10264 0.03081 0.0
C1291 C 0.55418 0.13837 0.07499 0.0
C1292 C 0.54624 0.15298 0.06955 0.0
C1293 C 0.56337 0.13987 0.09374 0.0
C1294 C 0.57225 0.125 0.10012 0.0
C1295 C 0.5853 0.11972 0.09065 0.0
C1296 C 0.59353 0.10557 0.09667 0.0
C1297 C 0.58855 0.09634 0.11187 0.0
C1298 C 0.57553 0.10151 0.12132 0.0
C1299 C 0.56751 0.11592 0.1156 0.0
H1300 H 0.59484 0.08526 0.11637 0.0
H1301 H 0.51085 0.22069 0.06181 0.0
H1302 H 0.08774 0.28708 0.37991 0.0
H1303 H 0.11105 0.28369 0.36191 0.0
H1304 H 0.08968 0.31409 0.31871 0.0
H1305 H 0.06579 0.31681 0.33633 0.0
H1306 H 0.09793 0.28343 0.30278 0.0
H1307 H 0.12657 0.33428 0.35055 0.0
H1308 H 0.13503 0.35098 0.38351 0.0
H1309 H 0.16088 0.3072 0.40007 0.0
H1310 H 0.15239 0.29012 0.36728 0.0
H1311 H 0.17505 0.27853 0.26129 0.0
H1312 H 0.15092 0.2894 0.27397 0.0
H1313 H 0.16044 0.26134 0.3238 0.0
H1314 H 0.18462 0.25087 0.3114 0.0
H1315 H 0.15882 0.2972 0.33351 0.0
H1316 H 0.12653 0.24442 0.28797 0.0
H1317 H 0.11702 0.22641 0.2557 0.0
H1318 H 0.09768 0.27305 0.23553 0.0
H1319 H 0.10729 0.29142 0.26764 0.0
C1320 C 0.08816 0.29329 0.36674 0.0
C1321 C 0.07513 0.30231 0.35949 0.0
C1322 C 0.10148 0.29141 0.35652 0.0
C1323 C 0.1022 0.299 0.33923 0.0
C1324 C 0.08934 0.30829 0.33212 0.0
C1325 C 0.07581 0.30989 0.34219 0.0
C1326 C 0.11591 0.29614 0.32813 0.0
C1327 C 0.11131 0.28683 0.3093 0.0
C1328 C 0.13326 0.30042 0.33683 0.0
C1329 C 0.13883 0.31093 0.35644 0.0
C1330 C 0.13404 0.32821 0.36123 0.0
C1331 C 0.13883 0.33773 0.37989 0.0
C1332 C 0.14849 0.33016 0.39387 0.0
C1333 C 0.15342 0.31307 0.38921 0.0
C1334 C 0.14866 0.30348 0.37057 0.0
C1335 C 0.1717 0.27449 0.27477 0.0
C1336 C 0.18156 0.26405 0.28553 0.0
C1337 C 0.15803 0.28067 0.28197 0.0
C1338 C 0.15407 0.27619 0.2998 0.0
C1339 C 0.16348 0.26505 0.31008 0.0
C1340 C 0.17719 0.25906 0.30301 0.0
C1341 C 0.14074 0.28382 0.30851 0.0
C1342 C 0.14548 0.29418 0.32685 0.0
C1343 C 0.12355 0.28043 0.29938 0.0
C1344 C 0.11782 0.26937 0.28011 0.0
C1345 C 0.12039 0.25089 0.2766 0.0
C1346 C 0.11496 0.2406 0.25835 0.0
C1347 C 0.10681 0.2486 0.24355 0.0
C1348 C 0.10403 0.26689 0.24699 0.0
C1349 C 0.10946 0.27724 0.2652 0.0
H1350 H 0.1026 0.24061 0.22944 0.0
H1351 H 0.15215 0.33753 0.40832 0.0
H1352 H 0.97015 0.99227 0.21147 0.0
H1353 H 0.98592 0.99778 0.18472 0.0
H1354 H 0.97337 0.05282 0.18555 0.0
H1355 H 0.95656 0.04669 0.21124 0.0
H1356 H 0.97146 0.04114 0.1516 0.0
H1357 H 0.01541 0.04232 0.20427 0.0
H1358 H 0.03113 0.03137 0.23185 0.0
H1359 H 0.03786 0.98353 0.19505 0.0
H1360 H 0.02197 0.99406 0.16729 0.0
H1361 H 0.03854 0.07372 0.09746 0.0
H1362 H 0.02315 0.06908 0.12489 0.0
H1363 H 0.01557 1.00937 0.1095 0.0
H1364 H 0.03048 0.01389 0.08192 0.0
H1365 H 0.0288 0.02467 0.15086 0.0
H1366 H 0.98398 0.02694 0.09787 0.0
H1367 H 0.97175 0.04256 0.07167 0.0
H1368 H 0.97031 0.08996 0.11233 0.0
H1369 H 0.98293 0.07478 0.13872 0.0
C1370 C 0.97073 1.0055 0.20584 0.0
C1371 C 0.96211 0.01903 0.2134 0.0
C1372 C 0.97992 1.00875 0.19066 0.0
C1373 C 0.98127 0.02593 0.18322 0.0
C1374 C 0.9726 0.03943 0.19086 0.0
C1375 C 0.96299 0.03594 0.20562 0.0
C1376 C 0.99136 0.02974 0.16728 0.0
C1377 C 0.9841 0.03774 0.15172 0.0
C1378 C 1.00791 0.02534 0.16707 0.0
C1379 C 0.01734 0.01887 0.18375 0.0
C1380 C 0.02012 0.02938 0.20209 0.0
C1381 C 0.02908 0.02327 0.21775 0.0
C1382 C 0.03544 1.00674 0.21521 0.0
C1383 C 0.03289 0.99631 0.197 0.0
C1384 C 0.02392 1.00235 0.1813 0.0
C1385 C 0.03344 0.05964 0.09987 0.0
C1386 C 0.03555 0.0442 0.08748 0.0
C1387 C 0.02475 0.057 0.11555 0.0
C1388 C 0.01829 0.03888 0.11921 0.0
C1389 C 0.02051 0.02345 0.10694 0.0
C1390 C 0.0289 0.02608 0.0911 0.0
C1391 C 1.00879 0.0359 0.13556 0.0
C1392 C 0.01618 0.02807 0.15103 0.0
C1393 C 0.99266 0.04101 0.13601 0.0
C1394 C 0.98452 0.04979 0.12024 0.0
C1395 C 0.98115 0.04074 0.10121 0.0
C1396 C 0.97416 0.04952 0.08632 0.0
C1397 C 0.97028 0.06726 0.09033 0.0
C1398 C 0.97334 0.07623 0.10924 0.0
C1399 C 0.98041 0.06755 0.12417 0.0
H1400 H 0.96488 0.07404 0.07878 0.0
H1401 H 0.04239 1.00203 0.22735 0.0
H1402 H 0.30487 0.6627 0.47275 0.0
H1403 H 0.28788 0.67669 0.44906 0.0
H1404 H 0.31098 0.73167 0.47871 0.0
H1405 H 0.32834 0.71793 0.50197 0.0
H1406 H 0.26423 0.69793 0.46045 0.0
H1407 H 0.31098 0.76227 0.44938 0.0
H1408 H 0.3422 0.77167 0.45067 0.0
H1409 H 0.34525 0.71551 0.42906 0.0
H1410 H 0.31403 0.70584 0.4274 0.0
H1411 H 0.24928 0.78733 0.42241 0.0
H1412 H 0.25371 0.76386 0.44355 0.0
H1413 H 0.24656 0.72182 0.39424 0.0
H1414 H 0.24236 0.74487 0.37314 0.0
H1415 H 0.28403 0.74688 0.42097 0.0
H1416 H 0.22906 0.70204 0.4142 0.0
H1417 H 0.19874 0.69471 0.41847 0.0
H1418 H 0.21277 0.71379 0.47895 0.0
H1419 H 0.24317 0.7215 0.47494 0.0
C1420 C 0.30689 0.67779 0.47368 0.0
C1421 C 0.31778 0.68928 0.4892 0.0
C1422 C 0.297 0.6857 0.46035 0.0
C1423 C 0.29811 0.70509 0.46239 0.0
C1424 C 0.31007 0.71664 0.4769 0.0
C1425 C 0.32004 0.70878 0.49009 0.0
C1426 C 0.28596 0.71332 0.45029 0.0
C1427 C 0.26847 0.70838 0.4515 0.0
C1428 C 0.29171 0.7273 0.43922 0.0
C1429 C 0.31018 0.73334 0.43829 0.0
C1430 C 0.31828 0.752 0.44462 0.0
C1431 C 0.33599 0.75735 0.44555 0.0
C1432 C 0.34571 0.74416 0.44012 0.0
C1433 C 0.33772 0.72567 0.43342 0.0
C1434 C 0.32001 0.72026 0.43242 0.0
C1435 C 0.24754 0.77285 0.41613 0.0
C1436 C 0.24626 0.76812 0.39616 0.0
C1437 C 0.24998 0.75945 0.42823 0.0
C1438 C 0.25072 0.74132 0.4203 0.0
C1439 C 0.24591 0.73578 0.40053 0.0
C1440 C 0.24351 0.74912 0.38845 0.0
C1441 C 0.26224 0.73115 0.43075 0.0
C1442 C 0.27973 0.73606 0.42951 0.0
C1443 C 0.25649 0.71727 0.44183 0.0
C1444 C 0.23831 0.71252 0.44423 0.0
C1445 C 0.22565 0.70486 0.42836 0.0
C1446 C 0.20846 0.70059 0.43074 0.0
C1447 C 0.20382 0.70383 0.44896 0.0
C1448 C 0.21637 0.71131 0.46484 0.0
C1449 C 0.23357 0.71561 0.46252 0.0
H1450 H 0.19051 0.7005 0.45078 0.0
H1451 H 0.35944 0.7483 0.44094 0.0
H1452 H 0.65907 1.00838 0.71957 0.0
H1453 H 0.64292 0.01034 0.68818 0.0
H1454 H 0.59864 0.01633 0.71488 0.0
H1455 H 0.61466 0.01364 0.74618 0.0
H1456 H 0.58641 0.99718 0.68305 0.0
H1457 H 0.6284 0.0541 0.69556 0.0
H1458 H 0.65748 0.07333 0.70303 0.0
H1459 H 0.67106 0.04581 0.65224 0.0
H1460 H 0.64212 0.02625 0.6446 0.0
H1461 H 0.53774 0.02658 0.60423 0.0
H1462 H 0.55524 0.02449 0.63443 0.0
H1463 H 0.59745 0.01755 0.60447 0.0
H1464 H 0.57998 0.02035 0.57417 0.0
H1465 H 0.61127 0.0364 0.63723 0.0
H1466 H 0.56914 0.97986 0.62449 0.0
H1467 H 0.5401 0.96053 0.61711 0.0
H1468 H 0.52686 0.98727 0.66852 0.0
H1469 H 0.55576 1.00692 0.67607 0.0
C1470 C 0.64587 0.01008 0.71886 0.0
C1471 C 0.6384 0.01082 0.73587 0.0
C1472 C 0.63653 0.01143 0.70065 0.0
C1473 C 0.61928 0.01397 0.69848 0.0
C1474 C 0.61178 0.01447 0.71551 0.0
C1475 C 0.62108 0.01295 0.73369 0.0
C1476 C 0.60902 0.01579 0.67878 0.0
C1477 C 0.59194 1.00604 0.6733 0.0
C1478 C 0.61581 0.02681 0.66511 0.0
C1479 C 0.63316 0.0386 0.66962 0.0
C1480 C 0.63762 0.05208 0.68605 0.0
C1481 C 0.65408 0.06305 0.6903 0.0
C1482 C 0.66612 0.06076 0.67814 0.0
C1483 C 0.66173 0.04754 0.66166 0.0
C1484 C 0.6453 0.03653 0.65735 0.0
C1485 C 0.55076 0.02462 0.60382 0.0
C1486 C 0.55705 0.02363 0.58605 0.0
C1487 C 0.56089 0.0232 0.62143 0.0
C1488 C 0.57792 0.02025 0.6224 0.0
C1489 C 0.58445 0.01965 0.60472 0.0
C1490 C 0.57428 0.02128 0.58701 0.0
C1491 C 0.58862 0.01793 0.64164 0.0
C1492 C 0.60577 0.02755 0.64701 0.0
C1493 C 0.5819 1.00678 0.65524 0.0
C1494 C 0.56456 0.99495 0.65076 0.0
C1495 C 0.56 0.98168 0.63416 0.0
C1496 C 0.54357 0.97067 0.62995 0.0
C1497 C 0.53163 0.9727 0.64232 0.0
C1498 C 0.53611 0.98572 0.65894 0.0
C1499 C 0.55252 0.99679 0.6632 0.0
H1500 H 0.51892 0.96416 0.63904 0.0
H1501 H 0.67885 0.06926 0.68146 0.0
H1502 H 0.29203 0.37794 0.98062 0.0
H1503 H 0.29148 0.35868 0.95014 0.0
H1504 H 0.32246 0.32446 0.97922 0.0
H1505 H 0.3233 0.34397 0.00986 0.0
H1506 H 0.33459 0.33417 0.94756 0.0
H1507 H 0.27961 0.30802 0.96209 0.0
H1508 H 0.25093 0.30806 0.97096 0.0
H1509 H 0.23638 0.33305 0.92068 0.0
H1510 H 0.26506 0.33346 0.91167 0.0
H1511 H 0.32479 0.27666 0.85532 0.0
H1512 H 0.32602 0.28717 0.88978 0.0
H1513 H 0.29138 0.32438 0.87552 0.0
H1514 H 0.28963 0.31352 0.84165 0.0
H1515 H 0.2812 0.30701 0.90237 0.0
H1516 H 0.33659 0.33872 0.89086 0.0
H1517 H 0.36529 0.34031 0.88153 0.0
H1518 H 0.37882 0.30682 0.92522 0.0
H1519 H 0.35011 0.30486 0.93464 0.0
C1520 C 0.2986 0.36621 0.98058 0.0
C1521 C 0.3077 0.36246 0.99763 0.0
C1522 C 0.29819 0.35514 0.96315 0.0
C1523 C 0.30674 0.33996 0.96242 0.0
C1524 C 0.31572 0.33605 0.97947 0.0
C1525 C 0.31614 0.34717 0.99695 0.0
C1526 C 0.307 0.3289 0.94366 0.0
C1527 C 0.3229 0.32791 0.9378 0.0
C1528 C 0.29178 0.32098 0.93081 0.0
C1529 C 0.27454 0.32087 0.93628 0.0
C1530 C 0.27035 0.31367 0.95301 0.0
C1531 C 0.25408 0.3136 0.95805 0.0
C1532 C 0.24185 0.32058 0.94641 0.0
C1533 C 0.24586 0.32766 0.9297 0.0
C1534 C 0.26212 0.3278 0.92461 0.0
C1535 C 0.31756 0.28715 0.85966 0.0
C1536 C 0.307 0.29414 0.84585 0.0
C1537 C 0.31828 0.29317 0.87931 0.0
C1538 C 0.30875 0.30657 0.88529 0.0
C1539 C 0.29866 0.31387 0.87136 0.0
C1540 C 0.29772 0.30767 0.85194 0.0
C1541 C 0.30877 0.31307 0.90592 0.0
C1542 C 0.2929 0.31305 0.91221 0.0
C1543 C 0.32399 0.32034 0.91902 0.0
C1544 C 0.34116 0.32144 0.91327 0.0
C1545 C 0.34564 0.33157 0.89836 0.0
C1546 C 0.36191 0.33256 0.89307 0.0
C1547 C 0.37385 0.32362 0.90273 0.0
C1548 C 0.36955 0.3137 0.91772 0.0
C1549 C 0.35329 0.31264 0.92303 0.0
H1550 H 0.38644 0.32441 0.89863 0.0
H1551 H 0.22926 0.32049 0.95033 0.0
H1552 H 0.98689 0.03682 0.31017 0.0
H1553 H 1.00274 0.03947 0.34272 0.0
H1554 H 0.96218 0.99921 0.35745 0.0
H1555 H 0.94605 0.99722 0.32537 0.0
H1556 H 0.97138 0.02552 0.38531 0.0
H1557 H 1.00191 0.98871 0.34713 0.0
H1558 H 0.0178 0.98156 0.32063 0.0
H1559 H 0.05674 0.02999 0.34245 0.0
H1560 H 0.04094 0.03758 0.36892 0.0
H1561 H 0.01775 0.99432 0.46491 0.0
H1562 H 1.00583 0.99415 0.43119 0.0
H1563 H 0.03302 0.05059 0.43296 0.0
H1564 H 0.04463 0.05111 0.46691 0.0
H1565 H 0.032 0.0179 0.39744 0.0
H1566 H 0.99949 0.0542 0.43562 0.0
H1567 H 0.98374 0.05855 0.46285 0.0
H1568 H 0.94826 1.00741 0.44089 0.0
H1569 H 0.96405 1.00259 0.41371 0.0
C1570 C 0.98142 0.02855 0.32039 0.0
C1571 C 0.96529 0.01679 0.31528 0.0
C1572 C 0.9905 0.02999 0.33894 0.0
C1573 C 0.98376 0.01935 0.35249 0.0
C1574 C 0.96764 1.0076 0.3473 0.0
C1575 C 0.95846 1.00641 0.32893 0.0
C1576 C 0.99326 0.02054 0.37219 0.0
C1577 C 0.9846 0.02373 0.38784 0.0
C1578 C 0.0106 0.01844 0.37567 0.0
C1579 C 0.02016 0.01382 0.35986 0.0
C1580 C 0.0138 0.99791 0.34618 0.0
C1581 C 0.0228 0.99377 0.33118 0.0
C1582 C 0.03824 1.00535 0.32982 0.0
C1583 C 0.04476 0.02105 0.3435 0.0
C1584 C 0.03579 0.02528 0.3585 0.0
C1585 C 0.02134 1.00662 0.45806 0.0
C1586 C 0.032 0.02279 0.46849 0.0
C1587 C 0.01455 1.00648 0.43885 0.0
C1588 C 0.01862 0.02235 0.42975 0.0
C1589 C 0.02985 0.03822 0.43984 0.0
C1590 C 0.03635 0.03853 0.45919 0.0
C1591 C 0.01004 0.02278 0.41016 0.0
C1592 C 0.01884 0.01985 0.39468 0.0
C1593 C 0.99279 0.02483 0.40676 0.0
C1594 C 0.98304 0.02794 0.42278 0.0
C1595 C 0.98842 0.0438 0.4367 0.0
C1596 C 0.97948 0.04637 0.45211 0.0
C1597 C 0.96503 0.03323 0.45364 0.0
C1598 C 0.95947 0.01755 0.43971 0.0
C1599 C 0.96841 0.0149 0.4243 0.0
H1600 H 0.95813 0.03523 0.46558 0.0
H1601 H 0.04519 1.00212 0.31819 0.0
H1602 H 0.33539 0.72779 0.57918 0.0
H1603 H 0.33623 0.74742 0.60943 0.0
H1604 H 0.33057 0.69851 0.6387 0.0
H1605 H 0.3294 0.6787 0.60839 0.0
H1606 H 0.3041 0.71718 0.63869 0.0
H1607 H 0.36552 0.7321 0.65218 0.0
H1608 H 0.3945 0.74261 0.64474 0.0
H1609 H 0.38223 0.79597 0.63525 0.0
H1610 H 0.35309 0.78568 0.64237 0.0
H1611 H 0.29453 0.76166 0.72615 0.0
H1612 H 0.30371 0.74411 0.70008 0.0
H1613 H 0.31926 0.79513 0.67624 0.0
H1614 H 0.31257 0.81325 0.70459 0.0
H1615 H 0.34164 0.77525 0.67357 0.0
H1616 H 0.27993 0.76036 0.65818 0.0
H1617 H 0.25061 0.75007 0.66486 0.0
H1618 H 0.26249 0.69695 0.67597 0.0
H1619 H 0.29192 0.70699 0.6696 0.0
C1620 C 0.33478 0.72129 0.59217 0.0
C1621 C 0.33188 0.70181 0.59155 0.0
C1622 C 0.33548 0.73251 0.60942 0.0
C1623 C 0.33347 0.72427 0.62609 0.0
C1624 C 0.33219 0.70496 0.62583 0.0
C1625 C 0.33137 0.69372 0.60856 0.0
C1626 C 0.32893 0.73514 0.64241 0.0
C1627 C 0.3124 0.72971 0.64664 0.0
C1628 C 0.33954 0.75183 0.65187 0.0
C1629 C 0.35709 0.75807 0.64769 0.0
C1630 C 0.36896 0.74602 0.64837 0.0
C1631 C 0.38542 0.75195 0.64423 0.0
C1632 C 0.39019 0.76993 0.63949 0.0
C1633 C 0.37852 0.78204 0.63892 0.0
C1634 C 0.36204 0.77618 0.64303 0.0
C1635 C 0.30015 0.76921 0.71554 0.0
C1636 C 0.30332 0.78876 0.71749 0.0
C1637 C 0.30503 0.7591 0.70038 0.0
C1638 C 0.31166 0.76827 0.68593 0.0
C1639 C 0.31408 0.78785 0.68731 0.0
C1640 C 0.31016 0.79813 0.70328 0.0
C1641 C 0.31676 0.7573 0.66994 0.0
C1642 C 0.33332 0.76273 0.66567 0.0
C1643 C 0.30604 0.74068 0.66015 0.0
C1644 C 0.28815 0.73447 0.66346 0.0
C1645 C 0.27629 0.7465 0.66208 0.0
C1646 C 0.25966 0.74071 0.66583 0.0
C1647 C 0.2547 0.72288 0.67085 0.0
C1648 C 0.26634 0.71076 0.67207 0.0
C1649 C 0.28298 0.71647 0.66835 0.0
H1650 H 0.24183 0.71844 0.67378 0.0
H1651 H 0.40295 0.7745 0.63629 0.0
H1652 H 0.62787 0.9875 0.8403 0.0
H1653 H 0.61257 0.99112 0.86767 0.0
H1654 H 0.63368 0.05015 0.87744 0.0
H1655 H 0.65023 0.04602 0.85111 0.0
H1656 H 0.62988 0.04553 0.90919 0.0
H1657 H 0.58541 0.02229 0.85612 0.0
H1658 H 0.56946 1.00102 0.82761 0.0
H1659 H 0.56344 0.95575 0.86139 0.0
H1660 H 0.57952 0.97672 0.89006 0.0
H1661 H 0.57193 0.0642 0.9763 0.0
H1662 H 0.58706 0.06174 0.94858 0.0
H1663 H 0.57114 1.00184 0.94091 0.0
H1664 H 0.55462 1.00468 0.9674 0.0
H1665 H 0.57212 1.008 0.90796 0.0
H1666 H 0.61877 0.03576 0.96178 0.0
H1667 H 0.63062 0.06075 0.98875 0.0
H1668 H 0.62864 0.10217 0.95047 0.0
H1669 H 0.61672 0.07736 0.92322 0.0
C1670 C 0.62933 1.00131 0.84823 0.0
C1671 C 0.64052 0.01639 0.84296 0.0
C1672 C 0.62016 1.00354 0.86405 0.0
C1673 C 0.62093 0.02118 0.87509 0.0
C1674 C 0.63229 0.03624 0.86978 0.0
C1675 C 0.64189 0.03388 0.85436 0.0
C1676 C 0.61038 0.02393 0.89201 0.0
C1677 C 0.61719 0.03727 0.9085 0.0
C1678 C 0.59352 0.01363 0.89228 0.0
C1679 C 0.58382 1.00101 0.87516 0.0
C1680 C 0.58075 1.00777 0.85743 0.0
C1681 C 0.57169 0.99578 0.84125 0.0
C1682 C 0.56549 0.97703 0.84267 0.0
C1683 C 0.56828 0.97026 0.8603 0.0
C1684 C 0.57736 0.9822 0.87652 0.0
C1685 C 0.57172 0.05045 0.96884 0.0
C1686 C 0.56214 0.03465 0.97486 0.0
C1687 C 0.58077 0.04893 0.95282 0.0
C1688 C 0.58139 0.03141 0.9423 0.0
C1689 C 0.57152 0.01567 0.94828 0.0
C1690 C 0.56205 0.01727 0.96389 0.0
C1691 C 0.59176 0.02928 0.92515 0.0
C1692 C 0.58489 0.01608 0.90861 0.0
C1693 C 0.60829 0.04012 0.92455 0.0
C1694 C 0.61679 0.05476 0.94056 0.0
C1695 C 0.62099 0.05019 0.95913 0.0
C1696 C 0.62763 0.06434 0.97447 0.0
C1697 C 0.63023 0.08306 0.97138 0.0
C1698 C 0.62649 0.08767 0.95286 0.0
C1699 C 0.61988 0.07358 0.93745 0.0
H1700 H 0.63527 0.09401 0.98328 0.0
H1701 H 0.55848 0.96776 0.83013 0.0
H1702 H 0.31947 0.34807 0.08599 0.0
H1703 H 0.31533 0.33073 0.1131 0.0
H1704 H 0.29063 0.37328 0.13794 0.0
H1705 H 0.2957 0.39117 0.11134 0.0
H1706 H 0.30871 0.364 0.16512 0.0
H1707 H 0.26865 0.32672 0.11353 0.0
H1708 H 0.25854 0.30852 0.08143 0.0
H1709 H 0.29237 0.27055 0.09422 0.0
H1710 H 0.30284 0.28865 0.12631 0.0
H1711 H 0.27826 0.31168 0.23587 0.0
H1712 H 0.27981 0.32803 0.20779 0.0
H1713 H 0.30605 0.28705 0.18269 0.0
H1714 H 0.303 0.26968 0.21021 0.0
H1715 H 0.28629 0.29571 0.15564 0.0
H1716 H 0.32668 0.33592 0.20806 0.0
H1717 H 0.33353 0.35365 0.24068 0.0
H1718 H 0.29506 0.38605 0.22608 0.0
H1719 H 0.28796 0.36845 0.19343 0.0
C1720 C 0.31321 0.35376 0.09727 0.0
C1721 C 0.30795 0.37104 0.0965 0.0
C1722 C 0.31066 0.3437 0.11273 0.0
C1723 C 0.30228 0.35035 0.12756 0.0
C1724 C 0.2971 0.3677 0.12679 0.0
C1725 C 0.29999 0.37796 0.11153 0.0
C1726 C 0.29936 0.33958 0.14409 0.0
C1727 C 0.3036 0.3491 0.16292 0.0
C1728 C 0.29287 0.32003 0.14156 0.0
C1729 C 0.28665 0.30916 0.12224 0.0
C1730 C 0.27403 0.31457 0.10944 0.0
C1731 C 0.26821 0.30425 0.09126 0.0
C1732 C 0.27484 0.28842 0.08577 0.0
C1733 C 0.28727 0.28283 0.09848 0.0
C1734 C 0.29313 0.29311 0.11667 0.0
C1735 C 0.28442 0.30619 0.22438 0.0
C1736 C 0.29078 0.28956 0.22534 0.0
C1737 C 0.28544 0.31567 0.20833 0.0
C1738 C 0.29366 0.30931 0.19323 0.0
C1739 C 0.2998 0.29247 0.19412 0.0
C1740 C 0.29818 0.28259 0.2099 0.0
C1741 C 0.29585 0.32011 0.17658 0.0
C1742 C 0.29146 0.3106 0.15776 0.0
C1743 C 0.30191 0.33972 0.17907 0.0
C1744 C 0.3068 0.35087 0.19836 0.0
C1745 C 0.31975 0.34688 0.21181 0.0
C1746 C 0.32365 0.35688 0.23031 0.0
C1747 C 0.31474 0.37097 0.23545 0.0
C1748 C 0.30198 0.37517 0.22207 0.0
C1749 C 0.29806 0.36523 0.20356 0.0
H1750 H 0.31772 0.37864 0.2498 0.0
H1751 H 0.27032 0.28045 0.07169 0.0
H1752 H 0.21745 0.88118 0.04067 0.0
H1753 H 0.20682 0.90581 0.05846 0.0
H1754 H 0.1906 0.92606 0.00521 0.0
H1755 H 0.20255 0.90219 0.98755 0.0
H1756 H 0.20949 0.95283 0.02921 0.0
H1757 H 0.16222 0.90157 0.03591 0.0
H1758 H 0.1525 0.87109 0.04662 0.0
H1759 H 0.1776 0.89267 0.1041 0.0
H1760 H 0.18757 0.92319 0.09366 0.0
H1761 H 0.14603 1.00101 0.03176 0.0
H1762 H 0.16415 0.97796 0.02977 0.0
H1763 H 0.17575 0.98428 0.09172 0.0
H1764 H 0.15642 1.00685 0.09388 0.0
H1765 H 0.16745 0.94737 0.07466 0.0
H1766 H 0.20697 1.00151 0.06812 0.0
H1767 H 0.21556 0.03181 0.05666 0.0
H1768 H 0.20474 1.00494 0.99826 0.0
H1769 H 0.19585 0.97453 0.00931 0.0
C1770 C 0.2109 0.89038 0.03272 0.0
C1771 C 0.21045 0.88977 0.01278 0.0
C1772 C 0.20495 0.90452 0.04292 0.0
C1773 C 0.19784 0.91765 0.03314 0.0
C1774 C 0.19611 0.91603 0.01299 0.0
C1775 C 0.20262 0.90229 1.00287 0.0
C1776 C 0.1935 0.93406 0.04377 0.0
C1777 C 0.20027 0.95165 0.03912 0.0
C1778 C 0.18244 0.93261 0.0577 0.0
C1779 C 0.1757 0.91456 0.06401 0.0
C1780 C 0.16563 0.89978 0.05083 0.0
C1781 C 0.1601 0.88251 0.05684 0.0
C1782 C 0.16446 0.87994 0.07602 0.0
C1783 C 0.17424 0.89467 0.08926 0.0
C1784 C 0.1798 0.91196 0.08331 0.0
C1785 C 0.15234 0.99747 0.045 0.0
C1786 C 0.14978 1.00553 0.06298 0.0
C1787 C 0.16286 0.9845 0.04384 0.0
C1788 C 0.17152 0.97985 0.06062 0.0
C1789 C 0.16925 0.98799 0.07868 0.0
C1790 C 0.1584 1.00088 0.07987 0.0
C1791 C 0.18221 0.96573 0.05861 0.0
C1792 C 0.17702 0.94862 0.06516 0.0
C1793 C 0.19469 0.96757 0.04632 0.0
C1794 C 0.20087 0.9857 0.0396 0.0
C1795 C 0.20647 1.00205 0.05284 0.0
C1796 C 0.21135 0.01926 0.0464 0.0
C1797 C 0.21074 0.02029 0.02675 0.0
C1798 C 0.20529 1.0041 0.01348 0.0
C1799 C 0.20038 0.98686 0.01983 0.0
H1800 H 0.21446 0.03364 0.0218 0.0
H1801 H 0.16023 0.86653 0.08063 0.0
H1802 H 0.73145 0.60464 0.00559 0.0
H1803 H 0.7034 0.58663 0.00828 0.0
H1804 H 0.6851 0.6378 0.02123 0.0
H1805 H 0.71331 0.65588 0.01897 0.0
H1806 H 0.67362 0.61384 0.0439 0.0
H1807 H 0.67364 0.60972 0.97587 0.0
H1808 H 0.68533 0.6033 0.94588 0.0
H1809 H 0.68346 0.54609 0.95512 0.0
H1810 H 0.67196 0.55224 0.9853 0.0
H1811 H 0.58701 0.5652 0.03756 0.0
H1812 H 0.61274 0.58659 0.03318 0.0
H1813 H 0.6335 0.53952 0.01117 0.0
H1814 H 0.60692 0.51866 0.01314 0.0
H1815 H 0.64298 0.56382 0.992 0.0
H1816 H 0.64459 0.56825 0.06121 0.0
H1817 H 0.63353 0.57491 0.09159 0.0
H1818 H 0.6329 0.63133 0.08075 0.0
H1819 H 0.64373 0.62492 0.05019 0.0
C1820 C 0.72144 0.61209 0.0089 0.0
C1821 C 0.72468 0.63177 0.01187 0.0
C1822 C 0.7053 0.60174 0.01039 0.0
C1823 C 0.69183 0.61073 0.01469 0.0
C1824 C 0.69512 0.6304 0.01784 0.0
C1825 C 0.71129 0.64077 0.01642 0.0
C1826 C 0.67441 0.59963 0.01592 0.0
C1827 C 0.66684 0.60303 0.03243 0.0
C1828 C 0.66546 0.58528 1.0012 0.0
C1829 C 0.67206 0.58148 0.98289 0.0
C1830 C 0.6758 0.5958 0.97154 0.0
C1831 C 0.68238 0.59221 0.95451 0.0
C1832 C 0.68516 0.57431 0.94862 0.0
C1833 C 0.68131 0.55995 0.95971 0.0
C1834 C 0.67473 0.56347 0.97676 0.0
C1835 C 0.59664 0.55952 0.03091 0.0
C1836 C 0.59434 0.5402 0.02489 0.0
C1837 C 0.6118 0.57176 0.02902 0.0
C1838 C 0.62555 0.56491 0.02202 0.0
C1839 C 0.6233 0.54551 0.01644 0.0
C1840 C 0.608 0.53345 0.01773 0.0
C1841 C 0.64224 0.57754 0.02031 0.0
C1842 C 0.64969 0.57453 1.00358 0.0
C1843 C 0.6511 0.59216 0.03492 0.0
C1844 C 0.64478 0.59604 0.05335 0.0
C1845 C 0.64201 0.58204 0.06528 0.0
C1846 C 0.63578 0.58578 0.08252 0.0
C1847 C 0.63247 0.60352 0.08807 0.0
C1848 C 0.63543 0.61759 0.07642 0.0
C1849 C 0.64162 0.61391 0.05915 0.0
H1850 H 0.62764 0.60638 0.10142 0.0
H1851 H 0.69028 0.57157 0.93544 0.0
H1852 H 0.64649 0.48123 0.2855 0.0
H1853 H 0.66017 0.45534 0.27498 0.0
H1854 H 0.70985 0.49108 0.29177 0.0
H1855 H 0.69631 0.51702 0.30213 0.0
H1856 H 0.70613 0.47119 0.2557 0.0
H1857 H 0.695 0.4594 0.31977 0.0
H1858 H 0.67633 0.45345 0.34428 0.0
H1859 H 0.64695 0.40486 0.30764 0.0
H1860 H 0.66533 0.41068 0.28281 0.0
H1861 H 0.76809 0.41699 0.27398 0.0
H1862 H 0.74767 0.43785 0.27223 0.0
H1863 H 0.70601 0.39049 0.2565 0.0
H1864 H 0.72654 0.36935 0.25801 0.0
H1865 H 0.70088 0.41296 0.28601 0.0
H1866 H 0.71447 0.42088 0.22448 0.0
H1867 H 0.73227 0.42602 0.19908 0.0
H1868 H 0.7557 0.48055 0.22864 0.0
H1869 H 0.73824 0.47563 0.25441 0.0
C1870 C 0.66033 0.48348 0.28713 0.0
C1871 C 0.67037 0.50106 0.29476 0.0
C1872 C 0.6681 0.46873 0.28107 0.0
C1873 C 0.68599 0.47136 0.28263 0.0
C1874 C 0.69601 0.48885 0.29039 0.0
C1875 C 0.68827 0.50358 0.29645 0.0
C1876 C 0.69442 0.45593 0.27637 0.0
C1877 C 0.70509 0.45847 0.26235 0.0
C1878 C 0.69238 0.43905 0.28444 0.0
C1879 C 0.68138 0.4356 0.29937 0.0
C1880 C 0.68446 0.44754 0.31689 0.0
C1881 C 0.67396 0.44418 0.33085 0.0
C1882 C 0.66043 0.42882 0.3275 0.0
C1883 C 0.65741 0.41677 0.3102 0.0
C1884 C 0.66786 0.42009 0.29619 0.0
C1885 C 0.75464 0.41097 0.26958 0.0
C1886 C 0.74892 0.39151 0.26612 0.0
C1887 C 0.74297 0.42294 0.26857 0.0
C1888 C 0.72535 0.41571 0.26403 0.0
C1889 C 0.71958 0.39631 0.25996 0.0
C1890 C 0.73129 0.38429 0.26093 0.0
C1891 C 0.71312 0.42845 0.26578 0.0
C1892 C 0.7017 0.42545 0.27897 0.0
C1893 C 0.71436 0.44482 0.25678 0.0
C1894 C 0.72508 0.44784 0.24144 0.0
C1895 C 0.72352 0.43391 0.22566 0.0
C1896 C 0.73354 0.43679 0.21118 0.0
C1897 C 0.74512 0.45359 0.21225 0.0
C1898 C 0.74672 0.46754 0.22783 0.0
C1899 C 0.73674 0.46472 0.24237 0.0
H1900 H 0.75284 0.45581 0.201 0.0
H1901 H 0.65231 0.42623 0.33833 0.0
H1902 H 0.79453 0.4288 0.50608 0.0
H1903 H 0.82318 0.4469 0.50728 0.0
H1904 H 0.84461 0.39721 0.5119 0.0
H1905 H 0.81571 0.37871 0.5105 0.0
H1906 H 0.86102 0.43551 0.53889 0.0
H1907 H 0.84519 0.40526 0.4732 0.0
H1908 H 0.82467 0.39453 0.44327 0.0
H1909 H 0.81947 0.45117 0.43806 0.0
H1910 H 0.83976 0.4622 0.46814 0.0
H1911 H 0.93961 0.48569 0.51818 0.0
H1912 H 0.91504 0.46216 0.52168 0.0
H1913 H 0.88093 0.4942 0.4938 0.0
H1914 H 0.90569 0.51715 0.48928 0.0
H1915 H 0.87289 0.45996 0.4784 0.0
H1916 H 0.88649 0.49059 0.54419 0.0
H1917 H 0.90528 0.50234 0.57518 0.0
H1918 H 0.91337 0.44678 0.58144 0.0
H1919 H 0.89481 0.43473 0.55038 0.0
C1920 C 0.80532 0.42171 0.5075 0.0
C1921 C 0.80299 0.40238 0.50808 0.0
C1922 C 0.82161 0.43206 0.50822 0.0
C1923 C 0.83577 0.42325 0.50963 0.0
C1924 C 0.83367 0.40408 0.51087 0.0
C1925 C 0.81726 0.39361 0.50998 0.0
C1926 C 0.85252 0.43426 0.50859 0.0
C1927 C 0.86395 0.4406 0.52566 0.0
C1928 C 0.85581 0.44105 0.49133 0.0
C1929 C 0.84392 0.43453 0.47297 0.0
C1930 C 0.83959 0.41541 0.46573 0.0
C1931 C 0.82801 0.40928 0.44873 0.0
C1932 C 0.82075 0.42216 0.43878 0.0
C1933 C 0.8251 0.44121 0.44578 0.0
C1934 C 0.83667 0.44741 0.46278 0.0
C1935 C 0.9268 0.48778 0.51317 0.0
C1936 C 0.92428 0.50311 0.50365 0.0
C1937 C 0.91282 0.47442 0.51521 0.0
C1938 C 0.89619 0.47657 0.5082 0.0
C1939 C 0.8937 0.49232 0.49928 0.0
C1940 C 0.90772 0.50544 0.49682 0.0
C1941 C 0.88142 0.46182 0.50891 0.0
C1942 C 0.87029 0.45474 0.49168 0.0
C1943 C 0.87837 0.45453 0.52612 0.0
C1944 C 0.8894 0.46179 0.54487 0.0
C1945 C 0.89237 0.4809 0.55212 0.0
C1946 C 0.90297 0.48761 0.5697 0.0
C1947 C 0.91056 0.47532 0.58023 0.0
C1948 C 0.90751 0.45629 0.57325 0.0
C1949 C 0.89694 0.44951 0.55567 0.0
H1950 H 0.91881 0.48054 0.59381 0.0
H1951 H 0.81177 0.41738 0.42563 0.0
H1952 H 0.36107 0.08028 0.25462 0.0
H1953 H 0.3464 0.10699 0.25492 0.0
H1954 H 0.39388 0.14392 0.27949 0.0
H1955 H 0.40845 0.11702 0.27965 0.0
H1956 H 0.37225 0.1589 0.29481 0.0
H1957 H 0.36907 0.13867 0.22775 0.0
H1958 H 0.3622 0.11677 0.19759 0.0
H1959 H 0.30896 0.10708 0.20358 0.0
H1960 H 0.31555 0.12876 0.23392 0.0
H1961 H 0.34072 0.24409 0.27945 0.0
H1962 H 0.35543 0.21734 0.2784 0.0
H1963 H 0.30727 0.18006 0.25782 0.0
H1964 H 0.29259 0.20683 0.25875 0.0
H1965 H 0.32916 0.16544 0.24024 0.0
H1966 H 0.33251 0.18542 0.3074 0.0
H1967 H 0.33934 0.20782 0.3372 0.0
H1968 H 0.39239 0.21842 0.33039 0.0
H1969 H 0.38583 0.19619 0.30042 0.0
C1970 C 0.36855 0.09405 0.26007 0.0
C1971 C 0.38629 0.09591 0.26701 0.0
C1972 C 0.36002 0.10971 0.26008 0.0
C1973 C 0.36866 0.1284 0.26685 0.0
C1974 C 0.38638 0.13018 0.27401 0.0
C1975 C 0.39491 0.1145 0.27403 0.0
C1976 C 0.35944 0.14573 0.26675 0.0
C1977 C 0.36305 0.16021 0.28259 0.0
C1978 C 0.34684 0.14826 0.25135 0.0
C1979 C 0.34283 0.13517 0.2332 0.0
C1980 C 0.35591 0.13176 0.2227 0.0
C1981 C 0.35207 0.1194 0.20557 0.0
C1982 C 0.33516 0.11049 0.1987 0.0
C1983 C 0.32206 0.11396 0.20894 0.0
C1984 C 0.32584 0.12629 0.2261 0.0
C1985 C 0.33312 0.23026 0.27466 0.0
C1986 C 0.31513 0.22823 0.26926 0.0
C1987 C 0.34167 0.2146 0.27419 0.0
C1988 C 0.33283 0.19584 0.26833 0.0
C1989 C 0.3149 0.19389 0.26253 0.0
C1990 C 0.30633 0.20952 0.26311 0.0
C1991 C 0.34204 0.17853 0.26825 0.0
C1992 C 0.33839 0.16408 0.25241 0.0
C1993 C 0.35463 0.17604 0.2836 0.0
C1994 C 0.35866 0.18928 0.30162 0.0
C1995 C 0.34562 0.19261 0.31222 0.0
C1996 C 0.34944 0.20526 0.32914 0.0
C1997 C 0.36628 0.21457 0.33566 0.0
C1998 C 0.37935 0.21121 0.3253 0.0
C1999 C 0.37559 0.19857 0.30837 0.0
H2000 H 0.36922 0.22436 0.34876 0.0
H2001 H 0.33221 0.10094 0.18543 0.0
H2002 H 0.33804 0.16889 0.52792 0.0
H2003 H 0.36401 0.15593 0.53494 0.0
H2004 H 0.33392 0.10013 0.52177 0.0
H2005 H 0.30789 0.11301 0.51478 0.0
H2006 H 0.3574 0.10474 0.55528 0.0
H2007 H 0.35782 0.11936 0.48971 0.0
H2008 H 0.35779 0.14069 0.46506 0.0
H2009 H 0.40367 0.17566 0.49675 0.0
H2010 H 0.40381 0.15466 0.52171 0.0
H2011 H 0.41873 0.04835 0.53992 0.0
H2012 H 0.39494 0.065 0.53887 0.0
H2013 H 0.43036 0.1176 0.54664 0.0
H2014 H 0.45437 0.10109 0.54826 0.0
H2015 H 0.40558 0.11733 0.51843 0.0
H2016 H 0.40809 0.10513 0.58217 0.0
H2017 H 0.40963 0.08778 0.61006 0.0
H2018 H 0.3608 0.05318 0.58679 0.0
H2019 H 0.35909 0.07012 0.55855 0.0
C2020 C 0.33696 0.15385 0.52641 0.0
C2021 C 0.32089 0.14198 0.52063 0.0
C2022 C 0.35183 0.14646 0.53042 0.0
C2023 C 0.35098 0.12703 0.52874 0.0
C2024 C 0.33493 0.11516 0.52315 0.0
C2025 C 0.32006 0.12254 0.51904 0.0
C2026 C 0.36676 0.119 0.5327 0.0
C2027 C 0.36784 0.10726 0.54705 0.0
C2028 C 0.38081 0.12306 0.5227 0.0
C2029 C 0.38073 0.13556 0.50763 0.0
C2030 C 0.36782 0.13167 0.49147 0.0
C2031 C 0.3678 0.14369 0.47744 0.0
C2032 C 0.38069 0.15955 0.47936 0.0
C2033 C 0.39367 0.1634 0.49529 0.0
C2034 C 0.39373 0.15144 0.50937 0.0
C2035 C 0.4216 0.06348 0.54189 0.0
C2036 C 0.43863 0.07328 0.54421 0.0
C2037 C 0.40789 0.07301 0.54121 0.0
C2038 C 0.41079 0.09261 0.54278 0.0
C2039 C 0.42774 0.10248 0.54533 0.0
C2040 C 0.44149 0.09296 0.54616 0.0
C2041 C 0.39607 0.10261 0.54069 0.0
C2042 C 0.39519 0.11476 0.52673 0.0
C2043 C 0.38245 0.09937 0.55146 0.0
C2044 C 0.38356 0.08876 0.56812 0.0
C2045 C 0.39777 0.09366 0.58286 0.0
C2046 C 0.39866 0.08394 0.59877 0.0
C2047 C 0.38534 0.06935 0.60017 0.0
C2048 C 0.37112 0.06445 0.58566 0.0
C2049 C 0.37019 0.07412 0.5697 0.0
H2050 H 0.38603 0.06187 0.61252 0.0
H2051 H 0.38065 0.16884 0.46848 0.0
H2052 H 0.66029 0.61282 0.29102 0.0
H2053 H 0.68033 0.64151 0.28867 0.0
H2054 H 0.72232 0.61809 0.31421 0.0
H2055 H 0.70242 0.58958 0.31679 0.0
H2056 H 0.72412 0.65435 0.32946 0.0
H2057 H 0.7139 0.61838 0.26548 0.0
H2058 H 0.69482 0.60189 0.23614 0.0
H2059 H 0.67652 0.65233 0.22656 0.0
H2060 H 0.69535 0.66906 0.25597 0.0
H2061 H 0.79569 0.71502 0.31123 0.0
H2062 H 0.77393 0.68777 0.31273 0.0
H2063 H 0.73736 0.70887 0.27457 0.0
H2064 H 0.75981 0.73483 0.27112 0.0
H2065 H 0.73079 0.67487 0.26596 0.0
H2066 H 0.73946 0.71166 0.3275 0.0
H2067 H 0.75595 0.72964 0.35756 0.0
H2068 H 0.77372 0.68047 0.37314 0.0
H2069 H 0.75749 0.66225 0.34296 0.0
C2070 C 0.67377 0.61389 0.29628 0.0
C2071 C 0.67979 0.59899 0.30411 0.0
C2072 C 0.68521 0.63021 0.29482 0.0
C2073 C 0.70283 0.63183 0.30108 0.0
C2074 C 0.70878 0.61712 0.30928 0.0
C2075 C 0.69739 0.60084 0.31072 0.0
C2076 C 0.71523 0.64872 0.29901 0.0
C2077 C 0.72572 0.65879 0.31557 0.0
C2078 C 0.71683 0.65487 0.28097 0.0
C2079 C 0.70594 0.64493 0.26298 0.0
C2080 C 0.70576 0.62593 0.25714 0.0
C2081 C 0.69499 0.61654 0.24051 0.0
C2082 C 0.68443 0.62604 0.22952 0.0
C2083 C 0.6847 0.64498 0.23509 0.0
C2084 C 0.69543 0.65443 0.25172 0.0
C2085 C 0.78301 0.7138 0.30313 0.0
C2086 C 0.77928 0.7274 0.29158 0.0
C2087 C 0.77048 0.6983 0.30416 0.0
C2088 C 0.75368 0.69651 0.2944 0.0
C2089 C 0.75009 0.70994 0.28249 0.0
C2090 C 0.76286 0.72501 0.2808 0.0
C2091 C 0.73999 0.68059 0.29649 0.0
C2092 C 0.72922 0.67065 0.27993 0.0
C2093 C 0.73779 0.67482 0.31463 0.0
C2094 C 0.74735 0.68564 0.33293 0.0
C2095 C 0.74694 0.70471 0.33731 0.0
C2096 C 0.75625 0.71494 0.35438 0.0
C2097 C 0.76591 0.70622 0.36728 0.0
C2098 C 0.76624 0.68721 0.36314 0.0
C2099 C 0.75697 0.67692 0.34606 0.0
H2100 H 0.77313 0.71417 0.38049 0.0
H2101 H 0.67606 0.61874 0.21668 0.0
H2102 H 0.87331 0.48431 0.73852 0.0
H2103 H 0.85896 0.45218 0.74034 0.0
H2104 H 0.87629 0.46014 0.80139 0.0
H2105 H 0.89046 0.49223 0.79961 0.0
H2106 H 0.88004 0.42635 0.78777 0.0
H2107 H 0.83308 0.45836 0.78034 0.0
H2108 H 0.81413 0.47762 0.76529 0.0
H2109 H 0.80195 0.43784 0.71398 0.0
H2110 H 0.82106 0.41847 0.72863 0.0
H2111 H 0.82504 0.34712 0.81285 0.0
H2112 H 0.83861 0.37879 0.80879 0.0
H2113 H 0.82524 0.36507 0.74737 0.0
H2114 H 0.81196 0.33308 0.75135 0.0
H2115 H 0.81931 0.40118 0.75994 0.0
H2116 H 0.86574 0.36899 0.76734 0.0
H2117 H 0.88427 0.34933 0.78239 0.0
H2118 H 0.89723 0.38931 0.83355 0.0
H2119 H 0.87852 0.40906 0.81891 0.0
C2120 C 0.874 0.47933 0.7524 0.0
C2121 C 0.8831 0.4913 0.76893 0.0
C2122 C 0.86566 0.46077 0.75347 0.0
C2123 C 0.86617 0.45323 0.77108 0.0
C2124 C 0.87544 0.46516 0.78753 0.0
C2125 C 0.88356 0.48377 0.78651 0.0
C2126 C 0.85738 0.43309 0.77244 0.0
C2127 C 0.86668 0.42109 0.78185 0.0
C2128 C 0.83998 0.42541 0.76442 0.0
C2129 C 0.82868 0.43711 0.75548 0.0
C2130 C 0.82651 0.45383 0.76577 0.0
C2131 C 0.81571 0.46474 0.75733 0.0
C2132 C 0.8069 0.459 0.73866 0.0
C2133 C 0.80883 0.4423 0.72842 0.0
C2134 C 0.81964 0.43135 0.73678 0.0
C2135 C 0.825 0.35069 0.7984 0.0
C2136 C 0.81736 0.3371 0.78247 0.0
C2137 C 0.83286 0.36901 0.79608 0.0
C2138 C 0.83321 0.37479 0.77772 0.0
C2139 C 0.82531 0.36135 0.76176 0.0
C2140 C 0.81774 0.34284 0.76406 0.0
C2141 C 0.84197 0.39461 0.77536 0.0
C2142 C 0.83267 0.4065 0.7658 0.0
C2143 C 0.85938 0.40221 0.78321 0.0
C2144 C 0.87057 0.39039 0.79212 0.0
C2145 C 0.8724 0.3735 0.78188 0.0
C2146 C 0.88296 0.36235 0.79032 0.0
C2147 C 0.89188 0.36804 0.80894 0.0
C2148 C 0.89028 0.3849 0.81915 0.0
C2149 C 0.8797 0.39608 0.81078 0.0
H2150 H 0.90006 0.35939 0.81545 0.0
H2151 H 0.79852 0.46746 0.73216 0.0
H2152 H 0.04289 0.83415 0.10282 0.0
H2153 H 0.04114 0.86355 0.09012 0.0
H2154 H 0.09381 0.88537 0.11545 0.0
H2155 H 0.09484 0.85661 0.12982 0.0
H2156 H 0.08003 0.91197 0.11899 0.0
H2157 H 0.07494 0.86739 0.06151 0.0
H2158 H 0.06216 0.83887 0.03883 0.0
H2159 H 0.01379 0.85687 0.03198 0.0
H2160 H 0.02625 0.88538 0.05473 0.0
H2161 H 0.08808 0.99042 0.06629 0.0
H2162 H 0.09119 0.96082 0.07833 0.0
H2163 H 0.03715 0.9397 0.06021 0.0
H2164 H 0.03412 0.96861 0.04759 0.0
H2165 H 0.05244 0.9131 0.05235 0.0
H2166 H 0.05721 0.95713 0.1097 0.0
H2167 H 0.06979 0.98612 0.13171 0.0
H2168 H 0.11875 0.96942 0.13797 0.0
H2169 H 0.10648 0.94041 0.11585 0.0
C2170 C 0.0541 0.84523 0.10561 0.0
C2171 C 0.06905 0.84296 0.1172 0.0
C2172 C 0.05319 0.86208 0.09811 0.0
C2173 C 0.06752 0.87684 0.1011 0.0
C2174 C 0.08249 0.87444 0.11271 0.0
C2175 C 0.08315 0.85788 0.12088 0.0
C2176 C 0.0669 0.89489 0.0927 0.0
C2177 C 0.07424 0.91204 0.10426 0.0
C2178 C 0.05895 0.89552 0.07364 0.0
C2179 C 0.0515 0.87841 0.05994 0.0
C2180 C 0.06157 0.8652 0.05522 0.0
C2181 C 0.05438 0.84905 0.04235 0.0
C2182 C 0.03717 0.84604 0.03401 0.0
C2183 C 0.02711 0.8592 0.03846 0.0
C2184 C 0.03424 0.87536 0.05133 0.0
C2185 C 0.0769 0.9794 0.06472 0.0
C2186 C 0.06087 0.98205 0.05587 0.0
C2187 C 0.07864 0.96247 0.0718 0.0
C2188 C 0.06434 0.94792 0.07054 0.0
C2189 C 0.04844 0.95052 0.06144 0.0
C2190 C 0.04674 0.96724 0.05419 0.0
C2191 C 0.06566 0.92994 0.07859 0.0
C2192 C 0.05837 0.91289 0.06699 0.0
C2193 C 0.07366 0.92939 0.09755 0.0
C2194 C 0.08097 0.94669 0.11102 0.0
C2195 C 0.07067 0.95969 0.11572 0.0
C2196 C 0.07774 0.97611 0.12821 0.0
C2197 C 0.09507 0.97963 0.1362 0.0
C2198 C 0.10534 0.96669 0.13176 0.0
C2199 C 0.09833 0.95024 0.11927 0.0
H2200 H 0.10052 0.99236 0.14586 0.0
H2201 H 0.03163 0.83353 0.02406 0.0
H2202 H 0.9674 0.23788 0.87535 0.0
H2203 H 0.93868 0.2403 0.86032 0.0
H2204 H 0.94361 0.29408 0.8943 0.0
H2205 H 0.97153 0.2907 0.9105 0.0
H2206 H 0.91369 0.28113 0.89193 0.0
H2207 H 0.94691 0.28417 0.84083 0.0
H2208 H 0.96608 0.27433 0.81888 0.0
H2209 H 0.9298 0.22345 0.79835 0.0
H2210 H 0.91051 0.23289 0.82035 0.0
H2211 H 0.84063 0.30197 0.82994 0.0
H2212 H 0.86881 0.30192 0.84878 0.0
H2213 H 0.86561 0.24455 0.82472 0.0
H2214 H 0.83818 0.24494 0.80555 0.0
H2215 H 0.89512 0.26219 0.82199 0.0
H2216 H 0.86176 0.26224 0.87514 0.0
H2217 H 0.8432 0.27609 0.89542 0.0
H2218 H 0.88119 0.32647 0.9101 0.0
H2219 H 0.89986 0.313 0.88971 0.0
C2220 C 0.96231 0.25018 0.87961 0.0
C2221 C 0.97184 0.26408 0.89414 0.0
C2222 C 0.94585 0.25173 0.87081 0.0
C2223 C 0.93874 0.26769 0.87556 0.0
C2224 C 0.94842 0.28156 0.89014 0.0
C2225 C 0.96455 0.27967 0.89941 0.0
C2226 C 0.92132 0.26991 0.86566 0.0
C2227 C 0.90985 0.27715 0.87657 0.0
C2228 C 0.91579 0.26488 0.84555 0.0
C2229 C 0.92737 0.25916 0.83236 0.0
C2230 C 0.94308 0.27083 0.83172 0.0
C2231 C 0.95396 0.26533 0.81926 0.0
C2232 C 0.94918 0.24825 0.80727 0.0
C2233 C 0.9335 0.23666 0.80767 0.0
C2234 C 0.92259 0.24208 0.82011 0.0
C2235 C 0.84577 0.28923 0.82916 0.0
C2236 C 0.837 0.27336 0.81644 0.0
C2237 C 0.86198 0.28919 0.8399 0.0
C2238 C 0.8696 0.27316 0.83839 0.0
C2239 C 0.86033 0.25718 0.82623 0.0
C2240 C 0.84445 0.25734 0.81537 0.0
C2241 C 0.88746 0.27288 0.84833 0.0
C2242 C 0.89904 0.26611 0.83737 0.0
C2243 C 0.89321 0.27883 0.86823 0.0
C2244 C 0.88213 0.28666 0.88081 0.0
C2245 C 0.86611 0.27629 0.88265 0.0
C2246 C 0.85558 0.28407 0.89416 0.0
C2247 C 0.861 0.30216 0.90401 0.0
C2248 C 0.877 0.31247 0.90245 0.0
C2249 C 0.88756 0.30476 0.89094 0.0
H2250 H 0.85281 0.30817 0.91289 0.0
H2251 H 0.95762 0.24402 0.79763 0.0
H2252 H 0.5366 0.22959 0.61861 0.0
H2253 H 0.53443 0.19745 0.60376 0.0
H2254 H 0.58371 0.21255 0.58581 0.0
H2255 H 0.58543 0.24508 0.59977 0.0
H2256 H 0.56434 0.18838 0.55901 0.0
H2257 H 0.57661 0.18965 0.62801 0.0
H2258 H 0.57142 0.19635 0.66139 0.0
H2259 H 0.52188 0.16063 0.64714 0.0
H2260 H 0.52668 0.15391 0.61363 0.0
H2261 H 0.57587 0.09267 0.54285 0.0
H2262 H 0.57968 0.12604 0.5553 0.0
H2263 H 0.52884 0.11675 0.57028 0.0
H2264 H 0.52496 0.08386 0.55815 0.0
H2265 H 0.55071 0.1379 0.59897 0.0
H2266 H 0.53692 0.13715 0.53104 0.0
H2267 H 0.54038 0.12999 0.49713 0.0
H2268 H 0.59079 0.16401 0.50874 0.0
H2269 H 0.58771 0.17114 0.54282 0.0
C2270 C 0.5469 0.22611 0.61132 0.0
C2271 C 0.56123 0.23988 0.61045 0.0
C2272 C 0.54573 0.20764 0.60296 0.0
C2273 C 0.55915 0.20227 0.59411 0.0
C2274 C 0.57322 0.21619 0.59265 0.0
C2275 C 0.57421 0.23481 0.60064 0.0
C2276 C 0.55865 0.18218 0.58678 0.0
C2277 C 0.56165 0.17741 0.56791 0.0
C2278 C 0.55472 0.16761 0.59808 0.0
C2279 C 0.55197 0.17139 0.61831 0.0
C2280 C 0.56459 0.18328 0.632 0.0
C2281 C 0.56171 0.18709 0.65093 0.0
C2282 C 0.54632 0.17895 0.65637 0.0
C2283 C 0.53379 0.16694 0.64291 0.0
C2284 C 0.53659 0.16311 0.62395 0.0
C2285 C 0.56552 0.09776 0.54878 0.0
C2286 C 0.5501 0.08547 0.54936 0.0
C2287 C 0.56769 0.11685 0.55585 0.0
C2288 C 0.5545 0.12398 0.56368 0.0
C2289 C 0.53922 0.11167 0.56438 0.0
C2290 C 0.53702 0.09276 0.55729 0.0
C2291 C 0.55638 0.14417 0.57128 0.0
C2292 C 0.5536 0.14892 0.59018 0.0
C2293 C 0.56032 0.15864 0.55996 0.0
C2294 C 0.56216 0.15451 0.5395 0.0
C2295 C 0.54879 0.14298 0.52639 0.0
C2296 C 0.55068 0.13894 0.50714 0.0
C2297 C 0.56582 0.1465 0.5008 0.0
C2298 C 0.57908 0.15814 0.51368 0.0
C2299 C 0.57728 0.16219 0.53297 0.0
H2300 H 0.56725 0.14336 0.48588 0.0
H2301 H 0.54411 0.18193 0.67103 0.0
H2302 H 0.58418 0.7784 0.42419 0.0
H2303 H 0.6113 0.78167 0.4117 0.0
H2304 H 0.58384 0.76606 0.35392 0.0
H2305 H 0.55663 0.76188 0.36656 0.0
H2306 H 0.60931 0.74994 0.35623 0.0
H2307 H 0.60533 0.81394 0.37628 0.0
H2308 H 0.60247 0.84082 0.39895 0.0
H2309 H 0.64784 0.835 0.43563 0.0
H2310 H 0.65084 0.80793 0.41331 0.0
H2311 H 0.67608 0.78016 0.30515 0.0
H2312 H 0.65048 0.77846 0.3204 0.0
H2313 H 0.6815 0.78513 0.37617 0.0
H2314 H 0.70742 0.78734 0.36097 0.0
H2315 H 0.65552 0.80575 0.37633 0.0
H2316 H 0.65995 0.74271 0.35694 0.0
H2317 H 0.6639 0.71633 0.33436 0.0
H2318 H 0.61838 0.72066 0.29701 0.0
H2319 H 0.6143 0.74728 0.31926 0.0
C2320 C 0.58389 0.77568 0.4088 0.0
C2321 C 0.56815 0.76992 0.39638 0.0
C2322 C 0.59949 0.77774 0.40161 0.0
C2323 C 0.59986 0.77457 0.38172 0.0
C2324 C 0.5841 0.76871 0.36931 0.0
C2325 C 0.56847 0.76635 0.37654 0.0
C2326 C 0.61656 0.77676 0.37388 0.0
C2327 C 0.61922 0.76233 0.36048 0.0
C2328 C 0.63003 0.79256 0.37977 0.0
C2329 C 0.62819 0.80879 0.39322 0.0
C2330 C 0.61461 0.81831 0.38925 0.0
C2331 C 0.61298 0.83359 0.40203 0.0
C2332 C 0.62494 0.83958 0.41875 0.0
C2333 C 0.63857 0.83033 0.4227 0.0
C2334 C 0.64025 0.81502 0.40999 0.0
C2335 C 0.6776 0.78158 0.32069 0.0
C2336 C 0.69398 0.78397 0.33175 0.0
C2337 C 0.66284 0.78041 0.32941 0.0
C2338 C 0.66393 0.78147 0.34948 0.0
C2339 C 0.68025 0.78423 0.36067 0.0
C2340 C 0.69508 0.78534 0.35191 0.0
C2341 C 0.64794 0.77914 0.35852 0.0
C2342 C 0.6455 0.79344 0.37214 0.0
C2343 C 0.63468 0.76324 0.35293 0.0
C2344 C 0.63689 0.74705 0.33968 0.0
C2345 C 0.65083 0.7381 0.34385 0.0
C2346 C 0.65309 0.7231 0.33112 0.0
C2347 C 0.64142 0.71685 0.31424 0.0
C2348 C 0.62742 0.72554 0.31009 0.0
C2349 C 0.62511 0.74056 0.32276 0.0
H2350 H 0.6432 0.70524 0.30439 0.0
H2351 H 0.62365 0.85142 0.42861 0.0
H2352 H 0.03328 0.23398 0.38286 0.0
H2353 H 0.02953 0.20427 0.39577 0.0
H2354 H 0.01895 0.23185 0.44867 0.0
H2355 H 0.02322 0.26174 0.43606 0.0
H2356 H 0.04226 0.21133 0.45515 0.0
H2357 H 0.98712 0.20281 0.4152 0.0
H2358 H 0.96732 0.20121 0.38502 0.0
H2359 H 0.98876 0.15682 0.35897 0.0
H2360 H 1.00885 0.15833 0.38892 0.0
H2361 H 0.01244 0.13834 0.50172 0.0
H2362 H 1.00891 0.16209 0.4808 0.0
H2363 H 0.03261 0.13335 0.43843 0.0
H2364 H 0.03586 0.10907 0.45917 0.0
H2365 H 1.00297 0.15255 0.42452 0.0
H2366 H 0.05906 0.16256 0.4635 0.0
H2367 H 0.0786 0.16365 0.49376 0.0
H2368 H 0.05493 0.20534 0.52126 0.0
H2369 H 0.03509 0.20428 0.49118 0.0
C2370 C 0.03015 0.23367 0.39724 0.0
C2371 C 0.02867 0.25007 0.4086 0.0
C2372 C 0.02783 0.2167 0.40448 0.0
C2373 C 0.02373 0.21594 0.42301 0.0
C2374 C 0.02205 0.23227 0.43428 0.0
C2375 C 0.02456 0.24928 0.42713 0.0
C2376 C 0.02261 0.19842 0.43133 0.0
C2377 C 0.0335 0.19857 0.44855 0.0
C2378 C 0.01163 0.18166 0.42226 0.0
C2379 C 0.99961 0.18082 0.40423 0.0
C2380 C 0.98772 0.19283 0.40298 0.0
C2381 C 0.97642 0.19191 0.38592 0.0
C2382 C 0.97681 0.17896 0.37007 0.0
C2383 C 0.98848 0.16687 0.37125 0.0
C2384 C 0.99982 0.16774 0.38826 0.0
C2385 C 0.01634 0.13668 0.48767 0.0
C2386 C 0.02456 0.12202 0.48208 0.0
C2387 C 0.01433 0.15023 0.4758 0.0
C2388 C 0.02061 0.14933 0.4583 0.0
C2389 C 0.02767 0.13405 0.45194 0.0
C2390 C 0.02969 0.12042 0.46385 0.0
C2391 C 0.02226 0.16582 0.4484 0.0
C2392 C 0.01167 0.1654 0.43095 0.0
C2393 C 0.03353 0.18242 0.45714 0.0
C2394 C 0.0455 0.1832 0.47519 0.0
C2395 C 0.05793 0.17184 0.47605 0.0
C2396 C 0.06908 0.17247 0.49315 0.0
C2397 C 0.06798 0.18452 0.50944 0.0
C2398 C 0.05576 0.196 0.50864 0.0
C2399 C 0.04457 0.1954 0.49157 0.0
H2400 H 0.07662 0.185 0.52267 0.0
H2401 H 0.96804 0.17827 0.35689 0.0
H2402 H 0.60766 0.23605 0.19725 0.0
H2403 H 0.63867 0.2402 0.20538 0.0
H2404 H 0.64006 0.29357 0.23865 0.0
H2405 H 0.60901 0.28989 0.22969 0.0
H2406 H 0.66457 0.29588 0.21688 0.0
H2407 H 0.64368 0.25297 0.26004 0.0
H2408 H 0.62626 0.22409 0.26715 0.0
H2409 H 0.65199 0.19107 0.23108 0.0
H2410 H 0.66942 0.21978 0.2236 0.0
H2411 H 0.74692 0.30849 0.27146 0.0
H2412 H 0.71611 0.30405 0.26084 0.0
H2413 H 0.71706 0.25142 0.22751 0.0
H2414 H 0.74769 0.25545 0.23836 0.0
H2415 H 0.69164 0.24825 0.24756 0.0
H2416 H 0.71381 0.28975 0.20573 0.0
H2417 H 0.73142 0.31786 0.19735 0.0
H2418 H 0.70378 0.35275 0.22868 0.0
H2419 H 0.68622 0.32485 0.23759 0.0
C2420 C 0.61455 0.24851 0.20657 0.0
C2421 C 0.60602 0.26255 0.21312 0.0
C2422 C 0.63224 0.2509 0.21114 0.0
C2423 C 0.64156 0.26706 0.22283 0.0
C2424 C 0.63303 0.28099 0.22962 0.0
C2425 C 0.61535 0.27879 0.2247 0.0
C2426 C 0.66025 0.26947 0.22795 0.0
C2427 C 0.67052 0.28562 0.22383 0.0
C2428 C 0.66793 0.25571 0.23633 0.0
C2429 C 0.65775 0.23849 0.24119 0.0
C2430 C 0.64557 0.23954 0.2536 0.0
C2431 C 0.6357 0.22321 0.25768 0.0
C2432 C 0.638 0.20576 0.24955 0.0
C2433 C 0.65022 0.2046 0.23737 0.0
C2434 C 0.66011 0.22089 0.23323 0.0
C2435 C 0.74054 0.29592 0.26198 0.0
C2436 C 0.74967 0.2823 0.2558 0.0
C2437 C 0.72301 0.2935 0.2558 0.0
C2438 C 0.71448 0.27755 0.24321 0.0
C2439 C 0.72351 0.26383 0.2372 0.0
C2440 C 0.74099 0.26616 0.24347 0.0
C2441 C 0.69597 0.2748 0.23683 0.0
C2442 C 0.68572 0.25854 0.24062 0.0
C2443 C 0.68838 0.28838 0.22798 0.0
C2444 C 0.69879 0.3052 0.22248 0.0
C2445 C 0.71157 0.30342 0.21097 0.0
C2446 C 0.72155 0.31932 0.20612 0.0
C2447 C 0.71877 0.33708 0.21255 0.0
C2448 C 0.70596 0.33898 0.22378 0.0
C2449 C 0.69598 0.32313 0.22872 0.0
H2450 H 0.72651 0.34938 0.2088 0.0
H2451 H 0.63033 0.19313 0.25271 0.0
H2452 H 0.54497 0.86808 0.89854 0.0
H2453 H 0.54098 0.89761 0.91546 0.0
H2454 H 0.50939 0.86721 0.95079 0.0
H2455 H 0.51357 0.83765 0.93426 0.0
H2456 H 0.49885 0.90285 0.9332 0.0
H2457 H 0.54424 0.87801 0.9722 0.0
H2458 H 0.57094 0.86543 0.97442 0.0
H2459 H 0.59641 0.91393 0.95352 0.0
H2460 H 0.56976 0.92666 0.95096 0.0
H2461 H 0.50284 0.97077 0.01548 0.0
H2462 H 0.50071 0.94207 0.99288 0.0
H2463 H 0.54767 0.96629 0.97402 0.0
H2464 H 0.55023 0.99403 0.99716 0.0
H2465 H 0.54939 0.93356 0.98137 0.0
H2466 H 0.50905 0.96183 0.94606 0.0
H2467 H 0.48395 0.9766 0.93921 0.0
H2468 H 0.45066 0.92623 0.94666 0.0
H2469 H 0.47561 0.91126 0.95395 0.0
C2470 C 0.53716 0.86775 0.90989 0.0
C2471 C 0.52982 0.85075 0.91542 0.0
C2472 C 0.53474 0.88451 0.91931 0.0
C2473 C 0.52477 0.88433 0.93409 0.0
C2474 C 0.51695 0.8674 0.9392 0.0
C2475 C 0.51958 0.85065 0.93001 0.0
C2476 C 0.52447 0.90175 0.94599 0.0
C2477 C 0.50974 0.9096 0.94392 0.0
C2478 C 0.53899 0.91063 0.95928 0.0
C2479 C 0.55504 0.90318 0.96126 0.0
C2480 C 0.55552 0.88591 0.96798 0.0
C2481 C 0.57064 0.87877 0.96931 0.0
C2482 C 0.58535 0.88885 0.96407 0.0
C2483 C 0.585 0.90613 0.95756 0.0
C2484 C 0.56991 0.91332 0.95618 0.0
C2485 C 0.51269 0.96966 0.00658 0.0
C2486 C 0.52669 0.98429 0.00784 0.0
C2487 C 0.51138 0.95353 0.99356 0.0
C2488 C 0.52398 0.95222 0.98172 0.0
C2489 C 0.53784 0.96703 0.98303 0.0
C2490 C 0.53926 0.98284 0.99614 0.0
C2491 C 0.52364 0.93499 0.96888 0.0
C2492 C 0.53834 0.92702 0.97076 0.0
C2493 C 0.50928 0.92651 0.95497 0.0
C2494 C 0.49423 0.93551 0.95086 0.0
C2495 C 0.4964 0.95397 0.9465 0.0
C2496 C 0.48219 0.96237 0.94248 0.0
C2497 C 0.46572 0.95239 0.94258 0.0
C2498 C 0.46343 0.93397 0.94666 0.0
C2499 C 0.4776 0.92552 0.95074 0.0
H2500 H 0.45473 0.95891 0.93944 0.0
H2501 H 0.59704 0.88329 0.9651 0.0
H2502 H 0.99973 0.75995 0.68055 0.0
H2503 H 0.97315 0.75974 0.69359 0.0
H2504 H 0.99919 0.75581 0.74995 0.0
H2505 H 0.02607 0.75583 0.7369 0.0
H2506 H 0.96463 0.73277 0.73889 0.0
H2507 H 0.99482 0.79655 0.74248 0.0
H2508 H 0.01042 0.8229 0.72905 0.0
H2509 H 0.96663 0.82061 0.68616 0.0
H2510 H 0.95086 0.79406 0.69917 0.0
H2511 H 0.90345 0.77072 0.78973 0.0
H2512 H 0.9291 0.76238 0.77846 0.0
H2513 H 0.90974 0.77118 0.721 0.0
H2514 H 0.88438 0.77988 0.73216 0.0
H2515 H 0.94178 0.79118 0.73442 0.0
H2516 H 0.91118 0.72857 0.7296 0.0
H2517 H 0.8948 0.70132 0.74089 0.0
H2518 H 0.93778 0.70017 0.78365 0.0
H2519 H 0.95433 0.72765 0.77283 0.0
C2520 C 0.99982 0.75887 0.69569 0.0
C2521 C 0.01496 0.75814 0.70781 0.0
C2522 C 0.98462 0.75868 0.70307 0.0
C2523 C 0.98437 0.75791 0.72269 0.0
C2524 C 0.99926 0.75637 0.73474 0.0
C2525 C 0.01455 0.75653 0.72733 0.0
C2526 C 0.96884 0.76044 0.73069 0.0
C2527 C 0.95971 0.74561 0.73827 0.0
C2528 C 0.96237 0.77706 0.72932 0.0
C2529 C 0.97172 0.79326 0.72172 0.0
C2530 C 0.98856 0.80161 0.73012 0.0
C2531 C 0.99743 0.81658 0.72259 0.0
C2532 C 0.98953 0.82341 0.70674 0.0
C2533 C 0.97273 0.8153 0.69843 0.0
C2534 C 0.96382 0.80031 0.70589 0.0
C2535 C 0.90467 0.77074 0.77468 0.0
C2536 C 0.89203 0.77601 0.76182 0.0
C2537 C 0.91918 0.76581 0.76825 0.0
C2538 C 0.92118 0.76615 0.74893 0.0
C2539 C 0.90832 0.77082 0.73596 0.0
C2540 C 0.89384 0.77568 0.74234 0.0
C2541 C 0.93736 0.76345 0.74251 0.0
C2542 C 0.94668 0.77834 0.73523 0.0
C2543 C 0.94383 0.74683 0.74401 0.0
C2544 C 0.93392 0.73032 0.75057 0.0
C2545 C 0.91708 0.72264 0.74155 0.0
C2546 C 0.90778 0.70713 0.74783 0.0
C2547 C 0.91522 0.69906 0.76302 0.0
C2548 C 0.93201 0.70646 0.77192 0.0
C2549 C 0.94136 0.72201 0.76571 0.0
H2550 H 0.90799 0.68704 0.76786 0.0
H2551 H 0.99643 0.83499 0.70091 0.0
H2552 H 0.15159 0.05679 0.87278 0.0
H2553 H 0.14026 0.05383 0.9029 0.0
H2554 H 0.09107 0.02642 0.87091 0.0
H2555 H 0.10221 0.03001 0.84077 0.0
H2556 H 0.08567 0.04947 0.89708 0.0
H2557 H 0.12002 1.00307 0.89712 0.0
H2558 H 0.14567 0.98903 0.89567 0.0
H2559 H 0.17174 0.02573 0.94631 0.0
H2560 H 0.14632 0.04022 0.94787 0.0
H2561 H 0.04706 1.00919 0.96924 0.0
H2562 H 0.06262 0.01324 0.94239 0.0
H2563 H 0.10387 0.05119 0.97977 0.0
H2564 H 0.08816 0.047 0.00717 0.0
H2565 H 0.11472 0.02511 0.95261 0.0
H2566 H 0.07456 0.06818 0.95124 0.0
H2567 H 0.04555 0.07513 0.95125 0.0
H2568 H 0.02704 0.03629 0.89978 0.0
H2569 H 0.0558 0.02884 0.89968 0.0
C2570 C 0.13835 0.05015 0.87218 0.0
C2571 C 0.12777 0.04373 0.85437 0.0
C2572 C 0.13191 0.0483 0.88945 0.0
C2573 C 0.11482 0.0397 0.88933 0.0
C2574 C 0.10429 0.03317 0.8715 0.0
C2575 C 0.11067 0.0352 0.85423 0.0
C2576 C 0.10763 0.03819 0.90765 0.0
C2577 C 0.09204 0.04399 0.90911 0.0
C2578 C 0.1159 0.03125 0.9236 0.0
C2579 C 0.13136 0.02292 0.92245 0.0
C2580 C 0.1313 1.00831 0.90781 0.0
C2581 C 0.14578 1.00023 0.90699 0.0
C2582 C 0.16035 1.00653 0.92085 0.0
C2583 C 0.16047 0.02091 0.93555 0.0
C2584 C 0.14603 0.02907 0.93641 0.0
C2585 C 0.05953 0.0183 0.97191 0.0
C2586 C 0.06635 0.02783 0.99038 0.0
C2587 C 0.06839 0.02065 0.95645 0.0
C2588 C 0.08428 0.03278 0.95892 0.0
C2589 C 0.09156 0.04184 0.9775 0.0
C2590 C 0.08261 0.03943 0.99315 0.0
C2591 C 0.09277 0.03621 0.9418 0.0
C2592 C 0.10859 0.03083 0.94061 0.0
C2593 C 0.08439 0.0428 0.92574 0.0
C2594 C 0.06729 0.04787 0.92554 0.0
C2595 C 0.06428 0.06109 0.93997 0.0
C2596 C 0.04788 0.0651 0.93999 0.0
C2597 C 0.03447 0.05606 0.92556 0.0
C2598 C 0.03744 0.04321 0.91097 0.0
C2599 C 0.05378 0.0391 0.91092 0.0
H2600 H 0.02173 0.05889 0.92563 0.0
H2601 H 0.17154 1.00022 0.92022 0.0
H2602 H 0.76032 0.32724 0.54517 0.0
H2603 H 0.77465 0.32116 0.57612 0.0
H2604 H 0.77686 0.37831 0.60013 0.0
H2605 H 0.76227 0.38443 0.56973 0.0
H2606 H 0.81087 0.35562 0.59803 0.0
H2607 H 0.75588 0.36401 0.6228 0.0
H2608 H 0.72434 0.35546 0.6186 0.0
H2609 H 0.72745 0.29728 0.61435 0.0
H2610 H 0.75902 0.30556 0.61837 0.0
H2611 H 0.81536 0.34048 0.70621 0.0
H2612 H 0.81095 0.35773 0.67891 0.0
H2613 H 0.82175 0.31238 0.64132 0.0
H2614 H 0.82524 0.29466 0.6681 0.0
H2615 H 0.78225 0.33264 0.6512 0.0
H2616 H 0.83478 0.33172 0.60503 0.0
H2617 H 0.86639 0.33797 0.6092 0.0
H2618 H 0.86846 0.3802 0.65692 0.0
H2619 H 0.83689 0.3741 0.65306 0.0
C2620 C 0.76341 0.3383 0.55724 0.0
C2621 C 0.76028 0.35628 0.55517 0.0
C2622 C 0.77171 0.33488 0.57471 0.0
C2623 C 0.77686 0.34944 0.58998 0.0
C2624 C 0.77298 0.36706 0.58826 0.0
C2625 C 0.76458 0.37044 0.57098 0.0
C2626 C 0.78679 0.34659 0.60775 0.0
C2627 C 0.8047 0.35067 0.60974 0.0
C2628 C 0.77857 0.34034 0.62281 0.0
C2629 C 0.75971 0.33538 0.62079 0.0
C2630 C 0.7498 0.34941 0.62089 0.0
C2631 C 0.73194 0.34462 0.61856 0.0
C2632 C 0.7239 0.32584 0.61619 0.0
C2633 C 0.7337 0.31182 0.61619 0.0
C2634 C 0.75156 0.31655 0.61852 0.0
C2635 C 0.81745 0.33452 0.69224 0.0
C2636 C 0.81999 0.31601 0.68904 0.0
C2637 C 0.81509 0.34445 0.67678 0.0
C2638 C 0.81582 0.33607 0.6583 0.0
C2639 C 0.82123 0.31896 0.65563 0.0
C2640 C 0.82325 0.30887 0.67099 0.0
C2641 C 0.80643 0.34205 0.64176 0.0
C2642 C 0.7885 0.33811 0.63976 0.0
C2643 C 0.81467 0.34842 0.62675 0.0
C2644 C 0.83356 0.35254 0.62868 0.0
C2645 C 0.84201 0.34244 0.61628 0.0
C2646 C 0.85991 0.34589 0.61866 0.0
C2647 C 0.86943 0.3595 0.63329 0.0
C2648 C 0.86108 0.36966 0.6456 0.0
C2649 C 0.8432 0.36618 0.64336 0.0
H2650 H 0.88328 0.36216 0.6351 0.0
H2651 H 0.71007 0.32215 0.61437 0.0
H2652 H 0.42431 0.0521 0.3412 0.0
H2653 H 0.43979 0.04864 0.37248 0.0
H2654 H 0.48095 0.03332 0.34489 0.0
H2655 H 0.46526 0.03651 0.31346 0.0
H2656 H 0.47804 0.01242 0.37197 0.0
H2657 H 0.48173 0.07904 0.37547 0.0
H2658 H 0.47035 0.10813 0.37409 0.0
H2659 H 0.44087 0.09451 0.4187 0.0
H2660 H 0.45194 0.06524 0.42018 0.0
H2661 H 0.54077 0.02221 0.45627 0.0
H2662 H 0.52333 0.02469 0.42606 0.0
H2663 H 0.48412 0.04003 0.45702 0.0
H2664 H 0.50193 0.03797 0.48752 0.0
H2665 H 0.48481 0.0603 0.42886 0.0
H2666 H 0.48068 0.99495 0.42671 0.0
H2667 H 0.49031 0.96491 0.42837 0.0
H2668 H 0.51841 0.97466 0.38176 0.0
H2669 H 0.50914 1.0049 0.38001 0.0
C2670 C 0.43672 0.04812 0.34165 0.0
C2671 C 0.44334 0.04483 0.32428 0.0
C2672 C 0.44578 0.04621 0.35987 0.0
C2673 C 0.46209 0.04099 0.36188 0.0
C2674 C 0.4686 0.03745 0.34444 0.0
C2675 C 0.45954 0.0394 0.32619 0.0
C2676 C 0.47212 0.03901 0.38176 0.0
C2677 C 0.47966 0.02316 0.38421 0.0
C2678 C 0.47412 0.05233 0.39861 0.0
C2679 C 0.46752 0.0699 0.3978 0.0
C2680 C 0.47274 0.08221 0.38489 0.0
C2681 C 0.46636 0.09873 0.38411 0.0
C2682 C 0.45485 0.10314 0.39626 0.0
C2683 C 0.44975 0.09107 0.40927 0.0
C2684 C 0.45609 0.07452 0.41011 0.0
C2685 C 0.52836 0.02593 0.45688 0.0
C2686 C 0.523 0.02945 0.47499 0.0
C2687 C 0.51816 0.02727 0.43923 0.0
C2688 C 0.50184 0.03225 0.43845 0.0
C2689 C 0.49643 0.03599 0.45656 0.0
C2690 C 0.50669 0.03455 0.47434 0.0
C2691 C 0.49093 0.03384 0.41898 0.0
C2692 C 0.48322 0.04958 0.41662 0.0
C2693 C 0.48859 0.0203 0.40225 0.0
C2694 C 0.49437 1.00228 0.40337 0.0
C2695 C 0.48905 0.99077 0.41694 0.0
C2696 C 0.49441 0.97369 0.41787 0.0
C2697 C 0.505 0.96791 0.40522 0.0
C2698 C 0.51023 0.97918 0.39158 0.0
C2699 C 0.50492 0.99628 0.3906 0.0
H2700 H 0.50913 0.95467 0.40595 0.0
H2701 H 0.44992 0.11594 0.39562 0.0
H2702 H 0.77477 0.6657 0.08192 0.0
H2703 H 0.778 0.6815 0.11478 0.0
H2704 H 0.79391 0.73455 0.09527 0.0
H2705 H 0.79052 0.7188 0.06215 0.0
H2706 H 0.81413 0.72736 0.13173 0.0
H2707 H 0.75532 0.72584 0.10179 0.0
H2708 H 0.72751 0.70904 0.08367 0.0
H2709 H 0.72194 0.6731 0.12735 0.0
H2710 H 0.74984 0.68954 0.14559 0.0
H2711 H 0.80846 0.78279 0.21757 0.0
H2712 H 0.80607 0.77004 0.18371 0.0
H2713 H 0.77116 0.72115 0.19311 0.0
H2714 H 0.77229 0.73489 0.22639 0.0
H2715 H 0.76109 0.72676 0.16071 0.0
H2716 H 0.81751 0.72441 0.1907 0.0
H2717 H 0.84579 0.73738 0.21018 0.0
H2718 H 0.85725 0.7748 0.16905 0.0
H2719 H 0.82893 0.76225 0.14945 0.0
C2720 C 0.77904 0.68072 0.08459 0.0
C2721 C 0.78227 0.69102 0.0694 0.0
C2722 C 0.78091 0.68972 0.1034 0.0
C2723 C 0.78616 0.70919 0.10745 0.0
C2724 C 0.78989 0.7195 0.09244 0.0
C2725 C 0.78784 0.7105 0.07353 0.0
C2726 C 0.78672 0.71878 0.12718 0.0
C2727 C 0.80255 0.7275 0.13805 0.0
C2728 C 0.77169 0.7183 0.13563 0.0
C2729 C 0.75468 0.70884 0.12498 0.0
C2730 C 0.74818 0.71431 0.10748 0.0
C2731 C 0.73241 0.70485 0.09719 0.0
C2732 C 0.72297 0.68999 0.10434 0.0
C2733 C 0.72926 0.68461 0.12183 0.0
C2734 C 0.74503 0.69401 0.13216 0.0
C2735 C 0.8001 0.76946 0.21221 0.0
C2736 C 0.79052 0.75981 0.22443 0.0
C2737 C 0.7989 0.76202 0.19293 0.0
C2738 C 0.78884 0.74427 0.18579 0.0
C2739 C 0.77903 0.73483 0.19808 0.0
C2740 C 0.77968 0.74265 0.21713 0.0
C2741 C 0.7886 0.73544 0.16566 0.0
C2742 C 0.77278 0.72678 0.1546 0.0
C2743 C 0.80376 0.73539 0.15733 0.0
C2744 C 0.82105 0.74248 0.16868 0.0
C2745 C 0.82606 0.73543 0.18582 0.0
C2746 C 0.84207 0.74272 0.1969 0.0
C2747 C 0.85328 0.75692 0.19087 0.0
C2748 C 0.84854 0.7638 0.1737 0.0
C2749 C 0.83252 0.75659 0.16259 0.0
H2750 H 0.86564 0.76256 0.19949 0.0
H2751 H 0.71078 0.68267 0.09633 0.0
H2752 H 0.14205 0.02803 0.73542 0.0
H2753 H 0.12882 0.02372 0.70189 0.0
H2754 H 0.0876 0.04986 0.71784 0.0
H2755 H 0.10071 0.05388 0.75183 0.0
H2756 H 0.07583 0.01933 0.6905 0.0
H2757 H 0.12045 0.07409 0.69922 0.0
H2758 H 0.1499 0.09188 0.70941 0.0
H2759 H 0.1685 0.05423 0.67019 0.0
H2760 H 0.1392 0.03603 0.65999 0.0
H2761 H 0.05323 0.04768 0.59654 0.0
H2762 H 0.06523 0.05025 0.63066 0.0
H2763 H 0.09153 1.00496 0.61786 0.0
H2764 H 0.07901 1.00178 0.5838 0.0
H2765 H 0.11047 0.04531 0.64312 0.0
H2766 H 0.06759 0.98896 0.63681 0.0
H2767 H 0.03855 0.97056 0.62552 0.0
H2768 H 0.0174 0.0104 0.65936 0.0
H2769 H 0.04637 0.02928 0.67054 0.0
C2770 C 0.13015 0.03287 0.73187 0.0
C2771 C 0.1225 0.0415 0.74627 0.0
C2772 C 0.12262 0.03042 0.71264 0.0
C2773 C 0.10739 0.03678 0.70729 0.0
C2774 C 0.09942 0.04495 0.72166 0.0
C2775 C 0.10694 0.04731 0.74103 0.0
C2776 C 0.10012 0.03519 0.68663 0.0
C2777 C 0.08336 0.02523 0.68023 0.0
C2778 C 0.11005 0.04249 0.67307 0.0
C2779 C 0.12764 0.05362 0.67895 0.0
C2780 C 0.13084 0.06955 0.69285 0.0
C2781 C 0.1475 0.0797 0.69862 0.0
C2782 C 0.16107 0.07417 0.69048 0.0
C2783 C 0.15799 0.05849 0.6765 0.0
C2784 C 0.14135 0.04826 0.6707 0.0
C2785 C 0.06147 0.03819 0.60104 0.0
C2786 C 0.06508 0.02441 0.58764 0.0
C2787 C 0.06832 0.0397 0.62047 0.0
C2788 C 0.07919 0.02777 0.62665 0.0
C2789 C 0.08309 0.01422 0.61327 0.0
C2790 C 0.07586 0.01235 0.59391 0.0
C2791 C 0.08638 0.02944 0.64719 0.0
C2792 C 0.10304 0.03947 0.6535 0.0
C2793 C 0.07647 0.02208 0.66061 0.0
C2794 C 0.05909 0.01064 0.6543 0.0
C2795 C 0.05673 0.99391 0.64167 0.0
C2796 C 0.04029 0.98337 0.63533 0.0
C2797 C 0.02613 0.98933 0.64168 0.0
C2798 C 0.02839 1.00582 0.65443 0.0
C2799 C 0.04482 0.01645 0.66078 0.0
H2800 H 0.01341 0.98113 0.63679 0.0
H2801 H 0.17396 0.08204 0.69498 0.0
H2802 H 0.76699 0.37764 0.44373 0.0
H2803 H 0.78192 0.36799 0.41803 0.0
H2804 H 0.76431 0.31008 0.42394 0.0
H2805 H 0.7503 0.31984 0.4511 0.0
H2806 H 0.79711 0.31643 0.41985 0.0
H2807 H 0.74514 0.33281 0.38701 0.0
H2808 H 0.72509 0.35439 0.3814 0.0
H2809 H 0.7657 0.39513 0.36829 0.0
H2810 H 0.78599 0.37384 0.37399 0.0
H2811 H 0.78984 0.26884 0.32716 0.0
H2812 H 0.78816 0.28392 0.35919 0.0
H2813 H 0.81737 0.33547 0.3473 0.0
H2814 H 0.81954 0.32033 0.3155 0.0
H2815 H 0.78453 0.3373 0.35598 0.0
H2816 H 0.83489 0.31892 0.38209 0.0
H2817 H 0.85549 0.29795 0.38725 0.0
H2818 H 0.81932 0.26186 0.41265 0.0
H2819 H 0.79835 0.28246 0.40735 0.0
C2820 C 0.76595 0.36281 0.43933 0.0
C2821 C 0.75719 0.34938 0.44902 0.0
C2822 C 0.77458 0.35736 0.42471 0.0
C2823 C 0.77389 0.33836 0.4189 0.0
C2824 C 0.76487 0.32483 0.42828 0.0
C2825 C 0.75669 0.33034 0.44348 0.0
C2826 C 0.7825 0.33269 0.4029 0.0
C2827 C 0.79427 0.3208 0.40581 0.0
C2828 C 0.77939 0.33928 0.38497 0.0
C2829 C 0.76707 0.35181 0.38102 0.0
C2830 C 0.74977 0.34639 0.38296 0.0
C2831 C 0.73838 0.35857 0.37977 0.0
C2832 C 0.74412 0.37613 0.37452 0.0
C2833 C 0.76126 0.38153 0.37236 0.0
C2834 C 0.7727 0.3694 0.37552 0.0
C2835 C 0.79619 0.28325 0.33159 0.0
C2836 C 0.80449 0.2936 0.31893 0.0
C2837 C 0.79537 0.29177 0.34984 0.0
C2838 C 0.80275 0.31068 0.35541 0.0
C2839 C 0.81175 0.3208 0.34312 0.0
C2840 C 0.8128 0.31221 0.32499 0.0
C2841 C 0.79852 0.32037 0.37269 0.0
C2842 C 0.78761 0.33314 0.37009 0.0
C2843 C 0.80246 0.31462 0.39082 0.0
C2844 C 0.81501 0.3022 0.39424 0.0
C2845 C 0.83127 0.30644 0.38865 0.0
C2846 C 0.84302 0.29463 0.39162 0.0
C2847 C 0.83871 0.27858 0.40026 0.0
C2848 C 0.82264 0.27431 0.40597 0.0
C2849 C 0.81082 0.28607 0.40302 0.0
H2850 H 0.84783 0.26944 0.40254 0.0
H2851 H 0.73529 0.38556 0.37211 0.0
H2852 H 0.41269 0.03777 0.19465 0.0
H2853 H 0.42554 0.03613 0.16519 0.0
H2854 H 0.47582 0.04831 0.19912 0.0
H2855 H 0.46286 0.05091 0.22857 0.0
H2856 H 0.4813 0.06316 0.17096 0.0
H2857 H 0.44986 1.00074 0.16811 0.0
H2858 H 0.42479 0.97573 0.16733 0.0
H2859 H 0.39934 0.99352 0.11725 0.0
H2860 H 0.42419 0.01878 0.11787 0.0
H2861 H 0.52617 0.03704 0.09398 0.0
H2862 H 0.51189 0.03879 0.12222 0.0
H2863 H 0.46351 0.03422 0.08583 0.0
H2864 H 0.47792 0.03211 0.05719 0.0
H2865 H 0.45659 0.0159 0.11434 0.0
H2866 H 0.48949 0.07755 0.11688 0.0
H2867 H 0.51539 0.10151 0.11773 0.0
H2868 H 0.53896 0.08377 0.16888 0.0
H2869 H 0.51334 0.0595 0.16816 0.0
C2870 C 0.42652 0.04012 0.196 0.0
C2871 C 0.43647 0.04448 0.21459 0.0
C2872 C 0.43405 0.03892 0.17879 0.0
C2873 C 0.45207 0.04154 0.179 0.0
C2874 C 0.46199 0.04606 0.19767 0.0
C2875 C 0.45445 0.04751 0.21488 0.0
C2876 C 0.46054 0.04006 0.16023 0.0
C2877 C 0.47584 0.05251 0.15885 0.0
C2878 C 0.45382 0.0267 0.14342 0.0
C2879 C 0.43878 0.01178 0.1432 0.0
C2880 C 0.43885 0.99941 0.15704 0.0
C2881 C 0.4247 0.98518 0.1566 0.0
C2882 C 0.41046 0.98308 0.14229 0.0
C2883 C 0.41036 0.9952 0.12836 0.0
C2884 C 0.42447 1.00947 0.12875 0.0
C2885 C 0.51245 0.03637 0.0917 0.0
C2886 C 0.50352 0.03441 0.07265 0.0
C2887 C 0.50415 0.03759 0.10825 0.0
C2888 C 0.48629 0.03712 0.10699 0.0
C2889 C 0.47722 0.03481 0.08792 0.0
C2890 C 0.48559 0.03361 0.07124 0.0
C2891 C 0.47735 0.03884 0.1253 0.0
C2892 C 0.462 0.0265 0.12653 0.0
C2893 C 0.4841 0.05216 0.14206 0.0
C2894 C 0.49955 0.06662 0.14238 0.0
C2895 C 0.50025 0.07866 0.12822 0.0
C2896 C 0.51488 0.09231 0.12869 0.0
C2897 C 0.5288 0.09414 0.14335 0.0
C2898 C 0.52817 0.08231 0.15753 0.0
C2899 C 0.5136 0.06862 0.1571 0.0
H2900 H 0.54005 0.10478 0.14382 0.0
H2901 H 0.39952 0.97204 0.14197 0.0
H2902 H 0.7729 0.66339 0.9428 0.0
H2903 H 0.77499 0.67897 0.91408 0.0
H2904 H 0.7827 0.73262 0.94896 0.0
H2905 H 0.7801 0.71707 0.97758 0.0
H2906 H 0.76227 0.73365 0.91807 0.0
H2907 H 0.8162 0.7138 0.92941 0.0
H2908 H 0.83572 0.69162 0.93451 0.0
H2909 H 0.81387 0.66002 0.87949 0.0
H2910 H 0.79406 0.68188 0.87419 0.0
H2911 H 0.79312 0.78976 0.84942 0.0
H2912 H 0.79014 0.77326 0.87739 0.0
H2913 H 0.7788 0.72046 0.84049 0.0
H2914 H 0.782 0.73696 0.81246 0.0
H2915 H 0.80078 0.71865 0.87183 0.0
H2916 H 0.74698 0.73896 0.86064 0.0
H2917 H 0.72819 0.76186 0.85546 0.0
H2918 H 0.75072 0.79331 0.91035 0.0
H2919 H 0.76978 0.7707 0.91576 0.0
C2920 C 0.77501 0.67851 0.94435 0.0
C2921 C 0.77631 0.68894 0.96256 0.0
C2922 C 0.77635 0.68746 0.92788 0.0
C2923 C 0.77928 0.7071 0.9292 0.0
C2924 C 0.78045 0.7175 0.94739 0.0
C2925 C 0.77899 0.70856 0.96382 0.0
C2926 C 0.78084 0.71683 0.91168 0.0
C2927 C 0.77089 0.73048 0.90815 0.0
C2928 C 0.79174 0.71258 0.89828 0.0
C2929 C 0.80353 0.69934 0.90151 0.0
C2930 C 0.81546 0.70202 0.91848 0.0
C2931 C 0.82659 0.68953 0.92139 0.0
C2932 C 0.826 0.67439 0.90736 0.0
C2933 C 0.81429 0.67173 0.89037 0.0
C2934 C 0.80311 0.68417 0.8874 0.0
C2935 C 0.78984 0.77464 0.84723 0.0
C2936 C 0.78768 0.76471 0.82867 0.0
C2937 C 0.7881 0.76518 0.86327 0.0
C2938 C 0.78403 0.74553 0.86116 0.0
C2939 C 0.78189 0.73559 0.84259 0.0
C2940 C 0.78362 0.74506 0.82653 0.0
C2941 C 0.78224 0.73542 0.87833 0.0
C2942 C 0.79215 0.72174 0.88177 0.0
C2943 C 0.77136 0.73969 0.8917 0.0
C2944 C 0.75988 0.75323 0.88854 0.0
C2945 C 0.74799 0.75083 0.87155 0.0
C2946 C 0.73729 0.76374 0.86858 0.0
C2947 C 0.73829 0.77905 0.88255 0.0
C2948 C 0.74997 0.78145 0.89954 0.0
C2949 C 0.76071 0.76858 0.90258 0.0
H2950 H 0.72998 0.78902 0.88022 0.0
H2951 H 0.83464 0.66474 0.90963 0.0
H2952 H 0.85751 0.11823 0.04493 0.0
H2953 H 0.88471 0.10815 0.04295 0.0
H2954 H 0.91073 0.16574 0.04972 0.0
H2955 H 0.88358 0.17592 0.05146 0.0
H2956 H 0.91463 0.14641 0.01703 0.0
H2957 H 0.92263 0.13963 0.08243 0.0
H2958 H 0.91538 0.13118 0.11347 0.0
H2959 H 0.90417 0.07306 0.09026 0.0
H2960 H 0.91103 0.08113 0.05895 0.0
H2961 H 0.98635 0.09458 0.01073 0.0
H2962 H 0.96909 0.1184 0.01686 0.0
H2963 H 0.92336 0.07571 1.00486 0.0
H2964 H 0.94047 0.05195 0.99878 0.0
H2965 H 0.93711 0.0952 0.04601 0.0
H2966 H 0.92228 0.10443 0.97887 0.0
H2967 H 0.92931 0.11354 0.94795 0.0
H2968 H 0.95407 0.16822 0.97607 0.0
H2969 H 0.94742 0.1593 0.00724 0.0
C2970 C 0.86909 0.12869 0.04635 0.0
C2971 C 0.86853 0.14774 0.04789 0.0
C2972 C 0.8846 0.12297 0.04548 0.0
C2973 C 0.89961 0.1363 0.04633 0.0
C2974 C 0.89922 0.15537 0.04914 0.0
C2975 C 0.88372 0.16108 0.04994 0.0
C2976 C 0.91478 0.13013 0.04071 0.0
C2977 C 0.91998 0.13562 0.0237 0.0
C2978 C 0.92156 0.11608 0.04946 0.0
C2979 C 0.91737 0.11102 0.06829 0.0
C2980 C 0.91851 0.12504 0.08388 0.0
C2981 C 0.91447 0.12032 0.10155 0.0
C2982 C 0.90933 0.1016 0.10384 0.0
C2983 C 0.90819 0.08756 0.08847 0.0
C2984 C 0.91219 0.0922 0.07076 0.0
C2985 C 0.97253 0.09053 0.00834 0.0
C2986 C 0.96466 0.07156 1.00464 0.0
C2987 C 0.96276 0.10406 0.01191 0.0
C2988 C 0.94517 0.09852 0.01159 0.0
C2989 C 0.93703 0.07999 0.00516 0.0
C2990 C 0.94677 0.0665 1.00154 0.0
C2991 C 0.93591 0.11072 0.02184 0.0
C2992 C 0.93211 0.10643 0.03979 0.0
C2993 C 0.93047 0.1259 0.01404 0.0
C2994 C 0.93461 0.13112 0.99538 0.0
C2995 C 0.92943 0.11831 0.97849 0.0
C2996 C 0.93329 0.12346 0.96092 0.0
C2997 C 0.94219 0.14143 0.96006 0.0
C2998 C 0.94722 0.15429 0.97677 0.0
C2999 C 0.94342 0.1492 0.99438 0.0
H3000 H 0.94513 0.1454 0.94643 0.0
H3001 H 0.90623 0.09797 0.11754 0.0
H3002 H 0.37353 0.42839 0.07563 0.0
H3003 H 0.40291 0.44245 0.07253 0.0
H3004 H 0.38609 0.44862 0.01356 0.0
H3005 H 0.35681 0.43427 0.01652 0.0
H3006 H 0.4155 0.43756 0.01536 0.0
H3007 H 0.39585 0.48645 0.05141 0.0
H3008 H 0.38334 0.50079 0.07791 0.0
H3009 H 0.42424 0.49093 0.11888 0.0
H3010 H 0.43687 0.47628 0.09261 0.0
H3011 H 0.48646 0.5083 1.00324 0.0
H3012 H 0.45871 0.48921 0.00584 0.0
H3013 H 0.4794 0.47862 0.06209 0.0
H3014 H 0.50732 0.49736 0.05922 0.0
H3015 H 0.44874 0.49077 0.06222 0.0
H3016 H 0.46926 0.44354 0.02531 0.0
H3017 H 0.48141 0.4293 0.99847 0.0
H3018 H 0.43865 0.4366 0.9585 0.0
H3019 H 0.42636 0.45116 0.9851 0.0
C3020 C 0.37605 0.43286 0.06203 0.0
C3021 C 0.36265 0.43035 0.04641 0.0
C3022 C 0.39293 0.44097 0.06026 0.0
C3023 C 0.39694 0.44696 0.04284 0.0
C3024 C 0.38355 0.44425 0.02719 0.0
C3025 C 0.3667 0.43613 0.02895 0.0
C3026 C 0.41495 0.45607 0.04093 0.0
C3027 C 0.42263 0.44935 0.02551 0.0
C3028 C 0.42469 0.47124 0.05429 0.0
C3029 C 0.4172 0.48011 0.07008 0.0
C3030 C 0.40211 0.48722 0.06608 0.0
C3031 C 0.39501 0.49542 0.08105 0.0
C3032 C 0.40297 0.49673 0.10007 0.0
C3033 C 0.41808 0.48988 0.10414 0.0
C3034 C 0.42522 0.48164 0.08922 0.0
C3035 C 0.48521 0.50144 0.01592 0.0
C3036 C 0.49919 0.50404 0.03086 0.0
C3037 C 0.46929 0.49055 0.01745 0.0
C3038 C 0.46677 0.48232 0.03418 0.0
C3039 C 0.48088 0.48469 0.049 0.0
C3040 C 0.49692 0.49527 0.04729 0.0
C3041 C 0.44924 0.47232 0.03662 0.0
C3042 C 0.44163 0.47893 0.05212 0.0
C3043 C 0.43955 0.45715 0.02324 0.0
C3044 C 0.44699 0.44865 0.00718 0.0
C3045 C 0.46254 0.44231 0.01078 0.0
C3046 C 0.46943 0.43413 0.99561 0.0
C3047 C 0.46083 0.4321 0.97678 0.0
C3048 C 0.44531 0.43822 0.97309 0.0
C3049 C 0.43837 0.44643 0.98821 0.0
H3050 H 0.46617 0.42573 0.96506 0.0
H3051 H 0.39745 0.50308 0.11164 0.0
H3052 H 0.44257 0.5782 0.7755 0.0
H3053 H 0.43065 0.60667 0.77859 0.0
H3054 H 0.37952 0.57351 0.76537 0.0
H3055 H 0.39145 0.5451 0.76128 0.0
H3056 H 0.38075 0.60074 0.74629 0.0
H3057 H 0.39991 0.5963 0.81272 0.0
H3058 H 0.42069 0.59386 0.84089 0.0
H3059 H 0.45181 0.64572 0.83361 0.0
H3060 H 0.43133 0.64832 0.80523 0.0
H3061 H 0.33364 0.66795 0.77355 0.0
H3062 H 0.34857 0.64183 0.77633 0.0
H3063 H 0.39663 0.67831 0.77521 0.0
H3064 H 0.38178 0.70475 0.77279 0.0
H3065 H 0.39817 0.65098 0.80188 0.0
H3066 H 0.3788 0.65476 0.73528 0.0
H3067 H 0.3572 0.65762 0.70807 0.0
H3068 H 0.3257 0.60662 0.717 0.0
H3069 H 0.34702 0.60361 0.74446 0.0
C3070 C 0.42879 0.57701 0.77331 0.0
C3071 C 0.41791 0.55947 0.76813 0.0
C3072 C 0.42198 0.59329 0.77525 0.0
C3073 C 0.40416 0.59227 0.77254 0.0
C3074 C 0.39331 0.57468 0.76755 0.0
C3075 C 0.40012 0.55845 0.76524 0.0
C3076 C 0.39674 0.60948 0.7739 0.0
C3077 C 0.38443 0.61153 0.75863 0.0
C3078 C 0.40187 0.62395 0.78969 0.0
C3079 C 0.41419 0.62239 0.80673 0.0
C3080 C 0.41126 0.6071 0.81704 0.0
C3081 C 0.42297 0.6057 0.83306 0.0
C3082 C 0.43758 0.6196 0.839 0.0
C3083 C 0.4405 0.63495 0.82897 0.0
C3084 C 0.42884 0.63639 0.81292 0.0
C3085 C 0.34744 0.67056 0.77438 0.0
C3086 C 0.35654 0.6884 0.77288 0.0
C3087 C 0.35592 0.65559 0.77586 0.0
C3088 C 0.37363 0.65817 0.77579 0.0
C3089 C 0.38293 0.6761 0.77527 0.0
C3090 C 0.37443 0.69112 0.77372 0.0
C3091 C 0.38206 0.64179 0.77454 0.0
C3092 C 0.39457 0.64004 0.78967 0.0
C3093 C 0.37708 0.62749 0.75873 0.0
C3094 C 0.36442 0.62904 0.74199 0.0
C3095 C 0.36722 0.64422 0.7315 0.0
C3096 C 0.35504 0.64586 0.71603 0.0
C3097 C 0.34007 0.63233 0.71084 0.0
C3098 C 0.33729 0.61709 0.72106 0.0
C3099 C 0.34942 0.6154 0.73655 0.0
H3100 H 0.33064 0.63364 0.69887 0.0
H3101 H 0.44663 0.61849 0.85141 0.0
H3102 H 0.27059 0.63652 0.56097 0.0
H3103 H 0.2402 0.62221 0.55522 0.0
H3104 H 0.23361 0.64574 0.50201 0.0
H3105 H 0.26387 0.66107 0.50836 0.0
H3106 H 0.20518 0.64425 0.51993 0.0
H3107 H 0.24127 0.60193 0.50052 0.0
H3108 H 0.26668 0.58728 0.50566 0.0
H3109 H 0.24869 0.56416 0.55405 0.0
H3110 H 0.2233 0.57887 0.54934 0.0
H3111 H 0.12704 0.57411 0.50169 0.0
H3112 H 0.15422 0.59163 0.49531 0.0
H3113 H 0.1793 0.58228 0.55029 0.0
H3114 H 0.15245 0.56514 0.55681 0.0
H3115 H 0.19746 0.57572 0.52122 0.0
H3116 H 0.16506 0.62248 0.54453 0.0
H3117 H 0.14008 0.638 0.54132 0.0
H3118 H 0.15096 0.65271 0.48658 0.0
H3119 H 0.17587 0.63702 0.48936 0.0
C3120 C 0.26255 0.63885 0.54824 0.0
C3121 C 0.26941 0.64953 0.53493 0.0
C3122 C 0.24528 0.63074 0.54496 0.0
C3123 C 0.23491 0.63253 0.52791 0.0
C3124 C 0.24151 0.64413 0.51515 0.0
C3125 C 0.25872 0.65275 0.51874 0.0
C3126 C 0.21778 0.62075 0.52273 0.0
C3127 C 0.20343 0.62922 0.51981 0.0
C3128 C 0.21562 0.60115 0.52234 0.0
C3129 C 0.23039 0.59147 0.52455 0.0
C3130 C 0.24273 0.59368 0.51222 0.0
C3131 C 0.25714 0.5854 0.51509 0.0
C3132 C 0.25929 0.57479 0.53016 0.0
C3133 C 0.24699 0.57235 0.54235 0.0
C3134 C 0.23256 0.5806 0.53956 0.0
C3135 C 0.13842 0.57577 0.51232 0.0
C3136 C 0.13775 0.5682 0.5297 0.0
C3137 C 0.15385 0.58571 0.50864 0.0
C3138 C 0.16862 0.58816 0.52235 0.0
C3139 C 0.16799 0.58032 0.53948 0.0
C3140 C 0.15269 0.57046 0.54315 0.0
C3141 C 0.1849 0.59932 0.51961 0.0
C3142 C 0.19916 0.59068 0.52076 0.0
C3143 C 0.18691 0.61868 0.51846 0.0
C3144 C 0.17217 0.62841 0.51704 0.0
C3145 C 0.16205 0.62893 0.53176 0.0
C3146 C 0.14792 0.63776 0.53003 0.0
C3147 C 0.1439 0.64629 0.51373 0.0
C3148 C 0.15406 0.64607 0.49917 0.0
C3149 C 0.16818 0.63721 0.50082 0.0
H3150 H 0.13295 0.65311 0.5124 0.0
H3151 H 0.2705 0.56846 0.53241 0.0
H3152 H 0.67199 0.94059 0.79031 0.0
H3153 H 0.68577 0.91322 0.7886 0.0
H3154 H 0.73459 0.94907 0.79043 0.0
H3155 H 0.72064 0.9765 0.7918 0.0
H3156 H 0.73729 0.91981 0.76904 0.0
H3157 H 0.71892 0.92192 0.8302 0.0
H3158 H 0.69905 0.92294 0.85384 0.0
H3159 H 0.66837 0.87097 0.82519 0.0
H3160 H 0.68795 0.86978 0.80123 0.0
H3161 H 0.78664 0.84758 0.78777 0.0
H3162 H 0.77277 0.87484 0.78932 0.0
H3163 H 0.72354 0.8386 0.7827 0.0
H3164 H 0.73751 0.81115 0.78122 0.0
H3165 H 0.72129 0.86795 0.80645 0.0
H3166 H 0.74105 0.86603 0.74556 0.0
H3167 H 0.76254 0.86483 0.72383 0.0
H3168 H 0.79213 0.91683 0.75375 0.0
H3169 H 0.77094 0.91819 0.77586 0.0
C3170 C 0.68569 0.94287 0.79044 0.0
C3171 C 0.69486 0.96145 0.79135 0.0
C3172 C 0.69382 0.92685 0.7896 0.0
C3173 C 0.71176 0.92817 0.78973 0.0
C3174 C 0.72089 0.94678 0.79035 0.0
C3175 C 0.71275 0.96283 0.79124 0.0
C3176 C 0.72078 0.91055 0.78909 0.0
C3177 C 0.73375 0.90873 0.77753 0.0
C3178 C 0.71667 0.89514 0.79963 0.0
C3179 C 0.70477 0.89589 0.8138 0.0
C3180 C 0.70785 0.9108 0.82886 0.0
C3181 C 0.69666 0.91139 0.84232 0.0
C3182 C 0.68242 0.89706 0.84098 0.0
C3183 C 0.67937 0.88208 0.82619 0.0
C3184 C 0.69051 0.88144 0.81266 0.0
C3185 C 0.77283 0.84516 0.78663 0.0
C3186 C 0.76354 0.82647 0.78434 0.0
C3187 C 0.76469 0.86113 0.78737 0.0
C3188 C 0.74664 0.85964 0.78585 0.0
C3189 C 0.73735 0.84095 0.78389 0.0
C3190 C 0.7455 0.82491 0.78299 0.0
C3191 C 0.73767 0.87722 0.78637 0.0
C3192 C 0.72474 0.87903 0.79792 0.0
C3193 C 0.74194 0.89267 0.77596 0.0
C3194 C 0.75449 0.89213 0.76246 0.0
C3195 C 0.75218 0.87717 0.74755 0.0
C3196 C 0.76431 0.87645 0.73517 0.0
C3197 C 0.77871 0.89072 0.73743 0.0
C3198 C 0.78097 0.90577 0.75203 0.0
C3199 C 0.76891 0.90653 0.76448 0.0
H3200 H 0.7881 0.89013 0.72785 0.0
H3201 H 0.67378 0.89753 0.85144 0.0
H3202 H 0.78038 0.94936 0.54535 0.0
H3203 H 0.75367 0.96125 0.54045 0.0
H3204 H 0.7247 0.90514 0.53562 0.0
H3205 H 0.75141 0.89317 0.53959 0.0
H3206 H 0.70858 0.92112 0.51151 0.0
H3207 H 0.7302 0.9395 0.57765 0.0
H3208 H 0.75118 0.95353 0.60644 0.0
H3209 H 0.75456 1.00743 0.58717 0.0
H3210 H 0.73375 0.99366 0.55812 0.0
H3211 H 0.63041 0.95411 0.52404 0.0
H3212 H 0.65562 0.93944 0.52754 0.0
H3213 H 0.6881 0.99259 0.52652 0.0
H3214 H 0.6632 1.0075 0.52408 0.0
H3215 H 0.70127 0.97632 0.55435 0.0
H3216 H 0.67698 0.95461 0.48718 0.0
H3217 H 0.65426 0.9381 0.46095 0.0
H3218 H 0.65351 0.88716 0.48587 0.0
H3219 H 0.67606 0.90343 0.51239 0.0
C3220 C 0.76833 0.93956 0.54329 0.0
C3221 C 0.76811 0.92032 0.54304 0.0
C3222 C 0.75297 0.94639 0.54058 0.0
C3223 C 0.73693 0.93422 0.53802 0.0
C3224 C 0.73675 0.91495 0.53757 0.0
C3225 C 0.7521 0.9081 0.53998 0.0
C3226 C 0.72045 0.94158 0.5359 0.0
C3227 C 0.70697 0.93307 0.52106 0.0
C3228 C 0.71803 0.95716 0.54825 0.0
C3229 C 0.73056 0.96551 0.56564 0.0
C3230 C 0.73552 0.95432 0.57949 0.0
C3231 C 0.74736 0.96223 0.59586 0.0
C3232 C 0.75423 0.98135 0.5986 0.0
C3233 C 0.74925 0.99261 0.585 0.0
C3234 C 0.73742 0.98477 0.56859 0.0
C3235 C 0.6429 0.96275 0.52464 0.0
C3236 C 0.64457 0.9821 0.52367 0.0
C3237 C 0.65736 0.95424 0.52641 0.0
C3238 C 0.6739 0.96478 0.52706 0.0
C3239 C 0.67556 0.98403 0.52597 0.0
C3240 C 0.66118 0.99255 0.52434 0.0
C3241 C 0.68962 0.95618 0.52969 0.0
C3242 C 0.70293 0.96441 0.54475 0.0
C3243 C 0.69161 0.94003 0.51787 0.0
C3244 C 0.67811 0.93029 0.50186 0.0
C3245 C 0.67189 0.93993 0.48714 0.0
C3246 C 0.65905 0.9306 0.47221 0.0
C3247 C 0.65242 0.91161 0.47177 0.0
C3248 C 0.65864 0.90188 0.48623 0.0
C3249 C 0.67145 0.91114 0.50121 0.0
H3250 H 0.64249 0.90441 0.46019 0.0
H3251 H 0.7634 0.98745 0.61129 0.0
H3252 H 0.3856 0.47152 0.7685 0.0
H3253 H 0.36826 0.44172 0.77241 0.0
H3254 H 0.40681 0.41271 0.75371 0.0
H3255 H 0.42419 0.44257 0.7496 0.0
H3256 H 0.37614 0.39447 0.73738 0.0
H3257 H 0.40227 0.41877 0.80074 0.0
H3258 H 0.41174 0.44148 0.83012 0.0
H3259 H 0.35937 0.44236 0.83629 0.0
H3260 H 0.34956 0.41989 0.80672 0.0
H3261 H 0.33586 0.30868 0.76334 0.0
H3262 H 0.35715 0.33687 0.76291 0.0
H3263 H 0.32101 0.37086 0.77871 0.0
H3264 H 0.3002 0.34246 0.78036 0.0
H3265 H 0.35292 0.38539 0.7979 0.0
H3266 H 0.32827 0.36116 0.73125 0.0
H3267 H 0.32106 0.3361 0.70364 0.0
H3268 H 0.37426 0.33308 0.70604 0.0
H3269 H 0.38174 0.35796 0.73382 0.0
C3270 C 0.39034 0.45879 0.76507 0.0
C3271 C 0.40624 0.4594 0.75864 0.0
C3272 C 0.38048 0.44176 0.76749 0.0
C3273 C 0.38631 0.42494 0.76361 0.0
C3274 C 0.40205 0.42548 0.75685 0.0
C3275 C 0.41196 0.44255 0.75447 0.0
C3276 C 0.37576 0.40683 0.76629 0.0
C3277 C 0.37128 0.39244 0.75072 0.0
C3278 C 0.36937 0.40406 0.78368 0.0
C3279 C 0.37517 0.41778 0.80136 0.0
C3280 C 0.39276 0.42395 0.80823 0.0
C3281 C 0.39819 0.43676 0.82495 0.0
C3282 C 0.38616 0.4434 0.83504 0.0
C3283 C 0.36867 0.43723 0.82844 0.0
C3284 C 0.36317 0.42445 0.81169 0.0
C3285 C 0.33274 0.32216 0.76726 0.0
C3286 C 0.31663 0.32343 0.77224 0.0
C3287 C 0.34475 0.3383 0.76668 0.0
C3288 C 0.34067 0.35608 0.77061 0.0
C3289 C 0.3245 0.35734 0.77564 0.0
C3290 C 0.31256 0.34115 0.77638 0.0
C3291 C 0.35296 0.37332 0.76883 0.0
C3292 C 0.35782 0.38751 0.78459 0.0
C3293 C 0.36 0.37576 0.75177 0.0
C3294 C 0.35554 0.36132 0.73464 0.0
C3295 C 0.33841 0.35512 0.72589 0.0
C3296 C 0.33428 0.34094 0.71023 0.0
C3297 C 0.34719 0.33299 0.7031 0.0
C3298 C 0.36427 0.33926 0.71157 0.0
C3299 C 0.36847 0.35341 0.72725 0.0
H3300 H 0.34396 0.32198 0.691 0.0
H3301 H 0.3904 0.45328 0.848 0.0
H3302 H 0.22156 0.5614 0.29457 0.0
H3303 H 0.23629 0.5938 0.29535 0.0
H3304 H 0.19034 0.61327 0.30623 0.0
H3305 H 0.17551 0.5809 0.30468 0.0
H3306 H 0.20218 0.63541 0.28591 0.0
H3307 H 0.23142 0.6179 0.34132 0.0
H3308 H 0.24786 0.60006 0.36193 0.0
H3309 H 0.28921 0.60913 0.32924 0.0
H3310 H 0.2729 0.62682 0.30826 0.0
H3311 H 0.24969 0.7318 0.31896 0.0
H3312 H 0.23487 0.69948 0.3197 0.0
H3313 H 0.26724 0.67873 0.28207 0.0
H3314 H 0.28154 0.71087 0.28066 0.0
H3315 H 0.26233 0.65837 0.31706 0.0
H3316 H 0.23 0.67806 0.26251 0.0
H3317 H 0.21288 0.69885 0.24712 0.0
H3318 H 0.17605 0.68827 0.28528 0.0
H3319 H 0.19312 0.66765 0.30112 0.0
C3320 C 0.21456 0.57254 0.29726 0.0
C3321 C 0.19718 0.56808 0.29968 0.0
C3322 C 0.22313 0.59137 0.29785 0.0
C3323 C 0.21484 0.60677 0.30121 0.0
C3324 C 0.19743 0.60221 0.30359 0.0
C3325 C 0.18885 0.58341 0.30282 0.0
C3326 C 0.22397 0.62733 0.30182 0.0
C3327 C 0.21528 0.64022 0.29301 0.0
C3328 C 0.2412 0.63454 0.31093 0.0
C3329 C 0.25083 0.62342 0.32305 0.0
C3330 C 0.24393 0.61589 0.33838 0.0
C3331 C 0.25325 0.60585 0.35016 0.0
C3332 C 0.26954 0.60339 0.34684 0.0
C3333 C 0.27656 0.61098 0.33175 0.0
C3334 C 0.26729 0.62101 0.3199 0.0
C3335 C 0.25375 0.7204 0.31089 0.0
C3336 C 0.26702 0.72432 0.29979 0.0
C3337 C 0.24516 0.70175 0.31126 0.0
C3338 C 0.24976 0.68621 0.30096 0.0
C3339 C 0.26326 0.69013 0.29024 0.0
C3340 C 0.27149 0.70872 0.28944 0.0
C3341 C 0.24055 0.66602 0.30107 0.0
C3342 C 0.24924 0.65332 0.30999 0.0
C3343 C 0.22318 0.65918 0.29267 0.0
C3344 C 0.21293 0.6715 0.28313 0.0
C3345 C 0.21834 0.68032 0.26775 0.0
C3346 C 0.20863 0.69204 0.25892 0.0
C3347 C 0.19342 0.69493 0.26526 0.0
C3348 C 0.18786 0.68605 0.28041 0.0
C3349 C 0.19754 0.67435 0.28931 0.0
H3350 H 0.18591 0.704 0.2584 0.0
H3351 H 0.27675 0.59565 0.35601 0.0
H3352 H 0.54446 0.73229 0.47271 0.0
H3353 H 0.54909 0.70513 0.48877 0.0
H3354 H 0.51317 0.66892 0.44387 0.0
H3355 H 0.50887 0.69597 0.42736 0.0
H3356 H 0.51513 0.67215 0.49504 0.0
H3357 H 0.54037 0.65795 0.43489 0.0
H3358 H 0.56087 0.66846 0.41345 0.0
H3359 H 0.60177 0.68114 0.46138 0.0
H3360 H 0.5814 0.67106 0.48314 0.0
H3361 H 0.51862 0.57902 0.5155 0.0
H3362 H 0.51436 0.60735 0.50145 0.0
H3363 H 0.56873 0.6289 0.51423 0.0
H3364 H 0.57305 0.60077 0.52815 0.0
H3365 H 0.55883 0.63484 0.4802 0.0
H3366 H 0.5398 0.64498 0.53882 0.0
H3367 H 0.52435 0.64279 0.56648 0.0
H3368 H 0.47788 0.64718 0.53094 0.0
H3369 H 0.49264 0.64776 0.5027 0.0
C3370 C 0.53754 0.71855 0.46622 0.0
C3371 C 0.52628 0.71634 0.44871 0.0
C3372 C 0.54024 0.70303 0.47541 0.0
C3373 C 0.5316 0.68495 0.46745 0.0
C3374 C 0.52012 0.68271 0.45017 0.0
C3375 C 0.51765 0.69819 0.44077 0.0
C3376 C 0.53429 0.66848 0.47739 0.0
C3377 C 0.52435 0.66361 0.49155 0.0
C3378 C 0.54719 0.65827 0.47378 0.0
C3379 C 0.55935 0.66402 0.46063 0.0
C3380 C 0.55369 0.6632 0.44087 0.0
C3381 C 0.56529 0.66903 0.42866 0.0
C3382 C 0.5826 0.67553 0.43606 0.0
C3383 C 0.58836 0.67616 0.45568 0.0
C3384 C 0.57679 0.67039 0.46794 0.0
C3385 C 0.52965 0.58986 0.51548 0.0
C3386 C 0.54618 0.58751 0.52306 0.0
C3387 C 0.5272 0.60613 0.50745 0.0
C3388 C 0.54121 0.62044 0.50671 0.0
C3389 C 0.55767 0.61815 0.51446 0.0
C3390 C 0.56011 0.602 0.52257 0.0
C3391 C 0.53888 0.63752 0.49739 0.0
C3392 C 0.54918 0.64284 0.48354 0.0
C3393 C 0.5267 0.64859 0.50192 0.0
C3394 C 0.51732 0.64607 0.51846 0.0
C3395 C 0.52615 0.64479 0.53669 0.0
C3396 C 0.51749 0.64382 0.55252 0.0
C3397 C 0.50009 0.64461 0.55044 0.0
C3398 C 0.4913 0.64626 0.53249 0.0
C3399 C 0.49976 0.64667 0.51652 0.0
H3400 H 0.49345 0.6441 0.56275 0.0
H3401 H 0.59156 0.68004 0.42659 0.0
H3402 H 0.6187 0.26641 0.66158 0.0
H3403 H 0.6468 0.26583 0.67977 0.0
H3404 H 0.6474 0.31987 0.71083 0.0
H3405 H 0.61891 0.32025 0.69309 0.0
H3406 H 0.6795 0.31335 0.69294 0.0
H3407 H 0.64126 0.28986 0.7355 0.0
H3408 H 0.61622 0.26901 0.74314 0.0
H3409 H 0.63779 0.22116 0.72647 0.0
H3410 H 0.66285 0.24175 0.7184 0.0
H3411 H 0.75099 0.32131 0.7654 0.0
H3412 H 0.72307 0.32085 0.74675 0.0
H3413 H 0.71588 0.261 0.73269 0.0
H3414 H 0.74391 0.26139 0.75197 0.0
H3415 H 0.68681 0.26971 0.74098 0.0
H3416 H 0.72509 0.29181 0.69921 0.0
H3417 H 0.74983 0.31145 0.68951 0.0
H3418 H 0.72832 0.36029 0.70202 0.0
H3419 H 0.70357 0.34098 0.71212 0.0
C3420 C 0.62477 0.27817 0.67233 0.0
C3421 C 0.6165 0.29337 0.67588 0.0
C3422 C 0.64086 0.27781 0.68273 0.0
C3423 C 0.6493 0.29281 0.69667 0.0
C3424 C 0.64119 0.30814 0.70013 0.0
C3425 C 0.62486 0.3083 0.69004 0.0
C3426 C 0.66653 0.29236 0.70762 0.0
C3427 C 0.68109 0.30402 0.70366 0.0
C3428 C 0.66874 0.27971 0.7211 0.0
C3429 C 0.65383 0.26732 0.72615 0.0
C3430 C 0.64059 0.27488 0.73329 0.0
C3431 C 0.62641 0.26311 0.73773 0.0
C3432 C 0.62539 0.24376 0.73524 0.0
C3433 C 0.63858 0.23615 0.72836 0.0
C3434 C 0.65278 0.24786 0.72386 0.0
C3435 C 0.74358 0.30802 0.75821 0.0
C3436 C 0.74982 0.2914 0.76014 0.0
C3437 C 0.72754 0.30778 0.74743 0.0
C3438 C 0.71724 0.29093 0.73795 0.0
C3439 C 0.72348 0.27424 0.73975 0.0
C3440 C 0.73961 0.27448 0.75065 0.0
C3441 C 0.69997 0.29091 0.72651 0.0
C3442 C 0.68534 0.27909 0.7303 0.0
C3443 C 0.69771 0.30328 0.71265 0.0
C3444 C 0.71254 0.31496 0.70657 0.0
C3445 C 0.72569 0.30676 0.70003 0.0
C3446 C 0.73971 0.31783 0.69444 0.0
C3447 C 0.74065 0.33711 0.69517 0.0
C3448 C 0.72757 0.34536 0.70148 0.0
C3449 C 0.71354 0.33435 0.70712 0.0
H3450 H 0.75151 0.34565 0.69081 0.0
H3451 H 0.6144 0.23467 0.73869 0.0
H3452 H 0.01445 0.32777 0.92417 0.0
H3453 H 0.01399 0.35898 0.93952 0.0
H3454 H 0.0413 0.34728 0.99225 0.0
H3455 H 0.04079 0.3154 0.97712 0.0
H3456 H 0.01954 0.36594 1.00163 0.0
H3457 H 0.06078 0.37639 0.96006 0.0
H3458 H 0.07323 0.37437 0.93007 0.0
H3459 H 0.03458 0.40109 0.90305 0.0
H3460 H 0.02178 0.40306 0.93281 0.0
H3461 H 0.05289 0.46568 0.03222 0.0
H3462 H 0.05013 0.43249 0.02042 0.0
H3463 H 1.00255 0.43353 0.98457 0.0
H3464 H 1.00496 0.46677 0.99684 0.0
H3465 H 0.03469 0.42083 0.96774 0.0
H3466 H 0.99519 0.41051 0.01387 0.0
H3467 H 0.98746 0.41418 0.04642 0.0
H3468 H 0.02946 0.38904 0.06782 0.0
H3469 H 0.0376 0.38549 0.03544 0.0
C3470 C 0.02045 0.33187 0.93901 0.0
C3471 C 0.02782 0.31921 0.94939 0.0
C3472 C 0.02027 0.34981 0.94778 0.0
C3473 C 0.02798 0.3558 0.96697 0.0
C3474 C 0.03531 0.3431 0.97742 0.0
C3475 C 0.03511 0.32491 0.96875 0.0
C3476 C 0.02814 0.3752 0.97605 0.0
C3477 C 0.02304 0.3779 0.99423 0.0
C3478 C 0.03269 0.391 0.96657 0.0
C3479 C 0.04023 0.3897 0.94859 0.0
C3480 C 0.05486 0.3817 0.94766 0.0
C3481 C 0.06199 0.38059 0.93072 0.0
C3482 C 0.05467 0.38755 0.91465 0.0
C3483 C 0.04022 0.39568 0.9155 0.0
C3484 C 0.03303 0.39681 0.9324 0.0
C3485 C 0.04169 0.45876 0.02206 0.0
C3486 C 0.02915 0.46875 0.01537 0.0
C3487 C 0.04012 0.43982 0.0154 0.0
C3488 C 0.02615 0.43063 1.00168 0.0
C3489 C 0.01338 0.44043 0.99526 0.0
C3490 C 0.01473 0.45933 1.00229 0.0
C3491 C 0.02578 0.41129 0.9929 0.0
C3492 C 0.03105 0.40873 0.97492 0.0
C3493 C 0.02201 0.39578 1.00285 0.0
C3494 C 0.0171 0.39791 0.02229 0.0
C3495 C 1.00289 0.40595 0.02556 0.0
C3496 C 0.9984 0.40796 0.04397 0.0
C3497 C 1.00798 0.40189 0.05919 0.0
C3498 C 0.02206 0.39375 0.05603 0.0
C3499 C 0.0266 0.39172 0.03765 0.0
H3500 H 1.00448 0.40344 0.07343 0.0
H3501 H 0.06022 0.38669 0.90155 0.0
H3502 H 0.03506 0.76736 0.18977 0.0
H3503 H 1.00832 0.76116 0.2032 0.0
H3504 H 0.98678 0.79768 0.16706 0.0
H3505 H 0.0135 0.80417 0.15393 0.0
H3506 H 0.97968 0.80484 0.20144 0.0
H3507 H 0.97513 0.74829 0.15829 0.0
H3508 H 0.9839 0.71971 0.14458 0.0
H3509 H 0.9845 0.69884 0.19898 0.0
H3510 H 0.97596 0.72743 0.21308 0.0
H3511 H 0.89355 0.78287 0.21404 0.0
H3512 H 0.91934 0.78427 0.1991 0.0
H3513 H 0.93962 0.75082 0.23968 0.0
H3514 H 0.91383 0.74932 0.25477 0.0
H3515 H 0.94744 0.74118 0.20381 0.0
H3516 H 0.95316 0.79781 0.24708 0.0
H3517 H 0.94311 0.82559 0.26073 0.0
H3518 H 0.93979 0.84556 0.2058 0.0
H3519 H 0.94968 0.81776 0.19178 0.0
C3520 C 0.02464 0.77413 0.18476 0.0
C3521 C 0.0265 0.78639 0.17087 0.0
C3522 C 1.00926 0.77043 0.19232 0.0
C3523 C 0.99533 0.77877 0.18605 0.0
C3524 C 0.99725 0.79104 0.17221 0.0
C3525 C 0.0126 0.79478 0.16471 0.0
C3526 C 0.97897 0.77535 0.19428 0.0
C3527 C 0.97258 0.79087 0.20166 0.0
C3528 C 0.96976 0.75717 0.19518 0.0
C3529 C 0.97511 0.7401 0.1868 0.0
C3530 C 0.97731 0.73769 0.16738 0.0
C3531 C 0.9822 0.72147 0.15952 0.0
C3532 C 0.98481 0.70749 0.17092 0.0
C3533 C 0.98251 0.7097 0.19018 0.0
C3534 C 0.97764 0.7259 0.19811 0.0
C3535 C 0.90342 0.77574 0.21982 0.0
C3536 C 0.90151 0.76608 0.23577 0.0
C3537 C 0.91821 0.77652 0.21119 0.0
C3538 C 0.93162 0.76788 0.2184 0.0
C3539 C 0.9295 0.7576 0.23381 0.0
C3540 C 0.91466 0.75674 0.24242 0.0
C3541 C 0.9482 0.77065 0.21065 0.0
C3542 C 0.95462 0.75508 0.2035 0.0
C3543 C 0.95751 0.78876 0.20994 0.0
C3544 C 0.95208 0.80572 0.21839 0.0
C3545 C 0.95026 0.80812 0.23792 0.0
C3546 C 0.94459 0.82385 0.24571 0.0
C3547 C 0.94082 0.83732 0.23414 0.0
C3548 C 0.94274 0.83512 0.21474 0.0
C3549 C 0.94841 0.8194 0.20688 0.0
H3550 H 0.93646 0.84949 0.24023 0.0
H3551 H 0.98858 0.69494 0.1648 0.0
H3552 H 0.56045 0.29084 0.12987 0.0
H3553 H 0.5706 0.31734 0.11361 0.0
H3554 H 0.58278 0.35328 0.16797 0.0
H3555 H 0.57261 0.32679 0.18442 0.0
H3556 H 0.5628 0.36623 0.13997 0.0
H3557 H 0.61484 0.34301 0.14698 0.0
H3558 H 0.63329 0.31947 0.14503 0.0
H3559 H 0.61893 0.30921 0.08367 0.0
H3560 H 0.60017 0.33248 0.08527 0.0
H3561 H 0.58974 0.44163 0.09367 0.0
H3562 H 0.59563 0.41895 0.11528 0.0
H3563 H 0.58012 0.3745 0.0677 0.0
H3564 H 0.57382 0.39712 0.04616 0.0
H3565 H 0.6062 0.3683 0.09605 0.0
H3566 H 0.55108 0.38695 0.08932 0.0
H3567 H 0.53047 0.4082 0.09065 0.0
H3568 H 0.54826 0.42442 0.15106 0.0
H3569 H 0.56952 0.40393 0.14988 0.0
C3570 C 0.56522 0.30441 0.13834 0.0
C3571 C 0.56562 0.30692 0.15833 0.0
C3572 C 0.57124 0.31941 0.1291 0.0
C3573 C 0.5777 0.33703 0.13974 0.0
C3574 C 0.578 0.33963 0.15967 0.0
C3575 C 0.57207 0.3246 0.16896 0.0
C3576 C 0.58246 0.35308 0.1297 0.0
C3577 C 0.57263 0.36702 0.13079 0.0
C3578 C 0.59489 0.35354 0.11732 0.0
C3579 C 0.60601 0.3394 0.11627 0.0
C3580 C 0.61548 0.3356 0.13309 0.0
C3581 C 0.62603 0.32234 0.13204 0.0
C3582 C 0.62726 0.31283 0.11424 0.0
C3583 C 0.61796 0.31658 0.09745 0.0
C3584 C 0.60738 0.32982 0.09841 0.0
C3585 C 0.58806 0.4271 0.0878 0.0
C3586 C 0.58097 0.42098 0.06849 0.0
C3587 C 0.59153 0.41423 0.10006 0.0
C3588 C 0.58798 0.39518 0.093 0.0
C3589 C 0.58289 0.38924 0.07328 0.0
C3590 C 0.57932 0.40213 0.06102 0.0
C3591 C 0.58652 0.38138 0.10638 0.0
C3592 C 0.59677 0.3678 0.10572 0.0
C3593 C 0.57428 0.38105 0.11903 0.0
C3594 C 0.56215 0.39419 0.11943 0.0
C3595 C 0.55088 0.39538 0.10279 0.0
C3596 C 0.53904 0.40726 0.10352 0.0
C3597 C 0.53809 0.41772 0.12091 0.0
C3598 C 0.54907 0.41642 0.13756 0.0
C3599 C 0.56109 0.40477 0.13685 0.0
H3600 H 0.52886 0.42684 0.12148 0.0
H3601 H 0.63545 0.30258 0.11346 0.0
H3602 H 0.97365 0.27171 0.36228 0.0
H3603 H 0.94595 0.27301 0.34411 0.0
H3604 H 0.97094 0.3106 0.30916 0.0
H3605 H 0.99877 0.3096 0.32745 0.0
H3606 H 0.94514 0.32348 0.32729 0.0
H3607 H 0.95383 0.2662 0.29076 0.0
H3608 H 0.95939 0.23403 0.2881 0.0
H3609 H 0.91461 0.21591 0.31329 0.0
H3610 H 0.90898 0.24802 0.31647 0.0
H3611 H 0.86662 0.32574 0.26692 0.0
H3612 H 0.89652 0.3246 0.27957 0.0
H3613 H 0.87865 0.27809 0.30908 0.0
H3614 H 0.84923 0.27871 0.29579 0.0
H3615 H 0.90219 0.27026 0.2907 0.0
H3616 H 0.89389 0.32149 0.33298 0.0
H3617 H 0.88652 0.352 0.34292 0.0
H3618 H 0.92734 0.37956 0.31663 0.0
H3619 H 0.93477 0.34915 0.30623 0.0
C3620 C 0.97327 0.27993 0.35045 0.0
C3621 C 0.98823 0.29061 0.34621 0.0
C3622 C 0.95749 0.28063 0.34012 0.0
C3623 C 0.95661 0.29181 0.32535 0.0
C3624 C 0.97156 0.30187 0.32054 0.0
C3625 C 0.98736 0.30122 0.3309 0.0
C3626 C 0.93997 0.29421 0.316 0.0
C3627 C 0.9358 0.31199 0.3189 0.0
C3628 C 0.9277 0.27888 0.3061 0.0
C3629 C 0.93105 0.25954 0.30392 0.0
C3630 C 0.94524 0.25538 0.29585 0.0
C3631 C 0.9484 0.23715 0.29425 0.0
C3632 C 0.93738 0.22294 0.30055 0.0
C3633 C 0.92315 0.22692 0.30843 0.0
C3634 C 0.91997 0.24513 0.31012 0.0
C3635 C 0.86931 0.31537 0.27609 0.0
C3636 C 0.85608 0.30209 0.28026 0.0
C3637 C 0.8862 0.31477 0.28335 0.0
C3638 C 0.88964 0.3012 0.29513 0.0
C3639 C 0.8762 0.28846 0.29979 0.0
C3640 C 0.85951 0.28882 0.29225 0.0
C3641 C 0.90721 0.29953 0.30212 0.0
C3642 C 0.91158 0.28189 0.29877 0.0
C3643 C 0.9193 0.31473 0.3126 0.0
C3644 C 0.91472 0.33302 0.31855 0.0
C3645 C 0.90116 0.33403 0.3291 0.0
C3646 C 0.897 0.35131 0.33486 0.0
C3647 C 0.90641 0.3677 0.33033 0.0
C3648 C 0.92002 0.36685 0.32006 0.0
C3649 C 0.92421 0.34959 0.31422 0.0
H3650 H 0.90319 0.38107 0.33483 0.0
H3651 H 0.93984 0.20884 0.29928 0.0
H3652 H 0.04432 0.7262 0.62206 0.0
H3653 H 0.04352 0.69953 0.59817 0.0
H3654 H 0.05797 0.66738 0.64319 0.0
H3655 H 0.05935 0.69444 0.66735 0.0
H3656 H 0.07618 0.66362 0.61465 0.0
H3657 H 0.01697 0.65926 0.61988 0.0
H3658 H 0.98995 0.67079 0.62089 0.0
H3659 H 0.98985 0.68364 0.56316 0.0
H3660 H 0.01701 0.67242 0.5619 0.0
H3661 H 0.04917 0.57382 0.56298 0.0
H3662 H 0.05398 0.60282 0.58457 0.0
H3663 H 0.04545 0.633 0.53622 0.0
H3664 H 0.04066 0.60365 0.5142 0.0
H3665 H 0.02507 0.63865 0.56511 0.0
H3666 H 0.08455 0.64013 0.56046 0.0
H3667 H 0.10988 0.6253 0.56033 0.0
H3668 H 0.1078 0.61487 0.61855 0.0
H3669 H 0.08229 0.62939 0.61893 0.0
C3670 C 0.04718 0.7134 0.62692 0.0
C3671 C 0.0518 0.71225 0.64653 0.0
C3672 C 0.04668 0.69819 0.61326 0.0
C3673 C 0.05047 0.68149 0.61899 0.0
C3674 C 0.05497 0.68021 0.63857 0.0
C3675 C 0.05565 0.69556 0.65231 0.0
C3676 C 0.05009 0.66556 0.60437 0.0
C3677 C 0.06496 0.65804 0.60393 0.0
C3678 C 0.03553 0.65859 0.59023 0.0
C3679 C 0.0191 0.66516 0.59086 0.0
C3680 C 0.01124 0.66466 0.60744 0.0
C3681 C 0.9959 0.67112 0.60806 0.0
C3682 C 0.98822 0.67799 0.59212 0.0
C3683 C 0.99583 0.67834 0.5755 0.0
C3684 C 0.01119 0.67191 0.57482 0.0
C3685 C 0.04896 0.58666 0.55681 0.0
C3686 C 0.04479 0.58657 0.53691 0.0
C3687 C 0.05159 0.60321 0.5692 0.0
C3688 C 0.0502 0.61994 0.56189 0.0
C3689 C 0.04666 0.62011 0.54199 0.0
C3690 C 0.04406 0.60345 0.52949 0.0
C3691 C 0.05116 0.63685 0.57537 0.0
C3692 C 0.03635 0.64448 0.57567 0.0
C3693 C 0.06566 0.64368 0.58956 0.0
C3694 C 0.08151 0.63582 0.58971 0.0
C3695 C 0.0895 0.63466 0.57323 0.0
C3696 C 0.10387 0.62629 0.5731 0.0
C3697 C 0.11044 0.61914 0.58942 0.0
C3698 C 0.10271 0.62044 0.60593 0.0
C3699 C 0.08832 0.62878 0.60613 0.0
H3700 H 0.12153 0.6126 0.58926 0.0
H3701 H 0.97634 0.68299 0.59262 0.0
H3702 H 0.5721 0.8243 0.84405 0.0
H3703 H 0.5961 0.82044 0.82694 0.0
H3704 H 0.6016 0.77108 0.85372 0.0
H3705 H 0.57861 0.7758 0.87181 0.0
H3706 H 0.63082 0.78896 0.85342 0.0
H3707 H 0.58018 0.77094 0.80513 0.0
H3708 H 0.55372 0.77535 0.78552 0.0
H3709 H 0.58218 0.82147 0.76369 0.0
H3710 H 0.60876 0.81745 0.78334 0.0
H3711 H 0.66789 0.73693 0.7871 0.0
H3712 H 0.64469 0.7479 0.80118 0.0
H3713 H 0.66414 0.80409 0.79133 0.0
H3714 H 0.68804 0.79354 0.7782 0.0
H3715 H 0.62438 0.78688 0.78251 0.0
H3716 H 0.67601 0.8006 0.83088 0.0
H3717 H 0.70114 0.79184 0.84918 0.0
H3718 H 0.66823 0.7482 0.86972 0.0
H3719 H 0.64294 0.75647 0.85123 0.0
C3720 C 0.57866 0.81281 0.84637 0.0
C3721 C 0.57375 0.80039 0.85921 0.0
C3722 C 0.5922 0.8105 0.8365 0.0
C3723 C 0.60043 0.79529 0.8388 0.0
C3724 C 0.5955 0.78298 0.85179 0.0
C3725 C 0.58239 0.78566 0.86211 0.0
C3726 C 0.6142 0.79198 0.82781 0.0
C3727 C 0.6293 0.78842 0.83791 0.0
C3728 C 0.61239 0.7916 0.80759 0.0
C3729 C 0.5964 0.79404 0.79586 0.0
C3730 C 0.58076 0.78211 0.79626 0.0
C3731 C 0.56575 0.78452 0.78512 0.0
C3732 C 0.56626 0.79872 0.77342 0.0
C3733 C 0.58179 0.81051 0.77279 0.0
C3734 C 0.59683 0.80816 0.78391 0.0
C3735 C 0.66723 0.75161 0.78785 0.0
C3736 C 0.67994 0.76443 0.78184 0.0
C3737 C 0.65391 0.75778 0.79571 0.0
C3738 C 0.65298 0.77674 0.79732 0.0
C3739 C 0.66482 0.78939 0.79008 0.0
C3740 C 0.67836 0.7833 0.78251 0.0
C3741 C 0.6405 0.78345 0.80816 0.0
C3742 C 0.62579 0.78768 0.79804 0.0
C3743 C 0.6424 0.7839 0.82829 0.0
C3744 C 0.65761 0.77903 0.8395 0.0
C3745 C 0.67415 0.78901 0.83913 0.0
C3746 C 0.68842 0.78415 0.84956 0.0
C3747 C 0.68629 0.76944 0.86056 0.0
C3748 C 0.66987 0.75957 0.86117 0.0
C3749 C 0.65557 0.76434 0.85072 0.0
H3750 H 0.69734 0.76571 0.86865 0.0
H3751 H 0.55463 0.80057 0.7648 0.0
H3752 H 0.44917 0.53874 0.70365 0.0
H3753 H 0.46504 0.54548 0.67735 0.0
H3754 H 0.49373 0.50228 0.68953 0.0
H3755 H 0.47855 0.49636 0.71668 0.0
H3756 H 0.51442 0.52909 0.68166 0.0
H3757 H 0.45843 0.49829 0.64995 0.0
H3758 H 0.42696 0.49278 0.64171 0.0
H3759 H 0.43008 0.54666 0.62243 0.0
H3760 H 0.46154 0.55263 0.63087 0.0
H3761 H 0.53464 0.51332 0.58453 0.0
H3762 H 0.5201 0.50947 0.61254 0.0
H3763 H 0.51746 0.56799 0.61903 0.0
H3764 H 0.53269 0.57213 0.59137 0.0
H3765 H 0.48434 0.53466 0.61724 0.0
H3766 H 0.54127 0.56443 0.64949 0.0
H3767 H 0.57266 0.56795 0.65654 0.0
H3768 H 0.56729 0.51287 0.67318 0.0
H3769 H 0.53583 0.50889 0.66586 0.0
C3770 C 0.45879 0.5306 0.70063 0.0
C3771 C 0.46249 0.51686 0.71208 0.0
C3772 C 0.46782 0.5344 0.6855 0.0
C3773 C 0.48037 0.52411 0.68102 0.0
C3774 C 0.48409 0.5104 0.69255 0.0
C3775 C 0.47534 0.50692 0.70801 0.0
C3776 C 0.48977 0.52781 0.66456 0.0
C3777 C 0.50773 0.53007 0.66755 0.0
C3778 C 0.48124 0.52948 0.6461 0.0
C3779 C 0.46232 0.52599 0.64126 0.0
C3780 C 0.45239 0.50903 0.64413 0.0
C3781 C 0.43456 0.50582 0.63941 0.0
C3782 C 0.42652 0.51939 0.63163 0.0
C3783 C 0.43631 0.53619 0.62852 0.0
C3784 C 0.45413 0.53949 0.63328 0.0
C3785 C 0.5309 0.52536 0.59186 0.0
C3786 C 0.53469 0.54304 0.58576 0.0
C3787 C 0.52272 0.52315 0.60792 0.0
C3788 C 0.51788 0.53848 0.6179 0.0
C3789 C 0.52125 0.55605 0.61156 0.0
C3790 C 0.52984 0.55838 0.59577 0.0
C3791 C 0.50873 0.53587 0.6345 0.0
C3792 C 0.49087 0.53372 0.63145 0.0
C3793 C 0.5173 0.53402 0.65275 0.0
C3794 C 0.5362 0.53625 0.65681 0.0
C3795 C 0.54678 0.55295 0.65434 0.0
C3796 C 0.56459 0.55506 0.65847 0.0
C3797 C 0.57197 0.54061 0.66523 0.0
C3798 C 0.56155 0.52403 0.66789 0.0
C3799 C 0.54373 0.52184 0.66375 0.0
H3800 H 0.58576 0.54229 0.66846 0.0
H3801 H 0.41272 0.51685 0.62795 0.0
H3802 H 0.81165 0.21946 0.01956 0.0
H3803 H 0.79426 0.23111 0.99438 0.0
H3804 H 0.79731 0.18385 0.95396 0.0
H3805 H 0.81435 0.17161 0.97929 0.0
H3806 H 0.80289 0.23355 0.9506 0.0
H3807 H 0.76614 0.17075 0.94945 0.0
H3808 H 0.75281 0.14521 0.96575 0.0
H3809 H 0.73239 0.18441 1.00129 0.0
H3810 H 0.74586 0.21023 0.98532 0.0
H3811 H 0.73984 0.22877 0.87194 0.0
H3812 H 0.74492 0.2123 0.89959 0.0
H3813 H 0.7511 0.26385 0.93761 0.0
H3814 H 0.74713 0.28064 0.91012 0.0
H3815 H 0.73995 0.2105 0.94209 0.0
H3816 H 0.78476 0.27414 0.94613 0.0
H3817 H 0.79828 0.29788 0.92778 0.0
H3818 H 0.80371 0.25449 0.88446 0.0
H3819 H 0.78987 0.23057 0.90242 0.0
C3820 C 0.80894 0.21172 0.00523 0.0
C3821 C 0.81414 0.19456 1.00132 0.0
C3822 C 0.79892 0.21831 0.99099 0.0
C3823 C 0.79425 0.20794 0.97274 0.0
C3824 C 0.80057 0.19165 0.96826 0.0
C3825 C 0.81043 0.18486 0.9826 0.0
C3826 C 0.78247 0.21424 0.95858 0.0
C3827 C 0.78915 0.22851 0.94868 0.0
C3828 C 0.76464 0.20759 0.95631 0.0
C3829 C 0.75718 0.19237 0.96644 0.0
C3830 C 0.75904 0.17394 0.96096 0.0
C3831 C 0.75141 0.15942 0.97006 0.0
C3832 C 0.74175 0.16319 0.98452 0.0
C3833 C 0.73988 0.18152 0.99008 0.0
C3834 C 0.74752 0.1961 0.98103 0.0
C3835 C 0.74138 0.23641 0.88623 0.0
C3836 C 0.74393 0.25603 0.88897 0.0
C3837 C 0.74413 0.22696 0.90199 0.0
C3838 C 0.74893 0.23713 0.92037 0.0
C3839 C 0.74764 0.25598 0.92334 0.0
C3840 C 0.74528 0.26553 0.90758 0.0
C3841 C 0.76036 0.23002 0.93433 0.0
C3842 C 0.75368 0.21562 0.94414 0.0
C3843 C 0.77828 0.23639 0.93641 0.0
C3844 C 0.7861 0.25069 0.92539 0.0
C3845 C 0.78872 0.26974 0.9326 0.0
C3846 C 0.79641 0.28319 0.92228 0.0
C3847 C 0.80178 0.2777 0.90492 0.0
C3848 C 0.79947 0.25873 0.89785 0.0
C3849 C 0.79161 0.24523 0.90803 0.0
H3850 H 0.80779 0.28812 0.89697 0.0
H3851 H 0.73559 0.15186 0.99125 0.0
H3852 H 0.15497 0.53466 0.22919 0.0
H3853 H 0.13878 0.53662 0.19783 0.0
H3854 H 0.10248 0.4876 0.20329 0.0
H3855 H 0.11873 0.48568 0.23488 0.0
H3856 H 0.10782 0.48531 0.16659 0.0
H3857 H 0.09364 0.53394 0.20844 0.0
H3858 H 0.09929 0.5621 0.23248 0.0
H3859 H 0.12566 0.59377 0.19415 0.0
H3860 H 0.12036 0.56569 0.16996 0.0
H3861 H 0.0429 0.49367 0.08998 0.0
H3862 H 0.06005 0.49234 0.12081 0.0
H3863 H 0.09446 0.54247 0.11432 0.0
H3864 H 0.07698 0.54391 0.08319 0.0
H3865 H 0.0907 0.54452 0.1513 0.0
H3866 H 0.10483 0.49635 0.10932 0.0
H3867 H 0.0994 0.46834 0.08511 0.0
H3868 H 0.07375 0.43596 0.12344 0.0
H3869 H 0.07879 0.46388 0.14778 0.0
C3870 C 0.14355 0.52422 0.22384 0.0
C3871 C 0.13839 0.50999 0.23504 0.0
C3872 C 0.13409 0.52543 0.20568 0.0
C3873 C 0.11897 0.51242 0.19764 0.0
C3874 C 0.11394 0.49799 0.20869 0.0
C3875 C 0.12332 0.4969 0.227 0.0
C3876 C 0.10859 0.5139 0.17797 0.0
C3877 C 0.10393 0.49826 0.16351 0.0
C3878 C 0.10359 0.53077 0.17303 0.0
C3879 C 0.10675 0.54767 0.18748 0.0
C3880 C 0.10075 0.54687 0.20519 0.0
C3881 C 0.10388 0.56282 0.21883 0.0
C3882 C 0.11287 0.5797 0.21486 0.0
C3883 C 0.11872 0.58067 0.19721 0.0
C3884 C 0.11565 0.56475 0.18353 0.0
C3885 C 0.05418 0.50444 0.09491 0.0
C3886 C 0.05837 0.51884 0.08359 0.0
C3887 C 0.06418 0.50361 0.11279 0.0
C3888 C 0.07905 0.51711 0.12043 0.0
C3889 C 0.08324 0.53168 0.1092 0.0
C3890 C 0.07321 0.53246 0.09113 0.0
C3891 C 0.08989 0.51591 0.13992 0.0
C3892 C 0.09461 0.53157 0.15436 0.0
C3893 C 0.09502 0.49908 0.14482 0.0
C3894 C 0.09206 0.48224 0.13031 0.0
C3895 C 0.09793 0.48328 0.11254 0.0
C3896 C 0.09493 0.46742 0.09879 0.0
C3897 C 0.0862 0.45039 0.10272 0.0
C3898 C 0.08049 0.44917 0.12041 0.0
C3899 C 0.08342 0.46501 0.1342 0.0
H3900 H 0.0839 0.43812 0.09206 0.0
H3901 H 0.11527 0.59204 0.22544 0.0
H3902 H 0.83325 0.8511 0.50676 0.0
H3903 H 0.83303 0.83236 0.47582 0.0
H3904 H 0.79038 0.85497 0.45067 0.0
H3905 H 0.79063 0.87381 0.48144 0.0
H3906 H 0.78612 0.81637 0.44111 0.0
H3907 H 0.82943 0.87162 0.44255 0.0
H3908 H 0.85612 0.8944 0.45452 0.0
H3909 H 0.88514 0.85044 0.45084 0.0
H3910 H 0.85854 0.82734 0.43912 0.0
H3911 H 0.78232 0.80165 0.3423 0.0
H3912 H 0.78498 0.81338 0.376 0.0
H3913 H 0.83267 0.79396 0.38742 0.0
H3914 H 0.83049 0.78287 0.35297 0.0
H3915 H 0.83587 0.82662 0.40621 0.0
H3916 H 0.79364 0.77151 0.40244 0.0
H3917 H 0.76751 0.74854 0.38859 0.0
H3918 H 0.73702 0.79073 0.39596 0.0
H3919 H 0.76301 0.81397 0.41004 0.0
C3920 C 0.82379 0.85201 0.49464 0.0
C3921 C 0.81198 0.86395 0.49648 0.0
C3922 C 0.82372 0.84135 0.47698 0.0
C3923 C 0.81174 0.84235 0.46094 0.0
C3924 C 0.79972 0.85398 0.46288 0.0
C3925 C 0.79991 0.86478 0.48044 0.0
C3926 C 0.81177 0.83152 0.44201 0.0
C3927 C 0.79697 0.81863 0.43343 0.0
C3928 C 0.82613 0.83398 0.4323 0.0
C3929 C 0.84199 0.84774 0.4402 0.0
C3930 C 0.84147 0.86678 0.44457 0.0
C3931 C 0.8566 0.87976 0.45123 0.0
C3932 C 0.87233 0.87387 0.45343 0.0
C3933 C 0.87294 0.85498 0.44914 0.0
C3934 C 0.85785 0.84194 0.4425 0.0
C3935 C 0.79335 0.79967 0.35192 0.0
C3936 C 0.80615 0.79116 0.34495 0.0
C3937 C 0.79477 0.80627 0.37132 0.0
C3938 C 0.80874 0.80406 0.38446 0.0
C3939 C 0.82165 0.79564 0.37759 0.0
C3940 C 0.82041 0.78931 0.35794 0.0
C3941 C 0.81011 0.81163 0.40508 0.0
C3942 C 0.82514 0.82395 0.41401 0.0
C3943 C 0.79602 0.80847 0.41523 0.0
C3944 C 0.78028 0.79448 0.40723 0.0
C3945 C 0.78137 0.77589 0.40108 0.0
C3946 C 0.76658 0.76283 0.39319 0.0
C3947 C 0.75061 0.76818 0.39128 0.0
C3948 C 0.74939 0.7866 0.39745 0.0
C3949 C 0.76414 0.7997 0.40549 0.0
H3950 H 0.73919 0.75805 0.38506 0.0
H3951 H 0.88407 0.88394 0.45832 0.0
H3952 H 0.4864 0.53822 0.81225 0.0
H3953 H 0.50153 0.54086 0.84513 0.0
H3954 H 0.46554 0.49333 0.85545 0.0
H3955 H 0.45 0.49125 0.82305 0.0
H3956 H 0.47053 0.51825 0.88468 0.0
H3957 H 0.50798 0.49148 0.84657 0.0
H3958 H 0.52588 0.49001 0.82093 0.0
H3959 H 0.55796 0.54209 0.84715 0.0
H3960 H 0.5401 0.54399 0.8728 0.0
H3961 H 0.5175 0.49143 0.96547 0.0
H3962 H 0.50623 0.49111 0.93153 0.0
H3963 H 0.53157 0.54842 0.93422 0.0
H3964 H 0.54266 0.54903 0.96825 0.0
H3965 H 0.53319 0.5206 0.89919 0.0
H3966 H 0.49494 0.54665 0.93731 0.0
H3967 H 0.47788 0.54625 0.96379 0.0
H3968 H 0.44774 0.49314 0.9375 0.0
H3969 H 0.46485 0.49311 0.91101 0.0
C3970 C 0.4818 0.52832 0.82156 0.0
C3971 C 0.4671 0.51449 0.81514 0.0
C3972 C 0.49048 0.52978 0.8403 0.0
C3973 C 0.48481 0.51713 0.85271 0.0
C3974 C 0.47015 0.50327 0.84619 0.0
C3975 C 0.46132 0.50204 0.82764 0.0
C3976 C 0.49387 0.51836 0.8726 0.0
C3977 C 0.48421 0.51858 0.88773 0.0
C3978 C 0.51179 0.51919 0.87677 0.0
C3979 C 0.5226 0.51798 0.86146 0.0
C3980 C 0.51879 0.50268 0.84678 0.0
C3981 C 0.52893 0.50176 0.83226 0.0
C3982 C 0.54302 0.51597 0.83238 0.0
C3983 C 0.54703 0.53111 0.84706 0.0
C3984 C 0.53691 0.53211 0.86159 0.0
C3985 C 0.52085 0.50389 0.95878 0.0
C3986 C 0.53082 0.52031 0.9695 0.0
C3987 C 0.51443 0.50367 0.93944 0.0
C3988 C 0.51812 0.51976 0.93055 0.0
C3989 C 0.52869 0.53589 0.94094 0.0
C3990 C 0.53488 0.53623 0.96035 0.0
C3991 C 0.50975 0.52015 0.91085 0.0
C3992 C 0.51954 0.52033 0.89593 0.0
C3993 C 0.49195 0.5195 0.90679 0.0
C3994 C 0.48125 0.5198 0.92229 0.0
C3995 C 0.48474 0.53484 0.93724 0.0
C3996 C 0.47506 0.5347 0.95225 0.0
C3997 C 0.46176 0.51965 0.95236 0.0
C3998 C 0.45806 0.50477 0.9374 0.0
C3999 C 0.46773 0.50484 0.92238 0.0
H4000 H 0.4543 0.51954 0.96401 0.0
H4001 H 0.55085 0.51524 0.82112 0.0
H4002 H 0.81462 0.17023 0.11247 0.0
H4003 H 0.81345 0.19026 0.142 0.0
H4004 H 0.85245 0.23277 0.12794 0.0
H4005 H 0.85372 0.21288 0.09849 0.0
H4006 H 0.85227 0.23163 0.16846 0.0
H4007 H 0.81405 0.23175 0.10803 0.0
H4008 H 0.79203 0.21644 0.08057 0.0
H4009 H 0.75774 0.19843 0.11941 0.0
H4010 H 0.77967 0.21332 0.14707 0.0
H4011 H 0.82876 0.31134 0.21453 0.0
H4012 H 0.83586 0.29095 0.18813 0.0
H4013 H 0.79178 0.24909 0.19189 0.0
H4014 H 0.78432 0.26956 0.2174 0.0
H4015 H 0.79565 0.25051 0.15626 0.0
H4016 H 0.83116 0.24756 0.21582 0.0
H4017 H 0.85161 0.26097 0.24531 0.0
H4018 H 0.8891 0.28169 0.21098 0.0
H4019 H 0.86872 0.26854 0.18137 0.0
C4020 C 0.82345 0.1835 0.11615 0.0
C4021 C 0.83396 0.19036 0.10322 0.0
C4022 C 0.82279 0.19485 0.13294 0.0
C4023 C 0.83265 0.21295 0.13669 0.0
C4024 C 0.84476 0.21879 0.12507 0.0
C4025 C 0.84535 0.20753 0.10825 0.0
C4026 C 0.82792 0.22702 0.14998 0.0
C4027 C 0.83996 0.23588 0.16585 0.0
C4028 C 0.81178 0.23228 0.14635 0.0
C4029 C 0.79859 0.22342 0.12962 0.0
C4030 C 0.80188 0.22437 0.11071 0.0
C4031 C 0.7894 0.21579 0.0951 0.0
C4032 C 0.7735 0.20641 0.09823 0.0
C4033 C 0.77005 0.20564 0.11697 0.0
C4034 C 0.78251 0.21413 0.13262 0.0
C4035 C 0.82039 0.29802 0.20921 0.0
C4036 C 0.80617 0.29176 0.2179 0.0
C4037 C 0.8245 0.28639 0.19438 0.0
C4038 C 0.81449 0.2685 0.18849 0.0
C4039 C 0.79964 0.26287 0.19634 0.0
C4040 C 0.79544 0.27451 0.21091 0.0
C4041 C 0.81985 0.25496 0.17507 0.0
C4042 C 0.80799 0.2463 0.15896 0.0
C4043 C 0.83596 0.24962 0.17877 0.0
C4044 C 0.84835 0.2573 0.19647 0.0
C4045 C 0.84372 0.25509 0.21464 0.0
C4046 C 0.85529 0.26262 0.23135 0.0
C4047 C 0.87162 0.27226 0.23002 0.0
C4048 C 0.87643 0.27427 0.21199 0.0
C4049 C 0.86487 0.26677 0.19524 0.0
H4050 H 0.88056 0.27813 0.24297 0.0
H4051 H 0.76385 0.19978 0.08613 0.0
H4052 H 0.15644 0.50519 0.36255 0.0
H4053 H 0.1405 0.50916 0.38968 0.0
H4054 H 0.10435 0.53317 0.35456 0.0
H4055 H 0.11985 0.52849 0.32719 0.0
H4056 H 0.11423 0.55382 0.39377 0.0
H4057 H 0.09168 0.49105 0.3641 0.0
H4058 H 0.09304 0.45884 0.35119 0.0
H4059 H 0.11688 0.45004 0.40659 0.0
H4060 H 0.11591 0.48234 0.41976 0.0
H4061 H 0.04584 0.54721 0.45324 0.0
H4062 H 0.06268 0.54446 0.42678 0.0
H4063 H 0.09749 0.51854 0.46154 0.0
H4064 H 0.08112 0.52201 0.48832 0.0
H4065 H 0.08869 0.49916 0.42282 0.0
H4066 H 0.11152 0.56061 0.45305 0.0
H4067 H 0.11207 0.59306 0.46688 0.0
H4068 H 0.08972 0.60477 0.41203 0.0
H4069 H 0.08878 0.57225 0.39791 0.0
C4070 C 0.14508 0.51127 0.36044 0.0
C4071 C 0.13966 0.51636 0.34217 0.0
C4072 C 0.13582 0.51359 0.37619 0.0
C4073 C 0.12089 0.5216 0.37477 0.0
C4074 C 0.11568 0.52702 0.35662 0.0
C4075 C 0.12465 0.52423 0.34072 0.0
C4076 C 0.11065 0.52389 0.39182 0.0
C4077 C 0.10848 0.54173 0.39981 0.0
C4078 C 0.10325 0.50852 0.40068 0.0
C4079 C 0.10391 0.48916 0.39285 0.0
C4080 C 0.09737 0.48231 0.37348 0.0
C4081 C 0.09804 0.46402 0.36613 0.0
C4082 C 0.10509 0.45241 0.37805 0.0
C4083 C 0.11146 0.45906 0.39736 0.0
C4084 C 0.11085 0.47735 0.40479 0.0
C4085 C 0.05715 0.54104 0.45546 0.0
C4086 C 0.06188 0.53498 0.47344 0.0
C4087 C 0.06691 0.53944 0.44008 0.0
C4088 C 0.08169 0.53118 0.44157 0.0
C4089 C 0.08631 0.52493 0.45945 0.0
C4090 C 0.07684 0.52704 0.47503 0.0
C4091 C 0.09214 0.52908 0.4247 0.0
C4092 C 0.09438 0.51126 0.41675 0.0
C4093 C 0.09974 0.5445 0.41602 0.0
C4094 C 0.09984 0.56391 0.42448 0.0
C4095 C 0.10649 0.57002 0.44398 0.0
C4096 C 0.10693 0.58845 0.45187 0.0
C4097 C 0.10087 0.60096 0.44036 0.0
C4098 C 0.09436 0.59505 0.42093 0.0
C4099 C 0.09387 0.57662 0.41298 0.0
H4100 H 0.10126 0.61524 0.44647 0.0
H4101 H 0.10559 0.43825 0.37233 0.0
H4102 H 0.81095 0.84337 0.58219 0.0
H4103 H 0.80705 0.82635 0.60955 0.0
H4104 H 0.79918 0.87639 0.64243 0.0
H4105 H 0.80392 0.89368 0.6153 0.0
H4106 H 0.81752 0.8605 0.66475 0.0
H4107 H 0.76534 0.83671 0.62092 0.0
H4108 H 0.74751 0.8222 0.59009 0.0
H4109 H 0.7692 0.77279 0.59296 0.0
H4110 H 0.78732 0.7871 0.6237 0.0
H4111 H 0.78731 0.81605 0.74073 0.0
H4112 H 0.78966 0.83279 0.71299 0.0
H4113 H 0.79742 0.7829 0.6797 0.0
H4114 H 0.79377 0.76572 0.70722 0.0
H4115 H 0.77876 0.79883 0.6576 0.0
H4116 H 0.83171 0.82376 0.70135 0.0
H4117 H 0.84831 0.83827 0.73286 0.0
H4118 H 0.82383 0.88582 0.73037 0.0
H4119 H 0.80699 0.8715 0.69892 0.0
C4120 C 0.8084 0.85077 0.59525 0.0
C4121 C 0.80774 0.86991 0.59652 0.0
C4122 C 0.806 0.84094 0.6109 0.0
C4123 C 0.80242 0.84987 0.6281 0.0
C4124 C 0.80186 0.86906 0.62939 0.0
C4125 C 0.80454 0.87897 0.61384 0.0
C4126 C 0.79973 0.83939 0.64487 0.0
C4127 C 0.80885 0.84713 0.66314 0.0
C4128 C 0.78871 0.8217 0.64298 0.0
C4129 C 0.77779 0.81305 0.62452 0.0
C4130 C 0.76639 0.8228 0.61491 0.0
C4131 C 0.75622 0.81461 0.59746 0.0
C4132 C 0.75725 0.79661 0.58955 0.0
C4133 C 0.76843 0.78674 0.5991 0.0
C4134 C 0.77864 0.79488 0.61654 0.0
C4135 C 0.78962 0.80866 0.72753 0.0
C4136 C 0.79058 0.7896 0.72623 0.0
C4137 C 0.79108 0.81831 0.71163 0.0
C4138 C 0.79427 0.80938 0.69421 0.0
C4139 C 0.7951 0.79025 0.69291 0.0
C4140 C 0.79314 0.78044 0.70869 0.0
C4141 C 0.79663 0.81991 0.6774 0.0
C4142 C 0.78745 0.81219 0.65915 0.0
C4143 C 0.80753 0.83766 0.6793 0.0
C4144 C 0.81807 0.84654 0.69785 0.0
C4145 C 0.82989 0.83731 0.70754 0.0
C4146 C 0.83932 0.84549 0.72539 0.0
C4147 C 0.83713 0.86295 0.73361 0.0
C4148 C 0.82554 0.87231 0.72397 0.0
C4149 C 0.81608 0.86419 0.70612 0.0
H4150 H 0.84441 0.86924 0.74745 0.0
H4151 H 0.74937 0.79029 0.57604 0.0
H4152 H 0.69508 0.37825 0.50967 0.0
H4153 H 0.67759 0.39793 0.52526 0.0
H4154 H 0.7156 0.44696 0.52385 0.0
H4155 H 0.73268 0.42781 0.50769 0.0
H4156 H 0.70446 0.43709 0.56267 0.0
H4157 H 0.68797 0.45086 0.49874 0.0
H4158 H 0.67778 0.44216 0.464 0.0
H4159 H 0.63055 0.41142 0.4758 0.0
H4160 H 0.64065 0.41967 0.51069 0.0
H4161 H 0.66799 0.51864 0.57988 0.0
H4162 H 0.68376 0.49369 0.57261 0.0
H4163 H 0.63707 0.45271 0.56635 0.0
H4164 H 0.62131 0.47757 0.57378 0.0
H4165 H 0.65162 0.4559 0.53275 0.0
H4166 H 0.66862 0.44935 0.59894 0.0
H4167 H 0.68095 0.4606 0.63282 0.0
H4168 H 0.72946 0.48121 0.61606 0.0
H4169 H 0.71734 0.47036 0.58202 0.0
C4170 C 0.69938 0.39327 0.51217 0.0
C4171 C 0.71515 0.40154 0.50754 0.0
C4172 C 0.68954 0.40439 0.52118 0.0
C4173 C 0.69562 0.42366 0.52578 0.0
C4174 C 0.71093 0.43202 0.52042 0.0
C4175 C 0.72053 0.42106 0.51107 0.0
C4176 C 0.68635 0.4352 0.53685 0.0
C4177 C 0.69288 0.44127 0.55627 0.0
C4178 C 0.67141 0.44043 0.52819 0.0
C4179 C 0.66516 0.43561 0.50729 0.0
C4180 C 0.6755 0.44205 0.49392 0.0
C4181 C 0.66973 0.43724 0.47421 0.0
C4182 C 0.65356 0.42617 0.46769 0.0
C4183 C 0.6431 0.41994 0.48088 0.0
C4184 C 0.64884 0.42468 0.50063 0.0
C4185 C 0.66133 0.50423 0.57796 0.0
C4186 C 0.64353 0.49987 0.57715 0.0
C4187 C 0.67029 0.49004 0.57375 0.0
C4188 C 0.66143 0.47152 0.56883 0.0
C4189 C 0.644 0.46699 0.57013 0.0
C4190 C 0.63508 0.48112 0.57439 0.0
C4191 C 0.66952 0.45772 0.55887 0.0
C4192 C 0.66291 0.45138 0.53944 0.0
C4193 C 0.68465 0.45267 0.56745 0.0
C4194 C 0.69203 0.45913 0.58791 0.0
C4195 C 0.68188 0.45642 0.60246 0.0
C4196 C 0.68884 0.4627 0.62169 0.0
C4197 C 0.70598 0.47163 0.62659 0.0
C4198 C 0.71619 0.47428 0.61225 0.0
C4199 C 0.70929 0.46805 0.59298 0.0
H4200 H 0.71134 0.47648 0.6415 0.0
H4201 H 0.6491 0.42246 0.45242 0.0
H4202 H 0.23526 0.10849 0.52093 0.0
H4203 H 0.20714 0.09077 0.52343 0.0
H4204 H 0.18356 0.13578 0.50491 0.0
H4205 H 0.21192 0.154 0.50342 0.0
H4206 H 0.16756 0.12315 0.53077 0.0
H4207 H 0.1828 0.0919 0.47465 0.0
H4208 H 0.20124 0.07636 0.45566 0.0
H4209 H 0.20049 0.03375 0.49281 0.0
H4210 H 0.18221 0.04918 0.51217 0.0
H4211 H 0.08297 0.06449 0.51121 0.0
H4212 H 0.11008 0.08436 0.50744 0.0
H4213 H 0.13831 0.04722 0.53549 0.0
H4214 H 0.11146 0.0276 0.53946 0.0
H4215 H 0.15084 0.05636 0.50292 0.0
H4216 H 0.13564 0.08894 0.55916 0.0
H4217 H 0.11642 0.10453 0.57689 0.0
H4218 H 0.11602 0.1448 0.53715 0.0
H4219 H 0.13508 0.12927 0.51903 0.0
C4220 C 0.22409 0.1146 0.51728 0.0
C4221 C 0.22588 0.13262 0.51176 0.0
C4222 C 0.2079 0.10436 0.5186 0.0
C4223 C 0.19293 0.11158 0.5139 0.0
C4224 C 0.19475 0.1297 0.50854 0.0
C4225 C 0.21101 0.14011 0.50758 0.0
C4226 C 0.1755 0.10031 0.51473 0.0
C4227 C 0.16388 0.10864 0.52435 0.0
C4228 C 0.17047 0.08122 0.50667 0.0
C4229 C 0.18125 0.07177 0.49492 0.0
C4230 C 0.18664 0.07926 0.47881 0.0
C4231 C 0.19706 0.07048 0.46798 0.0
C4232 C 0.20207 0.0541 0.47304 0.0
C4233 C 0.19661 0.04644 0.48891 0.0
C4234 C 0.1862 0.05519 0.4998 0.0
C4235 C 0.09497 0.06064 0.51664 0.0
C4236 C 0.09501 0.04445 0.52567 0.0
C4237 C 0.11048 0.07202 0.5145 0.0
C4238 C 0.12636 0.06737 0.52121 0.0
C4239 C 0.12632 0.05115 0.53012 0.0
C4240 C 0.1109 0.03996 0.53245 0.0
C4241 C 0.14307 0.07918 0.519 0.0
C4242 C 0.15454 0.07093 0.50915 0.0
C4243 C 0.14784 0.09836 0.52662 0.0
C4244 C 0.13662 0.10784 0.53764 0.0
C4245 C 0.13136 0.10105 0.55414 0.0
C4246 C 0.12051 0.10988 0.56426 0.0
C4247 C 0.11496 0.12562 0.55812 0.0
C4248 C 0.12031 0.1326 0.54188 0.0
C4249 C 0.13114 0.12379 0.53168 0.0
H4250 H 0.10655 0.13243 0.56597 0.0
H4251 H 0.21015 0.04733 0.46465 0.0
H4252 H 0.14586 0.98457 0.77567 0.0
H4253 H 0.16013 0.95982 0.76354 0.0
H4254 H 0.207 0.98663 0.80078 0.0
H4255 H 0.19299 0.01168 0.81245 0.0
H4256 H 0.21274 0.97782 0.76523 0.0
H4257 H 0.17964 0.94608 0.80973 0.0
H4258 H 0.15283 0.93359 0.82128 0.0
H4259 H 0.13405 0.90003 0.76656 0.0
H4260 H 0.16067 0.9125 0.75463 0.0
H4261 H 0.26507 0.91535 0.78612 0.0
H4262 H 0.24566 0.93726 0.78343 0.0
H4263 H 0.2096 0.89662 0.74222 0.0
H4264 H 0.22893 0.87416 0.74547 0.0
H4265 H 0.19446 0.91052 0.77002 0.0
H4266 H 0.22943 0.93662 0.72785 0.0
H4267 H 0.25603 0.94814 0.71549 0.0
H4268 H 0.27091 0.99157 0.76361 0.0
H4269 H 0.24453 0.98015 0.77646 0.0
C4270 C 0.15913 0.98498 0.7815 0.0
C4271 C 0.16833 0.99994 0.79508 0.0
C4272 C 0.16725 0.97087 0.77453 0.0
C4273 C 0.18459 0.97139 0.7813 0.0
C4274 C 0.19362 0.98605 0.79529 0.0
C4275 C 0.18558 1.00025 0.80208 0.0
C4276 C 0.19367 0.95706 0.77361 0.0
C4277 C 0.20881 0.9631 0.76634 0.0
C4278 C 0.18798 0.93776 0.77401 0.0
C4279 C 0.17201 0.93039 0.78123 0.0
C4280 C 0.16972 0.93616 0.80013 0.0
C4281 C 0.15458 0.92906 0.80675 0.0
C4282 C 0.14172 0.91608 0.79464 0.0
C4283 C 0.14399 0.91012 0.77591 0.0
C4284 C 0.1591 0.91719 0.76921 0.0
C4285 C 0.25305 0.9111 0.7764 0.0
C4286 C 0.24835 0.89303 0.76619 0.0
C4287 C 0.24207 0.92372 0.77466 0.0
C4288 C 0.22631 0.91863 0.76242 0.0
C4289 C 0.22179 0.9008 0.75163 0.0
C4290 C 0.23282 0.88806 0.75343 0.0
C4291 C 0.21404 0.93143 0.76271 0.0
C4292 C 0.19823 0.92515 0.76845 0.0
C4293 C 0.21904 0.95049 0.76074 0.0
C4294 C 0.23497 0.9575 0.75312 0.0
C4295 C 0.23842 0.94857 0.73587 0.0
C4296 C 0.25345 0.95509 0.72877 0.0
C4297 C 0.26515 0.97059 0.73875 0.0
C4298 C 0.26182 0.97959 0.75588 0.0
C4299 C 0.24681 0.97312 0.76305 0.0
H4300 H 0.27678 0.97562 0.73322 0.0
H4301 H 0.13001 0.91059 0.7998 0.0
H4302 H 0.31038 0.88351 0.98836 0.0
H4303 H 0.33826 0.90402 0.99097 0.0
H4304 H 0.32023 0.94731 0.02445 0.0
H4305 H 0.29213 0.92713 0.02112 0.0
H4306 H 0.332 0.95996 0.99565 0.0
H4307 H 0.35353 0.92564 0.04409 0.0
H4308 H 0.36056 0.89907 0.05983 0.0
H4309 H 0.38813 0.88375 0.01451 0.0
H4310 H 0.3813 0.91039 0.99849 0.0
H4311 H 0.41365 0.02187 0.01377 0.0
H4312 H 0.38739 1.00099 0.018 0.0
H4313 H 0.39704 0.95874 0.97567 0.0
H4314 H 0.42324 0.97933 0.97149 0.0
H4315 H 0.39036 0.94641 0.01109 0.0
H4316 H 0.36728 0.97997 0.96211 0.0
H4317 H 0.36166 1.00785 0.94765 0.0
H4318 H 0.33719 0.02459 0.99527 0.0
H4319 H 0.34288 0.9969 0.01013 0.0
C4320 C 0.31247 0.89737 0.99637 0.0
C4321 C 0.29912 0.90401 1.00416 0.0
C4322 C 0.32844 0.90895 0.9981 0.0
C4323 C 0.3313 0.92712 0.008 0.0
C4324 C 0.31821 0.93333 0.01669 0.0
C4325 C 0.30217 0.9219 0.01465 0.0
C4326 C 0.3469 0.94053 0.00683 0.0
C4327 C 0.34477 0.95714 0.99949 0.0
C4328 C 0.36349 0.93654 0.01111 0.0
C4329 C 0.36674 0.91987 0.02001 0.0
C4330 C 0.36088 0.91645 0.03734 0.0
C4331 C 0.36491 0.90141 0.04636 0.0
C4332 C 0.37474 0.88964 0.03816 0.0
C4333 C 0.38051 0.89286 0.02085 0.0
C4334 C 0.3766 0.90796 0.01182 0.0
C4335 C 0.41 1.0082 0.00526 0.0
C4336 C 0.42026 1.00221 0.99219 0.0
C4337 C 0.39511 0.99637 0.00766 0.0
C4338 C 0.39047 0.97848 0.9971 0.0
C4339 C 0.40055 0.97257 0.98388 0.0
C4340 C 0.41533 0.98439 0.98138 0.0
C4341 C 0.37528 0.96565 1.00013 0.0
C4342 C 0.37752 0.94918 0.0076 0.0
C4343 C 0.35878 0.96973 0.99603 0.0
C4344 C 0.3557 0.98654 0.98733 0.0
C4345 C 0.36089 0.98973 0.9696 0.0
C4346 C 0.35764 1.00546 0.96131 0.0
C4347 C 0.34912 0.01802 0.97057 0.0
C4348 C 0.34382 0.01487 0.98814 0.0
C4349 C 0.34705 0.99917 0.9965 0.0
H4350 H 0.34658 0.03017 0.9641 0.0
H4351 H 0.37797 0.87808 0.04525 0.0
H4352 H 0.86089 0.58003 0.759 0.0
H4353 H 0.84631 0.60686 0.7591 0.0
H4354 H 0.89486 0.64431 0.77639 0.0
H4355 H 0.90941 0.61739 0.77647 0.0
H4356 H 0.87433 0.66012 0.79417 0.0
H4357 H 0.86715 0.6366 0.72771 0.0
H4358 H 0.85882 0.61342 0.69855 0.0
H4359 H 0.80651 0.60468 0.70825 0.0
H4360 H 0.81458 0.62764 0.73764 0.0
H4361 H 0.84112 0.74407 0.77825 0.0
H4362 H 0.85589 0.71741 0.77695 0.0
H4363 H 0.80742 0.67969 0.76036 0.0
H4364 H 0.79266 0.70641 0.76138 0.0
H4365 H 0.82805 0.66417 0.74191 0.0
H4366 H 0.83564 0.68723 0.80897 0.0
H4367 H 0.84415 0.71088 0.83775 0.0
H4368 H 0.89593 0.72088 0.82626 0.0
H4369 H 0.88767 0.69741 0.79727 0.0
C4370 C 0.86861 0.59393 0.76281 0.0
C4371 C 0.88665 0.59596 0.76767 0.0
C4372 C 0.86012 0.60962 0.76272 0.0
C4373 C 0.86909 0.62844 0.76745 0.0
C4374 C 0.88712 0.63042 0.77257 0.0
C4375 C 0.89562 0.61473 0.77255 0.0
C4376 C 0.85988 0.64574 0.76732 0.0
C4377 C 0.86439 0.66088 0.78247 0.0
C4378 C 0.84642 0.64755 0.75254 0.0
C4379 C 0.84151 0.63367 0.73499 0.0
C4380 C 0.8539 0.62962 0.72371 0.0
C4381 C 0.84922 0.61654 0.70713 0.0
C4382 C 0.83216 0.60754 0.70159 0.0
C4383 C 0.81973 0.61163 0.71259 0.0
C4384 C 0.82435 0.62468 0.72921 0.0
C4385 C 0.83345 0.73016 0.77427 0.0
C4386 C 0.81537 0.728 0.76999 0.0
C4387 C 0.84206 0.71456 0.77369 0.0
C4388 C 0.83317 0.6957 0.76891 0.0
C4389 C 0.8151 0.6936 0.76422 0.0
C4390 C 0.80649 0.7092 0.76486 0.0
C4391 C 0.84247 0.67847 0.7688 0.0
C4392 C 0.83798 0.66337 0.75361 0.0
C4393 C 0.85597 0.6767 0.78349 0.0
C4394 C 0.86102 0.6907 0.8009 0.0
C4395 C 0.84882 0.69455 0.81254 0.0
C4396 C 0.8536 0.70791 0.82888 0.0
C4397 C 0.87057 0.71741 0.8338 0.0
C4398 C 0.88279 0.71352 0.82241 0.0
C4399 C 0.87808 0.70018 0.80604 0.0
H4400 H 0.87424 0.72775 0.84646 0.0
H4401 H 0.82856 0.59742 0.68874 0.0
H4402 H 0.80774 0.61303 0.02313 0.0
H4403 H 0.8343 0.60108 0.02985 0.0
H4404 H 0.86375 0.65515 0.02564 0.0
H4405 H 0.83721 0.6672 0.01895 0.0
H4406 H 0.87614 0.62815 0.00673 0.0
H4407 H 0.86249 0.64088 0.06892 0.0
H4408 H 0.84502 0.6407 0.09502 0.0
H4409 H 0.83881 0.58095 0.09058 0.0
H4410 H 0.85604 0.58074 0.06423 0.0
H4411 H 0.95503 0.6011 0.04057 0.0
H4412 H 0.93107 0.61784 0.03855 0.0
H4413 H 0.8963 0.56686 0.0421 0.0
H4414 H 0.9201 0.55015 0.04426 0.0
H4415 H 0.88823 0.59543 0.06333 0.0
H4416 H 0.90128 0.58451 0.99814 0.0
H4417 H 0.92113 0.58715 0.97438 0.0
H4418 H 0.93069 0.64698 0.98733 0.0
H4419 H 0.91103 0.64466 0.01132 0.0
C4420 C 0.81987 0.62237 0.02358 0.0
C4421 C 0.82033 0.64106 0.02044 0.0
C4422 C 0.83507 0.61555 0.02756 0.0
C4423 C 0.8511 0.62724 0.02843 0.0
C4424 C 0.85158 0.64585 0.02507 0.0
C4425 C 0.83638 0.65272 0.02125 0.0
C4426 C 0.86729 0.61989 0.03249 0.0
C4427 C 0.87886 0.62122 0.01925 0.0
C4428 C 0.87097 0.61082 0.04881 0.0
C4429 C 0.86038 0.61078 0.06444 0.0
C4430 C 0.85724 0.62768 0.07336 0.0
C4431 C 0.84742 0.62765 0.08823 0.0
C4432 C 0.84076 0.61082 0.09441 0.0
C4433 C 0.84394 0.59397 0.08575 0.0
C4434 C 0.85374 0.59392 0.07085 0.0
C4435 C 0.94227 0.59344 0.04084 0.0
C4436 C 0.93955 0.57423 0.0425 0.0
C4437 C 0.92856 0.60304 0.03972 0.0
C4438 C 0.91175 0.5936 0.0399 0.0
C4439 C 0.90909 0.57452 0.04195 0.0
C4440 C 0.92277 0.56496 0.0432 0.0
C4441 C 0.8968 0.60325 0.03729 0.0
C4442 C 0.88548 0.60238 0.05083 0.0
C4443 C 0.89349 0.61302 0.02142 0.0
C4444 C 0.90479 0.6144 0.00655 0.0
C4445 C 0.90764 0.59821 0.99591 0.0
C4446 C 0.91886 0.59965 0.98243 0.0
C4447 C 0.92718 0.61722 0.97936 0.0
C4448 C 0.92424 0.63339 0.98972 0.0
C4449 C 0.91304 0.63202 1.00323 0.0
H4450 H 0.9359 0.61831 0.96895 0.0
H4451 H 0.83318 0.61083 0.10595 0.0
H4452 H 0.20022 0.08375 0.79106 0.0
H4453 H 0.21999 0.11217 0.78832 0.0
H4454 H 0.1854 0.14544 0.80976 0.0
H4455 H 0.16506 0.11678 0.81166 0.0
H4456 H 0.19814 0.16058 0.78212 0.0
H4457 H 0.22309 0.13892 0.83846 0.0
H4458 H 0.23364 0.11604 0.85779 0.0
H4459 H 0.27111 0.10948 0.82088 0.0
H4460 H 0.26062 0.13212 0.80117 0.0
H4461 H 0.26432 0.2434 0.80451 0.0
H4462 H 0.24242 0.21648 0.8074 0.0
H4463 H 0.26789 0.18026 0.77411 0.0
H4464 H 0.28945 0.20724 0.77057 0.0
H4465 H 0.25954 0.16799 0.80952 0.0
H4466 H 0.23308 0.18906 0.75261 0.0
H4467 H 0.22276 0.21279 0.73437 0.0
H4468 H 0.18844 0.22169 0.7746 0.0
H4469 H 0.19872 0.19813 0.7932 0.0
C4470 C 0.19682 0.09711 0.79525 0.0
C4471 C 0.18117 0.09806 0.80177 0.0
C4472 C 0.2082 0.11339 0.79377 0.0
C4473 C 0.20443 0.13102 0.79929 0.0
C4474 C 0.18866 0.13202 0.80554 0.0
C4475 C 0.17708 0.11566 0.8067 0.0
C4476 C 0.21698 0.1483 0.79837 0.0
C4477 C 0.21149 0.16229 0.78842 0.0
C4478 C 0.23451 0.15056 0.80632 0.0
C4479 C 0.24098 0.1371 0.81827 0.0
C4480 C 0.23352 0.13251 0.83441 0.0
C4481 C 0.23949 0.11959 0.84544 0.0
C4482 C 0.25301 0.11128 0.84054 0.0
C4483 C 0.26063 0.11591 0.82464 0.0
C4484 C 0.25469 0.12881 0.81355 0.0
C4485 C 0.26504 0.22976 0.79748 0.0
C4486 C 0.27842 0.22742 0.78707 0.0
C4487 C 0.2526 0.21439 0.79925 0.0
C4488 C 0.25353 0.19641 0.7909 0.0
C4489 C 0.26696 0.19404 0.78063 0.0
C4490 C 0.27922 0.20944 0.77859 0.0
C4491 C 0.24068 0.17999 0.79314 0.0
C4492 C 0.24614 0.16623 0.80338 0.0
C4493 C 0.22314 0.17807 0.78567 0.0
C4494 C 0.21678 0.192 0.77438 0.0
C4495 C 0.22342 0.19618 0.75763 0.0
C4496 C 0.21756 0.20958 0.74722 0.0
C4497 C 0.20499 0.21879 0.75336 0.0
C4498 C 0.19819 0.21456 0.76988 0.0
C4499 C 0.20401 0.20118 0.78035 0.0
H4500 H 0.20048 0.22917 0.74528 0.0
H4501 H 0.25761 0.10127 0.84909 0.0
H4502 H 0.37184 0.99802 0.29404 0.0
H4503 H 0.35752 0.9662 0.29687 0.0
H4504 H 0.37691 0.94491 0.24686 0.0
H4505 H 0.39149 0.97674 0.24418 0.0
H4506 H 0.34292 0.92746 0.24592 0.0
H4507 H 0.39436 0.93893 0.29253 0.0
H4508 H 0.41467 0.95679 0.32028 0.0
H4509 H 0.37517 0.95073 0.35573 0.0
H4510 H 0.35455 0.93304 0.32811 0.0
H4511 H 0.3201 0.83007 0.2556 0.0
H4512 H 0.33407 0.86161 0.25185 0.0
H4513 H 0.32703 0.88156 0.3092 0.0
H4514 H 0.31373 0.84986 0.31324 0.0
H4515 H 0.35487 0.9002 0.30618 0.0
H4516 H 0.30317 0.89055 0.26221 0.0
H4517 H 0.28037 0.87621 0.23519 0.0
H4518 H 0.31681 0.88121 0.19596 0.0
H4519 H 0.33991 0.89534 0.22281 0.0
C4520 C 0.37307 0.98664 0.28355 0.0
C4521 C 0.38299 0.99033 0.26885 0.0
C4522 C 0.36485 0.96822 0.28524 0.0
C4523 C 0.366 0.95261 0.2722 0.0
C4524 C 0.3756 0.95635 0.25724 0.0
C4525 C 0.38406 0.97474 0.25572 0.0
C4526 C 0.35751 0.93258 0.27432 0.0
C4527 C 0.34579 0.92146 0.25903 0.0
C4528 C 0.36047 0.92447 0.29155 0.0
C4529 C 0.37289 0.93479 0.30823 0.0
C4530 C 0.38999 0.94149 0.30623 0.0
C4531 C 0.40155 0.95158 0.32193 0.0
C4532 C 0.3962 0.95492 0.33975 0.0
C4533 C 0.37929 0.94814 0.34191 0.0
C4534 C 0.36766 0.93806 0.32625 0.0
C4535 C 0.32147 0.84111 0.26749 0.0
C4536 C 0.31558 0.83695 0.28477 0.0
C4537 C 0.32943 0.85948 0.26525 0.0
C4538 C 0.33162 0.87476 0.28004 0.0
C4539 C 0.32577 0.87052 0.29734 0.0
C4540 C 0.31798 0.85213 0.29965 0.0
C4541 C 0.34013 0.89483 0.27772 0.0
C4542 C 0.35192 0.90603 0.29299 0.0
C4543 C 0.33691 0.90316 0.2606 0.0
C4544 C 0.32329 0.89387 0.24454 0.0
C4545 C 0.30637 0.88838 0.24786 0.0
C4546 C 0.29339 0.88032 0.23257 0.0
C4547 C 0.29715 0.87784 0.21389 0.0
C4548 C 0.31393 0.88315 0.21046 0.0
C4549 C 0.32697 0.89119 0.2257 0.0
H4550 H 0.28702 0.87197 0.20205 0.0
H4551 H 0.40517 0.96275 0.35188 0.0
H4552 H 0.58481 0.36085 0.64214 0.0
H4553 H 0.58432 0.39006 0.62866 0.0
H4554 H 0.55209 0.35969 0.57732 0.0
H4555 H 0.55322 0.33026 0.59051 0.0
H4556 H 0.57263 0.38518 0.56647 0.0
H4557 H 0.53696 0.38727 0.61456 0.0
H4558 H 0.52827 0.38576 0.64654 0.0
H4559 H 0.5688 0.43202 0.67062 0.0
H4560 H 0.57788 0.43364 0.63882 0.0
H4561 H 0.54071 0.46538 0.5374 0.0
H4562 H 0.54351 0.43602 0.54978 0.0
H4563 H 0.58804 0.46436 0.58978 0.0
H4564 H 0.58552 0.49392 0.57716 0.0
H4565 H 0.56122 0.44045 0.60601 0.0
H4566 H 0.59524 0.43745 0.5547 0.0
H4567 H 0.60015 0.43878 0.52121 0.0
H4568 H 0.5575 0.39354 0.50162 0.0
H4569 H 0.55221 0.3921 0.535 0.0
C4570 C 0.57766 0.36035 0.62794 0.0
C4571 C 0.56903 0.34313 0.61747 0.0
C4572 C 0.57724 0.37717 0.62026 0.0
C4573 C 0.56785 0.37738 0.60203 0.0
C4574 C 0.55942 0.36012 0.59141 0.0
C4575 C 0.56003 0.34323 0.599 0.0
C4576 C 0.56694 0.39553 0.59409 0.0
C4577 C 0.56994 0.39713 0.57515 0.0
C4578 C 0.56353 0.41143 0.6052 0.0
C4579 C 0.55822 0.41043 0.62437 0.0
C4580 C 0.54411 0.39701 0.62672 0.0
C4581 C 0.5391 0.39616 0.6448 0.0
C4582 C 0.54801 0.40875 0.66061 0.0
C4583 C 0.56193 0.42225 0.65837 0.0
C4584 C 0.56701 0.42315 0.64032 0.0
C4585 C 0.55124 0.4654 0.5487 0.0
C4586 C 0.56293 0.48208 0.55623 0.0
C4587 C 0.55281 0.44855 0.55577 0.0
C4588 C 0.56598 0.44792 0.57074 0.0
C4589 C 0.57776 0.46449 0.57825 0.0
C4590 C 0.57637 0.48136 0.57093 0.0
C4591 C 0.56714 0.42999 0.57868 0.0
C4592 C 0.56405 0.42845 0.59752 0.0
C4593 C 0.56999 0.41404 0.56733 0.0
C4594 C 0.57326 0.41475 0.54731 0.0
C4595 C 0.58684 0.42787 0.54323 0.0
C4596 C 0.5897 0.42863 0.52427 0.0
C4597 C 0.57912 0.41628 0.50929 0.0
C4598 C 0.56568 0.40311 0.51324 0.0
C4599 C 0.56276 0.40229 0.53217 0.0
H4600 H 0.58136 0.41689 0.49462 0.0
H4601 H 0.5441 0.40807 0.6746 0.0
H4602 H 0.47708 0.76276 0.36418 0.0
H4603 H 0.44881 0.76695 0.34957 0.0
H4604 H 0.43225 0.76896 0.40508 0.0
H4605 H 0.4604 0.76426 0.41963 0.0
H4606 H 0.40665 0.7508 0.38061 0.0
H4607 H 0.44298 0.80929 0.38195 0.0
H4608 H 0.46805 0.83171 0.37669 0.0
H4609 H 0.45451 0.81581 0.31567 0.0
H4610 H 0.42949 0.79307 0.32058 0.0
H4611 H 0.32921 0.78098 0.33999 0.0
H4612 H 0.35674 0.78105 0.36051 0.0
H4613 H 0.38058 0.77383 0.30985 0.0
H4614 H 0.35372 0.77404 0.28977 0.0
H4615 H 0.40206 0.79769 0.33568 0.0
H4616 H 0.36675 0.7361 0.3369 0.0
H4617 H 0.34072 0.71635 0.34394 0.0
H4618 H 0.35181 0.74221 0.40265 0.0
H4619 H 0.37789 0.762 0.39603 0.0
C4620 C 0.4674 0.76394 0.37328 0.0
C4621 C 0.47114 0.76311 0.39314 0.0
C4622 C 0.45117 0.76654 0.36491 0.0
C4623 C 0.43819 0.76865 0.37614 0.0
C4624 C 0.44184 0.76743 0.39593 0.0
C4625 C 0.45804 0.76474 0.40429 0.0
C4626 C 0.42095 0.77215 0.36727 0.0
C4627 C 0.40576 0.76126 0.37099 0.0
C4628 C 0.41936 0.78582 0.3547 0.0
C4629 C 0.43445 0.79935 0.35165 0.0
C4630 C 0.44543 0.81046 0.36742 0.0
C4631 C 0.45962 0.82324 0.3645 0.0
C4632 C 0.46289 0.82515 0.34586 0.0
C4633 C 0.45197 0.8143 0.3301 0.0
C4634 C 0.43778 0.80146 0.33294 0.0
C4635 C 0.34038 0.77962 0.33333 0.0
C4636 C 0.3391 0.77744 0.31315 0.0
C4637 C 0.35616 0.7795 0.34505 0.0
C4638 C 0.37096 0.77722 0.33685 0.0
C4639 C 0.3696 0.77563 0.31676 0.0
C4640 C 0.35405 0.77568 0.30521 0.0
C4641 C 0.38787 0.77597 0.34856 0.0
C4642 C 0.40302 0.78731 0.34538 0.0
C4643 C 0.38941 0.76297 0.36183 0.0
C4644 C 0.37417 0.75053 0.36596 0.0
C4645 C 0.36363 0.73749 0.35133 0.0
C4646 C 0.34888 0.72629 0.35527 0.0
C4647 C 0.34462 0.72798 0.37379 0.0
C4648 C 0.35516 0.74081 0.3884 0.0
C4649 C 0.36994 0.75199 0.38458 0.0
H4650 H 0.33317 0.71937 0.37682 0.0
H4651 H 0.47387 0.83508 0.34362 0.0
H4652 H 0.09008 0.74185 0.10834 0.0
H4653 H 0.08717 0.70938 0.09406 0.0
H4654 H 0.03237 0.70155 0.09204 0.0
H4655 H 0.0354 0.73377 0.10733 0.0
H4656 H 0.04142 0.67273 0.10291 0.0
H4657 H 0.05423 0.70556 0.05027 0.0
H4658 H 0.07041 0.72882 0.03354 0.0
H4659 H 0.11484 0.70387 0.04403 0.0
H4660 H 0.09896 0.68059 0.06103 0.0
H4661 H 0.02098 0.58698 0.04136 0.0
H4662 H 0.02462 0.61994 0.05375 0.0
H4663 H 0.07947 0.6244 0.06263 0.0
H4664 H 0.07595 0.59128 0.04982 0.0
H4665 H 0.07057 0.65452 0.0483 0.0
H4666 H 0.05576 0.62069 0.10045 0.0
H4667 H 0.03784 0.59702 0.11511 0.0
H4668 H 0.99479 0.62382 0.10297 0.0
H4669 H 0.01242 0.64752 0.08804 0.0
C4670 C 0.07739 0.73326 0.10465 0.0
C4671 C 0.06296 0.74045 0.10882 0.0
C4672 C 0.07571 0.71465 0.09638 0.0
C4673 C 0.05949 0.70289 0.09155 0.0
C4674 C 0.04504 0.71019 0.09555 0.0
C4675 C 0.04676 0.72869 0.10419 0.0
C4676 C 0.05762 0.68291 0.08288 0.0
C4677 C 0.04763 0.66886 0.09079 0.0
C4678 C 0.06591 0.67755 0.06727 0.0
C4679 C 0.07548 0.69148 0.05707 0.0
C4680 C 0.06749 0.70513 0.04912 0.0
C4681 C 0.07659 0.71829 0.03957 0.0
C4682 C 0.09366 0.71785 0.03777 0.0
C4683 C 0.10163 0.70421 0.04546 0.0
C4684 C 0.09259 0.69102 0.05503 0.0
C4685 C 0.03387 0.59493 0.04579 0.0
C4686 C 0.04818 0.58638 0.04462 0.0
C4687 C 0.03591 0.61382 0.05302 0.0
C4688 C 0.0523 0.62464 0.05955 0.0
C4689 C 0.06667 0.61634 0.0578 0.0
C4690 C 0.06464 0.59739 0.05043 0.0
C4691 C 0.05437 0.64452 0.0683 0.0
C4692 C 0.06441 0.65849 0.06043 0.0
C4693 C 0.04589 0.64983 0.08373 0.0
C4694 C 0.03538 0.6358 0.09304 0.0
C4695 C 0.04246 0.62149 0.10085 0.0
C4696 C 0.03235 0.60807 0.1092 0.0
C4697 C 0.01518 0.6089 0.10994 0.0
C4698 C 1.00809 0.62319 0.10238 0.0
C4699 C 0.01814 0.63663 0.09401 0.0
H4700 H 1.00737 0.59848 0.11639 0.0
H4701 H 0.10068 0.72806 0.03037 0.0
H4702 H 0.05679 0.26642 0.86836 0.0
H4703 H 0.08376 0.26989 0.85533 0.0
H4704 H 0.112 0.27915 0.91287 0.0
H4705 H 0.08506 0.27632 0.92592 0.0
H4706 H 0.129 0.30095 0.89339 0.0
H4707 H 0.10573 0.23607 0.88187 0.0
H4708 H 0.08418 0.20732 0.87059 0.0
H4709 H 0.0822 0.21955 0.81248 0.0
H4710 H 0.10358 0.24853 0.82347 0.0
H4711 H 0.20702 0.2823 0.86009 0.0
H4712 H 0.18143 0.28091 0.87591 0.0
H4713 H 0.1503 0.27995 0.82116 0.0
H4714 H 0.17559 0.2811 0.80534 0.0
H4715 H 0.13586 0.2536 0.84093 0.0
H4716 H 0.16132 0.31944 0.85506 0.0
H4717 H 0.1843 0.3464 0.86856 0.0
H4718 H 0.18414 0.32973 0.92482 0.0
H4719 H 0.1613 0.30251 0.91161 0.0
C4720 C 0.06874 0.26923 0.87825 0.0
C4721 C 0.06866 0.27094 0.89821 0.0
C4722 C 0.08424 0.27112 0.87077 0.0
C4723 C 0.10015 0.27445 0.88301 0.0
C4724 C 0.10006 0.27654 0.90298 0.0
C4725 C 0.08456 0.27481 0.91046 0.0
C4726 C 0.11675 0.27547 0.87501 0.0
C4727 C 0.13051 0.29043 0.88209 0.0
C4728 C 0.11902 0.26188 0.8602 0.0
C4729 C 0.10611 0.24456 0.85351 0.0
C4730 C 0.10059 0.2327 0.8667 0.0
C4731 C 0.08843 0.21635 0.86036 0.0
C4732 C 0.08179 0.21163 0.84084 0.0
C4733 C 0.08733 0.22324 0.82761 0.0
C4734 C 0.09948 0.23963 0.83388 0.0
C4735 C 0.19471 0.28172 0.85141 0.0
C4736 C 0.19348 0.28189 0.83139 0.0
C4737 C 0.18007 0.2811 0.86052 0.0
C4738 C 0.16382 0.28049 0.84981 0.0
C4739 C 0.1626 0.28048 0.82983 0.0
C4740 C 0.17717 0.28125 0.82079 0.0
C4741 C 0.14792 0.2792 0.85904 0.0
C4742 C 0.13431 0.26412 0.85223 0.0
C4743 C 0.14601 0.29244 0.87438 0.0
C4744 C 0.15973 0.30881 0.8823 0.0
C4745 C 0.16629 0.32142 0.87028 0.0
C4746 C 0.17927 0.33677 0.87789 0.0
C4747 C 0.18571 0.33974 0.89753 0.0
C4748 C 0.17916 0.32739 0.90961 0.0
C4749 C 0.16619 0.31201 0.90207 0.0
H4750 H 0.19575 0.35164 0.90339 0.0
H4751 H 0.07239 0.19896 0.83595 0.0
H4752 H 0.54324 0.7595 0.93041 0.0
H4753 H 0.5407 0.72856 0.94085 0.0
H4754 H 0.50365 0.70531 0.89034 0.0
H4755 H 0.50609 0.73619 0.87975 0.0
H4756 H 0.49565 0.69324 0.92633 0.0
H4757 H 0.54015 0.69765 0.88739 0.0
H4758 H 0.56608 0.7135 0.87642 0.0
H4759 H 0.59501 0.71557 0.93243 0.0
H4760 H 0.56917 0.70003 0.94384 0.0
H4761 H 0.51171 0.60672 0.9607 0.0
H4762 H 0.50662 0.62851 0.93744 0.0
H4763 H 0.54487 0.67172 0.97299 0.0
H4764 H 0.54962 0.65052 0.99628 0.0
H4765 H 0.54904 0.66743 0.93463 0.0
H4766 H 0.50442 0.67059 0.97516 0.0
H4767 H 0.47884 0.65676 0.98819 0.0
H4768 H 0.45069 0.64196 0.931 0.0
H4769 H 0.47623 0.65541 0.91763 0.0
C4770 C 0.53447 0.74782 0.92164 0.0
C4771 C 0.52501 0.75003 0.90423 0.0
C4772 C 0.53305 0.73026 0.92757 0.0
C4773 C 0.52216 0.71488 0.91613 0.0
C4774 C 0.51215 0.71716 0.89917 0.0
C4775 C 0.51364 0.7347 0.89316 0.0
C4776 C 0.52192 0.69629 0.92166 0.0
C4777 C 0.50713 0.68723 0.9277 0.0
C4778 C 0.53699 0.68876 0.92335 0.0
C4779 C 0.5527 0.69771 0.91646 0.0
C4780 C 0.55202 0.70156 0.89739 0.0
C4781 C 0.5667 0.71049 0.8911 0.0
C4782 C 0.58218 0.71554 0.90372 0.0
C4783 C 0.58302 0.71163 0.92266 0.0
C4784 C 0.56836 0.70273 0.92904 0.0
C4785 C 0.51884 0.62094 0.96354 0.0
C4786 C 0.53118 0.62697 0.98008 0.0
C4787 C 0.51604 0.63321 0.95026 0.0
C4788 C 0.52559 0.65146 0.95354 0.0
C4789 C 0.53763 0.65752 0.97018 0.0
C4790 C 0.54032 0.64542 0.98342 0.0
C4791 C 0.52303 0.66486 0.94017 0.0
C4792 C 0.53732 0.67296 0.93254 0.0
C4793 C 0.50759 0.67163 0.93729 0.0
C4794 C 0.49228 0.6637 0.94539 0.0
C4795 C 0.49282 0.66421 0.96536 0.0
C4796 C 0.47833 0.65647 0.97281 0.0
C4797 C 0.46317 0.64841 0.96043 0.0
C4798 C 0.46245 0.64814 0.94057 0.0
C4799 C 0.47693 0.6558 0.93305 0.0
H4800 H 0.45195 0.64243 0.96621 0.0
H4801 H 0.59354 0.72247 0.89882 0.0
H4802 H 0.11902 0.78001 0.68423 0.0
H4803 H 0.14934 0.78286 0.6964 0.0
H4804 H 0.13653 0.75897 0.74689 0.0
H4805 H 0.10595 0.7566 0.735 0.0
H4806 H 0.16426 0.78904 0.75451 0.0
H4807 H 0.14498 0.73183 0.7075 0.0
H4808 H 0.13202 0.71584 0.67506 0.0
H4809 H 0.17008 0.75018 0.6504 0.0
H4810 H 0.18313 0.76651 0.68264 0.0
H4811 H 0.24521 0.76998 0.78618 0.0
H4812 H 0.21419 0.76595 0.77576 0.0
H4813 H 0.22333 0.77668 0.7188 0.0
H4814 H 0.25399 0.7791 0.72889 0.0
H4815 H 0.19695 0.75298 0.71456 0.0
H4816 H 0.2159 0.81119 0.75446 0.0
H4817 H 0.23047 0.83262 0.78346 0.0
H4818 H 0.19569 0.80493 0.81708 0.0
H4819 H 0.18105 0.78316 0.78829 0.0
C4820 C 0.12266 0.77548 0.698 0.0
C4821 C 0.11023 0.76784 0.70861 0.0
C4822 C 0.13995 0.77711 0.70489 0.0
C4823 C 0.14505 0.77073 0.72228 0.0
C4824 C 0.13272 0.76383 0.73334 0.0
C4825 C 0.11535 0.76244 0.72656 0.0
C4826 C 0.16322 0.77049 0.72847 0.0
C4827 C 0.17142 0.78097 0.74598 0.0
C4828 C 0.17262 0.76068 0.71676 0.0
C4829 C 0.16497 0.75043 0.69748 0.0
C4830 C 0.15055 0.73599 0.69515 0.0
C4831 C 0.14319 0.72688 0.6768 0.0
C4832 C 0.15021 0.732 0.66068 0.0
C4833 C 0.16465 0.74621 0.66289 0.0
C4834 C 0.17205 0.75537 0.68119 0.0
C4835 C 0.24037 0.77097 0.77137 0.0
C4836 C 0.2516 0.77467 0.7582 0.0
C4837 C 0.2228 0.76892 0.76547 0.0
C4838 C 0.21649 0.77147 0.74663 0.0
C4839 C 0.22786 0.77463 0.73338 0.0
C4840 C 0.24531 0.77602 0.73911 0.0
C4841 C 0.19815 0.7715 0.74076 0.0
C4842 C 0.18988 0.76101 0.72327 0.0
C4843 C 0.18895 0.78213 0.75198 0.0
C4844 C 0.19748 0.79543 0.76926 0.0
C4845 C 0.21141 0.80961 0.76805 0.0
C4846 C 0.21968 0.82182 0.78445 0.0
C4847 C 0.21404 0.8201 0.80212 0.0
C4848 C 0.20006 0.80623 0.80339 0.0
C4849 C 0.19176 0.79396 0.78703 0.0
H4850 H 0.22047 0.82954 0.81481 0.0
H4851 H 0.14447 0.72495 0.64649 0.0
H4852 H 1.00152 0.34327 0.41234 0.0
H4853 H 0.99921 0.37377 0.42815 0.0
H4854 H 0.05429 0.39049 0.43705 0.0
H4855 H 0.05672 0.35982 0.42154 0.0
H4856 H 0.0419 0.39666 0.46909 0.0
H4857 H 0.02946 0.40918 0.40494 0.0
H4858 H 0.01527 0.40458 0.37125 0.0
H4859 H 0.96713 0.40845 0.38998 0.0
H4860 H 0.98098 0.41276 0.42383 0.0
H4861 H 0.04945 0.49113 0.49986 0.0
H4862 H 0.04815 0.46265 0.47802 0.0
H4863 H 0.99511 0.44461 0.48361 0.0
H4864 H 0.99635 0.47359 0.50558 0.0
H4865 H 1.00522 0.43939 0.44387 0.0
H4866 H 0.02011 0.42651 0.50928 0.0
H4867 H 0.03681 0.43421 0.5419 0.0
H4868 H 0.08341 0.43356 0.51849 0.0
H4869 H 0.06699 0.42614 0.48569 0.0
C4870 C 0.01313 0.35346 0.41768 0.0
C4871 C 0.02932 0.34921 0.41601 0.0
C4872 C 0.01177 0.37091 0.42647 0.0
C4873 C 0.02657 0.38433 0.43354 0.0
C4874 C 0.04274 0.38023 0.4316 0.0
C4875 C 0.04411 0.36274 0.42286 0.0
C4876 C 0.02525 0.40198 0.44461 0.0
C4877 C 0.03402 0.40608 0.46346 0.0
C4878 C 0.0147 0.41401 0.4373 0.0
C4879 C 1.00623 0.41107 0.41695 0.0
C4880 C 0.01581 0.40882 0.4019 0.0
C4881 C 1.00784 0.40632 0.38276 0.0
C4882 C 0.9903 0.40617 0.37848 0.0
C4883 C 0.98071 0.40853 0.39333 0.0
C4884 C 0.98862 0.41101 0.41249 0.0
C4885 C 0.03752 0.48104 0.49641 0.0
C4886 C 0.02306 0.48406 0.50451 0.0
C4887 C 0.03677 0.46497 0.48389 0.0
C4888 C 0.02158 0.45167 0.47944 0.0
C4889 C 1.00689 0.45488 0.48702 0.0
C4890 C 1.00765 0.47114 0.49964 0.0
C4891 C 0.0218 0.43382 0.46817 0.0
C4892 C 0.0129 0.42975 0.44938 0.0
C4893 C 0.03249 0.42192 0.47533 0.0
C4894 C 0.04233 0.42587 0.49506 0.0
C4895 C 0.03392 0.4281 0.5111 0.0
C4896 C 0.04334 0.43241 0.52961 0.0
C4897 C 0.06116 0.4344 0.53226 0.0
C4898 C 0.0696 0.43202 0.51641 0.0
C4899 C 0.06025 0.42773 0.49786 0.0
H4900 H 0.06843 0.43776 0.54661 0.0
H4901 H 0.98416 0.40427 0.36365 0.0
H4902 H 0.49829 0.23378 0.18697 0.0
H4903 H 0.47144 0.23245 0.19996 0.0
H4904 H 0.49651 0.27632 0.2458 0.0
H4905 H 0.5236 0.27657 0.23364 0.0
H4906 H 0.47582 0.25326 0.25947 0.0
H4907 H 0.47118 0.28343 0.20165 0.0
H4908 H 0.47146 0.2851 0.16708 0.0
H4909 H 0.43068 0.23718 0.15291 0.0
H4910 H 0.43031 0.23511 0.1874 0.0
H4911 H 0.41095 0.30248 0.27937 0.0
H4912 H 0.4355 0.29178 0.26824 0.0
H4913 H 0.40258 0.2413 0.23828 0.0
H4914 H 0.37791 0.25147 0.25004 0.0
H4915 H 0.42474 0.26178 0.21591 0.0
H4916 H 0.42715 0.23608 0.27528 0.0
H4917 H 0.42684 0.23699 0.31011 0.0
H4918 H 0.4722 0.27973 0.32159 0.0
H4919 H 0.47262 0.27929 0.28679 0.0
C4920 C 0.49801 0.24294 0.19995 0.0
C4921 C 0.5128 0.25534 0.20935 0.0
C4922 C 0.4827 0.24227 0.20727 0.0
C4923 C 0.48189 0.2546 0.22356 0.0
C4924 C 0.49685 0.26667 0.2332 0.0
C4925 C 0.51227 0.26688 0.22626 0.0
C4926 C 0.46543 0.25555 0.2303 0.0
C4927 C 0.4647 0.25522 0.24994 0.0
C4928 C 0.45075 0.25759 0.21777 0.0
C4929 C 0.45085 0.25899 0.19706 0.0
C4930 C 0.46234 0.2732 0.19114 0.0
C4931 C 0.46251 0.27422 0.17158 0.0
C4932 C 0.45113 0.26122 0.15781 0.0
C4933 C 0.43951 0.24722 0.16358 0.0
C4934 C 0.4393 0.24612 0.18313 0.0
C4935 C 0.40895 0.2889 0.27082 0.0
C4936 C 0.3925 0.27782 0.26561 0.0
C4937 C 0.42296 0.28289 0.26438 0.0
C4938 C 0.42072 0.26577 0.25257 0.0
C4939 C 0.40442 0.25457 0.24741 0.0
C4940 C 0.39039 0.26046 0.25405 0.0
C4941 C 0.43547 0.2601 0.24505 0.0
C4942 C 0.43582 0.25951 0.2253 0.0
C4943 C 0.4499 0.25759 0.2575 0.0
C4944 C 0.44986 0.25771 0.27843 0.0
C4945 C 0.437 0.24575 0.28523 0.0
C4946 C 0.43681 0.24618 0.30497 0.0
C4947 C 0.44948 0.25842 0.31806 0.0
C4948 C 0.4624 0.27025 0.31143 0.0
C4949 C 0.46263 0.2699 0.2917 0.0
H4950 H 0.44931 0.25874 0.33334 0.0
H4951 H 0.4513 0.26202 0.14266 0.0
H4952 H 0.64434 0.56873 0.3691 0.0
H4953 H 0.63289 0.56626 0.39917 0.0
H4954 H 0.5939 0.51955 0.37107 0.0
H4955 H 0.60492 0.52249 0.34072 0.0
H4956 H 0.58037 0.54045 0.39403 0.0
H4957 H 0.6314 0.51446 0.40124 0.0
H4958 H 0.66205 0.51394 0.40129 0.0
H4959 H 0.67554 0.56131 0.44541 0.0
H4960 H 0.64495 0.56226 0.44542 0.0
H4961 H 0.55988 0.50051 0.47674 0.0
H4962 H 0.57156 0.50609 0.44733 0.0
H4963 H 0.60107 0.5591 0.47564 0.0
H4964 H 0.58907 0.55378 0.50518 0.0
H4965 H 0.61943 0.53644 0.45335 0.0
H4966 H 0.56751 0.56067 0.44688 0.0
H4967 H 0.53668 0.55994 0.44678 0.0
H4968 H 0.52461 0.514 0.40108 0.0
H4969 H 0.5554 0.51424 0.40113 0.0
C4970 C 0.63326 0.558 0.36931 0.0
C4971 C 0.62556 0.54575 0.35258 0.0
C4972 C 0.62679 0.55651 0.38655 0.0
C4973 C 0.61273 0.54246 0.38755 0.0
C4974 C 0.60479 0.53047 0.37072 0.0
C4975 C 0.61112 0.53213 0.35339 0.0
C4976 C 0.60641 0.54016 0.40615 0.0
C4977 C 0.5889 0.53933 0.40691 0.0
C4978 C 0.61754 0.53911 0.42316 0.0
C4979 C 0.63592 0.53855 0.42319 0.0
C4980 C 0.64092 0.52485 0.41085 0.0
C4981 C 0.65827 0.52446 0.41088 0.0
C4982 C 0.67074 0.53761 0.42331 0.0
C4983 C 0.66587 0.55115 0.43577 0.0
C4984 C 0.64853 0.55161 0.43577 0.0
C4985 C 0.56901 0.51327 0.47683 0.0
C4986 C 0.57361 0.5267 0.4933 0.0
C4987 C 0.57557 0.51649 0.45995 0.0
C4988 C 0.58702 0.53308 0.45927 0.0
C4989 C 0.59219 0.54623 0.47589 0.0
C4990 C 0.5854 0.54315 0.49275 0.0
C4991 C 0.59347 0.53661 0.44109 0.0
C4992 C 0.61096 0.53763 0.44044 0.0
C4993 C 0.5823 0.53761 0.42416 0.0
C4994 C 0.56377 0.53734 0.42417 0.0
C4995 C 0.55829 0.55028 0.43695 0.0
C4996 C 0.54081 0.54998 0.43688 0.0
C4997 C 0.52869 0.5369 0.42397 0.0
C4998 C 0.53402 0.5241 0.41109 0.0
C4999 C 0.55148 0.52432 0.41114 0.0
H5000 H 0.51517 0.53671 0.42391 0.0
H5001 H 0.68417 0.53729 0.42332 0.0
H5002 H 0.28147 0.88693 0.06306 0.0
H5003 H 0.29606 0.88044 0.09333 0.0
H5004 H 0.27154 0.82237 0.07984 0.0
H5005 H 0.25702 0.82865 0.04918 0.0
H5006 H 0.27054 0.84057 0.11785 0.0
H5007 H 0.30825 0.83017 0.07292 0.0
H5008 H 0.32649 0.83696 0.04824 0.0
H5009 H 0.35822 0.88254 0.0872 0.0
H5010 H 0.33976 0.87647 0.11183 0.0
H5011 H 0.31505 0.78453 0.16383 0.0
H5012 H 0.31193 0.80237 0.13718 0.0
H5013 H 0.32579 0.85378 0.17629 0.0
H5014 H 0.32925 0.83597 0.20342 0.0
H5015 H 0.33365 0.84485 0.12865 0.0
H5016 H 0.29284 0.85107 0.17478 0.0
H5017 H 0.27433 0.83835 0.19735 0.0
H5018 H 0.24794 0.7943 0.15308 0.0
H5019 H 0.26663 0.80642 0.13049 0.0
C5020 C 0.27904 0.87281 0.06663 0.0
C5021 C 0.26814 0.85822 0.05397 0.0
C5022 C 0.28744 0.86917 0.08379 0.0
C5023 C 0.28484 0.851 0.08845 0.0
C5024 C 0.27358 0.83648 0.07618 0.0
C5025 C 0.26535 0.84005 0.05883 0.0
C5026 C 0.29397 0.84714 0.10624 0.0
C5027 C 0.28435 0.84166 0.12035 0.0
C5028 C 0.31193 0.84877 0.10923 0.0
C5029 C 0.32243 0.85311 0.09407 0.0
C5030 C 0.31887 0.84193 0.07605 0.0
C5031 C 0.32927 0.84561 0.06209 0.0
C5032 C 0.34342 0.86025 0.06608 0.0
C5033 C 0.34715 0.87132 0.08402 0.0
C5034 C 0.33669 0.86781 0.09797 0.0
C5035 C 0.31848 0.79963 0.16678 0.0
C5036 C 0.32205 0.80892 0.18566 0.0
C5037 C 0.31656 0.80977 0.15153 0.0
C5038 C 0.31825 0.82916 0.15513 0.0
C5039 C 0.32433 0.83872 0.17357 0.0
C5040 C 0.32627 0.82856 0.18893 0.0
C5041 C 0.31025 0.83841 0.14028 0.0
C5042 C 0.31996 0.84464 0.12652 0.0
C5043 C 0.29228 0.83703 0.13737 0.0
C5044 C 0.28133 0.82949 0.1511 0.0
C5045 C 0.28329 0.8385 0.17 0.0
C5046 C 0.27273 0.83145 0.18276 0.0
C5047 C 0.26001 0.81552 0.17667 0.0
C5048 C 0.25784 0.80659 0.15781 0.0
C5049 C 0.26844 0.81352 0.14505 0.0
H5050 H 0.25181 0.81014 0.18654 0.0
H5051 H 0.35154 0.86286 0.0553 0.0
H5052 H 0.95635 0.52209 0.81336 0.0
H5053 H 0.97155 0.51884 0.84491 0.0
H5054 H 0.95214 0.56508 0.87081 0.0
H5055 H 0.93703 0.56841 0.83914 0.0
H5056 H 0.98272 0.5684 0.88949 0.0
H5057 H 0.93762 0.51559 0.87563 0.0
H5058 H 0.91929 0.48708 0.85714 0.0
H5059 H 0.96268 0.45995 0.8581 0.0
H5060 H 0.98134 0.48843 0.87636 0.0
H5061 H 1.00551 0.54681 0.98781 0.0
H5062 H 0.98848 0.55 0.9569 0.0
H5063 H 0.0171 0.51532 0.92661 0.0
H5064 H 0.0345 0.51287 0.95715 0.0
H5065 H 0.98089 0.50611 0.9111 0.0
H5066 H 0.02569 0.56029 0.92529 0.0
H5067 H 0.04283 0.5888 0.94503 0.0
H5068 H 0.9979 0.61324 0.94487 0.0
H5069 H 0.98041 0.58471 0.92538 0.0
C5070 C 0.95529 0.53169 0.82568 0.0
C5071 C 0.94522 0.5456 0.82312 0.0
C5072 C 0.964 0.5297 0.84409 0.0
C5073 C 0.96316 0.54146 0.86111 0.0
C5074 C 0.95334 0.55559 0.85846 0.0
C5075 C 0.94453 0.55751 0.84005 0.0
C5076 C 0.97237 0.53905 0.88133 0.0
C5077 C 0.98197 0.5547 0.89411 0.0
C5078 C 0.97203 0.52135 0.88819 0.0
C5079 C 0.96092 0.50422 0.87717 0.0
C5080 C 0.94329 0.5036 0.87176 0.0
C5081 C 0.93283 0.48744 0.86134 0.0
C5082 C 0.93983 0.47173 0.8564 0.0
C5083 C 0.95729 0.47215 0.86191 0.0
C5084 C 0.96781 0.48829 0.8723 0.0
C5085 C 1.00808 0.53964 0.97464 0.0
C5086 C 0.02154 0.52937 0.97545 0.0
C5087 C 0.9983 0.54157 0.95671 0.0
C5088 C 1.00117 0.53293 0.93876 0.0
C5089 C 0.01423 0.5222 0.93977 0.0
C5090 C 0.02429 0.52077 0.95752 0.0
C5091 C 0.9912 0.53542 0.91908 0.0
C5092 C 0.98152 0.51978 0.90642 0.0
C5093 C 0.99128 0.55312 0.91245 0.0
C5094 C 1.00172 0.57029 0.92408 0.0
C5095 C 0.01943 0.57168 0.92962 0.0
C5096 C 0.02922 0.58785 0.94073 0.0
C5097 C 0.02145 0.60281 0.94625 0.0
C5098 C 1.00389 0.60163 0.94062 0.0
C5099 C 0.99403 0.58546 0.92954 0.0
H5100 H 0.02905 0.61533 0.95485 0.0
H5101 H 0.93171 0.45923 0.84835 0.0
H5102 H 0.28857 0.21929 0.5641 0.0
H5103 H 0.29178 0.23381 0.59764 0.0
H5104 H 0.27863 0.17934 0.61531 0.0
H5105 H 0.27534 0.16485 0.58201 0.0
H5106 H 0.26102 0.20282 0.63101 0.0
H5107 H 0.31968 0.20377 0.62431 0.0
H5108 H 0.34644 0.21105 0.6108 0.0
H5109 H 0.34657 0.26976 0.62282 0.0
H5110 H 0.31965 0.26283 0.63612 0.0
H5111 H 0.28012 0.22924 0.73194 0.0
H5112 H 0.2788 0.21497 0.69878 0.0
H5113 H 0.2994 0.26891 0.68352 0.0
H5114 H 0.30214 0.28271 0.71718 0.0
H5115 H 0.3132 0.24562 0.66622 0.0
H5116 H 0.25346 0.24399 0.67245 0.0
H5117 H 0.22781 0.23586 0.68781 0.0
H5118 H 0.23032 0.17765 0.6774 0.0
H5119 H 0.25609 0.18547 0.66219 0.0
C5120 C 0.2864 0.21044 0.57516 0.0
C5121 C 0.28162 0.19093 0.57038 0.0
C5122 C 0.28834 0.21873 0.59434 0.0
C5123 C 0.28553 0.20766 0.60906 0.0
C5124 C 0.28084 0.18819 0.60425 0.0
C5125 C 0.27899 0.17992 0.58517 0.0
C5126 C 0.28675 0.21626 0.62938 0.0
C5127 C 0.27249 0.21208 0.63875 0.0
C5128 C 0.30159 0.22859 0.63945 0.0
C5129 C 0.31751 0.23277 0.63095 0.0
C5130 C 0.32528 0.21823 0.62383 0.0
C5131 C 0.34052 0.22229 0.61627 0.0
C5132 C 0.34817 0.24085 0.61588 0.0
C5133 C 0.34061 0.25539 0.62307 0.0
C5134 C 0.32536 0.2514 0.63061 0.0
C5135 C 0.28416 0.238 0.72137 0.0
C5136 C 0.29093 0.25707 0.72686 0.0
C5137 C 0.28333 0.2299 0.70237 0.0
C5138 C 0.28851 0.24089 0.6883 0.0
C5139 C 0.29521 0.26006 0.69394 0.0
C5140 C 0.29664 0.26801 0.7131 0.0
C5141 C 0.28735 0.23243 0.66785 0.0
C5142 C 0.30164 0.23656 0.65845 0.0
C5143 C 0.27253 0.22004 0.65771 0.0
C5144 C 0.25674 0.21533 0.66631 0.0
C5145 C 0.24854 0.22947 0.67347 0.0
C5146 C 0.234 0.22491 0.68217 0.0
C5147 C 0.22746 0.20626 0.68362 0.0
C5148 C 0.2354 0.1921 0.67628 0.0
C5149 C 0.24995 0.19658 0.6676 0.0
H5150 H 0.21624 0.20277 0.69041 0.0
H5151 H 0.35999 0.24397 0.61007 0.0
H5152 H 0.64695 0.54831 0.23444 0.0
H5153 H 0.63339 0.54434 0.20089 0.0
H5154 H 0.58358 0.53271 0.21829 0.0
H5155 H 0.59711 0.53695 0.25215 0.0
H5156 H 0.59207 0.50679 0.18449 0.0
H5157 H 0.59301 0.57267 0.20858 0.0
H5158 H 0.60904 0.60313 0.22544 0.0
H5159 H 0.64384 0.60502 0.18431 0.0
H5160 H 0.62812 0.57445 0.16734 0.0
H5161 H 0.54321 0.50861 0.09516 0.0
H5162 H 0.55451 0.51305 0.12956 0.0
H5163 H 0.60007 0.5491 0.11916 0.0
H5164 H 0.58795 0.54591 0.08509 0.0
H5165 H 0.59383 0.5626 0.1503 0.0
H5166 H 0.59827 0.50162 0.12651 0.0
H5167 H 0.58787 0.47069 0.10764 0.0
H5168 H 0.55133 0.45747 0.14561 0.0
H5169 H 0.5613 0.48865 0.16449 0.0
C5170 C 0.6331 0.54492 0.23116 0.0
C5171 C 0.62305 0.54305 0.24588 0.0
C5172 C 0.62541 0.54261 0.212 0.0
C5173 C 0.60754 0.53822 0.20722 0.0
C5174 C 0.59742 0.53604 0.22181 0.0
C5175 C 0.60513 0.53861 0.24107 0.0
C5176 C 0.59953 0.53669 0.18698 0.0
C5177 C 0.59211 0.51897 0.17704 0.0
C5178 C 0.60056 0.55249 0.17712 0.0
C5179 C 0.60943 0.57128 0.18675 0.0
C5180 C 0.60409 0.57958 0.20316 0.0
C5181 C 0.61313 0.59685 0.21273 0.0
C5182 C 0.62746 0.60599 0.20596 0.0
C5183 C 0.63273 0.59793 0.18952 0.0
C5184 C 0.62374 0.58066 0.1799 0.0
C5185 C 0.55562 0.51746 0.10036 0.0
C5186 C 0.56488 0.52676 0.08771 0.0
C5187 C 0.56213 0.51995 0.11995 0.0
C5188 C 0.57837 0.53108 0.127 0.0
C5189 C 0.58753 0.54047 0.11419 0.0
C5190 C 0.58072 0.53852 0.09474 0.0
C5191 C 0.58594 0.53262 0.14759 0.0
C5192 C 0.59349 0.55033 0.15764 0.0
C5193 C 0.58584 0.51667 0.15731 0.0
C5194 C 0.58047 0.49747 0.14685 0.0
C5195 C 0.58805 0.49208 0.13087 0.0
C5196 C 0.58222 0.47447 0.12016 0.0
C5197 C 0.56905 0.46194 0.12549 0.0
C5198 C 0.56165 0.46707 0.14156 0.0
C5199 C 0.56737 0.48474 0.15228 0.0
H5200 H 0.56457 0.44832 0.11711 0.0
H5201 H 0.63449 0.61933 0.21344 0.0
H5202 H 0.24845 0.86154 0.93306 0.0
H5203 H 0.26258 0.8506 0.90679 0.0
H5204 H 0.27642 0.80646 0.93767 0.0
H5205 H 0.26236 0.8173 0.96417 0.0
H5206 H 0.30401 0.83113 0.91919 0.0
H5207 H 0.24495 0.79313 0.90694 0.0
H5208 H 0.21369 0.79151 0.9032 0.0
H5209 H 0.2165 0.8262 0.85815 0.0
H5210 H 0.24779 0.82827 0.86187 0.0
H5211 H 0.32471 0.77946 0.83492 0.0
H5212 H 0.31789 0.79086 0.86647 0.0
H5213 H 0.28144 0.8201 0.83808 0.0
H5214 H 0.28571 0.80544 0.80747 0.0
H5215 H 0.26684 0.80032 0.85856 0.0
H5216 H 0.32108 0.84207 0.86734 0.0
H5217 H 0.35237 0.85109 0.86935 0.0
H5218 H 0.35986 0.82029 0.91702 0.0
H5219 H 0.32857 0.8108 0.91507 0.0
C5220 C 0.2542 0.84929 0.9341 0.0
C5221 C 0.25419 0.84009 0.95046 0.0
C5222 C 0.26248 0.84331 0.91931 0.0
C5223 C 0.27065 0.82803 0.92072 0.0
C5224 C 0.27032 0.81848 0.93673 0.0
C5225 C 0.26201 0.82443 0.95155 0.0
C5226 C 0.27819 0.82106 0.90456 0.0
C5227 C 0.29606 0.82419 0.90588 0.0
C5228 C 0.26757 0.81273 0.8873 0.0
C5229 C 0.24868 0.81089 0.88474 0.0
C5230 C 0.2389 0.80046 0.8963 0.0
C5231 C 0.22118 0.79948 0.89419 0.0
C5232 C 0.21312 0.80877 0.88047 0.0
C5233 C 0.22275 0.81901 0.86878 0.0
C5234 C 0.24046 0.82007 0.87087 0.0
C5235 C 0.31535 0.78843 0.83572 0.0
C5236 C 0.30638 0.79279 0.81898 0.0
C5237 C 0.31169 0.79515 0.85359 0.0
C5238 C 0.29939 0.80658 0.85455 0.0
C5239 C 0.29114 0.81149 0.83768 0.0
C5240 C 0.29403 0.80384 0.82009 0.0
C5241 C 0.29291 0.81119 0.87246 0.0
C5242 C 0.27508 0.80724 0.8717 0.0
C5243 C 0.30364 0.81983 0.8897 0.0
C5244 C 0.32247 0.8255 0.89089 0.0
C5245 C 0.32939 0.83705 0.87812 0.0
C5246 C 0.34713 0.84228 0.87927 0.0
C5247 C 0.3581 0.83621 0.89326 0.0
C5248 C 0.35134 0.82494 0.90616 0.0
C5249 C 0.33361 0.81963 0.90504 0.0
H5250 H 0.37183 0.84029 0.89414 0.0
H5251 H 0.1994 0.808 0.87887 0.0
H5252 H 0.91395 0.54232 0.69457 0.0
H5253 H 0.92637 0.54084 0.66487 0.0
H5254 H 0.97621 0.54397 0.69776 0.0
H5255 H 0.9638 0.54661 0.7276 0.0
H5256 H 0.98375 0.56 0.67113 0.0
H5257 H 0.94424 0.50089 0.66289 0.0
H5258 H 0.91646 0.47936 0.65988 0.0
H5259 H 0.89592 0.5059 0.61328 0.0
H5260 H 0.92352 0.52768 0.61612 0.0
H5261 H 0.02467 0.53224 0.59171 0.0
H5262 H 0.01049 0.53388 0.62 0.0
H5263 H 0.96387 0.53882 0.58479 0.0
H5264 H 0.97811 0.53672 0.55604 0.0
H5265 H 0.95416 0.51934 0.61148 0.0
H5266 H 0.99336 0.57749 0.61883 0.0
H5267 H 0.02148 0.59786 0.62001 0.0
H5268 H 0.04253 0.57252 0.6673 0.0
H5269 H 0.01458 0.55184 0.66625 0.0
C5270 C 0.9276 0.54269 0.69564 0.0
C5271 C 0.93761 0.54458 0.71409 0.0
C5272 C 0.93485 0.54155 0.67825 0.0
C5273 C 0.95257 0.54167 0.67805 0.0
C5274 C 0.96259 0.54371 0.6966 0.0
C5275 C 0.95536 0.54518 0.71404 0.0
C5276 C 0.9607 0.5402 0.65903 0.0
C5277 C 0.97716 0.55075 0.65835 0.0
C5278 C 0.95256 0.52881 0.6413 0.0
C5279 C 0.93586 0.51607 0.63992 0.0
C5280 C 0.93374 0.50224 0.65213 0.0
C5281 C 0.91804 0.48997 0.65042 0.0
C5282 C 0.90442 0.49131 0.63645 0.0
C5283 C 0.90646 0.50493 0.62415 0.0
C5284 C 0.92213 0.51722 0.6258 0.0
C5285 C 0.01136 0.53367 0.5897 0.0
C5286 C 1.00286 0.53438 0.57094 0.0
C5287 C 1.00314 0.53482 0.6063 0.0
C5288 C 0.98586 0.537 0.60541 0.0
C5289 C 0.97715 0.53731 0.5866 0.0
C5290 C 0.98543 0.53612 0.56986 0.0
C5291 C 0.97717 0.53886 0.62387 0.0
C5292 C 0.96067 0.52849 0.62437 0.0
C5293 C 0.98523 0.55038 0.64142 0.0
C5294 C 1.00192 0.56304 0.64237 0.0
C5295 C 1.00401 0.57623 0.62944 0.0
C5296 C 0.01991 0.58782 0.63008 0.0
C5297 C 0.03379 0.58646 0.6437 0.0
C5298 C 0.03177 0.57355 0.65676 0.0
C5299 C 0.0159 0.56191 0.65616 0.0
H5300 H 0.0461 0.59542 0.64415 0.0
H5301 H 0.89229 0.48177 0.63512 0.0
H5302 H 0.2739 0.16464 0.44345 0.0
H5303 H 0.27559 0.18001 0.41456 0.0
H5304 H 0.28405 0.23386 0.44925 0.0
H5305 H 0.28181 0.2185 0.47805 0.0
H5306 H 0.2633 0.23495 0.41884 0.0
H5307 H 0.31693 0.21463 0.42887 0.0
H5308 H 0.33639 0.19235 0.43366 0.0
H5309 H 0.31364 0.16051 0.37903 0.0
H5310 H 0.29387 0.18245 0.37404 0.0
H5311 H 0.29208 0.29011 0.34866 0.0
H5312 H 0.29013 0.27389 0.37693 0.0
H5313 H 0.27785 0.22082 0.34046 0.0
H5314 H 0.28015 0.23705 0.3121 0.0
H5315 H 0.30038 0.21904 0.3713 0.0
H5316 H 0.24685 0.24042 0.36172 0.0
H5317 H 0.22877 0.26407 0.35704 0.0
H5318 H 0.25299 0.29527 0.41152 0.0
H5319 H 0.27137 0.27193 0.41639 0.0
C5320 C 0.27611 0.17976 0.44493 0.0
C5321 C 0.27772 0.1903 0.46313 0.0
C5322 C 0.27722 0.18858 0.42836 0.0
C5323 C 0.28023 0.20822 0.42956 0.0
C5324 C 0.28174 0.21873 0.44776 0.0
C5325 C 0.28049 0.20991 0.4643 0.0
C5326 C 0.28148 0.21782 0.41192 0.0
C5327 C 0.27161 0.23158 0.40863 0.0
C5328 C 0.29201 0.21333 0.39817 0.0
C5329 C 0.30379 0.20006 0.40119 0.0
C5330 C 0.31598 0.20278 0.41796 0.0
C5331 C 0.32708 0.19023 0.4207 0.0
C5332 C 0.32622 0.17499 0.40669 0.0
C5333 C 0.31427 0.17229 0.38989 0.0
C5334 C 0.30312 0.18478 0.3871 0.0
C5335 C 0.2888 0.27499 0.34662 0.0
C5336 C 0.28611 0.26491 0.32807 0.0
C5337 C 0.28766 0.26569 0.36284 0.0
C5338 C 0.2836 0.24605 0.36096 0.0
C5339 C 0.28094 0.23595 0.3424 0.0
C5340 C 0.28213 0.24526 0.32616 0.0
C5341 C 0.28222 0.23611 0.37832 0.0
C5342 C 0.29206 0.22233 0.38153 0.0
C5343 C 0.27178 0.24067 0.39209 0.0
C5344 C 0.26054 0.25451 0.38935 0.0
C5345 C 0.24836 0.25237 0.37266 0.0
C5346 C 0.23806 0.26572 0.36997 0.0
C5347 C 0.23975 0.28118 0.38396 0.0
C5348 C 0.2517 0.28329 0.40069 0.0
C5349 C 0.26205 0.27 0.40343 0.0
H5350 H 0.23177 0.2915 0.38185 0.0
H5351 H 0.33484 0.1653 0.40883 0.0
H5352 H 0.3792 0.66726 0.55977 0.0
H5353 H 0.40502 0.65422 0.55882 0.0
H5354 H 0.3745 0.60151 0.53085 0.0
H5355 H 0.34841 0.61448 0.53169 0.0
H5356 H 0.40499 0.60032 0.55936 0.0
H5357 H 0.3861 0.62951 0.50267 0.0
H5358 H 0.37766 0.65639 0.4883 0.0
H5359 H 0.42604 0.69074 0.51389 0.0
H5360 H 0.43462 0.66409 0.52864 0.0
H5361 H 0.44467 0.55355 0.49597 0.0
H5362 H 0.42549 0.57465 0.5039 0.0
H5363 H 0.46837 0.61523 0.53474 0.0
H5364 H 0.48798 0.59482 0.52589 0.0
H5365 H 0.43619 0.62718 0.50956 0.0
H5366 H 0.45692 0.59874 0.56375 0.0
H5367 H 0.46593 0.57314 0.57997 0.0
H5368 H 0.41579 0.53943 0.56186 0.0
H5369 H 0.4066 0.56474 0.54517 0.0
C5370 C 0.37795 0.65277 0.55376 0.0
C5371 C 0.36198 0.64189 0.54538 0.0
C5372 C 0.39265 0.64538 0.55339 0.0
C5373 C 0.39143 0.62712 0.54461 0.0
C5374 C 0.37544 0.61568 0.53771 0.0
C5375 C 0.36066 0.62308 0.53806 0.0
C5376 C 0.40678 0.62093 0.5399 0.0
C5377 C 0.41188 0.60617 0.54855 0.0
C5378 C 0.41589 0.62913 0.52622 0.0
C5379 C 0.41091 0.64492 0.5169 0.0
C5380 C 0.39487 0.64283 0.50531 0.0
C5381 C 0.39007 0.65801 0.49709 0.0
C5382 C 0.40129 0.67528 0.50023 0.0
C5383 C 0.41735 0.67737 0.5115 0.0
C5384 C 0.4222 0.66224 0.51978 0.0
C5385 C 0.45013 0.56741 0.50345 0.0
C5386 C 0.46768 0.57258 0.51052 0.0
C5387 C 0.43919 0.57932 0.50809 0.0
C5388 C 0.4458 0.59634 0.5198 0.0
C5389 C 0.4634 0.60234 0.52525 0.0
C5390 C 0.47442 0.59057 0.52042 0.0
C5391 C 0.43407 0.60624 0.52865 0.0
C5392 C 0.4296 0.62166 0.52074 0.0
C5393 C 0.42572 0.59887 0.54325 0.0
C5394 C 0.43117 0.5835 0.55299 0.0
C5395 C 0.44791 0.58576 0.56299 0.0
C5396 C 0.45302 0.57134 0.57232 0.0
C5397 C 0.44146 0.55464 0.5719 0.0
C5398 C 0.42474 0.55235 0.56214 0.0
C5399 C 0.41958 0.56673 0.55273 0.0
H5400 H 0.44542 0.54351 0.57921 0.0
H5401 H 0.39754 0.68703 0.49388 0.0
H5402 H 0.85588 0.94808 0.52857 0.0
H5403 H 0.885 0.96279 0.5254 0.0
H5404 H 0.90555 0.92852 0.56495 0.0
H5405 H 0.87643 0.91423 0.56861 0.0
H5406 H 0.92503 0.96099 0.57219 0.0
H5407 H 0.90283 0.92004 0.5145 0.0
H5408 H 0.88234 0.9063 0.48539 0.0
H5409 H 0.89129 0.95831 0.4623 0.0
H5410 H 0.91131 0.97266 0.49176 0.0
H5411 H 0.01008 0.98484 0.54877 0.0
H5412 H 0.98208 0.96697 0.55264 0.0
H5413 H 0.95673 0.99997 0.51536 0.0
H5414 H 0.98444 0.01725 0.51104 0.0
H5415 H 0.94051 0.96579 0.50721 0.0
H5416 H 0.96112 1.00684 0.56766 0.0
H5417 H 0.98236 0.01911 0.59674 0.0
H5418 H 0.97784 0.96411 0.61349 0.0
H5419 H 0.95667 0.95149 0.58439 0.0
C5420 C 0.86659 0.94379 0.53674 0.0
C5421 C 0.86371 0.92995 0.54887 0.0
C5422 C 0.88333 0.95213 0.5348 0.0
C5423 C 0.89774 0.94665 0.54464 0.0
C5424 C 0.89484 0.93311 0.55711 0.0
C5425 C 0.8781 0.92488 0.55919 0.0
C5426 C 0.91572 0.9548 0.54178 0.0
C5427 C 0.92838 0.9618 0.55793 0.0
C5428 C 0.92042 0.95606 0.52325 0.0
C5429 C 0.90845 0.94749 0.50545 0.0
C5430 C 0.90032 0.92862 0.50331 0.0
C5431 C 0.88879 0.92071 0.48671 0.0
C5432 C 0.88557 0.93138 0.47192 0.0
C5433 C 0.8938 0.95005 0.47377 0.0
C5434 C 0.90519 0.95811 0.49046 0.0
C5435 C 0.99852 0.98816 0.54132 0.0
C5436 C 0.99957 1.00261 0.52971 0.0
C5437 C 0.98245 0.97802 0.54364 0.0
C5438 C 0.96704 0.98223 0.53459 0.0
C5439 C 0.96823 0.99633 0.5226 0.0
C5440 C 0.98419 1.00632 0.52019 0.0
C5441 C 0.94964 0.97235 0.53759 0.0
C5442 C 0.93711 0.96497 0.52145 0.0
C5443 C 0.94512 0.97055 0.55609 0.0
C5444 C 0.95742 0.97822 0.57382 0.0
C5445 C 0.96468 0.99737 0.57754 0.0
C5446 C 0.97671 1.00438 0.59401 0.0
C5447 C 0.98146 0.9924 0.60694 0.0
C5448 C 0.97414 0.97338 0.60346 0.0
C5449 C 0.96211 0.9663 0.58701 0.0
H5450 H 0.99078 0.99786 0.61967 0.0
H5451 H 0.8767 0.92521 0.45903 0.0
H5452 H 0.936 0.07589 0.28907 0.0
H5453 H 0.92463 0.10482 0.29151 0.0
H5454 H 0.88075 0.07832 0.24951 0.0
H5455 H 0.89216 0.04945 0.2468 0.0
H5456 H 0.89498 0.11229 0.24143 0.0
H5457 H 0.87909 0.08634 0.2988 0.0
H5458 H 0.88594 0.07492 0.32989 0.0
H5459 H 0.91865 0.12772 0.35238 0.0
H5460 H 0.91216 0.13936 0.32133 0.0
H5461 H 0.83312 0.16623 0.24578 0.0
H5462 H 0.84937 0.14146 0.2498 0.0
H5463 H 0.88787 0.17912 0.29106 0.0
H5464 H 0.87163 0.20434 0.28691 0.0
H5465 H 0.88094 0.14323 0.30158 0.0
H5466 H 0.89723 0.17081 0.24834 0.0
H5467 H 0.89334 0.18454 0.21818 0.0
H5468 H 0.86458 0.13189 0.18886 0.0
H5469 H 0.86807 0.1179 0.21896 0.0
C5470 C 0.92387 0.0762 0.28044 0.0
C5471 C 0.91495 0.06039 0.26775 0.0
C5472 C 0.91737 0.09273 0.28192 0.0
C5473 C 0.90176 0.09369 0.27083 0.0
C5474 C 0.8928 0.07787 0.25823 0.0
C5475 C 0.8993 0.06137 0.25673 0.0
C5476 C 0.89494 0.11129 0.2717 0.0
C5477 C 0.89175 0.11891 0.25456 0.0
C5478 C 0.89164 0.12058 0.28902 0.0
C5479 C 0.89527 0.11364 0.30771 0.0
C5480 C 0.88782 0.09546 0.31035 0.0
C5481 C 0.89163 0.08896 0.32796 0.0
C5482 C 0.90276 0.10057 0.34308 0.0
C5483 C 0.91005 0.11873 0.34065 0.0
C5484 C 0.9063 0.12529 0.32306 0.0
C5485 C 0.8451 0.16937 0.25563 0.0
C5486 C 0.85126 0.18741 0.26568 0.0
C5487 C 0.85432 0.15513 0.258 0.0
C5488 C 0.86997 0.15854 0.27046 0.0
C5489 C 0.87584 0.17625 0.28129 0.0
C5490 C 0.86656 0.19062 0.2789 0.0
C5491 C 0.88032 0.14364 0.27116 0.0
C5492 C 0.88428 0.13664 0.28852 0.0
C5493 C 0.88483 0.13516 0.25416 0.0
C5494 C 0.88281 0.14335 0.23593 0.0
C5495 C 0.88998 0.16219 0.23549 0.0
C5496 C 0.88785 0.17002 0.2184 0.0
C5497 C 0.87869 0.1591 0.20162 0.0
C5498 C 0.87167 0.14032 0.20188 0.0
C5499 C 0.87373 0.13243 0.21895 0.0
H5500 H 0.87705 0.16519 0.1884 0.0
H5501 H 0.90571 0.0955 0.3567 0.0
H5502 H 0.76548 0.17114 0.03688 0.0
H5503 H 0.73484 0.15895 0.02895 0.0
H5504 H 0.74427 0.1026 0.02761 0.0
H5505 H 0.77513 0.11477 0.03486 0.0
H5506 H 0.72028 0.10415 0.99931 0.0
H5507 H 0.73235 0.12815 0.06776 0.0
H5508 H 0.74299 0.15275 0.09549 0.0
H5509 H 0.70805 0.18602 0.07261 0.0
H5510 H 0.6974 0.16175 0.0446 0.0
H5511 H 0.64932 0.05107 0.02789 0.0
H5512 H 0.67585 0.06823 0.02017 0.0
H5513 H 0.65427 0.11831 0.02057 0.0
H5514 H 0.62781 0.10117 0.0288 0.0
H5515 H 0.68246 0.12438 0.04409 0.0
H5516 H 0.66849 0.09918 0.97707 0.0
H5517 H 0.65816 0.07477 0.94903 0.0
H5518 H 0.69564 0.04344 0.96969 0.0
H5519 H 0.70644 0.0678 0.9976 0.0
C5520 C 0.76101 0.15614 0.03493 0.0
C5521 C 0.77255 0.14382 0.03672 0.0
C5522 C 0.74352 0.14922 0.03042 0.0
C5523 C 0.73731 0.12991 0.02799 0.0
C5524 C 0.74885 0.11757 0.0294 0.0
C5525 C 0.76641 0.12449 0.03365 0.0
C5526 C 0.71876 0.1225 0.02468 0.0
C5527 C 0.71198 0.1085 0.00911 0.0
C5528 C 0.70786 0.12875 0.03706 0.0
C5529 C 0.71421 0.14323 0.05401 0.0
C5530 C 0.72702 0.14076 0.06859 0.0
C5531 C 0.73305 0.15464 0.08436 0.0
C5532 C 0.72622 0.17094 0.08578 0.0
C5533 C 0.71334 0.1734 0.07147 0.0
C5534 C 0.70731 0.15959 0.05565 0.0
C5535 C 0.65015 0.06562 0.02584 0.0
C5536 C 0.63676 0.07494 0.02909 0.0
C5537 C 0.6652 0.07537 0.02121 0.0
C5538 C 0.66694 0.0945 0.01955 0.0
C5539 C 0.65314 0.10354 0.02174 0.0
C5540 C 0.63814 0.09382 0.02652 0.0
C5541 C 0.68401 0.10555 0.01905 0.0
C5542 C 0.69058 0.1203 0.03394 0.0
C5543 C 0.69469 0.09996 0.0061 0.0
C5544 C 0.68816 0.08522 0.98946 0.0
C5545 C 0.67444 0.08702 0.97567 0.0
C5546 C 0.66854 0.07324 0.95979 0.0
C5547 C 0.67611 0.0575 0.9577 0.0
C5548 C 0.68975 0.05561 0.97135 0.0
C5549 C 0.69585 0.06946 0.98712 0.0
H5550 H 0.67145 0.04682 0.94544 0.0
H5551 H 0.73086 0.18165 0.09801 0.0
H5552 H 0.17744 0.44429 0.307 0.0
H5553 H 0.19136 0.41693 0.30571 0.0
H5554 H 0.22716 0.44364 0.27249 0.0
H5555 H 0.21325 0.47111 0.27389 0.0
H5556 H 0.22237 0.40865 0.25848 0.0
H5557 H 0.23736 0.43559 0.32318 0.0
H5558 H 0.23417 0.44876 0.35573 0.0
H5559 H 0.20343 0.39667 0.363 0.0
H5560 H 0.20625 0.38326 0.33035 0.0
H5561 H 0.28285 0.34539 0.27544 0.0
H5562 H 0.26854 0.37246 0.27665 0.0
H5563 H 0.22497 0.33936 0.29395 0.0
H5564 H 0.23905 0.31189 0.29197 0.0
H5565 H 0.23422 0.37743 0.31612 0.0
H5566 H 0.22134 0.35115 0.24944 0.0
H5567 H 0.22908 0.33921 0.21854 0.0
H5568 H 0.26076 0.39241 0.21689 0.0
H5569 H 0.25334 0.40462 0.24792 0.0
C5570 C 0.18831 0.44456 0.29941 0.0
C5571 C 0.19391 0.46061 0.29065 0.0
C5572 C 0.19654 0.4286 0.29875 0.0
C5573 C 0.21091 0.42742 0.28915 0.0
C5574 C 0.21633 0.44339 0.28013 0.0
C5575 C 0.20824 0.45947 0.28101 0.0
C5576 C 0.22003 0.40991 0.28852 0.0
C5577 C 0.22498 0.40215 0.2713 0.0
C5578 C 0.22392 0.40046 0.30481 0.0
C5579 C 0.2218 0.40852 0.32423 0.0
C5580 C 0.22975 0.42701 0.33164 0.0
C5581 C 0.22805 0.43451 0.35012 0.0
C5582 C 0.21855 0.42358 0.3614 0.0
C5583 C 0.21074 0.40513 0.35422 0.0
C5584 C 0.21238 0.39758 0.33573 0.0
C5585 C 0.2702 0.34364 0.27953 0.0
C5586 C 0.26245 0.32582 0.28361 0.0
C5587 C 0.26185 0.35945 0.2802 0.0
C5588 C 0.24531 0.35873 0.28548 0.0
C5589 C 0.23762 0.341 0.28986 0.0
C5590 C 0.24579 0.32499 0.28866 0.0
C5591 C 0.2362 0.37613 0.2861 0.0
C5592 C 0.23139 0.3839 0.30331 0.0
C5593 C 0.2328 0.38582 0.26994 0.0
C5594 C 0.23689 0.37875 0.25105 0.0
C5595 C 0.23001 0.36028 0.24252 0.0
C5596 C 0.23434 0.35347 0.22498 0.0
C5597 C 0.24544 0.36504 0.21578 0.0
C5598 C 0.25217 0.38347 0.22404 0.0
C5599 C 0.24788 0.39036 0.24159 0.0
H5600 H 0.24882 0.35972 0.20223 0.0
H5601 H 0.21728 0.4294 0.37573 0.0
H5602 H 0.27933 0.45027 0.04088 0.0
H5603 H 0.25257 0.46206 0.03584 0.0
H5604 H 0.22398 0.40744 0.03982 0.0
H5605 H 0.25066 0.39544 0.04386 0.0
H5606 H 0.20643 0.42038 0.01415 0.0
H5607 H 0.23231 0.4468 0.07788 0.0
H5608 H 0.25508 0.46401 0.10367 0.0
H5609 H 0.25632 0.51362 0.07632 0.0
H5610 H 0.23369 0.49663 0.05023 0.0
H5611 H 0.12956 0.45508 0.02786 0.0
H5612 H 0.15504 0.44093 0.03119 0.0
H5613 H 0.18595 0.4928 0.02279 0.0
H5614 H 0.16084 0.50736 0.02067 0.0
H5615 H 0.20146 0.47996 0.05133 0.0
H5616 H 0.17324 0.45102 0.98741 0.0
H5617 H 0.14928 0.43219 0.964 0.0
H5618 H 0.15078 0.38521 0.99508 0.0
H5619 H 0.1746 0.40383 0.01882 0.0
C5620 C 0.26735 0.44079 0.04073 0.0
C5621 C 0.26722 0.42194 0.04295 0.0
C5622 C 0.25197 0.44757 0.03795 0.0
C5623 C 0.23604 0.43583 0.03783 0.0
C5624 C 0.23594 0.41692 0.03987 0.0
C5625 C 0.25129 0.41007 0.04231 0.0
C5626 C 0.21957 0.44322 0.03567 0.0
C5627 C 0.20535 0.43331 0.02248 0.0
C5628 C 0.21786 0.46013 0.04638 0.0
C5629 C 0.23143 0.47041 0.06203 0.0
C5630 C 0.23752 0.46135 0.07731 0.0
C5631 C 0.25039 0.47107 0.09199 0.0
C5632 C 0.25718 0.48988 0.09161 0.0
C5633 C 0.25107 0.49904 0.07658 0.0
C5634 C 0.23821 0.48938 0.06185 0.0
C5635 C 0.14176 0.46358 0.02681 0.0
C5636 C 0.14292 0.48249 0.02394 0.0
C5637 C 0.15638 0.45533 0.02847 0.0
C5638 C 0.17256 0.46564 0.027 0.0
C5639 C 0.1737 0.48441 0.02391 0.0
C5640 C 0.15916 0.49271 0.02245 0.0
C5641 C 0.18848 0.45736 0.02954 0.0
C5642 C 0.20259 0.46707 0.04294 0.0
C5643 C 0.18988 0.44006 0.01933 0.0
C5644 C 0.17561 0.42888 1.00498 0.0
C5645 C 0.16839 0.43671 0.98932 0.0
C5646 C 0.15484 0.42607 0.97598 0.0
C5647 C 0.14849 0.40753 0.97807 0.0
C5648 C 0.1557 0.39958 0.99349 0.0
C5649 C 0.16923 0.41016 0.00687 0.0
H5650 H 0.138 0.39932 0.96773 0.0
H5651 H 0.26714 0.49738 0.10299 0.0
H5652 H 0.92627 0.94527 0.26151 0.0
H5653 H 0.9093 0.91567 0.26663 0.0
H5654 H 0.86401 0.9402 0.26288 0.0
H5655 H 0.88108 0.97004 0.25835 0.0
H5656 H 0.86491 0.92042 0.29176 0.0
H5657 H 0.87333 0.90877 0.2251 0.0
H5658 H 0.89083 0.90701 0.19909 0.0
H5659 H 0.91594 0.8671 0.22583 0.0
H5660 H 0.89879 0.86884 0.25218 0.0
H5661 H 0.80007 0.83622 0.25756 0.0
H5662 H 0.82115 0.86437 0.25623 0.0
H5663 H 0.85851 0.84503 0.29475 0.0
H5664 H 0.83708 0.81748 0.29727 0.0
H5665 H 0.86376 0.86075 0.25072 0.0
H5666 H 0.8579 0.87321 0.31791 0.0
H5667 H 0.84158 0.87469 0.34497 0.0
H5668 H 0.81352 0.91262 0.31863 0.0
H5669 H 0.82946 0.911 0.29118 0.0
C5670 C 0.91266 0.94431 0.26157 0.0
C5671 C 0.90499 0.95998 0.25931 0.0
C5672 C 0.90294 0.92733 0.26449 0.0
C5673 C 0.88526 0.92551 0.26489 0.0
C5674 C 0.8776 0.94116 0.2626 0.0
C5675 C 0.88735 0.9582 0.25986 0.0
C5676 C 0.87476 0.90743 0.26792 0.0
C5677 C 0.86464 0.90744 0.28266 0.0
C5678 C 0.87471 0.89023 0.25657 0.0
C5679 C 0.88489 0.88907 0.24067 0.0
C5680 C 0.88267 0.89972 0.22549 0.0
C5681 C 0.89252 0.89872 0.2107 0.0
C5682 C 0.90453 0.887 0.21086 0.0
C5683 C 0.90667 0.8762 0.22578 0.0
C5684 C 0.89688 0.87718 0.24063 0.0
C5685 C 0.81275 0.83796 0.2658 0.0
C5686 C 0.81698 0.82443 0.27727 0.0
C5687 C 0.82478 0.85405 0.26501 0.0
C5688 C 0.84136 0.8568 0.27542 0.0
C5689 C 0.84576 0.8432 0.28666 0.0
C5690 C 0.83356 0.82734 0.28788 0.0
C5691 C 0.85392 0.87394 0.27432 0.0
C5692 C 0.86427 0.87376 0.25989 0.0
C5693 C 0.85443 0.8909 0.28613 0.0
C5694 C 0.84459 0.89166 0.30233 0.0
C5695 C 0.84802 0.88158 0.31772 0.0
C5696 C 0.83891 0.88251 0.33317 0.0
C5697 C 0.82645 0.89366 0.33347 0.0
C5698 C 0.82311 0.90392 0.31833 0.0
C5699 C 0.83217 0.90298 0.30282 0.0
H5700 H 0.81943 0.89441 0.34547 0.0
H5701 H 0.91215 0.88624 0.1994 0.0
H5702 H 0.72151 0.06465 0.81033 0.0
H5703 H 0.7363 0.09712 0.81156 0.0
H5704 H 0.68953 0.11121 0.78499 0.0
H5705 H 0.67505 0.0787 0.78306 0.0
H5706 H 0.711 0.13086 0.77121 0.0
H5707 H 0.71125 0.12483 0.83706 0.0
H5708 H 0.7163 0.11257 0.86796 0.0
H5709 H 0.77045 0.12302 0.86678 0.0
H5710 H 0.7657 0.13509 0.83571 0.0
H5711 H 0.74481 0.2326 0.80843 0.0
H5712 H 0.72998 0.20028 0.8093 0.0
H5713 H 0.77218 0.17918 0.78926 0.0
H5714 H 0.78661 0.21121 0.78752 0.0
H5715 H 0.75262 0.16447 0.82742 0.0
H5716 H 0.74856 0.1701 0.75808 0.0
H5717 H 0.74036 0.18623 0.73047 0.0
H5718 H 0.68874 0.17947 0.74244 0.0
H5719 H 0.69678 0.16371 0.77044 0.0
C5720 C 0.71432 0.07462 0.80474 0.0
C5721 C 0.69688 0.0686 0.79659 0.0
C5722 C 0.72284 0.09353 0.80562 0.0
C5723 C 0.71428 0.10747 0.79869 0.0
C5724 C 0.69685 0.10132 0.7905 0.0
C5725 C 0.68841 0.08244 0.78946 0.0
C5726 C 0.72332 0.1281 0.79949 0.0
C5727 C 0.71997 0.13797 0.78371 0.0
C5728 C 0.73519 0.13835 0.81558 0.0
C5729 C 0.73809 0.13059 0.83392 0.0
C5730 C 0.72421 0.1243 0.84327 0.0
C5731 C 0.72703 0.11743 0.86084 0.0
C5732 C 0.74368 0.11694 0.86929 0.0
C5733 C 0.75756 0.12334 0.86019 0.0
C5734 C 0.75481 0.13019 0.8426 0.0
C5735 C 0.75104 0.22113 0.80434 0.0
C5736 C 0.76709 0.22487 0.79794 0.0
C5737 C 0.74245 0.20248 0.80478 0.0
C5738 C 0.74975 0.18685 0.7993 0.0
C5739 C 0.76602 0.19066 0.79353 0.0
C5740 C 0.77434 0.20918 0.79255 0.0
C5741 C 0.74045 0.16666 0.79911 0.0
C5742 C 0.7437 0.15705 0.81499 0.0
C5743 C 0.72816 0.15681 0.78341 0.0
C5744 C 0.72334 0.16603 0.7665 0.0
C5745 C 0.73553 0.1723 0.75498 0.0
C5746 C 0.7309 0.18133 0.73924 0.0
C5747 C 0.71406 0.18395 0.73475 0.0
C5748 C 0.7018 0.17749 0.74597 0.0
C5749 C 0.70639 0.16854 0.76178 0.0
H5750 H 0.71049 0.19093 0.72254 0.0
H5751 H 0.74584 0.11165 0.88292 0.0
loop_
_geom_bond_atom_site_label_1
_geom_bond_atom_site_label_2
_geom_bond_distance
_geom_bond_site_symmetry_2
_ccdc_geom_bond_type
In0 O1 2.294 . S
In0 O2 2.326 . S
In0 O6 2.266 1_455 S
In0 O7 2.326 1_455 S
In0 O8 2.266 . S
In0 O9 2.326 . S
In0 O11 2.294 . S
In0 O12 2.326 . S
O1 In0 2.294 . S
O1 C10 1.240 . S
O2 In0 2.326 . S
O2 C10 1.252 . S
C3 O6 1.252 . S
C3 O7 1.260 . S
C4 O11 1.240 . S
C4 O12 1.252 . S
C5 O8 1.252 . S
C5 O9 1.260 . S
O6 In0 2.266 1_655 S
O6 C3 1.252 . S
O7 In0 2.326 1_655 S
O7 C3 1.260 . S
O8 In0 2.266 . S
O8 C5 1.252 . S
O9 In0 2.326 . S
O9 C5 1.260 . S
C10 O1 1.240 . S
C10 O2 1.252 . S
O11 In0 2.294 . S
O11 C4 1.240 . S
O12 In0 2.326 . S
O12 C4 1.252 . S
In13 O14 2.294 . S
In13 O15 2.326 . S
In13 O19 2.266 . S
In13 O20 2.326 . S
In13 O21 2.266 . S
In13 O22 2.326 . S
In13 O24 2.294 . S
In13 O25 2.326 . S
O14 In13 2.294 . S
O14 C23 1.240 . S
O15 In13 2.326 . S
O15 C23 1.252 . S
C16 O19 1.252 . S
C16 O20 1.260 . S
C17 O24 1.240 . S
C17 O25 1.252 . S
C18 O21 1.252 . S
C18 O22 1.260 . S
O19 In13 2.266 . S
O19 C16 1.252 . S
O20 In13 2.326 . S
O20 C16 1.260 . S
O21 In13 2.266 . S
O21 C18 1.252 . S
O22 In13 2.326 . S
O22 C18 1.260 . S
C23 O14 1.240 . S
C23 O15 1.252 . S
O24 In13 2.294 . S
O24 C17 1.240 . S
O25 In13 2.326 . S
O25 C17 1.252 . S
In26 O27 2.294 . S
In26 O28 2.326 . S
In26 O32 2.266 . S
In26 O33 2.326 . S
In26 O34 2.266 . S
In26 O35 2.326 . S
In26 O37 2.294 . S
In26 O38 2.326 . S
O27 In26 2.294 . S
O27 C36 1.240 . S
O28 In26 2.326 . S
O28 C36 1.252 . S
C29 O32 1.252 . S
C29 O33 1.260 . S
C30 O37 1.240 . S
C30 O38 1.252 . S
C31 O34 1.252 . S
C31 O35 1.260 . S
O32 In26 2.266 . S
O32 C29 1.252 . S
O33 In26 2.326 . S
O33 C29 1.260 . S
O34 In26 2.266 . S
O34 C31 1.252 . S
O35 In26 2.326 . S
O35 C31 1.260 . S
C36 O27 1.240 . S
C36 O28 1.252 . S
O37 In26 2.294 . S
O37 C30 1.240 . S
O38 In26 2.326 . S
O38 C30 1.252 . S
In39 O40 2.294 . S
In39 O41 2.326 . S
In39 O45 2.266 . S
In39 O46 2.326 . S
In39 O47 2.266 . S
In39 O48 2.326 . S
In39 O50 2.294 . S
In39 O51 2.326 . S
O40 In39 2.294 . S
O40 C49 1.240 . S
O41 In39 2.326 . S
O41 C49 1.252 . S
C42 O45 1.252 . S
C42 O46 1.260 . S
C43 O50 1.240 . S
C43 O51 1.252 . S
C44 O47 1.252 . S
C44 O48 1.260 . S
O45 In39 2.266 . S
O45 C42 1.252 . S
O46 In39 2.326 . S
O46 C42 1.260 . S
O47 In39 2.266 . S
O47 C44 1.252 . S
O48 In39 2.326 . S
O48 C44 1.260 . S
C49 O40 1.240 . S
C49 O41 1.252 . S
O50 In39 2.294 . S
O50 C43 1.240 . S
O51 In39 2.326 . S
O51 C43 1.252 . S
In52 O53 2.294 . S
In52 O54 2.326 . S
In52 O58 2.266 . S
In52 O59 2.326 . S
In52 O60 2.266 . S
In52 O61 2.326 . S
In52 O63 2.294 . S
In52 O64 2.326 . S
O53 In52 2.294 . S
O53 C62 1.240 . S
O54 In52 2.326 . S
O54 C62 1.252 . S
C55 O58 1.252 . S
C55 O59 1.260 . S
C56 O63 1.240 . S
C56 O64 1.252 . S
C57 O60 1.252 . S
C57 O61 1.260 . S
O58 In52 2.266 . S
O58 C55 1.252 . S
O59 In52 2.326 . S
O59 C55 1.260 . S
O60 In52 2.266 . S
O60 C57 1.252 . S
O61 In52 2.326 . S
O61 C57 1.260 . S
C62 O53 1.240 . S
C62 O54 1.252 . S
O63 In52 2.294 . S
O63 C56 1.240 . S
O64 In52 2.326 . S
O64 C56 1.252 . S
In65 O66 2.294 . S
In65 O67 2.326 . S
In65 O71 2.266 . S
In65 O72 2.326 . S
In65 O73 2.266 . S
In65 O74 2.326 . S
In65 O76 2.294 . S
In65 O77 2.326 . S
O66 In65 2.294 . S
O66 C75 1.240 . S
O67 In65 2.326 . S
O67 C75 1.252 . S
C68 O71 1.252 . S
C68 O72 1.260 . S
C69 O76 1.240 . S
C69 O77 1.252 . S
C70 O73 1.252 . S
C70 O74 1.260 . S
O71 In65 2.266 . S
O71 C68 1.252 . S
O72 In65 2.326 . S
O72 C68 1.260 . S
O73 In65 2.266 . S
O73 C70 1.252 . S
O74 In65 2.326 . S
O74 C70 1.260 . S
C75 O66 1.240 . S
C75 O67 1.252 . S
O76 In65 2.294 . S
O76 C69 1.240 . S
O77 In65 2.326 . S
O77 C69 1.252 . S
In78 O79 2.294 . S
In78 O80 2.326 . S
In78 O84 2.266 . S
In78 O85 2.326 . S
In78 O86 2.266 . S
In78 O87 2.326 . S
In78 O89 2.294 . S
In78 O90 2.326 . S
O79 In78 2.294 . S
O79 C88 1.240 . S
O80 In78 2.326 . S
O80 C88 1.252 . S
C81 O84 1.252 . S
C81 O85 1.260 . S
C82 O89 1.240 . S
C82 O90 1.252 . S
C83 O86 1.252 . S
C83 O87 1.260 . S
O84 In78 2.266 . S
O84 C81 1.252 . S
O85 In78 2.326 . S
O85 C81 1.260 . S
O86 In78 2.266 . S
O86 C83 1.252 . S
O87 In78 2.326 . S
O87 C83 1.260 . S
C88 O79 1.240 . S
C88 O80 1.252 . S
O89 In78 2.294 . S
O89 C82 1.240 . S
O90 In78 2.326 . S
O90 C82 1.252 . S
In91 O92 2.294 . S
In91 O93 2.326 . S
In91 O97 2.266 . S
In91 O98 2.326 . S
In91 O99 2.266 1_455 S
In91 O100 2.326 1_455 S
In91 O102 2.294 . S
In91 O103 2.326 . S
O92 In91 2.294 . S
O92 C101 1.240 . S
O93 In91 2.326 . S
O93 C101 1.252 . S
C94 O97 1.252 . S
C94 O98 1.260 . S
C95 O102 1.240 . S
C95 O103 1.252 . S
C96 O99 1.252 . S
C96 O100 1.260 . S
O97 In91 2.266 . S
O97 C94 1.252 . S
O98 In91 2.326 . S
O98 C94 1.260 . S
O99 In91 2.266 1_655 S
O99 C96 1.252 . S
O100 In91 2.326 1_655 S
O100 C96 1.260 . S
C101 O92 1.240 . S
C101 O93 1.252 . S
O102 In91 2.294 . S
O102 C95 1.240 . S
O103 In91 2.326 . S
O103 C95 1.252 . S
In104 O105 2.294 . S
In104 O106 2.326 . S
In104 O110 2.266 . S
In104 O111 2.326 . S
In104 O112 2.258 1_545 S
In104 O113 2.326 1_545 S
In104 O115 2.294 . S
In104 O116 2.326 . S
O105 In104 2.294 . S
O105 C114 1.240 . S
O106 In104 2.326 . S
O106 C114 1.252 . S
C107 O110 1.252 . S
C107 O111 1.260 . S
C108 O115 1.240 . S
C108 O116 1.252 . S
C109 O112 1.264 . S
C109 O113 1.260 . S
O110 In104 2.266 . S
O110 C107 1.252 . S
O111 In104 2.326 . S
O111 C107 1.260 . S
O112 In104 2.258 1_565 S
O112 C109 1.264 . S
O113 In104 2.326 1_565 S
O113 C109 1.260 . S
C114 O105 1.240 . S
C114 O106 1.252 . S
O115 In104 2.294 . S
O115 C108 1.240 . S
O116 In104 2.326 . S
O116 C108 1.252 . S
In117 O118 2.294 . S
In117 O119 2.326 . S
In117 O123 2.266 . S
In117 O124 2.326 . S
In117 O125 2.266 . S
In117 O126 2.326 . S
In117 O128 2.294 . S
In117 O129 2.326 . S
O118 In117 2.294 . S
O118 C127 1.240 . S
O119 In117 2.326 . S
O119 C127 1.252 . S
C120 O123 1.252 . S
C120 O124 1.260 . S
C121 O128 1.240 . S
C121 O129 1.252 . S
C122 O125 1.252 . S
C122 O126 1.260 . S
O123 In117 2.266 . S
O123 C120 1.252 . S
O124 In117 2.326 . S
O124 C120 1.260 . S
O125 In117 2.266 . S
O125 C122 1.252 . S
O126 In117 2.326 . S
O126 C122 1.260 . S
C127 O118 1.240 . S
C127 O119 1.252 . S
O128 In117 2.294 . S
O128 C121 1.240 . S
O129 In117 2.326 . S
O129 C121 1.252 . S
In130 O131 2.294 . S
In130 O132 2.326 . S
In130 O136 2.266 . S
In130 O137 2.326 . S
In130 O138 2.266 . S
In130 O139 2.326 . S
In130 O141 2.294 . S
In130 O142 2.326 1_545 S
O131 In130 2.294 . S
O131 C140 1.240 . S
O132 In130 2.326 . S
O132 C140 1.252 . S
C133 O136 1.252 . S
C133 O137 1.260 . S
C134 O141 1.240 1_565 S
C134 O142 1.252 . S
C135 O138 1.252 . S
C135 O139 1.260 . S
O136 In130 2.266 . S
O136 C133 1.252 . S
O137 In130 2.326 . S
O137 C133 1.260 . S
O138 In130 2.266 . S
O138 C135 1.252 . S
O139 In130 2.326 . S
O139 C135 1.260 . S
C140 O131 1.240 . S
C140 O132 1.252 . S
O141 In130 2.294 . S
O141 C134 1.240 1_545 S
O142 In130 2.326 1_565 S
O142 C134 1.252 . S
In143 O144 2.296 . S
In143 O145 2.329 . S
In143 O149 2.264 1_554 S
In143 O150 2.322 1_554 S
In143 O151 2.261 1_554 S
In143 O152 2.325 1_554 S
In143 O154 2.294 . S
In143 O155 2.322 . S
O144 In143 2.296 . S
O144 C153 1.240 . S
O145 In143 2.329 . S
O145 C153 1.252 . S
C146 O149 1.252 . S
C146 O150 1.260 . S
C147 O154 1.240 . S
C147 O155 1.253 . S
C148 O151 1.252 . S
C148 O152 1.260 . S
O149 In143 2.264 1_556 S
O149 C146 1.252 . S
O150 In143 2.322 1_556 S
O150 C146 1.260 . S
O151 In143 2.261 1_556 S
O151 C148 1.252 . S
O152 In143 2.325 1_556 S
O152 C148 1.260 . S
C153 O144 1.240 . S
C153 O145 1.252 . S
O154 In143 2.294 . S
O154 C147 1.240 . S
O155 In143 2.322 . S
O155 C147 1.253 . S
In156 O157 2.294 . S
In156 O158 2.326 . S
In156 O162 2.266 . S
In156 O163 2.326 1_554 S
In156 O164 2.266 . S
In156 O165 2.326 . S
In156 O167 2.294 . S
In156 O168 2.326 . S
O157 In156 2.294 . S
O157 C166 1.240 . S
O158 In156 2.326 . S
O158 C166 1.252 . S
C159 O162 1.252 1_556 S
C159 O163 1.260 . S
C160 O167 1.240 . S
C160 O168 1.252 . S
C161 O164 1.252 . S
C161 O165 1.260 . S
O162 In156 2.266 . S
O162 C159 1.252 1_554 S
O163 In156 2.326 1_556 S
O163 C159 1.260 . S
O164 In156 2.266 . S
O164 C161 1.252 . S
O165 In156 2.326 . S
O165 C161 1.260 . S
C166 O157 1.240 . S
C166 O158 1.252 . S
O167 In156 2.294 . S
O167 C160 1.240 . S
O168 In156 2.326 . S
O168 C160 1.252 . S
In169 O170 2.294 . S
In169 O171 2.326 . S
In169 O175 2.266 . S
In169 O176 2.326 . S
In169 O177 2.266 . S
In169 O178 2.326 . S
In169 O180 2.294 . S
In169 O181 2.326 . S
O170 In169 2.294 . S
O170 C179 1.240 . S
O171 In169 2.326 . S
O171 C179 1.252 . S
C172 O175 1.252 . S
C172 O176 1.260 . S
C173 O180 1.240 . S
C173 O181 1.252 . S
C174 O177 1.252 . S
C174 O178 1.260 . S
O175 In169 2.266 . S
O175 C172 1.252 . S
O176 In169 2.326 . S
O176 C172 1.260 . S
O177 In169 2.266 . S
O177 C174 1.252 . S
O178 In169 2.326 . S
O178 C174 1.260 . S
C179 O170 1.240 . S
C179 O171 1.252 . S
O180 In169 2.294 . S
O180 C173 1.240 . S
O181 In169 2.326 . S
O181 C173 1.252 . S
In182 O183 2.294 . S
In182 O184 2.326 . S
In182 O188 2.266 . S
In182 O189 2.326 . S
In182 O190 2.266 . S
In182 O191 2.326 . S
In182 O193 2.294 . S
In182 O194 2.326 . S
O183 In182 2.294 . S
O183 C192 1.240 . S
O184 In182 2.326 . S
O184 C192 1.252 . S
C185 O188 1.252 . S
C185 O189 1.260 . S
C186 O193 1.240 . S
C186 O194 1.252 . S
C187 O190 1.252 . S
C187 O191 1.260 . S
O188 In182 2.266 . S
O188 C185 1.252 . S
O189 In182 2.326 . S
O189 C185 1.260 . S
O190 In182 2.266 . S
O190 C187 1.252 . S
O191 In182 2.326 . S
O191 C187 1.260 . S
C192 O183 1.240 . S
C192 O184 1.252 . S
O193 In182 2.294 . S
O193 C186 1.240 . S
O194 In182 2.326 . S
O194 C186 1.252 . S
In195 O196 2.294 . S
In195 O197 2.326 . S
In195 O201 2.266 . S
In195 O202 2.326 . S
In195 O203 2.266 . S
In195 O204 2.326 . S
In195 O206 2.294 . S
In195 O207 2.326 . S
O196 In195 2.294 . S
O196 C205 1.240 . S
O197 In195 2.326 . S
O197 C205 1.252 . S
C198 O201 1.252 . S
C198 O202 1.260 . S
C199 O206 1.240 . S
C199 O207 1.252 . S
C200 O203 1.252 . S
C200 O204 1.260 . S
O201 In195 2.266 . S
O201 C198 1.252 . S
O202 In195 2.326 . S
O202 C198 1.260 . S
O203 In195 2.266 . S
O203 C200 1.252 . S
O204 In195 2.326 . S
O204 C200 1.260 . S
C205 O196 1.240 . S
C205 O197 1.252 . S
O206 In195 2.294 . S
O206 C199 1.240 . S
O207 In195 2.326 . S
O207 C199 1.252 . S
In208 O209 2.294 . S
In208 O210 2.326 . S
In208 O214 2.266 . S
In208 O215 2.326 . S
In208 O216 2.266 1_545 S
In208 O217 2.326 1_545 S
In208 O219 2.294 . S
In208 O220 2.326 . S
O209 In208 2.294 . S
O209 C218 1.240 . S
O210 In208 2.326 . S
O210 C218 1.252 . S
C211 O214 1.252 . S
C211 O215 1.260 . S
C212 O219 1.240 . S
C212 O220 1.252 . S
C213 O216 1.252 . S
C213 O217 1.260 . S
O214 In208 2.266 . S
O214 C211 1.252 . S
O215 In208 2.326 . S
O215 C211 1.260 . S
O216 In208 2.266 1_565 S
O216 C213 1.252 . S
O217 In208 2.326 1_565 S
O217 C213 1.260 . S
C218 O209 1.240 . S
C218 O210 1.252 . S
O219 In208 2.294 . S
O219 C212 1.240 . S
O220 In208 2.326 . S
O220 C212 1.252 . S
In221 O222 2.294 . S
In221 O223 2.326 . S
In221 O227 2.266 . S
In221 O228 2.326 . S
In221 O229 2.266 . S
In221 O230 2.326 . S
In221 O232 2.294 . S
In221 O233 2.326 . S
O222 In221 2.294 . S
O222 C231 1.240 . S
O223 In221 2.326 . S
O223 C231 1.252 . S
C224 O227 1.252 . S
C224 O228 1.260 . S
C225 O232 1.240 . S
C225 O233 1.252 . S
C226 O229 1.252 . S
C226 O230 1.260 . S
O227 In221 2.266 . S
O227 C224 1.252 . S
O228 In221 2.326 . S
O228 C224 1.260 . S
O229 In221 2.266 . S
O229 C226 1.252 . S
O230 In221 2.326 . S
O230 C226 1.260 . S
C231 O222 1.240 . S
C231 O223 1.252 . S
O232 In221 2.294 . S
O232 C225 1.240 . S
O233 In221 2.326 . S
O233 C225 1.252 . S
In234 O235 2.294 . S
In234 O236 2.326 . S
In234 O240 2.266 . S
In234 O241 2.326 . S
In234 O242 2.266 . S
In234 O243 2.326 . S
In234 O245 2.294 . S
In234 O246 2.326 . S
O235 In234 2.294 . S
O235 C244 1.240 . S
O236 In234 2.326 . S
O236 C244 1.252 . S
C237 O240 1.252 . S
C237 O241 1.260 . S
C238 O245 1.240 . S
C238 O246 1.252 . S
C239 O242 1.252 . S
C239 O243 1.260 . S
O240 In234 2.266 . S
O240 C237 1.252 . S
O241 In234 2.326 . S
O241 C237 1.260 . S
O242 In234 2.266 . S
O242 C239 1.252 . S
O243 In234 2.326 . S
O243 C239 1.260 . S
C244 O235 1.240 . S
C244 O236 1.252 . S
O245 In234 2.294 . S
O245 C238 1.240 . S
O246 In234 2.326 . S
O246 C238 1.252 . S
In247 O248 2.294 1_545 S
In247 O249 2.326 1_545 S
In247 O253 2.266 . S
In247 O254 2.326 . S
In247 O255 2.266 . S
In247 O256 2.326 . S
In247 O258 2.294 . S
In247 O259 2.326 . S
O248 In247 2.294 1_565 S
O248 C257 1.240 . S
O249 In247 2.326 1_565 S
O249 C257 1.252 . S
C250 O253 1.252 . S
C250 O254 1.260 . S
C251 O258 1.240 . S
C251 O259 1.252 . S
C252 O255 1.252 . S
C252 O256 1.260 . S
O253 In247 2.266 . S
O253 C250 1.252 . S
O254 In247 2.326 . S
O254 C250 1.260 . S
O255 In247 2.266 . S
O255 C252 1.252 . S
O256 In247 2.326 . S
O256 C252 1.260 . S
C257 O248 1.240 . S
C257 O249 1.252 . S
O258 In247 2.294 . S
O258 C251 1.240 . S
O259 In247 2.326 . S
O259 C251 1.252 . S
In260 O261 2.294 . S
In260 O262 2.326 . S
In260 O266 2.266 . S
In260 O267 2.326 . S
In260 O268 2.266 . S
In260 O269 2.326 1_554 S
In260 O271 2.294 . S
In260 O272 2.326 . S
O261 In260 2.294 . S
O261 C270 1.240 . S
O262 In260 2.326 . S
O262 C270 1.252 . S
C263 O266 1.252 . S
C263 O267 1.260 . S
C264 O271 1.240 . S
C264 O272 1.252 . S
C265 O268 1.252 1_556 S
C265 O269 1.260 . S
O266 In260 2.266 . S
O266 C263 1.252 . S
O267 In260 2.326 . S
O267 C263 1.260 . S
O268 In260 2.266 . S
O268 C265 1.252 1_554 S
O269 In260 2.326 1_556 S
O269 C265 1.260 . S
C270 O261 1.240 . S
C270 O262 1.252 . S
O271 In260 2.294 . S
O271 C264 1.240 . S
O272 In260 2.326 . S
O272 C264 1.252 . S
In273 O274 2.294 . S
In273 O275 2.326 . S
In273 O279 2.266 . S
In273 O280 2.326 . S
In273 O281 2.266 . S
In273 O282 2.326 . S
In273 O284 2.294 . S
In273 O285 2.326 . S
O274 In273 2.294 . S
O274 C283 1.240 . S
O275 In273 2.326 . S
O275 C283 1.252 . S
C276 O279 1.252 . S
C276 O280 1.260 . S
C277 O284 1.240 . S
C277 O285 1.252 . S
C278 O281 1.252 . S
C278 O282 1.260 . S
O279 In273 2.266 . S
O279 C276 1.252 . S
O280 In273 2.326 . S
O280 C276 1.260 . S
O281 In273 2.266 . S
O281 C278 1.252 . S
O282 In273 2.326 . S
O282 C278 1.260 . S
C283 O274 1.240 . S
C283 O275 1.252 . S
O284 In273 2.294 . S
O284 C277 1.240 . S
O285 In273 2.326 . S
O285 C277 1.252 . S
In286 O287 2.294 . S
In286 O288 2.326 . S
In286 O292 2.266 . S
In286 O293 2.326 . S
In286 O294 2.266 . S
In286 O295 2.326 . S
In286 O297 2.294 . S
In286 O298 2.326 . S
O287 In286 2.294 . S
O287 C296 1.240 . S
O288 In286 2.326 . S
O288 C296 1.252 . S
C289 O292 1.252 . S
C289 O293 1.260 . S
C290 O297 1.240 . S
C290 O298 1.252 . S
C291 O294 1.252 . S
C291 O295 1.260 . S
O292 In286 2.266 . S
O292 C289 1.252 . S
O293 In286 2.326 . S
O293 C289 1.260 . S
O294 In286 2.266 . S
O294 C291 1.252 . S
O295 In286 2.326 . S
O295 C291 1.260 . S
C296 O287 1.240 . S
C296 O288 1.252 . S
O297 In286 2.294 . S
O297 C290 1.240 . S
O298 In286 2.326 . S
O298 C290 1.252 . S
In299 O300 2.294 . S
In299 O301 2.326 . S
In299 O305 2.266 . S
In299 O306 2.326 . S
In299 O307 2.266 . S
In299 O308 2.326 . S
In299 O310 2.294 . S
In299 O311 2.326 . S
O300 In299 2.294 . S
O300 C309 1.240 . S
O301 In299 2.326 . S
O301 C309 1.252 . S
C302 O305 1.252 . S
C302 O306 1.260 . S
C303 O310 1.240 . S
C303 O311 1.252 . S
C304 O307 1.252 . S
C304 O308 1.260 . S
O305 In299 2.266 . S
O305 C302 1.252 . S
O306 In299 2.326 . S
O306 C302 1.260 . S
O307 In299 2.266 . S
O307 C304 1.252 . S
O308 In299 2.326 . S
O308 C304 1.260 . S
C309 O300 1.240 . S
C309 O301 1.252 . S
O310 In299 2.294 . S
O310 C303 1.240 . S
O311 In299 2.326 . S
O311 C303 1.252 . S
Tb312 C314 2.809 1_455 S
Tb312 O332 2.484 . S
Tb312 O333 2.440 . S
Tb312 O334 2.658 . S
Tb312 O335 2.399 1_554 S
Tb312 O336 2.378 . S
Tb312 O340 2.325 . S
Tb312 O343 2.290 1_545 S
Tb313 C323 2.809 . S
Tb313 O334 2.325 . S
Tb313 O337 2.341 . S
Tb313 O338 2.484 . S
Tb313 O339 2.440 . S
Tb313 O340 2.658 . S
Tb313 O341 2.409 . S
Tb313 O342 2.378 . S
C314 Tb312 2.809 1_655 S
C314 C315 1.514 . S
C314 O332 1.248 1_655 S
C314 O333 1.266 1_655 S
C315 C314 1.514 . S
C315 C316 1.359 . S
C315 C320 1.348 . S
C316 C315 1.359 . S
C316 C317 1.380 . S
C316 H344 0.929 . S
C317 C316 1.380 . S
C317 C318 1.347 . S
C317 H345 0.931 . S
C318 C317 1.347 . S
C318 C319 1.374 1_554 S
C319 C318 1.374 1_556 S
C319 C320 1.409 1_556 S
C319 H346 0.924 . S
C320 C315 1.348 . S
C320 C319 1.409 1_554 S
C320 H347 0.930 1_554 S
C321 O334 1.281 . S
C321 O335 1.252 1_554 S
C322 O336 1.236 . S
C322 O337 1.266 . S
C323 Tb313 2.809 . S
C323 C324 1.514 . S
C323 O338 1.248 . S
C323 O339 1.266 . S
C324 C323 1.514 . S
C324 C325 1.359 1_545 S
C324 C329 1.348 . S
C325 C324 1.359 1_565 S
C325 C326 1.380 . S
C325 H348 0.929 . S
C326 C325 1.380 . S
C326 C327 1.347 . S
C326 H349 0.931 . S
C327 C326 1.347 . S
C327 C328 1.369 . S
C328 C327 1.369 . S
C328 C329 1.408 1_565 S
C328 H350 0.930 . S
C329 C324 1.348 . S
C329 C328 1.408 1_545 S
C329 H351 0.930 . S
C330 O340 1.281 . S
C330 O341 1.254 . S
C331 O342 1.236 1_565 S
C331 O343 1.289 . S
O332 Tb312 2.484 . S
O332 C314 1.248 1_455 S
O333 Tb312 2.440 . S
O333 C314 1.266 1_455 S
O334 Tb312 2.658 . S
O334 Tb313 2.325 . S
O334 C321 1.281 . S
O335 Tb312 2.399 1_556 S
O335 C321 1.252 1_556 S
O336 Tb312 2.378 . S
O336 C322 1.236 . S
O337 Tb313 2.341 . S
O337 C322 1.266 . S
O338 Tb313 2.484 . S
O338 C323 1.248 . S
O339 Tb313 2.440 . S
O339 C323 1.266 . S
O340 Tb312 2.325 . S
O340 Tb313 2.658 . S
O340 C330 1.281 . S
O341 Tb313 2.409 . S
O341 C330 1.254 . S
O342 Tb313 2.378 . S
O342 C331 1.236 1_545 S
O343 Tb312 2.290 1_565 S
O343 C331 1.289 . S
H344 C316 0.929 . S
H345 C317 0.931 . S
H346 C319 0.924 . S
H347 C320 0.930 1_556 S
H348 C325 0.929 . S
H349 C326 0.931 . S
H350 C328 0.930 . S
H351 C329 0.930 . S
Tb352 C354 2.809 . S
Tb352 O372 2.484 . S
Tb352 O373 2.440 . S
Tb352 O374 2.658 . S
Tb352 O375 2.409 . S
Tb352 O376 2.378 . S
Tb352 O380 2.325 . S
Tb352 O383 2.341 . S
Tb353 C363 2.809 . S
Tb353 O374 2.325 . S
Tb353 O377 2.341 . S
Tb353 O378 2.484 . S
Tb353 O379 2.440 . S
Tb353 O380 2.658 . S
Tb353 O381 2.409 . S
Tb353 O382 2.378 . S
C354 Tb352 2.809 . S
C354 C355 1.514 . S
C354 O372 1.248 . S
C354 O373 1.266 . S
C355 C354 1.514 . S
C355 C356 1.359 . S
C355 C360 1.348 . S
C356 C355 1.359 . S
C356 C357 1.380 . S
C356 H384 0.929 . S
C357 C356 1.380 . S
C357 C358 1.347 . S
C357 H385 0.931 . S
C358 C357 1.347 . S
C358 C359 1.369 . S
C359 C358 1.369 . S
C359 C360 1.408 . S
C359 H386 0.930 . S
C360 C355 1.348 . S
C360 C359 1.408 . S
C360 H387 0.930 . S
C361 O374 1.281 . S
C361 O375 1.254 . S
C362 O376 1.236 . S
C362 O377 1.266 . S
C363 Tb353 2.809 . S
C363 C364 1.514 . S
C363 O378 1.248 . S
C363 O379 1.266 . S
C364 C363 1.514 . S
C364 C365 1.359 . S
C364 C369 1.348 . S
C365 C364 1.359 . S
C365 C366 1.380 . S
C365 H388 0.929 . S
C366 C365 1.380 . S
C366 C367 1.347 . S
C366 H389 0.931 . S
C367 C366 1.347 . S
C367 C368 1.369 . S
C368 C367 1.369 . S
C368 C369 1.408 . S
C368 H390 0.930 . S
C369 C364 1.348 . S
C369 C368 1.408 . S
C369 H391 0.930 . S
C370 O380 1.281 . S
C370 O381 1.254 . S
C371 O382 1.236 . S
C371 O383 1.266 . S
O372 Tb352 2.484 . S
O372 C354 1.248 . S
O373 Tb352 2.440 . S
O373 C354 1.266 . S
O374 Tb352 2.658 . S
O374 Tb353 2.325 . S
O374 C361 1.281 . S
O375 Tb352 2.409 . S
O375 C361 1.254 . S
O376 Tb352 2.378 . S
O376 C362 1.236 . S
O377 Tb353 2.341 . S
O377 C362 1.266 . S
O378 Tb353 2.484 . S
O378 C363 1.248 . S
O379 Tb353 2.440 . S
O379 C363 1.266 . S
O380 Tb352 2.325 . S
O380 Tb353 2.658 . S
O380 C370 1.281 . S
O381 Tb353 2.409 . S
O381 C370 1.254 . S
O382 Tb353 2.378 . S
O382 C371 1.236 . S
O383 Tb352 2.341 . S
O383 C371 1.266 . S
H384 C356 0.929 . S
H385 C357 0.931 . S
H386 C359 0.930 . S
H387 C360 0.930 . S
H388 C365 0.929 . S
H389 C366 0.931 . S
H390 C368 0.930 . S
H391 C369 0.930 . S
Tb392 C394 2.809 1_545 S
Tb392 O412 2.484 1_545 S
Tb392 O413 2.440 . S
Tb392 O414 2.658 . S
Tb392 O415 2.409 . S
Tb392 O416 2.378 1_545 S
Tb392 O420 2.325 . S
Tb392 O423 2.341 . S
Tb393 C403 2.809 . S
Tb393 O414 2.325 . S
Tb393 O417 2.341 1_545 S
Tb393 O418 2.484 . S
Tb393 O419 2.440 . S
Tb393 O420 2.658 . S
Tb393 O421 2.409 . S
Tb393 O422 2.378 . S
C394 Tb392 2.809 1_565 S
C394 C395 1.514 . S
C394 O412 1.248 . S
C394 O413 1.266 1_565 S
C395 C394 1.514 . S
C395 C396 1.359 . S
C395 C400 1.348 . S
C396 C395 1.359 . S
C396 C397 1.380 . S
C396 H424 0.929 . S
C397 C396 1.380 . S
C397 C398 1.347 . S
C397 H425 0.931 . S
C398 C397 1.347 . S
C398 C399 1.369 . S
C399 C398 1.369 . S
C399 C400 1.408 . S
C399 H426 0.930 . S
C400 C395 1.348 . S
C400 C399 1.408 . S
C400 H427 0.930 . S
C401 O414 1.281 . S
C401 O415 1.254 . S
C402 O416 1.236 . S
C402 O417 1.266 . S
C403 Tb393 2.809 . S
C403 C404 1.514 . S
C403 O418 1.248 . S
C403 O419 1.266 . S
C404 C403 1.514 . S
C404 C405 1.359 . S
C404 C409 1.348 . S
C405 C404 1.359 . S
C405 C406 1.380 . S
C405 H428 0.929 . S
C406 C405 1.380 . S
C406 C407 1.347 . S
C406 H429 0.931 . S
C407 C406 1.347 . S
C407 C408 1.369 . S
C408 C407 1.369 . S
C408 C409 1.408 . S
C408 H430 0.930 . S
C409 C404 1.348 . S
C409 C408 1.408 . S
C409 H431 0.930 . S
C410 O420 1.281 . S
C410 O421 1.254 . S
C411 O422 1.236 . S
C411 O423 1.266 . S
O412 Tb392 2.484 1_565 S
O412 C394 1.248 . S
O413 Tb392 2.440 . S
O413 C394 1.266 1_545 S
O414 Tb392 2.658 . S
O414 Tb393 2.325 . S
O414 C401 1.281 . S
O415 Tb392 2.409 . S
O415 C401 1.254 . S
O416 Tb392 2.378 1_565 S
O416 C402 1.236 . S
O417 Tb393 2.341 1_565 S
O417 C402 1.266 . S
O418 Tb393 2.484 . S
O418 C403 1.248 . S
O419 Tb393 2.440 . S
O419 C403 1.266 . S
O420 Tb392 2.325 . S
O420 Tb393 2.658 . S
O420 C410 1.281 . S
O421 Tb393 2.409 . S
O421 C410 1.254 . S
O422 Tb393 2.378 . S
O422 C411 1.236 . S
O423 Tb392 2.341 . S
O423 C411 1.266 . S
H424 C396 0.929 . S
H425 C397 0.931 . S
H426 C399 0.930 . S
H427 C400 0.930 . S
H428 C405 0.929 . S
H429 C406 0.931 . S
H430 C408 0.930 . S
H431 C409 0.930 . S
Tb432 C434 2.809 . S
Tb432 O452 2.484 . S
Tb432 O453 2.440 . S
Tb432 O454 2.658 . S
Tb432 O455 2.409 . S
Tb432 O456 2.378 . S
Tb432 O460 2.325 . S
Tb432 O463 2.341 . S
Tb433 C443 2.809 . S
Tb433 O454 2.325 . S
Tb433 O457 2.341 . S
Tb433 O458 2.484 . S
Tb433 O459 2.440 . S
Tb433 O460 2.658 . S
Tb433 O461 2.409 . S
Tb433 O462 2.378 . S
C434 Tb432 2.809 . S
C434 C435 1.514 . S
C434 O452 1.248 . S
C434 O453 1.266 . S
C435 C434 1.514 . S
C435 C436 1.359 . S
C435 C440 1.348 . S
C436 C435 1.359 . S
C436 C437 1.380 . S
C436 H464 0.929 . S
C437 C436 1.380 . S
C437 C438 1.347 . S
C437 H465 0.931 . S
C438 C437 1.347 . S
C438 C439 1.369 . S
C439 C438 1.369 . S
C439 C440 1.408 . S
C439 H466 0.930 . S
C440 C435 1.348 . S
C440 C439 1.408 . S
C440 H467 0.930 . S
C441 O454 1.281 . S
C441 O455 1.254 . S
C442 O456 1.236 . S
C442 O457 1.266 . S
C443 Tb433 2.809 . S
C443 C444 1.514 . S
C443 O458 1.248 . S
C443 O459 1.266 . S
C444 C443 1.514 . S
C444 C445 1.359 . S
C444 C449 1.348 . S
C445 C444 1.359 . S
C445 C446 1.380 . S
C445 H468 0.929 . S
C446 C445 1.380 . S
C446 C447 1.347 . S
C446 H469 0.931 . S
C447 C446 1.347 . S
C447 C448 1.369 . S
C448 C447 1.369 . S
C448 C449 1.408 . S
C448 H470 0.930 . S
C449 C444 1.348 . S
C449 C448 1.408 . S
C449 H471 0.930 . S
C450 O460 1.281 . S
C450 O461 1.254 . S
C451 O462 1.236 . S
C451 O463 1.266 . S
O452 Tb432 2.484 . S
O452 C434 1.248 . S
O453 Tb432 2.440 . S
O453 C434 1.266 . S
O454 Tb432 2.658 . S
O454 Tb433 2.325 . S
O454 C441 1.281 . S
O455 Tb432 2.409 . S
O455 C441 1.254 . S
O456 Tb432 2.378 . S
O456 C442 1.236 . S
O457 Tb433 2.341 . S
O457 C442 1.266 . S
O458 Tb433 2.484 . S
O458 C443 1.248 . S
O459 Tb433 2.440 . S
O459 C443 1.266 . S
O460 Tb432 2.325 . S
O460 Tb433 2.658 . S
O460 C450 1.281 . S
O461 Tb433 2.409 . S
O461 C450 1.254 . S
O462 Tb433 2.378 . S
O462 C451 1.236 . S
O463 Tb432 2.341 . S
O463 C451 1.266 . S
H464 C436 0.929 . S
H465 C437 0.931 . S
H466 C439 0.930 . S
H467 C440 0.930 . S
H468 C445 0.929 . S
H469 C446 0.931 . S
H470 C448 0.930 . S
H471 C449 0.930 . S
Tb472 C474 2.809 . S
Tb472 O492 2.484 . S
Tb472 O493 2.440 . S
Tb472 O494 2.672 . S
Tb472 O495 2.409 . S
Tb472 O496 2.378 . S
Tb472 O500 2.325 . S
Tb472 O503 2.341 . S
Tb473 C483 2.809 . S
Tb473 O494 2.318 1_565 S
Tb473 O497 2.341 . S
Tb473 O498 2.484 . S
Tb473 O499 2.440 . S
Tb473 O500 2.658 1_565 S
Tb473 O501 2.409 1_565 S
Tb473 O502 2.378 1_565 S
C474 Tb472 2.809 . S
C474 C475 1.514 . S
C474 O492 1.248 . S
C474 O493 1.266 . S
C475 C474 1.514 . S
C475 C476 1.359 . S
C475 C480 1.348 . S
C476 C475 1.359 . S
C476 C477 1.380 . S
C476 H504 0.929 . S
C477 C476 1.380 . S
C477 C478 1.347 . S
C477 H505 0.931 . S
C478 C477 1.347 . S
C478 C479 1.369 . S
C479 C478 1.369 . S
C479 C480 1.408 . S
C479 H506 0.930 1_455 S
C480 C475 1.348 . S
C480 C479 1.408 . S
C480 H507 0.930 . S
C481 O494 1.285 . S
C481 O495 1.254 . S
C482 O496 1.236 . S
C482 O497 1.266 1_545 S
C483 Tb473 2.809 . S
C483 C484 1.514 . S
C483 O498 1.248 . S
C483 O499 1.266 . S
C484 C483 1.514 . S
C484 C485 1.359 . S
C484 C489 1.348 . S
C485 C484 1.359 . S
C485 C486 1.380 . S
C485 H508 0.929 . S
C486 C485 1.380 . S
C486 C487 1.347 . S
C486 H509 0.931 . S
C487 C486 1.347 . S
C487 C488 1.369 . S
C488 C487 1.369 . S
C488 C489 1.408 . S
C488 H510 0.930 . S
C489 C484 1.348 . S
C489 C488 1.408 . S
C489 H511 0.930 . S
C490 O500 1.281 . S
C490 O501 1.254 . S
C491 O502 1.236 . S
C491 O503 1.266 . S
O492 Tb472 2.484 . S
O492 C474 1.248 . S
O493 Tb472 2.440 . S
O493 C474 1.266 . S
O494 Tb472 2.672 . S
O494 Tb473 2.318 1_545 S
O494 C481 1.285 . S
O495 Tb472 2.409 . S
O495 C481 1.254 . S
O496 Tb472 2.378 . S
O496 C482 1.236 . S
O497 Tb473 2.341 . S
O497 C482 1.266 1_565 S
O498 Tb473 2.484 . S
O498 C483 1.248 . S
O499 Tb473 2.440 . S
O499 C483 1.266 . S
O500 Tb472 2.325 . S
O500 Tb473 2.658 1_545 S
O500 C490 1.281 . S
O501 Tb473 2.409 1_545 S
O501 C490 1.254 . S
O502 Tb473 2.378 1_545 S
O502 C491 1.236 . S
O503 Tb472 2.341 . S
O503 C491 1.266 . S
H504 C476 0.929 . S
H505 C477 0.931 . S
H506 C479 0.930 1_655 S
H507 C480 0.930 . S
H508 C485 0.929 . S
H509 C486 0.931 . S
H510 C488 0.930 . S
H511 C489 0.930 . S
Tb512 C514 2.809 . S
Tb512 O532 2.484 . S
Tb512 O533 2.440 . S
Tb512 O534 2.658 . S
Tb512 O535 2.409 . S
Tb512 O536 2.378 . S
Tb512 O540 2.325 . S
Tb512 O543 2.341 . S
Tb513 C523 2.809 . S
Tb513 O534 2.325 . S
Tb513 O537 2.341 . S
Tb513 O538 2.484 . S
Tb513 O539 2.440 . S
Tb513 O540 2.658 . S
Tb513 O541 2.409 . S
Tb513 O542 2.378 . S
C514 Tb512 2.809 . S
C514 C515 1.514 . S
C514 O532 1.248 . S
C514 O533 1.266 . S
C515 C514 1.514 . S
C515 C516 1.359 . S
C515 C520 1.348 . S
C516 C515 1.359 . S
C516 C517 1.380 . S
C516 H544 0.929 . S
C517 C516 1.380 . S
C517 C518 1.347 . S
C517 H545 0.931 . S
C518 C517 1.347 . S
C518 C519 1.369 . S
C519 C518 1.369 . S
C519 C520 1.408 . S
C519 H546 0.930 . S
C520 C515 1.348 . S
C520 C519 1.408 . S
C520 H547 0.930 . S
C521 O534 1.281 . S
C521 O535 1.254 . S
C522 O536 1.236 . S
C522 O537 1.266 . S
C523 Tb513 2.809 . S
C523 C524 1.514 . S
C523 O538 1.248 . S
C523 O539 1.266 . S
C524 C523 1.514 . S
C524 C525 1.359 . S
C524 C529 1.348 . S
C525 C524 1.359 . S
C525 C526 1.380 . S
C525 H548 0.929 . S
C526 C525 1.380 . S
C526 C527 1.347 . S
C526 H549 0.931 . S
C527 C526 1.347 . S
C527 C528 1.369 . S
C528 C527 1.369 . S
C528 C529 1.408 . S
C528 H550 0.930 . S
C529 C524 1.348 . S
C529 C528 1.408 . S
C529 H551 0.930 . S
C530 O540 1.281 . S
C530 O541 1.254 . S
C531 O542 1.236 . S
C531 O543 1.266 . S
O532 Tb512 2.484 . S
O532 C514 1.248 . S
O533 Tb512 2.440 . S
O533 C514 1.266 . S
O534 Tb512 2.658 . S
O534 Tb513 2.325 . S
O534 C521 1.281 . S
O535 Tb512 2.409 . S
O535 C521 1.254 . S
O536 Tb512 2.378 . S
O536 C522 1.236 . S
O537 Tb513 2.341 . S
O537 C522 1.266 . S
O538 Tb513 2.484 . S
O538 C523 1.248 . S
O539 Tb513 2.440 . S
O539 C523 1.266 . S
O540 Tb512 2.325 . S
O540 Tb513 2.658 . S
O540 C530 1.281 . S
O541 Tb513 2.409 . S
O541 C530 1.254 . S
O542 Tb513 2.378 . S
O542 C531 1.236 . S
O543 Tb512 2.341 . S
O543 C531 1.266 . S
H544 C516 0.929 . S
H545 C517 0.931 . S
H546 C519 0.930 . S
H547 C520 0.930 . S
H548 C525 0.929 . S
H549 C526 0.931 . S
H550 C528 0.930 . S
H551 C529 0.930 . S
Tb552 C554 2.809 . S
Tb552 O572 2.484 . S
Tb552 O573 2.440 . S
Tb552 O574 2.658 1_556 S
Tb552 O575 2.409 1_556 S
Tb552 O576 2.378 1_556 S
Tb552 O580 2.325 1_556 S
Tb552 O583 2.341 . S
Tb553 C563 2.809 . S
Tb553 O574 2.325 . S
Tb553 O577 2.341 . S
Tb553 O578 2.484 . S
Tb553 O579 2.440 . S
Tb553 O580 2.658 . S
Tb553 O581 2.409 1_545 S
Tb553 O582 2.378 1_554 S
C554 Tb552 2.809 . S
C554 C555 1.514 . S
C554 O572 1.248 . S
C554 O573 1.266 . S
C555 C554 1.514 . S
C555 C556 1.359 1_545 S
C555 C560 1.348 . S
C556 C555 1.359 1_565 S
C556 C557 1.380 . S
C556 H584 0.929 . S
C557 C556 1.380 . S
C557 C558 1.347 . S
C557 H585 0.931 . S
C558 C557 1.347 . S
C558 C559 1.364 1_565 S
C559 C558 1.364 1_545 S
C559 C560 1.418 . S
C559 H586 0.928 1_556 S
C560 C555 1.348 . S
C560 C559 1.418 . S
C560 H587 0.930 . S
C561 O574 1.281 . S
C561 O575 1.254 . S
C562 O576 1.236 . S
C562 O577 1.266 . S
C563 Tb553 2.809 . S
C563 C564 1.514 . S
C563 O578 1.248 . S
C563 O579 1.266 . S
C564 C563 1.514 . S
C564 C565 1.359 . S
C564 C569 1.348 . S
C565 C564 1.359 . S
C565 C566 1.380 . S
C565 H588 0.929 . S
C566 C565 1.380 . S
C566 C567 1.347 . S
C566 H589 0.931 . S
C567 C566 1.347 . S
C567 C568 1.369 . S
C568 C567 1.369 . S
C568 C569 1.408 . S
C568 H590 0.930 . S
C569 C564 1.348 . S
C569 C568 1.408 . S
C569 H591 0.930 . S
C570 O580 1.281 1_566 S
C570 O581 1.254 1_556 S
C571 O582 1.236 . S
C571 O583 1.266 . S
O572 Tb552 2.484 . S
O572 C554 1.248 . S
O573 Tb552 2.440 . S
O573 C554 1.266 . S
O574 Tb552 2.658 1_554 S
O574 Tb553 2.325 . S
O574 C561 1.281 . S
O575 Tb552 2.409 1_554 S
O575 C561 1.254 . S
O576 Tb552 2.378 1_554 S
O576 C562 1.236 . S
O577 Tb553 2.341 . S
O577 C562 1.266 . S
O578 Tb553 2.484 . S
O578 C563 1.248 . S
O579 Tb553 2.440 . S
O579 C563 1.266 . S
O580 Tb552 2.325 1_554 S
O580 Tb553 2.658 . S
O580 C570 1.281 1_544 S
O581 Tb553 2.409 1_565 S
O581 C570 1.254 1_554 S
O582 Tb553 2.378 1_556 S
O582 C571 1.236 . S
O583 Tb552 2.341 . S
O583 C571 1.266 . S
H584 C556 0.929 . S
H585 C557 0.931 . S
H586 C559 0.928 1_554 S
H587 C560 0.930 . S
H588 C565 0.929 . S
H589 C566 0.931 . S
H590 C568 0.930 . S
H591 C569 0.930 . S
Tb592 C594 2.809 . S
Tb592 O612 2.484 . S
Tb592 O613 2.440 . S
Tb592 O614 2.658 . S
Tb592 O615 2.409 . S
Tb592 O616 2.378 . S
Tb592 O620 2.325 . S
Tb592 O623 2.341 . S
Tb593 C603 2.809 . S
Tb593 O614 2.325 . S
Tb593 O617 2.341 . S
Tb593 O618 2.484 . S
Tb593 O619 2.440 . S
Tb593 O620 2.658 . S
Tb593 O621 2.409 . S
Tb593 O622 2.378 . S
C594 Tb592 2.809 . S
C594 C595 1.514 . S
C594 O612 1.248 . S
C594 O613 1.266 . S
C595 C594 1.514 . S
C595 C596 1.359 . S
C595 C600 1.348 . S
C596 C595 1.359 . S
C596 C597 1.380 . S
C596 H624 0.929 . S
C597 C596 1.380 . S
C597 C598 1.347 . S
C597 H625 0.931 . S
C598 C597 1.347 . S
C598 C599 1.369 . S
C599 C598 1.369 . S
C599 C600 1.408 . S
C599 H626 0.930 . S
C600 C595 1.348 . S
C600 C599 1.408 . S
C600 H627 0.930 . S
C601 O614 1.281 . S
C601 O615 1.254 . S
C602 O616 1.236 . S
C602 O617 1.266 . S
C603 Tb593 2.809 . S
C603 C604 1.514 . S
C603 O618 1.248 . S
C603 O619 1.266 . S
C604 C603 1.514 . S
C604 C605 1.359 . S
C604 C609 1.348 . S
C605 C604 1.359 . S
C605 C606 1.380 . S
C605 H628 0.929 . S
C606 C605 1.380 . S
C606 C607 1.347 . S
C606 H629 0.931 . S
C607 C606 1.347 . S
C607 C608 1.369 . S
C608 C607 1.369 . S
C608 C609 1.408 . S
C608 H630 0.930 . S
C609 C604 1.348 . S
C609 C608 1.408 . S
C609 H631 0.930 . S
C610 O620 1.281 . S
C610 O621 1.254 . S
C611 O622 1.236 . S
C611 O623 1.266 . S
O612 Tb592 2.484 . S
O612 C594 1.248 . S
O613 Tb592 2.440 . S
O613 C594 1.266 . S
O614 Tb592 2.658 . S
O614 Tb593 2.325 . S
O614 C601 1.281 . S
O615 Tb592 2.409 . S
O615 C601 1.254 . S
O616 Tb592 2.378 . S
O616 C602 1.236 . S
O617 Tb593 2.341 . S
O617 C602 1.266 . S
O618 Tb593 2.484 . S
O618 C603 1.248 . S
O619 Tb593 2.440 . S
O619 C603 1.266 . S
O620 Tb592 2.325 . S
O620 Tb593 2.658 . S
O620 C610 1.281 . S
O621 Tb593 2.409 . S
O621 C610 1.254 . S
O622 Tb593 2.378 . S
O622 C611 1.236 . S
O623 Tb592 2.341 . S
O623 C611 1.266 . S
H624 C596 0.929 . S
H625 C597 0.931 . S
H626 C599 0.930 . S
H627 C600 0.930 . S
H628 C605 0.929 . S
H629 C606 0.931 . S
H630 C608 0.930 . S
H631 C609 0.930 . S
Tb632 C634 2.809 1_554 S
Tb632 O652 2.438 1_554 S
Tb632 O653 2.440 . S
Tb632 O654 2.658 . S
Tb632 O655 2.409 . S
Tb632 O656 2.378 1_554 S
Tb632 O660 2.325 . S
Tb632 O663 2.341 . S
Tb633 C643 2.809 . S
Tb633 O654 2.325 . S
Tb633 O657 2.341 1_554 S
Tb633 O658 2.484 . S
Tb633 O659 2.440 . S
Tb633 O660 2.658 . S
Tb633 O661 2.409 . S
Tb633 O662 2.378 . S
C634 Tb632 2.809 1_556 S
C634 C635 1.514 . S
C634 O652 1.246 . S
C634 O653 1.266 1_556 S
C635 C634 1.514 . S
C635 C636 1.359 . S
C635 C640 1.348 . S
C636 C635 1.359 . S
C636 C637 1.380 . S
C636 H664 0.929 . S
C637 C636 1.380 . S
C637 C638 1.347 . S
C637 H665 0.931 . S
C638 C637 1.347 . S
C638 C639 1.369 . S
C639 C638 1.369 . S
C639 C640 1.408 . S
C639 H666 0.930 . S
C640 C635 1.348 . S
C640 C639 1.408 . S
C640 H667 0.930 . S
C641 O654 1.281 . S
C641 O655 1.254 . S
C642 O656 1.236 . S
C642 O657 1.266 . S
C643 Tb633 2.809 . S
C643 C644 1.514 . S
C643 O658 1.248 . S
C643 O659 1.266 . S
C644 C643 1.514 . S
C644 C645 1.359 . S
C644 C649 1.348 . S
C645 C644 1.359 . S
C645 C646 1.380 . S
C645 H668 0.929 . S
C646 C645 1.380 . S
C646 C647 1.347 . S
C646 H669 0.931 . S
C647 C646 1.347 . S
C647 C648 1.369 . S
C648 C647 1.369 . S
C648 C649 1.408 . S
C648 H670 0.930 . S
C649 C644 1.348 . S
C649 C648 1.408 . S
C649 H671 0.930 . S
C650 O660 1.281 . S
C650 O661 1.254 . S
C651 O662 1.236 . S
C651 O663 1.266 . S
O652 Tb632 2.438 1_556 S
O652 C634 1.246 . S
O653 Tb632 2.440 . S
O653 C634 1.266 1_554 S
O654 Tb632 2.658 . S
O654 Tb633 2.325 . S
O654 C641 1.281 . S
O655 Tb632 2.409 . S
O655 C641 1.254 . S
O656 Tb632 2.378 1_556 S
O656 C642 1.236 . S
O657 Tb633 2.341 1_556 S
O657 C642 1.266 . S
O658 Tb633 2.484 . S
O658 C643 1.248 . S
O659 Tb633 2.440 . S
O659 C643 1.266 . S
O660 Tb632 2.325 . S
O660 Tb633 2.658 . S
O660 C650 1.281 . S
O661 Tb633 2.409 . S
O661 C650 1.254 . S
O662 Tb633 2.378 . S
O662 C651 1.236 . S
O663 Tb632 2.341 . S
O663 C651 1.266 . S
H664 C636 0.929 . S
H665 C637 0.931 . S
H666 C639 0.930 . S
H667 C640 0.930 . S
H668 C645 0.929 . S
H669 C646 0.931 . S
H670 C648 0.930 . S
H671 C649 0.930 . S
Tb672 C674 2.809 . S
Tb672 O692 2.484 . S
Tb672 O693 2.440 . S
Tb672 O694 2.658 . S
Tb672 O695 2.409 . S
Tb672 O696 2.378 . S
Tb672 O700 2.325 . S
Tb672 O703 2.341 . S
Tb673 C683 2.809 . S
Tb673 O694 2.325 . S
Tb673 O697 2.341 . S
Tb673 O698 2.484 . S
Tb673 O699 2.440 . S
Tb673 O700 2.658 . S
Tb673 O701 2.409 . S
Tb673 O702 2.378 . S
C674 Tb672 2.809 . S
C674 C675 1.514 . S
C674 O692 1.248 . S
C674 O693 1.266 . S
C675 C674 1.514 . S
C675 C676 1.359 . S
C675 C680 1.348 . S
C676 C675 1.359 . S
C676 C677 1.380 . S
C676 H704 0.929 . S
C677 C676 1.380 . S
C677 C678 1.347 . S
C677 H705 0.931 . S
C678 C677 1.347 . S
C678 C679 1.369 . S
C679 C678 1.369 . S
C679 C680 1.408 . S
C679 H706 0.930 . S
C680 C675 1.348 . S
C680 C679 1.408 . S
C680 H707 0.930 . S
C681 O694 1.281 . S
C681 O695 1.254 . S
C682 O696 1.236 . S
C682 O697 1.266 . S
C683 Tb673 2.809 . S
C683 C684 1.514 . S
C683 O698 1.248 . S
C683 O699 1.266 . S
C684 C683 1.514 . S
C684 C685 1.359 . S
C684 C689 1.348 . S
C685 C684 1.359 . S
C685 C686 1.380 . S
C685 H708 0.929 . S
C686 C685 1.380 . S
C686 C687 1.347 . S
C686 H709 0.931 . S
C687 C686 1.347 . S
C687 C688 1.369 . S
C688 C687 1.369 . S
C688 C689 1.408 . S
C688 H710 0.930 . S
C689 C684 1.348 . S
C689 C688 1.408 . S
C689 H711 0.930 . S
C690 O700 1.281 . S
C690 O701 1.254 . S
C691 O702 1.236 . S
C691 O703 1.266 . S
O692 Tb672 2.484 . S
O692 C674 1.248 . S
O693 Tb672 2.440 . S
O693 C674 1.266 . S
O694 Tb672 2.658 . S
O694 Tb673 2.325 . S
O694 C681 1.281 . S
O695 Tb672 2.409 . S
O695 C681 1.254 . S
O696 Tb672 2.378 . S
O696 C682 1.236 . S
O697 Tb673 2.341 . S
O697 C682 1.266 . S
O698 Tb673 2.484 . S
O698 C683 1.248 . S
O699 Tb673 2.440 . S
O699 C683 1.266 . S
O700 Tb672 2.325 . S
O700 Tb673 2.658 . S
O700 C690 1.281 . S
O701 Tb673 2.409 . S
O701 C690 1.254 . S
O702 Tb673 2.378 . S
O702 C691 1.236 . S
O703 Tb672 2.341 . S
O703 C691 1.266 . S
H704 C676 0.929 . S
H705 C677 0.931 . S
H706 C679 0.930 . S
H707 C680 0.930 . S
H708 C685 0.929 . S
H709 C686 0.931 . S
H710 C688 0.930 . S
H711 C689 0.930 . S
Tb712 C714 2.809 . S
Tb712 O732 2.484 . S
Tb712 O733 2.440 . S
Tb712 O734 2.658 1_655 S
Tb712 O735 2.409 1_655 S
Tb712 O736 2.378 . S
Tb712 O740 2.325 1_655 S
Tb712 O743 2.341 1_655 S
Tb713 C723 2.809 . S
Tb713 O734 2.325 . S
Tb713 O737 2.341 . S
Tb713 O738 2.484 . S
Tb713 O739 2.440 . S
Tb713 O740 2.658 . S
Tb713 O741 2.409 . S
Tb713 O742 2.378 . S
C714 Tb712 2.809 . S
C714 C715 1.514 . S
C714 O732 1.248 . S
C714 O733 1.266 . S
C715 C714 1.514 . S
C715 C716 1.359 . S
C715 C720 1.348 . S
C716 C715 1.359 . S
C716 C717 1.380 . S
C716 H744 0.929 . S
C717 C716 1.380 . S
C717 C718 1.347 . S
C717 H745 0.931 . S
C718 C717 1.347 . S
C718 C719 1.369 . S
C719 C718 1.369 . S
C719 C720 1.408 . S
C719 H746 0.930 . S
C720 C715 1.348 . S
C720 C719 1.408 . S
C720 H747 0.930 . S
C721 O734 1.281 . S
C721 O735 1.254 . S
C722 O736 1.236 1_455 S
C722 O737 1.266 . S
C723 Tb713 2.809 . S
C723 C724 1.514 . S
C723 O738 1.248 . S
C723 O739 1.266 . S
C724 C723 1.514 . S
C724 C725 1.359 . S
C724 C729 1.348 . S
C725 C724 1.359 . S
C725 C726 1.380 . S
C725 H748 0.929 . S
C726 C725 1.380 . S
C726 C727 1.347 . S
C726 H749 0.931 . S
C727 C726 1.347 . S
C727 C728 1.369 . S
C728 C727 1.369 . S
C728 C729 1.408 . S
C728 H750 0.930 . S
C729 C724 1.348 . S
C729 C728 1.408 . S
C729 H751 0.930 . S
C730 O740 1.281 . S
C730 O741 1.254 . S
C731 O742 1.236 . S
C731 O743 1.266 . S
O732 Tb712 2.484 . S
O732 C714 1.248 . S
O733 Tb712 2.440 . S
O733 C714 1.266 . S
O734 Tb712 2.658 1_455 S
O734 Tb713 2.325 . S
O734 C721 1.281 . S
O735 Tb712 2.409 1_455 S
O735 C721 1.254 . S
O736 Tb712 2.378 . S
O736 C722 1.236 1_655 S
O737 Tb713 2.341 . S
O737 C722 1.266 . S
O738 Tb713 2.484 . S
O738 C723 1.248 . S
O739 Tb713 2.440 . S
O739 C723 1.266 . S
O740 Tb712 2.325 1_455 S
O740 Tb713 2.658 . S
O740 C730 1.281 . S
O741 Tb713 2.409 . S
O741 C730 1.254 . S
O742 Tb713 2.378 . S
O742 C731 1.236 . S
O743 Tb712 2.341 1_455 S
O743 C731 1.266 . S
H744 C716 0.929 . S
H745 C717 0.931 . S
H746 C719 0.930 . S
H747 C720 0.930 . S
H748 C725 0.929 . S
H749 C726 0.931 . S
H750 C728 0.930 . S
H751 C729 0.930 . S
Tb752 C754 2.809 . S
Tb752 O772 2.484 . S
Tb752 O773 2.440 . S
Tb752 O774 2.658 . S
Tb752 O775 2.409 . S
Tb752 O776 2.378 . S
Tb752 O780 2.325 . S
Tb752 O783 2.341 . S
Tb753 C763 2.809 . S
Tb753 O774 2.325 . S
Tb753 O777 2.341 . S
Tb753 O778 2.484 . S
Tb753 O779 2.440 . S
Tb753 O780 2.658 . S
Tb753 O781 2.409 . S
Tb753 O782 2.378 . S
C754 Tb752 2.809 . S
C754 C755 1.514 . S
C754 O772 1.248 . S
C754 O773 1.266 . S
C755 C754 1.514 . S
C755 C756 1.359 . S
C755 C760 1.348 . S
C756 C755 1.359 . S
C756 C757 1.380 . S
C756 H784 0.929 . S
C757 C756 1.380 . S
C757 C758 1.347 . S
C757 H785 0.931 . S
C758 C757 1.347 . S
C758 C759 1.369 . S
C759 C758 1.369 . S
C759 C760 1.408 . S
C759 H786 0.930 . S
C760 C755 1.348 . S
C760 C759 1.408 . S
C760 H787 0.930 . S
C761 O774 1.281 . S
C761 O775 1.254 . S
C762 O776 1.236 . S
C762 O777 1.266 . S
C763 Tb753 2.809 . S
C763 C764 1.514 . S
C763 O778 1.248 . S
C763 O779 1.266 . S
C764 C763 1.514 . S
C764 C765 1.359 . S
C764 C769 1.348 . S
C765 C764 1.359 . S
C765 C766 1.380 . S
C765 H788 0.929 . S
C766 C765 1.380 . S
C766 C767 1.347 . S
C766 H789 0.931 . S
C767 C766 1.347 . S
C767 C768 1.369 . S
C768 C767 1.369 . S
C768 C769 1.408 . S
C768 H790 0.930 . S
C769 C764 1.348 . S
C769 C768 1.408 . S
C769 H791 0.930 . S
C770 O780 1.281 . S
C770 O781 1.254 . S
C771 O782 1.236 . S
C771 O783 1.266 . S
O772 Tb752 2.484 . S
O772 C754 1.248 . S
O773 Tb752 2.440 . S
O773 C754 1.266 . S
O774 Tb752 2.658 . S
O774 Tb753 2.325 . S
O774 C761 1.281 . S
O775 Tb752 2.409 . S
O775 C761 1.254 . S
O776 Tb752 2.378 . S
O776 C762 1.236 . S
O777 Tb753 2.341 . S
O777 C762 1.266 . S
O778 Tb753 2.484 . S
O778 C763 1.248 . S
O779 Tb753 2.440 . S
O779 C763 1.266 . S
O780 Tb752 2.325 . S
O780 Tb753 2.658 . S
O780 C770 1.281 . S
O781 Tb753 2.409 . S
O781 C770 1.254 . S
O782 Tb753 2.378 . S
O782 C771 1.236 . S
O783 Tb752 2.341 . S
O783 C771 1.266 . S
H784 C756 0.929 . S
H785 C757 0.931 . S
H786 C759 0.930 . S
H787 C760 0.930 . S
H788 C765 0.929 . S
H789 C766 0.931 . S
H790 C768 0.930 . S
H791 C769 0.930 . S
Tb792 C794 2.809 . S
Tb792 O812 2.484 . S
Tb792 O813 2.440 . S
Tb792 O814 2.658 . S
Tb792 O815 2.409 . S
Tb792 O816 2.378 . S
Tb792 O820 2.325 . S
Tb792 O823 2.341 . S
Tb793 C803 2.809 . S
Tb793 O814 2.325 . S
Tb793 O817 2.341 . S
Tb793 O818 2.484 . S
Tb793 O819 2.440 . S
Tb793 O820 2.658 . S
Tb793 O821 2.409 . S
Tb793 O822 2.378 . S
C794 Tb792 2.809 . S
C794 C795 1.514 . S
C794 O812 1.248 . S
C794 O813 1.266 . S
C795 C794 1.514 . S
C795 C796 1.359 . S
C795 C800 1.348 . S
C796 C795 1.359 . S
C796 C797 1.380 . S
C796 H824 0.929 . S
C797 C796 1.380 . S
C797 C798 1.347 . S
C797 H825 0.931 . S
C798 C797 1.347 . S
C798 C799 1.369 . S
C799 C798 1.369 . S
C799 C800 1.408 . S
C799 H826 0.930 . S
C800 C795 1.348 . S
C800 C799 1.408 . S
C800 H827 0.930 . S
C801 O814 1.281 . S
C801 O815 1.254 . S
C802 O816 1.236 . S
C802 O817 1.266 . S
C803 Tb793 2.809 . S
C803 C804 1.514 . S
C803 O818 1.248 . S
C803 O819 1.266 . S
C804 C803 1.514 . S
C804 C805 1.359 . S
C804 C809 1.348 . S
C805 C804 1.359 . S
C805 C806 1.380 . S
C805 H828 0.929 . S
C806 C805 1.380 . S
C806 C807 1.347 . S
C806 H829 0.931 . S
C807 C806 1.347 . S
C807 C808 1.369 . S
C808 C807 1.369 . S
C808 C809 1.408 . S
C808 H830 0.930 . S
C809 C804 1.348 . S
C809 C808 1.408 . S
C809 H831 0.930 . S
C810 O820 1.281 . S
C810 O821 1.254 . S
C811 O822 1.236 . S
C811 O823 1.266 . S
O812 Tb792 2.484 . S
O812 C794 1.248 . S
O813 Tb792 2.440 . S
O813 C794 1.266 . S
O814 Tb792 2.658 . S
O814 Tb793 2.325 . S
O814 C801 1.281 . S
O815 Tb792 2.409 . S
O815 C801 1.254 . S
O816 Tb792 2.378 . S
O816 C802 1.236 . S
O817 Tb793 2.341 . S
O817 C802 1.266 . S
O818 Tb793 2.484 . S
O818 C803 1.248 . S
O819 Tb793 2.440 . S
O819 C803 1.266 . S
O820 Tb792 2.325 . S
O820 Tb793 2.658 . S
O820 C810 1.281 . S
O821 Tb793 2.409 . S
O821 C810 1.254 . S
O822 Tb793 2.378 . S
O822 C811 1.236 . S
O823 Tb792 2.341 . S
O823 C811 1.266 . S
H824 C796 0.929 . S
H825 C797 0.931 . S
H826 C799 0.930 . S
H827 C800 0.930 . S
H828 C805 0.929 . S
H829 C806 0.931 . S
H830 C808 0.930 . S
H831 C809 0.930 . S
Tb832 C834 2.809 . S
Tb832 O852 2.484 . S
Tb832 O853 2.440 . S
Tb832 O854 2.658 . S
Tb832 O855 2.409 . S
Tb832 O856 2.378 . S
Tb832 O860 2.325 . S
Tb832 O863 2.341 . S
Tb833 C843 2.809 . S
Tb833 O854 2.325 . S
Tb833 O857 2.341 . S
Tb833 O858 2.484 . S
Tb833 O859 2.440 . S
Tb833 O860 2.658 . S
Tb833 O861 2.409 . S
Tb833 O862 2.378 . S
C834 Tb832 2.809 . S
C834 C835 1.514 . S
C834 O852 1.248 . S
C834 O853 1.266 . S
C835 C834 1.514 . S
C835 C836 1.359 . S
C835 C840 1.348 . S
C836 C835 1.359 . S
C836 C837 1.380 . S
C836 H864 0.929 . S
C837 C836 1.380 . S
C837 C838 1.347 . S
C837 H865 0.931 . S
C838 C837 1.347 . S
C838 C839 1.369 . S
C839 C838 1.369 . S
C839 C840 1.408 . S
C839 H866 0.930 . S
C840 C835 1.348 . S
C840 C839 1.408 . S
C840 H867 0.930 . S
C841 O854 1.281 . S
C841 O855 1.254 . S
C842 O856 1.236 . S
C842 O857 1.266 . S
C843 Tb833 2.809 . S
C843 C844 1.514 . S
C843 O858 1.248 . S
C843 O859 1.266 . S
C844 C843 1.514 . S
C844 C845 1.359 . S
C844 C849 1.348 . S
C845 C844 1.359 . S
C845 C846 1.380 . S
C845 H868 0.929 . S
C846 C845 1.380 . S
C846 C847 1.347 . S
C846 H869 0.931 . S
C847 C846 1.347 . S
C847 C848 1.369 . S
C848 C847 1.369 . S
C848 C849 1.408 . S
C848 H870 0.930 . S
C849 C844 1.348 . S
C849 C848 1.408 . S
C849 H871 0.930 . S
C850 O860 1.281 . S
C850 O861 1.254 . S
C851 O862 1.236 . S
C851 O863 1.266 . S
O852 Tb832 2.484 . S
O852 C834 1.248 . S
O853 Tb832 2.440 . S
O853 C834 1.266 . S
O854 Tb832 2.658 . S
O854 Tb833 2.325 . S
O854 C841 1.281 . S
O855 Tb832 2.409 . S
O855 C841 1.254 . S
O856 Tb832 2.378 . S
O856 C842 1.236 . S
O857 Tb833 2.341 . S
O857 C842 1.266 . S
O858 Tb833 2.484 . S
O858 C843 1.248 . S
O859 Tb833 2.440 . S
O859 C843 1.266 . S
O860 Tb832 2.325 . S
O860 Tb833 2.658 . S
O860 C850 1.281 . S
O861 Tb833 2.409 . S
O861 C850 1.254 . S
O862 Tb833 2.378 . S
O862 C851 1.236 . S
O863 Tb832 2.341 . S
O863 C851 1.266 . S
H864 C836 0.929 . S
H865 C837 0.931 . S
H866 C839 0.930 . S
H867 C840 0.930 . S
H868 C845 0.929 . S
H869 C846 0.931 . S
H870 C848 0.930 . S
H871 C849 0.930 . S
Tb872 C874 2.809 . S
Tb872 O892 2.484 . S
Tb872 O893 2.440 . S
Tb872 O894 2.658 . S
Tb872 O895 2.409 . S
Tb872 O896 2.378 . S
Tb872 O900 2.325 . S
Tb872 O903 2.341 . S
Tb873 C883 2.809 . S
Tb873 O894 2.325 . S
Tb873 O897 2.341 . S
Tb873 O898 2.484 . S
Tb873 O899 2.440 . S
Tb873 O900 2.658 . S
Tb873 O901 2.409 . S
Tb873 O902 2.378 . S
C874 Tb872 2.809 . S
C874 C875 1.514 . S
C874 O892 1.248 . S
C874 O893 1.266 . S
C875 C874 1.514 . S
C875 C876 1.359 . S
C875 C880 1.348 . S
C876 C875 1.359 . S
C876 C877 1.380 . S
C876 H904 0.929 . S
C877 C876 1.380 . S
C877 C878 1.347 . S
C877 H905 0.931 . S
C878 C877 1.347 . S
C878 C879 1.369 . S
C879 C878 1.369 . S
C879 C880 1.408 . S
C879 H906 0.930 . S
C880 C875 1.348 . S
C880 C879 1.408 . S
C880 H907 0.930 . S
C881 O894 1.281 . S
C881 O895 1.254 . S
C882 O896 1.236 . S
C882 O897 1.266 . S
C883 Tb873 2.809 . S
C883 C884 1.514 . S
C883 O898 1.248 . S
C883 O899 1.266 . S
C884 C883 1.514 . S
C884 C885 1.359 . S
C884 C889 1.348 . S
C885 C884 1.359 . S
C885 C886 1.380 . S
C885 H908 0.929 . S
C886 C885 1.380 . S
C886 C887 1.347 . S
C886 H909 0.931 . S
C887 C886 1.347 . S
C887 C888 1.369 . S
C888 C887 1.369 . S
C888 C889 1.408 . S
C888 H910 0.930 . S
C889 C884 1.348 . S
C889 C888 1.408 . S
C889 H911 0.930 . S
C890 O900 1.281 . S
C890 O901 1.254 . S
C891 O902 1.236 . S
C891 O903 1.266 . S
O892 Tb872 2.484 . S
O892 C874 1.248 . S
O893 Tb872 2.440 . S
O893 C874 1.266 . S
O894 Tb872 2.658 . S
O894 Tb873 2.325 . S
O894 C881 1.281 . S
O895 Tb872 2.409 . S
O895 C881 1.254 . S
O896 Tb872 2.378 . S
O896 C882 1.236 . S
O897 Tb873 2.341 . S
O897 C882 1.266 . S
O898 Tb873 2.484 . S
O898 C883 1.248 . S
O899 Tb873 2.440 . S
O899 C883 1.266 . S
O900 Tb872 2.325 . S
O900 Tb873 2.658 . S
O900 C890 1.281 . S
O901 Tb873 2.409 . S
O901 C890 1.254 . S
O902 Tb873 2.378 . S
O902 C891 1.236 . S
O903 Tb872 2.341 . S
O903 C891 1.266 . S
H904 C876 0.929 . S
H905 C877 0.931 . S
H906 C879 0.930 . S
H907 C880 0.930 . S
H908 C885 0.929 . S
H909 C886 0.931 . S
H910 C888 0.930 . S
H911 C889 0.930 . S
Tb912 C914 2.809 . S
Tb912 O932 2.484 . S
Tb912 O933 2.440 . S
Tb912 O934 2.658 . S
Tb912 O935 2.409 1_554 S
Tb912 O936 2.378 . S
Tb912 O940 2.325 . S
Tb912 O943 2.341 . S
Tb913 C923 2.809 1_455 S
Tb913 O934 2.325 . S
Tb913 O937 2.341 . S
Tb913 O938 2.484 1_455 S
Tb913 O939 2.440 1_455 S
Tb913 O940 2.658 . S
Tb913 O941 2.409 . S
Tb913 O942 2.378 . S
C914 Tb912 2.809 . S
C914 C915 1.514 . S
C914 O932 1.248 . S
C914 O933 1.266 . S
C915 C914 1.514 . S
C915 C916 1.359 . S
C915 C920 1.348 1_554 S
C916 C915 1.359 . S
C916 C917 1.380 . S
C916 H944 0.929 . S
C917 C916 1.380 . S
C917 C918 1.347 . S
C917 H945 0.931 . S
C918 C917 1.347 . S
C918 C919 1.369 1_554 S
C919 C918 1.369 1_556 S
C919 C920 1.408 . S
C919 H946 0.930 . S
C920 C915 1.348 1_556 S
C920 C919 1.408 . S
C920 H947 0.930 . S
C921 O934 1.281 1_556 S
C921 O935 1.254 . S
C922 O936 1.236 . S
C922 O937 1.266 . S
C923 Tb913 2.809 1_655 S
C923 C924 1.514 . S
C923 O938 1.248 . S
C923 O939 1.266 . S
C924 C923 1.514 . S
C924 C925 1.359 . S
C924 C929 1.348 . S
C925 C924 1.359 . S
C925 C926 1.380 . S
C925 H948 0.929 . S
C926 C925 1.380 . S
C926 C927 1.347 . S
C926 H949 0.931 . S
C927 C926 1.347 . S
C927 C928 1.369 . S
C928 C927 1.369 . S
C928 C929 1.408 . S
C928 H950 0.930 . S
C929 C924 1.348 . S
C929 C928 1.408 . S
C929 H951 0.930 . S
C930 O940 1.281 . S
C930 O941 1.254 . S
C931 O942 1.236 . S
C931 O943 1.266 . S
O932 Tb912 2.484 . S
O932 C914 1.248 . S
O933 Tb912 2.440 . S
O933 C914 1.266 . S
O934 Tb912 2.658 . S
O934 Tb913 2.325 . S
O934 C921 1.281 1_554 S
O935 Tb912 2.409 1_556 S
O935 C921 1.254 . S
O936 Tb912 2.378 . S
O936 C922 1.236 . S
O937 Tb913 2.341 . S
O937 C922 1.266 . S
O938 Tb913 2.484 1_655 S
O938 C923 1.248 . S
O939 Tb913 2.440 1_655 S
O939 C923 1.266 . S
O940 Tb912 2.325 . S
O940 Tb913 2.658 . S
O940 C930 1.281 . S
O941 Tb913 2.409 . S
O941 C930 1.254 . S
O942 Tb913 2.378 . S
O942 C931 1.236 . S
O943 Tb912 2.341 . S
O943 C931 1.266 . S
H944 C916 0.929 . S
H945 C917 0.931 . S
H946 C919 0.930 . S
H947 C920 0.930 . S
H948 C925 0.929 . S
H949 C926 0.931 . S
H950 C928 0.930 . S
H951 C929 0.930 . S
H952 C970 0.951 . S
H953 C972 0.951 . S
H954 C974 0.950 . S
H955 C975 0.950 . S
H956 C977 0.950 . S
H957 C980 0.950 . S
H958 C981 0.950 . S
H959 C983 0.950 . S
H960 C984 0.950 . S
H961 C985 0.951 . S
H962 C987 0.951 1_556 S
H963 C989 0.950 . S
H964 C990 0.950 . S
H965 C992 0.950 . S
H966 C995 0.950 . S
H967 C996 0.950 . S
H968 C998 0.950 . S
H969 C999 0.950 . S
C970 H952 0.951 . S
C970 C971 1.366 . S
C970 C972 1.388 . S
C971 C970 1.366 . S
C971 C975 1.385 . S
C972 H953 0.951 . S
C972 C970 1.388 . S
C972 C973 1.366 . S
C973 C972 1.366 . S
C973 C974 1.414 . S
C973 C976 1.499 . S
C974 H954 0.950 . S
C974 C973 1.414 . S
C974 C975 1.374 . S
C975 H955 0.950 . S
C975 C971 1.385 . S
C975 C974 1.374 . S
C976 C973 1.499 . S
C976 C977 1.373 . S
C976 C978 1.389 1_556 S
C977 H956 0.950 . S
C977 C976 1.373 . S
C977 C993 1.377 . S
C978 C976 1.389 1_554 S
C978 C979 1.524 . S
C978 C992 1.377 . S
C979 C978 1.524 . S
C979 C980 1.397 . S
C979 C984 1.363 . S
C980 H957 0.950 . S
C980 C979 1.397 . S
C980 C981 1.334 . S
C981 H958 0.950 . S
C981 C980 1.334 . S
C981 C982 1.287 . S
C982 C981 1.287 . S
C982 C983 1.524 . S
C982 H1001 0.913 . S
C983 H959 0.950 . S
C983 C982 1.524 . S
C983 C984 1.415 . S
C984 H960 0.950 . S
C984 C979 1.363 . S
C984 C983 1.415 . S
C985 H961 0.951 . S
C985 C986 1.366 . S
C985 C987 1.388 . S
C986 C985 1.366 . S
C986 C990 1.385 . S
C987 H962 0.951 1_554 S
C987 C985 1.388 . S
C987 C988 1.366 . S
C988 C987 1.366 . S
C988 C989 1.414 . S
C988 C991 1.487 1_554 S
C989 H963 0.950 . S
C989 C988 1.414 . S
C989 C990 1.374 . S
C990 H964 0.950 . S
C990 C986 1.385 . S
C990 C989 1.374 . S
C991 C988 1.487 1_556 S
C991 C992 1.363 1_556 S
C991 C993 1.412 . S
C992 H965 0.950 . S
C992 C978 1.377 . S
C992 C991 1.363 1_554 S
C993 C977 1.377 . S
C993 C991 1.412 . S
C993 C994 1.524 . S
C994 C993 1.524 . S
C994 C995 1.397 . S
C994 C999 1.363 . S
C995 H966 0.950 . S
C995 C994 1.397 . S
C995 C996 1.334 . S
C996 H967 0.950 . S
C996 C995 1.334 . S
C996 C997 1.287 . S
C997 C996 1.287 . S
C997 C998 1.524 . S
C997 H1000 0.999 . S
C998 H968 0.950 . S
C998 C997 1.524 . S
C998 C999 1.415 . S
C999 H969 0.950 . S
C999 C994 1.363 . S
C999 C998 1.415 . S
H1000 C997 0.999 . S
H1001 C982 0.913 . S
H1002 C1020 0.951 . S
H1003 C1022 0.951 . S
H1004 C1024 0.950 . S
H1005 C1025 0.950 . S
H1006 C1027 0.950 . S
H1007 C1030 0.950 . S
H1008 C1031 0.950 . S
H1009 C1033 0.950 . S
H1010 C1034 0.950 . S
H1011 C1035 0.951 . S
H1012 C1037 0.951 . S
H1013 C1039 0.950 . S
H1014 C1040 0.950 . S
H1015 C1042 0.950 . S
H1016 C1045 0.950 . S
H1017 C1046 0.950 . S
H1018 C1048 0.950 . S
H1019 C1049 0.950 . S
C1020 H1002 0.951 . S
C1020 C1021 1.366 . S
C1020 C1022 1.388 . S
C1021 C1020 1.366 . S
C1021 C1025 1.385 . S
C1022 H1003 0.951 . S
C1022 C1020 1.388 . S
C1022 C1023 1.366 . S
C1023 C1022 1.366 . S
C1023 C1024 1.414 . S
C1023 C1026 1.499 . S
C1024 H1004 0.950 . S
C1024 C1023 1.414 . S
C1024 C1025 1.374 . S
C1025 H1005 0.950 . S
C1025 C1021 1.385 . S
C1025 C1024 1.374 . S
C1026 C1023 1.499 . S
C1026 C1027 1.373 . S
C1026 C1028 1.389 . S
C1027 H1006 0.950 . S
C1027 C1026 1.373 . S
C1027 C1043 1.377 . S
C1028 C1026 1.389 . S
C1028 C1029 1.524 . S
C1028 C1042 1.377 . S
C1029 C1028 1.524 . S
C1029 C1030 1.397 . S
C1029 C1034 1.363 . S
C1030 H1007 0.950 . S
C1030 C1029 1.397 . S
C1030 C1031 1.334 . S
C1031 H1008 0.950 . S
C1031 C1030 1.334 . S
C1031 C1032 1.287 . S
C1032 C1031 1.287 . S
C1032 C1033 1.524 . S
C1032 H1051 0.913 . S
C1033 H1009 0.950 . S
C1033 C1032 1.524 . S
C1033 C1034 1.415 . S
C1034 H1010 0.950 . S
C1034 C1029 1.363 . S
C1034 C1033 1.415 . S
C1035 H1011 0.951 . S
C1035 C1036 1.366 . S
C1035 C1037 1.388 . S
C1036 C1035 1.366 . S
C1036 C1040 1.385 . S
C1037 H1012 0.951 . S
C1037 C1035 1.388 . S
C1037 C1038 1.366 . S
C1038 C1037 1.366 . S
C1038 C1039 1.414 . S
C1038 C1041 1.499 . S
C1039 H1013 0.950 . S
C1039 C1038 1.414 . S
C1039 C1040 1.374 . S
C1040 H1014 0.950 . S
C1040 C1036 1.385 . S
C1040 C1039 1.374 . S
C1041 C1038 1.499 . S
C1041 C1042 1.373 . S
C1041 C1043 1.389 . S
C1042 H1015 0.950 . S
C1042 C1028 1.377 . S
C1042 C1041 1.373 . S
C1043 C1027 1.377 . S
C1043 C1041 1.389 . S
C1043 C1044 1.524 . S
C1044 C1043 1.524 . S
C1044 C1045 1.397 . S
C1044 C1049 1.363 . S
C1045 H1016 0.950 . S
C1045 C1044 1.397 . S
C1045 C1046 1.334 . S
C1046 H1017 0.950 . S
C1046 C1045 1.334 . S
C1046 C1047 1.287 . S
C1047 C1046 1.287 . S
C1047 C1048 1.524 . S
C1047 H1050 0.999 . S
C1048 H1018 0.950 . S
C1048 C1047 1.524 . S
C1048 C1049 1.415 . S
C1049 H1019 0.950 . S
C1049 C1044 1.363 . S
C1049 C1048 1.415 . S
H1050 C1047 0.999 . S
H1051 C1032 0.913 . S
H1052 C1070 0.951 . S
H1053 C1072 0.951 . S
H1054 C1074 0.950 . S
H1055 C1075 0.950 . S
H1056 C1077 0.950 . S
H1057 C1080 0.950 . S
H1058 C1081 0.950 . S
H1059 C1083 0.950 . S
H1060 C1084 0.950 . S
H1061 C1085 0.951 . S
H1062 C1087 0.951 . S
H1063 C1089 0.950 . S
H1064 C1090 0.950 . S
H1065 C1092 0.950 . S
H1066 C1095 0.950 . S
H1067 C1096 0.950 . S
H1068 C1098 0.950 . S
H1069 C1099 0.950 . S
C1070 H1052 0.951 . S
C1070 C1071 1.366 . S
C1070 C1072 1.388 . S
C1071 C1070 1.366 . S
C1071 C1075 1.385 . S
C1072 H1053 0.951 . S
C1072 C1070 1.388 . S
C1072 C1073 1.366 . S
C1073 C1072 1.366 . S
C1073 C1074 1.414 . S
C1073 C1076 1.499 . S
C1074 H1054 0.950 . S
C1074 C1073 1.414 . S
C1074 C1075 1.374 . S
C1075 H1055 0.950 . S
C1075 C1071 1.385 . S
C1075 C1074 1.374 . S
C1076 C1073 1.499 . S
C1076 C1077 1.373 . S
C1076 C1078 1.389 . S
C1077 H1056 0.950 . S
C1077 C1076 1.373 . S
C1077 C1093 1.377 . S
C1078 C1076 1.389 . S
C1078 C1079 1.524 . S
C1078 C1092 1.377 . S
C1079 C1078 1.524 . S
C1079 C1080 1.397 . S
C1079 C1084 1.363 . S
C1080 H1057 0.950 . S
C1080 C1079 1.397 . S
C1080 C1081 1.334 . S
C1081 H1058 0.950 . S
C1081 C1080 1.334 . S
C1081 C1082 1.287 . S
C1082 C1081 1.287 . S
C1082 C1083 1.524 . S
C1082 H1101 0.913 . S
C1083 H1059 0.950 . S
C1083 C1082 1.524 . S
C1083 C1084 1.415 . S
C1084 H1060 0.950 . S
C1084 C1079 1.363 . S
C1084 C1083 1.415 . S
C1085 H1061 0.951 . S
C1085 C1086 1.366 . S
C1085 C1087 1.388 . S
C1086 C1085 1.366 . S
C1086 C1090 1.385 . S
C1087 H1062 0.951 . S
C1087 C1085 1.388 . S
C1087 C1088 1.366 . S
C1088 C1087 1.366 . S
C1088 C1089 1.414 . S
C1088 C1091 1.499 . S
C1089 H1063 0.950 . S
C1089 C1088 1.414 . S
C1089 C1090 1.374 . S
C1090 H1064 0.950 . S
C1090 C1086 1.385 . S
C1090 C1089 1.374 . S
C1091 C1088 1.499 . S
C1091 C1092 1.373 . S
C1091 C1093 1.389 . S
C1092 H1065 0.950 . S
C1092 C1078 1.377 . S
C1092 C1091 1.373 . S
C1093 C1077 1.377 . S
C1093 C1091 1.389 . S
C1093 C1094 1.524 . S
C1094 C1093 1.524 . S
C1094 C1095 1.397 . S
C1094 C1099 1.363 . S
C1095 H1066 0.950 . S
C1095 C1094 1.397 . S
C1095 C1096 1.334 . S
C1096 H1067 0.950 . S
C1096 C1095 1.334 . S
C1096 C1097 1.287 . S
C1097 C1096 1.287 . S
C1097 C1098 1.524 . S
C1097 H1100 0.999 . S
C1098 H1068 0.950 . S
C1098 C1097 1.524 . S
C1098 C1099 1.415 . S
C1099 H1069 0.950 . S
C1099 C1094 1.363 . S
C1099 C1098 1.415 . S
H1100 C1097 0.999 . S
H1101 C1082 0.913 . S
H1102 C1120 0.951 . S
H1103 C1122 0.951 . S
H1104 C1124 0.950 . S
H1105 C1125 0.950 . S
H1106 C1127 0.950 . S
H1107 C1130 0.950 . S
H1108 C1131 0.950 . S
H1109 C1133 0.950 . S
H1110 C1134 0.950 . S
H1111 C1135 0.951 . S
H1112 C1137 0.951 . S
H1113 C1139 0.950 . S
H1114 C1140 0.950 . S
H1115 C1142 0.950 . S
H1116 C1145 0.950 . S
H1117 C1146 0.950 . S
H1118 C1148 0.950 . S
H1119 C1149 0.950 . S
C1120 H1102 0.951 . S
C1120 C1121 1.366 . S
C1120 C1122 1.388 . S
C1121 C1120 1.366 . S
C1121 C1125 1.385 . S
C1122 H1103 0.951 . S
C1122 C1120 1.388 . S
C1122 C1123 1.366 . S
C1123 C1122 1.366 . S
C1123 C1124 1.414 . S
C1123 C1126 1.499 . S
C1124 H1104 0.950 . S
C1124 C1123 1.414 . S
C1124 C1125 1.374 . S
C1125 H1105 0.950 . S
C1125 C1121 1.385 . S
C1125 C1124 1.374 . S
C1126 C1123 1.499 . S
C1126 C1127 1.373 . S
C1126 C1128 1.389 . S
C1127 H1106 0.950 . S
C1127 C1126 1.373 . S
C1127 C1143 1.377 . S
C1128 C1126 1.389 . S
C1128 C1129 1.524 . S
C1128 C1142 1.377 . S
C1129 C1128 1.524 . S
C1129 C1130 1.397 . S
C1129 C1134 1.363 . S
C1130 H1107 0.950 . S
C1130 C1129 1.397 . S
C1130 C1131 1.334 . S
C1131 H1108 0.950 . S
C1131 C1130 1.334 . S
C1131 C1132 1.287 . S
C1132 C1131 1.287 . S
C1132 C1133 1.524 . S
C1132 H1151 0.913 . S
C1133 H1109 0.950 . S
C1133 C1132 1.524 . S
C1133 C1134 1.415 . S
C1134 H1110 0.950 . S
C1134 C1129 1.363 . S
C1134 C1133 1.415 . S
C1135 H1111 0.951 . S
C1135 C1136 1.366 . S
C1135 C1137 1.388 . S
C1136 C1135 1.366 . S
C1136 C1140 1.385 . S
C1137 H1112 0.951 . S
C1137 C1135 1.388 . S
C1137 C1138 1.366 . S
C1138 C1137 1.366 . S
C1138 C1139 1.414 . S
C1138 C1141 1.499 . S
C1139 H1113 0.950 . S
C1139 C1138 1.414 . S
C1139 C1140 1.374 . S
C1140 H1114 0.950 . S
C1140 C1136 1.385 . S
C1140 C1139 1.374 . S
C1141 C1138 1.499 . S
C1141 C1142 1.373 . S
C1141 C1143 1.389 . S
C1142 H1115 0.950 . S
C1142 C1128 1.377 . S
C1142 C1141 1.373 . S
C1143 C1127 1.377 . S
C1143 C1141 1.389 . S
C1143 C1144 1.524 . S
C1144 C1143 1.524 . S
C1144 C1145 1.397 . S
C1144 C1149 1.363 . S
C1145 H1116 0.950 . S
C1145 C1144 1.397 . S
C1145 C1146 1.334 . S
C1146 H1117 0.950 . S
C1146 C1145 1.334 . S
C1146 C1147 1.287 . S
C1147 C1146 1.287 . S
C1147 C1148 1.524 . S
C1147 H1150 0.999 . S
C1148 H1118 0.950 . S
C1148 C1147 1.524 . S
C1148 C1149 1.415 . S
C1149 H1119 0.950 . S
C1149 C1144 1.363 . S
C1149 C1148 1.415 . S
H1150 C1147 0.999 . S
H1151 C1132 0.913 . S
H1152 C1170 0.951 . S
H1153 C1172 0.951 . S
H1154 C1174 0.950 . S
H1155 C1175 0.950 . S
H1156 C1177 0.950 . S
H1157 C1180 0.950 . S
H1158 C1181 0.950 . S
H1159 C1183 0.950 . S
H1160 C1184 0.950 . S
H1161 C1185 0.951 . S
H1162 C1187 0.951 . S
H1163 C1189 0.950 . S
H1164 C1190 0.950 . S
H1165 C1192 0.950 . S
H1166 C1195 0.950 . S
H1167 C1196 0.950 . S
H1168 C1198 0.950 . S
H1169 C1199 0.950 . S
C1170 H1152 0.951 . S
C1170 C1171 1.366 . S
C1170 C1172 1.388 . S
C1171 C1170 1.366 . S
C1171 C1175 1.385 . S
C1172 H1153 0.951 . S
C1172 C1170 1.388 . S
C1172 C1173 1.366 . S
C1173 C1172 1.366 . S
C1173 C1174 1.414 . S
C1173 C1176 1.499 . S
C1174 H1154 0.950 . S
C1174 C1173 1.414 . S
C1174 C1175 1.374 . S
C1175 H1155 0.950 . S
C1175 C1171 1.385 . S
C1175 C1174 1.374 . S
C1176 C1173 1.499 . S
C1176 C1177 1.373 . S
C1176 C1178 1.389 . S
C1177 H1156 0.950 . S
C1177 C1176 1.373 . S
C1177 C1193 1.377 . S
C1178 C1176 1.389 . S
C1178 C1179 1.524 . S
C1178 C1192 1.377 . S
C1179 C1178 1.524 . S
C1179 C1180 1.397 . S
C1179 C1184 1.363 . S
C1180 H1157 0.950 . S
C1180 C1179 1.397 . S
C1180 C1181 1.334 . S
C1181 H1158 0.950 . S
C1181 C1180 1.334 . S
C1181 C1182 1.287 . S
C1182 C1181 1.287 . S
C1182 C1183 1.524 . S
C1182 H1201 0.960 . S
C1183 H1159 0.950 . S
C1183 C1182 1.524 . S
C1183 C1184 1.415 . S
C1184 H1160 0.950 . S
C1184 C1179 1.363 . S
C1184 C1183 1.415 . S
C1185 H1161 0.951 . S
C1185 C1186 1.366 . S
C1185 C1187 1.388 . S
C1186 C1185 1.366 . S
C1186 C1190 1.385 . S
C1187 H1162 0.951 . S
C1187 C1185 1.388 . S
C1187 C1188 1.366 . S
C1188 C1187 1.366 . S
C1188 C1189 1.414 . S
C1188 C1191 1.499 . S
C1189 H1163 0.950 . S
C1189 C1188 1.414 . S
C1189 C1190 1.374 . S
C1190 H1164 0.950 . S
C1190 C1186 1.385 . S
C1190 C1189 1.374 . S
C1191 C1188 1.499 . S
C1191 C1192 1.373 . S
C1191 C1193 1.389 . S
C1192 H1165 0.950 . S
C1192 C1178 1.377 . S
C1192 C1191 1.373 . S
C1193 C1177 1.377 . S
C1193 C1191 1.389 . S
C1193 C1194 1.524 . S
C1194 C1193 1.524 . S
C1194 C1195 1.397 . S
C1194 C1199 1.363 . S
C1195 H1166 0.950 . S
C1195 C1194 1.397 . S
C1195 C1196 1.334 . S
C1196 H1167 0.950 . S
C1196 C1195 1.334 . S
C1196 C1197 1.287 . S
C1197 C1196 1.287 . S
C1197 C1198 1.524 . S
C1197 H1200 0.999 . S
C1198 H1168 0.950 . S
C1198 C1197 1.524 . S
C1198 C1199 1.415 . S
C1199 H1169 0.950 . S
C1199 C1194 1.363 . S
C1199 C1198 1.415 . S
H1200 C1197 0.999 . S
H1201 C1182 0.960 . S
H1202 C1220 0.951 . S
H1203 C1222 0.951 . S
H1204 C1224 0.950 . S
H1205 C1225 0.950 . S
H1206 C1227 0.950 . S
H1207 C1230 0.950 . S
H1208 C1231 0.950 . S
H1209 C1233 0.950 . S
H1210 C1234 0.950 . S
H1211 C1235 0.951 . S
H1212 C1237 0.951 . S
H1213 C1239 0.950 . S
H1214 C1240 0.950 . S
H1215 C1242 0.950 . S
H1216 C1245 0.950 . S
H1217 C1246 0.950 . S
H1218 C1248 0.950 . S
H1219 C1249 0.950 . S
C1220 H1202 0.951 . S
C1220 C1221 1.366 . S
C1220 C1222 1.388 . S
C1221 C1220 1.366 . S
C1221 C1225 1.385 . S
C1222 H1203 0.951 . S
C1222 C1220 1.388 . S
C1222 C1223 1.366 . S
C1223 C1222 1.366 . S
C1223 C1224 1.414 . S
C1223 C1226 1.499 . S
C1224 H1204 0.950 . S
C1224 C1223 1.414 . S
C1224 C1225 1.374 . S
C1225 H1205 0.950 . S
C1225 C1221 1.385 . S
C1225 C1224 1.374 . S
C1226 C1223 1.499 . S
C1226 C1227 1.373 . S
C1226 C1228 1.389 . S
C1227 H1206 0.950 . S
C1227 C1226 1.373 . S
C1227 C1243 1.377 . S
C1228 C1226 1.389 . S
C1228 C1229 1.524 . S
C1228 C1242 1.377 . S
C1229 C1228 1.524 . S
C1229 C1230 1.397 . S
C1229 C1234 1.363 . S
C1230 H1207 0.950 . S
C1230 C1229 1.397 . S
C1230 C1231 1.334 . S
C1231 H1208 0.950 . S
C1231 C1230 1.334 . S
C1231 C1232 1.287 . S
C1232 C1231 1.287 . S
C1232 C1233 1.524 . S
C1232 H1251 0.913 . S
C1233 H1209 0.950 . S
C1233 C1232 1.524 . S
C1233 C1234 1.415 . S
C1234 H1210 0.950 . S
C1234 C1229 1.363 . S
C1234 C1233 1.415 . S
C1235 H1211 0.951 . S
C1235 C1236 1.366 . S
C1235 C1237 1.388 . S
C1236 C1235 1.366 . S
C1236 C1240 1.385 . S
C1237 H1212 0.951 . S
C1237 C1235 1.388 . S
C1237 C1238 1.366 . S
C1238 C1237 1.366 . S
C1238 C1239 1.414 . S
C1238 C1241 1.499 . S
C1239 H1213 0.950 . S
C1239 C1238 1.414 . S
C1239 C1240 1.374 . S
C1240 H1214 0.950 . S
C1240 C1236 1.385 . S
C1240 C1239 1.374 . S
C1241 C1238 1.499 . S
C1241 C1242 1.373 . S
C1241 C1243 1.389 . S
C1242 H1215 0.950 . S
C1242 C1228 1.377 . S
C1242 C1241 1.373 . S
C1243 C1227 1.377 . S
C1243 C1241 1.389 . S
C1243 C1244 1.524 . S
C1244 C1243 1.524 . S
C1244 C1245 1.397 . S
C1244 C1249 1.363 . S
C1245 H1216 0.950 . S
C1245 C1244 1.397 . S
C1245 C1246 1.334 . S
C1246 H1217 0.950 . S
C1246 C1245 1.334 . S
C1246 C1247 1.287 . S
C1247 C1246 1.287 . S
C1247 C1248 1.524 . S
C1247 H1250 0.999 . S
C1248 H1218 0.950 . S
C1248 C1247 1.524 . S
C1248 C1249 1.415 . S
C1249 H1219 0.950 . S
C1249 C1244 1.363 . S
C1249 C1248 1.415 . S
H1250 C1247 0.999 . S
H1251 C1232 0.913 . S
H1252 C1270 0.951 . S
H1253 C1272 0.951 . S
H1254 C1274 0.950 . S
H1255 C1275 0.950 . S
H1256 C1277 0.950 . S
H1257 C1280 0.950 . S
H1258 C1281 0.950 . S
H1259 C1283 0.950 . S
H1260 C1284 0.950 . S
H1261 C1285 0.951 . S
H1262 C1287 0.951 . S
H1263 C1289 0.950 . S
H1264 C1290 0.950 . S
H1265 C1292 0.950 . S
H1266 C1295 0.950 . S
H1267 C1296 0.950 . S
H1268 C1298 0.950 . S
H1269 C1299 0.950 . S
C1270 H1252 0.951 . S
C1270 C1271 1.366 . S
C1270 C1272 1.388 . S
C1271 C1270 1.366 . S
C1271 C1275 1.385 . S
C1272 H1253 0.951 . S
C1272 C1270 1.388 . S
C1272 C1273 1.366 . S
C1273 C1272 1.366 . S
C1273 C1274 1.414 . S
C1273 C1276 1.499 . S
C1274 H1254 0.950 . S
C1274 C1273 1.414 . S
C1274 C1275 1.374 . S
C1275 H1255 0.950 . S
C1275 C1271 1.385 . S
C1275 C1274 1.374 . S
C1276 C1273 1.499 . S
C1276 C1277 1.373 . S
C1276 C1278 1.389 . S
C1277 H1256 0.950 . S
C1277 C1276 1.373 . S
C1277 C1293 1.377 . S
C1278 C1276 1.389 . S
C1278 C1279 1.524 . S
C1278 C1292 1.377 . S
C1279 C1278 1.524 . S
C1279 C1280 1.397 . S
C1279 C1284 1.363 . S
C1280 H1257 0.950 . S
C1280 C1279 1.397 . S
C1280 C1281 1.334 . S
C1281 H1258 0.950 . S
C1281 C1280 1.334 . S
C1281 C1282 1.287 . S
C1282 C1281 1.287 . S
C1282 C1283 1.524 . S
C1282 H1301 0.913 . S
C1283 H1259 0.950 . S
C1283 C1282 1.524 . S
C1283 C1284 1.415 . S
C1284 H1260 0.950 . S
C1284 C1279 1.363 . S
C1284 C1283 1.415 . S
C1285 H1261 0.951 . S
C1285 C1286 1.366 . S
C1285 C1287 1.388 . S
C1286 C1285 1.366 . S
C1286 C1290 1.385 . S
C1287 H1262 0.951 . S
C1287 C1285 1.388 . S
C1287 C1288 1.366 . S
C1288 C1287 1.366 . S
C1288 C1289 1.414 . S
C1288 C1291 1.499 . S
C1289 H1263 0.950 . S
C1289 C1288 1.414 . S
C1289 C1290 1.374 . S
C1290 H1264 0.950 . S
C1290 C1286 1.385 . S
C1290 C1289 1.374 . S
C1291 C1288 1.499 . S
C1291 C1292 1.373 . S
C1291 C1293 1.389 . S
C1292 H1265 0.950 . S
C1292 C1278 1.377 . S
C1292 C1291 1.373 . S
C1293 C1277 1.377 . S
C1293 C1291 1.389 . S
C1293 C1294 1.524 . S
C1294 C1293 1.524 . S
C1294 C1295 1.397 . S
C1294 C1299 1.363 . S
C1295 H1266 0.950 . S
C1295 C1294 1.397 . S
C1295 C1296 1.334 . S
C1296 H1267 0.950 . S
C1296 C1295 1.334 . S
C1296 C1297 1.287 . S
C1297 C1296 1.287 . S
C1297 C1298 1.524 . S
C1297 H1300 0.999 . S
C1298 H1268 0.950 . S
C1298 C1297 1.524 . S
C1298 C1299 1.415 . S
C1299 H1269 0.950 . S
C1299 C1294 1.363 . S
C1299 C1298 1.415 . S
H1300 C1297 0.999 . S
H1301 C1282 0.913 . S
H1302 C1320 0.951 . S
H1303 C1322 0.951 . S
H1304 C1324 0.950 . S
H1305 C1325 0.950 . S
H1306 C1327 0.950 . S
H1307 C1330 0.950 . S
H1308 C1331 0.950 . S
H1309 C1333 0.950 . S
H1310 C1334 0.950 . S
H1311 C1335 0.951 . S
H1312 C1337 0.951 . S
H1313 C1339 0.950 . S
H1314 C1340 0.950 . S
H1315 C1342 0.950 . S
H1316 C1345 0.950 . S
H1317 C1346 0.950 . S
H1318 C1348 0.950 . S
H1319 C1349 0.950 . S
C1320 H1302 0.951 . S
C1320 C1321 1.366 . S
C1320 C1322 1.388 . S
C1321 C1320 1.366 . S
C1321 C1325 1.385 . S
C1322 H1303 0.951 . S
C1322 C1320 1.388 . S
C1322 C1323 1.366 . S
C1323 C1322 1.366 . S
C1323 C1324 1.414 . S
C1323 C1326 1.499 . S
C1324 H1304 0.950 . S
C1324 C1323 1.414 . S
C1324 C1325 1.374 . S
C1325 H1305 0.950 . S
C1325 C1321 1.385 . S
C1325 C1324 1.374 . S
C1326 C1323 1.499 . S
C1326 C1327 1.373 . S
C1326 C1328 1.389 . S
C1327 H1306 0.950 . S
C1327 C1326 1.373 . S
C1327 C1343 1.377 . S
C1328 C1326 1.389 . S
C1328 C1329 1.524 . S
C1328 C1342 1.377 . S
C1329 C1328 1.524 . S
C1329 C1330 1.397 . S
C1329 C1334 1.363 . S
C1330 H1307 0.950 . S
C1330 C1329 1.397 . S
C1330 C1331 1.334 . S
C1331 H1308 0.950 . S
C1331 C1330 1.334 . S
C1331 C1332 1.287 . S
C1332 C1331 1.287 . S
C1332 C1333 1.524 . S
C1332 H1351 0.913 . S
C1333 H1309 0.950 . S
C1333 C1332 1.524 . S
C1333 C1334 1.415 . S
C1334 H1310 0.950 . S
C1334 C1329 1.363 . S
C1334 C1333 1.415 . S
C1335 H1311 0.951 . S
C1335 C1336 1.366 . S
C1335 C1337 1.388 . S
C1336 C1335 1.366 . S
C1336 C1340 1.385 . S
C1337 H1312 0.951 . S
C1337 C1335 1.388 . S
C1337 C1338 1.366 . S
C1338 C1337 1.366 . S
C1338 C1339 1.414 . S
C1338 C1341 1.499 . S
C1339 H1313 0.950 . S
C1339 C1338 1.414 . S
C1339 C1340 1.374 . S
C1340 H1314 0.950 . S
C1340 C1336 1.385 . S
C1340 C1339 1.374 . S
C1341 C1338 1.499 . S
C1341 C1342 1.373 . S
C1341 C1343 1.389 . S
C1342 H1315 0.950 . S
C1342 C1328 1.377 . S
C1342 C1341 1.373 . S
C1343 C1327 1.377 . S
C1343 C1341 1.389 . S
C1343 C1344 1.524 . S
C1344 C1343 1.524 . S
C1344 C1345 1.397 . S
C1344 C1349 1.363 . S
C1345 H1316 0.950 . S
C1345 C1344 1.397 . S
C1345 C1346 1.334 . S
C1346 H1317 0.950 . S
C1346 C1345 1.334 . S
C1346 C1347 1.287 . S
C1347 C1346 1.287 . S
C1347 C1348 1.524 . S
C1347 H1350 0.999 . S
C1348 H1318 0.950 . S
C1348 C1347 1.524 . S
C1348 C1349 1.415 . S
C1349 H1319 0.950 . S
C1349 C1344 1.363 . S
C1349 C1348 1.415 . S
H1350 C1347 0.999 . S
H1351 C1332 0.913 . S
H1352 C1370 0.901 1_565 S
H1353 C1372 0.951 1_565 S
H1354 C1374 0.950 . S
H1355 C1375 0.950 . S
H1356 C1377 0.950 . S
H1357 C1380 0.950 . S
H1358 C1381 0.950 . S
H1359 C1383 0.950 . S
H1360 C1384 0.950 . S
H1361 C1385 0.951 . S
H1362 C1387 0.951 . S
H1363 C1389 0.950 . S
H1364 C1390 0.950 . S
H1365 C1392 0.950 . S
H1366 C1395 0.950 . S
H1367 C1396 0.950 . S
H1368 C1398 0.950 . S
H1369 C1399 0.950 . S
C1370 H1352 0.901 1_545 S
C1370 C1371 1.409 . S
C1370 C1372 1.396 . S
C1371 C1370 1.409 . S
C1371 C1375 1.385 . S
C1372 H1353 0.951 1_545 S
C1372 C1370 1.396 . S
C1372 C1373 1.366 . S
C1373 C1372 1.366 . S
C1373 C1374 1.414 . S
C1373 C1376 1.499 . S
C1374 H1354 0.950 . S
C1374 C1373 1.414 . S
C1374 C1375 1.374 . S
C1375 H1355 0.950 . S
C1375 C1371 1.385 . S
C1375 C1374 1.374 . S
C1376 C1373 1.499 . S
C1376 C1377 1.373 . S
C1376 C1378 1.389 1_655 S
C1377 H1356 0.950 . S
C1377 C1376 1.373 . S
C1377 C1393 1.377 . S
C1378 C1376 1.389 1_455 S
C1378 C1379 1.524 . S
C1378 C1392 1.377 . S
C1379 C1378 1.524 . S
C1379 C1380 1.397 . S
C1379 C1384 1.363 1_545 S
C1380 H1357 0.950 . S
C1380 C1379 1.397 . S
C1380 C1381 1.334 . S
C1381 H1358 0.950 . S
C1381 C1380 1.334 . S
C1381 C1382 1.287 1_545 S
C1382 C1381 1.287 1_565 S
C1382 C1383 1.524 . S
C1382 H1401 0.913 . S
C1383 H1359 0.950 . S
C1383 C1382 1.524 . S
C1383 C1384 1.415 . S
C1384 H1360 0.950 . S
C1384 C1379 1.363 1_565 S
C1384 C1383 1.415 . S
C1385 H1361 0.951 . S
C1385 C1386 1.366 . S
C1385 C1387 1.388 . S
C1386 C1385 1.366 . S
C1386 C1390 1.385 . S
C1387 H1362 0.951 . S
C1387 C1385 1.388 . S
C1387 C1388 1.366 . S
C1388 C1387 1.366 . S
C1388 C1389 1.414 . S
C1388 C1391 1.499 . S
C1389 H1363 0.950 . S
C1389 C1388 1.414 . S
C1389 C1390 1.374 . S
C1390 H1364 0.950 . S
C1390 C1386 1.385 . S
C1390 C1389 1.374 . S
C1391 C1388 1.499 . S
C1391 C1392 1.373 . S
C1391 C1393 1.389 1_455 S
C1392 H1365 0.950 . S
C1392 C1378 1.377 . S
C1392 C1391 1.373 . S
C1393 C1377 1.377 . S
C1393 C1391 1.389 1_655 S
C1393 C1394 1.524 . S
C1394 C1393 1.524 . S
C1394 C1395 1.397 . S
C1394 C1399 1.363 . S
C1395 H1366 0.950 . S
C1395 C1394 1.397 . S
C1395 C1396 1.334 . S
C1396 H1367 0.950 . S
C1396 C1395 1.334 . S
C1396 C1397 1.287 . S
C1397 C1396 1.287 . S
C1397 C1398 1.524 . S
C1397 H1400 0.999 . S
C1398 H1368 0.950 . S
C1398 C1397 1.524 . S
C1398 C1399 1.415 . S
C1399 H1369 0.950 . S
C1399 C1394 1.363 . S
C1399 C1398 1.415 . S
H1400 C1397 0.999 . S
H1401 C1382 0.913 . S
H1402 C1420 0.951 . S
H1403 C1422 0.951 . S
H1404 C1424 0.950 . S
H1405 C1425 0.950 . S
H1406 C1427 0.950 . S
H1407 C1430 0.950 . S
H1408 C1431 0.950 . S
H1409 C1433 0.950 . S
H1410 C1434 0.950 . S
H1411 C1435 0.951 . S
H1412 C1437 0.951 . S
H1413 C1439 0.950 . S
H1414 C1440 0.950 . S
H1415 C1442 0.950 . S
H1416 C1445 0.950 . S
H1417 C1446 0.950 . S
H1418 C1448 0.950 . S
H1419 C1449 0.950 . S
C1420 H1402 0.951 . S
C1420 C1421 1.366 . S
C1420 C1422 1.388 . S
C1421 C1420 1.366 . S
C1421 C1425 1.385 . S
C1422 H1403 0.951 . S
C1422 C1420 1.388 . S
C1422 C1423 1.366 . S
C1423 C1422 1.366 . S
C1423 C1424 1.414 . S
C1423 C1426 1.499 . S
C1424 H1404 0.950 . S
C1424 C1423 1.414 . S
C1424 C1425 1.374 . S
C1425 H1405 0.950 . S
C1425 C1421 1.385 . S
C1425 C1424 1.374 . S
C1426 C1423 1.499 . S
C1426 C1427 1.373 . S
C1426 C1428 1.389 . S
C1427 H1406 0.950 . S
C1427 C1426 1.373 . S
C1427 C1443 1.377 . S
C1428 C1426 1.389 . S
C1428 C1429 1.524 . S
C1428 C1442 1.377 . S
C1429 C1428 1.524 . S
C1429 C1430 1.397 . S
C1429 C1434 1.363 . S
C1430 H1407 0.950 . S
C1430 C1429 1.397 . S
C1430 C1431 1.334 . S
C1431 H1408 0.950 . S
C1431 C1430 1.334 . S
C1431 C1432 1.287 . S
C1432 C1431 1.287 . S
C1432 C1433 1.524 . S
C1432 H1451 0.913 . S
C1433 H1409 0.950 . S
C1433 C1432 1.524 . S
C1433 C1434 1.415 . S
C1434 H1410 0.950 . S
C1434 C1429 1.363 . S
C1434 C1433 1.415 . S
C1435 H1411 0.951 . S
C1435 C1436 1.366 . S
C1435 C1437 1.388 . S
C1436 C1435 1.366 . S
C1436 C1440 1.385 . S
C1437 H1412 0.951 . S
C1437 C1435 1.388 . S
C1437 C1438 1.366 . S
C1438 C1437 1.366 . S
C1438 C1439 1.414 . S
C1438 C1441 1.499 . S
C1439 H1413 0.950 . S
C1439 C1438 1.414 . S
C1439 C1440 1.374 . S
C1440 H1414 0.950 . S
C1440 C1436 1.385 . S
C1440 C1439 1.374 . S
C1441 C1438 1.499 . S
C1441 C1442 1.373 . S
C1441 C1443 1.389 . S
C1442 H1415 0.950 . S
C1442 C1428 1.377 . S
C1442 C1441 1.373 . S
C1443 C1427 1.377 . S
C1443 C1441 1.389 . S
C1443 C1444 1.524 . S
C1444 C1443 1.524 . S
C1444 C1445 1.397 . S
C1444 C1449 1.363 . S
C1445 H1416 0.950 . S
C1445 C1444 1.397 . S
C1445 C1446 1.334 . S
C1446 H1417 0.950 . S
C1446 C1445 1.334 . S
C1446 C1447 1.287 . S
C1447 C1446 1.287 . S
C1447 C1448 1.524 . S
C1447 H1450 0.999 . S
C1448 H1418 0.950 . S
C1448 C1447 1.524 . S
C1448 C1449 1.415 . S
C1449 H1419 0.950 . S
C1449 C1444 1.363 . S
C1449 C1448 1.415 . S
H1450 C1447 0.999 . S
H1451 C1432 0.913 . S
H1452 C1470 0.951 1_565 S
H1453 C1472 0.951 1_565 S
H1454 C1474 0.950 . S
H1455 C1475 0.950 . S
H1456 C1477 0.975 . S
H1457 C1480 0.950 . S
H1458 C1481 0.950 . S
H1459 C1483 0.950 . S
H1460 C1484 0.950 . S
H1461 C1485 0.951 . S
H1462 C1487 0.951 . S
H1463 C1489 0.950 1_565 S
H1464 C1490 0.943 1_565 S
H1465 C1492 0.950 . S
H1466 C1495 0.950 . S
H1467 C1496 0.950 . S
H1468 C1498 0.950 . S
H1469 C1499 0.991 . S
C1470 H1452 0.951 1_545 S
C1470 C1471 1.366 . S
C1470 C1472 1.388 . S
C1471 C1470 1.366 . S
C1471 C1475 1.385 . S
C1472 H1453 0.951 1_545 S
C1472 C1470 1.388 . S
C1472 C1473 1.366 . S
C1473 C1472 1.366 . S
C1473 C1474 1.414 . S
C1473 C1476 1.499 . S
C1474 H1454 0.950 . S
C1474 C1473 1.414 . S
C1474 C1475 1.374 . S
C1475 H1455 0.950 . S
C1475 C1471 1.385 . S
C1475 C1474 1.374 . S
C1476 C1473 1.499 . S
C1476 C1477 1.360 1_545 S
C1476 C1478 1.389 . S
C1477 H1456 0.975 . S
C1477 C1476 1.360 1_565 S
C1477 C1493 1.369 . S
C1478 C1476 1.389 . S
C1478 C1479 1.524 . S
C1478 C1492 1.377 . S
C1479 C1478 1.524 . S
C1479 C1480 1.397 . S
C1479 C1484 1.363 . S
C1480 H1457 0.950 . S
C1480 C1479 1.397 . S
C1480 C1481 1.334 . S
C1481 H1458 0.950 . S
C1481 C1480 1.334 . S
C1481 C1482 1.287 . S
C1482 C1481 1.287 . S
C1482 C1483 1.524 . S
C1482 H1501 0.913 . S
C1483 H1459 0.950 . S
C1483 C1482 1.524 . S
C1483 C1484 1.415 . S
C1484 H1460 0.950 . S
C1484 C1479 1.363 . S
C1484 C1483 1.415 . S
C1485 H1461 0.951 . S
C1485 C1486 1.366 . S
C1485 C1487 1.388 . S
C1486 C1485 1.366 . S
C1486 C1490 1.385 . S
C1487 H1462 0.951 . S
C1487 C1485 1.388 . S
C1487 C1488 1.366 . S
C1488 C1487 1.366 . S
C1488 C1489 1.414 . S
C1488 C1491 1.499 . S
C1489 H1463 0.950 1_545 S
C1489 C1488 1.414 . S
C1489 C1490 1.374 . S
C1490 H1464 0.943 1_545 S
C1490 C1486 1.385 . S
C1490 C1489 1.374 . S
C1491 C1488 1.499 . S
C1491 C1492 1.373 . S
C1491 C1493 1.389 1_545 S
C1492 H1465 0.950 . S
C1492 C1478 1.377 . S
C1492 C1491 1.373 . S
C1493 C1477 1.369 . S
C1493 C1491 1.389 1_565 S
C1493 C1494 1.524 . S
C1494 C1493 1.524 . S
C1494 C1495 1.397 . S
C1494 C1499 1.363 . S
C1495 H1466 0.950 . S
C1495 C1494 1.397 . S
C1495 C1496 1.334 . S
C1496 H1467 0.950 . S
C1496 C1495 1.334 . S
C1496 C1497 1.287 . S
C1497 C1496 1.287 . S
C1497 C1498 1.524 . S
C1497 H1500 0.999 . S
C1498 H1468 0.950 . S
C1498 C1497 1.524 . S
C1498 C1499 1.415 . S
C1499 H1469 0.991 . S
C1499 C1494 1.363 . S
C1499 C1498 1.415 . S
H1500 C1497 0.999 . S
H1501 C1482 0.913 . S
H1502 C1520 0.951 . S
H1503 C1522 0.951 . S
H1504 C1524 0.950 . S
H1505 C1525 0.950 . S
H1506 C1527 0.950 . S
H1507 C1530 0.950 . S
H1508 C1531 0.950 . S
H1509 C1533 0.950 . S
H1510 C1534 0.950 . S
H1511 C1535 0.951 . S
H1512 C1537 0.951 . S
H1513 C1539 0.950 . S
H1514 C1540 0.950 . S
H1515 C1542 0.950 . S
H1516 C1545 0.950 . S
H1517 C1546 0.950 . S
H1518 C1548 0.950 . S
H1519 C1549 0.950 . S
C1520 H1502 0.951 . S
C1520 C1521 1.366 . S
C1520 C1522 1.388 . S
C1521 C1520 1.366 . S
C1521 C1525 1.385 . S
C1522 H1503 0.951 . S
C1522 C1520 1.388 . S
C1522 C1523 1.366 . S
C1523 C1522 1.366 . S
C1523 C1524 1.414 . S
C1523 C1526 1.499 . S
C1524 H1504 0.950 . S
C1524 C1523 1.414 . S
C1524 C1525 1.374 . S
C1525 H1505 0.950 . S
C1525 C1521 1.385 . S
C1525 C1524 1.374 . S
C1526 C1523 1.499 . S
C1526 C1527 1.373 . S
C1526 C1528 1.389 . S
C1527 H1506 0.950 . S
C1527 C1526 1.373 . S
C1527 C1543 1.377 . S
C1528 C1526 1.389 . S
C1528 C1529 1.524 . S
C1528 C1542 1.377 . S
C1529 C1528 1.524 . S
C1529 C1530 1.397 . S
C1529 C1534 1.363 . S
C1530 H1507 0.950 . S
C1530 C1529 1.397 . S
C1530 C1531 1.334 . S
C1531 H1508 0.950 . S
C1531 C1530 1.334 . S
C1531 C1532 1.287 . S
C1532 C1531 1.287 . S
C1532 C1533 1.524 . S
C1532 H1551 0.913 . S
C1533 H1509 0.950 . S
C1533 C1532 1.524 . S
C1533 C1534 1.415 . S
C1534 H1510 0.950 . S
C1534 C1529 1.363 . S
C1534 C1533 1.415 . S
C1535 H1511 0.951 . S
C1535 C1536 1.366 . S
C1535 C1537 1.388 . S
C1536 C1535 1.366 . S
C1536 C1540 1.385 . S
C1537 H1512 0.951 . S
C1537 C1535 1.388 . S
C1537 C1538 1.366 . S
C1538 C1537 1.366 . S
C1538 C1539 1.414 . S
C1538 C1541 1.499 . S
C1539 H1513 0.950 . S
C1539 C1538 1.414 . S
C1539 C1540 1.374 . S
C1540 H1514 0.950 . S
C1540 C1536 1.385 . S
C1540 C1539 1.374 . S
C1541 C1538 1.499 . S
C1541 C1542 1.373 . S
C1541 C1543 1.389 . S
C1542 H1515 0.950 . S
C1542 C1528 1.377 . S
C1542 C1541 1.373 . S
C1543 C1527 1.377 . S
C1543 C1541 1.389 . S
C1543 C1544 1.524 . S
C1544 C1543 1.524 . S
C1544 C1545 1.397 . S
C1544 C1549 1.363 . S
C1545 H1516 0.950 . S
C1545 C1544 1.397 . S
C1545 C1546 1.334 . S
C1546 H1517 0.950 . S
C1546 C1545 1.334 . S
C1546 C1547 1.287 . S
C1547 C1546 1.287 . S
C1547 C1548 1.524 . S
C1547 H1550 0.999 . S
C1548 H1518 0.950 . S
C1548 C1547 1.524 . S
C1548 C1549 1.415 . S
C1549 H1519 0.950 . S
C1549 C1544 1.363 . S
C1549 C1548 1.415 . S
H1550 C1547 0.999 . S
H1551 C1532 0.913 . S
H1552 C1570 0.951 . S
H1553 C1572 0.951 . S
H1554 C1574 0.950 . S
H1555 C1575 0.950 . S
H1556 C1577 0.950 . S
H1557 C1580 0.950 1_655 S
H1558 C1581 0.950 . S
H1559 C1583 0.950 . S
H1560 C1584 0.950 . S
H1561 C1585 0.922 1_565 S
H1562 C1587 0.928 1_665 S
H1563 C1589 0.950 . S
H1564 C1590 0.950 . S
H1565 C1592 0.950 . S
H1566 C1595 0.950 . S
H1567 C1596 0.950 . S
H1568 C1598 0.973 . S
H1569 C1599 0.950 1_565 S
C1570 H1552 0.951 . S
C1570 C1571 1.366 . S
C1570 C1572 1.388 . S
C1571 C1570 1.366 . S
C1571 C1575 1.385 1_545 S
C1572 H1553 0.951 . S
C1572 C1570 1.388 . S
C1572 C1573 1.366 . S
C1573 C1572 1.366 . S
C1573 C1574 1.414 1_545 S
C1573 C1576 1.499 . S
C1574 H1554 0.950 . S
C1574 C1573 1.414 1_565 S
C1574 C1575 1.374 . S
C1575 H1555 0.950 . S
C1575 C1571 1.385 1_565 S
C1575 C1574 1.374 . S
C1576 C1573 1.499 . S
C1576 C1577 1.373 . S
C1576 C1578 1.351 1_655 S
C1577 H1556 0.950 . S
C1577 C1576 1.373 . S
C1577 C1593 1.377 . S
C1578 C1576 1.351 1_455 S
C1578 C1579 1.550 . S
C1578 C1592 1.392 . S
C1579 C1578 1.550 . S
C1579 C1580 1.397 1_545 S
C1579 C1584 1.363 . S
C1580 H1557 0.950 1_455 S
C1580 C1579 1.397 1_565 S
C1580 C1581 1.334 . S
C1581 H1558 0.950 . S
C1581 C1580 1.334 . S
C1581 C1582 1.287 . S
C1582 C1581 1.287 . S
C1582 C1583 1.524 1_565 S
C1582 H1601 0.913 . S
C1583 H1559 0.950 . S
C1583 C1582 1.524 1_545 S
C1583 C1584 1.415 . S
C1584 H1560 0.950 . S
C1584 C1579 1.363 . S
C1584 C1583 1.415 . S
C1585 H1561 0.922 1_545 S
C1585 C1586 1.386 . S
C1585 C1587 1.386 . S
C1586 C1585 1.386 . S
C1586 C1590 1.385 . S
C1587 H1562 0.928 1_445 S
C1587 C1585 1.386 . S
C1587 C1588 1.401 . S
C1588 C1587 1.401 . S
C1588 C1589 1.414 . S
C1588 C1591 1.499 . S
C1589 H1563 0.950 . S
C1589 C1588 1.414 . S
C1589 C1590 1.374 . S
C1590 H1564 0.950 . S
C1590 C1586 1.385 . S
C1590 C1589 1.374 . S
C1591 C1588 1.499 . S
C1591 C1592 1.373 . S
C1591 C1593 1.389 1_455 S
C1592 H1565 0.950 . S
C1592 C1578 1.392 . S
C1592 C1591 1.373 . S
C1593 C1577 1.377 . S
C1593 C1591 1.389 1_655 S
C1593 C1594 1.524 . S
C1594 C1593 1.524 . S
C1594 C1595 1.397 . S
C1594 C1599 1.363 . S
C1595 H1566 0.950 . S
C1595 C1594 1.397 . S
C1595 C1596 1.334 . S
C1596 H1567 0.950 . S
C1596 C1595 1.334 . S
C1596 C1597 1.287 . S
C1597 C1596 1.287 . S
C1597 C1598 1.524 . S
C1597 H1600 0.999 . S
C1598 H1568 0.973 . S
C1598 C1597 1.524 . S
C1598 C1599 1.415 . S
C1599 H1569 0.950 1_545 S
C1599 C1594 1.363 . S
C1599 C1598 1.415 . S
H1600 C1597 0.999 . S
H1601 C1582 0.913 . S
H1602 C1620 0.951 . S
H1603 C1622 0.951 . S
H1604 C1624 0.950 . S
H1605 C1625 0.950 . S
H1606 C1627 0.950 . S
H1607 C1630 0.950 . S
H1608 C1631 0.950 . S
H1609 C1633 0.950 . S
H1610 C1634 0.950 . S
H1611 C1635 0.951 . S
H1612 C1637 0.951 . S
H1613 C1639 0.950 . S
H1614 C1640 0.950 . S
H1615 C1642 0.950 . S
H1616 C1645 0.950 . S
H1617 C1646 0.950 . S
H1618 C1648 0.950 . S
H1619 C1649 0.950 . S
C1620 H1602 0.951 . S
C1620 C1621 1.366 . S
C1620 C1622 1.388 . S
C1621 C1620 1.366 . S
C1621 C1625 1.385 . S
C1622 H1603 0.951 . S
C1622 C1620 1.388 . S
C1622 C1623 1.366 . S
C1623 C1622 1.366 . S
C1623 C1624 1.414 . S
C1623 C1626 1.499 . S
C1624 H1604 0.950 . S
C1624 C1623 1.414 . S
C1624 C1625 1.374 . S
C1625 H1605 0.950 . S
C1625 C1621 1.385 . S
C1625 C1624 1.374 . S
C1626 C1623 1.499 . S
C1626 C1627 1.373 . S
C1626 C1628 1.389 . S
C1627 H1606 0.950 . S
C1627 C1626 1.373 . S
C1627 C1643 1.377 . S
C1628 C1626 1.389 . S
C1628 C1629 1.524 . S
C1628 C1642 1.377 . S
C1629 C1628 1.524 . S
C1629 C1630 1.397 . S
C1629 C1634 1.363 . S
C1630 H1607 0.950 . S
C1630 C1629 1.397 . S
C1630 C1631 1.334 . S
C1631 H1608 0.950 . S
C1631 C1630 1.334 . S
C1631 C1632 1.287 . S
C1632 C1631 1.287 . S
C1632 C1633 1.524 . S
C1632 H1651 0.913 . S
C1633 H1609 0.950 . S
C1633 C1632 1.524 . S
C1633 C1634 1.415 . S
C1634 H1610 0.950 . S
C1634 C1629 1.363 . S
C1634 C1633 1.415 . S
C1635 H1611 0.951 . S
C1635 C1636 1.366 . S
C1635 C1637 1.388 . S
C1636 C1635 1.366 . S
C1636 C1640 1.385 . S
C1637 H1612 0.951 . S
C1637 C1635 1.388 . S
C1637 C1638 1.366 . S
C1638 C1637 1.366 . S
C1638 C1639 1.414 . S
C1638 C1641 1.499 . S
C1639 H1613 0.950 . S
C1639 C1638 1.414 . S
C1639 C1640 1.374 . S
C1640 H1614 0.950 . S
C1640 C1636 1.385 . S
C1640 C1639 1.374 . S
C1641 C1638 1.499 . S
C1641 C1642 1.373 . S
C1641 C1643 1.389 . S
C1642 H1615 0.950 . S
C1642 C1628 1.377 . S
C1642 C1641 1.373 . S
C1643 C1627 1.377 . S
C1643 C1641 1.389 . S
C1643 C1644 1.524 . S
C1644 C1643 1.524 . S
C1644 C1645 1.397 . S
C1644 C1649 1.363 . S
C1645 H1616 0.950 . S
C1645 C1644 1.397 . S
C1645 C1646 1.334 . S
C1646 H1617 0.950 . S
C1646 C1645 1.334 . S
C1646 C1647 1.287 . S
C1647 C1646 1.287 . S
C1647 C1648 1.524 . S
C1647 H1650 0.999 . S
C1648 H1618 0.950 . S
C1648 C1647 1.524 . S
C1648 C1649 1.415 . S
C1649 H1619 0.950 . S
C1649 C1644 1.363 . S
C1649 C1648 1.415 . S
H1650 C1647 0.999 . S
H1651 C1632 0.913 . S
H1652 C1670 0.951 1_565 S
H1653 C1672 0.949 . S
H1654 C1674 0.950 . S
H1655 C1675 0.950 . S
H1656 C1677 0.950 . S
H1657 C1680 0.950 . S
H1658 C1681 0.946 1_545 S
H1659 C1683 0.950 . S
H1660 C1684 0.950 . S
H1661 C1685 0.951 . S
H1662 C1687 0.951 . S
H1663 C1689 0.950 . S
H1664 C1690 0.950 . S
H1665 C1692 0.950 . S
H1666 C1695 0.950 . S
H1667 C1696 0.950 . S
H1668 C1698 0.950 . S
H1669 C1699 0.950 . S
C1670 H1652 0.951 1_545 S
C1670 C1671 1.366 . S
C1670 C1672 1.388 . S
C1671 C1670 1.366 . S
C1671 C1675 1.385 . S
C1672 H1653 0.949 . S
C1672 C1670 1.388 . S
C1672 C1673 1.366 . S
C1673 C1672 1.366 . S
C1673 C1674 1.414 . S
C1673 C1676 1.499 . S
C1674 H1654 0.950 . S
C1674 C1673 1.414 . S
C1674 C1675 1.374 . S
C1675 H1655 0.950 . S
C1675 C1671 1.385 . S
C1675 C1674 1.374 . S
C1676 C1673 1.499 . S
C1676 C1677 1.373 . S
C1676 C1678 1.389 . S
C1677 H1656 0.950 . S
C1677 C1676 1.373 . S
C1677 C1693 1.377 . S
C1678 C1676 1.389 . S
C1678 C1679 1.524 . S
C1678 C1692 1.377 . S
C1679 C1678 1.524 . S
C1679 C1680 1.397 . S
C1679 C1684 1.363 1_545 S
C1680 H1657 0.950 . S
C1680 C1679 1.397 . S
C1680 C1681 1.334 1_545 S
C1681 H1658 0.946 1_565 S
C1681 C1680 1.334 1_565 S
C1681 C1682 1.287 . S
C1682 C1681 1.287 . S
C1682 C1683 1.524 . S
C1682 H1701 0.913 . S
C1683 H1659 0.950 . S
C1683 C1682 1.524 . S
C1683 C1684 1.415 . S
C1684 H1660 0.950 . S
C1684 C1679 1.363 1_565 S
C1684 C1683 1.415 . S
C1685 H1661 0.951 . S
C1685 C1686 1.366 . S
C1685 C1687 1.388 . S
C1686 C1685 1.366 . S
C1686 C1690 1.385 . S
C1687 H1662 0.951 . S
C1687 C1685 1.388 . S
C1687 C1688 1.366 . S
C1688 C1687 1.366 . S
C1688 C1689 1.414 . S
C1688 C1691 1.499 . S
C1689 H1663 0.950 . S
C1689 C1688 1.414 . S
C1689 C1690 1.374 . S
C1690 H1664 0.950 . S
C1690 C1686 1.385 . S
C1690 C1689 1.374 . S
C1691 C1688 1.499 . S
C1691 C1692 1.373 . S
C1691 C1693 1.389 . S
C1692 H1665 0.950 . S
C1692 C1678 1.377 . S
C1692 C1691 1.373 . S
C1693 C1677 1.377 . S
C1693 C1691 1.389 . S
C1693 C1694 1.524 . S
C1694 C1693 1.524 . S
C1694 C1695 1.397 . S
C1694 C1699 1.363 . S
C1695 H1666 0.950 . S
C1695 C1694 1.397 . S
C1695 C1696 1.334 . S
C1696 H1667 0.950 . S
C1696 C1695 1.334 . S
C1696 C1697 1.287 . S
C1697 C1696 1.287 . S
C1697 C1698 1.524 . S
C1697 H1700 0.999 . S
C1698 H1668 0.950 . S
C1698 C1697 1.524 . S
C1698 C1699 1.415 . S
C1699 H1669 0.950 . S
C1699 C1694 1.363 . S
C1699 C1698 1.415 . S
H1700 C1697 0.999 . S
H1701 C1682 0.913 . S
H1702 C1720 0.951 . S
H1703 C1722 0.951 . S
H1704 C1724 0.950 . S
H1705 C1725 0.950 . S
H1706 C1727 0.950 . S
H1707 C1730 0.950 . S
H1708 C1731 0.950 . S
H1709 C1733 0.950 . S
H1710 C1734 0.950 . S
H1711 C1735 0.951 . S
H1712 C1737 0.951 . S
H1713 C1739 0.950 . S
H1714 C1740 0.950 . S
H1715 C1742 0.950 . S
H1716 C1745 0.950 . S
H1717 C1746 0.950 . S
H1718 C1748 0.950 . S
H1719 C1749 0.950 . S
C1720 H1702 0.951 . S
C1720 C1721 1.366 . S
C1720 C1722 1.388 . S
C1721 C1720 1.366 . S
C1721 C1725 1.385 . S
C1722 H1703 0.951 . S
C1722 C1720 1.388 . S
C1722 C1723 1.366 . S
C1723 C1722 1.366 . S
C1723 C1724 1.414 . S
C1723 C1726 1.499 . S
C1724 H1704 0.950 . S
C1724 C1723 1.414 . S
C1724 C1725 1.374 . S
C1725 H1705 0.950 . S
C1725 C1721 1.385 . S
C1725 C1724 1.374 . S
C1726 C1723 1.499 . S
C1726 C1727 1.373 . S
C1726 C1728 1.389 . S
C1727 H1706 0.950 . S
C1727 C1726 1.373 . S
C1727 C1743 1.377 . S
C1728 C1726 1.389 . S
C1728 C1729 1.524 . S
C1728 C1742 1.377 . S
C1729 C1728 1.524 . S
C1729 C1730 1.397 . S
C1729 C1734 1.363 . S
C1730 H1707 0.950 . S
C1730 C1729 1.397 . S
C1730 C1731 1.334 . S
C1731 H1708 0.950 . S
C1731 C1730 1.334 . S
C1731 C1732 1.287 . S
C1732 C1731 1.287 . S
C1732 C1733 1.524 . S
C1732 H1751 0.913 . S
C1733 H1709 0.950 . S
C1733 C1732 1.524 . S
C1733 C1734 1.415 . S
C1734 H1710 0.950 . S
C1734 C1729 1.363 . S
C1734 C1733 1.415 . S
C1735 H1711 0.951 . S
C1735 C1736 1.366 . S
C1735 C1737 1.388 . S
C1736 C1735 1.366 . S
C1736 C1740 1.385 . S
C1737 H1712 0.951 . S
C1737 C1735 1.388 . S
C1737 C1738 1.366 . S
C1738 C1737 1.366 . S
C1738 C1739 1.414 . S
C1738 C1741 1.499 . S
C1739 H1713 0.950 . S
C1739 C1738 1.414 . S
C1739 C1740 1.374 . S
C1740 H1714 0.950 . S
C1740 C1736 1.385 . S
C1740 C1739 1.374 . S
C1741 C1738 1.499 . S
C1741 C1742 1.373 . S
C1741 C1743 1.389 . S
C1742 H1715 0.950 . S
C1742 C1728 1.377 . S
C1742 C1741 1.373 . S
C1743 C1727 1.377 . S
C1743 C1741 1.389 . S
C1743 C1744 1.524 . S
C1744 C1743 1.524 . S
C1744 C1745 1.397 . S
C1744 C1749 1.363 . S
C1745 H1716 0.950 . S
C1745 C1744 1.397 . S
C1745 C1746 1.334 . S
C1746 H1717 0.950 . S
C1746 C1745 1.334 . S
C1746 C1747 1.287 . S
C1747 C1746 1.287 . S
C1747 C1748 1.524 . S
C1747 H1750 0.999 . S
C1748 H1718 0.950 . S
C1748 C1747 1.524 . S
C1748 C1749 1.415 . S
C1749 H1719 0.950 . S
C1749 C1744 1.363 . S
C1749 C1748 1.415 . S
H1750 C1747 0.999 . S
H1751 C1732 0.913 . S
H1752 C1770 0.951 . S
H1753 C1772 0.951 . S
H1754 C1774 0.925 1_556 S
H1755 C1775 0.950 . S
H1756 C1777 0.950 . S
H1757 C1780 0.950 . S
H1758 C1781 0.950 . S
H1759 C1783 0.950 . S
H1760 C1784 0.950 . S
H1761 C1785 0.951 . S
H1762 C1787 0.951 . S
H1763 C1789 0.950 . S
H1764 C1790 0.950 . S
H1765 C1792 0.950 . S
H1766 C1795 0.950 . S
H1767 C1796 0.950 1_545 S
H1768 C1798 0.950 . S
H1769 C1799 0.950 1_556 S
C1770 H1752 0.951 . S
C1770 C1771 1.366 . S
C1770 C1772 1.388 . S
C1771 C1770 1.366 . S
C1771 C1775 1.385 1_554 S
C1772 H1753 0.951 . S
C1772 C1770 1.388 . S
C1772 C1773 1.366 . S
C1773 C1772 1.366 . S
C1773 C1774 1.455 . S
C1773 C1776 1.499 . S
C1774 H1754 0.925 1_554 S
C1774 C1773 1.455 . S
C1774 C1775 1.358 1_554 S
C1775 H1755 0.950 . S
C1775 C1771 1.385 1_556 S
C1775 C1774 1.358 1_556 S
C1776 C1773 1.499 . S
C1776 C1777 1.373 . S
C1776 C1778 1.389 . S
C1777 H1756 0.950 . S
C1777 C1776 1.373 . S
C1777 C1793 1.377 . S
C1778 C1776 1.389 . S
C1778 C1779 1.524 . S
C1778 C1792 1.377 . S
C1779 C1778 1.524 . S
C1779 C1780 1.397 . S
C1779 C1784 1.363 . S
C1780 H1757 0.950 . S
C1780 C1779 1.397 . S
C1780 C1781 1.334 . S
C1781 H1758 0.950 . S
C1781 C1780 1.334 . S
C1781 C1782 1.287 . S
C1782 C1781 1.287 . S
C1782 C1783 1.524 . S
C1782 H1801 0.913 . S
C1783 H1759 0.950 . S
C1783 C1782 1.524 . S
C1783 C1784 1.415 . S
C1784 H1760 0.950 . S
C1784 C1779 1.363 . S
C1784 C1783 1.415 . S
C1785 H1761 0.951 . S
C1785 C1786 1.366 . S
C1785 C1787 1.388 . S
C1786 C1785 1.366 . S
C1786 C1790 1.385 . S
C1787 H1762 0.951 . S
C1787 C1785 1.388 . S
C1787 C1788 1.366 . S
C1788 C1787 1.366 . S
C1788 C1789 1.414 . S
C1788 C1791 1.499 . S
C1789 H1763 0.950 . S
C1789 C1788 1.414 . S
C1789 C1790 1.374 . S
C1790 H1764 0.950 . S
C1790 C1786 1.385 . S
C1790 C1789 1.374 . S
C1791 C1788 1.499 . S
C1791 C1792 1.373 . S
C1791 C1793 1.389 . S
C1792 H1765 0.950 . S
C1792 C1778 1.377 . S
C1792 C1791 1.373 . S
C1793 C1777 1.377 . S
C1793 C1791 1.389 . S
C1793 C1794 1.524 . S
C1794 C1793 1.524 . S
C1794 C1795 1.397 . S
C1794 C1799 1.363 . S
C1795 H1766 0.950 . S
C1795 C1794 1.397 . S
C1795 C1796 1.334 . S
C1796 H1767 0.950 1_565 S
C1796 C1795 1.334 . S
C1796 C1797 1.287 . S
C1797 C1796 1.287 . S
C1797 C1798 1.524 1_554 S
C1797 H1800 0.999 1_565 S
C1798 H1768 0.950 . S
C1798 C1797 1.524 1_556 S
C1798 C1799 1.415 1_556 S
C1799 H1769 0.950 1_554 S
C1799 C1794 1.363 . S
C1799 C1798 1.415 1_554 S
H1800 C1797 0.999 1_545 S
H1801 C1782 0.913 . S
H1802 C1820 0.951 . S
H1803 C1822 0.951 . S
H1804 C1824 0.950 . S
H1805 C1825 0.950 . S
H1806 C1827 0.950 . S
H1807 C1830 0.950 . S
H1808 C1831 0.950 . S
H1809 C1833 0.950 . S
H1810 C1834 0.950 . S
H1811 C1835 0.951 . S
H1812 C1837 0.951 . S
H1813 C1839 0.950 . S
H1814 C1840 0.950 . S
H1815 C1842 0.976 . S
H1816 C1845 0.950 . S
H1817 C1846 0.950 . S
H1818 C1848 0.950 . S
H1819 C1849 0.950 . S
C1820 H1802 0.951 . S
C1820 C1821 1.366 . S
C1820 C1822 1.388 . S
C1821 C1820 1.366 . S
C1821 C1825 1.385 . S
C1822 H1803 0.951 . S
C1822 C1820 1.388 . S
C1822 C1823 1.366 . S
C1823 C1822 1.366 . S
C1823 C1824 1.414 . S
C1823 C1826 1.499 . S
C1824 H1804 0.950 . S
C1824 C1823 1.414 . S
C1824 C1825 1.374 . S
C1825 H1805 0.950 . S
C1825 C1821 1.385 . S
C1825 C1824 1.374 . S
C1826 C1823 1.499 . S
C1826 C1827 1.373 . S
C1826 C1828 1.389 1_554 S
C1827 H1806 0.950 . S
C1827 C1826 1.373 . S
C1827 C1843 1.377 . S
C1828 C1826 1.389 1_556 S
C1828 C1829 1.524 . S
C1828 C1842 1.388 . S
C1829 C1828 1.524 . S
C1829 C1830 1.397 . S
C1829 C1834 1.363 . S
C1830 H1807 0.950 . S
C1830 C1829 1.397 . S
C1830 C1831 1.334 . S
C1831 H1808 0.950 . S
C1831 C1830 1.334 . S
C1831 C1832 1.287 . S
C1832 C1831 1.287 . S
C1832 C1833 1.524 . S
C1832 H1851 0.913 . S
C1833 H1809 0.950 . S
C1833 C1832 1.524 . S
C1833 C1834 1.415 . S
C1834 H1810 0.950 . S
C1834 C1829 1.363 . S
C1834 C1833 1.415 . S
C1835 H1811 0.951 . S
C1835 C1836 1.366 . S
C1835 C1837 1.388 . S
C1836 C1835 1.366 . S
C1836 C1840 1.385 . S
C1837 H1812 0.951 . S
C1837 C1835 1.388 . S
C1837 C1838 1.366 . S
C1838 C1837 1.366 . S
C1838 C1839 1.414 . S
C1838 C1841 1.499 . S
C1839 H1813 0.950 . S
C1839 C1838 1.414 . S
C1839 C1840 1.374 . S
C1840 H1814 0.950 . S
C1840 C1836 1.385 . S
C1840 C1839 1.374 . S
C1841 C1838 1.499 . S
C1841 C1842 1.337 1_554 S
C1841 C1843 1.389 . S
C1842 H1815 0.976 . S
C1842 C1828 1.388 . S
C1842 C1841 1.337 1_556 S
C1843 C1827 1.377 . S
C1843 C1841 1.389 . S
C1843 C1844 1.524 . S
C1844 C1843 1.524 . S
C1844 C1845 1.397 . S
C1844 C1849 1.363 . S
C1845 H1816 0.950 . S
C1845 C1844 1.397 . S
C1845 C1846 1.334 . S
C1846 H1817 0.950 . S
C1846 C1845 1.334 . S
C1846 C1847 1.287 . S
C1847 C1846 1.287 . S
C1847 C1848 1.524 . S
C1847 H1850 0.999 . S
C1848 H1818 0.950 . S
C1848 C1847 1.524 . S
C1848 C1849 1.415 . S
C1849 H1819 0.950 . S
C1849 C1844 1.363 . S
C1849 C1848 1.415 . S
H1850 C1847 0.999 . S
H1851 C1832 0.913 . S
H1852 C1870 0.951 . S
H1853 C1872 0.951 . S
H1854 C1874 0.950 . S
H1855 C1875 0.950 . S
H1856 C1877 0.950 . S
H1857 C1880 0.950 . S
H1858 C1881 0.950 . S
H1859 C1883 0.950 . S
H1860 C1884 0.950 . S
H1861 C1885 0.951 . S
H1862 C1887 0.951 . S
H1863 C1889 0.950 . S
H1864 C1890 0.950 . S
H1865 C1892 0.950 . S
H1866 C1895 0.950 . S
H1867 C1896 0.950 . S
H1868 C1898 0.950 . S
H1869 C1899 0.950 . S
C1870 H1852 0.951 . S
C1870 C1871 1.366 . S
C1870 C1872 1.388 . S
C1871 C1870 1.366 . S
C1871 C1875 1.385 . S
C1872 H1853 0.951 . S
C1872 C1870 1.388 . S
C1872 C1873 1.366 . S
C1873 C1872 1.366 . S
C1873 C1874 1.414 . S
C1873 C1876 1.499 . S
C1874 H1854 0.950 . S
C1874 C1873 1.414 . S
C1874 C1875 1.374 . S
C1875 H1855 0.950 . S
C1875 C1871 1.385 . S
C1875 C1874 1.374 . S
C1876 C1873 1.499 . S
C1876 C1877 1.373 . S
C1876 C1878 1.389 . S
C1877 H1856 0.950 . S
C1877 C1876 1.373 . S
C1877 C1893 1.377 . S
C1878 C1876 1.389 . S
C1878 C1879 1.524 . S
C1878 C1892 1.377 . S
C1879 C1878 1.524 . S
C1879 C1880 1.397 . S
C1879 C1884 1.363 . S
C1880 H1857 0.950 . S
C1880 C1879 1.397 . S
C1880 C1881 1.334 . S
C1881 H1858 0.950 . S
C1881 C1880 1.334 . S
C1881 C1882 1.287 . S
C1882 C1881 1.287 . S
C1882 C1883 1.524 . S
C1882 H1901 0.913 . S
C1883 H1859 0.950 . S
C1883 C1882 1.524 . S
C1883 C1884 1.415 . S
C1884 H1860 0.950 . S
C1884 C1879 1.363 . S
C1884 C1883 1.415 . S
C1885 H1861 0.951 . S
C1885 C1886 1.366 . S
C1885 C1887 1.388 . S
C1886 C1885 1.366 . S
C1886 C1890 1.385 . S
C1887 H1862 0.951 . S
C1887 C1885 1.388 . S
C1887 C1888 1.366 . S
C1888 C1887 1.366 . S
C1888 C1889 1.414 . S
C1888 C1891 1.499 . S
C1889 H1863 0.950 . S
C1889 C1888 1.414 . S
C1889 C1890 1.374 . S
C1890 H1864 0.950 . S
C1890 C1886 1.385 . S
C1890 C1889 1.374 . S
C1891 C1888 1.499 . S
C1891 C1892 1.373 . S
C1891 C1893 1.389 . S
C1892 H1865 0.950 . S
C1892 C1878 1.377 . S
C1892 C1891 1.373 . S
C1893 C1877 1.377 . S
C1893 C1891 1.389 . S
C1893 C1894 1.524 . S
C1894 C1893 1.524 . S
C1894 C1895 1.397 . S
C1894 C1899 1.363 . S
C1895 H1866 0.950 . S
C1895 C1894 1.397 . S
C1895 C1896 1.334 . S
C1896 H1867 0.950 . S
C1896 C1895 1.334 . S
C1896 C1897 1.287 . S
C1897 C1896 1.287 . S
C1897 C1898 1.524 . S
C1897 H1900 0.999 . S
C1898 H1868 0.950 . S
C1898 C1897 1.524 . S
C1898 C1899 1.415 . S
C1899 H1869 0.950 . S
C1899 C1894 1.363 . S
C1899 C1898 1.415 . S
H1900 C1897 0.999 . S
H1901 C1882 0.913 . S
H1902 C1920 0.951 . S
H1903 C1922 0.951 . S
H1904 C1924 0.950 . S
H1905 C1925 0.950 . S
H1906 C1927 0.950 . S
H1907 C1930 0.950 . S
H1908 C1931 0.950 . S
H1909 C1933 0.950 . S
H1910 C1934 0.950 . S
H1911 C1935 0.951 . S
H1912 C1937 0.951 . S
H1913 C1939 0.950 . S
H1914 C1940 0.950 . S
H1915 C1942 0.950 . S
H1916 C1945 0.950 . S
H1917 C1946 0.950 . S
H1918 C1948 0.950 . S
H1919 C1949 0.950 . S
C1920 H1902 0.951 . S
C1920 C1921 1.366 . S
C1920 C1922 1.388 . S
C1921 C1920 1.366 . S
C1921 C1925 1.385 . S
C1922 H1903 0.951 . S
C1922 C1920 1.388 . S
C1922 C1923 1.366 . S
C1923 C1922 1.366 . S
C1923 C1924 1.414 . S
C1923 C1926 1.499 . S
C1924 H1904 0.950 . S
C1924 C1923 1.414 . S
C1924 C1925 1.374 . S
C1925 H1905 0.950 . S
C1925 C1921 1.385 . S
C1925 C1924 1.374 . S
C1926 C1923 1.499 . S
C1926 C1927 1.373 . S
C1926 C1928 1.389 . S
C1927 H1906 0.950 . S
C1927 C1926 1.373 . S
C1927 C1943 1.377 . S
C1928 C1926 1.389 . S
C1928 C1929 1.524 . S
C1928 C1942 1.377 . S
C1929 C1928 1.524 . S
C1929 C1930 1.397 . S
C1929 C1934 1.363 . S
C1930 H1907 0.950 . S
C1930 C1929 1.397 . S
C1930 C1931 1.334 . S
C1931 H1908 0.950 . S
C1931 C1930 1.334 . S
C1931 C1932 1.287 . S
C1932 C1931 1.287 . S
C1932 C1933 1.524 . S
C1932 H1951 0.913 . S
C1933 H1909 0.950 . S
C1933 C1932 1.524 . S
C1933 C1934 1.415 . S
C1934 H1910 0.950 . S
C1934 C1929 1.363 . S
C1934 C1933 1.415 . S
C1935 H1911 0.951 . S
C1935 C1936 1.366 . S
C1935 C1937 1.388 . S
C1936 C1935 1.366 . S
C1936 C1940 1.385 . S
C1937 H1912 0.951 . S
C1937 C1935 1.388 . S
C1937 C1938 1.366 . S
C1938 C1937 1.366 . S
C1938 C1939 1.414 . S
C1938 C1941 1.499 . S
C1939 H1913 0.950 . S
C1939 C1938 1.414 . S
C1939 C1940 1.374 . S
C1940 H1914 0.950 . S
C1940 C1936 1.385 . S
C1940 C1939 1.374 . S
C1941 C1938 1.499 . S
C1941 C1942 1.373 . S
C1941 C1943 1.389 . S
C1942 H1915 0.950 . S
C1942 C1928 1.377 . S
C1942 C1941 1.373 . S
C1943 C1927 1.377 . S
C1943 C1941 1.389 . S
C1943 C1944 1.524 . S
C1944 C1943 1.524 . S
C1944 C1945 1.397 . S
C1944 C1949 1.363 . S
C1945 H1916 0.950 . S
C1945 C1944 1.397 . S
C1945 C1946 1.334 . S
C1946 H1917 0.950 . S
C1946 C1945 1.334 . S
C1946 C1947 1.287 . S
C1947 C1946 1.287 . S
C1947 C1948 1.524 . S
C1947 H1950 0.999 . S
C1948 H1918 0.950 . S
C1948 C1947 1.524 . S
C1948 C1949 1.415 . S
C1949 H1919 0.950 . S
C1949 C1944 1.363 . S
C1949 C1948 1.415 . S
H1950 C1947 0.999 . S
H1951 C1932 0.913 . S
H1952 C1970 0.951 . S
H1953 C1972 0.951 . S
H1954 C1974 0.950 . S
H1955 C1975 0.950 . S
H1956 C1977 0.950 . S
H1957 C1980 0.950 . S
H1958 C1981 0.950 . S
H1959 C1983 0.950 . S
H1960 C1984 0.950 . S
H1961 C1985 0.951 . S
H1962 C1987 0.951 . S
H1963 C1989 0.950 . S
H1964 C1990 0.950 . S
H1965 C1992 0.950 . S
H1966 C1995 0.950 . S
H1967 C1996 0.950 . S
H1968 C1998 0.950 . S
H1969 C1999 0.950 . S
C1970 H1952 0.951 . S
C1970 C1971 1.366 . S
C1970 C1972 1.388 . S
C1971 C1970 1.366 . S
C1971 C1975 1.385 . S
C1972 H1953 0.951 . S
C1972 C1970 1.388 . S
C1972 C1973 1.366 . S
C1973 C1972 1.366 . S
C1973 C1974 1.414 . S
C1973 C1976 1.499 . S
C1974 H1954 0.950 . S
C1974 C1973 1.414 . S
C1974 C1975 1.374 . S
C1975 H1955 0.950 . S
C1975 C1971 1.385 . S
C1975 C1974 1.374 . S
C1976 C1973 1.499 . S
C1976 C1977 1.373 . S
C1976 C1978 1.389 . S
C1977 H1956 0.950 . S
C1977 C1976 1.373 . S
C1977 C1993 1.377 . S
C1978 C1976 1.389 . S
C1978 C1979 1.524 . S
C1978 C1992 1.377 . S
C1979 C1978 1.524 . S
C1979 C1980 1.397 . S
C1979 C1984 1.363 . S
C1980 H1957 0.950 . S
C1980 C1979 1.397 . S
C1980 C1981 1.334 . S
C1981 H1958 0.950 . S
C1981 C1980 1.334 . S
C1981 C1982 1.287 . S
C1982 C1981 1.287 . S
C1982 C1983 1.524 . S
C1982 H2001 0.913 . S
C1983 H1959 0.950 . S
C1983 C1982 1.524 . S
C1983 C1984 1.415 . S
C1984 H1960 0.950 . S
C1984 C1979 1.363 . S
C1984 C1983 1.415 . S
C1985 H1961 0.951 . S
C1985 C1986 1.366 . S
C1985 C1987 1.388 . S
C1986 C1985 1.366 . S
C1986 C1990 1.385 . S
C1987 H1962 0.951 . S
C1987 C1985 1.388 . S
C1987 C1988 1.366 . S
C1988 C1987 1.366 . S
C1988 C1989 1.414 . S
C1988 C1991 1.499 . S
C1989 H1963 0.950 . S
C1989 C1988 1.414 . S
C1989 C1990 1.374 . S
C1990 H1964 0.950 . S
C1990 C1986 1.385 . S
C1990 C1989 1.374 . S
C1991 C1988 1.499 . S
C1991 C1992 1.373 . S
C1991 C1993 1.389 . S
C1992 H1965 0.950 . S
C1992 C1978 1.377 . S
C1992 C1991 1.373 . S
C1993 C1977 1.377 . S
C1993 C1991 1.389 . S
C1993 C1994 1.524 . S
C1994 C1993 1.524 . S
C1994 C1995 1.397 . S
C1994 C1999 1.363 . S
C1995 H1966 0.950 . S
C1995 C1994 1.397 . S
C1995 C1996 1.334 . S
C1996 H1967 0.950 . S
C1996 C1995 1.334 . S
C1996 C1997 1.287 . S
C1997 C1996 1.287 . S
C1997 C1998 1.524 . S
C1997 H2000 0.999 . S
C1998 H1968 0.950 . S
C1998 C1997 1.524 . S
C1998 C1999 1.415 . S
C1999 H1969 0.950 . S
C1999 C1994 1.363 . S
C1999 C1998 1.415 . S
H2000 C1997 0.999 . S
H2001 C1982 0.913 . S
H2002 C2020 0.951 . S
H2003 C2022 0.951 . S
H2004 C2024 0.950 . S
H2005 C2025 0.950 . S
H2006 C2027 0.950 . S
H2007 C2030 0.950 . S
H2008 C2031 0.950 . S
H2009 C2033 0.950 . S
H2010 C2034 0.950 . S
H2011 C2035 0.951 . S
H2012 C2037 0.951 . S
H2013 C2039 0.950 . S
H2014 C2040 0.950 . S
H2015 C2042 0.950 . S
H2016 C2045 0.950 . S
H2017 C2046 0.950 . S
H2018 C2048 0.950 . S
H2019 C2049 0.950 . S
C2020 H2002 0.951 . S
C2020 C2021 1.366 . S
C2020 C2022 1.388 . S
C2021 C2020 1.366 . S
C2021 C2025 1.385 . S
C2022 H2003 0.951 . S
C2022 C2020 1.388 . S
C2022 C2023 1.366 . S
C2023 C2022 1.366 . S
C2023 C2024 1.414 . S
C2023 C2026 1.499 . S
C2024 H2004 0.950 . S
C2024 C2023 1.414 . S
C2024 C2025 1.374 . S
C2025 H2005 0.950 . S
C2025 C2021 1.385 . S
C2025 C2024 1.374 . S
C2026 C2023 1.499 . S
C2026 C2027 1.373 . S
C2026 C2028 1.389 . S
C2027 H2006 0.950 . S
C2027 C2026 1.373 . S
C2027 C2043 1.377 . S
C2028 C2026 1.389 . S
C2028 C2029 1.524 . S
C2028 C2042 1.377 . S
C2029 C2028 1.524 . S
C2029 C2030 1.397 . S
C2029 C2034 1.363 . S
C2030 H2007 0.950 . S
C2030 C2029 1.397 . S
C2030 C2031 1.334 . S
C2031 H2008 0.950 . S
C2031 C2030 1.334 . S
C2031 C2032 1.287 . S
C2032 C2031 1.287 . S
C2032 C2033 1.524 . S
C2032 H2051 0.913 . S
C2033 H2009 0.950 . S
C2033 C2032 1.524 . S
C2033 C2034 1.415 . S
C2034 H2010 0.950 . S
C2034 C2029 1.363 . S
C2034 C2033 1.415 . S
C2035 H2011 0.951 . S
C2035 C2036 1.366 . S
C2035 C2037 1.388 . S
C2036 C2035 1.366 . S
C2036 C2040 1.385 . S
C2037 H2012 0.951 . S
C2037 C2035 1.388 . S
C2037 C2038 1.366 . S
C2038 C2037 1.366 . S
C2038 C2039 1.414 . S
C2038 C2041 1.499 . S
C2039 H2013 0.950 . S
C2039 C2038 1.414 . S
C2039 C2040 1.374 . S
C2040 H2014 0.950 . S
C2040 C2036 1.385 . S
C2040 C2039 1.374 . S
C2041 C2038 1.499 . S
C2041 C2042 1.373 . S
C2041 C2043 1.389 . S
C2042 H2015 0.950 . S
C2042 C2028 1.377 . S
C2042 C2041 1.373 . S
C2043 C2027 1.377 . S
C2043 C2041 1.389 . S
C2043 C2044 1.524 . S
C2044 C2043 1.524 . S
C2044 C2045 1.397 . S
C2044 C2049 1.363 . S
C2045 H2016 0.950 . S
C2045 C2044 1.397 . S
C2045 C2046 1.334 . S
C2046 H2017 0.950 . S
C2046 C2045 1.334 . S
C2046 C2047 1.287 . S
C2047 C2046 1.287 . S
C2047 C2048 1.524 . S
C2047 H2050 0.999 . S
C2048 H2018 0.950 . S
C2048 C2047 1.524 . S
C2048 C2049 1.415 . S
C2049 H2019 0.950 . S
C2049 C2044 1.363 . S
C2049 C2048 1.415 . S
H2050 C2047 0.999 . S
H2051 C2032 0.913 . S
H2052 C2070 0.951 . S
H2053 C2072 0.951 . S
H2054 C2074 0.950 . S
H2055 C2075 0.950 . S
H2056 C2077 0.950 . S
H2057 C2080 0.950 . S
H2058 C2081 0.950 . S
H2059 C2083 0.950 . S
H2060 C2084 0.950 . S
H2061 C2085 0.951 . S
H2062 C2087 0.951 . S
H2063 C2089 0.950 . S
H2064 C2090 0.950 . S
H2065 C2092 0.950 . S
H2066 C2095 0.950 . S
H2067 C2096 0.950 . S
H2068 C2098 0.950 . S
H2069 C2099 0.950 . S
C2070 H2052 0.951 . S
C2070 C2071 1.366 . S
C2070 C2072 1.388 . S
C2071 C2070 1.366 . S
C2071 C2075 1.385 . S
C2072 H2053 0.951 . S
C2072 C2070 1.388 . S
C2072 C2073 1.366 . S
C2073 C2072 1.366 . S
C2073 C2074 1.414 . S
C2073 C2076 1.499 . S
C2074 H2054 0.950 . S
C2074 C2073 1.414 . S
C2074 C2075 1.374 . S
C2075 H2055 0.950 . S
C2075 C2071 1.385 . S
C2075 C2074 1.374 . S
C2076 C2073 1.499 . S
C2076 C2077 1.373 . S
C2076 C2078 1.389 . S
C2077 H2056 0.950 . S
C2077 C2076 1.373 . S
C2077 C2093 1.377 . S
C2078 C2076 1.389 . S
C2078 C2079 1.524 . S
C2078 C2092 1.377 . S
C2079 C2078 1.524 . S
C2079 C2080 1.397 . S
C2079 C2084 1.363 . S
C2080 H2057 0.950 . S
C2080 C2079 1.397 . S
C2080 C2081 1.334 . S
C2081 H2058 0.950 . S
C2081 C2080 1.334 . S
C2081 C2082 1.287 . S
C2082 C2081 1.287 . S
C2082 C2083 1.524 . S
C2082 H2101 0.913 . S
C2083 H2059 0.950 . S
C2083 C2082 1.524 . S
C2083 C2084 1.415 . S
C2084 H2060 0.950 . S
C2084 C2079 1.363 . S
C2084 C2083 1.415 . S
C2085 H2061 0.951 . S
C2085 C2086 1.366 . S
C2085 C2087 1.388 . S
C2086 C2085 1.366 . S
C2086 C2090 1.385 . S
C2087 H2062 0.951 . S
C2087 C2085 1.388 . S
C2087 C2088 1.366 . S
C2088 C2087 1.366 . S
C2088 C2089 1.414 . S
C2088 C2091 1.499 . S
C2089 H2063 0.950 . S
C2089 C2088 1.414 . S
C2089 C2090 1.374 . S
C2090 H2064 0.950 . S
C2090 C2086 1.385 . S
C2090 C2089 1.374 . S
C2091 C2088 1.499 . S
C2091 C2092 1.373 . S
C2091 C2093 1.389 . S
C2092 H2065 0.950 . S
C2092 C2078 1.377 . S
C2092 C2091 1.373 . S
C2093 C2077 1.377 . S
C2093 C2091 1.389 . S
C2093 C2094 1.524 . S
C2094 C2093 1.524 . S
C2094 C2095 1.397 . S
C2094 C2099 1.363 . S
C2095 H2066 0.950 . S
C2095 C2094 1.397 . S
C2095 C2096 1.334 . S
C2096 H2067 0.950 . S
C2096 C2095 1.334 . S
C2096 C2097 1.287 . S
C2097 C2096 1.287 . S
C2097 C2098 1.524 . S
C2097 H2100 0.999 . S
C2098 H2068 0.950 . S
C2098 C2097 1.524 . S
C2098 C2099 1.415 . S
C2099 H2069 0.950 . S
C2099 C2094 1.363 . S
C2099 C2098 1.415 . S
H2100 C2097 0.999 . S
H2101 C2082 0.913 . S
H2102 C2120 0.951 . S
H2103 C2122 0.951 . S
H2104 C2124 0.950 . S
H2105 C2125 0.950 . S
H2106 C2127 0.950 . S
H2107 C2130 0.950 . S
H2108 C2131 0.950 . S
H2109 C2133 0.950 . S
H2110 C2134 0.950 . S
H2111 C2135 0.951 . S
H2112 C2137 0.951 . S
H2113 C2139 0.950 . S
H2114 C2140 0.950 . S
H2115 C2142 0.950 . S
H2116 C2145 0.950 . S
H2117 C2146 0.950 . S
H2118 C2148 0.950 . S
H2119 C2149 0.950 . S
C2120 H2102 0.951 . S
C2120 C2121 1.366 . S
C2120 C2122 1.388 . S
C2121 C2120 1.366 . S
C2121 C2125 1.385 . S
C2122 H2103 0.951 . S
C2122 C2120 1.388 . S
C2122 C2123 1.366 . S
C2123 C2122 1.366 . S
C2123 C2124 1.414 . S
C2123 C2126 1.499 . S
C2124 H2104 0.950 . S
C2124 C2123 1.414 . S
C2124 C2125 1.374 . S
C2125 H2105 0.950 . S
C2125 C2121 1.385 . S
C2125 C2124 1.374 . S
C2126 C2123 1.499 . S
C2126 C2127 1.373 . S
C2126 C2128 1.389 . S
C2127 H2106 0.950 . S
C2127 C2126 1.373 . S
C2127 C2143 1.377 . S
C2128 C2126 1.389 . S
C2128 C2129 1.524 . S
C2128 C2142 1.377 . S
C2129 C2128 1.524 . S
C2129 C2130 1.397 . S
C2129 C2134 1.363 . S
C2130 H2107 0.950 . S
C2130 C2129 1.397 . S
C2130 C2131 1.334 . S
C2131 H2108 0.950 . S
C2131 C2130 1.334 . S
C2131 C2132 1.287 . S
C2132 C2131 1.287 . S
C2132 C2133 1.524 . S
C2132 H2151 0.913 . S
C2133 H2109 0.950 . S
C2133 C2132 1.524 . S
C2133 C2134 1.415 . S
C2134 H2110 0.950 . S
C2134 C2129 1.363 . S
C2134 C2133 1.415 . S
C2135 H2111 0.951 . S
C2135 C2136 1.366 . S
C2135 C2137 1.388 . S
C2136 C2135 1.366 . S
C2136 C2140 1.385 . S
C2137 H2112 0.951 . S
C2137 C2135 1.388 . S
C2137 C2138 1.366 . S
C2138 C2137 1.366 . S
C2138 C2139 1.414 . S
C2138 C2141 1.499 . S
C2139 H2113 0.950 . S
C2139 C2138 1.414 . S
C2139 C2140 1.374 . S
C2140 H2114 0.950 . S
C2140 C2136 1.385 . S
C2140 C2139 1.374 . S
C2141 C2138 1.499 . S
C2141 C2142 1.373 . S
C2141 C2143 1.389 . S
C2142 H2115 0.950 . S
C2142 C2128 1.377 . S
C2142 C2141 1.373 . S
C2143 C2127 1.377 . S
C2143 C2141 1.389 . S
C2143 C2144 1.524 . S
C2144 C2143 1.524 . S
C2144 C2145 1.397 . S
C2144 C2149 1.363 . S
C2145 H2116 0.950 . S
C2145 C2144 1.397 . S
C2145 C2146 1.334 . S
C2146 H2117 0.950 . S
C2146 C2145 1.334 . S
C2146 C2147 1.287 . S
C2147 C2146 1.287 . S
C2147 C2148 1.524 . S
C2147 H2150 0.999 . S
C2148 H2118 0.950 . S
C2148 C2147 1.524 . S
C2148 C2149 1.415 . S
C2149 H2119 0.950 . S
C2149 C2144 1.363 . S
C2149 C2148 1.415 . S
H2150 C2147 0.999 . S
H2151 C2132 0.913 . S
H2152 C2170 0.951 . S
H2153 C2172 0.951 . S
H2154 C2174 0.950 . S
H2155 C2175 0.950 . S
H2156 C2177 0.950 . S
H2157 C2180 0.950 . S
H2158 C2181 0.950 . S
H2159 C2183 0.950 1_655 S
H2160 C2184 0.950 . S
H2161 C2185 0.951 . S
H2162 C2187 0.951 . S
H2163 C2189 0.950 . S
H2164 C2190 0.950 . S
H2165 C2192 0.950 . S
H2166 C2195 0.950 . S
H2167 C2196 0.950 . S
H2168 C2198 0.950 . S
H2169 C2199 0.950 . S
C2170 H2152 0.951 . S
C2170 C2171 1.366 . S
C2170 C2172 1.388 . S
C2171 C2170 1.366 . S
C2171 C2175 1.385 . S
C2172 H2153 0.951 . S
C2172 C2170 1.388 . S
C2172 C2173 1.366 . S
C2173 C2172 1.366 . S
C2173 C2174 1.414 . S
C2173 C2176 1.499 . S
C2174 H2154 0.950 . S
C2174 C2173 1.414 . S
C2174 C2175 1.374 . S
C2175 H2155 0.950 . S
C2175 C2171 1.385 . S
C2175 C2174 1.374 . S
C2176 C2173 1.499 . S
C2176 C2177 1.373 . S
C2176 C2178 1.389 . S
C2177 H2156 0.950 . S
C2177 C2176 1.373 . S
C2177 C2193 1.377 . S
C2178 C2176 1.389 . S
C2178 C2179 1.524 . S
C2178 C2192 1.377 . S
C2179 C2178 1.524 . S
C2179 C2180 1.397 . S
C2179 C2184 1.363 . S
C2180 H2157 0.950 . S
C2180 C2179 1.397 . S
C2180 C2181 1.334 . S
C2181 H2158 0.950 . S
C2181 C2180 1.334 . S
C2181 C2182 1.287 . S
C2182 C2181 1.287 . S
C2182 C2183 1.524 . S
C2182 H2201 0.913 . S
C2183 H2159 0.950 1_455 S
C2183 C2182 1.524 . S
C2183 C2184 1.415 . S
C2184 H2160 0.950 . S
C2184 C2179 1.363 . S
C2184 C2183 1.415 . S
C2185 H2161 0.951 . S
C2185 C2186 1.366 . S
C2185 C2187 1.388 . S
C2186 C2185 1.366 . S
C2186 C2190 1.385 . S
C2187 H2162 0.951 . S
C2187 C2185 1.388 . S
C2187 C2188 1.366 . S
C2188 C2187 1.366 . S
C2188 C2189 1.414 . S
C2188 C2191 1.499 . S
C2189 H2163 0.950 . S
C2189 C2188 1.414 . S
C2189 C2190 1.374 . S
C2190 H2164 0.950 . S
C2190 C2186 1.385 . S
C2190 C2189 1.374 . S
C2191 C2188 1.499 . S
C2191 C2192 1.373 . S
C2191 C2193 1.389 . S
C2192 H2165 0.950 . S
C2192 C2178 1.377 . S
C2192 C2191 1.373 . S
C2193 C2177 1.377 . S
C2193 C2191 1.389 . S
C2193 C2194 1.524 . S
C2194 C2193 1.524 . S
C2194 C2195 1.397 . S
C2194 C2199 1.363 . S
C2195 H2166 0.950 . S
C2195 C2194 1.397 . S
C2195 C2196 1.334 . S
C2196 H2167 0.950 . S
C2196 C2195 1.334 . S
C2196 C2197 1.287 . S
C2197 C2196 1.287 . S
C2197 C2198 1.524 . S
C2197 H2200 0.999 . S
C2198 H2168 0.950 . S
C2198 C2197 1.524 . S
C2198 C2199 1.415 . S
C2199 H2169 0.950 . S
C2199 C2194 1.363 . S
C2199 C2198 1.415 . S
H2200 C2197 0.999 . S
H2201 C2182 0.913 . S
H2202 C2220 0.951 . S
H2203 C2222 0.951 . S
H2204 C2224 0.950 . S
H2205 C2225 0.950 . S
H2206 C2227 0.950 . S
H2207 C2230 0.950 . S
H2208 C2231 0.950 . S
H2209 C2233 0.950 . S
H2210 C2234 0.950 . S
H2211 C2235 0.951 . S
H2212 C2237 0.951 . S
H2213 C2239 0.950 . S
H2214 C2240 0.950 . S
H2215 C2242 0.950 . S
H2216 C2245 0.950 . S
H2217 C2246 0.950 . S
H2218 C2248 0.950 . S
H2219 C2249 0.950 . S
C2220 H2202 0.951 . S
C2220 C2221 1.366 . S
C2220 C2222 1.388 . S
C2221 C2220 1.366 . S
C2221 C2225 1.385 . S
C2222 H2203 0.951 . S
C2222 C2220 1.388 . S
C2222 C2223 1.366 . S
C2223 C2222 1.366 . S
C2223 C2224 1.414 . S
C2223 C2226 1.499 . S
C2224 H2204 0.950 . S
C2224 C2223 1.414 . S
C2224 C2225 1.374 . S
C2225 H2205 0.950 . S
C2225 C2221 1.385 . S
C2225 C2224 1.374 . S
C2226 C2223 1.499 . S
C2226 C2227 1.373 . S
C2226 C2228 1.389 . S
C2227 H2206 0.950 . S
C2227 C2226 1.373 . S
C2227 C2243 1.377 . S
C2228 C2226 1.389 . S
C2228 C2229 1.524 . S
C2228 C2242 1.377 . S
C2229 C2228 1.524 . S
C2229 C2230 1.397 . S
C2229 C2234 1.363 . S
C2230 H2207 0.950 . S
C2230 C2229 1.397 . S
C2230 C2231 1.334 . S
C2231 H2208 0.950 . S
C2231 C2230 1.334 . S
C2231 C2232 1.287 . S
C2232 C2231 1.287 . S
C2232 C2233 1.524 . S
C2232 H2251 0.913 . S
C2233 H2209 0.950 . S
C2233 C2232 1.524 . S
C2233 C2234 1.415 . S
C2234 H2210 0.950 . S
C2234 C2229 1.363 . S
C2234 C2233 1.415 . S
C2235 H2211 0.951 . S
C2235 C2236 1.366 . S
C2235 C2237 1.388 . S
C2236 C2235 1.366 . S
C2236 C2240 1.385 . S
C2237 H2212 0.951 . S
C2237 C2235 1.388 . S
C2237 C2238 1.366 . S
C2238 C2237 1.366 . S
C2238 C2239 1.414 . S
C2238 C2241 1.499 . S
C2239 H2213 0.950 . S
C2239 C2238 1.414 . S
C2239 C2240 1.374 . S
C2240 H2214 0.950 . S
C2240 C2236 1.385 . S
C2240 C2239 1.374 . S
C2241 C2238 1.499 . S
C2241 C2242 1.373 . S
C2241 C2243 1.389 . S
C2242 H2215 0.950 . S
C2242 C2228 1.377 . S
C2242 C2241 1.373 . S
C2243 C2227 1.377 . S
C2243 C2241 1.389 . S
C2243 C2244 1.524 . S
C2244 C2243 1.524 . S
C2244 C2245 1.397 . S
C2244 C2249 1.363 . S
C2245 H2216 0.950 . S
C2245 C2244 1.397 . S
C2245 C2246 1.334 . S
C2246 H2217 0.950 . S
C2246 C2245 1.334 . S
C2246 C2247 1.287 . S
C2247 C2246 1.287 . S
C2247 C2248 1.524 . S
C2247 H2250 0.999 . S
C2248 H2218 0.950 . S
C2248 C2247 1.524 . S
C2248 C2249 1.415 . S
C2249 H2219 0.950 . S
C2249 C2244 1.363 . S
C2249 C2248 1.415 . S
H2250 C2247 0.999 . S
H2251 C2232 0.913 . S
H2252 C2270 0.951 . S
H2253 C2272 0.951 . S
H2254 C2274 0.950 . S
H2255 C2275 0.950 . S
H2256 C2277 0.950 . S
H2257 C2280 0.950 . S
H2258 C2281 0.950 . S
H2259 C2283 0.950 . S
H2260 C2284 0.950 . S
H2261 C2285 0.951 . S
H2262 C2287 0.951 . S
H2263 C2289 0.950 . S
H2264 C2290 0.950 . S
H2265 C2292 0.950 . S
H2266 C2295 0.950 . S
H2267 C2296 0.950 . S
H2268 C2298 0.950 . S
H2269 C2299 0.950 . S
C2270 H2252 0.951 . S
C2270 C2271 1.366 . S
C2270 C2272 1.388 . S
C2271 C2270 1.366 . S
C2271 C2275 1.385 . S
C2272 H2253 0.951 . S
C2272 C2270 1.388 . S
C2272 C2273 1.366 . S
C2273 C2272 1.366 . S
C2273 C2274 1.414 . S
C2273 C2276 1.499 . S
C2274 H2254 0.950 . S
C2274 C2273 1.414 . S
C2274 C2275 1.374 . S
C2275 H2255 0.950 . S
C2275 C2271 1.385 . S
C2275 C2274 1.374 . S
C2276 C2273 1.499 . S
C2276 C2277 1.373 . S
C2276 C2278 1.389 . S
C2277 H2256 0.950 . S
C2277 C2276 1.373 . S
C2277 C2293 1.377 . S
C2278 C2276 1.389 . S
C2278 C2279 1.524 . S
C2278 C2292 1.377 . S
C2279 C2278 1.524 . S
C2279 C2280 1.397 . S
C2279 C2284 1.363 . S
C2280 H2257 0.950 . S
C2280 C2279 1.397 . S
C2280 C2281 1.334 . S
C2281 H2258 0.950 . S
C2281 C2280 1.334 . S
C2281 C2282 1.287 . S
C2282 C2281 1.287 . S
C2282 C2283 1.524 . S
C2282 H2301 0.913 . S
C2283 H2259 0.950 . S
C2283 C2282 1.524 . S
C2283 C2284 1.415 . S
C2284 H2260 0.950 . S
C2284 C2279 1.363 . S
C2284 C2283 1.415 . S
C2285 H2261 0.951 . S
C2285 C2286 1.366 . S
C2285 C2287 1.388 . S
C2286 C2285 1.366 . S
C2286 C2290 1.385 . S
C2287 H2262 0.951 . S
C2287 C2285 1.388 . S
C2287 C2288 1.366 . S
C2288 C2287 1.366 . S
C2288 C2289 1.414 . S
C2288 C2291 1.499 . S
C2289 H2263 0.950 . S
C2289 C2288 1.414 . S
C2289 C2290 1.374 . S
C2290 H2264 0.950 . S
C2290 C2286 1.385 . S
C2290 C2289 1.374 . S
C2291 C2288 1.499 . S
C2291 C2292 1.373 . S
C2291 C2293 1.389 . S
C2292 H2265 0.950 . S
C2292 C2278 1.377 . S
C2292 C2291 1.373 . S
C2293 C2277 1.377 . S
C2293 C2291 1.389 . S
C2293 C2294 1.524 . S
C2294 C2293 1.524 . S
C2294 C2295 1.397 . S
C2294 C2299 1.363 . S
C2295 H2266 0.950 . S
C2295 C2294 1.397 . S
C2295 C2296 1.334 . S
C2296 H2267 0.950 . S
C2296 C2295 1.334 . S
C2296 C2297 1.287 . S
C2297 C2296 1.287 . S
C2297 C2298 1.524 . S
C2297 H2300 0.999 . S
C2298 H2268 0.950 . S
C2298 C2297 1.524 . S
C2298 C2299 1.415 . S
C2299 H2269 0.950 . S
C2299 C2294 1.363 . S
C2299 C2298 1.415 . S
H2300 C2297 0.999 . S
H2301 C2282 0.913 . S
H2302 C2320 0.951 . S
H2303 C2322 0.951 . S
H2304 C2324 0.950 . S
H2305 C2325 0.950 . S
H2306 C2327 0.950 . S
H2307 C2330 0.950 . S
H2308 C2331 0.950 . S
H2309 C2333 0.950 . S
H2310 C2334 0.950 . S
H2311 C2335 0.951 . S
H2312 C2337 0.951 . S
H2313 C2339 0.950 . S
H2314 C2340 0.950 . S
H2315 C2342 0.950 . S
H2316 C2345 0.950 . S
H2317 C2346 0.950 . S
H2318 C2348 0.950 . S
H2319 C2349 0.950 . S
C2320 H2302 0.951 . S
C2320 C2321 1.366 . S
C2320 C2322 1.388 . S
C2321 C2320 1.366 . S
C2321 C2325 1.385 . S
C2322 H2303 0.951 . S
C2322 C2320 1.388 . S
C2322 C2323 1.366 . S
C2323 C2322 1.366 . S
C2323 C2324 1.414 . S
C2323 C2326 1.499 . S
C2324 H2304 0.950 . S
C2324 C2323 1.414 . S
C2324 C2325 1.374 . S
C2325 H2305 0.950 . S
C2325 C2321 1.385 . S
C2325 C2324 1.374 . S
C2326 C2323 1.499 . S
C2326 C2327 1.373 . S
C2326 C2328 1.389 . S
C2327 H2306 0.950 . S
C2327 C2326 1.373 . S
C2327 C2343 1.377 . S
C2328 C2326 1.389 . S
C2328 C2329 1.524 . S
C2328 C2342 1.377 . S
C2329 C2328 1.524 . S
C2329 C2330 1.397 . S
C2329 C2334 1.363 . S
C2330 H2307 0.950 . S
C2330 C2329 1.397 . S
C2330 C2331 1.334 . S
C2331 H2308 0.950 . S
C2331 C2330 1.334 . S
C2331 C2332 1.287 . S
C2332 C2331 1.287 . S
C2332 C2333 1.524 . S
C2332 H2351 0.913 . S
C2333 H2309 0.950 . S
C2333 C2332 1.524 . S
C2333 C2334 1.415 . S
C2334 H2310 0.950 . S
C2334 C2329 1.363 . S
C2334 C2333 1.415 . S
C2335 H2311 0.951 . S
C2335 C2336 1.366 . S
C2335 C2337 1.388 . S
C2336 C2335 1.366 . S
C2336 C2340 1.385 . S
C2337 H2312 0.951 . S
C2337 C2335 1.388 . S
C2337 C2338 1.366 . S
C2338 C2337 1.366 . S
C2338 C2339 1.414 . S
C2338 C2341 1.499 . S
C2339 H2313 0.950 . S
C2339 C2338 1.414 . S
C2339 C2340 1.374 . S
C2340 H2314 0.950 . S
C2340 C2336 1.385 . S
C2340 C2339 1.374 . S
C2341 C2338 1.499 . S
C2341 C2342 1.373 . S
C2341 C2343 1.389 . S
C2342 H2315 0.950 . S
C2342 C2328 1.377 . S
C2342 C2341 1.373 . S
C2343 C2327 1.377 . S
C2343 C2341 1.389 . S
C2343 C2344 1.524 . S
C2344 C2343 1.524 . S
C2344 C2345 1.397 . S
C2344 C2349 1.363 . S
C2345 H2316 0.950 . S
C2345 C2344 1.397 . S
C2345 C2346 1.334 . S
C2346 H2317 0.950 . S
C2346 C2345 1.334 . S
C2346 C2347 1.287 . S
C2347 C2346 1.287 . S
C2347 C2348 1.524 . S
C2347 H2350 0.999 . S
C2348 H2318 0.950 . S
C2348 C2347 1.524 . S
C2348 C2349 1.415 . S
C2349 H2319 0.950 . S
C2349 C2344 1.363 . S
C2349 C2348 1.415 . S
H2350 C2347 0.999 . S
H2351 C2332 0.913 . S
H2352 C2370 0.951 . S
H2353 C2372 0.951 . S
H2354 C2374 0.950 . S
H2355 C2375 0.950 . S
H2356 C2377 0.950 . S
H2357 C2380 0.950 . S
H2358 C2381 0.950 . S
H2359 C2383 0.950 . S
H2360 C2384 0.955 1_455 S
H2361 C2385 0.951 . S
H2362 C2387 0.951 . S
H2363 C2389 0.950 . S
H2364 C2390 0.950 . S
H2365 C2392 0.950 1_655 S
H2366 C2395 0.950 . S
H2367 C2396 0.950 . S
H2368 C2398 0.950 . S
H2369 C2399 0.950 . S
C2370 H2352 0.951 . S
C2370 C2371 1.366 . S
C2370 C2372 1.388 . S
C2371 C2370 1.366 . S
C2371 C2375 1.385 . S
C2372 H2353 0.951 . S
C2372 C2370 1.388 . S
C2372 C2373 1.366 . S
C2373 C2372 1.366 . S
C2373 C2374 1.414 . S
C2373 C2376 1.499 . S
C2374 H2354 0.950 . S
C2374 C2373 1.414 . S
C2374 C2375 1.374 . S
C2375 H2355 0.950 . S
C2375 C2371 1.385 . S
C2375 C2374 1.374 . S
C2376 C2373 1.499 . S
C2376 C2377 1.373 . S
C2376 C2378 1.389 . S
C2377 H2356 0.950 . S
C2377 C2376 1.373 . S
C2377 C2393 1.377 . S
C2378 C2376 1.389 . S
C2378 C2379 1.524 1_455 S
C2378 C2392 1.377 . S
C2379 C2378 1.524 1_655 S
C2379 C2380 1.397 . S
C2379 C2384 1.363 . S
C2380 H2357 0.950 . S
C2380 C2379 1.397 . S
C2380 C2381 1.334 . S
C2381 H2358 0.950 . S
C2381 C2380 1.334 . S
C2381 C2382 1.287 . S
C2382 C2381 1.287 . S
C2382 C2383 1.524 . S
C2382 H2401 0.913 . S
C2383 H2359 0.950 . S
C2383 C2382 1.524 . S
C2383 C2384 1.415 . S
C2384 H2360 0.955 1_655 S
C2384 C2379 1.363 . S
C2384 C2383 1.415 . S
C2385 H2361 0.951 . S
C2385 C2386 1.366 . S
C2385 C2387 1.388 . S
C2386 C2385 1.366 . S
C2386 C2390 1.385 . S
C2387 H2362 0.951 . S
C2387 C2385 1.388 . S
C2387 C2388 1.366 . S
C2388 C2387 1.366 . S
C2388 C2389 1.414 . S
C2388 C2391 1.499 . S
C2389 H2363 0.950 . S
C2389 C2388 1.414 . S
C2389 C2390 1.374 . S
C2390 H2364 0.950 . S
C2390 C2386 1.385 . S
C2390 C2389 1.374 . S
C2391 C2388 1.499 . S
C2391 C2392 1.373 . S
C2391 C2393 1.389 . S
C2392 H2365 0.950 1_455 S
C2392 C2378 1.377 . S
C2392 C2391 1.373 . S
C2393 C2377 1.377 . S
C2393 C2391 1.389 . S
C2393 C2394 1.524 . S
C2394 C2393 1.524 . S
C2394 C2395 1.397 . S
C2394 C2399 1.363 . S
C2395 H2366 0.950 . S
C2395 C2394 1.397 . S
C2395 C2396 1.334 . S
C2396 H2367 0.950 . S
C2396 C2395 1.334 . S
C2396 C2397 1.287 . S
C2397 C2396 1.287 . S
C2397 C2398 1.524 . S
C2397 H2400 0.999 . S
C2398 H2368 0.950 . S
C2398 C2397 1.524 . S
C2398 C2399 1.415 . S
C2399 H2369 0.950 . S
C2399 C2394 1.363 . S
C2399 C2398 1.415 . S
H2400 C2397 0.999 . S
H2401 C2382 0.913 . S
H2402 C2420 0.951 . S
H2403 C2422 0.951 . S
H2404 C2424 0.950 . S
H2405 C2425 0.950 . S
H2406 C2427 0.950 . S
H2407 C2430 0.950 . S
H2408 C2431 0.950 . S
H2409 C2433 0.950 . S
H2410 C2434 0.950 . S
H2411 C2435 0.951 . S
H2412 C2437 0.951 . S
H2413 C2439 0.950 . S
H2414 C2440 0.950 . S
H2415 C2442 0.950 . S
H2416 C2445 0.950 . S
H2417 C2446 0.950 . S
H2418 C2448 0.950 . S
H2419 C2449 0.950 . S
C2420 H2402 0.951 . S
C2420 C2421 1.366 . S
C2420 C2422 1.388 . S
C2421 C2420 1.366 . S
C2421 C2425 1.385 . S
C2422 H2403 0.951 . S
C2422 C2420 1.388 . S
C2422 C2423 1.366 . S
C2423 C2422 1.366 . S
C2423 C2424 1.414 . S
C2423 C2426 1.499 . S
C2424 H2404 0.950 . S
C2424 C2423 1.414 . S
C2424 C2425 1.374 . S
C2425 H2405 0.950 . S
C2425 C2421 1.385 . S
C2425 C2424 1.374 . S
C2426 C2423 1.499 . S
C2426 C2427 1.373 . S
C2426 C2428 1.389 . S
C2427 H2406 0.950 . S
C2427 C2426 1.373 . S
C2427 C2443 1.377 . S
C2428 C2426 1.389 . S
C2428 C2429 1.524 . S
C2428 C2442 1.377 . S
C2429 C2428 1.524 . S
C2429 C2430 1.397 . S
C2429 C2434 1.363 . S
C2430 H2407 0.950 . S
C2430 C2429 1.397 . S
C2430 C2431 1.334 . S
C2431 H2408 0.950 . S
C2431 C2430 1.334 . S
C2431 C2432 1.287 . S
C2432 C2431 1.287 . S
C2432 C2433 1.524 . S
C2432 H2451 0.913 . S
C2433 H2409 0.950 . S
C2433 C2432 1.524 . S
C2433 C2434 1.415 . S
C2434 H2410 0.950 . S
C2434 C2429 1.363 . S
C2434 C2433 1.415 . S
C2435 H2411 0.951 . S
C2435 C2436 1.366 . S
C2435 C2437 1.388 . S
C2436 C2435 1.366 . S
C2436 C2440 1.385 . S
C2437 H2412 0.951 . S
C2437 C2435 1.388 . S
C2437 C2438 1.366 . S
C2438 C2437 1.366 . S
C2438 C2439 1.414 . S
C2438 C2441 1.499 . S
C2439 H2413 0.950 . S
C2439 C2438 1.414 . S
C2439 C2440 1.374 . S
C2440 H2414 0.950 . S
C2440 C2436 1.385 . S
C2440 C2439 1.374 . S
C2441 C2438 1.499 . S
C2441 C2442 1.373 . S
C2441 C2443 1.389 . S
C2442 H2415 0.950 . S
C2442 C2428 1.377 . S
C2442 C2441 1.373 . S
C2443 C2427 1.377 . S
C2443 C2441 1.389 . S
C2443 C2444 1.524 . S
C2444 C2443 1.524 . S
C2444 C2445 1.397 . S
C2444 C2449 1.363 . S
C2445 H2416 0.950 . S
C2445 C2444 1.397 . S
C2445 C2446 1.334 . S
C2446 H2417 0.950 . S
C2446 C2445 1.334 . S
C2446 C2447 1.287 . S
C2447 C2446 1.287 . S
C2447 C2448 1.524 . S
C2447 H2450 0.999 . S
C2448 H2418 0.950 . S
C2448 C2447 1.524 . S
C2448 C2449 1.415 . S
C2449 H2419 0.950 . S
C2449 C2444 1.363 . S
C2449 C2448 1.415 . S
H2450 C2447 0.999 . S
H2451 C2432 0.913 . S
H2452 C2470 0.951 . S
H2453 C2472 0.951 . S
H2454 C2474 0.950 . S
H2455 C2475 0.950 . S
H2456 C2477 0.950 . S
H2457 C2480 0.950 . S
H2458 C2481 0.950 . S
H2459 C2483 0.950 . S
H2460 C2484 0.950 . S
H2461 C2485 0.951 . S
H2462 C2487 0.951 . S
H2463 C2489 0.950 . S
H2464 C2490 0.950 . S
H2465 C2492 0.950 . S
H2466 C2495 0.950 . S
H2467 C2496 0.950 . S
H2468 C2498 0.950 . S
H2469 C2499 0.950 . S
C2470 H2452 0.951 . S
C2470 C2471 1.366 . S
C2470 C2472 1.388 . S
C2471 C2470 1.366 . S
C2471 C2475 1.385 . S
C2472 H2453 0.951 . S
C2472 C2470 1.388 . S
C2472 C2473 1.366 . S
C2473 C2472 1.366 . S
C2473 C2474 1.414 . S
C2473 C2476 1.499 . S
C2474 H2454 0.950 . S
C2474 C2473 1.414 . S
C2474 C2475 1.374 . S
C2475 H2455 0.950 . S
C2475 C2471 1.385 . S
C2475 C2474 1.374 . S
C2476 C2473 1.499 . S
C2476 C2477 1.373 . S
C2476 C2478 1.389 . S
C2477 H2456 0.950 . S
C2477 C2476 1.373 . S
C2477 C2493 1.377 . S
C2478 C2476 1.389 . S
C2478 C2479 1.524 . S
C2478 C2492 1.377 . S
C2479 C2478 1.524 . S
C2479 C2480 1.397 . S
C2479 C2484 1.363 . S
C2480 H2457 0.950 . S
C2480 C2479 1.397 . S
C2480 C2481 1.334 . S
C2481 H2458 0.950 . S
C2481 C2480 1.334 . S
C2481 C2482 1.287 . S
C2482 C2481 1.287 . S
C2482 C2483 1.524 . S
C2482 H2501 0.913 . S
C2483 H2459 0.950 . S
C2483 C2482 1.524 . S
C2483 C2484 1.415 . S
C2484 H2460 0.950 . S
C2484 C2479 1.363 . S
C2484 C2483 1.415 . S
C2485 H2461 0.951 . S
C2485 C2486 1.366 . S
C2485 C2487 1.388 . S
C2486 C2485 1.366 . S
C2486 C2490 1.385 . S
C2487 H2462 0.951 . S
C2487 C2485 1.388 . S
C2487 C2488 1.366 . S
C2488 C2487 1.366 . S
C2488 C2489 1.414 . S
C2488 C2491 1.499 . S
C2489 H2463 0.950 . S
C2489 C2488 1.414 . S
C2489 C2490 1.374 . S
C2490 H2464 0.950 . S
C2490 C2486 1.385 . S
C2490 C2489 1.374 . S
C2491 C2488 1.499 . S
C2491 C2492 1.373 . S
C2491 C2493 1.389 . S
C2492 H2465 0.950 . S
C2492 C2478 1.377 . S
C2492 C2491 1.373 . S
C2493 C2477 1.377 . S
C2493 C2491 1.389 . S
C2493 C2494 1.524 . S
C2494 C2493 1.524 . S
C2494 C2495 1.397 . S
C2494 C2499 1.363 . S
C2495 H2466 0.950 . S
C2495 C2494 1.397 . S
C2495 C2496 1.334 . S
C2496 H2467 0.950 . S
C2496 C2495 1.334 . S
C2496 C2497 1.287 . S
C2497 C2496 1.287 . S
C2497 C2498 1.524 . S
C2497 H2500 0.999 . S
C2498 H2468 0.950 . S
C2498 C2497 1.524 . S
C2498 C2499 1.415 . S
C2499 H2469 0.950 . S
C2499 C2494 1.363 . S
C2499 C2498 1.415 . S
H2500 C2497 0.999 . S
H2501 C2482 0.913 . S
H2502 C2520 0.951 . S
H2503 C2522 0.951 . S
H2504 C2524 0.964 . S
H2505 C2525 0.950 . S
H2506 C2527 0.950 . S
H2507 C2530 0.950 . S
H2508 C2531 0.950 1_455 S
H2509 C2533 0.950 . S
H2510 C2534 0.950 . S
H2511 C2535 0.951 . S
H2512 C2537 0.951 . S
H2513 C2539 0.950 . S
H2514 C2540 0.950 . S
H2515 C2542 0.950 . S
H2516 C2545 0.950 . S
H2517 C2546 0.950 . S
H2518 C2548 0.950 . S
H2519 C2549 0.950 . S
C2520 H2502 0.951 . S
C2520 C2521 1.366 . S
C2520 C2522 1.388 1_455 S
C2521 C2520 1.366 . S
C2521 C2525 1.385 . S
C2522 H2503 0.951 . S
C2522 C2520 1.388 1_655 S
C2522 C2523 1.366 . S
C2523 C2522 1.366 . S
C2523 C2524 1.463 . S
C2523 C2526 1.499 . S
C2524 H2504 0.964 . S
C2524 C2523 1.463 . S
C2524 C2525 1.314 1_655 S
C2525 H2505 0.950 . S
C2525 C2521 1.385 . S
C2525 C2524 1.314 1_455 S
C2526 C2523 1.499 . S
C2526 C2527 1.373 . S
C2526 C2528 1.389 . S
C2527 H2506 0.950 . S
C2527 C2526 1.373 . S
C2527 C2543 1.377 . S
C2528 C2526 1.389 . S
C2528 C2529 1.524 . S
C2528 C2542 1.377 . S
C2529 C2528 1.524 . S
C2529 C2530 1.397 . S
C2529 C2534 1.363 . S
C2530 H2507 0.950 . S
C2530 C2529 1.397 . S
C2530 C2531 1.334 . S
C2531 H2508 0.950 1_655 S
C2531 C2530 1.334 . S
C2531 C2532 1.287 . S
C2532 C2531 1.287 . S
C2532 C2533 1.524 . S
C2532 H2551 0.913 . S
C2533 H2509 0.950 . S
C2533 C2532 1.524 . S
C2533 C2534 1.415 . S
C2534 H2510 0.950 . S
C2534 C2529 1.363 . S
C2534 C2533 1.415 . S
C2535 H2511 0.951 . S
C2535 C2536 1.366 . S
C2535 C2537 1.388 . S
C2536 C2535 1.366 . S
C2536 C2540 1.385 . S
C2537 H2512 0.951 . S
C2537 C2535 1.388 . S
C2537 C2538 1.366 . S
C2538 C2537 1.366 . S
C2538 C2539 1.414 . S
C2538 C2541 1.499 . S
C2539 H2513 0.950 . S
C2539 C2538 1.414 . S
C2539 C2540 1.374 . S
C2540 H2514 0.950 . S
C2540 C2536 1.385 . S
C2540 C2539 1.374 . S
C2541 C2538 1.499 . S
C2541 C2542 1.373 . S
C2541 C2543 1.389 . S
C2542 H2515 0.950 . S
C2542 C2528 1.377 . S
C2542 C2541 1.373 . S
C2543 C2527 1.377 . S
C2543 C2541 1.389 . S
C2543 C2544 1.524 . S
C2544 C2543 1.524 . S
C2544 C2545 1.397 . S
C2544 C2549 1.363 . S
C2545 H2516 0.950 . S
C2545 C2544 1.397 . S
C2545 C2546 1.334 . S
C2546 H2517 0.950 . S
C2546 C2545 1.334 . S
C2546 C2547 1.287 . S
C2547 C2546 1.287 . S
C2547 C2548 1.524 . S
C2547 H2550 0.999 . S
C2548 H2518 0.950 . S
C2548 C2547 1.524 . S
C2548 C2549 1.415 . S
C2549 H2519 0.950 . S
C2549 C2544 1.363 . S
C2549 C2548 1.415 . S
H2550 C2547 0.999 . S
H2551 C2532 0.913 . S
H2552 C2570 0.951 . S
H2553 C2572 0.951 . S
H2554 C2574 0.950 . S
H2555 C2575 0.950 . S
H2556 C2577 0.950 . S
H2557 C2580 0.950 . S
H2558 C2581 0.950 . S
H2559 C2583 0.950 . S
H2560 C2584 0.950 . S
H2561 C2585 0.951 . S
H2562 C2587 0.951 . S
H2563 C2589 0.950 . S
H2564 C2590 0.950 . S
H2565 C2592 0.950 . S
H2566 C2595 0.950 . S
H2567 C2596 0.950 . S
H2568 C2598 0.950 . S
H2569 C2599 0.950 . S
C2570 H2552 0.951 . S
C2570 C2571 1.366 . S
C2570 C2572 1.388 . S
C2571 C2570 1.366 . S
C2571 C2575 1.385 . S
C2572 H2553 0.951 . S
C2572 C2570 1.388 . S
C2572 C2573 1.366 . S
C2573 C2572 1.366 . S
C2573 C2574 1.414 . S
C2573 C2576 1.499 . S
C2574 H2554 0.950 . S
C2574 C2573 1.414 . S
C2574 C2575 1.374 . S
C2575 H2555 0.950 . S
C2575 C2571 1.385 . S
C2575 C2574 1.374 . S
C2576 C2573 1.499 . S
C2576 C2577 1.373 . S
C2576 C2578 1.389 . S
C2577 H2556 0.950 . S
C2577 C2576 1.373 . S
C2577 C2593 1.377 . S
C2578 C2576 1.389 . S
C2578 C2579 1.524 . S
C2578 C2592 1.377 . S
C2579 C2578 1.524 . S
C2579 C2580 1.397 1_545 S
C2579 C2584 1.363 . S
C2580 H2557 0.950 . S
C2580 C2579 1.397 1_565 S
C2580 C2581 1.334 . S
C2581 H2558 0.950 . S
C2581 C2580 1.334 . S
C2581 C2582 1.287 . S
C2582 C2581 1.287 . S
C2582 C2583 1.524 1_565 S
C2582 H2601 0.913 . S
C2583 H2559 0.950 . S
C2583 C2582 1.524 1_545 S
C2583 C2584 1.415 . S
C2584 H2560 0.950 . S
C2584 C2579 1.363 . S
C2584 C2583 1.415 . S
C2585 H2561 0.951 . S
C2585 C2586 1.366 . S
C2585 C2587 1.388 . S
C2586 C2585 1.366 . S
C2586 C2590 1.385 . S
C2587 H2562 0.951 . S
C2587 C2585 1.388 . S
C2587 C2588 1.366 . S
C2588 C2587 1.366 . S
C2588 C2589 1.414 . S
C2588 C2591 1.499 . S
C2589 H2563 0.950 . S
C2589 C2588 1.414 . S
C2589 C2590 1.374 . S
C2590 H2564 0.950 . S
C2590 C2586 1.385 . S
C2590 C2589 1.374 . S
C2591 C2588 1.499 . S
C2591 C2592 1.373 . S
C2591 C2593 1.389 . S
C2592 H2565 0.950 . S
C2592 C2578 1.377 . S
C2592 C2591 1.373 . S
C2593 C2577 1.377 . S
C2593 C2591 1.389 . S
C2593 C2594 1.524 . S
C2594 C2593 1.524 . S
C2594 C2595 1.397 . S
C2594 C2599 1.363 . S
C2595 H2566 0.950 . S
C2595 C2594 1.397 . S
C2595 C2596 1.334 . S
C2596 H2567 0.950 . S
C2596 C2595 1.334 . S
C2596 C2597 1.287 . S
C2597 C2596 1.287 . S
C2597 C2598 1.524 . S
C2597 H2600 0.999 . S
C2598 H2568 0.950 . S
C2598 C2597 1.524 . S
C2598 C2599 1.415 . S
C2599 H2569 0.950 . S
C2599 C2594 1.363 . S
C2599 C2598 1.415 . S
H2600 C2597 0.999 . S
H2601 C2582 0.913 . S
H2602 C2620 0.951 . S
H2603 C2622 0.951 . S
H2604 C2624 0.950 . S
H2605 C2625 0.950 . S
H2606 C2627 0.950 . S
H2607 C2630 0.950 . S
H2608 C2631 0.950 . S
H2609 C2633 0.950 . S
H2610 C2634 0.950 . S
H2611 C2635 0.951 . S
H2612 C2637 0.951 . S
H2613 C2639 0.950 . S
H2614 C2640 0.950 . S
H2615 C2642 0.950 . S
H2616 C2645 0.950 . S
H2617 C2646 0.950 . S
H2618 C2648 0.950 . S
H2619 C2649 0.950 . S
C2620 H2602 0.951 . S
C2620 C2621 1.366 . S
C2620 C2622 1.388 . S
C2621 C2620 1.366 . S
C2621 C2625 1.385 . S
C2622 H2603 0.951 . S
C2622 C2620 1.388 . S
C2622 C2623 1.366 . S
C2623 C2622 1.366 . S
C2623 C2624 1.414 . S
C2623 C2626 1.499 . S
C2624 H2604 0.950 . S
C2624 C2623 1.414 . S
C2624 C2625 1.374 . S
C2625 H2605 0.950 . S
C2625 C2621 1.385 . S
C2625 C2624 1.374 . S
C2626 C2623 1.499 . S
C2626 C2627 1.373 . S
C2626 C2628 1.389 . S
C2627 H2606 0.950 . S
C2627 C2626 1.373 . S
C2627 C2643 1.377 . S
C2628 C2626 1.389 . S
C2628 C2629 1.524 . S
C2628 C2642 1.377 . S
C2629 C2628 1.524 . S
C2629 C2630 1.397 . S
C2629 C2634 1.363 . S
C2630 H2607 0.950 . S
C2630 C2629 1.397 . S
C2630 C2631 1.334 . S
C2631 H2608 0.950 . S
C2631 C2630 1.334 . S
C2631 C2632 1.287 . S
C2632 C2631 1.287 . S
C2632 C2633 1.524 . S
C2632 H2651 0.913 . S
C2633 H2609 0.950 . S
C2633 C2632 1.524 . S
C2633 C2634 1.415 . S
C2634 H2610 0.950 . S
C2634 C2629 1.363 . S
C2634 C2633 1.415 . S
C2635 H2611 0.951 . S
C2635 C2636 1.366 . S
C2635 C2637 1.388 . S
C2636 C2635 1.366 . S
C2636 C2640 1.385 . S
C2637 H2612 0.951 . S
C2637 C2635 1.388 . S
C2637 C2638 1.366 . S
C2638 C2637 1.366 . S
C2638 C2639 1.414 . S
C2638 C2641 1.499 . S
C2639 H2613 0.950 . S
C2639 C2638 1.414 . S
C2639 C2640 1.374 . S
C2640 H2614 0.950 . S
C2640 C2636 1.385 . S
C2640 C2639 1.374 . S
C2641 C2638 1.499 . S
C2641 C2642 1.373 . S
C2641 C2643 1.389 . S
C2642 H2615 0.950 . S
C2642 C2628 1.377 . S
C2642 C2641 1.373 . S
C2643 C2627 1.377 . S
C2643 C2641 1.389 . S
C2643 C2644 1.524 . S
C2644 C2643 1.524 . S
C2644 C2645 1.397 . S
C2644 C2649 1.363 . S
C2645 H2616 0.950 . S
C2645 C2644 1.397 . S
C2645 C2646 1.334 . S
C2646 H2617 0.950 . S
C2646 C2645 1.334 . S
C2646 C2647 1.287 . S
C2647 C2646 1.287 . S
C2647 C2648 1.524 . S
C2647 H2650 0.999 . S
C2648 H2618 0.950 . S
C2648 C2647 1.524 . S
C2648 C2649 1.415 . S
C2649 H2619 0.950 . S
C2649 C2644 1.363 . S
C2649 C2648 1.415 . S
H2650 C2647 0.999 . S
H2651 C2632 0.913 . S
H2652 C2670 0.951 . S
H2653 C2672 0.951 . S
H2654 C2674 0.950 . S
H2655 C2675 0.950 . S
H2656 C2677 0.950 1_565 S
H2657 C2680 0.950 . S
H2658 C2681 0.950 . S
H2659 C2683 0.950 . S
H2660 C2684 0.950 . S
H2661 C2685 0.951 . S
H2662 C2687 0.951 . S
H2663 C2689 0.950 . S
H2664 C2690 0.950 . S
H2665 C2692 0.950 . S
H2666 C2695 0.950 . S
H2667 C2696 0.950 . S
H2668 C2698 0.950 . S
H2669 C2699 0.950 . S
C2670 H2652 0.951 . S
C2670 C2671 1.366 . S
C2670 C2672 1.388 . S
C2671 C2670 1.366 . S
C2671 C2675 1.385 . S
C2672 H2653 0.951 . S
C2672 C2670 1.388 . S
C2672 C2673 1.366 . S
C2673 C2672 1.366 . S
C2673 C2674 1.414 . S
C2673 C2676 1.499 . S
C2674 H2654 0.950 . S
C2674 C2673 1.414 . S
C2674 C2675 1.374 . S
C2675 H2655 0.950 . S
C2675 C2671 1.385 . S
C2675 C2674 1.374 . S
C2676 C2673 1.499 . S
C2676 C2677 1.373 . S
C2676 C2678 1.389 . S
C2677 H2656 0.950 1_545 S
C2677 C2676 1.373 . S
C2677 C2693 1.377 . S
C2678 C2676 1.389 . S
C2678 C2679 1.524 . S
C2678 C2692 1.377 . S
C2679 C2678 1.524 . S
C2679 C2680 1.397 . S
C2679 C2684 1.363 . S
C2680 H2657 0.950 . S
C2680 C2679 1.397 . S
C2680 C2681 1.334 . S
C2681 H2658 0.950 . S
C2681 C2680 1.334 . S
C2681 C2682 1.287 . S
C2682 C2681 1.287 . S
C2682 C2683 1.524 . S
C2682 H2701 0.913 . S
C2683 H2659 0.950 . S
C2683 C2682 1.524 . S
C2683 C2684 1.415 . S
C2684 H2660 0.950 . S
C2684 C2679 1.363 . S
C2684 C2683 1.415 . S
C2685 H2661 0.951 . S
C2685 C2686 1.366 . S
C2685 C2687 1.388 . S
C2686 C2685 1.366 . S
C2686 C2690 1.385 . S
C2687 H2662 0.951 . S
C2687 C2685 1.388 . S
C2687 C2688 1.366 . S
C2688 C2687 1.366 . S
C2688 C2689 1.414 . S
C2688 C2691 1.499 . S
C2689 H2663 0.950 . S
C2689 C2688 1.414 . S
C2689 C2690 1.374 . S
C2690 H2664 0.950 . S
C2690 C2686 1.385 . S
C2690 C2689 1.374 . S
C2691 C2688 1.499 . S
C2691 C2692 1.373 . S
C2691 C2693 1.389 . S
C2692 H2665 0.950 . S
C2692 C2678 1.377 . S
C2692 C2691 1.373 . S
C2693 C2677 1.377 . S
C2693 C2691 1.389 . S
C2693 C2694 1.524 1_545 S
C2694 C2693 1.524 1_565 S
C2694 C2695 1.397 . S
C2694 C2699 1.363 . S
C2695 H2666 0.950 . S
C2695 C2694 1.397 . S
C2695 C2696 1.334 . S
C2696 H2667 0.950 . S
C2696 C2695 1.334 . S
C2696 C2697 1.287 . S
C2697 C2696 1.287 . S
C2697 C2698 1.524 . S
C2697 H2700 0.999 . S
C2698 H2668 0.950 . S
C2698 C2697 1.524 . S
C2698 C2699 1.415 . S
C2699 H2669 0.950 . S
C2699 C2694 1.363 . S
C2699 C2698 1.415 . S
H2700 C2697 0.999 . S
H2701 C2682 0.913 . S
H2702 C2720 0.951 . S
H2703 C2722 0.951 . S
H2704 C2724 0.950 . S
H2705 C2725 0.950 . S
H2706 C2727 0.950 . S
H2707 C2730 0.950 . S
H2708 C2731 0.950 . S
H2709 C2733 0.950 . S
H2710 C2734 0.950 . S
H2711 C2735 0.951 . S
H2712 C2737 0.951 . S
H2713 C2739 0.950 . S
H2714 C2740 0.950 . S
H2715 C2742 0.950 . S
H2716 C2745 0.950 . S
H2717 C2746 0.950 . S
H2718 C2748 0.950 . S
H2719 C2749 0.950 . S
C2720 H2702 0.951 . S
C2720 C2721 1.366 . S
C2720 C2722 1.388 . S
C2721 C2720 1.366 . S
C2721 C2725 1.385 . S
C2722 H2703 0.951 . S
C2722 C2720 1.388 . S
C2722 C2723 1.366 . S
C2723 C2722 1.366 . S
C2723 C2724 1.414 . S
C2723 C2726 1.499 . S
C2724 H2704 0.950 . S
C2724 C2723 1.414 . S
C2724 C2725 1.374 . S
C2725 H2705 0.950 . S
C2725 C2721 1.385 . S
C2725 C2724 1.374 . S
C2726 C2723 1.499 . S
C2726 C2727 1.373 . S
C2726 C2728 1.389 . S
C2727 H2706 0.950 . S
C2727 C2726 1.373 . S
C2727 C2743 1.377 . S
C2728 C2726 1.389 . S
C2728 C2729 1.524 . S
C2728 C2742 1.377 . S
C2729 C2728 1.524 . S
C2729 C2730 1.397 . S
C2729 C2734 1.363 . S
C2730 H2707 0.950 . S
C2730 C2729 1.397 . S
C2730 C2731 1.334 . S
C2731 H2708 0.950 . S
C2731 C2730 1.334 . S
C2731 C2732 1.287 . S
C2732 C2731 1.287 . S
C2732 C2733 1.524 . S
C2732 H2751 0.913 . S
C2733 H2709 0.950 . S
C2733 C2732 1.524 . S
C2733 C2734 1.415 . S
C2734 H2710 0.950 . S
C2734 C2729 1.363 . S
C2734 C2733 1.415 . S
C2735 H2711 0.951 . S
C2735 C2736 1.366 . S
C2735 C2737 1.388 . S
C2736 C2735 1.366 . S
C2736 C2740 1.385 . S
C2737 H2712 0.951 . S
C2737 C2735 1.388 . S
C2737 C2738 1.366 . S
C2738 C2737 1.366 . S
C2738 C2739 1.414 . S
C2738 C2741 1.499 . S
C2739 H2713 0.950 . S
C2739 C2738 1.414 . S
C2739 C2740 1.374 . S
C2740 H2714 0.950 . S
C2740 C2736 1.385 . S
C2740 C2739 1.374 . S
C2741 C2738 1.499 . S
C2741 C2742 1.373 . S
C2741 C2743 1.389 . S
C2742 H2715 0.950 . S
C2742 C2728 1.377 . S
C2742 C2741 1.373 . S
C2743 C2727 1.377 . S
C2743 C2741 1.389 . S
C2743 C2744 1.524 . S
C2744 C2743 1.524 . S
C2744 C2745 1.397 . S
C2744 C2749 1.363 . S
C2745 H2716 0.950 . S
C2745 C2744 1.397 . S
C2745 C2746 1.334 . S
C2746 H2717 0.950 . S
C2746 C2745 1.334 . S
C2746 C2747 1.287 . S
C2747 C2746 1.287 . S
C2747 C2748 1.524 . S
C2747 H2750 0.999 . S
C2748 H2718 0.950 . S
C2748 C2747 1.524 . S
C2748 C2749 1.415 . S
C2749 H2719 0.950 . S
C2749 C2744 1.363 . S
C2749 C2748 1.415 . S
H2750 C2747 0.999 . S
H2751 C2732 0.913 . S
H2752 C2770 0.951 . S
H2753 C2772 0.951 . S
H2754 C2774 0.950 . S
H2755 C2775 0.950 . S
H2756 C2777 0.950 . S
H2757 C2780 0.950 . S
H2758 C2781 0.950 . S
H2759 C2783 0.950 . S
H2760 C2784 0.950 . S
H2761 C2785 0.951 . S
H2762 C2787 0.951 . S
H2763 C2789 0.950 . S
H2764 C2790 0.950 . S
H2765 C2792 0.950 . S
H2766 C2795 0.950 . S
H2767 C2796 0.950 . S
H2768 C2798 0.950 . S
H2769 C2799 0.950 1_545 S
C2770 H2752 0.951 . S
C2770 C2771 1.366 . S
C2770 C2772 1.388 . S
C2771 C2770 1.366 . S
C2771 C2775 1.385 . S
C2772 H2753 0.951 . S
C2772 C2770 1.388 . S
C2772 C2773 1.366 . S
C2773 C2772 1.366 . S
C2773 C2774 1.414 . S
C2773 C2776 1.499 . S
C2774 H2754 0.950 . S
C2774 C2773 1.414 . S
C2774 C2775 1.374 . S
C2775 H2755 0.950 . S
C2775 C2771 1.385 . S
C2775 C2774 1.374 . S
C2776 C2773 1.499 . S
C2776 C2777 1.373 . S
C2776 C2778 1.389 . S
C2777 H2756 0.950 . S
C2777 C2776 1.373 . S
C2777 C2793 1.377 . S
C2778 C2776 1.389 . S
C2778 C2779 1.524 . S
C2778 C2792 1.377 . S
C2779 C2778 1.524 . S
C2779 C2780 1.397 . S
C2779 C2784 1.363 . S
C2780 H2757 0.950 . S
C2780 C2779 1.397 . S
C2780 C2781 1.334 . S
C2781 H2758 0.950 . S
C2781 C2780 1.334 . S
C2781 C2782 1.287 . S
C2782 C2781 1.287 . S
C2782 C2783 1.524 . S
C2782 H2801 0.913 . S
C2783 H2759 0.950 . S
C2783 C2782 1.524 . S
C2783 C2784 1.415 . S
C2784 H2760 0.950 . S
C2784 C2779 1.363 . S
C2784 C2783 1.415 . S
C2785 H2761 0.951 . S
C2785 C2786 1.366 . S
C2785 C2787 1.388 . S
C2786 C2785 1.366 . S
C2786 C2790 1.385 . S
C2787 H2762 0.951 . S
C2787 C2785 1.388 . S
C2787 C2788 1.366 . S
C2788 C2787 1.366 . S
C2788 C2789 1.414 . S
C2788 C2791 1.499 . S
C2789 H2763 0.950 . S
C2789 C2788 1.414 . S
C2789 C2790 1.374 . S
C2790 H2764 0.950 . S
C2790 C2786 1.385 . S
C2790 C2789 1.374 . S
C2791 C2788 1.499 . S
C2791 C2792 1.373 . S
C2791 C2793 1.389 . S
C2792 H2765 0.950 . S
C2792 C2778 1.377 . S
C2792 C2791 1.373 . S
C2793 C2777 1.377 . S
C2793 C2791 1.389 . S
C2793 C2794 1.524 1_545 S
C2794 C2793 1.524 1_565 S
C2794 C2795 1.397 . S
C2794 C2799 1.363 . S
C2795 H2766 0.950 . S
C2795 C2794 1.397 . S
C2795 C2796 1.334 . S
C2796 H2767 0.950 . S
C2796 C2795 1.334 . S
C2796 C2797 1.287 . S
C2797 C2796 1.287 . S
C2797 C2798 1.524 . S
C2797 H2800 0.999 . S
C2798 H2768 0.950 . S
C2798 C2797 1.524 . S
C2798 C2799 1.415 . S
C2799 H2769 0.950 1_565 S
C2799 C2794 1.363 . S
C2799 C2798 1.415 . S
H2800 C2797 0.999 . S
H2801 C2782 0.913 . S
H2802 C2820 0.951 . S
H2803 C2822 0.951 . S
H2804 C2824 0.950 . S
H2805 C2825 0.950 . S
H2806 C2827 0.950 . S
H2807 C2830 0.950 . S
H2808 C2831 0.950 . S
H2809 C2833 0.950 . S
H2810 C2834 0.950 . S
H2811 C2835 0.951 . S
H2812 C2837 0.951 . S
H2813 C2839 0.950 . S
H2814 C2840 0.950 . S
H2815 C2842 0.950 . S
H2816 C2845 0.950 . S
H2817 C2846 0.950 . S
H2818 C2848 0.950 . S
H2819 C2849 0.950 . S
C2820 H2802 0.951 . S
C2820 C2821 1.366 . S
C2820 C2822 1.388 . S
C2821 C2820 1.366 . S
C2821 C2825 1.385 . S
C2822 H2803 0.951 . S
C2822 C2820 1.388 . S
C2822 C2823 1.366 . S
C2823 C2822 1.366 . S
C2823 C2824 1.414 . S
C2823 C2826 1.499 . S
C2824 H2804 0.950 . S
C2824 C2823 1.414 . S
C2824 C2825 1.374 . S
C2825 H2805 0.950 . S
C2825 C2821 1.385 . S
C2825 C2824 1.374 . S
C2826 C2823 1.499 . S
C2826 C2827 1.373 . S
C2826 C2828 1.389 . S
C2827 H2806 0.950 . S
C2827 C2826 1.373 . S
C2827 C2843 1.377 . S
C2828 C2826 1.389 . S
C2828 C2829 1.524 . S
C2828 C2842 1.377 . S
C2829 C2828 1.524 . S
C2829 C2830 1.397 . S
C2829 C2834 1.363 . S
C2830 H2807 0.950 . S
C2830 C2829 1.397 . S
C2830 C2831 1.334 . S
C2831 H2808 0.950 . S
C2831 C2830 1.334 . S
C2831 C2832 1.287 . S
C2832 C2831 1.287 . S
C2832 C2833 1.524 . S
C2832 H2851 0.913 . S
C2833 H2809 0.950 . S
C2833 C2832 1.524 . S
C2833 C2834 1.415 . S
C2834 H2810 0.950 . S
C2834 C2829 1.363 . S
C2834 C2833 1.415 . S
C2835 H2811 0.951 . S
C2835 C2836 1.366 . S
C2835 C2837 1.388 . S
C2836 C2835 1.366 . S
C2836 C2840 1.385 . S
C2837 H2812 0.951 . S
C2837 C2835 1.388 . S
C2837 C2838 1.366 . S
C2838 C2837 1.366 . S
C2838 C2839 1.414 . S
C2838 C2841 1.499 . S
C2839 H2813 0.950 . S
C2839 C2838 1.414 . S
C2839 C2840 1.374 . S
C2840 H2814 0.950 . S
C2840 C2836 1.385 . S
C2840 C2839 1.374 . S
C2841 C2838 1.499 . S
C2841 C2842 1.373 . S
C2841 C2843 1.389 . S
C2842 H2815 0.950 . S
C2842 C2828 1.377 . S
C2842 C2841 1.373 . S
C2843 C2827 1.377 . S
C2843 C2841 1.389 . S
C2843 C2844 1.524 . S
C2844 C2843 1.524 . S
C2844 C2845 1.397 . S
C2844 C2849 1.363 . S
C2845 H2816 0.950 . S
C2845 C2844 1.397 . S
C2845 C2846 1.334 . S
C2846 H2817 0.950 . S
C2846 C2845 1.334 . S
C2846 C2847 1.287 . S
C2847 C2846 1.287 . S
C2847 C2848 1.524 . S
C2847 H2850 0.999 . S
C2848 H2818 0.950 . S
C2848 C2847 1.524 . S
C2848 C2849 1.415 . S
C2849 H2819 0.950 . S
C2849 C2844 1.363 . S
C2849 C2848 1.415 . S
H2850 C2847 0.999 . S
H2851 C2832 0.913 . S
H2852 C2870 0.951 . S
H2853 C2872 0.951 . S
H2854 C2874 0.950 . S
H2855 C2875 0.950 . S
H2856 C2877 0.950 . S
H2857 C2880 0.950 . S
H2858 C2881 0.950 . S
H2859 C2883 0.950 . S
H2860 C2884 0.950 . S
H2861 C2885 0.951 . S
H2862 C2887 0.951 . S
H2863 C2889 0.950 . S
H2864 C2890 0.950 . S
H2865 C2892 0.974 . S
H2866 C2895 0.950 . S
H2867 C2896 0.950 . S
H2868 C2898 0.950 . S
H2869 C2899 0.950 . S
C2870 H2852 0.951 . S
C2870 C2871 1.366 . S
C2870 C2872 1.388 . S
C2871 C2870 1.366 . S
C2871 C2875 1.385 . S
C2872 H2853 0.951 . S
C2872 C2870 1.388 . S
C2872 C2873 1.366 . S
C2873 C2872 1.366 . S
C2873 C2874 1.414 . S
C2873 C2876 1.499 . S
C2874 H2854 0.950 . S
C2874 C2873 1.414 . S
C2874 C2875 1.374 . S
C2875 H2855 0.950 . S
C2875 C2871 1.385 . S
C2875 C2874 1.374 . S
C2876 C2873 1.499 . S
C2876 C2877 1.373 . S
C2876 C2878 1.389 . S
C2877 H2856 0.950 . S
C2877 C2876 1.373 . S
C2877 C2893 1.377 . S
C2878 C2876 1.389 . S
C2878 C2879 1.524 1_545 S
C2878 C2892 1.377 . S
C2879 C2878 1.524 1_565 S
C2879 C2880 1.397 . S
C2879 C2884 1.363 . S
C2880 H2857 0.950 . S
C2880 C2879 1.397 . S
C2880 C2881 1.334 . S
C2881 H2858 0.950 . S
C2881 C2880 1.334 . S
C2881 C2882 1.287 . S
C2882 C2881 1.287 . S
C2882 C2883 1.524 . S
C2882 H2901 0.913 . S
C2883 H2859 0.950 . S
C2883 C2882 1.524 . S
C2883 C2884 1.415 . S
C2884 H2860 0.950 . S
C2884 C2879 1.363 . S
C2884 C2883 1.415 . S
C2885 H2861 0.951 . S
C2885 C2886 1.366 . S
C2885 C2887 1.388 . S
C2886 C2885 1.366 . S
C2886 C2890 1.385 . S
C2887 H2862 0.951 . S
C2887 C2885 1.388 . S
C2887 C2888 1.366 . S
C2888 C2887 1.366 . S
C2888 C2889 1.414 . S
C2888 C2891 1.499 . S
C2889 H2863 0.950 . S
C2889 C2888 1.414 . S
C2889 C2890 1.374 . S
C2890 H2864 0.950 . S
C2890 C2886 1.385 . S
C2890 C2889 1.374 . S
C2891 C2888 1.499 . S
C2891 C2892 1.373 . S
C2891 C2893 1.389 . S
C2892 H2865 0.974 . S
C2892 C2878 1.377 . S
C2892 C2891 1.373 . S
C2893 C2877 1.377 . S
C2893 C2891 1.389 . S
C2893 C2894 1.524 . S
C2894 C2893 1.524 . S
C2894 C2895 1.397 . S
C2894 C2899 1.363 . S
C2895 H2866 0.950 . S
C2895 C2894 1.397 . S
C2895 C2896 1.334 . S
C2896 H2867 0.950 . S
C2896 C2895 1.334 . S
C2896 C2897 1.287 . S
C2897 C2896 1.287 . S
C2897 C2898 1.524 . S
C2897 H2900 0.999 . S
C2898 H2868 0.950 . S
C2898 C2897 1.524 . S
C2898 C2899 1.415 . S
C2899 H2869 0.950 . S
C2899 C2894 1.363 . S
C2899 C2898 1.415 . S
H2900 C2897 0.999 . S
H2901 C2882 0.913 . S
H2902 C2920 0.951 . S
H2903 C2922 0.951 . S
H2904 C2924 0.950 . S
H2905 C2925 0.950 . S
H2906 C2927 0.950 . S
H2907 C2930 0.950 . S
H2908 C2931 0.950 . S
H2909 C2933 0.950 . S
H2910 C2934 0.950 . S
H2911 C2935 0.951 . S
H2912 C2937 0.951 . S
H2913 C2939 0.950 . S
H2914 C2940 0.950 . S
H2915 C2942 0.950 . S
H2916 C2945 0.950 . S
H2917 C2946 0.950 . S
H2918 C2948 0.950 . S
H2919 C2949 0.950 . S
C2920 H2902 0.951 . S
C2920 C2921 1.366 . S
C2920 C2922 1.388 . S
C2921 C2920 1.366 . S
C2921 C2925 1.385 . S
C2922 H2903 0.951 . S
C2922 C2920 1.388 . S
C2922 C2923 1.366 . S
C2923 C2922 1.366 . S
C2923 C2924 1.414 . S
C2923 C2926 1.499 . S
C2924 H2904 0.950 . S
C2924 C2923 1.414 . S
C2924 C2925 1.374 . S
C2925 H2905 0.950 . S
C2925 C2921 1.385 . S
C2925 C2924 1.374 . S
C2926 C2923 1.499 . S
C2926 C2927 1.373 . S
C2926 C2928 1.389 . S
C2927 H2906 0.950 . S
C2927 C2926 1.373 . S
C2927 C2943 1.377 . S
C2928 C2926 1.389 . S
C2928 C2929 1.524 . S
C2928 C2942 1.377 . S
C2929 C2928 1.524 . S
C2929 C2930 1.397 . S
C2929 C2934 1.363 . S
C2930 H2907 0.950 . S
C2930 C2929 1.397 . S
C2930 C2931 1.334 . S
C2931 H2908 0.950 . S
C2931 C2930 1.334 . S
C2931 C2932 1.287 . S
C2932 C2931 1.287 . S
C2932 C2933 1.524 . S
C2932 H2951 0.913 . S
C2933 H2909 0.950 . S
C2933 C2932 1.524 . S
C2933 C2934 1.415 . S
C2934 H2910 0.950 . S
C2934 C2929 1.363 . S
C2934 C2933 1.415 . S
C2935 H2911 0.951 . S
C2935 C2936 1.366 . S
C2935 C2937 1.388 . S
C2936 C2935 1.366 . S
C2936 C2940 1.385 . S
C2937 H2912 0.951 . S
C2937 C2935 1.388 . S
C2937 C2938 1.366 . S
C2938 C2937 1.366 . S
C2938 C2939 1.414 . S
C2938 C2941 1.499 . S
C2939 H2913 0.950 . S
C2939 C2938 1.414 . S
C2939 C2940 1.374 . S
C2940 H2914 0.950 . S
C2940 C2936 1.385 . S
C2940 C2939 1.374 . S
C2941 C2938 1.499 . S
C2941 C2942 1.373 . S
C2941 C2943 1.389 . S
C2942 H2915 0.950 . S
C2942 C2928 1.377 . S
C2942 C2941 1.373 . S
C2943 C2927 1.377 . S
C2943 C2941 1.389 . S
C2943 C2944 1.524 . S
C2944 C2943 1.524 . S
C2944 C2945 1.397 . S
C2944 C2949 1.363 . S
C2945 H2916 0.950 . S
C2945 C2944 1.397 . S
C2945 C2946 1.334 . S
C2946 H2917 0.950 . S
C2946 C2945 1.334 . S
C2946 C2947 1.287 . S
C2947 C2946 1.287 . S
C2947 C2948 1.524 . S
C2947 H2950 0.999 . S
C2948 H2918 0.950 . S
C2948 C2947 1.524 . S
C2948 C2949 1.415 . S
C2949 H2919 0.950 . S
C2949 C2944 1.363 . S
C2949 C2948 1.415 . S
H2950 C2947 0.999 . S
H2951 C2932 0.913 . S
H2952 C2970 0.951 . S
H2953 C2972 0.951 . S
H2954 C2974 0.950 . S
H2955 C2975 0.950 . S
H2956 C2977 0.950 . S
H2957 C2980 0.950 . S
H2958 C2981 0.950 . S
H2959 C2983 0.950 . S
H2960 C2984 0.950 . S
H2961 C2985 0.951 . S
H2962 C2987 0.951 . S
H2963 C2989 0.950 . S
H2964 C2990 0.950 . S
H2965 C2992 0.950 . S
H2966 C2995 0.950 . S
H2967 C2996 0.950 . S
H2968 C2998 0.950 . S
H2969 C2999 0.950 1_554 S
C2970 H2952 0.951 . S
C2970 C2971 1.366 . S
C2970 C2972 1.388 . S
C2971 C2970 1.366 . S
C2971 C2975 1.385 . S
C2972 H2953 0.951 . S
C2972 C2970 1.388 . S
C2972 C2973 1.366 . S
C2973 C2972 1.366 . S
C2973 C2974 1.414 . S
C2973 C2976 1.499 . S
C2974 H2954 0.950 . S
C2974 C2973 1.414 . S
C2974 C2975 1.374 . S
C2975 H2955 0.950 . S
C2975 C2971 1.385 . S
C2975 C2974 1.374 . S
C2976 C2973 1.499 . S
C2976 C2977 1.373 . S
C2976 C2978 1.389 . S
C2977 H2956 0.950 . S
C2977 C2976 1.373 . S
C2977 C2993 1.377 . S
C2978 C2976 1.389 . S
C2978 C2979 1.524 . S
C2978 C2992 1.377 . S
C2979 C2978 1.524 . S
C2979 C2980 1.397 . S
C2979 C2984 1.363 . S
C2980 H2957 0.950 . S
C2980 C2979 1.397 . S
C2980 C2981 1.334 . S
C2981 H2958 0.950 . S
C2981 C2980 1.334 . S
C2981 C2982 1.287 . S
C2982 C2981 1.287 . S
C2982 C2983 1.524 . S
C2982 H3001 0.913 . S
C2983 H2959 0.950 . S
C2983 C2982 1.524 . S
C2983 C2984 1.415 . S
C2984 H2960 0.950 . S
C2984 C2979 1.363 . S
C2984 C2983 1.415 . S
C2985 H2961 0.951 . S
C2985 C2986 1.366 . S
C2985 C2987 1.388 . S
C2986 C2985 1.366 . S
C2986 C2990 1.385 . S
C2987 H2962 0.951 . S
C2987 C2985 1.388 . S
C2987 C2988 1.366 . S
C2988 C2987 1.366 . S
C2988 C2989 1.414 . S
C2988 C2991 1.499 . S
C2989 H2963 0.950 . S
C2989 C2988 1.414 . S
C2989 C2990 1.374 . S
C2990 H2964 0.950 . S
C2990 C2986 1.385 . S
C2990 C2989 1.374 . S
C2991 C2988 1.499 . S
C2991 C2992 1.373 . S
C2991 C2993 1.389 . S
C2992 H2965 0.950 . S
C2992 C2978 1.377 . S
C2992 C2991 1.373 . S
C2993 C2977 1.377 . S
C2993 C2991 1.389 . S
C2993 C2994 1.524 1_554 S
C2994 C2993 1.524 1_556 S
C2994 C2995 1.397 . S
C2994 C2999 1.363 . S
C2995 H2966 0.950 . S
C2995 C2994 1.397 . S
C2995 C2996 1.334 . S
C2996 H2967 0.950 . S
C2996 C2995 1.334 . S
C2996 C2997 1.287 . S
C2997 C2996 1.287 . S
C2997 C2998 1.524 . S
C2997 H3000 0.999 . S
C2998 H2968 0.950 . S
C2998 C2997 1.524 . S
C2998 C2999 1.415 . S
C2999 H2969 0.950 1_556 S
C2999 C2994 1.363 . S
C2999 C2998 1.415 . S
H3000 C2997 0.999 . S
H3001 C2982 0.913 . S
H3002 C3020 0.951 . S
H3003 C3022 0.951 . S
H3004 C3024 0.950 1_556 S
H3005 C3025 0.909 1_556 S
H3006 C3027 0.946 1_556 S
H3007 C3030 0.950 . S
H3008 C3031 0.950 . S
H3009 C3033 0.950 . S
H3010 C3034 0.950 . S
H3011 C3035 0.951 1_556 S
H3012 C3037 0.951 1_556 S
H3013 C3039 0.950 . S
H3014 C3040 0.950 . S
H3015 C3042 0.950 . S
H3016 C3045 0.900 1_554 S
H3017 C3046 0.950 . S
H3018 C3048 0.950 . S
H3019 C3049 0.950 . S
C3020 H3002 0.951 . S
C3020 C3021 1.366 . S
C3020 C3022 1.388 . S
C3021 C3020 1.366 . S
C3021 C3025 1.385 . S
C3022 H3003 0.951 . S
C3022 C3020 1.388 . S
C3022 C3023 1.366 . S
C3023 C3022 1.366 . S
C3023 C3024 1.414 . S
C3023 C3026 1.499 . S
C3024 H3004 0.950 1_554 S
C3024 C3023 1.414 . S
C3024 C3025 1.374 . S
C3025 H3005 0.909 1_554 S
C3025 C3021 1.385 . S
C3025 C3024 1.374 . S
C3026 C3023 1.499 . S
C3026 C3027 1.373 . S
C3026 C3028 1.389 . S
C3027 H3006 0.946 1_554 S
C3027 C3026 1.373 . S
C3027 C3043 1.377 . S
C3028 C3026 1.389 . S
C3028 C3029 1.524 . S
C3028 C3042 1.377 . S
C3029 C3028 1.524 . S
C3029 C3030 1.397 . S
C3029 C3034 1.363 . S
C3030 H3007 0.950 . S
C3030 C3029 1.397 . S
C3030 C3031 1.334 . S
C3031 H3008 0.950 . S
C3031 C3030 1.334 . S
C3031 C3032 1.287 . S
C3032 C3031 1.287 . S
C3032 C3033 1.524 . S
C3032 H3051 0.913 . S
C3033 H3009 0.950 . S
C3033 C3032 1.524 . S
C3033 C3034 1.415 . S
C3034 H3010 0.950 . S
C3034 C3029 1.363 . S
C3034 C3033 1.415 . S
C3035 H3011 0.951 1_554 S
C3035 C3036 1.366 . S
C3035 C3037 1.388 . S
C3036 C3035 1.366 . S
C3036 C3040 1.385 . S
C3037 H3012 0.951 1_554 S
C3037 C3035 1.388 . S
C3037 C3038 1.366 . S
C3038 C3037 1.366 . S
C3038 C3039 1.414 . S
C3038 C3041 1.499 . S
C3039 H3013 0.950 . S
C3039 C3038 1.414 . S
C3039 C3040 1.374 . S
C3040 H3014 0.950 . S
C3040 C3036 1.385 . S
C3040 C3039 1.374 . S
C3041 C3038 1.499 . S
C3041 C3042 1.373 . S
C3041 C3043 1.389 . S
C3042 H3015 0.950 . S
C3042 C3028 1.377 . S
C3042 C3041 1.373 . S
C3043 C3027 1.377 . S
C3043 C3041 1.389 . S
C3043 C3044 1.524 1_554 S
C3044 C3043 1.524 1_556 S
C3044 C3045 1.409 . S
C3044 C3049 1.363 . S
C3045 H3016 0.900 1_556 S
C3045 C3044 1.409 . S
C3045 C3046 1.372 . S
C3046 H3017 0.950 . S
C3046 C3045 1.372 . S
C3046 C3047 1.287 . S
C3047 C3046 1.287 . S
C3047 C3048 1.524 . S
C3047 H3050 0.999 . S
C3048 H3018 0.950 . S
C3048 C3047 1.524 . S
C3048 C3049 1.415 . S
C3049 H3019 0.950 . S
C3049 C3044 1.363 . S
C3049 C3048 1.415 . S
H3050 C3047 0.999 . S
H3051 C3032 0.913 . S
H3052 C3070 0.951 . S
H3053 C3072 0.951 . S
H3054 C3074 0.950 . S
H3055 C3075 0.950 . S
H3056 C3077 0.950 . S
H3057 C3080 0.950 . S
H3058 C3081 0.950 . S
H3059 C3083 0.950 . S
H3060 C3084 0.950 . S
H3061 C3085 0.951 . S
H3062 C3087 0.951 . S
H3063 C3089 0.950 . S
H3064 C3090 0.950 . S
H3065 C3092 0.950 . S
H3066 C3095 0.950 . S
H3067 C3096 0.950 . S
H3068 C3098 0.950 . S
H3069 C3099 0.950 . S
C3070 H3052 0.951 . S
C3070 C3071 1.366 . S
C3070 C3072 1.388 . S
C3071 C3070 1.366 . S
C3071 C3075 1.385 . S
C3072 H3053 0.951 . S
C3072 C3070 1.388 . S
C3072 C3073 1.366 . S
C3073 C3072 1.366 . S
C3073 C3074 1.414 . S
C3073 C3076 1.499 . S
C3074 H3054 0.950 . S
C3074 C3073 1.414 . S
C3074 C3075 1.374 . S
C3075 H3055 0.950 . S
C3075 C3071 1.385 . S
C3075 C3074 1.374 . S
C3076 C3073 1.499 . S
C3076 C3077 1.373 . S
C3076 C3078 1.389 . S
C3077 H3056 0.950 . S
C3077 C3076 1.373 . S
C3077 C3093 1.377 . S
C3078 C3076 1.389 . S
C3078 C3079 1.524 . S
C3078 C3092 1.377 . S
C3079 C3078 1.524 . S
C3079 C3080 1.397 . S
C3079 C3084 1.363 . S
C3080 H3057 0.950 . S
C3080 C3079 1.397 . S
C3080 C3081 1.334 . S
C3081 H3058 0.950 . S
C3081 C3080 1.334 . S
C3081 C3082 1.287 . S
C3082 C3081 1.287 . S
C3082 C3083 1.524 . S
C3082 H3101 0.913 . S
C3083 H3059 0.950 . S
C3083 C3082 1.524 . S
C3083 C3084 1.415 . S
C3084 H3060 0.950 . S
C3084 C3079 1.363 . S
C3084 C3083 1.415 . S
C3085 H3061 0.951 . S
C3085 C3086 1.366 . S
C3085 C3087 1.388 . S
C3086 C3085 1.366 . S
C3086 C3090 1.385 . S
C3087 H3062 0.951 . S
C3087 C3085 1.388 . S
C3087 C3088 1.366 . S
C3088 C3087 1.366 . S
C3088 C3089 1.414 . S
C3088 C3091 1.499 . S
C3089 H3063 0.950 . S
C3089 C3088 1.414 . S
C3089 C3090 1.374 . S
C3090 H3064 0.950 . S
C3090 C3086 1.385 . S
C3090 C3089 1.374 . S
C3091 C3088 1.499 . S
C3091 C3092 1.373 . S
C3091 C3093 1.389 . S
C3092 H3065 0.950 . S
C3092 C3078 1.377 . S
C3092 C3091 1.373 . S
C3093 C3077 1.377 . S
C3093 C3091 1.389 . S
C3093 C3094 1.524 . S
C3094 C3093 1.524 . S
C3094 C3095 1.397 . S
C3094 C3099 1.363 . S
C3095 H3066 0.950 . S
C3095 C3094 1.397 . S
C3095 C3096 1.334 . S
C3096 H3067 0.950 . S
C3096 C3095 1.334 . S
C3096 C3097 1.287 . S
C3097 C3096 1.287 . S
C3097 C3098 1.524 . S
C3097 H3100 0.999 . S
C3098 H3068 0.950 . S
C3098 C3097 1.524 . S
C3098 C3099 1.415 . S
C3099 H3069 0.950 . S
C3099 C3094 1.363 . S
C3099 C3098 1.415 . S
H3100 C3097 0.999 . S
H3101 C3082 0.913 . S
H3102 C3120 0.951 . S
H3103 C3122 0.951 . S
H3104 C3124 0.950 . S
H3105 C3125 0.950 . S
H3106 C3127 0.950 . S
H3107 C3130 0.950 . S
H3108 C3131 0.950 . S
H3109 C3133 0.950 . S
H3110 C3134 0.950 . S
H3111 C3135 0.951 . S
H3112 C3137 0.951 . S
H3113 C3139 0.950 . S
H3114 C3140 0.950 . S
H3115 C3142 0.950 . S
H3116 C3145 0.950 . S
H3117 C3146 0.950 . S
H3118 C3148 0.950 . S
H3119 C3149 0.950 . S
C3120 H3102 0.951 . S
C3120 C3121 1.366 . S
C3120 C3122 1.388 . S
C3121 C3120 1.366 . S
C3121 C3125 1.385 . S
C3122 H3103 0.951 . S
C3122 C3120 1.388 . S
C3122 C3123 1.366 . S
C3123 C3122 1.366 . S
C3123 C3124 1.414 . S
C3123 C3126 1.499 . S
C3124 H3104 0.950 . S
C3124 C3123 1.414 . S
C3124 C3125 1.374 . S
C3125 H3105 0.950 . S
C3125 C3121 1.385 . S
C3125 C3124 1.374 . S
C3126 C3123 1.499 . S
C3126 C3127 1.373 . S
C3126 C3128 1.389 . S
C3127 H3106 0.950 . S
C3127 C3126 1.373 . S
C3127 C3143 1.377 . S
C3128 C3126 1.389 . S
C3128 C3129 1.524 . S
C3128 C3142 1.377 . S
C3129 C3128 1.524 . S
C3129 C3130 1.397 . S
C3129 C3134 1.363 . S
C3130 H3107 0.950 . S
C3130 C3129 1.397 . S
C3130 C3131 1.334 . S
C3131 H3108 0.950 . S
C3131 C3130 1.334 . S
C3131 C3132 1.287 . S
C3132 C3131 1.287 . S
C3132 C3133 1.524 . S
C3132 H3151 0.913 . S
C3133 H3109 0.950 . S
C3133 C3132 1.524 . S
C3133 C3134 1.415 . S
C3134 H3110 0.950 . S
C3134 C3129 1.363 . S
C3134 C3133 1.415 . S
C3135 H3111 0.951 . S
C3135 C3136 1.366 . S
C3135 C3137 1.388 . S
C3136 C3135 1.366 . S
C3136 C3140 1.385 . S
C3137 H3112 0.951 . S
C3137 C3135 1.388 . S
C3137 C3138 1.366 . S
C3138 C3137 1.366 . S
C3138 C3139 1.414 . S
C3138 C3141 1.499 . S
C3139 H3113 0.950 . S
C3139 C3138 1.414 . S
C3139 C3140 1.374 . S
C3140 H3114 0.950 . S
C3140 C3136 1.385 . S
C3140 C3139 1.374 . S
C3141 C3138 1.499 . S
C3141 C3142 1.373 . S
C3141 C3143 1.389 . S
C3142 H3115 0.950 . S
C3142 C3128 1.377 . S
C3142 C3141 1.373 . S
C3143 C3127 1.377 . S
C3143 C3141 1.389 . S
C3143 C3144 1.524 . S
C3144 C3143 1.524 . S
C3144 C3145 1.397 . S
C3144 C3149 1.363 . S
C3145 H3116 0.950 . S
C3145 C3144 1.397 . S
C3145 C3146 1.334 . S
C3146 H3117 0.950 . S
C3146 C3145 1.334 . S
C3146 C3147 1.287 . S
C3147 C3146 1.287 . S
C3147 C3148 1.524 . S
C3147 H3150 0.999 . S
C3148 H3118 0.950 . S
C3148 C3147 1.524 . S
C3148 C3149 1.415 . S
C3149 H3119 0.950 . S
C3149 C3144 1.363 . S
C3149 C3148 1.415 . S
H3150 C3147 0.999 . S
H3151 C3132 0.913 . S
H3152 C3170 0.951 . S
H3153 C3172 0.951 . S
H3154 C3174 0.950 . S
H3155 C3175 0.950 . S
H3156 C3177 0.950 . S
H3157 C3180 0.950 . S
H3158 C3181 0.950 . S
H3159 C3183 0.950 . S
H3160 C3184 0.950 . S
H3161 C3185 0.951 . S
H3162 C3187 0.951 . S
H3163 C3189 0.950 . S
H3164 C3190 0.950 . S
H3165 C3192 0.950 . S
H3166 C3195 0.950 . S
H3167 C3196 0.950 . S
H3168 C3198 0.950 . S
H3169 C3199 0.950 . S
C3170 H3152 0.951 . S
C3170 C3171 1.366 . S
C3170 C3172 1.388 . S
C3171 C3170 1.366 . S
C3171 C3175 1.385 . S
C3172 H3153 0.951 . S
C3172 C3170 1.388 . S
C3172 C3173 1.366 . S
C3173 C3172 1.366 . S
C3173 C3174 1.414 . S
C3173 C3176 1.499 . S
C3174 H3154 0.950 . S
C3174 C3173 1.414 . S
C3174 C3175 1.374 . S
C3175 H3155 0.950 . S
C3175 C3171 1.385 . S
C3175 C3174 1.374 . S
C3176 C3173 1.499 . S
C3176 C3177 1.373 . S
C3176 C3178 1.389 . S
C3177 H3156 0.950 . S
C3177 C3176 1.373 . S
C3177 C3193 1.377 . S
C3178 C3176 1.389 . S
C3178 C3179 1.524 . S
C3178 C3192 1.377 . S
C3179 C3178 1.524 . S
C3179 C3180 1.397 . S
C3179 C3184 1.363 . S
C3180 H3157 0.950 . S
C3180 C3179 1.397 . S
C3180 C3181 1.334 . S
C3181 H3158 0.950 . S
C3181 C3180 1.334 . S
C3181 C3182 1.287 . S
C3182 C3181 1.287 . S
C3182 C3183 1.524 . S
C3182 H3201 0.913 . S
C3183 H3159 0.950 . S
C3183 C3182 1.524 . S
C3183 C3184 1.415 . S
C3184 H3160 0.950 . S
C3184 C3179 1.363 . S
C3184 C3183 1.415 . S
C3185 H3161 0.951 . S
C3185 C3186 1.366 . S
C3185 C3187 1.388 . S
C3186 C3185 1.366 . S
C3186 C3190 1.385 . S
C3187 H3162 0.951 . S
C3187 C3185 1.388 . S
C3187 C3188 1.366 . S
C3188 C3187 1.366 . S
C3188 C3189 1.414 . S
C3188 C3191 1.499 . S
C3189 H3163 0.950 . S
C3189 C3188 1.414 . S
C3189 C3190 1.374 . S
C3190 H3164 0.950 . S
C3190 C3186 1.385 . S
C3190 C3189 1.374 . S
C3191 C3188 1.499 . S
C3191 C3192 1.373 . S
C3191 C3193 1.389 . S
C3192 H3165 0.950 . S
C3192 C3178 1.377 . S
C3192 C3191 1.373 . S
C3193 C3177 1.377 . S
C3193 C3191 1.389 . S
C3193 C3194 1.524 . S
C3194 C3193 1.524 . S
C3194 C3195 1.397 . S
C3194 C3199 1.363 . S
C3195 H3166 0.950 . S
C3195 C3194 1.397 . S
C3195 C3196 1.334 . S
C3196 H3167 0.950 . S
C3196 C3195 1.334 . S
C3196 C3197 1.287 . S
C3197 C3196 1.287 . S
C3197 C3198 1.524 . S
C3197 H3200 0.999 . S
C3198 H3168 0.950 . S
C3198 C3197 1.524 . S
C3198 C3199 1.415 . S
C3199 H3169 0.950 . S
C3199 C3194 1.363 . S
C3199 C3198 1.415 . S
H3200 C3197 0.999 . S
H3201 C3182 0.913 . S
H3202 C3220 0.951 . S
H3203 C3222 0.951 . S
H3204 C3224 0.950 . S
H3205 C3225 0.950 . S
H3206 C3227 0.950 . S
H3207 C3230 0.950 . S
H3208 C3231 0.950 . S
H3209 C3233 0.950 . S
H3210 C3234 0.950 . S
H3211 C3235 0.951 . S
H3212 C3237 0.951 . S
H3213 C3239 0.950 . S
H3214 C3240 0.950 . S
H3215 C3242 0.950 . S
H3216 C3245 0.950 . S
H3217 C3246 0.950 . S
H3218 C3248 0.950 . S
H3219 C3249 0.950 . S
C3220 H3202 0.951 . S
C3220 C3221 1.366 . S
C3220 C3222 1.388 . S
C3221 C3220 1.366 . S
C3221 C3225 1.385 . S
C3222 H3203 0.951 . S
C3222 C3220 1.388 . S
C3222 C3223 1.366 . S
C3223 C3222 1.366 . S
C3223 C3224 1.414 . S
C3223 C3226 1.499 . S
C3224 H3204 0.950 . S
C3224 C3223 1.414 . S
C3224 C3225 1.374 . S
C3225 H3205 0.950 . S
C3225 C3221 1.385 . S
C3225 C3224 1.374 . S
C3226 C3223 1.499 . S
C3226 C3227 1.373 . S
C3226 C3228 1.389 . S
C3227 H3206 0.950 . S
C3227 C3226 1.373 . S
C3227 C3243 1.377 . S
C3228 C3226 1.389 . S
C3228 C3229 1.524 . S
C3228 C3242 1.377 . S
C3229 C3228 1.524 . S
C3229 C3230 1.397 . S
C3229 C3234 1.363 . S
C3230 H3207 0.950 . S
C3230 C3229 1.397 . S
C3230 C3231 1.334 . S
C3231 H3208 0.950 . S
C3231 C3230 1.334 . S
C3231 C3232 1.287 . S
C3232 C3231 1.287 . S
C3232 C3233 1.524 . S
C3232 H3251 0.913 . S
C3233 H3209 0.950 . S
C3233 C3232 1.524 . S
C3233 C3234 1.415 . S
C3234 H3210 0.950 . S
C3234 C3229 1.363 . S
C3234 C3233 1.415 . S
C3235 H3211 0.951 . S
C3235 C3236 1.366 . S
C3235 C3237 1.388 . S
C3236 C3235 1.366 . S
C3236 C3240 1.385 . S
C3237 H3212 0.951 . S
C3237 C3235 1.388 . S
C3237 C3238 1.366 . S
C3238 C3237 1.366 . S
C3238 C3239 1.414 . S
C3238 C3241 1.499 . S
C3239 H3213 0.950 . S
C3239 C3238 1.414 . S
C3239 C3240 1.374 . S
C3240 H3214 0.950 . S
C3240 C3236 1.385 . S
C3240 C3239 1.374 . S
C3241 C3238 1.499 . S
C3241 C3242 1.373 . S
C3241 C3243 1.389 . S
C3242 H3215 0.950 . S
C3242 C3228 1.377 . S
C3242 C3241 1.373 . S
C3243 C3227 1.377 . S
C3243 C3241 1.389 . S
C3243 C3244 1.524 . S
C3244 C3243 1.524 . S
C3244 C3245 1.397 . S
C3244 C3249 1.363 . S
C3245 H3216 0.950 . S
C3245 C3244 1.397 . S
C3245 C3246 1.334 . S
C3246 H3217 0.950 . S
C3246 C3245 1.334 . S
C3246 C3247 1.287 . S
C3247 C3246 1.287 . S
C3247 C3248 1.524 . S
C3247 H3250 0.999 . S
C3248 H3218 0.950 . S
C3248 C3247 1.524 . S
C3248 C3249 1.415 . S
C3249 H3219 0.950 . S
C3249 C3244 1.363 . S
C3249 C3248 1.415 . S
H3250 C3247 0.999 . S
H3251 C3232 0.913 . S
H3252 C3270 0.951 . S
H3253 C3272 0.951 . S
H3254 C3274 0.950 . S
H3255 C3275 0.950 . S
H3256 C3277 0.950 . S
H3257 C3280 0.950 . S
H3258 C3281 0.950 . S
H3259 C3283 0.950 . S
H3260 C3284 0.950 . S
H3261 C3285 0.951 . S
H3262 C3287 0.951 . S
H3263 C3289 0.950 . S
H3264 C3290 0.950 . S
H3265 C3292 0.950 . S
H3266 C3295 0.950 . S
H3267 C3296 0.950 . S
H3268 C3298 0.950 . S
H3269 C3299 0.950 . S
C3270 H3252 0.951 . S
C3270 C3271 1.366 . S
C3270 C3272 1.388 . S
C3271 C3270 1.366 . S
C3271 C3275 1.385 . S
C3272 H3253 0.951 . S
C3272 C3270 1.388 . S
C3272 C3273 1.366 . S
C3273 C3272 1.366 . S
C3273 C3274 1.414 . S
C3273 C3276 1.499 . S
C3274 H3254 0.950 . S
C3274 C3273 1.414 . S
C3274 C3275 1.374 . S
C3275 H3255 0.950 . S
C3275 C3271 1.385 . S
C3275 C3274 1.374 . S
C3276 C3273 1.499 . S
C3276 C3277 1.373 . S
C3276 C3278 1.389 . S
C3277 H3256 0.950 . S
C3277 C3276 1.373 . S
C3277 C3293 1.377 . S
C3278 C3276 1.389 . S
C3278 C3279 1.524 . S
C3278 C3292 1.377 . S
C3279 C3278 1.524 . S
C3279 C3280 1.397 . S
C3279 C3284 1.363 . S
C3280 H3257 0.950 . S
C3280 C3279 1.397 . S
C3280 C3281 1.334 . S
C3281 H3258 0.950 . S
C3281 C3280 1.334 . S
C3281 C3282 1.287 . S
C3282 C3281 1.287 . S
C3282 C3283 1.524 . S
C3282 H3301 0.913 . S
C3283 H3259 0.950 . S
C3283 C3282 1.524 . S
C3283 C3284 1.415 . S
C3284 H3260 0.950 . S
C3284 C3279 1.363 . S
C3284 C3283 1.415 . S
C3285 H3261 0.951 . S
C3285 C3286 1.366 . S
C3285 C3287 1.388 . S
C3286 C3285 1.366 . S
C3286 C3290 1.385 . S
C3287 H3262 0.951 . S
C3287 C3285 1.388 . S
C3287 C3288 1.366 . S
C3288 C3287 1.366 . S
C3288 C3289 1.414 . S
C3288 C3291 1.499 . S
C3289 H3263 0.950 . S
C3289 C3288 1.414 . S
C3289 C3290 1.374 . S
C3290 H3264 0.950 . S
C3290 C3286 1.385 . S
C3290 C3289 1.374 . S
C3291 C3288 1.499 . S
C3291 C3292 1.373 . S
C3291 C3293 1.389 . S
C3292 H3265 0.950 . S
C3292 C3278 1.377 . S
C3292 C3291 1.373 . S
C3293 C3277 1.377 . S
C3293 C3291 1.389 . S
C3293 C3294 1.524 . S
C3294 C3293 1.524 . S
C3294 C3295 1.397 . S
C3294 C3299 1.363 . S
C3295 H3266 0.950 . S
C3295 C3294 1.397 . S
C3295 C3296 1.334 . S
C3296 H3267 0.950 . S
C3296 C3295 1.334 . S
C3296 C3297 1.287 . S
C3297 C3296 1.287 . S
C3297 C3298 1.524 . S
C3297 H3300 0.999 . S
C3298 H3268 0.950 . S
C3298 C3297 1.524 . S
C3298 C3299 1.415 . S
C3299 H3269 0.950 . S
C3299 C3294 1.363 . S
C3299 C3298 1.415 . S
H3300 C3297 0.999 . S
H3301 C3282 0.913 . S
H3302 C3320 0.951 . S
H3303 C3322 0.951 . S
H3304 C3324 0.950 . S
H3305 C3325 0.950 . S
H3306 C3327 0.950 . S
H3307 C3330 0.950 . S
H3308 C3331 0.950 . S
H3309 C3333 0.950 . S
H3310 C3334 0.950 . S
H3311 C3335 0.951 . S
H3312 C3337 0.951 . S
H3313 C3339 0.950 . S
H3314 C3340 0.950 . S
H3315 C3342 0.950 . S
H3316 C3345 0.950 . S
H3317 C3346 0.950 . S
H3318 C3348 0.950 . S
H3319 C3349 0.950 . S
C3320 H3302 0.951 . S
C3320 C3321 1.366 . S
C3320 C3322 1.388 . S
C3321 C3320 1.366 . S
C3321 C3325 1.385 . S
C3322 H3303 0.951 . S
C3322 C3320 1.388 . S
C3322 C3323 1.366 . S
C3323 C3322 1.366 . S
C3323 C3324 1.414 . S
C3323 C3326 1.499 . S
C3324 H3304 0.950 . S
C3324 C3323 1.414 . S
C3324 C3325 1.374 . S
C3325 H3305 0.950 . S
C3325 C3321 1.385 . S
C3325 C3324 1.374 . S
C3326 C3323 1.499 . S
C3326 C3327 1.373 . S
C3326 C3328 1.389 . S
C3327 H3306 0.950 . S
C3327 C3326 1.373 . S
C3327 C3343 1.377 . S
C3328 C3326 1.389 . S
C3328 C3329 1.524 . S
C3328 C3342 1.377 . S
C3329 C3328 1.524 . S
C3329 C3330 1.397 . S
C3329 C3334 1.363 . S
C3330 H3307 0.950 . S
C3330 C3329 1.397 . S
C3330 C3331 1.334 . S
C3331 H3308 0.950 . S
C3331 C3330 1.334 . S
C3331 C3332 1.287 . S
C3332 C3331 1.287 . S
C3332 C3333 1.524 . S
C3332 H3351 0.913 . S
C3333 H3309 0.950 . S
C3333 C3332 1.524 . S
C3333 C3334 1.415 . S
C3334 H3310 0.950 . S
C3334 C3329 1.363 . S
C3334 C3333 1.415 . S
C3335 H3311 0.951 . S
C3335 C3336 1.366 . S
C3335 C3337 1.388 . S
C3336 C3335 1.366 . S
C3336 C3340 1.385 . S
C3337 H3312 0.951 . S
C3337 C3335 1.388 . S
C3337 C3338 1.366 . S
C3338 C3337 1.366 . S
C3338 C3339 1.414 . S
C3338 C3341 1.499 . S
C3339 H3313 0.950 . S
C3339 C3338 1.414 . S
C3339 C3340 1.374 . S
C3340 H3314 0.950 . S
C3340 C3336 1.385 . S
C3340 C3339 1.374 . S
C3341 C3338 1.499 . S
C3341 C3342 1.373 . S
C3341 C3343 1.389 . S
C3342 H3315 0.950 . S
C3342 C3328 1.377 . S
C3342 C3341 1.373 . S
C3343 C3327 1.377 . S
C3343 C3341 1.389 . S
C3343 C3344 1.524 . S
C3344 C3343 1.524 . S
C3344 C3345 1.397 . S
C3344 C3349 1.363 . S
C3345 H3316 0.950 . S
C3345 C3344 1.397 . S
C3345 C3346 1.334 . S
C3346 H3317 0.950 . S
C3346 C3345 1.334 . S
C3346 C3347 1.287 . S
C3347 C3346 1.287 . S
C3347 C3348 1.524 . S
C3347 H3350 0.999 . S
C3348 H3318 0.950 . S
C3348 C3347 1.524 . S
C3348 C3349 1.415 . S
C3349 H3319 0.950 . S
C3349 C3344 1.363 . S
C3349 C3348 1.415 . S
H3350 C3347 0.999 . S
H3351 C3332 0.913 . S
H3352 C3370 0.951 . S
H3353 C3372 0.951 . S
H3354 C3374 0.950 . S
H3355 C3375 0.950 . S
H3356 C3377 0.950 . S
H3357 C3380 0.950 . S
H3358 C3381 0.950 . S
H3359 C3383 0.950 . S
H3360 C3384 0.950 . S
H3361 C3385 0.951 . S
H3362 C3387 0.951 . S
H3363 C3389 0.950 . S
H3364 C3390 0.950 . S
H3365 C3392 0.950 . S
H3366 C3395 0.950 . S
H3367 C3396 0.950 . S
H3368 C3398 0.950 . S
H3369 C3399 0.950 . S
C3370 H3352 0.951 . S
C3370 C3371 1.366 . S
C3370 C3372 1.388 . S
C3371 C3370 1.366 . S
C3371 C3375 1.385 . S
C3372 H3353 0.951 . S
C3372 C3370 1.388 . S
C3372 C3373 1.366 . S
C3373 C3372 1.366 . S
C3373 C3374 1.414 . S
C3373 C3376 1.499 . S
C3374 H3354 0.950 . S
C3374 C3373 1.414 . S
C3374 C3375 1.374 . S
C3375 H3355 0.950 . S
C3375 C3371 1.385 . S
C3375 C3374 1.374 . S
C3376 C3373 1.499 . S
C3376 C3377 1.373 . S
C3376 C3378 1.389 . S
C3377 H3356 0.950 . S
C3377 C3376 1.373 . S
C3377 C3393 1.377 . S
C3378 C3376 1.389 . S
C3378 C3379 1.524 . S
C3378 C3392 1.377 . S
C3379 C3378 1.524 . S
C3379 C3380 1.397 . S
C3379 C3384 1.363 . S
C3380 H3357 0.950 . S
C3380 C3379 1.397 . S
C3380 C3381 1.334 . S
C3381 H3358 0.950 . S
C3381 C3380 1.334 . S
C3381 C3382 1.287 . S
C3382 C3381 1.287 . S
C3382 C3383 1.524 . S
C3382 H3401 0.913 . S
C3383 H3359 0.950 . S
C3383 C3382 1.524 . S
C3383 C3384 1.415 . S
C3384 H3360 0.950 . S
C3384 C3379 1.363 . S
C3384 C3383 1.415 . S
C3385 H3361 0.951 . S
C3385 C3386 1.366 . S
C3385 C3387 1.388 . S
C3386 C3385 1.366 . S
C3386 C3390 1.385 . S
C3387 H3362 0.951 . S
C3387 C3385 1.388 . S
C3387 C3388 1.366 . S
C3388 C3387 1.366 . S
C3388 C3389 1.414 . S
C3388 C3391 1.499 . S
C3389 H3363 0.950 . S
C3389 C3388 1.414 . S
C3389 C3390 1.374 . S
C3390 H3364 0.950 . S
C3390 C3386 1.385 . S
C3390 C3389 1.374 . S
C3391 C3388 1.499 . S
C3391 C3392 1.373 . S
C3391 C3393 1.389 . S
C3392 H3365 0.950 . S
C3392 C3378 1.377 . S
C3392 C3391 1.373 . S
C3393 C3377 1.377 . S
C3393 C3391 1.389 . S
C3393 C3394 1.524 . S
C3394 C3393 1.524 . S
C3394 C3395 1.397 . S
C3394 C3399 1.363 . S
C3395 H3366 0.950 . S
C3395 C3394 1.397 . S
C3395 C3396 1.334 . S
C3396 H3367 0.950 . S
C3396 C3395 1.334 . S
C3396 C3397 1.287 . S
C3397 C3396 1.287 . S
C3397 C3398 1.524 . S
C3397 H3400 0.999 . S
C3398 H3368 0.950 . S
C3398 C3397 1.524 . S
C3398 C3399 1.415 . S
C3399 H3369 0.950 . S
C3399 C3394 1.363 . S
C3399 C3398 1.415 . S
H3400 C3397 0.999 . S
H3401 C3382 0.913 . S
H3402 C3420 0.951 . S
H3403 C3422 0.951 . S
H3404 C3424 0.950 . S
H3405 C3425 0.950 . S
H3406 C3427 0.950 . S
H3407 C3430 0.950 . S
H3408 C3431 0.950 . S
H3409 C3433 0.950 . S
H3410 C3434 0.950 . S
H3411 C3435 0.951 . S
H3412 C3437 0.951 . S
H3413 C3439 0.950 . S
H3414 C3440 0.950 . S
H3415 C3442 0.950 . S
H3416 C3445 0.950 . S
H3417 C3446 0.950 . S
H3418 C3448 0.950 . S
H3419 C3449 0.950 . S
C3420 H3402 0.951 . S
C3420 C3421 1.366 . S
C3420 C3422 1.388 . S
C3421 C3420 1.366 . S
C3421 C3425 1.385 . S
C3422 H3403 0.951 . S
C3422 C3420 1.388 . S
C3422 C3423 1.366 . S
C3423 C3422 1.366 . S
C3423 C3424 1.414 . S
C3423 C3426 1.499 . S
C3424 H3404 0.950 . S
C3424 C3423 1.414 . S
C3424 C3425 1.374 . S
C3425 H3405 0.950 . S
C3425 C3421 1.385 . S
C3425 C3424 1.374 . S
C3426 C3423 1.499 . S
C3426 C3427 1.373 . S
C3426 C3428 1.389 . S
C3427 H3406 0.950 . S
C3427 C3426 1.373 . S
C3427 C3443 1.377 . S
C3428 C3426 1.389 . S
C3428 C3429 1.524 . S
C3428 C3442 1.377 . S
C3429 C3428 1.524 . S
C3429 C3430 1.397 . S
C3429 C3434 1.363 . S
C3430 H3407 0.950 . S
C3430 C3429 1.397 . S
C3430 C3431 1.334 . S
C3431 H3408 0.950 . S
C3431 C3430 1.334 . S
C3431 C3432 1.287 . S
C3432 C3431 1.287 . S
C3432 C3433 1.524 . S
C3432 H3451 0.913 . S
C3433 H3409 0.950 . S
C3433 C3432 1.524 . S
C3433 C3434 1.415 . S
C3434 H3410 0.950 . S
C3434 C3429 1.363 . S
C3434 C3433 1.415 . S
C3435 H3411 0.951 . S
C3435 C3436 1.366 . S
C3435 C3437 1.388 . S
C3436 C3435 1.366 . S
C3436 C3440 1.385 . S
C3437 H3412 0.951 . S
C3437 C3435 1.388 . S
C3437 C3438 1.366 . S
C3438 C3437 1.366 . S
C3438 C3439 1.414 . S
C3438 C3441 1.499 . S
C3439 H3413 0.950 . S
C3439 C3438 1.414 . S
C3439 C3440 1.374 . S
C3440 H3414 0.950 . S
C3440 C3436 1.385 . S
C3440 C3439 1.374 . S
C3441 C3438 1.499 . S
C3441 C3442 1.373 . S
C3441 C3443 1.389 . S
C3442 H3415 0.950 . S
C3442 C3428 1.377 . S
C3442 C3441 1.373 . S
C3443 C3427 1.377 . S
C3443 C3441 1.389 . S
C3443 C3444 1.524 . S
C3444 C3443 1.524 . S
C3444 C3445 1.397 . S
C3444 C3449 1.363 . S
C3445 H3416 0.950 . S
C3445 C3444 1.397 . S
C3445 C3446 1.334 . S
C3446 H3417 0.950 . S
C3446 C3445 1.334 . S
C3446 C3447 1.287 . S
C3447 C3446 1.287 . S
C3447 C3448 1.524 . S
C3447 H3450 0.999 . S
C3448 H3418 0.950 . S
C3448 C3447 1.524 . S
C3448 C3449 1.415 . S
C3449 H3419 0.950 . S
C3449 C3444 1.363 . S
C3449 C3448 1.415 . S
H3450 C3447 0.999 . S
H3451 C3432 0.913 . S
H3452 C3470 0.951 . S
H3453 C3472 0.951 . S
H3454 C3474 0.950 . S
H3455 C3475 0.950 . S
H3456 C3477 0.964 . S
H3457 C3480 0.950 . S
H3458 C3481 0.950 . S
H3459 C3483 0.950 . S
H3460 C3484 0.950 . S
H3461 C3485 0.951 . S
H3462 C3487 0.951 . S
H3463 C3489 0.950 . S
H3464 C3490 0.950 1_556 S
H3465 C3492 0.950 . S
H3466 C3495 0.964 . S
H3467 C3496 0.950 . S
H3468 C3498 0.950 . S
H3469 C3499 0.950 . S
C3470 H3452 0.951 . S
C3470 C3471 1.366 . S
C3470 C3472 1.388 . S
C3471 C3470 1.366 . S
C3471 C3475 1.385 . S
C3472 H3453 0.951 . S
C3472 C3470 1.388 . S
C3472 C3473 1.366 . S
C3473 C3472 1.366 . S
C3473 C3474 1.414 . S
C3473 C3476 1.499 . S
C3474 H3454 0.950 . S
C3474 C3473 1.414 . S
C3474 C3475 1.374 . S
C3475 H3455 0.950 . S
C3475 C3471 1.385 . S
C3475 C3474 1.374 . S
C3476 C3473 1.499 . S
C3476 C3477 1.373 . S
C3476 C3478 1.389 . S
C3477 H3456 0.964 . S
C3477 C3476 1.373 . S
C3477 C3493 1.377 1_556 S
C3478 C3476 1.389 . S
C3478 C3479 1.524 . S
C3478 C3492 1.377 . S
C3479 C3478 1.524 . S
C3479 C3480 1.397 . S
C3479 C3484 1.363 . S
C3480 H3457 0.950 . S
C3480 C3479 1.397 . S
C3480 C3481 1.334 . S
C3481 H3458 0.950 . S
C3481 C3480 1.334 . S
C3481 C3482 1.287 . S
C3482 C3481 1.287 . S
C3482 C3483 1.524 . S
C3482 H3501 0.913 . S
C3483 H3459 0.950 . S
C3483 C3482 1.524 . S
C3483 C3484 1.415 . S
C3484 H3460 0.950 . S
C3484 C3479 1.363 . S
C3484 C3483 1.415 . S
C3485 H3461 0.951 . S
C3485 C3486 1.366 . S
C3485 C3487 1.388 . S
C3486 C3485 1.366 . S
C3486 C3490 1.385 . S
C3487 H3462 0.951 . S
C3487 C3485 1.388 . S
C3487 C3488 1.366 . S
C3488 C3487 1.366 . S
C3488 C3489 1.414 1_554 S
C3488 C3491 1.499 1_554 S
C3489 H3463 0.950 . S
C3489 C3488 1.414 1_556 S
C3489 C3490 1.374 1_556 S
C3490 H3464 0.950 1_554 S
C3490 C3486 1.385 . S
C3490 C3489 1.374 1_554 S
C3491 C3488 1.499 1_556 S
C3491 C3492 1.373 . S
C3491 C3493 1.389 1_556 S
C3492 H3465 0.950 . S
C3492 C3478 1.377 . S
C3492 C3491 1.373 . S
C3493 C3477 1.377 1_554 S
C3493 C3491 1.389 1_554 S
C3493 C3494 1.524 . S
C3494 C3493 1.524 . S
C3494 C3495 1.366 1_455 S
C3494 C3499 1.363 . S
C3495 H3466 0.964 . S
C3495 C3494 1.366 1_655 S
C3495 C3496 1.352 . S
C3496 H3467 0.950 . S
C3496 C3495 1.352 . S
C3496 C3497 1.284 . S
C3497 C3496 1.284 . S
C3497 C3498 1.530 1_655 S
C3497 H3500 0.996 . S
C3498 H3468 0.950 . S
C3498 C3497 1.530 1_455 S
C3498 C3499 1.415 . S
C3499 H3469 0.950 . S
C3499 C3494 1.363 . S
C3499 C3498 1.415 . S
H3500 C3497 0.996 . S
H3501 C3482 0.913 . S
H3502 C3520 0.951 . S
H3503 C3522 0.951 . S
H3504 C3524 0.950 . S
H3505 C3525 0.950 . S
H3506 C3527 0.950 . S
H3507 C3530 0.950 . S
H3508 C3531 0.950 . S
H3509 C3533 0.950 . S
H3510 C3534 0.950 . S
H3511 C3535 0.951 . S
H3512 C3537 0.951 . S
H3513 C3539 0.950 . S
H3514 C3540 0.950 . S
H3515 C3542 0.950 . S
H3516 C3545 0.950 . S
H3517 C3546 0.950 . S
H3518 C3548 0.950 . S
H3519 C3549 0.950 . S
C3520 H3502 0.951 . S
C3520 C3521 1.366 . S
C3520 C3522 1.388 1_455 S
C3521 C3520 1.366 . S
C3521 C3525 1.385 1_455 S
C3522 H3503 0.951 . S
C3522 C3520 1.388 1_655 S
C3522 C3523 1.366 . S
C3523 C3522 1.366 . S
C3523 C3524 1.414 . S
C3523 C3526 1.499 . S
C3524 H3504 0.950 . S
C3524 C3523 1.414 . S
C3524 C3525 1.374 . S
C3525 H3505 0.950 . S
C3525 C3521 1.385 1_655 S
C3525 C3524 1.374 . S
C3526 C3523 1.499 . S
C3526 C3527 1.373 . S
C3526 C3528 1.389 . S
C3527 H3506 0.950 . S
C3527 C3526 1.373 . S
C3527 C3543 1.377 . S
C3528 C3526 1.389 . S
C3528 C3529 1.524 . S
C3528 C3542 1.377 . S
C3529 C3528 1.524 . S
C3529 C3530 1.397 . S
C3529 C3534 1.363 . S
C3530 H3507 0.950 . S
C3530 C3529 1.397 . S
C3530 C3531 1.334 . S
C3531 H3508 0.950 . S
C3531 C3530 1.334 . S
C3531 C3532 1.287 . S
C3532 C3531 1.287 . S
C3532 C3533 1.524 . S
C3532 H3551 0.913 . S
C3533 H3509 0.950 . S
C3533 C3532 1.524 . S
C3533 C3534 1.415 . S
C3534 H3510 0.950 . S
C3534 C3529 1.363 . S
C3534 C3533 1.415 . S
C3535 H3511 0.951 . S
C3535 C3536 1.366 . S
C3535 C3537 1.388 . S
C3536 C3535 1.366 . S
C3536 C3540 1.385 . S
C3537 H3512 0.951 . S
C3537 C3535 1.388 . S
C3537 C3538 1.366 . S
C3538 C3537 1.366 . S
C3538 C3539 1.414 . S
C3538 C3541 1.499 . S
C3539 H3513 0.950 . S
C3539 C3538 1.414 . S
C3539 C3540 1.374 . S
C3540 H3514 0.950 . S
C3540 C3536 1.385 . S
C3540 C3539 1.374 . S
C3541 C3538 1.499 . S
C3541 C3542 1.373 . S
C3541 C3543 1.389 . S
C3542 H3515 0.950 . S
C3542 C3528 1.377 . S
C3542 C3541 1.373 . S
C3543 C3527 1.377 . S
C3543 C3541 1.389 . S
C3543 C3544 1.524 . S
C3544 C3543 1.524 . S
C3544 C3545 1.397 . S
C3544 C3549 1.363 . S
C3545 H3516 0.950 . S
C3545 C3544 1.397 . S
C3545 C3546 1.334 . S
C3546 H3517 0.950 . S
C3546 C3545 1.334 . S
C3546 C3547 1.287 . S
C3547 C3546 1.287 . S
C3547 C3548 1.524 . S
C3547 H3550 0.999 . S
C3548 H3518 0.950 . S
C3548 C3547 1.524 . S
C3548 C3549 1.415 . S
C3549 H3519 0.950 . S
C3549 C3544 1.363 . S
C3549 C3548 1.415 . S
H3550 C3547 0.999 . S
H3551 C3532 0.913 . S
H3552 C3570 0.951 . S
H3553 C3572 0.951 . S
H3554 C3574 0.950 . S
H3555 C3575 0.950 . S
H3556 C3577 0.950 . S
H3557 C3580 0.950 . S
H3558 C3581 0.950 . S
H3559 C3583 0.950 . S
H3560 C3584 0.950 . S
H3561 C3585 0.951 . S
H3562 C3587 0.951 . S
H3563 C3589 0.950 . S
H3564 C3590 0.950 . S
H3565 C3592 0.950 . S
H3566 C3595 0.950 . S
H3567 C3596 0.950 . S
H3568 C3598 0.950 . S
H3569 C3599 0.950 . S
C3570 H3552 0.951 . S
C3570 C3571 1.366 . S
C3570 C3572 1.388 . S
C3571 C3570 1.366 . S
C3571 C3575 1.385 . S
C3572 H3553 0.951 . S
C3572 C3570 1.388 . S
C3572 C3573 1.366 . S
C3573 C3572 1.366 . S
C3573 C3574 1.414 . S
C3573 C3576 1.499 . S
C3574 H3554 0.950 . S
C3574 C3573 1.414 . S
C3574 C3575 1.374 . S
C3575 H3555 0.950 . S
C3575 C3571 1.385 . S
C3575 C3574 1.374 . S
C3576 C3573 1.499 . S
C3576 C3577 1.373 . S
C3576 C3578 1.389 . S
C3577 H3556 0.950 . S
C3577 C3576 1.373 . S
C3577 C3593 1.377 . S
C3578 C3576 1.389 . S
C3578 C3579 1.524 . S
C3578 C3592 1.377 . S
C3579 C3578 1.524 . S
C3579 C3580 1.397 . S
C3579 C3584 1.363 . S
C3580 H3557 0.950 . S
C3580 C3579 1.397 . S
C3580 C3581 1.334 . S
C3581 H3558 0.950 . S
C3581 C3580 1.334 . S
C3581 C3582 1.287 . S
C3582 C3581 1.287 . S
C3582 C3583 1.524 . S
C3582 H3601 0.913 . S
C3583 H3559 0.950 . S
C3583 C3582 1.524 . S
C3583 C3584 1.415 . S
C3584 H3560 0.950 . S
C3584 C3579 1.363 . S
C3584 C3583 1.415 . S
C3585 H3561 0.951 . S
C3585 C3586 1.366 . S
C3585 C3587 1.388 . S
C3586 C3585 1.366 . S
C3586 C3590 1.385 . S
C3587 H3562 0.951 . S
C3587 C3585 1.388 . S
C3587 C3588 1.366 . S
C3588 C3587 1.366 . S
C3588 C3589 1.414 . S
C3588 C3591 1.499 . S
C3589 H3563 0.950 . S
C3589 C3588 1.414 . S
C3589 C3590 1.374 . S
C3590 H3564 0.950 . S
C3590 C3586 1.385 . S
C3590 C3589 1.374 . S
C3591 C3588 1.499 . S
C3591 C3592 1.373 . S
C3591 C3593 1.389 . S
C3592 H3565 0.950 . S
C3592 C3578 1.377 . S
C3592 C3591 1.373 . S
C3593 C3577 1.377 . S
C3593 C3591 1.389 . S
C3593 C3594 1.524 . S
C3594 C3593 1.524 . S
C3594 C3595 1.397 . S
C3594 C3599 1.363 . S
C3595 H3566 0.950 . S
C3595 C3594 1.397 . S
C3595 C3596 1.334 . S
C3596 H3567 0.950 . S
C3596 C3595 1.334 . S
C3596 C3597 1.287 . S
C3597 C3596 1.287 . S
C3597 C3598 1.524 . S
C3597 H3600 0.999 . S
C3598 H3568 0.950 . S
C3598 C3597 1.524 . S
C3598 C3599 1.415 . S
C3599 H3569 0.950 . S
C3599 C3594 1.363 . S
C3599 C3598 1.415 . S
H3600 C3597 0.999 . S
H3601 C3582 0.913 . S
H3602 C3620 0.951 . S
H3603 C3622 0.951 . S
H3604 C3624 0.950 . S
H3605 C3625 0.950 . S
H3606 C3627 0.950 . S
H3607 C3630 0.950 . S
H3608 C3631 0.950 . S
H3609 C3633 0.950 . S
H3610 C3634 0.950 . S
H3611 C3635 0.951 . S
H3612 C3637 0.951 . S
H3613 C3639 0.950 . S
H3614 C3640 0.950 . S
H3615 C3642 0.950 . S
H3616 C3645 0.950 . S
H3617 C3646 0.950 . S
H3618 C3648 0.950 . S
H3619 C3649 0.950 . S
C3620 H3602 0.951 . S
C3620 C3621 1.366 . S
C3620 C3622 1.388 . S
C3621 C3620 1.366 . S
C3621 C3625 1.385 . S
C3622 H3603 0.951 . S
C3622 C3620 1.388 . S
C3622 C3623 1.366 . S
C3623 C3622 1.366 . S
C3623 C3624 1.414 . S
C3623 C3626 1.499 . S
C3624 H3604 0.950 . S
C3624 C3623 1.414 . S
C3624 C3625 1.374 . S
C3625 H3605 0.950 . S
C3625 C3621 1.385 . S
C3625 C3624 1.374 . S
C3626 C3623 1.499 . S
C3626 C3627 1.373 . S
C3626 C3628 1.389 . S
C3627 H3606 0.950 . S
C3627 C3626 1.373 . S
C3627 C3643 1.377 . S
C3628 C3626 1.389 . S
C3628 C3629 1.524 . S
C3628 C3642 1.377 . S
C3629 C3628 1.524 . S
C3629 C3630 1.397 . S
C3629 C3634 1.363 . S
C3630 H3607 0.950 . S
C3630 C3629 1.397 . S
C3630 C3631 1.334 . S
C3631 H3608 0.950 . S
C3631 C3630 1.334 . S
C3631 C3632 1.287 . S
C3632 C3631 1.287 . S
C3632 C3633 1.524 . S
C3632 H3651 0.913 . S
C3633 H3609 0.950 . S
C3633 C3632 1.524 . S
C3633 C3634 1.415 . S
C3634 H3610 0.950 . S
C3634 C3629 1.363 . S
C3634 C3633 1.415 . S
C3635 H3611 0.951 . S
C3635 C3636 1.366 . S
C3635 C3637 1.388 . S
C3636 C3635 1.366 . S
C3636 C3640 1.385 . S
C3637 H3612 0.951 . S
C3637 C3635 1.388 . S
C3637 C3638 1.366 . S
C3638 C3637 1.366 . S
C3638 C3639 1.414 . S
C3638 C3641 1.499 . S
C3639 H3613 0.950 . S
C3639 C3638 1.414 . S
C3639 C3640 1.374 . S
C3640 H3614 0.950 . S
C3640 C3636 1.385 . S
C3640 C3639 1.374 . S
C3641 C3638 1.499 . S
C3641 C3642 1.373 . S
C3641 C3643 1.389 . S
C3642 H3615 0.950 . S
C3642 C3628 1.377 . S
C3642 C3641 1.373 . S
C3643 C3627 1.377 . S
C3643 C3641 1.389 . S
C3643 C3644 1.524 . S
C3644 C3643 1.524 . S
C3644 C3645 1.397 . S
C3644 C3649 1.363 . S
C3645 H3616 0.950 . S
C3645 C3644 1.397 . S
C3645 C3646 1.334 . S
C3646 H3617 0.950 . S
C3646 C3645 1.334 . S
C3646 C3647 1.287 . S
C3647 C3646 1.287 . S
C3647 C3648 1.524 . S
C3647 H3650 0.999 . S
C3648 H3618 0.950 . S
C3648 C3647 1.524 . S
C3648 C3649 1.415 . S
C3649 H3619 0.950 . S
C3649 C3644 1.363 . S
C3649 C3648 1.415 . S
H3650 C3647 0.999 . S
H3651 C3632 0.913 . S
H3652 C3670 0.951 . S
H3653 C3672 0.951 . S
H3654 C3674 0.950 . S
H3655 C3675 0.950 . S
H3656 C3677 0.950 . S
H3657 C3680 0.950 . S
H3658 C3681 0.950 . S
H3659 C3683 0.950 . S
H3660 C3684 0.950 . S
H3661 C3685 0.951 . S
H3662 C3687 0.951 . S
H3663 C3689 0.950 . S
H3664 C3690 0.950 . S
H3665 C3692 0.950 . S
H3666 C3695 0.950 . S
H3667 C3696 0.950 . S
H3668 C3698 0.950 . S
H3669 C3699 0.950 . S
C3670 H3652 0.951 . S
C3670 C3671 1.366 . S
C3670 C3672 1.388 . S
C3671 C3670 1.366 . S
C3671 C3675 1.385 . S
C3672 H3653 0.951 . S
C3672 C3670 1.388 . S
C3672 C3673 1.366 . S
C3673 C3672 1.366 . S
C3673 C3674 1.414 . S
C3673 C3676 1.499 . S
C3674 H3654 0.950 . S
C3674 C3673 1.414 . S
C3674 C3675 1.374 . S
C3675 H3655 0.950 . S
C3675 C3671 1.385 . S
C3675 C3674 1.374 . S
C3676 C3673 1.499 . S
C3676 C3677 1.373 . S
C3676 C3678 1.389 . S
C3677 H3656 0.950 . S
C3677 C3676 1.373 . S
C3677 C3693 1.377 . S
C3678 C3676 1.389 . S
C3678 C3679 1.524 . S
C3678 C3692 1.377 . S
C3679 C3678 1.524 . S
C3679 C3680 1.397 . S
C3679 C3684 1.363 . S
C3680 H3657 0.950 . S
C3680 C3679 1.397 . S
C3680 C3681 1.334 1_455 S
C3681 H3658 0.950 . S
C3681 C3680 1.334 1_655 S
C3681 C3682 1.287 . S
C3682 C3681 1.287 . S
C3682 C3683 1.524 . S
C3682 H3701 0.913 . S
C3683 H3659 0.950 . S
C3683 C3682 1.524 . S
C3683 C3684 1.415 1_655 S
C3684 H3660 0.950 . S
C3684 C3679 1.363 . S
C3684 C3683 1.415 1_455 S
C3685 H3661 0.951 . S
C3685 C3686 1.366 . S
C3685 C3687 1.388 . S
C3686 C3685 1.366 . S
C3686 C3690 1.385 . S
C3687 H3662 0.951 . S
C3687 C3685 1.388 . S
C3687 C3688 1.366 . S
C3688 C3687 1.366 . S
C3688 C3689 1.414 . S
C3688 C3691 1.499 . S
C3689 H3663 0.950 . S
C3689 C3688 1.414 . S
C3689 C3690 1.374 . S
C3690 H3664 0.950 . S
C3690 C3686 1.385 . S
C3690 C3689 1.374 . S
C3691 C3688 1.499 . S
C3691 C3692 1.373 . S
C3691 C3693 1.389 . S
C3692 H3665 0.950 . S
C3692 C3678 1.377 . S
C3692 C3691 1.373 . S
C3693 C3677 1.377 . S
C3693 C3691 1.389 . S
C3693 C3694 1.524 . S
C3694 C3693 1.524 . S
C3694 C3695 1.397 . S
C3694 C3699 1.363 . S
C3695 H3666 0.950 . S
C3695 C3694 1.397 . S
C3695 C3696 1.334 . S
C3696 H3667 0.950 . S
C3696 C3695 1.334 . S
C3696 C3697 1.287 . S
C3697 C3696 1.287 . S
C3697 C3698 1.524 . S
C3697 H3700 0.999 . S
C3698 H3668 0.950 . S
C3698 C3697 1.524 . S
C3698 C3699 1.415 . S
C3699 H3669 0.950 . S
C3699 C3694 1.363 . S
C3699 C3698 1.415 . S
H3700 C3697 0.999 . S
H3701 C3682 0.913 . S
H3702 C3720 0.951 . S
H3703 C3722 0.951 . S
H3704 C3724 0.950 . S
H3705 C3725 0.950 . S
H3706 C3727 0.950 . S
H3707 C3730 0.950 . S
H3708 C3731 0.950 . S
H3709 C3733 0.950 . S
H3710 C3734 0.950 . S
H3711 C3735 0.951 . S
H3712 C3737 0.951 . S
H3713 C3739 0.950 . S
H3714 C3740 0.950 . S
H3715 C3742 0.950 . S
H3716 C3745 0.950 . S
H3717 C3746 0.950 . S
H3718 C3748 0.950 . S
H3719 C3749 0.950 . S
C3720 H3702 0.951 . S
C3720 C3721 1.366 . S
C3720 C3722 1.388 . S
C3721 C3720 1.366 . S
C3721 C3725 1.385 . S
C3722 H3703 0.951 . S
C3722 C3720 1.388 . S
C3722 C3723 1.366 . S
C3723 C3722 1.366 . S
C3723 C3724 1.414 . S
C3723 C3726 1.499 . S
C3724 H3704 0.950 . S
C3724 C3723 1.414 . S
C3724 C3725 1.374 . S
C3725 H3705 0.950 . S
C3725 C3721 1.385 . S
C3725 C3724 1.374 . S
C3726 C3723 1.499 . S
C3726 C3727 1.373 . S
C3726 C3728 1.389 . S
C3727 H3706 0.950 . S
C3727 C3726 1.373 . S
C3727 C3743 1.377 . S
C3728 C3726 1.389 . S
C3728 C3729 1.524 . S
C3728 C3742 1.377 . S
C3729 C3728 1.524 . S
C3729 C3730 1.397 . S
C3729 C3734 1.363 . S
C3730 H3707 0.950 . S
C3730 C3729 1.397 . S
C3730 C3731 1.334 . S
C3731 H3708 0.950 . S
C3731 C3730 1.334 . S
C3731 C3732 1.287 . S
C3732 C3731 1.287 . S
C3732 C3733 1.524 . S
C3732 H3751 0.913 . S
C3733 H3709 0.950 . S
C3733 C3732 1.524 . S
C3733 C3734 1.415 . S
C3734 H3710 0.950 . S
C3734 C3729 1.363 . S
C3734 C3733 1.415 . S
C3735 H3711 0.951 . S
C3735 C3736 1.366 . S
C3735 C3737 1.388 . S
C3736 C3735 1.366 . S
C3736 C3740 1.385 . S
C3737 H3712 0.951 . S
C3737 C3735 1.388 . S
C3737 C3738 1.366 . S
C3738 C3737 1.366 . S
C3738 C3739 1.414 . S
C3738 C3741 1.499 . S
C3739 H3713 0.950 . S
C3739 C3738 1.414 . S
C3739 C3740 1.374 . S
C3740 H3714 0.950 . S
C3740 C3736 1.385 . S
C3740 C3739 1.374 . S
C3741 C3738 1.499 . S
C3741 C3742 1.373 . S
C3741 C3743 1.389 . S
C3742 H3715 0.950 . S
C3742 C3728 1.377 . S
C3742 C3741 1.373 . S
C3743 C3727 1.377 . S
C3743 C3741 1.389 . S
C3743 C3744 1.524 . S
C3744 C3743 1.524 . S
C3744 C3745 1.397 . S
C3744 C3749 1.363 . S
C3745 H3716 0.950 . S
C3745 C3744 1.397 . S
C3745 C3746 1.334 . S
C3746 H3717 0.950 . S
C3746 C3745 1.334 . S
C3746 C3747 1.287 . S
C3747 C3746 1.287 . S
C3747 C3748 1.524 . S
C3747 H3750 0.999 . S
C3748 H3718 0.950 . S
C3748 C3747 1.524 . S
C3748 C3749 1.415 . S
C3749 H3719 0.950 . S
C3749 C3744 1.363 . S
C3749 C3748 1.415 . S
H3750 C3747 0.999 . S
H3751 C3732 0.913 . S
H3752 C3770 0.951 . S
H3753 C3772 0.951 . S
H3754 C3774 0.950 . S
H3755 C3775 0.950 . S
H3756 C3777 0.950 . S
H3757 C3780 0.950 . S
H3758 C3781 0.950 . S
H3759 C3783 0.950 . S
H3760 C3784 0.950 . S
H3761 C3785 0.951 . S
H3762 C3787 0.951 . S
H3763 C3789 0.950 . S
H3764 C3790 0.950 . S
H3765 C3792 0.950 . S
H3766 C3795 0.950 . S
H3767 C3796 0.950 . S
H3768 C3798 0.950 . S
H3769 C3799 0.950 . S
C3770 H3752 0.951 . S
C3770 C3771 1.366 . S
C3770 C3772 1.388 . S
C3771 C3770 1.366 . S
C3771 C3775 1.385 . S
C3772 H3753 0.951 . S
C3772 C3770 1.388 . S
C3772 C3773 1.366 . S
C3773 C3772 1.366 . S
C3773 C3774 1.414 . S
C3773 C3776 1.499 . S
C3774 H3754 0.950 . S
C3774 C3773 1.414 . S
C3774 C3775 1.374 . S
C3775 H3755 0.950 . S
C3775 C3771 1.385 . S
C3775 C3774 1.374 . S
C3776 C3773 1.499 . S
C3776 C3777 1.373 . S
C3776 C3778 1.389 . S
C3777 H3756 0.950 . S
C3777 C3776 1.373 . S
C3777 C3793 1.377 . S
C3778 C3776 1.389 . S
C3778 C3779 1.524 . S
C3778 C3792 1.377 . S
C3779 C3778 1.524 . S
C3779 C3780 1.397 . S
C3779 C3784 1.363 . S
C3780 H3757 0.950 . S
C3780 C3779 1.397 . S
C3780 C3781 1.334 . S
C3781 H3758 0.950 . S
C3781 C3780 1.334 . S
C3781 C3782 1.287 . S
C3782 C3781 1.287 . S
C3782 C3783 1.524 . S
C3782 H3801 0.913 . S
C3783 H3759 0.950 . S
C3783 C3782 1.524 . S
C3783 C3784 1.415 . S
C3784 H3760 0.950 . S
C3784 C3779 1.363 . S
C3784 C3783 1.415 . S
C3785 H3761 0.951 . S
C3785 C3786 1.366 . S
C3785 C3787 1.388 . S
C3786 C3785 1.366 . S
C3786 C3790 1.385 . S
C3787 H3762 0.951 . S
C3787 C3785 1.388 . S
C3787 C3788 1.366 . S
C3788 C3787 1.366 . S
C3788 C3789 1.414 . S
C3788 C3791 1.499 . S
C3789 H3763 0.950 . S
C3789 C3788 1.414 . S
C3789 C3790 1.374 . S
C3790 H3764 0.950 . S
C3790 C3786 1.385 . S
C3790 C3789 1.374 . S
C3791 C3788 1.499 . S
C3791 C3792 1.373 . S
C3791 C3793 1.389 . S
C3792 H3765 0.950 . S
C3792 C3778 1.377 . S
C3792 C3791 1.373 . S
C3793 C3777 1.377 . S
C3793 C3791 1.389 . S
C3793 C3794 1.524 . S
C3794 C3793 1.524 . S
C3794 C3795 1.397 . S
C3794 C3799 1.363 . S
C3795 H3766 0.950 . S
C3795 C3794 1.397 . S
C3795 C3796 1.334 . S
C3796 H3767 0.950 . S
C3796 C3795 1.334 . S
C3796 C3797 1.287 . S
C3797 C3796 1.287 . S
C3797 C3798 1.524 . S
C3797 H3800 0.999 . S
C3798 H3768 0.950 . S
C3798 C3797 1.524 . S
C3798 C3799 1.415 . S
C3799 H3769 0.950 . S
C3799 C3794 1.363 . S
C3799 C3798 1.415 . S
H3800 C3797 0.999 . S
H3801 C3782 0.913 . S
H3802 C3820 0.951 . S
H3803 C3822 0.947 . S
H3804 C3824 0.950 . S
H3805 C3825 0.950 . S
H3806 C3827 0.950 . S
H3807 C3830 0.950 . S
H3808 C3831 0.950 . S
H3809 C3833 0.950 . S
H3810 C3834 0.950 . S
H3811 C3835 0.951 . S
H3812 C3837 0.951 . S
H3813 C3839 0.950 . S
H3814 C3840 0.950 . S
H3815 C3842 0.950 . S
H3816 C3845 0.950 . S
H3817 C3846 0.950 . S
H3818 C3848 0.950 . S
H3819 C3849 0.950 . S
C3820 H3802 0.951 . S
C3820 C3821 1.366 . S
C3820 C3822 1.351 1_554 S
C3821 C3820 1.366 . S
C3821 C3825 1.385 1_554 S
C3822 H3803 0.947 . S
C3822 C3820 1.351 1_556 S
C3822 C3823 1.408 . S
C3823 C3822 1.408 . S
C3823 C3824 1.414 . S
C3823 C3826 1.499 . S
C3824 H3804 0.950 . S
C3824 C3823 1.414 . S
C3824 C3825 1.374 . S
C3825 H3805 0.950 . S
C3825 C3821 1.385 1_556 S
C3825 C3824 1.374 . S
C3826 C3823 1.499 . S
C3826 C3827 1.373 . S
C3826 C3828 1.389 . S
C3827 H3806 0.950 . S
C3827 C3826 1.373 . S
C3827 C3843 1.377 . S
C3828 C3826 1.389 . S
C3828 C3829 1.524 . S
C3828 C3842 1.377 . S
C3829 C3828 1.524 . S
C3829 C3830 1.397 . S
C3829 C3834 1.363 . S
C3830 H3807 0.950 . S
C3830 C3829 1.397 . S
C3830 C3831 1.334 . S
C3831 H3808 0.950 . S
C3831 C3830 1.334 . S
C3831 C3832 1.287 . S
C3832 C3831 1.287 . S
C3832 C3833 1.524 . S
C3832 H3851 0.913 . S
C3833 H3809 0.950 . S
C3833 C3832 1.524 . S
C3833 C3834 1.415 . S
C3834 H3810 0.950 . S
C3834 C3829 1.363 . S
C3834 C3833 1.415 . S
C3835 H3811 0.951 . S
C3835 C3836 1.366 . S
C3835 C3837 1.388 . S
C3836 C3835 1.366 . S
C3836 C3840 1.385 . S
C3837 H3812 0.951 . S
C3837 C3835 1.388 . S
C3837 C3838 1.366 . S
C3838 C3837 1.366 . S
C3838 C3839 1.414 . S
C3838 C3841 1.499 . S
C3839 H3813 0.950 . S
C3839 C3838 1.414 . S
C3839 C3840 1.374 . S
C3840 H3814 0.950 . S
C3840 C3836 1.385 . S
C3840 C3839 1.374 . S
C3841 C3838 1.499 . S
C3841 C3842 1.373 . S
C3841 C3843 1.389 . S
C3842 H3815 0.950 . S
C3842 C3828 1.377 . S
C3842 C3841 1.373 . S
C3843 C3827 1.377 . S
C3843 C3841 1.389 . S
C3843 C3844 1.524 . S
C3844 C3843 1.524 . S
C3844 C3845 1.397 . S
C3844 C3849 1.363 . S
C3845 H3816 0.950 . S
C3845 C3844 1.397 . S
C3845 C3846 1.334 . S
C3846 H3817 0.950 . S
C3846 C3845 1.334 . S
C3846 C3847 1.287 . S
C3847 C3846 1.287 . S
C3847 C3848 1.524 . S
C3847 H3850 0.999 . S
C3848 H3818 0.950 . S
C3848 C3847 1.524 . S
C3848 C3849 1.415 . S
C3849 H3819 0.950 . S
C3849 C3844 1.363 . S
C3849 C3848 1.415 . S
H3850 C3847 0.999 . S
H3851 C3832 0.913 . S
H3852 C3870 0.951 . S
H3853 C3872 0.951 . S
H3854 C3874 0.950 . S
H3855 C3875 0.950 . S
H3856 C3877 0.950 . S
H3857 C3880 0.950 . S
H3858 C3881 0.950 . S
H3859 C3883 0.950 . S
H3860 C3884 0.950 . S
H3861 C3885 0.951 . S
H3862 C3887 0.951 . S
H3863 C3889 0.950 . S
H3864 C3890 0.950 . S
H3865 C3892 0.950 . S
H3866 C3895 0.950 . S
H3867 C3896 0.950 . S
H3868 C3898 0.950 . S
H3869 C3899 0.950 . S
C3870 H3852 0.951 . S
C3870 C3871 1.366 . S
C3870 C3872 1.388 . S
C3871 C3870 1.366 . S
C3871 C3875 1.385 . S
C3872 H3853 0.951 . S
C3872 C3870 1.388 . S
C3872 C3873 1.366 . S
C3873 C3872 1.366 . S
C3873 C3874 1.414 . S
C3873 C3876 1.499 . S
C3874 H3854 0.950 . S
C3874 C3873 1.414 . S
C3874 C3875 1.374 . S
C3875 H3855 0.950 . S
C3875 C3871 1.385 . S
C3875 C3874 1.374 . S
C3876 C3873 1.499 . S
C3876 C3877 1.373 . S
C3876 C3878 1.389 . S
C3877 H3856 0.950 . S
C3877 C3876 1.373 . S
C3877 C3893 1.377 . S
C3878 C3876 1.389 . S
C3878 C3879 1.524 . S
C3878 C3892 1.377 . S
C3879 C3878 1.524 . S
C3879 C3880 1.397 . S
C3879 C3884 1.363 . S
C3880 H3857 0.950 . S
C3880 C3879 1.397 . S
C3880 C3881 1.334 . S
C3881 H3858 0.950 . S
C3881 C3880 1.334 . S
C3881 C3882 1.287 . S
C3882 C3881 1.287 . S
C3882 C3883 1.524 . S
C3882 H3901 0.913 . S
C3883 H3859 0.950 . S
C3883 C3882 1.524 . S
C3883 C3884 1.415 . S
C3884 H3860 0.950 . S
C3884 C3879 1.363 . S
C3884 C3883 1.415 . S
C3885 H3861 0.951 . S
C3885 C3886 1.366 . S
C3885 C3887 1.388 . S
C3886 C3885 1.366 . S
C3886 C3890 1.385 . S
C3887 H3862 0.951 . S
C3887 C3885 1.388 . S
C3887 C3888 1.366 . S
C3888 C3887 1.366 . S
C3888 C3889 1.414 . S
C3888 C3891 1.499 . S
C3889 H3863 0.950 . S
C3889 C3888 1.414 . S
C3889 C3890 1.374 . S
C3890 H3864 0.950 . S
C3890 C3886 1.385 . S
C3890 C3889 1.374 . S
C3891 C3888 1.499 . S
C3891 C3892 1.373 . S
C3891 C3893 1.389 . S
C3892 H3865 0.950 . S
C3892 C3878 1.377 . S
C3892 C3891 1.373 . S
C3893 C3877 1.377 . S
C3893 C3891 1.389 . S
C3893 C3894 1.524 . S
C3894 C3893 1.524 . S
C3894 C3895 1.397 . S
C3894 C3899 1.363 . S
C3895 H3866 0.950 . S
C3895 C3894 1.397 . S
C3895 C3896 1.334 . S
C3896 H3867 0.950 . S
C3896 C3895 1.334 . S
C3896 C3897 1.287 . S
C3897 C3896 1.287 . S
C3897 C3898 1.524 . S
C3897 H3900 0.999 . S
C3898 H3868 0.950 . S
C3898 C3897 1.524 . S
C3898 C3899 1.415 . S
C3899 H3869 0.950 . S
C3899 C3894 1.363 . S
C3899 C3898 1.415 . S
H3900 C3897 0.999 . S
H3901 C3882 0.913 . S
H3902 C3920 0.951 . S
H3903 C3922 0.951 . S
H3904 C3924 0.950 . S
H3905 C3925 0.950 . S
H3906 C3927 0.950 . S
H3907 C3930 0.950 . S
H3908 C3931 0.950 . S
H3909 C3933 0.950 . S
H3910 C3934 0.950 . S
H3911 C3935 0.951 . S
H3912 C3937 0.951 . S
H3913 C3939 0.950 . S
H3914 C3940 0.950 . S
H3915 C3942 0.950 . S
H3916 C3945 0.950 . S
H3917 C3946 0.950 . S
H3918 C3948 0.950 . S
H3919 C3949 0.950 . S
C3920 H3902 0.951 . S
C3920 C3921 1.366 . S
C3920 C3922 1.388 . S
C3921 C3920 1.366 . S
C3921 C3925 1.385 . S
C3922 H3903 0.951 . S
C3922 C3920 1.388 . S
C3922 C3923 1.366 . S
C3923 C3922 1.366 . S
C3923 C3924 1.414 . S
C3923 C3926 1.499 . S
C3924 H3904 0.950 . S
C3924 C3923 1.414 . S
C3924 C3925 1.374 . S
C3925 H3905 0.950 . S
C3925 C3921 1.385 . S
C3925 C3924 1.374 . S
C3926 C3923 1.499 . S
C3926 C3927 1.373 . S
C3926 C3928 1.389 . S
C3927 H3906 0.950 . S
C3927 C3926 1.373 . S
C3927 C3943 1.377 . S
C3928 C3926 1.389 . S
C3928 C3929 1.524 . S
C3928 C3942 1.377 . S
C3929 C3928 1.524 . S
C3929 C3930 1.397 . S
C3929 C3934 1.363 . S
C3930 H3907 0.950 . S
C3930 C3929 1.397 . S
C3930 C3931 1.334 . S
C3931 H3908 0.950 . S
C3931 C3930 1.334 . S
C3931 C3932 1.287 . S
C3932 C3931 1.287 . S
C3932 C3933 1.524 . S
C3932 H3951 0.913 . S
C3933 H3909 0.950 . S
C3933 C3932 1.524 . S
C3933 C3934 1.415 . S
C3934 H3910 0.950 . S
C3934 C3929 1.363 . S
C3934 C3933 1.415 . S
C3935 H3911 0.951 . S
C3935 C3936 1.366 . S
C3935 C3937 1.388 . S
C3936 C3935 1.366 . S
C3936 C3940 1.385 . S
C3937 H3912 0.951 . S
C3937 C3935 1.388 . S
C3937 C3938 1.366 . S
C3938 C3937 1.366 . S
C3938 C3939 1.414 . S
C3938 C3941 1.499 . S
C3939 H3913 0.950 . S
C3939 C3938 1.414 . S
C3939 C3940 1.374 . S
C3940 H3914 0.950 . S
C3940 C3936 1.385 . S
C3940 C3939 1.374 . S
C3941 C3938 1.499 . S
C3941 C3942 1.373 . S
C3941 C3943 1.389 . S
C3942 H3915 0.950 . S
C3942 C3928 1.377 . S
C3942 C3941 1.373 . S
C3943 C3927 1.377 . S
C3943 C3941 1.389 . S
C3943 C3944 1.524 . S
C3944 C3943 1.524 . S
C3944 C3945 1.397 . S
C3944 C3949 1.363 . S
C3945 H3916 0.950 . S
C3945 C3944 1.397 . S
C3945 C3946 1.334 . S
C3946 H3917 0.950 . S
C3946 C3945 1.334 . S
C3946 C3947 1.287 . S
C3947 C3946 1.287 . S
C3947 C3948 1.524 . S
C3947 H3950 0.999 . S
C3948 H3918 0.950 . S
C3948 C3947 1.524 . S
C3948 C3949 1.415 . S
C3949 H3919 0.950 . S
C3949 C3944 1.363 . S
C3949 C3948 1.415 . S
H3950 C3947 0.999 . S
H3951 C3932 0.913 . S
H3952 C3970 0.951 . S
H3953 C3972 0.951 . S
H3954 C3974 0.950 . S
H3955 C3975 0.950 . S
H3956 C3977 0.950 . S
H3957 C3980 0.950 . S
H3958 C3981 0.950 . S
H3959 C3983 0.950 . S
H3960 C3984 0.950 . S
H3961 C3985 0.951 . S
H3962 C3987 0.951 . S
H3963 C3989 0.950 . S
H3964 C3990 0.950 . S
H3965 C3992 0.950 . S
H3966 C3995 0.950 . S
H3967 C3996 0.950 . S
H3968 C3998 0.950 . S
H3969 C3999 0.950 . S
C3970 H3952 0.951 . S
C3970 C3971 1.366 . S
C3970 C3972 1.388 . S
C3971 C3970 1.366 . S
C3971 C3975 1.385 . S
C3972 H3953 0.951 . S
C3972 C3970 1.388 . S
C3972 C3973 1.366 . S
C3973 C3972 1.366 . S
C3973 C3974 1.414 . S
C3973 C3976 1.499 . S
C3974 H3954 0.950 . S
C3974 C3973 1.414 . S
C3974 C3975 1.374 . S
C3975 H3955 0.950 . S
C3975 C3971 1.385 . S
C3975 C3974 1.374 . S
C3976 C3973 1.499 . S
C3976 C3977 1.373 . S
C3976 C3978 1.389 . S
C3977 H3956 0.950 . S
C3977 C3976 1.373 . S
C3977 C3993 1.377 . S
C3978 C3976 1.389 . S
C3978 C3979 1.524 . S
C3978 C3992 1.377 . S
C3979 C3978 1.524 . S
C3979 C3980 1.397 . S
C3979 C3984 1.363 . S
C3980 H3957 0.950 . S
C3980 C3979 1.397 . S
C3980 C3981 1.334 . S
C3981 H3958 0.950 . S
C3981 C3980 1.334 . S
C3981 C3982 1.287 . S
C3982 C3981 1.287 . S
C3982 C3983 1.524 . S
C3982 H4001 0.913 . S
C3983 H3959 0.950 . S
C3983 C3982 1.524 . S
C3983 C3984 1.415 . S
C3984 H3960 0.950 . S
C3984 C3979 1.363 . S
C3984 C3983 1.415 . S
C3985 H3961 0.951 . S
C3985 C3986 1.366 . S
C3985 C3987 1.388 . S
C3986 C3985 1.366 . S
C3986 C3990 1.385 . S
C3987 H3962 0.951 . S
C3987 C3985 1.388 . S
C3987 C3988 1.366 . S
C3988 C3987 1.366 . S
C3988 C3989 1.414 . S
C3988 C3991 1.499 . S
C3989 H3963 0.950 . S
C3989 C3988 1.414 . S
C3989 C3990 1.374 . S
C3990 H3964 0.950 . S
C3990 C3986 1.385 . S
C3990 C3989 1.374 . S
C3991 C3988 1.499 . S
C3991 C3992 1.373 . S
C3991 C3993 1.389 . S
C3992 H3965 0.950 . S
C3992 C3978 1.377 . S
C3992 C3991 1.373 . S
C3993 C3977 1.377 . S
C3993 C3991 1.389 . S
C3993 C3994 1.524 . S
C3994 C3993 1.524 . S
C3994 C3995 1.397 . S
C3994 C3999 1.363 . S
C3995 H3966 0.950 . S
C3995 C3994 1.397 . S
C3995 C3996 1.334 . S
C3996 H3967 0.950 . S
C3996 C3995 1.334 . S
C3996 C3997 1.287 . S
C3997 C3996 1.287 . S
C3997 C3998 1.524 . S
C3997 H4000 0.999 . S
C3998 H3968 0.950 . S
C3998 C3997 1.524 . S
C3998 C3999 1.415 . S
C3999 H3969 0.950 . S
C3999 C3994 1.363 . S
C3999 C3998 1.415 . S
H4000 C3997 0.999 . S
H4001 C3982 0.913 . S
H4002 C4020 0.951 . S
H4003 C4022 0.951 . S
H4004 C4024 0.950 . S
H4005 C4025 0.950 . S
H4006 C4027 0.950 . S
H4007 C4030 0.950 . S
H4008 C4031 0.950 . S
H4009 C4033 0.950 . S
H4010 C4034 0.950 . S
H4011 C4035 0.951 . S
H4012 C4037 0.951 . S
H4013 C4039 0.950 . S
H4014 C4040 0.950 . S
H4015 C4042 0.950 . S
H4016 C4045 0.950 . S
H4017 C4046 0.950 . S
H4018 C4048 0.950 . S
H4019 C4049 0.950 . S
C4020 H4002 0.951 . S
C4020 C4021 1.366 . S
C4020 C4022 1.388 . S
C4021 C4020 1.366 . S
C4021 C4025 1.385 . S
C4022 H4003 0.951 . S
C4022 C4020 1.388 . S
C4022 C4023 1.366 . S
C4023 C4022 1.366 . S
C4023 C4024 1.414 . S
C4023 C4026 1.499 . S
C4024 H4004 0.950 . S
C4024 C4023 1.414 . S
C4024 C4025 1.374 . S
C4025 H4005 0.950 . S
C4025 C4021 1.385 . S
C4025 C4024 1.374 . S
C4026 C4023 1.499 . S
C4026 C4027 1.373 . S
C4026 C4028 1.389 . S
C4027 H4006 0.950 . S
C4027 C4026 1.373 . S
C4027 C4043 1.377 . S
C4028 C4026 1.389 . S
C4028 C4029 1.524 . S
C4028 C4042 1.377 . S
C4029 C4028 1.524 . S
C4029 C4030 1.397 . S
C4029 C4034 1.363 . S
C4030 H4007 0.950 . S
C4030 C4029 1.397 . S
C4030 C4031 1.334 . S
C4031 H4008 0.950 . S
C4031 C4030 1.334 . S
C4031 C4032 1.287 . S
C4032 C4031 1.287 . S
C4032 C4033 1.524 . S
C4032 H4051 0.913 . S
C4033 H4009 0.950 . S
C4033 C4032 1.524 . S
C4033 C4034 1.415 . S
C4034 H4010 0.950 . S
C4034 C4029 1.363 . S
C4034 C4033 1.415 . S
C4035 H4011 0.951 . S
C4035 C4036 1.366 . S
C4035 C4037 1.388 . S
C4036 C4035 1.366 . S
C4036 C4040 1.385 . S
C4037 H4012 0.951 . S
C4037 C4035 1.388 . S
C4037 C4038 1.366 . S
C4038 C4037 1.366 . S
C4038 C4039 1.414 . S
C4038 C4041 1.499 . S
C4039 H4013 0.950 . S
C4039 C4038 1.414 . S
C4039 C4040 1.374 . S
C4040 H4014 0.950 . S
C4040 C4036 1.385 . S
C4040 C4039 1.374 . S
C4041 C4038 1.499 . S
C4041 C4042 1.373 . S
C4041 C4043 1.389 . S
C4042 H4015 0.950 . S
C4042 C4028 1.377 . S
C4042 C4041 1.373 . S
C4043 C4027 1.377 . S
C4043 C4041 1.389 . S
C4043 C4044 1.524 . S
C4044 C4043 1.524 . S
C4044 C4045 1.397 . S
C4044 C4049 1.363 . S
C4045 H4016 0.950 . S
C4045 C4044 1.397 . S
C4045 C4046 1.334 . S
C4046 H4017 0.950 . S
C4046 C4045 1.334 . S
C4046 C4047 1.287 . S
C4047 C4046 1.287 . S
C4047 C4048 1.524 . S
C4047 H4050 0.999 . S
C4048 H4018 0.950 . S
C4048 C4047 1.524 . S
C4048 C4049 1.415 . S
C4049 H4019 0.950 . S
C4049 C4044 1.363 . S
C4049 C4048 1.415 . S
H4050 C4047 0.999 . S
H4051 C4032 0.913 . S
H4052 C4070 0.951 . S
H4053 C4072 0.951 . S
H4054 C4074 0.950 . S
H4055 C4075 0.950 . S
H4056 C4077 0.950 . S
H4057 C4080 0.950 . S
H4058 C4081 0.950 . S
H4059 C4083 0.950 . S
H4060 C4084 0.950 . S
H4061 C4085 0.951 . S
H4062 C4087 0.951 . S
H4063 C4089 0.950 . S
H4064 C4090 0.950 . S
H4065 C4092 0.950 . S
H4066 C4095 0.950 . S
H4067 C4096 0.950 . S
H4068 C4098 0.950 . S
H4069 C4099 0.950 . S
C4070 H4052 0.951 . S
C4070 C4071 1.366 . S
C4070 C4072 1.388 . S
C4071 C4070 1.366 . S
C4071 C4075 1.385 . S
C4072 H4053 0.951 . S
C4072 C4070 1.388 . S
C4072 C4073 1.366 . S
C4073 C4072 1.366 . S
C4073 C4074 1.414 . S
C4073 C4076 1.499 . S
C4074 H4054 0.950 . S
C4074 C4073 1.414 . S
C4074 C4075 1.374 . S
C4075 H4055 0.950 . S
C4075 C4071 1.385 . S
C4075 C4074 1.374 . S
C4076 C4073 1.499 . S
C4076 C4077 1.373 . S
C4076 C4078 1.389 . S
C4077 H4056 0.950 . S
C4077 C4076 1.373 . S
C4077 C4093 1.377 . S
C4078 C4076 1.389 . S
C4078 C4079 1.524 . S
C4078 C4092 1.377 . S
C4079 C4078 1.524 . S
C4079 C4080 1.397 . S
C4079 C4084 1.363 . S
C4080 H4057 0.950 . S
C4080 C4079 1.397 . S
C4080 C4081 1.334 . S
C4081 H4058 0.950 . S
C4081 C4080 1.334 . S
C4081 C4082 1.287 . S
C4082 C4081 1.287 . S
C4082 C4083 1.524 . S
C4082 H4101 0.913 . S
C4083 H4059 0.950 . S
C4083 C4082 1.524 . S
C4083 C4084 1.415 . S
C4084 H4060 0.950 . S
C4084 C4079 1.363 . S
C4084 C4083 1.415 . S
C4085 H4061 0.951 . S
C4085 C4086 1.366 . S
C4085 C4087 1.388 . S
C4086 C4085 1.366 . S
C4086 C4090 1.385 . S
C4087 H4062 0.951 . S
C4087 C4085 1.388 . S
C4087 C4088 1.366 . S
C4088 C4087 1.366 . S
C4088 C4089 1.414 . S
C4088 C4091 1.499 . S
C4089 H4063 0.950 . S
C4089 C4088 1.414 . S
C4089 C4090 1.374 . S
C4090 H4064 0.950 . S
C4090 C4086 1.385 . S
C4090 C4089 1.374 . S
C4091 C4088 1.499 . S
C4091 C4092 1.373 . S
C4091 C4093 1.389 . S
C4092 H4065 0.950 . S
C4092 C4078 1.377 . S
C4092 C4091 1.373 . S
C4093 C4077 1.377 . S
C4093 C4091 1.389 . S
C4093 C4094 1.524 . S
C4094 C4093 1.524 . S
C4094 C4095 1.397 . S
C4094 C4099 1.363 . S
C4095 H4066 0.950 . S
C4095 C4094 1.397 . S
C4095 C4096 1.334 . S
C4096 H4067 0.950 . S
C4096 C4095 1.334 . S
C4096 C4097 1.287 . S
C4097 C4096 1.287 . S
C4097 C4098 1.524 . S
C4097 H4100 0.999 . S
C4098 H4068 0.950 . S
C4098 C4097 1.524 . S
C4098 C4099 1.415 . S
C4099 H4069 0.950 . S
C4099 C4094 1.363 . S
C4099 C4098 1.415 . S
H4100 C4097 0.999 . S
H4101 C4082 0.913 . S
H4102 C4120 0.951 . S
H4103 C4122 0.951 . S
H4104 C4124 0.950 . S
H4105 C4125 0.950 . S
H4106 C4127 0.950 . S
H4107 C4130 0.950 . S
H4108 C4131 0.950 . S
H4109 C4133 0.950 . S
H4110 C4134 0.950 . S
H4111 C4135 0.951 . S
H4112 C4137 0.951 . S
H4113 C4139 0.950 . S
H4114 C4140 0.950 . S
H4115 C4142 0.950 . S
H4116 C4145 0.950 . S
H4117 C4146 0.950 . S
H4118 C4148 0.950 . S
H4119 C4149 0.950 . S
C4120 H4102 0.951 . S
C4120 C4121 1.366 . S
C4120 C4122 1.388 . S
C4121 C4120 1.366 . S
C4121 C4125 1.385 . S
C4122 H4103 0.951 . S
C4122 C4120 1.388 . S
C4122 C4123 1.366 . S
C4123 C4122 1.366 . S
C4123 C4124 1.414 . S
C4123 C4126 1.499 . S
C4124 H4104 0.950 . S
C4124 C4123 1.414 . S
C4124 C4125 1.374 . S
C4125 H4105 0.950 . S
C4125 C4121 1.385 . S
C4125 C4124 1.374 . S
C4126 C4123 1.499 . S
C4126 C4127 1.373 . S
C4126 C4128 1.389 . S
C4127 H4106 0.950 . S
C4127 C4126 1.373 . S
C4127 C4143 1.377 . S
C4128 C4126 1.389 . S
C4128 C4129 1.524 . S
C4128 C4142 1.377 . S
C4129 C4128 1.524 . S
C4129 C4130 1.397 . S
C4129 C4134 1.363 . S
C4130 H4107 0.950 . S
C4130 C4129 1.397 . S
C4130 C4131 1.334 . S
C4131 H4108 0.950 . S
C4131 C4130 1.334 . S
C4131 C4132 1.287 . S
C4132 C4131 1.287 . S
C4132 C4133 1.524 . S
C4132 H4151 0.913 . S
C4133 H4109 0.950 . S
C4133 C4132 1.524 . S
C4133 C4134 1.415 . S
C4134 H4110 0.950 . S
C4134 C4129 1.363 . S
C4134 C4133 1.415 . S
C4135 H4111 0.951 . S
C4135 C4136 1.366 . S
C4135 C4137 1.388 . S
C4136 C4135 1.366 . S
C4136 C4140 1.385 . S
C4137 H4112 0.951 . S
C4137 C4135 1.388 . S
C4137 C4138 1.366 . S
C4138 C4137 1.366 . S
C4138 C4139 1.414 . S
C4138 C4141 1.499 . S
C4139 H4113 0.950 . S
C4139 C4138 1.414 . S
C4139 C4140 1.374 . S
C4140 H4114 0.950 . S
C4140 C4136 1.385 . S
C4140 C4139 1.374 . S
C4141 C4138 1.499 . S
C4141 C4142 1.373 . S
C4141 C4143 1.389 . S
C4142 H4115 0.950 . S
C4142 C4128 1.377 . S
C4142 C4141 1.373 . S
C4143 C4127 1.377 . S
C4143 C4141 1.389 . S
C4143 C4144 1.524 . S
C4144 C4143 1.524 . S
C4144 C4145 1.397 . S
C4144 C4149 1.363 . S
C4145 H4116 0.950 . S
C4145 C4144 1.397 . S
C4145 C4146 1.334 . S
C4146 H4117 0.950 . S
C4146 C4145 1.334 . S
C4146 C4147 1.287 . S
C4147 C4146 1.287 . S
C4147 C4148 1.524 . S
C4147 H4150 0.999 . S
C4148 H4118 0.950 . S
C4148 C4147 1.524 . S
C4148 C4149 1.415 . S
C4149 H4119 0.950 . S
C4149 C4144 1.363 . S
C4149 C4148 1.415 . S
H4150 C4147 0.999 . S
H4151 C4132 0.913 . S
H4152 C4170 0.951 . S
H4153 C4172 0.951 . S
H4154 C4174 0.950 . S
H4155 C4175 0.950 . S
H4156 C4177 0.950 . S
H4157 C4180 0.950 . S
H4158 C4181 0.950 . S
H4159 C4183 0.950 . S
H4160 C4184 0.950 . S
H4161 C4185 0.951 . S
H4162 C4187 0.951 . S
H4163 C4189 0.950 . S
H4164 C4190 0.950 . S
H4165 C4192 0.950 . S
H4166 C4195 0.950 . S
H4167 C4196 0.950 . S
H4168 C4198 0.950 . S
H4169 C4199 0.950 . S
C4170 H4152 0.951 . S
C4170 C4171 1.366 . S
C4170 C4172 1.388 . S
C4171 C4170 1.366 . S
C4171 C4175 1.385 . S
C4172 H4153 0.951 . S
C4172 C4170 1.388 . S
C4172 C4173 1.366 . S
C4173 C4172 1.366 . S
C4173 C4174 1.414 . S
C4173 C4176 1.499 . S
C4174 H4154 0.950 . S
C4174 C4173 1.414 . S
C4174 C4175 1.374 . S
C4175 H4155 0.950 . S
C4175 C4171 1.385 . S
C4175 C4174 1.374 . S
C4176 C4173 1.499 . S
C4176 C4177 1.373 . S
C4176 C4178 1.389 . S
C4177 H4156 0.950 . S
C4177 C4176 1.373 . S
C4177 C4193 1.377 . S
C4178 C4176 1.389 . S
C4178 C4179 1.524 . S
C4178 C4192 1.377 . S
C4179 C4178 1.524 . S
C4179 C4180 1.397 . S
C4179 C4184 1.363 . S
C4180 H4157 0.950 . S
C4180 C4179 1.397 . S
C4180 C4181 1.334 . S
C4181 H4158 0.950 . S
C4181 C4180 1.334 . S
C4181 C4182 1.287 . S
C4182 C4181 1.287 . S
C4182 C4183 1.524 . S
C4182 H4201 0.913 . S
C4183 H4159 0.950 . S
C4183 C4182 1.524 . S
C4183 C4184 1.415 . S
C4184 H4160 0.950 . S
C4184 C4179 1.363 . S
C4184 C4183 1.415 . S
C4185 H4161 0.951 . S
C4185 C4186 1.366 . S
C4185 C4187 1.388 . S
C4186 C4185 1.366 . S
C4186 C4190 1.385 . S
C4187 H4162 0.951 . S
C4187 C4185 1.388 . S
C4187 C4188 1.366 . S
C4188 C4187 1.366 . S
C4188 C4189 1.414 . S
C4188 C4191 1.499 . S
C4189 H4163 0.950 . S
C4189 C4188 1.414 . S
C4189 C4190 1.374 . S
C4190 H4164 0.950 . S
C4190 C4186 1.385 . S
C4190 C4189 1.374 . S
C4191 C4188 1.499 . S
C4191 C4192 1.373 . S
C4191 C4193 1.389 . S
C4192 H4165 0.950 . S
C4192 C4178 1.377 . S
C4192 C4191 1.373 . S
C4193 C4177 1.377 . S
C4193 C4191 1.389 . S
C4193 C4194 1.524 . S
C4194 C4193 1.524 . S
C4194 C4195 1.397 . S
C4194 C4199 1.363 . S
C4195 H4166 0.950 . S
C4195 C4194 1.397 . S
C4195 C4196 1.334 . S
C4196 H4167 0.950 . S
C4196 C4195 1.334 . S
C4196 C4197 1.287 . S
C4197 C4196 1.287 . S
C4197 C4198 1.524 . S
C4197 H4200 0.999 . S
C4198 H4168 0.950 . S
C4198 C4197 1.524 . S
C4198 C4199 1.415 . S
C4199 H4169 0.950 . S
C4199 C4194 1.363 . S
C4199 C4198 1.415 . S
H4200 C4197 0.999 . S
H4201 C4182 0.913 . S
H4202 C4220 0.951 . S
H4203 C4222 0.951 . S
H4204 C4224 0.950 . S
H4205 C4225 0.950 . S
H4206 C4227 0.950 . S
H4207 C4230 0.950 . S
H4208 C4231 0.950 . S
H4209 C4233 0.950 . S
H4210 C4234 0.950 . S
H4211 C4235 0.951 . S
H4212 C4237 0.951 . S
H4213 C4239 0.950 . S
H4214 C4240 0.950 . S
H4215 C4242 0.950 . S
H4216 C4245 0.950 . S
H4217 C4246 0.950 . S
H4218 C4248 0.950 . S
H4219 C4249 0.950 . S
C4220 H4202 0.951 . S
C4220 C4221 1.366 . S
C4220 C4222 1.388 . S
C4221 C4220 1.366 . S
C4221 C4225 1.385 . S
C4222 H4203 0.951 . S
C4222 C4220 1.388 . S
C4222 C4223 1.366 . S
C4223 C4222 1.366 . S
C4223 C4224 1.414 . S
C4223 C4226 1.499 . S
C4224 H4204 0.950 . S
C4224 C4223 1.414 . S
C4224 C4225 1.374 . S
C4225 H4205 0.950 . S
C4225 C4221 1.385 . S
C4225 C4224 1.374 . S
C4226 C4223 1.499 . S
C4226 C4227 1.373 . S
C4226 C4228 1.389 . S
C4227 H4206 0.950 . S
C4227 C4226 1.373 . S
C4227 C4243 1.377 . S
C4228 C4226 1.389 . S
C4228 C4229 1.524 . S
C4228 C4242 1.377 . S
C4229 C4228 1.524 . S
C4229 C4230 1.397 . S
C4229 C4234 1.363 . S
C4230 H4207 0.950 . S
C4230 C4229 1.397 . S
C4230 C4231 1.334 . S
C4231 H4208 0.950 . S
C4231 C4230 1.334 . S
C4231 C4232 1.287 . S
C4232 C4231 1.287 . S
C4232 C4233 1.524 . S
C4232 H4251 0.913 . S
C4233 H4209 0.950 . S
C4233 C4232 1.524 . S
C4233 C4234 1.415 . S
C4234 H4210 0.950 . S
C4234 C4229 1.363 . S
C4234 C4233 1.415 . S
C4235 H4211 0.951 . S
C4235 C4236 1.366 . S
C4235 C4237 1.388 . S
C4236 C4235 1.366 . S
C4236 C4240 1.385 . S
C4237 H4212 0.951 . S
C4237 C4235 1.388 . S
C4237 C4238 1.366 . S
C4238 C4237 1.366 . S
C4238 C4239 1.414 . S
C4238 C4241 1.499 . S
C4239 H4213 0.950 . S
C4239 C4238 1.414 . S
C4239 C4240 1.374 . S
C4240 H4214 0.950 . S
C4240 C4236 1.385 . S
C4240 C4239 1.374 . S
C4241 C4238 1.499 . S
C4241 C4242 1.373 . S
C4241 C4243 1.389 . S
C4242 H4215 0.950 . S
C4242 C4228 1.377 . S
C4242 C4241 1.373 . S
C4243 C4227 1.377 . S
C4243 C4241 1.389 . S
C4243 C4244 1.524 . S
C4244 C4243 1.524 . S
C4244 C4245 1.397 . S
C4244 C4249 1.363 . S
C4245 H4216 0.950 . S
C4245 C4244 1.397 . S
C4245 C4246 1.334 . S
C4246 H4217 0.950 . S
C4246 C4245 1.334 . S
C4246 C4247 1.287 . S
C4247 C4246 1.287 . S
C4247 C4248 1.524 . S
C4247 H4250 0.999 . S
C4248 H4218 0.950 . S
C4248 C4247 1.524 . S
C4248 C4249 1.415 . S
C4249 H4219 0.950 . S
C4249 C4244 1.363 . S
C4249 C4248 1.415 . S
H4250 C4247 0.999 . S
H4251 C4232 0.913 . S
H4252 C4270 0.951 . S
H4253 C4272 0.951 . S
H4254 C4274 0.950 . S
H4255 C4275 0.950 . S
H4256 C4277 0.950 . S
H4257 C4280 0.950 . S
H4258 C4281 0.950 . S
H4259 C4283 0.950 . S
H4260 C4284 0.950 . S
H4261 C4285 0.951 . S
H4262 C4287 0.951 . S
H4263 C4289 0.950 . S
H4264 C4290 0.950 . S
H4265 C4292 0.950 . S
H4266 C4295 0.950 . S
H4267 C4296 0.950 . S
H4268 C4298 0.950 . S
H4269 C4299 0.950 . S
C4270 H4252 0.951 . S
C4270 C4271 1.366 . S
C4270 C4272 1.388 . S
C4271 C4270 1.366 . S
C4271 C4275 1.385 . S
C4272 H4253 0.951 . S
C4272 C4270 1.388 . S
C4272 C4273 1.366 . S
C4273 C4272 1.366 . S
C4273 C4274 1.414 . S
C4273 C4276 1.499 . S
C4274 H4254 0.950 . S
C4274 C4273 1.414 . S
C4274 C4275 1.374 . S
C4275 H4255 0.950 . S
C4275 C4271 1.385 . S
C4275 C4274 1.374 . S
C4276 C4273 1.499 . S
C4276 C4277 1.373 . S
C4276 C4278 1.389 . S
C4277 H4256 0.950 . S
C4277 C4276 1.373 . S
C4277 C4293 1.377 . S
C4278 C4276 1.389 . S
C4278 C4279 1.524 . S
C4278 C4292 1.377 . S
C4279 C4278 1.524 . S
C4279 C4280 1.397 . S
C4279 C4284 1.363 . S
C4280 H4257 0.950 . S
C4280 C4279 1.397 . S
C4280 C4281 1.334 . S
C4281 H4258 0.950 . S
C4281 C4280 1.334 . S
C4281 C4282 1.287 . S
C4282 C4281 1.287 . S
C4282 C4283 1.524 . S
C4282 H4301 0.913 . S
C4283 H4259 0.950 . S
C4283 C4282 1.524 . S
C4283 C4284 1.415 . S
C4284 H4260 0.950 . S
C4284 C4279 1.363 . S
C4284 C4283 1.415 . S
C4285 H4261 0.951 . S
C4285 C4286 1.366 . S
C4285 C4287 1.388 . S
C4286 C4285 1.366 . S
C4286 C4290 1.385 . S
C4287 H4262 0.951 . S
C4287 C4285 1.388 . S
C4287 C4288 1.366 . S
C4288 C4287 1.366 . S
C4288 C4289 1.414 . S
C4288 C4291 1.499 . S
C4289 H4263 0.950 . S
C4289 C4288 1.414 . S
C4289 C4290 1.374 . S
C4290 H4264 0.950 . S
C4290 C4286 1.385 . S
C4290 C4289 1.374 . S
C4291 C4288 1.499 . S
C4291 C4292 1.373 . S
C4291 C4293 1.389 . S
C4292 H4265 0.950 . S
C4292 C4278 1.377 . S
C4292 C4291 1.373 . S
C4293 C4277 1.377 . S
C4293 C4291 1.389 . S
C4293 C4294 1.524 . S
C4294 C4293 1.524 . S
C4294 C4295 1.397 . S
C4294 C4299 1.363 . S
C4295 H4266 0.950 . S
C4295 C4294 1.397 . S
C4295 C4296 1.334 . S
C4296 H4267 0.950 . S
C4296 C4295 1.334 . S
C4296 C4297 1.287 . S
C4297 C4296 1.287 . S
C4297 C4298 1.524 . S
C4297 H4300 0.999 . S
C4298 H4268 0.950 . S
C4298 C4297 1.524 . S
C4298 C4299 1.415 . S
C4299 H4269 0.950 . S
C4299 C4294 1.363 . S
C4299 C4298 1.415 . S
H4300 C4297 0.999 . S
H4301 C4282 0.913 . S
H4302 C4320 0.951 . S
H4303 C4322 0.951 . S
H4304 C4324 0.950 . S
H4305 C4325 0.950 . S
H4306 C4327 0.950 . S
H4307 C4330 0.950 . S
H4308 C4331 0.950 . S
H4309 C4333 0.950 . S
H4310 C4334 0.906 1_556 S
H4311 C4335 0.960 . S
H4312 C4337 0.951 . S
H4313 C4339 0.950 . S
H4314 C4340 0.950 . S
H4315 C4342 0.950 . S
H4316 C4345 0.950 . S
H4317 C4346 0.950 . S
H4318 C4348 0.950 . S
H4319 C4349 0.991 . S
C4320 H4302 0.951 . S
C4320 C4321 1.367 1_556 S
C4320 C4322 1.388 . S
C4321 C4320 1.367 1_554 S
C4321 C4325 1.384 . S
C4322 H4303 0.951 . S
C4322 C4320 1.388 . S
C4322 C4323 1.355 1_556 S
C4323 C4322 1.355 1_554 S
C4323 C4324 1.431 . S
C4323 C4326 1.500 . S
C4324 H4304 0.950 . S
C4324 C4323 1.431 . S
C4324 C4325 1.374 . S
C4325 H4305 0.950 . S
C4325 C4321 1.384 . S
C4325 C4324 1.374 . S
C4326 C4323 1.500 . S
C4326 C4327 1.355 1_554 S
C4326 C4328 1.397 . S
C4327 H4306 0.950 . S
C4327 C4326 1.355 1_556 S
C4327 C4343 1.377 . S
C4328 C4326 1.397 . S
C4328 C4329 1.524 . S
C4328 C4342 1.377 . S
C4329 C4328 1.524 . S
C4329 C4330 1.397 . S
C4329 C4334 1.363 . S
C4330 H4307 0.950 . S
C4330 C4329 1.397 . S
C4330 C4331 1.334 . S
C4331 H4308 0.950 . S
C4331 C4330 1.334 . S
C4331 C4332 1.287 . S
C4332 C4331 1.287 . S
C4332 C4333 1.524 . S
C4332 H4351 0.913 . S
C4333 H4309 0.950 . S
C4333 C4332 1.524 . S
C4333 C4334 1.415 . S
C4334 H4310 0.906 1_554 S
C4334 C4329 1.363 . S
C4334 C4333 1.415 . S
C4335 H4311 0.960 . S
C4335 C4336 1.363 1_544 S
C4335 C4337 1.381 1_545 S
C4336 C4335 1.363 1_566 S
C4336 C4340 1.385 . S
C4337 H4312 0.951 . S
C4337 C4335 1.381 1_565 S
C4337 C4338 1.366 1_554 S
C4338 C4337 1.366 1_556 S
C4338 C4339 1.414 . S
C4338 C4341 1.499 . S
C4339 H4313 0.950 . S
C4339 C4338 1.414 . S
C4339 C4340 1.374 . S
C4340 H4314 0.950 . S
C4340 C4336 1.385 . S
C4340 C4339 1.374 . S
C4341 C4338 1.499 . S
C4341 C4342 1.373 1_556 S
C4341 C4343 1.389 . S
C4342 H4315 0.950 . S
C4342 C4328 1.377 . S
C4342 C4341 1.373 1_554 S
C4343 C4327 1.377 . S
C4343 C4341 1.389 . S
C4343 C4344 1.524 . S
C4344 C4343 1.524 . S
C4344 C4345 1.397 . S
C4344 C4349 1.363 . S
C4345 H4316 0.950 . S
C4345 C4344 1.397 . S
C4345 C4346 1.334 . S
C4346 H4317 0.950 . S
C4346 C4345 1.334 . S
C4346 C4347 1.287 . S
C4347 C4346 1.287 . S
C4347 C4348 1.524 . S
C4347 H4350 0.999 1_565 S
C4348 H4318 0.950 . S
C4348 C4347 1.524 . S
C4348 C4349 1.415 . S
C4349 H4319 0.991 . S
C4349 C4344 1.363 . S
C4349 C4348 1.415 . S
H4350 C4347 0.999 1_545 S
H4351 C4332 0.913 . S
H4352 C4370 0.951 . S
H4353 C4372 0.951 . S
H4354 C4374 0.950 . S
H4355 C4375 0.950 . S
H4356 C4377 0.950 . S
H4357 C4380 0.950 . S
H4358 C4381 0.950 . S
H4359 C4383 0.950 . S
H4360 C4384 0.950 . S
H4361 C4385 0.951 . S
H4362 C4387 0.951 . S
H4363 C4389 0.950 . S
H4364 C4390 0.950 . S
H4365 C4392 0.950 . S
H4366 C4395 0.950 . S
H4367 C4396 0.950 . S
H4368 C4398 0.950 . S
H4369 C4399 0.950 . S
C4370 H4352 0.951 . S
C4370 C4371 1.366 . S
C4370 C4372 1.388 . S
C4371 C4370 1.366 . S
C4371 C4375 1.385 . S
C4372 H4353 0.951 . S
C4372 C4370 1.388 . S
C4372 C4373 1.366 . S
C4373 C4372 1.366 . S
C4373 C4374 1.414 . S
C4373 C4376 1.499 . S
C4374 H4354 0.950 . S
C4374 C4373 1.414 . S
C4374 C4375 1.374 . S
C4375 H4355 0.950 . S
C4375 C4371 1.385 . S
C4375 C4374 1.374 . S
C4376 C4373 1.499 . S
C4376 C4377 1.373 . S
C4376 C4378 1.389 . S
C4377 H4356 0.950 . S
C4377 C4376 1.373 . S
C4377 C4393 1.377 . S
C4378 C4376 1.389 . S
C4378 C4379 1.524 . S
C4378 C4392 1.377 . S
C4379 C4378 1.524 . S
C4379 C4380 1.397 . S
C4379 C4384 1.363 . S
C4380 H4357 0.950 . S
C4380 C4379 1.397 . S
C4380 C4381 1.334 . S
C4381 H4358 0.950 . S
C4381 C4380 1.334 . S
C4381 C4382 1.287 . S
C4382 C4381 1.287 . S
C4382 C4383 1.524 . S
C4382 H4401 0.913 . S
C4383 H4359 0.950 . S
C4383 C4382 1.524 . S
C4383 C4384 1.415 . S
C4384 H4360 0.950 . S
C4384 C4379 1.363 . S
C4384 C4383 1.415 . S
C4385 H4361 0.951 . S
C4385 C4386 1.366 . S
C4385 C4387 1.388 . S
C4386 C4385 1.366 . S
C4386 C4390 1.385 . S
C4387 H4362 0.951 . S
C4387 C4385 1.388 . S
C4387 C4388 1.366 . S
C4388 C4387 1.366 . S
C4388 C4389 1.414 . S
C4388 C4391 1.499 . S
C4389 H4363 0.950 . S
C4389 C4388 1.414 . S
C4389 C4390 1.374 . S
C4390 H4364 0.950 . S
C4390 C4386 1.385 . S
C4390 C4389 1.374 . S
C4391 C4388 1.499 . S
C4391 C4392 1.373 . S
C4391 C4393 1.389 . S
C4392 H4365 0.950 . S
C4392 C4378 1.377 . S
C4392 C4391 1.373 . S
C4393 C4377 1.377 . S
C4393 C4391 1.389 . S
C4393 C4394 1.524 . S
C4394 C4393 1.524 . S
C4394 C4395 1.397 . S
C4394 C4399 1.363 . S
C4395 H4366 0.950 . S
C4395 C4394 1.397 . S
C4395 C4396 1.334 . S
C4396 H4367 0.950 . S
C4396 C4395 1.334 . S
C4396 C4397 1.287 . S
C4397 C4396 1.287 . S
C4397 C4398 1.524 . S
C4397 H4400 0.999 . S
C4398 H4368 0.950 . S
C4398 C4397 1.524 . S
C4398 C4399 1.415 . S
C4399 H4369 0.950 . S
C4399 C4394 1.363 . S
C4399 C4398 1.415 . S
H4400 C4397 0.999 . S
H4401 C4382 0.913 . S
H4402 C4420 0.951 . S
H4403 C4422 0.951 . S
H4404 C4424 0.950 . S
H4405 C4425 0.950 . S
H4406 C4427 0.950 . S
H4407 C4430 0.950 . S
H4408 C4431 0.950 . S
H4409 C4433 0.950 . S
H4410 C4434 0.950 . S
H4411 C4435 0.951 . S
H4412 C4437 0.951 . S
H4413 C4439 0.950 . S
H4414 C4440 0.950 . S
H4415 C4442 0.950 . S
H4416 C4445 0.950 . S
H4417 C4446 0.950 . S
H4418 C4448 0.950 . S
H4419 C4449 0.950 . S
C4420 H4402 0.951 . S
C4420 C4421 1.366 . S
C4420 C4422 1.388 . S
C4421 C4420 1.366 . S
C4421 C4425 1.385 . S
C4422 H4403 0.951 . S
C4422 C4420 1.388 . S
C4422 C4423 1.366 . S
C4423 C4422 1.366 . S
C4423 C4424 1.414 . S
C4423 C4426 1.499 . S
C4424 H4404 0.950 . S
C4424 C4423 1.414 . S
C4424 C4425 1.374 . S
C4425 H4405 0.950 . S
C4425 C4421 1.385 . S
C4425 C4424 1.374 . S
C4426 C4423 1.499 . S
C4426 C4427 1.373 . S
C4426 C4428 1.389 . S
C4427 H4406 0.950 . S
C4427 C4426 1.373 . S
C4427 C4443 1.377 . S
C4428 C4426 1.389 . S
C4428 C4429 1.524 . S
C4428 C4442 1.377 . S
C4429 C4428 1.524 . S
C4429 C4430 1.397 . S
C4429 C4434 1.363 . S
C4430 H4407 0.950 . S
C4430 C4429 1.397 . S
C4430 C4431 1.334 . S
C4431 H4408 0.950 . S
C4431 C4430 1.334 . S
C4431 C4432 1.287 . S
C4432 C4431 1.287 . S
C4432 C4433 1.524 . S
C4432 H4451 0.913 . S
C4433 H4409 0.950 . S
C4433 C4432 1.524 . S
C4433 C4434 1.415 . S
C4434 H4410 0.950 . S
C4434 C4429 1.363 . S
C4434 C4433 1.415 . S
C4435 H4411 0.951 . S
C4435 C4436 1.366 . S
C4435 C4437 1.388 . S
C4436 C4435 1.366 . S
C4436 C4440 1.385 . S
C4437 H4412 0.951 . S
C4437 C4435 1.388 . S
C4437 C4438 1.366 . S
C4438 C4437 1.366 . S
C4438 C4439 1.414 . S
C4438 C4441 1.499 . S
C4439 H4413 0.950 . S
C4439 C4438 1.414 . S
C4439 C4440 1.374 . S
C4440 H4414 0.950 . S
C4440 C4436 1.385 . S
C4440 C4439 1.374 . S
C4441 C4438 1.499 . S
C4441 C4442 1.373 . S
C4441 C4443 1.389 . S
C4442 H4415 0.950 . S
C4442 C4428 1.377 . S
C4442 C4441 1.373 . S
C4443 C4427 1.377 . S
C4443 C4441 1.389 . S
C4443 C4444 1.524 . S
C4444 C4443 1.524 . S
C4444 C4445 1.397 . S
C4444 C4449 1.363 . S
C4445 H4416 0.950 . S
C4445 C4444 1.397 . S
C4445 C4446 1.334 1_554 S
C4446 H4417 0.950 . S
C4446 C4445 1.334 1_556 S
C4446 C4447 1.287 . S
C4447 C4446 1.287 . S
C4447 C4448 1.524 . S
C4447 H4450 0.999 . S
C4448 H4418 0.950 . S
C4448 C4447 1.524 . S
C4448 C4449 1.415 1_556 S
C4449 H4419 0.950 . S
C4449 C4444 1.363 . S
C4449 C4448 1.415 1_554 S
H4450 C4447 0.999 . S
H4451 C4432 0.913 . S
H4452 C4470 0.951 . S
H4453 C4472 0.951 . S
H4454 C4474 0.950 . S
H4455 C4475 0.950 . S
H4456 C4477 0.950 . S
H4457 C4480 0.950 . S
H4458 C4481 0.950 . S
H4459 C4483 0.950 . S
H4460 C4484 0.950 . S
H4461 C4485 0.951 . S
H4462 C4487 0.951 . S
H4463 C4489 0.950 . S
H4464 C4490 0.950 . S
H4465 C4492 0.950 . S
H4466 C4495 0.950 . S
H4467 C4496 0.950 . S
H4468 C4498 0.950 . S
H4469 C4499 0.950 . S
C4470 H4452 0.951 . S
C4470 C4471 1.366 . S
C4470 C4472 1.388 . S
C4471 C4470 1.366 . S
C4471 C4475 1.385 . S
C4472 H4453 0.951 . S
C4472 C4470 1.388 . S
C4472 C4473 1.366 . S
C4473 C4472 1.366 . S
C4473 C4474 1.414 . S
C4473 C4476 1.499 . S
C4474 H4454 0.950 . S
C4474 C4473 1.414 . S
C4474 C4475 1.374 . S
C4475 H4455 0.950 . S
C4475 C4471 1.385 . S
C4475 C4474 1.374 . S
C4476 C4473 1.499 . S
C4476 C4477 1.373 . S
C4476 C4478 1.389 . S
C4477 H4456 0.950 . S
C4477 C4476 1.373 . S
C4477 C4493 1.377 . S
C4478 C4476 1.389 . S
C4478 C4479 1.524 . S
C4478 C4492 1.377 . S
C4479 C4478 1.524 . S
C4479 C4480 1.397 . S
C4479 C4484 1.363 . S
C4480 H4457 0.950 . S
C4480 C4479 1.397 . S
C4480 C4481 1.334 . S
C4481 H4458 0.950 . S
C4481 C4480 1.334 . S
C4481 C4482 1.287 . S
C4482 C4481 1.287 . S
C4482 C4483 1.524 . S
C4482 H4501 0.913 . S
C4483 H4459 0.950 . S
C4483 C4482 1.524 . S
C4483 C4484 1.415 . S
C4484 H4460 0.950 . S
C4484 C4479 1.363 . S
C4484 C4483 1.415 . S
C4485 H4461 0.951 . S
C4485 C4486 1.366 . S
C4485 C4487 1.388 . S
C4486 C4485 1.366 . S
C4486 C4490 1.385 . S
C4487 H4462 0.951 . S
C4487 C4485 1.388 . S
C4487 C4488 1.366 . S
C4488 C4487 1.366 . S
C4488 C4489 1.414 . S
C4488 C4491 1.499 . S
C4489 H4463 0.950 . S
C4489 C4488 1.414 . S
C4489 C4490 1.374 . S
C4490 H4464 0.950 . S
C4490 C4486 1.385 . S
C4490 C4489 1.374 . S
C4491 C4488 1.499 . S
C4491 C4492 1.373 . S
C4491 C4493 1.389 . S
C4492 H4465 0.950 . S
C4492 C4478 1.377 . S
C4492 C4491 1.373 . S
C4493 C4477 1.377 . S
C4493 C4491 1.389 . S
C4493 C4494 1.524 . S
C4494 C4493 1.524 . S
C4494 C4495 1.397 . S
C4494 C4499 1.363 . S
C4495 H4466 0.950 . S
C4495 C4494 1.397 . S
C4495 C4496 1.334 . S
C4496 H4467 0.950 . S
C4496 C4495 1.334 . S
C4496 C4497 1.287 . S
C4497 C4496 1.287 . S
C4497 C4498 1.524 . S
C4497 H4500 0.999 . S
C4498 H4468 0.950 . S
C4498 C4497 1.524 . S
C4498 C4499 1.415 . S
C4499 H4469 0.950 . S
C4499 C4494 1.363 . S
C4499 C4498 1.415 . S
H4500 C4497 0.999 . S
H4501 C4482 0.913 . S
H4502 C4520 0.951 . S
H4503 C4522 0.951 . S
H4504 C4524 0.950 . S
H4505 C4525 0.950 . S
H4506 C4527 0.950 . S
H4507 C4530 0.950 . S
H4508 C4531 0.950 . S
H4509 C4533 0.950 . S
H4510 C4534 0.950 . S
H4511 C4535 0.951 . S
H4512 C4537 0.951 . S
H4513 C4539 0.950 . S
H4514 C4540 0.950 . S
H4515 C4542 0.950 . S
H4516 C4545 0.950 . S
H4517 C4546 0.950 . S
H4518 C4548 0.950 . S
H4519 C4549 0.950 . S
C4520 H4502 0.951 . S
C4520 C4521 1.366 . S
C4520 C4522 1.388 . S
C4521 C4520 1.366 . S
C4521 C4525 1.385 . S
C4522 H4503 0.951 . S
C4522 C4520 1.388 . S
C4522 C4523 1.366 . S
C4523 C4522 1.366 . S
C4523 C4524 1.414 . S
C4523 C4526 1.499 . S
C4524 H4504 0.950 . S
C4524 C4523 1.414 . S
C4524 C4525 1.374 . S
C4525 H4505 0.950 . S
C4525 C4521 1.385 . S
C4525 C4524 1.374 . S
C4526 C4523 1.499 . S
C4526 C4527 1.373 . S
C4526 C4528 1.389 . S
C4527 H4506 0.950 . S
C4527 C4526 1.373 . S
C4527 C4543 1.377 . S
C4528 C4526 1.389 . S
C4528 C4529 1.524 . S
C4528 C4542 1.377 . S
C4529 C4528 1.524 . S
C4529 C4530 1.397 . S
C4529 C4534 1.363 . S
C4530 H4507 0.950 . S
C4530 C4529 1.397 . S
C4530 C4531 1.334 . S
C4531 H4508 0.950 . S
C4531 C4530 1.334 . S
C4531 C4532 1.287 . S
C4532 C4531 1.287 . S
C4532 C4533 1.524 . S
C4532 H4551 0.913 . S
C4533 H4509 0.950 . S
C4533 C4532 1.524 . S
C4533 C4534 1.415 . S
C4534 H4510 0.950 . S
C4534 C4529 1.363 . S
C4534 C4533 1.415 . S
C4535 H4511 0.951 . S
C4535 C4536 1.366 . S
C4535 C4537 1.388 . S
C4536 C4535 1.366 . S
C4536 C4540 1.385 . S
C4537 H4512 0.951 . S
C4537 C4535 1.388 . S
C4537 C4538 1.366 . S
C4538 C4537 1.366 . S
C4538 C4539 1.414 . S
C4538 C4541 1.499 . S
C4539 H4513 0.950 . S
C4539 C4538 1.414 . S
C4539 C4540 1.374 . S
C4540 H4514 0.950 . S
C4540 C4536 1.385 . S
C4540 C4539 1.374 . S
C4541 C4538 1.499 . S
C4541 C4542 1.373 . S
C4541 C4543 1.389 . S
C4542 H4515 0.950 . S
C4542 C4528 1.377 . S
C4542 C4541 1.373 . S
C4543 C4527 1.377 . S
C4543 C4541 1.389 . S
C4543 C4544 1.524 . S
C4544 C4543 1.524 . S
C4544 C4545 1.397 . S
C4544 C4549 1.363 . S
C4545 H4516 0.950 . S
C4545 C4544 1.397 . S
C4545 C4546 1.334 . S
C4546 H4517 0.950 . S
C4546 C4545 1.334 . S
C4546 C4547 1.287 . S
C4547 C4546 1.287 . S
C4547 C4548 1.524 . S
C4547 H4550 0.999 . S
C4548 H4518 0.950 . S
C4548 C4547 1.524 . S
C4548 C4549 1.415 . S
C4549 H4519 0.950 . S
C4549 C4544 1.363 . S
C4549 C4548 1.415 . S
H4550 C4547 0.999 . S
H4551 C4532 0.913 . S
H4552 C4570 0.951 . S
H4553 C4572 0.951 . S
H4554 C4574 0.950 . S
H4555 C4575 0.950 . S
H4556 C4577 0.950 . S
H4557 C4580 0.950 . S
H4558 C4581 0.950 . S
H4559 C4583 0.950 . S
H4560 C4584 0.950 . S
H4561 C4585 0.951 . S
H4562 C4587 0.951 . S
H4563 C4589 0.950 . S
H4564 C4590 0.950 . S
H4565 C4592 0.950 . S
H4566 C4595 0.950 . S
H4567 C4596 0.950 . S
H4568 C4598 0.950 . S
H4569 C4599 0.950 . S
C4570 H4552 0.951 . S
C4570 C4571 1.366 . S
C4570 C4572 1.388 . S
C4571 C4570 1.366 . S
C4571 C4575 1.385 . S
C4572 H4553 0.951 . S
C4572 C4570 1.388 . S
C4572 C4573 1.366 . S
C4573 C4572 1.366 . S
C4573 C4574 1.414 . S
C4573 C4576 1.499 . S
C4574 H4554 0.950 . S
C4574 C4573 1.414 . S
C4574 C4575 1.374 . S
C4575 H4555 0.950 . S
C4575 C4571 1.385 . S
C4575 C4574 1.374 . S
C4576 C4573 1.499 . S
C4576 C4577 1.373 . S
C4576 C4578 1.389 . S
C4577 H4556 0.950 . S
C4577 C4576 1.373 . S
C4577 C4593 1.377 . S
C4578 C4576 1.389 . S
C4578 C4579 1.524 . S
C4578 C4592 1.377 . S
C4579 C4578 1.524 . S
C4579 C4580 1.397 . S
C4579 C4584 1.363 . S
C4580 H4557 0.950 . S
C4580 C4579 1.397 . S
C4580 C4581 1.334 . S
C4581 H4558 0.950 . S
C4581 C4580 1.334 . S
C4581 C4582 1.287 . S
C4582 C4581 1.287 . S
C4582 C4583 1.524 . S
C4582 H4601 0.913 . S
C4583 H4559 0.950 . S
C4583 C4582 1.524 . S
C4583 C4584 1.415 . S
C4584 H4560 0.950 . S
C4584 C4579 1.363 . S
C4584 C4583 1.415 . S
C4585 H4561 0.951 . S
C4585 C4586 1.366 . S
C4585 C4587 1.388 . S
C4586 C4585 1.366 . S
C4586 C4590 1.385 . S
C4587 H4562 0.951 . S
C4587 C4585 1.388 . S
C4587 C4588 1.366 . S
C4588 C4587 1.366 . S
C4588 C4589 1.414 . S
C4588 C4591 1.499 . S
C4589 H4563 0.950 . S
C4589 C4588 1.414 . S
C4589 C4590 1.374 . S
C4590 H4564 0.950 . S
C4590 C4586 1.385 . S
C4590 C4589 1.374 . S
C4591 C4588 1.499 . S
C4591 C4592 1.373 . S
C4591 C4593 1.389 . S
C4592 H4565 0.950 . S
C4592 C4578 1.377 . S
C4592 C4591 1.373 . S
C4593 C4577 1.377 . S
C4593 C4591 1.389 . S
C4593 C4594 1.524 . S
C4594 C4593 1.524 . S
C4594 C4595 1.397 . S
C4594 C4599 1.363 . S
C4595 H4566 0.950 . S
C4595 C4594 1.397 . S
C4595 C4596 1.334 . S
C4596 H4567 0.950 . S
C4596 C4595 1.334 . S
C4596 C4597 1.287 . S
C4597 C4596 1.287 . S
C4597 C4598 1.524 . S
C4597 H4600 0.999 . S
C4598 H4568 0.950 . S
C4598 C4597 1.524 . S
C4598 C4599 1.415 . S
C4599 H4569 0.950 . S
C4599 C4594 1.363 . S
C4599 C4598 1.415 . S
H4600 C4597 0.999 . S
H4601 C4582 0.913 . S
H4602 C4620 0.951 . S
H4603 C4622 0.951 . S
H4604 C4624 0.950 . S
H4605 C4625 0.950 . S
H4606 C4627 0.950 . S
H4607 C4630 0.950 . S
H4608 C4631 0.950 . S
H4609 C4633 0.950 . S
H4610 C4634 0.950 . S
H4611 C4635 0.951 . S
H4612 C4637 0.951 . S
H4613 C4639 0.950 . S
H4614 C4640 0.950 . S
H4615 C4642 0.950 . S
H4616 C4645 0.950 . S
H4617 C4646 0.950 . S
H4618 C4648 0.950 . S
H4619 C4649 0.950 . S
C4620 H4602 0.951 . S
C4620 C4621 1.366 . S
C4620 C4622 1.388 . S
C4621 C4620 1.366 . S
C4621 C4625 1.385 . S
C4622 H4603 0.951 . S
C4622 C4620 1.388 . S
C4622 C4623 1.366 . S
C4623 C4622 1.366 . S
C4623 C4624 1.414 . S
C4623 C4626 1.499 . S
C4624 H4604 0.950 . S
C4624 C4623 1.414 . S
C4624 C4625 1.374 . S
C4625 H4605 0.950 . S
C4625 C4621 1.385 . S
C4625 C4624 1.374 . S
C4626 C4623 1.499 . S
C4626 C4627 1.373 . S
C4626 C4628 1.389 . S
C4627 H4606 0.950 . S
C4627 C4626 1.373 . S
C4627 C4643 1.377 . S
C4628 C4626 1.389 . S
C4628 C4629 1.524 . S
C4628 C4642 1.377 . S
C4629 C4628 1.524 . S
C4629 C4630 1.397 . S
C4629 C4634 1.363 . S
C4630 H4607 0.950 . S
C4630 C4629 1.397 . S
C4630 C4631 1.334 . S
C4631 H4608 0.950 . S
C4631 C4630 1.334 . S
C4631 C4632 1.287 . S
C4632 C4631 1.287 . S
C4632 C4633 1.524 . S
C4632 H4651 0.913 . S
C4633 H4609 0.950 . S
C4633 C4632 1.524 . S
C4633 C4634 1.415 . S
C4634 H4610 0.950 . S
C4634 C4629 1.363 . S
C4634 C4633 1.415 . S
C4635 H4611 0.951 . S
C4635 C4636 1.366 . S
C4635 C4637 1.388 . S
C4636 C4635 1.366 . S
C4636 C4640 1.385 . S
C4637 H4612 0.951 . S
C4637 C4635 1.388 . S
C4637 C4638 1.366 . S
C4638 C4637 1.366 . S
C4638 C4639 1.414 . S
C4638 C4641 1.499 . S
C4639 H4613 0.950 . S
C4639 C4638 1.414 . S
C4639 C4640 1.374 . S
C4640 H4614 0.950 . S
C4640 C4636 1.385 . S
C4640 C4639 1.374 . S
C4641 C4638 1.499 . S
C4641 C4642 1.373 . S
C4641 C4643 1.389 . S
C4642 H4615 0.950 . S
C4642 C4628 1.377 . S
C4642 C4641 1.373 . S
C4643 C4627 1.377 . S
C4643 C4641 1.389 . S
C4643 C4644 1.524 . S
C4644 C4643 1.524 . S
C4644 C4645 1.397 . S
C4644 C4649 1.363 . S
C4645 H4616 0.950 . S
C4645 C4644 1.397 . S
C4645 C4646 1.334 . S
C4646 H4617 0.950 . S
C4646 C4645 1.334 . S
C4646 C4647 1.287 . S
C4647 C4646 1.287 . S
C4647 C4648 1.524 . S
C4647 H4650 0.999 . S
C4648 H4618 0.950 . S
C4648 C4647 1.524 . S
C4648 C4649 1.415 . S
C4649 H4619 0.950 . S
C4649 C4644 1.363 . S
C4649 C4648 1.415 . S
H4650 C4647 0.999 . S
H4651 C4632 0.913 . S
H4652 C4670 0.951 . S
H4653 C4672 0.951 . S
H4654 C4674 0.950 . S
H4655 C4675 0.950 . S
H4656 C4677 0.950 . S
H4657 C4680 0.950 . S
H4658 C4681 0.950 . S
H4659 C4683 0.950 . S
H4660 C4684 0.950 . S
H4661 C4685 0.951 . S
H4662 C4687 0.951 . S
H4663 C4689 0.950 . S
H4664 C4690 0.950 . S
H4665 C4692 0.950 . S
H4666 C4695 0.950 . S
H4667 C4696 0.950 . S
H4668 C4698 0.950 . S
H4669 C4699 0.950 . S
C4670 H4652 0.951 . S
C4670 C4671 1.366 . S
C4670 C4672 1.388 . S
C4671 C4670 1.366 . S
C4671 C4675 1.385 . S
C4672 H4653 0.951 . S
C4672 C4670 1.388 . S
C4672 C4673 1.366 . S
C4673 C4672 1.366 . S
C4673 C4674 1.414 . S
C4673 C4676 1.499 . S
C4674 H4654 0.950 . S
C4674 C4673 1.414 . S
C4674 C4675 1.374 . S
C4675 H4655 0.950 . S
C4675 C4671 1.385 . S
C4675 C4674 1.374 . S
C4676 C4673 1.499 . S
C4676 C4677 1.373 . S
C4676 C4678 1.389 . S
C4677 H4656 0.950 . S
C4677 C4676 1.373 . S
C4677 C4693 1.377 . S
C4678 C4676 1.389 . S
C4678 C4679 1.524 . S
C4678 C4692 1.377 . S
C4679 C4678 1.524 . S
C4679 C4680 1.397 . S
C4679 C4684 1.363 . S
C4680 H4657 0.950 . S
C4680 C4679 1.397 . S
C4680 C4681 1.334 . S
C4681 H4658 0.950 . S
C4681 C4680 1.334 . S
C4681 C4682 1.287 . S
C4682 C4681 1.287 . S
C4682 C4683 1.524 . S
C4682 H4701 0.913 . S
C4683 H4659 0.950 . S
C4683 C4682 1.524 . S
C4683 C4684 1.415 . S
C4684 H4660 0.950 . S
C4684 C4679 1.363 . S
C4684 C4683 1.415 . S
C4685 H4661 0.951 . S
C4685 C4686 1.366 . S
C4685 C4687 1.388 . S
C4686 C4685 1.366 . S
C4686 C4690 1.385 . S
C4687 H4662 0.951 . S
C4687 C4685 1.388 . S
C4687 C4688 1.366 . S
C4688 C4687 1.366 . S
C4688 C4689 1.414 . S
C4688 C4691 1.499 . S
C4689 H4663 0.950 . S
C4689 C4688 1.414 . S
C4689 C4690 1.374 . S
C4690 H4664 0.950 . S
C4690 C4686 1.385 . S
C4690 C4689 1.374 . S
C4691 C4688 1.499 . S
C4691 C4692 1.373 . S
C4691 C4693 1.389 . S
C4692 H4665 0.950 . S
C4692 C4678 1.377 . S
C4692 C4691 1.373 . S
C4693 C4677 1.377 . S
C4693 C4691 1.389 . S
C4693 C4694 1.524 . S
C4694 C4693 1.524 . S
C4694 C4695 1.397 . S
C4694 C4699 1.363 1_455 S
C4695 H4666 0.950 . S
C4695 C4694 1.397 . S
C4695 C4696 1.334 . S
C4696 H4667 0.950 . S
C4696 C4695 1.334 . S
C4696 C4697 1.287 1_455 S
C4697 C4696 1.287 1_655 S
C4697 C4698 1.524 . S
C4697 H4700 0.999 . S
C4698 H4668 0.950 . S
C4698 C4697 1.524 . S
C4698 C4699 1.415 . S
C4699 H4669 0.950 . S
C4699 C4694 1.363 1_655 S
C4699 C4698 1.415 . S
H4700 C4697 0.999 . S
H4701 C4682 0.913 . S
H4702 C4720 0.951 . S
H4703 C4722 0.951 . S
H4704 C4724 0.950 . S
H4705 C4725 0.950 . S
H4706 C4727 0.950 . S
H4707 C4730 0.950 . S
H4708 C4731 0.950 . S
H4709 C4733 0.950 . S
H4710 C4734 0.950 . S
H4711 C4735 0.951 . S
H4712 C4737 0.951 . S
H4713 C4739 0.950 . S
H4714 C4740 0.950 . S
H4715 C4742 0.950 . S
H4716 C4745 0.950 . S
H4717 C4746 0.950 . S
H4718 C4748 0.950 . S
H4719 C4749 0.950 . S
C4720 H4702 0.951 . S
C4720 C4721 1.366 . S
C4720 C4722 1.388 . S
C4721 C4720 1.366 . S
C4721 C4725 1.385 . S
C4722 H4703 0.951 . S
C4722 C4720 1.388 . S
C4722 C4723 1.366 . S
C4723 C4722 1.366 . S
C4723 C4724 1.414 . S
C4723 C4726 1.499 . S
C4724 H4704 0.950 . S
C4724 C4723 1.414 . S
C4724 C4725 1.374 . S
C4725 H4705 0.950 . S
C4725 C4721 1.385 . S
C4725 C4724 1.374 . S
C4726 C4723 1.499 . S
C4726 C4727 1.373 . S
C4726 C4728 1.389 . S
C4727 H4706 0.950 . S
C4727 C4726 1.373 . S
C4727 C4743 1.377 . S
C4728 C4726 1.389 . S
C4728 C4729 1.524 . S
C4728 C4742 1.377 . S
C4729 C4728 1.524 . S
C4729 C4730 1.397 . S
C4729 C4734 1.363 . S
C4730 H4707 0.950 . S
C4730 C4729 1.397 . S
C4730 C4731 1.334 . S
C4731 H4708 0.950 . S
C4731 C4730 1.334 . S
C4731 C4732 1.287 . S
C4732 C4731 1.287 . S
C4732 C4733 1.524 . S
C4732 H4751 0.913 . S
C4733 H4709 0.950 . S
C4733 C4732 1.524 . S
C4733 C4734 1.415 . S
C4734 H4710 0.950 . S
C4734 C4729 1.363 . S
C4734 C4733 1.415 . S
C4735 H4711 0.951 . S
C4735 C4736 1.366 . S
C4735 C4737 1.388 . S
C4736 C4735 1.366 . S
C4736 C4740 1.385 . S
C4737 H4712 0.951 . S
C4737 C4735 1.388 . S
C4737 C4738 1.366 . S
C4738 C4737 1.366 . S
C4738 C4739 1.414 . S
C4738 C4741 1.499 . S
C4739 H4713 0.950 . S
C4739 C4738 1.414 . S
C4739 C4740 1.374 . S
C4740 H4714 0.950 . S
C4740 C4736 1.385 . S
C4740 C4739 1.374 . S
C4741 C4738 1.499 . S
C4741 C4742 1.373 . S
C4741 C4743 1.389 . S
C4742 H4715 0.950 . S
C4742 C4728 1.377 . S
C4742 C4741 1.373 . S
C4743 C4727 1.377 . S
C4743 C4741 1.389 . S
C4743 C4744 1.524 . S
C4744 C4743 1.524 . S
C4744 C4745 1.397 . S
C4744 C4749 1.363 . S
C4745 H4716 0.950 . S
C4745 C4744 1.397 . S
C4745 C4746 1.334 . S
C4746 H4717 0.950 . S
C4746 C4745 1.334 . S
C4746 C4747 1.287 . S
C4747 C4746 1.287 . S
C4747 C4748 1.524 . S
C4747 H4750 0.999 . S
C4748 H4718 0.950 . S
C4748 C4747 1.524 . S
C4748 C4749 1.415 . S
C4749 H4719 0.950 . S
C4749 C4744 1.363 . S
C4749 C4748 1.415 . S
H4750 C4747 0.999 . S
H4751 C4732 0.913 . S
H4752 C4770 0.951 . S
H4753 C4772 0.951 . S
H4754 C4774 0.950 . S
H4755 C4775 0.950 . S
H4756 C4777 0.950 . S
H4757 C4780 0.950 . S
H4758 C4781 0.950 . S
H4759 C4783 0.950 . S
H4760 C4784 0.950 . S
H4761 C4785 0.951 . S
H4762 C4787 0.951 . S
H4763 C4789 0.950 . S
H4764 C4790 0.950 . S
H4765 C4792 0.950 . S
H4766 C4795 0.950 . S
H4767 C4796 0.950 . S
H4768 C4798 0.950 . S
H4769 C4799 0.950 . S
C4770 H4752 0.951 . S
C4770 C4771 1.366 . S
C4770 C4772 1.388 . S
C4771 C4770 1.366 . S
C4771 C4775 1.385 . S
C4772 H4753 0.951 . S
C4772 C4770 1.388 . S
C4772 C4773 1.366 . S
C4773 C4772 1.366 . S
C4773 C4774 1.414 . S
C4773 C4776 1.499 . S
C4774 H4754 0.950 . S
C4774 C4773 1.414 . S
C4774 C4775 1.374 . S
C4775 H4755 0.950 . S
C4775 C4771 1.385 . S
C4775 C4774 1.374 . S
C4776 C4773 1.499 . S
C4776 C4777 1.373 . S
C4776 C4778 1.389 . S
C4777 H4756 0.950 . S
C4777 C4776 1.373 . S
C4777 C4793 1.377 . S
C4778 C4776 1.389 . S
C4778 C4779 1.524 . S
C4778 C4792 1.377 . S
C4779 C4778 1.524 . S
C4779 C4780 1.397 . S
C4779 C4784 1.363 . S
C4780 H4757 0.950 . S
C4780 C4779 1.397 . S
C4780 C4781 1.334 . S
C4781 H4758 0.950 . S
C4781 C4780 1.334 . S
C4781 C4782 1.287 . S
C4782 C4781 1.287 . S
C4782 C4783 1.524 . S
C4782 H4801 0.913 . S
C4783 H4759 0.950 . S
C4783 C4782 1.524 . S
C4783 C4784 1.415 . S
C4784 H4760 0.950 . S
C4784 C4779 1.363 . S
C4784 C4783 1.415 . S
C4785 H4761 0.951 . S
C4785 C4786 1.366 . S
C4785 C4787 1.388 . S
C4786 C4785 1.366 . S
C4786 C4790 1.385 . S
C4787 H4762 0.951 . S
C4787 C4785 1.388 . S
C4787 C4788 1.366 . S
C4788 C4787 1.366 . S
C4788 C4789 1.414 . S
C4788 C4791 1.499 . S
C4789 H4763 0.950 . S
C4789 C4788 1.414 . S
C4789 C4790 1.374 . S
C4790 H4764 0.950 . S
C4790 C4786 1.385 . S
C4790 C4789 1.374 . S
C4791 C4788 1.499 . S
C4791 C4792 1.373 . S
C4791 C4793 1.389 . S
C4792 H4765 0.950 . S
C4792 C4778 1.377 . S
C4792 C4791 1.373 . S
C4793 C4777 1.377 . S
C4793 C4791 1.389 . S
C4793 C4794 1.524 . S
C4794 C4793 1.524 . S
C4794 C4795 1.397 . S
C4794 C4799 1.363 . S
C4795 H4766 0.950 . S
C4795 C4794 1.397 . S
C4795 C4796 1.334 . S
C4796 H4767 0.950 . S
C4796 C4795 1.334 . S
C4796 C4797 1.287 . S
C4797 C4796 1.287 . S
C4797 C4798 1.524 . S
C4797 H4800 0.999 . S
C4798 H4768 0.950 . S
C4798 C4797 1.524 . S
C4798 C4799 1.415 . S
C4799 H4769 0.950 . S
C4799 C4794 1.363 . S
C4799 C4798 1.415 . S
H4800 C4797 0.999 . S
H4801 C4782 0.913 . S
H4802 C4820 0.951 . S
H4803 C4822 0.951 . S
H4804 C4824 0.950 . S
H4805 C4825 0.950 . S
H4806 C4827 0.950 . S
H4807 C4830 0.950 . S
H4808 C4831 0.950 . S
H4809 C4833 0.950 . S
H4810 C4834 0.950 . S
H4811 C4835 0.951 . S
H4812 C4837 0.951 . S
H4813 C4839 0.950 . S
H4814 C4840 0.950 . S
H4815 C4842 0.950 . S
H4816 C4845 0.950 . S
H4817 C4846 0.950 . S
H4818 C4848 0.950 . S
H4819 C4849 0.950 . S
C4820 H4802 0.951 . S
C4820 C4821 1.366 . S
C4820 C4822 1.388 . S
C4821 C4820 1.366 . S
C4821 C4825 1.385 . S
C4822 H4803 0.951 . S
C4822 C4820 1.388 . S
C4822 C4823 1.366 . S
C4823 C4822 1.366 . S
C4823 C4824 1.414 . S
C4823 C4826 1.499 . S
C4824 H4804 0.950 . S
C4824 C4823 1.414 . S
C4824 C4825 1.374 . S
C4825 H4805 0.950 . S
C4825 C4821 1.385 . S
C4825 C4824 1.374 . S
C4826 C4823 1.499 . S
C4826 C4827 1.373 . S
C4826 C4828 1.389 . S
C4827 H4806 0.950 . S
C4827 C4826 1.373 . S
C4827 C4843 1.377 . S
C4828 C4826 1.389 . S
C4828 C4829 1.524 . S
C4828 C4842 1.377 . S
C4829 C4828 1.524 . S
C4829 C4830 1.397 . S
C4829 C4834 1.363 . S
C4830 H4807 0.950 . S
C4830 C4829 1.397 . S
C4830 C4831 1.334 . S
C4831 H4808 0.950 . S
C4831 C4830 1.334 . S
C4831 C4832 1.287 . S
C4832 C4831 1.287 . S
C4832 C4833 1.524 . S
C4832 H4851 0.913 . S
C4833 H4809 0.950 . S
C4833 C4832 1.524 . S
C4833 C4834 1.415 . S
C4834 H4810 0.950 . S
C4834 C4829 1.363 . S
C4834 C4833 1.415 . S
C4835 H4811 0.951 . S
C4835 C4836 1.366 . S
C4835 C4837 1.388 . S
C4836 C4835 1.366 . S
C4836 C4840 1.385 . S
C4837 H4812 0.951 . S
C4837 C4835 1.388 . S
C4837 C4838 1.366 . S
C4838 C4837 1.366 . S
C4838 C4839 1.414 . S
C4838 C4841 1.499 . S
C4839 H4813 0.950 . S
C4839 C4838 1.414 . S
C4839 C4840 1.374 . S
C4840 H4814 0.950 . S
C4840 C4836 1.385 . S
C4840 C4839 1.374 . S
C4841 C4838 1.499 . S
C4841 C4842 1.373 . S
C4841 C4843 1.389 . S
C4842 H4815 0.950 . S
C4842 C4828 1.377 . S
C4842 C4841 1.373 . S
C4843 C4827 1.377 . S
C4843 C4841 1.389 . S
C4843 C4844 1.524 . S
C4844 C4843 1.524 . S
C4844 C4845 1.397 . S
C4844 C4849 1.363 . S
C4845 H4816 0.950 . S
C4845 C4844 1.397 . S
C4845 C4846 1.334 . S
C4846 H4817 0.950 . S
C4846 C4845 1.334 . S
C4846 C4847 1.287 . S
C4847 C4846 1.287 . S
C4847 C4848 1.524 . S
C4847 H4850 0.999 . S
C4848 H4818 0.950 . S
C4848 C4847 1.524 . S
C4848 C4849 1.415 . S
C4849 H4819 0.950 . S
C4849 C4844 1.363 . S
C4849 C4848 1.415 . S
H4850 C4847 0.999 . S
H4851 C4832 0.913 . S
H4852 C4870 0.951 . S
H4853 C4872 0.951 . S
H4854 C4874 0.950 . S
H4855 C4875 0.950 . S
H4856 C4877 0.950 . S
H4857 C4880 0.954 . S
H4858 C4881 0.950 . S
H4859 C4883 0.950 . S
H4860 C4884 0.950 . S
H4861 C4885 0.951 . S
H4862 C4887 0.951 . S
H4863 C4889 0.950 1_655 S
H4864 C4890 0.950 1_655 S
H4865 C4892 0.950 1_655 S
H4866 C4895 0.950 . S
H4867 C4896 0.950 . S
H4868 C4898 0.950 . S
H4869 C4899 0.950 . S
C4870 H4852 0.951 . S
C4870 C4871 1.366 1_655 S
C4870 C4872 1.388 . S
C4871 C4870 1.366 1_455 S
C4871 C4875 1.385 . S
C4872 H4853 0.951 . S
C4872 C4870 1.388 . S
C4872 C4873 1.366 1_655 S
C4873 C4872 1.366 1_455 S
C4873 C4874 1.414 . S
C4873 C4876 1.499 . S
C4874 H4854 0.950 . S
C4874 C4873 1.414 . S
C4874 C4875 1.374 . S
C4875 H4855 0.950 . S
C4875 C4871 1.385 . S
C4875 C4874 1.374 . S
C4876 C4873 1.499 . S
C4876 C4877 1.373 . S
C4876 C4878 1.389 . S
C4877 H4856 0.950 . S
C4877 C4876 1.373 . S
C4877 C4893 1.377 . S
C4878 C4876 1.389 . S
C4878 C4879 1.524 1_455 S
C4878 C4892 1.377 . S
C4879 C4878 1.524 1_655 S
C4879 C4880 1.394 1_655 S
C4879 C4884 1.363 . S
C4880 H4857 0.954 . S
C4880 C4879 1.394 1_455 S
C4880 C4881 1.333 1_455 S
C4881 H4858 0.950 . S
C4881 C4880 1.333 1_655 S
C4881 C4882 1.287 . S
C4882 C4881 1.287 . S
C4882 C4883 1.524 . S
C4882 H4901 0.913 . S
C4883 H4859 0.950 . S
C4883 C4882 1.524 . S
C4883 C4884 1.415 . S
C4884 H4860 0.950 . S
C4884 C4879 1.363 . S
C4884 C4883 1.415 . S
C4885 H4861 0.951 . S
C4885 C4886 1.366 . S
C4885 C4887 1.388 . S
C4886 C4885 1.366 . S
C4886 C4890 1.385 . S
C4887 H4862 0.951 . S
C4887 C4885 1.388 . S
C4887 C4888 1.366 . S
C4888 C4887 1.366 . S
C4888 C4889 1.414 . S
C4888 C4891 1.499 . S
C4889 H4863 0.950 1_455 S
C4889 C4888 1.414 . S
C4889 C4890 1.374 . S
C4890 H4864 0.950 1_455 S
C4890 C4886 1.385 . S
C4890 C4889 1.374 . S
C4891 C4888 1.499 . S
C4891 C4892 1.373 . S
C4891 C4893 1.389 . S
C4892 H4865 0.950 1_455 S
C4892 C4878 1.377 . S
C4892 C4891 1.373 . S
C4893 C4877 1.377 . S
C4893 C4891 1.389 . S
C4893 C4894 1.524 . S
C4894 C4893 1.524 . S
C4894 C4895 1.397 . S
C4894 C4899 1.363 . S
C4895 H4866 0.950 . S
C4895 C4894 1.397 . S
C4895 C4896 1.334 . S
C4896 H4867 0.950 . S
C4896 C4895 1.334 . S
C4896 C4897 1.287 . S
C4897 C4896 1.287 . S
C4897 C4898 1.524 . S
C4897 H4900 0.999 . S
C4898 H4868 0.950 . S
C4898 C4897 1.524 . S
C4898 C4899 1.415 . S
C4899 H4869 0.950 . S
C4899 C4894 1.363 . S
C4899 C4898 1.415 . S
H4900 C4897 0.999 . S
H4901 C4882 0.913 . S
H4902 C4920 0.951 . S
H4903 C4922 0.951 . S
H4904 C4924 0.950 . S
H4905 C4925 0.950 . S
H4906 C4927 0.950 . S
H4907 C4930 0.950 . S
H4908 C4931 0.950 . S
H4909 C4933 0.950 . S
H4910 C4934 0.950 . S
H4911 C4935 0.951 . S
H4912 C4937 0.951 . S
H4913 C4939 0.950 . S
H4914 C4940 0.950 . S
H4915 C4942 0.950 . S
H4916 C4945 0.950 . S
H4917 C4946 0.950 . S
H4918 C4948 0.950 . S
H4919 C4949 0.950 . S
C4920 H4902 0.951 . S
C4920 C4921 1.366 . S
C4920 C4922 1.388 . S
C4921 C4920 1.366 . S
C4921 C4925 1.385 . S
C4922 H4903 0.951 . S
C4922 C4920 1.388 . S
C4922 C4923 1.366 . S
C4923 C4922 1.366 . S
C4923 C4924 1.414 . S
C4923 C4926 1.499 . S
C4924 H4904 0.950 . S
C4924 C4923 1.414 . S
C4924 C4925 1.374 . S
C4925 H4905 0.950 . S
C4925 C4921 1.385 . S
C4925 C4924 1.374 . S
C4926 C4923 1.499 . S
C4926 C4927 1.373 . S
C4926 C4928 1.389 . S
C4927 H4906 0.950 . S
C4927 C4926 1.373 . S
C4927 C4943 1.377 . S
C4928 C4926 1.389 . S
C4928 C4929 1.524 . S
C4928 C4942 1.377 . S
C4929 C4928 1.524 . S
C4929 C4930 1.397 . S
C4929 C4934 1.363 . S
C4930 H4907 0.950 . S
C4930 C4929 1.397 . S
C4930 C4931 1.334 . S
C4931 H4908 0.950 . S
C4931 C4930 1.334 . S
C4931 C4932 1.287 . S
C4932 C4931 1.287 . S
C4932 C4933 1.524 . S
C4932 H4951 0.913 . S
C4933 H4909 0.950 . S
C4933 C4932 1.524 . S
C4933 C4934 1.415 . S
C4934 H4910 0.950 . S
C4934 C4929 1.363 . S
C4934 C4933 1.415 . S
C4935 H4911 0.951 . S
C4935 C4936 1.366 . S
C4935 C4937 1.388 . S
C4936 C4935 1.366 . S
C4936 C4940 1.385 . S
C4937 H4912 0.951 . S
C4937 C4935 1.388 . S
C4937 C4938 1.366 . S
C4938 C4937 1.366 . S
C4938 C4939 1.414 . S
C4938 C4941 1.499 . S
C4939 H4913 0.950 . S
C4939 C4938 1.414 . S
C4939 C4940 1.374 . S
C4940 H4914 0.950 . S
C4940 C4936 1.385 . S
C4940 C4939 1.374 . S
C4941 C4938 1.499 . S
C4941 C4942 1.373 . S
C4941 C4943 1.389 . S
C4942 H4915 0.950 . S
C4942 C4928 1.377 . S
C4942 C4941 1.373 . S
C4943 C4927 1.377 . S
C4943 C4941 1.389 . S
C4943 C4944 1.524 . S
C4944 C4943 1.524 . S
C4944 C4945 1.397 . S
C4944 C4949 1.363 . S
C4945 H4916 0.950 . S
C4945 C4944 1.397 . S
C4945 C4946 1.334 . S
C4946 H4917 0.950 . S
C4946 C4945 1.334 . S
C4946 C4947 1.287 . S
C4947 C4946 1.287 . S
C4947 C4948 1.524 . S
C4947 H4950 0.999 . S
C4948 H4918 0.950 . S
C4948 C4947 1.524 . S
C4948 C4949 1.415 . S
C4949 H4919 0.950 . S
C4949 C4944 1.363 . S
C4949 C4948 1.415 . S
H4950 C4947 0.999 . S
H4951 C4932 0.913 . S
H4952 C4970 0.951 . S
H4953 C4972 0.951 . S
H4954 C4974 0.950 . S
H4955 C4975 0.950 . S
H4956 C4977 0.950 . S
H4957 C4980 0.950 . S
H4958 C4981 0.950 . S
H4959 C4983 0.950 . S
H4960 C4984 0.950 . S
H4961 C4985 0.951 . S
H4962 C4987 0.951 . S
H4963 C4989 0.950 . S
H4964 C4990 0.950 . S
H4965 C4992 0.950 . S
H4966 C4995 0.950 . S
H4967 C4996 0.950 . S
H4968 C4998 0.950 . S
H4969 C4999 0.950 . S
C4970 H4952 0.951 . S
C4970 C4971 1.366 . S
C4970 C4972 1.388 . S
C4971 C4970 1.366 . S
C4971 C4975 1.385 . S
C4972 H4953 0.951 . S
C4972 C4970 1.388 . S
C4972 C4973 1.366 . S
C4973 C4972 1.366 . S
C4973 C4974 1.414 . S
C4973 C4976 1.499 . S
C4974 H4954 0.950 . S
C4974 C4973 1.414 . S
C4974 C4975 1.374 . S
C4975 H4955 0.950 . S
C4975 C4971 1.385 . S
C4975 C4974 1.374 . S
C4976 C4973 1.499 . S
C4976 C4977 1.373 . S
C4976 C4978 1.389 . S
C4977 H4956 0.950 . S
C4977 C4976 1.373 . S
C4977 C4993 1.377 . S
C4978 C4976 1.389 . S
C4978 C4979 1.524 . S
C4978 C4992 1.377 . S
C4979 C4978 1.524 . S
C4979 C4980 1.397 . S
C4979 C4984 1.363 . S
C4980 H4957 0.950 . S
C4980 C4979 1.397 . S
C4980 C4981 1.334 . S
C4981 H4958 0.950 . S
C4981 C4980 1.334 . S
C4981 C4982 1.287 . S
C4982 C4981 1.287 . S
C4982 C4983 1.524 . S
C4982 H5001 0.913 . S
C4983 H4959 0.950 . S
C4983 C4982 1.524 . S
C4983 C4984 1.415 . S
C4984 H4960 0.950 . S
C4984 C4979 1.363 . S
C4984 C4983 1.415 . S
C4985 H4961 0.951 . S
C4985 C4986 1.366 . S
C4985 C4987 1.388 . S
C4986 C4985 1.366 . S
C4986 C4990 1.385 . S
C4987 H4962 0.951 . S
C4987 C4985 1.388 . S
C4987 C4988 1.366 . S
C4988 C4987 1.366 . S
C4988 C4989 1.414 . S
C4988 C4991 1.499 . S
C4989 H4963 0.950 . S
C4989 C4988 1.414 . S
C4989 C4990 1.374 . S
C4990 H4964 0.950 . S
C4990 C4986 1.385 . S
C4990 C4989 1.374 . S
C4991 C4988 1.499 . S
C4991 C4992 1.373 . S
C4991 C4993 1.389 . S
C4992 H4965 0.950 . S
C4992 C4978 1.377 . S
C4992 C4991 1.373 . S
C4993 C4977 1.377 . S
C4993 C4991 1.389 . S
C4993 C4994 1.524 . S
C4994 C4993 1.524 . S
C4994 C4995 1.397 . S
C4994 C4999 1.363 . S
C4995 H4966 0.950 . S
C4995 C4994 1.397 . S
C4995 C4996 1.334 . S
C4996 H4967 0.950 . S
C4996 C4995 1.334 . S
C4996 C4997 1.287 . S
C4997 C4996 1.287 . S
C4997 C4998 1.524 . S
C4997 H5000 0.999 . S
C4998 H4968 0.950 . S
C4998 C4997 1.524 . S
C4998 C4999 1.415 . S
C4999 H4969 0.950 . S
C4999 C4994 1.363 . S
C4999 C4998 1.415 . S
H5000 C4997 0.999 . S
H5001 C4982 0.913 . S
H5002 C5020 0.951 . S
H5003 C5022 0.951 . S
H5004 C5024 0.950 . S
H5005 C5025 0.950 . S
H5006 C5027 0.950 . S
H5007 C5030 0.950 . S
H5008 C5031 0.950 . S
H5009 C5033 0.950 . S
H5010 C5034 0.950 . S
H5011 C5035 0.951 . S
H5012 C5037 0.951 . S
H5013 C5039 0.950 . S
H5014 C5040 0.950 . S
H5015 C5042 0.950 . S
H5016 C5045 0.950 . S
H5017 C5046 0.950 . S
H5018 C5048 0.950 . S
H5019 C5049 0.950 . S
C5020 H5002 0.951 . S
C5020 C5021 1.366 . S
C5020 C5022 1.388 . S
C5021 C5020 1.366 . S
C5021 C5025 1.385 . S
C5022 H5003 0.951 . S
C5022 C5020 1.388 . S
C5022 C5023 1.366 . S
C5023 C5022 1.366 . S
C5023 C5024 1.414 . S
C5023 C5026 1.499 . S
C5024 H5004 0.950 . S
C5024 C5023 1.414 . S
C5024 C5025 1.374 . S
C5025 H5005 0.950 . S
C5025 C5021 1.385 . S
C5025 C5024 1.374 . S
C5026 C5023 1.499 . S
C5026 C5027 1.373 . S
C5026 C5028 1.389 . S
C5027 H5006 0.950 . S
C5027 C5026 1.373 . S
C5027 C5043 1.377 . S
C5028 C5026 1.389 . S
C5028 C5029 1.524 . S
C5028 C5042 1.377 . S
C5029 C5028 1.524 . S
C5029 C5030 1.397 . S
C5029 C5034 1.363 . S
C5030 H5007 0.950 . S
C5030 C5029 1.397 . S
C5030 C5031 1.334 . S
C5031 H5008 0.950 . S
C5031 C5030 1.334 . S
C5031 C5032 1.287 . S
C5032 C5031 1.287 . S
C5032 C5033 1.524 . S
C5032 H5051 0.913 . S
C5033 H5009 0.950 . S
C5033 C5032 1.524 . S
C5033 C5034 1.415 . S
C5034 H5010 0.950 . S
C5034 C5029 1.363 . S
C5034 C5033 1.415 . S
C5035 H5011 0.951 . S
C5035 C5036 1.366 . S
C5035 C5037 1.388 . S
C5036 C5035 1.366 . S
C5036 C5040 1.385 . S
C5037 H5012 0.951 . S
C5037 C5035 1.388 . S
C5037 C5038 1.366 . S
C5038 C5037 1.366 . S
C5038 C5039 1.414 . S
C5038 C5041 1.499 . S
C5039 H5013 0.950 . S
C5039 C5038 1.414 . S
C5039 C5040 1.374 . S
C5040 H5014 0.950 . S
C5040 C5036 1.385 . S
C5040 C5039 1.374 . S
C5041 C5038 1.499 . S
C5041 C5042 1.373 . S
C5041 C5043 1.389 . S
C5042 H5015 0.950 . S
C5042 C5028 1.377 . S
C5042 C5041 1.373 . S
C5043 C5027 1.377 . S
C5043 C5041 1.389 . S
C5043 C5044 1.524 . S
C5044 C5043 1.524 . S
C5044 C5045 1.397 . S
C5044 C5049 1.363 . S
C5045 H5016 0.950 . S
C5045 C5044 1.397 . S
C5045 C5046 1.334 . S
C5046 H5017 0.950 . S
C5046 C5045 1.334 . S
C5046 C5047 1.287 . S
C5047 C5046 1.287 . S
C5047 C5048 1.524 . S
C5047 H5050 0.999 . S
C5048 H5018 0.950 . S
C5048 C5047 1.524 . S
C5048 C5049 1.415 . S
C5049 H5019 0.950 . S
C5049 C5044 1.363 . S
C5049 C5048 1.415 . S
H5050 C5047 0.999 . S
H5051 C5032 0.913 . S
H5052 C5070 0.951 . S
H5053 C5072 0.951 . S
H5054 C5074 0.950 . S
H5055 C5075 0.950 . S
H5056 C5077 0.950 . S
H5057 C5080 0.950 . S
H5058 C5081 0.950 . S
H5059 C5083 0.950 . S
H5060 C5084 0.950 . S
H5061 C5085 0.951 . S
H5062 C5087 0.951 . S
H5063 C5089 0.950 . S
H5064 C5090 0.950 . S
H5065 C5092 0.950 . S
H5066 C5095 0.950 . S
H5067 C5096 0.950 . S
H5068 C5098 0.950 . S
H5069 C5099 0.950 . S
C5070 H5052 0.951 . S
C5070 C5071 1.366 . S
C5070 C5072 1.388 . S
C5071 C5070 1.366 . S
C5071 C5075 1.385 . S
C5072 H5053 0.951 . S
C5072 C5070 1.388 . S
C5072 C5073 1.366 . S
C5073 C5072 1.366 . S
C5073 C5074 1.414 . S
C5073 C5076 1.499 . S
C5074 H5054 0.950 . S
C5074 C5073 1.414 . S
C5074 C5075 1.374 . S
C5075 H5055 0.950 . S
C5075 C5071 1.385 . S
C5075 C5074 1.374 . S
C5076 C5073 1.499 . S
C5076 C5077 1.373 . S
C5076 C5078 1.389 . S
C5077 H5056 0.950 . S
C5077 C5076 1.373 . S
C5077 C5093 1.377 . S
C5078 C5076 1.389 . S
C5078 C5079 1.524 . S
C5078 C5092 1.377 . S
C5079 C5078 1.524 . S
C5079 C5080 1.397 . S
C5079 C5084 1.363 . S
C5080 H5057 0.950 . S
C5080 C5079 1.397 . S
C5080 C5081 1.334 . S
C5081 H5058 0.950 . S
C5081 C5080 1.334 . S
C5081 C5082 1.287 . S
C5082 C5081 1.287 . S
C5082 C5083 1.524 . S
C5082 H5101 0.913 . S
C5083 H5059 0.950 . S
C5083 C5082 1.524 . S
C5083 C5084 1.415 . S
C5084 H5060 0.950 . S
C5084 C5079 1.363 . S
C5084 C5083 1.415 . S
C5085 H5061 0.951 . S
C5085 C5086 1.366 1_655 S
C5085 C5087 1.388 . S
C5086 C5085 1.366 1_455 S
C5086 C5090 1.385 . S
C5087 H5062 0.951 . S
C5087 C5085 1.388 . S
C5087 C5088 1.366 . S
C5088 C5087 1.366 . S
C5088 C5089 1.414 . S
C5088 C5091 1.499 . S
C5089 H5063 0.950 . S
C5089 C5088 1.414 . S
C5089 C5090 1.374 1_655 S
C5090 H5064 0.950 . S
C5090 C5086 1.385 . S
C5090 C5089 1.374 1_455 S
C5091 C5088 1.499 . S
C5091 C5092 1.373 . S
C5091 C5093 1.389 . S
C5092 H5065 0.950 . S
C5092 C5078 1.377 . S
C5092 C5091 1.373 . S
C5093 C5077 1.377 . S
C5093 C5091 1.389 . S
C5093 C5094 1.524 . S
C5094 C5093 1.524 . S
C5094 C5095 1.397 1_655 S
C5094 C5099 1.363 . S
C5095 H5066 0.950 . S
C5095 C5094 1.397 1_455 S
C5095 C5096 1.334 . S
C5096 H5067 0.950 . S
C5096 C5095 1.334 . S
C5096 C5097 1.287 . S
C5097 C5096 1.287 . S
C5097 C5098 1.524 1_455 S
C5097 H5100 0.999 . S
C5098 H5068 0.950 . S
C5098 C5097 1.524 1_655 S
C5098 C5099 1.415 . S
C5099 H5069 0.950 . S
C5099 C5094 1.363 . S
C5099 C5098 1.415 . S
H5100 C5097 0.999 . S
H5101 C5082 0.913 . S
H5102 C5120 0.951 . S
H5103 C5122 0.951 . S
H5104 C5124 0.950 . S
H5105 C5125 0.950 . S
H5106 C5127 0.950 . S
H5107 C5130 0.950 . S
H5108 C5131 0.950 . S
H5109 C5133 0.950 . S
H5110 C5134 0.950 . S
H5111 C5135 0.951 . S
H5112 C5137 0.951 . S
H5113 C5139 0.950 . S
H5114 C5140 0.950 . S
H5115 C5142 0.950 . S
H5116 C5145 0.950 . S
H5117 C5146 0.950 . S
H5118 C5148 0.950 . S
H5119 C5149 0.950 . S
C5120 H5102 0.951 . S
C5120 C5121 1.366 . S
C5120 C5122 1.388 . S
C5121 C5120 1.366 . S
C5121 C5125 1.385 . S
C5122 H5103 0.951 . S
C5122 C5120 1.388 . S
C5122 C5123 1.366 . S
C5123 C5122 1.366 . S
C5123 C5124 1.414 . S
C5123 C5126 1.499 . S
C5124 H5104 0.950 . S
C5124 C5123 1.414 . S
C5124 C5125 1.374 . S
C5125 H5105 0.950 . S
C5125 C5121 1.385 . S
C5125 C5124 1.374 . S
C5126 C5123 1.499 . S
C5126 C5127 1.373 . S
C5126 C5128 1.389 . S
C5127 H5106 0.950 . S
C5127 C5126 1.373 . S
C5127 C5143 1.377 . S
C5128 C5126 1.389 . S
C5128 C5129 1.524 . S
C5128 C5142 1.377 . S
C5129 C5128 1.524 . S
C5129 C5130 1.397 . S
C5129 C5134 1.363 . S
C5130 H5107 0.950 . S
C5130 C5129 1.397 . S
C5130 C5131 1.334 . S
C5131 H5108 0.950 . S
C5131 C5130 1.334 . S
C5131 C5132 1.287 . S
C5132 C5131 1.287 . S
C5132 C5133 1.524 . S
C5132 H5151 0.913 . S
C5133 H5109 0.950 . S
C5133 C5132 1.524 . S
C5133 C5134 1.415 . S
C5134 H5110 0.950 . S
C5134 C5129 1.363 . S
C5134 C5133 1.415 . S
C5135 H5111 0.951 . S
C5135 C5136 1.366 . S
C5135 C5137 1.388 . S
C5136 C5135 1.366 . S
C5136 C5140 1.385 . S
C5137 H5112 0.951 . S
C5137 C5135 1.388 . S
C5137 C5138 1.366 . S
C5138 C5137 1.366 . S
C5138 C5139 1.414 . S
C5138 C5141 1.499 . S
C5139 H5113 0.950 . S
C5139 C5138 1.414 . S
C5139 C5140 1.374 . S
C5140 H5114 0.950 . S
C5140 C5136 1.385 . S
C5140 C5139 1.374 . S
C5141 C5138 1.499 . S
C5141 C5142 1.373 . S
C5141 C5143 1.389 . S
C5142 H5115 0.950 . S
C5142 C5128 1.377 . S
C5142 C5141 1.373 . S
C5143 C5127 1.377 . S
C5143 C5141 1.389 . S
C5143 C5144 1.524 . S
C5144 C5143 1.524 . S
C5144 C5145 1.397 . S
C5144 C5149 1.363 . S
C5145 H5116 0.950 . S
C5145 C5144 1.397 . S
C5145 C5146 1.334 . S
C5146 H5117 0.950 . S
C5146 C5145 1.334 . S
C5146 C5147 1.287 . S
C5147 C5146 1.287 . S
C5147 C5148 1.524 . S
C5147 H5150 0.999 . S
C5148 H5118 0.950 . S
C5148 C5147 1.524 . S
C5148 C5149 1.415 . S
C5149 H5119 0.950 . S
C5149 C5144 1.363 . S
C5149 C5148 1.415 . S
H5150 C5147 0.999 . S
H5151 C5132 0.913 . S
H5152 C5170 0.951 . S
H5153 C5172 0.951 . S
H5154 C5174 0.950 . S
H5155 C5175 0.950 . S
H5156 C5177 0.950 . S
H5157 C5180 0.950 . S
H5158 C5181 0.950 . S
H5159 C5183 0.950 . S
H5160 C5184 0.950 . S
H5161 C5185 0.951 . S
H5162 C5187 0.951 . S
H5163 C5189 0.950 . S
H5164 C5190 0.950 . S
H5165 C5192 0.950 . S
H5166 C5195 0.950 . S
H5167 C5196 0.950 . S
H5168 C5198 0.950 . S
H5169 C5199 0.950 . S
C5170 H5152 0.951 . S
C5170 C5171 1.366 . S
C5170 C5172 1.388 . S
C5171 C5170 1.366 . S
C5171 C5175 1.385 . S
C5172 H5153 0.951 . S
C5172 C5170 1.388 . S
C5172 C5173 1.366 . S
C5173 C5172 1.366 . S
C5173 C5174 1.414 . S
C5173 C5176 1.499 . S
C5174 H5154 0.950 . S
C5174 C5173 1.414 . S
C5174 C5175 1.374 . S
C5175 H5155 0.950 . S
C5175 C5171 1.385 . S
C5175 C5174 1.374 . S
C5176 C5173 1.499 . S
C5176 C5177 1.373 . S
C5176 C5178 1.389 . S
C5177 H5156 0.950 . S
C5177 C5176 1.373 . S
C5177 C5193 1.377 . S
C5178 C5176 1.389 . S
C5178 C5179 1.524 . S
C5178 C5192 1.377 . S
C5179 C5178 1.524 . S
C5179 C5180 1.397 . S
C5179 C5184 1.363 . S
C5180 H5157 0.950 . S
C5180 C5179 1.397 . S
C5180 C5181 1.334 . S
C5181 H5158 0.950 . S
C5181 C5180 1.334 . S
C5181 C5182 1.287 . S
C5182 C5181 1.287 . S
C5182 C5183 1.524 . S
C5182 H5201 0.913 . S
C5183 H5159 0.950 . S
C5183 C5182 1.524 . S
C5183 C5184 1.415 . S
C5184 H5160 0.950 . S
C5184 C5179 1.363 . S
C5184 C5183 1.415 . S
C5185 H5161 0.951 . S
C5185 C5186 1.366 . S
C5185 C5187 1.388 . S
C5186 C5185 1.366 . S
C5186 C5190 1.385 . S
C5187 H5162 0.951 . S
C5187 C5185 1.388 . S
C5187 C5188 1.366 . S
C5188 C5187 1.366 . S
C5188 C5189 1.414 . S
C5188 C5191 1.499 . S
C5189 H5163 0.950 . S
C5189 C5188 1.414 . S
C5189 C5190 1.374 . S
C5190 H5164 0.950 . S
C5190 C5186 1.385 . S
C5190 C5189 1.374 . S
C5191 C5188 1.499 . S
C5191 C5192 1.373 . S
C5191 C5193 1.389 . S
C5192 H5165 0.950 . S
C5192 C5178 1.377 . S
C5192 C5191 1.373 . S
C5193 C5177 1.377 . S
C5193 C5191 1.389 . S
C5193 C5194 1.524 . S
C5194 C5193 1.524 . S
C5194 C5195 1.397 . S
C5194 C5199 1.363 . S
C5195 H5166 0.950 . S
C5195 C5194 1.397 . S
C5195 C5196 1.334 . S
C5196 H5167 0.950 . S
C5196 C5195 1.334 . S
C5196 C5197 1.287 . S
C5197 C5196 1.287 . S
C5197 C5198 1.524 . S
C5197 H5200 0.999 . S
C5198 H5168 0.950 . S
C5198 C5197 1.524 . S
C5198 C5199 1.415 . S
C5199 H5169 0.950 . S
C5199 C5194 1.363 . S
C5199 C5198 1.415 . S
H5200 C5197 0.999 . S
H5201 C5182 0.913 . S
H5202 C5220 0.951 . S
H5203 C5222 0.951 . S
H5204 C5224 0.950 . S
H5205 C5225 0.950 . S
H5206 C5227 0.950 . S
H5207 C5230 0.950 . S
H5208 C5231 0.950 . S
H5209 C5233 0.950 . S
H5210 C5234 0.950 . S
H5211 C5235 0.951 . S
H5212 C5237 0.951 . S
H5213 C5239 0.950 . S
H5214 C5240 0.950 . S
H5215 C5242 0.950 . S
H5216 C5245 0.950 . S
H5217 C5246 0.950 . S
H5218 C5248 0.950 . S
H5219 C5249 0.950 . S
C5220 H5202 0.951 . S
C5220 C5221 1.366 . S
C5220 C5222 1.388 . S
C5221 C5220 1.366 . S
C5221 C5225 1.385 . S
C5222 H5203 0.951 . S
C5222 C5220 1.388 . S
C5222 C5223 1.366 . S
C5223 C5222 1.366 . S
C5223 C5224 1.414 . S
C5223 C5226 1.499 . S
C5224 H5204 0.950 . S
C5224 C5223 1.414 . S
C5224 C5225 1.374 . S
C5225 H5205 0.950 . S
C5225 C5221 1.385 . S
C5225 C5224 1.374 . S
C5226 C5223 1.499 . S
C5226 C5227 1.373 . S
C5226 C5228 1.389 . S
C5227 H5206 0.950 . S
C5227 C5226 1.373 . S
C5227 C5243 1.377 . S
C5228 C5226 1.389 . S
C5228 C5229 1.524 . S
C5228 C5242 1.377 . S
C5229 C5228 1.524 . S
C5229 C5230 1.397 . S
C5229 C5234 1.363 . S
C5230 H5207 0.950 . S
C5230 C5229 1.397 . S
C5230 C5231 1.334 . S
C5231 H5208 0.950 . S
C5231 C5230 1.334 . S
C5231 C5232 1.287 . S
C5232 C5231 1.287 . S
C5232 C5233 1.524 . S
C5232 H5251 0.913 . S
C5233 H5209 0.950 . S
C5233 C5232 1.524 . S
C5233 C5234 1.415 . S
C5234 H5210 0.950 . S
C5234 C5229 1.363 . S
C5234 C5233 1.415 . S
C5235 H5211 0.951 . S
C5235 C5236 1.366 . S
C5235 C5237 1.388 . S
C5236 C5235 1.366 . S
C5236 C5240 1.385 . S
C5237 H5212 0.951 . S
C5237 C5235 1.388 . S
C5237 C5238 1.366 . S
C5238 C5237 1.366 . S
C5238 C5239 1.414 . S
C5238 C5241 1.499 . S
C5239 H5213 0.950 . S
C5239 C5238 1.414 . S
C5239 C5240 1.374 . S
C5240 H5214 0.950 . S
C5240 C5236 1.385 . S
C5240 C5239 1.374 . S
C5241 C5238 1.499 . S
C5241 C5242 1.373 . S
C5241 C5243 1.389 . S
C5242 H5215 0.950 . S
C5242 C5228 1.377 . S
C5242 C5241 1.373 . S
C5243 C5227 1.377 . S
C5243 C5241 1.389 . S
C5243 C5244 1.524 . S
C5244 C5243 1.524 . S
C5244 C5245 1.397 . S
C5244 C5249 1.363 . S
C5245 H5216 0.950 . S
C5245 C5244 1.397 . S
C5245 C5246 1.334 . S
C5246 H5217 0.950 . S
C5246 C5245 1.334 . S
C5246 C5247 1.287 . S
C5247 C5246 1.287 . S
C5247 C5248 1.524 . S
C5247 H5250 0.999 . S
C5248 H5218 0.950 . S
C5248 C5247 1.524 . S
C5248 C5249 1.415 . S
C5249 H5219 0.950 . S
C5249 C5244 1.363 . S
C5249 C5248 1.415 . S
H5250 C5247 0.999 . S
H5251 C5232 0.913 . S
H5252 C5270 0.951 . S
H5253 C5272 0.951 . S
H5254 C5274 0.950 . S
H5255 C5275 0.950 . S
H5256 C5277 0.950 . S
H5257 C5280 0.950 . S
H5258 C5281 0.950 . S
H5259 C5283 0.950 . S
H5260 C5284 0.950 . S
H5261 C5285 0.951 1_455 S
H5262 C5287 0.951 . S
H5263 C5289 0.950 . S
H5264 C5290 0.950 . S
H5265 C5292 0.950 . S
H5266 C5295 0.950 . S
H5267 C5296 0.950 . S
H5268 C5298 0.950 . S
H5269 C5299 0.951 1_655 S
C5270 H5252 0.951 . S
C5270 C5271 1.366 . S
C5270 C5272 1.388 . S
C5271 C5270 1.366 . S
C5271 C5275 1.385 . S
C5272 H5253 0.951 . S
C5272 C5270 1.388 . S
C5272 C5273 1.366 . S
C5273 C5272 1.366 . S
C5273 C5274 1.414 . S
C5273 C5276 1.499 . S
C5274 H5254 0.950 . S
C5274 C5273 1.414 . S
C5274 C5275 1.374 . S
C5275 H5255 0.950 . S
C5275 C5271 1.385 . S
C5275 C5274 1.374 . S
C5276 C5273 1.499 . S
C5276 C5277 1.373 . S
C5276 C5278 1.389 . S
C5277 H5256 0.950 . S
C5277 C5276 1.373 . S
C5277 C5293 1.377 . S
C5278 C5276 1.389 . S
C5278 C5279 1.524 . S
C5278 C5292 1.377 . S
C5279 C5278 1.524 . S
C5279 C5280 1.397 . S
C5279 C5284 1.363 . S
C5280 H5257 0.950 . S
C5280 C5279 1.397 . S
C5280 C5281 1.334 . S
C5281 H5258 0.950 . S
C5281 C5280 1.334 . S
C5281 C5282 1.287 . S
C5282 C5281 1.287 . S
C5282 C5283 1.524 . S
C5282 H5301 0.913 . S
C5283 H5259 0.950 . S
C5283 C5282 1.524 . S
C5283 C5284 1.415 . S
C5284 H5260 0.950 . S
C5284 C5279 1.363 . S
C5284 C5283 1.415 . S
C5285 H5261 0.951 1_655 S
C5285 C5286 1.366 . S
C5285 C5287 1.388 . S
C5286 C5285 1.366 . S
C5286 C5290 1.385 . S
C5287 H5262 0.951 . S
C5287 C5285 1.388 . S
C5287 C5288 1.366 . S
C5288 C5287 1.366 . S
C5288 C5289 1.414 . S
C5288 C5291 1.499 . S
C5289 H5263 0.950 . S
C5289 C5288 1.414 . S
C5289 C5290 1.374 . S
C5290 H5264 0.950 . S
C5290 C5286 1.385 . S
C5290 C5289 1.374 . S
C5291 C5288 1.499 . S
C5291 C5292 1.373 . S
C5291 C5293 1.389 . S
C5292 H5265 0.950 . S
C5292 C5278 1.377 . S
C5292 C5291 1.373 . S
C5293 C5277 1.377 . S
C5293 C5291 1.389 . S
C5293 C5294 1.524 . S
C5294 C5293 1.524 . S
C5294 C5295 1.397 . S
C5294 C5299 1.363 1_655 S
C5295 H5266 0.950 . S
C5295 C5294 1.397 . S
C5295 C5296 1.334 1_655 S
C5296 H5267 0.950 . S
C5296 C5295 1.334 1_455 S
C5296 C5297 1.287 . S
C5297 C5296 1.287 . S
C5297 C5298 1.524 . S
C5297 H5300 0.999 . S
C5298 H5268 0.950 . S
C5298 C5297 1.524 . S
C5298 C5299 1.415 . S
C5299 H5269 0.951 1_455 S
C5299 C5294 1.363 1_455 S
C5299 C5298 1.415 . S
H5300 C5297 0.999 . S
H5301 C5282 0.913 . S
H5302 C5320 0.951 . S
H5303 C5322 0.951 . S
H5304 C5324 0.950 . S
H5305 C5325 0.950 . S
H5306 C5327 0.950 . S
H5307 C5330 0.950 . S
H5308 C5331 0.950 . S
H5309 C5333 0.950 . S
H5310 C5334 0.950 . S
H5311 C5335 0.951 . S
H5312 C5337 0.951 . S
H5313 C5339 0.950 . S
H5314 C5340 0.950 . S
H5315 C5342 0.950 . S
H5316 C5345 0.950 . S
H5317 C5346 0.950 . S
H5318 C5348 0.950 . S
H5319 C5349 0.950 . S
C5320 H5302 0.951 . S
C5320 C5321 1.366 . S
C5320 C5322 1.388 . S
C5321 C5320 1.366 . S
C5321 C5325 1.385 . S
C5322 H5303 0.951 . S
C5322 C5320 1.388 . S
C5322 C5323 1.366 . S
C5323 C5322 1.366 . S
C5323 C5324 1.414 . S
C5323 C5326 1.499 . S
C5324 H5304 0.950 . S
C5324 C5323 1.414 . S
C5324 C5325 1.374 . S
C5325 H5305 0.950 . S
C5325 C5321 1.385 . S
C5325 C5324 1.374 . S
C5326 C5323 1.499 . S
C5326 C5327 1.373 . S
C5326 C5328 1.389 . S
C5327 H5306 0.950 . S
C5327 C5326 1.373 . S
C5327 C5343 1.377 . S
C5328 C5326 1.389 . S
C5328 C5329 1.524 . S
C5328 C5342 1.377 . S
C5329 C5328 1.524 . S
C5329 C5330 1.397 . S
C5329 C5334 1.363 . S
C5330 H5307 0.950 . S
C5330 C5329 1.397 . S
C5330 C5331 1.334 . S
C5331 H5308 0.950 . S
C5331 C5330 1.334 . S
C5331 C5332 1.287 . S
C5332 C5331 1.287 . S
C5332 C5333 1.524 . S
C5332 H5351 0.913 . S
C5333 H5309 0.950 . S
C5333 C5332 1.524 . S
C5333 C5334 1.415 . S
C5334 H5310 0.950 . S
C5334 C5329 1.363 . S
C5334 C5333 1.415 . S
C5335 H5311 0.951 . S
C5335 C5336 1.366 . S
C5335 C5337 1.388 . S
C5336 C5335 1.366 . S
C5336 C5340 1.385 . S
C5337 H5312 0.951 . S
C5337 C5335 1.388 . S
C5337 C5338 1.366 . S
C5338 C5337 1.366 . S
C5338 C5339 1.414 . S
C5338 C5341 1.499 . S
C5339 H5313 0.950 . S
C5339 C5338 1.414 . S
C5339 C5340 1.374 . S
C5340 H5314 0.950 . S
C5340 C5336 1.385 . S
C5340 C5339 1.374 . S
C5341 C5338 1.499 . S
C5341 C5342 1.373 . S
C5341 C5343 1.389 . S
C5342 H5315 0.950 . S
C5342 C5328 1.377 . S
C5342 C5341 1.373 . S
C5343 C5327 1.377 . S
C5343 C5341 1.389 . S
C5343 C5344 1.524 . S
C5344 C5343 1.524 . S
C5344 C5345 1.397 . S
C5344 C5349 1.363 . S
C5345 H5316 0.950 . S
C5345 C5344 1.397 . S
C5345 C5346 1.334 . S
C5346 H5317 0.950 . S
C5346 C5345 1.334 . S
C5346 C5347 1.287 . S
C5347 C5346 1.287 . S
C5347 C5348 1.524 . S
C5347 H5350 0.999 . S
C5348 H5318 0.950 . S
C5348 C5347 1.524 . S
C5348 C5349 1.415 . S
C5349 H5319 0.950 . S
C5349 C5344 1.363 . S
C5349 C5348 1.415 . S
H5350 C5347 0.999 . S
H5351 C5332 0.913 . S
H5352 C5370 0.951 . S
H5353 C5372 0.951 . S
H5354 C5374 0.950 . S
H5355 C5375 0.950 . S
H5356 C5377 0.950 . S
H5357 C5380 0.950 . S
H5358 C5381 0.950 . S
H5359 C5383 0.950 . S
H5360 C5384 0.950 . S
H5361 C5385 0.951 . S
H5362 C5387 0.951 . S
H5363 C5389 0.950 . S
H5364 C5390 0.950 . S
H5365 C5392 0.950 . S
H5366 C5395 0.950 . S
H5367 C5396 0.950 . S
H5368 C5398 0.950 . S
H5369 C5399 0.950 . S
C5370 H5352 0.951 . S
C5370 C5371 1.366 . S
C5370 C5372 1.388 . S
C5371 C5370 1.366 . S
C5371 C5375 1.385 . S
C5372 H5353 0.951 . S
C5372 C5370 1.388 . S
C5372 C5373 1.366 . S
C5373 C5372 1.366 . S
C5373 C5374 1.414 . S
C5373 C5376 1.499 . S
C5374 H5354 0.950 . S
C5374 C5373 1.414 . S
C5374 C5375 1.374 . S
C5375 H5355 0.950 . S
C5375 C5371 1.385 . S
C5375 C5374 1.374 . S
C5376 C5373 1.499 . S
C5376 C5377 1.373 . S
C5376 C5378 1.389 . S
C5377 H5356 0.950 . S
C5377 C5376 1.373 . S
C5377 C5393 1.377 . S
C5378 C5376 1.389 . S
C5378 C5379 1.524 . S
C5378 C5392 1.377 . S
C5379 C5378 1.524 . S
C5379 C5380 1.397 . S
C5379 C5384 1.363 . S
C5380 H5357 0.950 . S
C5380 C5379 1.397 . S
C5380 C5381 1.334 . S
C5381 H5358 0.950 . S
C5381 C5380 1.334 . S
C5381 C5382 1.287 . S
C5382 C5381 1.287 . S
C5382 C5383 1.524 . S
C5382 H5401 0.913 . S
C5383 H5359 0.950 . S
C5383 C5382 1.524 . S
C5383 C5384 1.415 . S
C5384 H5360 0.950 . S
C5384 C5379 1.363 . S
C5384 C5383 1.415 . S
C5385 H5361 0.951 . S
C5385 C5386 1.366 . S
C5385 C5387 1.388 . S
C5386 C5385 1.366 . S
C5386 C5390 1.385 . S
C5387 H5362 0.951 . S
C5387 C5385 1.388 . S
C5387 C5388 1.366 . S
C5388 C5387 1.366 . S
C5388 C5389 1.414 . S
C5388 C5391 1.499 . S
C5389 H5363 0.950 . S
C5389 C5388 1.414 . S
C5389 C5390 1.374 . S
C5390 H5364 0.950 . S
C5390 C5386 1.385 . S
C5390 C5389 1.374 . S
C5391 C5388 1.499 . S
C5391 C5392 1.373 . S
C5391 C5393 1.389 . S
C5392 H5365 0.950 . S
C5392 C5378 1.377 . S
C5392 C5391 1.373 . S
C5393 C5377 1.377 . S
C5393 C5391 1.389 . S
C5393 C5394 1.524 . S
C5394 C5393 1.524 . S
C5394 C5395 1.397 . S
C5394 C5399 1.363 . S
C5395 H5366 0.950 . S
C5395 C5394 1.397 . S
C5395 C5396 1.334 . S
C5396 H5367 0.950 . S
C5396 C5395 1.334 . S
C5396 C5397 1.287 . S
C5397 C5396 1.287 . S
C5397 C5398 1.524 . S
C5397 H5400 0.999 . S
C5398 H5368 0.950 . S
C5398 C5397 1.524 . S
C5398 C5399 1.415 . S
C5399 H5369 0.950 . S
C5399 C5394 1.363 . S
C5399 C5398 1.415 . S
H5400 C5397 0.999 . S
H5401 C5382 0.913 . S
H5402 C5420 0.951 . S
H5403 C5422 0.951 . S
H5404 C5424 0.950 . S
H5405 C5425 0.950 . S
H5406 C5427 0.950 . S
H5407 C5430 0.950 . S
H5408 C5431 0.950 . S
H5409 C5433 0.950 . S
H5410 C5434 0.950 . S
H5411 C5435 0.951 . S
H5412 C5437 0.951 . S
H5413 C5439 0.950 . S
H5414 C5440 0.950 . S
H5415 C5442 0.950 . S
H5416 C5445 0.950 . S
H5417 C5446 0.950 . S
H5418 C5448 0.950 . S
H5419 C5449 0.950 . S
C5420 H5402 0.951 . S
C5420 C5421 1.366 . S
C5420 C5422 1.388 . S
C5421 C5420 1.366 . S
C5421 C5425 1.385 . S
C5422 H5403 0.951 . S
C5422 C5420 1.388 . S
C5422 C5423 1.366 . S
C5423 C5422 1.366 . S
C5423 C5424 1.414 . S
C5423 C5426 1.499 . S
C5424 H5404 0.950 . S
C5424 C5423 1.414 . S
C5424 C5425 1.374 . S
C5425 H5405 0.950 . S
C5425 C5421 1.385 . S
C5425 C5424 1.374 . S
C5426 C5423 1.499 . S
C5426 C5427 1.373 . S
C5426 C5428 1.389 . S
C5427 H5406 0.950 . S
C5427 C5426 1.373 . S
C5427 C5443 1.377 . S
C5428 C5426 1.389 . S
C5428 C5429 1.524 . S
C5428 C5442 1.377 . S
C5429 C5428 1.524 . S
C5429 C5430 1.397 . S
C5429 C5434 1.363 . S
C5430 H5407 0.950 . S
C5430 C5429 1.397 . S
C5430 C5431 1.334 . S
C5431 H5408 0.950 . S
C5431 C5430 1.334 . S
C5431 C5432 1.287 . S
C5432 C5431 1.287 . S
C5432 C5433 1.524 . S
C5432 H5451 0.913 . S
C5433 H5409 0.950 . S
C5433 C5432 1.524 . S
C5433 C5434 1.415 . S
C5434 H5410 0.950 . S
C5434 C5429 1.363 . S
C5434 C5433 1.415 . S
C5435 H5411 0.951 . S
C5435 C5436 1.366 . S
C5435 C5437 1.388 . S
C5436 C5435 1.366 . S
C5436 C5440 1.385 . S
C5437 H5412 0.951 . S
C5437 C5435 1.388 . S
C5437 C5438 1.366 . S
C5438 C5437 1.366 . S
C5438 C5439 1.414 . S
C5438 C5441 1.499 . S
C5439 H5413 0.950 . S
C5439 C5438 1.414 . S
C5439 C5440 1.374 . S
C5440 H5414 0.950 . S
C5440 C5436 1.385 . S
C5440 C5439 1.374 . S
C5441 C5438 1.499 . S
C5441 C5442 1.373 . S
C5441 C5443 1.389 . S
C5442 H5415 0.950 . S
C5442 C5428 1.377 . S
C5442 C5441 1.373 . S
C5443 C5427 1.377 . S
C5443 C5441 1.389 . S
C5443 C5444 1.524 . S
C5444 C5443 1.524 . S
C5444 C5445 1.397 . S
C5444 C5449 1.363 . S
C5445 H5416 0.950 . S
C5445 C5444 1.397 . S
C5445 C5446 1.334 . S
C5446 H5417 0.950 . S
C5446 C5445 1.334 . S
C5446 C5447 1.287 . S
C5447 C5446 1.287 . S
C5447 C5448 1.524 . S
C5447 H5450 0.999 . S
C5448 H5418 0.950 . S
C5448 C5447 1.524 . S
C5448 C5449 1.415 . S
C5449 H5419 0.950 . S
C5449 C5444 1.363 . S
C5449 C5448 1.415 . S
H5450 C5447 0.999 . S
H5451 C5432 0.913 . S
H5452 C5470 0.951 . S
H5453 C5472 0.951 . S
H5454 C5474 0.950 . S
H5455 C5475 0.950 . S
H5456 C5477 0.950 . S
H5457 C5480 0.950 . S
H5458 C5481 0.950 . S
H5459 C5483 0.950 . S
H5460 C5484 0.950 . S
H5461 C5485 0.951 . S
H5462 C5487 0.951 . S
H5463 C5489 0.950 . S
H5464 C5490 0.950 . S
H5465 C5492 0.950 . S
H5466 C5495 0.950 . S
H5467 C5496 0.950 . S
H5468 C5498 0.950 . S
H5469 C5499 0.950 . S
C5470 H5452 0.951 . S
C5470 C5471 1.366 . S
C5470 C5472 1.388 . S
C5471 C5470 1.366 . S
C5471 C5475 1.385 . S
C5472 H5453 0.951 . S
C5472 C5470 1.388 . S
C5472 C5473 1.366 . S
C5473 C5472 1.366 . S
C5473 C5474 1.414 . S
C5473 C5476 1.499 . S
C5474 H5454 0.950 . S
C5474 C5473 1.414 . S
C5474 C5475 1.374 . S
C5475 H5455 0.950 . S
C5475 C5471 1.385 . S
C5475 C5474 1.374 . S
C5476 C5473 1.499 . S
C5476 C5477 1.373 . S
C5476 C5478 1.389 . S
C5477 H5456 0.950 . S
C5477 C5476 1.373 . S
C5477 C5493 1.377 . S
C5478 C5476 1.389 . S
C5478 C5479 1.524 . S
C5478 C5492 1.377 . S
C5479 C5478 1.524 . S
C5479 C5480 1.397 . S
C5479 C5484 1.363 . S
C5480 H5457 0.950 . S
C5480 C5479 1.397 . S
C5480 C5481 1.334 . S
C5481 H5458 0.950 . S
C5481 C5480 1.334 . S
C5481 C5482 1.287 . S
C5482 C5481 1.287 . S
C5482 C5483 1.524 . S
C5482 H5501 0.913 . S
C5483 H5459 0.950 . S
C5483 C5482 1.524 . S
C5483 C5484 1.415 . S
C5484 H5460 0.950 . S
C5484 C5479 1.363 . S
C5484 C5483 1.415 . S
C5485 H5461 0.951 . S
C5485 C5486 1.366 . S
C5485 C5487 1.388 . S
C5486 C5485 1.366 . S
C5486 C5490 1.385 . S
C5487 H5462 0.951 . S
C5487 C5485 1.388 . S
C5487 C5488 1.366 . S
C5488 C5487 1.366 . S
C5488 C5489 1.414 . S
C5488 C5491 1.499 . S
C5489 H5463 0.950 . S
C5489 C5488 1.414 . S
C5489 C5490 1.374 . S
C5490 H5464 0.950 . S
C5490 C5486 1.385 . S
C5490 C5489 1.374 . S
C5491 C5488 1.499 . S
C5491 C5492 1.373 . S
C5491 C5493 1.389 . S
C5492 H5465 0.950 . S
C5492 C5478 1.377 . S
C5492 C5491 1.373 . S
C5493 C5477 1.377 . S
C5493 C5491 1.389 . S
C5493 C5494 1.524 . S
C5494 C5493 1.524 . S
C5494 C5495 1.397 . S
C5494 C5499 1.363 . S
C5495 H5466 0.950 . S
C5495 C5494 1.397 . S
C5495 C5496 1.334 . S
C5496 H5467 0.950 . S
C5496 C5495 1.334 . S
C5496 C5497 1.287 . S
C5497 C5496 1.287 . S
C5497 C5498 1.524 . S
C5497 H5500 0.999 . S
C5498 H5468 0.950 . S
C5498 C5497 1.524 . S
C5498 C5499 1.415 . S
C5499 H5469 0.950 . S
C5499 C5494 1.363 . S
C5499 C5498 1.415 . S
H5500 C5497 0.999 . S
H5501 C5482 0.913 . S
H5502 C5520 0.951 . S
H5503 C5522 0.951 . S
H5504 C5524 0.950 . S
H5505 C5525 0.950 . S
H5506 C5527 0.950 . S
H5507 C5530 0.950 . S
H5508 C5531 0.950 . S
H5509 C5533 0.950 . S
H5510 C5534 0.950 . S
H5511 C5535 0.951 . S
H5512 C5537 0.951 . S
H5513 C5539 0.950 . S
H5514 C5540 0.950 . S
H5515 C5542 0.950 . S
H5516 C5545 0.950 . S
H5517 C5546 0.950 . S
H5518 C5548 0.950 . S
H5519 C5549 0.936 1_554 S
C5520 H5502 0.951 . S
C5520 C5521 1.366 . S
C5520 C5522 1.388 . S
C5521 C5520 1.366 . S
C5521 C5525 1.385 . S
C5522 H5503 0.951 . S
C5522 C5520 1.388 . S
C5522 C5523 1.366 . S
C5523 C5522 1.366 . S
C5523 C5524 1.414 . S
C5523 C5526 1.499 . S
C5524 H5504 0.950 . S
C5524 C5523 1.414 . S
C5524 C5525 1.374 . S
C5525 H5505 0.950 . S
C5525 C5521 1.385 . S
C5525 C5524 1.374 . S
C5526 C5523 1.499 . S
C5526 C5527 1.373 . S
C5526 C5528 1.389 . S
C5527 H5506 0.950 . S
C5527 C5526 1.373 . S
C5527 C5543 1.377 . S
C5528 C5526 1.389 . S
C5528 C5529 1.524 . S
C5528 C5542 1.377 . S
C5529 C5528 1.524 . S
C5529 C5530 1.397 . S
C5529 C5534 1.363 . S
C5530 H5507 0.950 . S
C5530 C5529 1.397 . S
C5530 C5531 1.334 . S
C5531 H5508 0.950 . S
C5531 C5530 1.334 . S
C5531 C5532 1.287 . S
C5532 C5531 1.287 . S
C5532 C5533 1.524 . S
C5532 H5551 0.913 . S
C5533 H5509 0.950 . S
C5533 C5532 1.524 . S
C5533 C5534 1.415 . S
C5534 H5510 0.950 . S
C5534 C5529 1.363 . S
C5534 C5533 1.415 . S
C5535 H5511 0.951 . S
C5535 C5536 1.366 . S
C5535 C5537 1.388 . S
C5536 C5535 1.366 . S
C5536 C5540 1.385 . S
C5537 H5512 0.951 . S
C5537 C5535 1.388 . S
C5537 C5538 1.366 . S
C5538 C5537 1.366 . S
C5538 C5539 1.414 . S
C5538 C5541 1.499 . S
C5539 H5513 0.950 . S
C5539 C5538 1.414 . S
C5539 C5540 1.374 . S
C5540 H5514 0.950 . S
C5540 C5536 1.385 . S
C5540 C5539 1.374 . S
C5541 C5538 1.499 . S
C5541 C5542 1.373 . S
C5541 C5543 1.389 . S
C5542 H5515 0.950 . S
C5542 C5528 1.377 . S
C5542 C5541 1.373 . S
C5543 C5527 1.377 . S
C5543 C5541 1.389 . S
C5543 C5544 1.524 1_554 S
C5544 C5543 1.524 1_556 S
C5544 C5545 1.397 . S
C5544 C5549 1.363 . S
C5545 H5516 0.950 . S
C5545 C5544 1.397 . S
C5545 C5546 1.334 . S
C5546 H5517 0.950 . S
C5546 C5545 1.334 . S
C5546 C5547 1.287 . S
C5547 C5546 1.287 . S
C5547 C5548 1.524 . S
C5547 H5550 0.999 . S
C5548 H5518 0.950 . S
C5548 C5547 1.524 . S
C5548 C5549 1.415 . S
C5549 H5519 0.936 1_556 S
C5549 C5544 1.363 . S
C5549 C5548 1.415 . S
H5550 C5547 0.999 . S
H5551 C5532 0.913 . S
H5552 C5570 0.951 . S
H5553 C5572 0.951 . S
H5554 C5574 0.950 . S
H5555 C5575 0.950 . S
H5556 C5577 0.950 . S
H5557 C5580 0.950 . S
H5558 C5581 0.950 . S
H5559 C5583 0.950 . S
H5560 C5584 0.950 . S
H5561 C5585 0.951 . S
H5562 C5587 0.951 . S
H5563 C5589 0.950 . S
H5564 C5590 0.950 . S
H5565 C5592 0.950 . S
H5566 C5595 0.950 . S
H5567 C5596 0.950 . S
H5568 C5598 0.950 . S
H5569 C5599 0.950 . S
C5570 H5552 0.951 . S
C5570 C5571 1.366 . S
C5570 C5572 1.388 . S
C5571 C5570 1.366 . S
C5571 C5575 1.385 . S
C5572 H5553 0.951 . S
C5572 C5570 1.388 . S
C5572 C5573 1.366 . S
C5573 C5572 1.366 . S
C5573 C5574 1.414 . S
C5573 C5576 1.499 . S
C5574 H5554 0.950 . S
C5574 C5573 1.414 . S
C5574 C5575 1.374 . S
C5575 H5555 0.950 . S
C5575 C5571 1.385 . S
C5575 C5574 1.374 . S
C5576 C5573 1.499 . S
C5576 C5577 1.373 . S
C5576 C5578 1.389 . S
C5577 H5556 0.950 . S
C5577 C5576 1.373 . S
C5577 C5593 1.377 . S
C5578 C5576 1.389 . S
C5578 C5579 1.524 . S
C5578 C5592 1.377 . S
C5579 C5578 1.524 . S
C5579 C5580 1.397 . S
C5579 C5584 1.363 . S
C5580 H5557 0.950 . S
C5580 C5579 1.397 . S
C5580 C5581 1.334 . S
C5581 H5558 0.950 . S
C5581 C5580 1.334 . S
C5581 C5582 1.287 . S
C5582 C5581 1.287 . S
C5582 C5583 1.524 . S
C5582 H5601 0.913 . S
C5583 H5559 0.950 . S
C5583 C5582 1.524 . S
C5583 C5584 1.415 . S
C5584 H5560 0.950 . S
C5584 C5579 1.363 . S
C5584 C5583 1.415 . S
C5585 H5561 0.951 . S
C5585 C5586 1.366 . S
C5585 C5587 1.388 . S
C5586 C5585 1.366 . S
C5586 C5590 1.385 . S
C5587 H5562 0.951 . S
C5587 C5585 1.388 . S
C5587 C5588 1.366 . S
C5588 C5587 1.366 . S
C5588 C5589 1.414 . S
C5588 C5591 1.499 . S
C5589 H5563 0.950 . S
C5589 C5588 1.414 . S
C5589 C5590 1.374 . S
C5590 H5564 0.950 . S
C5590 C5586 1.385 . S
C5590 C5589 1.374 . S
C5591 C5588 1.499 . S
C5591 C5592 1.373 . S
C5591 C5593 1.389 . S
C5592 H5565 0.950 . S
C5592 C5578 1.377 . S
C5592 C5591 1.373 . S
C5593 C5577 1.377 . S
C5593 C5591 1.389 . S
C5593 C5594 1.524 . S
C5594 C5593 1.524 . S
C5594 C5595 1.397 . S
C5594 C5599 1.363 . S
C5595 H5566 0.950 . S
C5595 C5594 1.397 . S
C5595 C5596 1.334 . S
C5596 H5567 0.950 . S
C5596 C5595 1.334 . S
C5596 C5597 1.287 . S
C5597 C5596 1.287 . S
C5597 C5598 1.524 . S
C5597 H5600 0.999 . S
C5598 H5568 0.950 . S
C5598 C5597 1.524 . S
C5598 C5599 1.415 . S
C5599 H5569 0.950 . S
C5599 C5594 1.363 . S
C5599 C5598 1.415 . S
H5600 C5597 0.999 . S
H5601 C5582 0.913 . S
H5602 C5620 0.951 . S
H5603 C5622 0.951 . S
H5604 C5624 0.950 . S
H5605 C5625 0.950 . S
H5606 C5627 0.950 . S
H5607 C5630 0.950 . S
H5608 C5631 0.950 . S
H5609 C5633 0.950 . S
H5610 C5634 0.950 . S
H5611 C5635 0.951 . S
H5612 C5637 0.951 . S
H5613 C5639 0.950 . S
H5614 C5640 0.950 . S
H5615 C5642 0.950 . S
H5616 C5645 0.950 . S
H5617 C5646 0.950 . S
H5618 C5648 0.950 . S
H5619 C5649 0.950 1_554 S
C5620 H5602 0.951 . S
C5620 C5621 1.366 . S
C5620 C5622 1.388 . S
C5621 C5620 1.366 . S
C5621 C5625 1.385 . S
C5622 H5603 0.951 . S
C5622 C5620 1.388 . S
C5622 C5623 1.366 . S
C5623 C5622 1.366 . S
C5623 C5624 1.414 . S
C5623 C5626 1.499 . S
C5624 H5604 0.950 . S
C5624 C5623 1.414 . S
C5624 C5625 1.374 . S
C5625 H5605 0.950 . S
C5625 C5621 1.385 . S
C5625 C5624 1.374 . S
C5626 C5623 1.499 . S
C5626 C5627 1.373 . S
C5626 C5628 1.389 . S
C5627 H5606 0.950 . S
C5627 C5626 1.373 . S
C5627 C5643 1.377 . S
C5628 C5626 1.389 . S
C5628 C5629 1.524 . S
C5628 C5642 1.377 . S
C5629 C5628 1.524 . S
C5629 C5630 1.397 . S
C5629 C5634 1.363 . S
C5630 H5607 0.950 . S
C5630 C5629 1.397 . S
C5630 C5631 1.334 . S
C5631 H5608 0.950 . S
C5631 C5630 1.334 . S
C5631 C5632 1.287 . S
C5632 C5631 1.287 . S
C5632 C5633 1.524 . S
C5632 H5651 0.913 . S
C5633 H5609 0.950 . S
C5633 C5632 1.524 . S
C5633 C5634 1.415 . S
C5634 H5610 0.950 . S
C5634 C5629 1.363 . S
C5634 C5633 1.415 . S
C5635 H5611 0.951 . S
C5635 C5636 1.366 . S
C5635 C5637 1.388 . S
C5636 C5635 1.366 . S
C5636 C5640 1.385 . S
C5637 H5612 0.951 . S
C5637 C5635 1.388 . S
C5637 C5638 1.366 . S
C5638 C5637 1.366 . S
C5638 C5639 1.414 . S
C5638 C5641 1.499 . S
C5639 H5613 0.950 . S
C5639 C5638 1.414 . S
C5639 C5640 1.374 . S
C5640 H5614 0.950 . S
C5640 C5636 1.385 . S
C5640 C5639 1.374 . S
C5641 C5638 1.499 . S
C5641 C5642 1.373 . S
C5641 C5643 1.389 . S
C5642 H5615 0.950 . S
C5642 C5628 1.377 . S
C5642 C5641 1.373 . S
C5643 C5627 1.377 . S
C5643 C5641 1.389 . S
C5643 C5644 1.524 1_554 S
C5644 C5643 1.524 1_556 S
C5644 C5645 1.397 . S
C5644 C5649 1.363 . S
C5645 H5616 0.950 . S
C5645 C5644 1.397 . S
C5645 C5646 1.334 . S
C5646 H5617 0.950 . S
C5646 C5645 1.334 . S
C5646 C5647 1.287 . S
C5647 C5646 1.287 . S
C5647 C5648 1.524 . S
C5647 H5650 0.999 . S
C5648 H5618 0.950 . S
C5648 C5647 1.524 . S
C5648 C5649 1.415 . S
C5649 H5619 0.950 1_556 S
C5649 C5644 1.363 . S
C5649 C5648 1.415 . S
H5650 C5647 0.999 . S
H5651 C5632 0.913 . S
H5652 C5670 0.951 . S
H5653 C5672 0.951 . S
H5654 C5674 0.950 . S
H5655 C5675 0.950 . S
H5656 C5677 0.950 . S
H5657 C5680 0.950 . S
H5658 C5681 0.950 . S
H5659 C5683 0.950 . S
H5660 C5684 0.950 . S
H5661 C5685 0.951 . S
H5662 C5687 0.951 . S
H5663 C5689 0.950 . S
H5664 C5690 0.950 . S
H5665 C5692 0.950 . S
H5666 C5695 0.950 . S
H5667 C5696 0.950 . S
H5668 C5698 0.950 . S
H5669 C5699 0.950 . S
C5670 H5652 0.951 . S
C5670 C5671 1.366 . S
C5670 C5672 1.388 . S
C5671 C5670 1.366 . S
C5671 C5675 1.385 . S
C5672 H5653 0.951 . S
C5672 C5670 1.388 . S
C5672 C5673 1.366 . S
C5673 C5672 1.366 . S
C5673 C5674 1.414 . S
C5673 C5676 1.499 . S
C5674 H5654 0.950 . S
C5674 C5673 1.414 . S
C5674 C5675 1.374 . S
C5675 H5655 0.950 . S
C5675 C5671 1.385 . S
C5675 C5674 1.374 . S
C5676 C5673 1.499 . S
C5676 C5677 1.373 . S
C5676 C5678 1.389 . S
C5677 H5656 0.950 . S
C5677 C5676 1.373 . S
C5677 C5693 1.377 . S
C5678 C5676 1.389 . S
C5678 C5679 1.524 . S
C5678 C5692 1.377 . S
C5679 C5678 1.524 . S
C5679 C5680 1.397 . S
C5679 C5684 1.363 . S
C5680 H5657 0.950 . S
C5680 C5679 1.397 . S
C5680 C5681 1.334 . S
C5681 H5658 0.950 . S
C5681 C5680 1.334 . S
C5681 C5682 1.287 . S
C5682 C5681 1.287 . S
C5682 C5683 1.524 . S
C5682 H5701 0.913 . S
C5683 H5659 0.950 . S
C5683 C5682 1.524 . S
C5683 C5684 1.415 . S
C5684 H5660 0.950 . S
C5684 C5679 1.363 . S
C5684 C5683 1.415 . S
C5685 H5661 0.951 . S
C5685 C5686 1.366 . S
C5685 C5687 1.388 . S
C5686 C5685 1.366 . S
C5686 C5690 1.385 . S
C5687 H5662 0.951 . S
C5687 C5685 1.388 . S
C5687 C5688 1.366 . S
C5688 C5687 1.366 . S
C5688 C5689 1.414 . S
C5688 C5691 1.499 . S
C5689 H5663 0.950 . S
C5689 C5688 1.414 . S
C5689 C5690 1.374 . S
C5690 H5664 0.950 . S
C5690 C5686 1.385 . S
C5690 C5689 1.374 . S
C5691 C5688 1.499 . S
C5691 C5692 1.373 . S
C5691 C5693 1.389 . S
C5692 H5665 0.950 . S
C5692 C5678 1.377 . S
C5692 C5691 1.373 . S
C5693 C5677 1.377 . S
C5693 C5691 1.389 . S
C5693 C5694 1.524 . S
C5694 C5693 1.524 . S
C5694 C5695 1.397 . S
C5694 C5699 1.363 . S
C5695 H5666 0.950 . S
C5695 C5694 1.397 . S
C5695 C5696 1.334 . S
C5696 H5667 0.950 . S
C5696 C5695 1.334 . S
C5696 C5697 1.287 . S
C5697 C5696 1.287 . S
C5697 C5698 1.524 . S
C5697 H5700 0.999 . S
C5698 H5668 0.950 . S
C5698 C5697 1.524 . S
C5698 C5699 1.415 . S
C5699 H5669 0.950 . S
C5699 C5694 1.363 . S
C5699 C5698 1.415 . S
H5700 C5697 0.999 . S
H5701 C5682 0.913 . S
H5702 C5720 0.951 . S
H5703 C5722 0.951 . S
H5704 C5724 0.950 . S
H5705 C5725 0.950 . S
H5706 C5727 0.950 . S
H5707 C5730 0.950 . S
H5708 C5731 0.950 . S
H5709 C5733 0.950 . S
H5710 C5734 0.950 . S
H5711 C5735 0.951 . S
H5712 C5737 0.951 . S
H5713 C5739 0.950 . S
H5714 C5740 0.950 . S
H5715 C5742 0.950 . S
H5716 C5745 0.950 . S
H5717 C5746 0.950 . S
H5718 C5748 0.950 . S
H5719 C5749 0.950 . S
C5720 H5702 0.951 . S
C5720 C5721 1.366 . S
C5720 C5722 1.388 . S
C5721 C5720 1.366 . S
C5721 C5725 1.385 . S
C5722 H5703 0.951 . S
C5722 C5720 1.388 . S
C5722 C5723 1.366 . S
C5723 C5722 1.366 . S
C5723 C5724 1.414 . S
C5723 C5726 1.499 . S
C5724 H5704 0.950 . S
C5724 C5723 1.414 . S
C5724 C5725 1.374 . S
C5725 H5705 0.950 . S
C5725 C5721 1.385 . S
C5725 C5724 1.374 . S
C5726 C5723 1.499 . S
C5726 C5727 1.373 . S
C5726 C5728 1.389 . S
C5727 H5706 0.950 . S
C5727 C5726 1.373 . S
C5727 C5743 1.377 . S
C5728 C5726 1.389 . S
C5728 C5729 1.524 . S
C5728 C5742 1.377 . S
C5729 C5728 1.524 . S
C5729 C5730 1.397 . S
C5729 C5734 1.363 . S
C5730 H5707 0.950 . S
C5730 C5729 1.397 . S
C5730 C5731 1.334 . S
C5731 H5708 0.950 . S
C5731 C5730 1.334 . S
C5731 C5732 1.287 . S
C5732 C5731 1.287 . S
C5732 C5733 1.524 . S
C5732 H5751 0.913 . S
C5733 H5709 0.950 . S
C5733 C5732 1.524 . S
C5733 C5734 1.415 . S
C5734 H5710 0.950 . S
C5734 C5729 1.363 . S
C5734 C5733 1.415 . S
C5735 H5711 0.951 . S
C5735 C5736 1.366 . S
C5735 C5737 1.388 . S
C5736 C5735 1.366 . S
C5736 C5740 1.385 . S
C5737 H5712 0.951 . S
C5737 C5735 1.388 . S
C5737 C5738 1.366 . S
C5738 C5737 1.366 . S
C5738 C5739 1.414 . S
C5738 C5741 1.499 . S
C5739 H5713 0.950 . S
C5739 C5738 1.414 . S
C5739 C5740 1.374 . S
C5740 H5714 0.950 . S
C5740 C5736 1.385 . S
C5740 C5739 1.374 . S
C5741 C5738 1.499 . S
C5741 C5742 1.373 . S
C5741 C5743 1.389 . S
C5742 H5715 0.950 . S
C5742 C5728 1.377 . S
C5742 C5741 1.373 . S
C5743 C5727 1.377 . S
C5743 C5741 1.389 . S
C5743 C5744 1.524 . S
C5744 C5743 1.524 . S
C5744 C5745 1.397 . S
C5744 C5749 1.363 . S
C5745 H5716 0.950 . S
C5745 C5744 1.397 . S
C5745 C5746 1.334 . S
C5746 H5717 0.950 . S
C5746 C5745 1.334 . S
C5746 C5747 1.287 . S
C5747 C5746 1.287 . S
C5747 C5748 1.524 . S
C5747 H5750 0.999 . S
C5748 H5718 0.950 . S
C5748 C5747 1.524 . S
C5748 C5749 1.415 . S
C5749 H5719 0.950 . S
C5749 C5744 1.363 . S
C5749 C5748 1.415 . S
H5750 C5747 0.999 . S
H5751 C5732 0.913 . S
C971 C101 2.216 . S
C986 C322 2.132 . S
C1021 C57 1.899 . S
C1036 C370 1.912 . S
C1071 C70 0.917 . S
C1086 C402 0.904 . S
C1136 C447 1.566 . S
C1121 C82 1.595 . S
C1171 C23 0.837 . S
C1186 C487 0.835 . S
C1236 C522 0.573 . S
C1221 C29 0.548 . S
C1286 C561 1.216 . S
C1271 C49 1.211 . S
C1321 C10 1.166 . S
C1336 C598 1.156 . S
C1386 C330 1.881 . S
C1371 C218 1.879 . S
C1421 C226 0.359 . S
C1436 C367 0.548 . S
C1486 C410 2.341 . S
C1471 C251 2.342 . S
C1536 C442 0.798 . S
C1521 C159 0.802 . S
C1571 C211 0.936 . S
C1586 C482 0.922 . S
C1636 C530 0.323 . S
C1621 C225 0.345 . S
C1686 C571 1.722 . S
C1671 C252 1.793 . S
C1736 C601 1.886 . S
C1721 C166 1.900 . S
C1786 C327 1.207 . S
C1771 C147 1.222 . S
C1821 C263 2.065 . S
C1836 C650 2.061 . S
C1886 C687 1.199 . S
C1871 C309 1.202 . S
C1936 C718 0.430 . S
C1921 C291 0.357 . S
C1971 C108 2.755 . S
C1986 C611 2.708 . S
C2021 C121 1.398 . S
C2036 C407 1.385 . S
C2071 C302 1.677 . S
C2086 C770 1.704 . S
C2136 C802 1.600 . S
C2121 C276 1.634 . S
C2186 C331 2.318 . S
C2171 C55 2.370 . S
C2236 C801 2.355 . S
C2221 C96 2.378 . S
C2271 C88 1.370 . S
C2286 C411 1.353 . S
C2321 C75 1.818 . S
C2336 C758 1.794 . S
C2386 C478 1.108 . S
C2371 C4 1.111 . S
C2421 C44 1.205 . S
C2436 C691 1.197 . S
C2486 C570 1.326 . S
C2471 C31 1.349 . S
C2536 C847 1.402 . S
C2521 C18 1.405 . S
C2586 C321 2.184 1_556 S
C2571 C133 2.203 . S
C2636 C798 0.335 . S
C2621 C296 0.214 . S
C2671 C107 2.706 . S
C2686 C401 2.674 . S
C2721 C264 1.267 . S
C2736 C771 1.253 . S
C2771 C140 1.410 . S
C2786 C491 1.392 . S
C2836 C681 0.778 . S
C2821 C289 0.779 . S
C2871 C114 2.221 . S
C2886 C562 2.157 . S
C2921 C265 2.086 . S
C2936 C850 2.056 . S
C2971 C179 1.132 . S
C2986 C318 1.121 . S
C3021 C161 2.490 . S
C3036 C641 2.448 . S
C3071 C244 1.356 . S
C3086 C518 1.352 . S
C3121 C224 0.354 . S
C3136 C727 0.385 . S
C3186 C842 2.979 . S
C3171 C257 3.028 . S
C3221 C199 1.640 . S
C3236 C398 1.625 . S
C3286 C441 2.010 . S
C3271 C237 2.022 . S
C3336 C371 1.981 . S
C3321 C185 1.992 . S
C3371 C69 2.217 . S
C3386 C882 2.132 . S
C3436 C810 1.912 . S
C3421 C83 1.900 . S
C3471 C94 0.919 . S
C3486 C922 0.906 . S
C3521 C56 1.594 . S
C3536 C767 1.567 . S
C3571 C42 0.846 . S
C3586 C647 0.845 . S
C3636 C682 0.575 . S
C3621 C3 0.549 . S
C3686 C721 1.227 . S
C3671 C16 1.223 . S
C3736 C838 1.157 . S
C3721 C36 1.166 . S
C3786 C890 1.881 . S
C3771 C238 1.879 . S
C3821 C174 0.362 . S
C3836 C807 0.551 . S
C3886 C930 2.341 . S
C3871 C186 2.342 . S
C3936 C762 0.795 . S
C3921 C198 0.801 . S
C3986 C642 0.922 . S
C3971 C239 0.937 . S
C4021 C173 0.347 . S
C4036 C690 0.323 . S
C4086 C731 1.724 . S
C4071 C187 1.795 . S
C4121 C205 1.900 . S
C4136 C841 1.886 . S
C4186 C887 1.204 . S
C4171 C290 1.221 . S
C4221 C122 2.066 . S
C4236 C490 2.062 . S
C4286 C527 1.202 . S
C4271 C134 1.206 . S
C4336 C558 0.426 . S
C4321 C148 0.354 1_554 S
C4386 C851 2.703 . S
C4371 C283 2.750 . S
C4421 C270 1.396 . S
C4436 C927 1.384 . S
C4486 C450 1.702 . S
C4471 C135 1.676 . S
C4536 C362 1.598 . S
C4521 C109 1.633 . S
C4571 C81 2.370 . S
C4586 C891 2.316 . S
C4636 C361 2.354 . S
C4621 C68 2.377 . S
C4671 C62 1.370 . S
C4686 C931 1.354 . S
C4721 C95 1.817 . S
C4736 C438 1.792 . S
C4771 C30 1.111 . S
C4786 C638 1.107 . S
C4836 C531 1.184 . S
C4821 C17 1.195 . S
C4871 C5 1.350 . S
C4886 C730 1.328 . S
C4921 C43 1.398 . S
C4936 C607 1.393 . S
C4986 C881 2.184 . S
C4971 C304 2.203 . S
C5021 C153 0.217 . S
C5036 C358 0.339 . S
C5086 C921 2.674 . S
C5071 C278 2.706 . S
C5121 C127 1.266 . S
C5136 C451 1.252 . S
C5171 C303 1.406 . S
C5186 C651 1.388 . S
C5236 C521 0.774 . S
C5221 C146 0.782 . S
C5271 C277 2.215 . S
C5286 C722 2.152 1_655 S
C5336 C610 2.053 . S
C5321 C120 2.084 . S
C5386 C878 1.122 . S
C5371 C231 1.132 . S
C5436 C481 2.448 1_665 S
C5421 C200 2.489 . S
C5471 C212 1.359 . S
C5486 C678 1.354 . S
C5536 C567 0.384 . S
C5521 C172 0.355 . S
C5571 C192 3.026 . S
C5586 C602 2.977 . S
C5621 C160 1.641 . S
C5636 C918 1.625 . S
C5686 C761 2.011 . S
C5671 C213 2.024 . S
C5736 C811 1.982 . S
C5721 C250 1.993 . S
