# Generated by pormake.
# Topology ocu, (6,8)-cn, num edge types: 1
# Building blocks:
#     Node 0, Type 0, BuildingBlock: JUFBIX_clean_sbu_0, # of connection points: 6
#     Node 1, Type 0, BuildingBlock: JUFBIX_clean_sbu_0, # of connection points: 6
#     Node 2, Type 0, BuildingBlock: JUFBIX_clean_sbu_0, # of connection points: 6
#     Node 3, Type 0, BuildingBlock: JUFBIX_clean_sbu_0, # of connection points: 6
#     Node 4, Type 0, BuildingBlock: JUFBIX_clean_sbu_0, # of connection points: 6
#     Node 5, Type 0, BuildingBlock: JUFBIX_clean_sbu_0, # of connection points: 6
#     Node 6, Type 0, BuildingBlock: JUFBIX_clean_sbu_0, # of connection points: 6
#     Node 7, Type 0, BuildingBlock: JUFBIX_clean_sbu_0, # of connection points: 6
#     Node 8, Type 1, BuildingBlock: AJUNOK_clean_sbu_0, # of connection points: 8
#     Node 9, Type 1, BuildingBlock: AJUNOK_clean_sbu_0, # of connection points: 8
#     Node 10, Type 1, BuildingBlock: AJUNOK_clean_sbu_0, # of connection points: 8
#     Node 11, Type 1, BuildingBlock: AJUNOK_clean_sbu_0, # of connection points: 8
#     Node 12, Type 1, BuildingBlock: AJUNOK_clean_sbu_0, # of connection points: 8
#     Node 13, Type 1, BuildingBlock: AJUNOK_clean_sbu_0, # of connection points: 8
#     Edge 14, Type (0, 1), None
#     Edge 15, Type (0, 1), None
#     Edge 16, Type (0, 1), None
#     Edge 17, Type (0, 1), None
#     Edge 18, Type (0, 1), None
#     Edge 19, Type (0, 1), None
#     Edge 20, Type (0, 1), None
#     Edge 21, Type (0, 1), None
#     Edge 22, Type (0, 1), None
#     Edge 23, Type (0, 1), None
#     Edge 24, Type (0, 1), None
#     Edge 25, Type (0, 1), None
#     Edge 26, Type (0, 1), None
#     Edge 27, Type (0, 1), None
#     Edge 28, Type (0, 1), None
#     Edge 29, Type (0, 1), None
#     Edge 30, Type (0, 1), None
#     Edge 31, Type (0, 1), None
#     Edge 32, Type (0, 1), None
#     Edge 33, Type (0, 1), None
#     Edge 34, Type (0, 1), None
#     Edge 35, Type (0, 1), None
#     Edge 36, Type (0, 1), None
#     Edge 37, Type (0, 1), None
#     Edge 38, Type (0, 1), None
#     Edge 39, Type (0, 1), None
#     Edge 40, Type (0, 1), None
#     Edge 41, Type (0, 1), None
#     Edge 42, Type (0, 1), None
#     Edge 43, Type (0, 1), None
#     Edge 44, Type (0, 1), None
#     Edge 45, Type (0, 1), None
#     Edge 46, Type (0, 1), None
#     Edge 47, Type (0, 1), None
#     Edge 48, Type (0, 1), None
#     Edge 49, Type (0, 1), None
#     Edge 50, Type (0, 1), None
#     Edge 51, Type (0, 1), None
#     Edge 52, Type (0, 1), None
#     Edge 53, Type (0, 1), None
#     Edge 54, Type (0, 1), None
#     Edge 55, Type (0, 1), None
#     Edge 56, Type (0, 1), None
#     Edge 57, Type (0, 1), None
#     Edge 58, Type (0, 1), None
#     Edge 59, Type (0, 1), None
#     Edge 60, Type (0, 1), None
#     Edge 61, Type (0, 1), None
# Relax obj value: 0.383
# Max RMSD: 0.385
# Mean RMSD: 0.221
data_MOF--net-ocu--node1-JUFBIX_clean_sbu_0--node2-AJUNOK_clean_sbu_0--edge1-none
_symmetry_space_group_name_H-M    P1
_symmetry_Int_Tables_number       1
_symmetry_cell_setting            triclinic
loop_
_symmetry_equiv_pos_as_xyz
'x, y, z'
_cell_length_a     21.68875
_cell_length_b     22.134664
_cell_length_c     19.456851
_cell_angle_alpha  104.87207
_cell_angle_beta   104.29848
_cell_angle_gamma 105.92676
loop_
_atom_site_label
_atom_site_type_symbol
_atom_site_fract_x
_atom_site_fract_y
_atom_site_fract_z
_atom_type_partial_charge
Co0 Co 0.22773 0.22503 0.22357 0.0
C1 C 0.25984 0.35727 0.33167 0.0
Co2 Co 0.32518 0.30356 0.24886 0.0
C3 C 0.13297 0.17223 0.28621 0.0
C4 C 0.08263 0.14462 0.16739 0.0
N5 N 0.14493 0.17231 0.22159 0.0
N6 N 0.0662 0.14724 0.27551 0.0
C7 C 0.03379 0.12838 0.20054 0.0
H8 H 0.17282 0.19236 0.34093 0.0
H9 H 0.07305 0.14006 0.10869 0.0
C10 C 0.29308 0.17133 0.14076 0.0
N11 N 0.40799 0.35629 0.25084 0.0
C12 C 0.41995 0.35637 0.18622 0.0
C13 C 0.47029 0.38398 0.30504 0.0
N14 N 0.48672 0.38136 0.19692 0.0
C15 C 0.51913 0.40022 0.27189 0.0
C16 C 0.33889 0.22084 0.3331 0.0
O17 O 0.23501 0.15351 0.1489 0.0
O18 O 0.3323 0.23225 0.17408 0.0
O19 O 0.37181 0.27392 0.32448 0.0
O20 O 0.27474 0.19459 0.29849 0.0
O21 O 0.3179 0.37509 0.32353 0.0
H22 H 0.47987 0.38854 0.36375 0.0
H23 H 0.38009 0.33624 0.1315 0.0
O24 O 0.22062 0.29634 0.29835 0.0
O25 O 0.18111 0.25468 0.14795 0.0
O26 O 0.27818 0.33401 0.17394 0.0
C27 C 0.21403 0.30776 0.13933 0.0
H28 H 0.97908 0.10539 0.17208 0.0
H29 H 0.57383 0.42321 0.30036 0.0
Co30 Co 0.80011 0.24337 0.19558 0.0
C31 C 0.88352 0.36604 0.32534 0.0
Co32 Co 0.75281 0.28524 0.27686 0.0
C33 C 0.86753 0.2558 0.09386 0.0
C34 C 0.91958 0.22957 0.18294 0.0
N35 N 0.85603 0.22132 0.1403 0.0
N36 N 0.93227 0.29864 0.12021 0.0
C37 C 0.96642 0.27995 0.17346 0.0
H38 H 0.82715 0.26075 0.05266 0.0
H39 H 0.93076 0.21366 0.23121 0.0
C40 C 0.6694 0.16256 0.1471 0.0
N41 N 0.69689 0.30729 0.33214 0.0
C42 C 0.68539 0.27281 0.37858 0.0
C43 C 0.63334 0.29904 0.2895 0.0
N44 N 0.62065 0.22996 0.35222 0.0
C45 C 0.5865 0.24865 0.29898 0.0
C46 C 0.74764 0.33536 0.1614 0.0
O47 O 0.72188 0.16818 0.1274 0.0
O48 O 0.67352 0.20641 0.20669 0.0
O49 O 0.73168 0.33815 0.22012 0.0
O50 O 0.77572 0.29524 0.13907 0.0
O51 O 0.83104 0.36043 0.34503 0.0
H52 H 0.62216 0.31494 0.24123 0.0
H53 H 0.72577 0.26786 0.41978 0.0
O54 O 0.8794 0.32219 0.26575 0.0
O55 O 0.82124 0.19045 0.25232 0.0
O56 O 0.7772 0.23336 0.33337 0.0
C57 C 0.80528 0.19325 0.31104 0.0
H58 H 1.01929 0.30641 0.20964 0.0
H59 H 0.53363 0.2222 0.2628 0.0
Co60 Co 0.76864 0.74198 0.27985 0.0
C61 C 0.88415 0.85444 0.32215 0.0
Co62 Co 0.78428 0.78661 0.19258 0.0
C63 C 0.78897 0.65501 0.35766 0.0
C64 C 0.79589 0.74765 0.43239 0.0
N65 N 0.7703 0.70825 0.35876 0.0
N66 N 0.83472 0.6645 0.42435 0.0
C67 C 0.83631 0.7213 0.47254 0.0
H68 H 0.78021 0.61665 0.30529 0.0
H69 H 0.79719 0.79846 0.45279 0.0
C70 C 0.66877 0.67416 0.15028 0.0
N71 N 0.78262 0.82035 0.11367 0.0
C72 C 0.76395 0.87359 0.11477 0.0
C73 C 0.75703 0.78094 0.04004 0.0
N74 N 0.71819 0.8641 0.04808 0.0
C75 C 0.7166 0.8073 -0.00011 0.0
C76 C 0.84504 0.69039 0.18917 0.0
O77 O 0.68841 0.67322 0.21677 0.0
O78 O 0.70331 0.71802 0.13052 0.0
O79 O 0.83599 0.73226 0.15687 0.0
O80 O 0.82063 0.68807 0.24213 0.0
O81 O 0.86451 0.85537 0.25566 0.0
H82 H 0.75573 0.73014 0.01964 0.0
H83 H 0.77271 0.91195 0.16714 0.0
O84 O 0.84961 0.81058 0.34191 0.0
O85 O 0.71693 0.79634 0.31555 0.0
O86 O 0.73229 0.84052 0.2303 0.0
C87 C 0.70788 0.8382 0.28325 0.0
H88 H 0.87217 0.74748 0.52942 0.0
H89 H 0.68073 0.78112 0.94301 0.0
Co90 Co 0.24091 0.78801 0.22033 0.0
C91 C 0.36354 0.86769 0.34704 0.0
Co92 Co 0.312 0.74059 0.2521 0.0
C93 C 0.17088 0.87213 0.25739 0.0
C94 C 0.15027 0.83708 0.13781 0.0
N95 N 0.18492 0.83313 0.20346 0.0
N96 N 0.12909 0.90091 0.22862 0.0
C97 C 0.11506 0.87888 0.15326 0.0
H98 H 0.19003 0.87823 0.31665 0.0
H99 H 0.15073 0.81133 0.08265 0.0
C100 C 0.18938 0.66091 0.12539 0.0
N101 N 0.368 0.69547 0.26897 0.0
C102 C 0.38204 0.65647 0.21504 0.0
C103 C 0.40264 0.69152 0.33462 0.0
N104 N 0.42383 0.62769 0.24382 0.0
C105 C 0.43785 0.64972 0.31917 0.0
C106 C 0.21137 0.71135 0.31704 0.0
O107 O 0.17782 0.71465 0.13612 0.0
O108 O 0.24615 0.66245 0.16598 0.0
O109 O 0.26688 0.70411 0.31465 0.0
O110 O 0.19155 0.74891 0.28334 0.0
O111 O 0.3751 0.81395 0.33631 0.0
H112 H 0.40219 0.71727 0.38978 0.0
H113 H 0.36288 0.65038 0.15578 0.0
O114 O 0.30677 0.86615 0.30646 0.0
O115 O 0.28604 0.82449 0.15778 0.0
O116 O 0.36137 0.77969 0.18909 0.0
C117 C 0.34154 0.81725 0.15539 0.0
H118 H 0.08222 0.89224 0.11283 0.0
H119 H 0.47069 0.63636 0.3596 0.0
Co120 Co 0.30011 0.74337 0.69558 0.0
C121 C 0.38352 0.86604 0.82534 0.0
Co122 Co 0.25281 0.78524 0.77686 0.0
C123 C 0.36753 0.7558 0.59386 0.0
C124 C 0.41958 0.72957 0.68294 0.0
N125 N 0.35603 0.72132 0.6403 0.0
N126 N 0.43227 0.79864 0.62021 0.0
C127 C 0.46642 0.77995 0.67346 0.0
H128 H 0.32715 0.76075 0.55266 0.0
H129 H 0.43076 0.71366 0.73121 0.0
C130 C 0.1694 0.66256 0.6471 0.0
N131 N 0.19689 0.80729 0.83214 0.0
C132 C 0.18539 0.77281 0.87858 0.0
C133 C 0.13334 0.79904 0.7895 0.0
N134 N 0.12065 0.72996 0.85222 0.0
C135 C 0.0865 0.74865 0.79898 0.0
C136 C 0.24764 0.83536 0.6614 0.0
O137 O 0.22188 0.66818 0.6274 0.0
O138 O 0.17352 0.70641 0.70669 0.0
O139 O 0.23168 0.83815 0.72012 0.0
O140 O 0.27572 0.79524 0.63907 0.0
O141 O 0.33104 0.86043 0.84503 0.0
H142 H 0.12216 0.81494 0.74123 0.0
H143 H 0.22577 0.76786 0.91978 0.0
O144 O 0.3794 0.82219 0.76575 0.0
O145 O 0.32124 0.69045 0.75232 0.0
O146 O 0.2772 0.73336 0.83337 0.0
C147 C 0.30528 0.69325 0.81104 0.0
H148 H 0.51929 0.80641 0.70964 0.0
H149 H 0.03363 0.7222 0.7628 0.0
Co150 Co 0.26864 0.24198 0.77985 0.0
C151 C 0.38415 0.35444 0.82215 0.0
Co152 Co 0.28428 0.28661 0.69258 0.0
C153 C 0.28897 0.15501 0.85766 0.0
C154 C 0.29589 0.24765 0.93239 0.0
N155 N 0.2703 0.20825 0.85876 0.0
N156 N 0.33472 0.1645 0.92435 0.0
C157 C 0.33631 0.2213 0.97254 0.0
H158 H 0.28021 0.11665 0.80529 0.0
H159 H 0.29719 0.29846 0.95279 0.0
C160 C 0.16877 0.17416 0.65028 0.0
N161 N 0.28262 0.32035 0.61367 0.0
C162 C 0.26395 0.37359 0.61477 0.0
C163 C 0.25703 0.28094 0.54004 0.0
N164 N 0.21819 0.3641 0.54808 0.0
C165 C 0.2166 0.3073 0.49989 0.0
C166 C 0.34504 0.19039 0.68917 0.0
O167 O 0.18841 0.17322 0.71677 0.0
O168 O 0.20331 0.21802 0.63052 0.0
O169 O 0.33599 0.23226 0.65687 0.0
O170 O 0.32063 0.18807 0.74213 0.0
O171 O 0.36451 0.35537 0.75566 0.0
H172 H 0.25573 0.23014 0.51964 0.0
H173 H 0.27271 0.41195 0.66714 0.0
O174 O 0.34961 0.31058 0.84191 0.0
O175 O 0.21693 0.29634 0.81555 0.0
O176 O 0.23229 0.34052 0.7303 0.0
C177 C 0.20788 0.3382 0.78326 0.0
H178 H 0.37218 0.24748 0.02942 0.0
H179 H 0.18073 0.28112 0.44301 0.0
Co180 Co 0.74091 0.28801 0.72033 0.0
C181 C 0.86354 0.36769 0.84704 0.0
Co182 Co 0.812 0.24059 0.7521 0.0
C183 C 0.67088 0.37213 0.75739 0.0
C184 C 0.65027 0.33708 0.63781 0.0
N185 N 0.68492 0.33313 0.70346 0.0
N186 N 0.62909 0.40091 0.72861 0.0
C187 C 0.61506 0.37888 0.65326 0.0
H188 H 0.69003 0.37823 0.81665 0.0
H189 H 0.65073 0.31133 0.58265 0.0
C190 C 0.68938 0.16091 0.62539 0.0
N191 N 0.868 0.19547 0.76897 0.0
C192 C 0.88204 0.15647 0.71504 0.0
C193 C 0.90264 0.19152 0.83462 0.0
N194 N 0.92383 0.12769 0.74382 0.0
C195 C 0.93785 0.14972 0.81917 0.0
C196 C 0.71137 0.21135 0.81704 0.0
O197 O 0.67782 0.21465 0.63612 0.0
O198 O 0.74615 0.16245 0.66598 0.0
O199 O 0.76688 0.20411 0.81465 0.0
O200 O 0.69155 0.24891 0.78334 0.0
O201 O 0.8751 0.31395 0.83631 0.0
H202 H 0.90219 0.21727 0.88978 0.0
H203 H 0.86288 0.15037 0.65578 0.0
O204 O 0.80677 0.36615 0.80646 0.0
O205 O 0.78604 0.32449 0.65778 0.0
O206 O 0.86137 0.27969 0.68909 0.0
C207 C 0.84154 0.31725 0.65539 0.0
H208 H 0.58222 0.39224 0.61282 0.0
H209 H 0.97069 0.13636 0.8596 0.0
Co210 Co 0.72773 0.72503 0.72357 0.0
C211 C 0.75984 0.85727 0.83167 0.0
Co212 Co 0.82518 0.80356 0.74886 0.0
C213 C 0.63296 0.67223 0.78621 0.0
C214 C 0.58263 0.64462 0.66739 0.0
N215 N 0.64493 0.67231 0.72159 0.0
N216 N 0.5662 0.64724 0.77551 0.0
C217 C 0.53379 0.62838 0.70054 0.0
H218 H 0.67282 0.69236 0.84093 0.0
H219 H 0.57305 0.64005 0.60868 0.0
C220 C 0.79307 0.67133 0.64076 0.0
N221 N 0.90799 0.85629 0.75084 0.0
C222 C 0.91995 0.85636 0.68622 0.0
C223 C 0.97029 0.88398 0.80504 0.0
N224 N 0.98672 0.88136 0.69692 0.0
C225 C 1.01913 0.90022 0.77189 0.0
C226 C 0.83889 0.72084 0.8331 0.0
O227 O 0.73501 0.65351 0.6489 0.0
O228 O 0.8323 0.73225 0.67408 0.0
O229 O 0.87181 0.77392 0.82448 0.0
O230 O 0.77474 0.69459 0.79849 0.0
O231 O 0.8179 0.87509 0.82353 0.0
H232 H 0.97987 0.88854 0.86375 0.0
H233 H 0.88009 0.83624 0.6315 0.0
O234 O 0.72062 0.79634 0.79835 0.0
O235 O 0.68111 0.75468 0.64795 0.0
O236 O 0.77818 0.83401 0.67394 0.0
C237 C 0.71403 0.80776 0.63933 0.0
H238 H 0.47908 0.60539 0.67208 0.0
H239 H 0.07383 0.92321 0.80036 0.0
Cd240 Cd 0.05348 0.95613 0.5456 0.0
Cd241 Cd 0.99944 0.07247 0.42683 0.0
C242 C 0.19991 0.97171 0.61972 0.0
N243 N 0.14917 0.93467 0.55248 0.0
C244 C 0.18375 0.84117 0.54182 0.0
C245 C 0.22812 0.87432 0.61673 0.0
C246 C 0.24003 0.94149 0.65397 0.0
C247 C 0.14293 0.87262 0.51051 0.0
H248 H 0.20125 0.01997 0.65231 0.0
H249 H 0.10011 0.84421 0.4585 0.0
C250 C 0.93947 0.90912 0.37993 0.0
C251 C 0.85301 0.05689 0.35272 0.0
C252 C 0.8129 0.08712 0.31846 0.0
C253 C 0.8248 0.15428 0.35571 0.0
C254 C 0.86917 0.18743 0.43063 0.0
C255 C 0.90998 0.15597 0.46194 0.0
N256 N 0.90375 0.09392 0.41995 0.0
H257 H 0.85166 1.00864 0.3201 0.0
H258 H 0.9528 0.18439 0.51395 0.0
C259 C 1.00786 0.97283 0.28757 0.0
N260 N 0.04587 1.00913 0.36145 0.0
C261 C 0.14193 0.98412 0.34612 0.0
C262 C 0.10229 0.94244 0.27132 0.0
C263 C 0.03504 0.9379 0.24118 0.0
C264 C 0.11252 0.01785 0.39045 0.0
H265 H 0.95618 0.97079 0.26516 0.0
H266 H 0.14331 0.05249 0.44669 0.0
C267 C 0.11345 0.11948 0.5925 0.0
C268 C 1.01321 0.89255 0.64326 0.0
N269 N 1.00705 0.01948 0.61098 0.0
C270 C 0.04506 0.05577 0.68486 0.0
C271 C 1.01788 0.0907 0.73126 0.0
C272 C 0.95063 0.08616 0.70111 0.0
C273 C 0.91099 0.04448 0.62631 0.0
C274 C 0.9404 1.01076 0.58198 0.0
C275 C 0.03971 0.13605 0.32917 0.0
O276 O 0.98791 0.89651 0.41708 0.0
O277 O 0.92802 0.96173 0.40615 0.0
O278 O 0.065 0.13209 0.55536 0.0
O279 O 0.1249 0.06687 0.56627 0.0
O280 O 0.97423 0.87705 0.57569 0.0
O281 O 0.07545 0.92826 0.66093 0.0
O282 O 0.07869 0.15155 0.39675 0.0
O283 O 0.97746 0.10034 0.3115 0.0
H284 H 0.09674 0.05781 0.70727 0.0
H285 H 0.90961 0.97612 0.52574 0.0
H286 H 0.17369 0.78885 0.51257 0.0
H287 H 0.27383 0.96725 0.71206 0.0
H288 H 0.7791 0.06136 0.26038 0.0
H289 H 0.87923 0.23975 0.45989 0.0
H290 H 0.195 0.99052 0.36979 0.0
H291 H 1.0035 0.90641 0.18346 0.0
H292 H 0.04942 0.12219 0.78897 0.0
H293 H 0.85792 0.03809 0.60264 0.0
Cd294 Cd 0.46312 0.96548 0.07116 0.0
Cd295 Cd 0.5898 0.06312 0.90127 0.0
C296 C 0.61774 0.96512 0.10882 0.0
N297 N 0.55296 0.92584 0.06216 0.0
C298 C 0.59471 0.84668 -0.00183 0.0
C299 C 0.66243 0.88834 0.0442 0.0
C300 C 0.67304 0.94948 0.09767 0.0
C301 C 0.54065 0.86735 0.00704 0.0
H302 H 0.62758 1.00854 0.15597 0.0
H303 H 0.48885 0.83642 0.97047 0.0
C304 C 0.44745 0.92471 0.86816 0.0
C305 C 0.43518 0.06348 0.86362 0.0
C306 C 0.37988 0.07912 0.87477 0.0
C307 C 0.39049 0.14026 0.92825 0.0
C308 C 0.45821 0.18192 0.97427 0.0
C309 C 0.51227 0.16125 0.96539 0.0
N310 N 0.49996 0.10276 0.91028 0.0
H311 H 0.42534 0.02006 0.81647 0.0
H312 H 0.56407 0.19218 0.00196 0.0
C313 C 0.62817 0.92644 0.88032 0.0
N314 N 0.658 0.99292 0.89382 0.0
C315 C 0.76074 0.97585 0.88153 0.0
C316 C 0.72979 0.90648 0.86414 0.0
C317 C 0.66286 0.88258 0.86519 0.0
C318 C 0.72376 0.01823 0.89608 0.0
H319 H 0.57636 0.90647 0.87863 0.0
H320 H 0.74693 0.07105 0.90617 0.0
C321 C 0.60547 0.10389 0.10428 0.0
C322 C 0.38582 0.86071 0.12404 0.0
N323 N 0.39492 0.03568 0.07862 0.0
C324 C 0.42474 0.10217 0.09211 0.0
C325 C 0.39005 0.14602 0.10724 0.0
C326 C 0.32312 0.12212 0.10829 0.0
C327 C 0.29218 0.05274 0.09089 0.0
C328 C 0.32915 1.01037 0.07634 0.0
C329 C 0.6671 0.1679 0.84839 0.0
O330 O 0.46519 0.95079 0.93975 0.0
O331 O 0.4859 0.95028 0.83393 0.0
O332 O 0.58773 0.07782 0.03268 0.0
O333 O 0.56702 0.07832 0.1385 0.0
O334 O 0.36327 0.86304 0.05811 0.0
O335 O 0.44383 0.90574 0.16588 0.0
O336 O 0.68965 0.16556 0.91432 0.0
O337 O 0.60909 0.12286 0.80655 0.0
H338 H 0.47656 0.12213 0.09381 0.0
H339 H 0.30599 0.95755 0.06626 0.0
H340 H 0.58317 0.79821 0.95691 0.0
H341 H 0.7239 0.98324 0.1342 0.0
H342 H 0.32902 0.04536 0.83825 0.0
H343 H 0.46976 0.23039 0.01553 0.0
H344 H 0.81152 0.99675 0.87994 0.0
H345 H 0.63576 0.82956 0.85083 0.0
H346 H 0.41715 0.19904 0.12161 0.0
H347 H 0.2414 0.03184 0.09249 0.0
Cd348 Cd 1.00697 0.4745 0.08051 0.0
Cd349 Cd 0.04595 0.5541 0.89193 0.0
C350 C 0.16015 0.45467 0.12693 0.0
N351 N 0.09457 0.4236 0.07755 0.0
C352 C 0.1105 0.31716 0.05341 0.0
C353 C 0.17668 0.34766 0.10727 0.0
C354 C 0.20229 0.41789 0.14123 0.0
C355 C 0.07089 0.35628 0.03826 0.0
H356 H 0.17909 0.50713 0.1605 0.0
H357 H 1.01873 0.33158 -0.00012 0.0
C358 C 0.92322 0.43009 0.87735 0.0
C359 C 0.89278 0.57393 0.84549 0.0
C360 C 0.85063 0.61071 0.83119 0.0
C361 C 0.87624 0.68095 0.86517 0.0
C362 C 0.94241 0.71144 0.91903 0.0
C363 C 0.98203 0.67232 0.93418 0.0
N364 N 0.95835 0.60499 0.89488 0.0
H365 H 0.87383 0.52148 0.8119 0.0
H366 H 0.03419 0.69702 0.97256 0.0
C367 C 0.14107 0.48434 0.80438 0.0
N368 N 0.10229 0.47406 0.84878 0.0
C369 C 0.13105 0.376 0.85329 0.0
C370 C 0.17073 0.38492 0.80662 0.0
C371 C 0.17486 0.44029 0.78232 0.0
C372 C 0.0972 0.42075 0.87329 0.0
H373 H 0.14667 0.52743 0.78668 0.0
H374 H 0.06724 0.41298 0.90933 0.0
C375 C 0.12969 0.59851 0.09508 0.0
C376 C 0.95267 0.35856 0.11083 0.0
N377 N 0.95063 0.55454 0.12365 0.0
C378 C 0.91185 0.54427 0.16806 0.0
C379 C 0.87806 0.58831 0.19012 0.0
C380 C 0.88219 0.64368 0.16581 0.0
C381 C 0.92186 0.6526 0.11913 0.0
C382 C 0.95572 0.60785 0.09914 0.0
C383 C 0.10025 0.67005 0.86161 0.0
O384 O 0.96188 0.45578 0.9462 0.0
O385 O 0.94249 0.45495 0.83102 0.0
O386 O 0.09104 0.57282 0.02624 0.0
O387 O 0.11042 0.57365 0.14142 0.0
O388 O 0.91854 0.36922 0.05483 0.0
O389 O 1.00565 0.40676 0.15894 0.0
O390 O 0.13438 0.65938 0.9176 0.0
O391 O 0.04728 0.62184 0.81349 0.0
H392 H 0.90626 0.50117 0.18576 0.0
H393 H 0.98567 0.61561 0.0631 0.0
H394 H 0.08818 0.26319 0.02615 0.0
H395 H 0.25245 0.44383 0.18423 0.0
H396 H 0.80048 0.58478 0.78817 0.0
H397 H 0.96473 0.7654 0.9463 0.0
H398 H 0.12587 0.3346 0.87412 0.0
H399 H 0.20527 0.45029 0.74738 0.0
H400 H 0.84766 0.57831 0.22506 0.0
H401 H 0.92704 0.69399 0.0983 0.0
Cd402 Cd 0.55348 0.45613 0.0456 0.0
Cd403 Cd 0.49944 0.57247 0.92683 0.0
C404 C 0.69991 0.47171 0.11972 0.0
N405 N 0.64917 0.43467 0.05248 0.0
C406 C 0.68375 0.34117 0.04182 0.0
C407 C 0.72812 0.37432 0.11673 0.0
C408 C 0.74003 0.44149 0.15397 0.0
C409 C 0.64293 0.37262 0.01051 0.0
H410 H 0.70125 0.51997 0.15231 0.0
H411 H 0.60011 0.34421 0.9585 0.0
C412 C 0.43947 0.40912 0.87993 0.0
C413 C 0.35301 0.55689 0.85272 0.0
C414 C 0.3129 0.58712 0.81846 0.0
C415 C 0.3248 0.65428 0.85571 0.0
C416 C 0.36917 0.68742 0.93063 0.0
C417 C 0.40998 0.65597 0.96194 0.0
N418 N 0.40375 0.59392 0.91995 0.0
H419 H 0.35166 0.50864 0.8201 0.0
H420 H 0.4528 0.68439 0.01395 0.0
C421 C 0.50786 0.47283 0.78757 0.0
N422 N 0.54587 0.50913 0.86145 0.0
C423 C 0.64193 0.48412 0.84612 0.0
C424 C 0.60229 0.44244 0.77132 0.0
C425 C 0.53504 0.4379 0.74117 0.0
C426 C 0.61252 0.51785 0.89045 0.0
H427 H 0.45618 0.47079 0.76516 0.0
H428 H 0.64331 0.55249 0.94669 0.0
C429 C 0.61345 0.61948 0.0925 0.0
C430 C 0.51321 0.39255 0.14326 0.0
N431 N 0.50705 0.51948 0.11098 0.0
C432 C 0.54506 0.55577 0.18486 0.0
C433 C 0.51788 0.5907 0.23126 0.0
C434 C 0.45063 0.58616 0.20111 0.0
C435 C 0.41099 0.54448 0.12631 0.0
C436 C 0.4404 0.51076 0.08197 0.0
C437 C 0.53971 0.63605 0.82917 0.0
O438 O 0.48792 0.39651 0.91708 0.0
O439 O 0.42802 0.46173 0.90615 0.0
O440 O 0.565 0.63209 0.05535 0.0
O441 O 0.6249 0.56687 0.06626 0.0
O442 O 0.47423 0.37705 0.07569 0.0
O443 O 0.57545 0.42826 0.16093 0.0
O444 O 0.57869 0.65156 0.89675 0.0
O445 O 0.47746 0.60034 0.8115 0.0
H446 H 0.59674 0.55781 0.20727 0.0
H447 H 0.40961 0.47612 0.02573 0.0
H448 H 0.67369 0.28885 0.01257 0.0
H449 H 0.77383 0.46725 0.21206 0.0
H450 H 0.27909 0.56136 0.76038 0.0
H451 H 0.37923 0.73975 0.95989 0.0
H452 H 0.695 0.49052 0.86979 0.0
H453 H 0.5035 0.40641 0.68346 0.0
H454 H 0.54942 0.62219 0.28897 0.0
H455 H 0.35792 0.53809 0.10264 0.0
Cd456 Cd 0.96312 0.46548 0.57116 0.0
Cd457 Cd 0.0898 0.56312 0.40127 0.0
C458 C 0.11774 0.46512 0.60882 0.0
N459 N 0.05296 0.42584 0.56216 0.0
C460 C 0.09471 0.34668 0.49817 0.0
C461 C 0.16243 0.38834 0.5442 0.0
C462 C 0.17304 0.44948 0.59767 0.0
C463 C 0.04065 0.36735 0.50704 0.0
H464 H 0.12758 0.50854 0.65597 0.0
H465 H 0.98885 0.33642 0.47047 0.0
C466 C 0.94745 0.42471 0.36816 0.0
C467 C 0.93518 0.56348 0.36362 0.0
C468 C 0.87988 0.57912 0.37477 0.0
C469 C 0.89049 0.64026 0.42825 0.0
C470 C 0.95821 0.68192 0.47427 0.0
C471 C 1.01227 0.66125 0.46539 0.0
N472 N 0.99996 0.60276 0.41028 0.0
H473 H 0.92534 0.52006 0.31646 0.0
H474 H 0.06407 0.69218 0.50196 0.0
C475 C 0.12817 0.42644 0.38032 0.0
N476 N 0.158 0.49292 0.39382 0.0
C477 C 0.26074 0.47585 0.38153 0.0
C478 C 0.22979 0.40648 0.36414 0.0
C479 C 0.16286 0.38258 0.36519 0.0
C480 C 0.22376 0.51823 0.39609 0.0
H481 H 0.07636 0.40647 0.37863 0.0
H482 H 0.24693 0.57105 0.40617 0.0
C483 C 0.10546 0.60389 0.60428 0.0
C484 C 0.88582 0.3607 0.62404 0.0
N485 N 0.89492 0.53568 0.57862 0.0
C486 C 0.92474 0.60217 0.59211 0.0
C487 C 0.89005 0.64602 0.60724 0.0
C488 C 0.82312 0.62212 0.60829 0.0
C489 C 0.79218 0.55274 0.59089 0.0
C490 C 0.82915 0.51037 0.57634 0.0
C491 C 0.1671 0.6679 0.34839 0.0
O492 O 0.96519 0.45079 0.43975 0.0
O493 O 0.9859 0.45028 0.33393 0.0
O494 O 0.08773 0.57782 0.53268 0.0
O495 O 0.06702 0.57832 0.6385 0.0
O496 O 0.86327 0.36304 0.55811 0.0
O497 O 0.94383 0.40574 0.66588 0.0
O498 O 0.18965 0.66556 0.41432 0.0
O499 O 0.10909 0.62286 0.30655 0.0
H500 H 0.97656 0.62213 0.59381 0.0
H501 H 0.80599 0.45755 0.56626 0.0
H502 H 0.08316 0.29821 0.45691 0.0
H503 H 0.2239 0.48324 0.6342 0.0
H504 H 0.82902 0.54536 0.33824 0.0
H505 H 0.96975 0.73039 0.51553 0.0
H506 H 0.31152 0.49675 0.37994 0.0
H507 H 0.13576 0.32956 0.35083 0.0
H508 H 0.91715 0.69904 0.6216 0.0
H509 H 0.7414 0.53184 0.59249 0.0
Cd510 Cd 0.50697 0.9745 0.58051 0.0
Cd511 Cd 0.54595 0.0541 0.39193 0.0
C512 C 0.66014 0.95467 0.62693 0.0
N513 N 0.59457 0.9236 0.57755 0.0
C514 C 0.6105 0.81716 0.55341 0.0
C515 C 0.67668 0.84766 0.60727 0.0
C516 C 0.70229 0.91789 0.64123 0.0
C517 C 0.57089 0.85628 0.53826 0.0
H518 H 0.67909 1.00713 0.6605 0.0
H519 H 0.51873 0.83158 0.49988 0.0
C520 C 0.42322 0.93009 0.37735 0.0
C521 C 0.39278 0.07393 0.34549 0.0
C522 C 0.35063 0.11071 0.33119 0.0
C523 C 0.37624 0.18095 0.36517 0.0
C524 C 0.44241 0.21144 0.41903 0.0
C525 C 0.48203 0.17232 0.43418 0.0
N526 N 0.45835 0.10499 0.39488 0.0
H527 H 0.37383 0.02148 0.3119 0.0
H528 H 0.53419 0.19702 0.47256 0.0
C529 C 0.64107 0.98434 0.30438 0.0
N530 N 0.60229 0.97406 0.34878 0.0
C531 C 0.63105 0.876 0.35329 0.0
C532 C 0.67073 0.88492 0.30662 0.0
C533 C 0.67486 0.94029 0.28232 0.0
C534 C 0.5972 0.92075 0.37328 0.0
H535 H 0.64667 0.02743 0.28668 0.0
H536 H 0.56724 0.91298 0.40932 0.0
C537 C 0.62969 0.09851 0.59508 0.0
C538 C 0.45267 0.85855 0.61083 0.0
N539 N 0.45063 0.05453 0.62365 0.0
C540 C 0.41185 0.04427 0.66806 0.0
C541 C 0.37806 0.08831 0.69012 0.0
C542 C 0.38219 0.14368 0.66581 0.0
C543 C 0.42186 0.1526 0.61913 0.0
C544 C 0.45572 0.10785 0.59914 0.0
C545 C 0.60025 0.17005 0.36161 0.0
O546 O 0.46188 0.95578 0.4462 0.0
O547 O 0.44249 0.95495 0.33102 0.0
O548 O 0.59104 0.07282 0.52624 0.0
O549 O 0.61042 0.07365 0.64142 0.0
O550 O 0.41854 0.86922 0.55483 0.0
O551 O 0.50565 0.90676 0.65894 0.0
O552 O 0.63438 0.15938 0.4176 0.0
O553 O 0.54728 0.12184 0.31349 0.0
H554 H 0.40626 1.00117 0.68576 0.0
H555 H 0.48567 0.11561 0.56309 0.0
H556 H 0.58818 0.7632 0.52615 0.0
H557 H 0.75245 0.94383 0.68424 0.0
H558 H 0.30048 0.08478 0.28818 0.0
H559 H 0.46473 0.2654 0.4463 0.0
H560 H 0.62587 0.8346 0.37411 0.0
H561 H 0.70527 0.9503 0.24739 0.0
H562 H 0.34766 0.07831 0.72506 0.0
H563 H 0.42704 0.19399 0.5983 0.0
loop_
_geom_bond_atom_site_label_1
_geom_bond_atom_site_label_2
_geom_bond_distance
_geom_bond_site_symmetry_2
_ccdc_geom_bond_type
Co0 N5 2.057 . S
Co0 O17 2.021 . S
Co0 O20 2.062 . S
Co0 O24 2.117 . S
Co0 O25 2.020 . S
C1 O21 1.259 . S
C1 O24 1.258 . S
Co2 N11 2.057 . S
Co2 O18 2.117 . S
Co2 O19 2.020 . S
Co2 O21 2.021 . S
Co2 O26 2.062 . S
C3 N5 1.316 . S
C3 N6 1.347 . S
C3 H8 0.931 . S
C4 N5 1.375 . S
C4 C7 1.350 . S
C4 H9 0.930 . S
N5 Co0 2.057 . S
N5 C3 1.316 . S
N5 C4 1.375 . S
N6 C3 1.347 . S
N6 C7 1.373 . S
C7 C4 1.350 . S
C7 N6 1.373 . S
C7 H28 0.931 . S
H8 C3 0.931 . S
H9 C4 0.930 . S
C10 O17 1.259 . S
C10 O18 1.258 . S
N11 Co2 2.057 . S
N11 C12 1.316 . S
N11 C13 1.375 . S
C12 N11 1.316 . S
C12 N14 1.347 . S
C12 H23 0.931 . S
C13 N11 1.375 . S
C13 C15 1.350 . S
C13 H22 0.930 . S
N14 C12 1.347 . S
N14 C15 1.373 . S
C15 C13 1.350 . S
C15 N14 1.373 . S
C15 H29 0.931 . S
C16 O19 1.256 . S
C16 O20 1.255 . S
O17 Co0 2.021 . S
O17 C10 1.259 . S
O18 Co2 2.117 . S
O18 C10 1.258 . S
O19 Co2 2.020 . S
O19 C16 1.256 . S
O20 Co0 2.062 . S
O20 C16 1.255 . S
O21 C1 1.259 . S
O21 Co2 2.021 . S
H22 C13 0.930 . S
H23 C12 0.931 . S
O24 Co0 2.117 . S
O24 C1 1.258 . S
O25 Co0 2.020 . S
O25 C27 1.256 . S
O26 Co2 2.062 . S
O26 C27 1.255 . S
C27 O25 1.256 . S
C27 O26 1.255 . S
H28 C7 0.931 . S
H29 C15 0.931 . S
Co30 N35 2.057 . S
Co30 O47 2.021 . S
Co30 O50 2.062 . S
Co30 O54 2.117 . S
Co30 O55 2.020 . S
C31 O51 1.259 . S
C31 O54 1.258 . S
Co32 N41 2.057 . S
Co32 O48 2.117 . S
Co32 O49 2.020 . S
Co32 O51 2.021 . S
Co32 O56 2.062 . S
C33 N35 1.316 . S
C33 N36 1.347 . S
C33 H38 0.931 . S
C34 N35 1.375 . S
C34 C37 1.350 . S
C34 H39 0.930 . S
N35 Co30 2.057 . S
N35 C33 1.316 . S
N35 C34 1.375 . S
N36 C33 1.347 . S
N36 C37 1.373 . S
C37 C34 1.350 . S
C37 N36 1.373 . S
C37 H58 0.931 . S
H38 C33 0.931 . S
H39 C34 0.930 . S
C40 O47 1.259 . S
C40 O48 1.258 . S
N41 Co32 2.057 . S
N41 C42 1.316 . S
N41 C43 1.375 . S
C42 N41 1.316 . S
C42 N44 1.347 . S
C42 H53 0.931 . S
C43 N41 1.375 . S
C43 C45 1.350 . S
C43 H52 0.930 . S
N44 C42 1.347 . S
N44 C45 1.373 . S
C45 C43 1.350 . S
C45 N44 1.373 . S
C45 H59 0.931 . S
C46 O49 1.256 . S
C46 O50 1.255 . S
O47 Co30 2.021 . S
O47 C40 1.259 . S
O48 Co32 2.117 . S
O48 C40 1.258 . S
O49 Co32 2.020 . S
O49 C46 1.256 . S
O50 Co30 2.062 . S
O50 C46 1.255 . S
O51 C31 1.259 . S
O51 Co32 2.021 . S
H52 C43 0.930 . S
H53 C42 0.931 . S
O54 Co30 2.117 . S
O54 C31 1.258 . S
O55 Co30 2.020 . S
O55 C57 1.256 . S
O56 Co32 2.062 . S
O56 C57 1.255 . S
C57 O55 1.256 . S
C57 O56 1.255 . S
H58 C37 0.931 . S
H59 C45 0.931 . S
Co60 N65 2.057 . S
Co60 O77 2.021 . S
Co60 O80 2.062 . S
Co60 O84 2.117 . S
Co60 O85 2.020 . S
C61 O81 1.259 . S
C61 O84 1.258 . S
Co62 N71 2.057 . S
Co62 O78 2.117 . S
Co62 O79 2.020 . S
Co62 O81 2.021 . S
Co62 O86 2.062 . S
C63 N65 1.316 . S
C63 N66 1.347 . S
C63 H68 0.931 . S
C64 N65 1.375 . S
C64 C67 1.350 . S
C64 H69 0.930 . S
N65 Co60 2.057 . S
N65 C63 1.316 . S
N65 C64 1.375 . S
N66 C63 1.347 . S
N66 C67 1.373 . S
C67 C64 1.350 . S
C67 N66 1.373 . S
C67 H88 0.931 . S
H68 C63 0.931 . S
H69 C64 0.930 . S
C70 O77 1.259 . S
C70 O78 1.258 . S
N71 Co62 2.057 . S
N71 C72 1.316 . S
N71 C73 1.375 . S
C72 N71 1.316 . S
C72 N74 1.347 . S
C72 H83 0.931 . S
C73 N71 1.375 . S
C73 C75 1.350 . S
C73 H82 0.930 . S
N74 C72 1.347 . S
N74 C75 1.373 . S
C75 C73 1.350 . S
C75 N74 1.373 . S
C75 H89 0.931 1_554 S
C76 O79 1.256 . S
C76 O80 1.255 . S
O77 Co60 2.021 . S
O77 C70 1.259 . S
O78 Co62 2.117 . S
O78 C70 1.258 . S
O79 Co62 2.020 . S
O79 C76 1.256 . S
O80 Co60 2.062 . S
O80 C76 1.255 . S
O81 C61 1.259 . S
O81 Co62 2.021 . S
H82 C73 0.930 . S
H83 C72 0.931 . S
O84 Co60 2.117 . S
O84 C61 1.258 . S
O85 Co60 2.020 . S
O85 C87 1.256 . S
O86 Co62 2.062 . S
O86 C87 1.255 . S
C87 O85 1.256 . S
C87 O86 1.255 . S
H88 C67 0.931 . S
H89 C75 0.931 1_556 S
Co90 N95 2.057 . S
Co90 O107 2.021 . S
Co90 O110 2.062 . S
Co90 O114 2.117 . S
Co90 O115 2.020 . S
C91 O111 1.259 . S
C91 O114 1.258 . S
Co92 N101 2.057 . S
Co92 O108 2.117 . S
Co92 O109 2.020 . S
Co92 O111 2.021 . S
Co92 O116 2.062 . S
C93 N95 1.316 . S
C93 N96 1.347 . S
C93 H98 0.931 . S
C94 N95 1.375 . S
C94 C97 1.350 . S
C94 H99 0.930 . S
N95 Co90 2.057 . S
N95 C93 1.316 . S
N95 C94 1.375 . S
N96 C93 1.347 . S
N96 C97 1.373 . S
C97 C94 1.350 . S
C97 N96 1.373 . S
C97 H118 0.931 . S
H98 C93 0.931 . S
H99 C94 0.930 . S
C100 O107 1.259 . S
C100 O108 1.258 . S
N101 Co92 2.057 . S
N101 C102 1.316 . S
N101 C103 1.375 . S
C102 N101 1.316 . S
C102 N104 1.347 . S
C102 H113 0.931 . S
C103 N101 1.375 . S
C103 C105 1.350 . S
C103 H112 0.930 . S
N104 C102 1.347 . S
N104 C105 1.373 . S
C105 C103 1.350 . S
C105 N104 1.373 . S
C105 H119 0.931 . S
C106 O109 1.256 . S
C106 O110 1.255 . S
O107 Co90 2.021 . S
O107 C100 1.259 . S
O108 Co92 2.117 . S
O108 C100 1.258 . S
O109 Co92 2.020 . S
O109 C106 1.256 . S
O110 Co90 2.062 . S
O110 C106 1.255 . S
O111 C91 1.259 . S
O111 Co92 2.021 . S
H112 C103 0.930 . S
H113 C102 0.931 . S
O114 Co90 2.117 . S
O114 C91 1.258 . S
O115 Co90 2.020 . S
O115 C117 1.256 . S
O116 Co92 2.062 . S
O116 C117 1.255 . S
C117 O115 1.256 . S
C117 O116 1.255 . S
H118 C97 0.931 . S
H119 C105 0.931 . S
Co120 N125 2.057 . S
Co120 O137 2.021 . S
Co120 O140 2.062 . S
Co120 O144 2.117 . S
Co120 O145 2.020 . S
C121 O141 1.259 . S
C121 O144 1.258 . S
Co122 N131 2.057 . S
Co122 O138 2.117 . S
Co122 O139 2.020 . S
Co122 O141 2.021 . S
Co122 O146 2.062 . S
C123 N125 1.316 . S
C123 N126 1.347 . S
C123 H128 0.931 . S
C124 N125 1.375 . S
C124 C127 1.350 . S
C124 H129 0.930 . S
N125 Co120 2.057 . S
N125 C123 1.316 . S
N125 C124 1.375 . S
N126 C123 1.347 . S
N126 C127 1.373 . S
C127 C124 1.350 . S
C127 N126 1.373 . S
C127 H148 0.931 . S
H128 C123 0.931 . S
H129 C124 0.930 . S
C130 O137 1.259 . S
C130 O138 1.258 . S
N131 Co122 2.057 . S
N131 C132 1.316 . S
N131 C133 1.375 . S
C132 N131 1.316 . S
C132 N134 1.347 . S
C132 H143 0.931 . S
C133 N131 1.375 . S
C133 C135 1.350 . S
C133 H142 0.930 . S
N134 C132 1.347 . S
N134 C135 1.373 . S
C135 C133 1.350 . S
C135 N134 1.373 . S
C135 H149 0.931 . S
C136 O139 1.256 . S
C136 O140 1.255 . S
O137 Co120 2.021 . S
O137 C130 1.259 . S
O138 Co122 2.117 . S
O138 C130 1.258 . S
O139 Co122 2.020 . S
O139 C136 1.256 . S
O140 Co120 2.062 . S
O140 C136 1.255 . S
O141 C121 1.259 . S
O141 Co122 2.021 . S
H142 C133 0.930 . S
H143 C132 0.931 . S
O144 Co120 2.117 . S
O144 C121 1.258 . S
O145 Co120 2.020 . S
O145 C147 1.256 . S
O146 Co122 2.062 . S
O146 C147 1.255 . S
C147 O145 1.256 . S
C147 O146 1.255 . S
H148 C127 0.931 . S
H149 C135 0.931 . S
Co150 N155 2.057 . S
Co150 O167 2.021 . S
Co150 O170 2.062 . S
Co150 O174 2.117 . S
Co150 O175 2.020 . S
C151 O171 1.259 . S
C151 O174 1.258 . S
Co152 N161 2.057 . S
Co152 O168 2.117 . S
Co152 O169 2.020 . S
Co152 O171 2.021 . S
Co152 O176 2.062 . S
C153 N155 1.316 . S
C153 N156 1.347 . S
C153 H158 0.931 . S
C154 N155 1.375 . S
C154 C157 1.350 . S
C154 H159 0.930 . S
N155 Co150 2.057 . S
N155 C153 1.316 . S
N155 C154 1.375 . S
N156 C153 1.347 . S
N156 C157 1.373 . S
C157 C154 1.350 . S
C157 N156 1.373 . S
C157 H178 0.931 1_556 S
H158 C153 0.931 . S
H159 C154 0.930 . S
C160 O167 1.259 . S
C160 O168 1.258 . S
N161 Co152 2.057 . S
N161 C162 1.316 . S
N161 C163 1.375 . S
C162 N161 1.316 . S
C162 N164 1.347 . S
C162 H173 0.931 . S
C163 N161 1.375 . S
C163 C165 1.350 . S
C163 H172 0.930 . S
N164 C162 1.347 . S
N164 C165 1.373 . S
C165 C163 1.350 . S
C165 N164 1.373 . S
C165 H179 0.931 . S
C166 O169 1.256 . S
C166 O170 1.255 . S
O167 Co150 2.021 . S
O167 C160 1.259 . S
O168 Co152 2.117 . S
O168 C160 1.258 . S
O169 Co152 2.020 . S
O169 C166 1.256 . S
O170 Co150 2.062 . S
O170 C166 1.255 . S
O171 C151 1.259 . S
O171 Co152 2.021 . S
H172 C163 0.930 . S
H173 C162 0.931 . S
O174 Co150 2.117 . S
O174 C151 1.258 . S
O175 Co150 2.020 . S
O175 C177 1.256 . S
O176 Co152 2.062 . S
O176 C177 1.255 . S
C177 O175 1.256 . S
C177 O176 1.255 . S
H178 C157 0.931 1_554 S
H179 C165 0.931 . S
Co180 N185 2.057 . S
Co180 O197 2.021 . S
Co180 O200 2.062 . S
Co180 O204 2.117 . S
Co180 O205 2.020 . S
C181 O201 1.259 . S
C181 O204 1.258 . S
Co182 N191 2.057 . S
Co182 O198 2.117 . S
Co182 O199 2.020 . S
Co182 O201 2.021 . S
Co182 O206 2.062 . S
C183 N185 1.316 . S
C183 N186 1.347 . S
C183 H188 0.931 . S
C184 N185 1.375 . S
C184 C187 1.350 . S
C184 H189 0.930 . S
N185 Co180 2.057 . S
N185 C183 1.316 . S
N185 C184 1.375 . S
N186 C183 1.347 . S
N186 C187 1.373 . S
C187 C184 1.350 . S
C187 N186 1.373 . S
C187 H208 0.931 . S
H188 C183 0.931 . S
H189 C184 0.930 . S
C190 O197 1.259 . S
C190 O198 1.258 . S
N191 Co182 2.057 . S
N191 C192 1.316 . S
N191 C193 1.375 . S
C192 N191 1.316 . S
C192 N194 1.347 . S
C192 H203 0.931 . S
C193 N191 1.375 . S
C193 C195 1.350 . S
C193 H202 0.930 . S
N194 C192 1.347 . S
N194 C195 1.373 . S
C195 C193 1.350 . S
C195 N194 1.373 . S
C195 H209 0.931 . S
C196 O199 1.256 . S
C196 O200 1.255 . S
O197 Co180 2.021 . S
O197 C190 1.259 . S
O198 Co182 2.117 . S
O198 C190 1.258 . S
O199 Co182 2.020 . S
O199 C196 1.256 . S
O200 Co180 2.062 . S
O200 C196 1.255 . S
O201 C181 1.259 . S
O201 Co182 2.021 . S
H202 C193 0.930 . S
H203 C192 0.931 . S
O204 Co180 2.117 . S
O204 C181 1.258 . S
O205 Co180 2.020 . S
O205 C207 1.256 . S
O206 Co182 2.062 . S
O206 C207 1.255 . S
C207 O205 1.256 . S
C207 O206 1.255 . S
H208 C187 0.931 . S
H209 C195 0.931 . S
Co210 N215 2.057 . S
Co210 O227 2.021 . S
Co210 O230 2.062 . S
Co210 O234 2.117 . S
Co210 O235 2.020 . S
C211 O231 1.259 . S
C211 O234 1.258 . S
Co212 N221 2.057 . S
Co212 O228 2.117 . S
Co212 O229 2.020 . S
Co212 O231 2.021 . S
Co212 O236 2.062 . S
C213 N215 1.316 . S
C213 N216 1.347 . S
C213 H218 0.931 . S
C214 N215 1.375 . S
C214 C217 1.350 . S
C214 H219 0.930 . S
N215 Co210 2.057 . S
N215 C213 1.316 . S
N215 C214 1.375 . S
N216 C213 1.347 . S
N216 C217 1.373 . S
C217 C214 1.350 . S
C217 N216 1.373 . S
C217 H238 0.931 . S
H218 C213 0.931 . S
H219 C214 0.930 . S
C220 O227 1.259 . S
C220 O228 1.258 . S
N221 Co212 2.057 . S
N221 C222 1.316 . S
N221 C223 1.375 . S
C222 N221 1.316 . S
C222 N224 1.347 . S
C222 H233 0.931 . S
C223 N221 1.375 . S
C223 C225 1.350 . S
C223 H232 0.930 . S
N224 C222 1.347 . S
N224 C225 1.373 . S
C225 C223 1.350 . S
C225 N224 1.373 . S
C225 H239 0.931 . S
C226 O229 1.256 . S
C226 O230 1.255 . S
O227 Co210 2.021 . S
O227 C220 1.259 . S
O228 Co212 2.117 . S
O228 C220 1.258 . S
O229 Co212 2.020 . S
O229 C226 1.256 . S
O230 Co210 2.062 . S
O230 C226 1.255 . S
O231 C211 1.259 . S
O231 Co212 2.021 . S
H232 C223 0.930 . S
H233 C222 0.931 . S
O234 Co210 2.117 . S
O234 C211 1.258 . S
O235 Co210 2.020 . S
O235 C237 1.256 . S
O236 Co212 2.062 . S
O236 C237 1.255 . S
C237 O235 1.256 . S
C237 O236 1.255 . S
H238 C217 0.931 . S
H239 C225 0.931 . S
Cd240 N243 2.334 1_655 S
Cd240 N269 2.304 1_565 S
Cd240 O276 2.268 . S
Cd240 O279 2.273 1_665 S
Cd240 O280 2.417 . S
Cd240 O281 2.330 . S
Cd241 N256 2.304 1_455 S
Cd241 N260 2.334 1_545 S
Cd241 O277 2.273 1_445 S
Cd241 O278 2.268 . S
Cd241 O282 2.417 . S
Cd241 O283 2.330 . S
C242 N243 1.332 . S
C242 C246 1.381 . S
C242 H248 0.931 . S
N243 Cd240 2.334 1_455 S
N243 C242 1.332 . S
N243 C247 1.328 . S
C244 C245 1.396 . S
C244 C247 1.378 . S
C244 H286 0.931 . S
C245 C244 1.396 . S
C245 C246 1.382 . S
C246 C242 1.381 . S
C246 C245 1.382 . S
C246 H287 0.930 . S
C247 N243 1.328 . S
C247 C244 1.378 . S
C247 H249 0.930 1_455 S
H248 C242 0.931 . S
H249 C247 0.930 1_655 S
C250 O276 1.238 . S
C250 O277 1.253 . S
C251 C252 1.379 . S
C251 N256 1.337 . S
C251 H257 0.929 . S
C252 C251 1.379 . S
C252 C253 1.380 . S
C252 H288 0.929 . S
C253 C252 1.380 . S
C253 C254 1.399 . S
C254 C253 1.399 . S
C254 C255 1.376 . S
C254 H289 0.931 . S
C255 C254 1.376 . S
C255 N256 1.338 . S
C255 H258 0.930 1_655 S
N256 Cd241 2.304 1_655 S
N256 C251 1.337 . S
N256 C255 1.338 . S
H257 C251 0.929 . S
H258 C255 0.930 1_455 S
C259 N260 1.332 . S
C259 C263 1.381 . S
C259 H265 0.931 . S
N260 Cd241 2.334 1_565 S
N260 C259 1.332 . S
N260 C264 1.328 . S
C261 C262 1.396 . S
C261 C264 1.378 . S
C261 H290 0.931 . S
C262 C261 1.396 . S
C262 C263 1.382 . S
C263 C259 1.381 . S
C263 C262 1.382 . S
C263 H291 0.930 . S
C264 N260 1.328 . S
C264 C261 1.378 . S
C264 H266 0.930 1_565 S
H265 C259 0.931 . S
H266 C264 0.930 1_545 S
C267 O278 1.238 . S
C267 O279 1.253 . S
C268 O280 1.239 . S
C268 O281 1.230 . S
N269 Cd240 2.304 1_545 S
N269 C270 1.337 . S
N269 C274 1.338 . S
C270 N269 1.337 . S
C270 C271 1.379 . S
C270 H284 0.929 . S
C271 C270 1.379 . S
C271 C272 1.380 . S
C271 H292 0.929 . S
C272 C271 1.380 . S
C272 C273 1.399 . S
C273 C272 1.399 . S
C273 C274 1.376 . S
C273 H293 0.931 . S
C274 N269 1.338 . S
C274 C273 1.376 . S
C274 H285 0.930 1_545 S
C275 O282 1.239 . S
C275 O283 1.230 . S
O276 Cd240 2.268 . S
O276 C250 1.238 . S
O277 Cd241 2.273 1_665 S
O277 C250 1.253 . S
O278 Cd241 2.268 . S
O278 C267 1.238 . S
O279 Cd240 2.273 1_445 S
O279 C267 1.253 . S
O280 Cd240 2.417 . S
O280 C268 1.239 . S
O281 Cd240 2.330 . S
O281 C268 1.230 . S
O282 Cd241 2.417 . S
O282 C275 1.239 . S
O283 Cd241 2.330 . S
O283 C275 1.230 . S
H284 C270 0.929 . S
H285 C274 0.930 1_565 S
H286 C244 0.931 . S
H287 C246 0.930 . S
H288 C252 0.929 . S
H289 C254 0.931 . S
H290 C261 0.931 . S
H291 C263 0.930 . S
H292 C271 0.929 . S
H293 C273 0.931 . S
Cd294 N297 2.334 . S
Cd294 N323 2.304 1_565 S
Cd294 O330 2.268 1_554 S
Cd294 O333 2.273 1_565 S
Cd294 O334 2.417 . S
Cd294 O335 2.330 . S
Cd295 N310 2.304 . S
Cd295 N314 2.334 1_545 S
Cd295 O331 2.273 1_545 S
Cd295 O332 2.268 1_556 S
Cd295 O336 2.417 . S
Cd295 O337 2.330 . S
C296 N297 1.332 . S
C296 C300 1.381 . S
C296 H302 0.931 . S
N297 Cd294 2.334 . S
N297 C296 1.332 . S
N297 C301 1.328 . S
C298 C299 1.396 . S
C298 C301 1.378 . S
C298 H340 0.931 1_554 S
C299 C298 1.396 . S
C299 C300 1.382 . S
C300 C296 1.381 . S
C300 C299 1.382 . S
C300 H341 0.930 . S
C301 N297 1.328 . S
C301 C298 1.378 . S
C301 H303 0.930 1_554 S
H302 C296 0.931 . S
H303 C301 0.930 1_556 S
C304 O330 1.238 . S
C304 O331 1.253 . S
C305 C306 1.379 . S
C305 N310 1.337 . S
C305 H311 0.929 . S
C306 C305 1.379 . S
C306 C307 1.380 . S
C306 H342 0.929 . S
C307 C306 1.380 . S
C307 C308 1.399 . S
C308 C307 1.399 . S
C308 C309 1.376 . S
C308 H343 0.931 1_556 S
C309 C308 1.376 . S
C309 N310 1.338 . S
C309 H312 0.930 1_556 S
N310 Cd295 2.304 . S
N310 C305 1.337 . S
N310 C309 1.338 . S
H311 C305 0.929 . S
H312 C309 0.930 1_554 S
C313 N314 1.332 . S
C313 C317 1.381 . S
C313 H319 0.931 . S
N314 Cd295 2.334 1_565 S
N314 C313 1.332 . S
N314 C318 1.328 . S
C315 C316 1.396 . S
C315 C318 1.378 . S
C315 H344 0.931 1_556 S
C316 C315 1.396 . S
C316 C317 1.382 . S
C317 C313 1.381 . S
C317 C316 1.382 . S
C317 H345 0.930 . S
C318 N314 1.328 . S
C318 C315 1.378 . S
C318 H320 0.930 1_566 S
H319 C313 0.931 . S
H320 C318 0.930 1_544 S
C321 O332 1.238 . S
C321 O333 1.253 . S
C322 O334 1.239 . S
C322 O335 1.230 . S
N323 Cd294 2.304 1_545 S
N323 C324 1.337 . S
N323 C328 1.338 . S
C324 N323 1.337 . S
C324 C325 1.379 . S
C324 H338 0.929 . S
C325 C324 1.379 . S
C325 C326 1.380 . S
C325 H346 0.929 . S
C326 C325 1.380 . S
C326 C327 1.399 . S
C327 C326 1.399 . S
C327 C328 1.376 . S
C327 H347 0.931 1_554 S
C328 N323 1.338 . S
C328 C327 1.376 . S
C328 H339 0.930 1_544 S
C329 O336 1.239 . S
C329 O337 1.230 . S
O330 Cd294 2.268 1_556 S
O330 C304 1.238 . S
O331 Cd295 2.273 1_565 S
O331 C304 1.253 . S
O332 Cd295 2.268 1_554 S
O332 C321 1.238 . S
O333 Cd294 2.273 1_545 S
O333 C321 1.253 . S
O334 Cd294 2.417 . S
O334 C322 1.239 . S
O335 Cd294 2.330 . S
O335 C322 1.230 . S
O336 Cd295 2.417 . S
O336 C329 1.239 . S
O337 Cd295 2.330 . S
O337 C329 1.230 . S
H338 C324 0.929 . S
H339 C328 0.930 1_566 S
H340 C298 0.931 1_556 S
H341 C300 0.930 . S
H342 C306 0.929 . S
H343 C308 0.931 1_554 S
H344 C315 0.931 1_554 S
H345 C317 0.930 . S
H346 C325 0.929 . S
H347 C327 0.931 1_556 S
Cd348 N351 2.334 1_655 S
Cd348 N377 2.304 . S
Cd348 O384 2.268 1_554 S
Cd348 O387 2.273 1_655 S
Cd348 O388 2.417 . S
Cd348 O389 2.330 . S
Cd349 N364 2.304 1_455 S
Cd349 N368 2.334 . S
Cd349 O385 2.273 1_455 S
Cd349 O386 2.268 1_556 S
Cd349 O390 2.417 . S
Cd349 O391 2.330 . S
C350 N351 1.332 . S
C350 C354 1.381 . S
C350 H356 0.931 . S
N351 Cd348 2.334 1_455 S
N351 C350 1.332 . S
N351 C355 1.328 . S
C352 C353 1.396 . S
C352 C355 1.378 . S
C352 H394 0.931 1_554 S
C353 C352 1.396 . S
C353 C354 1.382 . S
C354 C350 1.381 . S
C354 C353 1.382 . S
C354 H395 0.930 . S
C355 N351 1.328 . S
C355 C352 1.378 . S
C355 H357 0.930 1_454 S
H356 C350 0.931 . S
H357 C355 0.930 1_656 S
C358 O384 1.238 . S
C358 O385 1.253 . S
C359 C360 1.379 . S
C359 N364 1.337 . S
C359 H365 0.929 . S
C360 C359 1.379 . S
C360 C361 1.380 . S
C360 H396 0.929 . S
C361 C360 1.380 . S
C361 C362 1.399 . S
C362 C361 1.399 . S
C362 C363 1.376 . S
C362 H397 0.931 1_556 S
C363 C362 1.376 . S
C363 N364 1.338 . S
C363 H366 0.930 1_656 S
N364 Cd349 2.304 1_655 S
N364 C359 1.337 . S
N364 C363 1.338 . S
H365 C359 0.929 . S
H366 C363 0.930 1_454 S
C367 N368 1.332 . S
C367 C371 1.381 . S
C367 H373 0.931 . S
N368 Cd349 2.334 . S
N368 C367 1.332 . S
N368 C372 1.328 . S
C369 C370 1.396 . S
C369 C372 1.378 . S
C369 H398 0.931 1_556 S
C370 C369 1.396 . S
C370 C371 1.382 . S
C371 C367 1.381 . S
C371 C370 1.382 . S
C371 H399 0.930 . S
C372 N368 1.328 . S
C372 C369 1.378 . S
C372 H374 0.930 1_556 S
H373 C367 0.931 . S
H374 C372 0.930 1_554 S
C375 O386 1.238 . S
C375 O387 1.253 . S
C376 O388 1.239 . S
C376 O389 1.230 . S
N377 Cd348 2.304 . S
N377 C378 1.337 . S
N377 C382 1.338 . S
C378 N377 1.337 . S
C378 C379 1.379 . S
C378 H392 0.929 . S
C379 C378 1.379 . S
C379 C380 1.380 . S
C379 H400 0.929 . S
C380 C379 1.380 . S
C380 C381 1.399 . S
C381 C380 1.399 . S
C381 C382 1.376 . S
C381 H401 0.931 1_554 S
C382 N377 1.338 . S
C382 C381 1.376 . S
C382 H393 0.930 1_554 S
C383 O390 1.239 . S
C383 O391 1.230 . S
O384 Cd348 2.268 1_556 S
O384 C358 1.238 . S
O385 Cd349 2.273 1_655 S
O385 C358 1.253 . S
O386 Cd349 2.268 1_554 S
O386 C375 1.238 . S
O387 Cd348 2.273 1_455 S
O387 C375 1.253 . S
O388 Cd348 2.417 . S
O388 C376 1.239 . S
O389 Cd348 2.330 . S
O389 C376 1.230 . S
O390 Cd349 2.417 . S
O390 C383 1.239 . S
O391 Cd349 2.330 . S
O391 C383 1.230 . S
H392 C378 0.929 . S
H393 C382 0.930 1_556 S
H394 C352 0.931 1_556 S
H395 C354 0.930 . S
H396 C360 0.929 . S
H397 C362 0.931 1_554 S
H398 C369 0.931 1_554 S
H399 C371 0.930 . S
H400 C379 0.929 . S
H401 C381 0.931 1_556 S
Cd402 N405 2.334 . S
Cd402 N431 2.304 . S
Cd402 O438 2.268 1_554 S
Cd402 O441 2.273 . S
Cd402 O442 2.417 . S
Cd402 O443 2.330 . S
Cd403 N418 2.304 . S
Cd403 N422 2.334 . S
Cd403 O439 2.273 . S
Cd403 O440 2.268 1_556 S
Cd403 O444 2.417 . S
Cd403 O445 2.330 . S
C404 N405 1.332 . S
C404 C408 1.381 . S
C404 H410 0.931 . S
N405 Cd402 2.334 . S
N405 C404 1.332 . S
N405 C409 1.328 . S
C406 C407 1.396 . S
C406 C409 1.378 . S
C406 H448 0.931 1_554 S
C407 C406 1.396 . S
C407 C408 1.382 . S
C408 C404 1.381 . S
C408 C407 1.382 . S
C408 H449 0.930 . S
C409 N405 1.328 . S
C409 C406 1.378 . S
C409 H411 0.930 1_554 S
H410 C404 0.931 . S
H411 C409 0.930 1_556 S
C412 O438 1.238 . S
C412 O439 1.253 . S
C413 C414 1.379 . S
C413 N418 1.337 . S
C413 H419 0.929 . S
C414 C413 1.379 . S
C414 C415 1.380 . S
C414 H450 0.929 . S
C415 C414 1.380 . S
C415 C416 1.399 . S
C416 C415 1.399 . S
C416 C417 1.376 . S
C416 H451 0.931 1_556 S
C417 C416 1.376 . S
C417 N418 1.338 . S
C417 H420 0.930 1_556 S
N418 Cd403 2.304 . S
N418 C413 1.337 . S
N418 C417 1.338 . S
H419 C413 0.929 . S
H420 C417 0.930 1_554 S
C421 N422 1.332 . S
C421 C425 1.381 . S
C421 H427 0.931 . S
N422 Cd403 2.334 . S
N422 C421 1.332 . S
N422 C426 1.328 . S
C423 C424 1.396 . S
C423 C426 1.378 . S
C423 H452 0.931 1_556 S
C424 C423 1.396 . S
C424 C425 1.382 . S
C425 C421 1.381 . S
C425 C424 1.382 . S
C425 H453 0.930 . S
C426 N422 1.328 . S
C426 C423 1.378 . S
C426 H428 0.930 1_556 S
H427 C421 0.931 . S
H428 C426 0.930 1_554 S
C429 O440 1.238 . S
C429 O441 1.253 . S
C430 O442 1.239 . S
C430 O443 1.230 . S
N431 Cd402 2.304 . S
N431 C432 1.337 . S
N431 C436 1.338 . S
C432 N431 1.337 . S
C432 C433 1.379 . S
C432 H446 0.929 . S
C433 C432 1.379 . S
C433 C434 1.380 . S
C433 H454 0.929 . S
C434 C433 1.380 . S
C434 C435 1.399 . S
C435 C434 1.399 . S
C435 C436 1.376 . S
C435 H455 0.931 1_554 S
C436 N431 1.338 . S
C436 C435 1.376 . S
C436 H447 0.930 1_554 S
C437 O444 1.239 . S
C437 O445 1.230 . S
O438 Cd402 2.268 1_556 S
O438 C412 1.238 . S
O439 Cd403 2.273 . S
O439 C412 1.253 . S
O440 Cd403 2.268 1_554 S
O440 C429 1.238 . S
O441 Cd402 2.273 . S
O441 C429 1.253 . S
O442 Cd402 2.417 . S
O442 C430 1.239 . S
O443 Cd402 2.330 . S
O443 C430 1.230 . S
O444 Cd403 2.417 . S
O444 C437 1.239 . S
O445 Cd403 2.330 . S
O445 C437 1.230 . S
H446 C432 0.929 . S
H447 C436 0.930 1_556 S
H448 C406 0.931 1_556 S
H449 C408 0.930 . S
H450 C414 0.929 . S
H451 C416 0.931 1_554 S
H452 C423 0.931 1_554 S
H453 C425 0.930 . S
H454 C433 0.929 . S
H455 C435 0.931 1_556 S
Cd456 N459 2.334 1_655 S
Cd456 N485 2.304 . S
Cd456 O492 2.268 . S
Cd456 O495 2.273 1_655 S
Cd456 O496 2.417 . S
Cd456 O497 2.330 . S
Cd457 N472 2.304 1_455 S
Cd457 N476 2.334 . S
Cd457 O493 2.273 1_455 S
Cd457 O494 2.268 . S
Cd457 O498 2.417 . S
Cd457 O499 2.330 . S
C458 N459 1.332 . S
C458 C462 1.381 . S
C458 H464 0.931 . S
N459 Cd456 2.334 1_455 S
N459 C458 1.332 . S
N459 C463 1.328 . S
C460 C461 1.396 . S
C460 C463 1.378 . S
C460 H502 0.931 . S
C461 C460 1.396 . S
C461 C462 1.382 . S
C462 C458 1.381 . S
C462 C461 1.382 . S
C462 H503 0.930 . S
C463 N459 1.328 . S
C463 C460 1.378 . S
C463 H465 0.930 1_455 S
H464 C458 0.931 . S
H465 C463 0.930 1_655 S
C466 O492 1.238 . S
C466 O493 1.253 . S
C467 C468 1.379 . S
C467 N472 1.337 . S
C467 H473 0.929 . S
C468 C467 1.379 . S
C468 C469 1.380 . S
C468 H504 0.929 . S
C469 C468 1.380 . S
C469 C470 1.399 . S
C470 C469 1.399 . S
C470 C471 1.376 . S
C470 H505 0.931 . S
C471 C470 1.376 . S
C471 N472 1.338 . S
C471 H474 0.930 1_655 S
N472 Cd457 2.304 1_655 S
N472 C467 1.337 . S
N472 C471 1.338 . S
H473 C467 0.929 . S
H474 C471 0.930 1_455 S
C475 N476 1.332 . S
C475 C479 1.381 . S
C475 H481 0.931 . S
N476 Cd457 2.334 . S
N476 C475 1.332 . S
N476 C480 1.328 . S
C477 C478 1.396 . S
C477 C480 1.378 . S
C477 H506 0.931 . S
C478 C477 1.396 . S
C478 C479 1.382 . S
C479 C475 1.381 . S
C479 C478 1.382 . S
C479 H507 0.930 . S
C480 N476 1.328 . S
C480 C477 1.378 . S
C480 H482 0.930 . S
H481 C475 0.931 . S
H482 C480 0.930 . S
C483 O494 1.238 . S
C483 O495 1.253 . S
C484 O496 1.239 . S
C484 O497 1.230 . S
N485 Cd456 2.304 . S
N485 C486 1.337 . S
N485 C490 1.338 . S
C486 N485 1.337 . S
C486 C487 1.379 . S
C486 H500 0.929 . S
C487 C486 1.379 . S
C487 C488 1.380 . S
C487 H508 0.929 . S
C488 C487 1.380 . S
C488 C489 1.399 . S
C489 C488 1.399 . S
C489 C490 1.376 . S
C489 H509 0.931 . S
C490 N485 1.338 . S
C490 C489 1.376 . S
C490 H501 0.930 . S
C491 O498 1.239 . S
C491 O499 1.230 . S
O492 Cd456 2.268 . S
O492 C466 1.238 . S
O493 Cd457 2.273 1_655 S
O493 C466 1.253 . S
O494 Cd457 2.268 . S
O494 C483 1.238 . S
O495 Cd456 2.273 1_455 S
O495 C483 1.253 . S
O496 Cd456 2.417 . S
O496 C484 1.239 . S
O497 Cd456 2.330 . S
O497 C484 1.230 . S
O498 Cd457 2.417 . S
O498 C491 1.239 . S
O499 Cd457 2.330 . S
O499 C491 1.230 . S
H500 C486 0.929 . S
H501 C490 0.930 . S
H502 C460 0.931 . S
H503 C462 0.930 . S
H504 C468 0.929 . S
H505 C470 0.931 . S
H506 C477 0.931 . S
H507 C479 0.930 . S
H508 C487 0.929 . S
H509 C489 0.931 . S
Cd510 N513 2.334 . S
Cd510 N539 2.304 1_565 S
Cd510 O546 2.268 . S
Cd510 O549 2.273 1_565 S
Cd510 O550 2.417 . S
Cd510 O551 2.330 . S
Cd511 N526 2.304 . S
Cd511 N530 2.334 1_545 S
Cd511 O547 2.273 1_545 S
Cd511 O548 2.268 . S
Cd511 O552 2.417 . S
Cd511 O553 2.330 . S
C512 N513 1.332 . S
C512 C516 1.381 . S
C512 H518 0.931 . S
N513 Cd510 2.334 . S
N513 C512 1.332 . S
N513 C517 1.328 . S
C514 C515 1.396 . S
C514 C517 1.378 . S
C514 H556 0.931 . S
C515 C514 1.396 . S
C515 C516 1.382 . S
C516 C512 1.381 . S
C516 C515 1.382 . S
C516 H557 0.930 . S
C517 N513 1.328 . S
C517 C514 1.378 . S
C517 H519 0.930 . S
H518 C512 0.931 . S
H519 C517 0.930 . S
C520 O546 1.238 . S
C520 O547 1.253 . S
C521 C522 1.379 . S
C521 N526 1.337 . S
C521 H527 0.929 . S
C522 C521 1.379 . S
C522 C523 1.380 . S
C522 H558 0.929 . S
C523 C522 1.380 . S
C523 C524 1.399 . S
C524 C523 1.399 . S
C524 C525 1.376 . S
C524 H559 0.931 . S
C525 C524 1.376 . S
C525 N526 1.338 . S
C525 H528 0.930 . S
N526 Cd511 2.304 . S
N526 C521 1.337 . S
N526 C525 1.338 . S
H527 C521 0.929 . S
H528 C525 0.930 . S
C529 N530 1.332 . S
C529 C533 1.381 . S
C529 H535 0.931 . S
N530 Cd511 2.334 1_565 S
N530 C529 1.332 . S
N530 C534 1.328 . S
C531 C532 1.396 . S
C531 C534 1.378 . S
C531 H560 0.931 . S
C532 C531 1.396 . S
C532 C533 1.382 . S
C533 C529 1.381 . S
C533 C532 1.382 . S
C533 H561 0.930 . S
C534 N530 1.328 . S
C534 C531 1.378 . S
C534 H536 0.930 1_565 S
H535 C529 0.931 . S
H536 C534 0.930 1_545 S
C537 O548 1.238 . S
C537 O549 1.253 . S
C538 O550 1.239 . S
C538 O551 1.230 . S
N539 Cd510 2.304 1_545 S
N539 C540 1.337 . S
N539 C544 1.338 . S
C540 N539 1.337 . S
C540 C541 1.379 . S
C540 H554 0.929 . S
C541 C540 1.379 . S
C541 C542 1.380 . S
C541 H562 0.929 . S
C542 C541 1.380 . S
C542 C543 1.399 . S
C543 C542 1.399 . S
C543 C544 1.376 . S
C543 H563 0.931 . S
C544 N539 1.338 . S
C544 C543 1.376 . S
C544 H555 0.930 1_545 S
C545 O552 1.239 . S
C545 O553 1.230 . S
O546 Cd510 2.268 . S
O546 C520 1.238 . S
O547 Cd511 2.273 1_565 S
O547 C520 1.253 . S
O548 Cd511 2.268 . S
O548 C537 1.238 . S
O549 Cd510 2.273 1_545 S
O549 C537 1.253 . S
O550 Cd510 2.417 . S
O550 C538 1.239 . S
O551 Cd510 2.330 . S
O551 C538 1.230 . S
O552 Cd511 2.417 . S
O552 C545 1.239 . S
O553 Cd511 2.330 . S
O553 C545 1.230 . S
H554 C540 0.929 . S
H555 C544 0.930 1_565 S
H556 C514 0.931 . S
H557 C516 0.930 . S
H558 C522 0.929 . S
H559 C524 0.931 . S
H560 C531 0.931 . S
H561 C533 0.930 . S
H562 C541 0.929 . S
H563 C543 0.931 . S
C275 N6 0.894 . S
C253 C57 2.924 . S
C250 C61 1.090 . S
N96 C262 1.862 . S
C136 C245 2.905 . S
C267 C160 1.090 . S
N194 C272 1.893 . S
N224 C268 0.889 . S
C326 C10 2.821 . S
N36 C376 1.986 . S
C299 N74 1.062 . S
C375 C100 1.489 . S
C121 C304 1.603 . S
C370 C177 2.674 . S
C196 C329 3.221 . S
C226 C361 2.803 . S
C27 C353 2.816 . S
N134 C383 2.021 . S
C307 N156 1.112 . S
C358 C181 1.507 . S
C211 C316 2.838 . S
C76 C380 2.708 . S
C322 C117 3.236 . S
C40 C321 1.618 . S
N216 C437 0.894 . S
C147 C415 2.923 . S
C412 C151 1.090 . S
C424 N186 1.862 . S
C46 C407 2.905 . S
C429 C70 1.090 . S
N104 C434 1.893 . S
N14 C430 0.889 . S
C220 C488 2.821 . S
C538 N126 1.986 . S
N164 C461 1.062 . S
C190 C537 1.489 . S
C466 C31 1.603 . S
C87 C532 2.674 . S
C491 C106 3.221 . S
C523 C16 2.803 . S
C515 C237 2.816 . S
N44 C545 2.021 . S
N66 C469 1.112 . S
C520 C91 1.507 . S
C1 C478 2.838 . S
C166 C542 2.708 . S
C484 C207 3.236 . S
C483 C130 1.618 . S
