# Generated by pormake.
# Topology zzz, (3,6)-cn, num edge types: 1
# Building blocks:
#     Node 0, Type 0, BuildingBlock: WUSLED_clean_sbu_0, # of connection points: 3
#     Node 1, Type 0, BuildingBlock: WUSLED_clean_sbu_0, # of connection points: 3
#     Node 2, Type 0, BuildingBlock: WUSLED_clean_sbu_0, # of connection points: 3
#     Node 3, Type 0, BuildingBlock: WUSLED_clean_sbu_0, # of connection points: 3
#     Node 4, Type 0, BuildingBlock: WUSLED_clean_sbu_0, # of connection points: 3
#     Node 5, Type 0, BuildingBlock: WUSLED_clean_sbu_0, # of connection points: 3
#     Node 6, Type 0, BuildingBlock: WUSLED_clean_sbu_0, # of connection points: 3
#     Node 7, Type 0, BuildingBlock: WUSLED_clean_sbu_0, # of connection points: 3
#     Node 8, Type 1, BuildingBlock: CUWYAW_clean_sbu_0, # of connection points: 6
#     Node 9, Type 1, BuildingBlock: CUWYAW_clean_sbu_0, # of connection points: 6
#     Node 10, Type 1, BuildingBlock: CUWYAW_clean_sbu_0, # of connection points: 6
#     Node 11, Type 1, BuildingBlock: CUWYAW_clean_sbu_0, # of connection points: 6
#     Edge 12, Type (0, 1), BuildingBlock: TEMPAE_clean_linker_10, # of connection points: 2
#     Edge 13, Type (0, 1), BuildingBlock: TEMPAE_clean_linker_10, # of connection points: 2
#     Edge 14, Type (0, 1), BuildingBlock: TEMPAE_clean_linker_10, # of connection points: 2
#     Edge 15, Type (0, 1), BuildingBlock: TEMPAE_clean_linker_10, # of connection points: 2
#     Edge 16, Type (0, 1), BuildingBlock: TEMPAE_clean_linker_10, # of connection points: 2
#     Edge 17, Type (0, 1), BuildingBlock: TEMPAE_clean_linker_10, # of connection points: 2
#     Edge 18, Type (0, 1), BuildingBlock: TEMPAE_clean_linker_10, # of connection points: 2
#     Edge 19, Type (0, 1), BuildingBlock: TEMPAE_clean_linker_10, # of connection points: 2
#     Edge 20, Type (0, 1), BuildingBlock: TEMPAE_clean_linker_10, # of connection points: 2
#     Edge 21, Type (0, 1), BuildingBlock: TEMPAE_clean_linker_10, # of connection points: 2
#     Edge 22, Type (0, 1), BuildingBlock: TEMPAE_clean_linker_10, # of connection points: 2
#     Edge 23, Type (0, 1), BuildingBlock: TEMPAE_clean_linker_10, # of connection points: 2
#     Edge 24, Type (0, 1), BuildingBlock: TEMPAE_clean_linker_10, # of connection points: 2
#     Edge 25, Type (0, 1), BuildingBlock: TEMPAE_clean_linker_10, # of connection points: 2
#     Edge 26, Type (0, 1), BuildingBlock: TEMPAE_clean_linker_10, # of connection points: 2
#     Edge 27, Type (0, 1), BuildingBlock: TEMPAE_clean_linker_10, # of connection points: 2
#     Edge 28, Type (0, 1), BuildingBlock: TEMPAE_clean_linker_10, # of connection points: 2
#     Edge 29, Type (0, 1), BuildingBlock: TEMPAE_clean_linker_10, # of connection points: 2
#     Edge 30, Type (0, 1), BuildingBlock: TEMPAE_clean_linker_10, # of connection points: 2
#     Edge 31, Type (0, 1), BuildingBlock: TEMPAE_clean_linker_10, # of connection points: 2
#     Edge 32, Type (0, 1), BuildingBlock: TEMPAE_clean_linker_10, # of connection points: 2
#     Edge 33, Type (0, 1), BuildingBlock: TEMPAE_clean_linker_10, # of connection points: 2
#     Edge 34, Type (0, 1), BuildingBlock: TEMPAE_clean_linker_10, # of connection points: 2
#     Edge 35, Type (0, 1), BuildingBlock: TEMPAE_clean_linker_10, # of connection points: 2
# Relax obj value: 0.396
# Max RMSD: 0.244
# Mean RMSD: 0.224
data_MOF--net-zzz--node1-WUSLED_clean_sbu_0--node2-CUWYAW_clean_sbu_0--edge1-TEMPAE_clean_linker_10
_symmetry_space_group_name_H-M    P1
_symmetry_Int_Tables_number       1
_symmetry_cell_setting            triclinic
loop_
_symmetry_equiv_pos_as_xyz
'x, y, z'
_cell_length_a     63.36763
_cell_length_b     63.293328
_cell_length_c     20.447093
_cell_angle_alpha  89.90822
_cell_angle_beta   89.944483
_cell_angle_gamma 90.055977
loop_
_atom_site_label
_atom_site_type_symbol
_atom_site_fract_x
_atom_site_fract_y
_atom_site_fract_z
_atom_type_partial_charge
C0 C 0.77142 0.51076 0.49786 0.0
C1 C 0.78911 0.5083 0.45702 0.0
C2 C 0.81363 0.51133 0.55079 0.0
C3 C 0.80981 0.50863 0.48295 0.0
C4 C 0.79572 0.51377 0.59131 0.0
C5 C 0.77508 0.51352 0.56528 0.0
U6 U 0.72611 0.50838 0.36372 0.0
O7 O 0.69524 0.49197 0.36476 0.0
O8 O 0.69624 0.5264 0.36039 0.0
C9 C 0.68448 0.50941 0.35419 0.0
C10 C 0.74908 0.5105 0.47253 0.0
C11 C 0.66935 0.50925 0.29745 0.0
C12 C 0.63308 0.51194 0.25601 0.0
C13 C 0.64756 0.51166 0.30841 0.0
C14 C 0.66173 0.50701 0.17973 0.0
C15 C 0.63986 0.50958 0.19071 0.0
C16 C 0.67626 0.507 0.23223 0.0
C17 C 0.7635 0.50669 0.21085 0.0
C18 C 0.77971 0.51621 0.1081 0.0
C19 C 0.80036 0.49896 0.19268 0.0
C20 C 0.78266 0.49845 0.23343 0.0
C21 C 0.799 0.50788 0.12954 0.0
C22 C 0.76211 0.51545 0.14827 0.0
C23 C 0.74428 0.50645 0.24944 0.0
O24 O 0.74249 0.52715 0.43984 0.0
O25 O 0.74195 0.49273 0.44744 0.0
O26 O 0.74007 0.48953 0.28455 0.0
O27 O 0.73917 0.52433 0.27771 0.0
H28 H 0.78695 0.50621 0.4049 0.0
H29 H 0.82287 0.50707 0.44918 0.0
H30 H 0.79751 0.51557 0.64363 0.0
H31 H 0.76183 0.51541 0.59831 0.0
H32 H 0.61645 0.51381 0.26672 0.0
H33 H 0.64168 0.5134 0.35786 0.0
H34 H 0.66765 0.50539 0.13028 0.0
H35 H 0.69294 0.5053 0.22183 0.0
H36 H 0.77819 0.52353 0.06045 0.0
H37 H 0.81497 0.49214 0.21021 0.0
H38 H 0.78386 0.49158 0.28185 0.0
H39 H 0.74732 0.52182 0.13041 0.0
C40 C 0.01728 0.77276 0.49512 0.0
C41 C 0.02617 0.79 0.46116 0.0
C42 C 0.01709 0.81466 0.55058 0.0
C43 C 0.02612 0.81057 0.48851 0.0
C44 C 1.00824 0.7973 0.58425 0.0
C45 C 1.00841 0.77679 0.55714 0.0
U46 U 0.0167 0.7266 0.36235 0.0
O47 O 1.00022 0.69582 0.36485 0.0
O48 O 0.03463 0.69659 0.36041 0.0
C49 C 0.01755 0.68498 0.35352 0.0
C50 C 0.01781 0.75033 0.46976 0.0
C51 C 0.01712 0.67037 0.29544 0.0
C52 C 0.02194 0.63498 0.24874 0.0
C53 C 0.02237 0.64892 0.30257 0.0
C54 C 1.01103 0.66358 0.17851 0.0
C55 C 0.01615 0.64191 0.18542 0.0
C56 C 1.01155 0.67754 0.23246 0.0
C57 C 1.01446 0.76323 0.209 0.0
C58 C 0.02151 0.77991 0.10516 0.0
C59 C 1.00891 0.80072 0.19707 0.0
C60 C 1.00825 0.78259 0.23582 0.0
C61 C 0.01572 0.79941 0.13176 0.0
C62 C 0.02092 0.76191 0.14375 0.0
C63 C 1.01474 0.74393 0.24684 0.0
O64 O 1.00034 0.74252 0.44475 0.0
O65 O 0.03474 0.74396 0.43808 0.0
O66 O 0.03265 0.73946 0.27598 0.0
O67 O 0.99787 0.73953 0.28177 0.0
H68 H 0.03321 0.78761 0.41347 0.0
H69 H 0.03294 0.82339 0.46042 0.0
H70 H 1.00142 0.79947 0.63235 0.0
H71 H 1.0017 0.76391 0.58525 0.0
H72 H 0.02647 0.61872 0.25699 0.0
H73 H 0.02688 0.64288 0.35013 0.0
H74 H 1.00623 0.66982 0.13152 0.0
H75 H 1.00746 0.69398 0.22495 0.0
H76 H 0.02715 0.77872 0.05523 0.0
H77 H 1.00439 0.81576 0.21808 0.0
H78 H 1.00322 0.78368 0.28636 0.0
H79 H 0.02582 0.74695 0.12292 0.0
C80 C 0.75948 0.01802 0.49104 0.0
C81 C 0.74255 0.02807 0.45892 0.0
C82 C 0.71741 0.01695 0.54486 0.0
C83 C 0.72188 0.02762 0.4856 0.0
C84 C 0.73442 1.00694 0.57671 0.0
C85 C 0.75504 1.00759 0.55049 0.0
U86 U 0.80612 0.02081 0.35993 0.0
O87 O 0.83682 0.03755 0.3631 0.0
O88 O 0.83615 1.00309 0.35929 0.0
C89 C 0.84774 0.02021 0.35263 0.0
C90 C 0.78199 0.01879 0.4665 0.0
C91 C 0.86263 0.02053 0.29523 0.0
C92 C 0.89867 0.02312 0.25176 0.0
C93 C 0.88445 0.02302 0.30495 0.0
C94 C 0.86961 0.01841 0.17707 0.0
C95 C 0.89159 0.0208 0.18665 0.0
C96 C 0.85539 0.01824 0.23043 0.0
C97 C 0.76936 0.02196 0.20787 0.0
C98 C 0.75114 1.01056 0.1106 0.0
C99 C 0.73308 0.03205 0.19144 0.0
C100 C 0.7512 0.03229 0.22988 0.0
C101 C 0.73285 0.02108 0.13144 0.0
C102 C 0.7693 1.01123 0.14822 0.0
C103 C 0.78897 0.02227 0.24421 0.0
O104 O 0.78936 1.00209 0.43586 0.0
O105 O 0.789 0.03657 0.44089 0.0
O106 O 0.79323 0.03932 0.27847 0.0
O107 O 0.79396 1.0045 0.27353 0.0
H108 H 0.74526 0.03631 0.41323 0.0
H109 H 0.70927 0.03539 0.45917 0.0
H110 H 0.73184 0.99879 0.62266 0.0
H111 H 0.76767 0.99995 0.57721 0.0
H112 H 0.9153 0.02531 0.26183 0.0
H113 H 0.89057 0.02489 0.35404 0.0
H114 H 0.86335 0.0163 0.12826 0.0
H115 H 0.83869 1.01622 0.22101 0.0
H116 H 0.75147 1.00162 0.06551 0.0
H117 H 0.71941 0.04072 0.20841 0.0
H118 H 0.75111 0.04068 0.27603 0.0
H119 H 0.78336 1.00327 0.13079 0.0
C120 C 0.51042 0.7604 0.50827 0.0
C121 C 0.50292 0.74288 0.4726 0.0
C122 C 0.51263 0.71836 0.56133 0.0
C123 C 0.50397 0.72219 0.49887 0.0
C124 C 0.51994 0.73588 0.59712 0.0
C125 C 0.51876 0.75654 0.57114 0.0
U126 U 0.50878 0.80429 0.37039 0.0
O127 O 0.49122 0.83451 0.36402 0.0
O128 O 0.52564 0.83483 0.3628 0.0
C129 C 0.50831 0.84581 0.35311 0.0
C130 C 0.50955 0.78273 0.48229 0.0
C131 C 0.50802 0.8604 0.29448 0.0
C132 C 0.50454 0.89636 0.24998 0.0
C133 C 0.50449 0.88215 0.3033 0.0
C134 C 0.51143 0.86751 0.1763 0.0
C135 C 0.50813 0.88947 0.18518 0.0
C136 C 0.5114 0.85324 0.22996 0.0
C137 C 0.50899 0.7669 0.21476 0.0
C138 C 0.5065 0.75564 0.10247 0.0
C139 C 0.51163 0.72982 0.18918 0.0
C140 C 0.51159 0.74599 0.23558 0.0
C141 C 0.50892 0.73467 0.12257 0.0
C142 C 0.50658 0.77166 0.14844 0.0
C143 C 0.50884 0.78462 0.25919 0.0
O144 O 0.52653 0.79004 0.4529 0.0
O145 O 0.49209 0.78891 0.45312 0.0
O146 O 0.49132 0.78895 0.29084 0.0
O147 O 0.52632 0.78932 0.29047 0.0
H148 H 0.49636 0.74517 0.42423 0.0
H149 H 0.49828 0.70908 0.46984 0.0
H150 H 0.52667 0.73357 0.6453 0.0
H151 H 0.5245 0.76961 0.60033 0.0
H152 H 0.5015 0.91287 0.25986 0.0
H153 H 0.50171 0.88825 0.35201 0.0
H154 H 0.51446 0.8613 0.1279 0.0
H155 H 0.51418 0.83661 0.22099 0.0
H156 H 0.50437 0.75956 0.05129 0.0
H157 H 0.51321 0.71356 0.20518 0.0
H158 H 0.51341 0.74224 0.287 0.0
H159 H 0.50463 0.78786 0.13218 0.0
C160 C 0.2595 0.50994 0.89654 0.0
C161 C 0.24183 0.50783 0.93781 0.0
C162 C 0.21735 0.51045 0.84422 0.0
C163 C 0.22111 0.50818 0.91208 0.0
C164 C 0.23513 0.51223 0.80304 0.0
C165 C 0.2558 0.51209 0.82884 0.0
U166 U 0.30454 0.50937 0.03132 0.0
O167 O 0.33437 0.52753 0.0324 0.0
O168 O 0.33542 0.49308 0.03426 0.0
C169 C 0.34608 0.51073 0.0426 0.0
C170 C 0.28183 0.50997 0.92183 0.0
C171 C 0.36065 0.51167 0.10071 0.0
C172 C 0.39632 0.51612 0.14544 0.0
C173 C 0.38239 0.51497 0.09173 0.0
C174 C 0.36714 0.51062 0.21927 0.0
C175 C 0.38912 0.51383 0.21065 0.0
C176 C 0.35318 0.50966 0.16536 0.0
C177 C 0.26757 0.51082 0.18591 0.0
C178 C 0.25249 0.52501 0.28475 0.0
C179 C 0.23049 0.5057 0.20817 0.0
C180 C 0.24795 0.50264 0.16742 0.0
C181 C 0.23257 0.51727 0.2668 0.0
C182 C 0.26981 0.52159 0.245 0.0
C183 C 0.28633 0.50938 0.14554 0.0
O184 O 0.28844 0.52707 0.95213 0.0
O185 O 0.28886 0.49257 0.94958 0.0
O186 O 0.28998 0.49186 0.11293 0.0
O187 O 0.29168 0.52673 0.1144 0.0
H188 H 0.24403 0.506 0.99002 0.0
H189 H 0.20794 0.5065 0.94548 0.0
H190 H 0.23306 0.51418 0.7508 0.0
H191 H 0.26901 0.51379 0.79557 0.0
H192 H 0.4128 0.51913 0.13526 0.0
H193 H 0.38867 0.51678 0.04276 0.0
H194 H 0.36058 0.50848 0.26769 0.0
H195 H 0.3365 0.50723 0.17427 0.0
H196 H 0.25471 0.53438 0.32844 0.0
H197 H 0.21541 0.49922 0.19347 0.0
H198 H 0.2461 0.4942 0.12171 0.0
H199 H 0.28499 0.52794 0.25967 0.0
C200 C 0.02129 0.25953 0.89702 0.0
C201 C 0.02982 0.24219 0.93121 0.0
C202 C 0.02255 0.2182 0.83892 0.0
C203 C 0.03055 0.22187 0.9024 0.0
C204 C 1.01395 0.23556 0.80506 0.0
C205 C 1.01348 0.25588 0.83346 0.0
U206 U 0.02301 0.30447 0.03354 0.0
O207 O 0.03723 0.3365 0.03049 0.0
O208 O 1.00307 0.333 0.03939 0.0
C209 C 0.01923 0.34597 0.0435 0.0
C210 C 0.02069 0.28161 0.92454 0.0
C211 C 0.01904 0.36122 0.10002 0.0
C212 C 0.02305 0.39742 0.14129 0.0
C213 C 0.02385 0.38266 0.08966 0.0
C214 C 1.01262 0.3697 0.21571 0.0
C215 C 0.01728 0.39131 0.2053 0.0
C216 C 1.01358 0.35489 0.16404 0.0
C217 C 0.02967 0.26734 0.18564 0.0
C218 C 0.02721 0.25189 0.29344 0.0
C219 C 0.02539 0.22963 0.19687 0.0
C220 C 0.02809 0.24734 0.15696 0.0
C221 C 0.02434 0.23202 0.2651 0.0
C222 C 0.02981 0.2695 0.25374 0.0
C223 C 0.02811 0.2866 0.14751 0.0
O224 O 1.00418 0.28703 0.95974 0.0
O225 O 0.03834 0.28967 0.94758 0.0
O226 O 0.04408 0.29174 0.10963 0.0
O227 O 1.00952 0.29041 0.12178 0.0
H228 H 0.03599 0.24435 0.9801 0.0
H229 H 0.03713 0.20888 0.93021 0.0
H230 H 1.00781 0.23349 0.75606 0.0
H231 H 1.00701 0.26886 0.80535 0.0
H232 H 0.02659 0.4138 0.1306 0.0
H233 H 0.02805 0.38811 0.04113 0.0
H234 H 1.00843 0.36416 0.26414 0.0
H235 H 1.00992 0.33848 0.17411 0.0
H236 H 0.02615 0.25393 0.34596 0.0
H237 H 0.02323 0.21424 0.17467 0.0
H238 H 0.02786 0.24558 0.10429 0.0
H239 H 0.03074 0.28498 0.27616 0.0
C240 C 0.27121 0.02235 0.8852 0.0
C241 C 0.28835 0.02028 0.92837 0.0
C242 C 0.31401 0.02393 0.8381 0.0
C243 C 0.30934 0.02095 0.90526 0.0
C244 C 0.29666 0.02591 0.7951 0.0
C245 C 0.27567 0.0251 0.81829 0.0
U246 U 0.2299 0.02364 0.02448 0.0
O247 O 0.19835 0.03839 0.0351 0.0
O248 O 0.20161 1.00413 0.04374 0.0
C249 C 0.18894 0.02046 0.04982 0.0
C250 C 0.24876 0.02152 0.90891 0.0
C251 C 0.17397 0.02047 0.10704 0.0
C252 C 0.13785 0.02518 0.1481 0.0
C253 C 0.15265 0.02567 0.09662 0.0
C254 C 0.16518 1.01393 0.22248 0.0
C255 C 0.14381 0.01917 0.21171 0.0
C256 C 0.18011 1.01469 0.17093 0.0
C257 C 0.26888 0.02991 0.17885 0.0
C258 C 0.27572 0.02149 0.29219 0.0
C259 C 0.30471 0.02929 0.21807 0.0
C260 C 0.29045 0.03289 0.16767 0.0
C261 C 0.29739 0.02285 0.2797 0.0
C262 C 0.26144 0.02491 0.24151 0.0
C263 C 0.25489 0.02766 0.1234 0.0
O264 O 0.24336 1.00484 0.94354 0.0
O265 O 0.241 0.03908 0.93339 0.0
O266 O 0.24715 0.0442 0.09281 0.0
O267 O 0.24922 1.009 0.10153 0.0
H268 H 0.28552 0.01805 0.98019 0.0
H269 H 0.3219 0.01885 0.94045 0.0
H270 H 0.29919 0.02847 0.74335 0.0
H271 H 0.26284 0.02673 0.78367 0.0
H272 H 0.12157 0.02923 0.13791 0.0
H273 H 0.14733 0.03002 0.0481 0.0
H274 H 0.17038 1.00942 0.27099 0.0
H275 H 0.1964 1.01065 0.18094 0.0
H276 H 0.26998 0.01637 0.33956 0.0
H277 H 0.32149 0.03024 0.20804 0.0
H278 H 0.29632 0.03642 0.11904 0.0
H279 H 0.24476 0.02231 0.25005 0.0
C280 C 0.51551 0.27275 0.89579 0.0
C281 C 0.51122 0.29008 0.9366 0.0
C282 C 0.51354 0.31489 0.84361 0.0
C283 C 0.51022 0.3108 0.91092 0.0
C284 C 0.51806 0.29743 0.80314 0.0
C285 C 0.51895 0.27675 0.82882 0.0
U286 U 0.51409 0.22737 0.02932 0.0
O287 O 0.53363 0.19856 0.03401 0.0
O288 O 0.49937 0.19563 0.02637 0.0
C289 C 0.51724 0.18591 0.03925 0.0
C290 C 0.51628 0.25043 0.92073 0.0
C291 C 0.51721 0.17125 0.09706 0.0
C292 C 0.51335 0.13555 0.14219 0.0
C293 C 0.51318 0.1496 0.08862 0.0
C294 C 0.52152 0.16448 0.21461 0.0
C295 C 0.51758 0.14264 0.20635 0.0
C296 C 0.52132 0.17854 0.1609 0.0
C297 C 0.50884 0.26402 0.18295 0.0
C298 C 0.51667 0.2798 0.28739 0.0
C299 C 0.50513 0.30172 0.19659 0.0
C300 C 0.50356 0.2838 0.15706 0.0
C301 C 0.51213 0.29983 0.26172 0.0
C302 C 0.51494 0.26205 0.24828 0.0
C303 C 0.50979 0.24503 0.14364 0.0
O304 O 0.53286 0.24483 0.95537 0.0
O305 O 0.49866 0.24228 0.94381 0.0
O306 O 0.49357 0.24035 0.10631 0.0
O307 O 0.52822 0.2409 0.11722 0.0
H308 H 0.5086 0.28761 0.98836 0.0
H309 H 0.50703 0.3237 0.94419 0.0
H310 H 0.52052 0.29967 0.75117 0.0
H311 H 0.52224 0.26376 0.79593 0.0
H312 H 0.50984 0.11907 0.13317 0.0
H313 H 0.50986 0.14349 0.04026 0.0
H314 H 0.52512 0.17075 0.26255 0.0
H315 H 0.52449 0.19514 0.16929 0.0
H316 H 0.52244 0.27789 0.33689 0.0
H317 H 0.50133 0.31703 0.17602 0.0
H318 H 0.49875 0.28542 0.1065 0.0
H319 H 0.51914 0.24678 0.26852 0.0
C320 C 0.9773 0.03478 0.55064 0.0
Eu321 Eu 0.99815 0.02007 0.64818 0.0
C322 C 0.98053 0.05583 0.52231 0.0
C323 C 0.96377 0.07033 0.52111 0.0
C324 C 0.96745 0.09143 0.50452 0.0
C325 C 0.98791 0.09813 0.48861 0.0
C326 C 1.00471 0.08378 0.49124 0.0
C327 C 1.00109 0.06284 0.50817 0.0
C328 C 0.98298 1.01512 0.774 0.0
C329 C 0.02198 0.06138 0.71843 0.0
C330 C 0.05525 0.99922 0.84943 0.0
Eu331 Eu 0.03616 1.01342 0.74785 0.0
C332 C 0.05055 0.9786 0.87837 0.0
C333 C 0.06698 0.96477 0.89452 0.0
C334 C 0.06254 0.94377 0.91044 0.0
C335 C 0.04161 0.93633 0.90954 0.0
C336 C 0.02528 0.95019 0.89213 0.0
C337 C 0.02968 0.97112 0.87704 0.0
C338 C 0.05243 0.01876 0.62419 0.0
C339 C 1.0128 0.97202 0.6747 0.0
O340 O 0.99265 0.02106 0.54297 0.0
O341 O 0.96997 0.03524 0.61036 0.0
O342 O 0.9711 1.01621 0.72263 0.0
O343 O 1.00183 1.01515 0.7539 0.0
O344 O 1.01038 0.05372 0.66962 0.0
O345 O 0.03234 0.04887 0.75948 0.0
O346 O 0.04027 1.01348 0.85368 0.0
O347 O 0.0634 0.99791 0.79084 0.0
O348 O 0.06352 0.01731 0.67727 0.0
O349 O 0.03306 0.0189 0.64074 0.0
O350 O 0.0248 0.97971 0.72264 0.0
O351 O 1.00178 0.9846 0.63548 0.0
H352 H 0.94795 0.06543 0.53441 0.0
H353 H 0.95432 0.10236 0.50275 0.0
H354 H 0.02067 0.08881 0.48008 0.0
H355 H 1.0145 0.0523 0.51161 0.0
H356 H 0.08324 0.97007 0.89319 0.0
H357 H 0.07545 0.93347 0.92396 0.0
H358 H 1.00909 0.94479 0.88892 0.0
H359 H 0.01678 0.98121 0.86179 0.0
C360 C 0.4953 0.97787 0.55124 0.0
Eu361 Eu 0.51176 0.99751 0.64863 0.0
C362 C 0.47349 0.98091 0.52859 0.0
C363 C 0.45985 0.96356 0.52238 0.0
C364 C 0.4385 0.96672 0.50809 0.0
C365 C 0.43066 0.98728 0.49969 0.0
C366 C 0.44415 1.00461 0.50809 0.0
C367 C 0.46532 1.00146 0.5227 0.0
C368 C 0.51632 0.98336 0.77544 0.0
C369 C 0.47135 0.02336 0.71773 0.0
C370 C 0.5335 0.05615 0.8458 0.0
Eu371 Eu 0.51984 0.03677 0.744 0.0
C372 C 0.55341 0.05063 0.8773 0.0
C373 C 0.56666 0.06631 0.90219 0.0
C374 C 0.58737 0.06134 0.9197 0.0
C375 C 0.59536 0.04072 0.91023 0.0
C376 C 0.58175 0.02514 0.88538 0.0
C377 C 0.56101 0.02997 0.86996 0.0
C378 C 0.51577 0.05103 0.61789 0.0
C379 C 0.56023 1.01167 0.67102 0.0
O380 O 0.50818 0.99393 0.54324 0.0
O381 O 0.49682 0.96928 0.6092 0.0
O382 O 0.51502 0.97105 0.72486 0.0
O383 O 0.51701 1.00222 0.75423 0.0
O384 O 0.47856 1.00867 0.67712 0.0
O385 O 0.48403 0.03629 0.75036 0.0
O386 O 0.5186 0.04175 0.84936 0.0
O387 O 0.53602 0.0637 0.78672 0.0
O388 O 0.5188 0.0632 0.66798 0.0
O389 O 0.51435 0.03217 0.63882 0.0
O390 O 0.55314 0.02416 0.71878 0.0
O391 O 0.54723 1.00046 0.6336 0.0
H392 H 0.46566 0.94762 0.52923 0.0
H393 H 0.42827 0.95315 0.50194 0.0
H394 H 0.43831 0.02062 0.50294 0.0
H395 H 0.47522 1.01514 0.53037 0.0
H396 H 0.5612 0.08247 0.90639 0.0
H397 H 0.59698 0.07377 0.94033 0.0
H398 H 0.58709 1.00928 0.87514 0.0
H399 H 0.55122 0.01769 0.84895 0.0
C400 C 0.55737 0.49612 0.56184 0.0
Eu401 Eu 0.53528 0.51297 0.65396 0.0
C402 C 0.55307 0.47504 0.53565 0.0
C403 C 0.56936 0.46217 0.51252 0.0
C404 C 0.56507 0.44132 0.49433 0.0
C405 C 0.54455 0.43295 0.50107 0.0
C406 C 0.5285 0.44584 0.52634 0.0
C407 C 0.53259 0.46678 0.54156 0.0
C408 C 0.54775 0.52138 0.77919 0.0
C409 C 0.51041 0.47165 0.72192 0.0
C410 C 0.48012 0.53497 0.84791 0.0
Eu411 Eu 0.49866 0.51989 0.74633 0.0
C412 C 0.48197 0.55705 0.8693 0.0
C413 C 0.46381 0.56958 0.87459 0.0
C414 C 0.46561 0.59118 0.88697 0.0
C415 C 0.48558 0.60045 0.89316 0.0
C416 C 0.50376 0.58814 0.88677 0.0
C417 C 0.502 0.56657 0.87498 0.0
C418 C 0.48212 0.51705 0.62205 0.0
C419 C 0.52116 0.56075 0.67359 0.0
O420 O 0.54269 0.51017 0.55032 0.0
O421 O 0.5636 0.4962 0.62274 0.0
O422 O 0.55702 0.52879 0.72704 0.0
O423 O 0.53219 0.50995 0.7621 0.0
O424 O 0.5245 0.47921 0.67997 0.0
O425 O 0.49819 0.48428 0.75681 0.0
O426 O 0.49728 0.52357 0.85211 0.0
O427 O 0.47026 0.53237 0.79243 0.0
O428 O 0.47083 0.51838 0.67475 0.0
O429 O 0.5013 0.51577 0.63871 0.0
O430 O 0.5112 0.55337 0.72579 0.0
O431 O 0.53034 0.54775 0.63187 0.0
H432 H 0.58531 0.46821 0.50861 0.0
H433 H 0.57775 0.43193 0.47407 0.0
H434 H 0.51267 0.43986 0.53399 0.0
H435 H 0.51968 0.47644 0.55912 0.0
H436 H 0.44828 0.56271 0.86836 0.0
H437 H 0.45146 0.60063 0.89227 0.0
H438 H 0.51928 0.59514 0.89236 0.0
H439 H 0.51636 0.55745 0.8694 0.0
C440 C 0.03288 0.55425 0.54901 0.0
Eu441 Eu 0.01827 0.5345 0.64905 0.0
C442 C 0.05483 0.55267 0.52529 0.0
C443 C 0.06956 0.56837 0.54208 0.0
C444 C 0.091 0.56542 0.52988 0.0
C445 C 0.09816 0.54689 0.49935 0.0
C446 C 0.08338 0.53129 0.48194 0.0
C447 C 0.06201 0.53408 0.49514 0.0
C448 C 1.01359 0.54885 0.77528 0.0
C449 C 0.06031 0.51107 0.7197 0.0
C450 C 0.99816 0.47645 0.84864 0.0
Eu451 Eu 1.01269 0.49543 0.74748 0.0
C452 C 0.97651 0.47964 0.87314 0.0
C453 C 0.96067 0.46509 0.85637 0.0
C454 C 0.93949 0.46994 0.86661 0.0
C455 C 0.93371 0.48927 0.89505 0.0
C456 C 0.94954 0.50369 0.91284 0.0
C457 C 0.9707 0.49897 0.90181 0.0
C458 C 0.01727 0.48075 0.62166 0.0
C459 C 0.97061 0.51846 0.67701 0.0
O460 O 0.02112 0.53727 0.54316 0.0
O461 O 0.03078 0.56334 0.6061 0.0
O462 O 1.01463 0.56114 0.72451 0.0
O463 O 1.01388 0.52999 0.75455 0.0
O464 O 0.05226 0.52423 0.67516 0.0
O465 O 0.04814 0.49878 0.7566 0.0
O466 O 1.01107 0.49261 0.8536 0.0
O467 O 0.99927 0.46719 0.7915 0.0
O468 O 0.01646 0.46877 0.67327 0.0
O469 O 0.01703 0.49978 0.64131 0.0
O470 O 0.9788 0.50555 0.72183 0.0
O471 O 0.98265 0.53083 0.63974 0.0
H472 H 0.06457 0.58267 0.56667 0.0
H473 H 0.10197 0.57758 0.54509 0.0
H474 H 0.0882 0.51697 0.45721 0.0
H475 H 0.0512 0.52144 0.48267 0.0
H476 H 0.96459 0.45028 0.83281 0.0
H477 H 0.92764 0.45861 0.85154 0.0
H478 H 0.94563 0.51857 0.93602 0.0
H479 H 0.98243 0.51077 0.9142 0.0
C480 C 0.12221 0.99962 0.29744 0.0
C481 C 0.12775 0.01864 0.2663 0.0
C482 C 0.10719 0.99905 0.34894 0.0
C483 C 0.09777 0.01806 0.37184 0.0
C484 C 0.10295 0.03722 0.33912 0.0
C485 C 0.1176 0.03723 0.28674 0.0
C486 C 0.1016 0.97808 0.37955 0.0
C487 C 0.09398 0.05804 0.3616 0.0
C488 C 0.05173 0.01756 0.49797 0.0
C489 C 0.06267 0.01948 0.55749 0.0
C490 C 0.06273 0.01698 0.43707 0.0
C491 C 0.08521 0.01835 0.43532 0.0
C492 C 0.0961 0.02035 0.49542 0.0
C493 C 0.08484 0.02084 0.55482 0.0
C494 C 0.05033 1.0147 0.37462 0.0
C495 C 0.11989 0.02183 0.49732 0.0
H496 H 0.12959 0.9851 0.28123 0.0
H497 H 0.12166 0.05201 0.26294 0.0
H498 H 0.10626 0.97795 0.43182 0.0
H499 H 0.08426 0.97567 0.3777 0.0
H500 H 0.10942 0.96463 0.35452 0.0
H501 H 0.09493 0.07025 0.3226 0.0
H502 H 0.07729 0.05642 0.37722 0.0
H503 H 0.10318 0.06369 0.40431 0.0
H504 H 0.03469 1.01618 0.49896 0.0
H505 H 0.09367 0.02215 0.6 0.0
H506 H 0.05508 0.99997 0.34921 0.0
H507 H 0.05392 0.02805 0.34116 0.0
H508 H 0.03304 1.01424 0.38354 0.0
H509 H 0.12689 1.00698 0.47844 0.0
H510 H 0.126 0.02456 0.54752 0.0
H511 H 0.12542 0.03489 0.46533 0.0
C512 C 0.52522 0.10649 0.25684 0.0
C513 C 0.51782 0.12737 0.26386 0.0
C514 C 0.52543 0.09204 0.30988 0.0
C515 C 0.51796 0.09832 0.37237 0.0
C516 C 0.51053 0.11936 0.37992 0.0
C517 C 0.51058 0.1335 0.32616 0.0
C518 C 0.53377 0.07002 0.29895 0.0
C519 C 0.50283 0.12712 0.44548 0.0
C520 C 0.50061 0.05845 0.50533 0.0
C521 C 0.51765 0.05901 0.54903 0.0
C522 C 0.50084 0.07037 0.44644 0.0
C523 C 0.5185 0.08334 0.43055 0.0
C524 C 0.5361 0.08317 0.47345 0.0
C525 C 0.53537 0.0712 0.53187 0.0
C526 C 0.48171 0.06989 0.40271 0.0
C527 C 0.55563 0.09599 0.45851 0.0
H528 H 0.53125 0.10143 0.20983 0.0
H529 H 0.50462 0.14937 0.33301 0.0
H530 H 0.54641 0.06642 0.33477 0.0
H531 H 0.52094 0.05835 0.30685 0.0
H532 H 0.54017 0.06786 0.2488 0.0
H533 H 0.49535 0.14295 0.44217 0.0
H534 H 0.49127 0.11585 0.46671 0.0
H535 H 0.51636 0.12812 0.47979 0.0
H536 H 0.48656 0.0498 0.51906 0.0
H537 H 0.54855 0.07194 0.56561 0.0
H538 H 0.48633 0.06492 0.35273 0.0
H539 H 0.47489 0.08599 0.39876 0.0
H540 H 0.46933 0.05894 0.42116 0.0
H541 H 0.56394 0.08893 0.41605 0.0
H542 H 0.56674 0.09645 0.50049 0.0
H543 H 0.55142 0.11244 0.44504 0.0
C544 C 0.39784 0.5213 0.3313 0.0
C545 C 0.40441 0.51468 0.26859 0.0
C546 C 0.4118 0.5217 0.38555 0.0
C547 C 0.43332 0.51585 0.37801 0.0
C548 C 0.44025 0.5097 0.31476 0.0
C549 C 0.42582 0.50885 0.2618 0.0
C550 C 0.40344 0.5285 0.45136 0.0
C551 C 0.4629 0.50349 0.30262 0.0
C552 C 0.47161 0.53384 0.51451 0.0
C553 C 0.47293 0.51579 0.55445 0.0
C554 C 0.45946 0.53392 0.45614 0.0
C555 C 0.44817 0.51553 0.43671 0.0
C556 C 0.45029 0.49703 0.47567 0.0
C557 C 0.46232 0.49747 0.53407 0.0
C558 C 0.45836 0.55388 0.41588 0.0
C559 C 0.43915 0.47687 0.45697 0.0
H560 H 0.38171 0.52641 0.33841 0.0
H561 H 0.43148 0.50322 0.21504 0.0
H562 H 0.40767 0.51673 0.48943 0.0
H563 H 0.4108 0.54374 0.46544 0.0
H564 H 0.38603 0.53052 0.45124 0.0
H565 H 0.46717 0.50504 0.25011 0.0
H566 H 0.47396 0.51325 0.33183 0.0
H567 H 0.46514 0.48674 0.3171 0.0
H568 H 0.47944 0.54819 0.53025 0.0
H569 H 0.463 0.48354 0.56492 0.0
H570 H 0.44186 0.55971 0.41429 0.0
H571 H 0.46321 0.55053 0.36476 0.0
H572 H 0.4686 0.56659 0.43574 0.0
H573 H 0.42183 0.47924 0.46007 0.0
H574 H 0.4436 0.46343 0.48913 0.0
H575 H 0.44293 0.47264 0.40565 0.0
C576 C 0.03151 0.42339 0.26683 0.0
C577 C 0.01621 0.40734 0.26055 0.0
C578 C 0.03118 0.43797 0.31943 0.0
C579 C 1.01516 0.43679 0.36793 0.0
C580 C 0.99904 0.42137 0.35994 0.0
C581 C 0.99987 0.40681 0.30728 0.0
C582 C 0.04857 0.45416 0.32434 0.0
C583 C 0.98088 0.42018 0.40755 0.0
C584 C 0.02781 0.45172 0.54565 0.0
C585 C 0.01876 0.47183 0.55345 0.0
C586 C 0.02717 0.44074 0.48568 0.0
C587 C 0.01672 0.4496 0.43085 0.0
C588 C 1.00767 0.47013 0.43783 0.0
C589 C 1.00904 0.48109 0.49861 0.0
C590 C 0.03737 0.41923 0.48158 0.0
C591 C 0.99639 0.48062 0.3816 0.0
H592 H 0.04426 0.42418 0.23155 0.0
H593 H 0.98756 0.39502 0.30254 0.0
H594 H 0.04209 0.46984 0.33782 0.0
H595 H 0.05974 0.44935 0.36337 0.0
H596 H 0.05747 0.45576 0.27774 0.0
H597 H 0.96919 0.40786 0.39391 0.0
H598 H 0.98685 0.41671 0.45742 0.0
H599 H 0.97275 0.4357 0.4096 0.0
H600 H 0.03526 0.44427 0.58744 0.0
H601 H 1.00168 0.49644 0.50387 0.0
H602 H 0.04902 0.41898 0.44103 0.0
H603 H 0.02523 0.40708 0.47071 0.0
H604 H 0.04552 0.41476 0.52762 0.0
H605 H 1.0081 0.48922 0.35118 0.0
H606 H 0.9846 0.49228 0.39927 0.0
H607 H 0.98829 0.46893 0.34995 0.0
C608 C 0.90199 0.03031 0.06929 0.0
C609 C 0.90704 0.02074 0.12953 0.0
C610 C 0.91619 0.03017 0.01561 0.0
C611 C 0.93603 0.01982 0.02072 0.0
C612 C 0.94137 1.01041 0.08162 0.0
C613 C 0.92701 1.01108 0.13484 0.0
C614 C 0.90965 0.04079 0.9527 0.0
C615 C 0.96227 0.99939 0.09056 0.0
C616 C 0.95891 0.99934 0.85825 0.0
C617 C 0.97449 1.01429 0.84257 0.0
C618 C 0.94717 1.00047 0.91699 0.0
C619 C 0.95031 0.01748 0.96115 0.0
C620 C 0.9664 0.03247 0.94622 0.0
C621 C 0.97837 0.03062 0.88759 0.0
C622 C 0.93086 0.98367 0.93092 0.0
C623 C 0.97017 0.0512 0.99022 0.0
H624 H 0.8869 0.03817 0.06406 0.0
H625 H 0.93129 1.00348 0.18043 0.0
H626 H 0.9229 0.05005 0.93169 0.0
H627 H 0.90519 0.02856 0.91641 0.0
H628 H 0.89595 0.05148 0.95985 0.0
H629 H 0.96336 0.99116 0.13847 0.0
H630 H 0.96483 0.98769 0.05098 0.0
H631 H 0.97524 1.01113 0.08749 0.0
H632 H 0.95552 0.9869 0.82341 0.0
H633 H 0.98987 0.04267 0.87514 0.0
H634 H 0.91491 0.99086 0.93208 0.0
H635 H 0.93377 0.97655 0.97973 0.0
H636 H 0.93097 0.97091 0.89369 0.0
H637 H 0.95645 0.06205 0.98725 0.0
H638 H 0.98461 0.06011 0.97632 0.0
H639 H 0.97159 0.04607 0.04191 0.0
C640 C 0.50119 0.89971 0.06528 0.0
C641 C 0.50863 0.90516 0.12806 0.0
C642 C 0.50169 0.9142 1.01205 0.0
C643 C 0.51014 0.93488 0.02017 0.0
C644 C 0.51736 0.9406 0.08351 0.0
C645 C 0.51649 0.92588 0.136 0.0
C646 C 0.49346 0.90713 0.94642 0.0
C647 C 0.52612 0.96239 0.09609 0.0
C648 C 0.53262 0.96113 0.86405 0.0
C649 C 0.51658 0.9751 0.84465 0.0
C650 C 0.53108 0.94887 0.92199 0.0
C651 C 0.51268 0.94983 0.96171 0.0
C652 C 0.49659 0.96439 0.94326 0.0
C653 C 0.49874 0.97678 0.88539 0.0
C654 C 0.549 0.93429 0.93963 0.0
C655 C 0.47653 0.96605 0.98265 0.0
H656 H 0.49471 0.88407 0.05759 0.0
H657 H 0.5225 0.93059 0.18335 0.0
H658 H 0.48345 0.91956 0.924 0.0
H659 H 0.50696 0.90432 0.91297 0.0
H660 H 0.4841 0.89233 0.95012 0.0
H661 H 0.53301 0.96386 0.14582 0.0
H662 H 0.53844 0.96638 0.05949 0.0
H663 H 0.51332 0.97422 0.09103 0.0
H664 H 0.54623 0.95926 0.83245 0.0
H665 H 0.48586 0.9869 0.87002 0.0
H666 H 0.54343 0.91766 0.93897 0.0
H667 H 0.55453 0.93772 0.99 0.0
H668 H 0.56257 0.93584 0.90554 0.0
H669 H 0.46722 0.95131 0.97688 0.0
H670 H 0.46663 0.97961 0.96691 0.0
H671 H 0.48017 0.96776 0.03543 0.0
C672 C 0.62429 0.49456 0.0856 0.0
C673 C 0.62422 0.51014 0.13465 0.0
C674 C 0.60985 0.49512 0.03262 0.0
C675 C 0.59538 0.51216 0.02609 0.0
C676 C 0.59496 0.52767 0.07629 0.0
C677 C 0.60906 0.5263 0.12996 0.0
C678 C 0.61047 0.47758 0.98281 0.0
C679 C 0.57985 0.54603 0.07272 0.0
C680 C 0.57954 0.52791 0.85088 0.0
C681 C 0.55903 0.51969 0.8441 0.0
C682 C 0.59123 0.52559 0.90934 0.0
C683 C 0.58238 0.51492 0.96399 0.0
C684 C 0.56139 0.50705 0.95827 0.0
C685 C 0.55014 0.50927 0.89845 0.0
C686 C 0.61323 0.53469 0.9126 0.0
C687 C 0.55085 0.49582 0.01465 0.0
H688 H 0.63558 0.48175 0.08894 0.0
H689 H 0.60866 0.53838 0.16747 0.0
H690 H 0.59429 0.47307 0.96744 0.0
H691 H 0.61911 0.48309 0.93875 0.0
H692 H 0.61859 0.46332 1.00212 0.0
H693 H 0.58217 0.5574 0.11343 0.0
H694 H 0.58183 0.55455 0.02562 0.0
H695 H 0.56337 0.54014 0.07456 0.0
H696 H 0.58672 0.53599 0.80972 0.0
H697 H 0.5344 0.50271 0.89421 0.0
H698 H 0.62478 0.5219 0.92234 0.0
H699 H 0.6143 0.54609 0.95364 0.0
H700 H 0.61783 0.54287 0.86666 0.0
H701 H 0.55713 0.4795 0.01808 0.0
H702 H 0.53347 0.49492 1.00816 0.0
H703 H 0.55425 0.5038 0.06172 0.0
C704 C 1.01022 0.60514 0.13614 0.0
C705 C 1.01544 0.62666 0.12757 0.0
C706 C 1.00959 0.59072 0.08305 0.0
C707 C 1.01423 0.59766 0.01854 0.0
C708 C 0.01942 0.61932 1.00929 0.0
C709 C 0.01999 0.63339 0.06326 0.0
C710 C 1.00395 0.56796 0.09622 0.0
C711 C 0.02406 0.6278 0.94177 0.0
C712 C 0.031 0.55882 0.88196 0.0
C713 C 1.01256 0.55701 0.84419 0.0
C714 C 0.0316 0.57136 0.93951 0.0
C715 C 1.01333 0.58253 0.96055 0.0
C716 C 0.99447 0.58002 0.92365 0.0
C717 C 0.9944 0.56755 0.86609 0.0
C718 C 0.05212 0.57342 0.97631 0.0
C719 C 0.9743 0.59078 0.94421 0.0
H720 H 1.00623 0.59946 0.18457 0.0
H721 H 0.0243 0.64972 0.0548 0.0
H722 H 0.99072 0.56298 0.06425 0.0
H723 H 0.01764 0.55772 0.0845 0.0
H724 H 0.99938 0.56521 0.14801 0.0
H725 H 0.02977 0.6444 0.94286 0.0
H726 H 0.03611 0.61789 0.91709 0.0
H727 H 1.00949 0.62713 0.91175 0.0
H728 H 0.04531 0.55131 0.86459 0.0
H729 H 0.98019 0.56661 0.83674 0.0
H730 H 0.0499 0.56834 0.02781 0.0
H731 H 0.05717 0.59022 0.97721 0.0
H732 H 0.06494 0.56384 0.95417 0.0
H733 H 0.96766 0.58241 0.98728 0.0
H734 H 0.96228 0.59064 0.9047 0.0
H735 H 0.97726 0.6074 0.9588 0.0
C736 C 0.99749 0.20598 0.29817 0.0
C737 C 0.01769 0.21442 0.30641 0.0
C738 C 0.99068 0.18907 0.33666 0.0
C739 C 1.00465 0.18041 0.38344 0.0
C740 C 0.0247 0.18964 0.39415 0.0
C741 C 0.03098 0.20676 0.35544 0.0
C742 C 0.96898 0.17989 0.3253 0.0
C743 C 0.04011 0.1805 0.44284 0.0
C744 C 0.98513 0.13743 0.49736 0.0
C745 C 0.99167 0.11945 0.46304 0.0
C746 C 0.98935 0.15766 0.47245 0.0
C747 C 0.99993 0.15957 0.41176 0.0
C748 C 1.00618 0.14138 0.37672 0.0
C749 C 1.002 0.12153 0.40301 0.0
C750 C 0.98273 0.17689 0.51093 0.0
C751 C 0.01704 0.14282 0.31095 0.0
H752 H 0.98712 0.21255 0.2612 0.0
H753 H 0.04649 0.21371 0.36188 0.0
H754 H 0.97026 0.16311 0.31021 0.0
H755 H 0.95977 0.18028 0.37143 0.0
H756 H 0.96009 0.18863 0.28707 0.0
H757 H 0.05306 0.19174 0.4543 0.0
H758 H 0.03203 0.17603 0.48899 0.0
H759 H 0.0472 0.16595 0.42209 0.0
H760 H 0.97715 0.13564 0.54397 0.0
H761 H 1.00664 0.10751 0.37619 0.0
H762 H 0.97191 0.18678 0.48124 0.0
H763 H 0.99675 0.18672 0.52236 0.0
H764 H 0.97471 0.17263 0.55747 0.0
H765 H 1.00617 0.15003 0.27473 0.0
H766 H 0.022 0.12711 0.29233 0.0
H767 H 0.03118 0.15311 0.31414 0.0
C768 C 0.31895 0.02675 0.37984 0.0
C769 C 0.31252 1.01455 0.32676 0.0
C770 C 0.33618 0.0204 0.41777 0.0
C771 C 0.34702 1.00158 0.40121 0.0
C772 C 0.33944 0.98846 0.35044 0.0
C773 C 0.32214 0.99516 0.31372 0.0
C774 C 0.34386 0.0349 0.4712 0.0
C775 C 0.35046 0.96817 0.33183 0.0
C776 C 0.40598 1.00344 0.42092 0.0
C777 C 0.40901 0.99079 0.47626 0.0
C778 C 0.38582 1.00695 0.39611 0.0
C779 C 0.36825 0.99773 0.428 0.0
C780 C 0.37113 0.98492 0.484 0.0
C781 C 0.39164 0.98151 0.50757 0.0
C782 C 0.38336 0.02032 0.33521 0.0
C783 C 0.35258 0.97517 0.51926 0.0
H784 H 0.31131 0.04178 0.38924 0.0
H785 H 0.31676 0.9858 0.27255 0.0
H786 H 0.35153 0.026 0.51138 0.0
H787 H 0.35565 0.04602 0.45043 0.0
H788 H 0.33068 0.04437 0.49179 0.0
H789 H 0.34325 0.96058 0.28826 0.0
H790 H 0.36737 0.97121 0.32126 0.0
H791 H 0.34973 0.95687 0.37327 0.0
H792 H 0.41952 1.01032 0.39631 0.0
H793 H 0.3941 0.97184 0.55073 0.0
H794 H 0.37351 0.03436 0.34611 0.0
H795 H 0.37519 1.01115 0.29655 0.0
H796 H 0.39877 0.02582 0.31554 0.0
H797 H 0.34263 0.98787 0.54038 0.0
H798 H 0.3576 0.96439 0.55925 0.0
H799 H 0.34255 0.96622 0.48454 0.0
C800 C 0.52715 0.33582 0.27449 0.0
C801 C 0.5164 0.31861 0.30183 0.0
C802 C 0.53258 0.35321 0.31284 0.0
C803 C 0.52731 0.35316 0.38009 0.0
C804 C 0.51686 0.33567 0.40837 0.0
C805 C 0.51128 0.31865 0.36856 0.0
C806 C 0.54395 0.37161 0.28137 0.0
C807 C 0.51098 0.33519 0.47997 0.0
C808 C 0.55417 0.39504 0.48148 0.0
C809 C 0.5394 0.41149 0.47722 0.0
C810 C 0.55023 0.37552 0.45174 0.0
C811 C 0.53087 0.37236 0.41889 0.0
C812 C 0.51537 0.38835 0.4182 0.0
C813 C 0.51996 0.40783 0.4464 0.0
C814 C 0.56702 0.35861 0.45319 0.0
C815 C 0.49444 0.38537 0.3839 0.0
H816 H 0.53163 0.33553 0.22332 0.0
H817 H 0.50285 0.30537 0.38965 0.0
H818 H 0.53533 0.38656 0.29073 0.0
H819 H 0.55989 0.37326 0.30316 0.0
H820 H 0.54569 0.36964 0.22765 0.0
H821 H 0.50666 0.31903 0.49657 0.0
H822 H 0.52414 0.34106 0.51076 0.0
H823 H 0.49727 0.34574 0.48828 0.0
H824 H 0.56899 0.39755 0.50668 0.0
H825 H 0.50855 0.42047 0.44154 0.0
H826 H 0.57256 0.35536 0.4027 0.0
H827 H 0.56038 0.34365 0.47275 0.0
H828 H 0.58082 0.36323 0.48341 0.0
H829 H 0.49702 0.38522 0.33021 0.0
H830 H 0.48309 0.39819 0.39563 0.0
H831 H 0.48721 0.37003 0.3976 0.0
C832 C 0.21611 0.52416 0.37596 0.0
C833 C 0.21405 0.52242 0.30776 0.0
C834 C 0.19924 0.53088 0.41464 0.0
C835 C 0.17945 0.53439 0.38499 0.0
C836 C 0.17714 0.5325 0.31633 0.0
C837 C 0.19463 0.52702 0.27842 0.0
C838 C 0.20273 0.53406 0.48705 0.0
C839 C 0.15631 0.53642 0.2824 0.0
C840 C 0.12989 0.52415 0.48123 0.0
C841 C 0.12068 0.5443 0.48145 0.0
C842 C 0.14954 0.52081 0.45201 0.0
C843 C 0.16066 0.53823 0.42565 0.0
C844 C 0.15253 0.5589 0.43195 0.0
C845 C 0.13242 0.56166 0.45886 0.0
C846 C 0.15772 0.49847 0.4455 0.0
C847 C 0.16484 0.57798 0.409 0.0
H848 H 0.23095 0.52038 0.39944 0.0
H849 H 0.19307 0.52653 0.22568 0.0
H850 H 0.19279 0.54704 0.50653 0.0
H851 H 0.19863 0.51936 0.51373 0.0
H852 H 0.21953 0.53775 0.49771 0.0
H853 H 0.1561 0.52973 0.2322 0.0
H854 H 0.14296 0.52952 0.31039 0.0
H855 H 0.1536 0.55368 0.2784 0.0
H856 H 0.12132 0.5108 0.50122 0.0
H857 H 0.12558 0.57733 0.45917 0.0
H858 H 0.17265 0.49673 0.47312 0.0
H859 H 0.16119 0.49489 0.39344 0.0
H860 H 0.14632 0.48656 0.46414 0.0
H861 H 0.17944 0.57945 0.43861 0.0
H862 H 0.15565 0.59284 0.41361 0.0
H863 H 0.16979 0.57616 0.3573 0.0
C864 C 1.01002 0.81981 0.0296 0.0
C865 C 0.01856 0.8185 0.09257 0.0
C866 C 1.01349 0.83771 0.99097 0.0
C867 C 0.0261 0.85424 0.01607 0.0
C868 C 0.03518 0.85267 0.07911 0.0
C869 C 0.03111 0.83481 0.11695 0.0
C870 C 1.00363 0.83898 0.92386 0.0
C871 C 0.04872 0.87008 0.10732 0.0
C872 C 0.04987 0.89765 0.91385 0.0
C873 C 0.03656 0.91455 0.93016 0.0
C874 C 0.04598 0.87737 0.93843 0.0
C875 C 0.02839 0.87413 0.97975 0.0
C876 C 1.0143 0.8908 0.99344 0.0
C877 C 0.01866 0.91087 0.96886 0.0
C878 C 0.0612 0.8597 0.92304 0.0
C879 C 0.99513 0.88764 0.03648 0.0
H880 H 1.00048 0.80691 1.01101 0.0
H881 H 0.038 0.83342 0.1653 0.0
H882 H 0.99542 0.8543 0.91708 0.0
H883 H 0.01615 0.83801 0.88608 0.0
H884 H 0.99216 0.82599 0.91526 0.0
H885 H 0.05641 0.8653 0.15386 0.0
H886 H 0.06116 0.8748 0.07197 0.0
H887 H 0.03882 0.88419 0.11694 0.0
H888 H 0.06347 0.90033 0.88274 0.0
H889 H 1.00844 0.92387 0.98238 0.0
H890 H 0.05258 0.84609 0.90177 0.0
H891 H 0.06878 0.85408 0.96877 0.0
H892 H 0.07373 0.8647 0.88828 0.0
H893 H 0.98476 0.87534 0.01504 0.0
H894 H 0.98582 0.90238 0.04253 0.0
H895 H 0.99999 0.88201 0.08563 0.0
C896 C 0.71524 0.02081 0.02194 0.0
C897 C 0.71368 0.02075 0.09049 0.0
C898 C 0.69717 0.02098 0.98293 0.0
C899 C 0.67723 0.02259 1.01335 0.0
C900 C 0.6755 0.0223 0.08243 0.0
C901 C 0.69375 0.02063 0.12001 0.0
C902 C 0.69982 0.01994 0.90958 0.0
C903 C 0.65449 0.02419 0.11714 0.0
C904 C 0.63323 0.05105 0.92763 0.0
C905 C 0.61753 0.03536 0.92743 0.0
C906 C 0.65322 0.04695 0.95339 0.0
C907 C 0.65813 0.02624 0.97429 0.0
C908 C 0.64345 1.00973 0.9662 0.0
C909 C 0.62305 1.01461 0.94552 0.0
C910 C 0.66863 0.06502 0.96126 0.0
C911 C 0.64924 0.987 0.98017 0.0
H912 H 0.73054 0.02109 0.99829 0.0
H913 H 0.69235 0.01966 0.17274 0.0
H914 H 0.68504 1.01562 0.88376 0.0
H915 H 0.70536 0.03549 0.89121 0.0
H916 H 0.71217 1.0082 0.89671 0.0
H917 H 0.6564 0.02778 0.16998 0.0
H918 H 0.64468 0.03679 0.09474 0.0
H919 H 0.6457 1.0091 0.11301 0.0
H920 H 0.6298 0.06679 0.90993 0.0
H921 H 0.61143 1.0021 0.9457 0.0
H922 H 0.68224 0.06271 0.92798 0.0
H923 H 0.6748 0.06551 1.01205 0.0
H924 H 0.66137 0.08056 0.94985 0.0
H925 H 0.66203 0.98213 0.94627 0.0
H926 H 0.63565 0.9761 0.97386 0.0
H927 H 0.65543 0.98515 0.03051 0.0
C928 C 0.48853 0.71632 0.03725 0.0
C929 C 0.507 0.71785 0.07429 0.0
C930 C 0.48519 0.69901 0.99649 0.0
C931 C 0.50083 0.68317 0.99292 0.0
C932 C 0.52032 0.68567 0.02568 0.0
C933 C 0.5231 0.70299 0.06705 0.0
C934 C 0.46435 0.69688 0.96134 0.0
C935 C 0.53769 0.66949 0.01972 0.0
C936 C 0.48313 0.62673 0.98061 0.0
C937 C 0.48753 0.62227 0.91528 0.0
C938 C 0.48698 0.64678 1.00591 0.0
C939 C 0.49547 0.66257 0.96445 0.0
C940 C 0.49921 0.65838 0.89754 0.0
C941 C 0.49523 0.63803 0.87362 0.0
C942 C 0.48255 0.65086 0.07744 0.0
C943 C 0.5081 0.67494 0.85189 0.0
H944 H 0.47624 0.7281 0.04287 0.0
H945 H 0.53756 0.70468 0.09487 0.0
H946 H 0.46682 0.6916 0.91018 0.0
H947 H 0.4546 0.68473 0.98633 0.0
H948 H 0.45542 0.71198 0.96077 0.0
H949 H 0.55241 0.67459 0.04463 0.0
H950 H 0.53246 0.65429 0.04151 0.0
H951 H 0.54122 0.66654 0.96733 0.0
H952 H 0.47727 0.61428 1.01234 0.0
H953 H 0.4983 0.63432 0.82286 0.0
H954 H 0.47208 0.6648 0.08284 0.0
H955 H 0.49751 0.65445 0.10331 0.0
H956 H 0.47495 0.63712 0.10187 0.0
H957 H 0.50213 0.67267 0.80137 0.0
H958 H 0.52554 0.67344 0.85082 0.0
H959 H 0.50423 0.69125 0.86749 0.0
C960 C 0.81503 0.50503 0.01822 0.0
C961 C 0.81749 0.50849 0.08563 0.0
C962 C 0.83244 0.50513 0.97625 0.0
C963 C 0.85278 0.50775 1.00296 0.0
C964 C 0.85535 0.51206 0.07041 0.0
C965 C 0.83759 0.51263 0.11087 0.0
C966 C 0.82901 0.50126 0.90418 0.0
C967 C 0.87692 0.51529 0.10025 0.0
C968 C 0.8989 0.47743 0.93747 0.0
C969 C 0.91143 0.49364 0.91146 0.0
C970 C 0.87897 0.4817 0.96304 0.0
C971 C 0.87156 0.50275 0.96348 0.0
C972 C 0.88338 0.519 0.93327 0.0
C973 C 0.90321 0.51419 0.90686 0.0
C974 C 0.86653 0.46389 0.99395 0.0
C975 C 0.87535 0.54144 0.93031 0.0
H976 H 0.79956 0.50166 0.99822 0.0
H977 H 0.8395 0.51601 0.16248 0.0
H978 H 0.84095 0.50959 0.87388 0.0
H979 H 0.83034 0.48409 0.89416 0.0
H980 H 0.81304 0.50646 0.88869 0.0
H981 H 0.87614 0.51817 0.15378 0.0
H982 H 0.88691 0.50118 0.09153 0.0
H983 H 0.88483 0.52897 0.07664 0.0
H984 H 0.90514 0.46156 0.94153 0.0
H985 H 0.91256 0.52662 0.8846 0.0
H986 H 0.85037 0.46332 0.97327 0.0
H987 H 0.86501 0.46667 0.04734 0.0
H988 H 0.87408 0.44826 0.98634 0.0
H989 H 0.86196 0.54228 0.89549 0.0
H990 H 0.88774 0.5527 0.91392 0.0
H991 H 0.86938 0.54662 0.97874 0.0
C992 C 1.00436 0.18668 0.78602 0.0
C993 C 0.02296 0.19637 0.80871 0.0
C994 C 1.00423 0.16558 0.76273 0.0
C995 C 0.02326 0.15366 0.76093 0.0
C996 C 0.04232 0.16405 0.77853 0.0
C997 C 0.0419 0.18497 0.80321 0.0
C998 C 0.98334 0.156 0.74345 0.0
C999 C 0.06326 0.15297 0.77145 0.0
C1000 C 0.02249 0.09357 0.79154 0.0
C1001 C 0.02285 0.08498 0.72826 0.0
C1002 C 0.02213 0.11566 0.80214 0.0
C1003 C 0.02305 0.12993 0.74846 0.0
C1004 C 0.02387 0.12133 0.68422 0.0
C1005 C 0.02331 0.09909 0.67496 0.0
C1006 C 0.02037 0.12379 0.87126 0.0
C1007 C 0.02515 0.13557 0.62513 0.0
H1008 H 0.98963 0.19534 0.78891 0.0
H1009 H 0.05648 0.19247 0.8183 0.0
H1010 H 0.98506 0.14252 0.70933 0.0
H1011 H 0.97522 0.15023 0.78815 0.0
H1012 H 0.97303 0.16805 0.72024 0.0
H1013 H 0.07673 0.16315 0.78616 0.0
H1014 H 0.06348 0.13838 0.80159 0.0
H1015 H 0.06553 0.14814 0.71974 0.0
H1016 H 0.02183 0.08293 0.83311 0.0
H1017 H 0.02359 0.09272 0.6258 0.0
H1018 H 1.00636 0.13422 0.87558 0.0
H1019 H 0.03447 0.13342 0.8835 0.0
H1020 H 0.01893 0.11083 0.90766 0.0
H1021 H 1.0102 0.1445 0.61996 0.0
H1022 H 0.02797 0.12659 0.57929 0.0
H1023 H 0.038 0.14733 0.63133 0.0
C1024 C 0.34261 0.0182 0.75061 0.0
C1025 C 0.33674 0.02511 0.81371 0.0
C1026 C 0.36384 0.01903 0.72839 0.0
C1027 C 0.3801 0.02633 0.77065 0.0
C1028 C 0.37425 0.03357 0.83385 0.0
C1029 C 0.35288 0.0332 0.85388 0.0
C1030 C 0.36854 1.01178 0.6596 0.0
C1031 C 0.3906 0.0418 0.88109 0.0
C1032 C 0.43676 1.00593 0.74508 0.0
C1033 C 0.44795 0.02436 0.7289 0.0
C1034 C 0.41481 1.00629 0.75765 0.0
C1035 C 0.40327 0.02544 0.75136 0.0
C1036 C 0.41439 0.0439 0.73121 0.0
C1037 C 0.43657 0.04325 0.7218 0.0
C1038 C 0.40406 0.98606 0.77819 0.0
C1039 C 0.40279 0.06414 0.71621 0.0
H1040 H 0.33069 1.01177 0.71833 0.0
H1041 H 0.34889 0.03939 0.90163 0.0
H1042 H 0.38328 0.01878 0.6398 0.0
H1043 H 0.37007 0.99432 0.6591 0.0
H1044 H 0.35531 1.0159 0.62642 0.0
H1045 H 0.38437 0.04287 0.93177 0.0
H1046 H 0.4048 0.03154 0.88143 0.0
H1047 H 0.39563 0.05785 0.86566 0.0
H1048 H 0.44535 0.99119 0.74975 0.0
H1049 H 0.44495 0.05742 0.7071 0.0
H1050 H 0.39438 0.98006 0.73708 0.0
H1051 H 0.39338 0.98884 0.82035 0.0
H1052 H 0.41559 0.97359 0.7918 0.0
H1053 H 0.39459 0.06236 0.66855 0.0
H1054 H 0.41368 0.07786 0.71269 0.0
H1055 H 0.39056 0.0676 0.75344 0.0
C1056 C 0.49675 0.35132 0.8392 0.0
C1057 C 0.51213 0.33715 0.81615 0.0
C1058 C 0.49577 0.37248 0.81705 0.0
C1059 C 0.51057 0.38014 0.77051 0.0
C1060 C 0.52548 0.36565 0.7443 0.0
C1061 C 0.52612 0.34451 0.76743 0.0
C1062 C 0.47886 0.38679 0.84413 0.0
C1063 C 0.54147 0.37241 0.6936 0.0
C1064 C 0.49887 0.43455 0.69256 0.0
C1065 C 0.51004 0.44831 0.73378 0.0
C1066 C 0.4993 0.41236 0.70239 0.0
C1067 C 0.51132 0.40357 0.75447 0.0
C1068 C 0.52329 0.41749 0.7943 0.0
C1069 C 0.52237 0.43957 0.78388 0.0
C1070 C 0.48714 0.39828 0.6564 0.0
C1071 C 0.53722 0.409 0.84802 0.0
H1072 H 0.48535 0.34586 0.87493 0.0
H1073 H 0.53808 0.33392 0.74851 0.0
H1074 H 0.48616 0.40089 0.86708 0.0
H1075 H 0.46865 0.39245 0.80368 0.0
H1076 H 0.46881 0.37872 0.88105 0.0
H1077 H 0.54491 0.35925 0.65927 0.0
H1078 H 0.53619 0.3863 0.66483 0.0
H1079 H 0.55644 0.37659 0.71856 0.0
H1080 H 0.4898 0.44116 0.65255 0.0
H1081 H 0.53153 0.45006 0.8147 0.0
H1082 H 0.47591 0.38828 0.68434 0.0
H1083 H 0.49822 0.38752 0.63077 0.0
H1084 H 0.47824 0.40746 0.61918 0.0
H1085 H 0.52747 0.40049 0.8847 0.0
H1086 H 0.54619 0.42169 0.87319 0.0
H1087 H 0.5486 0.39748 0.82735 0.0
C1088 C 0.18896 0.50008 0.76092 0.0
C1089 C 0.19504 0.51142 0.81719 0.0
C1090 C 0.16777 0.5001 0.73811 0.0
C1091 C 0.15209 0.51214 0.77112 0.0
C1092 C 0.15851 0.52458 0.82542 0.0
C1093 C 0.17958 0.52377 0.84818 0.0
C1094 C 0.16214 0.48704 0.67894 0.0
C1095 C 0.14309 0.53847 0.86158 0.0
C1096 C 0.0975 0.52439 0.69524 0.0
C1097 C 0.08402 0.51043 0.72918 0.0
C1098 C 0.11959 0.52478 0.70657 0.0
C1099 C 0.12884 0.5107 0.75264 0.0
C1100 C 0.11541 0.49606 0.78508 0.0
C1101 C 0.09338 0.49615 0.77333 0.0
C1102 C 0.13294 0.54059 0.66985 0.0
C1103 C 0.12438 0.48027 0.8329 0.0
H1104 H 0.20067 0.49063 0.73573 0.0
H1105 H 0.18398 0.53305 0.89054 0.0
H1106 H 0.14821 0.47694 0.68939 0.0
H1107 H 0.15788 0.49764 0.63779 0.0
H1108 H 0.1754 0.4768 0.66294 0.0
H1109 H 0.15121 0.55238 0.88315 0.0
H1110 H 0.13021 0.54424 0.82953 0.0
H1111 H 0.13595 0.52926 0.90218 0.0
H1112 H 0.09075 0.53538 0.6604 0.0
H1113 H 0.08343 0.48504 0.79944 0.0
H1114 H 0.14315 0.53219 0.63437 0.0
H1115 H 0.1434 0.54929 0.70405 0.0
H1116 H 0.12321 0.55221 0.64247 0.0
H1117 H 0.13631 0.47029 0.80792 0.0
H1118 H 0.11205 0.46984 0.85421 0.0
H1119 H 0.13253 0.48866 0.87328 0.0
C1120 C 0.99885 0.84454 0.61318 0.0
C1121 C 0.01668 0.83684 0.57945 0.0
C1122 C 0.99782 0.86559 0.63689 0.0
C1123 C 1.01491 0.87977 0.62628 0.0
C1124 C 0.03349 0.87164 0.5967 0.0
C1125 C 0.03409 0.85055 0.57328 0.0
C1126 C 0.97816 0.87255 0.6724 0.0
C1127 C 0.05292 0.88527 0.59016 0.0
C1128 C 1.00355 0.93942 0.60712 0.0
C1129 C 1.01213 0.94828 0.66434 0.0
C1130 C 1.00406 0.91734 0.59522 0.0
C1131 C 1.01305 0.90328 0.64181 0.0
C1132 C 0.02099 0.91208 0.70091 0.0
C1133 C 0.02064 0.93425 0.71091 0.0
C1134 C 0.99529 0.90903 0.5317 0.0
C1135 C 0.02979 0.89849 0.75501 0.0
H1136 H 0.98531 0.83428 0.61968 0.0
H1137 H 0.04834 0.84477 0.55015 0.0
H1138 H 0.98154 0.88514 0.70867 0.0
H1139 H 0.96666 0.87881 0.63637 0.0
H1140 H 0.97059 0.85905 0.69816 0.0
H1141 H 0.06592 0.87707 0.56408 0.0
H1142 H 0.04904 0.90007 0.56361 0.0
H1143 H 0.05859 0.88976 0.6396 0.0
H1144 H 0.99683 0.94982 0.57052 0.0
H1145 H 0.02717 0.94056 0.75572 0.0
H1146 H 0.98202 0.89806 0.54189 0.0
H1147 H 1.00762 0.89995 0.50533 0.0
H1148 H 0.9895 0.92186 0.49926 0.0
H1149 H 0.01954 0.90007 0.79882 0.0
H1150 H 0.0457 0.90434 0.7688 0.0
H1151 H 0.03091 0.88152 0.74235 0.0
C1152 C 0.6824 0.03402 0.57715 0.0
C1153 C 0.69516 1.01588 0.5726 0.0
C1154 C 0.6613 0.03301 0.60041 0.0
C1155 C 0.65213 1.0133 0.61817 0.0
C1156 C 0.66529 0.9951 0.61674 0.0
C1157 C 0.68645 0.99663 0.59437 0.0
C1158 C 0.64871 0.05314 0.60596 0.0
C1159 C 0.65709 0.97366 0.63672 0.0
C1160 C 0.59843 1.01421 0.70901 0.0
C1161 C 0.58379 1.01076 0.65842 0.0
C1162 C 0.62054 1.01421 0.6977 0.0
C1163 C 0.62858 1.01165 0.63323 0.0
C1164 C 0.61385 1.00795 0.58204 0.0
C1165 C 0.59186 1.00727 0.59523 0.0
C1166 C 0.63513 0.01716 0.75521 0.0
C1167 C 0.62139 1.00508 0.51265 0.0
H1168 H 0.68899 0.04913 0.56272 0.0
H1169 H 0.69601 0.98246 0.59203 0.0
H1170 H 0.6341 0.05196 0.57629 0.0
H1171 H 0.64385 0.05552 0.65759 0.0
H1172 H 0.65782 0.06721 0.58971 0.0
H1173 H 0.66978 0.96413 0.65984 0.0
H1174 H 0.64363 0.97468 0.67128 0.0
H1175 H 0.65176 0.9651 0.59237 0.0
H1176 H 0.59259 0.01677 0.75798 0.0
H1177 H 0.58091 1.00468 0.55537 0.0
H1178 H 0.6398 0.03401 0.75851 0.0
H1179 H 0.64969 1.00758 0.74986 0.0
H1180 H 0.6273 1.01268 0.80181 0.0
H1181 H 0.62983 0.01954 0.49627 0.0
H1182 H 0.60822 1.0019 0.47824 0.0
H1183 H 0.63277 0.99178 0.51024 0.0
C1184 C 0.53435 0.6856 0.58375 0.0
C1185 C 0.5149 0.69614 0.58751 0.0
C1186 C 0.53661 0.66425 0.60356 0.0
C1187 C 0.51896 0.65282 0.62826 0.0
C1188 C 0.4996 0.66393 0.63633 0.0
C1189 C 0.49774 0.68524 0.61527 0.0
C1190 C 0.55799 0.65416 0.59526 0.0
C1191 C 0.48082 0.65333 0.6679 0.0
C1192 C 0.51478 0.5926 0.60171 0.0
C1193 C 0.52153 0.58419 0.66168 0.0
C1194 C 0.51375 0.6147 0.59092 0.0
C1195 C 0.52012 0.62907 0.64053 0.0
C1196 C 0.52775 0.62052 0.7005 0.0
C1197 C 0.52789 0.59834 0.71077 0.0
C1198 C 0.50584 0.62271 0.52589 0.0
C1199 C 0.53687 0.63453 0.75286 0.0
H1200 H 0.54783 0.69393 0.56358 0.0
H1201 H 0.48279 0.69339 0.62023 0.0
H1202 H 0.55952 0.63871 0.62031 0.0
H1203 H 0.56107 0.65183 0.54232 0.0
H1204 H 0.57044 0.66492 0.6141 0.0
H1205 H 0.46658 0.66355 0.66766 0.0
H1206 H 0.47702 0.6383 0.64271 0.0
H1207 H 0.48473 0.64931 0.7193 0.0
H1208 H 0.50974 0.58185 0.56356 0.0
H1209 H 0.53348 0.59203 0.75694 0.0
H1210 H 0.51764 0.63358 0.50386 0.0
H1211 H 0.49108 0.63182 0.53314 0.0
H1212 H 0.5026 0.60969 0.49094 0.0
H1213 H 0.55384 0.63721 0.74229 0.0
H1214 H 0.53577 0.62704 0.80194 0.0
H1215 H 0.52902 0.65013 0.75391 0.0
C1216 C 0.84145 0.52355 0.63455 0.0
C1217 C 0.83604 0.51161 0.57859 0.0
C1218 C 0.86245 0.52441 0.65885 0.0
C1219 C 0.87896 0.51361 0.62575 0.0
C1220 C 0.87347 0.50082 0.57135 0.0
C1221 C 0.85234 0.49988 0.54898 0.0
C1222 C 0.86688 0.53725 0.71946 0.0
C1223 C 0.89002 0.48787 0.5367 0.0
C1224 C 0.93666 0.53319 0.62744 0.0
C1225 C 0.94686 0.51837 0.66786 0.0
C1226 C 0.91457 0.5324 0.61631 0.0
C1227 C 0.90204 0.51621 0.64509 0.0
C1228 C 0.91213 0.5017 0.68797 0.0
C1229 C 0.93418 0.50304 0.699 0.0
C1230 C 0.90458 0.54886 0.57284 0.0
C1231 C 0.89972 0.48483 0.72338 0.0
H1232 H 0.82938 0.53271 0.65903 0.0
H1233 H 0.84864 0.48976 0.50793 0.0
H1234 H 0.87946 0.52996 0.74971 0.0
H1235 H 0.87226 0.55325 0.70484 0.0
H1236 H 0.85249 0.53902 0.75009 0.0
H1237 H 0.88372 0.47988 0.4925 0.0
H1238 H 0.90351 0.49803 0.52199 0.0
H1239 H 0.8962 0.47564 0.57061 0.0
H1240 H 0.94596 0.54541 0.60396 0.0
H1241 H 0.94153 0.49167 0.7314 0.0
H1242 H 0.89231 0.55756 0.60065 0.0
H1243 H 0.89664 0.5411 0.53087 0.0
H1244 H 0.91627 0.56043 0.55378 0.0
H1245 H 0.89184 0.49201 0.76643 0.0
H1246 H 0.91007 0.47188 0.74112 0.0
H1247 H 0.88729 0.47793 0.69178 0.0
loop_
_geom_bond_atom_site_label_1
_geom_bond_atom_site_label_2
_geom_bond_distance
_geom_bond_site_symmetry_2
_ccdc_geom_bond_type
C0 C1 1.264 . S
C0 C5 1.479 . S
C0 C10 1.465 . S
C1 C0 1.264 . S
C1 C3 1.339 . S
C1 H28 0.931 . S
C2 C3 1.395 . S
C2 C4 1.320 . S
C3 C1 1.339 . S
C3 C2 1.395 . S
C3 H29 0.929 . S
C4 C2 1.320 . S
C4 C5 1.405 . S
C4 H30 0.930 . S
C5 C0 1.479 . S
C5 C4 1.405 . S
C5 H31 0.931 . S
U6 O7 2.454 . S
U6 O8 2.458 . S
U6 C9 2.984 . S
U6 C10 2.847 . S
U6 C23 2.882 . S
U6 O24 2.441 . S
U6 O25 2.420 . S
U6 O26 2.455 . S
U6 O27 2.449 . S
O7 U6 2.454 . S
O7 C9 1.353 . S
O8 U6 2.458 . S
O8 C9 1.286 . S
C9 U6 2.984 . S
C9 O7 1.353 . S
C9 O8 1.286 . S
C9 C11 1.363 . S
C10 C0 1.465 . S
C10 U6 2.847 . S
C10 O24 1.249 . S
C10 O25 1.202 . S
C11 C9 1.363 . S
C11 C13 1.408 . S
C11 C16 1.342 . S
C12 C13 1.310 . S
C12 C15 1.461 . S
C12 H32 0.932 . S
C13 C11 1.408 . S
C13 C12 1.310 . S
C13 H33 0.930 . S
C14 C15 1.474 . S
C14 C16 1.285 . S
C14 H34 0.929 . S
C15 C12 1.461 . S
C15 C14 1.474 . S
C16 C11 1.342 . S
C16 C14 1.285 . S
C16 H35 0.930 . S
C17 C20 1.424 . S
C17 C22 1.245 . S
C17 C23 1.428 . S
C18 C21 1.260 . S
C18 C22 1.477 . S
C18 H36 0.932 . S
C19 C20 1.384 . S
C19 C21 1.479 . S
C19 H37 0.929 . S
C20 C17 1.424 . S
C20 C19 1.384 . S
C20 H38 0.928 . S
C21 C18 1.260 . S
C21 C19 1.479 . S
C22 C17 1.245 . S
C22 C18 1.477 . S
C22 H39 0.932 . S
C23 U6 2.882 . S
C23 C17 1.428 . S
C23 O26 1.301 . S
C23 O27 1.282 . S
O24 U6 2.441 . S
O24 C10 1.249 . S
O25 U6 2.420 . S
O25 C10 1.202 . S
O26 U6 2.455 . S
O26 C23 1.301 . S
O27 U6 2.449 . S
O27 C23 1.282 . S
H28 C1 0.931 . S
H29 C3 0.929 . S
H30 C4 0.930 . S
H31 C5 0.931 . S
H32 C12 0.932 . S
H33 C13 0.930 . S
H34 C14 0.929 . S
H35 C16 0.930 . S
H36 C18 0.932 . S
H37 C19 0.929 . S
H38 C20 0.928 . S
H39 C22 0.932 . S
C40 C41 1.264 . S
C40 C45 1.479 . S
C40 C50 1.465 . S
C41 C40 1.264 . S
C41 C43 1.339 . S
C41 H68 0.931 . S
C42 C43 1.395 . S
C42 C44 1.320 . S
C43 C41 1.339 . S
C43 C42 1.395 . S
C43 H69 0.929 . S
C44 C42 1.320 . S
C44 C45 1.405 . S
C44 H70 0.921 1_455 S
C45 C40 1.479 . S
C45 C44 1.405 . S
C45 H71 0.931 . S
U46 O47 2.454 . S
U46 O48 2.458 . S
U46 C49 2.984 . S
U46 C50 2.847 . S
U46 C63 2.882 . S
U46 O64 2.441 . S
U46 O65 2.420 . S
U46 O66 2.455 . S
U46 O67 2.449 . S
O47 U46 2.454 . S
O47 C49 1.353 . S
O48 U46 2.458 . S
O48 C49 1.286 . S
C49 U46 2.984 . S
C49 O47 1.353 . S
C49 O48 1.286 . S
C49 C51 1.363 . S
C50 C40 1.465 . S
C50 U46 2.847 . S
C50 O64 1.249 . S
C50 O65 1.202 . S
C51 C49 1.363 . S
C51 C53 1.408 . S
C51 C56 1.342 . S
C52 C53 1.310 . S
C52 C55 1.461 . S
C52 H72 0.932 . S
C53 C51 1.408 . S
C53 C52 1.310 . S
C53 H73 0.930 . S
C54 C55 1.474 1_655 S
C54 C56 1.285 1_655 S
C54 H74 0.930 . S
C55 C52 1.461 . S
C55 C54 1.474 1_455 S
C56 C51 1.342 . S
C56 C54 1.285 1_455 S
C56 H75 0.932 . S
C57 C60 1.424 . S
C57 C62 1.245 . S
C57 C63 1.428 . S
C58 C61 1.260 . S
C58 C62 1.477 . S
C58 H76 0.932 . S
C59 C60 1.384 . S
C59 C61 1.479 . S
C59 H77 0.929 . S
C60 C57 1.424 . S
C60 C59 1.384 . S
C60 H78 0.928 . S
C61 C58 1.260 . S
C61 C59 1.479 . S
C62 C57 1.245 . S
C62 C58 1.477 . S
C62 H79 0.932 . S
C63 U46 2.882 . S
C63 C57 1.428 . S
C63 O66 1.301 . S
C63 O67 1.282 . S
O64 U46 2.441 . S
O64 C50 1.249 . S
O65 U46 2.420 . S
O65 C50 1.202 . S
O66 U46 2.455 . S
O66 C63 1.301 . S
O67 U46 2.449 . S
O67 C63 1.282 . S
H68 C41 0.931 . S
H69 C43 0.929 . S
H70 C44 0.921 1_655 S
H71 C45 0.931 . S
H72 C52 0.932 . S
H73 C53 0.930 . S
H74 C54 0.930 . S
H75 C56 0.932 . S
H76 C58 0.932 . S
H77 C59 0.929 . S
H78 C60 0.928 . S
H79 C62 0.932 . S
C80 C81 1.264 . S
C80 C85 1.479 . S
C80 C90 1.465 . S
C81 C80 1.264 . S
C81 C83 1.339 . S
C81 H108 0.931 . S
C82 C83 1.395 . S
C82 C84 1.320 . S
C83 C81 1.339 . S
C83 C82 1.395 . S
C83 H109 0.929 . S
C84 C82 1.320 . S
C84 C85 1.405 . S
C84 H110 0.921 1_545 S
C85 C80 1.479 . S
C85 C84 1.405 . S
C85 H111 0.931 . S
U86 O87 2.454 . S
U86 O88 2.458 . S
U86 C89 2.984 . S
U86 C90 2.847 . S
U86 C103 2.882 . S
U86 O104 2.441 . S
U86 O105 2.420 . S
U86 O106 2.455 . S
U86 O107 2.449 . S
O87 U86 2.454 . S
O87 C89 1.353 . S
O88 U86 2.458 . S
O88 C89 1.286 . S
C89 U86 2.984 . S
C89 O87 1.353 . S
C89 O88 1.286 . S
C89 C91 1.363 . S
C90 C80 1.465 . S
C90 U86 2.847 . S
C90 O104 1.249 . S
C90 O105 1.202 . S
C91 C89 1.363 . S
C91 C93 1.408 . S
C91 C96 1.342 . S
C92 C93 1.310 . S
C92 C95 1.461 . S
C92 H112 0.932 . S
C93 C91 1.408 . S
C93 C92 1.310 . S
C93 H113 0.930 . S
C94 C95 1.474 1_565 S
C94 C96 1.285 1_565 S
C94 H114 0.930 . S
C95 C92 1.461 . S
C95 C94 1.474 1_545 S
C96 C91 1.342 . S
C96 C94 1.285 1_545 S
C96 H115 0.932 . S
C97 C100 1.424 . S
C97 C102 1.245 . S
C97 C103 1.428 . S
C98 C101 1.260 . S
C98 C102 1.477 . S
C98 H116 0.932 . S
C99 C100 1.384 . S
C99 C101 1.479 . S
C99 H117 0.929 . S
C100 C97 1.424 . S
C100 C99 1.384 . S
C100 H118 0.928 . S
C101 C98 1.260 . S
C101 C99 1.479 . S
C102 C97 1.245 . S
C102 C98 1.477 . S
C102 H119 0.932 . S
C103 U86 2.882 . S
C103 C97 1.428 . S
C103 O106 1.301 . S
C103 O107 1.282 . S
O104 U86 2.441 . S
O104 C90 1.249 . S
O105 U86 2.420 . S
O105 C90 1.202 . S
O106 U86 2.455 . S
O106 C103 1.301 . S
O107 U86 2.449 . S
O107 C103 1.282 . S
H108 C81 0.931 . S
H109 C83 0.929 . S
H110 C84 0.921 1_565 S
H111 C85 0.931 . S
H112 C92 0.932 . S
H113 C93 0.930 . S
H114 C94 0.930 . S
H115 C96 0.932 . S
H116 C98 0.932 . S
H117 C99 0.929 . S
H118 C100 0.928 . S
H119 C102 0.932 . S
C120 C121 1.264 . S
C120 C125 1.479 . S
C120 C130 1.465 . S
C121 C120 1.264 . S
C121 C123 1.339 . S
C121 H148 0.931 . S
C122 C123 1.395 . S
C122 C124 1.320 . S
C123 C121 1.339 . S
C123 C122 1.395 . S
C123 H149 0.929 . S
C124 C122 1.320 . S
C124 C125 1.405 . S
C124 H150 0.930 . S
C125 C120 1.479 . S
C125 C124 1.405 . S
C125 H151 0.931 . S
U126 O127 2.454 . S
U126 O128 2.458 . S
U126 C129 2.984 . S
U126 C130 2.847 . S
U126 C143 2.882 . S
U126 O144 2.441 . S
U126 O145 2.420 . S
U126 O146 2.455 . S
U126 O147 2.449 . S
O127 U126 2.454 . S
O127 C129 1.353 . S
O128 U126 2.458 . S
O128 C129 1.286 . S
C129 U126 2.984 . S
C129 O127 1.353 . S
C129 O128 1.286 . S
C129 C131 1.363 . S
C130 C120 1.465 . S
C130 U126 2.847 . S
C130 O144 1.249 . S
C130 O145 1.202 . S
C131 C129 1.363 . S
C131 C133 1.408 . S
C131 C136 1.342 . S
C132 C133 1.310 . S
C132 C135 1.461 . S
C132 H152 0.932 . S
C133 C131 1.408 . S
C133 C132 1.310 . S
C133 H153 0.930 . S
C134 C135 1.474 . S
C134 C136 1.285 . S
C134 H154 0.929 . S
C135 C132 1.461 . S
C135 C134 1.474 . S
C136 C131 1.342 . S
C136 C134 1.285 . S
C136 H155 0.930 . S
C137 C140 1.424 . S
C137 C142 1.245 . S
C137 C143 1.428 . S
C138 C141 1.260 . S
C138 C142 1.477 . S
C138 H156 0.932 . S
C139 C140 1.384 . S
C139 C141 1.479 . S
C139 H157 0.929 . S
C140 C137 1.424 . S
C140 C139 1.384 . S
C140 H158 0.928 . S
C141 C138 1.260 . S
C141 C139 1.479 . S
C142 C137 1.245 . S
C142 C138 1.477 . S
C142 H159 0.932 . S
C143 U126 2.882 . S
C143 C137 1.428 . S
C143 O146 1.301 . S
C143 O147 1.282 . S
O144 U126 2.441 . S
O144 C130 1.249 . S
O145 U126 2.420 . S
O145 C130 1.202 . S
O146 U126 2.455 . S
O146 C143 1.301 . S
O147 U126 2.449 . S
O147 C143 1.282 . S
H148 C121 0.931 . S
H149 C123 0.929 . S
H150 C124 0.930 . S
H151 C125 0.931 . S
H152 C132 0.932 . S
H153 C133 0.930 . S
H154 C134 0.929 . S
H155 C136 0.930 . S
H156 C138 0.932 . S
H157 C139 0.929 . S
H158 C140 0.928 . S
H159 C142 0.932 . S
C160 C161 1.264 . S
C160 C165 1.479 . S
C160 C170 1.465 . S
C161 C160 1.264 . S
C161 C163 1.339 . S
C161 H188 0.931 . S
C162 C163 1.395 . S
C162 C164 1.320 . S
C163 C161 1.339 . S
C163 C162 1.395 . S
C163 H189 0.929 . S
C164 C162 1.320 . S
C164 C165 1.405 . S
C164 H190 0.930 . S
C165 C160 1.479 . S
C165 C164 1.405 . S
C165 H191 0.931 . S
U166 O167 2.454 . S
U166 O168 2.458 . S
U166 C169 2.984 . S
U166 C170 2.847 1_554 S
U166 C183 2.882 . S
U166 O184 2.441 1_554 S
U166 O185 2.420 1_554 S
U166 O186 2.455 . S
U166 O187 2.449 . S
O167 U166 2.454 . S
O167 C169 1.353 . S
O168 U166 2.458 . S
O168 C169 1.286 . S
C169 U166 2.984 . S
C169 O167 1.353 . S
C169 O168 1.286 . S
C169 C171 1.363 . S
C170 C160 1.465 . S
C170 U166 2.847 1_556 S
C170 O184 1.249 . S
C170 O185 1.202 . S
C171 C169 1.363 . S
C171 C173 1.408 . S
C171 C176 1.342 . S
C172 C173 1.310 . S
C172 C175 1.461 . S
C172 H192 0.932 . S
C173 C171 1.408 . S
C173 C172 1.310 . S
C173 H193 0.930 . S
C174 C175 1.474 . S
C174 C176 1.285 . S
C174 H194 0.929 . S
C175 C172 1.461 . S
C175 C174 1.474 . S
C176 C171 1.342 . S
C176 C174 1.285 . S
C176 H195 0.930 . S
C177 C180 1.424 . S
C177 C182 1.245 . S
C177 C183 1.428 . S
C178 C181 1.260 . S
C178 C182 1.477 . S
C178 H196 0.932 . S
C179 C180 1.384 . S
C179 C181 1.479 . S
C179 H197 0.929 . S
C180 C177 1.424 . S
C180 C179 1.384 . S
C180 H198 0.928 . S
C181 C178 1.260 . S
C181 C179 1.479 . S
C182 C177 1.245 . S
C182 C178 1.477 . S
C182 H199 0.932 . S
C183 U166 2.882 . S
C183 C177 1.428 . S
C183 O186 1.301 . S
C183 O187 1.282 . S
O184 U166 2.441 1_556 S
O184 C170 1.249 . S
O185 U166 2.420 1_556 S
O185 C170 1.202 . S
O186 U166 2.455 . S
O186 C183 1.301 . S
O187 U166 2.449 . S
O187 C183 1.282 . S
H188 C161 0.931 . S
H189 C163 0.929 . S
H190 C164 0.930 . S
H191 C165 0.931 . S
H192 C172 0.932 . S
H193 C173 0.930 . S
H194 C174 0.929 . S
H195 C176 0.930 . S
H196 C178 0.932 . S
H197 C179 0.929 . S
H198 C180 0.928 . S
H199 C182 0.932 . S
C200 C201 1.264 . S
C200 C205 1.479 . S
C200 C210 1.465 . S
C201 C200 1.264 . S
C201 C203 1.339 . S
C201 H228 0.931 . S
C202 C203 1.395 . S
C202 C204 1.320 . S
C203 C201 1.339 . S
C203 C202 1.395 . S
C203 H229 0.929 . S
C204 C202 1.320 . S
C204 C205 1.405 . S
C204 H230 0.923 1_455 S
C205 C200 1.479 . S
C205 C204 1.405 . S
C205 H231 0.931 . S
U206 O207 2.454 . S
U206 O208 2.458 . S
U206 C209 2.984 . S
U206 C210 2.847 1_554 S
U206 C223 2.882 . S
U206 O224 2.441 1_554 S
U206 O225 2.420 1_554 S
U206 O226 2.455 . S
U206 O227 2.449 . S
O207 U206 2.454 . S
O207 C209 1.353 . S
O208 U206 2.458 . S
O208 C209 1.286 . S
C209 U206 2.984 . S
C209 O207 1.353 . S
C209 O208 1.286 . S
C209 C211 1.363 . S
C210 C200 1.465 . S
C210 U206 2.847 1_556 S
C210 O224 1.249 . S
C210 O225 1.202 . S
C211 C209 1.363 . S
C211 C213 1.408 . S
C211 C216 1.342 . S
C212 C213 1.310 . S
C212 C215 1.462 . S
C212 H232 0.932 . S
C213 C211 1.408 . S
C213 C212 1.310 . S
C213 H233 0.930 . S
C214 C215 1.474 1_655 S
C214 C216 1.286 1_655 S
C214 H234 0.929 . S
C215 C212 1.462 . S
C215 C214 1.474 1_455 S
C216 C211 1.342 . S
C216 C214 1.286 1_455 S
C216 H235 0.933 . S
C217 C220 1.424 . S
C217 C222 1.245 . S
C217 C223 1.428 . S
C218 C221 1.260 . S
C218 C222 1.477 . S
C218 H236 0.932 . S
C219 C220 1.384 . S
C219 C221 1.479 . S
C219 H237 0.929 . S
C220 C217 1.424 . S
C220 C219 1.384 . S
C220 H238 0.928 . S
C221 C218 1.260 . S
C221 C219 1.479 . S
C222 C217 1.245 . S
C222 C218 1.477 . S
C222 H239 0.932 . S
C223 U206 2.882 . S
C223 C217 1.428 . S
C223 O226 1.301 . S
C223 O227 1.282 . S
O224 U206 2.441 1_556 S
O224 C210 1.249 . S
O225 U206 2.420 1_556 S
O225 C210 1.202 . S
O226 U206 2.455 . S
O226 C223 1.301 . S
O227 U206 2.449 . S
O227 C223 1.282 . S
H228 C201 0.931 . S
H229 C203 0.929 . S
H230 C204 0.923 1_655 S
H231 C205 0.931 . S
H232 C212 0.932 . S
H233 C213 0.930 . S
H234 C214 0.929 . S
H235 C216 0.933 . S
H236 C218 0.932 . S
H237 C219 0.929 . S
H238 C220 0.928 . S
H239 C222 0.932 . S
C240 C241 1.264 . S
C240 C245 1.479 . S
C240 C250 1.465 . S
C241 C240 1.264 . S
C241 C243 1.339 . S
C241 H268 0.931 . S
C242 C243 1.395 . S
C242 C244 1.320 . S
C243 C241 1.339 . S
C243 C242 1.395 . S
C243 H269 0.929 . S
C244 C242 1.320 . S
C244 C245 1.405 . S
C244 H270 0.923 1_545 S
C245 C240 1.479 . S
C245 C244 1.405 . S
C245 H271 0.931 . S
U246 O247 2.454 . S
U246 O248 2.458 . S
U246 C249 2.984 . S
U246 C250 2.847 1_554 S
U246 C263 2.882 . S
U246 O264 2.441 1_554 S
U246 O265 2.420 1_554 S
U246 O266 2.455 . S
U246 O267 2.449 . S
O247 U246 2.454 . S
O247 C249 1.353 . S
O248 U246 2.458 . S
O248 C249 1.286 . S
C249 U246 2.984 . S
C249 O247 1.353 . S
C249 O248 1.286 . S
C249 C251 1.363 . S
C250 C240 1.465 . S
C250 U246 2.847 1_556 S
C250 O264 1.249 . S
C250 O265 1.202 . S
C251 C249 1.363 . S
C251 C253 1.408 . S
C251 C256 1.342 . S
C252 C253 1.310 . S
C252 C255 1.462 . S
C252 H272 0.932 . S
C253 C251 1.408 . S
C253 C252 1.310 . S
C253 H273 0.930 . S
C254 C255 1.474 1_565 S
C254 C256 1.286 1_565 S
C254 H274 0.929 . S
C255 C252 1.462 . S
C255 C254 1.474 1_545 S
C256 C251 1.342 . S
C256 C254 1.286 1_545 S
C256 H275 0.933 . S
C257 C260 1.424 . S
C257 C262 1.245 . S
C257 C263 1.428 . S
C258 C261 1.260 . S
C258 C262 1.477 . S
C258 H276 0.932 . S
C259 C260 1.384 . S
C259 C261 1.479 . S
C259 H277 0.929 . S
C260 C257 1.424 . S
C260 C259 1.384 . S
C260 H278 0.928 . S
C261 C258 1.260 . S
C261 C259 1.479 . S
C262 C257 1.245 . S
C262 C258 1.477 . S
C262 H279 0.932 . S
C263 U246 2.882 . S
C263 C257 1.428 . S
C263 O266 1.301 . S
C263 O267 1.282 . S
O264 U246 2.441 1_556 S
O264 C250 1.249 . S
O265 U246 2.420 1_556 S
O265 C250 1.202 . S
O266 U246 2.455 . S
O266 C263 1.301 . S
O267 U246 2.449 . S
O267 C263 1.282 . S
H268 C241 0.931 . S
H269 C243 0.929 . S
H270 C244 0.923 1_565 S
H271 C245 0.931 . S
H272 C252 0.932 . S
H273 C253 0.930 . S
H274 C254 0.929 . S
H275 C256 0.933 . S
H276 C258 0.932 . S
H277 C259 0.929 . S
H278 C260 0.928 . S
H279 C262 0.932 . S
C280 C281 1.264 . S
C280 C285 1.479 . S
C280 C290 1.465 . S
C281 C280 1.264 . S
C281 C283 1.339 . S
C281 H308 0.931 . S
C282 C283 1.395 . S
C282 C284 1.320 . S
C283 C281 1.339 . S
C283 C282 1.395 . S
C283 H309 0.929 . S
C284 C282 1.320 . S
C284 C285 1.405 . S
C284 H310 0.930 . S
C285 C280 1.479 . S
C285 C284 1.405 . S
C285 H311 0.931 . S
U286 O287 2.454 . S
U286 O288 2.458 . S
U286 C289 2.984 . S
U286 C290 2.847 1_554 S
U286 C303 2.882 . S
U286 O304 2.441 1_554 S
U286 O305 2.420 1_554 S
U286 O306 2.455 . S
U286 O307 2.449 . S
O287 U286 2.454 . S
O287 C289 1.353 . S
O288 U286 2.458 . S
O288 C289 1.286 . S
C289 U286 2.984 . S
C289 O287 1.353 . S
C289 O288 1.286 . S
C289 C291 1.363 . S
C290 C280 1.465 . S
C290 U286 2.847 1_556 S
C290 O304 1.249 . S
C290 O305 1.202 . S
C291 C289 1.363 . S
C291 C293 1.408 . S
C291 C296 1.342 . S
C292 C293 1.310 . S
C292 C295 1.461 . S
C292 H312 0.932 . S
C293 C291 1.408 . S
C293 C292 1.310 . S
C293 H313 0.930 . S
C294 C295 1.474 . S
C294 C296 1.285 . S
C294 H314 0.929 . S
C295 C292 1.461 . S
C295 C294 1.474 . S
C296 C291 1.342 . S
C296 C294 1.285 . S
C296 H315 0.930 . S
C297 C300 1.424 . S
C297 C302 1.245 . S
C297 C303 1.428 . S
C298 C301 1.260 . S
C298 C302 1.477 . S
C298 H316 0.932 . S
C299 C300 1.384 . S
C299 C301 1.479 . S
C299 H317 0.929 . S
C300 C297 1.424 . S
C300 C299 1.384 . S
C300 H318 0.928 . S
C301 C298 1.260 . S
C301 C299 1.479 . S
C302 C297 1.245 . S
C302 C298 1.477 . S
C302 H319 0.932 . S
C303 U286 2.882 . S
C303 C297 1.428 . S
C303 O306 1.301 . S
C303 O307 1.282 . S
O304 U286 2.441 1_556 S
O304 C290 1.249 . S
O305 U286 2.420 1_556 S
O305 C290 1.202 . S
O306 U286 2.455 . S
O306 C303 1.301 . S
O307 U286 2.449 . S
O307 C303 1.282 . S
H308 C281 0.931 . S
H309 C283 0.929 . S
H310 C284 0.930 . S
H311 C285 0.931 . S
H312 C292 0.932 . S
H313 C293 0.930 . S
H314 C294 0.929 . S
H315 C296 0.930 . S
H316 C298 0.932 . S
H317 C299 0.929 . S
H318 C300 0.928 . S
H319 C302 0.932 . S
C320 Eu321 2.835 . S
C320 C322 1.500 . S
C320 O340 1.257 . S
C320 O341 1.260 . S
Eu321 C320 2.835 . S
Eu321 O340 2.473 . S
Eu321 O341 2.480 . S
Eu321 O342 2.430 . S
Eu321 O343 2.670 1_545 S
Eu321 O344 2.394 . S
Eu321 O349 2.355 1_655 S
Eu321 O351 2.374 1_545 S
C322 C320 1.500 . S
C322 C323 1.377 . S
C322 C327 1.377 . S
C323 C322 1.377 . S
C323 C324 1.395 . S
C323 H352 0.931 . S
C324 C323 1.395 . S
C324 C325 1.383 . S
C324 H353 0.931 . S
C325 C324 1.383 . S
C325 C326 1.394 . S
C326 C325 1.394 . S
C326 C327 1.378 . S
C326 H354 0.931 1_655 S
C327 C322 1.377 . S
C327 C326 1.378 . S
C327 H355 0.931 1_655 S
C328 O342 1.284 . S
C328 O343 1.253 1_545 S
C329 O344 1.251 1_455 S
C329 O345 1.251 . S
C330 Eu331 2.835 . S
C330 C332 1.500 . S
C330 O346 1.257 . S
C330 O347 1.260 . S
Eu331 C330 2.835 . S
Eu331 O343 2.355 1_455 S
Eu331 O345 2.374 1_565 S
Eu331 O346 2.473 . S
Eu331 O347 2.480 . S
Eu331 O348 2.430 . S
Eu331 O349 2.670 1_565 S
Eu331 O350 2.394 . S
C332 C330 1.500 . S
C332 C333 1.377 . S
C332 C337 1.377 . S
C333 C332 1.377 . S
C333 C334 1.395 . S
C333 H356 0.931 . S
C334 C333 1.395 . S
C334 C335 1.383 . S
C334 H357 0.931 . S
C335 C334 1.383 . S
C335 C336 1.394 . S
C336 C335 1.394 . S
C336 C337 1.378 . S
C336 H358 0.931 1_455 S
C337 C332 1.377 . S
C337 C336 1.378 . S
C337 H359 0.931 1_455 S
C338 O348 1.277 . S
C338 O349 1.257 1_565 S
C339 O350 1.251 1_655 S
C339 O351 1.251 . S
O340 C320 1.257 . S
O340 Eu321 2.473 . S
O341 C320 1.260 . S
O341 Eu321 2.480 . S
O342 Eu321 2.430 . S
O342 C328 1.284 . S
O343 Eu321 2.670 1_565 S
O343 C328 1.253 1_565 S
O343 Eu331 2.355 1_655 S
O344 Eu321 2.394 . S
O344 C329 1.251 1_655 S
O345 C329 1.251 . S
O345 Eu331 2.374 1_545 S
O346 C330 1.257 . S
O346 Eu331 2.473 . S
O347 C330 1.260 . S
O347 Eu331 2.480 . S
O348 Eu331 2.430 . S
O348 C338 1.277 . S
O349 Eu321 2.355 1_455 S
O349 Eu331 2.670 1_545 S
O349 C338 1.257 1_545 S
O350 Eu331 2.394 . S
O350 C339 1.251 1_455 S
O351 Eu321 2.374 1_565 S
O351 C339 1.251 . S
H352 C323 0.931 . S
H353 C324 0.931 . S
H354 C326 0.931 1_455 S
H355 C327 0.931 1_455 S
H356 C333 0.931 . S
H357 C334 0.931 . S
H358 C336 0.931 1_655 S
H359 C337 0.931 1_655 S
C360 Eu361 2.835 . S
C360 C362 1.500 . S
C360 O380 1.257 . S
C360 O381 1.260 . S
Eu361 C360 2.835 . S
Eu361 O380 2.473 . S
Eu361 O381 2.480 . S
Eu361 O382 2.430 . S
Eu361 O383 2.670 . S
Eu361 O384 2.394 . S
Eu361 O389 2.355 1_565 S
Eu361 O391 2.374 . S
C362 C360 1.500 . S
C362 C363 1.377 . S
C362 C367 1.377 . S
C363 C362 1.377 . S
C363 C364 1.395 . S
C363 H392 0.931 . S
C364 C363 1.395 . S
C364 C365 1.383 . S
C364 H393 0.931 . S
C365 C364 1.383 . S
C365 C366 1.394 . S
C366 C365 1.394 . S
C366 C367 1.378 . S
C366 H394 0.931 1_565 S
C367 C362 1.377 . S
C367 C366 1.378 . S
C367 H395 0.931 1_565 S
C368 O382 1.259 . S
C368 O383 1.270 . S
C369 O384 1.251 1_545 S
C369 O385 1.251 . S
C370 Eu371 2.835 . S
C370 C372 1.500 . S
C370 O386 1.257 . S
C370 O387 1.260 . S
Eu371 C370 2.835 . S
Eu371 O383 2.355 1_545 S
Eu371 O385 2.374 . S
Eu371 O386 2.473 . S
Eu371 O387 2.480 . S
Eu371 O388 2.430 . S
Eu371 O389 2.670 . S
Eu371 O390 2.394 . S
C372 C370 1.500 . S
C372 C373 1.377 . S
C372 C377 1.377 . S
C373 C372 1.377 . S
C373 C374 1.395 . S
C373 H396 0.931 . S
C374 C373 1.395 . S
C374 C375 1.383 . S
C374 H397 0.931 . S
C375 C374 1.383 . S
C375 C376 1.394 . S
C376 C375 1.394 . S
C376 C377 1.378 . S
C376 H398 0.931 1_545 S
C377 C372 1.377 . S
C377 C376 1.378 . S
C377 H399 0.931 1_545 S
C378 O388 1.259 . S
C378 O389 1.270 . S
C379 O390 1.251 1_565 S
C379 O391 1.251 . S
O380 C360 1.257 . S
O380 Eu361 2.473 . S
O381 C360 1.260 . S
O381 Eu361 2.480 . S
O382 Eu361 2.430 . S
O382 C368 1.259 . S
O383 Eu361 2.670 . S
O383 C368 1.270 . S
O383 Eu371 2.355 1_565 S
O384 Eu361 2.394 . S
O384 C369 1.251 1_565 S
O385 C369 1.251 . S
O385 Eu371 2.374 . S
O386 C370 1.257 . S
O386 Eu371 2.473 . S
O387 C370 1.260 . S
O387 Eu371 2.480 . S
O388 Eu371 2.430 . S
O388 C378 1.259 . S
O389 Eu361 2.355 1_545 S
O389 Eu371 2.670 . S
O389 C378 1.270 . S
O390 Eu371 2.394 . S
O390 C379 1.251 1_545 S
O391 Eu361 2.374 . S
O391 C379 1.251 . S
H392 C363 0.931 . S
H393 C364 0.931 . S
H394 C366 0.931 1_545 S
H395 C367 0.931 1_545 S
H396 C373 0.931 . S
H397 C374 0.931 . S
H398 C376 0.931 1_565 S
H399 C377 0.931 1_565 S
C400 Eu401 2.835 . S
C400 C402 1.500 . S
C400 O420 1.257 . S
C400 O421 1.260 . S
Eu401 C400 2.835 . S
Eu401 O420 2.473 . S
Eu401 O421 2.480 . S
Eu401 O422 2.430 . S
Eu401 O423 2.670 . S
Eu401 O424 2.394 . S
Eu401 O429 2.355 . S
Eu401 O431 2.374 . S
C402 C400 1.500 . S
C402 C403 1.377 . S
C402 C407 1.377 . S
C403 C402 1.377 . S
C403 C404 1.395 . S
C403 H432 0.931 . S
C404 C403 1.395 . S
C404 C405 1.383 . S
C404 H433 0.931 . S
C405 C404 1.383 . S
C405 C406 1.394 . S
C406 C405 1.394 . S
C406 C407 1.378 . S
C406 H434 0.931 . S
C407 C402 1.377 . S
C407 C406 1.378 . S
C407 H435 0.931 . S
C408 O422 1.259 . S
C408 O423 1.270 . S
C409 O424 1.251 . S
C409 O425 1.251 . S
C410 Eu411 2.835 . S
C410 C412 1.500 . S
C410 O426 1.257 . S
C410 O427 1.260 . S
Eu411 C410 2.835 . S
Eu411 O423 2.355 . S
Eu411 O425 2.374 . S
Eu411 O426 2.473 . S
Eu411 O427 2.480 . S
Eu411 O428 2.430 . S
Eu411 O429 2.670 . S
Eu411 O430 2.394 . S
C412 C410 1.500 . S
C412 C413 1.377 . S
C412 C417 1.377 . S
C413 C412 1.377 . S
C413 C414 1.395 . S
C413 H436 0.931 . S
C414 C413 1.395 . S
C414 C415 1.383 . S
C414 H437 0.931 . S
C415 C414 1.383 . S
C415 C416 1.394 . S
C416 C415 1.394 . S
C416 C417 1.378 . S
C416 H438 0.931 . S
C417 C412 1.377 . S
C417 C416 1.378 . S
C417 H439 0.931 . S
C418 O428 1.259 . S
C418 O429 1.270 . S
C419 O430 1.251 . S
C419 O431 1.251 . S
O420 C400 1.257 . S
O420 Eu401 2.473 . S
O421 C400 1.260 . S
O421 Eu401 2.480 . S
O422 Eu401 2.430 . S
O422 C408 1.259 . S
O423 Eu401 2.670 . S
O423 C408 1.270 . S
O423 Eu411 2.355 . S
O424 Eu401 2.394 . S
O424 C409 1.251 . S
O425 C409 1.251 . S
O425 Eu411 2.374 . S
O426 C410 1.257 . S
O426 Eu411 2.473 . S
O427 C410 1.260 . S
O427 Eu411 2.480 . S
O428 Eu411 2.430 . S
O428 C418 1.259 . S
O429 Eu401 2.355 . S
O429 Eu411 2.670 . S
O429 C418 1.270 . S
O430 Eu411 2.394 . S
O430 C419 1.251 . S
O431 Eu401 2.374 . S
O431 C419 1.251 . S
H432 C403 0.931 . S
H433 C404 0.931 . S
H434 C406 0.931 . S
H435 C407 0.931 . S
H436 C413 0.931 . S
H437 C414 0.931 . S
H438 C416 0.931 . S
H439 C417 0.931 . S
C440 Eu441 2.835 . S
C440 C442 1.500 . S
C440 O460 1.257 . S
C440 O461 1.260 . S
Eu441 C440 2.835 . S
Eu441 O460 2.473 . S
Eu441 O461 2.480 . S
Eu441 O462 2.430 . S
Eu441 O463 2.670 1_455 S
Eu441 O464 2.394 . S
Eu441 O469 2.355 . S
Eu441 O471 2.374 1_455 S
C442 C440 1.500 . S
C442 C443 1.377 . S
C442 C447 1.377 . S
C443 C442 1.377 . S
C443 C444 1.395 . S
C443 H472 0.931 . S
C444 C443 1.395 . S
C444 C445 1.383 . S
C444 H473 0.931 . S
C445 C444 1.383 . S
C445 C446 1.394 . S
C446 C445 1.394 . S
C446 C447 1.378 . S
C446 H474 0.931 . S
C447 C442 1.377 . S
C447 C446 1.378 . S
C447 H475 0.931 . S
C448 O462 1.272 . S
C448 O463 1.261 1_455 S
C449 O464 1.251 . S
C449 O465 1.251 . S
C450 Eu451 2.835 . S
C450 C452 1.500 . S
C450 O466 1.257 . S
C450 O467 1.260 . S
Eu451 C450 2.835 . S
Eu451 O463 2.355 . S
Eu451 O465 2.374 1_655 S
Eu451 O466 2.473 . S
Eu451 O467 2.480 . S
Eu451 O468 2.430 . S
Eu451 O469 2.670 1_655 S
Eu451 O470 2.394 . S
C452 C450 1.500 . S
C452 C453 1.377 . S
C452 C457 1.377 . S
C453 C452 1.377 . S
C453 C454 1.395 . S
C453 H476 0.931 . S
C454 C453 1.395 . S
C454 C455 1.383 . S
C454 H477 0.931 . S
C455 C454 1.383 . S
C455 C456 1.394 . S
C456 C455 1.394 . S
C456 C457 1.378 . S
C456 H478 0.931 . S
C457 C452 1.377 . S
C457 C456 1.378 . S
C457 H479 0.931 . S
C458 O468 1.266 . S
C458 O469 1.265 1_655 S
C459 O470 1.251 . S
C459 O471 1.251 . S
O460 C440 1.257 . S
O460 Eu441 2.473 . S
O461 C440 1.260 . S
O461 Eu441 2.480 . S
O462 Eu441 2.430 . S
O462 C448 1.272 . S
O463 Eu441 2.670 1_655 S
O463 C448 1.261 1_655 S
O463 Eu451 2.355 . S
O464 Eu441 2.394 . S
O464 C449 1.251 . S
O465 C449 1.251 . S
O465 Eu451 2.374 1_455 S
O466 C450 1.257 . S
O466 Eu451 2.473 . S
O467 C450 1.260 . S
O467 Eu451 2.480 . S
O468 Eu451 2.430 . S
O468 C458 1.266 . S
O469 Eu441 2.355 . S
O469 Eu451 2.670 1_455 S
O469 C458 1.265 1_455 S
O470 Eu451 2.394 . S
O470 C459 1.251 . S
O471 Eu441 2.374 1_655 S
O471 C459 1.251 . S
H472 C443 0.931 . S
H473 C444 0.931 . S
H474 C446 0.931 . S
H475 C447 0.931 . S
H476 C453 0.931 . S
H477 C454 0.931 . S
H478 C456 0.931 . S
H479 C457 0.931 . S
C480 C481 1.377 1_565 S
C480 C482 1.394 . S
C480 H496 0.931 . S
C481 C480 1.377 1_545 S
C481 C485 1.390 . S
C482 C480 1.394 . S
C482 C483 1.352 1_565 S
C482 C486 1.531 . S
C483 C482 1.352 1_545 S
C483 C484 1.426 . S
C483 C491 1.503 . S
C484 C483 1.426 . S
C484 C485 1.392 . S
C484 C487 1.511 . S
C485 C481 1.390 . S
C485 C484 1.392 . S
C485 H497 0.929 . S
C486 C482 1.531 . S
C486 H498 0.960 . S
C486 H499 0.962 . S
C486 H500 0.960 . S
C487 C484 1.511 . S
C487 H501 0.961 . S
C487 H502 0.961 . S
C487 H503 0.961 . S
C488 C489 1.367 1_565 S
C488 C490 1.364 . S
C488 H504 0.931 . S
C489 C488 1.367 1_545 S
C489 C493 1.411 . S
C490 C488 1.364 . S
C490 C491 1.368 1_565 S
C490 C494 1.528 . S
C491 C483 1.503 . S
C491 C490 1.368 1_545 S
C491 C492 1.404 . S
C492 C491 1.404 . S
C492 C493 1.404 . S
C492 C495 1.539 . S
C493 C489 1.411 . S
C493 C492 1.404 . S
C493 H505 0.930 . S
C494 C490 1.528 . S
C494 H506 0.956 . S
C494 H507 0.961 1_565 S
C494 H508 0.961 . S
C495 C492 1.539 . S
C495 H509 0.958 1_545 S
C495 H510 0.961 . S
C495 H511 0.960 . S
H496 C480 0.931 . S
H497 C485 0.929 . S
H498 C486 0.960 . S
H499 C486 0.962 . S
H500 C486 0.960 . S
H501 C487 0.961 . S
H502 C487 0.961 . S
H503 C487 0.961 . S
H504 C488 0.931 . S
H505 C493 0.930 . S
H506 C494 0.956 . S
H507 C494 0.961 1_545 S
H508 C494 0.961 . S
H509 C495 0.958 1_565 S
H510 C495 0.961 . S
H511 C495 0.960 . S
C512 C513 1.391 . S
C512 C514 1.394 . S
C512 H528 0.931 . S
C513 C512 1.391 . S
C513 C517 1.376 . S
C514 C512 1.394 . S
C514 C515 1.369 . S
C514 C518 1.531 . S
C515 C514 1.369 . S
C515 C516 1.410 . S
C515 C523 1.503 . S
C516 C515 1.410 . S
C516 C517 1.392 . S
C516 C519 1.511 . S
C517 C513 1.376 . S
C517 C516 1.392 . S
C517 H529 0.929 . S
C518 C514 1.531 . S
C518 H530 0.960 . S
C518 H531 0.962 . S
C518 H532 0.960 . S
C519 C516 1.511 . S
C519 H533 0.961 . S
C519 H534 0.961 . S
C519 H535 0.961 . S
C520 C521 1.370 . S
C520 C522 1.363 . S
C520 H536 0.931 . S
C521 C520 1.370 . S
C521 C525 1.408 . S
C522 C520 1.363 . S
C522 C523 1.370 . S
C522 C526 1.524 . S
C523 C515 1.503 . S
C523 C522 1.370 . S
C523 C524 1.403 . S
C524 C523 1.403 . S
C524 C525 1.404 . S
C524 C527 1.539 . S
C525 C521 1.408 . S
C525 C524 1.404 . S
C525 H537 0.930 . S
C526 C522 1.524 . S
C526 H538 0.956 . S
C526 H539 0.961 . S
C526 H540 0.961 . S
C527 C524 1.539 . S
C527 H541 0.958 . S
C527 H542 0.961 . S
C527 H543 0.960 . S
H528 C512 0.931 . S
H529 C517 0.929 . S
H530 C518 0.960 . S
H531 C518 0.962 . S
H532 C518 0.960 . S
H533 C519 0.961 . S
H534 C519 0.961 . S
H535 C519 0.961 . S
H536 C520 0.931 . S
H537 C525 0.930 . S
H538 C526 0.956 . S
H539 C526 0.961 . S
H540 C526 0.961 . S
H541 C527 0.958 . S
H542 C527 0.961 . S
H543 C527 0.960 . S
C544 C545 1.391 . S
C544 C546 1.394 . S
C544 H560 0.931 . S
C545 C544 1.391 . S
C545 C549 1.376 . S
C546 C544 1.394 . S
C546 C547 1.369 . S
C546 C550 1.531 . S
C547 C546 1.369 . S
C547 C548 1.410 . S
C547 C555 1.503 . S
C548 C547 1.410 . S
C548 C549 1.392 . S
C548 C551 1.511 . S
C549 C545 1.376 . S
C549 C548 1.392 . S
C549 H561 0.929 . S
C550 C546 1.531 . S
C550 H562 0.960 . S
C550 H563 0.962 . S
C550 H564 0.960 . S
C551 C548 1.511 . S
C551 H565 0.961 . S
C551 H566 0.961 . S
C551 H567 0.961 . S
C552 C553 1.370 . S
C552 C554 1.363 . S
C552 H568 0.931 . S
C553 C552 1.370 . S
C553 C557 1.408 . S
C554 C552 1.363 . S
C554 C555 1.370 . S
C554 C558 1.524 . S
C555 C547 1.503 . S
C555 C554 1.370 . S
C555 C556 1.403 . S
C556 C555 1.403 . S
C556 C557 1.404 . S
C556 C559 1.539 . S
C557 C553 1.408 . S
C557 C556 1.404 . S
C557 H569 0.930 . S
C558 C554 1.524 . S
C558 H570 0.956 . S
C558 H571 0.961 . S
C558 H572 0.961 . S
C559 C556 1.539 . S
C559 H573 0.958 . S
C559 H574 0.961 . S
C559 H575 0.960 . S
H560 C544 0.931 . S
H561 C549 0.929 . S
H562 C550 0.960 . S
H563 C550 0.962 . S
H564 C550 0.960 . S
H565 C551 0.961 . S
H566 C551 0.961 . S
H567 C551 0.961 . S
H568 C552 0.931 . S
H569 C557 0.930 . S
H570 C558 0.956 . S
H571 C558 0.961 . S
H572 C558 0.961 . S
H573 C559 0.958 . S
H574 C559 0.961 . S
H575 C559 0.960 . S
C576 C577 1.362 1_455 S
C576 C578 1.394 . S
C576 H592 0.931 . S
C577 C576 1.362 1_655 S
C577 C581 1.407 . S
C578 C576 1.394 . S
C578 C579 1.369 1_455 S
C578 C582 1.531 . S
C579 C578 1.369 1_655 S
C579 C580 1.410 . S
C579 C587 1.503 . S
C580 C579 1.410 . S
C580 C581 1.392 . S
C580 C583 1.511 . S
C581 C577 1.407 . S
C581 C580 1.392 . S
C581 H593 0.929 . S
C582 C578 1.531 . S
C582 H594 0.960 . S
C582 H595 0.962 . S
C582 H596 0.960 . S
C583 C580 1.511 . S
C583 H597 0.961 . S
C583 H598 0.961 . S
C583 H599 0.961 . S
C584 C585 1.378 . S
C584 C586 1.363 . S
C584 H600 0.931 . S
C585 C584 1.378 . S
C585 C589 1.400 1_455 S
C586 C584 1.363 . S
C586 C587 1.370 1_455 S
C586 C590 1.524 . S
C587 C579 1.503 . S
C587 C586 1.370 1_655 S
C587 C588 1.403 . S
C588 C587 1.403 . S
C588 C589 1.404 . S
C588 C591 1.539 . S
C589 C585 1.400 1_655 S
C589 C588 1.404 . S
C589 H601 0.930 . S
C590 C586 1.524 . S
C590 H602 0.956 . S
C590 H603 0.961 . S
C590 H604 0.961 . S
C591 C588 1.539 . S
C591 H605 0.958 . S
C591 H606 0.961 . S
C591 H607 0.960 . S
H592 C576 0.931 . S
H593 C581 0.929 . S
H594 C582 0.960 . S
H595 C582 0.962 . S
H596 C582 0.960 . S
H597 C583 0.961 . S
H598 C583 0.961 . S
H599 C583 0.961 . S
H600 C584 0.931 . S
H601 C589 0.930 . S
H602 C590 0.956 . S
H603 C590 0.961 . S
H604 C590 0.961 . S
H605 C591 0.958 . S
H606 C591 0.961 . S
H607 C591 0.960 . S
C608 C609 1.391 . S
C608 C610 1.394 . S
C608 H624 0.931 . S
C609 C608 1.391 . S
C609 C613 1.376 1_545 S
C610 C608 1.394 . S
C610 C611 1.369 . S
C610 C614 1.531 1_554 S
C611 C610 1.369 . S
C611 C612 1.410 1_545 S
C611 C619 1.503 1_554 S
C612 C611 1.410 1_565 S
C612 C613 1.392 . S
C612 C615 1.511 . S
C613 C609 1.376 1_565 S
C613 C612 1.392 . S
C613 H625 0.929 . S
C614 C610 1.531 1_556 S
C614 H626 0.960 . S
C614 H627 0.962 . S
C614 H628 0.960 1_556 S
C615 C612 1.511 . S
C615 H629 0.961 . S
C615 H630 0.961 . S
C615 H631 0.961 . S
C616 C617 1.364 1_565 S
C616 C618 1.363 . S
C616 H632 0.931 . S
C617 C616 1.364 1_545 S
C617 C621 1.416 . S
C618 C616 1.363 . S
C618 C619 1.370 1_565 S
C618 C622 1.524 . S
C619 C611 1.503 1_556 S
C619 C618 1.370 1_545 S
C619 C620 1.403 . S
C620 C619 1.403 . S
C620 C621 1.404 . S
C620 C623 1.539 . S
C621 C617 1.416 . S
C621 C620 1.404 . S
C621 H633 0.930 . S
C622 C618 1.524 . S
C622 H634 0.956 . S
C622 H635 0.961 . S
C622 H636 0.961 . S
C623 C620 1.539 . S
C623 H637 0.958 . S
C623 H638 0.961 . S
C623 H639 0.960 1_556 S
H624 C608 0.931 . S
H625 C613 0.929 . S
H626 C614 0.960 . S
H627 C614 0.962 . S
H628 C614 0.960 1_554 S
H629 C615 0.961 . S
H630 C615 0.961 . S
H631 C615 0.961 . S
H632 C616 0.931 . S
H633 C621 0.930 . S
H634 C622 0.956 . S
H635 C622 0.961 . S
H636 C622 0.961 . S
H637 C623 0.958 . S
H638 C623 0.961 . S
H639 C623 0.960 1_554 S
C640 C641 1.391 . S
C640 C642 1.394 . S
C640 H656 0.931 . S
C641 C640 1.391 . S
C641 C645 1.376 . S
C642 C640 1.394 . S
C642 C643 1.369 . S
C642 C646 1.531 1_554 S
C643 C642 1.369 . S
C643 C644 1.410 . S
C643 C651 1.503 1_554 S
C644 C643 1.410 . S
C644 C645 1.392 . S
C644 C647 1.511 . S
C645 C641 1.376 . S
C645 C644 1.392 . S
C645 H657 0.929 . S
C646 C642 1.531 1_556 S
C646 H658 0.960 . S
C646 H659 0.962 . S
C646 H660 0.961 . S
C647 C644 1.511 . S
C647 H661 0.961 . S
C647 H662 0.961 . S
C647 H663 0.961 . S
C648 C649 1.370 . S
C648 C650 1.363 . S
C648 H664 0.931 . S
C649 C648 1.370 . S
C649 C653 1.408 . S
C650 C648 1.363 . S
C650 C651 1.370 . S
C650 C654 1.524 . S
C651 C643 1.503 1_556 S
C651 C650 1.370 . S
C651 C652 1.403 . S
C652 C651 1.403 . S
C652 C653 1.404 . S
C652 C655 1.539 . S
C653 C649 1.408 . S
C653 C652 1.404 . S
C653 H665 0.930 . S
C654 C650 1.524 . S
C654 H666 0.956 . S
C654 H667 0.962 1_556 S
C654 H668 0.961 . S
C655 C652 1.539 . S
C655 H669 0.958 . S
C655 H670 0.961 . S
C655 H671 0.960 1_556 S
H656 C640 0.931 . S
H657 C645 0.929 . S
H658 C646 0.960 . S
H659 C646 0.962 . S
H660 C646 0.961 . S
H661 C647 0.961 . S
H662 C647 0.961 . S
H663 C647 0.961 . S
H664 C648 0.931 . S
H665 C653 0.930 . S
H666 C654 0.956 . S
H667 C654 0.962 1_554 S
H668 C654 0.961 . S
H669 C655 0.958 . S
H670 C655 0.961 . S
H671 C655 0.960 1_554 S
C672 C673 1.391 . S
C672 C674 1.394 . S
C672 H688 0.931 . S
C673 C672 1.391 . S
C673 C677 1.376 . S
C674 C672 1.394 . S
C674 C675 1.369 . S
C674 C678 1.531 . S
C675 C674 1.369 . S
C675 C676 1.410 . S
C675 C683 1.503 1_554 S
C676 C675 1.410 . S
C676 C677 1.392 . S
C676 C679 1.511 . S
C677 C673 1.376 . S
C677 C676 1.392 . S
C677 H689 0.929 . S
C678 C674 1.531 . S
C678 H690 0.960 1_554 S
C678 H691 0.962 1_554 S
C678 H692 0.960 . S
C679 C676 1.511 . S
C679 H693 0.961 . S
C679 H694 0.961 . S
C679 H695 0.961 . S
C680 C681 1.370 . S
C680 C682 1.363 . S
C680 H696 0.931 . S
C681 C680 1.370 . S
C681 C685 1.408 . S
C682 C680 1.363 . S
C682 C683 1.370 . S
C682 C686 1.524 . S
C683 C675 1.503 1_556 S
C683 C682 1.370 . S
C683 C684 1.403 . S
C684 C683 1.403 . S
C684 C685 1.404 . S
C684 C687 1.539 1_556 S
C685 C681 1.408 . S
C685 C684 1.404 . S
C685 H697 0.930 . S
C686 C682 1.524 . S
C686 H698 0.956 . S
C686 H699 0.961 . S
C686 H700 0.961 . S
C687 C684 1.539 1_554 S
C687 H701 0.958 . S
C687 H702 0.961 1_554 S
C687 H703 0.960 . S
H688 C672 0.931 . S
H689 C677 0.929 . S
H690 C678 0.960 1_556 S
H691 C678 0.962 1_556 S
H692 C678 0.960 . S
H693 C679 0.961 . S
H694 C679 0.961 . S
H695 C679 0.961 . S
H696 C680 0.931 . S
H697 C685 0.930 . S
H698 C686 0.956 . S
H699 C686 0.961 . S
H700 C686 0.961 . S
H701 C687 0.958 . S
H702 C687 0.961 1_556 S
H703 C687 0.960 . S
C704 C705 1.391 . S
C704 C706 1.394 . S
C704 H720 0.931 . S
C705 C704 1.391 . S
C705 C709 1.373 1_655 S
C706 C704 1.394 . S
C706 C707 1.369 . S
C706 C710 1.531 . S
C707 C706 1.369 . S
C707 C708 1.410 . S
C707 C715 1.503 1_554 S
C708 C707 1.410 . S
C708 C709 1.390 1_655 S
C708 C711 1.511 1_654 S
C709 C705 1.373 1_455 S
C709 C708 1.390 1_455 S
C709 H721 0.935 . S
C710 C706 1.531 . S
C710 H722 0.960 . S
C710 H723 1.009 . S
C710 H724 0.960 . S
C711 C708 1.511 1_456 S
C711 H725 0.961 . S
C711 H726 0.961 . S
C711 H727 0.961 1_455 S
C712 C713 1.370 1_455 S
C712 C714 1.363 . S
C712 H728 0.931 . S
C713 C712 1.370 1_655 S
C713 C717 1.408 . S
C714 C712 1.363 . S
C714 C715 1.370 1_455 S
C714 C718 1.524 . S
C715 C707 1.503 1_556 S
C715 C714 1.370 1_655 S
C715 C716 1.403 . S
C716 C715 1.403 . S
C716 C717 1.404 . S
C716 C719 1.539 . S
C717 C713 1.408 . S
C717 C716 1.404 . S
C717 H729 0.930 . S
C718 C714 1.524 . S
C718 H730 0.956 1_556 S
C718 H731 0.961 . S
C718 H732 0.961 . S
C719 C716 1.539 . S
C719 H733 0.958 . S
C719 H734 0.961 . S
C719 H735 0.960 . S
H720 C704 0.931 . S
H721 C709 0.935 . S
H722 C710 0.960 . S
H723 C710 1.009 . S
H724 C710 0.960 . S
H725 C711 0.961 . S
H726 C711 0.961 . S
H727 C711 0.961 1_655 S
H728 C712 0.931 . S
H729 C717 0.930 . S
H730 C718 0.956 1_554 S
H731 C718 0.961 . S
H732 C718 0.961 . S
H733 C719 0.958 . S
H734 C719 0.961 . S
H735 C719 0.960 . S
C736 C737 1.391 1_655 S
C736 C738 1.394 . S
C736 H752 0.931 . S
C737 C736 1.391 1_455 S
C737 C741 1.376 . S
C738 C736 1.394 . S
C738 C739 1.369 . S
C738 C742 1.531 . S
C739 C738 1.369 . S
C739 C740 1.410 1_655 S
C739 C747 1.503 . S
C740 C739 1.410 1_455 S
C740 C741 1.392 . S
C740 C743 1.511 . S
C741 C737 1.376 . S
C741 C740 1.392 . S
C741 H753 0.929 . S
C742 C738 1.531 . S
C742 H754 0.960 . S
C742 H755 0.962 . S
C742 H756 0.960 . S
C743 C740 1.511 . S
C743 H757 0.961 . S
C743 H758 0.961 . S
C743 H759 0.961 . S
C744 C745 1.370 . S
C744 C746 1.363 . S
C744 H760 0.931 . S
C745 C744 1.370 . S
C745 C749 1.408 . S
C746 C744 1.363 . S
C746 C747 1.370 . S
C746 C750 1.524 . S
C747 C739 1.503 . S
C747 C746 1.370 . S
C747 C748 1.403 . S
C748 C747 1.403 . S
C748 C749 1.404 . S
C748 C751 1.539 1_655 S
C749 C745 1.408 . S
C749 C748 1.404 . S
C749 H761 0.930 . S
C750 C746 1.524 . S
C750 H762 0.956 . S
C750 H763 0.961 . S
C750 H764 0.961 . S
C751 C748 1.539 1_455 S
C751 H765 0.958 1_455 S
C751 H766 0.961 . S
C751 H767 0.960 . S
H752 C736 0.931 . S
H753 C741 0.929 . S
H754 C742 0.960 . S
H755 C742 0.962 . S
H756 C742 0.960 . S
H757 C743 0.961 . S
H758 C743 0.961 . S
H759 C743 0.961 . S
H760 C744 0.931 . S
H761 C749 0.930 . S
H762 C750 0.956 . S
H763 C750 0.961 . S
H764 C750 0.961 . S
H765 C751 0.958 1_655 S
H766 C751 0.961 . S
H767 C751 0.960 . S
C768 C769 1.391 . S
C768 C770 1.394 . S
C768 H784 0.931 . S
C769 C768 1.391 . S
C769 C773 1.376 1_545 S
C770 C768 1.394 . S
C770 C771 1.369 1_545 S
C770 C774 1.531 . S
C771 C770 1.369 1_565 S
C771 C772 1.410 . S
C771 C779 1.503 . S
C772 C771 1.410 . S
C772 C773 1.392 . S
C772 C775 1.511 . S
C773 C769 1.376 1_565 S
C773 C772 1.392 . S
C773 H785 0.929 . S
C774 C770 1.531 . S
C774 H786 0.960 . S
C774 H787 0.962 . S
C774 H788 0.960 . S
C775 C772 1.511 . S
C775 H789 0.961 . S
C775 H790 0.961 . S
C775 H791 0.961 . S
C776 C777 1.370 . S
C776 C778 1.363 . S
C776 H792 0.931 . S
C777 C776 1.370 . S
C777 C781 1.408 . S
C778 C776 1.363 . S
C778 C779 1.370 . S
C778 C782 1.524 1_565 S
C779 C771 1.503 . S
C779 C778 1.370 . S
C779 C780 1.403 . S
C780 C779 1.403 . S
C780 C781 1.404 . S
C780 C783 1.539 . S
C781 C777 1.408 . S
C781 C780 1.404 . S
C781 H793 0.930 . S
C782 C778 1.524 1_545 S
C782 H794 0.956 . S
C782 H795 0.961 1_545 S
C782 H796 0.961 . S
C783 C780 1.539 . S
C783 H797 0.958 . S
C783 H798 0.961 . S
C783 H799 0.960 . S
H784 C768 0.931 . S
H785 C773 0.929 . S
H786 C774 0.960 . S
H787 C774 0.962 . S
H788 C774 0.960 . S
H789 C775 0.961 . S
H790 C775 0.961 . S
H791 C775 0.961 . S
H792 C776 0.931 . S
H793 C781 0.930 . S
H794 C782 0.956 . S
H795 C782 0.961 1_565 S
H796 C782 0.961 . S
H797 C783 0.958 . S
H798 C783 0.961 . S
H799 C783 0.960 . S
C800 C801 1.391 . S
C800 C802 1.394 . S
C800 H816 0.931 . S
C801 C800 1.391 . S
C801 C805 1.376 . S
C802 C800 1.394 . S
C802 C803 1.369 . S
C802 C806 1.531 . S
C803 C802 1.369 . S
C803 C804 1.410 . S
C803 C811 1.503 . S
C804 C803 1.410 . S
C804 C805 1.392 . S
C804 C807 1.511 . S
C805 C801 1.376 . S
C805 C804 1.392 . S
C805 H817 0.929 . S
C806 C802 1.531 . S
C806 H818 0.960 . S
C806 H819 0.962 . S
C806 H820 0.960 . S
C807 C804 1.511 . S
C807 H821 0.961 . S
C807 H822 0.961 . S
C807 H823 0.961 . S
C808 C809 1.370 . S
C808 C810 1.363 . S
C808 H824 0.931 . S
C809 C808 1.370 . S
C809 C813 1.408 . S
C810 C808 1.363 . S
C810 C811 1.370 . S
C810 C814 1.524 . S
C811 C803 1.503 . S
C811 C810 1.370 . S
C811 C812 1.403 . S
C812 C811 1.403 . S
C812 C813 1.404 . S
C812 C815 1.539 . S
C813 C809 1.408 . S
C813 C812 1.404 . S
C813 H825 0.930 . S
C814 C810 1.524 . S
C814 H826 0.956 . S
C814 H827 0.961 . S
C814 H828 0.961 . S
C815 C812 1.539 . S
C815 H829 0.958 . S
C815 H830 0.961 . S
C815 H831 0.960 . S
H816 C800 0.931 . S
H817 C805 0.929 . S
H818 C806 0.960 . S
H819 C806 0.962 . S
H820 C806 0.960 . S
H821 C807 0.961 . S
H822 C807 0.961 . S
H823 C807 0.961 . S
H824 C808 0.931 . S
H825 C813 0.930 . S
H826 C814 0.956 . S
H827 C814 0.961 . S
H828 C814 0.961 . S
H829 C815 0.958 . S
H830 C815 0.961 . S
H831 C815 0.960 . S
C832 C833 1.391 . S
C832 C834 1.394 . S
C832 H848 0.931 . S
C833 C832 1.391 . S
C833 C837 1.376 . S
C834 C832 1.394 . S
C834 C835 1.369 . S
C834 C838 1.531 . S
C835 C834 1.369 . S
C835 C836 1.410 . S
C835 C843 1.503 . S
C836 C835 1.410 . S
C836 C837 1.392 . S
C836 C839 1.511 . S
C837 C833 1.376 . S
C837 C836 1.392 . S
C837 H849 0.929 . S
C838 C834 1.531 . S
C838 H850 0.960 . S
C838 H851 0.962 . S
C838 H852 0.960 . S
C839 C836 1.511 . S
C839 H853 0.961 . S
C839 H854 0.961 . S
C839 H855 0.961 . S
C840 C841 1.370 . S
C840 C842 1.363 . S
C840 H856 0.931 . S
C841 C840 1.370 . S
C841 C845 1.408 . S
C842 C840 1.363 . S
C842 C843 1.370 . S
C842 C846 1.524 . S
C843 C835 1.503 . S
C843 C842 1.370 . S
C843 C844 1.403 . S
C844 C843 1.403 . S
C844 C845 1.404 . S
C844 C847 1.539 . S
C845 C841 1.408 . S
C845 C844 1.404 . S
C845 H857 0.930 . S
C846 C842 1.524 . S
C846 H858 0.956 . S
C846 H859 0.961 . S
C846 H860 0.961 . S
C847 C844 1.539 . S
C847 H861 0.958 . S
C847 H862 0.961 . S
C847 H863 0.960 . S
H848 C832 0.931 . S
H849 C837 0.929 . S
H850 C838 0.960 . S
H851 C838 0.962 . S
H852 C838 0.960 . S
H853 C839 0.961 . S
H854 C839 0.961 . S
H855 C839 0.961 . S
H856 C840 0.931 . S
H857 C845 0.930 . S
H858 C846 0.956 . S
H859 C846 0.961 . S
H860 C846 0.961 . S
H861 C847 0.958 . S
H862 C847 0.961 . S
H863 C847 0.960 . S
C864 C865 1.391 1_556 S
C864 C866 1.394 . S
C864 H880 0.931 . S
C865 C864 1.391 1_554 S
C865 C869 1.376 1_655 S
C866 C864 1.394 . S
C866 C867 1.369 1_656 S
C866 C870 1.531 . S
C867 C866 1.369 1_454 S
C867 C868 1.410 . S
C867 C875 1.503 1_554 S
C868 C867 1.410 . S
C868 C869 1.392 . S
C868 C871 1.511 . S
C869 C865 1.376 1_455 S
C869 C868 1.392 . S
C869 H881 0.929 . S
C870 C866 1.531 . S
C870 H882 0.960 . S
C870 H883 0.962 . S
C870 H884 0.960 . S
C871 C868 1.511 . S
C871 H885 0.961 . S
C871 H886 0.961 . S
C871 H887 0.961 . S
C872 C873 1.370 . S
C872 C874 1.363 . S
C872 H888 0.931 . S
C873 C872 1.370 . S
C873 C877 1.408 . S
C874 C872 1.363 . S
C874 C875 1.370 . S
C874 C878 1.524 . S
C875 C867 1.503 1_556 S
C875 C874 1.370 . S
C875 C876 1.403 . S
C876 C875 1.403 . S
C876 C877 1.404 . S
C876 C879 1.539 1_456 S
C877 C873 1.408 . S
C877 C876 1.404 . S
C877 H889 0.930 . S
C878 C874 1.524 . S
C878 H890 0.956 . S
C878 H891 0.961 . S
C878 H892 0.961 . S
C879 C876 1.539 1_654 S
C879 H893 0.958 1_554 S
C879 H894 0.961 . S
C879 H895 0.960 . S
H880 C864 0.931 . S
H881 C869 0.929 . S
H882 C870 0.960 . S
H883 C870 0.962 . S
H884 C870 0.960 . S
H885 C871 0.961 . S
H886 C871 0.961 . S
H887 C871 0.961 . S
H888 C872 0.931 . S
H889 C877 0.930 . S
H890 C878 0.956 . S
H891 C878 0.961 . S
H892 C878 0.961 . S
H893 C879 0.958 1_556 S
H894 C879 0.961 . S
H895 C879 0.960 . S
C896 C897 1.391 1_556 S
C896 C898 1.387 1_565 S
C896 H912 0.931 . S
C897 C896 1.391 1_554 S
C897 C901 1.369 1_565 S
C898 C896 1.387 1_545 S
C898 C899 1.376 1_556 S
C898 C902 1.530 . S
C899 C898 1.376 1_554 S
C899 C900 1.409 . S
C899 C907 1.503 1_554 S
C900 C899 1.409 . S
C900 C901 1.400 . S
C900 C903 1.511 . S
C901 C897 1.369 1_545 S
C901 C900 1.400 . S
C901 H913 0.929 . S
C902 C898 1.530 . S
C902 H914 0.957 1_545 S
C902 H915 0.972 . S
C902 H916 0.953 1_545 S
C903 C900 1.511 . S
C903 H917 0.961 . S
C903 H918 0.961 . S
C903 H919 0.961 1_545 S
C904 C905 1.370 . S
C904 C906 1.363 . S
C904 H920 0.931 . S
C905 C904 1.370 . S
C905 C909 1.408 . S
C906 C904 1.363 . S
C906 C907 1.370 . S
C906 C910 1.524 . S
C907 C899 1.503 1_556 S
C907 C906 1.370 . S
C907 C908 1.374 1_545 S
C908 C907 1.374 1_565 S
C908 C909 1.390 1_565 S
C908 C911 1.582 . S
C909 C905 1.408 . S
C909 C908 1.390 1_545 S
C909 H921 0.930 1_545 S
C910 C906 1.524 . S
C910 H922 0.956 . S
C910 H923 0.961 1_556 S
C910 H924 0.961 . S
C911 C908 1.582 . S
C911 H925 0.958 . S
C911 H926 0.961 . S
C911 H927 0.960 1_556 S
H912 C896 0.931 . S
H913 C901 0.929 . S
H914 C902 0.957 1_565 S
H915 C902 0.972 . S
H916 C902 0.953 1_565 S
H917 C903 0.961 . S
H918 C903 0.961 . S
H919 C903 0.961 1_565 S
H920 C904 0.931 . S
H921 C909 0.930 1_565 S
H922 C910 0.956 . S
H923 C910 0.961 1_554 S
H924 C910 0.961 . S
H925 C911 0.958 . S
H926 C911 0.961 . S
H927 C911 0.960 1_554 S
C928 C929 1.391 . S
C928 C930 1.394 1_554 S
C928 H944 0.931 . S
C929 C928 1.391 . S
C929 C933 1.376 . S
C930 C928 1.394 1_556 S
C930 C931 1.369 . S
C930 C934 1.531 . S
C931 C930 1.369 . S
C931 C932 1.410 1_556 S
C931 C939 1.503 . S
C932 C931 1.410 1_554 S
C932 C933 1.392 . S
C932 C935 1.511 . S
C933 C929 1.376 . S
C933 C932 1.392 . S
C933 H945 0.929 . S
C934 C930 1.531 . S
C934 H946 0.960 . S
C934 H947 0.962 . S
C934 H948 0.960 . S
C935 C932 1.511 . S
C935 H949 0.961 . S
C935 H950 0.961 . S
C935 H951 0.961 1_554 S
C936 C937 1.370 . S
C936 C938 1.360 1_556 S
C936 H952 0.931 1_556 S
C937 C936 1.370 . S
C937 C941 1.408 . S
C938 C936 1.360 1_554 S
C938 C939 1.365 1_554 S
C938 C942 1.533 . S
C939 C931 1.503 . S
C939 C938 1.365 1_556 S
C939 C940 1.403 . S
C940 C939 1.403 . S
C940 C941 1.404 . S
C940 C943 1.539 . S
C941 C937 1.408 . S
C941 C940 1.404 . S
C941 H953 0.930 . S
C942 C938 1.533 . S
C942 H954 0.956 . S
C942 H955 0.961 . S
C942 H956 0.961 . S
C943 C940 1.539 . S
C943 H957 0.958 . S
C943 H958 0.961 . S
C943 H959 0.960 . S
H944 C928 0.931 . S
H945 C933 0.929 . S
H946 C934 0.960 . S
H947 C934 0.962 . S
H948 C934 0.960 . S
H949 C935 0.961 . S
H950 C935 0.961 . S
H951 C935 0.961 1_556 S
H952 C936 0.931 1_554 S
H953 C941 0.930 . S
H954 C942 0.956 . S
H955 C942 0.961 . S
H956 C942 0.961 . S
H957 C943 0.958 . S
H958 C943 0.961 . S
H959 C943 0.960 . S
C960 C961 1.391 1_556 S
C960 C962 1.394 . S
C960 H976 0.931 . S
C961 C960 1.391 1_554 S
C961 C965 1.376 . S
C962 C960 1.394 . S
C962 C963 1.369 . S
C962 C966 1.531 . S
C963 C962 1.369 . S
C963 C964 1.410 1_556 S
C963 C971 1.503 . S
C964 C963 1.410 1_554 S
C964 C965 1.392 . S
C964 C967 1.511 . S
C965 C961 1.376 . S
C965 C964 1.392 . S
C965 H977 0.929 . S
C966 C962 1.531 . S
C966 H978 0.960 . S
C966 H979 0.962 . S
C966 H980 0.960 . S
C967 C964 1.511 . S
C967 H981 0.961 . S
C967 H982 0.961 . S
C967 H983 0.961 . S
C968 C969 1.370 . S
C968 C970 1.363 . S
C968 H984 0.931 . S
C969 C968 1.370 . S
C969 C973 1.408 . S
C970 C968 1.363 . S
C970 C971 1.370 . S
C970 C974 1.524 . S
C971 C963 1.503 . S
C971 C970 1.370 . S
C971 C972 1.403 . S
C972 C971 1.403 . S
C972 C973 1.404 . S
C972 C975 1.539 . S
C973 C969 1.408 . S
C973 C972 1.404 . S
C973 H985 0.930 . S
C974 C970 1.524 . S
C974 H986 0.956 . S
C974 H987 0.961 1_556 S
C974 H988 0.961 . S
C975 C972 1.539 . S
C975 H989 0.958 . S
C975 H990 0.961 . S
C975 H991 0.960 . S
H976 C960 0.931 . S
H977 C965 0.929 . S
H978 C966 0.960 . S
H979 C966 0.962 . S
H980 C966 0.960 . S
H981 C967 0.961 . S
H982 C967 0.961 . S
H983 C967 0.961 . S
H984 C968 0.931 . S
H985 C973 0.930 . S
H986 C974 0.956 . S
H987 C974 0.961 1_554 S
H988 C974 0.961 . S
H989 C975 0.958 . S
H990 C975 0.961 . S
H991 C975 0.960 . S
C992 C993 1.391 1_655 S
C992 C994 1.394 . S
C992 H1008 0.931 . S
C993 C992 1.391 1_455 S
C993 C997 1.376 . S
C994 C992 1.394 . S
C994 C995 1.369 1_655 S
C994 C998 1.531 . S
C995 C994 1.369 1_455 S
C995 C996 1.410 . S
C995 C1003 1.503 . S
C996 C995 1.410 . S
C996 C997 1.392 . S
C996 C999 1.511 . S
C997 C993 1.376 . S
C997 C996 1.392 . S
C997 H1009 0.929 . S
C998 C994 1.531 . S
C998 H1010 0.960 . S
C998 H1011 0.962 . S
C998 H1012 0.960 . S
C999 C996 1.511 . S
C999 H1013 0.961 . S
C999 H1014 0.961 . S
C999 H1015 0.961 . S
C1000 C1001 1.370 . S
C1000 C1002 1.363 . S
C1000 H1016 0.931 . S
C1001 C1000 1.370 . S
C1001 C1005 1.408 . S
C1002 C1000 1.363 . S
C1002 C1003 1.370 . S
C1002 C1006 1.524 . S
C1003 C995 1.503 . S
C1003 C1002 1.370 . S
C1003 C1004 1.403 . S
C1004 C1003 1.403 . S
C1004 C1005 1.404 . S
C1004 C1007 1.539 . S
C1005 C1001 1.408 . S
C1005 C1004 1.404 . S
C1005 H1017 0.930 . S
C1006 C1002 1.524 . S
C1006 H1018 0.956 1_455 S
C1006 H1019 0.961 . S
C1006 H1020 0.961 . S
C1007 C1004 1.539 . S
C1007 H1021 0.958 1_455 S
C1007 H1022 0.961 . S
C1007 H1023 0.960 . S
H1008 C992 0.931 . S
H1009 C997 0.929 . S
H1010 C998 0.960 . S
H1011 C998 0.962 . S
H1012 C998 0.960 . S
H1013 C999 0.961 . S
H1014 C999 0.961 . S
H1015 C999 0.961 . S
H1016 C1000 0.931 . S
H1017 C1005 0.930 . S
H1018 C1006 0.956 1_655 S
H1019 C1006 0.961 . S
H1020 C1006 0.961 . S
H1021 C1007 0.958 1_655 S
H1022 C1007 0.961 . S
H1023 C1007 0.960 . S
C1024 C1025 1.390 1_565 S
C1024 C1026 1.393 1_565 S
C1024 H1040 0.932 . S
C1025 C1024 1.390 1_545 S
C1025 C1029 1.376 . S
C1026 C1024 1.393 1_545 S
C1026 C1027 1.369 . S
C1026 C1030 1.531 1_545 S
C1027 C1026 1.369 . S
C1027 C1028 1.410 . S
C1027 C1035 1.503 . S
C1028 C1027 1.410 . S
C1028 C1029 1.392 . S
C1028 C1031 1.511 . S
C1029 C1025 1.376 . S
C1029 C1028 1.392 . S
C1029 H1041 0.929 . S
C1030 C1026 1.531 1_565 S
C1030 H1042 0.960 1_565 S
C1030 H1043 0.962 . S
C1030 H1044 0.958 1_565 S
C1031 C1028 1.511 . S
C1031 H1045 0.961 . S
C1031 H1046 0.961 . S
C1031 H1047 0.961 . S
C1032 C1033 1.370 1_565 S
C1032 C1034 1.363 . S
C1032 H1048 0.931 . S
C1033 C1032 1.370 1_545 S
C1033 C1037 1.408 . S
C1034 C1032 1.363 . S
C1034 C1035 1.370 1_565 S
C1034 C1038 1.524 . S
C1035 C1027 1.503 . S
C1035 C1034 1.370 1_545 S
C1035 C1036 1.403 . S
C1036 C1035 1.403 . S
C1036 C1037 1.404 . S
C1036 C1039 1.539 . S
C1037 C1033 1.408 . S
C1037 C1036 1.404 . S
C1037 H1049 0.930 . S
C1038 C1034 1.524 . S
C1038 H1050 0.956 . S
C1038 H1051 0.961 . S
C1038 H1052 0.961 . S
C1039 C1036 1.539 . S
C1039 H1053 0.958 . S
C1039 H1054 0.961 . S
C1039 H1055 0.960 . S
H1040 C1024 0.932 . S
H1041 C1029 0.929 . S
H1042 C1030 0.960 1_545 S
H1043 C1030 0.962 . S
H1044 C1030 0.958 1_545 S
H1045 C1031 0.961 . S
H1046 C1031 0.961 . S
H1047 C1031 0.961 . S
H1048 C1032 0.931 . S
H1049 C1037 0.930 . S
H1050 C1038 0.956 . S
H1051 C1038 0.961 . S
H1052 C1038 0.961 . S
H1053 C1039 0.958 . S
H1054 C1039 0.961 . S
H1055 C1039 0.960 . S
C1056 C1057 1.391 . S
C1056 C1058 1.394 . S
C1056 H1072 0.931 . S
C1057 C1056 1.391 . S
C1057 C1061 1.376 . S
C1058 C1056 1.394 . S
C1058 C1059 1.369 . S
C1058 C1062 1.531 . S
C1059 C1058 1.369 . S
C1059 C1060 1.410 . S
C1059 C1067 1.503 . S
C1060 C1059 1.410 . S
C1060 C1061 1.392 . S
C1060 C1063 1.511 . S
C1061 C1057 1.376 . S
C1061 C1060 1.392 . S
C1061 H1073 0.929 . S
C1062 C1058 1.531 . S
C1062 H1074 0.960 . S
C1062 H1075 0.962 . S
C1062 H1076 0.960 . S
C1063 C1060 1.511 . S
C1063 H1077 0.961 . S
C1063 H1078 0.961 . S
C1063 H1079 0.961 . S
C1064 C1065 1.370 . S
C1064 C1066 1.363 . S
C1064 H1080 0.931 . S
C1065 C1064 1.370 . S
C1065 C1069 1.408 . S
C1066 C1064 1.363 . S
C1066 C1067 1.370 . S
C1066 C1070 1.524 . S
C1067 C1059 1.503 . S
C1067 C1066 1.370 . S
C1067 C1068 1.403 . S
C1068 C1067 1.403 . S
C1068 C1069 1.404 . S
C1068 C1071 1.539 . S
C1069 C1065 1.408 . S
C1069 C1068 1.404 . S
C1069 H1081 0.930 . S
C1070 C1066 1.524 . S
C1070 H1082 0.956 . S
C1070 H1083 0.961 . S
C1070 H1084 0.961 . S
C1071 C1068 1.539 . S
C1071 H1085 0.958 . S
C1071 H1086 0.961 . S
C1071 H1087 0.960 . S
H1072 C1056 0.931 . S
H1073 C1061 0.929 . S
H1074 C1062 0.960 . S
H1075 C1062 0.962 . S
H1076 C1062 0.960 . S
H1077 C1063 0.961 . S
H1078 C1063 0.961 . S
H1079 C1063 0.961 . S
H1080 C1064 0.931 . S
H1081 C1069 0.930 . S
H1082 C1070 0.956 . S
H1083 C1070 0.961 . S
H1084 C1070 0.961 . S
H1085 C1071 0.958 . S
H1086 C1071 0.961 . S
H1087 C1071 0.960 . S
C1088 C1089 1.391 . S
C1088 C1090 1.394 . S
C1088 H1104 0.931 . S
C1089 C1088 1.391 . S
C1089 C1093 1.376 . S
C1090 C1088 1.394 . S
C1090 C1091 1.369 . S
C1090 C1094 1.531 . S
C1091 C1090 1.369 . S
C1091 C1092 1.410 . S
C1091 C1099 1.503 . S
C1092 C1091 1.410 . S
C1092 C1093 1.392 . S
C1092 C1095 1.511 . S
C1093 C1089 1.376 . S
C1093 C1092 1.392 . S
C1093 H1105 0.929 . S
C1094 C1090 1.531 . S
C1094 H1106 0.960 . S
C1094 H1107 0.962 . S
C1094 H1108 0.960 . S
C1095 C1092 1.511 . S
C1095 H1109 0.961 . S
C1095 H1110 0.961 . S
C1095 H1111 0.961 . S
C1096 C1097 1.370 . S
C1096 C1098 1.363 . S
C1096 H1112 0.931 . S
C1097 C1096 1.370 . S
C1097 C1101 1.408 . S
C1098 C1096 1.363 . S
C1098 C1099 1.370 . S
C1098 C1102 1.524 . S
C1099 C1091 1.503 . S
C1099 C1098 1.370 . S
C1099 C1100 1.403 . S
C1100 C1099 1.403 . S
C1100 C1101 1.404 . S
C1100 C1103 1.539 . S
C1101 C1097 1.408 . S
C1101 C1100 1.404 . S
C1101 H1113 0.930 . S
C1102 C1098 1.524 . S
C1102 H1114 0.956 . S
C1102 H1115 0.961 . S
C1102 H1116 0.961 . S
C1103 C1100 1.539 . S
C1103 H1117 0.958 . S
C1103 H1118 0.961 . S
C1103 H1119 0.960 . S
H1104 C1088 0.931 . S
H1105 C1093 0.929 . S
H1106 C1094 0.960 . S
H1107 C1094 0.962 . S
H1108 C1094 0.960 . S
H1109 C1095 0.961 . S
H1110 C1095 0.961 . S
H1111 C1095 0.961 . S
H1112 C1096 0.931 . S
H1113 C1101 0.930 . S
H1114 C1102 0.956 . S
H1115 C1102 0.961 . S
H1116 C1102 0.961 . S
H1117 C1103 0.958 . S
H1118 C1103 0.961 . S
H1119 C1103 0.960 . S
C1120 C1121 1.391 . S
C1120 C1122 1.394 . S
C1120 H1136 0.931 . S
C1121 C1120 1.391 . S
C1121 C1125 1.376 1_655 S
C1122 C1120 1.394 . S
C1122 C1123 1.369 . S
C1122 C1126 1.531 . S
C1123 C1122 1.369 . S
C1123 C1124 1.410 1_655 S
C1123 C1131 1.503 . S
C1124 C1123 1.410 1_455 S
C1124 C1125 1.392 . S
C1124 C1127 1.511 . S
C1125 C1121 1.376 1_455 S
C1125 C1124 1.392 . S
C1125 H1137 0.929 . S
C1126 C1122 1.531 . S
C1126 H1138 0.960 . S
C1126 H1139 0.962 . S
C1126 H1140 0.960 . S
C1127 C1124 1.511 . S
C1127 H1141 0.961 . S
C1127 H1142 0.961 . S
C1127 H1143 0.961 . S
C1128 C1129 1.370 . S
C1128 C1130 1.363 . S
C1128 H1144 0.931 . S
C1129 C1128 1.370 . S
C1129 C1133 1.412 . S
C1130 C1128 1.363 . S
C1130 C1131 1.370 . S
C1130 C1134 1.524 . S
C1131 C1123 1.503 . S
C1131 C1130 1.370 . S
C1131 C1132 1.391 1_655 S
C1132 C1131 1.391 1_455 S
C1132 C1133 1.402 1_455 S
C1132 C1135 1.559 . S
C1133 C1129 1.412 . S
C1133 C1132 1.402 1_655 S
C1133 H1145 0.927 1_655 S
C1134 C1130 1.524 . S
C1134 H1146 0.956 . S
C1134 H1147 0.961 . S
C1134 H1148 0.961 . S
C1135 C1132 1.559 . S
C1135 H1149 0.958 1_455 S
C1135 H1150 0.961 . S
C1135 H1151 0.960 . S
H1136 C1120 0.931 . S
H1137 C1125 0.929 . S
H1138 C1126 0.960 . S
H1139 C1126 0.962 . S
H1140 C1126 0.960 . S
H1141 C1127 0.961 . S
H1142 C1127 0.961 . S
H1143 C1127 0.961 . S
H1144 C1128 0.931 . S
H1145 C1133 0.927 1_455 S
H1146 C1134 0.956 . S
H1147 C1134 0.961 . S
H1148 C1134 0.961 . S
H1149 C1135 0.958 1_655 S
H1150 C1135 0.961 . S
H1151 C1135 0.960 . S
C1152 C1153 1.391 1_545 S
C1152 C1154 1.394 . S
C1152 H1168 0.931 . S
C1153 C1152 1.391 1_565 S
C1153 C1157 1.376 . S
C1154 C1152 1.394 . S
C1154 C1155 1.369 1_545 S
C1154 C1158 1.531 . S
C1155 C1154 1.369 1_565 S
C1155 C1156 1.410 . S
C1155 C1163 1.503 . S
C1156 C1155 1.410 . S
C1156 C1157 1.392 . S
C1156 C1159 1.511 . S
C1157 C1153 1.376 . S
C1157 C1156 1.392 . S
C1157 H1169 0.929 . S
C1158 C1154 1.531 . S
C1158 H1170 0.960 . S
C1158 H1171 0.962 . S
C1158 H1172 0.960 . S
C1159 C1156 1.511 . S
C1159 H1173 0.961 . S
C1159 H1174 0.961 . S
C1159 H1175 0.961 . S
C1160 C1161 1.370 . S
C1160 C1162 1.363 . S
C1160 H1176 0.931 . S
C1161 C1160 1.370 . S
C1161 C1165 1.408 . S
C1162 C1160 1.363 . S
C1162 C1163 1.370 . S
C1162 C1166 1.524 . S
C1163 C1155 1.503 . S
C1163 C1162 1.370 . S
C1163 C1164 1.403 . S
C1164 C1163 1.403 . S
C1164 C1165 1.404 . S
C1164 C1167 1.539 . S
C1165 C1161 1.408 . S
C1165 C1164 1.404 . S
C1165 H1177 0.930 . S
C1166 C1162 1.524 . S
C1166 H1178 0.956 1_565 S
C1166 H1179 0.961 . S
C1166 H1180 0.961 . S
C1167 C1164 1.539 . S
C1167 H1181 0.958 1_565 S
C1167 H1182 0.961 . S
C1167 H1183 0.960 . S
H1168 C1152 0.931 . S
H1169 C1157 0.929 . S
H1170 C1158 0.960 . S
H1171 C1158 0.962 . S
H1172 C1158 0.960 . S
H1173 C1159 0.961 . S
H1174 C1159 0.961 . S
H1175 C1159 0.961 . S
H1176 C1160 0.931 . S
H1177 C1165 0.930 . S
H1178 C1166 0.956 1_545 S
H1179 C1166 0.961 . S
H1180 C1166 0.961 . S
H1181 C1167 0.958 1_545 S
H1182 C1167 0.961 . S
H1183 C1167 0.960 . S
C1184 C1185 1.391 . S
C1184 C1186 1.394 . S
C1184 H1200 0.931 . S
C1185 C1184 1.391 . S
C1185 C1189 1.376 . S
C1186 C1184 1.394 . S
C1186 C1187 1.369 . S
C1186 C1190 1.531 . S
C1187 C1186 1.369 . S
C1187 C1188 1.410 . S
C1187 C1195 1.503 . S
C1188 C1187 1.410 . S
C1188 C1189 1.392 . S
C1188 C1191 1.511 . S
C1189 C1185 1.376 . S
C1189 C1188 1.392 . S
C1189 H1201 0.929 . S
C1190 C1186 1.531 . S
C1190 H1202 0.960 . S
C1190 H1203 0.962 . S
C1190 H1204 0.960 . S
C1191 C1188 1.511 . S
C1191 H1205 0.961 . S
C1191 H1206 0.961 . S
C1191 H1207 0.961 . S
C1192 C1193 1.370 . S
C1192 C1194 1.363 . S
C1192 H1208 0.931 . S
C1193 C1192 1.370 . S
C1193 C1197 1.408 . S
C1194 C1192 1.363 . S
C1194 C1195 1.370 . S
C1194 C1198 1.524 . S
C1195 C1187 1.503 . S
C1195 C1194 1.370 . S
C1195 C1196 1.403 . S
C1196 C1195 1.403 . S
C1196 C1197 1.404 . S
C1196 C1199 1.539 . S
C1197 C1193 1.408 . S
C1197 C1196 1.404 . S
C1197 H1209 0.930 . S
C1198 C1194 1.524 . S
C1198 H1210 0.956 . S
C1198 H1211 0.961 . S
C1198 H1212 0.961 . S
C1199 C1196 1.539 . S
C1199 H1213 0.958 . S
C1199 H1214 0.961 . S
C1199 H1215 0.960 . S
H1200 C1184 0.931 . S
H1201 C1189 0.929 . S
H1202 C1190 0.960 . S
H1203 C1190 0.962 . S
H1204 C1190 0.960 . S
H1205 C1191 0.961 . S
H1206 C1191 0.961 . S
H1207 C1191 0.961 . S
H1208 C1192 0.931 . S
H1209 C1197 0.930 . S
H1210 C1198 0.956 . S
H1211 C1198 0.961 . S
H1212 C1198 0.961 . S
H1213 C1199 0.958 . S
H1214 C1199 0.961 . S
H1215 C1199 0.960 . S
C1216 C1217 1.391 . S
C1216 C1218 1.394 . S
C1216 H1232 0.931 . S
C1217 C1216 1.391 . S
C1217 C1221 1.376 . S
C1218 C1216 1.394 . S
C1218 C1219 1.369 . S
C1218 C1222 1.531 . S
C1219 C1218 1.369 . S
C1219 C1220 1.410 . S
C1219 C1227 1.503 . S
C1220 C1219 1.410 . S
C1220 C1221 1.392 . S
C1220 C1223 1.511 . S
C1221 C1217 1.376 . S
C1221 C1220 1.392 . S
C1221 H1233 0.929 . S
C1222 C1218 1.531 . S
C1222 H1234 0.960 . S
C1222 H1235 0.962 . S
C1222 H1236 0.960 . S
C1223 C1220 1.511 . S
C1223 H1237 0.961 . S
C1223 H1238 0.961 . S
C1223 H1239 0.961 . S
C1224 C1225 1.370 . S
C1224 C1226 1.363 . S
C1224 H1240 0.931 . S
C1225 C1224 1.370 . S
C1225 C1229 1.408 . S
C1226 C1224 1.363 . S
C1226 C1227 1.370 . S
C1226 C1230 1.524 . S
C1227 C1219 1.503 . S
C1227 C1226 1.370 . S
C1227 C1228 1.403 . S
C1228 C1227 1.403 . S
C1228 C1229 1.404 . S
C1228 C1231 1.539 . S
C1229 C1225 1.408 . S
C1229 C1228 1.404 . S
C1229 H1241 0.930 . S
C1230 C1226 1.524 . S
C1230 H1242 0.956 . S
C1230 H1243 0.961 . S
C1230 H1244 0.961 . S
C1231 C1228 1.539 . S
C1231 H1245 0.958 . S
C1231 H1246 0.961 . S
C1231 H1247 0.960 . S
H1232 C1216 0.931 . S
H1233 C1221 0.929 . S
H1234 C1222 0.960 . S
H1235 C1222 0.962 . S
H1236 C1222 0.960 . S
H1237 C1223 0.961 . S
H1238 C1223 0.961 . S
H1239 C1223 0.961 . S
H1240 C1224 0.931 . S
H1241 C1229 0.930 . S
H1242 C1230 0.956 . S
H1243 C1230 0.961 . S
H1244 C1230 0.961 . S
H1245 C1231 0.958 . S
H1246 C1231 0.961 . S
H1247 C1231 0.960 . S
C481 C255 2.245 . S
C489 C338 2.498 1_545 S
C521 C378 2.508 . S
C513 C295 2.272 . S
C553 C418 2.512 . S
C545 C175 2.278 . S
C585 C458 2.499 1_455 S
C577 C215 2.305 1_655 S
C617 C328 2.497 . S
C609 C95 2.296 . S
C641 C135 2.298 . S
C649 C368 2.509 . S
C673 C15 2.315 . S
C681 C408 2.508 . S
C705 C55 2.273 1_655 S
C713 C448 2.503 1_655 S
C745 C325 0.377 . S
C737 C221 0.290 . S
C777 C365 0.410 . S
C769 C261 0.447 . S
C809 C405 0.348 . S
C801 C301 0.356 . S
C833 C181 0.373 . S
C841 C445 0.417 . S
C865 C61 0.534 1_655 S
C873 C335 0.363 . S
C905 C375 0.358 . S
C897 C101 0.554 1_565 S
C937 C415 0.355 . S
C929 C141 0.568 . S
C961 C21 0.560 . S
C969 C455 0.349 . S
C993 C202 3.135 . S
C1001 C329 3.445 . S
C1025 C242 3.094 . S
C1033 C369 3.439 . S
C1065 C409 3.426 . S
C1057 C282 3.068 . S
C1097 C449 3.449 . S
C1089 C162 3.071 . S
C1121 C42 3.146 1_655 S
C1129 C339 3.455 . S
C1161 C379 3.439 . S
C1153 C82 3.081 1_565 S
C1193 C419 3.427 . S
C1185 C122 3.129 . S
C1217 C2 3.129 . S
C1225 C459 3.447 . S
