# Generated by pormake.
# Topology gar, (4,6)-cn, num edge types: 1
# Building blocks:
#     Node 0, Type 0, BuildingBlock: NAHDIM_clean_sbu_0, # of connection points: 4
#     Node 1, Type 0, BuildingBlock: NAHDIM_clean_sbu_0, # of connection points: 4
#     Node 2, Type 0, BuildingBlock: NAHDIM_clean_sbu_0, # of connection points: 4
#     Node 3, Type 0, BuildingBlock: NAHDIM_clean_sbu_0, # of connection points: 4
#     Node 4, Type 0, BuildingBlock: NAHDIM_clean_sbu_0, # of connection points: 4
#     Node 5, Type 0, BuildingBlock: NAHDIM_clean_sbu_0, # of connection points: 4
#     Node 6, Type 0, BuildingBlock: NAHDIM_clean_sbu_0, # of connection points: 4
#     Node 7, Type 0, BuildingBlock: NAHDIM_clean_sbu_0, # of connection points: 4
#     Node 8, Type 0, BuildingBlock: NAHDIM_clean_sbu_0, # of connection points: 4
#     Node 9, Type 0, BuildingBlock: NAHDIM_clean_sbu_0, # of connection points: 4
#     Node 10, Type 0, BuildingBlock: NAHDIM_clean_sbu_0, # of connection points: 4
#     Node 11, Type 0, BuildingBlock: NAHDIM_clean_sbu_0, # of connection points: 4
#     Node 12, Type 0, BuildingBlock: NAHDIM_clean_sbu_0, # of connection points: 4
#     Node 13, Type 0, BuildingBlock: NAHDIM_clean_sbu_0, # of connection points: 4
#     Node 14, Type 0, BuildingBlock: NAHDIM_clean_sbu_0, # of connection points: 4
#     Node 15, Type 0, BuildingBlock: NAHDIM_clean_sbu_0, # of connection points: 4
#     Node 16, Type 0, BuildingBlock: NAHDIM_clean_sbu_0, # of connection points: 4
#     Node 17, Type 0, BuildingBlock: NAHDIM_clean_sbu_0, # of connection points: 4
#     Node 18, Type 0, BuildingBlock: NAHDIM_clean_sbu_0, # of connection points: 4
#     Node 19, Type 0, BuildingBlock: NAHDIM_clean_sbu_0, # of connection points: 4
#     Node 20, Type 0, BuildingBlock: NAHDIM_clean_sbu_0, # of connection points: 4
#     Node 21, Type 0, BuildingBlock: NAHDIM_clean_sbu_0, # of connection points: 4
#     Node 22, Type 0, BuildingBlock: NAHDIM_clean_sbu_0, # of connection points: 4
#     Node 23, Type 0, BuildingBlock: NAHDIM_clean_sbu_0, # of connection points: 4
#     Node 24, Type 1, BuildingBlock: KUMJIN_clean_sbu_1, # of connection points: 6
#     Node 25, Type 1, BuildingBlock: KUMJIN_clean_sbu_1, # of connection points: 6
#     Node 26, Type 1, BuildingBlock: KUMJIN_clean_sbu_1, # of connection points: 6
#     Node 27, Type 1, BuildingBlock: KUMJIN_clean_sbu_1, # of connection points: 6
#     Node 28, Type 1, BuildingBlock: KUMJIN_clean_sbu_1, # of connection points: 6
#     Node 29, Type 1, BuildingBlock: KUMJIN_clean_sbu_1, # of connection points: 6
#     Node 30, Type 1, BuildingBlock: KUMJIN_clean_sbu_1, # of connection points: 6
#     Node 31, Type 1, BuildingBlock: KUMJIN_clean_sbu_1, # of connection points: 6
#     Node 32, Type 1, BuildingBlock: KUMJIN_clean_sbu_1, # of connection points: 6
#     Node 33, Type 1, BuildingBlock: KUMJIN_clean_sbu_1, # of connection points: 6
#     Node 34, Type 1, BuildingBlock: KUMJIN_clean_sbu_1, # of connection points: 6
#     Node 35, Type 1, BuildingBlock: KUMJIN_clean_sbu_1, # of connection points: 6
#     Node 36, Type 1, BuildingBlock: KUMJIN_clean_sbu_1, # of connection points: 6
#     Node 37, Type 1, BuildingBlock: KUMJIN_clean_sbu_1, # of connection points: 6
#     Node 38, Type 1, BuildingBlock: KUMJIN_clean_sbu_1, # of connection points: 6
#     Node 39, Type 1, BuildingBlock: KUMJIN_clean_sbu_1, # of connection points: 6
#     Edge 40, Type (0, 1), BuildingBlock: XUDNAN_clean_linker_2, # of connection points: 2
#     Edge 41, Type (0, 1), BuildingBlock: XUDNAN_clean_linker_2, # of connection points: 2
#     Edge 42, Type (0, 1), BuildingBlock: XUDNAN_clean_linker_2, # of connection points: 2
#     Edge 43, Type (0, 1), BuildingBlock: XUDNAN_clean_linker_2, # of connection points: 2
#     Edge 44, Type (0, 1), BuildingBlock: XUDNAN_clean_linker_2, # of connection points: 2
#     Edge 45, Type (0, 1), BuildingBlock: XUDNAN_clean_linker_2, # of connection points: 2
#     Edge 46, Type (0, 1), BuildingBlock: XUDNAN_clean_linker_2, # of connection points: 2
#     Edge 47, Type (0, 1), BuildingBlock: XUDNAN_clean_linker_2, # of connection points: 2
#     Edge 48, Type (0, 1), BuildingBlock: XUDNAN_clean_linker_2, # of connection points: 2
#     Edge 49, Type (0, 1), BuildingBlock: XUDNAN_clean_linker_2, # of connection points: 2
#     Edge 50, Type (0, 1), BuildingBlock: XUDNAN_clean_linker_2, # of connection points: 2
#     Edge 51, Type (0, 1), BuildingBlock: XUDNAN_clean_linker_2, # of connection points: 2
#     Edge 52, Type (0, 1), BuildingBlock: XUDNAN_clean_linker_2, # of connection points: 2
#     Edge 53, Type (0, 1), BuildingBlock: XUDNAN_clean_linker_2, # of connection points: 2
#     Edge 54, Type (0, 1), BuildingBlock: XUDNAN_clean_linker_2, # of connection points: 2
#     Edge 55, Type (0, 1), BuildingBlock: XUDNAN_clean_linker_2, # of connection points: 2
#     Edge 56, Type (0, 1), BuildingBlock: XUDNAN_clean_linker_2, # of connection points: 2
#     Edge 57, Type (0, 1), BuildingBlock: XUDNAN_clean_linker_2, # of connection points: 2
#     Edge 58, Type (0, 1), BuildingBlock: XUDNAN_clean_linker_2, # of connection points: 2
#     Edge 59, Type (0, 1), BuildingBlock: XUDNAN_clean_linker_2, # of connection points: 2
#     Edge 60, Type (0, 1), BuildingBlock: XUDNAN_clean_linker_2, # of connection points: 2
#     Edge 61, Type (0, 1), BuildingBlock: XUDNAN_clean_linker_2, # of connection points: 2
#     Edge 62, Type (0, 1), BuildingBlock: XUDNAN_clean_linker_2, # of connection points: 2
#     Edge 63, Type (0, 1), BuildingBlock: XUDNAN_clean_linker_2, # of connection points: 2
#     Edge 64, Type (0, 1), BuildingBlock: XUDNAN_clean_linker_2, # of connection points: 2
#     Edge 65, Type (0, 1), BuildingBlock: XUDNAN_clean_linker_2, # of connection points: 2
#     Edge 66, Type (0, 1), BuildingBlock: XUDNAN_clean_linker_2, # of connection points: 2
#     Edge 67, Type (0, 1), BuildingBlock: XUDNAN_clean_linker_2, # of connection points: 2
#     Edge 68, Type (0, 1), BuildingBlock: XUDNAN_clean_linker_2, # of connection points: 2
#     Edge 69, Type (0, 1), BuildingBlock: XUDNAN_clean_linker_2, # of connection points: 2
#     Edge 70, Type (0, 1), BuildingBlock: XUDNAN_clean_linker_2, # of connection points: 2
#     Edge 71, Type (0, 1), BuildingBlock: XUDNAN_clean_linker_2, # of connection points: 2
#     Edge 72, Type (0, 1), BuildingBlock: XUDNAN_clean_linker_2, # of connection points: 2
#     Edge 73, Type (0, 1), BuildingBlock: XUDNAN_clean_linker_2, # of connection points: 2
#     Edge 74, Type (0, 1), BuildingBlock: XUDNAN_clean_linker_2, # of connection points: 2
#     Edge 75, Type (0, 1), BuildingBlock: XUDNAN_clean_linker_2, # of connection points: 2
#     Edge 76, Type (0, 1), BuildingBlock: XUDNAN_clean_linker_2, # of connection points: 2
#     Edge 77, Type (0, 1), BuildingBlock: XUDNAN_clean_linker_2, # of connection points: 2
#     Edge 78, Type (0, 1), BuildingBlock: XUDNAN_clean_linker_2, # of connection points: 2
#     Edge 79, Type (0, 1), BuildingBlock: XUDNAN_clean_linker_2, # of connection points: 2
#     Edge 80, Type (0, 1), BuildingBlock: XUDNAN_clean_linker_2, # of connection points: 2
#     Edge 81, Type (0, 1), BuildingBlock: XUDNAN_clean_linker_2, # of connection points: 2
#     Edge 82, Type (0, 1), BuildingBlock: XUDNAN_clean_linker_2, # of connection points: 2
#     Edge 83, Type (0, 1), BuildingBlock: XUDNAN_clean_linker_2, # of connection points: 2
#     Edge 84, Type (0, 1), BuildingBlock: XUDNAN_clean_linker_2, # of connection points: 2
#     Edge 85, Type (0, 1), BuildingBlock: XUDNAN_clean_linker_2, # of connection points: 2
#     Edge 86, Type (0, 1), BuildingBlock: XUDNAN_clean_linker_2, # of connection points: 2
#     Edge 87, Type (0, 1), BuildingBlock: XUDNAN_clean_linker_2, # of connection points: 2
#     Edge 88, Type (0, 1), BuildingBlock: XUDNAN_clean_linker_2, # of connection points: 2
#     Edge 89, Type (0, 1), BuildingBlock: XUDNAN_clean_linker_2, # of connection points: 2
#     Edge 90, Type (0, 1), BuildingBlock: XUDNAN_clean_linker_2, # of connection points: 2
#     Edge 91, Type (0, 1), BuildingBlock: XUDNAN_clean_linker_2, # of connection points: 2
#     Edge 92, Type (0, 1), BuildingBlock: XUDNAN_clean_linker_2, # of connection points: 2
#     Edge 93, Type (0, 1), BuildingBlock: XUDNAN_clean_linker_2, # of connection points: 2
#     Edge 94, Type (0, 1), BuildingBlock: XUDNAN_clean_linker_2, # of connection points: 2
#     Edge 95, Type (0, 1), BuildingBlock: XUDNAN_clean_linker_2, # of connection points: 2
#     Edge 96, Type (0, 1), BuildingBlock: XUDNAN_clean_linker_2, # of connection points: 2
#     Edge 97, Type (0, 1), BuildingBlock: XUDNAN_clean_linker_2, # of connection points: 2
#     Edge 98, Type (0, 1), BuildingBlock: XUDNAN_clean_linker_2, # of connection points: 2
#     Edge 99, Type (0, 1), BuildingBlock: XUDNAN_clean_linker_2, # of connection points: 2
#     Edge 100, Type (0, 1), BuildingBlock: XUDNAN_clean_linker_2, # of connection points: 2
#     Edge 101, Type (0, 1), BuildingBlock: XUDNAN_clean_linker_2, # of connection points: 2
#     Edge 102, Type (0, 1), BuildingBlock: XUDNAN_clean_linker_2, # of connection points: 2
#     Edge 103, Type (0, 1), BuildingBlock: XUDNAN_clean_linker_2, # of connection points: 2
#     Edge 104, Type (0, 1), BuildingBlock: XUDNAN_clean_linker_2, # of connection points: 2
#     Edge 105, Type (0, 1), BuildingBlock: XUDNAN_clean_linker_2, # of connection points: 2
#     Edge 106, Type (0, 1), BuildingBlock: XUDNAN_clean_linker_2, # of connection points: 2
#     Edge 107, Type (0, 1), BuildingBlock: XUDNAN_clean_linker_2, # of connection points: 2
#     Edge 108, Type (0, 1), BuildingBlock: XUDNAN_clean_linker_2, # of connection points: 2
#     Edge 109, Type (0, 1), BuildingBlock: XUDNAN_clean_linker_2, # of connection points: 2
#     Edge 110, Type (0, 1), BuildingBlock: XUDNAN_clean_linker_2, # of connection points: 2
#     Edge 111, Type (0, 1), BuildingBlock: XUDNAN_clean_linker_2, # of connection points: 2
#     Edge 112, Type (0, 1), BuildingBlock: XUDNAN_clean_linker_2, # of connection points: 2
#     Edge 113, Type (0, 1), BuildingBlock: XUDNAN_clean_linker_2, # of connection points: 2
#     Edge 114, Type (0, 1), BuildingBlock: XUDNAN_clean_linker_2, # of connection points: 2
#     Edge 115, Type (0, 1), BuildingBlock: XUDNAN_clean_linker_2, # of connection points: 2
#     Edge 116, Type (0, 1), BuildingBlock: XUDNAN_clean_linker_2, # of connection points: 2
#     Edge 117, Type (0, 1), BuildingBlock: XUDNAN_clean_linker_2, # of connection points: 2
#     Edge 118, Type (0, 1), BuildingBlock: XUDNAN_clean_linker_2, # of connection points: 2
#     Edge 119, Type (0, 1), BuildingBlock: XUDNAN_clean_linker_2, # of connection points: 2
#     Edge 120, Type (0, 1), BuildingBlock: XUDNAN_clean_linker_2, # of connection points: 2
#     Edge 121, Type (0, 1), BuildingBlock: XUDNAN_clean_linker_2, # of connection points: 2
#     Edge 122, Type (0, 1), BuildingBlock: XUDNAN_clean_linker_2, # of connection points: 2
#     Edge 123, Type (0, 1), BuildingBlock: XUDNAN_clean_linker_2, # of connection points: 2
#     Edge 124, Type (0, 1), BuildingBlock: XUDNAN_clean_linker_2, # of connection points: 2
#     Edge 125, Type (0, 1), BuildingBlock: XUDNAN_clean_linker_2, # of connection points: 2
#     Edge 126, Type (0, 1), BuildingBlock: XUDNAN_clean_linker_2, # of connection points: 2
#     Edge 127, Type (0, 1), BuildingBlock: XUDNAN_clean_linker_2, # of connection points: 2
#     Edge 128, Type (0, 1), BuildingBlock: XUDNAN_clean_linker_2, # of connection points: 2
#     Edge 129, Type (0, 1), BuildingBlock: XUDNAN_clean_linker_2, # of connection points: 2
#     Edge 130, Type (0, 1), BuildingBlock: XUDNAN_clean_linker_2, # of connection points: 2
#     Edge 131, Type (0, 1), BuildingBlock: XUDNAN_clean_linker_2, # of connection points: 2
#     Edge 132, Type (0, 1), BuildingBlock: XUDNAN_clean_linker_2, # of connection points: 2
#     Edge 133, Type (0, 1), BuildingBlock: XUDNAN_clean_linker_2, # of connection points: 2
#     Edge 134, Type (0, 1), BuildingBlock: XUDNAN_clean_linker_2, # of connection points: 2
#     Edge 135, Type (0, 1), BuildingBlock: XUDNAN_clean_linker_2, # of connection points: 2
# Relax obj value: 0.082
# Max RMSD: 0.198
# Mean RMSD: 0.134
data_MOF--net-gar--node1-NAHDIM_clean_sbu_0--node2-KUMJIN_clean_sbu_1--edge1-XUDNAN_clean_linker_2
_symmetry_space_group_name_H-M    P1
_symmetry_Int_Tables_number       1
_symmetry_cell_setting            triclinic
loop_
_symmetry_equiv_pos_as_xyz
'x, y, z'
_cell_length_a     60.856812
_cell_length_b     59.975422
_cell_length_c     54.959066
_cell_angle_alpha  96.487456
_cell_angle_beta   96.593807
_cell_angle_gamma 101.79234
loop_
_atom_site_label
_atom_site_type_symbol
_atom_site_fract_x
_atom_site_fract_y
_atom_site_fract_z
_atom_type_partial_charge
C0 C 0.10388 0.31376 0.34709 0.0
O1 O 0.10646 0.31245 0.3709 0.0
O2 O 0.05293 0.2926 0.3788 0.0
Zn3 Zn 0.05483 0.31828 0.35679 0.0
O4 O 0.05948 0.35026 0.37949 0.0
C5 C 1.00428 0.31958 0.34254 0.0
O6 O 1.00856 0.33443 0.36282 0.0
O7 O 0.08437 0.31637 0.33701 0.0
C8 C 0.05032 0.35383 0.39908 0.0
O9 O 0.03756 0.33627 0.40668 0.0
C10 C 0.06294 0.29419 0.40082 0.0
O11 O 0.07616 0.31388 0.41132 0.0
O12 O 0.02087 0.31127 0.33537 0.0
C13 C 0.98096 0.76518 0.72347 0.0
O14 O 0.98698 0.78307 0.71203 0.0
O15 O 0.02549 0.72199 0.6857 0.0
Zn16 Zn 0.0252 0.75315 0.70706 0.0
O17 O 0.02498 0.7781 0.68398 0.0
C18 C 0.07631 0.76222 0.71967 0.0
O19 O 0.07462 0.76205 0.6956 0.0
O20 O 0.99427 0.75091 0.72468 0.0
C21 C 0.03948 0.79712 0.68586 0.0
O22 O 0.05665 0.80212 0.7038 0.0
C23 C 0.01504 0.71134 0.66474 0.0
O24 O 0.99941 0.71986 0.65283 0.0
O25 O 0.05791 0.75965 0.72964 0.0
C26 C 0.59427 0.80392 0.8342 0.0
O27 O 0.58396 0.78235 0.83373 0.0
O28 O 0.54816 0.79083 0.87725 0.0
Zn29 Zn 0.55209 0.81798 0.85715 0.0
O30 O 0.55756 0.8487 0.88116 0.0
C31 C 0.50087 0.80732 0.84406 0.0
O32 O 0.50288 0.79926 0.86526 0.0
O33 O 0.58384 0.81976 0.8412 0.0
C34 C 0.5471 0.85321 0.89938 0.0
O35 O 0.53126 0.83692 0.9049 0.0
C36 C 0.56303 0.78932 0.89491 0.0
O37 O 0.58155 0.80568 0.90037 0.0
O38 O 0.51928 0.81551 0.83544 0.0
C39 C 0.48053 0.2481 0.22895 0.0
O40 O 0.47804 0.22565 0.22583 0.0
O41 O 0.52104 0.22011 0.18486 0.0
Zn42 Zn 0.52795 0.25294 0.20591 0.0
O43 O 0.52969 0.27475 0.17975 0.0
C44 C 0.57717 0.2495 0.2302 0.0
O45 O 0.56984 0.22706 0.22706 0.0
O46 O 0.49892 0.26054 0.22359 0.0
C47 C 0.53045 0.29603 0.1861 0.0
O48 O 0.5299 0.30335 0.20943 0.0
C49 C 0.536 0.21232 0.17393 0.0
O50 O 0.55664 0.22501 0.1764 0.0
O51 O 0.56282 0.26205 0.22496 0.0
C52 C 0.03528 0.80619 0.14454 0.0
O53 O 0.04487 0.82822 0.14777 0.0
O54 O 0.07478 0.77074 0.09333 0.0
Zn55 Zn 0.07262 0.80188 0.11513 0.0
O56 O 0.06763 0.83297 0.1 0.0
C57 C 0.11941 0.80203 0.13518 0.0
O58 O 0.11922 0.79622 0.11137 0.0
O59 O 0.04426 0.79214 0.13201 0.0
C60 C 0.07273 0.84449 0.08218 0.0
O61 O 0.08505 0.83673 0.06647 0.0
C62 C 0.05923 0.7531 0.08346 0.0
O63 O 0.03792 0.75465 0.0822 0.0
O64 O 0.10161 0.8074 0.14227 0.0
C65 C 0.5504 0.77024 0.42701 0.0
O66 O 0.55719 0.76363 0.44805 0.0
O67 O 0.51331 0.74417 0.46979 0.0
Zn68 Zn 0.50835 0.7725 0.44898 0.0
O69 O 0.51578 0.80825 0.46569 0.0
C70 C 0.46405 0.78025 0.42498 0.0
O71 O 0.4708 0.80063 0.4383 0.0
O72 O 0.53051 0.77401 0.42334 0.0
C73 C 0.50899 0.82161 0.48188 0.0
O74 O 0.49382 0.81249 0.49518 0.0
C75 C 0.50968 0.72279 0.46008 0.0
O76 O 0.50178 0.71761 0.43639 0.0
O77 O 0.47639 0.76547 0.4273 0.0
C78 C 0.52857 0.28733 0.62653 0.0
O79 O 0.52598 0.28118 0.60248 0.0
O80 O 0.56745 0.26535 0.595 0.0
Zn81 Zn 0.57361 0.29941 0.6153 0.0
O82 O 0.56917 0.33027 0.59899 0.0
C83 C 0.61157 0.2907 0.65129 0.0
O84 O 0.59661 0.27195 0.65298 0.0
O85 O 0.54854 0.29613 0.63778 0.0
C86 C 0.5749 0.34192 0.58143 0.0
O87 O 0.58739 0.33402 0.566 0.0
C88 C 0.57356 0.25785 0.57468 0.0
O89 O 0.58453 0.27293 0.56226 0.0
O90 O 0.60569 0.30476 0.63717 0.0
C91 C 0.04852 0.26173 0.92216 0.0
O92 O 0.0398 0.24097 0.92671 0.0
O93 O 0.01642 0.24576 0.96966 0.0
Zn94 Zn 0.01336 0.2754 0.95085 0.0
O95 O 0.02033 0.31005 0.96945 0.0
C96 C 0.96325 0.26921 0.92785 0.0
O97 O 0.95721 0.26781 0.94991 0.0
O98 O 0.03987 0.27835 0.93004 0.0
C99 C 1.00856 0.32346 0.97892 0.0
O100 O 0.9875 0.31479 0.98163 0.0
C101 C 1.00279 0.22634 0.97047 0.0
O102 O 0.98154 0.22319 0.96047 0.0
O103 O 0.98417 0.27119 0.92527 0.0
C104 C 0.37423 0.0647 0.31952 0.0
O105 O 0.39621 0.06984 0.32688 0.0
O106 O 0.40482 0.0238 0.29012 0.0
Zn107 Zn 0.38252 0.02036 0.31421 0.0
O108 O 0.39932 0.02364 0.34823 0.0
C109 C 0.34254 0.98323 0.29561 0.0
O110 O 0.3329 0.9986 0.28611 0.0
O111 O 0.36418 0.04385 0.31284 0.0
C112 C 0.39507 0.00776 0.36157 0.0
O113 O 0.37842 0.98982 0.35361 0.0
C114 C 0.42314 0.01709 0.29489 0.0
O115 O 0.42701 0.00863 0.31559 0.0
O116 O 0.36275 0.98908 0.30658 0.0
C117 C 0.31337 0.16597 0.52891 0.0
O118 O 0.31399 0.1791 0.5499 0.0
O119 O 0.27136 0.19701 0.54609 0.0
Zn120 Zn 0.27098 0.17936 0.51211 0.0
O121 O 0.2714 0.19664 0.48253 0.0
C122 C 0.22304 0.15554 0.5022 0.0
O123 O 0.21919 0.17457 0.49465 0.0
O124 O 0.2971 0.16408 0.51163 0.0
C125 C 0.26307 0.21414 0.4803 0.0
O126 O 0.25321 0.2222 0.49837 0.0
C127 C 0.2791 0.21717 0.55781 0.0
O128 O 0.29062 0.23318 0.5469 0.0
O129 O 0.2433 0.15388 0.50863 0.0
C130 C 0.16457 0.01861 0.80169 0.0
O131 O 0.16371 0.02321 0.82546 0.0
O132 O 0.11994 0.05392 0.76166 0.0
Zn133 Zn 0.1405 0.05563 0.7937 0.0
O134 O 0.12374 0.05061 0.82335 0.0
C135 C 0.17548 0.0944 0.78548 0.0
O136 O 0.1753 0.08177 0.76428 0.0
O137 O 0.15666 0.03055 0.7867 0.0
C138 C 0.12048 0.0684 0.83607 0.0
O139 O 0.12708 0.08851 0.82877 0.0
C140 C 0.1044 0.06493 0.75812 0.0
O141 O 0.10023 0.07844 0.77674 0.0
O142 O 0.16257 0.0865 0.80058 0.0
C143 C 0.25581 0.94439 0.98464 0.0
O144 O 0.25945 0.92366 0.9795 0.0
O145 O 0.30473 0.93961 0.02864 0.0
Zn146 Zn 0.30211 0.95289 0.9969 0.0
O147 O 0.30396 0.92958 0.96921 0.0
C148 C 0.3427 0.98522 0.01678 0.0
O149 O 0.33709 0.98 0.03814 0.0
O150 O 0.27254 0.9613 0.99151 0.0
C151 C 0.32237 0.92307 0.9677 0.0
O152 O 0.33993 0.9317 0.98479 0.0
C153 C 0.29842 0.91818 0.02919 0.0
O154 O 0.28978 0.90438 0.00852 0.0
O155 O 0.32831 0.97854 0.99741 0.0
C156 C 0.27191 0.4102 0.04218 0.0
O157 O 0.26416 0.38785 0.04008 0.0
O158 O 0.31165 0.38256 0.07439 0.0
Zn159 Zn 0.314 0.39651 0.04231 0.0
O160 O 0.30583 0.37467 0.00982 0.0
C161 C 0.35416 0.43075 0.06198 0.0
O162 O 0.34311 0.43199 0.08111 0.0
O163 O 0.29299 0.41808 0.04276 0.0
C164 C 0.31893 0.36154 0.00406 0.0
O165 O 0.33635 0.36094 0.02029 0.0
C166 C 0.30698 0.3621 0.07954 0.0
O167 O 0.30333 0.34465 0.06175 0.0
O168 O 0.34528 0.41611 0.04307 0.0
C169 C 0.82654 0.1209 0.07948 0.0
O170 O 0.82865 0.14319 0.0798 0.0
O171 O 0.78304 0.14989 0.09256 0.0
Zn172 Zn 0.78344 0.12484 0.06574 0.0
O173 O 0.79137 0.14008 0.03623 0.0
C174 C 0.73818 0.10484 0.07143 0.0
O175 O 0.74435 0.11598 0.09396 0.0
O176 O 0.80688 0.10797 0.07527 0.0
C177 C 0.77507 0.1424 0.02087 0.0
O178 O 0.75412 0.13347 0.02371 0.0
C179 C 0.76989 0.16345 0.08872 0.0
O180 O 0.75667 0.16043 0.06748 0.0
O181 O 0.75288 0.10426 0.05696 0.0
C182 C 0.20835 0.50703 0.23087 0.0
O183 O 0.19259 0.50512 0.21184 0.0
O184 O 0.17524 0.54356 0.21514 0.0
Zn185 Zn 0.19751 0.5504 0.24521 0.0
O186 O 0.1825 0.55412 0.27535 0.0
C187 C 0.22458 0.58552 0.22318 0.0
O188 O 0.21668 0.57179 0.20229 0.0
O189 O 0.21328 0.52505 0.24671 0.0
C190 C 0.1921 0.56998 0.29289 0.0
O191 O 0.21135 0.58363 0.29057 0.0
C192 C 0.16512 0.55852 0.20778 0.0
O193 O 0.16785 0.57849 0.22165 0.0
O194 O 0.21929 0.57921 0.24336 0.0
C195 C 0.76513 0.91035 0.55808 0.0
O196 O 0.76223 0.89248 0.57008 0.0
O197 O 0.80551 0.87952 0.57809 0.0
Zn198 Zn 0.8072 0.89724 0.54876 0.0
O199 O 0.80229 0.87895 0.51403 0.0
C200 C 0.85006 0.92251 0.53769 0.0
O201 O 0.84366 0.90989 0.51593 0.0
O202 O 0.78305 0.91562 0.54824 0.0
C203 C 0.81044 0.86311 0.50336 0.0
O204 O 0.82475 0.85376 0.51627 0.0
C205 C 0.79989 0.8578 0.57643 0.0
O206 O 0.79484 0.84544 0.55443 0.0
O207 O 0.83733 0.9199 0.5544 0.0
C208 C 0.92143 0.06076 0.28271 0.0
O209 O 0.9413 0.06715 0.29661 0.0
O210 O 0.95248 0.02568 0.239 0.0
Zn211 Zn 0.93655 0.01888 0.26891 0.0
O212 O 0.95706 0.02364 0.30246 0.0
C213 C 0.90383 0.97693 0.24395 0.0
O214 O 0.905 0.98707 0.22401 0.0
O215 O 0.91579 0.04088 0.27009 0.0
C216 C 0.9604 1.00554 0.31095 0.0
O217 O 0.95301 0.98568 0.29668 0.0
C218 C 0.96152 0.01314 0.22471 0.0
O219 O 0.96288 0.99249 0.22958 0.0
O220 O 0.91596 0.98697 0.26411 0.0
C221 C 0.31628 0.60937 0.57792 0.0
O222 O 0.3267 0.63074 0.5863 0.0
O223 O 0.27354 0.6458 0.59523 0.0
Zn224 Zn 0.27704 0.62698 0.56486 0.0
O225 O 0.2878 0.64518 0.53833 0.0
C226 C 0.23036 0.61396 0.54529 0.0
O227 O 0.23119 0.63615 0.54724 0.0
O228 O 0.29516 0.60467 0.57123 0.0
C229 C 0.28239 0.66434 0.53662 0.0
O230 O 0.27098 0.67242 0.55315 0.0
C231 C 0.28784 0.66392 0.60497 0.0
O232 O 0.30626 0.6706 0.59497 0.0
O233 O 0.24798 0.60686 0.55171 0.0
C234 C 0.41023 0.55205 0.75771 0.0
O235 O 0.4214 0.55569 0.73894 0.0
O236 O 0.44854 0.51959 0.73385 0.0
Zn237 Zn 0.43395 0.51483 0.76492 0.0
O238 O 0.45719 0.52189 0.79599 0.0
C239 C 0.40479 0.47119 0.74214 0.0
O240 O 0.40746 0.47995 0.72154 0.0
O241 O 0.41311 0.53599 0.77006 0.0
C242 C 0.45559 0.50915 0.81303 0.0
O243 O 0.43955 0.49031 0.80961 0.0
C244 C 0.46575 0.51105 0.73163 0.0
O245 O 0.47281 0.50004 0.74929 0.0
O246 O 0.41497 0.48272 0.76254 0.0
C247 C 0.71615 0.01337 0.73335 0.0
O248 O 0.69875 1.00314 0.71662 0.0
O249 O 0.6674 0.03881 0.71938 0.0
Zn250 Zn 0.68823 0.04397 0.75042 0.0
O251 O 0.67182 0.03309 0.77733 0.0
C252 C 0.70205 0.09162 0.74513 0.0
O253 O 0.69754 0.08411 0.72131 0.0
O254 O 0.71472 0.03058 0.74815 0.0
C255 C 0.68389 0.03608 0.79831 0.0
O256 O 0.70601 0.04282 0.79975 0.0
C257 C 0.65199 0.05001 0.72121 0.0
O258 O 0.65076 0.06129 0.74277 0.0
O259 O 0.69959 0.07744 0.76055 0.0
C260 C 0.80827 0.65899 0.01216 0.0
O261 O 0.79971 0.65455 0.98866 0.0
O262 O 0.77036 0.70307 0.05225 0.0
Zn263 Zn 0.77143 0.68349 0.02033 0.0
O264 O 0.7747 0.70328 0.99277 0.0
C265 C 0.73308 0.65111 0.03041 0.0
O266 O 0.74212 0.65956 0.0533 0.0
O267 O 0.79886 0.67017 0.02731 0.0
C268 C 0.77316 0.69544 0.96998 0.0
O269 O 0.76859 0.67311 0.96308 0.0
C270 C 0.78602 0.72083 0.05986 0.0
O271 O 0.80169 0.72691 0.04585 0.0
O272 O 0.74288 0.65848 0.01271 0.0
C273 C 0.87005 0.57235 0.83443 0.0
O274 O 0.87295 0.56719 0.857 0.0
O275 O 0.904 0.53265 0.78763 0.0
Zn276 Zn 0.88519 0.53136 0.81476 0.0
O277 O 0.90334 0.52983 0.84661 0.0
C278 C 0.85812 0.48842 0.78876 0.0
O279 O 0.86996 0.4928 0.77066 0.0
O280 O 0.87351 0.55918 0.81627 0.0
C281 C 0.90513 0.51007 0.85161 0.0
O282 O 0.89542 0.49179 0.8356 0.0
C283 C 0.9217 0.52468 0.78705 0.0
O284 O 0.92907 0.51502 0.80571 0.0
O285 O 0.86027 0.50363 0.80742 0.0
C286 C 0.76345 0.46291 0.47876 0.0
O287 O 0.76226 0.44329 0.46482 0.0
O288 O 0.7943 0.43712 0.53519 0.0
Zn289 Zn 0.80201 0.45245 0.50634 0.0
O290 O 0.80402 0.42817 0.47975 0.0
C291 C 0.84763 0.46101 0.51826 0.0
O292 O 0.84228 0.4385 0.51293 0.0
O293 O 0.7795 0.47007 0.49653 0.0
C294 C 0.80895 0.4316 0.45855 0.0
O295 O 0.81146 0.4523 0.45209 0.0
C296 C 0.78229 0.41682 0.53229 0.0
O297 O 0.77277 0.40691 0.50996 0.0
O298 O 0.8323 0.47243 0.5166 0.0
C299 C 0.65939 0.51532 0.28868 0.0
O300 O 0.63736 0.50714 0.28412 0.0
O301 O 0.62659 0.55272 0.25767 0.0
Zn302 Zn 0.64471 0.55753 0.2922 0.0
O303 O 0.62444 0.55009 0.31849 0.0
C304 C 0.67549 0.59871 0.28546 0.0
O305 O 0.67741 0.58558 0.26535 0.0
O306 O 0.66692 0.53696 0.29273 0.0
C307 C 0.63228 0.55443 0.34146 0.0
O308 O 0.65379 0.5644 0.34819 0.0
C309 C 0.61144 0.56415 0.25352 0.0
O310 O 0.60753 0.57812 0.27192 0.0
O311 O 0.66223 0.59042 0.30005 0.0
Eu312 Eu 0.06661 0.04793 0.047 0.0
C313 C 0.99887 0.96576 0.99337 0.0
N314 N 1.00931 0.98526 0.98515 0.0
C315 C 0.01676 0.96311 0.94923 0.0
C316 C 0.99794 0.94397 0.98013 0.0
C317 C 0.01759 0.98434 0.96312 0.0
C318 C 1.00705 0.94283 0.95784 0.0
C319 C 0.97954 0.94759 0.02472 0.0
C320 C 0.98965 0.96764 0.01549 0.0
C321 C 0.9789 0.92587 0.0117 0.0
C322 C 0.98796 0.92407 0.98943 0.0
Eu323 Eu 1.00747 0.01996 0.00841 0.0
N324 N 0.99038 0.98894 0.02782 0.0
C325 C 0.97007 0.94992 0.04665 0.0
C326 C 0.97969 0.9912 0.04817 0.0
C327 C 0.96993 0.97181 0.05826 0.0
H328 H 0.02452 0.99994 0.95604 0.0
H329 H 0.96187 0.97375 0.07469 0.0
H330 H 0.05311 0.06082 0.10473 0.0
H331 H 0.12255 0.10166 0.99625 0.0
H332 H 0.97783 0.00777 0.05623 0.0
H333 H 0.96225 0.93492 0.05439 0.0
H334 H 0.10022 0.06536 0.00618 0.0
H335 H 0.02344 0.96239 0.9318 0.0
H336 H 0.9712 0.91031 0.01856 0.0
H337 H 0.98713 0.90717 0.97952 0.0
H338 H 0.05398 0.09522 0.13389 0.0
H339 H 1.00648 0.9264 0.94704 0.0
H340 H 0.12432 0.1384 0.02277 0.0
N341 N 0.06751 0.07954 0.07751 0.0
C342 C 0.07883 0.10036 0.07298 0.0
C343 C 0.06064 0.09697 0.1166 0.0
C344 C 0.08062 0.12049 0.08974 0.0
C345 C 0.0596 0.07747 0.09961 0.0
C346 C 0.07085 0.11863 0.11146 0.0
N347 N 0.08828 0.08171 0.0367 0.0
C348 C 0.1004 0.08141 0.01735 0.0
C349 C 0.10274 0.12247 0.04762 0.0
C350 C 0.08986 0.10141 0.05224 0.0
C351 C 0.1143 0.12255 0.02699 0.0
C352 C 0.1133 0.10187 0.01192 0.0
H353 H 0.07188 0.13368 0.12482 0.0
H354 H 0.09413 0.15732 0.09734 0.0
H355 H 0.11339 0.15905 0.0604 0.0
O356 O 0.09481 0.03134 0.04236 0.0
O357 O 0.05136 0.07209 0.02395 0.0
O358 O 0.01242 0.05964 0.01831 0.0
O359 O 0.09443 0.05309 0.07729 0.0
O360 O 0.06624 0.03205 0.00691 0.0
O361 O 0.03297 0.03719 0.98634 0.0
O362 O 0.97082 0.01042 0.99949 0.0
O363 O 0.03424 0.99792 0.01702 0.0
O364 O 0.04895 0.01333 0.05625 0.0
O365 O 0.99072 0.02431 0.97237 0.0
O366 O 1.00535 0.03958 0.04575 0.0
O367 O 0.03782 0.03449 0.06789 0.0
C368 C 0.03087 0.07609 0.01897 0.0
C369 C 0.12667 0.03555 0.07471 0.0
C370 C 0.15622 0.01455 0.0705 0.0
C371 C 0.16693 0.02441 0.09433 0.0
C372 C 0.13743 0.04561 0.09857 0.0
C373 C 0.15756 0.04005 0.10829 0.0
C374 C 0.1363 0.02022 0.06069 0.0
C375 C 0.05429 0.03621 0.98704 0.0
C376 C 0.10496 0.04001 0.06467 0.0
C377 C 0.09274 0.14167 0.08476 0.0
C378 C 0.10378 0.14266 0.06376 0.0
C379 C 0.04245 0.99512 0.03948 0.0
C380 C 0.95486 0.03324 0.9734 0.0
C381 C 0.92832 0.05537 0.98764 0.0
C382 C 0.92366 0.06066 0.96356 0.0
C383 C 0.95003 0.03856 0.94944 0.0
C384 C 0.94426 0.04204 0.99248 0.0
C385 C 0.9346 0.05238 0.94462 0.0
C386 C 0.0177 0.03933 0.06691 0.0
C387 C 0.97048 0.01807 0.97825 0.0
H388 H 0.18251 0.02013 0.10197 0.0
H389 H 0.13022 0.05754 0.10975 0.0
H390 H 0.16581 0.04777 0.12669 0.0
H391 H 0.12816 0.01231 0.04224 0.0
H392 H 0.91124 0.07076 0.95924 0.0
H393 H 0.95809 0.03192 0.93448 0.0
H394 H 0.94827 0.03843 0.01117 0.0
H395 H 0.93085 0.05638 0.9261 0.0
Eu396 Eu 0.27306 0.78868 0.30802 0.0
C397 C 0.31749 0.73944 0.21496 0.0
N398 N 0.32778 0.75399 0.23564 0.0
C399 C 0.35325 0.72934 0.2443 0.0
C400 C 0.32428 0.71868 0.20854 0.0
C401 C 0.34596 0.74973 0.2498 0.0
C402 C 0.34213 0.71356 0.22378 0.0
C403 C 0.29091 0.73177 0.17706 0.0
C404 C 0.301 0.74592 0.19946 0.0
C405 C 0.2969 0.7106 0.17111 0.0
C406 C 0.31353 0.70407 0.18683 0.0
Eu407 Eu 0.31363 0.78719 0.24454 0.0
N408 N 0.29526 0.76632 0.2059 0.0
C409 C 0.27541 0.73951 0.16109 0.0
C410 C 0.28173 0.77482 0.18938 0.0
C411 C 0.27113 0.76132 0.16707 0.0
H412 H 0.35526 0.76233 0.26496 0.0
H413 H 0.25983 0.76783 0.15441 0.0
H414 H 0.22295 0.80145 0.28947 0.0
H415 H 0.33345 0.82995 0.39024 0.0
H416 H 0.27895 0.79201 0.1934 0.0
H417 H 0.26723 0.72911 0.14376 0.0
H418 H 0.3132 0.79786 0.35847 0.0
H419 H 0.36759 0.72597 0.25572 0.0
H420 H 0.28911 0.69938 0.15414 0.0
H421 H 0.31837 0.68795 0.18172 0.0
H422 H 0.20517 0.83488 0.29317 0.0
H423 H 0.3479 0.69783 0.21943 0.0
H424 H 0.32136 0.86696 0.39345 0.0
N425 N 0.25293 0.81835 0.31392 0.0
C426 C 0.26324 0.83717 0.33037 0.0
C427 C 0.22164 0.83587 0.30356 0.0
C428 C 0.25361 0.8566 0.33335 0.0
C429 C 0.23189 0.81702 0.30137 0.0
C430 C 0.23275 0.85593 0.3193 0.0
N431 N 0.29099 0.81704 0.34215 0.0
C432 C 0.3082 0.81413 0.35893 0.0
C433 C 0.29373 0.85519 0.36326 0.0
C434 C 0.28299 0.83651 0.34496 0.0
C435 C 0.3126 0.85302 0.37915 0.0
C436 C 0.31953 0.83219 0.37733 0.0
H437 H 0.22478 0.87051 0.32099 0.0
H438 H 0.25792 0.89104 0.35289 0.0
H439 H 0.29302 0.88971 0.37932 0.0
O440 O 0.27367 0.76072 0.33026 0.0
O441 O 0.29583 0.80202 0.28366 0.0
O442 O 0.31668 0.82312 0.26279 0.0
O443 O 0.242 0.7704 0.31896 0.0
O444 O 0.31009 0.78401 0.31592 0.0
O445 O 0.33324 0.7877 0.28356 0.0
O446 O 0.32398 0.81699 0.22609 0.0
O447 O 0.29912 0.76061 0.26786 0.0
O448 O 0.26368 0.75816 0.27804 0.0
O449 O 0.34631 0.79337 0.23077 0.0
O450 O 0.27572 0.78934 0.23659 0.0
O451 O 0.25416 0.79179 0.2701 0.0
C452 C 0.30479 0.82271 0.28045 0.0
C453 C 0.24479 0.75418 0.35627 0.0
C454 C 0.24992 0.74011 0.39608 0.0
C455 C 0.22864 0.74421 0.40047 0.0
C456 C 0.22366 0.75822 0.36121 0.0
C457 C 0.21573 0.7533 0.3832 0.0
C458 C 0.25786 0.74507 0.37382 0.0
C459 C 0.32972 0.78503 0.30681 0.0
C460 C 0.25206 0.75753 0.33199 0.0
C461 C 0.26486 0.87581 0.35057 0.0
C462 C 0.28487 0.87507 0.36557 0.0
C463 C 0.27757 0.75059 0.2643 0.0
C464 C 0.34402 0.80944 0.19314 0.0
C465 C 0.33815 0.82536 0.15456 0.0
C466 C 0.34556 0.80707 0.14212 0.0
C467 C 0.35125 0.79122 0.18035 0.0
C468 C 0.33761 0.82648 0.18012 0.0
C469 C 0.35207 0.79015 0.15499 0.0
C470 C 0.25692 0.79151 0.2463 0.0
C471 C 0.34192 0.81042 0.21967 0.0
H472 H 0.2217 0.73994 0.41706 0.0
H473 H 0.21301 0.76481 0.34789 0.0
H474 H 0.19933 0.75622 0.3867 0.0
H475 H 0.27409 0.74173 0.37012 0.0
H476 H 0.34655 0.80594 0.12248 0.0
H477 H 0.35609 0.77771 0.18983 0.0
H478 H 0.33161 0.84033 0.18983 0.0
H479 H 0.35769 0.77611 0.14524 0.0
Eu480 Eu 0.51332 0.03739 0.53975 0.0
C481 C 0.59657 0.09167 0.48845 0.0
N482 N 0.58114 0.07187 0.47876 0.0
C483 C 0.57558 0.08643 0.4401 0.0
C484 C 0.60123 0.11001 0.47449 0.0
C485 C 0.57135 0.06875 0.45459 0.0
C486 C 0.59033 0.10724 0.45017 0.0
C487 C 0.62364 0.11412 0.52299 0.0
C488 C 0.6078 0.09372 0.5125 0.0
C489 C 0.62776 0.13256 0.5093 0.0
C490 C 0.61664 0.13049 0.48513 0.0
Eu491 Eu 0.57545 0.0437 0.50581 0.0
N492 N 0.60323 0.07581 0.52565 0.0
C493 C 0.63507 0.11528 0.54687 0.0
C494 C 0.6155 0.07622 0.54807 0.0
C495 C 0.63125 0.0961 0.5593 0.0
H496 H 0.56058 0.0526 0.44591 0.0
H497 H 0.64064 0.09649 0.57737 0.0
H498 H 0.53225 0.0509 0.60246 0.0
H499 H 0.44416 0.96726 0.49446 0.0
H500 H 0.6136 0.06098 0.55695 0.0
H501 H 0.64734 0.13067 0.55557 0.0
H502 H 0.46965 1.00574 0.49982 0.0
H503 H 0.56759 0.08389 0.42106 0.0
H504 H 0.63975 0.14841 0.51714 0.0
H505 H 0.62022 0.1448 0.47472 0.0
H506 H 0.53418 0.03019 0.6384 0.0
H507 H 0.59352 0.12091 0.43885 0.0
H508 H 0.44602 0.94266 0.52758 0.0
N509 N 0.51333 0.0215 0.57756 0.0
C510 C 0.50089 0.99959 0.5757 0.0
C511 C 0.52499 0.02128 0.62079 0.0
C512 C 0.50085 0.98736 0.59619 0.0
C513 C 0.52417 0.03286 0.60011 0.0
C514 C 0.51365 0.9983 0.61872 0.0
N515 N 0.48671 1.00218 0.53455 0.0
C516 C 0.47096 0.99485 0.51396 0.0
C517 C 0.47252 0.96784 0.55169 0.0
C518 C 0.48693 0.9898 0.5537 0.0
C519 C 0.45739 0.95944 0.52984 0.0
C520 C 0.45632 0.97322 0.51107 0.0
H521 H 0.51414 0.98946 0.63484 0.0
H522 H 0.48749 0.95522 0.60928 0.0
H523 H 0.46261 0.93819 0.57033 0.0
O524 O 0.48505 0.04712 0.51789 0.0
O525 O 0.52002 1.00232 0.52288 0.0
O526 O 0.55514 1.00713 0.50745 0.0
O527 O 0.49294 0.05773 0.5577 0.0
O528 O 0.53195 0.04096 0.50843 0.0
O529 O 0.54565 0.03202 0.47551 0.0
O530 O 0.60648 0.0313 0.51546 0.0
O531 O 0.56365 0.07719 0.51866 0.0
O532 O 0.53396 0.07484 0.54317 0.0
O533 O 0.59219 0.02992 0.4766 0.0
O534 O 0.5683 0.0339 0.54346 0.0
O535 O 0.54555 0.05281 0.56419 0.0
C536 C 0.53639 0.99415 0.51304 0.0
C537 C 0.45517 0.05245 0.54094 0.0
C538 C 0.42058 0.06647 0.54108 0.0
C539 C 0.41216 0.04957 0.55538 0.0
C540 C 0.44652 0.03527 0.55488 0.0
C541 C 0.42503 0.03385 0.562 0.0
C542 C 0.44199 0.06775 0.5337 0.0
C543 C 0.52762 0.03393 0.4849 0.0
C544 C 0.47907 0.05725 0.53765 0.0
C545 C 0.48749 0.96494 0.59382 0.0
C546 C 0.4733 0.95523 0.57165 0.0
C547 C 0.55032 0.08659 0.53243 0.0
C548 C 0.62638 0.01549 0.48383 0.0
C549 C 0.65642 0.99471 0.49156 0.0
C550 C 0.65931 0.99388 0.46644 0.0
C551 C 0.62972 0.01461 0.45893 0.0
C552 C 0.63986 1.00565 0.50017 0.0
C553 C 0.64614 1.0039 0.45034 0.0
C554 C 0.56549 0.04861 0.56183 0.0
C555 C 0.60806 0.02562 0.49221 0.0
H556 H 0.39562 0.04849 0.56125 0.0
H557 H 0.4567 0.0236 0.56109 0.0
H558 H 0.41854 0.02084 0.57307 0.0
H559 H 0.44878 0.08128 0.52331 0.0
H560 H 0.67152 0.98513 0.45905 0.0
H561 H 0.6195 0.02204 0.446 0.0
H562 H 0.63736 1.00635 0.51943 0.0
H563 H 0.64849 1.00311 0.43107 0.0
Eu564 Eu 0.31838 0.2755 0.77806 0.0
C565 C 0.2383 0.3097 0.72646 0.0
N566 N 0.25342 0.32122 0.74632 0.0
C567 C 0.25752 0.35596 0.728 0.0
C568 C 0.2327 0.32092 0.70618 0.0
C569 C 0.26265 0.34412 0.74764 0.0
C570 C 0.24259 0.3443 0.70713 0.0
C571 C 0.21367 0.27392 0.70544 0.0
C572 C 0.22885 0.28638 0.72611 0.0
C573 C 0.20812 0.28509 0.68522 0.0
C574 C 0.21758 0.3085 0.68559 0.0
Eu575 Eu 0.26098 0.29951 0.77817 0.0
N576 N 0.23515 0.27573 0.74558 0.0
C577 C 0.20459 0.25054 0.70566 0.0
C578 C 0.2256 0.25325 0.74636 0.0
C579 C 0.21041 0.24023 0.72632 0.0
H580 H 0.27373 0.3534 0.76398 0.0
H581 H 0.20312 0.22228 0.72685 0.0
H582 H 0.30907 0.21998 0.78595 0.0
H583 H 0.37698 0.3506 0.83238 0.0
H584 H 0.22938 0.24536 0.76249 0.0
H585 H 0.19289 0.24036 0.69012 0.0
H586 H 0.3489 0.32957 0.7972 0.0
H587 H 0.26501 0.3741 0.72903 0.0
H588 H 0.19652 0.27576 0.66916 0.0
H589 H 0.21314 0.31684 0.66982 0.0
H590 H 0.3214 0.19624 0.81658 0.0
H591 H 0.23871 0.35353 0.69191 0.0
H592 H 0.39068 0.32968 0.86523 0.0
N593 N 0.3297 0.25126 0.8054 0.0
C594 C 0.34536 0.26166 0.82522 0.0
C595 C 0.32823 0.21462 0.81924 0.0
C596 C 0.35303 0.24877 0.843 0.0
C597 C 0.32118 0.2281 0.80203 0.0
C598 C 0.3442 0.22499 0.83983 0.0
N599 N 0.34539 0.29747 0.81076 0.0
C600 C 0.35409 0.32042 0.81175 0.0
C601 C 0.36992 0.29662 0.84816 0.0
C602 C 0.35359 0.28539 0.82788 0.0
C603 C 0.3781 0.32042 0.84994 0.0
C604 C 0.37032 0.33231 0.83151 0.0
H605 H 0.34962 0.21449 0.85314 0.0
H606 H 0.37517 0.25035 0.87727 0.0
H607 H 0.39003 0.29216 0.8817 0.0
O608 O 0.3421 0.28736 0.7527 0.0
O609 O 0.30876 0.28626 0.81587 0.0
O610 O 0.28627 0.31299 0.81304 0.0
O611 O 0.33912 0.25317 0.76259 0.0
O612 O 0.31521 0.30806 0.76211 0.0
O613 O 0.29354 0.32681 0.78535 0.0
O614 O 0.23019 0.29047 0.79668 0.0
O615 O 0.27379 0.28938 0.74138 0.0
O616 O 0.28906 0.25856 0.74874 0.0
O617 O 0.24282 0.32551 0.78928 0.0
O618 O 0.2628 0.26745 0.79625 0.0
O619 O 0.28577 0.24844 0.7748 0.0
C620 C 0.29899 0.30198 0.82601 0.0
C621 C 0.37513 0.27226 0.75444 0.0
C622 C 0.4111 0.27744 0.73729 0.0
C623 C 0.42257 0.27894 0.76139 0.0
C624 C 0.38714 0.27384 0.77812 0.0
C625 C 0.41067 0.27725 0.78155 0.0
C626 C 0.38716 0.27415 0.73401 0.0
C627 C 0.30975 0.32692 0.77153 0.0
C628 C 0.35014 0.26877 0.75108 0.0
C629 C 0.36912 0.25997 0.86338 0.0
C630 C 0.37756 0.28381 0.86592 0.0
C631 C 0.27939 0.27004 0.73349 0.0
C632 C 0.20829 0.31992 0.8078 0.0
C633 C 0.17527 0.31567 0.83041 0.0
C634 C 0.17131 0.33642 0.823 0.0
C635 C 0.20388 0.34073 0.80132 0.0
C636 C 0.19394 0.30738 0.82248 0.0
C637 C 0.18557 0.34883 0.80884 0.0
C638 C 0.26969 0.24867 0.78896 0.0
C639 C 0.22729 0.3115 0.79791 0.0
H640 H 0.44079 0.28086 0.76469 0.0
H641 H 0.37835 0.2722 0.79397 0.0
H642 H 0.41973 0.27829 0.79993 0.0
H643 H 0.3779 0.27311 0.71571 0.0
H644 H 0.15681 0.343 0.82762 0.0
H645 H 0.21437 0.35066 0.78994 0.0
H646 H 0.19738 0.29142 0.82769 0.0
H647 H 0.1822 0.36472 0.80334 0.0
Eu648 Eu 0.0483 0.00956 0.53696 0.0
C649 C 0.01987 0.09848 0.5819 0.0
N650 N 1.00844 0.08257 0.5626 0.0
C651 C 0.97339 0.08263 0.57841 0.0
C652 C 1.00836 0.10656 0.60076 0.0
C653 C 0.98549 0.07496 0.56028 0.0
C654 C 0.98487 0.09842 0.5988 0.0
C655 C 0.05567 0.12137 0.60405 0.0
C656 C 0.04336 0.10584 0.58346 0.0
C657 C 0.04422 0.12934 0.62287 0.0
C658 C 0.02065 0.12203 0.62118 0.0
Eu659 Eu 0.03011 0.07167 0.53247 0.0
N660 N 0.05417 0.09756 0.56514 0.0
C661 C 0.07916 0.12853 0.60513 0.0
C662 C 0.07683 0.10565 0.56545 0.0
C663 C 0.08974 0.12083 0.58561 0.0
H664 H 0.97643 0.06317 0.54429 0.0
H665 H 0.10779 0.12689 0.58588 0.0
H666 H 0.10343 0.02052 0.5289 0.0
H667 H 0.98228 0.93714 0.49021 0.0
H668 H 0.085 0.10115 0.54995 0.0
H669 H 0.08922 0.14038 0.62068 0.0
H670 H 1.00054 0.96958 0.52322 0.0
H671 H 0.9552 0.07641 0.57662 0.0
H672 H 0.05345 0.14123 0.63882 0.0
H673 H 0.0121 0.12832 0.63589 0.0
H674 H 0.12673 0.0139 0.49612 0.0
H675 H 0.97544 0.1042 0.61291 0.0
H676 H 1.00137 0.92918 0.45387 0.0
N677 N 0.07252 1.00221 0.50751 0.0
C678 C 0.063 0.98649 0.48735 0.0
C679 C 0.1087 1.00649 0.49311 0.0
C680 C 0.0758 0.98103 0.46858 0.0
C681 C 0.09534 0.01088 0.51139 0.0
C682 C 0.09877 0.99188 0.47131 0.0
N683 N 0.02961 0.97929 0.50561 0.0
C684 C 1.00898 0.96598 0.50743 0.0
C685 C 0.03107 0.95642 0.46716 0.0
C686 C 0.04099 0.97431 0.4866 0.0
C687 C 1.00949 0.94322 0.46833 0.0
C688 C 0.9986 0.94775 0.4888 0.0
H689 H 0.10921 0.98815 0.45735 0.0
H690 H 0.07511 0.95987 0.43368 0.0
H691 H 0.03587 0.93829 0.43244 0.0
O692 O 0.03679 0.98387 0.56116 0.0
O693 O 0.02544 0.01339 0.5024 0.0
O694 O 0.03492 0.05145 0.49643 0.0
O695 O 0.07155 0.99123 0.55467 0.0
O696 O 0.0151 0.01433 0.5495 0.0
O697 O 1.00143 0.03977 0.52557 0.0
O698 O 0.03738 0.1059 0.52046 0.0
O699 O 0.03203 0.05735 0.56931 0.0
O700 O 0.06152 0.03947 0.56753 0.0
O701 O 1.00338 0.08474 0.51301 0.0
O702 O 0.06305 0.06795 0.51873 0.0
O703 O 0.0759 0.04223 0.54209 0.0
C704 C 0.02618 0.02963 0.48801 0.0
C705 C 0.05628 0.95311 0.56027 0.0
C706 C 0.0526 0.91597 0.57559 0.0
C707 C 0.06111 0.90729 0.55471 0.0
C708 C 0.06421 0.94379 0.5392 0.0
C709 C 0.06666 0.92107 0.53654 0.0
C710 C 0.0501 0.93896 0.57832 0.0
C711 C 0.99852 0.02233 0.53845 0.0
C712 C 0.05622 0.97792 0.56425 0.0
C713 C 0.0656 0.96413 0.44839 0.0
C714 C 0.04328 0.9518 0.44771 0.0
C715 C 0.04824 0.04902 0.58038 0.0
C716 C 0.01268 0.11283 0.48617 0.0
C717 C 0.0177 0.14512 0.46175 0.0
C718 C 0.99962 0.13212 0.4441 0.0
C719 C 0.99549 0.10019 0.46755 0.0
C720 C 0.02402 0.13517 0.48299 0.0
C721 C 0.98895 0.10989 0.44686 0.0
C722 C 0.07933 0.05864 0.52804 0.0
C723 C 0.01661 0.10402 0.5101 0.0
H724 H 0.06316 0.88968 0.55232 0.0
H725 H 0.069 0.95421 0.52501 0.0
H726 H 0.07306 0.91417 0.52041 0.0
H727 H 0.04389 0.94589 0.59461 0.0
H728 H 0.99314 0.13916 0.42821 0.0
H729 H 0.98646 0.08304 0.46931 0.0
H730 H 0.03744 0.14476 0.49726 0.0
H731 H 0.97516 0.10026 0.43303 0.0
Eu732 Eu 0.28952 0.8188 0.77492 0.0
C733 C 0.24709 0.73587 0.83529 0.0
N734 N 0.26867 0.74901 0.83874 0.0
C735 C 0.26715 0.75661 0.88235 0.0
C736 C 0.23448 0.73354 0.85526 0.0
C737 C 0.27924 0.75793 0.86224 0.0
C738 C 0.24454 0.7448 0.87877 0.0
C739 C 0.21668 0.70771 0.80875 0.0
C740 C 0.23799 0.72319 0.81214 0.0
C741 C 0.20381 0.70633 0.82832 0.0
C742 C 0.21261 0.71933 0.85144 0.0
Eu743 Eu 0.28495 0.75175 0.80137 0.0
N744 N 0.25034 0.72516 0.79314 0.0
C745 C 0.2092 0.69367 0.78591 0.0
C746 C 0.24425 0.71009 0.77181 0.0
C747 C 0.22332 0.69447 0.76756 0.0
H748 H 0.29707 0.76597 0.86598 0.0
H749 H 0.21825 0.68287 0.75034 0.0
H750 H 0.27694 0.8186 0.71245 0.0
H751 H 0.35904 0.87732 0.83713 0.0
H752 H 0.25584 0.70987 0.75842 0.0
H753 H 0.19298 0.68151 0.78264 0.0
H754 H 0.32071 0.85282 0.82516 0.0
H755 H 0.27542 0.76438 0.90073 0.0
H756 H 0.18724 0.69483 0.82593 0.0
H757 H 0.20267 0.71759 0.86654 0.0
H758 H 0.29759 0.82895 0.67782 0.0
H759 H 0.23535 0.74354 0.89451 0.0
H760 H 0.38393 0.88533 0.80512 0.0
N761 N 0.30615 0.83006 0.73984 0.0
C762 C 0.32792 0.84248 0.74493 0.0
C763 C 0.3064 0.83258 0.69656 0.0
C764 C 0.34016 0.8493 0.7257 0.0
C765 C 0.29483 0.82658 0.71623 0.0
C766 C 0.32931 0.84351 0.70126 0.0
N767 N 0.32469 0.84488 0.78767 0.0
C768 C 0.33182 0.85517 0.81146 0.0
C769 C 0.35913 0.86494 0.77523 0.0
C770 C 0.33732 0.85037 0.76947 0.0
C771 C 0.36728 0.87407 0.79997 0.0
C772 C 0.35335 0.86953 0.8181 0.0
H773 H 0.33817 0.84838 0.68599 0.0
H774 H 0.37214 0.86769 0.71689 0.0
H775 H 0.38876 0.8813 0.76025 0.0
O776 O 0.28332 0.84993 0.7954 0.0
O777 O 0.32333 0.80739 0.78691 0.0
O778 O 0.32207 0.77275 0.80451 0.0
O779 O 0.26579 0.83704 0.75829 0.0
O780 O 0.28119 0.80293 0.80943 0.0
O781 O 0.3012 0.78142 0.83 0.0
O782 O 0.3025 0.73047 0.77857 0.0
O783 O 0.25089 0.75969 0.78453 0.0
O784 O 0.25316 0.79623 0.77118 0.0
O785 O 0.29097 0.71986 0.81219 0.0
O786 O 0.28581 0.77345 0.77224 0.0
O787 O 0.28445 0.7921 0.74144 0.0
C788 C 0.33322 0.7918 0.79685 0.0
C789 C 0.27315 0.87659 0.76996 0.0
C790 C 0.25712 0.90925 0.76202 0.0
C791 C 0.27555 0.91776 0.74998 0.0
C792 C 0.29172 0.88531 0.75821 0.0
C793 C 0.29292 0.90589 0.74833 0.0
C794 C 0.25606 0.88878 0.77218 0.0
C795 C 0.29638 0.80137 0.8278 0.0
C796 C 0.26966 0.85349 0.77687 0.0
C797 C 0.3624 0.86261 0.73145 0.0
C798 C 0.37186 0.87042 0.75614 0.0
C799 C 0.24158 0.77599 0.77546 0.0
C800 C 0.32484 0.71152 0.80409 0.0
C801 C 0.3478 0.68336 0.80897 0.0
C802 C 0.36073 0.69741 0.83002 0.0
C803 C 0.33807 0.72566 0.82501 0.0
C804 C 0.32999 0.69052 0.79585 0.0
C805 C 0.35578 0.71847 0.83802 0.0
C806 C 0.28425 0.77241 0.74847 0.0
C807 C 0.30299 0.71611 0.79472 0.0
H808 H 0.2765 0.93357 0.74199 0.0
H809 H 0.30491 0.87599 0.75612 0.0
H810 H 0.30713 0.91243 0.73902 0.0
H811 H 0.24149 0.88187 0.78086 0.0
H812 H 0.37428 0.69181 0.84054 0.0
H813 H 0.33376 0.74153 0.83223 0.0
H814 H 0.31923 0.67909 0.7804 0.0
H815 H 0.36525 0.72893 0.85475 0.0
Eu816 Eu 0.54491 0.0543 0.00254 0.0
C817 C 0.58221 0.99432 0.09236 0.0
N818 N 0.56516 0.98819 0.07297 0.0
C819 C 0.57528 0.95186 0.06371 0.0
C820 C 0.59704 0.97969 0.09762 0.0
C821 C 0.56099 0.96692 0.05928 0.0
C822 C 0.59357 0.95838 0.08275 0.0
C823 C 0.6018 0.02194 0.12786 0.0
C824 C 0.58451 0.01508 0.10741 0.0
C825 C 0.61698 0.0077 0.13276 0.0
C826 C 0.6146 0.98662 0.11769 0.0
Eu827 Eu 0.54313 0.01573 0.06575 0.0
N828 N 0.56994 0.02876 0.10179 0.0
C829 C 0.60323 0.04286 0.14279 0.0
C830 C 0.57051 0.04858 0.11693 0.0
C831 C 0.58733 0.0561 0.13747 0.0
H832 H 0.54643 0.9613 0.04516 0.0
H833 H 0.588 0.07207 0.14918 0.0
H834 H 0.53487 0.10629 0.01682 0.0
H835 H 0.50294 0.98594 0.92625 0.0
H836 H 0.55806 0.05863 0.11311 0.0
H837 H 0.61629 0.04876 0.15866 0.0
H838 H 0.53247 1.00502 0.96029 0.0
H839 H 0.57206 0.93515 0.05256 0.0
H840 H 0.63049 0.01273 0.14829 0.0
H841 H 0.62626 0.97569 0.12188 0.0
H842 H 0.50716 0.12897 0.00365 0.0
H843 H 0.60459 0.94665 0.08618 0.0
H844 H 0.47239 1.00509 0.91237 0.0
N845 N 0.51954 0.07703 0.9903 0.0
C846 C 0.50297 0.06765 0.9711 0.0
C847 C 0.50572 0.11171 0.9944 0.0
C848 C 0.48672 0.07993 0.96301 0.0
C849 C 0.52133 0.0988 0.00186 0.0
C850 C 0.48826 0.10221 0.97495 0.0
N851 N 0.51852 0.03457 0.96752 0.0
C852 C 0.51916 0.01359 0.95532 0.0
C853 C 0.48521 0.03548 0.93947 0.0
C854 C 0.50232 0.04573 0.95948 0.0
C855 C 0.48527 0.01357 0.92774 0.0
C856 C 0.50245 1.0027 0.93555 0.0
H857 H 0.47615 0.11223 0.96923 0.0
H858 H 0.45686 0.07881 0.93689 0.0
H859 H 0.45547 0.03983 0.91633 0.0
O860 O 0.57082 0.05513 0.97874 0.0
O861 O 0.51061 0.04339 0.01369 0.0
O862 O 0.52109 0.01373 0.02939 0.0
O863 O 0.56704 0.08713 0.99864 0.0
O864 O 0.55587 0.01974 0.99777 0.0
O865 O 0.54364 0.99555 0.02707 0.0
O866 O 0.51683 0.01978 0.08902 0.0
O867 O 0.57871 0.0364 0.06709 0.0
O868 O 0.5591 0.04176 0.0346 0.0
O869 O 0.52278 0.98548 0.07733 0.0
O870 O 0.53625 0.05263 0.07088 0.0
O871 O 0.54717 0.07613 0.04021 0.0
C872 C 0.50601 0.02613 0.02616 0.0
C873 C 0.57842 0.08706 0.95857 0.0
C874 C 0.59495 0.08641 0.92038 0.0
C875 C 0.57935 0.09858 0.91064 0.0
C876 C 0.56285 0.09922 0.94883 0.0
C877 C 0.5635 0.10511 0.92495 0.0
C878 C 0.5944 0.08094 0.9444 0.0
C879 C 0.55222 0.99951 0.00621 0.0
C880 C 0.57681 0.07746 0.98174 0.0
C881 C 0.46955 0.06968 0.9433 0.0
C882 C 0.46876 0.04748 0.93161 0.0
C883 C 0.5789 0.04614 0.04757 0.0
C884 C 0.49291 0.98712 0.10214 0.0
C885 C 0.47519 0.98508 0.13926 0.0
C886 C 0.45793 0.96685 0.12672 0.0
C887 C 0.47584 0.96869 0.0897 0.0
C888 C 0.49256 0.99534 0.1269 0.0
C889 C 0.4583 0.95868 0.10197 0.0
C890 C 0.54005 0.07262 0.06181 0.0
C891 C 0.51118 0.9977 0.08943 0.0
H892 H 0.57946 0.10304 0.89209 0.0
H893 H 0.54996 0.10364 0.95932 0.0
H894 H 0.55144 0.11439 0.91736 0.0
H895 H 0.60576 0.07075 0.95175 0.0
H896 H 0.44435 0.95886 0.13614 0.0
H897 H 0.47597 0.96225 0.0705 0.0
H898 H 0.50588 0.00947 0.13661 0.0
H899 H 0.44503 0.94456 0.09233 0.0
Eu900 Eu 0.28012 0.2621 0.26538 0.0
C901 C 0.35954 0.32577 0.32686 0.0
N902 N 0.33804 0.31742 0.3314 0.0
C903 C 0.35296 0.30758 0.37017 0.0
C904 C 0.37856 0.32428 0.34339 0.0
C905 C 0.33467 0.30986 0.35352 0.0
C906 C 0.37499 0.31441 0.36488 0.0
C907 C 0.38461 0.34745 0.30216 0.0
C908 C 0.36265 0.33733 0.30652 0.0
C909 C 0.40352 0.34514 0.31805 0.0
C910 C 0.40051 0.33355 0.33858 0.0
Eu911 Eu 0.30867 0.323 0.30181 0.0
N912 N 0.34412 0.3391 0.29119 0.0
C913 C 0.38689 0.35998 0.28221 0.0
C914 C 0.3461 0.35199 0.27231 0.0
C915 C 0.36753 0.36247 0.26738 0.0
H916 H 0.31809 0.30649 0.35915 0.0
H917 H 0.36909 0.3724 0.25217 0.0
H918 H 0.25754 0.27565 0.21211 0.0
H919 H 0.23866 0.20754 0.32819 0.0
H920 H 0.3311 0.35399 0.26101 0.0
H921 H 0.40349 0.36806 0.27831 0.0
H922 H 0.27079 0.22604 0.30879 0.0
H923 H 0.35006 0.30117 0.38743 0.0
H924 H 0.42055 0.35266 0.31492 0.0
H925 H 0.41527 0.33244 0.35103 0.0
H926 H 0.21968 0.27358 0.18921 0.0
H927 H 0.38915 0.31302 0.37806 0.0
H928 H 0.19953 0.20888 0.31141 0.0
N929 N 0.24465 0.26064 0.24225 0.0
C930 C 0.22606 0.24979 0.25125 0.0
C931 C 0.22122 0.26708 0.20677 0.0
C932 C 0.2041 0.24826 0.23883 0.0
C933 C 0.24264 0.26841 0.21987 0.0
C934 C 0.20185 0.25724 0.21645 0.0
N935 N 0.25058 0.24086 0.28374 0.0
C936 C 0.25402 0.22811 0.30233 0.0
C937 C 0.2101 0.22878 0.28262 0.0
C938 C 0.22911 0.24018 0.27293 0.0
C939 C 0.21369 0.21774 0.30336 0.0
C940 C 0.23574 0.21701 0.31294 0.0
H941 H 0.18526 0.25632 0.2063 0.0
H942 H 0.16815 0.23659 0.23985 0.0
H943 H 0.17337 0.21958 0.2782 0.0
O944 O 0.2732 0.22507 0.25426 0.0
O945 O 0.25726 0.28855 0.27016 0.0
O946 O 0.27108 0.31095 0.30739 0.0
O947 O 0.28928 0.24781 0.23063 0.0
O948 O 0.29454 0.26242 0.30588 0.0
O949 O 0.29015 0.2975 0.32322 0.0
O950 O 0.30347 0.35697 0.29698 0.0
O951 O 0.32907 0.30507 0.27586 0.0
O952 O 0.31847 0.26697 0.27893 0.0
O953 O 0.31623 0.35046 0.33321 0.0
O954 O 0.29051 0.32319 0.26354 0.0
O955 O 0.29392 0.28921 0.24176 0.0
C956 C 0.25363 0.30011 0.29071 0.0
C957 C 0.30075 0.21273 0.23226 0.0
C958 C 0.32055 0.18422 0.24648 0.0
C959 C 0.33376 0.18671 0.22722 0.0
C960 C 0.31413 0.21511 0.21311 0.0
C961 C 0.33059 0.20218 0.21069 0.0
C962 C 0.30404 0.19716 0.24886 0.0
C963 C 0.29019 0.27587 0.32452 0.0
C964 C 0.28365 0.22665 0.23495 0.0
C965 C 0.18517 0.23771 0.24898 0.0
C966 C 0.18816 0.22808 0.27087 0.0
C967 C 0.33398 0.28458 0.275 0.0
C968 C 0.29196 0.37656 0.33115 0.0
C969 C 0.263 0.39851 0.32507 0.0
C970 C 0.26195 0.40131 0.35053 0.0
C971 C 0.29069 0.37906 0.35668 0.0
C972 C 0.27791 0.38622 0.31553 0.0
C973 C 0.27562 0.39132 0.36626 0.0
C974 C 0.29218 0.31083 0.24276 0.0
C975 C 0.30832 0.36482 0.3205 0.0
H976 H 0.34644 0.17663 0.22491 0.0
H977 H 0.31188 0.22699 0.20007 0.0
H978 H 0.34087 0.2041 0.19593 0.0
H979 H 0.29395 0.19518 0.26383 0.0
H980 H 0.25081 0.41135 0.35816 0.0
H981 H 0.30147 0.37182 0.36921 0.0
H982 H 0.2791 0.38499 0.29589 0.0
H983 H 0.27484 0.39342 0.38593 0.0
Eu984 Eu 0.54726 0.50463 0.02897 0.0
C985 C 0.51873 0.59599 0.07448 0.0
N986 N 0.5087 0.58069 0.05415 0.0
C987 C 0.47202 0.58093 0.06585 0.0
C988 C 0.50565 0.60371 0.0919 0.0
C989 C 0.48568 0.57372 0.04914 0.0
C990 C 0.48206 0.5958 0.08746 0.0
C991 C 0.55304 0.61945 0.09919 0.0
C992 C 0.54222 0.6038 0.07805 0.0
C993 C 0.54008 0.62682 0.11678 0.0
C994 C 0.51647 0.619 0.11313 0.0
Eu995 Eu 0.53326 0.5687 0.02796 0.0
N996 N 0.55446 0.59599 0.06102 0.0
C997 C 0.5766 0.62729 0.10201 0.0
C998 C 0.57729 0.6043 0.06317 0.0
C999 C 0.58871 0.61992 0.08376 0.0
H1000 H 0.47773 0.56265 0.03222 0.0
H1001 H 0.60683 0.62642 0.08547 0.0
H1002 H 0.60276 0.5148 0.01909 0.0
H1003 H 0.47496 0.44297 0.97569 0.0
H1004 H 0.58677 0.59934 0.04891 0.0
H1005 H 0.58554 0.63934 0.11797 0.0
H1006 H 0.49597 0.47091 0.01172 0.0
H1007 H 0.45377 0.57507 0.06202 0.0
H1008 H 0.54815 0.6387 0.13321 0.0
H1009 H 0.50671 0.62496 0.12681 0.0
H1010 H 0.62419 0.50882 0.98468 0.0
H1011 H 0.47144 0.6013 0.10042 0.0
H1012 H 0.4939 0.43493 0.93922 0.0
N1013 N 0.57057 0.49872 0.99813 0.0
C1014 C 0.55978 0.48471 0.97705 0.0
C1015 C 0.60601 0.5023 0.98212 0.0
C1016 C 0.57168 0.47985 0.95723 0.0
C1017 C 0.59361 0.50623 0.00145 0.0
C1018 C 0.59494 0.48942 0.95974 0.0
N1019 N 0.52583 0.47902 0.995 0.0
C1020 C 0.50411 0.46759 0.99563 0.0
C1021 C 0.52572 0.45838 0.95485 0.0
C1022 C 0.53699 0.47407 0.97572 0.0
C1023 C 0.5031 0.44723 0.95486 0.0
C1024 C 0.49231 0.45175 0.9754 0.0
H1025 H 0.60466 0.48615 0.94492 0.0
H1026 H 0.5691 0.46121 0.92048 0.0
H1027 H 0.52894 0.44234 0.91847 0.0
O1028 O 0.53462 0.47922 0.05278 0.0
O1029 O 0.52581 0.51272 0.99552 0.0
O1030 O 0.54571 0.5487 0.99752 0.0
O1031 O 0.56441 0.47696 0.03584 0.0
O1032 O 0.51573 0.51124 0.04374 0.0
O1033 O 0.5033 0.53779 0.02087 0.0
O1034 O 0.54141 0.60222 0.01498 0.0
O1035 O 0.53579 0.5547 0.065 0.0
O1036 O 0.5615 0.53106 0.06322 0.0
O1037 O 0.5102 0.57775 0.99912 0.0
O1038 O 0.56801 0.56493 0.01968 0.0
O1039 O 0.57828 0.5347 0.03832 0.0
C1040 C 0.53208 0.53073 0.98458 0.0
C1041 C 0.56107 0.46061 0.07266 0.0
C1042 C 0.56232 0.43093 0.09953 0.0
C1043 C 0.58213 0.44495 0.11346 0.0
C1044 C 0.58086 0.4743 0.08681 0.0
C1045 C 0.59147 0.4663 0.10689 0.0
C1046 C 0.55192 0.43881 0.07894 0.0
C1047 C 0.49972 0.52079 0.03423 0.0
C1048 C 0.55067 0.4681 0.05038 0.0
C1049 C 0.56024 0.46497 0.93593 0.0
C1050 C 0.53738 0.45415 0.93481 0.0
C1051 C 0.55092 0.54463 0.07579 0.0
C1052 C 0.51205 0.61743 0.99488 0.0
C1053 C 0.51296 0.65368 0.9779 0.0
C1054 C 0.49051 0.6526 0.98237 0.0
C1055 C 0.48976 0.61691 0.99944 0.0
C1056 C 0.52365 0.63598 0.98434 0.0
C1057 C 0.47911 0.63444 0.99321 0.0
C1058 C 0.58319 0.55426 0.02908 0.0
C1059 C 0.523 0.59809 0.99903 0.0
H1060 H 0.59068 0.43913 0.12914 0.0
H1061 H 0.58832 0.49096 0.08205 0.0
H1062 H 0.60703 0.47669 0.11741 0.0
H1063 H 0.5368 0.42804 0.06783 0.0
H1064 H 0.48188 0.66602 0.97786 0.0
H1065 H 0.48047 0.60285 0.00747 0.0
H1066 H 0.54082 0.63632 0.98057 0.0
H1067 H 0.46187 0.63389 0.99669 0.0
Eu1068 Eu 0.79849 0.32173 0.27148 0.0
C1069 C 0.74802 0.23322 0.31696 0.0
N1070 N 0.76807 0.24878 0.32424 0.0
C1071 C 0.76204 0.2494 0.36668 0.0
C1072 C 0.73374 0.226 0.33441 0.0
C1073 C 0.7757 0.25591 0.3488 0.0
C1074 C 0.74081 0.23468 0.35943 0.0
C1075 C 0.72158 0.20722 0.28427 0.0
C1076 C 0.74205 0.22369 0.29211 0.0
C1077 C 0.70716 0.20052 0.30157 0.0
C1078 C 0.7132 0.20989 0.32653 0.0
Eu1079 Eu 0.78972 0.25769 0.29215 0.0
N1080 N 0.75621 0.2305 0.27559 0.0
C1081 C 0.71621 0.19792 0.25922 0.0
C1082 C 0.75147 0.22094 0.25138 0.0
C1083 C 0.73128 0.20473 0.24273 0.0
H1084 H 0.79261 0.26593 0.35491 0.0
H1085 H 0.72747 0.19734 0.22343 0.0
H1086 H 0.79739 0.30657 0.20853 0.0
H1087 H 0.86474 0.38316 0.33425 0.0
H1088 H 0.76343 0.22549 0.2389 0.0
H1089 H 0.70058 0.18533 0.25247 0.0
H1090 H 0.82615 0.35923 0.32017 0.0
H1091 H 0.7681 0.25538 0.38609 0.0
H1092 H 0.69134 0.18795 0.29585 0.0
H1093 H 0.70201 0.20429 0.33969 0.0
H1094 H 0.82491 0.30395 0.17987 0.0
H1095 H 0.73035 0.22948 0.37338 0.0
H1096 H 0.89478 0.38202 0.30767 0.0
N1097 N 0.82239 0.3202 0.24023 0.0
C1098 C 0.84445 0.33136 0.2477 0.0
C1099 C 0.83073 0.31117 0.19905 0.0
C1100 C 0.86072 0.33143 0.23131 0.0
C1101 C 0.81516 0.31199 0.21573 0.0
C1102 C 0.8537 0.32041 0.20702 0.0
N1103 N 0.83477 0.34428 0.28676 0.0
C1104 C 0.83931 0.35855 0.30875 0.0
C1105 C 0.87291 0.35733 0.27861 0.0
C1106 C 0.85063 0.34424 0.2712 0.0
C1107 C 0.87797 0.37137 0.30158 0.0
C1108 C 0.86106 0.37211 0.31663 0.0
H1109 H 0.86568 0.32008 0.19392 0.0
H1110 H 0.89596 0.34334 0.22696 0.0
H1111 H 0.90659 0.36603 0.2683 0.0
O1112 O 0.7865 0.35194 0.28609 0.0
O1113 O 0.8282 0.31176 0.29516 0.0
O1114 O 0.82214 0.27462 0.27792 0.0
O1115 O 0.79529 0.34887 0.24917 0.0
O1116 O 0.78336 0.31248 0.30544 0.0
O1117 O 0.80196 0.28769 0.32276 0.0
O1118 O 0.7969 0.22398 0.28125 0.0
O1119 O 0.75522 0.26777 0.2808 0.0
O1120 O 0.76095 0.30308 0.26534 0.0
O1121 O 0.81296 0.24426 0.31651 0.0
O1122 O 0.79864 0.2657 0.25509 0.0
O1123 O 0.78091 0.29277 0.24158 0.0
C1124 C 0.83626 0.29336 0.28954 0.0
C1125 C 0.76406 0.36498 0.25526 0.0
C1126 C 0.73712 0.39 0.25593 0.0
C1127 C 0.72372 0.37558 0.23516 0.0
C1128 C 0.75009 0.35053 0.23502 0.0
C1129 C 0.73005 0.35588 0.22505 0.0
C1130 C 0.75735 0.38442 0.26592 0.0
C1131 C 0.79458 0.30676 0.32455 0.0
C1132 C 0.78572 0.35995 0.26507 0.0
C1133 C 0.88324 0.34337 0.23923 0.0
C1134 C 0.88929 0.35637 0.26275 0.0
C1135 C 0.74748 0.28445 0.27086 0.0
C1136 C 0.81046 0.20407 0.31264 0.0
C1137 C 0.82478 0.16923 0.31383 0.0
C1138 C 0.81594 0.16605 0.33599 0.0
C1139 C 0.80124 0.20057 0.33452 0.0
C1140 C 0.8218 0.18815 0.30212 0.0
C1141 C 0.80396 0.18153 0.3461 0.0
C1142 C 0.78524 0.27225 0.23838 0.0
C1143 C 0.81067 0.22515 0.30157 0.0
H1144 H 0.70845 0.37963 0.22638 0.0
H1145 H 0.75473 0.33518 0.22677 0.0
H1146 H 0.71952 0.34487 0.20924 0.0
H1147 H 0.76792 0.39507 0.28198 0.0
H1148 H 0.81823 0.15155 0.34535 0.0
H1149 H 0.79243 0.21273 0.34289 0.0
H1150 H 0.82914 0.19096 0.28533 0.0
H1151 H 0.7971 0.17896 0.36313 0.0
Eu1152 Eu 0.04339 0.55608 0.50271 0.0
C1153 C 0.07527 0.49608 0.59401 0.0
N1154 N 0.06009 0.48896 0.57314 0.0
C1155 C 0.07574 0.45591 0.56415 0.0
C1156 C 0.09183 0.48363 0.6005 0.0
C1157 C 0.05975 0.46896 0.55844 0.0
C1158 C 0.09202 0.4634 0.58514 0.0
C1159 C 0.0889 0.52323 0.63139 0.0
C1160 C 0.07386 0.51566 0.60911 0.0
C1161 C 0.10599 0.51139 0.63755 0.0
C1162 C 0.10743 0.49161 0.62214 0.0
Eu1163 Eu 0.03547 0.51314 0.56285 0.0
N1164 N 0.05709 0.52663 0.60259 0.0
C1165 C 0.08592 0.54207 0.64712 0.0
C1166 C 0.05299 0.54377 0.61887 0.0
C1167 C 0.0676 0.55209 0.64105 0.0
H1168 H 0.04721 0.46308 0.54223 0.0
H1169 H 0.0646 0.56609 0.65354 0.0
H1170 H 0.03545 0.60859 0.52414 0.0
H1171 H 1.0051 0.49957 0.41646 0.0
H1172 H 0.03839 0.55109 0.61508 0.0
H1173 H 0.09714 0.54847 0.66437 0.0
H1174 H 0.03141 0.51219 0.45509 0.0
H1175 H 0.07553 0.44013 0.55233 0.0
H1176 H 0.11784 0.5171 0.65445 0.0
H1177 H 0.12043 0.4824 0.62734 0.0
H1178 H 1.01009 0.63416 0.51342 0.0
H1179 H 0.10444 0.4533 0.58949 0.0
H1180 H 0.97803 0.52304 0.40346 0.0
N1181 N 0.02041 0.58236 0.49393 0.0
C1182 C 1.00526 0.57625 0.47277 0.0
C1183 C 1.0084 0.61782 0.50198 0.0
C1184 C 0.99076 0.59068 0.46568 0.0
C1185 C 0.02255 0.60307 0.50819 0.0
C1186 C 0.99232 0.61153 0.48076 0.0
N1187 N 0.0187 0.542 0.4651 0.0
C1188 C 0.01937 0.52236 0.45025 0.0
C1189 C 0.98938 0.54917 0.43552 0.0
C1190 C 1.00458 0.55569 0.45777 0.0
C1191 C 0.98943 0.5286 0.42072 0.0
C1192 C 1.00461 0.51526 0.42803 0.0
H1193 H 0.98148 0.62309 0.47594 0.0
H1194 H 0.96412 0.59493 0.43801 0.0
H1195 H 0.96292 0.55863 0.41164 0.0
O1196 O 0.07091 0.55434 0.481 0.0
O1197 O 1.00642 0.54012 0.50182 0.0
O1198 O 0.0248 0.52991 0.53242 0.0
O1199 O 0.06396 0.58741 0.49332 0.0
O1200 O 0.04895 0.51906 0.49689 0.0
O1201 O 0.03235 0.49375 0.52324 0.0
O1202 O 1.00643 0.51116 0.5825 0.0
O1203 O 0.0706 0.52042 0.55291 0.0
O1204 O 0.06382 0.55234 0.53862 0.0
O1205 O 1.01068 0.48058 0.56051 0.0
O1206 O 0.03353 0.55134 0.57204 0.0
O1207 O 0.04258 0.57555 0.54143 0.0
C1208 C 1.00519 0.52941 0.52058 0.0
C1209 C 0.07441 0.58127 0.45346 0.0
C1210 C 0.09169 0.58096 0.41593 0.0
C1211 C 0.07237 0.58596 0.40317 0.0
C1212 C 0.0554 0.58702 0.44079 0.0
C1213 C 0.0543 0.5891 0.41567 0.0
C1214 C 0.09258 0.57841 0.44097 0.0
C1215 C 0.04242 0.49821 0.50341 0.0
C1216 C 0.07474 0.57614 0.4789 0.0
C1217 C 0.97542 0.58406 0.44368 0.0
C1218 C 0.97474 0.5634 0.42864 0.0
C1219 C 0.07692 0.53772 0.54097 0.0
C1220 C 0.99333 0.476 0.59685 0.0
C1221 C 0.97883 0.47495 0.6364 0.0
C1222 C 0.9798 0.45164 0.63526 0.0
C1223 C 0.99411 0.45269 0.59593 0.0
C1224 C 0.98587 0.48697 0.61721 0.0
C1225 C 0.9875 0.44065 0.61517 0.0
C1226 C 0.03695 0.57168 0.56366 0.0
C1227 C 0.99928 0.48903 0.5765 0.0
H1228 H 0.07154 0.588 0.38377 0.0
H1229 H 0.04138 0.58977 0.45017 0.0
H1230 H 0.03951 0.59328 0.40594 0.0
H1231 H 0.10727 0.57388 0.45057 0.0
H1232 H 0.97421 0.44175 0.64959 0.0
H1233 H 0.99969 0.44374 0.58036 0.0
H1234 H 0.98555 0.50504 0.61811 0.0
H1235 H 0.98806 0.42267 0.61435 0.0
Eu1236 Eu 0.81622 0.78106 0.28114 0.0
C1237 C 0.73586 0.80925 0.21996 0.0
N1238 N 0.74786 0.82214 0.24109 0.0
C1239 C 0.74916 0.85658 0.22262 0.0
C1240 C 0.73031 0.81971 0.19906 0.0
C1241 C 0.75434 0.84547 0.24286 0.0
C1242 C 0.73715 0.84366 0.20061 0.0
C1243 C 0.71756 0.77166 0.19715 0.0
C1244 C 0.72966 0.78542 0.21898 0.0
C1245 C 0.71202 0.78206 0.17632 0.0
C1246 C 0.71838 0.806 0.17727 0.0
Eu1247 Eu 0.75658 0.80175 0.27365 0.0
N1248 N 0.73595 0.77567 0.23917 0.0
C1249 C 0.71134 0.74783 0.19691 0.0
C1250 C 0.72896 0.75264 0.23941 0.0
C1251 C 0.71686 0.73832 0.21822 0.0
H1252 H 0.76344 0.85556 0.25991 0.0
H1253 H 0.71163 0.71998 0.21842 0.0
H1254 H 0.80494 0.72511 0.28832 0.0
H1255 H 0.87344 0.85463 0.33914 0.0
H1256 H 0.7322 0.74529 0.25597 0.0
H1257 H 0.70198 0.73669 0.18051 0.0
H1258 H 0.84706 0.83422 0.30212 0.0
H1259 H 0.75444 0.8751 0.22401 0.0
H1260 H 0.70281 0.77174 0.15935 0.0
H1261 H 0.71401 0.81373 0.16101 0.0
H1262 H 0.8138 0.7009 0.31997 0.0
H1263 H 0.73324 0.85233 0.18493 0.0
H1264 H 0.88385 0.83319 0.37304 0.0
N1265 N 0.82442 0.75618 0.30947 0.0
C1266 C 0.83884 0.76615 0.3304 0.0
C1267 C 0.82086 0.71924 0.32318 0.0
C1268 C 0.84466 0.75293 0.34877 0.0
C1269 C 0.81569 0.73303 0.30541 0.0
C1270 C 0.83532 0.72924 0.34501 0.0
N1271 N 0.84178 0.802 0.3155 0.0
C1272 C 0.85117 0.82487 0.31699 0.0
C1273 C 0.86317 0.80052 0.35473 0.0
C1274 C 0.84796 0.78968 0.33341 0.0
C1275 C 0.87215 0.82421 0.3569 0.0
C1276 C 0.86627 0.8364 0.33784 0.0
H1277 H 0.83935 0.71849 0.3587 0.0
H1278 H 0.8643 0.75383 0.3845 0.0
H1279 H 0.88058 0.79544 0.38964 0.0
O1280 O 0.84086 0.79201 0.25635 0.0
O1281 O 0.80537 0.79543 0.31748 0.0
O1282 O 0.78054 0.81905 0.30801 0.0
O1283 O 0.83813 0.75874 0.26852 0.0
O1284 O 0.81589 0.81528 0.26688 0.0
O1285 O 0.7871 0.83171 0.28082 0.0
O1286 O 0.72468 0.78848 0.28709 0.0
O1287 O 0.77465 0.796 0.24023 0.0
O1288 O 0.78851 0.76522 0.2495 0.0
O1289 O 0.73441 0.82463 0.28414 0.0
O1290 O 0.76072 0.77257 0.29572 0.0
O1291 O 0.78367 0.75389 0.27487 0.0
C1292 C 0.79456 0.81175 0.32372 0.0
C1293 C 0.87403 0.77714 0.2598 0.0
C1294 C 0.90996 0.78081 0.24299 0.0
C1295 C 0.92152 0.78474 0.26725 0.0
C1296 C 0.88601 0.78096 0.28381 0.0
C1297 C 0.90959 0.78467 0.28747 0.0
C1298 C 0.88607 0.77685 0.2393 0.0
C1299 C 0.80643 0.83291 0.27179 0.0
C1300 C 0.84909 0.77357 0.25614 0.0
C1301 C 0.85967 0.7637 0.37016 0.0
C1302 C 0.86896 0.7874 0.37309 0.0
C1303 C 0.78276 0.7781 0.23338 0.0
C1304 C 0.71323 0.81396 0.31626 0.0
C1305 C 0.68458 0.81035 0.34426 0.0
C1306 C 0.70137 0.82215 0.36379 0.0
C1307 C 0.72962 0.82566 0.33608 0.0
C1308 C 0.6906 0.80644 0.32037 0.0
C1309 C 0.7237 0.8298 0.35967 0.0
C1310 C 0.76785 0.75386 0.2892 0.0
C1311 C 0.71989 0.80861 0.29165 0.0
H1312 H 0.93985 0.78766 0.27055 0.0
H1313 H 0.87713 0.78102 0.29974 0.0
H1314 H 0.91868 0.78755 0.30606 0.0
H1315 H 0.87697 0.77389 0.22067 0.0
H1316 H 0.69717 0.82561 0.38227 0.0
H1317 H 0.74703 0.83148 0.33328 0.0
H1318 H 0.67789 0.79715 0.30519 0.0
H1319 H 0.73648 0.83889 0.37484 0.0
Eu1320 Eu 0.77674 0.28405 0.80888 0.0
C1321 C 0.82568 0.24081 0.71363 0.0
N1322 N 0.83447 0.25629 0.73428 0.0
C1323 C 0.86708 0.23974 0.73961 0.0
C1324 C 0.83709 0.22369 0.70563 0.0
C1325 C 0.85509 0.25629 0.74692 0.0
C1326 C 0.85797 0.22325 0.71899 0.0
C1327 C 0.79515 0.22566 0.67958 0.0
C1328 C 0.805 0.24188 0.7006 0.0
C1329 C 0.80642 0.20851 0.67171 0.0
C1330 C 0.82734 0.20756 0.68466 0.0
Eu1331 Eu 0.81282 0.28346 0.74522 0.0
N1332 N 0.79408 0.25821 0.70915 0.0
C1333 C 0.77416 0.22704 0.66719 0.0
C1334 C 0.77405 0.26018 0.69654 0.0
C1335 C 0.76367 0.2445 0.6756 0.0
H1336 H 0.86261 0.26928 0.76235 0.0
H1337 H 0.74763 0.24595 0.66588 0.0
H1338 H 0.72658 0.29424 0.78688 0.0
H1339 H 0.83668 0.32831 0.89059 0.0
H1340 H 0.76605 0.2739 0.70232 0.0
H1341 H 0.76601 0.21486 0.65101 0.0
H1342 H 0.82067 0.29743 0.8563 0.0
H1343 H 0.88341 0.23979 0.7498 0.0
H1344 H 0.79908 0.19587 0.65564 0.0
H1345 H 0.83584 0.19424 0.67834 0.0
H1346 H 0.70458 0.32407 0.79318 0.0
H1347 H 0.86729 0.2104 0.71341 0.0
H1348 H 0.8176 0.36049 0.89869 0.0
N1349 N 0.75393 0.31107 0.81481 0.0
C1350 C 0.76172 0.32864 0.83364 0.0
C1351 C 0.72073 0.3257 0.80454 0.0
C1352 C 0.74955 0.34597 0.83814 0.0
C1353 C 0.73341 0.30895 0.8008 0.0
C1354 C 0.72894 0.34443 0.82313 0.0
N1355 N 0.79326 0.31227 0.84355 0.0
C1356 C 0.81237 0.31151 0.85886 0.0
C1357 C 0.79041 0.34721 0.86829 0.0
C1358 C 0.78192 0.32923 0.84847 0.0
C1359 C 0.81053 0.347 0.88331 0.0
C1360 C 0.8214 0.32893 0.87873 0.0
H1361 H 0.71908 0.35739 0.826 0.0
H1362 H 0.74915 0.37767 0.86115 0.0
H1363 H 0.78495 0.37876 0.88756 0.0
O1364 O 0.77443 0.26489 0.83987 0.0
O1365 O 0.78698 0.31801 0.79542 0.0
O1366 O 0.81734 0.30861 0.7803 0.0
O1367 O 0.74483 0.25974 0.81126 0.0
O1368 O 0.81297 0.27671 0.81646 0.0
O1369 O 0.83402 0.28351 0.78317 0.0
O1370 O 0.8119 0.30909 0.72039 0.0
O1371 O 0.79322 0.24756 0.74598 0.0
O1372 O 0.79113 0.26702 0.77998 0.0
O1373 O 0.84435 0.30055 0.73322 0.0
O1374 O 0.77854 0.29459 0.74376 0.0
O1375 O 0.7552 0.27648 0.77034 0.0
C1376 C 0.80481 0.32358 0.78428 0.0
C1377 C 0.74099 0.23811 0.84623 0.0
C1378 C 0.74137 0.2162 0.88077 0.0
C1379 C 0.71771 0.20852 0.87525 0.0
C1380 C 0.71742 0.23011 0.8406 0.0
C1381 C 0.70584 0.21535 0.85513 0.0
C1382 C 0.75288 0.23088 0.86614 0.0
C1383 C 0.83226 0.27938 0.80643 0.0
C1384 C 0.75334 0.25471 0.83229 0.0
C1385 C 0.7582 0.36412 0.85751 0.0
C1386 C 0.77858 0.36474 0.87255 0.0
C1387 C 0.78509 0.24721 0.76636 0.0
C1388 C 0.84509 0.32935 0.70546 0.0
C1389 C 0.84289 0.35097 0.6709 0.0
C1390 C 0.86597 0.36158 0.67752 0.0
C1391 C 0.86821 0.3397 0.71179 0.0
C1392 C 0.83256 0.33504 0.68508 0.0
C1393 C 0.87856 0.35587 0.69787 0.0
C1394 C 0.75831 0.28683 0.75043 0.0
C1395 C 0.83372 0.31281 0.72003 0.0
H1396 H 0.70847 0.19708 0.88634 0.0
H1397 H 0.70794 0.23552 0.82528 0.0
H1398 H 0.68763 0.20931 0.85088 0.0
H1399 H 0.7711 0.23704 0.87067 0.0
H1400 H 0.87429 0.374 0.66678 0.0
H1401 H 0.87814 0.33551 0.72759 0.0
H1402 H 0.81465 0.32712 0.68026 0.0
H1403 H 0.89636 0.36398 0.70285 0.0
Eu1404 Eu 0.77354 0.75822 0.76584 0.0
C1405 C 0.85824 0.82791 0.82043 0.0
N1406 N 0.83732 0.81925 0.82635 0.0
C1407 C 0.85428 0.81531 0.86688 0.0
C1408 C 0.87803 0.8299 0.83742 0.0
C1409 C 0.83516 0.81433 0.84975 0.0
C1410 C 0.87583 0.82279 0.86056 0.0
C1411 C 0.88105 0.84732 0.79229 0.0
C1412 C 0.85986 0.83641 0.798 0.0
C1413 C 0.90075 0.84879 0.80895 0.0
C1414 C 0.89927 0.83991 0.83133 0.0
Eu1415 Eu 0.80633 0.81976 0.79603 0.0
N1416 N 0.84059 0.8347 0.78208 0.0
C1417 C 0.88178 0.85681 0.77015 0.0
C1418 C 0.84109 0.84439 0.76082 0.0
C1419 C 0.86171 0.85528 0.75433 0.0
H1420 H 0.81887 0.81077 0.85591 0.0
H1421 H 0.86207 0.86284 0.73736 0.0
H1422 H 0.7524 0.77743 0.71474 0.0
H1423 H 0.73005 0.70724 0.82986 0.0
H1424 H 0.82554 0.84416 0.74917 0.0
H1425 H 0.89772 0.86552 0.7652 0.0
H1426 H 0.76299 0.7284 0.81388 0.0
H1427 H 0.85234 0.81104 0.88525 0.0
H1428 H 0.91722 0.85701 0.80481 0.0
H1429 H 0.91461 0.84152 0.84415 0.0
H1430 H 0.71548 0.77319 0.68935 0.0
H1431 H 0.89061 0.82405 0.8741 0.0
H1432 H 0.69169 0.70207 0.80661 0.0
N1433 N 0.73892 0.75914 0.74256 0.0
C1434 C 0.72033 0.74563 0.7492 0.0
C1435 C 0.71656 0.76561 0.70629 0.0
C1436 C 0.69892 0.74207 0.73466 0.0
C1437 C 0.73747 0.76841 0.72102 0.0
C1438 C 0.69718 0.75246 0.71317 0.0
N1439 N 0.74354 0.73868 0.78435 0.0
C1440 C 0.74636 0.72812 0.80484 0.0
C1441 C 0.70341 0.72203 0.7783 0.0
C1442 C 0.72263 0.73555 0.77084 0.0
C1443 C 0.7061 0.71235 0.80016 0.0
C1444 C 0.72769 0.71537 0.81344 0.0
H1445 H 0.68101 0.75013 0.70155 0.0
H1446 H 0.66345 0.7251 0.73078 0.0
H1447 H 0.6673 0.70782 0.76903 0.0
O1448 O 0.76462 0.72106 0.75799 0.0
O1449 O 0.75075 0.78432 0.77378 0.0
O1450 O 0.77045 0.81053 0.80671 0.0
O1451 O 0.77773 0.74069 0.73005 0.0
O1452 O 0.79139 0.75949 0.80469 0.0
O1453 O 0.79026 0.79601 0.82152 0.0
O1454 O 0.79743 0.85187 0.78822 0.0
O1455 O 0.82722 0.79843 0.77441 0.0
O1456 O 0.81183 0.76111 0.77883 0.0
O1457 O 0.8172 0.85041 0.82326 0.0
O1458 O 0.78889 0.81704 0.75636 0.0
O1459 O 0.79148 0.78075 0.74125 0.0
C1460 C 0.75103 0.7996 0.79323 0.0
C1461 C 0.78332 0.70293 0.72952 0.0
C1462 C 0.80533 0.67597 0.74288 0.0
C1463 C 0.80134 0.66443 0.71842 0.0
C1464 C 0.77966 0.69155 0.70526 0.0
C1465 C 0.78893 0.67249 0.69968 0.0
C1466 C 0.7969 0.69574 0.748 0.0
C1467 C 0.79098 0.77459 0.8238 0.0
C1468 C 0.77066 0.72032 0.73601 0.0
C1469 C 0.67998 0.72813 0.74183 0.0
C1470 C 0.68218 0.71829 0.76363 0.0
C1471 C 0.82917 0.77696 0.77465 0.0
C1472 C 0.79274 0.87604 0.82305 0.0
C1473 C 0.77505 0.90858 0.82403 0.0
C1474 C 0.7679 0.90426 0.84671 0.0
C1475 C 0.78537 0.87134 0.84566 0.0
C1476 C 0.78738 0.89449 0.81235 0.0
C1477 C 0.77293 0.88548 0.85741 0.0
C1478 C 0.79094 0.80187 0.73801 0.0
C1479 C 0.80644 0.86261 0.81019 0.0
H1480 H 0.80714 0.64878 0.71381 0.0
H1481 H 0.76909 0.69697 0.69084 0.0
H1482 H 0.7858 0.66345 0.681 0.0
H1483 H 0.80008 0.70507 0.76659 0.0
H1484 H 0.75835 0.91521 0.85591 0.0
H1485 H 0.78922 0.8569 0.85417 0.0
H1486 H 0.79313 0.89814 0.79492 0.0
H1487 H 0.76728 0.88193 0.87482 0.0
Eu1488 Eu 0.57113 0.5506 0.54813 0.0
C1489 C 0.49196 0.47135 0.48714 0.0
N1490 N 0.4984 0.4933 0.48234 0.0
C1491 C 0.48953 0.4803 0.43876 0.0
C1492 C 0.48534 0.45279 0.46772 0.0
C1493 C 0.49575 0.49811 0.45867 0.0
C1494 C 0.48489 0.45749 0.44331 0.0
C1495 C 0.48049 0.4455 0.51658 0.0
C1496 C 0.48934 0.46775 0.51125 0.0
C1497 C 0.47569 0.42672 0.49759 0.0
C1498 C 0.47806 0.43037 0.47319 0.0
Eu1499 Eu 0.50966 0.52211 0.51712 0.0
N1500 N 0.4936 0.48631 0.52912 0.0
C1501 C 0.4756 0.44296 0.54053 0.0
C1502 C 0.48666 0.48422 0.55172 0.0
C1503 C 0.4782 0.46247 0.55801 0.0
H1504 H 0.49883 0.51578 0.45518 0.0
H1505 H 0.47353 0.4608 0.57624 0.0
H1506 H 0.56222 0.56333 0.60742 0.0
H1507 H 0.59714 0.60902 0.48141 0.0
H1508 H 0.48816 0.49926 0.56503 0.0
H1509 H 0.46879 0.42615 0.54537 0.0
H1510 H 0.58151 0.57208 0.49427 0.0
H1511 H 0.48819 0.4842 0.41997 0.0
H1512 H 0.46913 0.40946 0.50137 0.0
H1513 H 0.47323 0.41586 0.45854 0.0
H1514 H 0.56855 0.5973 0.63874 0.0
H1515 H 0.47984 0.44373 0.42787 0.0
H1516 H 0.60756 0.64423 0.51206 0.0
N1517 N 0.57348 0.58215 0.57886 0.0
C1518 C 0.58344 0.603 0.57312 0.0
C1519 C 0.57253 0.5992 0.62028 0.0
C1520 C 0.58781 0.62292 0.59084 0.0
C1521 C 0.56845 0.57996 0.60219 0.0
C1522 C 0.58221 0.62078 0.61459 0.0
N1523 N 0.58352 0.58536 0.53209 0.0
C1524 C 0.58629 0.58687 0.50801 0.0
C1525 C 0.59745 0.6264 0.54248 0.0
C1526 C 0.58851 0.60466 0.54916 0.0
C1527 C 0.60086 0.62784 0.51792 0.0
C1528 C 0.59501 0.60802 0.50058 0.0
H1529 H 0.58541 0.63567 0.6287 0.0
H1530 H 0.60098 0.65978 0.59778 0.0
H1531 H 0.60917 0.66287 0.55542 0.0
O1532 O 0.6078 0.55669 0.54905 0.0
O1533 O 0.54433 0.57263 0.54228 0.0
O1534 O 0.52485 0.55666 0.50466 0.0
O1535 O 0.59275 0.54771 0.58136 0.0
O1536 O 0.57154 0.53527 0.50859 0.0
O1537 O 0.53426 0.52738 0.48871 0.0
O1538 O 0.48691 0.54419 0.52746 0.0
O1539 O 0.52767 0.49857 0.5381 0.0
O1540 O 0.5657 0.51098 0.53698 0.0
O1541 O 0.47481 0.51433 0.49935 0.0
O1542 O 0.51411 0.53749 0.55799 0.0
O1543 O 0.54906 0.53219 0.57266 0.0
C1544 C 0.53353 0.5752 0.52085 0.0
C1545 C 0.62421 0.53277 0.57384 0.0
C1546 C 0.64702 0.50783 0.55708 0.0
C1547 C 0.6487 0.49839 0.57923 0.0
C1548 C 0.62586 0.52324 0.59606 0.0
C1549 C 0.63796 0.50601 0.59863 0.0
C1550 C 0.63478 0.52484 0.55435 0.0
C1551 C 0.55634 0.52963 0.48852 0.0
C1552 C 0.61104 0.55049 0.57097 0.0
C1553 C 0.59743 0.64436 0.58435 0.0
C1554 C 0.60216 0.64611 0.56025 0.0
C1555 C 0.54817 0.49454 0.53929 0.0
C1556 C 0.45948 0.54626 0.49464 0.0
C1557 C 0.42779 0.56401 0.48698 0.0
C1558 C 0.43412 0.56891 0.46411 0.0
C1559 C 0.46648 0.5516 0.47211 0.0
C1560 C 0.4404 0.55253 0.50193 0.0
C1561 C 0.45361 0.56275 0.45676 0.0
C1562 C 0.52851 0.5338 0.57601 0.0
C1563 C 0.47052 0.53284 0.51046 0.0
H1564 H 0.65858 0.48547 0.58158 0.0
H1565 H 0.61778 0.52909 0.6114 0.0
H1566 H 0.63924 0.49878 0.61578 0.0
H1567 H 0.63401 0.53219 0.5372 0.0
H1568 H 0.42421 0.57755 0.45222 0.0
H1569 H 0.4815 0.54689 0.46631 0.0
H1570 H 0.435 0.54796 0.51924 0.0
H1571 H 0.45871 0.56656 0.43918 0.0
Eu1572 Eu 1.01141 0.53781 0.03655 0.0
C1573 C 0.09585 0.59264 0.98735 0.0
N1574 N 0.08156 0.57187 0.97856 0.0
C1575 C 0.07539 0.58386 0.93853 0.0
C1576 C 0.09932 0.61021 0.97219 0.0
C1577 C 0.07253 0.56691 0.95405 0.0
C1578 C 0.08846 0.60573 0.94775 0.0
C1579 C 0.12335 0.61733 0.02026 0.0
C1580 C 0.10809 0.59619 0.01116 0.0
C1581 C 0.12596 0.63503 0.00549 0.0
C1582 C 0.11403 0.63147 0.98154 0.0
Eu1583 Eu 0.07802 0.54569 0.00798 0.0
N1584 N 0.10512 0.579 0.02548 0.0
C1585 C 0.13578 0.61999 0.04391 0.0
C1586 C 0.11802 0.581 0.04794 0.0
C1587 C 0.13333 0.60164 0.05766 0.0
H1588 H 0.06348 0.54984 0.94585 0.0
H1589 H 0.14318 0.6034 0.07574 0.0
H1590 H 0.0156 0.5514 0.09928 0.0
H1591 H 0.9497 0.46739 0.97851 0.0
H1592 H 0.1163 0.56677 0.05843 0.0
H1593 H 0.14762 0.63601 0.05153 0.0
H1594 H 0.97492 0.50592 0.98844 0.0
H1595 H 0.06781 0.57992 0.91931 0.0
H1596 H 0.13749 0.65143 0.01225 0.0
H1597 H 0.11668 0.64515 0.97018 0.0
H1598 H 1.00777 0.53099 0.13501 0.0
H1599 H 0.09077 0.61876 0.93556 0.0
H1600 H 0.94428 0.44257 0.01129 0.0
N1601 N 1.00294 0.52145 0.07265 0.0
C1602 C 0.99079 0.4993 0.06842 0.0
C1603 C 1.00317 0.5218 0.1164 0.0
C1604 C 0.98548 0.48718 0.08831 0.0
C1605 C 1.00769 0.53324 0.09614 0.0
C1606 C 0.99249 0.49852 0.1125 0.0
N1607 N 0.98552 0.50204 0.02551 0.0
C1608 C 0.97343 0.49487 0.00248 0.0
C1609 C 0.96696 0.46745 0.03962 0.0
C1610 C 0.98165 0.48943 0.04426 0.0
C1611 C 0.95586 0.45926 0.01553 0.0
C1612 C 0.95885 0.47319 0.99697 0.0
H1613 H 0.98878 0.48977 0.12824 0.0
H1614 H 0.96847 0.45489 0.09856 0.0
H1615 H 0.95224 0.43766 0.05592 0.0
O1616 O 0.98178 0.54571 0.01556 0.0
O1617 O 0.01958 0.50354 0.01838 0.0
O1618 O 0.05678 0.50895 0.00755 0.0
O1619 O 0.99264 0.5607 0.05388 0.0
O1620 O 0.02975 0.54969 0.00546 0.0
O1621 O 0.04848 0.53436 0.97814 0.0
O1622 O 0.10623 0.53001 0.02249 0.0
O1623 O 0.07179 0.57752 0.03208 0.0
O1624 O 0.03424 0.57444 0.04142 0.0
O1625 O 0.09765 0.53203 0.98285 0.0
O1626 O 0.05622 0.5363 0.03603 0.0
O1627 O 0.0398 0.54201 0.06811 0.0
C1628 C 0.03693 0.49567 0.01027 0.0
C1629 C 0.95406 0.55397 0.03991 0.0
C1630 C 0.92098 0.56915 0.04658 0.0
C1631 C 0.91185 0.54936 0.05658 0.0
C1632 C 0.94482 0.53414 0.04979 0.0
C1633 C 0.92369 0.53181 0.05796 0.0
C1634 C 0.94198 0.57133 0.03802 0.0
C1635 C 0.02928 0.53784 0.98394 0.0
C1636 C 0.97737 0.55823 0.03459 0.0
C1637 C 0.97237 0.46457 0.08351 0.0
C1638 C 0.96309 0.45476 0.05923 0.0
C1639 C 0.05512 0.58626 0.04032 0.0
C1640 C 0.12731 0.51252 0.99219 0.0
C1641 C 0.15706 0.49205 0.00149 0.0
C1642 C 0.15683 0.48565 0.97607 0.0
C1643 C 0.12738 0.50595 0.96676 0.0
C1644 C 0.14244 0.50571 0.00963 0.0
C1645 C 0.14212 0.49268 0.95882 0.0
C1646 C 0.05844 0.54019 0.05986 0.0
C1647 C 0.11032 0.52507 0.99985 0.0
H1648 H 0.89561 0.54755 0.0633 0.0
H1649 H 0.95414 0.5208 0.0518 0.0
H1650 H 0.91668 0.5166 0.06578 0.0
H1651 H 0.94927 0.58688 0.03082 0.0
H1652 H 0.16817 0.47525 0.96959 0.0
H1653 H 0.11582 0.5108 0.95286 0.0
H1654 H 0.14246 0.51045 0.02927 0.0
H1655 H 0.142 0.48769 0.93925 0.0
H1656 H 0.97767 0.18532 0.98255 0.0
H1657 H 0.04676 0.2208 0.97947 0.0
H1658 H 0.06038 0.18687 0.99125 0.0
H1659 H 0.99208 0.15643 0.03664 0.0
H1660 H 0.97097 0.1304 0.02541 0.0
H1661 H 0.96644 0.15756 0.01726 0.0
H1662 H 0.96051 0.14072 0.97092 0.0
H1663 H 0.96525 0.11365 0.97908 0.0
H1664 H 0.98224 0.12841 0.95851 0.0
H1665 H 0.06655 0.14807 1.00035 0.0
H1666 H 0.06566 0.10915 0.0096 0.0
H1667 H 0.99311 0.09746 0.01069 0.0
C1668 C 0.99572 0.18609 0.98458 0.0
C1669 C 1.01111 0.20619 0.98001 0.0
C1670 C 0.03454 0.20607 0.98295 0.0
C1671 C 0.04245 0.18668 0.98956 0.0
C1672 C 0.02688 0.16725 0.99363 0.0
C1673 C 1.004 0.16685 0.99162 0.0
C1674 C 0.99105 0.14367 0.99746 0.0
C1675 C 0.97944 0.14723 0.02056 0.0
C1676 C 0.97373 0.13086 0.97516 0.0
C1677 C 1.01015 0.13094 0.0025 0.0
C1678 C 0.03061 0.14503 1.00007 0.0
C1679 C 0.05064 0.13723 0.00283 0.0
C1680 C 0.04997 0.11484 0.0085 0.0
C1681 C 0.02957 0.09985 0.01204 0.0
C1682 C 1.0092 0.10822 0.00864 0.0
H1683 H 0.14656 0.82882 0.1781 0.0
H1684 H 0.13465 0.76311 0.13108 0.0
H1685 H 0.16745 0.75372 0.15482 0.0
H1686 H 0.2075 0.83952 0.18364 0.0
H1687 H 0.21302 0.85253 0.21556 0.0
H1688 H 0.18751 0.8543 0.19637 0.0
H1689 H 0.16313 0.8358 0.22757 0.0
H1690 H 0.18868 0.83441 0.24691 0.0
H1691 H 0.16693 0.80869 0.23662 0.0
H1692 H 0.20309 0.75223 0.18014 0.0
H1693 H 0.23805 0.75715 0.20921 0.0
H1694 H 0.22833 0.82261 0.24289 0.0
C1695 C 0.15064 0.81229 0.17323 0.0
C1696 C 0.13783 0.79663 0.15261 0.0
C1697 C 0.1441 0.7754 0.14661 0.0
C1698 C 0.16278 0.76988 0.16002 0.0
C1699 C 0.17542 0.78575 0.17961 0.0
C1700 C 0.16962 0.80644 0.18656 0.0
C1701 C 0.18702 0.82047 0.20804 0.0
C1702 C 0.19949 0.84305 0.20045 0.0
C1703 C 0.17575 0.82511 0.23116 0.0
C1704 C 0.20312 0.80428 0.21204 0.0
C1705 C 0.1961 0.78454 0.19506 0.0
C1706 C 0.20858 0.7675 0.19373 0.0
C1707 C 0.2286 0.77048 0.21029 0.0
C1708 C 0.23607 0.79011 0.2284 0.0
C1709 C 0.22301 0.80727 0.22936 0.0
H1710 H 0.4996 0.85571 0.51595 0.0
H1711 H 0.53398 0.84715 0.45171 0.0
H1712 H 0.54356 0.88932 0.45266 0.0
H1713 H 0.47582 0.90344 0.49988 0.0
H1714 H 0.48035 0.9183 0.53103 0.0
H1715 H 0.47634 0.88746 0.52577 0.0
H1716 H 0.51444 0.89042 0.55368 0.0
H1717 H 0.5183 0.92128 0.55893 0.0
H1718 H 0.53989 0.90849 0.54689 0.0
H1719 H 0.54931 0.93269 0.46004 0.0
H1720 H 0.55185 0.9737 0.47375 0.0
H1721 H 0.51379 0.95603 0.53357 0.0
C1722 C 0.50928 0.86266 0.50214 0.0
C1723 C 0.51603 0.84764 0.48371 0.0
C1724 C 0.52865 0.85785 0.4661 0.0
C1725 C 0.53413 0.88195 0.46645 0.0
C1726 C 0.52708 0.8961 0.48463 0.0
C1727 C 0.51506 0.88688 0.50231 0.0
C1728 C 0.50975 0.90618 0.51993 0.0
C1729 C 0.48403 0.90368 0.51909 0.0
C1730 C 0.52128 0.90661 0.54643 0.0
C1731 C 0.52031 0.92762 0.50915 0.0
C1732 C 0.53032 0.92126 0.48886 0.0
C1733 C 0.54157 0.93775 0.47595 0.0
C1734 C 0.54297 0.96118 0.48401 0.0
C1735 C 0.53311 0.96853 0.50487 0.0
C1736 C 0.52134 0.95126 0.51743 0.0
H1737 H 0.52335 0.30779 0.67293 0.0
H1738 H 0.48759 0.25867 0.60963 0.0
H1739 H 0.45318 0.25253 0.62979 0.0
H1740 H 0.49833 0.27884 0.71988 0.0
H1741 H 0.49606 0.30473 0.73861 0.0
H1742 H 0.51799 0.30562 0.71914 0.0
H1743 H 0.50387 0.33766 0.69807 0.0
H1744 H 0.48178 0.33668 0.71739 0.0
H1745 H 0.47465 0.33268 0.68421 0.0
H1746 H 0.42271 0.25053 0.65729 0.0
H1747 H 0.39907 0.25227 0.69078 0.0
H1748 H 0.45347 0.30418 0.73541 0.0
C1749 C 0.5083 0.2957 0.66338 0.0
C1750 C 0.50829 0.28367 0.63966 0.0
C1751 C 0.48811 0.26816 0.62773 0.0
C1752 C 0.46839 0.26454 0.63903 0.0
C1753 C 0.46887 0.27675 0.66224 0.0
C1754 C 0.48825 0.29209 0.6743 0.0
C1755 C 0.48405 0.30299 0.69916 0.0
C1756 C 0.50006 0.29772 0.72045 0.0
C1757 C 0.48622 0.32905 0.69973 0.0
C1758 C 0.45964 0.29082 0.69947 0.0
C1759 C 0.45111 0.27592 0.6779 0.0
C1760 C 0.42916 0.26229 0.67421 0.0
C1761 C 0.41575 0.26354 0.69331 0.0
C1762 C 0.4243 0.27829 0.71591 0.0
C1763 C 0.44642 0.29245 0.71859 0.0
H1764 H 0.07279 0.8296 0.67218 0.0
H1765 H 1.00003 0.80276 0.66033 0.0
H1766 H 0.99532 0.83219 0.63316 0.0
H1767 H 0.07263 0.88958 0.67236 0.0
H1768 H 0.09632 0.89529 0.65536 0.0
H1769 H 0.09398 0.87276 0.67462 0.0
H1770 H 0.09618 0.84325 0.6372 0.0
H1771 H 0.09881 0.86577 0.61796 0.0
H1772 H 0.07657 0.84021 0.6092 0.0
H1773 H 0.99853 0.8655 0.60816 0.0
H1774 H 1.00985 0.89639 0.58267 0.0
H1775 H 0.08055 0.89968 0.60844 0.0
C1776 C 0.05585 0.82997 0.66392 0.0
C1777 C 0.03672 0.81401 0.66857 0.0
C1778 C 0.0149 0.8148 0.65705 0.0
C1779 C 0.01206 0.83155 0.64172 0.0
C1780 C 0.03124 0.84719 0.63775 0.0
C1781 C 0.05277 0.84626 0.64815 0.0
C1782 C 0.07069 0.86416 0.63975 0.0
C1783 C 0.0842 0.88147 0.66184 0.0
C1784 C 0.08649 0.85265 0.62516 0.0
C1785 C 0.0559 0.87541 0.62312 0.0
C1786 C 0.03317 0.86563 0.62252 0.0
C1787 C 0.01627 0.87324 0.60848 0.0
C1788 C 0.0228 0.89087 0.59423 0.0
C1789 C 0.04598 0.90045 0.59389 0.0
C1790 C 0.0627 0.89275 0.60868 0.0
H1791 H 0.45987 0.78518 0.85595 0.0
H1792 H 0.48726 0.82947 0.80455 0.0
H1793 H 0.44798 0.83054 0.78701 0.0
H1794 H 0.41247 0.75261 0.81227 0.0
H1795 H 0.39331 0.74888 0.83468 0.0
H1796 H 0.42314 0.75179 0.84411 0.0
H1797 H 0.42419 0.7862 0.8772 0.0
H1798 H 0.39409 0.78303 0.869 0.0
H1799 H 0.41308 0.81027 0.86849 0.0
H1800 H 0.404 0.82667 0.77544 0.0
H1801 H 0.36217 0.81747 0.77028 0.0
H1802 H 0.36358 0.7761 0.82984 0.0
C1803 C 0.4578 0.7952 0.841 0.0
C1804 C 0.47712 0.80732 0.83181 0.0
C1805 C 0.47309 0.81993 0.81201 0.0
C1806 C 0.45069 0.82071 0.80199 0.0
C1807 C 0.43214 0.80869 0.81173 0.0
C1808 C 0.43562 0.79609 0.83076 0.0
C1809 C 0.41305 0.78388 0.83746 0.0
C1810 C 0.41037 0.75773 0.83181 0.0
C1811 C 0.41099 0.79129 0.86466 0.0
C1812 C 0.39607 0.79216 0.82001 0.0
C1813 C 0.4074 0.80635 0.80512 0.0
C1814 C 0.39523 0.81577 0.78731 0.0
C1815 C 0.37124 0.8107 0.78474 0.0
C1816 C 0.35906 0.79655 0.80002 0.0
C1817 C 0.37198 0.78704 0.81779 0.0
H1818 H 0.56025 0.17847 0.17168 0.0
H1819 H 0.49982 0.19639 0.13713 0.0
H1820 H 0.49383 0.16224 0.10507 0.0
H1821 H 0.58087 0.15814 0.11863 0.0
H1822 H 0.58978 0.13421 0.13078 0.0
H1823 H 0.58861 0.15929 0.1515 0.0
H1824 H 0.56197 0.13387 0.17595 0.0
H1825 H 0.5632 0.10867 0.15533 0.0
H1826 H 0.53617 0.11515 0.15978 0.0
H1827 H 0.49676 0.12783 0.07437 0.0
H1828 H 0.50578 0.09403 0.05055 0.0
H1829 H 0.56318 0.09723 0.10625 0.0
C1830 C 0.54552 0.17493 0.1576 0.0
C1831 C 0.5304 0.19004 0.15698 0.0
C1832 C 0.5114 0.1849 0.13821 0.0
C1833 C 0.50798 0.1656 0.11983 0.0
C1834 C 0.5234 0.15122 0.12076 0.0
C1835 C 0.5415 0.15537 0.13955 0.0
C1836 C 0.5554 0.13707 0.1366 0.0
C1837 C 0.58013 0.14783 0.13423 0.0
C1838 C 0.55411 0.12285 0.1582 0.0
C1839 C 0.54302 0.12261 0.11257 0.0
C1840 C 0.52453 0.131 0.10377 0.0
C1841 C 0.51099 0.12099 0.08137 0.0
C1842 C 0.51632 0.10189 0.06786 0.0
C1843 C 0.53496 0.09282 0.07667 0.0
C1844 C 0.54848 0.1034 0.09934 0.0
H1845 H 0.14734 0.31019 0.36587 0.0
H1846 H 0.10699 0.31304 0.29644 0.0
H1847 H 0.14001 0.30955 0.27465 0.0
H1848 H 0.20027 0.34348 0.35402 0.0
H1849 H 0.21738 0.32637 0.36905 0.0
H1850 H 0.1905 0.32848 0.37875 0.0
H1851 H 0.17754 0.28405 0.37116 0.0
H1852 H 0.20443 0.28196 0.36144 0.0
H1853 H 0.17844 0.26871 0.34126 0.0
H1854 H 0.17886 0.30444 0.26004 0.0
H1855 H 0.21812 0.30123 0.25514 0.0
H1856 H 0.23379 0.30382 0.33437 0.0
C1857 C 0.14526 0.31011 0.34604 0.0
C1858 C 0.12402 0.31194 0.33308 0.0
C1859 C 0.12266 0.31171 0.30707 0.0
C1860 C 0.14151 0.30967 0.29448 0.0
C1861 C 0.16204 0.30789 0.30789 0.0
C1862 C 0.16396 0.3082 0.33322 0.0
C1863 C 0.18787 0.30627 0.34356 0.0
C1864 C 0.1997 0.32742 0.36247 0.0
C1865 C 0.18701 0.28393 0.35504 0.0
C1866 C 0.19944 0.30543 0.32032 0.0
C1867 C 0.18414 0.30588 0.2998 0.0
C1868 C 0.19079 0.30429 0.27618 0.0
C1869 C 0.2133 0.30238 0.27352 0.0
C1870 C 0.22957 0.30234 0.29425 0.0
C1871 C 0.22222 0.30401 0.318 0.0
H1872 H 0.98705 0.99445 0.1929 0.0
H1873 H 0.95197 0.05016 0.20402 0.0
H1874 H 0.96211 0.06281 0.16479 0.0
H1875 H 0.03367 0.0266 0.16746 0.0
H1876 H 0.03566 1.00259 0.14555 0.0
H1877 H 0.02521 0.99762 0.17427 0.0
H1878 H 0.98846 0.97089 0.14992 0.0
H1879 H 0.9988 0.97595 0.12115 0.0
H1880 H 0.97173 0.98169 0.12664 0.0
H1881 H 0.97416 0.06804 0.12266 0.0
H1882 H 0.99082 0.06764 0.08343 0.0
H1883 H 0.02079 0.01108 0.10198 0.0
C1884 C 0.98154 0.00934 0.18713 0.0
C1885 C 0.96865 0.02125 0.20161 0.0
C1886 C 0.9619 0.04074 0.19337 0.0
C1887 C 0.96749 0.04803 0.17101 0.0
C1888 C 0.98005 0.03582 0.15712 0.0
C1889 C 0.98724 0.01705 0.165 0.0
C1890 C 1.00104 1.00729 0.1469 0.0
C1891 C 0.02534 0.00862 0.15929 0.0
C1892 C 0.9893 0.98249 0.13549 0.0
C1893 C 1.00062 0.0236 0.12778 0.0
C1894 C 0.98804 0.03966 0.13369 0.0
C1895 C 0.98424 0.05568 0.11799 0.0
C1896 C 0.99365 0.05531 0.09575 0.0
C1897 C 1.0071 0.03942 0.08981 0.0
C1898 C 1.01068 0.02351 0.10615 0.0
H1899 H 0.27308 0.70544 0.5283 0.0
H1900 H 0.29912 0.6489 0.49498 0.0
H1901 H 0.29949 0.66588 0.45602 0.0
H1902 H 0.23504 0.70663 0.47851 0.0
H1903 H 0.23797 0.73739 0.48242 0.0
H1904 H 0.24397 0.72328 0.50875 0.0
H1905 H 0.28436 0.74952 0.51878 0.0
H1906 H 0.27844 0.76392 0.49251 0.0
H1907 H 0.30282 0.75114 0.49532 0.0
H1908 H 0.29065 0.68563 0.41888 0.0
H1909 H 0.27384 0.70626 0.38765 0.0
H1910 H 0.25516 0.75041 0.44626 0.0
C1911 C 0.2795 0.69694 0.51308 0.0
C1912 C 0.28612 0.67592 0.51468 0.0
C1913 C 0.29411 0.66515 0.4942 0.0
C1914 C 0.29442 0.67469 0.47202 0.0
C1915 C 0.28697 0.69509 0.47081 0.0
C1916 C 0.27991 0.70618 0.49095 0.0
C1917 C 0.2703 0.72635 0.48435 0.0
C1918 C 0.24536 0.72321 0.48876 0.0
C1919 C 0.28486 0.74908 0.49858 0.0
C1920 C 0.27231 0.7245 0.45714 0.0
C1921 C 0.28216 0.70654 0.44959 0.0
C1922 C 0.28343 0.70009 0.42468 0.0
C1923 C 0.27389 0.71195 0.40708 0.0
C1924 C 0.26314 0.72993 0.41454 0.0
C1925 C 0.26315 0.73668 0.43995 0.0
H1926 H 0.64225 0.02271 0.67653 0.0
H1927 H 0.63245 0.08628 0.71556 0.0
H1928 H 0.61285 0.09463 0.67699 0.0
H1929 H 0.65094 0.04323 0.6178 0.0
H1930 H 0.63508 0.01679 0.59951 0.0
H1931 H 0.64989 0.01628 0.62972 0.0
H1932 H 0.61244 0.99531 0.64321 0.0
H1933 H 0.59772 0.99547 0.61293 0.0
H1934 H 0.58787 0.00778 0.63995 0.0
H1935 H 0.5943 0.09601 0.63533 0.0
H1936 H 0.57278 0.08783 0.59332 0.0
H1937 H 0.59309 0.02262 0.58157 0.0
C1938 C 0.63598 0.03838 0.67687 0.0
C1939 C 0.63878 0.0539 0.69883 0.0
C1940 C 0.63025 0.07412 0.69885 0.0
C1941 C 0.61937 0.07915 0.67704 0.0
C1942 C 0.61714 0.06366 0.65561 0.0
C1943 C 0.62484 0.04352 0.65535 0.0
C1944 C 0.61863 0.02899 0.63021 0.0
C1945 C 0.63991 0.02616 0.61864 0.0
C1946 C 0.60325 1.00551 0.63167 0.0
C1947 C 0.60592 0.04399 0.61655 0.0
C1948 C 0.60572 0.06412 0.63145 0.0
C1949 C 0.59439 0.0804 0.62339 0.0
C1950 C 0.58227 0.07562 0.59964 0.0
C1951 C 0.5815 0.05467 0.58453 0.0
C1952 C 0.59382 0.03888 0.59279 0.0
H1953 H 0.29574 0.36955 0.96062 0.0
H1954 H 0.33588 0.32421 0.99043 0.0
H1955 H 0.33389 0.30374 0.9485 0.0
H1956 H 0.25935 0.32627 0.91155 0.0
H1957 H 0.25903 0.34619 0.88936 0.0
H1958 H 0.26193 0.35642 0.92194 0.0
H1959 H 0.29894 0.38549 0.91865 0.0
H1960 H 0.29622 0.37526 0.88612 0.0
H1961 H 0.32178 0.3752 0.90622 0.0
H1962 H 0.32817 0.28834 0.90396 0.0
H1963 H 0.32007 0.27939 0.85886 0.0
H1964 H 0.28592 0.33615 0.85604 0.0
C1965 C 0.30376 0.35506 0.95832 0.0
C1966 C 0.31585 0.34835 0.97889 0.0
C1967 C 0.3265 0.32962 0.97504 0.0
C1968 C 0.32544 0.31785 0.95127 0.0
C1969 C 0.31377 0.32507 0.93139 0.0
C1970 C 0.30311 0.34322 0.93454 0.0
C1971 C 0.29263 0.34799 0.90967 0.0
C1972 C 0.2667 0.34398 0.90804 0.0
C1973 C 0.30302 0.37244 0.90489 0.0
C1974 C 0.29942 0.3299 0.89215 0.0
C1975 C 0.31134 0.31675 0.90524 0.0
C1976 C 0.31909 0.2987 0.89348 0.0
C1977 C 0.31463 0.29394 0.86767 0.0
C1978 C 0.30303 0.30749 0.85354 0.0
C1979 C 0.29514 0.32563 0.86613 0.0
H1980 H 0.98762 0.04175 0.34475 0.0
H1981 H 0.95297 0.96989 0.33719 0.0
H1982 H 0.9657 0.96907 0.38101 0.0
H1983 H 0.03668 0.03528 0.38637 0.0
H1984 H 0.04037 0.063 0.40474 0.0
H1985 H 0.02821 0.05868 0.37263 0.0
H1986 H 0.99261 0.07237 0.38465 0.0
H1987 H 1.00533 0.07708 0.41656 0.0
H1988 H 0.97742 0.05885 0.40734 0.0
H1989 H 0.97985 0.97581 0.42543 0.0
H1990 H 0.99784 0.98884 0.46814 0.0
H1991 H 0.02709 0.05557 0.44864 0.0
C1992 C 0.98277 0.02589 0.35239 0.0
C1993 C 0.96925 1.00586 0.33741 0.0
C1994 C 0.9634 0.98541 0.34809 0.0
C1995 C 0.97047 0.98477 0.37307 0.0
C1996 C 0.98371 1.00464 0.3873 0.0
C1997 C 0.99013 0.02478 0.37746 0.0
C1998 C 1.00525 0.04328 0.39708 0.0
C1999 C 0.02904 0.05048 0.38976 0.0
C2000 C 0.99447 0.06412 0.40166 0.0
C2001 C 1.00585 0.03043 0.41947 0.0
C2002 C 0.99315 0.0082 0.41319 0.0
C2003 C 0.99027 0.99302 0.43046 0.0
C2004 C 1.00087 1.00054 0.45478 0.0
C2005 C 0.01477 0.0229 0.46186 0.0
C2006 C 0.017 0.0382 0.44387 0.0
H2007 H 0.31525 0.70267 0.63215 0.0
H2008 H 0.24952 0.65601 0.6269 0.0
H2009 H 0.24156 0.67846 0.6639 0.0
H2010 H 0.32889 0.71076 0.69693 0.0
H2011 H 0.34172 0.74098 0.69963 0.0
H2012 H 0.3419 0.72216 0.67175 0.0
H2013 H 0.32222 0.74791 0.64568 0.0
H2014 H 0.32224 0.76699 0.67347 0.0
H2015 H 0.29603 0.75447 0.65339 0.0
H2016 H 0.23989 0.70712 0.69999 0.0
H2017 H 0.24624 0.73894 0.73475 0.0
H2018 H 0.31428 0.76362 0.71911 0.0
C2019 C 0.29918 0.6972 0.63875 0.0
C2020 C 0.28308 0.67759 0.62679 0.0
C2021 C 0.26217 0.67098 0.6359 0.0
C2022 C 0.25743 0.68362 0.65683 0.0
C2023 C 0.27379 0.70272 0.66837 0.0
C2024 C 0.29422 0.70951 0.65969 0.0
C2025 C 0.30898 0.73053 0.67571 0.0
C2026 C 0.33171 0.7258 0.68666 0.0
C2027 C 0.31257 0.75119 0.6612 0.0
C2028 C 0.29408 0.7338 0.69534 0.0
C2029 C 0.27357 0.71801 0.69041 0.0
C2030 C 0.25619 0.71904 0.70464 0.0
C2031 C 0.26004 0.73674 0.72457 0.0
C2032 C 0.28137 0.75204 0.73064 0.0
C2033 C 0.2984 0.7509 0.71565 0.0
H2034 H 0.63881 0.0328 0.80123 0.0
H2035 H 0.70474 0.04434 0.84612 0.0
H2036 H 0.68797 0.05563 0.88304 0.0
H2037 H 0.62307 0.07992 0.82697 0.0
H2038 H 0.59351 0.0671 0.82657 0.0
H2039 H 0.60917 0.05543 0.80439 0.0
H2040 H 0.59852 0.01528 0.81839 0.0
H2041 H 0.58233 0.02668 0.8403 0.0
H2042 H 0.60429 0.01237 0.85065 0.0
H2043 H 0.66626 0.07179 0.91295 0.0
H2044 H 0.63951 0.08828 0.93583 0.0
H2045 H 0.58726 0.06595 0.87196 0.0
C2046 C 0.64956 0.03688 0.81896 0.0
C2047 C 0.67308 0.03767 0.82086 0.0
C2048 C 0.68667 0.04353 0.84429 0.0
C2049 C 0.67731 0.04998 0.86535 0.0
C2050 C 0.65434 0.0502 0.86262 0.0
C2051 C 0.6405 0.0434 0.84015 0.0
C2052 C 0.61681 0.04711 0.84188 0.0
C2053 C 0.61028 0.06336 0.82389 0.0
C2054 C 0.59946 0.02399 0.83756 0.0
C2055 C 0.61992 0.05826 0.8685 0.0
C2056 C 0.64161 0.05956 0.88015 0.0
C2057 C 0.64906 0.07041 0.90426 0.0
C2058 C 0.63379 0.07981 0.91703 0.0
C2059 C 0.61132 0.07828 0.90567 0.0
C2060 C 0.60437 0.06748 0.88103 0.0
H2061 H 0.30261 0.32136 0.09967 0.0
H2062 H 0.30586 0.3944 0.11837 0.0
H2063 H 0.30127 0.38875 0.16133 0.0
H2064 H 0.26085 0.30152 0.1392 0.0
H2065 H 0.27392 0.27872 0.14811 0.0
H2066 H 0.27677 0.28816 0.11841 0.0
H2067 H 0.32052 0.29599 0.12875 0.0
H2068 H 0.31777 0.28649 0.15841 0.0
H2069 H 0.3345 0.31462 0.15667 0.0
H2070 H 0.29567 0.37547 0.202 0.0
H2071 H 0.29211 0.35586 0.23876 0.0
H2072 H 0.29444 0.29151 0.19506 0.0
C2073 C 0.30232 0.33615 0.11279 0.0
C2074 C 0.30457 0.35834 0.10551 0.0
C2075 C 0.30422 0.37724 0.12337 0.0
C2076 C 0.30153 0.37421 0.14786 0.0
C2077 C 0.29933 0.35218 0.1544 0.0
C2078 C 0.29985 0.33347 0.1375 0.0
C2079 C 0.29775 0.31177 0.14972 0.0
C2080 C 0.27603 0.29399 0.13817 0.0
C2081 C 0.3189 0.30163 0.14831 0.0
C2082 C 0.29621 0.3213 0.17613 0.0
C2083 C 0.29684 0.3446 0.17826 0.0
C2084 C 0.29529 0.35725 0.20061 0.0
C2085 C 0.29326 0.34589 0.22143 0.0
C2086 C 0.29315 0.32211 0.22001 0.0
C2087 C 0.29454 0.30969 0.1969 0.0
H2088 H 0.23815 0.98185 0.97998 0.0
H2089 H 0.22442 0.91388 0.00224 0.0
H2090 H 0.19229 0.92286 0.02187 0.0
H2091 H 0.23183 0.01169 0.03108 0.0
H2092 H 0.21725 0.03199 0.01836 0.0
H2093 H 0.23502 0.01857 1.00038 0.0
H2094 H 0.20155 1.00331 0.96493 0.0
H2095 H 0.18362 0.01711 0.98263 0.0
H2096 H 0.17518 0.98676 0.9714 0.0
H2097 H 0.16944 0.94213 0.04779 0.0
H2098 H 0.15323 0.96935 0.07387 0.0
H2099 H 0.18001 0.02407 0.03318 0.0
C2100 C 0.22759 0.96855 0.98792 0.0
C2101 C 0.23341 0.9472 0.98951 0.0
C2102 C 0.21979 0.93019 1.00046 0.0
C2103 C 0.20158 0.93515 0.01171 0.0
C2104 C 0.19696 0.95688 0.01107 0.0
C2105 C 0.20911 0.9731 0.99878 0.0
C2106 C 0.20233 0.99594 0.00308 0.0
C2107 C 0.22284 0.01567 0.01388 0.0
C2108 C 0.18992 1.00108 0.97909 0.0
C2109 C 0.1863 0.99069 0.02172 0.0
C2110 C 0.18303 0.96794 0.02568 0.0
C2111 C 0.17122 0.95977 0.04432 0.0
C2112 C 0.16241 0.97528 0.05922 0.0
C2113 C 0.16572 0.99849 0.05531 0.0
C2114 C 0.17736 1.00623 0.03617 0.0
H2115 H 0.70636 0.63438 0.06411 0.0
H2116 H 0.71046 0.62907 0.98535 0.0
H2117 H 0.67367 0.60111 0.97696 0.0
H2118 H 0.68002 0.57449 0.06521 0.0
H2119 H 0.66202 0.58115 0.08758 0.0
H2120 H 0.68916 0.60007 0.08767 0.0
H2121 H 0.66976 0.6346 0.08339 0.0
H2122 H 0.64301 0.61554 0.08434 0.0
H2123 H 0.64658 0.63178 0.05884 0.0
H2124 H 0.63557 0.576 0.97684 0.0
H2125 H 0.59829 0.55527 0.98511 0.0
H2126 H 0.61934 0.57542 0.06388 0.0
C2127 C 0.69966 0.62717 0.0451 0.0
C2128 C 0.71137 0.63382 0.02537 0.0
C2129 C 0.70186 0.62418 0.00076 0.0
C2130 C 0.68099 0.60826 0.99581 0.0
C2131 C 0.66991 0.60211 0.01568 0.0
C2132 C 0.67886 0.61126 0.03983 0.0
C2133 C 0.66307 0.60243 0.05773 0.0
C2134 C 0.67425 0.58872 0.0756 0.0
C2135 C 0.65513 0.62228 0.07188 0.0
C2136 C 0.6438 0.5869 0.03984 0.0
C2137 C 0.64811 0.58704 0.01566 0.0
C2138 C 0.63219 0.57539 0.99568 0.0
C2139 C 0.61118 0.56361 1.00052 0.0
C2140 C 0.6065 0.56327 0.02509 0.0
C2141 C 0.62304 0.57477 0.04502 0.0
H2142 H 0.64878 0.46872 0.27507 0.0
H2143 H 0.70565 0.52633 0.30148 0.0
H2144 H 0.73195 0.49995 0.29943 0.0
H2145 H 0.67054 0.42588 0.30688 0.0
H2146 H 0.65964 0.40327 0.28124 0.0
H2147 H 0.64528 0.42646 0.28651 0.0
H2148 H 0.64854 0.43528 0.24172 0.0
H2149 H 0.6629 0.41214 0.23638 0.0
H2150 H 0.67606 0.44077 0.23162 0.0
H2151 H 0.75217 0.46752 0.29107 0.0
H2152 H 0.76441 0.4321 0.27692 0.0
H2153 H 0.69384 0.39573 0.25872 0.0
C2154 C 0.66673 0.47579 0.28076 0.0
C2155 C 0.67516 0.49957 0.28849 0.0
C2156 C 0.69881 0.50815 0.29547 0.0
C2157 C 0.71387 0.4933 0.29445 0.0
C2158 C 0.70498 0.46996 0.2865 0.0
C2159 C 0.68195 0.46128 0.27984 0.0
C2160 C 0.67674 0.43579 0.27064 0.0
C2161 C 0.66219 0.42205 0.28733 0.0
C2162 C 0.66539 0.43071 0.24349 0.0
C2163 C 0.70043 0.43149 0.27304 0.0
C2164 C 0.71654 0.45135 0.28216 0.0
C2165 C 0.73967 0.45179 0.28425 0.0
C2166 C 0.74645 0.43148 0.2763 0.0
C2167 C 0.73012 0.41097 0.26654 0.0
C2168 C 0.70685 0.41106 0.26563 0.0
H2169 H 0.88168 0.4532 0.4938 0.0
H2170 H 0.86607 0.49551 0.55596 0.0
H2171 H 0.90671 0.51502 0.56643 0.0
H2172 H 0.93694 0.44687 0.51975 0.0
H2173 H 0.94881 0.45012 0.49143 0.0
H2174 H 0.919 0.43804 0.49032 0.0
H2175 H 0.90906 0.46909 0.46424 0.0
H2176 H 0.93881 0.48098 0.46503 0.0
H2177 H 0.92061 0.49906 0.47574 0.0
H2178 H 0.94817 0.53065 0.56878 0.0
H2179 H 0.98729 0.54455 0.56018 0.0
H2180 H 0.97505 0.49278 0.49562 0.0
C2181 C 0.88699 0.46634 0.50982 0.0
C2182 C 0.87127 0.47277 0.52447 0.0
C2183 C 0.87826 0.49046 0.54478 0.0
C2184 C 0.90117 0.50142 0.5509 0.0
C2185 C 0.91642 0.49459 0.53614 0.0
C2186 C 0.90957 0.47778 0.51575 0.0
C2187 C 0.92878 0.47534 0.50133 0.0
C2188 C 0.93367 0.45115 0.50069 0.0
C2189 C 0.92403 0.48149 0.47504 0.0
C2190 C 0.94761 0.4932 0.517 0.0
C2191 C 0.94022 0.50398 0.53713 0.0
C2192 C 0.95428 0.52212 0.55336 0.0
C2193 C 0.97639 0.52976 0.54848 0.0
C2194 C 0.98391 0.51899 0.52784 0.0
C2195 C 0.96956 0.50055 0.51198 0.0
H2196 H 0.3918 0.1097 0.31653 0.0
H2197 H 0.32839 0.06018 0.31387 0.0
H2198 H 0.3072 0.08908 0.30197 0.0
H2199 H 0.37013 0.1632 0.33656 0.0
H2200 H 0.38702 0.17944 0.31694 0.0
H2201 H 0.3971 0.15707 0.33119 0.0
H2202 H 0.40158 0.13747 0.28806 0.0
H2203 H 0.39147 0.15963 0.27375 0.0
H2204 H 0.37746 0.1299 0.26401 0.0
H2205 H 0.29327 0.1203 0.28384 0.0
H2206 H 0.28773 0.15109 0.25902 0.0
H2207 H 0.36013 0.17984 0.27213 0.0
C2208 C 0.37345 0.10526 0.31438 0.0
C2209 C 0.36168 0.08287 0.3163 0.0
C2210 C 0.33768 0.07735 0.3126 0.0
C2211 C 0.32551 0.09369 0.30602 0.0
C2212 C 0.33762 0.11542 0.30336 0.0
C2213 C 0.36107 0.12129 0.30752 0.0
C2214 C 0.37007 0.14448 0.29985 0.0
C2215 C 0.38177 0.16209 0.32249 0.0
C2216 C 0.38607 0.14273 0.28025 0.0
C2217 C 0.34812 0.14993 0.28911 0.0
C2218 C 0.32955 0.13336 0.29209 0.0
C2219 C 0.3076 0.13366 0.28185 0.0
C2220 C 0.30462 0.15111 0.26775 0.0
C2221 C 0.32355 0.16764 0.2637 0.0
C2222 C 0.34544 0.16734 0.275 0.0
H2223 H 0.34695 0.15981 0.56373 0.0
H2224 H 0.31898 0.14158 0.48596 0.0
H2225 H 0.34654 0.11732 0.48005 0.0
H2226 H 0.40679 0.15959 0.55514 0.0
H2227 H 0.41198 0.14743 0.58322 0.0
H2228 H 0.39204 0.16583 0.58083 0.0
H2229 H 0.36085 0.1338 0.59208 0.0
H2230 H 0.38068 0.11541 0.59451 0.0
H2231 H 0.35426 0.10565 0.57398 0.0
H2232 H 0.37505 0.0933 0.48273 0.0
H2233 H 0.40116 0.06849 0.49489 0.0
H2234 H 0.40951 0.10065 0.57102 0.0
C2235 C 0.34692 0.15107 0.54537 0.0
C2236 C 0.33092 0.1527 0.5253 0.0
C2237 C 0.33115 0.14067 0.50162 0.0
C2238 C 0.34681 0.12694 0.49801 0.0
C2239 C 0.36219 0.12548 0.51822 0.0
C2240 C 0.36239 0.13715 0.54146 0.0
C2241 C 0.37952 0.13113 0.56041 0.0
C2242 C 0.39872 0.15225 0.57049 0.0
C2243 C 0.36813 0.12088 0.58147 0.0
C2244 C 0.38795 0.11332 0.54441 0.0
C2245 C 0.37823 0.11088 0.51998 0.0
C2246 C 0.38291 0.09512 0.50174 0.0
C2247 C 0.39763 0.08112 0.50875 0.0
C2248 C 0.40695 0.08275 0.53377 0.0
C2249 C 0.40238 0.09921 0.55177 0.0
H2250 H 0.70536 0.62167 0.25806 0.0
H2251 H 0.67519 0.63036 0.32542 0.0
H2252 H 0.69676 0.67065 0.33455 0.0
H2253 H 0.76098 0.65613 0.28218 0.0
H2254 H 0.76497 0.66826 0.25404 0.0
H2255 H 0.74726 0.64002 0.25277 0.0
H2256 H 0.71383 0.65298 0.22884 0.0
H2257 H 0.73152 0.68119 0.22999 0.0
H2258 H 0.70485 0.67802 0.24189 0.0
H2259 H 0.72029 0.71044 0.33545 0.0
H2260 H 0.74484 0.74674 0.32836 0.0
H2261 H 0.76087 0.71157 0.2615 0.0
C2262 C 0.70332 0.632 0.27478 0.0
C2263 C 0.68856 0.62283 0.29103 0.0
C2264 C 0.68637 0.63698 0.31268 0.0
C2265 C 0.69856 0.65989 0.31804 0.0
C2266 C 0.71294 0.66837 0.30164 0.0
C2267 C 0.7154 0.65487 0.28046 0.0
C2268 C 0.73178 0.66826 0.26575 0.0
C2269 C 0.75247 0.65752 0.26357 0.0
C2270 C 0.71977 0.67022 0.24011 0.0
C2271 C 0.73825 0.69132 0.28207 0.0
C2272 C 0.72704 0.6911 0.30257 0.0
C2273 C 0.72935 0.71076 0.31963 0.0
C2274 C 0.7433 0.73126 0.31547 0.0
C2275 C 0.75494 0.73181 0.29461 0.0
C2276 C 0.75259 0.71149 0.27792 0.0
H2277 H 0.84692 0.45043 0.7527 0.0
H2278 H 0.84721 0.47235 0.831 0.0
H2279 H 0.837 0.4322 0.8378 0.0
H2280 H 0.79742 0.40303 0.74741 0.0
H2281 H 0.80791 0.38433 0.72572 0.0
H2282 H 0.81599 0.41505 0.72661 0.0
H2283 H 0.85833 0.41275 0.7332 0.0
H2284 H 0.85013 0.38207 0.7327 0.0
H2285 H 0.86874 0.39962 0.75881 0.0
H2286 H 0.8306 0.39108 0.83768 0.0
H2287 H 0.81857 0.34906 0.82875 0.0
H2288 H 0.8169 0.35215 0.75024 0.0
C2289 C 0.84451 0.44671 0.77116 0.0
C2290 C 0.84806 0.46452 0.79133 0.0
C2291 C 0.84462 0.45906 0.81523 0.0
C2292 C 0.83905 0.43629 0.81939 0.0
C2293 C 0.83648 0.4192 0.7994 0.0
C2294 C 0.83834 0.42392 0.77561 0.0
C2295 C 0.83309 0.4019 0.75738 0.0
C2296 C 0.81236 0.40103 0.73815 0.0
C2297 C 0.85382 0.39893 0.74479 0.0
C2298 C 0.82791 0.38431 0.77483 0.0
C2299 C 0.83068 0.39485 0.79902 0.0
C2300 C 0.82775 0.38259 0.81879 0.0
C2301 C 0.82069 0.35882 0.81358 0.0
C2302 C 0.81592 0.3478 0.78891 0.0
C2303 C 0.82024 0.36045 0.76924 0.0
H2304 H 0.08063 0.87321 0.04582 0.0
H2305 H 0.04706 0.86686 0.11099 0.0
H2306 H 0.03461 0.90309 0.10598 0.0
H2307 H 0.10042 0.93518 0.0572 0.0
H2308 H 0.09596 0.93895 0.02508 0.0
H2309 H 0.10198 0.91242 0.03349 0.0
H2310 H 0.06513 0.88965 0.00567 0.0
H2311 H 0.05903 0.91618 0.9973 0.0
H2312 H 0.03843 0.89682 0.01047 0.0
H2313 H 0.02665 0.94149 0.09454 0.0
H2314 H 0.02412 0.97764 0.07801 0.0
H2315 H 0.06151 0.95947 0.01918 0.0
C2316 C 0.07058 0.87932 0.05907 0.0
C2317 C 0.06492 0.86673 0.07893 0.0
C2318 C 0.05176 0.87579 0.09566 0.0
C2319 C 0.04454 0.8965 0.09291 0.0
C2320 C 0.05042 0.90835 0.07321 0.0
C2321 C 0.06315 0.90005 0.05653 0.0
C2322 C 0.06742 0.91632 0.03714 0.0
C2323 C 0.09296 0.9263 0.0383 0.0
C2324 C 0.05688 0.904 0.0111 0.0
C2325 C 0.05513 0.93506 0.04543 0.0
C2326 C 0.04552 0.93013 0.06638 0.0
C2327 C 0.03407 0.94528 0.07809 0.0
C2328 C 0.03274 0.96594 0.06855 0.0
C2329 C 0.04241 0.97162 0.04716 0.0
C2330 C 0.05353 0.95562 0.03528 0.0
H2331 H 0.91616 0.26018 0.92429 0.0
H2332 H 0.9715 0.28211 0.88295 0.0
H2333 H 0.94409 0.2873 0.84855 0.0
H2334 H 0.87615 0.22801 0.8713 0.0
H2335 H 0.85182 0.23629 0.88241 0.0
H2336 H 0.87572 0.23439 0.90408 0.0
H2337 H 0.87884 0.27651 0.92356 0.0
H2338 H 0.85508 0.27855 0.90175 0.0
H2339 H 0.88172 0.29895 0.90416 0.0
H2340 H 0.91147 0.29335 0.82017 0.0
H2341 H 0.87534 0.29515 0.79679 0.0
H2342 H 0.83932 0.26496 0.85313 0.0
C2343 C 0.92251 0.26594 0.90794 0.0
C2344 C 0.94618 0.27077 0.9065 0.0
C2345 C 0.95362 0.27822 0.88465 0.0
C2346 C 0.93813 0.28134 0.86499 0.0
C2347 C 0.91507 0.27669 0.86713 0.0
C2348 C 0.90716 0.26883 0.88784 0.0
C2349 C 0.88134 0.26474 0.88495 0.0
C2350 C 0.87063 0.23934 0.88573 0.0
C2351 C 0.8738 0.28063 0.90479 0.0
C2352 C 0.87603 0.27138 0.85931 0.0
C2353 C 0.89588 0.27863 0.84972 0.0
C2354 C 0.89579 0.28704 0.82716 0.0
C2355 C 0.87495 0.28765 0.81376 0.0
C2356 C 0.85406 0.27918 0.82226 0.0
C2357 C 0.85478 0.27119 0.84569 0.0
H2358 H 0.56193 0.21846 0.59879 0.0
H2359 H 0.5752 0.23906 0.52769 0.0
H2360 H 0.57061 0.19856 0.51026 0.0
H2361 H 0.59201 0.17165 0.59488 0.0
H2362 H 0.57233 0.15252 0.60936 0.0
H2363 H 0.57605 0.18322 0.61694 0.0
H2364 H 0.53299 0.1796 0.60486 0.0
H2365 H 0.52919 0.14889 0.59742 0.0
H2366 H 0.51941 0.16535 0.5746 0.0
H2367 H 0.5663 0.15609 0.50006 0.0
H2368 H 0.55997 0.11394 0.49724 0.0
H2369 H 0.5486 0.11816 0.57392 0.0
C2370 C 0.56364 0.21443 0.57949 0.0
C2371 C 0.56901 0.23242 0.56472 0.0
C2372 C 0.57126 0.22603 0.53961 0.0
C2373 C 0.56867 0.20289 0.52943 0.0
C2374 C 0.56381 0.18576 0.54439 0.0
C2375 C 0.56117 0.19107 0.56887 0.0
C2376 C 0.55625 0.1689 0.58067 0.0
C2377 C 0.57529 0.16909 0.60172 0.0
C2378 C 0.53308 0.16549 0.58994 0.0
C2379 C 0.55614 0.15049 0.55888 0.0
C2380 C 0.56088 0.16082 0.53829 0.0
C2381 C 0.56249 0.14786 0.51608 0.0
C2382 C 0.55905 0.1238 0.5147 0.0
C2383 C 0.55388 0.11246 0.53526 0.0
C2384 C 0.55231 0.12615 0.55772 0.0
H2385 H 0.59325 0.76205 0.42854 0.0
H2386 H 0.54416 0.78951 0.38419 0.0
H2387 H 0.57204 0.79972 0.35559 0.0
H2388 H 0.64092 0.80437 0.425 0.0
H2389 H 0.66001 0.78508 0.42302 0.0
H2390 H 0.63545 0.778 0.43834 0.0
H2391 H 0.62238 0.73905 0.40936 0.0
H2392 H 0.64696 0.74609 0.39393 0.0
H2393 H 0.61899 0.73885 0.37631 0.0
H2394 H 0.6068 0.80909 0.33306 0.0
H2395 H 0.64518 0.81815 0.32046 0.0
H2396 H 0.67097 0.78492 0.38013 0.0
C2397 C 0.58818 0.76992 0.41264 0.0
C2398 C 0.56641 0.77487 0.40864 0.0
C2399 C 0.56064 0.78536 0.38763 0.0
C2400 C 0.57638 0.79122 0.37124 0.0
C2401 C 0.5978 0.78631 0.37593 0.0
C2402 C 0.60362 0.7758 0.39612 0.0
C2403 C 0.628 0.77333 0.39786 0.0
C2404 C 0.64191 0.78596 0.42251 0.0
C2405 C 0.62914 0.74781 0.39415 0.0
C2406 C 0.63536 0.78496 0.37618 0.0
C2407 C 0.61763 0.79193 0.36336 0.0
C2408 C 0.6207 0.80354 0.34291 0.0
C2409 C 0.64251 0.80854 0.33581 0.0
C2410 C 0.66099 0.80227 0.34937 0.0
C2411 C 0.65714 0.78997 0.36948 0.0
H2412 H 0.04424 0.24881 0.38247 0.0
H2413 H 0.07366 0.29414 0.4507 0.0
H2414 H 0.067 0.26102 0.47402 0.0
H2415 H 1.00081 0.21252 0.40727 0.0
H2416 H 1.00302 0.18655 0.38867 0.0
H2417 H 1.01029 0.21381 0.37747 0.0
H2418 H 0.05015 0.20673 0.37177 0.0
H2419 H 0.04297 0.17942 0.3829 0.0
H2420 H 0.06782 0.20051 0.39765 0.0
H2421 H 0.05438 0.22257 0.4902 0.0
H2422 H 0.03877 0.18287 0.49716 0.0
H2423 H 0.02217 0.16257 0.41755 0.0
C2424 C 0.04934 0.25181 0.40231 0.0
C2425 C 0.0594 0.27415 0.41473 0.0
C2426 C 0.06594 0.27721 0.44072 0.0
C2427 C 0.0622 0.25848 0.45416 0.0
C2428 C 0.05217 0.23668 0.44134 0.0
C2429 C 0.04606 0.23328 0.41594 0.0
C2430 C 0.03568 0.2082 0.40647 0.0
C2431 C 1.01099 0.2051 0.39425 0.0
C2432 C 0.05002 0.19813 0.38865 0.0
C2433 C 0.03677 0.19802 0.43046 0.0
C2434 C 0.04607 0.21466 0.45045 0.0
C2435 C 0.04737 0.20935 0.47458 0.0
C2436 C 0.03859 0.18654 0.47833 0.0
C2437 C 0.02888 0.1691 0.45801 0.0
C2438 C 0.02873 0.17517 0.43378 0.0
H2439 H 0.61197 0.2265 0.24028 0.0
H2440 H 0.6006 0.29515 0.23625 0.0
H2441 H 0.64203 0.31095 0.24621 0.0
H2442 H 0.6583 0.2421 0.29144 0.0
H2443 H 0.67374 0.22187 0.27906 0.0
H2444 H 0.64331 0.21596 0.27189 0.0
H2445 H 0.64667 0.21128 0.22518 0.0
H2446 H 0.67712 0.21724 0.23233 0.0
H2447 H 0.66383 0.23426 0.2127 0.0
H2448 H 0.68557 0.31939 0.25596 0.0
H2449 H 0.72619 0.31997 0.26555 0.0
H2450 H 0.71039 0.24593 0.26368 0.0
C2451 C 0.61807 0.24492 0.24165 0.0
C2452 C 0.6025 0.25951 0.23756 0.0
C2453 C 0.61171 0.28347 0.2394 0.0
C2454 C 0.6354 0.29262 0.24501 0.0
C2455 C 0.65011 0.27776 0.24882 0.0
C2456 C 0.64175 0.25437 0.24726 0.0
C2457 C 0.66126 0.24211 0.25207 0.0
C2458 C 0.659 0.22978 0.27498 0.0
C2459 C 0.66227 0.22522 0.22921 0.0
C2460 C 0.68194 0.26221 0.25675 0.0
C2461 C 0.67505 0.28259 0.2546 0.0
C2462 C 0.69095 0.30345 0.25767 0.0
C2463 C 0.71423 0.30356 0.26303 0.0
C2464 C 0.72206 0.28302 0.26546 0.0
C2465 C 0.70536 0.26203 0.2623 0.0
H2466 H 0.52823 0.86847 0.93986 0.0
H2467 H 0.57713 0.89184 0.89148 0.0
H2468 H 0.58452 0.93117 0.91429 0.0
H2469 H 0.50498 0.91871 0.94499 0.0
H2470 H 0.50146 0.91836 0.97707 0.0
H2471 H 0.50052 0.89188 0.95752 0.0
H2472 H 0.5326 0.8835 0.98808 0.0
H2473 H 0.53364 0.91002 0.00766 0.0
H2474 H 0.55896 0.90458 0.99635 0.0
H2475 H 0.58574 0.9685 0.94165 0.0
H2476 H 0.58096 1.00058 0.97141 0.0
H2477 H 0.53117 0.95329 0.00216 0.0
C2478 C 0.54061 0.8818 0.93411 0.0
C2479 C 0.55212 0.87687 0.91376 0.0
C2480 C 0.56811 0.89499 0.90695 0.0
C2481 C 0.57243 0.91745 0.91983 0.0
C2482 C 0.56074 0.92169 0.93967 0.0
C2483 C 0.54519 0.90435 0.94685 0.0
C2484 C 0.53464 0.9136 0.96857 0.0
C2485 C 0.50888 0.91045 0.96161 0.0
C2486 C 0.5403 0.90224 0.99152 0.0
C2487 C 0.54653 0.93886 0.97237 0.0
C2488 C 0.56155 0.94314 0.95553 0.0
C2489 C 0.57413 0.96525 0.95501 0.0
C2490 C 0.57128 0.98341 0.97203 0.0
C2491 C 0.55595 0.97955 0.9895 0.0
C2492 C 0.54348 0.95685 0.98959 0.0
H2493 H 0.95257 0.7958 0.72719 0.0
H2494 H 0.95719 0.72758 0.74286 0.0
H2495 H 0.91951 0.72284 0.75748 0.0
H2496 H 0.92517 0.81107 0.78076 0.0
H2497 H 0.90956 0.82763 0.76293 0.0
H2498 H 0.93654 0.82392 0.75542 0.0
H2499 H 0.91599 0.80863 0.71044 0.0
H2500 H 0.889 0.81103 0.7196 0.0
H2501 H 0.89279 0.78375 0.70536 0.0
H2502 H 0.87896 0.72562 0.76933 0.0
H2503 H 0.84318 0.73606 0.77879 0.0
H2504 H 0.86586 0.80302 0.75642 0.0
C2505 C 0.94582 0.77977 0.7337 0.0
C2506 C 0.95834 0.76205 0.7337 0.0
C2507 C 0.94839 0.74154 0.7426 0.0
C2508 C 0.92678 0.73868 0.75092 0.0
C2509 C 0.91496 0.7565 0.75049 0.0
C2510 C 0.92436 0.7767 0.74216 0.0
C2511 C 0.90876 0.79358 0.74397 0.0
C2512 C 0.92074 0.81531 0.76189 0.0
C2513 C 0.90119 0.7996 0.71831 0.0
C2514 C 0.88878 0.77981 0.75432 0.0
C2515 C 0.89258 0.75836 0.75789 0.0
C2516 C 0.87614 0.74248 0.7667 0.0
C2517 C 0.85565 0.74859 0.77205 0.0
C2518 C 0.8513 0.77055 0.76883 0.0
C2519 C 0.8684 0.78623 0.75969 0.0
H2520 H 0.11076 0.03113 0.86189 0.0
H2521 H 0.10675 0.10272 0.86263 0.0
H2522 H 0.09052 0.1019 0.9015 0.0
H2523 H 0.05812 0.01307 0.88699 0.0
H2524 H 0.06882 0.99363 0.90553 0.0
H2525 H 0.07997 0.99926 0.8773 0.0
H2526 H 0.12062 0.01175 0.90148 0.0
H2527 H 0.10959 1.00616 0.92978 0.0
H2528 H 0.12656 0.0341 0.92772 0.0
H2529 H 0.07377 0.09372 0.93898 0.0
H2530 H 0.05796 0.07848 0.97454 0.0
H2531 H 0.07427 0.01282 0.95253 0.0
C2532 C 0.10635 0.04657 0.8702 0.0
C2533 C 0.11002 0.06701 0.85911 0.0
C2534 C 0.10415 0.08688 0.87068 0.0
C2535 C 0.0949 0.08661 0.8928 0.0
C2536 C 0.09167 0.06637 0.90333 0.0
C2537 C 0.09717 0.04667 0.89257 0.0
C2538 C 0.09189 0.02731 0.90813 0.0
C2539 C 0.07362 1.00713 0.89362 0.0
C2540 C 0.11346 0.01937 0.91732 0.0
C2541 C 0.08286 0.0394 0.92939 0.0
C2542 C 0.08271 0.06185 0.92593 0.0
C2543 C 0.07413 0.0763 0.94213 0.0
C2544 C 0.06533 0.06758 0.96235 0.0
C2545 C 0.06568 0.04487 0.96667 0.0
C2546 C 0.07458 0.03052 0.95002 0.0
H2547 H 0.80279 0.43214 0.57962 0.0
H2548 H 0.76547 0.37061 0.53103 0.0
H2549 H 0.77417 0.347 0.56332 0.0
H2550 H 0.84723 0.41003 0.60084 0.0
H2551 H 0.85158 0.42439 0.63219 0.0
H2552 H 0.83897 0.43703 0.60754 0.0
H2553 H 0.80389 0.43822 0.62996 0.0
H2554 H 0.81658 0.42591 0.65497 0.0
H2555 H 0.78861 0.41223 0.63925 0.0
H2556 H 0.7913 0.3299 0.59829 0.0
H2557 H 0.81432 0.32067 0.63429 0.0
H2558 H 0.84085 0.39348 0.65927 0.0
C2559 C 0.7958 0.41378 0.576 0.0
C2560 C 0.78337 0.40319 0.55287 0.0
C2561 C 0.77485 0.37909 0.54873 0.0
C2562 C 0.77973 0.36554 0.56693 0.0
C2563 C 0.79292 0.37647 0.58913 0.0
C2564 C 0.80059 0.40008 0.59385 0.0
C2565 C 0.8162 0.40746 0.61815 0.0
C2566 C 0.83989 0.42048 0.61443 0.0
C2567 C 0.80568 0.4218 0.63668 0.0
C2568 C 0.81691 0.38425 0.62585 0.0
C2569 C 0.8031 0.36659 0.60911 0.0
C2570 C 0.80186 0.34358 0.61174 0.0
C2571 C 0.81501 0.33852 0.63213 0.0
C2572 C 0.82931 0.35643 0.64937 0.0
C2573 C 0.83017 0.37952 0.6462 0.0
H2574 H 0.42597 0.04447 0.38793 0.0
H2575 H 0.4005 0.97088 0.38448 0.0
H2576 H 0.43077 0.96986 0.41799 0.0
H2577 H 0.48374 0.04357 0.39784 0.0
H2578 H 0.49219 0.07016 0.41877 0.0
H2579 H 0.46768 0.06557 0.39561 0.0
H2580 H 0.4429 0.07349 0.42965 0.0
H2581 H 0.46744 0.07831 0.45287 0.0
H2582 H 0.44236 0.05717 0.45529 0.0
H2583 H 0.4676 0.97564 0.44541 0.0
H2584 H 0.50446 0.98941 0.47222 0.0
H2585 H 0.50273 0.05969 0.46264 0.0
C2586 C 0.42648 0.02824 0.3946 0.0
C2587 C 0.41097 0.00776 0.38372 0.0
C2588 C 0.41218 0.9868 0.39275 0.0
C2589 C 0.42934 0.98601 0.41165 0.0
C2590 C 0.44474 1.00641 0.42153 0.0
C2591 C 0.44319 0.02723 0.41376 0.0
C2592 C 0.46227 0.04652 0.42704 0.0
C2593 C 0.47735 0.05706 0.40872 0.0
C2594 C 0.45318 0.06495 0.44212 0.0
C2595 C 0.47464 0.03327 0.4436 0.0
C2596 C 0.46466 0.01005 0.43957 0.0
C2597 C 0.47501 0.99388 0.44972 0.0
C2598 C 0.49583 1.00181 0.46499 0.0
C2599 C 0.50523 0.02563 0.4708 0.0
C2600 C 0.4948 0.04151 0.45971 0.0
H2601 H 0.76432 0.70658 0.09843 0.0
H2602 H 0.8115 0.76372 0.07791 0.0
H2603 H 0.81537 0.78462 0.12006 0.0
H2604 H 0.73663 0.74074 0.13958 0.0
H2605 H 0.73417 0.72015 0.16115 0.0
H2606 H 0.73409 0.71065 0.12886 0.0
H2607 H 0.76769 0.69151 0.141 0.0
H2608 H 0.76793 0.70161 0.17318 0.0
H2609 H 0.79333 0.70881 0.15913 0.0
H2610 H 0.81394 0.7995 0.16404 0.0
H2611 H 0.80867 0.80655 0.20802 0.0
H2612 H 0.76434 0.73906 0.20093 0.0
C2613 C 0.77526 0.7236 0.10273 0.0
C2614 C 0.78747 0.73364 0.08482 0.0
C2615 C 0.80193 0.75575 0.0913 0.0
C2616 C 0.80421 0.76776 0.11517 0.0
C2617 C 0.79208 0.75734 0.13241 0.0
C2618 C 0.77796 0.73572 0.12658 0.0
C2619 C 0.76752 0.72811 0.14889 0.0
C2620 C 0.74156 0.72473 0.14433 0.0
C2621 C 0.77455 0.70621 0.15596 0.0
C2622 C 0.77816 0.74875 0.16818 0.0
C2623 C 0.79202 0.76554 0.15816 0.0
C2624 C 0.80321 0.78646 0.17212 0.0
C2625 C 0.8001 0.79036 0.19697 0.0
C2626 C 0.78628 0.77328 0.20759 0.0
C2627 C 0.77526 0.75219 0.19313 0.0
H2628 H 0.11253 0.04282 0.71438 0.0
H2629 H 0.06794 0.08327 0.74485 0.0
H2630 H 0.04761 0.08153 0.70295 0.0
H2631 H 0.11841 0.06894 0.66044 0.0
H2632 H 0.11805 0.04286 0.6404 0.0
H2633 H 0.12806 0.04551 0.67294 0.0
H2634 H 0.09883 0.00833 0.67611 0.0
H2635 H 0.08869 1.00557 0.64354 0.0
H2636 H 0.06919 1.00628 0.66579 0.0
H2637 H 0.03174 0.07506 0.65811 0.0
H2638 H 0.02351 0.06736 0.61279 0.0
H2639 H 0.08062 0.03452 0.61046 0.0
C2640 C 0.09834 0.05113 0.71228 0.0
C2641 C 0.09175 0.06311 0.73299 0.0
C2642 C 0.07326 0.07393 0.72936 0.0
C2643 C 0.06155 0.07298 0.70562 0.0
C2644 C 0.06853 0.06116 0.68565 0.0
C2645 C 0.08654 0.05048 0.68866 0.0
C2646 C 0.09114 0.03978 0.66388 0.0
C2647 C 0.11535 0.0499 0.65915 0.0
C2648 C 0.0867 0.01343 0.66224 0.0
C2649 C 0.0735 0.04697 0.64646 0.0
C2650 C 0.06027 0.05871 0.65951 0.0
C2651 C 0.04228 0.06629 0.64768 0.0
C2652 C 0.03795 0.06216 0.62181 0.0
C2653 C 0.05207 0.05143 0.60785 0.0
C2654 C 0.06983 0.04332 0.62049 0.0
H2655 H 0.79836 0.4243 0.40836 0.0
H2656 H 0.82438 0.39454 0.47095 0.0
H2657 H 0.82578 0.35974 0.44304 0.0
H2658 H 0.7611 0.37416 0.37906 0.0
H2659 H 0.7651 0.37914 0.34796 0.0
H2660 H 0.76939 0.40312 0.3721 0.0
H2661 H 0.81027 0.41773 0.36236 0.0
H2662 H 0.80581 0.39379 0.33802 0.0
H2663 H 0.82957 0.39858 0.36222 0.0
H2664 H 0.82427 0.32825 0.4082 0.0
H2665 H 0.8162 0.30086 0.36955 0.0
H2666 H 0.78543 0.34923 0.33202 0.0
C2667 C 0.80486 0.41067 0.41601 0.0
C2668 C 0.81155 0.41204 0.44157 0.0
C2669 C 0.81933 0.39369 0.45125 0.0
C2670 C 0.82029 0.37397 0.4356 0.0
C2671 C 0.81317 0.37289 0.41046 0.0
C2672 C 0.80544 0.39065 0.40073 0.0
C2673 C 0.79671 0.38426 0.37348 0.0
C2674 C 0.77158 0.38522 0.36785 0.0
C2675 C 0.81147 0.3995 0.35812 0.0
C2676 C 0.79993 0.3599 0.36976 0.0
C2677 C 0.81021 0.35391 0.39098 0.0
C2678 C 0.81595 0.33262 0.39148 0.0
C2679 C 0.81106 0.31708 0.36953 0.0
C2680 C 0.79976 0.32269 0.34784 0.0
C2681 C 0.79395 0.34428 0.34823 0.0
H2682 H 0.42018 0.03335 0.25035 0.0
H2683 H 0.46056 0.99839 0.29687 0.0
H2684 H 0.4829 0.9919 0.26314 0.0
H2685 H 0.41368 0.99716 0.19773 0.0
H2686 H 0.41632 0.01822 0.17668 0.0
H2687 H 0.40679 0.02465 0.20586 0.0
H2688 H 0.43919 0.06123 0.21678 0.0
H2689 H 0.44881 0.05493 0.18745 0.0
H2690 H 0.46813 0.05885 0.21579 0.0
H2691 H 0.49618 0.98327 0.22278 0.0
H2692 H 0.49948 0.97353 0.17848 0.0
H2693 H 0.45054 0.0138 0.15824 0.0
C2694 C 0.43415 0.02493 0.25369 0.0
C2695 C 0.43862 0.01634 0.27619 0.0
C2696 C 0.45688 1.00519 0.2798 0.0
C2697 C 0.46975 1.00152 0.26079 0.0
C2698 C 0.46438 0.00947 0.23849 0.0
C2699 C 0.44722 0.02124 0.23496 0.0
C2700 C 0.4433 0.02586 0.20848 0.0
C2701 C 0.41856 0.01586 0.19651 0.0
C2702 C 0.45027 0.05175 0.20705 0.0
C2703 C 0.45949 0.01308 0.19724 0.0
C2704 C 0.47206 1.0044 0.215 0.0
C2705 C 0.48684 0.99041 0.20878 0.0
C2706 C 0.48854 0.98488 0.18372 0.0
C2707 C 0.47527 0.99307 0.16543 0.0
C2708 C 0.46094 0.00764 0.1722 0.0
H2709 H 0.78503 0.68695 0.92365 0.0
H2710 H 0.76832 0.73991 0.97428 0.0
H2711 H 0.77213 0.76624 0.94279 0.0
H2712 H 0.82764 0.72576 0.89785 0.0
H2713 H 0.82019 0.70993 0.86709 0.0
H2714 H 0.81614 0.69517 0.89356 0.0
H2715 H 0.77381 0.67935 0.87566 0.0
H2716 H 0.77763 0.69426 0.84925 0.0
H2717 H 0.75627 0.69915 0.86812 0.0
H2718 H 0.77446 0.78545 0.90469 0.0
H2719 H 0.77868 0.7978 0.86397 0.0
H2720 H 0.79856 0.73427 0.83961 0.0
C2721 C 0.78219 0.7041 0.9281 0.0
C2722 C 0.77618 0.71136 0.95134 0.0
C2723 C 0.77291 0.73401 0.9566 0.0
C2724 C 0.775 0.74906 0.93882 0.0
C2725 C 0.78079 0.74133 0.91605 0.0
C2726 C 0.78469 0.71952 0.91074 0.0
C2727 C 0.79108 0.7157 0.88495 0.0
C2728 C 0.8152 0.71139 0.88594 0.0
C2729 C 0.77366 0.69594 0.86853 0.0
C2730 C 0.78989 0.73866 0.87651 0.0
C2731 C 0.78363 0.75306 0.89462 0.0
C2732 C 0.77978 0.7745 0.89053 0.0
C2733 C 0.78228 0.78136 0.86729 0.0
C2734 C 0.78908 0.76708 0.84849 0.0
C2735 C 0.79331 0.7456 0.85348 0.0
H2736 H 0.86023 0.13681 0.0541 0.0
H2737 H 0.83445 0.08076 0.09368 0.0
H2738 H 0.86234 0.05962 0.07863 0.0
H2739 H 0.86196 0.10144 0.00179 0.0
H2740 H 0.88657 0.119 0.99272 0.0
H2741 H 0.86884 0.13212 0.01117 0.0
H2742 H 0.90347 0.15024 0.04467 0.0
H2743 H 0.92147 0.13743 0.02614 0.0
H2744 H 0.92058 0.13207 0.05767 0.0
H2745 H 0.88864 0.04257 0.0544 0.0
H2746 H 0.91076 0.0304 0.02246 0.0
H2747 H 0.91797 0.09735 0.99755 0.0
C2748 C 0.86127 0.12062 0.06062 0.0
C2749 C 0.84585 0.1106 0.07561 0.0
C2750 C 0.84663 0.0888 0.08264 0.0
C2751 C 0.86235 0.07674 0.07417 0.0
C2752 C 0.87678 0.08672 0.05852 0.0
C2753 C 0.87633 0.10818 0.0518 0.0
C2754 C 0.8907 0.1135 0.03165 0.0
C2755 C 0.87615 0.1167 0.00796 0.0
C2756 C 0.91022 0.13456 0.04058 0.0
C2757 C 0.89928 0.09168 0.02798 0.0
C2758 C 0.89125 0.07651 0.04375 0.0
C2759 C 0.89541 0.05447 0.04231 0.0
C2760 C 0.90801 0.04775 0.02413 0.0
C2761 C 0.91613 0.06302 0.00762 0.0
C2762 C 0.91192 0.08532 0.00987 0.0
H2763 H 0.37858 0.4372 0.02319 0.0
H2764 H 0.37939 0.4609 0.10103 0.0
H2765 H 0.41554 0.48851 0.10129 0.0
H2766 H 0.4384 0.4406 0.02616 0.0
H2767 H 0.44014 0.45039 0.99648 0.0
H2768 H 0.41414 0.4327 0.00231 0.0
H2769 H 0.3926 0.46383 0.99019 0.0
H2770 H 0.41868 0.48163 0.9846 0.0
H2771 H 0.40195 0.49287 0.00599 0.0
H2772 H 0.45208 0.51235 0.09385 0.0
H2773 H 0.48752 0.53034 0.07905 0.0
H2774 H 0.46264 0.49258 0.00582 0.0
C2775 C 0.38635 0.4482 0.0403 0.0
C2776 C 0.37612 0.4469 0.06211 0.0
C2777 C 0.38685 0.46161 0.08408 0.0
C2778 C 0.40736 0.47739 0.08442 0.0
C2779 C 0.41686 0.47838 0.06259 0.0
C2780 C 0.40678 0.46418 0.04093 0.0
C2781 C 0.42085 0.46847 0.02016 0.0
C2782 C 0.42886 0.44675 0.01074 0.0
C2783 C 0.40773 0.47722 0.99899 0.0
C2784 C 0.44048 0.48717 0.03364 0.0
C2785 C 0.43778 0.49264 0.0581 0.0
C2786 C 0.45423 0.50849 0.07467 0.0
C2787 C 0.47417 0.51869 0.06614 0.0
C2788 C 0.47726 0.51319 0.04127 0.0
C2789 C 0.46017 0.4975 0.02472 0.0
H2790 H 0.40238 0.59057 0.73847 0.0
H2791 H 0.38581 0.54877 0.79625 0.0
H2792 H 0.3645 0.57622 0.81291 0.0
H2793 H 0.4123 0.64367 0.77523 0.0
H2794 H 0.3999 0.6583 0.75217 0.0
H2795 H 0.41168 0.63406 0.74281 0.0
H2796 H 0.3733 0.61374 0.71619 0.0
H2797 H 0.36142 0.638 0.72554 0.0
H2798 H 0.34776 0.60954 0.73037 0.0
H2799 H 0.34919 0.60981 0.82641 0.0
H2800 H 0.33983 0.64788 0.83526 0.0
H2801 H 0.36482 0.66761 0.76835 0.0
C2802 C 0.39387 0.58695 0.7543 0.0
C2803 C 0.39573 0.5675 0.766 0.0
C2804 C 0.38459 0.56351 0.7869 0.0
C2805 C 0.37236 0.57896 0.79649 0.0
C2806 C 0.3712 0.59815 0.78482 0.0
C2807 C 0.38147 0.60217 0.76408 0.0
C2808 C 0.37882 0.62496 0.75615 0.0
C2809 C 0.40206 0.6412 0.75663 0.0
C2810 C 0.36446 0.62134 0.73054 0.0
C2811 C 0.36625 0.63345 0.77623 0.0
C2812 C 0.36184 0.61758 0.79243 0.0
C2813 C 0.35211 0.62221 0.81363 0.0
C2814 C 0.34696 0.64379 0.81857 0.0
C2815 C 0.35155 0.66025 0.80233 0.0
C2816 C 0.36089 0.65496 0.78071 0.0
H2817 H 0.18925 0.62228 0.52916 0.0
H2818 H 0.22322 0.5677 0.54609 0.0
H2819 H 0.18658 0.53995 0.53862 0.0
H2820 H 0.14567 0.60745 0.56059 0.0
H2821 H 0.12416 0.61423 0.53905 0.0
H2822 H 0.15325 0.62858 0.54036 0.0
H2823 H 0.15157 0.61499 0.49338 0.0
H2824 H 0.12226 0.60096 0.49219 0.0
H2825 H 0.14219 0.58483 0.48163 0.0
H2826 H 0.14695 0.51992 0.53648 0.0
H2827 H 0.10651 0.5093 0.54118 0.0
H2828 H 0.09862 0.57706 0.52671 0.0
C2829 C 0.18901 0.60436 0.53055 0.0
C2830 C 0.20894 0.59709 0.53799 0.0
C2831 C 0.20806 0.57359 0.54011 0.0
C2832 C 0.18738 0.55764 0.53576 0.0
C2833 C 0.16791 0.56546 0.52893 0.0
C2834 C 0.16854 0.58823 0.52624 0.0
C2835 C 0.14508 0.59283 0.52196 0.0
C2836 C 0.14187 0.61187 0.54168 0.0
C2837 C 0.13996 0.59873 0.49572 0.0
C2838 C 0.13128 0.56953 0.52462 0.0
C2839 C 0.14469 0.55376 0.52779 0.0
C2840 C 0.1361 0.53184 0.5333 0.0
C2841 C 0.11322 0.52603 0.5361 0.0
C2842 C 0.09955 0.54233 0.53386 0.0
C2843 C 0.10856 0.56407 0.52757 0.0
H2844 H 0.7159 0.96779 0.72275 0.0
H2845 H 0.75652 0.03275 0.76161 0.0
H2846 H 0.77932 0.01208 0.78675 0.0
H2847 H 0.70909 0.94093 0.77005 0.0
H2848 H 0.71197 0.91273 0.75757 0.0
H2849 H 0.70308 0.93153 0.73715 0.0
H2850 H 0.73627 0.92878 0.71225 0.0
H2851 H 0.74487 0.90912 0.73198 0.0
H2852 H 0.76486 0.93472 0.7282 0.0
H2853 H 0.78963 0.98582 0.81497 0.0
H2854 H 0.79325 0.95387 0.83901 0.0
H2855 H 0.74729 0.90584 0.78137 0.0
C2856 C 0.73047 0.97761 0.73547 0.0
C2857 C 0.73439 1.00175 0.74044 0.0
C2858 C 0.75326 0.01416 0.75762 0.0
C2859 C 0.7663 1.0026 0.77203 0.0
C2860 C 0.76063 0.97871 0.76842 0.0
C2861 C 0.74377 0.96626 0.74991 0.0
C2862 C 0.73938 0.94083 0.75186 0.0
C2863 C 0.71441 0.93096 0.75431 0.0
C2864 C 0.7468 0.92758 0.72977 0.0
C2865 C 0.75484 0.94131 0.77554 0.0
C2866 C 0.76716 0.96327 0.78464 0.0
C2867 C 0.78068 0.96841 0.80769 0.0
C2868 C 0.78227 0.95039 0.82141 0.0
C2869 C 0.77031 0.92781 0.81194 0.0
C2870 C 0.75645 0.92318 0.78883 0.0
H2871 H 0.76406 0.94488 0.52977 0.0
H2872 H 0.72508 0.90469 0.57753 0.0
H2873 H 0.69389 0.92466 0.56889 0.0
H2874 H 0.7455 0.99844 0.54504 0.0
H2875 H 0.74448 1.00479 0.5137 0.0
H2876 H 0.76446 0.98879 0.52538 0.0
H2877 H 0.74845 0.95576 0.48903 0.0
H2878 H 0.72851 0.97167 0.47724 0.0
H2879 H 0.71852 0.94289 0.4839 0.0
H2880 H 0.66568 0.94695 0.55206 0.0
H2881 H 0.64297 0.96887 0.52787 0.0
H2882 H 0.70141 0.99506 0.49269 0.0
C2883 C 0.74915 0.94051 0.53879 0.0
C2884 C 0.74706 0.9233 0.55444 0.0
C2885 C 0.72709 0.91788 0.56554 0.0
C2886 C 0.70931 0.92917 0.5608 0.0
C2887 C 0.71184 0.94587 0.54501 0.0
C2888 C 0.73131 0.95153 0.53425 0.0
C2889 C 0.72938 0.969 0.5168 0.0
C2890 C 0.747 0.9916 0.52578 0.0
C2891 C 0.73132 0.95924 0.49018 0.0
C2892 C 0.70566 0.97204 0.5191 0.0
C2893 C 0.69578 0.95869 0.53553 0.0
C2894 C 0.67337 0.9577 0.5394 0.0
C2895 C 0.66064 0.97031 0.52567 0.0
C2896 C 0.6704 0.98361 0.50829 0.0
C2897 C 0.69337 0.98486 0.5056 0.0
H2898 H 0.38987 0.45143 0.78179 0.0
H2899 H 0.3845 0.44 0.70164 0.0
H2900 H 0.35789 0.40279 0.70068 0.0
H2901 H 0.38797 0.39263 0.79118 0.0
H2902 H 0.37132 0.39364 0.81619 0.0
H2903 H 0.38999 0.41945 0.8107 0.0
H2904 H 0.35619 0.43969 0.8074 0.0
H2905 H 0.33742 0.41384 0.81268 0.0
H2906 H 0.33121 0.42686 0.78543 0.0
H2907 H 0.33329 0.36652 0.70819 0.0
H2908 H 0.31201 0.33281 0.72397 0.0
H2909 H 0.3314 0.36816 0.79902 0.0
C2910 C 0.38313 0.44108 0.76403 0.0
C2911 C 0.38928 0.44863 0.74174 0.0
C2912 C 0.38001 0.43462 0.71891 0.0
C2913 C 0.36487 0.41347 0.71818 0.0
C2914 C 0.35902 0.40667 0.74041 0.0
C2915 C 0.36782 0.41999 0.76293 0.0
C2916 C 0.35881 0.40847 0.78409 0.0
C2917 C 0.37817 0.40324 0.80156 0.0
C2918 C 0.34509 0.42309 0.79823 0.0
C2919 C 0.34361 0.38658 0.76989 0.0
C2920 C 0.3441 0.38591 0.74472 0.0
C2921 C 0.33255 0.36693 0.72781 0.0
C2922 C 0.32054 0.34794 0.7369 0.0
C2923 C 0.31993 0.34822 0.76257 0.0
C2924 C 0.33123 0.3679 0.77926 0.0
H2925 H 0.24607 0.61617 0.26329 0.0
H2926 H 0.22767 0.60938 0.18363 0.0
H2927 H 0.24115 0.65136 0.18536 0.0
H2928 H 0.22741 0.66676 0.27728 0.0
H2929 H 0.2498 0.67915 0.30248 0.0
H2930 H 0.24088 0.64838 0.29487 0.0
H2931 H 0.28212 0.64559 0.28967 0.0
H2932 H 0.29118 0.67635 0.29757 0.0
H2933 H 0.29695 0.66239 0.26894 0.0
H2934 H 0.25072 0.694 0.19665 0.0
H2935 H 0.26141 0.73449 0.21623 0.0
H2936 H 0.27647 0.71327 0.28763 0.0
C2937 C 0.24536 0.62341 0.2461 0.0
C2938 C 0.23593 0.6096 0.22329 0.0
C2939 C 0.23506 0.61969 0.20125 0.0
C2940 C 0.24254 0.64347 0.20207 0.0
C2941 C 0.25102 0.65667 0.22501 0.0
C2942 C 0.25282 0.64698 0.24658 0.0
C2943 C 0.26154 0.66504 0.26899 0.0
C2944 C 0.24386 0.6648 0.28695 0.0
C2945 C 0.28431 0.66217 0.28205 0.0
C2946 C 0.26438 0.68643 0.25661 0.0
C2947 C 0.25787 0.68125 0.2313 0.0
C2948 C 0.25669 0.69825 0.21628 0.0
C2949 C 0.26288 0.72116 0.22743 0.0
C2950 C 0.27081 0.72671 0.25292 0.0
C2951 C 0.27127 0.70923 0.26781 0.0
H2952 H 0.50032 0.6756 0.44378 0.0
H2953 H 0.53037 0.72519 0.50869 0.0
H2954 H 0.53902 0.69341 0.53077 0.0
H2955 H 0.475 0.62945 0.47753 0.0
H2956 H 0.4801 0.60715 0.45549 0.0
H2957 H 0.47577 0.63375 0.44566 0.0
H2958 H 0.5141 0.63861 0.42835 0.0
H2959 H 0.51841 0.61219 0.43874 0.0
H2960 H 0.53955 0.63846 0.44865 0.0
H2961 H 0.54368 0.65499 0.54635 0.0
H2962 H 0.54513 0.61553 0.55332 0.0
H2963 H 0.51425 0.59012 0.47759 0.0
C2964 C 0.5087 0.67994 0.4627 0.0
C2965 C 0.51455 0.7034 0.47432 0.0
C2966 C 0.5255 0.70774 0.49916 0.0
C2967 C 0.53053 0.68962 0.51189 0.0
C2968 C 0.52455 0.66685 0.49981 0.0
C2969 C 0.51382 0.66201 0.4757 0.0
C2970 C 0.50913 0.63607 0.46687 0.0
C2971 C 0.48347 0.62603 0.46105 0.0
C2972 C 0.52101 0.63105 0.44431 0.0
C2973 C 0.51941 0.62698 0.48946 0.0
C2974 C 0.5279 0.64506 0.50838 0.0
C2975 C 0.53736 0.64096 0.53138 0.0
C2976 C 0.53837 0.61821 0.53511 0.0
C2977 C 0.53071 0.59922 0.51593 0.0
C2978 C 0.52077 0.60395 0.49274 0.0
H2979 H 0.62831 0.26484 0.68485 0.0
H2980 H 0.6487 0.32539 0.64941 0.0
H2981 H 0.68777 0.33104 0.67116 0.0
H2982 H 0.66334 0.28711 0.74442 0.0
H2983 H 0.66998 0.25984 0.74913 0.0
H2984 H 0.64356 0.26068 0.7311 0.0
H2985 H 0.6533 0.23509 0.69442 0.0
H2986 H 0.67977 0.23431 0.71236 0.0
H2987 H 0.67962 0.24415 0.68256 0.0
H2988 H 0.72532 0.32927 0.69572 0.0
H2989 H 0.75762 0.32139 0.72217 0.0
H2990 H 0.71319 0.26254 0.74309 0.0
C2991 C 0.64093 0.27938 0.68168 0.0
C2992 C 0.63519 0.29468 0.66521 0.0
C2993 C 0.65243 0.31343 0.66181 0.0
C2994 C 0.67476 0.31675 0.67412 0.0
C2995 C 0.67981 0.30129 0.69002 0.0
C2996 C 0.66333 0.28304 0.69397 0.0
C2997 C 0.67327 0.2689 0.71202 0.0
C2998 C 0.66185 0.26915 0.73556 0.0
C2999 C 0.67137 0.24415 0.6996 0.0
C3000 C 0.6979 0.282 0.71759 0.0
C3001 C 0.7013 0.30056 0.70457 0.0
C3002 C 0.72272 0.31487 0.70608 0.0
C3003 C 0.74106 0.31018 0.72118 0.0
C3004 C 0.73811 0.2914 0.73496 0.0
C3005 C 0.71607 0.27719 0.73311 0.0
H3006 H 0.99285 0.35715 0.00726 0.0
H3007 H 0.04357 0.3489 0.95959 0.0
H3008 H 0.05535 0.39112 0.9623 0.0
H3009 H 0.9764 0.40591 0.98464 0.0
H3010 H 0.97386 0.41964 0.01478 0.0
H3011 H 0.96985 0.3889 0.009 0.0
H3012 H 1.00083 0.39146 0.04657 0.0
H3013 H 1.00486 0.42234 0.05142 0.0
H3014 H 0.02861 0.40936 0.04713 0.0
H3015 H 0.06054 0.43428 0.96817 0.0
H3016 H 0.0611 0.47521 0.9792 0.0
H3017 H 1.00811 0.45749 0.02473 0.0
C3018 C 1.00663 0.36421 0.99761 0.0
C3019 C 0.01725 0.34932 0.98316 0.0
C3020 C 0.03521 0.35958 0.97093 0.0
C3021 C 0.04196 0.38368 0.97226 0.0
C3022 C 0.03095 0.39774 0.98626 0.0
C3023 C 0.01394 0.38845 0.99913 0.0
C3024 C 1.00524 0.40767 0.01316 0.0
C3025 C 0.97982 0.40538 0.00485 0.0
C3026 C 1.01018 0.4077 0.04124 0.0
C3027 C 0.01943 0.42917 0.00542 0.0
C3028 C 0.03422 0.42286 0.99 0.0
C3029 C 0.04913 0.43933 0.98038 0.0
C3030 C 0.0493 0.46274 0.98685 0.0
C3031 C 0.03466 0.47007 0.00293 0.0
C3032 C 0.01934 0.45278 0.01217 0.0
H3033 H 0.01539 0.83086 0.17737 0.0
H3034 H 1.00694 0.76302 0.13576 0.0
H3035 H 0.97154 0.7499 0.15324 0.0
H3036 H 0.99742 0.81211 0.23203 0.0
H3037 H 0.98333 0.83529 0.23878 0.0
H3038 H 1.00689 0.83943 0.22154 0.0
H3039 H 0.98177 0.85151 0.18613 0.0
H3040 H 0.95803 0.84709 0.20321 0.0
H3041 H 0.9554 0.8323 0.17224 0.0
H3042 H 0.93692 0.74411 0.17659 0.0
H3043 H 0.90935 0.74536 0.2065 0.0
H3044 H 0.94169 0.81651 0.23336 0.0
C3045 C 1.00606 0.81328 0.17174 0.0
C3046 C 0.01399 0.79803 0.15505 0.0
C3047 C 1.00127 0.77507 0.14848 0.0
C3048 C 0.98105 0.76749 0.15822 0.0
C3049 C 0.97371 0.78303 0.17459 0.0
C3050 C 0.98599 0.8054 0.18141 0.0
C3051 C 0.97528 0.81843 0.20033 0.0
C3052 C 0.99171 0.8268 0.2246 0.0
C3053 C 0.96714 0.83852 0.18985 0.0
C3054 C 0.9554 0.7998 0.20365 0.0
C3055 C 0.9544 0.77958 0.1883 0.0
C3056 C 0.93758 0.7599 0.18859 0.0
C3057 C 0.9219 0.76077 0.20549 0.0
C3058 C 0.92341 0.78105 0.22207 0.0
C3059 C 0.94011 0.80085 0.22073 0.0
H3060 H 0.53403 0.34259 0.1949 0.0
H3061 H 0.53184 0.28719 0.13599 0.0
H3062 H 0.53651 0.31537 0.10627 0.0
H3063 H 0.5039 0.37684 0.15753 0.0
H3064 H 0.52116 0.40371 0.1735 0.0
H3065 H 0.51585 0.37894 0.18949 0.0
H3066 H 0.55917 0.38274 0.20082 0.0
H3067 H 0.56455 0.40752 0.18497 0.0
H3068 H 0.57676 0.38328 0.17654 0.0
H3069 H 0.54287 0.3505 0.08321 0.0
H3070 H 0.55301 0.38912 0.07006 0.0
H3071 H 0.55196 0.42088 0.1446 0.0
C3072 C 0.5343 0.33626 0.17572 0.0
C3073 C 0.53248 0.3126 0.16781 0.0
C3074 C 0.53312 0.3052 0.14252 0.0
C3075 C 0.5357 0.32108 0.12548 0.0
C3076 C 0.53756 0.34432 0.13398 0.0
C3077 C 0.53692 0.35184 0.15855 0.0
C3078 C 0.54037 0.37776 0.1634 0.0
C3079 C 0.51905 0.38472 0.17146 0.0
C3080 C 0.56147 0.38844 0.18256 0.0
C3081 C 0.54384 0.38382 0.13793 0.0
C3082 C 0.54168 0.36433 0.12101 0.0
C3083 C 0.5445 0.36583 0.09633 0.0
C3084 C 0.55014 0.38778 0.08898 0.0
C3085 C 0.55328 0.40789 0.10635 0.0
C3086 C 0.5497 0.40576 0.13098 0.0
H3087 H 0.96731 0.33671 0.35429 0.0
H3088 H 0.98509 0.28612 0.30172 0.0
H3089 H 0.94468 0.27428 0.28254 0.0
H3090 H 0.9134 0.30219 0.36247 0.0
H3091 H 0.89976 0.32616 0.36531 0.0
H3092 H 0.92989 0.33065 0.37454 0.0
H3093 H 0.93774 0.36107 0.34441 0.0
H3094 H 0.90753 0.35714 0.33722 0.0
H3095 H 0.92443 0.35375 0.31265 0.0
H3096 H 0.90086 0.26707 0.26995 0.0
H3097 H 0.8598 0.26626 0.26421 0.0
H3098 H 0.87057 0.32263 0.32412 0.0
C3099 C 0.9629 0.32319 0.33862 0.0
C3100 C 0.97989 0.3125 0.32958 0.0
C3101 C 0.97282 0.2948 0.30908 0.0
C3102 C 0.94974 0.28791 0.29807 0.0
C3103 C 0.93358 0.29882 0.30757 0.0
C3104 C 0.93998 0.31618 0.3274 0.0
C3105 C 0.91945 0.32513 0.33441 0.0
C3106 C 0.91539 0.32077 0.36075 0.0
C3107 C 0.92247 0.3508 0.33197 0.0
C3108 C 0.90036 0.31043 0.31521 0.0
C3109 C 0.90883 0.29512 0.30009 0.0
C3110 C 0.89429 0.27915 0.28165 0.0
C3111 C 0.87081 0.27878 0.27855 0.0
C3112 C 0.86159 0.29443 0.29349 0.0
C3113 C 0.87685 0.31055 0.31207 0.0
H3114 H 0.99389 0.68152 0.62226 0.0
H3115 H 0.05104 0.69296 0.68071 0.0
H3116 H 0.06267 0.65886 0.6613 0.0
H3117 H 0.98169 0.61883 0.6167 0.0
H3118 H 0.97378 0.61469 0.58362 0.0
H3119 H 0.96964 0.6399 0.6021 0.0
H3120 H 0.99354 0.66594 0.57568 0.0
H3121 H 0.99752 0.64071 0.55716 0.0
H3122 H 0.02179 0.66246 0.5721 0.0
H3123 H 0.06843 0.62327 0.63529 0.0
H3124 H 0.06759 0.58929 0.60475 0.0
H3125 H 1.00704 0.60055 0.56289 0.0
C3126 C 1.00883 0.67686 0.63105 0.0
C3127 C 0.02148 0.69011 0.65319 0.0
C3128 C 0.04091 0.6832 0.66393 0.0
C3129 C 0.04772 0.6638 0.65297 0.0
C3130 C 0.03493 0.65121 0.63121 0.0
C3131 C 0.01583 0.6574 0.62038 0.0
C3132 C 1.00499 0.64073 0.59707 0.0
C3133 C 0.98111 0.62778 0.60006 0.0
C3134 C 1.00444 0.65322 0.57415 0.0
C3135 C 0.02123 0.62456 0.59618 0.0
C3136 C 0.03827 0.63079 0.61621 0.0
C3137 C 0.0551 0.61826 0.61963 0.0
C3138 C 0.05444 0.59891 0.60228 0.0
C3139 C 0.03716 0.59219 0.58166 0.0
C3140 C 0.02045 0.60533 0.57851 0.0
H3141 H 0.6168 0.77517 0.80823 0.0
H3142 H 0.62789 0.84415 0.84766 0.0
H3143 H 0.66844 0.85086 0.84158 0.0
H3144 H 0.66915 0.76283 0.8311 0.0
H3145 H 0.67352 0.7476 0.80264 0.0
H3146 H 0.64514 0.7479 0.80872 0.0
H3147 H 0.63617 0.76405 0.76852 0.0
H3148 H 0.66425 0.76449 0.76097 0.0
H3149 H 0.65376 0.79041 0.76264 0.0
H3150 H 0.70994 0.84864 0.83293 0.0
H3151 H 0.74498 0.83919 0.81997 0.0
H3152 H 0.7062 0.77269 0.78388 0.0
C3153 C 0.62762 0.79183 0.81546 0.0
C3154 C 0.61866 0.80913 0.82849 0.0
C3155 C 0.63386 0.83059 0.83747 0.0
C3156 C 0.65713 0.83451 0.83419 0.0
C3157 C 0.66535 0.81697 0.82151 0.0
C3158 C 0.65082 0.79616 0.81198 0.0
C3159 C 0.66357 0.78019 0.79866 0.0
C3160 C 0.66277 0.75833 0.81099 0.0
C3161 C 0.65383 0.77441 0.77107 0.0
C3162 C 0.68766 0.79494 0.80231 0.0
C3163 C 0.68845 0.81608 0.81575 0.0
C3164 C 0.70915 0.83215 0.82218 0.0
C3165 C 0.72919 0.82656 0.81472 0.0
C3166 C 0.72893 0.80513 0.80049 0.0
C3167 C 0.70752 0.78929 0.79427 0.0
H3168 H 0.45554 0.53155 0.68994 0.0
H3169 H 0.50329 0.49513 0.72354 0.0
H3170 H 0.52375 0.49754 0.68768 0.0
H3171 H 0.45306 0.50524 0.62695 0.0
H3172 H 0.4521 0.53108 0.61339 0.0
H3173 H 0.44087 0.52717 0.64193 0.0
H3174 H 0.46712 0.56575 0.66302 0.0
H3175 H 0.4784 0.56974 0.6345 0.0
H3176 H 0.49726 0.57022 0.66244 0.0
H3177 H 0.53938 0.50357 0.6495 0.0
H3178 H 0.54957 0.51239 0.60939 0.0
H3179 H 0.49189 0.54432 0.59779 0.0
C3180 C 0.47032 0.52413 0.68972 0.0
C3181 C 0.47778 0.5131 0.70968 0.0
C3182 C 0.49719 0.50363 0.70862 0.0
C3183 C 0.50898 0.50491 0.68829 0.0
C3184 C 0.50123 0.51575 0.669 0.0
C3185 C 0.48241 0.52523 0.66936 0.0
C3186 C 0.47797 0.5358 0.64581 0.0
C3187 C 0.45461 0.52411 0.63116 0.0
C3188 C 0.48033 0.56193 0.65181 0.0
C3189 C 0.49704 0.53035 0.63217 0.0
C3190 C 0.51027 0.51898 0.6462 0.0
C3191 C 0.52914 0.5124 0.63826 0.0
C3192 C 0.53476 0.51754 0.61534 0.0
C3193 C 0.52146 0.52894 0.60022 0.0
C3194 C 0.50227 0.53542 0.60879 0.0
H3195 H 0.75222 0.17471 0.01056 0.0
H3196 H 0.80651 0.14355 0.98897 0.0
H3197 H 0.80838 0.16516 0.95303 0.0
H3198 H 0.72241 0.17068 0.95583 0.0
H3199 H 0.71445 0.19809 0.95953 0.0
H3200 H 0.72113 0.18482 0.98624 0.0
H3201 H 0.75199 0.22111 0.00521 0.0
H3202 H 0.74517 0.23477 0.9786 0.0
H3203 H 0.7739 0.23229 0.98756 0.0
H3204 H 0.79868 0.18369 0.91571 0.0
H3205 H 0.77935 0.19853 0.88093 0.0
H3206 H 0.73196 0.21807 0.92795 0.0
C3207 C 0.76491 0.173 0.99858 0.0
C3208 C 0.77909 0.15751 0.00206 0.0
C3209 C 0.7956 0.15552 0.98637 0.0
C3210 C 0.79681 0.16777 0.96609 0.0
C3211 C 0.78186 0.18233 0.9625 0.0
C3212 C 0.76658 0.18539 0.97871 0.0
C3213 C 0.75082 0.20007 0.96963 0.0
C3214 C 0.72574 0.18765 0.96768 0.0
C3215 C 0.75577 0.22345 0.98623 0.0
C3216 C 0.75793 0.20274 0.94455 0.0
C3217 C 0.77639 0.19315 0.94107 0.0
C3218 C 0.78462 0.19175 0.91844 0.0
C3219 C 0.77348 0.20007 0.8988 0.0
C3220 C 0.75413 0.2092 0.90192 0.0
C3221 C 0.74666 0.21102 0.92519 0.0
H3222 H 0.13698 0.58358 0.18701 0.0
H3223 H 0.16563 0.52364 0.17172 0.0
H3224 H 0.14537 0.51621 0.12931 0.0
H3225 H 0.08307 0.55857 0.15647 0.0
H3226 H 0.07783 0.58403 0.14444 0.0
H3227 H 0.09716 0.58669 0.17244 0.0
H3228 H 0.12865 0.61181 0.15298 0.0
H3229 H 0.1094 0.60896 0.12473 0.0
H3230 H 0.13622 0.60075 0.12396 0.0
H3231 H 0.11984 0.51286 0.09055 0.0
H3232 H 0.08751 0.51207 0.05864 0.0
H3233 H 0.07492 0.57361 0.09869 0.0
C3234 C 0.13923 0.56912 0.17459 0.0
C3235 C 0.15287 0.55426 0.18256 0.0
C3236 C 0.15518 0.53526 0.16598 0.0
C3237 C 0.14397 0.53101 0.14177 0.0
C3238 C 0.13061 0.54595 0.13447 0.0
C3239 C 0.12803 0.56453 0.15037 0.0
C3240 C 0.11075 0.57641 0.13865 0.0
C3241 C 0.09104 0.5764 0.1539 0.0
C3242 C 0.12193 0.60094 0.13486 0.0
C3243 C 0.10331 0.56092 0.11419 0.0
C3244 C 0.11547 0.54386 0.11189 0.0
C3245 C 0.11059 0.52646 0.09175 0.0
C3246 C 0.09242 0.52623 0.07367 0.0
C3247 C 0.07959 0.54324 0.07609 0.0
C3248 C 0.08511 0.56087 0.09636 0.0
H3249 H 0.81923 0.82663 0.47284 0.0
H3250 H 0.79252 0.88844 0.47147 0.0
H3251 H 0.78778 0.8825 0.42608 0.0
H3252 H 0.8497 0.83282 0.42009 0.0
H3253 H 0.84236 0.80252 0.40852 0.0
H3254 H 0.84439 0.81197 0.44114 0.0
H3255 H 0.8033 0.78855 0.44033 0.0
H3256 H 0.80148 0.77947 0.40763 0.0
H3257 H 0.78067 0.79383 0.41909 0.0
H3258 H 0.78762 0.87172 0.38163 0.0
H3259 H 0.78692 0.85369 0.33923 0.0
H3260 H 0.811 0.79671 0.36715 0.0
C3261 C 0.81232 0.83885 0.46295 0.0
C3262 C 0.80633 0.85808 0.47587 0.0
C3263 C 0.7972 0.87356 0.46218 0.0
C3264 C 0.79455 0.87042 0.43631 0.0
C3265 C 0.80087 0.85157 0.4242 0.0
C3266 C 0.80921 0.83578 0.4369 0.0
C3267 C 0.8138 0.81656 0.4189 0.0
C3268 C 0.83908 0.81596 0.42239 0.0
C3269 C 0.79892 0.79322 0.42165 0.0
C3270 C 0.8068 0.82417 0.39421 0.0
C3271 C 0.79972 0.84461 0.39796 0.0
C3272 C 0.79281 0.85554 0.37842 0.0
C3273 C 0.79242 0.84505 0.35432 0.0
C3274 C 0.79835 0.82345 0.34969 0.0
C3275 C 0.80621 0.81313 0.37001 0.0
H3276 H 0.45869 0.48413 0.85155 0.0
H3277 H 0.48548 0.55048 0.82954 0.0
H3278 H 0.5081 0.56308 0.87095 0.0
H3279 H 0.45328 0.50402 0.91346 0.0
H3280 H 0.46218 0.48033 0.92616 0.0
H3281 H 0.4486 0.47638 0.89462 0.0
H3282 H 0.48307 0.46253 0.879 0.0
H3283 H 0.49578 0.46567 0.91068 0.0
H3284 H 0.5112 0.48011 0.8888 0.0
H3285 H 0.52679 0.56879 0.91526 0.0
H3286 H 0.54133 0.56688 0.95853 0.0
H3287 H 0.50205 0.49682 0.95175 0.0
C3288 C 0.46939 0.50128 0.85535 0.0
C3289 C 0.47031 0.51631 0.83725 0.0
C3290 C 0.48458 0.5386 0.84303 0.0
C3291 C 0.49744 0.54594 0.86653 0.0
C3292 C 0.49594 0.53074 0.884 0.0
C3293 C 0.48238 0.50884 0.87864 0.0
C3294 C 0.48389 0.49579 0.9006 0.0
C3295 C 0.4606 0.48873 0.90921 0.0
C3296 C 0.49412 0.47479 0.89438 0.0
C3297 C 0.49999 0.51396 0.91944 0.0
C3298 C 0.50684 0.53394 0.90942 0.0
C3299 C 0.52162 0.55319 0.92324 0.0
C3300 C 0.52974 0.55193 0.94787 0.0
C3301 C 0.52297 0.53162 0.95858 0.0
C3302 C 0.50777 0.51247 0.9441 0.0
H3303 H 0.79545 0.17444 0.13417 0.0
H3304 H 0.74202 0.19389 0.0873 0.0
H3305 H 0.74035 0.22466 0.12048 0.0
H3306 H 0.77312 0.18367 0.19109 0.0
H3307 H 0.80066 0.19464 0.20913 0.0
H3308 H 0.79751 0.17417 0.18167 0.0
H3309 H 0.828 0.20252 0.16415 0.0
H3310 H 0.83114 0.22305 0.19156 0.0
H3311 H 0.82431 0.23128 0.16154 0.0
H3312 H 0.74413 0.25274 0.15917 0.0
H3313 H 0.75348 0.27623 0.20057 0.0
H3314 H 0.80511 0.2385 0.22044 0.0
C3315 C 0.7834 0.18516 0.13082 0.0
C3316 C 0.76888 0.18186 0.10823 0.0
C3317 C 0.75333 0.19621 0.10454 0.0
C3318 C 0.75224 0.21369 0.12323 0.0
C3319 C 0.76685 0.21649 0.1453 0.0
C3320 C 0.78213 0.20263 0.14915 0.0
C3321 C 0.79593 0.20908 0.17449 0.0
C3322 C 0.79153 0.18921 0.19 0.0
C3323 C 0.82135 0.21696 0.17282 0.0
C3324 C 0.78612 0.22884 0.18423 0.0
C3325 C 0.76928 0.23282 0.16727 0.0
C3326 C 0.75738 0.24989 0.17258 0.0
C3327 C 0.76283 0.26314 0.196 0.0
C3328 C 0.78002 0.25915 0.21351 0.0
C3329 C 0.79191 0.24197 0.20738 0.0
H3330 H 0.15363 0.54337 0.30468 0.0
H3331 H 0.20715 0.60391 0.33221 0.0
H3332 H 0.18936 0.61001 0.36974 0.0
H3333 H 0.10908 0.5653 0.32242 0.0
H3334 H 0.09378 0.5393 0.33167 0.0
H3335 H 0.11236 0.53761 0.3087 0.0
H3336 H 0.13431 0.51379 0.33503 0.0
H3337 H 0.11575 0.51551 0.35817 0.0
H3338 H 0.146 0.52513 0.3667 0.0
H3339 H 0.16482 0.6114 0.40245 0.0
H3340 H 0.1328 0.60994 0.42664 0.0
H3341 H 0.09451 0.54965 0.37719 0.0
C3342 C 0.1618 0.5577 0.31878 0.0
C3343 C 0.18184 0.57309 0.31565 0.0
C3344 C 0.19189 0.59179 0.33435 0.0
C3345 C 0.18201 0.59533 0.35579 0.0
C3346 C 0.16223 0.5799 0.35828 0.0
C3347 C 0.15218 0.56146 0.34031 0.0
C3348 C 0.12993 0.54859 0.34662 0.0
C3349 C 0.11013 0.54768 0.32614 0.0
C3350 C 0.1316 0.52432 0.35194 0.0
C3351 C 0.12832 0.56371 0.37001 0.0
C3352 C 0.14754 0.58113 0.3769 0.0
C3353 C 0.14977 0.59773 0.39743 0.0
C3354 C 0.13161 0.59681 0.41098 0.0
C3355 C 0.11147 0.57977 0.40347 0.0
C3356 C 0.1099 0.56278 0.38309 0.0
H3357 H 0.79655 0.87621 0.62409 0.0
H3358 H 0.80273 0.81368 0.57972 0.0
H3359 H 0.80239 0.79398 0.61662 0.0
H3360 H 0.83116 0.86937 0.68073 0.0
H3361 H 0.81327 0.87988 0.70117 0.0
H3362 H 0.8152 0.89007 0.67169 0.0
H3363 H 0.77155 0.87739 0.66029 0.0
H3364 H 0.76954 0.86722 0.68974 0.0
H3365 H 0.75768 0.84803 0.66153 0.0
H3366 H 0.80149 0.78087 0.65689 0.0
H3367 H 0.79789 0.77344 0.69903 0.0
H3368 H 0.79002 0.84338 0.7192 0.0
C3369 C 0.79798 0.85841 0.62226 0.0
C3370 C 0.79974 0.84644 0.59899 0.0
C3371 C 0.8013 0.82314 0.59725 0.0
C3372 C 0.80122 0.81183 0.61814 0.0
C3373 C 0.79935 0.82397 0.64067 0.0
C3374 C 0.7976 0.84667 0.64301 0.0
C3375 C 0.79478 0.8551 0.66946 0.0
C3376 C 0.8148 0.87478 0.68146 0.0
C3377 C 0.77203 0.86236 0.67029 0.0
C3378 C 0.79506 0.83348 0.68142 0.0
C3379 C 0.79801 0.81596 0.66433 0.0
C3380 C 0.79909 0.79439 0.67045 0.0
C3381 C 0.79697 0.7904 0.69464 0.0
C3382 C 0.79354 0.80779 0.71273 0.0
C3383 C 0.79261 0.82972 0.70593 0.0
H3384 H 0.76047 0.50141 0.50772 0.0
H3385 H 0.72169 0.44737 0.45051 0.0
H3386 H 0.68645 0.45866 0.4598 0.0
H3387 H 0.7278 0.48884 0.54969 0.0
H3388 H 0.72987 0.51761 0.56482 0.0
H3389 H 0.75228 0.51128 0.54862 0.0
H3390 H 0.74833 0.5432 0.52141 0.0
H3391 H 0.72611 0.55008 0.53794 0.0
H3392 H 0.72107 0.54328 0.5047 0.0
H3393 H 0.65561 0.46914 0.48172 0.0
H3394 H 0.63202 0.47924 0.51353 0.0
H3395 H 0.69137 0.52409 0.55774 0.0
C3396 C 0.74469 0.49261 0.49633 0.0
C3397 C 0.74373 0.4735 0.47846 0.0
C3398 C 0.72276 0.46218 0.4642 0.0
C3399 C 0.70267 0.46848 0.46935 0.0
C3400 C 0.70404 0.48619 0.48861 0.0
C3401 C 0.72462 0.49832 0.50166 0.0
C3402 C 0.72163 0.51348 0.52435 0.0
C3403 C 0.73359 0.50741 0.54824 0.0
C3404 C 0.72975 0.53903 0.52194 0.0
C3405 C 0.69624 0.50693 0.52289 0.0
C3406 C 0.68626 0.49167 0.50185 0.0
C3407 C 0.66314 0.48148 0.49793 0.0
C3408 C 0.64998 0.48703 0.51607 0.0
C3409 C 0.66027 0.50212 0.5378 0.0
C3410 C 0.68343 0.51246 0.54108 0.0
H3411 H 0.17771 0.14862 0.48414 0.0
H3412 H 0.22561 0.122 0.53133 0.0
H3413 H 0.19406 0.09408 0.5425 0.0
H3414 H 0.13431 0.14378 0.52288 0.0
H3415 H 0.11116 0.13482 0.49783 0.0
H3416 H 0.13748 0.15266 0.49297 0.0
H3417 H 0.14055 0.12254 0.45642 0.0
H3418 H 0.11414 0.10476 0.46113 0.0
H3419 H 0.1392 0.0931 0.46135 0.0
H3420 H 0.15755 0.07236 0.55233 0.0
H3421 H 0.11824 0.05392 0.55558 0.0
H3422 H 0.09393 0.09084 0.49823 0.0
C3423 C 0.18155 0.13674 0.4966 0.0
C3424 C 0.20412 0.1375 0.50685 0.0
C3425 C 0.20848 0.12167 0.52311 0.0
C3426 C 0.19067 0.10581 0.52969 0.0
C3427 C 0.16864 0.10574 0.51956 0.0
C3428 C 0.16398 0.12046 0.50304 0.0
C3429 C 0.13869 0.11659 0.49479 0.0
C3430 C 0.1299 0.13825 0.50258 0.0
C3431 C 0.13281 0.10877 0.46675 0.0
C3432 C 0.12998 0.0974 0.50926 0.0
C3433 C 0.14753 0.09175 0.52378 0.0
C3434 C 0.14368 0.07601 0.54041 0.0
C3435 C 0.12126 0.06543 0.54191 0.0
C3436 C 0.10299 0.06995 0.52622 0.0
C3437 C 0.10752 0.08638 0.50987 0.0
H3438 H 0.19105 0.99443 0.82726 0.0
H3439 H 0.1595 0.9993 0.7536 0.0
H3440 H 0.17648 0.96838 0.73613 0.0
H3441 H 0.24277 0.98711 0.80995 0.0
H3442 H 0.24744 0.96705 0.83102 0.0
H3443 H 0.23057 0.9876 0.83835 0.0
H3444 H 0.19723 0.9544 0.84294 0.0
H3445 H 0.21405 0.93374 0.83555 0.0
H3446 H 0.18666 0.93128 0.81775 0.0
H3447 H 0.19978 0.94049 0.72586 0.0
H3448 H 0.22878 0.91705 0.7237 0.0
H3449 H 0.24479 0.92924 0.80362 0.0
C3450 C 0.18739 0.98866 0.80754 0.0
C3451 C 0.17396 0.99924 0.79181 0.0
C3452 C 0.16982 0.9915 0.76602 0.0
C3453 C 0.17924 0.97383 0.7559 0.0
C3454 C 0.19268 0.964 0.77181 0.0
C3455 C 0.19676 0.97105 0.79707 0.0
C3456 C 0.21338 0.95888 0.80969 0.0
C3457 C 0.23481 0.9762 0.82303 0.0
C3458 C 0.20215 0.94367 0.82754 0.0
C3459 C 0.21847 0.9445 0.78747 0.0
C3460 C 0.20615 0.94755 0.76583 0.0
C3461 C 0.20929 0.93763 0.74267 0.0
C3462 C 0.22579 0.92452 0.74158 0.0
C3463 C 0.23872 0.92151 0.76349 0.0
C3464 C 0.23474 0.93117 0.78671 0.0
H3465 H 0.37887 1.00556 0.05238 0.0
H3466 H 0.36084 0.97739 0.97449 0.0
H3467 H 0.40105 0.98083 0.97052 0.0
H3468 H 0.4278 0.04781 0.04352 0.0
H3469 H 0.44422 0.04551 0.07223 0.0
H3470 H 0.41376 0.03979 0.06942 0.0
H3471 H 0.41364 0.99957 0.08278 0.0
H3472 H 0.4441 1.00514 0.08504 0.0
H3473 H 0.42696 0.97999 0.06551 0.0
H3474 H 0.44216 0.9858 0.97459 0.0
H3475 H 0.48361 0.99964 0.98478 0.0
H3476 H 0.47594 0.02729 0.05886 0.0
C3477 C 0.38345 1.00036 0.03448 0.0
C3478 C 0.36676 0.99116 0.01381 0.0
C3479 C 0.37333 0.98463 0.99059 0.0
C3480 C 0.39611 0.9862 0.98817 0.0
C3481 C 0.41207 0.99467 0.00902 0.0
C3482 C 0.40622 1.00224 0.03158 0.0
C3483 C 0.42707 0.01236 0.05044 0.0
C3484 C 0.42828 0.03788 0.05942 0.0
C3485 C 0.42798 0.99842 0.07223 0.0
C3486 C 0.44539 0.00945 0.03475 0.0
C3487 C 0.43626 0.99863 0.01112 0.0
C3488 C 0.44958 0.99432 0.99298 0.0
C3489 C 0.47297 1.00216 0.99887 0.0
C3490 C 0.48244 0.0144 0.02244 0.0
C3491 C 0.46875 0.01769 0.04083 0.0
H3492 H 0.87688 0.59279 0.79413 0.0
H3493 H 0.84745 0.5991 0.86218 0.0
H3494 H 0.83139 0.63126 0.84842 0.0
H3495 H 0.8894 0.65374 0.7854 0.0
H3496 H 0.88123 0.64649 0.75241 0.0
H3497 H 0.89337 0.62708 0.76971 0.0
H3498 H 0.85834 0.59425 0.75221 0.0
H3499 H 0.84598 0.61351 0.73508 0.0
H3500 H 0.83041 0.59834 0.75643 0.0
H3501 H 0.81317 0.65731 0.82339 0.0
H3502 H 0.79608 0.67619 0.79095 0.0
H3503 H 0.84005 0.65371 0.74085 0.0
C3504 C 0.8675 0.60123 0.80651 0.0
C3505 C 0.86323 0.59353 0.82915 0.0
C3506 C 0.85091 0.60495 0.84479 0.0
C3507 C 0.84178 0.62314 0.83711 0.0
C3508 C 0.84555 0.62963 0.81405 0.0
C3509 C 0.85839 0.61912 0.79917 0.0
C3510 C 0.85812 0.62719 0.77419 0.0
C3511 C 0.88195 0.63936 0.77022 0.0
C3512 C 0.84759 0.60714 0.75327 0.0
C3513 C 0.84286 0.64379 0.77705 0.0
C3514 C 0.83567 0.64501 0.80006 0.0
C3515 C 0.81922 0.65706 0.80561 0.0
C3516 C 0.80971 0.66783 0.78703 0.0
C3517 C 0.81688 0.66661 0.76328 0.0
C3518 C 0.83411 0.65494 0.75867 0.0
H3519 H 0.8313 0.63217 0.98566 0.0
H3520 H 0.83054 0.66646 0.05945 0.0
H3521 H 0.86267 0.65052 0.07539 0.0
H3522 H 0.84152 0.58105 0.00355 0.0
H3523 H 0.85992 0.57631 0.98094 0.0
H3524 H 0.83865 0.59257 0.97472 0.0
H3525 H 0.86967 0.62674 0.96714 0.0
H3526 H 0.89106 0.61054 0.97346 0.0
H3527 H 0.89365 0.63856 0.99075 0.0
H3528 H 0.89157 0.62758 0.08431 0.0
H3529 H 0.91554 0.5988 0.08527 0.0
H3530 H 0.89851 0.58035 0.00585 0.0
C3531 C 0.83814 0.63667 0.00508 0.0
C3532 C 0.82842 0.65057 0.02129 0.0
C3533 C 0.8377 0.65584 0.04666 0.0
C3534 C 0.85603 0.64697 0.05589 0.0
C3535 C 0.865 0.63306 0.0395 0.0
C3536 C 0.85647 0.628 0.01461 0.0
C3537 C 0.86813 0.61126 0.0013 0.0
C3538 C 0.85103 0.58899 0.98944 0.0
C3539 C 0.88142 0.62245 0.98203 0.0
C3540 C 0.88393 0.60706 0.02278 0.0
C3541 C 0.88205 0.62001 0.04461 0.0
C3542 C 0.89351 0.61765 0.0673 0.0
C3543 C 0.90695 0.6013 0.06773 0.0
C3544 C 0.90873 0.58773 0.04562 0.0
C3545 C 0.89753 0.59093 0.02286 0.0
H3546 H 0.20648 0.11642 0.75841 0.0
H3547 H 0.17627 0.12615 0.8256 0.0
H3548 H 0.19843 0.16615 0.83462 0.0
H3549 H 0.26274 0.151 0.78329 0.0
H3550 H 0.26705 0.16265 0.75494 0.0
H3551 H 0.24932 0.13445 0.75398 0.0
H3552 H 0.21616 0.14708 0.72912 0.0
H3553 H 0.23385 0.17526 0.73005 0.0
H3554 H 0.20698 0.17223 0.74152 0.0
H3555 H 0.22197 0.20561 0.83523 0.0
H3556 H 0.24652 0.24175 0.82795 0.0
H3557 H 0.26261 0.20622 0.7613 0.0
C3558 C 0.20464 0.1269 0.77511 0.0
C3559 C 0.18962 0.1181 0.7913 0.0
C3560 C 0.18769 0.13244 0.81294 0.0
C3561 C 0.2002 0.1552 0.81824 0.0
C3562 C 0.21471 0.16336 0.80183 0.0
C3563 C 0.21712 0.14966 0.78078 0.0
C3564 C 0.23367 0.16284 0.76606 0.0
C3565 C 0.25442 0.15209 0.76448 0.0
C3566 C 0.22196 0.16444 0.74016 0.0
C3567 C 0.24002 0.18609 0.78206 0.0
C3568 C 0.22882 0.18604 0.80255 0.0
C3569 C 0.23105 0.2058 0.81942 0.0
C3570 C 0.245 0.22623 0.81513 0.0
C3571 C 0.25665 0.22665 0.79428 0.0
C3572 C 0.25429 0.20625 0.7777 0.0
H3573 H 0.3569 0.95005 0.31892 0.0
H3574 H 0.29968 0.96269 0.27184 0.0
H3575 H 0.27916 0.92257 0.27181 0.0
H3576 H 0.35637 0.89695 0.28934 0.0
H3577 H 0.3646 0.8852 0.3169 0.0
H3578 H 0.37251 0.91559 0.3163 0.0
H3579 H 0.35336 0.92217 0.3553 0.0
H3580 H 0.34413 0.89162 0.3554 0.0
H3581 H 0.32375 0.90962 0.35468 0.0
H3582 H 0.26759 0.88052 0.27173 0.0
H3583 H 0.2681 0.83934 0.26702 0.0
H3584 H 0.33215 0.85421 0.31514 0.0
C3585 C 0.33986 0.9446 0.30898 0.0
C3586 C 0.32977 0.95953 0.29555 0.0
C3587 C 0.30762 0.95157 0.28244 0.0
C3588 C 0.29578 0.92891 0.28255 0.0
C3589 C 0.30621 0.91469 0.29616 0.0
C3590 C 0.32784 0.92223 0.30902 0.0
C3591 C 0.33656 0.90294 0.3195 0.0
C3592 C 0.35879 0.89999 0.30991 0.0
C3593 C 0.33962 0.90681 0.34791 0.0
C3594 C 0.31703 0.88296 0.30912 0.0
C3595 C 0.29934 0.8902 0.29643 0.0
C3596 C 0.2809 0.87466 0.28229 0.0
C3597 C 0.28119 0.85127 0.27987 0.0
C3598 C 0.29969 0.8438 0.29164 0.0
C3599 C 0.31733 0.85964 0.30714 0.0
H3600 H 0.58489 0.3714 0.54608 0.0
H3601 H 0.55019 0.36536 0.61049 0.0
H3602 H 0.54026 0.40297 0.6067 0.0
H3603 H 0.60862 0.43244 0.55867 0.0
H3604 H 0.60424 0.43731 0.52688 0.0
H3605 H 0.60818 0.40967 0.53405 0.0
H3606 H 0.57014 0.38988 0.50661 0.0
H3607 H 0.56619 0.4175 0.49936 0.0
H3608 H 0.54465 0.3992 0.51243 0.0
H3609 H 0.533 0.44151 0.59509 0.0
H3610 H 0.53063 0.47748 0.5783 0.0
H3611 H 0.57178 0.46089 0.5225 0.0
C3612 C 0.57516 0.37789 0.55944 0.0
C3613 C 0.56838 0.36491 0.5787 0.0
C3614 C 0.55564 0.37449 0.59557 0.0
C3615 C 0.5499 0.39602 0.59353 0.0
C3616 C 0.55691 0.40825 0.57447 0.0
C3617 C 0.56931 0.39952 0.5577 0.0
C3618 C 0.57475 0.41624 0.53893 0.0
C3619 C 0.60048 0.42439 0.53969 0.0
C3620 C 0.56326 0.40503 0.51278 0.0
C3621 C 0.56415 0.43607 0.54816 0.0
C3622 C 0.55355 0.43081 0.56842 0.0
C3623 C 0.54156 0.44576 0.57947 0.0
C3624 C 0.54038 0.46636 0.56978 0.0
C3625 C 0.55147 0.47269 0.5494 0.0
C3626 C 0.56361 0.45712 0.5385 0.0
H3627 H 0.43219 0.8067 0.41929 0.0
H3628 H 0.4486 0.74351 0.38772 0.0
H3629 H 0.41539 0.7374 0.3552 0.0
H3630 H 0.37033 0.78541 0.40681 0.0
H3631 H 0.36534 0.81288 0.40039 0.0
H3632 H 0.38968 0.81156 0.42169 0.0
H3633 H 0.41589 0.8358 0.39583 0.0
H3634 H 0.39158 0.83706 0.37445 0.0
H3635 H 0.41458 0.82607 0.36332 0.0
H3636 H 0.38046 0.73856 0.32552 0.0
H3637 H 0.34742 0.74715 0.30087 0.0
H3638 H 0.35453 0.81054 0.3503 0.0
C3639 C 0.42875 0.79145 0.40567 0.0
C3640 C 0.44312 0.77553 0.40625 0.0
C3641 C 0.43787 0.75586 0.38794 0.0
C3642 C 0.41902 0.75228 0.36932 0.0
C3643 C 0.40537 0.76841 0.36924 0.0
C3644 C 0.40995 0.78757 0.38702 0.0
C3645 C 0.39275 0.80241 0.38268 0.0
C3646 C 0.37869 0.8031 0.40417 0.0
C3647 C 0.40441 0.82678 0.37883 0.0
C3648 C 0.37826 0.78915 0.35906 0.0
C3649 C 0.38564 0.76937 0.35188 0.0
C3650 C 0.37481 0.75414 0.33087 0.0
C3651 C 0.35624 0.75934 0.31671 0.0
C3652 C 0.34884 0.77985 0.3231 0.0
C3653 C 0.35984 0.79478 0.34484 0.0
H3654 H 0.03446 0.7156 0.05021 0.0
H3655 H 0.09555 0.73704 0.10365 0.0
H3656 H 0.1017 0.69732 0.09802 0.0
H3657 H 0.014 0.66111 0.06565 0.0
H3658 H 1.00497 0.64661 0.03444 0.0
H3659 H 1.00621 0.67694 0.04123 0.0
H3660 H 0.03275 0.68512 0.00814 0.0
H3661 H 0.03138 0.65472 0.00111 0.0
H3662 H 0.05847 0.67452 0.00967 0.0
H3663 H 0.10005 0.65376 0.08781 0.0
H3664 H 0.09106 0.61176 0.07347 0.0
H3665 H 0.03112 0.6184 0.0267 0.0
C3666 C 0.04935 0.71205 0.06045 0.0
C3667 C 0.06459 0.72976 0.07734 0.0
C3668 C 0.08378 0.72411 0.09035 0.0
C3669 C 0.08735 0.70145 0.08735 0.0
C3670 C 0.07185 0.68438 0.07085 0.0
C3671 C 0.05341 0.68955 0.05729 0.0
C3672 C 0.03935 0.66812 0.04063 0.0
C3673 C 0.01467 0.6629 0.04582 0.0
C3674 C 0.04055 0.67078 0.01327 0.0
C3675 C 0.05173 0.64978 0.04821 0.0
C3676 C 0.07081 0.65958 0.06519 0.0
C3677 C 0.08517 0.64608 0.07445 0.0
C3678 C 0.07997 0.62217 0.06617 0.0
C3679 C 0.06034 0.61166 0.04908 0.0
C3680 C 0.04608 0.62581 0.04007 0.0
H3681 H 0.07613 0.30298 0.91558 0.0
H3682 H 0.06598 0.22894 0.89712 0.0
H3683 H 0.09855 0.23436 0.87388 0.0
H3684 H 0.09205 0.31768 0.85775 0.0
H3685 H 0.11334 0.34294 0.87124 0.0
H3686 H 0.08944 0.33336 0.88687 0.0
H3687 H 0.11677 0.33171 0.92609 0.0
H3688 H 0.14074 0.34123 0.91049 0.0
H3689 H 0.13801 0.31485 0.92381 0.0
H3690 H 0.13128 0.24787 0.85048 0.0
H3691 H 0.16113 0.26852 0.82918 0.0
H3692 H 0.15214 0.33352 0.86574 0.0
C3693 C 0.08076 0.2879 0.90667 0.0
C3694 C 0.06831 0.26549 0.90818 0.0
C3695 C 0.07513 0.24628 0.89631 0.0
C3696 C 0.09368 0.24917 0.88304 0.0
C3697 C 0.10558 0.2714 0.88193 0.0
C3698 C 0.09947 0.29046 0.89354 0.0
C3699 C 0.11507 0.31248 0.88933 0.0
C3700 C 0.10167 0.32749 0.87547 0.0
C3701 C 0.12844 0.32585 0.91389 0.0
C3702 C 0.13056 0.30281 0.87324 0.0
C3703 C 0.12484 0.2791 0.86914 0.0
C3704 C 0.13607 0.26646 0.8538 0.0
C3705 C 0.15322 0.27839 0.8419 0.0
C3706 C 0.15914 0.30279 0.84544 0.0
C3707 C 0.14793 0.31492 0.86201 0.0
H3708 H 0.52643 0.75206 0.88945 0.0
H3709 H 0.59211 0.78175 0.93326 0.0
H3710 H 0.58717 0.74952 0.95768 0.0
H3711 H 0.49812 0.73213 0.93891 0.0
H3712 H 0.48168 0.70582 0.92084 0.0
H3713 H 0.49067 0.73071 0.90596 0.0
H3714 H 0.50995 0.70681 0.87617 0.0
H3715 H 0.50109 0.68187 0.89106 0.0
H3716 H 0.53066 0.69199 0.88872 0.0
H3717 H 0.57518 0.71425 0.97786 0.0
H3718 H 0.5558 0.67959 0.99374 0.0
H3719 H 0.49764 0.6728 0.93767 0.0
C3720 C 0.53982 0.75174 0.9041 0.0
C3721 C 0.55973 0.76953 0.9093 0.0
C3722 C 0.57675 0.7684 0.92877 0.0
C3723 C 0.57413 0.75009 0.94277 0.0
C3724 C 0.55439 0.73288 0.93716 0.0
C3725 C 0.53748 0.73353 0.91834 0.0
C3726 C 0.5177 0.71304 0.91661 0.0
C3727 C 0.49575 0.72091 0.92084 0.0
C3728 C 0.51468 0.69751 0.89165 0.0
C3729 C 0.52592 0.70118 0.93777 0.0
C3730 C 0.54729 0.71271 0.94912 0.0
C3731 C 0.55845 0.70506 0.96909 0.0
C3732 C 0.54736 0.68529 0.97792 0.0
C3733 C 0.5252 0.67352 0.96704 0.0
C3734 C 0.5145 0.68154 0.94653 0.0
H3735 H 0.11789 0.78427 0.70892 0.0
H3736 H 0.08795 0.74371 0.76205 0.0
H3737 H 0.12649 0.74259 0.78166 0.0
H3738 H 0.16364 0.75746 0.70055 0.0
H3739 H 0.18413 0.78352 0.69928 0.0
H3740 H 0.15442 0.78189 0.68999 0.0
H3741 H 0.1561 0.81791 0.72152 0.0
H3742 H 0.1859 0.81977 0.73067 0.0
H3743 H 0.16687 0.81829 0.75355 0.0
H3744 H 0.16914 0.74428 0.79419 0.0
H3745 H 0.21087 0.75157 0.80078 0.0
H3746 H 0.21374 0.79171 0.74012 0.0
C3747 C 0.11939 0.77537 0.7249 0.0
C3748 C 0.09958 0.76406 0.73389 0.0
C3749 C 0.10259 0.75271 0.75489 0.0
C3750 C 0.12453 0.75187 0.76605 0.0
C3751 C 0.1436 0.76283 0.75642 0.0
C3752 C 0.14121 0.77479 0.73659 0.0
C3753 C 0.16443 0.78554 0.73007 0.0
C3754 C 0.16678 0.77656 0.70338 0.0
C3755 C 0.16856 0.81195 0.73419 0.0
C3756 C 0.1803 0.77715 0.74872 0.0
C3757 C 0.16792 0.76408 0.76378 0.0
C3758 C 0.17881 0.7544 0.78232 0.0
C3759 C 0.2027 0.75826 0.78568 0.0
C3760 C 0.21595 0.77153 0.77057 0.0
C3761 C 0.20434 0.78126 0.75193 0.0
H3762 H 0.02847 0.36732 0.43789 0.0
H3763 H 0.07744 0.39441 0.39115 0.0
H3764 H 0.08094 0.43356 0.41319 0.0
H3765 H 1.00035 0.41478 0.44028 0.0
H3766 H 0.9957 0.41414 0.47202 0.0
H3767 H 0.99737 0.38813 0.45312 0.0
H3768 H 0.02958 0.38244 0.48536 0.0
H3769 H 0.02797 0.40845 0.50434 0.0
H3770 H 0.05456 0.40522 0.49459 0.0
H3771 H 0.07908 0.4699 0.44018 0.0
H3772 H 0.07179 0.50084 0.46928 0.0
H3773 H 0.02327 0.45096 0.49873 0.0
C3774 C 0.04006 0.38144 0.43232 0.0
C3775 C 0.0528 0.37758 0.41269 0.0
C3776 C 0.06755 0.39673 0.40603 0.0
C3777 C 0.06965 0.41909 0.41851 0.0
C3778 C 0.05685 0.42223 0.43766 0.0
C3779 C 0.04229 0.40394 0.44454 0.0
C3780 C 0.03012 0.41216 0.46545 0.0
C3781 C 1.00436 0.40699 0.45722 0.0
C3782 C 0.03591 0.40142 0.48882 0.0
C3783 C 0.04017 0.43792 0.46935 0.0
C3784 C 0.05556 0.44327 0.45308 0.0
C3785 C 0.06702 0.46585 0.45291 0.0
C3786 C 0.06265 0.48339 0.4696 0.0
C3787 C 0.0468 0.47861 0.48644 0.0
C3788 C 0.03553 0.45537 0.48629 0.0
H3789 H 0.44276 0.22762 0.24986 0.0
H3790 H 0.47246 0.29151 0.22469 0.0
H3791 H 0.43885 0.30677 0.23336 0.0
H3792 H 0.38437 0.22478 0.22617 0.0
H3793 H 0.37326 0.2141 0.25267 0.0
H3794 H 0.39944 0.20801 0.24448 0.0
H3795 H 0.41909 0.22569 0.28872 0.0
H3796 H 0.39267 0.23157 0.29652 0.0
H3797 H 0.4176 0.25456 0.30058 0.0
H3798 H 0.40008 0.31412 0.24177 0.0
H3799 H 0.36233 0.31474 0.25279 0.0
H3800 H 0.35741 0.24767 0.27658 0.0
C3801 C 0.44238 0.24494 0.24635 0.0
C3802 C 0.46076 0.25827 0.23646 0.0
C3803 C 0.45909 0.28084 0.2323 0.0
C3804 C 0.43984 0.28964 0.2371 0.0
C3805 C 0.42208 0.27598 0.24651 0.0
C3806 C 0.42334 0.25421 0.25149 0.0
C3807 C 0.40199 0.24329 0.26203 0.0
C3808 C 0.38902 0.22121 0.24528 0.0
C3809 C 0.40822 0.2385 0.28854 0.0
C3810 C 0.38826 0.26206 0.26179 0.0
C3811 C 0.40027 0.2807 0.2526 0.0
C3812 C 0.39097 0.29977 0.24951 0.0
C3813 C 0.36932 0.30008 0.25622 0.0
C3814 C 0.35668 0.28186 0.26677 0.0
C3815 C 0.36642 0.26227 0.26913 0.0
H3816 H 0.64321 0.56289 0.39229 0.0
H3817 H 0.58792 0.53101 0.33359 0.0
H3818 H 0.56339 0.51953 0.36482 0.0
H3819 H 0.63168 0.52082 0.43385 0.0
H3820 H 0.6385 0.54166 0.46145 0.0
H3821 H 0.65205 0.54746 0.43466 0.0
H3822 H 0.63816 0.5856 0.43465 0.0
H3823 H 0.62469 0.57989 0.46151 0.0
H3824 H 0.60835 0.58495 0.43403 0.0
H3825 H 0.5446 0.5123 0.4021 0.0
H3826 H 0.53256 0.51049 0.44276 0.0
H3827 H 0.60007 0.54518 0.47801 0.0
C3828 C 0.62597 0.55344 0.38598 0.0
C3829 C 0.61752 0.54783 0.36039 0.0
C3830 C 0.5948 0.53554 0.353 0.0
C3831 C 0.58074 0.52889 0.37062 0.0
C3832 C 0.58961 0.53461 0.39561 0.0
C3833 C 0.61166 0.54664 0.40335 0.0
C3834 C 0.61674 0.55095 0.43144 0.0
C3835 C 0.63588 0.53954 0.4409 0.0
C3836 C 0.62232 0.57688 0.44096 0.0
C3837 C 0.59418 0.53921 0.4382 0.0
C3838 C 0.57878 0.53013 0.41722 0.0
C3839 C 0.55656 0.51943 0.41863 0.0
C3840 C 0.54973 0.51857 0.44204 0.0
C3841 C 0.56484 0.5282 0.46398 0.0
C3842 C 0.58772 0.53791 0.46183 0.0
H3843 H 0.2894 0.87302 0.0359 0.0
H3844 H 0.3168 0.94198 0.07501 0.0
H3845 H 0.32653 0.92567 0.11306 0.0
H3846 H 0.26673 0.84745 0.08877 0.0
H3847 H 0.27439 0.82057 0.07956 0.0
H3848 H 0.26688 0.83788 0.05651 0.0
H3849 H 0.3052 0.8381 0.04012 0.0
H3850 H 0.31294 0.82101 0.06317 0.0
H3851 H 0.33129 0.84823 0.06114 0.0
H3852 H 0.33697 0.90172 0.14532 0.0
H3853 H 0.3474 0.87203 0.16922 0.0
H3854 H 0.31265 0.81893 0.10893 0.0
C3855 C 0.29702 0.88474 0.05257 0.0
C3856 C 0.30231 0.90874 0.05252 0.0
C3857 C 0.31254 0.9235 0.07466 0.0
C3858 C 0.31806 0.91441 0.09638 0.0
C3859 C 0.31307 0.8906 0.09562 0.0
C3860 C 0.30264 0.87598 0.07433 0.0
C3861 C 0.30068 0.85105 0.07777 0.0
C3862 C 0.27568 0.8385 0.07553 0.0
C3863 C 0.31329 0.8389 0.05947 0.0
C3864 C 0.31244 0.85391 0.10403 0.0
C3865 C 0.31916 0.87681 0.11417 0.0
C3866 C 0.33148 0.8837 0.13773 0.0
C3867 C 0.3373 0.86672 0.15117 0.0
C3868 C 0.33089 0.84316 0.1409 0.0
C3869 C 0.31799 0.83679 0.11719 0.0
H3870 H 0.92365 0.54339 0.8907 0.0
H3871 H 0.9206 0.47213 0.86202 0.0
H3872 H 0.94956 0.47013 0.89646 0.0
H3873 H 0.98134 0.5592 0.90662 0.0
H3874 H 0.98142 0.57818 0.93451 0.0
H3875 H 0.95811 0.57325 0.90986 0.0
H3876 H 0.92987 0.56004 0.94012 0.0
H3877 H 0.95317 0.56511 0.96494 0.0
H3878 H 0.93405 0.53729 0.95778 0.0
H3879 H 0.98356 0.47818 0.92809 0.0
H3880 H 0.01744 0.49445 0.95914 0.0
H3881 H 0.99612 0.55909 0.96978 0.0
C3882 C 0.92867 0.5272 0.89202 0.0
C3883 C 0.92002 0.50794 0.87375 0.0
C3884 C 0.92703 0.48708 0.87592 0.0
C3885 C 0.94342 0.48576 0.8954 0.0
C3886 C 0.95216 0.50529 0.91268 0.0
C3887 C 0.94474 0.5255 0.9115 0.0
C3888 C 0.95808 0.5445 0.93132 0.0
C3889 C 0.97047 0.56498 0.91989 0.0
C3890 C 0.94288 0.55217 0.94962 0.0
C3891 C 0.97457 0.53199 0.94333 0.0
C3892 C 0.97098 0.50943 0.9322 0.0
C3893 C 0.98604 0.49547 0.93769 0.0
C3894 C 1.00519 0.50482 0.9552 0.0
C3895 C 1.00849 0.52754 0.9674 0.0
C3896 C 0.99309 0.54127 0.96148 0.0
H3897 H 0.29223 0.25827 0.58985 0.0
H3898 H 0.25709 0.18682 0.58517 0.0
H3899 H 0.25083 0.19375 0.62849 0.0
H3900 H 0.32058 0.26345 0.65143 0.0
H3901 H 0.31792 0.29253 0.66027 0.0
H3902 H 0.31883 0.28238 0.62837 0.0
H3903 H 0.28063 0.29373 0.61583 0.0
H3904 H 0.27958 0.30375 0.64777 0.0
H3905 H 0.2563 0.28239 0.63015 0.0
H3906 H 0.25073 0.20711 0.67288 0.0
H3907 H 0.25678 0.22659 0.71596 0.0
H3908 H 0.2899 0.29006 0.69253 0.0
C3909 C 0.28305 0.24414 0.59787 0.0
C3910 C 0.27513 0.22199 0.58393 0.0
C3911 C 0.26332 0.20396 0.59529 0.0
C3912 C 0.2596 0.20771 0.61995 0.0
C3913 C 0.26761 0.22965 0.63314 0.0
C3914 C 0.27905 0.24762 0.62258 0.0
C3915 C 0.2865 0.26933 0.64133 0.0
C3916 C 0.3125 0.27739 0.6456 0.0
C3917 C 0.27507 0.28843 0.63328 0.0
C3918 C 0.27772 0.26063 0.66407 0.0
C3919 C 0.26689 0.23765 0.65884 0.0
C3920 C 0.25883 0.22519 0.67713 0.0
C3921 C 0.26232 0.23636 0.70149 0.0
C3922 C 0.27339 0.25982 0.70731 0.0
C3923 C 0.28082 0.27225 0.68832 0.0
H3924 H 0.61761 0.54006 0.20964 0.0
H3925 H 0.57677 0.58481 0.24015 0.0
H3926 H 0.55636 0.58366 0.19849 0.0
H3927 H 0.62397 0.56362 0.15344 0.0
H3928 H 0.62106 0.53626 0.13461 0.0
H3929 H 0.63206 0.53995 0.16699 0.0
H3930 H 0.60133 0.50506 0.17209 0.0
H3931 H 0.58856 0.50188 0.14029 0.0
H3932 H 0.57178 0.50549 0.16461 0.0
H3933 H 0.54014 0.57769 0.15362 0.0
H3934 H 0.53023 0.56844 0.1085 0.0
H3935 H 0.58278 0.52934 0.106 0.0
C3936 C 0.60434 0.54957 0.20757 0.0
C3937 C 0.59885 0.56256 0.22829 0.0
C3938 C 0.58134 0.57473 0.22468 0.0
C3939 C 0.5696 0.57419 0.20104 0.0
C3940 C 0.57552 0.56141 0.18104 0.0
C3941 C 0.59247 0.54933 0.184 0.0
C3942 C 0.59535 0.53693 0.15931 0.0
C3943 C 0.61955 0.54466 0.15324 0.0
C3944 C 0.58891 0.51078 0.15912 0.0
C3945 C 0.57815 0.54479 0.14192 0.0
C3946 C 0.56657 0.55849 0.15497 0.0
C3947 C 0.54934 0.56724 0.14319 0.0
C3948 C 0.544 0.56209 0.11738 0.0
C3949 C 0.55619 0.54885 0.10334 0.0
C3950 C 0.57332 0.53984 0.11599 0.0
H3951 H 0.28808 0.90071 0.93144 0.0
H3952 H 0.3594 0.90621 0.95753 0.0
H3953 H 0.36082 0.87624 0.9233 0.0
H3954 H 0.27425 0.83998 0.91458 0.0
H3955 H 0.25431 0.84047 0.88785 0.0
H3956 H 0.25908 0.86281 0.9139 0.0
H3957 H 0.26922 0.89374 0.88512 0.0
H3958 H 0.26442 0.87145 0.85899 0.0
H3959 H 0.29124 0.89192 0.86611 0.0
H3960 H 0.35362 0.84384 0.88835 0.0
H3961 H 0.33883 0.81286 0.85305 0.0
H3962 H 0.27304 0.83062 0.84874 0.0
C3963 C 0.30408 0.89578 0.9299 0.0
C3964 C 0.32365 0.90571 0.94711 0.0
C3965 C 0.3442 0.89871 0.94454 0.0
C3966 C 0.34518 0.88178 0.92519 0.0
C3967 C 0.3255 0.87221 0.90867 0.0
C3968 C 0.30537 0.87905 0.91074 0.0
C3969 C 0.28648 0.86571 0.89098 0.0
C3970 C 0.26741 0.8514 0.90252 0.0
C3971 C 0.27732 0.88167 0.87432 0.0
C3972 C 0.2992 0.85048 0.87723 0.0
C3973 C 0.3216 0.85423 0.88793 0.0
C3974 C 0.33624 0.84098 0.87957 0.0
C3975 C 0.32772 0.82346 0.85968 0.0
C3976 C 0.30504 0.81995 0.84815 0.0
C3977 C 0.29062 0.83356 0.85696 0.0
H3978 H 0.95223 0.49937 0.77409 0.0
H3979 H 0.91347 0.54741 0.74792 0.0
H3980 H 0.92631 0.54192 0.70722 0.0
H3981 H 1.00017 0.51501 0.73865 0.0
H3982 H 1.00286 0.48558 0.73264 0.0
H3983 H 0.99293 0.49555 0.76066 0.0
H3984 H 0.9568 0.46278 0.74978 0.0
H3985 H 0.96639 0.45287 0.72159 0.0
H3986 H 0.93904 0.46019 0.72054 0.0
H3987 H 0.9388 0.52746 0.66839 0.0
H3988 H 0.95255 0.50698 0.63406 0.0
H3989 H 0.98489 0.46957 0.68564 0.0
C3990 C 0.94695 0.5092 0.76002 0.0
C3991 C 0.93192 0.52382 0.76412 0.0
C3992 C 0.92501 0.53609 0.74512 0.0
C3993 C 0.93223 0.53313 0.72197 0.0
C3994 C 0.94644 0.51799 0.71826 0.0
C3995 C 0.95396 0.50642 0.73678 0.0
C3996 C 0.96786 0.48994 0.7274 0.0
C3997 C 0.99242 0.49695 0.74062 0.0
C3998 C 0.95686 0.46497 0.72999 0.0
C3999 C 0.96649 0.49365 0.70056 0.0
C4000 C 0.9541 0.50995 0.69574 0.0
C4001 C 0.94904 0.5151 0.672 0.0
C4002 C 0.95703 0.5034 0.65263 0.0
C4003 C 0.97017 0.48689 0.65715 0.0
C4004 C 0.97492 0.48205 0.68151 0.0
H4005 H 0.28334 0.20259 0.4393 0.0
H4006 H 0.24598 0.25103 0.46981 0.0
H4007 H 0.24798 0.27013 0.4326 0.0
H4008 H 0.32122 0.2431 0.41152 0.0
H4009 H 0.3214 0.22352 0.38417 0.0
H4010 H 0.31653 0.2126 0.41275 0.0
H4011 H 0.27881 0.18591 0.39086 0.0
H4012 H 0.28352 0.19685 0.36221 0.0
H4013 H 0.25766 0.19817 0.37477 0.0
H4014 H 0.25415 0.28451 0.39375 0.0
H4015 H 0.2653 0.29506 0.35477 0.0
H4016 H 0.29941 0.2382 0.34717 0.0
C4017 C 0.27549 0.21715 0.43808 0.0
C4018 C 0.2644 0.22528 0.45756 0.0
C4019 C 0.25449 0.24444 0.45524 0.0
C4020 C 0.2555 0.25539 0.43412 0.0
C4021 C 0.26646 0.24701 0.41536 0.0
C4022 C 0.27636 0.2284 0.41698 0.0
C4023 C 0.28755 0.22351 0.39408 0.0
C4024 C 0.3132 0.22583 0.40106 0.0
C4025 C 0.27621 0.19969 0.37963 0.0
C4026 C 0.28263 0.24254 0.37962 0.0
C4027 C 0.27023 0.25561 0.39237 0.0
C4028 C 0.26371 0.27433 0.3835 0.0
C4029 C 0.27013 0.28011 0.36112 0.0
C4030 C 0.28296 0.26729 0.34742 0.0
C4031 C 0.28927 0.24811 0.35686 0.0
H4032 H 0.36128 0.61014 0.58864 0.0
H4033 H 0.29945 0.57335 0.5412 0.0
H4034 H 0.32177 0.5562 0.51314 0.0
H4035 H 0.39247 0.62664 0.54726 0.0
H4036 H 0.41911 0.62095 0.55993 0.0
H4037 H 0.39887 0.62604 0.58004 0.0
H4038 H 0.39835 0.58697 0.59607 0.0
H4039 H 0.41939 0.58204 0.57674 0.0
H4040 H 0.39315 0.56102 0.5743 0.0
H4041 H 0.35008 0.55096 0.48546 0.0
H4042 H 0.38402 0.54976 0.46472 0.0
H4043 H 0.4269 0.58912 0.53037 0.0
C4044 C 0.35249 0.59762 0.57301 0.0
C4045 C 0.32883 0.5934 0.56692 0.0
C4046 C 0.31769 0.57694 0.54627 0.0
C4047 C 0.33018 0.56708 0.53008 0.0
C4048 C 0.35361 0.57317 0.53544 0.0
C4049 C 0.36469 0.58715 0.55696 0.0
C4050 C 0.39005 0.59198 0.55751 0.0
C4051 C 0.40071 0.61794 0.5614 0.0
C4052 C 0.40088 0.57977 0.57732 0.0
C4053 C 0.39118 0.58089 0.5318 0.0
C4054 C 0.37007 0.56967 0.51953 0.0
C4055 C 0.36682 0.55918 0.49502 0.0
C4056 C 0.38598 0.55907 0.48319 0.0
C4057 C 0.40772 0.56963 0.49599 0.0
C4058 C 0.41026 0.58119 0.52025 0.0
H4059 H 0.88147 0.9313 0.50623 0.0
H4060 H 0.86749 0.95295 0.57992 0.0
H4061 H 0.90348 0.98219 0.58746 0.0
H4062 H 0.94196 0.93798 0.52277 0.0
H4063 H 0.94765 0.9476 0.49373 0.0
H4064 H 0.92115 0.92846 0.49548 0.0
H4065 H 0.90068 0.95821 0.47693 0.0
H4066 H 0.92755 0.97742 0.47658 0.0
H4067 H 0.90639 0.98726 0.49273 0.0
H4068 H 0.94157 0.008 0.5875 0.0
H4069 H 0.97921 0.02867 0.57976 0.0
H4070 H 0.96735 0.99126 0.50562 0.0
C4071 C 0.8859 0.94221 0.52395 0.0
C4072 C 0.87165 0.93987 0.54247 0.0
C4073 C 0.87816 0.95443 0.56545 0.0
C4074 C 0.89853 0.97111 0.5699 0.0
C4075 C 0.91212 0.97299 0.55117 0.0
C4076 C 0.9061 0.95892 0.52868 0.0
C4077 C 0.92384 0.96419 0.51176 0.0
C4078 C 0.93427 0.9433 0.50562 0.0
C4079 C 0.91402 0.97226 0.48811 0.0
C4080 C 0.94076 0.98355 0.52819 0.0
C4081 C 0.93375 0.98828 0.55093 0.0
C4082 C 0.94711 1.00467 0.56969 0.0
C4083 C 0.96831 0.01634 0.56516 0.0
C4084 C 0.97557 0.01176 0.54198 0.0
C4085 C 0.96167 0.99534 0.52323 0.0
H4086 H 0.92163 0.09829 0.31604 0.0
H4087 H 0.88564 0.05855 0.24687 0.0
H4088 H 0.85873 0.0843 0.24548 0.0
H4089 H 0.87343 0.10617 0.34196 0.0
H4090 H 0.88574 0.135 0.35716 0.0
H4091 H 0.90366 0.11517 0.3512 0.0
H4092 H 0.9274 0.14412 0.32742 0.0
H4093 H 0.90949 0.16405 0.33332 0.0
H4094 H 0.91339 0.15491 0.30203 0.0
H4095 H 0.83505 0.11365 0.25234 0.0
H4096 H 0.81434 0.14219 0.26906 0.0
H4097 H 0.8644 0.16087 0.33484 0.0
C4098 C 0.90828 0.09522 0.30042 0.0
C4099 C 0.90576 0.07653 0.28151 0.0
C4100 C 0.88785 0.07279 0.26158 0.0
C4101 C 0.87258 0.0874 0.26054 0.0
C4102 C 0.87542 0.10555 0.27963 0.0
C4103 C 0.89273 0.10941 0.29928 0.0
C4104 C 0.89101 0.12898 0.31839 0.0
C4105 C 0.88829 0.12083 0.34366 0.0
C4106 C 0.91154 0.14921 0.3204 0.0
C4107 C 0.86958 0.13498 0.30686 0.0
C4108 C 0.86117 0.1217 0.28418 0.0
C4109 C 0.84144 0.12411 0.27009 0.0
C4110 C 0.82981 0.14025 0.27967 0.0
C4111 C 0.83773 0.15325 0.30328 0.0
C4112 C 0.85796 0.15081 0.31686 0.0
H4113 H 0.70206 0.11203 0.09389 0.0
H4114 H 0.71993 0.08013 0.02617 0.0
H4115 H 0.67944 0.06823 0.00882 0.0
H4116 H 0.65582 0.06977 0.09823 0.0
H4117 H 0.63902 0.08897 0.10993 0.0
H4118 H 0.6694 0.09761 0.11526 0.0
H4119 H 0.6671 0.13429 0.09488 0.0
H4120 H 0.6366 0.12536 0.08913 0.0
H4121 H 0.65236 0.13141 0.06391 0.0
H4122 H 0.63787 0.05479 0.00162 0.0
H4123 H 0.59836 0.03869 0.00643 0.0
H4124 H 0.60688 0.08142 0.07716 0.0
C4125 C 0.69748 0.10267 0.07535 0.0
C4126 C 0.71405 0.09685 0.06143 0.0
C4127 C 0.70743 0.08466 0.0372 0.0
C4128 C 0.68453 0.07808 0.02708 0.0
C4129 C 0.6686 0.08418 0.04128 0.0
C4130 C 0.67477 0.09618 0.0649 0.0
C4131 C 0.65431 0.09864 0.07725 0.0
C4132 C 0.65466 0.0881 0.10157 0.0
C4133 C 0.65249 0.12393 0.08154 0.0
C4134 C 0.63571 0.08481 0.0575 0.0
C4135 C 0.64425 0.07715 0.0366 0.0
C4136 C 0.63077 0.06145 0.01734 0.0
C4137 C 0.6082 0.05265 0.01999 0.0
C4138 C 0.59947 0.05996 0.04146 0.0
C4139 C 0.61314 0.07659 0.06009 0.0
H4140 H 0.24358 0.5073 0.26571 0.0
H4141 H 0.19256 0.46189 0.21022 0.0
H4142 H 0.20248 0.42822 0.22725 0.0
H4143 H 0.28461 0.46871 0.26959 0.0
H4144 H 0.29203 0.47762 0.30246 0.0
H4145 H 0.28393 0.49746 0.2827 0.0
H4146 H 0.25285 0.50372 0.30964 0.0
H4147 H 0.26032 0.48347 0.32906 0.0
H4148 H 0.23158 0.47931 0.31399 0.0
H4149 H 0.21464 0.40009 0.25378 0.0
H4150 H 0.23015 0.37953 0.28617 0.0
H4151 H 0.27089 0.44423 0.32511 0.0
C4152 C 0.23492 0.49027 0.25664 0.0
C4153 C 0.21728 0.48709 0.23677 0.0
C4154 C 0.20626 0.4646 0.22542 0.0
C4155 C 0.21172 0.44543 0.235 0.0
C4156 C 0.22829 0.44925 0.25566 0.0
C4157 C 0.23999 0.47112 0.26605 0.0
C4158 C 0.25559 0.47092 0.28937 0.0
C4159 C 0.28052 0.47915 0.28581 0.0
C4160 C 0.24971 0.4852 0.31182 0.0
C4161 C 0.24998 0.4456 0.29125 0.0
C4162 C 0.23457 0.43327 0.27142 0.0
C4163 C 0.22673 0.40954 0.26936 0.0
C4164 C 0.23529 0.3981 0.28789 0.0
C4165 C 0.25099 0.41061 0.30825 0.0
C4166 C 0.25831 0.43456 0.31001 0.0
H4167 H 0.22604 0.39975 0.02872 0.0
H4168 H 0.28283 0.45646 0.05839 0.0
H4169 H 0.25692 0.48322 0.05897 0.0
H4170 H 0.2007 0.42898 0.98735 0.0
H4171 H 0.17197 0.41557 0.99024 0.0
H4172 H 0.1943 0.40065 0.9964 0.0
H4173 H 0.18301 0.39613 0.04004 0.0
H4174 H 0.16082 0.41146 0.03401 0.0
H4175 H 0.18208 0.42133 0.06083 0.0
H4176 H 0.22586 0.50434 0.05188 0.0
H4177 H 0.19328 0.51835 0.03279 0.0
H4178 H 0.15722 0.44808 0.00722 0.0
C4179 C 0.23292 0.4177 0.03593 0.0
C4180 C 0.25635 0.42602 0.04374 0.0
C4181 C 0.26487 0.44973 0.05239 0.0
C4182 C 0.25027 0.46502 0.05303 0.0
C4183 C 0.22723 0.45629 0.04498 0.0
C4184 C 0.21864 0.43319 0.03642 0.0
C4185 C 0.19388 0.42861 0.02571 0.0
C4186 C 0.19001 0.41784 0.99831 0.0
C4187 C 0.17908 0.41348 0.04107 0.0
C4188 C 0.19013 0.45284 0.02862 0.0
C4189 C 0.20935 0.46854 0.04042 0.0
C4190 C 0.21056 0.4922 0.04308 0.0
C4191 C 0.19201 0.50003 0.03235 0.0
C4192 C 0.17291 0.48416 0.01893 0.0
C4193 C 0.17159 0.46038 0.01793 0.0
H4194 H 0.89349 0.95375 0.28312 0.0
H4195 H 0.87758 0.94954 0.20341 0.0
H4196 H 0.84983 0.91302 0.20236 0.0
H4197 H 0.88934 0.89302 0.28455 0.0
H4198 H 0.87666 0.89273 0.31261 0.0
H4199 H 0.89541 0.91851 0.30716 0.0
H4200 H 0.86403 0.94124 0.31318 0.0
H4201 H 0.84518 0.91545 0.31848 0.0
H4202 H 0.83661 0.9314 0.29453 0.0
H4203 H 0.82388 0.87701 0.20975 0.0
H4204 H 0.80246 0.84305 0.22521 0.0
H4205 H 0.83452 0.87073 0.30001 0.0
C4206 C 0.88423 0.94513 0.26541 0.0
C4207 C 0.88773 0.95457 0.24331 0.0
C4208 C 0.8752 0.94272 0.22057 0.0
C4209 C 0.85936 0.92197 0.21979 0.0
C4210 C 0.85616 0.9133 0.24191 0.0
C4211 C 0.86827 0.92443 0.2643 0.0
C4212 C 0.86162 0.91132 0.28536 0.0
C4213 C 0.88197 0.90343 0.29816 0.0
C4214 C 0.85124 0.92572 0.30398 0.0
C4215 C 0.84393 0.89108 0.27127 0.0
C4216 C 0.84103 0.89259 0.24622 0.0
C4217 C 0.82597 0.87568 0.22932 0.0
C4218 C 0.81391 0.85652 0.2382 0.0
C4219 C 0.81693 0.85452 0.26366 0.0
C4220 C 0.83185 0.87211 0.28046 0.0
H4221 H 0.70722 0.12708 0.71767 0.0
H4222 H 0.71588 0.11163 0.79305 0.0
H4223 H 0.7326 0.15251 0.80803 0.0
H4224 H 0.75842 0.16469 0.72186 0.0
H4225 H 0.74858 0.18421 0.70279 0.0
H4226 H 0.73395 0.15454 0.69849 0.0
H4227 H 0.69637 0.16694 0.70509 0.0
H4228 H 0.71105 0.19675 0.70959 0.0
H4229 H 0.69515 0.18546 0.7329 0.0
H4230 H 0.75513 0.19247 0.81366 0.0
H4231 H 0.78038 0.22928 0.80913 0.0
H4232 H 0.75364 0.22016 0.73141 0.0
C4233 C 0.71215 0.13238 0.73737 0.0
C4234 C 0.71029 0.11626 0.75418 0.0
C4235 C 0.71714 0.12376 0.77983 0.0
C4236 C 0.72653 0.14695 0.78856 0.0
C4237 C 0.72856 0.16238 0.77145 0.0
C4238 C 0.72137 0.15548 0.74641 0.0
C4239 C 0.72755 0.17501 0.73163 0.0
C4240 C 0.74304 0.16926 0.71259 0.0
C4241 C 0.70625 0.18142 0.71907 0.0
C4242 C 0.74017 0.19363 0.75216 0.0
C4243 C 0.74047 0.18612 0.77505 0.0
C4244 C 0.75418 0.19903 0.79611 0.0
C4245 C 0.76822 0.22 0.79354 0.0
C4246 C 0.7678 0.22788 0.77034 0.0
C4247 C 0.75339 0.21478 0.74957 0.0
loop_
_geom_bond_atom_site_label_1
_geom_bond_atom_site_label_2
_geom_bond_distance
_geom_bond_site_symmetry_2
_ccdc_geom_bond_type
C0 O1 1.160 . S
C0 O7 1.185 . S
O1 C0 1.160 . S
O2 Zn3 1.899 . S
O2 C10 1.284 . S
Zn3 O2 1.899 . S
Zn3 O4 2.032 . S
Zn3 O7 2.086 . S
Zn3 O12 1.977 . S
O4 Zn3 2.032 . S
O4 C8 1.278 . S
C5 O6 1.203 . S
C5 O12 1.267 1_655 S
O6 C5 1.203 . S
O7 C0 1.185 . S
O7 Zn3 2.086 . S
C8 O4 1.278 . S
C8 O9 1.211 . S
O9 C8 1.211 . S
C10 O2 1.284 . S
C10 O11 1.273 . S
O11 C10 1.273 . S
O12 Zn3 1.977 . S
O12 C5 1.267 1_455 S
C13 O14 1.160 . S
C13 O20 1.185 . S
O14 C13 1.160 . S
O15 Zn16 1.899 . S
O15 C23 1.284 . S
Zn16 O15 1.899 . S
Zn16 O17 2.032 . S
Zn16 O20 2.086 1_455 S
Zn16 O25 1.977 . S
O17 Zn16 2.032 . S
O17 C21 1.278 . S
C18 O19 1.203 . S
C18 O25 1.267 . S
O19 C18 1.203 . S
O20 C13 1.185 . S
O20 Zn16 2.086 1_655 S
C21 O17 1.278 . S
C21 O22 1.211 . S
O22 C21 1.211 . S
C23 O15 1.284 . S
C23 O24 1.273 . S
O24 C23 1.273 . S
O25 Zn16 1.977 . S
O25 C18 1.267 . S
C26 O27 1.160 . S
C26 O33 1.185 . S
O27 C26 1.160 . S
O28 Zn29 1.899 . S
O28 C36 1.284 . S
Zn29 O28 1.899 . S
Zn29 O30 2.032 . S
Zn29 O33 2.086 . S
Zn29 O38 1.977 . S
O30 Zn29 2.032 . S
O30 C34 1.278 . S
C31 O32 1.203 . S
C31 O38 1.267 . S
O32 C31 1.203 . S
O33 C26 1.185 . S
O33 Zn29 2.086 . S
C34 O30 1.278 . S
C34 O35 1.211 . S
O35 C34 1.211 . S
C36 O28 1.284 . S
C36 O37 1.273 . S
O37 C36 1.273 . S
O38 Zn29 1.977 . S
O38 C31 1.267 . S
C39 O40 1.160 . S
C39 O46 1.185 . S
O40 C39 1.160 . S
O41 Zn42 1.899 . S
O41 C49 1.284 . S
Zn42 O41 1.899 . S
Zn42 O43 2.032 . S
Zn42 O46 2.086 . S
Zn42 O51 1.977 . S
O43 Zn42 2.032 . S
O43 C47 1.278 . S
C44 O45 1.203 . S
C44 O51 1.267 . S
O45 C44 1.203 . S
O46 C39 1.185 . S
O46 Zn42 2.086 . S
C47 O43 1.278 . S
C47 O48 1.211 . S
O48 C47 1.211 . S
C49 O41 1.284 . S
C49 O50 1.273 . S
O50 C49 1.273 . S
O51 Zn42 1.977 . S
O51 C44 1.267 . S
C52 O53 1.160 . S
C52 O59 1.185 . S
O53 C52 1.160 . S
O54 Zn55 1.899 . S
O54 C62 1.284 . S
Zn55 O54 1.899 . S
Zn55 O56 2.032 . S
Zn55 O59 2.086 . S
Zn55 O64 1.977 . S
O56 Zn55 2.032 . S
O56 C60 1.278 . S
C57 O58 1.203 . S
C57 O64 1.267 . S
O58 C57 1.203 . S
O59 C52 1.185 . S
O59 Zn55 2.086 . S
C60 O56 1.278 . S
C60 O61 1.211 . S
O61 C60 1.211 . S
C62 O54 1.284 . S
C62 O63 1.273 . S
O63 C62 1.273 . S
O64 Zn55 1.977 . S
O64 C57 1.267 . S
C65 O66 1.160 . S
C65 O72 1.185 . S
O66 C65 1.160 . S
O67 Zn68 1.899 . S
O67 C75 1.284 . S
Zn68 O67 1.899 . S
Zn68 O69 2.032 . S
Zn68 O72 2.086 . S
Zn68 O77 1.977 . S
O69 Zn68 2.032 . S
O69 C73 1.278 . S
C70 O71 1.203 . S
C70 O77 1.267 . S
O71 C70 1.203 . S
O72 C65 1.185 . S
O72 Zn68 2.086 . S
C73 O69 1.278 . S
C73 O74 1.211 . S
O74 C73 1.211 . S
C75 O67 1.284 . S
C75 O76 1.273 . S
O76 C75 1.273 . S
O77 Zn68 1.977 . S
O77 C70 1.267 . S
C78 O79 1.160 . S
C78 O85 1.185 . S
O79 C78 1.160 . S
O80 Zn81 1.899 . S
O80 C88 1.284 . S
Zn81 O80 1.899 . S
Zn81 O82 2.032 . S
Zn81 O85 2.086 . S
Zn81 O90 1.977 . S
O82 Zn81 2.032 . S
O82 C86 1.278 . S
C83 O84 1.203 . S
C83 O90 1.267 . S
O84 C83 1.203 . S
O85 C78 1.185 . S
O85 Zn81 2.086 . S
C86 O82 1.278 . S
C86 O87 1.211 . S
O87 C86 1.211 . S
C88 O80 1.284 . S
C88 O89 1.273 . S
O89 C88 1.273 . S
O90 Zn81 1.977 . S
O90 C83 1.267 . S
C91 O92 1.160 . S
C91 O98 1.185 . S
O92 C91 1.160 . S
O93 Zn94 1.899 . S
O93 C101 1.284 1_455 S
Zn94 O93 1.899 . S
Zn94 O95 2.032 . S
Zn94 O98 2.086 . S
Zn94 O103 1.977 1_455 S
O95 Zn94 2.032 . S
O95 C99 1.278 . S
C96 O97 1.203 . S
C96 O103 1.267 . S
O97 C96 1.203 . S
O98 C91 1.185 . S
O98 Zn94 2.086 . S
C99 O95 1.278 . S
C99 O100 1.211 1_455 S
O100 C99 1.211 1_655 S
C101 O93 1.284 1_655 S
C101 O102 1.273 . S
O102 C101 1.273 . S
O103 Zn94 1.977 1_655 S
O103 C96 1.267 . S
C104 O105 1.160 . S
C104 O111 1.185 . S
O105 C104 1.160 . S
O106 Zn107 1.899 . S
O106 C114 1.284 . S
Zn107 O106 1.899 . S
Zn107 O108 2.032 . S
Zn107 O111 2.086 . S
Zn107 O116 1.977 1_545 S
O108 Zn107 2.032 . S
O108 C112 1.278 . S
C109 O110 1.203 . S
C109 O116 1.267 . S
O110 C109 1.203 . S
O111 C104 1.185 . S
O111 Zn107 2.086 . S
C112 O108 1.278 . S
C112 O113 1.211 1_545 S
O113 C112 1.211 1_565 S
C114 O106 1.284 . S
C114 O115 1.280 . S
O115 C114 1.280 . S
O116 Zn107 1.977 1_565 S
O116 C109 1.267 . S
C117 O118 1.160 . S
C117 O124 1.185 . S
O118 C117 1.160 . S
O119 Zn120 1.899 . S
O119 C127 1.284 . S
Zn120 O119 1.899 . S
Zn120 O121 2.032 . S
Zn120 O124 2.086 . S
Zn120 O129 1.977 . S
O121 Zn120 2.032 . S
O121 C125 1.278 . S
C122 O123 1.203 . S
C122 O129 1.267 . S
O123 C122 1.203 . S
O124 C117 1.185 . S
O124 Zn120 2.086 . S
C125 O121 1.278 . S
C125 O126 1.211 . S
O126 C125 1.211 . S
C127 O119 1.284 . S
C127 O128 1.273 . S
O128 C127 1.273 . S
O129 Zn120 1.977 . S
O129 C122 1.267 . S
C130 O131 1.160 1_545 S
C130 O137 1.185 . S
O131 C130 1.160 1_565 S
O132 Zn133 1.899 . S
O132 C140 1.284 . S
Zn133 O132 1.899 . S
Zn133 O134 2.032 . S
Zn133 O137 2.086 . S
Zn133 O142 1.977 . S
O134 Zn133 2.032 . S
O134 C138 1.278 . S
C135 O136 1.203 . S
C135 O142 1.267 . S
O136 C135 1.203 . S
O137 C130 1.185 . S
O137 Zn133 2.086 . S
C138 O134 1.278 . S
C138 O139 1.211 . S
O139 C138 1.211 . S
C140 O132 1.284 . S
C140 O141 1.273 . S
O141 C140 1.273 . S
O142 Zn133 1.977 . S
O142 C135 1.267 . S
C143 O144 1.160 . S
C143 O150 1.185 1_554 S
O144 C143 1.160 . S
O145 Zn146 1.899 . S
O145 C153 1.284 . S
Zn146 O145 1.899 . S
Zn146 O147 2.032 1_554 S
Zn146 O150 2.086 1_554 S
Zn146 O155 1.988 . S
O147 Zn146 2.032 1_556 S
O147 C151 1.278 . S
C148 O149 1.203 . S
C148 O155 1.278 . S
O149 C148 1.203 . S
O150 C143 1.185 1_556 S
O150 Zn146 2.086 1_556 S
C151 O147 1.278 . S
C151 O152 1.211 . S
O152 C151 1.211 . S
C153 O145 1.284 . S
C153 O154 1.273 . S
O154 C153 1.273 . S
O155 Zn146 1.988 . S
O155 C148 1.278 . S
C156 O157 1.160 . S
C156 O163 1.185 . S
O157 C156 1.160 . S
O158 Zn159 1.899 . S
O158 C166 1.284 . S
Zn159 O158 1.899 . S
Zn159 O160 2.032 . S
Zn159 O163 2.086 . S
Zn159 O168 1.977 . S
O160 Zn159 2.032 . S
O160 C164 1.278 . S
C161 O162 1.203 . S
C161 O168 1.267 . S
O162 C161 1.203 . S
O163 C156 1.185 . S
O163 Zn159 2.086 . S
C164 O160 1.278 . S
C164 O165 1.211 . S
O165 C164 1.211 . S
C166 O158 1.284 . S
C166 O167 1.273 . S
O167 C166 1.273 . S
O168 Zn159 1.977 . S
O168 C161 1.267 . S
C169 O170 1.160 . S
C169 O176 1.185 . S
O170 C169 1.160 . S
O171 Zn172 1.899 . S
O171 C179 1.284 . S
Zn172 O171 1.899 . S
Zn172 O173 2.032 . S
Zn172 O176 2.086 . S
Zn172 O181 1.977 . S
O173 Zn172 2.032 . S
O173 C177 1.278 . S
C174 O175 1.203 . S
C174 O181 1.267 . S
O175 C174 1.203 . S
O176 C169 1.185 . S
O176 Zn172 2.086 . S
C177 O173 1.278 . S
C177 O178 1.211 . S
O178 C177 1.211 . S
C179 O171 1.284 . S
C179 O180 1.273 . S
O180 C179 1.273 . S
O181 Zn172 1.977 . S
O181 C174 1.267 . S
C182 O183 1.160 . S
C182 O189 1.185 . S
O183 C182 1.160 . S
O184 Zn185 1.899 . S
O184 C192 1.284 . S
Zn185 O184 1.899 . S
Zn185 O186 2.032 . S
Zn185 O189 2.086 . S
Zn185 O194 1.977 . S
O186 Zn185 2.032 . S
O186 C190 1.278 . S
C187 O188 1.203 . S
C187 O194 1.267 . S
O188 C187 1.203 . S
O189 C182 1.185 . S
O189 Zn185 2.086 . S
C190 O186 1.278 . S
C190 O191 1.211 . S
O191 C190 1.211 . S
C192 O184 1.284 . S
C192 O193 1.273 . S
O193 C192 1.273 . S
O194 Zn185 1.977 . S
O194 C187 1.267 . S
C195 O196 1.160 . S
C195 O202 1.185 . S
O196 C195 1.160 . S
O197 Zn198 1.899 . S
O197 C205 1.284 . S
Zn198 O197 1.899 . S
Zn198 O199 2.032 . S
Zn198 O202 2.086 . S
Zn198 O207 1.977 . S
O199 Zn198 2.032 . S
O199 C203 1.278 . S
C200 O201 1.203 . S
C200 O207 1.267 . S
O201 C200 1.203 . S
O202 C195 1.185 . S
O202 Zn198 2.086 . S
C203 O199 1.278 . S
C203 O204 1.211 . S
O204 C203 1.211 . S
C205 O197 1.284 . S
C205 O206 1.273 . S
O206 C205 1.273 . S
O207 Zn198 1.977 . S
O207 C200 1.267 . S
C208 O209 1.160 . S
C208 O215 1.185 . S
O209 C208 1.160 . S
O210 Zn211 1.899 . S
O210 C218 1.284 . S
Zn211 O210 1.899 . S
Zn211 O212 2.032 . S
Zn211 O215 2.086 . S
Zn211 O220 1.977 1_545 S
O212 Zn211 2.032 . S
O212 C216 1.278 . S
C213 O214 1.203 . S
C213 O220 1.267 . S
O214 C213 1.203 . S
O215 C208 1.185 . S
O215 Zn211 2.086 . S
C216 O212 1.278 . S
C216 O217 1.211 1_545 S
O217 C216 1.211 1_565 S
C218 O210 1.284 . S
C218 O219 1.273 . S
O219 C218 1.273 . S
O220 Zn211 1.977 1_565 S
O220 C213 1.267 . S
C221 O222 1.160 . S
C221 O228 1.185 . S
O222 C221 1.160 . S
O223 Zn224 1.899 . S
O223 C231 1.284 . S
Zn224 O223 1.899 . S
Zn224 O225 2.032 . S
Zn224 O228 2.086 . S
Zn224 O233 1.977 . S
O225 Zn224 2.032 . S
O225 C229 1.278 . S
C226 O227 1.203 . S
C226 O233 1.267 . S
O227 C226 1.203 . S
O228 C221 1.185 . S
O228 Zn224 2.086 . S
C229 O225 1.278 . S
C229 O230 1.211 . S
O230 C229 1.211 . S
C231 O223 1.284 . S
C231 O232 1.273 . S
O232 C231 1.273 . S
O233 Zn224 1.977 . S
O233 C226 1.267 . S
C234 O235 1.160 . S
C234 O241 1.185 . S
O235 C234 1.160 . S
O236 Zn237 1.899 . S
O236 C244 1.284 . S
Zn237 O236 1.899 . S
Zn237 O238 2.032 . S
Zn237 O241 2.086 . S
Zn237 O246 1.977 . S
O238 Zn237 2.032 . S
O238 C242 1.278 . S
C239 O240 1.203 . S
C239 O246 1.267 . S
O240 C239 1.203 . S
O241 C234 1.185 . S
O241 Zn237 2.086 . S
C242 O238 1.278 . S
C242 O243 1.211 . S
O243 C242 1.211 . S
C244 O236 1.284 . S
C244 O245 1.273 . S
O245 C244 1.273 . S
O246 Zn237 1.977 . S
O246 C239 1.267 . S
C247 O248 1.160 . S
C247 O254 1.185 . S
O248 C247 1.160 . S
O249 Zn250 1.899 . S
O249 C257 1.284 . S
Zn250 O249 1.899 . S
Zn250 O251 2.032 . S
Zn250 O254 2.086 . S
Zn250 O259 1.977 . S
O251 Zn250 2.032 . S
O251 C255 1.278 . S
C252 O253 1.203 . S
C252 O259 1.267 . S
O253 C252 1.203 . S
O254 C247 1.185 . S
O254 Zn250 2.086 . S
C255 O251 1.278 . S
C255 O256 1.211 . S
O256 C255 1.211 . S
C257 O249 1.284 . S
C257 O258 1.273 . S
O258 C257 1.273 . S
O259 Zn250 1.977 . S
O259 C252 1.267 . S
C260 O261 1.160 . S
C260 O267 1.185 . S
O261 C260 1.160 . S
O262 Zn263 1.899 . S
O262 C270 1.284 . S
Zn263 O262 1.899 . S
Zn263 O264 2.032 1_554 S
Zn263 O267 2.086 . S
Zn263 O272 1.977 . S
O264 Zn263 2.032 1_556 S
O264 C268 1.278 . S
C265 O266 1.203 . S
C265 O272 1.267 . S
O266 C265 1.203 . S
O267 C260 1.185 . S
O267 Zn263 2.086 . S
C268 O264 1.278 . S
C268 O269 1.211 . S
O269 C268 1.211 . S
C270 O262 1.284 . S
C270 O271 1.273 . S
O271 C270 1.273 . S
O272 Zn263 1.977 . S
O272 C265 1.267 . S
C273 O274 1.160 . S
C273 O280 1.185 . S
O274 C273 1.160 . S
O275 Zn276 1.899 . S
O275 C283 1.284 . S
Zn276 O275 1.899 . S
Zn276 O277 2.032 . S
Zn276 O280 2.086 . S
Zn276 O285 1.977 . S
O277 Zn276 2.032 . S
O277 C281 1.278 . S
C278 O279 1.203 . S
C278 O285 1.267 . S
O279 C278 1.203 . S
O280 C273 1.185 . S
O280 Zn276 2.086 . S
C281 O277 1.278 . S
C281 O282 1.211 . S
O282 C281 1.211 . S
C283 O275 1.284 . S
C283 O284 1.273 . S
O284 C283 1.273 . S
O285 Zn276 1.977 . S
O285 C278 1.267 . S
C286 O287 1.160 . S
C286 O293 1.185 . S
O287 C286 1.160 . S
O288 Zn289 1.899 . S
O288 C296 1.284 . S
Zn289 O288 1.899 . S
Zn289 O290 2.032 . S
Zn289 O293 2.086 . S
Zn289 O298 1.977 . S
O290 Zn289 2.032 . S
O290 C294 1.278 . S
C291 O292 1.203 . S
C291 O298 1.267 . S
O292 C291 1.203 . S
O293 C286 1.185 . S
O293 Zn289 2.086 . S
C294 O290 1.278 . S
C294 O295 1.211 . S
O295 C294 1.211 . S
C296 O288 1.284 . S
C296 O297 1.273 . S
O297 C296 1.273 . S
O298 Zn289 1.977 . S
O298 C291 1.267 . S
C299 O300 1.160 . S
C299 O306 1.185 . S
O300 C299 1.160 . S
O301 Zn302 1.899 . S
O301 C309 1.284 . S
Zn302 O301 1.899 . S
Zn302 O303 2.032 . S
Zn302 O306 2.086 . S
Zn302 O311 1.977 . S
O303 Zn302 2.032 . S
O303 C307 1.278 . S
C304 O305 1.203 . S
C304 O311 1.267 . S
O305 C304 1.203 . S
O306 C299 1.185 . S
O306 Zn302 2.086 . S
C307 O303 1.278 . S
C307 O308 1.211 . S
O308 C307 1.211 . S
C309 O301 1.284 . S
C309 O310 1.273 . S
O310 C309 1.273 . S
O311 Zn302 1.977 . S
O311 C304 1.267 . S
Eu312 N341 2.600 . S
Eu312 N347 2.562 . S
Eu312 O356 2.462 . S
Eu312 O357 2.373 . S
Eu312 O359 2.432 . S
Eu312 O360 2.291 . S
Eu312 O364 2.321 1_545 S
Eu312 O367 2.372 . S
Eu312 C376 2.787 . S
C313 N314 1.365 . S
C313 C316 1.405 . S
C313 C320 1.448 1_556 S
N314 C313 1.365 . S
N314 C317 1.319 . S
N314 Eu323 2.600 1_566 S
C315 C317 1.397 . S
C315 C318 1.367 . S
C315 H335 0.931 . S
C316 C313 1.405 . S
C316 C318 1.403 . S
C316 C322 1.439 . S
C317 N314 1.319 . S
C317 C315 1.397 . S
C317 H328 0.930 . S
C318 C315 1.367 . S
C318 C316 1.403 . S
C318 H339 0.929 . S
C319 C320 1.430 . S
C319 C321 1.387 1_554 S
C319 C325 1.404 . S
C320 C313 1.448 1_554 S
C320 C319 1.430 . S
C320 N324 1.351 . S
C321 C319 1.387 1_556 S
C321 C322 1.374 . S
C321 H336 0.931 . S
C322 C316 1.439 . S
C322 C321 1.374 . S
C322 H337 0.931 . S
Eu323 N314 2.600 1_544 S
Eu323 N324 2.562 1_545 S
Eu323 O358 2.335 1_655 S
Eu323 O361 2.372 1_654 S
Eu323 O362 2.462 . S
Eu323 O363 2.373 1_645 S
Eu323 O365 2.432 1_554 S
Eu323 O366 2.291 1_655 S
Eu323 C387 2.785 1_554 S
N324 C320 1.351 . S
N324 Eu323 2.562 1_565 S
N324 C326 1.325 . S
C325 C319 1.404 . S
C325 C327 1.366 . S
C325 H333 0.930 . S
C326 N324 1.325 . S
C326 C327 1.416 . S
C326 H332 0.929 . S
C327 C325 1.366 . S
C327 C326 1.416 . S
C327 H329 0.930 . S
H328 C317 0.930 . S
H329 C327 0.930 . S
H330 C345 0.930 . S
H331 C352 0.930 1_556 S
H332 C326 0.929 . S
H333 C325 0.930 . S
H334 C348 0.911 1_556 S
H335 C315 0.931 . S
H336 C321 0.931 . S
H337 C322 0.931 . S
H338 C343 0.931 . S
H339 C318 0.929 . S
H340 C351 0.930 . S
N341 Eu312 2.600 . S
N341 C342 1.365 . S
N341 C345 1.319 . S
C342 N341 1.365 . S
C342 C344 1.405 . S
C342 C350 1.448 . S
C343 H338 0.931 . S
C343 C345 1.397 . S
C343 C346 1.367 . S
C344 C342 1.405 . S
C344 C346 1.403 . S
C344 C377 1.439 . S
C345 H330 0.930 . S
C345 N341 1.319 . S
C345 C343 1.397 . S
C346 C343 1.367 . S
C346 C344 1.403 . S
C346 H353 0.929 . S
N347 Eu312 2.562 . S
N347 C348 1.325 . S
N347 C350 1.351 . S
C348 H334 0.911 1_554 S
C348 N347 1.325 . S
C348 C352 1.416 . S
C349 C350 1.430 . S
C349 C351 1.404 . S
C349 C378 1.387 . S
C350 C342 1.448 . S
C350 N347 1.351 . S
C350 C349 1.430 . S
C351 H340 0.930 . S
C351 C349 1.404 . S
C351 C352 1.366 . S
C352 H331 0.930 1_554 S
C352 C348 1.416 . S
C352 C351 1.366 . S
H353 C346 0.929 . S
H354 C377 0.931 . S
H355 C378 0.931 . S
O356 Eu312 2.462 . S
O356 C376 1.252 . S
O357 Eu312 2.373 . S
O357 C368 1.249 . S
O358 Eu323 2.335 1_455 S
O358 C368 1.264 . S
O359 Eu312 2.432 . S
O359 C376 1.268 . S
O360 Eu312 2.291 . S
O360 C375 1.255 1_554 S
O361 Eu323 2.372 1_456 S
O361 C375 1.257 . S
O362 Eu323 2.462 . S
O362 C387 1.233 1_554 S
O363 Eu323 2.373 1_465 S
O363 C379 1.249 . S
O364 Eu312 2.321 1_565 S
O364 C379 1.272 . S
O365 Eu323 2.432 1_556 S
O365 C387 1.286 . S
O366 Eu323 2.291 1_455 S
O366 C386 1.255 . S
O367 Eu312 2.372 . S
O367 C386 1.257 . S
C368 O357 1.249 . S
C368 O358 1.264 . S
C369 C372 1.382 . S
C369 C374 1.390 . S
C369 C376 1.506 . S
C370 C371 1.398 . S
C370 C374 1.392 . S
C371 C370 1.398 . S
C371 C373 1.372 . S
C371 H388 0.926 1_545 S
C372 C369 1.382 . S
C372 C373 1.390 . S
C372 H389 0.931 . S
C373 C371 1.372 . S
C373 C372 1.390 . S
C373 H390 0.929 . S
C374 C369 1.390 . S
C374 C370 1.392 . S
C374 H391 0.930 . S
C375 O360 1.255 1_556 S
C375 O361 1.257 . S
C376 Eu312 2.787 . S
C376 O356 1.252 . S
C376 O359 1.268 . S
C376 C369 1.506 . S
C377 C344 1.439 . S
C377 H354 0.931 . S
C377 C378 1.374 . S
C378 C349 1.387 . S
C378 H355 0.931 . S
C378 C377 1.374 . S
C379 O363 1.249 . S
C379 O364 1.272 . S
C380 C383 1.382 . S
C380 C384 1.390 1_556 S
C380 C387 1.508 . S
C381 C382 1.398 1_554 S
C381 C384 1.392 . S
C382 C381 1.398 1_556 S
C382 C385 1.372 . S
C382 H392 0.931 . S
C383 C380 1.382 . S
C383 C385 1.390 . S
C383 H393 0.931 . S
C384 C380 1.390 1_554 S
C384 C381 1.392 . S
C384 H394 0.930 . S
C385 C382 1.372 . S
C385 C383 1.390 . S
C385 H395 0.929 . S
C386 O366 1.255 . S
C386 O367 1.257 . S
C387 Eu323 2.785 1_556 S
C387 O362 1.233 1_556 S
C387 O365 1.286 . S
C387 C380 1.508 . S
H388 C371 0.926 1_565 S
H389 C372 0.931 . S
H390 C373 0.929 . S
H391 C374 0.930 . S
H392 C382 0.931 . S
H393 C383 0.931 . S
H394 C384 0.930 . S
H395 C385 0.929 . S
Eu396 N425 2.600 . S
Eu396 N431 2.562 . S
Eu396 O440 2.462 . S
Eu396 O441 2.373 . S
Eu396 O443 2.432 . S
Eu396 O444 2.291 . S
Eu396 O448 2.335 . S
Eu396 O451 2.372 . S
Eu396 C460 2.787 . S
C397 N398 1.365 . S
C397 C400 1.405 . S
C397 C404 1.448 . S
N398 C397 1.365 . S
N398 C401 1.319 . S
N398 Eu407 2.600 . S
C399 C401 1.397 . S
C399 C402 1.367 . S
C399 H419 0.931 . S
C400 C397 1.405 . S
C400 C402 1.403 . S
C400 C406 1.439 . S
C401 N398 1.319 . S
C401 C399 1.397 . S
C401 H412 0.930 . S
C402 C399 1.367 . S
C402 C400 1.403 . S
C402 H423 0.929 . S
C403 C404 1.430 . S
C403 C405 1.387 . S
C403 C409 1.404 . S
C404 C397 1.448 . S
C404 C403 1.430 . S
C404 N408 1.351 . S
C405 C403 1.387 . S
C405 C406 1.374 . S
C405 H420 0.931 . S
C406 C400 1.439 . S
C406 C405 1.374 . S
C406 H421 0.931 . S
Eu407 N398 2.600 . S
Eu407 N408 2.562 . S
Eu407 O442 2.335 . S
Eu407 O445 2.372 . S
Eu407 O446 2.462 . S
Eu407 O447 2.373 . S
Eu407 O449 2.432 . S
Eu407 O450 2.291 . S
Eu407 C471 2.787 . S
N408 C404 1.351 . S
N408 Eu407 2.562 . S
N408 C410 1.325 . S
C409 C403 1.404 . S
C409 C411 1.366 . S
C409 H417 0.930 . S
C410 N408 1.325 . S
C410 C411 1.416 . S
C410 H416 0.929 . S
C411 C409 1.366 . S
C411 C410 1.416 . S
C411 H413 0.930 . S
H412 C401 0.930 . S
H413 C411 0.930 . S
H414 C429 0.930 . S
H415 C436 0.930 . S
H416 C410 0.929 . S
H417 C409 0.930 . S
H418 C432 0.929 . S
H419 C399 0.931 . S
H420 C405 0.931 . S
H421 C406 0.931 . S
H422 C427 0.931 . S
H423 C402 0.929 . S
H424 C435 0.930 . S
N425 Eu396 2.600 . S
N425 C426 1.365 . S
N425 C429 1.319 . S
C426 N425 1.365 . S
C426 C428 1.405 . S
C426 C434 1.448 . S
C427 H422 0.931 . S
C427 C429 1.397 . S
C427 C430 1.367 . S
C428 C426 1.405 . S
C428 C430 1.403 . S
C428 C461 1.439 . S
C429 H414 0.930 . S
C429 N425 1.319 . S
C429 C427 1.397 . S
C430 C427 1.367 . S
C430 C428 1.403 . S
C430 H437 0.929 . S
N431 Eu396 2.562 . S
N431 C432 1.325 . S
N431 C434 1.351 . S
C432 H418 0.929 . S
C432 N431 1.325 . S
C432 C436 1.416 . S
C433 C434 1.430 . S
C433 C435 1.404 . S
C433 C462 1.387 . S
C434 C426 1.448 . S
C434 N431 1.351 . S
C434 C433 1.430 . S
C435 H424 0.930 . S
C435 C433 1.404 . S
C435 C436 1.366 . S
C436 H415 0.930 . S
C436 C432 1.416 . S
C436 C435 1.366 . S
H437 C430 0.929 . S
H438 C461 0.931 . S
H439 C462 0.931 . S
O440 Eu396 2.462 . S
O440 C460 1.252 . S
O441 Eu396 2.373 . S
O441 C452 1.249 . S
O442 Eu407 2.335 . S
O442 C452 1.264 . S
O443 Eu396 2.432 . S
O443 C460 1.268 . S
O444 Eu396 2.291 . S
O444 C459 1.255 . S
O445 Eu407 2.372 . S
O445 C459 1.257 . S
O446 Eu407 2.462 . S
O446 C471 1.252 . S
O447 Eu407 2.373 . S
O447 C463 1.249 . S
O448 Eu396 2.335 . S
O448 C463 1.264 . S
O449 Eu407 2.432 . S
O449 C471 1.268 . S
O450 Eu407 2.291 . S
O450 C470 1.255 . S
O451 Eu396 2.372 . S
O451 C470 1.257 . S
C452 O441 1.249 . S
C452 O442 1.264 . S
C453 C456 1.382 . S
C453 C458 1.390 . S
C453 C460 1.506 . S
C454 C455 1.398 . S
C454 C458 1.392 . S
C455 C454 1.398 . S
C455 C457 1.372 . S
C455 H472 0.931 . S
C456 C453 1.382 . S
C456 C457 1.390 . S
C456 H473 0.931 . S
C457 C455 1.372 . S
C457 C456 1.390 . S
C457 H474 0.929 . S
C458 C453 1.390 . S
C458 C454 1.392 . S
C458 H475 0.930 . S
C459 O444 1.255 . S
C459 O445 1.257 . S
C460 Eu396 2.787 . S
C460 O440 1.252 . S
C460 O443 1.268 . S
C460 C453 1.506 . S
C461 C428 1.439 . S
C461 H438 0.931 . S
C461 C462 1.374 . S
C462 C433 1.387 . S
C462 H439 0.931 . S
C462 C461 1.374 . S
C463 O447 1.249 . S
C463 O448 1.264 . S
C464 C467 1.382 . S
C464 C468 1.390 . S
C464 C471 1.506 . S
C465 C466 1.398 . S
C465 C468 1.392 . S
C466 C465 1.398 . S
C466 C469 1.372 . S
C466 H476 0.931 . S
C467 C464 1.382 . S
C467 C469 1.390 . S
C467 H477 0.931 . S
C468 C464 1.390 . S
C468 C465 1.392 . S
C468 H478 0.930 . S
C469 C466 1.372 . S
C469 C467 1.390 . S
C469 H479 0.929 . S
C470 O450 1.255 . S
C470 O451 1.257 . S
C471 Eu407 2.787 . S
C471 O446 1.252 . S
C471 O449 1.268 . S
C471 C464 1.506 . S
H472 C455 0.931 . S
H473 C456 0.931 . S
H474 C457 0.929 . S
H475 C458 0.930 . S
H476 C466 0.931 . S
H477 C467 0.931 . S
H478 C468 0.930 . S
H479 C469 0.929 . S
Eu480 N509 2.600 . S
Eu480 N515 2.562 1_545 S
Eu480 O524 2.462 . S
Eu480 O525 2.373 1_545 S
Eu480 O527 2.432 . S
Eu480 O528 2.291 . S
Eu480 O532 2.335 . S
Eu480 O535 2.372 . S
Eu480 C544 2.787 . S
C481 N482 1.365 . S
C481 C484 1.405 . S
C481 C488 1.448 . S
N482 C481 1.365 . S
N482 C485 1.319 . S
N482 Eu491 2.600 . S
C483 C485 1.397 . S
C483 C486 1.367 . S
C483 H503 0.931 . S
C484 C481 1.405 . S
C484 C486 1.403 . S
C484 C490 1.439 . S
C485 N482 1.319 . S
C485 C483 1.397 . S
C485 H496 0.930 . S
C486 C483 1.367 . S
C486 C484 1.403 . S
C486 H507 0.929 . S
C487 C488 1.430 . S
C487 C489 1.387 . S
C487 C493 1.404 . S
C488 C481 1.448 . S
C488 C487 1.430 . S
C488 N492 1.351 . S
C489 C487 1.387 . S
C489 C490 1.374 . S
C489 H504 0.931 . S
C490 C484 1.439 . S
C490 C489 1.374 . S
C490 H505 0.931 . S
Eu491 N482 2.600 . S
Eu491 N492 2.562 . S
Eu491 O526 2.335 1_545 S
Eu491 O529 2.372 . S
Eu491 O530 2.462 . S
Eu491 O531 2.373 . S
Eu491 O533 2.432 . S
Eu491 O534 2.291 . S
Eu491 C555 2.787 . S
N492 C488 1.351 . S
N492 Eu491 2.562 . S
N492 C494 1.325 . S
C493 C487 1.404 . S
C493 C495 1.366 . S
C493 H501 0.930 . S
C494 N492 1.325 . S
C494 C495 1.416 . S
C494 H500 0.929 . S
C495 C493 1.366 . S
C495 C494 1.416 . S
C495 H497 0.930 . S
H496 C485 0.930 . S
H497 C495 0.930 . S
H498 C513 0.930 . S
H499 C520 0.930 . S
H500 C494 0.929 . S
H501 C493 0.930 . S
H502 C516 0.899 1_545 S
H503 C483 0.931 . S
H504 C489 0.931 . S
H505 C490 0.931 . S
H506 C511 0.931 . S
H507 C486 0.929 . S
H508 C519 0.930 . S
N509 Eu480 2.600 . S
N509 C510 1.365 1_545 S
N509 C513 1.319 . S
C510 N509 1.365 1_565 S
C510 C512 1.405 . S
C510 C518 1.448 . S
C511 H506 0.931 . S
C511 C513 1.397 1_565 S
C511 C514 1.367 . S
C512 C510 1.405 . S
C512 C514 1.403 . S
C512 C545 1.439 . S
C513 H498 0.930 . S
C513 N509 1.319 . S
C513 C511 1.397 1_545 S
C514 C511 1.367 . S
C514 C512 1.403 . S
C514 H521 0.929 . S
N515 Eu480 2.562 1_565 S
N515 C516 1.325 . S
N515 C518 1.351 . S
C516 H502 0.899 1_565 S
C516 N515 1.325 . S
C516 C520 1.416 . S
C517 C518 1.430 . S
C517 C519 1.404 . S
C517 C546 1.387 . S
C518 C510 1.448 . S
C518 N515 1.351 . S
C518 C517 1.430 . S
C519 H508 0.930 . S
C519 C517 1.404 . S
C519 C520 1.366 . S
C520 H499 0.930 . S
C520 C516 1.416 . S
C520 C519 1.366 . S
H521 C514 0.929 . S
H522 C545 0.931 . S
H523 C546 0.931 . S
O524 Eu480 2.462 . S
O524 C544 1.252 . S
O525 Eu480 2.373 1_565 S
O525 C536 1.249 . S
O526 Eu491 2.335 1_565 S
O526 C536 1.264 . S
O527 Eu480 2.432 . S
O527 C544 1.268 . S
O528 Eu480 2.291 . S
O528 C543 1.255 . S
O529 Eu491 2.372 . S
O529 C543 1.257 . S
O530 Eu491 2.462 . S
O530 C555 1.252 . S
O531 Eu491 2.373 . S
O531 C547 1.249 . S
O532 Eu480 2.335 . S
O532 C547 1.264 . S
O533 Eu491 2.432 . S
O533 C555 1.268 . S
O534 Eu491 2.291 . S
O534 C554 1.255 . S
O535 Eu480 2.372 . S
O535 C554 1.257 . S
C536 O525 1.249 . S
C536 O526 1.264 . S
C537 C540 1.382 . S
C537 C542 1.390 . S
C537 C544 1.506 . S
C538 C539 1.398 . S
C538 C542 1.392 . S
C539 C538 1.398 . S
C539 C541 1.372 . S
C539 H556 0.931 . S
C540 C537 1.382 . S
C540 C541 1.390 . S
C540 H557 0.931 . S
C541 C539 1.372 . S
C541 C540 1.390 . S
C541 H558 0.929 . S
C542 C537 1.390 . S
C542 C538 1.392 . S
C542 H559 0.930 . S
C543 O528 1.255 . S
C543 O529 1.257 . S
C544 Eu480 2.787 . S
C544 O524 1.252 . S
C544 O527 1.268 . S
C544 C537 1.506 . S
C545 C512 1.439 . S
C545 H522 0.931 . S
C545 C546 1.374 . S
C546 C517 1.387 . S
C546 H523 0.931 . S
C546 C545 1.374 . S
C547 O531 1.249 . S
C547 O532 1.264 . S
C548 C551 1.383 . S
C548 C552 1.394 . S
C548 C555 1.500 1_565 S
C549 C550 1.398 . S
C549 C552 1.392 . S
C550 C549 1.398 . S
C550 C553 1.372 . S
C550 H560 0.931 . S
C551 C548 1.383 . S
C551 C553 1.390 . S
C551 H561 0.931 . S
C552 C548 1.394 . S
C552 C549 1.392 . S
C552 H562 0.930 . S
C553 C550 1.372 . S
C553 C551 1.390 . S
C553 H563 0.929 . S
C554 O534 1.255 . S
C554 O535 1.257 . S
C555 Eu491 2.787 . S
C555 O530 1.252 . S
C555 O533 1.268 . S
C555 C548 1.500 1_545 S
H556 C539 0.931 . S
H557 C540 0.931 . S
H558 C541 0.929 . S
H559 C542 0.930 . S
H560 C550 0.931 . S
H561 C551 0.931 . S
H562 C552 0.930 . S
H563 C553 0.929 . S
Eu564 N593 2.600 . S
Eu564 N599 2.562 . S
Eu564 O608 2.462 . S
Eu564 O609 2.373 . S
Eu564 O611 2.432 . S
Eu564 O612 2.291 . S
Eu564 O616 2.335 . S
Eu564 O619 2.372 . S
Eu564 C628 2.787 . S
C565 N566 1.365 . S
C565 C568 1.405 . S
C565 C572 1.448 . S
N566 C565 1.365 . S
N566 C569 1.319 . S
N566 Eu575 2.600 . S
C567 C569 1.397 . S
C567 C570 1.367 . S
C567 H587 0.931 . S
C568 C565 1.405 . S
C568 C570 1.403 . S
C568 C574 1.439 . S
C569 N566 1.319 . S
C569 C567 1.397 . S
C569 H580 0.930 . S
C570 C567 1.367 . S
C570 C568 1.403 . S
C570 H591 0.929 . S
C571 C572 1.430 . S
C571 C573 1.387 . S
C571 C577 1.404 . S
C572 C565 1.448 . S
C572 C571 1.430 . S
C572 N576 1.351 . S
C573 C571 1.387 . S
C573 C574 1.374 . S
C573 H588 0.931 . S
C574 C568 1.439 . S
C574 C573 1.374 . S
C574 H589 0.931 . S
Eu575 N566 2.600 . S
Eu575 N576 2.562 . S
Eu575 O610 2.335 . S
Eu575 O613 2.372 . S
Eu575 O614 2.462 . S
Eu575 O615 2.373 . S
Eu575 O617 2.432 . S
Eu575 O618 2.291 . S
Eu575 C639 2.787 . S
N576 C572 1.351 . S
N576 Eu575 2.562 . S
N576 C578 1.325 . S
C577 C571 1.404 . S
C577 C579 1.366 . S
C577 H585 0.930 . S
C578 N576 1.325 . S
C578 C579 1.416 . S
C578 H584 0.929 . S
C579 C577 1.366 . S
C579 C578 1.416 . S
C579 H581 0.930 . S
H580 C569 0.930 . S
H581 C579 0.930 . S
H582 C597 0.930 . S
H583 C604 0.930 . S
H584 C578 0.929 . S
H585 C577 0.930 . S
H586 C600 0.929 . S
H587 C567 0.931 . S
H588 C573 0.931 . S
H589 C574 0.931 . S
H590 C595 0.931 . S
H591 C570 0.929 . S
H592 C603 0.930 . S
N593 Eu564 2.600 . S
N593 C594 1.365 . S
N593 C597 1.319 . S
C594 N593 1.365 . S
C594 C596 1.405 . S
C594 C602 1.448 . S
C595 H590 0.931 . S
C595 C597 1.397 . S
C595 C598 1.367 . S
C596 C594 1.405 . S
C596 C598 1.403 . S
C596 C629 1.439 . S
C597 H582 0.930 . S
C597 N593 1.319 . S
C597 C595 1.397 . S
C598 C595 1.367 . S
C598 C596 1.403 . S
C598 H605 0.929 . S
N599 Eu564 2.562 . S
N599 C600 1.325 . S
N599 C602 1.351 . S
C600 H586 0.929 . S
C600 N599 1.325 . S
C600 C604 1.416 . S
C601 C602 1.430 . S
C601 C603 1.404 . S
C601 C630 1.387 . S
C602 C594 1.448 . S
C602 N599 1.351 . S
C602 C601 1.430 . S
C603 H592 0.930 . S
C603 C601 1.404 . S
C603 C604 1.366 . S
C604 H583 0.930 . S
C604 C600 1.416 . S
C604 C603 1.366 . S
H605 C598 0.929 . S
H606 C629 0.931 . S
H607 C630 0.931 . S
O608 Eu564 2.462 . S
O608 C628 1.252 . S
O609 Eu564 2.373 . S
O609 C620 1.249 . S
O610 Eu575 2.335 . S
O610 C620 1.264 . S
O611 Eu564 2.432 . S
O611 C628 1.268 . S
O612 Eu564 2.291 . S
O612 C627 1.255 . S
O613 Eu575 2.372 . S
O613 C627 1.257 . S
O614 Eu575 2.462 . S
O614 C639 1.252 . S
O615 Eu575 2.373 . S
O615 C631 1.249 . S
O616 Eu564 2.335 . S
O616 C631 1.264 . S
O617 Eu575 2.432 . S
O617 C639 1.268 . S
O618 Eu575 2.291 . S
O618 C638 1.255 . S
O619 Eu564 2.372 . S
O619 C638 1.257 . S
C620 O609 1.249 . S
C620 O610 1.264 . S
C621 C624 1.382 . S
C621 C626 1.390 . S
C621 C628 1.506 . S
C622 C623 1.398 . S
C622 C626 1.392 . S
C623 C622 1.398 . S
C623 C625 1.372 . S
C623 H640 0.931 . S
C624 C621 1.382 . S
C624 C625 1.390 . S
C624 H641 0.931 . S
C625 C623 1.372 . S
C625 C624 1.390 . S
C625 H642 0.929 . S
C626 C621 1.390 . S
C626 C622 1.392 . S
C626 H643 0.930 . S
C627 O612 1.255 . S
C627 O613 1.257 . S
C628 Eu564 2.787 . S
C628 O608 1.252 . S
C628 O611 1.268 . S
C628 C621 1.506 . S
C629 C596 1.439 . S
C629 H606 0.931 . S
C629 C630 1.374 . S
C630 C601 1.387 . S
C630 H607 0.931 . S
C630 C629 1.374 . S
C631 O615 1.249 . S
C631 O616 1.264 . S
C632 C635 1.382 . S
C632 C636 1.390 . S
C632 C639 1.506 . S
C633 C634 1.398 . S
C633 C636 1.392 . S
C634 C633 1.398 . S
C634 C637 1.372 . S
C634 H644 0.931 . S
C635 C632 1.382 . S
C635 C637 1.390 . S
C635 H645 0.931 . S
C636 C632 1.390 . S
C636 C633 1.392 . S
C636 H646 0.930 . S
C637 C634 1.372 . S
C637 C635 1.390 . S
C637 H647 0.929 . S
C638 O618 1.255 . S
C638 O619 1.257 . S
C639 Eu575 2.787 . S
C639 O614 1.252 . S
C639 O617 1.268 . S
C639 C632 1.506 . S
H640 C623 0.931 . S
H641 C624 0.931 . S
H642 C625 0.929 . S
H643 C626 0.930 . S
H644 C634 0.931 . S
H645 C635 0.931 . S
H646 C636 0.930 . S
H647 C637 0.929 . S
Eu648 N677 2.589 1_545 S
Eu648 N683 2.543 1_545 S
Eu648 O692 2.437 1_545 S
Eu648 O693 2.390 . S
Eu648 O695 2.409 1_545 S
Eu648 O696 2.300 . S
Eu648 O700 2.345 . S
Eu648 O703 2.390 . S
Eu648 C712 2.760 1_545 S
C649 N650 1.365 1_455 S
C649 C652 1.405 1_455 S
C649 C656 1.448 . S
N650 C649 1.365 1_655 S
N650 C653 1.319 . S
N650 Eu659 2.600 1_655 S
C651 C653 1.397 . S
C651 C654 1.367 . S
C651 H671 0.931 . S
C652 C649 1.405 1_655 S
C652 C654 1.403 . S
C652 C658 1.439 1_655 S
C653 N650 1.319 . S
C653 C651 1.397 . S
C653 H664 0.930 . S
C654 C651 1.367 . S
C654 C652 1.403 . S
C654 H675 0.929 . S
C655 C656 1.430 . S
C655 C657 1.387 . S
C655 C661 1.404 . S
C656 C649 1.448 . S
C656 C655 1.430 . S
C656 N660 1.351 . S
C657 C655 1.387 . S
C657 C658 1.374 . S
C657 H672 0.931 . S
C658 C652 1.439 1_455 S
C658 C657 1.374 . S
C658 H673 0.931 1_455 S
Eu659 N650 2.600 1_455 S
Eu659 N660 2.562 . S
Eu659 O694 2.335 . S
Eu659 O697 2.372 1_455 S
Eu659 O698 2.462 . S
Eu659 O699 2.373 . S
Eu659 O701 2.432 1_455 S
Eu659 O702 2.291 . S
Eu659 C723 2.787 . S
N660 C656 1.351 . S
N660 Eu659 2.562 . S
N660 C662 1.325 . S
C661 C655 1.404 . S
C661 C663 1.366 . S
C661 H669 0.930 . S
C662 N660 1.325 . S
C662 C663 1.416 . S
C662 H668 0.929 . S
C663 C661 1.366 . S
C663 C662 1.416 . S
C663 H665 0.930 . S
H664 C653 0.930 . S
H665 C663 0.930 . S
H666 C681 0.930 1_545 S
H667 C688 0.930 . S
H668 C662 0.929 . S
H669 C661 0.930 . S
H670 C684 0.929 . S
H671 C651 0.931 . S
H672 C657 0.931 . S
H673 C658 0.931 1_655 S
H674 C679 0.931 . S
H675 C654 0.929 . S
H676 C687 0.930 . S
N677 Eu648 2.589 1_565 S
N677 C678 1.365 . S
N677 C681 1.319 . S
C678 N677 1.365 . S
C678 C680 1.405 . S
C678 C686 1.448 . S
C679 H674 0.931 . S
C679 C681 1.397 . S
C679 C682 1.367 . S
C680 C678 1.405 . S
C680 C682 1.403 . S
C680 C713 1.439 . S
C681 H666 0.930 1_565 S
C681 N677 1.319 . S
C681 C679 1.397 . S
C682 C679 1.367 . S
C682 C680 1.403 . S
C682 H689 0.929 . S
N683 Eu648 2.543 1_565 S
N683 C684 1.325 1_455 S
N683 C686 1.351 . S
C684 H670 0.929 . S
C684 N683 1.325 1_655 S
C684 C688 1.416 . S
C685 C686 1.430 . S
C685 C687 1.404 1_455 S
C685 C714 1.387 . S
C686 C678 1.448 . S
C686 N683 1.351 . S
C686 C685 1.430 . S
C687 H676 0.930 . S
C687 C685 1.404 1_655 S
C687 C688 1.366 . S
C688 H667 0.930 . S
C688 C684 1.416 . S
C688 C687 1.366 . S
H689 C682 0.929 . S
H690 C713 0.931 . S
H691 C714 0.931 . S
O692 Eu648 2.437 1_565 S
O692 C712 1.252 . S
O693 Eu648 2.390 . S
O693 C704 1.249 . S
O694 Eu659 2.335 . S
O694 C704 1.264 . S
O695 Eu648 2.409 1_565 S
O695 C712 1.268 . S
O696 Eu648 2.300 . S
O696 C711 1.255 1_455 S
O697 Eu659 2.372 1_655 S
O697 C711 1.257 . S
O698 Eu659 2.462 . S
O698 C723 1.252 . S
O699 Eu659 2.373 . S
O699 C715 1.249 . S
O700 Eu648 2.345 . S
O700 C715 1.264 . S
O701 Eu659 2.432 1_655 S
O701 C723 1.268 1_655 S
O702 Eu659 2.291 . S
O702 C722 1.255 . S
O703 Eu648 2.390 . S
O703 C722 1.257 . S
C704 O693 1.249 . S
C704 O694 1.264 . S
C705 C708 1.382 . S
C705 C710 1.390 . S
C705 C712 1.506 . S
C706 C707 1.398 . S
C706 C710 1.392 . S
C707 C706 1.398 . S
C707 C709 1.372 . S
C707 H724 0.931 . S
C708 C705 1.382 . S
C708 C709 1.390 . S
C708 H725 0.931 . S
C709 C707 1.372 . S
C709 C708 1.390 . S
C709 H726 0.929 . S
C710 C705 1.390 . S
C710 C706 1.392 . S
C710 H727 0.930 . S
C711 O696 1.255 1_655 S
C711 O697 1.257 . S
C712 Eu648 2.760 1_565 S
C712 O692 1.252 . S
C712 O695 1.268 . S
C712 C705 1.506 . S
C713 C680 1.439 . S
C713 H690 0.931 . S
C713 C714 1.374 . S
C714 C685 1.387 . S
C714 H691 0.931 . S
C714 C713 1.374 . S
C715 O699 1.249 . S
C715 O700 1.264 . S
C716 C719 1.382 1_455 S
C716 C720 1.390 . S
C716 C723 1.506 . S
C717 C718 1.398 1_455 S
C717 C720 1.392 . S
C718 C717 1.398 1_655 S
C718 C721 1.372 . S
C718 H728 0.931 . S
C719 C716 1.382 1_655 S
C719 C721 1.390 . S
C719 H729 0.931 . S
C720 C716 1.390 . S
C720 C717 1.392 . S
C720 H730 0.930 . S
C721 C718 1.372 . S
C721 C719 1.390 . S
C721 H731 0.929 . S
C722 O702 1.255 . S
C722 O703 1.257 . S
C723 Eu659 2.787 . S
C723 O698 1.252 . S
C723 O701 1.268 1_455 S
C723 C716 1.506 . S
H724 C707 0.931 . S
H725 C708 0.931 . S
H726 C709 0.929 . S
H727 C710 0.930 . S
H728 C718 0.931 . S
H729 C719 0.931 . S
H730 C720 0.930 . S
H731 C721 0.929 . S
Eu732 N761 2.600 . S
Eu732 N767 2.562 . S
Eu732 O776 2.462 . S
Eu732 O777 2.373 . S
Eu732 O779 2.432 . S
Eu732 O780 2.291 . S
Eu732 O784 2.335 . S
Eu732 O787 2.372 . S
Eu732 C796 2.787 . S
C733 N734 1.365 . S
C733 C736 1.405 . S
C733 C740 1.448 . S
N734 C733 1.365 . S
N734 C737 1.319 . S
N734 Eu743 2.600 . S
C735 C737 1.397 . S
C735 C738 1.367 . S
C735 H755 0.931 . S
C736 C733 1.405 . S
C736 C738 1.403 . S
C736 C742 1.439 . S
C737 N734 1.319 . S
C737 C735 1.397 . S
C737 H748 0.930 . S
C738 C735 1.367 . S
C738 C736 1.403 . S
C738 H759 0.929 . S
C739 C740 1.430 . S
C739 C741 1.387 . S
C739 C745 1.404 . S
C740 C733 1.448 . S
C740 C739 1.430 . S
C740 N744 1.351 . S
C741 C739 1.387 . S
C741 C742 1.374 . S
C741 H756 0.931 . S
C742 C736 1.439 . S
C742 C741 1.374 . S
C742 H757 0.931 . S
Eu743 N734 2.600 . S
Eu743 N744 2.562 . S
Eu743 O778 2.335 . S
Eu743 O781 2.372 . S
Eu743 O782 2.462 . S
Eu743 O783 2.373 . S
Eu743 O785 2.432 . S
Eu743 O786 2.291 . S
Eu743 C807 2.787 . S
N744 C740 1.351 . S
N744 Eu743 2.562 . S
N744 C746 1.325 . S
C745 C739 1.404 . S
C745 C747 1.366 . S
C745 H753 0.930 . S
C746 N744 1.325 . S
C746 C747 1.416 . S
C746 H752 0.929 . S
C747 C745 1.366 . S
C747 C746 1.416 . S
C747 H749 0.930 . S
H748 C737 0.930 . S
H749 C747 0.930 . S
H750 C765 0.930 . S
H751 C772 0.930 . S
H752 C746 0.929 . S
H753 C745 0.930 . S
H754 C768 0.929 . S
H755 C735 0.931 . S
H756 C741 0.931 . S
H757 C742 0.931 . S
H758 C763 0.931 . S
H759 C738 0.929 . S
H760 C771 0.930 . S
N761 Eu732 2.600 . S
N761 C762 1.365 . S
N761 C765 1.319 . S
C762 N761 1.365 . S
C762 C764 1.405 . S
C762 C770 1.448 . S
C763 H758 0.931 . S
C763 C765 1.397 . S
C763 C766 1.367 . S
C764 C762 1.405 . S
C764 C766 1.403 . S
C764 C797 1.439 . S
C765 H750 0.930 . S
C765 N761 1.319 . S
C765 C763 1.397 . S
C766 C763 1.367 . S
C766 C764 1.403 . S
C766 H773 0.929 . S
N767 Eu732 2.562 . S
N767 C768 1.325 . S
N767 C770 1.351 . S
C768 H754 0.929 . S
C768 N767 1.325 . S
C768 C772 1.416 . S
C769 C770 1.430 . S
C769 C771 1.404 . S
C769 C798 1.387 . S
C770 C762 1.448 . S
C770 N767 1.351 . S
C770 C769 1.430 . S
C771 H760 0.930 . S
C771 C769 1.404 . S
C771 C772 1.366 . S
C772 H751 0.930 . S
C772 C768 1.416 . S
C772 C771 1.366 . S
H773 C766 0.929 . S
H774 C797 0.931 . S
H775 C798 0.931 . S
O776 Eu732 2.462 . S
O776 C796 1.252 . S
O777 Eu732 2.373 . S
O777 C788 1.249 . S
O778 Eu743 2.335 . S
O778 C788 1.264 . S
O779 Eu732 2.432 . S
O779 C796 1.268 . S
O780 Eu732 2.291 . S
O780 C795 1.255 . S
O781 Eu743 2.372 . S
O781 C795 1.257 . S
O782 Eu743 2.462 . S
O782 C807 1.252 . S
O783 Eu743 2.373 . S
O783 C799 1.249 . S
O784 Eu732 2.335 . S
O784 C799 1.264 . S
O785 Eu743 2.432 . S
O785 C807 1.268 . S
O786 Eu743 2.291 . S
O786 C806 1.255 . S
O787 Eu732 2.372 . S
O787 C806 1.257 . S
C788 O777 1.249 . S
C788 O778 1.264 . S
C789 C792 1.382 . S
C789 C794 1.390 . S
C789 C796 1.506 . S
C790 C791 1.398 . S
C790 C794 1.392 . S
C791 C790 1.398 . S
C791 C793 1.372 . S
C791 H808 0.931 . S
C792 C789 1.382 . S
C792 C793 1.390 . S
C792 H809 0.931 . S
C793 C791 1.372 . S
C793 C792 1.390 . S
C793 H810 0.929 . S
C794 C789 1.390 . S
C794 C790 1.392 . S
C794 H811 0.930 . S
C795 O780 1.255 . S
C795 O781 1.257 . S
C796 Eu732 2.787 . S
C796 O776 1.252 . S
C796 O779 1.268 . S
C796 C789 1.506 . S
C797 C764 1.439 . S
C797 H774 0.931 . S
C797 C798 1.374 . S
C798 C769 1.387 . S
C798 H775 0.931 . S
C798 C797 1.374 . S
C799 O783 1.249 . S
C799 O784 1.264 . S
C800 C803 1.382 . S
C800 C804 1.390 . S
C800 C807 1.506 . S
C801 C802 1.398 . S
C801 C804 1.392 . S
C802 C801 1.398 . S
C802 C805 1.372 . S
C802 H812 0.931 . S
C803 C800 1.382 . S
C803 C805 1.390 . S
C803 H813 0.931 . S
C804 C800 1.390 . S
C804 C801 1.392 . S
C804 H814 0.930 . S
C805 C802 1.372 . S
C805 C803 1.390 . S
C805 H815 0.929 . S
C806 O786 1.255 . S
C806 O787 1.257 . S
C807 Eu743 2.787 . S
C807 O782 1.252 . S
C807 O785 1.268 . S
C807 C800 1.506 . S
H808 C791 0.931 . S
H809 C792 0.931 . S
H810 C793 0.929 . S
H811 C794 0.930 . S
H812 C802 0.931 . S
H813 C803 0.931 . S
H814 C804 0.930 . S
H815 C805 0.929 . S
Eu816 N845 2.601 . S
Eu816 N851 2.564 . S
Eu816 O860 2.464 . S
Eu816 O861 2.371 1_556 S
Eu816 O863 2.433 . S
Eu816 O864 2.291 1_556 S
Eu816 O868 2.334 1_556 S
Eu816 O871 2.370 1_556 S
Eu816 C880 2.789 . S
C817 N818 1.365 . S
C817 C820 1.405 . S
C817 C824 1.448 1_565 S
N818 C817 1.365 . S
N818 C821 1.319 . S
N818 Eu827 2.600 1_565 S
C819 C821 1.397 . S
C819 C822 1.367 . S
C819 H839 0.931 . S
C820 C817 1.405 . S
C820 C822 1.403 . S
C820 C826 1.439 . S
C821 N818 1.319 . S
C821 C819 1.397 . S
C821 H832 0.930 . S
C822 C819 1.367 . S
C822 C820 1.403 . S
C822 H843 0.929 . S
C823 C824 1.430 . S
C823 C825 1.387 . S
C823 C829 1.404 . S
C824 C817 1.448 1_545 S
C824 C823 1.430 . S
C824 N828 1.351 . S
C825 C823 1.387 . S
C825 C826 1.374 1_545 S
C825 H840 0.931 . S
C826 C820 1.439 . S
C826 C825 1.374 1_565 S
C826 H841 0.931 . S
Eu827 N818 2.600 1_545 S
Eu827 N828 2.562 . S
Eu827 O862 2.335 . S
Eu827 O865 2.372 1_545 S
Eu827 O866 2.462 . S
Eu827 O867 2.373 . S
Eu827 O869 2.432 1_545 S
Eu827 O870 2.291 . S
Eu827 C891 2.787 1_545 S
N828 C824 1.351 . S
N828 Eu827 2.562 . S
N828 C830 1.325 . S
C829 C823 1.404 . S
C829 C831 1.366 . S
C829 H837 0.930 . S
C830 N828 1.325 . S
C830 C831 1.416 . S
C830 H836 0.929 . S
C831 C829 1.366 . S
C831 C830 1.416 . S
C831 H833 0.930 . S
H832 C821 0.930 . S
H833 C831 0.930 . S
H834 C849 0.930 1_554 S
H835 C856 0.930 . S
H836 C830 0.929 . S
H837 C829 0.930 . S
H838 C852 0.929 1_565 S
H839 C819 0.931 . S
H840 C825 0.931 . S
H841 C826 0.931 . S
H842 C847 0.931 1_554 S
H843 C822 0.929 . S
H844 C855 0.930 1_565 S
N845 Eu816 2.601 . S
N845 C846 1.365 . S
N845 C849 1.319 . S
C846 N845 1.365 . S
C846 C848 1.405 . S
C846 C854 1.448 . S
C847 H842 0.931 1_556 S
C847 C849 1.397 . S
C847 C850 1.367 . S
C848 C846 1.405 . S
C848 C850 1.403 . S
C848 C881 1.439 . S
C849 H834 0.930 1_556 S
C849 N845 1.319 . S
C849 C847 1.397 . S
C850 C847 1.367 . S
C850 C848 1.403 . S
C850 H857 0.929 . S
N851 Eu816 2.564 . S
N851 C852 1.325 . S
N851 C854 1.351 . S
C852 H838 0.929 1_545 S
C852 N851 1.325 . S
C852 C856 1.416 1_545 S
C853 C854 1.430 . S
C853 C855 1.404 . S
C853 C882 1.387 . S
C854 C846 1.448 . S
C854 N851 1.351 . S
C854 C853 1.430 . S
C855 H844 0.930 1_545 S
C855 C853 1.404 . S
C855 C856 1.366 1_545 S
C856 H835 0.930 . S
C856 C852 1.416 1_565 S
C856 C855 1.366 1_565 S
H857 C850 0.929 . S
H858 C881 0.931 . S
H859 C882 0.931 . S
O860 Eu816 2.464 . S
O860 C880 1.252 . S
O861 Eu816 2.371 1_554 S
O861 C872 1.249 . S
O862 Eu827 2.335 . S
O862 C872 1.264 . S
O863 Eu816 2.433 . S
O863 C880 1.268 . S
O864 Eu816 2.291 1_554 S
O864 C879 1.255 1_545 S
O865 Eu827 2.372 1_565 S
O865 C879 1.257 . S
O866 Eu827 2.462 . S
O866 C891 1.252 1_545 S
O867 Eu827 2.373 . S
O867 C883 1.249 . S
O868 Eu816 2.334 1_554 S
O868 C883 1.264 . S
O869 Eu827 2.432 1_565 S
O869 C891 1.268 . S
O870 Eu827 2.291 . S
O870 C890 1.255 . S
O871 Eu816 2.370 1_554 S
O871 C890 1.257 . S
C872 O861 1.249 . S
C872 O862 1.264 . S
C873 C876 1.382 . S
C873 C878 1.390 . S
C873 C880 1.506 . S
C874 C875 1.398 . S
C874 C878 1.392 . S
C875 C874 1.398 . S
C875 C877 1.372 . S
C875 H892 0.931 . S
C876 C873 1.382 . S
C876 C877 1.390 . S
C876 H893 0.931 . S
C877 C875 1.372 . S
C877 C876 1.390 . S
C877 H894 0.929 . S
C878 C873 1.390 . S
C878 C874 1.392 . S
C878 H895 0.930 . S
C879 O864 1.255 1_565 S
C879 O865 1.257 . S
C880 Eu816 2.789 . S
C880 O860 1.252 . S
C880 O863 1.268 . S
C880 C873 1.506 . S
C881 C848 1.439 . S
C881 H858 0.931 . S
C881 C882 1.374 . S
C882 C853 1.387 . S
C882 H859 0.931 . S
C882 C881 1.374 . S
C883 O867 1.249 . S
C883 O868 1.264 . S
C884 C887 1.382 . S
C884 C888 1.390 1_565 S
C884 C891 1.506 . S
C885 C886 1.379 1_545 S
C885 C888 1.397 . S
C886 C885 1.379 1_565 S
C886 C889 1.372 . S
C886 H896 0.931 . S
C887 C884 1.382 . S
C887 C889 1.390 . S
C887 H897 0.931 . S
C888 C884 1.390 1_545 S
C888 C885 1.397 . S
C888 H898 0.930 . S
C889 C886 1.372 . S
C889 C887 1.390 . S
C889 H899 0.929 . S
C890 O870 1.255 . S
C890 O871 1.257 . S
C891 Eu827 2.787 1_565 S
C891 O866 1.252 1_565 S
C891 O869 1.268 . S
C891 C884 1.506 . S
H892 C875 0.931 . S
H893 C876 0.931 . S
H894 C877 0.929 . S
H895 C878 0.930 . S
H896 C886 0.931 . S
H897 C887 0.931 . S
H898 C888 0.930 . S
H899 C889 0.929 . S
Eu900 N929 2.600 . S
Eu900 N935 2.562 . S
Eu900 O944 2.462 . S
Eu900 O945 2.373 . S
Eu900 O947 2.432 . S
Eu900 O948 2.291 . S
Eu900 O952 2.335 . S
Eu900 O955 2.372 . S
Eu900 C964 2.787 . S
C901 N902 1.365 . S
C901 C904 1.405 . S
C901 C908 1.448 . S
N902 C901 1.365 . S
N902 C905 1.319 . S
N902 Eu911 2.600 . S
C903 C905 1.397 . S
C903 C906 1.367 . S
C903 H923 0.931 . S
C904 C901 1.405 . S
C904 C906 1.403 . S
C904 C910 1.439 . S
C905 N902 1.319 . S
C905 C903 1.397 . S
C905 H916 0.930 . S
C906 C903 1.367 . S
C906 C904 1.403 . S
C906 H927 0.929 . S
C907 C908 1.430 . S
C907 C909 1.387 . S
C907 C913 1.404 . S
C908 C901 1.448 . S
C908 C907 1.430 . S
C908 N912 1.351 . S
C909 C907 1.387 . S
C909 C910 1.374 . S
C909 H924 0.931 . S
C910 C904 1.439 . S
C910 C909 1.374 . S
C910 H925 0.931 . S
Eu911 N902 2.600 . S
Eu911 N912 2.562 . S
Eu911 O946 2.335 . S
Eu911 O949 2.372 . S
Eu911 O950 2.462 . S
Eu911 O951 2.373 . S
Eu911 O953 2.432 . S
Eu911 O954 2.291 . S
Eu911 C975 2.787 . S
N912 C908 1.351 . S
N912 Eu911 2.562 . S
N912 C914 1.325 . S
C913 C907 1.404 . S
C913 C915 1.366 . S
C913 H921 0.930 . S
C914 N912 1.325 . S
C914 C915 1.416 . S
C914 H920 0.929 . S
C915 C913 1.366 . S
C915 C914 1.416 . S
C915 H917 0.930 . S
H916 C905 0.930 . S
H917 C915 0.930 . S
H918 C933 0.930 . S
H919 C940 0.930 . S
H920 C914 0.929 . S
H921 C913 0.930 . S
H922 C936 0.929 . S
H923 C903 0.931 . S
H924 C909 0.931 . S
H925 C910 0.931 . S
H926 C931 0.931 . S
H927 C906 0.929 . S
H928 C939 0.930 . S
N929 Eu900 2.600 . S
N929 C930 1.365 . S
N929 C933 1.319 . S
C930 N929 1.365 . S
C930 C932 1.405 . S
C930 C938 1.448 . S
C931 H926 0.931 . S
C931 C933 1.397 . S
C931 C934 1.367 . S
C932 C930 1.405 . S
C932 C934 1.403 . S
C932 C965 1.439 . S
C933 H918 0.930 . S
C933 N929 1.319 . S
C933 C931 1.397 . S
C934 C931 1.367 . S
C934 C932 1.403 . S
C934 H941 0.929 . S
N935 Eu900 2.562 . S
N935 C936 1.325 . S
N935 C938 1.351 . S
C936 H922 0.929 . S
C936 N935 1.325 . S
C936 C940 1.416 . S
C937 C938 1.430 . S
C937 C939 1.404 . S
C937 C966 1.387 . S
C938 C930 1.448 . S
C938 N935 1.351 . S
C938 C937 1.430 . S
C939 H928 0.930 . S
C939 C937 1.404 . S
C939 C940 1.366 . S
C940 H919 0.930 . S
C940 C936 1.416 . S
C940 C939 1.366 . S
H941 C934 0.929 . S
H942 C965 0.931 . S
H943 C966 0.931 . S
O944 Eu900 2.462 . S
O944 C964 1.252 . S
O945 Eu900 2.373 . S
O945 C956 1.249 . S
O946 Eu911 2.335 . S
O946 C956 1.264 . S
O947 Eu900 2.432 . S
O947 C964 1.268 . S
O948 Eu900 2.291 . S
O948 C963 1.255 . S
O949 Eu911 2.372 . S
O949 C963 1.257 . S
O950 Eu911 2.462 . S
O950 C975 1.252 . S
O951 Eu911 2.373 . S
O951 C967 1.249 . S
O952 Eu900 2.335 . S
O952 C967 1.264 . S
O953 Eu911 2.432 . S
O953 C975 1.268 . S
O954 Eu911 2.291 . S
O954 C974 1.255 . S
O955 Eu900 2.372 . S
O955 C974 1.257 . S
C956 O945 1.249 . S
C956 O946 1.264 . S
C957 C960 1.382 . S
C957 C962 1.390 . S
C957 C964 1.506 . S
C958 C959 1.398 . S
C958 C962 1.392 . S
C959 C958 1.398 . S
C959 C961 1.372 . S
C959 H976 0.931 . S
C960 C957 1.382 . S
C960 C961 1.390 . S
C960 H977 0.931 . S
C961 C959 1.372 . S
C961 C960 1.390 . S
C961 H978 0.929 . S
C962 C957 1.390 . S
C962 C958 1.392 . S
C962 H979 0.930 . S
C963 O948 1.255 . S
C963 O949 1.257 . S
C964 Eu900 2.787 . S
C964 O944 1.252 . S
C964 O947 1.268 . S
C964 C957 1.506 . S
C965 C932 1.439 . S
C965 H942 0.931 . S
C965 C966 1.374 . S
C966 C937 1.387 . S
C966 H943 0.931 . S
C966 C965 1.374 . S
C967 O951 1.249 . S
C967 O952 1.264 . S
C968 C971 1.382 . S
C968 C972 1.390 . S
C968 C975 1.506 . S
C969 C970 1.398 . S
C969 C972 1.392 . S
C970 C969 1.398 . S
C970 C973 1.372 . S
C970 H980 0.931 . S
C971 C968 1.382 . S
C971 C973 1.390 . S
C971 H981 0.931 . S
C972 C968 1.390 . S
C972 C969 1.392 . S
C972 H982 0.930 . S
C973 C970 1.372 . S
C973 C971 1.390 . S
C973 H983 0.929 . S
C974 O954 1.255 . S
C974 O955 1.257 . S
C975 Eu911 2.787 . S
C975 O950 1.252 . S
C975 O953 1.268 . S
C975 C968 1.506 . S
H976 C959 0.931 . S
H977 C960 0.931 . S
H978 C961 0.929 . S
H979 C962 0.930 . S
H980 C970 0.931 . S
H981 C971 0.931 . S
H982 C972 0.930 . S
H983 C973 0.929 . S
Eu984 N1013 2.600 1_554 S
Eu984 N1019 2.562 1_554 S
Eu984 O1028 2.462 . S
Eu984 O1029 2.373 1_554 S
Eu984 O1031 2.432 . S
Eu984 O1032 2.291 . S
Eu984 O1036 2.335 . S
Eu984 O1039 2.372 . S
Eu984 C1048 2.787 . S
C985 N986 1.365 . S
C985 C988 1.405 . S
C985 C992 1.448 . S
N986 C985 1.365 . S
N986 C989 1.319 . S
N986 Eu995 2.600 . S
C987 C989 1.397 . S
C987 C990 1.367 . S
C987 H1007 0.931 . S
C988 C985 1.405 . S
C988 C990 1.403 . S
C988 C994 1.439 . S
C989 N986 1.319 . S
C989 C987 1.397 . S
C989 H1000 0.930 . S
C990 C987 1.367 . S
C990 C988 1.403 . S
C990 H1011 0.929 . S
C991 C992 1.430 . S
C991 C993 1.387 . S
C991 C997 1.404 . S
C992 C985 1.448 . S
C992 C991 1.430 . S
C992 N996 1.351 . S
C993 C991 1.387 . S
C993 C994 1.374 . S
C993 H1008 0.931 . S
C994 C988 1.439 . S
C994 C993 1.374 . S
C994 H1009 0.931 . S
Eu995 N986 2.600 . S
Eu995 N996 2.562 . S
Eu995 O1030 2.335 1_554 S
Eu995 O1033 2.372 . S
Eu995 O1034 2.462 . S
Eu995 O1035 2.373 . S
Eu995 O1037 2.432 . S
Eu995 O1038 2.291 . S
Eu995 C1059 2.787 . S
N996 C992 1.351 . S
N996 Eu995 2.562 . S
N996 C998 1.325 . S
C997 C991 1.404 . S
C997 C999 1.366 . S
C997 H1005 0.930 . S
C998 N996 1.325 . S
C998 C999 1.416 . S
C998 H1004 0.929 . S
C999 C997 1.366 . S
C999 C998 1.416 . S
C999 H1001 0.930 . S
H1000 C989 0.930 . S
H1001 C999 0.930 . S
H1002 C1017 0.930 1_554 S
H1003 C1024 0.930 . S
H1004 C998 0.929 . S
H1005 C997 0.930 . S
H1006 C1020 0.929 1_554 S
H1007 C987 0.931 . S
H1008 C993 0.931 . S
H1009 C994 0.931 . S
H1010 C1015 0.931 . S
H1011 C990 0.929 . S
H1012 C1023 0.930 . S
N1013 Eu984 2.600 1_556 S
N1013 C1014 1.365 . S
N1013 C1017 1.319 . S
C1014 N1013 1.365 . S
C1014 C1016 1.405 . S
C1014 C1022 1.448 . S
C1015 H1010 0.931 . S
C1015 C1017 1.397 . S
C1015 C1018 1.367 . S
C1016 C1014 1.405 . S
C1016 C1018 1.403 . S
C1016 C1049 1.439 . S
C1017 H1002 0.930 1_556 S
C1017 N1013 1.319 . S
C1017 C1015 1.397 . S
C1018 C1015 1.367 . S
C1018 C1016 1.403 . S
C1018 H1025 0.929 . S
N1019 Eu984 2.562 1_556 S
N1019 C1020 1.325 . S
N1019 C1022 1.351 . S
C1020 H1006 0.929 1_556 S
C1020 N1019 1.325 . S
C1020 C1024 1.416 . S
C1021 C1022 1.430 . S
C1021 C1023 1.404 . S
C1021 C1050 1.387 . S
C1022 C1014 1.448 . S
C1022 N1019 1.351 . S
C1022 C1021 1.430 . S
C1023 H1012 0.930 . S
C1023 C1021 1.404 . S
C1023 C1024 1.366 . S
C1024 H1003 0.930 . S
C1024 C1020 1.416 . S
C1024 C1023 1.366 . S
H1025 C1018 0.929 . S
H1026 C1049 0.931 . S
H1027 C1050 0.931 . S
O1028 Eu984 2.462 . S
O1028 C1048 1.252 . S
O1029 Eu984 2.373 1_556 S
O1029 C1040 1.249 . S
O1030 Eu995 2.335 1_556 S
O1030 C1040 1.264 . S
O1031 Eu984 2.432 . S
O1031 C1048 1.268 . S
O1032 Eu984 2.291 . S
O1032 C1047 1.255 . S
O1033 Eu995 2.372 . S
O1033 C1047 1.257 . S
O1034 Eu995 2.462 . S
O1034 C1059 1.252 . S
O1035 Eu995 2.373 . S
O1035 C1051 1.249 . S
O1036 Eu984 2.335 . S
O1036 C1051 1.264 . S
O1037 Eu995 2.432 . S
O1037 C1059 1.268 . S
O1038 Eu995 2.291 . S
O1038 C1058 1.255 . S
O1039 Eu984 2.372 . S
O1039 C1058 1.257 . S
C1040 O1029 1.249 . S
C1040 O1030 1.264 . S
C1041 C1044 1.382 . S
C1041 C1046 1.390 . S
C1041 C1048 1.506 . S
C1042 C1043 1.398 . S
C1042 C1046 1.392 . S
C1043 C1042 1.398 . S
C1043 C1045 1.372 . S
C1043 H1060 0.931 . S
C1044 C1041 1.382 . S
C1044 C1045 1.390 . S
C1044 H1061 0.931 . S
C1045 C1043 1.372 . S
C1045 C1044 1.390 . S
C1045 H1062 0.929 . S
C1046 C1041 1.390 . S
C1046 C1042 1.392 . S
C1046 H1063 0.930 . S
C1047 O1032 1.255 . S
C1047 O1033 1.257 . S
C1048 Eu984 2.787 . S
C1048 O1028 1.252 . S
C1048 O1031 1.268 . S
C1048 C1041 1.506 . S
C1049 C1016 1.439 . S
C1049 H1026 0.931 . S
C1049 C1050 1.374 . S
C1050 C1021 1.387 . S
C1050 H1027 0.931 . S
C1050 C1049 1.374 . S
C1051 O1035 1.249 . S
C1051 O1036 1.264 . S
C1052 C1055 1.382 . S
C1052 C1056 1.390 . S
C1052 C1059 1.506 1_556 S
C1053 C1054 1.398 . S
C1053 C1056 1.392 . S
C1054 C1053 1.398 . S
C1054 C1057 1.372 . S
C1054 H1064 0.931 . S
C1055 C1052 1.382 . S
C1055 C1057 1.390 . S
C1055 H1065 0.931 1_556 S
C1056 C1052 1.390 . S
C1056 C1053 1.392 . S
C1056 H1066 0.930 . S
C1057 C1054 1.372 . S
C1057 C1055 1.390 . S
C1057 H1067 0.929 . S
C1058 O1038 1.255 . S
C1058 O1039 1.257 . S
C1059 Eu995 2.787 . S
C1059 O1034 1.252 . S
C1059 O1037 1.268 . S
C1059 C1052 1.506 1_554 S
H1060 C1043 0.931 . S
H1061 C1044 0.931 . S
H1062 C1045 0.929 . S
H1063 C1046 0.930 . S
H1064 C1054 0.931 . S
H1065 C1055 0.931 1_554 S
H1066 C1056 0.930 . S
H1067 C1057 0.929 . S
Eu1068 N1097 2.600 . S
Eu1068 N1103 2.562 . S
Eu1068 O1112 2.462 . S
Eu1068 O1113 2.373 . S
Eu1068 O1115 2.432 . S
Eu1068 O1116 2.291 . S
Eu1068 O1120 2.335 . S
Eu1068 O1123 2.372 . S
Eu1068 C1132 2.787 . S
C1069 N1070 1.365 . S
C1069 C1072 1.405 . S
C1069 C1076 1.448 . S
N1070 C1069 1.365 . S
N1070 C1073 1.319 . S
N1070 Eu1079 2.600 . S
C1071 C1073 1.397 . S
C1071 C1074 1.367 . S
C1071 H1091 0.931 . S
C1072 C1069 1.405 . S
C1072 C1074 1.403 . S
C1072 C1078 1.439 . S
C1073 N1070 1.319 . S
C1073 C1071 1.397 . S
C1073 H1084 0.930 . S
C1074 C1071 1.367 . S
C1074 C1072 1.403 . S
C1074 H1095 0.929 . S
C1075 C1076 1.430 . S
C1075 C1077 1.387 . S
C1075 C1081 1.404 . S
C1076 C1069 1.448 . S
C1076 C1075 1.430 . S
C1076 N1080 1.351 . S
C1077 C1075 1.387 . S
C1077 C1078 1.374 . S
C1077 H1092 0.931 . S
C1078 C1072 1.439 . S
C1078 C1077 1.374 . S
C1078 H1093 0.931 . S
Eu1079 N1070 2.600 . S
Eu1079 N1080 2.562 . S
Eu1079 O1114 2.335 . S
Eu1079 O1117 2.372 . S
Eu1079 O1118 2.462 . S
Eu1079 O1119 2.373 . S
Eu1079 O1121 2.432 . S
Eu1079 O1122 2.291 . S
Eu1079 C1143 2.787 . S
N1080 C1076 1.351 . S
N1080 Eu1079 2.562 . S
N1080 C1082 1.325 . S
C1081 C1075 1.404 . S
C1081 C1083 1.366 . S
C1081 H1089 0.930 . S
C1082 N1080 1.325 . S
C1082 C1083 1.416 . S
C1082 H1088 0.929 . S
C1083 C1081 1.366 . S
C1083 C1082 1.416 . S
C1083 H1085 0.930 . S
H1084 C1073 0.930 . S
H1085 C1083 0.930 . S
H1086 C1101 0.930 . S
H1087 C1108 0.930 . S
H1088 C1082 0.929 . S
H1089 C1081 0.930 . S
H1090 C1104 0.929 . S
H1091 C1071 0.931 . S
H1092 C1077 0.931 . S
H1093 C1078 0.931 . S
H1094 C1099 0.931 . S
H1095 C1074 0.929 . S
H1096 C1107 0.930 . S
N1097 Eu1068 2.600 . S
N1097 C1098 1.365 . S
N1097 C1101 1.319 . S
C1098 N1097 1.365 . S
C1098 C1100 1.405 . S
C1098 C1106 1.448 . S
C1099 H1094 0.931 . S
C1099 C1101 1.397 . S
C1099 C1102 1.367 . S
C1100 C1098 1.405 . S
C1100 C1102 1.403 . S
C1100 C1133 1.439 . S
C1101 H1086 0.930 . S
C1101 N1097 1.319 . S
C1101 C1099 1.397 . S
C1102 C1099 1.367 . S
C1102 C1100 1.403 . S
C1102 H1109 0.929 . S
N1103 Eu1068 2.562 . S
N1103 C1104 1.325 . S
N1103 C1106 1.351 . S
C1104 H1090 0.929 . S
C1104 N1103 1.325 . S
C1104 C1108 1.416 . S
C1105 C1106 1.430 . S
C1105 C1107 1.404 . S
C1105 C1134 1.387 . S
C1106 C1098 1.448 . S
C1106 N1103 1.351 . S
C1106 C1105 1.430 . S
C1107 H1096 0.930 . S
C1107 C1105 1.404 . S
C1107 C1108 1.366 . S
C1108 H1087 0.930 . S
C1108 C1104 1.416 . S
C1108 C1107 1.366 . S
H1109 C1102 0.929 . S
H1110 C1133 0.931 . S
H1111 C1134 0.931 . S
O1112 Eu1068 2.462 . S
O1112 C1132 1.252 . S
O1113 Eu1068 2.373 . S
O1113 C1124 1.249 . S
O1114 Eu1079 2.335 . S
O1114 C1124 1.264 . S
O1115 Eu1068 2.432 . S
O1115 C1132 1.268 . S
O1116 Eu1068 2.291 . S
O1116 C1131 1.255 . S
O1117 Eu1079 2.372 . S
O1117 C1131 1.257 . S
O1118 Eu1079 2.462 . S
O1118 C1143 1.252 . S
O1119 Eu1079 2.373 . S
O1119 C1135 1.249 . S
O1120 Eu1068 2.335 . S
O1120 C1135 1.264 . S
O1121 Eu1079 2.432 . S
O1121 C1143 1.268 . S
O1122 Eu1079 2.291 . S
O1122 C1142 1.255 . S
O1123 Eu1068 2.372 . S
O1123 C1142 1.257 . S
C1124 O1113 1.249 . S
C1124 O1114 1.264 . S
C1125 C1128 1.382 . S
C1125 C1130 1.390 . S
C1125 C1132 1.506 . S
C1126 C1127 1.398 . S
C1126 C1130 1.392 . S
C1127 C1126 1.398 . S
C1127 C1129 1.372 . S
C1127 H1144 0.931 . S
C1128 C1125 1.382 . S
C1128 C1129 1.390 . S
C1128 H1145 0.931 . S
C1129 C1127 1.372 . S
C1129 C1128 1.390 . S
C1129 H1146 0.929 . S
C1130 C1125 1.390 . S
C1130 C1126 1.392 . S
C1130 H1147 0.930 . S
C1131 O1116 1.255 . S
C1131 O1117 1.257 . S
C1132 Eu1068 2.787 . S
C1132 O1112 1.252 . S
C1132 O1115 1.268 . S
C1132 C1125 1.506 . S
C1133 C1100 1.439 . S
C1133 H1110 0.931 . S
C1133 C1134 1.374 . S
C1134 C1105 1.387 . S
C1134 H1111 0.931 . S
C1134 C1133 1.374 . S
C1135 O1119 1.249 . S
C1135 O1120 1.264 . S
C1136 C1139 1.382 . S
C1136 C1140 1.390 . S
C1136 C1143 1.506 . S
C1137 C1138 1.398 . S
C1137 C1140 1.392 . S
C1138 C1137 1.398 . S
C1138 C1141 1.372 . S
C1138 H1148 0.931 . S
C1139 C1136 1.382 . S
C1139 C1141 1.390 . S
C1139 H1149 0.931 . S
C1140 C1136 1.390 . S
C1140 C1137 1.392 . S
C1140 H1150 0.930 . S
C1141 C1138 1.372 . S
C1141 C1139 1.390 . S
C1141 H1151 0.929 . S
C1142 O1122 1.255 . S
C1142 O1123 1.257 . S
C1143 Eu1079 2.787 . S
C1143 O1118 1.252 . S
C1143 O1121 1.268 . S
C1143 C1136 1.506 . S
H1144 C1127 0.931 . S
H1145 C1128 0.931 . S
H1146 C1129 0.929 . S
H1147 C1130 0.930 . S
H1148 C1138 0.931 . S
H1149 C1139 0.931 . S
H1150 C1140 0.930 . S
H1151 C1141 0.929 . S
Eu1152 N1181 2.600 . S
Eu1152 N1187 2.562 1_455 S
Eu1152 O1196 2.462 . S
Eu1152 O1197 2.373 1_455 S
Eu1152 O1199 2.432 . S
Eu1152 O1200 2.291 . S
Eu1152 O1204 2.335 . S
Eu1152 O1207 2.372 . S
Eu1152 C1216 2.787 . S
C1153 N1154 1.365 . S
C1153 C1156 1.405 . S
C1153 C1160 1.448 . S
N1154 C1153 1.365 . S
N1154 C1157 1.319 . S
N1154 Eu1163 2.600 . S
C1155 C1157 1.397 . S
C1155 C1158 1.367 . S
C1155 H1175 0.931 . S
C1156 C1153 1.405 . S
C1156 C1158 1.403 . S
C1156 C1162 1.439 . S
C1157 N1154 1.319 . S
C1157 C1155 1.397 . S
C1157 H1168 0.930 . S
C1158 C1155 1.367 . S
C1158 C1156 1.403 . S
C1158 H1179 0.929 . S
C1159 C1160 1.430 . S
C1159 C1161 1.387 . S
C1159 C1165 1.404 . S
C1160 C1153 1.448 . S
C1160 C1159 1.430 . S
C1160 N1164 1.351 . S
C1161 C1159 1.387 . S
C1161 C1162 1.374 . S
C1161 H1176 0.931 . S
C1162 C1156 1.439 . S
C1162 C1161 1.374 . S
C1162 H1177 0.931 . S
Eu1163 N1154 2.600 . S
Eu1163 N1164 2.562 . S
Eu1163 O1198 2.335 1_455 S
Eu1163 O1201 2.372 . S
Eu1163 O1202 2.462 . S
Eu1163 O1203 2.373 . S
Eu1163 O1205 2.432 . S
Eu1163 O1206 2.291 . S
Eu1163 C1227 2.787 . S
N1164 C1160 1.351 . S
N1164 Eu1163 2.562 . S
N1164 C1166 1.325 . S
C1165 C1159 1.404 . S
C1165 C1167 1.366 . S
C1165 H1173 0.930 . S
C1166 N1164 1.325 . S
C1166 C1167 1.416 . S
C1166 H1172 0.929 . S
C1167 C1165 1.366 . S
C1167 C1166 1.416 . S
C1167 H1169 0.930 . S
H1168 C1157 0.930 . S
H1169 C1167 0.930 . S
H1170 C1185 0.930 . S
H1171 C1192 0.930 . S
H1172 C1166 0.929 . S
H1173 C1165 0.930 . S
H1174 C1188 0.929 1_455 S
H1175 C1155 0.931 . S
H1176 C1161 0.931 . S
H1177 C1162 0.931 . S
H1178 C1183 0.931 . S
H1179 C1158 0.929 . S
H1180 C1191 0.930 . S
N1181 Eu1152 2.600 . S
N1181 C1182 1.365 1_455 S
N1181 C1185 1.319 . S
C1182 N1181 1.365 1_655 S
C1182 C1184 1.405 . S
C1182 C1190 1.448 . S
C1183 H1178 0.931 . S
C1183 C1185 1.397 1_655 S
C1183 C1186 1.367 . S
C1184 C1182 1.405 . S
C1184 C1186 1.403 . S
C1184 C1217 1.439 . S
C1185 H1170 0.930 . S
C1185 N1181 1.319 . S
C1185 C1183 1.397 1_455 S
C1186 C1183 1.367 . S
C1186 C1184 1.403 . S
C1186 H1193 0.929 . S
N1187 Eu1152 2.562 1_655 S
N1187 C1188 1.325 . S
N1187 C1190 1.351 . S
C1188 H1174 0.929 1_655 S
C1188 N1187 1.325 . S
C1188 C1192 1.416 . S
C1189 C1190 1.430 . S
C1189 C1191 1.404 . S
C1189 C1218 1.387 . S
C1190 C1182 1.448 . S
C1190 N1187 1.351 . S
C1190 C1189 1.430 . S
C1191 H1180 0.930 . S
C1191 C1189 1.404 . S
C1191 C1192 1.366 . S
C1192 H1171 0.930 . S
C1192 C1188 1.416 . S
C1192 C1191 1.366 . S
H1193 C1186 0.929 . S
H1194 C1217 0.931 . S
H1195 C1218 0.931 . S
O1196 Eu1152 2.462 . S
O1196 C1216 1.252 . S
O1197 Eu1152 2.373 1_655 S
O1197 C1208 1.249 . S
O1198 Eu1163 2.335 1_655 S
O1198 C1208 1.264 . S
O1199 Eu1152 2.432 . S
O1199 C1216 1.268 . S
O1200 Eu1152 2.291 . S
O1200 C1215 1.255 . S
O1201 Eu1163 2.372 . S
O1201 C1215 1.257 . S
O1202 Eu1163 2.462 . S
O1202 C1227 1.252 . S
O1203 Eu1163 2.373 . S
O1203 C1219 1.249 . S
O1204 Eu1152 2.335 . S
O1204 C1219 1.264 . S
O1205 Eu1163 2.432 . S
O1205 C1227 1.268 . S
O1206 Eu1163 2.291 . S
O1206 C1226 1.255 . S
O1207 Eu1152 2.372 . S
O1207 C1226 1.257 . S
C1208 O1197 1.249 . S
C1208 O1198 1.264 . S
C1209 C1212 1.382 . S
C1209 C1214 1.390 . S
C1209 C1216 1.506 . S
C1210 C1211 1.398 . S
C1210 C1214 1.392 . S
C1211 C1210 1.398 . S
C1211 C1213 1.372 . S
C1211 H1228 0.931 . S
C1212 C1209 1.382 . S
C1212 C1213 1.390 . S
C1212 H1229 0.931 . S
C1213 C1211 1.372 . S
C1213 C1212 1.390 . S
C1213 H1230 0.929 . S
C1214 C1209 1.390 . S
C1214 C1210 1.392 . S
C1214 H1231 0.930 . S
C1215 O1200 1.255 . S
C1215 O1201 1.257 . S
C1216 Eu1152 2.787 . S
C1216 O1196 1.252 . S
C1216 O1199 1.268 . S
C1216 C1209 1.506 . S
C1217 C1184 1.439 . S
C1217 H1194 0.931 . S
C1217 C1218 1.374 . S
C1218 C1189 1.387 . S
C1218 H1195 0.931 . S
C1218 C1217 1.374 . S
C1219 O1203 1.249 . S
C1219 O1204 1.264 . S
C1220 C1223 1.382 . S
C1220 C1224 1.390 . S
C1220 C1227 1.506 1_655 S
C1221 C1222 1.398 . S
C1221 C1224 1.392 . S
C1222 C1221 1.398 . S
C1222 C1225 1.372 . S
C1222 H1232 0.931 . S
C1223 C1220 1.382 . S
C1223 C1225 1.390 . S
C1223 H1233 0.931 . S
C1224 C1220 1.390 . S
C1224 C1221 1.392 . S
C1224 H1234 0.930 . S
C1225 C1222 1.372 . S
C1225 C1223 1.390 . S
C1225 H1235 0.929 . S
C1226 O1206 1.255 . S
C1226 O1207 1.257 . S
C1227 Eu1163 2.787 . S
C1227 O1202 1.252 . S
C1227 O1205 1.268 . S
C1227 C1220 1.506 1_455 S
H1228 C1211 0.931 . S
H1229 C1212 0.931 . S
H1230 C1213 0.929 . S
H1231 C1214 0.930 . S
H1232 C1222 0.931 . S
H1233 C1223 0.931 . S
H1234 C1224 0.930 . S
H1235 C1225 0.929 . S
Eu1236 N1265 2.600 . S
Eu1236 N1271 2.562 . S
Eu1236 O1280 2.462 . S
Eu1236 O1281 2.373 . S
Eu1236 O1283 2.432 . S
Eu1236 O1284 2.291 . S
Eu1236 O1288 2.335 . S
Eu1236 O1291 2.372 . S
Eu1236 C1300 2.787 . S
C1237 N1238 1.365 . S
C1237 C1240 1.405 . S
C1237 C1244 1.448 . S
N1238 C1237 1.365 . S
N1238 C1241 1.319 . S
N1238 Eu1247 2.600 . S
C1239 C1241 1.397 . S
C1239 C1242 1.367 . S
C1239 H1259 0.931 . S
C1240 C1237 1.405 . S
C1240 C1242 1.403 . S
C1240 C1246 1.439 . S
C1241 N1238 1.319 . S
C1241 C1239 1.397 . S
C1241 H1252 0.930 . S
C1242 C1239 1.367 . S
C1242 C1240 1.403 . S
C1242 H1263 0.929 . S
C1243 C1244 1.430 . S
C1243 C1245 1.387 . S
C1243 C1249 1.404 . S
C1244 C1237 1.448 . S
C1244 C1243 1.430 . S
C1244 N1248 1.351 . S
C1245 C1243 1.387 . S
C1245 C1246 1.374 . S
C1245 H1260 0.931 . S
C1246 C1240 1.439 . S
C1246 C1245 1.374 . S
C1246 H1261 0.931 . S
Eu1247 N1238 2.600 . S
Eu1247 N1248 2.562 . S
Eu1247 O1282 2.335 . S
Eu1247 O1285 2.372 . S
Eu1247 O1286 2.462 . S
Eu1247 O1287 2.373 . S
Eu1247 O1289 2.432 . S
Eu1247 O1290 2.291 . S
Eu1247 C1311 2.787 . S
N1248 C1244 1.351 . S
N1248 Eu1247 2.562 . S
N1248 C1250 1.325 . S
C1249 C1243 1.404 . S
C1249 C1251 1.366 . S
C1249 H1257 0.930 . S
C1250 N1248 1.325 . S
C1250 C1251 1.416 . S
C1250 H1256 0.929 . S
C1251 C1249 1.366 . S
C1251 C1250 1.416 . S
C1251 H1253 0.930 . S
H1252 C1241 0.930 . S
H1253 C1251 0.930 . S
H1254 C1269 0.930 . S
H1255 C1276 0.930 . S
H1256 C1250 0.929 . S
H1257 C1249 0.930 . S
H1258 C1272 0.929 . S
H1259 C1239 0.931 . S
H1260 C1245 0.931 . S
H1261 C1246 0.931 . S
H1262 C1267 0.931 . S
H1263 C1242 0.929 . S
H1264 C1275 0.930 . S
N1265 Eu1236 2.600 . S
N1265 C1266 1.365 . S
N1265 C1269 1.319 . S
C1266 N1265 1.365 . S
C1266 C1268 1.405 . S
C1266 C1274 1.448 . S
C1267 H1262 0.931 . S
C1267 C1269 1.397 . S
C1267 C1270 1.367 . S
C1268 C1266 1.405 . S
C1268 C1270 1.403 . S
C1268 C1301 1.439 . S
C1269 H1254 0.930 . S
C1269 N1265 1.319 . S
C1269 C1267 1.397 . S
C1270 C1267 1.367 . S
C1270 C1268 1.403 . S
C1270 H1277 0.929 . S
N1271 Eu1236 2.562 . S
N1271 C1272 1.325 . S
N1271 C1274 1.351 . S
C1272 H1258 0.929 . S
C1272 N1271 1.325 . S
C1272 C1276 1.416 . S
C1273 C1274 1.430 . S
C1273 C1275 1.404 . S
C1273 C1302 1.387 . S
C1274 C1266 1.448 . S
C1274 N1271 1.351 . S
C1274 C1273 1.430 . S
C1275 H1264 0.930 . S
C1275 C1273 1.404 . S
C1275 C1276 1.366 . S
C1276 H1255 0.930 . S
C1276 C1272 1.416 . S
C1276 C1275 1.366 . S
H1277 C1270 0.929 . S
H1278 C1301 0.931 . S
H1279 C1302 0.931 . S
O1280 Eu1236 2.462 . S
O1280 C1300 1.252 . S
O1281 Eu1236 2.373 . S
O1281 C1292 1.249 . S
O1282 Eu1247 2.335 . S
O1282 C1292 1.264 . S
O1283 Eu1236 2.432 . S
O1283 C1300 1.268 . S
O1284 Eu1236 2.291 . S
O1284 C1299 1.255 . S
O1285 Eu1247 2.372 . S
O1285 C1299 1.257 . S
O1286 Eu1247 2.462 . S
O1286 C1311 1.252 . S
O1287 Eu1247 2.373 . S
O1287 C1303 1.249 . S
O1288 Eu1236 2.335 . S
O1288 C1303 1.264 . S
O1289 Eu1247 2.432 . S
O1289 C1311 1.268 . S
O1290 Eu1247 2.291 . S
O1290 C1310 1.255 . S
O1291 Eu1236 2.372 . S
O1291 C1310 1.257 . S
C1292 O1281 1.249 . S
C1292 O1282 1.264 . S
C1293 C1296 1.382 . S
C1293 C1298 1.390 . S
C1293 C1300 1.506 . S
C1294 C1295 1.398 . S
C1294 C1298 1.392 . S
C1295 C1294 1.398 . S
C1295 C1297 1.372 . S
C1295 H1312 0.931 . S
C1296 C1293 1.382 . S
C1296 C1297 1.390 . S
C1296 H1313 0.931 . S
C1297 C1295 1.372 . S
C1297 C1296 1.390 . S
C1297 H1314 0.929 . S
C1298 C1293 1.390 . S
C1298 C1294 1.392 . S
C1298 H1315 0.930 . S
C1299 O1284 1.255 . S
C1299 O1285 1.257 . S
C1300 Eu1236 2.787 . S
C1300 O1280 1.252 . S
C1300 O1283 1.268 . S
C1300 C1293 1.506 . S
C1301 C1268 1.439 . S
C1301 H1278 0.931 . S
C1301 C1302 1.374 . S
C1302 C1273 1.387 . S
C1302 H1279 0.931 . S
C1302 C1301 1.374 . S
C1303 O1287 1.249 . S
C1303 O1288 1.264 . S
C1304 C1307 1.382 . S
C1304 C1308 1.390 . S
C1304 C1311 1.506 . S
C1305 C1306 1.398 . S
C1305 C1308 1.392 . S
C1306 C1305 1.398 . S
C1306 C1309 1.372 . S
C1306 H1316 0.931 . S
C1307 C1304 1.382 . S
C1307 C1309 1.390 . S
C1307 H1317 0.931 . S
C1308 C1304 1.390 . S
C1308 C1305 1.392 . S
C1308 H1318 0.930 . S
C1309 C1306 1.372 . S
C1309 C1307 1.390 . S
C1309 H1319 0.929 . S
C1310 O1290 1.255 . S
C1310 O1291 1.257 . S
C1311 Eu1247 2.787 . S
C1311 O1286 1.252 . S
C1311 O1289 1.268 . S
C1311 C1304 1.506 . S
H1312 C1295 0.931 . S
H1313 C1296 0.931 . S
H1314 C1297 0.929 . S
H1315 C1298 0.930 . S
H1316 C1306 0.931 . S
H1317 C1307 0.931 . S
H1318 C1308 0.930 . S
H1319 C1309 0.929 . S
Eu1320 N1349 2.600 . S
Eu1320 N1355 2.562 . S
Eu1320 O1364 2.462 . S
Eu1320 O1365 2.373 . S
Eu1320 O1367 2.432 . S
Eu1320 O1368 2.291 . S
Eu1320 O1372 2.335 . S
Eu1320 O1375 2.372 . S
Eu1320 C1384 2.787 . S
C1321 N1322 1.365 . S
C1321 C1324 1.405 . S
C1321 C1328 1.448 . S
N1322 C1321 1.365 . S
N1322 C1325 1.319 . S
N1322 Eu1331 2.600 . S
C1323 C1325 1.397 . S
C1323 C1326 1.367 . S
C1323 H1343 0.931 . S
C1324 C1321 1.405 . S
C1324 C1326 1.403 . S
C1324 C1330 1.439 . S
C1325 N1322 1.319 . S
C1325 C1323 1.397 . S
C1325 H1336 0.930 . S
C1326 C1323 1.367 . S
C1326 C1324 1.403 . S
C1326 H1347 0.929 . S
C1327 C1328 1.430 . S
C1327 C1329 1.387 . S
C1327 C1333 1.404 . S
C1328 C1321 1.448 . S
C1328 C1327 1.430 . S
C1328 N1332 1.351 . S
C1329 C1327 1.387 . S
C1329 C1330 1.374 . S
C1329 H1344 0.931 . S
C1330 C1324 1.439 . S
C1330 C1329 1.374 . S
C1330 H1345 0.931 . S
Eu1331 N1322 2.600 . S
Eu1331 N1332 2.562 . S
Eu1331 O1366 2.335 . S
Eu1331 O1369 2.372 . S
Eu1331 O1370 2.462 . S
Eu1331 O1371 2.373 . S
Eu1331 O1373 2.432 . S
Eu1331 O1374 2.291 . S
Eu1331 C1395 2.787 . S
N1332 C1328 1.351 . S
N1332 Eu1331 2.562 . S
N1332 C1334 1.325 . S
C1333 C1327 1.404 . S
C1333 C1335 1.366 . S
C1333 H1341 0.930 . S
C1334 N1332 1.325 . S
C1334 C1335 1.416 . S
C1334 H1340 0.929 . S
C1335 C1333 1.366 . S
C1335 C1334 1.416 . S
C1335 H1337 0.930 . S
H1336 C1325 0.930 . S
H1337 C1335 0.930 . S
H1338 C1353 0.930 . S
H1339 C1360 0.930 . S
H1340 C1334 0.929 . S
H1341 C1333 0.930 . S
H1342 C1356 0.929 . S
H1343 C1323 0.931 . S
H1344 C1329 0.931 . S
H1345 C1330 0.931 . S
H1346 C1351 0.931 . S
H1347 C1326 0.929 . S
H1348 C1359 0.930 . S
N1349 Eu1320 2.600 . S
N1349 C1350 1.365 . S
N1349 C1353 1.319 . S
C1350 N1349 1.365 . S
C1350 C1352 1.405 . S
C1350 C1358 1.448 . S
C1351 H1346 0.931 . S
C1351 C1353 1.397 . S
C1351 C1354 1.367 . S
C1352 C1350 1.405 . S
C1352 C1354 1.403 . S
C1352 C1385 1.439 . S
C1353 H1338 0.930 . S
C1353 N1349 1.319 . S
C1353 C1351 1.397 . S
C1354 C1351 1.367 . S
C1354 C1352 1.403 . S
C1354 H1361 0.929 . S
N1355 Eu1320 2.562 . S
N1355 C1356 1.325 . S
N1355 C1358 1.351 . S
C1356 H1342 0.929 . S
C1356 N1355 1.325 . S
C1356 C1360 1.416 . S
C1357 C1358 1.430 . S
C1357 C1359 1.404 . S
C1357 C1386 1.387 . S
C1358 C1350 1.448 . S
C1358 N1355 1.351 . S
C1358 C1357 1.430 . S
C1359 H1348 0.930 . S
C1359 C1357 1.404 . S
C1359 C1360 1.366 . S
C1360 H1339 0.930 . S
C1360 C1356 1.416 . S
C1360 C1359 1.366 . S
H1361 C1354 0.929 . S
H1362 C1385 0.931 . S
H1363 C1386 0.931 . S
O1364 Eu1320 2.462 . S
O1364 C1384 1.252 . S
O1365 Eu1320 2.373 . S
O1365 C1376 1.249 . S
O1366 Eu1331 2.335 . S
O1366 C1376 1.264 . S
O1367 Eu1320 2.432 . S
O1367 C1384 1.268 . S
O1368 Eu1320 2.291 . S
O1368 C1383 1.255 . S
O1369 Eu1331 2.372 . S
O1369 C1383 1.257 . S
O1370 Eu1331 2.462 . S
O1370 C1395 1.252 . S
O1371 Eu1331 2.373 . S
O1371 C1387 1.249 . S
O1372 Eu1320 2.335 . S
O1372 C1387 1.264 . S
O1373 Eu1331 2.432 . S
O1373 C1395 1.268 . S
O1374 Eu1331 2.291 . S
O1374 C1394 1.255 . S
O1375 Eu1320 2.372 . S
O1375 C1394 1.257 . S
C1376 O1365 1.249 . S
C1376 O1366 1.264 . S
C1377 C1380 1.382 . S
C1377 C1382 1.390 . S
C1377 C1384 1.506 . S
C1378 C1379 1.398 . S
C1378 C1382 1.392 . S
C1379 C1378 1.398 . S
C1379 C1381 1.372 . S
C1379 H1396 0.931 . S
C1380 C1377 1.382 . S
C1380 C1381 1.390 . S
C1380 H1397 0.931 . S
C1381 C1379 1.372 . S
C1381 C1380 1.390 . S
C1381 H1398 0.929 . S
C1382 C1377 1.390 . S
C1382 C1378 1.392 . S
C1382 H1399 0.930 . S
C1383 O1368 1.255 . S
C1383 O1369 1.257 . S
C1384 Eu1320 2.787 . S
C1384 O1364 1.252 . S
C1384 O1367 1.268 . S
C1384 C1377 1.506 . S
C1385 C1352 1.439 . S
C1385 H1362 0.931 . S
C1385 C1386 1.374 . S
C1386 C1357 1.387 . S
C1386 H1363 0.931 . S
C1386 C1385 1.374 . S
C1387 O1371 1.249 . S
C1387 O1372 1.264 . S
C1388 C1391 1.382 . S
C1388 C1392 1.390 . S
C1388 C1395 1.506 . S
C1389 C1390 1.398 . S
C1389 C1392 1.392 . S
C1390 C1389 1.398 . S
C1390 C1393 1.372 . S
C1390 H1400 0.931 . S
C1391 C1388 1.382 . S
C1391 C1393 1.390 . S
C1391 H1401 0.931 . S
C1392 C1388 1.390 . S
C1392 C1389 1.392 . S
C1392 H1402 0.930 . S
C1393 C1390 1.372 . S
C1393 C1391 1.390 . S
C1393 H1403 0.929 . S
C1394 O1374 1.255 . S
C1394 O1375 1.257 . S
C1395 Eu1331 2.787 . S
C1395 O1370 1.252 . S
C1395 O1373 1.268 . S
C1395 C1388 1.506 . S
H1396 C1379 0.931 . S
H1397 C1380 0.931 . S
H1398 C1381 0.929 . S
H1399 C1382 0.930 . S
H1400 C1390 0.931 . S
H1401 C1391 0.931 . S
H1402 C1392 0.930 . S
H1403 C1393 0.929 . S
Eu1404 N1433 2.600 . S
Eu1404 N1439 2.562 . S
Eu1404 O1448 2.462 . S
Eu1404 O1449 2.373 . S
Eu1404 O1451 2.432 . S
Eu1404 O1452 2.291 . S
Eu1404 O1456 2.335 . S
Eu1404 O1459 2.372 . S
Eu1404 C1468 2.787 . S
C1405 N1406 1.365 . S
C1405 C1408 1.405 . S
C1405 C1412 1.448 . S
N1406 C1405 1.365 . S
N1406 C1409 1.319 . S
N1406 Eu1415 2.600 . S
C1407 C1409 1.397 . S
C1407 C1410 1.367 . S
C1407 H1427 0.931 . S
C1408 C1405 1.405 . S
C1408 C1410 1.403 . S
C1408 C1414 1.439 . S
C1409 N1406 1.319 . S
C1409 C1407 1.397 . S
C1409 H1420 0.930 . S
C1410 C1407 1.367 . S
C1410 C1408 1.403 . S
C1410 H1431 0.929 . S
C1411 C1412 1.430 . S
C1411 C1413 1.387 . S
C1411 C1417 1.404 . S
C1412 C1405 1.448 . S
C1412 C1411 1.430 . S
C1412 N1416 1.351 . S
C1413 C1411 1.387 . S
C1413 C1414 1.374 . S
C1413 H1428 0.931 . S
C1414 C1408 1.439 . S
C1414 C1413 1.374 . S
C1414 H1429 0.931 . S
Eu1415 N1406 2.600 . S
Eu1415 N1416 2.562 . S
Eu1415 O1450 2.335 . S
Eu1415 O1453 2.372 . S
Eu1415 O1454 2.462 . S
Eu1415 O1455 2.373 . S
Eu1415 O1457 2.432 . S
Eu1415 O1458 2.291 . S
Eu1415 C1479 2.787 . S
N1416 C1412 1.351 . S
N1416 Eu1415 2.562 . S
N1416 C1418 1.325 . S
C1417 C1411 1.404 . S
C1417 C1419 1.366 . S
C1417 H1425 0.930 . S
C1418 N1416 1.325 . S
C1418 C1419 1.416 . S
C1418 H1424 0.929 . S
C1419 C1417 1.366 . S
C1419 C1418 1.416 . S
C1419 H1421 0.930 . S
H1420 C1409 0.930 . S
H1421 C1419 0.930 . S
H1422 C1437 0.930 . S
H1423 C1444 0.930 . S
H1424 C1418 0.929 . S
H1425 C1417 0.930 . S
H1426 C1440 0.929 . S
H1427 C1407 0.931 . S
H1428 C1413 0.931 . S
H1429 C1414 0.931 . S
H1430 C1435 0.931 . S
H1431 C1410 0.929 . S
H1432 C1443 0.930 . S
N1433 Eu1404 2.600 . S
N1433 C1434 1.365 . S
N1433 C1437 1.319 . S
C1434 N1433 1.365 . S
C1434 C1436 1.405 . S
C1434 C1442 1.448 . S
C1435 H1430 0.931 . S
C1435 C1437 1.397 . S
C1435 C1438 1.367 . S
C1436 C1434 1.405 . S
C1436 C1438 1.403 . S
C1436 C1469 1.439 . S
C1437 H1422 0.930 . S
C1437 N1433 1.319 . S
C1437 C1435 1.397 . S
C1438 C1435 1.367 . S
C1438 C1436 1.403 . S
C1438 H1445 0.929 . S
N1439 Eu1404 2.562 . S
N1439 C1440 1.325 . S
N1439 C1442 1.351 . S
C1440 H1426 0.929 . S
C1440 N1439 1.325 . S
C1440 C1444 1.416 . S
C1441 C1442 1.430 . S
C1441 C1443 1.404 . S
C1441 C1470 1.387 . S
C1442 C1434 1.448 . S
C1442 N1439 1.351 . S
C1442 C1441 1.430 . S
C1443 H1432 0.930 . S
C1443 C1441 1.404 . S
C1443 C1444 1.366 . S
C1444 H1423 0.930 . S
C1444 C1440 1.416 . S
C1444 C1443 1.366 . S
H1445 C1438 0.929 . S
H1446 C1469 0.931 . S
H1447 C1470 0.931 . S
O1448 Eu1404 2.462 . S
O1448 C1468 1.252 . S
O1449 Eu1404 2.373 . S
O1449 C1460 1.249 . S
O1450 Eu1415 2.335 . S
O1450 C1460 1.264 . S
O1451 Eu1404 2.432 . S
O1451 C1468 1.268 . S
O1452 Eu1404 2.291 . S
O1452 C1467 1.255 . S
O1453 Eu1415 2.372 . S
O1453 C1467 1.257 . S
O1454 Eu1415 2.462 . S
O1454 C1479 1.252 . S
O1455 Eu1415 2.373 . S
O1455 C1471 1.249 . S
O1456 Eu1404 2.335 . S
O1456 C1471 1.264 . S
O1457 Eu1415 2.432 . S
O1457 C1479 1.268 . S
O1458 Eu1415 2.291 . S
O1458 C1478 1.255 . S
O1459 Eu1404 2.372 . S
O1459 C1478 1.257 . S
C1460 O1449 1.249 . S
C1460 O1450 1.264 . S
C1461 C1464 1.382 . S
C1461 C1466 1.390 . S
C1461 C1468 1.506 . S
C1462 C1463 1.398 . S
C1462 C1466 1.392 . S
C1463 C1462 1.398 . S
C1463 C1465 1.372 . S
C1463 H1480 0.931 . S
C1464 C1461 1.382 . S
C1464 C1465 1.390 . S
C1464 H1481 0.931 . S
C1465 C1463 1.372 . S
C1465 C1464 1.390 . S
C1465 H1482 0.929 . S
C1466 C1461 1.390 . S
C1466 C1462 1.392 . S
C1466 H1483 0.930 . S
C1467 O1452 1.255 . S
C1467 O1453 1.257 . S
C1468 Eu1404 2.787 . S
C1468 O1448 1.252 . S
C1468 O1451 1.268 . S
C1468 C1461 1.506 . S
C1469 C1436 1.439 . S
C1469 H1446 0.931 . S
C1469 C1470 1.374 . S
C1470 C1441 1.387 . S
C1470 H1447 0.931 . S
C1470 C1469 1.374 . S
C1471 O1455 1.249 . S
C1471 O1456 1.264 . S
C1472 C1475 1.382 . S
C1472 C1476 1.390 . S
C1472 C1479 1.506 . S
C1473 C1474 1.398 . S
C1473 C1476 1.392 . S
C1474 C1473 1.398 . S
C1474 C1477 1.372 . S
C1474 H1484 0.931 . S
C1475 C1472 1.382 . S
C1475 C1477 1.390 . S
C1475 H1485 0.931 . S
C1476 C1472 1.390 . S
C1476 C1473 1.392 . S
C1476 H1486 0.930 . S
C1477 C1474 1.372 . S
C1477 C1475 1.390 . S
C1477 H1487 0.929 . S
C1478 O1458 1.255 . S
C1478 O1459 1.257 . S
C1479 Eu1415 2.787 . S
C1479 O1454 1.252 . S
C1479 O1457 1.268 . S
C1479 C1472 1.506 . S
H1480 C1463 0.931 . S
H1481 C1464 0.931 . S
H1482 C1465 0.929 . S
H1483 C1466 0.930 . S
H1484 C1474 0.931 . S
H1485 C1475 0.931 . S
H1486 C1476 0.930 . S
H1487 C1477 0.929 . S
Eu1488 N1517 2.600 . S
Eu1488 N1523 2.562 . S
Eu1488 O1532 2.462 . S
Eu1488 O1533 2.373 . S
Eu1488 O1535 2.432 . S
Eu1488 O1536 2.291 . S
Eu1488 O1540 2.335 . S
Eu1488 O1543 2.372 . S
Eu1488 C1552 2.787 . S
C1489 N1490 1.365 . S
C1489 C1492 1.405 . S
C1489 C1496 1.448 . S
N1490 C1489 1.365 . S
N1490 C1493 1.319 . S
N1490 Eu1499 2.600 . S
C1491 C1493 1.397 . S
C1491 C1494 1.367 . S
C1491 H1511 0.931 . S
C1492 C1489 1.405 . S
C1492 C1494 1.403 . S
C1492 C1498 1.439 . S
C1493 N1490 1.319 . S
C1493 C1491 1.397 . S
C1493 H1504 0.930 . S
C1494 C1491 1.367 . S
C1494 C1492 1.403 . S
C1494 H1515 0.929 . S
C1495 C1496 1.430 . S
C1495 C1497 1.387 . S
C1495 C1501 1.404 . S
C1496 C1489 1.448 . S
C1496 C1495 1.430 . S
C1496 N1500 1.351 . S
C1497 C1495 1.387 . S
C1497 C1498 1.374 . S
C1497 H1512 0.931 . S
C1498 C1492 1.439 . S
C1498 C1497 1.374 . S
C1498 H1513 0.931 . S
Eu1499 N1490 2.600 . S
Eu1499 N1500 2.562 . S
Eu1499 O1534 2.335 . S
Eu1499 O1537 2.372 . S
Eu1499 O1538 2.462 . S
Eu1499 O1539 2.373 . S
Eu1499 O1541 2.432 . S
Eu1499 O1542 2.291 . S
Eu1499 C1563 2.787 . S
N1500 C1496 1.351 . S
N1500 Eu1499 2.562 . S
N1500 C1502 1.325 . S
C1501 C1495 1.404 . S
C1501 C1503 1.366 . S
C1501 H1509 0.930 . S
C1502 N1500 1.325 . S
C1502 C1503 1.416 . S
C1502 H1508 0.929 . S
C1503 C1501 1.366 . S
C1503 C1502 1.416 . S
C1503 H1505 0.930 . S
H1504 C1493 0.930 . S
H1505 C1503 0.930 . S
H1506 C1521 0.930 . S
H1507 C1528 0.930 . S
H1508 C1502 0.929 . S
H1509 C1501 0.930 . S
H1510 C1524 0.929 . S
H1511 C1491 0.931 . S
H1512 C1497 0.931 . S
H1513 C1498 0.931 . S
H1514 C1519 0.931 . S
H1515 C1494 0.929 . S
H1516 C1527 0.930 . S
N1517 Eu1488 2.600 . S
N1517 C1518 1.365 . S
N1517 C1521 1.319 . S
C1518 N1517 1.365 . S
C1518 C1520 1.405 . S
C1518 C1526 1.448 . S
C1519 H1514 0.931 . S
C1519 C1521 1.397 . S
C1519 C1522 1.367 . S
C1520 C1518 1.405 . S
C1520 C1522 1.403 . S
C1520 C1553 1.439 . S
C1521 H1506 0.930 . S
C1521 N1517 1.319 . S
C1521 C1519 1.397 . S
C1522 C1519 1.367 . S
C1522 C1520 1.403 . S
C1522 H1529 0.929 . S
N1523 Eu1488 2.562 . S
N1523 C1524 1.325 . S
N1523 C1526 1.351 . S
C1524 H1510 0.929 . S
C1524 N1523 1.325 . S
C1524 C1528 1.416 . S
C1525 C1526 1.430 . S
C1525 C1527 1.404 . S
C1525 C1554 1.387 . S
C1526 C1518 1.448 . S
C1526 N1523 1.351 . S
C1526 C1525 1.430 . S
C1527 H1516 0.930 . S
C1527 C1525 1.404 . S
C1527 C1528 1.366 . S
C1528 H1507 0.930 . S
C1528 C1524 1.416 . S
C1528 C1527 1.366 . S
H1529 C1522 0.929 . S
H1530 C1553 0.931 . S
H1531 C1554 0.931 . S
O1532 Eu1488 2.462 . S
O1532 C1552 1.252 . S
O1533 Eu1488 2.373 . S
O1533 C1544 1.249 . S
O1534 Eu1499 2.335 . S
O1534 C1544 1.264 . S
O1535 Eu1488 2.432 . S
O1535 C1552 1.268 . S
O1536 Eu1488 2.291 . S
O1536 C1551 1.255 . S
O1537 Eu1499 2.372 . S
O1537 C1551 1.257 . S
O1538 Eu1499 2.462 . S
O1538 C1563 1.252 . S
O1539 Eu1499 2.373 . S
O1539 C1555 1.249 . S
O1540 Eu1488 2.335 . S
O1540 C1555 1.264 . S
O1541 Eu1499 2.432 . S
O1541 C1563 1.268 . S
O1542 Eu1499 2.291 . S
O1542 C1562 1.255 . S
O1543 Eu1488 2.372 . S
O1543 C1562 1.257 . S
C1544 O1533 1.249 . S
C1544 O1534 1.264 . S
C1545 C1548 1.382 . S
C1545 C1550 1.390 . S
C1545 C1552 1.506 . S
C1546 C1547 1.398 . S
C1546 C1550 1.392 . S
C1547 C1546 1.398 . S
C1547 C1549 1.372 . S
C1547 H1564 0.931 . S
C1548 C1545 1.382 . S
C1548 C1549 1.390 . S
C1548 H1565 0.931 . S
C1549 C1547 1.372 . S
C1549 C1548 1.390 . S
C1549 H1566 0.929 . S
C1550 C1545 1.390 . S
C1550 C1546 1.392 . S
C1550 H1567 0.930 . S
C1551 O1536 1.255 . S
C1551 O1537 1.257 . S
C1552 Eu1488 2.787 . S
C1552 O1532 1.252 . S
C1552 O1535 1.268 . S
C1552 C1545 1.506 . S
C1553 C1520 1.439 . S
C1553 H1530 0.931 . S
C1553 C1554 1.374 . S
C1554 C1525 1.387 . S
C1554 H1531 0.931 . S
C1554 C1553 1.374 . S
C1555 O1539 1.249 . S
C1555 O1540 1.264 . S
C1556 C1559 1.382 . S
C1556 C1560 1.390 . S
C1556 C1563 1.506 . S
C1557 C1558 1.398 . S
C1557 C1560 1.392 . S
C1558 C1557 1.398 . S
C1558 C1561 1.372 . S
C1558 H1568 0.931 . S
C1559 C1556 1.382 . S
C1559 C1561 1.390 . S
C1559 H1569 0.931 . S
C1560 C1556 1.390 . S
C1560 C1557 1.392 . S
C1560 H1570 0.930 . S
C1561 C1558 1.372 . S
C1561 C1559 1.390 . S
C1561 H1571 0.929 . S
C1562 O1542 1.255 . S
C1562 O1543 1.257 . S
C1563 Eu1499 2.787 . S
C1563 O1538 1.252 . S
C1563 O1541 1.268 . S
C1563 C1556 1.506 . S
H1564 C1547 0.931 . S
H1565 C1548 0.931 . S
H1566 C1549 0.929 . S
H1567 C1550 0.930 . S
H1568 C1558 0.931 . S
H1569 C1559 0.931 . S
H1570 C1560 0.930 . S
H1571 C1561 0.929 . S
Eu1572 N1601 2.600 1_455 S
Eu1572 N1607 2.562 1_455 S
Eu1572 O1616 2.462 1_455 S
Eu1572 O1617 2.373 . S
Eu1572 O1619 2.432 1_455 S
Eu1572 O1620 2.291 . S
Eu1572 O1624 2.335 . S
Eu1572 O1627 2.372 . S
Eu1572 C1636 2.787 1_455 S
C1573 N1574 1.365 . S
C1573 C1576 1.405 . S
C1573 C1580 1.448 1_556 S
N1574 C1573 1.365 . S
N1574 C1577 1.319 . S
N1574 Eu1583 2.600 1_556 S
C1575 C1577 1.397 . S
C1575 C1578 1.367 . S
C1575 H1595 0.931 . S
C1576 C1573 1.405 . S
C1576 C1578 1.403 . S
C1576 C1582 1.439 . S
C1577 N1574 1.319 . S
C1577 C1575 1.397 . S
C1577 H1588 0.930 . S
C1578 C1575 1.367 . S
C1578 C1576 1.403 . S
C1578 H1599 0.929 . S
C1579 C1580 1.430 . S
C1579 C1581 1.387 1_554 S
C1579 C1585 1.404 . S
C1580 C1573 1.448 1_554 S
C1580 C1579 1.430 . S
C1580 N1584 1.351 . S
C1581 C1579 1.387 1_556 S
C1581 C1582 1.374 . S
C1581 H1596 0.931 1_556 S
C1582 C1576 1.439 . S
C1582 C1581 1.374 . S
C1582 H1597 0.931 . S
Eu1583 N1574 2.600 1_554 S
Eu1583 N1584 2.562 . S
Eu1583 O1618 2.335 . S
Eu1583 O1621 2.372 1_554 S
Eu1583 O1622 2.462 . S
Eu1583 O1623 2.373 . S
Eu1583 O1625 2.432 1_554 S
Eu1583 O1626 2.291 . S
Eu1583 C1647 2.787 1_554 S
N1584 C1580 1.351 . S
N1584 Eu1583 2.562 . S
N1584 C1586 1.325 . S
C1585 C1579 1.404 . S
C1585 C1587 1.366 . S
C1585 H1593 0.930 . S
C1586 N1584 1.325 . S
C1586 C1587 1.416 . S
C1586 H1592 0.929 . S
C1587 C1585 1.366 . S
C1587 C1586 1.416 . S
C1587 H1589 0.930 . S
H1588 C1577 0.930 . S
H1589 C1587 0.930 . S
H1590 C1605 0.949 . S
H1591 C1612 0.930 . S
H1592 C1586 0.929 . S
H1593 C1585 0.930 . S
H1594 C1608 0.929 1_556 S
H1595 C1575 0.931 . S
H1596 C1581 0.931 1_554 S
H1597 C1582 0.931 . S
H1598 C1603 0.931 1_455 S
H1599 C1578 0.929 . S
H1600 C1611 0.930 . S
N1601 Eu1572 2.600 1_655 S
N1601 C1602 1.365 . S
N1601 C1605 1.307 1_655 S
C1602 N1601 1.365 . S
C1602 C1604 1.405 . S
C1602 C1610 1.448 . S
C1603 H1598 0.931 1_655 S
C1603 C1605 1.393 1_655 S
C1603 C1606 1.367 . S
C1604 C1602 1.405 . S
C1604 C1606 1.403 . S
C1604 C1637 1.439 . S
C1605 H1590 0.949 . S
C1605 N1601 1.307 1_455 S
C1605 C1603 1.393 1_455 S
C1606 C1603 1.367 . S
C1606 C1604 1.403 . S
C1606 H1613 0.929 . S
N1607 Eu1572 2.562 1_655 S
N1607 C1608 1.325 . S
N1607 C1610 1.351 . S
C1608 H1594 0.929 1_554 S
C1608 N1607 1.325 . S
C1608 C1612 1.416 1_554 S
C1609 C1610 1.430 . S
C1609 C1611 1.404 . S
C1609 C1638 1.387 . S
C1610 C1602 1.448 . S
C1610 N1607 1.351 . S
C1610 C1609 1.430 . S
C1611 H1600 0.930 . S
C1611 C1609 1.404 . S
C1611 C1612 1.366 1_554 S
C1612 H1591 0.930 . S
C1612 C1608 1.416 1_556 S
C1612 C1611 1.366 1_556 S
H1613 C1606 0.929 . S
H1614 C1637 0.931 . S
H1615 C1638 0.931 . S
O1616 Eu1572 2.462 1_655 S
O1616 C1636 1.252 . S
O1617 Eu1572 2.373 . S
O1617 C1628 1.249 . S
O1618 Eu1583 2.335 . S
O1618 C1628 1.264 . S
O1619 Eu1572 2.432 1_655 S
O1619 C1636 1.268 . S
O1620 Eu1572 2.291 . S
O1620 C1635 1.255 1_554 S
O1621 Eu1583 2.372 1_556 S
O1621 C1635 1.257 . S
O1622 Eu1583 2.462 . S
O1622 C1647 1.252 1_554 S
O1623 Eu1583 2.373 . S
O1623 C1639 1.249 . S
O1624 Eu1572 2.335 . S
O1624 C1639 1.264 . S
O1625 Eu1583 2.432 1_556 S
O1625 C1647 1.268 . S
O1626 Eu1583 2.291 . S
O1626 C1646 1.255 . S
O1627 Eu1572 2.372 . S
O1627 C1646 1.257 . S
C1628 O1617 1.249 . S
C1628 O1618 1.264 . S
C1629 C1632 1.382 . S
C1629 C1634 1.390 . S
C1629 C1636 1.506 . S
C1630 C1631 1.398 . S
C1630 C1634 1.392 . S
C1631 C1630 1.398 . S
C1631 C1633 1.372 . S
C1631 H1648 0.931 . S
C1632 C1629 1.382 . S
C1632 C1633 1.390 . S
C1632 H1649 0.931 . S
C1633 C1631 1.372 . S
C1633 C1632 1.390 . S
C1633 H1650 0.929 . S
C1634 C1629 1.390 . S
C1634 C1630 1.392 . S
C1634 H1651 0.930 . S
C1635 O1620 1.255 1_556 S
C1635 O1621 1.257 . S
C1636 Eu1572 2.787 1_655 S
C1636 O1616 1.252 . S
C1636 O1619 1.268 . S
C1636 C1629 1.506 . S
C1637 C1604 1.439 . S
C1637 H1614 0.931 . S
C1637 C1638 1.374 . S
C1638 C1609 1.387 . S
C1638 H1615 0.931 . S
C1638 C1637 1.374 . S
C1639 O1623 1.249 . S
C1639 O1624 1.264 . S
C1640 C1643 1.382 . S
C1640 C1644 1.390 1_556 S
C1640 C1647 1.506 . S
C1641 C1642 1.398 1_554 S
C1641 C1644 1.392 . S
C1642 C1641 1.398 1_556 S
C1642 C1645 1.372 . S
C1642 H1652 0.931 . S
C1643 C1640 1.382 . S
C1643 C1645 1.390 . S
C1643 H1653 0.931 . S
C1644 C1640 1.390 1_554 S
C1644 C1641 1.392 . S
C1644 H1654 0.930 . S
C1645 C1642 1.372 . S
C1645 C1643 1.390 . S
C1645 H1655 0.929 . S
C1646 O1626 1.255 . S
C1646 O1627 1.257 . S
C1647 Eu1583 2.787 1_556 S
C1647 O1622 1.252 1_556 S
C1647 O1625 1.268 . S
C1647 C1640 1.506 . S
H1648 C1631 0.931 . S
H1649 C1632 0.931 . S
H1650 C1633 0.929 . S
H1651 C1634 0.930 . S
H1652 C1642 0.931 . S
H1653 C1643 0.931 . S
H1654 C1644 0.930 . S
H1655 C1645 0.929 . S
H1656 C1668 0.944 . S
H1657 C1670 0.930 . S
H1658 C1671 0.930 . S
H1659 C1675 0.959 . S
H1660 C1675 0.959 . S
H1661 C1675 0.961 . S
H1662 C1676 0.960 . S
H1663 C1676 0.961 . S
H1664 C1676 0.959 . S
H1665 C1679 0.929 . S
H1666 C1680 0.938 . S
H1667 C1682 0.930 1_655 S
C1668 H1656 0.944 . S
C1668 C1669 1.399 1_655 S
C1668 C1673 1.399 . S
C1669 C1668 1.399 1_455 S
C1669 C1670 1.376 . S
C1670 H1657 0.930 . S
C1670 C1669 1.376 . S
C1670 C1671 1.388 . S
C1671 H1658 0.930 . S
C1671 C1670 1.388 . S
C1671 C1672 1.390 . S
C1672 C1671 1.390 . S
C1672 C1673 1.394 1_455 S
C1672 C1678 1.465 . S
C1673 C1668 1.399 . S
C1673 C1672 1.394 1_655 S
C1673 C1674 1.516 1_556 S
C1674 C1673 1.516 1_554 S
C1674 C1675 1.502 . S
C1674 C1676 1.561 1_554 S
C1674 C1677 1.526 1_655 S
C1675 H1659 0.959 . S
C1675 H1660 0.959 . S
C1675 H1661 0.961 . S
C1675 C1674 1.502 . S
C1676 H1662 0.960 . S
C1676 H1663 0.961 . S
C1676 H1664 0.959 . S
C1676 C1674 1.561 1_556 S
C1677 C1674 1.526 1_455 S
C1677 C1678 1.396 1_554 S
C1677 C1682 1.390 . S
C1678 C1672 1.465 . S
C1678 C1677 1.396 1_556 S
C1678 C1679 1.399 . S
C1679 H1665 0.929 . S
C1679 C1678 1.399 . S
C1679 C1680 1.385 1_556 S
C1680 H1666 0.938 . S
C1680 C1679 1.385 1_554 S
C1680 C1681 1.389 . S
C1681 C1680 1.389 . S
C1681 C1682 1.387 . S
C1682 H1667 0.930 1_455 S
C1682 C1677 1.390 . S
C1682 C1681 1.387 . S
H1683 C1695 0.930 . S
H1684 C1697 0.930 . S
H1685 C1698 0.930 . S
H1686 C1702 0.959 . S
H1687 C1702 0.959 . S
H1688 C1702 0.961 . S
H1689 C1703 0.960 . S
H1690 C1703 0.961 . S
H1691 C1703 0.959 . S
H1692 C1706 0.929 . S
H1693 C1707 0.931 . S
H1694 C1709 0.930 . S
C1695 H1683 0.930 . S
C1695 C1696 1.399 . S
C1695 C1700 1.399 . S
C1696 C1695 1.399 . S
C1696 C1697 1.376 . S
C1697 H1684 0.930 . S
C1697 C1696 1.376 . S
C1697 C1698 1.388 . S
C1698 H1685 0.930 . S
C1698 C1697 1.388 . S
C1698 C1699 1.390 . S
C1699 C1698 1.390 . S
C1699 C1700 1.394 . S
C1699 C1705 1.465 . S
C1700 C1695 1.399 . S
C1700 C1699 1.394 . S
C1700 C1701 1.516 . S
C1701 C1700 1.516 . S
C1701 C1702 1.502 . S
C1701 C1703 1.561 . S
C1701 C1704 1.526 . S
C1702 H1686 0.959 . S
C1702 H1687 0.959 . S
C1702 H1688 0.961 . S
C1702 C1701 1.502 . S
C1703 H1689 0.960 . S
C1703 H1690 0.961 . S
C1703 H1691 0.959 . S
C1703 C1701 1.561 . S
C1704 C1701 1.526 . S
C1704 C1705 1.396 . S
C1704 C1709 1.390 . S
C1705 C1699 1.465 . S
C1705 C1704 1.396 . S
C1705 C1706 1.399 . S
C1706 H1692 0.929 . S
C1706 C1705 1.399 . S
C1706 C1707 1.385 . S
C1707 H1693 0.931 . S
C1707 C1706 1.385 . S
C1707 C1708 1.389 . S
C1708 C1707 1.389 . S
C1708 C1709 1.387 . S
C1709 H1694 0.930 . S
C1709 C1704 1.390 . S
C1709 C1708 1.387 . S
H1710 C1722 0.930 . S
H1711 C1724 0.930 . S
H1712 C1725 0.930 . S
H1713 C1729 0.959 . S
H1714 C1729 0.959 . S
H1715 C1729 0.961 . S
H1716 C1730 0.960 . S
H1717 C1730 0.961 . S
H1718 C1730 0.959 . S
H1719 C1733 0.929 . S
H1720 C1734 0.931 . S
H1721 C1736 0.930 . S
C1722 H1710 0.930 . S
C1722 C1723 1.399 . S
C1722 C1727 1.399 . S
C1723 C1722 1.399 . S
C1723 C1724 1.376 . S
C1724 H1711 0.930 . S
C1724 C1723 1.376 . S
C1724 C1725 1.388 . S
C1725 H1712 0.930 . S
C1725 C1724 1.388 . S
C1725 C1726 1.390 . S
C1726 C1725 1.390 . S
C1726 C1727 1.394 . S
C1726 C1732 1.465 . S
C1727 C1722 1.399 . S
C1727 C1726 1.394 . S
C1727 C1728 1.516 . S
C1728 C1727 1.516 . S
C1728 C1729 1.502 . S
C1728 C1730 1.561 . S
C1728 C1731 1.526 . S
C1729 H1713 0.959 . S
C1729 H1714 0.959 . S
C1729 H1715 0.961 . S
C1729 C1728 1.502 . S
C1730 H1716 0.960 . S
C1730 H1717 0.961 . S
C1730 H1718 0.959 . S
C1730 C1728 1.561 . S
C1731 C1728 1.526 . S
C1731 C1732 1.396 . S
C1731 C1736 1.390 . S
C1732 C1726 1.465 . S
C1732 C1731 1.396 . S
C1732 C1733 1.399 . S
C1733 H1719 0.929 . S
C1733 C1732 1.399 . S
C1733 C1734 1.385 . S
C1734 H1720 0.931 . S
C1734 C1733 1.385 . S
C1734 C1735 1.389 . S
C1735 C1734 1.389 . S
C1735 C1736 1.387 . S
C1736 H1721 0.930 . S
C1736 C1731 1.390 . S
C1736 C1735 1.387 . S
H1737 C1749 0.930 . S
H1738 C1751 0.930 . S
H1739 C1752 0.930 . S
H1740 C1756 0.959 . S
H1741 C1756 0.959 . S
H1742 C1756 0.961 . S
H1743 C1757 0.960 . S
H1744 C1757 0.961 . S
H1745 C1757 0.959 . S
H1746 C1760 0.929 . S
H1747 C1761 0.931 . S
H1748 C1763 0.930 . S
C1749 H1737 0.930 . S
C1749 C1750 1.399 . S
C1749 C1754 1.399 . S
C1750 C1749 1.399 . S
C1750 C1751 1.376 . S
C1751 H1738 0.930 . S
C1751 C1750 1.376 . S
C1751 C1752 1.388 . S
C1752 H1739 0.930 . S
C1752 C1751 1.388 . S
C1752 C1753 1.390 . S
C1753 C1752 1.390 . S
C1753 C1754 1.394 . S
C1753 C1759 1.465 . S
C1754 C1749 1.399 . S
C1754 C1753 1.394 . S
C1754 C1755 1.516 . S
C1755 C1754 1.516 . S
C1755 C1756 1.502 . S
C1755 C1757 1.561 . S
C1755 C1758 1.526 . S
C1756 H1740 0.959 . S
C1756 H1741 0.959 . S
C1756 H1742 0.961 . S
C1756 C1755 1.502 . S
C1757 H1743 0.960 . S
C1757 H1744 0.961 . S
C1757 H1745 0.959 . S
C1757 C1755 1.561 . S
C1758 C1755 1.526 . S
C1758 C1759 1.396 . S
C1758 C1763 1.390 . S
C1759 C1753 1.465 . S
C1759 C1758 1.396 . S
C1759 C1760 1.399 . S
C1760 H1746 0.929 . S
C1760 C1759 1.399 . S
C1760 C1761 1.385 . S
C1761 H1747 0.931 . S
C1761 C1760 1.385 . S
C1761 C1762 1.389 . S
C1762 C1761 1.389 . S
C1762 C1763 1.387 . S
C1763 H1748 0.930 . S
C1763 C1758 1.390 . S
C1763 C1762 1.387 . S
H1764 C1776 0.930 . S
H1765 C1778 0.930 . S
H1766 C1779 0.930 . S
H1767 C1783 0.959 . S
H1768 C1783 0.959 . S
H1769 C1783 0.961 . S
H1770 C1784 0.960 . S
H1771 C1784 0.961 . S
H1772 C1784 0.959 . S
H1773 C1787 0.929 . S
H1774 C1788 0.931 1_655 S
H1775 C1790 0.930 . S
C1776 H1764 0.930 . S
C1776 C1777 1.399 . S
C1776 C1781 1.399 . S
C1777 C1776 1.399 . S
C1777 C1778 1.376 1_455 S
C1778 H1765 0.930 . S
C1778 C1777 1.376 1_655 S
C1778 C1779 1.388 . S
C1779 H1766 0.930 . S
C1779 C1778 1.388 . S
C1779 C1780 1.390 1_655 S
C1780 C1779 1.390 1_455 S
C1780 C1781 1.394 . S
C1780 C1786 1.465 . S
C1781 C1776 1.399 . S
C1781 C1780 1.394 . S
C1781 C1782 1.516 . S
C1782 C1781 1.516 . S
C1782 C1783 1.502 . S
C1782 C1784 1.561 . S
C1782 C1785 1.526 . S
C1783 H1767 0.959 . S
C1783 H1768 0.959 . S
C1783 H1769 0.961 . S
C1783 C1782 1.502 . S
C1784 H1770 0.960 . S
C1784 H1771 0.961 . S
C1784 H1772 0.959 . S
C1784 C1782 1.561 . S
C1785 C1782 1.526 . S
C1785 C1786 1.396 . S
C1785 C1790 1.390 . S
C1786 C1780 1.465 . S
C1786 C1785 1.396 . S
C1786 C1787 1.399 1_455 S
C1787 H1773 0.929 . S
C1787 C1786 1.399 1_655 S
C1787 C1788 1.385 1_655 S
C1788 H1774 0.931 1_455 S
C1788 C1787 1.385 1_455 S
C1788 C1789 1.389 . S
C1789 C1788 1.389 . S
C1789 C1790 1.387 . S
C1790 H1775 0.930 . S
C1790 C1785 1.390 . S
C1790 C1789 1.387 . S
H1791 C1803 0.930 . S
H1792 C1805 0.930 . S
H1793 C1806 0.930 . S
H1794 C1810 0.959 . S
H1795 C1810 0.959 . S
H1796 C1810 0.961 . S
H1797 C1811 0.960 . S
H1798 C1811 0.961 . S
H1799 C1811 0.959 . S
H1800 C1814 0.929 . S
H1801 C1815 0.931 . S
H1802 C1817 0.930 . S
C1803 H1791 0.930 . S
C1803 C1804 1.399 . S
C1803 C1808 1.399 . S
C1804 C1803 1.399 . S
C1804 C1805 1.376 . S
C1805 H1792 0.930 . S
C1805 C1804 1.376 . S
C1805 C1806 1.388 . S
C1806 H1793 0.930 . S
C1806 C1805 1.388 . S
C1806 C1807 1.390 . S
C1807 C1806 1.390 . S
C1807 C1808 1.394 . S
C1807 C1813 1.465 . S
C1808 C1803 1.399 . S
C1808 C1807 1.394 . S
C1808 C1809 1.516 . S
C1809 C1808 1.516 . S
C1809 C1810 1.502 . S
C1809 C1811 1.561 . S
C1809 C1812 1.526 . S
C1810 H1794 0.959 . S
C1810 H1795 0.959 . S
C1810 H1796 0.961 . S
C1810 C1809 1.502 . S
C1811 H1797 0.960 . S
C1811 H1798 0.961 . S
C1811 H1799 0.959 . S
C1811 C1809 1.561 . S
C1812 C1809 1.526 . S
C1812 C1813 1.396 . S
C1812 C1817 1.390 . S
C1813 C1807 1.465 . S
C1813 C1812 1.396 . S
C1813 C1814 1.399 . S
C1814 H1800 0.929 . S
C1814 C1813 1.399 . S
C1814 C1815 1.385 . S
C1815 H1801 0.931 . S
C1815 C1814 1.385 . S
C1815 C1816 1.389 . S
C1816 C1815 1.389 . S
C1816 C1817 1.387 . S
C1817 H1802 0.930 . S
C1817 C1812 1.390 . S
C1817 C1816 1.387 . S
H1818 C1830 0.930 . S
H1819 C1832 0.930 . S
H1820 C1833 0.930 . S
H1821 C1837 0.959 . S
H1822 C1837 0.959 . S
H1823 C1837 0.961 . S
H1824 C1838 0.960 . S
H1825 C1838 0.961 . S
H1826 C1838 0.959 . S
H1827 C1841 0.929 . S
H1828 C1842 0.931 . S
H1829 C1844 0.930 . S
C1830 H1818 0.930 . S
C1830 C1831 1.399 . S
C1830 C1835 1.399 . S
C1831 C1830 1.399 . S
C1831 C1832 1.376 . S
C1832 H1819 0.930 . S
C1832 C1831 1.376 . S
C1832 C1833 1.388 . S
C1833 H1820 0.930 . S
C1833 C1832 1.388 . S
C1833 C1834 1.390 . S
C1834 C1833 1.390 . S
C1834 C1835 1.394 . S
C1834 C1840 1.465 . S
C1835 C1830 1.399 . S
C1835 C1834 1.394 . S
C1835 C1836 1.516 . S
C1836 C1835 1.516 . S
C1836 C1837 1.502 . S
C1836 C1838 1.561 . S
C1836 C1839 1.526 . S
C1837 H1821 0.959 . S
C1837 H1822 0.959 . S
C1837 H1823 0.961 . S
C1837 C1836 1.502 . S
C1838 H1824 0.960 . S
C1838 H1825 0.961 . S
C1838 H1826 0.959 . S
C1838 C1836 1.561 . S
C1839 C1836 1.526 . S
C1839 C1840 1.396 . S
C1839 C1844 1.390 . S
C1840 C1834 1.465 . S
C1840 C1839 1.396 . S
C1840 C1841 1.399 . S
C1841 H1827 0.929 . S
C1841 C1840 1.399 . S
C1841 C1842 1.385 . S
C1842 H1828 0.931 . S
C1842 C1841 1.385 . S
C1842 C1843 1.389 . S
C1843 C1842 1.389 . S
C1843 C1844 1.387 . S
C1844 H1829 0.930 . S
C1844 C1839 1.390 . S
C1844 C1843 1.387 . S
H1845 C1857 0.930 . S
H1846 C1859 0.930 . S
H1847 C1860 0.930 . S
H1848 C1864 0.959 . S
H1849 C1864 0.959 . S
H1850 C1864 0.961 . S
H1851 C1865 0.960 . S
H1852 C1865 0.961 . S
H1853 C1865 0.959 . S
H1854 C1868 0.929 . S
H1855 C1869 0.931 . S
H1856 C1871 0.930 . S
C1857 H1845 0.930 . S
C1857 C1858 1.399 . S
C1857 C1862 1.399 . S
C1858 C1857 1.399 . S
C1858 C1859 1.376 . S
C1859 H1846 0.930 . S
C1859 C1858 1.376 . S
C1859 C1860 1.388 . S
C1860 H1847 0.930 . S
C1860 C1859 1.388 . S
C1860 C1861 1.390 . S
C1861 C1860 1.390 . S
C1861 C1862 1.394 . S
C1861 C1867 1.465 . S
C1862 C1857 1.399 . S
C1862 C1861 1.394 . S
C1862 C1863 1.516 . S
C1863 C1862 1.516 . S
C1863 C1864 1.502 . S
C1863 C1865 1.561 . S
C1863 C1866 1.526 . S
C1864 H1848 0.959 . S
C1864 H1849 0.959 . S
C1864 H1850 0.961 . S
C1864 C1863 1.502 . S
C1865 H1851 0.960 . S
C1865 H1852 0.961 . S
C1865 H1853 0.959 . S
C1865 C1863 1.561 . S
C1866 C1863 1.526 . S
C1866 C1867 1.396 . S
C1866 C1871 1.390 . S
C1867 C1861 1.465 . S
C1867 C1866 1.396 . S
C1867 C1868 1.399 . S
C1868 H1854 0.929 . S
C1868 C1867 1.399 . S
C1868 C1869 1.385 . S
C1869 H1855 0.931 . S
C1869 C1868 1.385 . S
C1869 C1870 1.389 . S
C1870 C1869 1.389 . S
C1870 C1871 1.387 . S
C1871 H1856 0.930 . S
C1871 C1866 1.390 . S
C1871 C1870 1.387 . S
H1872 C1884 0.930 1_565 S
H1873 C1886 0.930 . S
H1874 C1887 0.930 . S
H1875 C1891 0.959 1_545 S
H1876 C1891 0.959 . S
H1877 C1891 0.961 1_655 S
H1878 C1892 0.960 . S
H1879 C1892 0.961 . S
H1880 C1892 0.959 . S
H1881 C1895 0.929 . S
H1882 C1896 0.931 . S
H1883 C1898 0.930 1_455 S
C1884 H1872 0.930 1_545 S
C1884 C1885 1.399 . S
C1884 C1889 1.399 . S
C1885 C1884 1.399 . S
C1885 C1886 1.376 . S
C1886 H1873 0.930 . S
C1886 C1885 1.376 . S
C1886 C1887 1.388 . S
C1887 H1874 0.930 . S
C1887 C1886 1.388 . S
C1887 C1888 1.390 . S
C1888 C1887 1.390 . S
C1888 C1889 1.394 . S
C1888 C1894 1.465 . S
C1889 C1884 1.399 . S
C1889 C1888 1.394 . S
C1889 C1890 1.516 1_545 S
C1890 C1889 1.516 1_565 S
C1890 C1891 1.502 1_655 S
C1890 C1892 1.561 . S
C1890 C1893 1.526 1_565 S
C1891 H1875 0.959 1_565 S
C1891 H1876 0.959 . S
C1891 H1877 0.961 1_455 S
C1891 C1890 1.502 1_455 S
C1892 H1878 0.960 . S
C1892 H1879 0.961 . S
C1892 H1880 0.959 . S
C1892 C1890 1.561 . S
C1893 C1890 1.526 1_545 S
C1893 C1894 1.396 . S
C1893 C1898 1.390 . S
C1894 C1888 1.465 . S
C1894 C1893 1.396 . S
C1894 C1895 1.399 . S
C1895 H1881 0.929 . S
C1895 C1894 1.399 . S
C1895 C1896 1.385 . S
C1896 H1882 0.931 . S
C1896 C1895 1.385 . S
C1896 C1897 1.358 1_655 S
C1897 C1896 1.358 1_455 S
C1897 C1898 1.388 1_455 S
C1898 H1883 0.930 1_655 S
C1898 C1893 1.390 . S
C1898 C1897 1.388 1_655 S
H1899 C1911 0.930 . S
H1900 C1913 0.930 . S
H1901 C1914 0.930 . S
H1902 C1918 0.959 . S
H1903 C1918 0.959 . S
H1904 C1918 0.961 . S
H1905 C1919 0.960 . S
H1906 C1919 0.961 . S
H1907 C1919 0.959 . S
H1908 C1922 0.929 . S
H1909 C1923 0.931 . S
H1910 C1925 0.930 . S
C1911 H1899 0.930 . S
C1911 C1912 1.399 . S
C1911 C1916 1.399 . S
C1912 C1911 1.399 . S
C1912 C1913 1.376 . S
C1913 H1900 0.930 . S
C1913 C1912 1.376 . S
C1913 C1914 1.388 . S
C1914 H1901 0.930 . S
C1914 C1913 1.388 . S
C1914 C1915 1.390 . S
C1915 C1914 1.390 . S
C1915 C1916 1.394 . S
C1915 C1921 1.465 . S
C1916 C1911 1.399 . S
C1916 C1915 1.394 . S
C1916 C1917 1.516 . S
C1917 C1916 1.516 . S
C1917 C1918 1.502 . S
C1917 C1919 1.561 . S
C1917 C1920 1.526 . S
C1918 H1902 0.959 . S
C1918 H1903 0.959 . S
C1918 H1904 0.961 . S
C1918 C1917 1.502 . S
C1919 H1905 0.960 . S
C1919 H1906 0.961 . S
C1919 H1907 0.959 . S
C1919 C1917 1.561 . S
C1920 C1917 1.526 . S
C1920 C1921 1.396 . S
C1920 C1925 1.390 . S
C1921 C1915 1.465 . S
C1921 C1920 1.396 . S
C1921 C1922 1.399 . S
C1922 H1908 0.929 . S
C1922 C1921 1.399 . S
C1922 C1923 1.385 . S
C1923 H1909 0.931 . S
C1923 C1922 1.385 . S
C1923 C1924 1.389 . S
C1924 C1923 1.389 . S
C1924 C1925 1.387 . S
C1925 H1910 0.930 . S
C1925 C1920 1.390 . S
C1925 C1924 1.387 . S
H1926 C1938 0.930 . S
H1927 C1940 0.930 . S
H1928 C1941 0.930 . S
H1929 C1945 0.959 . S
H1930 C1945 0.959 . S
H1931 C1945 0.961 . S
H1932 C1946 0.960 . S
H1933 C1946 0.961 . S
H1934 C1946 0.959 . S
H1935 C1949 0.929 . S
H1936 C1950 0.931 . S
H1937 C1952 0.930 . S
C1938 H1926 0.930 . S
C1938 C1939 1.399 . S
C1938 C1943 1.399 . S
C1939 C1938 1.399 . S
C1939 C1940 1.376 . S
C1940 H1927 0.930 . S
C1940 C1939 1.376 . S
C1940 C1941 1.388 . S
C1941 H1928 0.930 . S
C1941 C1940 1.388 . S
C1941 C1942 1.390 . S
C1942 C1941 1.390 . S
C1942 C1943 1.394 . S
C1942 C1948 1.465 . S
C1943 C1938 1.399 . S
C1943 C1942 1.394 . S
C1943 C1944 1.516 . S
C1944 C1943 1.516 . S
C1944 C1945 1.502 . S
C1944 C1946 1.561 1_545 S
C1944 C1947 1.526 . S
C1945 H1929 0.959 . S
C1945 H1930 0.959 . S
C1945 H1931 0.961 . S
C1945 C1944 1.502 . S
C1946 H1932 0.960 . S
C1946 H1933 0.961 . S
C1946 H1934 0.959 . S
C1946 C1944 1.561 1_565 S
C1947 C1944 1.526 . S
C1947 C1948 1.396 . S
C1947 C1952 1.390 . S
C1948 C1942 1.465 . S
C1948 C1947 1.396 . S
C1948 C1949 1.399 . S
C1949 H1935 0.929 . S
C1949 C1948 1.399 . S
C1949 C1950 1.385 . S
C1950 H1936 0.931 . S
C1950 C1949 1.385 . S
C1950 C1951 1.389 . S
C1951 C1950 1.389 . S
C1951 C1952 1.387 . S
C1952 H1937 0.930 . S
C1952 C1947 1.390 . S
C1952 C1951 1.387 . S
H1953 C1965 0.930 . S
H1954 C1967 0.930 . S
H1955 C1968 0.930 . S
H1956 C1972 0.959 . S
H1957 C1972 0.959 . S
H1958 C1972 0.961 . S
H1959 C1973 0.960 . S
H1960 C1973 0.961 . S
H1961 C1973 0.959 . S
H1962 C1976 0.929 . S
H1963 C1977 0.931 . S
H1964 C1979 0.930 . S
C1965 H1953 0.930 . S
C1965 C1966 1.399 . S
C1965 C1970 1.399 . S
C1966 C1965 1.399 . S
C1966 C1967 1.376 . S
C1967 H1954 0.930 . S
C1967 C1966 1.376 . S
C1967 C1968 1.388 . S
C1968 H1955 0.930 . S
C1968 C1967 1.388 . S
C1968 C1969 1.390 . S
C1969 C1968 1.390 . S
C1969 C1970 1.394 . S
C1969 C1975 1.465 . S
C1970 C1965 1.399 . S
C1970 C1969 1.394 . S
C1970 C1971 1.516 . S
C1971 C1970 1.516 . S
C1971 C1972 1.502 . S
C1971 C1973 1.561 . S
C1971 C1974 1.526 . S
C1972 H1956 0.959 . S
C1972 H1957 0.959 . S
C1972 H1958 0.961 . S
C1972 C1971 1.502 . S
C1973 H1959 0.960 . S
C1973 H1960 0.961 . S
C1973 H1961 0.959 . S
C1973 C1971 1.561 . S
C1974 C1971 1.526 . S
C1974 C1975 1.396 . S
C1974 C1979 1.390 . S
C1975 C1969 1.465 . S
C1975 C1974 1.396 . S
C1975 C1976 1.399 . S
C1976 H1962 0.929 . S
C1976 C1975 1.399 . S
C1976 C1977 1.385 . S
C1977 H1963 0.931 . S
C1977 C1976 1.385 . S
C1977 C1978 1.389 . S
C1978 C1977 1.389 . S
C1978 C1979 1.387 . S
C1979 H1964 0.930 . S
C1979 C1974 1.390 . S
C1979 C1978 1.387 . S
H1980 C1992 0.930 . S
H1981 C1994 0.930 1_565 S
H1982 C1995 0.914 1_565 S
H1983 C1999 0.959 . S
H1984 C1999 0.959 . S
H1985 C1999 0.961 . S
H1986 C2000 0.960 . S
H1987 C2000 0.961 1_455 S
H1988 C2000 0.959 . S
H1989 C2003 0.929 1_565 S
H1990 C2004 0.931 1_565 S
H1991 C2006 0.930 . S
C1992 H1980 0.930 . S
C1992 C1993 1.399 . S
C1992 C1997 1.399 . S
C1993 C1992 1.399 . S
C1993 C1994 1.376 . S
C1994 H1981 0.930 1_545 S
C1994 C1993 1.376 . S
C1994 C1995 1.395 . S
C1995 H1982 0.914 1_545 S
C1995 C1994 1.395 . S
C1995 C1996 1.400 . S
C1996 C1995 1.400 . S
C1996 C1997 1.394 . S
C1996 C2002 1.465 . S
C1997 C1992 1.399 . S
C1997 C1996 1.394 . S
C1997 C1998 1.516 . S
C1998 C1997 1.516 . S
C1998 C1999 1.502 1_655 S
C1998 C2000 1.561 . S
C1998 C2001 1.526 . S
C1999 H1983 0.959 . S
C1999 H1984 0.959 . S
C1999 H1985 0.961 . S
C1999 C1998 1.502 1_455 S
C2000 H1986 0.960 . S
C2000 H1987 0.961 1_655 S
C2000 H1988 0.959 . S
C2000 C1998 1.561 . S
C2001 C1998 1.526 . S
C2001 C2002 1.396 . S
C2001 C2006 1.390 1_655 S
C2002 C1996 1.465 . S
C2002 C2001 1.396 . S
C2002 C2003 1.399 . S
C2003 H1989 0.929 1_545 S
C2003 C2002 1.399 . S
C2003 C2004 1.385 . S
C2004 H1990 0.931 1_545 S
C2004 C2003 1.385 . S
C2004 C2005 1.389 1_655 S
C2005 C2004 1.389 1_455 S
C2005 C2006 1.387 . S
C2006 H1991 0.930 . S
C2006 C2001 1.390 1_455 S
C2006 C2005 1.387 . S
H2007 C2019 0.930 . S
H2008 C2021 0.930 . S
H2009 C2022 0.930 . S
H2010 C2026 0.959 . S
H2011 C2026 0.959 . S
H2012 C2026 0.961 . S
H2013 C2027 0.960 . S
H2014 C2027 0.961 . S
H2015 C2027 0.959 . S
H2016 C2030 0.929 . S
H2017 C2031 0.931 . S
H2018 C2033 0.930 . S
C2019 H2007 0.930 . S
C2019 C2020 1.399 . S
C2019 C2024 1.399 . S
C2020 C2019 1.399 . S
C2020 C2021 1.376 . S
C2021 H2008 0.930 . S
C2021 C2020 1.376 . S
C2021 C2022 1.388 . S
C2022 H2009 0.930 . S
C2022 C2021 1.388 . S
C2022 C2023 1.390 . S
C2023 C2022 1.390 . S
C2023 C2024 1.394 . S
C2023 C2029 1.465 . S
C2024 C2019 1.399 . S
C2024 C2023 1.394 . S
C2024 C2025 1.516 . S
C2025 C2024 1.516 . S
C2025 C2026 1.502 . S
C2025 C2027 1.561 . S
C2025 C2028 1.526 . S
C2026 H2010 0.959 . S
C2026 H2011 0.959 . S
C2026 H2012 0.961 . S
C2026 C2025 1.502 . S
C2027 H2013 0.960 . S
C2027 H2014 0.961 . S
C2027 H2015 0.959 . S
C2027 C2025 1.561 . S
C2028 C2025 1.526 . S
C2028 C2029 1.396 . S
C2028 C2033 1.390 . S
C2029 C2023 1.465 . S
C2029 C2028 1.396 . S
C2029 C2030 1.399 . S
C2030 H2016 0.929 . S
C2030 C2029 1.399 . S
C2030 C2031 1.385 . S
C2031 H2017 0.931 . S
C2031 C2030 1.385 . S
C2031 C2032 1.389 . S
C2032 C2031 1.389 . S
C2032 C2033 1.387 . S
C2033 H2018 0.930 . S
C2033 C2028 1.390 . S
C2033 C2032 1.387 . S
H2034 C2046 0.930 . S
H2035 C2048 0.930 . S
H2036 C2049 0.930 . S
H2037 C2053 0.959 . S
H2038 C2053 0.959 . S
H2039 C2053 0.961 . S
H2040 C2054 0.960 . S
H2041 C2054 0.955 1_565 S
H2042 C2054 0.959 . S
H2043 C2057 0.929 . S
H2044 C2058 0.931 . S
H2045 C2060 0.930 . S
C2046 H2034 0.930 . S
C2046 C2047 1.399 . S
C2046 C2051 1.399 . S
C2047 C2046 1.399 . S
C2047 C2048 1.376 . S
C2048 H2035 0.930 . S
C2048 C2047 1.376 . S
C2048 C2049 1.388 . S
C2049 H2036 0.930 . S
C2049 C2048 1.388 . S
C2049 C2050 1.390 . S
C2050 C2049 1.390 . S
C2050 C2051 1.394 . S
C2050 C2056 1.465 . S
C2051 C2046 1.399 . S
C2051 C2050 1.394 . S
C2051 C2052 1.516 . S
C2052 C2051 1.516 . S
C2052 C2053 1.502 . S
C2052 C2054 1.561 . S
C2052 C2055 1.526 . S
C2053 H2037 0.959 . S
C2053 H2038 0.959 . S
C2053 H2039 0.961 . S
C2053 C2052 1.502 . S
C2054 H2040 0.960 . S
C2054 H2041 0.955 1_545 S
C2054 H2042 0.959 . S
C2054 C2052 1.561 . S
C2055 C2052 1.526 . S
C2055 C2056 1.396 . S
C2055 C2060 1.390 . S
C2056 C2050 1.465 . S
C2056 C2055 1.396 . S
C2056 C2057 1.399 . S
C2057 H2043 0.929 . S
C2057 C2056 1.399 . S
C2057 C2058 1.385 . S
C2058 H2044 0.931 . S
C2058 C2057 1.385 . S
C2058 C2059 1.389 . S
C2059 C2058 1.389 . S
C2059 C2060 1.387 . S
C2060 H2045 0.930 . S
C2060 C2055 1.390 . S
C2060 C2059 1.387 . S
H2061 C2073 0.930 . S
H2062 C2075 0.930 . S
H2063 C2076 0.930 . S
H2064 C2080 0.959 . S
H2065 C2080 0.959 . S
H2066 C2080 0.961 . S
H2067 C2081 0.960 . S
H2068 C2081 0.961 . S
H2069 C2081 0.959 . S
H2070 C2084 0.929 . S
H2071 C2085 0.931 . S
H2072 C2087 0.930 . S
C2073 H2061 0.930 . S
C2073 C2074 1.399 . S
C2073 C2078 1.399 . S
C2074 C2073 1.399 . S
C2074 C2075 1.376 . S
C2075 H2062 0.930 . S
C2075 C2074 1.376 . S
C2075 C2076 1.388 . S
C2076 H2063 0.930 . S
C2076 C2075 1.388 . S
C2076 C2077 1.390 . S
C2077 C2076 1.390 . S
C2077 C2078 1.394 . S
C2077 C2083 1.465 . S
C2078 C2073 1.399 . S
C2078 C2077 1.394 . S
C2078 C2079 1.516 . S
C2079 C2078 1.516 . S
C2079 C2080 1.502 . S
C2079 C2081 1.561 . S
C2079 C2082 1.526 . S
C2080 H2064 0.959 . S
C2080 H2065 0.959 . S
C2080 H2066 0.961 . S
C2080 C2079 1.502 . S
C2081 H2067 0.960 . S
C2081 H2068 0.961 . S
C2081 H2069 0.959 . S
C2081 C2079 1.561 . S
C2082 C2079 1.526 . S
C2082 C2083 1.396 . S
C2082 C2087 1.390 . S
C2083 C2077 1.465 . S
C2083 C2082 1.396 . S
C2083 C2084 1.399 . S
C2084 H2070 0.929 . S
C2084 C2083 1.399 . S
C2084 C2085 1.385 . S
C2085 H2071 0.931 . S
C2085 C2084 1.385 . S
C2085 C2086 1.389 . S
C2086 C2085 1.389 . S
C2086 C2087 1.387 . S
C2087 H2072 0.930 . S
C2087 C2082 1.390 . S
C2087 C2086 1.387 . S
H2088 C2100 0.930 . S
H2089 C2102 0.930 . S
H2090 C2103 0.930 . S
H2091 C2107 0.959 . S
H2092 C2107 0.959 . S
H2093 C2107 0.961 . S
H2094 C2108 0.960 . S
H2095 C2108 0.961 . S
H2096 C2108 0.959 . S
H2097 C2111 0.929 . S
H2098 C2112 0.931 . S
H2099 C2114 0.889 1_546 S
C2100 H2088 0.930 . S
C2100 C2101 1.413 . S
C2100 C2105 1.399 . S
C2101 C2100 1.413 . S
C2101 C2102 1.348 1_556 S
C2102 H2089 0.930 . S
C2102 C2101 1.348 1_554 S
C2102 C2103 1.388 . S
C2103 H2090 0.930 . S
C2103 C2102 1.388 . S
C2103 C2104 1.390 . S
C2104 C2103 1.390 . S
C2104 C2105 1.394 1_554 S
C2104 C2110 1.465 . S
C2105 C2100 1.399 . S
C2105 C2104 1.394 1_556 S
C2105 C2106 1.516 . S
C2106 C2105 1.516 . S
C2106 C2107 1.502 1_565 S
C2106 C2108 1.561 . S
C2106 C2109 1.526 1_556 S
C2107 H2091 0.959 . S
C2107 H2092 0.959 . S
C2107 H2093 0.961 . S
C2107 C2106 1.502 1_545 S
C2108 H2094 0.960 . S
C2108 H2095 0.961 . S
C2108 H2096 0.959 . S
C2108 C2106 1.561 . S
C2109 C2106 1.526 1_554 S
C2109 C2110 1.396 . S
C2109 C2114 1.411 . S
C2110 C2104 1.465 . S
C2110 C2109 1.396 . S
C2110 C2111 1.399 . S
C2111 H2097 0.929 . S
C2111 C2110 1.399 . S
C2111 C2112 1.385 . S
C2112 H2098 0.931 . S
C2112 C2111 1.385 . S
C2112 C2113 1.389 . S
C2113 C2112 1.389 . S
C2113 C2114 1.391 . S
C2114 H2099 0.889 1_564 S
C2114 C2109 1.411 . S
C2114 C2113 1.391 . S
H2115 C2127 0.930 . S
H2116 C2129 0.930 . S
H2117 C2130 0.930 . S
H2118 C2134 0.959 . S
H2119 C2134 0.959 . S
H2120 C2134 0.961 . S
H2121 C2135 0.960 . S
H2122 C2135 0.961 . S
H2123 C2135 0.959 . S
H2124 C2138 0.929 . S
H2125 C2139 0.931 . S
H2126 C2141 0.930 . S
C2127 H2115 0.930 . S
C2127 C2128 1.399 . S
C2127 C2132 1.399 . S
C2128 C2127 1.399 . S
C2128 C2129 1.376 1_554 S
C2129 H2116 0.930 . S
C2129 C2128 1.376 1_556 S
C2129 C2130 1.388 . S
C2130 H2117 0.930 . S
C2130 C2129 1.388 . S
C2130 C2131 1.390 1_556 S
C2131 C2130 1.390 1_554 S
C2131 C2132 1.394 . S
C2131 C2137 1.465 . S
C2132 C2127 1.399 . S
C2132 C2131 1.394 . S
C2132 C2133 1.516 . S
C2133 C2132 1.516 . S
C2133 C2134 1.502 . S
C2133 C2135 1.561 . S
C2133 C2136 1.526 . S
C2134 H2118 0.959 . S
C2134 H2119 0.959 . S
C2134 H2120 0.961 . S
C2134 C2133 1.502 . S
C2135 H2121 0.960 . S
C2135 H2122 0.961 . S
C2135 H2123 0.959 . S
C2135 C2133 1.561 . S
C2136 C2133 1.526 . S
C2136 C2137 1.396 . S
C2136 C2141 1.390 . S
C2137 C2131 1.465 . S
C2137 C2136 1.396 . S
C2137 C2138 1.399 1_554 S
C2138 H2124 0.929 . S
C2138 C2137 1.399 1_556 S
C2138 C2139 1.385 . S
C2139 H2125 0.931 . S
C2139 C2138 1.385 . S
C2139 C2140 1.389 1_556 S
C2140 C2139 1.389 1_554 S
C2140 C2141 1.387 . S
C2141 H2126 0.930 . S
C2141 C2136 1.390 . S
C2141 C2140 1.387 . S
H2142 C2154 0.930 . S
H2143 C2156 0.930 . S
H2144 C2157 0.930 . S
H2145 C2161 0.959 . S
H2146 C2161 0.959 . S
H2147 C2161 0.961 . S
H2148 C2162 0.960 . S
H2149 C2162 0.961 . S
H2150 C2162 0.959 . S
H2151 C2165 0.929 . S
H2152 C2166 0.931 . S
H2153 C2168 0.930 . S
C2154 H2142 0.930 . S
C2154 C2155 1.399 . S
C2154 C2159 1.399 . S
C2155 C2154 1.399 . S
C2155 C2156 1.376 . S
C2156 H2143 0.930 . S
C2156 C2155 1.376 . S
C2156 C2157 1.388 . S
C2157 H2144 0.930 . S
C2157 C2156 1.388 . S
C2157 C2158 1.390 . S
C2158 C2157 1.390 . S
C2158 C2159 1.394 . S
C2158 C2164 1.465 . S
C2159 C2154 1.399 . S
C2159 C2158 1.394 . S
C2159 C2160 1.516 . S
C2160 C2159 1.516 . S
C2160 C2161 1.502 . S
C2160 C2162 1.561 . S
C2160 C2163 1.526 . S
C2161 H2145 0.959 . S
C2161 H2146 0.959 . S
C2161 H2147 0.961 . S
C2161 C2160 1.502 . S
C2162 H2148 0.960 . S
C2162 H2149 0.961 . S
C2162 H2150 0.959 . S
C2162 C2160 1.561 . S
C2163 C2160 1.526 . S
C2163 C2164 1.396 . S
C2163 C2168 1.390 . S
C2164 C2158 1.465 . S
C2164 C2163 1.396 . S
C2164 C2165 1.399 . S
C2165 H2151 0.929 . S
C2165 C2164 1.399 . S
C2165 C2166 1.385 . S
C2166 H2152 0.931 . S
C2166 C2165 1.385 . S
C2166 C2167 1.389 . S
C2167 C2166 1.389 . S
C2167 C2168 1.387 . S
C2168 H2153 0.930 . S
C2168 C2163 1.390 . S
C2168 C2167 1.387 . S
H2169 C2181 0.930 . S
H2170 C2183 0.930 . S
H2171 C2184 0.930 . S
H2172 C2188 0.959 . S
H2173 C2188 0.959 . S
H2174 C2188 0.961 . S
H2175 C2189 0.960 . S
H2176 C2189 0.961 . S
H2177 C2189 0.959 . S
H2178 C2192 0.929 . S
H2179 C2193 0.931 . S
H2180 C2195 0.930 . S
C2181 H2169 0.930 . S
C2181 C2182 1.399 . S
C2181 C2186 1.399 . S
C2182 C2181 1.399 . S
C2182 C2183 1.376 . S
C2183 H2170 0.930 . S
C2183 C2182 1.376 . S
C2183 C2184 1.388 . S
C2184 H2171 0.930 . S
C2184 C2183 1.388 . S
C2184 C2185 1.390 . S
C2185 C2184 1.390 . S
C2185 C2186 1.394 . S
C2185 C2191 1.465 . S
C2186 C2181 1.399 . S
C2186 C2185 1.394 . S
C2186 C2187 1.516 . S
C2187 C2186 1.516 . S
C2187 C2188 1.502 . S
C2187 C2189 1.561 . S
C2187 C2190 1.526 . S
C2188 H2172 0.959 . S
C2188 H2173 0.959 . S
C2188 H2174 0.961 . S
C2188 C2187 1.502 . S
C2189 H2175 0.960 . S
C2189 H2176 0.961 . S
C2189 H2177 0.959 . S
C2189 C2187 1.561 . S
C2190 C2187 1.526 . S
C2190 C2191 1.396 . S
C2190 C2195 1.390 . S
C2191 C2185 1.465 . S
C2191 C2190 1.396 . S
C2191 C2192 1.399 . S
C2192 H2178 0.929 . S
C2192 C2191 1.399 . S
C2192 C2193 1.385 . S
C2193 H2179 0.931 . S
C2193 C2192 1.385 . S
C2193 C2194 1.389 . S
C2194 C2193 1.389 . S
C2194 C2195 1.387 . S
C2195 H2180 0.930 . S
C2195 C2190 1.390 . S
C2195 C2194 1.387 . S
H2196 C2208 0.930 . S
H2197 C2210 0.930 . S
H2198 C2211 0.930 . S
H2199 C2215 0.959 . S
H2200 C2215 0.959 . S
H2201 C2215 0.961 . S
H2202 C2216 0.960 . S
H2203 C2216 0.961 . S
H2204 C2216 0.959 . S
H2205 C2219 0.929 . S
H2206 C2220 0.931 . S
H2207 C2222 0.930 . S
C2208 H2196 0.930 . S
C2208 C2209 1.399 . S
C2208 C2213 1.399 . S
C2209 C2208 1.399 . S
C2209 C2210 1.376 . S
C2210 H2197 0.930 . S
C2210 C2209 1.376 . S
C2210 C2211 1.388 . S
C2211 H2198 0.930 . S
C2211 C2210 1.388 . S
C2211 C2212 1.390 . S
C2212 C2211 1.390 . S
C2212 C2213 1.394 . S
C2212 C2218 1.465 . S
C2213 C2208 1.399 . S
C2213 C2212 1.394 . S
C2213 C2214 1.516 . S
C2214 C2213 1.516 . S
C2214 C2215 1.502 . S
C2214 C2216 1.561 . S
C2214 C2217 1.526 . S
C2215 H2199 0.959 . S
C2215 H2200 0.959 . S
C2215 H2201 0.961 . S
C2215 C2214 1.502 . S
C2216 H2202 0.960 . S
C2216 H2203 0.961 . S
C2216 H2204 0.959 . S
C2216 C2214 1.561 . S
C2217 C2214 1.526 . S
C2217 C2218 1.396 . S
C2217 C2222 1.390 . S
C2218 C2212 1.465 . S
C2218 C2217 1.396 . S
C2218 C2219 1.399 . S
C2219 H2205 0.929 . S
C2219 C2218 1.399 . S
C2219 C2220 1.385 . S
C2220 H2206 0.931 . S
C2220 C2219 1.385 . S
C2220 C2221 1.389 . S
C2221 C2220 1.389 . S
C2221 C2222 1.387 . S
C2222 H2207 0.930 . S
C2222 C2217 1.390 . S
C2222 C2221 1.387 . S
H2223 C2235 0.930 . S
H2224 C2237 0.930 . S
H2225 C2238 0.930 . S
H2226 C2242 0.959 . S
H2227 C2242 0.959 . S
H2228 C2242 0.961 . S
H2229 C2243 0.960 . S
H2230 C2243 0.961 . S
H2231 C2243 0.959 . S
H2232 C2246 0.929 . S
H2233 C2247 0.931 . S
H2234 C2249 0.930 . S
C2235 H2223 0.930 . S
C2235 C2236 1.399 . S
C2235 C2240 1.399 . S
C2236 C2235 1.399 . S
C2236 C2237 1.376 . S
C2237 H2224 0.930 . S
C2237 C2236 1.376 . S
C2237 C2238 1.388 . S
C2238 H2225 0.930 . S
C2238 C2237 1.388 . S
C2238 C2239 1.390 . S
C2239 C2238 1.390 . S
C2239 C2240 1.394 . S
C2239 C2245 1.465 . S
C2240 C2235 1.399 . S
C2240 C2239 1.394 . S
C2240 C2241 1.516 . S
C2241 C2240 1.516 . S
C2241 C2242 1.502 . S
C2241 C2243 1.561 . S
C2241 C2244 1.526 . S
C2242 H2226 0.959 . S
C2242 H2227 0.959 . S
C2242 H2228 0.961 . S
C2242 C2241 1.502 . S
C2243 H2229 0.960 . S
C2243 H2230 0.961 . S
C2243 H2231 0.959 . S
C2243 C2241 1.561 . S
C2244 C2241 1.526 . S
C2244 C2245 1.396 . S
C2244 C2249 1.390 . S
C2245 C2239 1.465 . S
C2245 C2244 1.396 . S
C2245 C2246 1.399 . S
C2246 H2232 0.929 . S
C2246 C2245 1.399 . S
C2246 C2247 1.385 . S
C2247 H2233 0.931 . S
C2247 C2246 1.385 . S
C2247 C2248 1.389 . S
C2248 C2247 1.389 . S
C2248 C2249 1.387 . S
C2249 H2234 0.930 . S
C2249 C2244 1.390 . S
C2249 C2248 1.387 . S
H2250 C2262 0.930 . S
H2251 C2264 0.930 . S
H2252 C2265 0.930 . S
H2253 C2269 0.959 . S
H2254 C2269 0.959 . S
H2255 C2269 0.961 . S
H2256 C2270 0.960 . S
H2257 C2270 0.961 . S
H2258 C2270 0.959 . S
H2259 C2273 0.929 . S
H2260 C2274 0.931 . S
H2261 C2276 0.930 . S
C2262 H2250 0.930 . S
C2262 C2263 1.399 . S
C2262 C2267 1.399 . S
C2263 C2262 1.399 . S
C2263 C2264 1.376 . S
C2264 H2251 0.930 . S
C2264 C2263 1.376 . S
C2264 C2265 1.388 . S
C2265 H2252 0.930 . S
C2265 C2264 1.388 . S
C2265 C2266 1.390 . S
C2266 C2265 1.390 . S
C2266 C2267 1.394 . S
C2266 C2272 1.465 . S
C2267 C2262 1.399 . S
C2267 C2266 1.394 . S
C2267 C2268 1.516 . S
C2268 C2267 1.516 . S
C2268 C2269 1.502 . S
C2268 C2270 1.561 . S
C2268 C2271 1.526 . S
C2269 H2253 0.959 . S
C2269 H2254 0.959 . S
C2269 H2255 0.961 . S
C2269 C2268 1.502 . S
C2270 H2256 0.960 . S
C2270 H2257 0.961 . S
C2270 H2258 0.959 . S
C2270 C2268 1.561 . S
C2271 C2268 1.526 . S
C2271 C2272 1.396 . S
C2271 C2276 1.390 . S
C2272 C2266 1.465 . S
C2272 C2271 1.396 . S
C2272 C2273 1.399 . S
C2273 H2259 0.929 . S
C2273 C2272 1.399 . S
C2273 C2274 1.385 . S
C2274 H2260 0.931 . S
C2274 C2273 1.385 . S
C2274 C2275 1.389 . S
C2275 C2274 1.389 . S
C2275 C2276 1.387 . S
C2276 H2261 0.930 . S
C2276 C2271 1.390 . S
C2276 C2275 1.387 . S
H2277 C2289 0.930 . S
H2278 C2291 0.930 . S
H2279 C2292 0.930 . S
H2280 C2296 0.959 . S
H2281 C2296 0.959 . S
H2282 C2296 0.961 . S
H2283 C2297 0.960 . S
H2284 C2297 0.961 . S
H2285 C2297 0.959 . S
H2286 C2300 0.929 . S
H2287 C2301 0.931 . S
H2288 C2303 0.930 . S
C2289 H2277 0.930 . S
C2289 C2290 1.399 . S
C2289 C2294 1.399 . S
C2290 C2289 1.399 . S
C2290 C2291 1.376 . S
C2291 H2278 0.930 . S
C2291 C2290 1.376 . S
C2291 C2292 1.388 . S
C2292 H2279 0.930 . S
C2292 C2291 1.388 . S
C2292 C2293 1.390 . S
C2293 C2292 1.390 . S
C2293 C2294 1.394 . S
C2293 C2299 1.465 . S
C2294 C2289 1.399 . S
C2294 C2293 1.394 . S
C2294 C2295 1.516 . S
C2295 C2294 1.516 . S
C2295 C2296 1.502 . S
C2295 C2297 1.561 . S
C2295 C2298 1.526 . S
C2296 H2280 0.959 . S
C2296 H2281 0.959 . S
C2296 H2282 0.961 . S
C2296 C2295 1.502 . S
C2297 H2283 0.960 . S
C2297 H2284 0.961 . S
C2297 H2285 0.959 . S
C2297 C2295 1.561 . S
C2298 C2295 1.526 . S
C2298 C2299 1.396 . S
C2298 C2303 1.390 . S
C2299 C2293 1.465 . S
C2299 C2298 1.396 . S
C2299 C2300 1.399 . S
C2300 H2286 0.929 . S
C2300 C2299 1.399 . S
C2300 C2301 1.385 . S
C2301 H2287 0.931 . S
C2301 C2300 1.385 . S
C2301 C2302 1.389 . S
C2302 C2301 1.389 . S
C2302 C2303 1.387 . S
C2303 H2288 0.930 . S
C2303 C2298 1.390 . S
C2303 C2302 1.387 . S
H2304 C2316 0.930 . S
H2305 C2318 0.930 . S
H2306 C2319 0.930 . S
H2307 C2323 0.959 . S
H2308 C2323 0.959 . S
H2309 C2323 0.961 . S
H2310 C2324 0.960 . S
H2311 C2324 0.961 1_556 S
H2312 C2324 0.959 . S
H2313 C2327 0.929 . S
H2314 C2328 0.931 . S
H2315 C2330 0.930 . S
C2316 H2304 0.930 . S
C2316 C2317 1.399 . S
C2316 C2321 1.399 . S
C2317 C2316 1.399 . S
C2317 C2318 1.376 . S
C2318 H2305 0.930 . S
C2318 C2317 1.376 . S
C2318 C2319 1.388 . S
C2319 H2306 0.930 . S
C2319 C2318 1.388 . S
C2319 C2320 1.390 . S
C2320 C2319 1.390 . S
C2320 C2321 1.394 . S
C2320 C2326 1.465 . S
C2321 C2316 1.399 . S
C2321 C2320 1.394 . S
C2321 C2322 1.516 . S
C2322 C2321 1.516 . S
C2322 C2323 1.502 . S
C2322 C2324 1.561 . S
C2322 C2325 1.526 . S
C2323 H2307 0.959 . S
C2323 H2308 0.959 . S
C2323 H2309 0.961 . S
C2323 C2322 1.502 . S
C2324 H2310 0.960 . S
C2324 H2311 0.961 1_554 S
C2324 H2312 0.959 . S
C2324 C2322 1.561 . S
C2325 C2322 1.526 . S
C2325 C2326 1.396 . S
C2325 C2330 1.390 . S
C2326 C2320 1.465 . S
C2326 C2325 1.396 . S
C2326 C2327 1.399 . S
C2327 H2313 0.929 . S
C2327 C2326 1.399 . S
C2327 C2328 1.385 . S
C2328 H2314 0.931 . S
C2328 C2327 1.385 . S
C2328 C2329 1.389 . S
C2329 C2328 1.389 . S
C2329 C2330 1.387 . S
C2330 H2315 0.930 . S
C2330 C2325 1.390 . S
C2330 C2329 1.387 . S
H2331 C2343 0.930 . S
H2332 C2345 0.930 . S
H2333 C2346 0.930 . S
H2334 C2350 0.959 . S
H2335 C2350 0.959 . S
H2336 C2350 0.961 . S
H2337 C2351 0.960 . S
H2338 C2351 0.961 . S
H2339 C2351 0.959 . S
H2340 C2354 0.929 . S
H2341 C2355 0.931 . S
H2342 C2357 0.930 . S
C2343 H2331 0.930 . S
C2343 C2344 1.399 . S
C2343 C2348 1.399 . S
C2344 C2343 1.399 . S
C2344 C2345 1.376 . S
C2345 H2332 0.930 . S
C2345 C2344 1.376 . S
C2345 C2346 1.388 . S
C2346 H2333 0.930 . S
C2346 C2345 1.388 . S
C2346 C2347 1.390 . S
C2347 C2346 1.390 . S
C2347 C2348 1.394 . S
C2347 C2353 1.465 . S
C2348 C2343 1.399 . S
C2348 C2347 1.394 . S
C2348 C2349 1.516 . S
C2349 C2348 1.516 . S
C2349 C2350 1.502 . S
C2349 C2351 1.561 . S
C2349 C2352 1.526 . S
C2350 H2334 0.959 . S
C2350 H2335 0.959 . S
C2350 H2336 0.961 . S
C2350 C2349 1.502 . S
C2351 H2337 0.960 . S
C2351 H2338 0.961 . S
C2351 H2339 0.959 . S
C2351 C2349 1.561 . S
C2352 C2349 1.526 . S
C2352 C2353 1.396 . S
C2352 C2357 1.390 . S
C2353 C2347 1.465 . S
C2353 C2352 1.396 . S
C2353 C2354 1.399 . S
C2354 H2340 0.929 . S
C2354 C2353 1.399 . S
C2354 C2355 1.385 . S
C2355 H2341 0.931 . S
C2355 C2354 1.385 . S
C2355 C2356 1.389 . S
C2356 C2355 1.389 . S
C2356 C2357 1.387 . S
C2357 H2342 0.930 . S
C2357 C2352 1.390 . S
C2357 C2356 1.387 . S
H2358 C2370 0.930 . S
H2359 C2372 0.930 . S
H2360 C2373 0.930 . S
H2361 C2377 0.959 . S
H2362 C2377 0.959 . S
H2363 C2377 0.961 . S
H2364 C2378 0.960 . S
H2365 C2378 0.961 . S
H2366 C2378 0.959 . S
H2367 C2381 0.929 . S
H2368 C2382 0.931 . S
H2369 C2384 0.930 . S
C2370 H2358 0.930 . S
C2370 C2371 1.399 . S
C2370 C2375 1.399 . S
C2371 C2370 1.399 . S
C2371 C2372 1.376 . S
C2372 H2359 0.930 . S
C2372 C2371 1.376 . S
C2372 C2373 1.388 . S
C2373 H2360 0.930 . S
C2373 C2372 1.388 . S
C2373 C2374 1.390 . S
C2374 C2373 1.390 . S
C2374 C2375 1.394 . S
C2374 C2380 1.465 . S
C2375 C2370 1.399 . S
C2375 C2374 1.394 . S
C2375 C2376 1.516 . S
C2376 C2375 1.516 . S
C2376 C2377 1.502 . S
C2376 C2378 1.561 . S
C2376 C2379 1.526 . S
C2377 H2361 0.959 . S
C2377 H2362 0.959 . S
C2377 H2363 0.961 . S
C2377 C2376 1.502 . S
C2378 H2364 0.960 . S
C2378 H2365 0.961 . S
C2378 H2366 0.959 . S
C2378 C2376 1.561 . S
C2379 C2376 1.526 . S
C2379 C2380 1.396 . S
C2379 C2384 1.390 . S
C2380 C2374 1.465 . S
C2380 C2379 1.396 . S
C2380 C2381 1.399 . S
C2381 H2367 0.929 . S
C2381 C2380 1.399 . S
C2381 C2382 1.385 . S
C2382 H2368 0.931 . S
C2382 C2381 1.385 . S
C2382 C2383 1.389 . S
C2383 C2382 1.389 . S
C2383 C2384 1.387 . S
C2384 H2369 0.930 . S
C2384 C2379 1.390 . S
C2384 C2383 1.387 . S
H2385 C2397 0.930 . S
H2386 C2399 0.930 . S
H2387 C2400 0.930 . S
H2388 C2404 0.959 . S
H2389 C2404 0.959 . S
H2390 C2404 0.961 . S
H2391 C2405 0.960 . S
H2392 C2405 0.961 . S
H2393 C2405 0.959 . S
H2394 C2408 0.929 . S
H2395 C2409 0.931 . S
H2396 C2411 0.930 . S
C2397 H2385 0.930 . S
C2397 C2398 1.399 . S
C2397 C2402 1.399 . S
C2398 C2397 1.399 . S
C2398 C2399 1.376 . S
C2399 H2386 0.930 . S
C2399 C2398 1.376 . S
C2399 C2400 1.388 . S
C2400 H2387 0.930 . S
C2400 C2399 1.388 . S
C2400 C2401 1.390 . S
C2401 C2400 1.390 . S
C2401 C2402 1.394 . S
C2401 C2407 1.465 . S
C2402 C2397 1.399 . S
C2402 C2401 1.394 . S
C2402 C2403 1.516 . S
C2403 C2402 1.516 . S
C2403 C2404 1.502 . S
C2403 C2405 1.561 . S
C2403 C2406 1.526 . S
C2404 H2388 0.959 . S
C2404 H2389 0.959 . S
C2404 H2390 0.961 . S
C2404 C2403 1.502 . S
C2405 H2391 0.960 . S
C2405 H2392 0.961 . S
C2405 H2393 0.959 . S
C2405 C2403 1.561 . S
C2406 C2403 1.526 . S
C2406 C2407 1.396 . S
C2406 C2411 1.390 . S
C2407 C2401 1.465 . S
C2407 C2406 1.396 . S
C2407 C2408 1.399 . S
C2408 H2394 0.929 . S
C2408 C2407 1.399 . S
C2408 C2409 1.385 . S
C2409 H2395 0.931 . S
C2409 C2408 1.385 . S
C2409 C2410 1.389 . S
C2410 C2409 1.389 . S
C2410 C2411 1.387 . S
C2411 H2396 0.930 . S
C2411 C2406 1.390 . S
C2411 C2410 1.387 . S
H2412 C2424 0.930 . S
H2413 C2426 0.930 . S
H2414 C2427 0.930 . S
H2415 C2431 0.959 1_655 S
H2416 C2431 0.959 . S
H2417 C2431 0.961 . S
H2418 C2432 0.960 . S
H2419 C2432 0.961 . S
H2420 C2432 0.959 . S
H2421 C2435 0.929 . S
H2422 C2436 0.931 . S
H2423 C2438 0.930 . S
C2424 H2412 0.930 . S
C2424 C2425 1.399 . S
C2424 C2429 1.399 . S
C2425 C2424 1.399 . S
C2425 C2426 1.376 . S
C2426 H2413 0.930 . S
C2426 C2425 1.376 . S
C2426 C2427 1.388 . S
C2427 H2414 0.930 . S
C2427 C2426 1.388 . S
C2427 C2428 1.390 . S
C2428 C2427 1.390 . S
C2428 C2429 1.394 . S
C2428 C2434 1.465 . S
C2429 C2424 1.399 . S
C2429 C2428 1.394 . S
C2429 C2430 1.516 . S
C2430 C2429 1.516 . S
C2430 C2431 1.502 . S
C2430 C2432 1.561 . S
C2430 C2433 1.526 . S
C2431 H2415 0.959 1_455 S
C2431 H2416 0.959 . S
C2431 H2417 0.961 . S
C2431 C2430 1.502 . S
C2432 H2418 0.960 . S
C2432 H2419 0.961 . S
C2432 H2420 0.959 . S
C2432 C2430 1.561 . S
C2433 C2430 1.526 . S
C2433 C2434 1.396 . S
C2433 C2438 1.390 . S
C2434 C2428 1.465 . S
C2434 C2433 1.396 . S
C2434 C2435 1.399 . S
C2435 H2421 0.929 . S
C2435 C2434 1.399 . S
C2435 C2436 1.385 . S
C2436 H2422 0.931 . S
C2436 C2435 1.385 . S
C2436 C2437 1.389 . S
C2437 C2436 1.389 . S
C2437 C2438 1.387 . S
C2438 H2423 0.930 . S
C2438 C2433 1.390 . S
C2438 C2437 1.387 . S
H2439 C2451 0.930 . S
H2440 C2453 0.930 . S
H2441 C2454 0.930 . S
H2442 C2458 0.959 . S
H2443 C2458 0.959 . S
H2444 C2458 0.961 . S
H2445 C2459 0.960 . S
H2446 C2459 0.961 . S
H2447 C2459 0.959 . S
H2448 C2462 0.929 . S
H2449 C2463 0.931 . S
H2450 C2465 0.930 . S
C2451 H2439 0.930 . S
C2451 C2452 1.399 . S
C2451 C2456 1.399 . S
C2452 C2451 1.399 . S
C2452 C2453 1.376 . S
C2453 H2440 0.930 . S
C2453 C2452 1.376 . S
C2453 C2454 1.388 . S
C2454 H2441 0.930 . S
C2454 C2453 1.388 . S
C2454 C2455 1.390 . S
C2455 C2454 1.390 . S
C2455 C2456 1.394 . S
C2455 C2461 1.465 . S
C2456 C2451 1.399 . S
C2456 C2455 1.394 . S
C2456 C2457 1.516 . S
C2457 C2456 1.516 . S
C2457 C2458 1.502 . S
C2457 C2459 1.561 . S
C2457 C2460 1.526 . S
C2458 H2442 0.959 . S
C2458 H2443 0.959 . S
C2458 H2444 0.961 . S
C2458 C2457 1.502 . S
C2459 H2445 0.960 . S
C2459 H2446 0.961 . S
C2459 H2447 0.959 . S
C2459 C2457 1.561 . S
C2460 C2457 1.526 . S
C2460 C2461 1.396 . S
C2460 C2465 1.390 . S
C2461 C2455 1.465 . S
C2461 C2460 1.396 . S
C2461 C2462 1.399 . S
C2462 H2448 0.929 . S
C2462 C2461 1.399 . S
C2462 C2463 1.385 . S
C2463 H2449 0.931 . S
C2463 C2462 1.385 . S
C2463 C2464 1.389 . S
C2464 C2463 1.389 . S
C2464 C2465 1.387 . S
C2465 H2450 0.930 . S
C2465 C2460 1.390 . S
C2465 C2464 1.387 . S
H2466 C2478 0.930 . S
H2467 C2480 0.930 . S
H2468 C2481 0.930 . S
H2469 C2485 0.959 . S
H2470 C2485 0.959 . S
H2471 C2485 0.961 . S
H2472 C2486 0.960 . S
H2473 C2486 0.961 . S
H2474 C2486 0.959 . S
H2475 C2489 0.929 . S
H2476 C2490 0.931 . S
H2477 C2492 0.930 . S
C2478 H2466 0.930 . S
C2478 C2479 1.399 . S
C2478 C2483 1.399 . S
C2479 C2478 1.399 . S
C2479 C2480 1.376 . S
C2480 H2467 0.930 . S
C2480 C2479 1.376 . S
C2480 C2481 1.388 . S
C2481 H2468 0.930 . S
C2481 C2480 1.388 . S
C2481 C2482 1.390 . S
C2482 C2481 1.390 . S
C2482 C2483 1.394 . S
C2482 C2488 1.465 . S
C2483 C2478 1.399 . S
C2483 C2482 1.394 . S
C2483 C2484 1.516 . S
C2484 C2483 1.516 . S
C2484 C2485 1.502 . S
C2484 C2486 1.561 . S
C2484 C2487 1.526 . S
C2485 H2469 0.959 . S
C2485 H2470 0.959 . S
C2485 H2471 0.961 . S
C2485 C2484 1.502 . S
C2486 H2472 0.960 . S
C2486 H2473 0.961 . S
C2486 H2474 0.959 . S
C2486 C2484 1.561 . S
C2487 C2484 1.526 . S
C2487 C2488 1.396 . S
C2487 C2492 1.390 . S
C2488 C2482 1.465 . S
C2488 C2487 1.396 . S
C2488 C2489 1.399 . S
C2489 H2475 0.929 . S
C2489 C2488 1.399 . S
C2489 C2490 1.385 . S
C2490 H2476 0.931 . S
C2490 C2489 1.385 . S
C2490 C2491 1.389 . S
C2491 C2490 1.389 . S
C2491 C2492 1.387 . S
C2492 H2477 0.930 . S
C2492 C2487 1.390 . S
C2492 C2491 1.387 . S
H2493 C2505 0.930 . S
H2494 C2507 0.930 . S
H2495 C2508 0.930 . S
H2496 C2512 0.959 . S
H2497 C2512 0.959 . S
H2498 C2512 0.961 . S
H2499 C2513 0.960 . S
H2500 C2513 0.961 . S
H2501 C2513 0.959 . S
H2502 C2516 0.929 . S
H2503 C2517 0.931 . S
H2504 C2519 0.930 . S
C2505 H2493 0.930 . S
C2505 C2506 1.399 . S
C2505 C2510 1.399 . S
C2506 C2505 1.399 . S
C2506 C2507 1.376 . S
C2507 H2494 0.930 . S
C2507 C2506 1.376 . S
C2507 C2508 1.388 . S
C2508 H2495 0.930 . S
C2508 C2507 1.388 . S
C2508 C2509 1.390 . S
C2509 C2508 1.390 . S
C2509 C2510 1.394 . S
C2509 C2515 1.465 . S
C2510 C2505 1.399 . S
C2510 C2509 1.394 . S
C2510 C2511 1.516 . S
C2511 C2510 1.516 . S
C2511 C2512 1.502 . S
C2511 C2513 1.561 . S
C2511 C2514 1.526 . S
C2512 H2496 0.959 . S
C2512 H2497 0.959 . S
C2512 H2498 0.961 . S
C2512 C2511 1.502 . S
C2513 H2499 0.960 . S
C2513 H2500 0.961 . S
C2513 H2501 0.959 . S
C2513 C2511 1.561 . S
C2514 C2511 1.526 . S
C2514 C2515 1.396 . S
C2514 C2519 1.390 . S
C2515 C2509 1.465 . S
C2515 C2514 1.396 . S
C2515 C2516 1.399 . S
C2516 H2502 0.929 . S
C2516 C2515 1.399 . S
C2516 C2517 1.385 . S
C2517 H2503 0.931 . S
C2517 C2516 1.385 . S
C2517 C2518 1.389 . S
C2518 C2517 1.389 . S
C2518 C2519 1.387 . S
C2519 H2504 0.930 . S
C2519 C2514 1.390 . S
C2519 C2518 1.387 . S
H2520 C2532 0.930 . S
H2521 C2534 0.930 . S
H2522 C2535 0.930 . S
H2523 C2539 0.934 1_545 S
H2524 C2539 0.959 . S
H2525 C2539 0.961 . S
H2526 C2540 0.960 . S
H2527 C2540 0.961 . S
H2528 C2540 0.959 . S
H2529 C2543 0.929 . S
H2530 C2544 0.931 . S
H2531 C2546 0.930 1_565 S
C2532 H2520 0.930 . S
C2532 C2533 1.399 . S
C2532 C2537 1.399 . S
C2533 C2532 1.399 . S
C2533 C2534 1.376 . S
C2534 H2521 0.930 . S
C2534 C2533 1.376 . S
C2534 C2535 1.388 . S
C2535 H2522 0.930 . S
C2535 C2534 1.388 . S
C2535 C2536 1.390 . S
C2536 C2535 1.390 . S
C2536 C2537 1.394 . S
C2536 C2542 1.465 . S
C2537 C2532 1.399 . S
C2537 C2536 1.394 . S
C2537 C2538 1.516 . S
C2538 C2537 1.516 . S
C2538 C2539 1.502 1_545 S
C2538 C2540 1.561 1_545 S
C2538 C2541 1.526 . S
C2539 H2523 0.934 1_565 S
C2539 H2524 0.959 . S
C2539 H2525 0.961 . S
C2539 C2538 1.502 1_565 S
C2540 H2526 0.960 . S
C2540 H2527 0.961 . S
C2540 H2528 0.959 . S
C2540 C2538 1.561 1_565 S
C2541 C2538 1.526 . S
C2541 C2542 1.396 . S
C2541 C2546 1.390 . S
C2542 C2536 1.465 . S
C2542 C2541 1.396 . S
C2542 C2543 1.399 . S
C2543 H2529 0.929 . S
C2543 C2542 1.399 . S
C2543 C2544 1.385 . S
C2544 H2530 0.931 . S
C2544 C2543 1.385 . S
C2544 C2545 1.389 . S
C2545 C2544 1.389 . S
C2545 C2546 1.387 . S
C2546 H2531 0.930 1_545 S
C2546 C2541 1.390 . S
C2546 C2545 1.387 . S
H2547 C2559 0.930 . S
H2548 C2561 0.930 . S
H2549 C2562 0.930 . S
H2550 C2566 0.959 . S
H2551 C2566 0.959 . S
H2552 C2566 0.961 . S
H2553 C2567 0.960 . S
H2554 C2567 0.961 . S
H2555 C2567 0.959 . S
H2556 C2570 0.929 . S
H2557 C2571 0.931 . S
H2558 C2573 0.930 . S
C2559 H2547 0.930 . S
C2559 C2560 1.399 . S
C2559 C2564 1.399 . S
C2560 C2559 1.399 . S
C2560 C2561 1.376 . S
C2561 H2548 0.930 . S
C2561 C2560 1.376 . S
C2561 C2562 1.388 . S
C2562 H2549 0.930 . S
C2562 C2561 1.388 . S
C2562 C2563 1.390 . S
C2563 C2562 1.390 . S
C2563 C2564 1.394 . S
C2563 C2569 1.465 . S
C2564 C2559 1.399 . S
C2564 C2563 1.394 . S
C2564 C2565 1.516 . S
C2565 C2564 1.516 . S
C2565 C2566 1.502 . S
C2565 C2567 1.561 . S
C2565 C2568 1.526 . S
C2566 H2550 0.959 . S
C2566 H2551 0.959 . S
C2566 H2552 0.961 . S
C2566 C2565 1.502 . S
C2567 H2553 0.960 . S
C2567 H2554 0.961 . S
C2567 H2555 0.959 . S
C2567 C2565 1.561 . S
C2568 C2565 1.526 . S
C2568 C2569 1.396 . S
C2568 C2573 1.390 . S
C2569 C2563 1.465 . S
C2569 C2568 1.396 . S
C2569 C2570 1.399 . S
C2570 H2556 0.929 . S
C2570 C2569 1.399 . S
C2570 C2571 1.385 . S
C2571 H2557 0.931 . S
C2571 C2570 1.385 . S
C2571 C2572 1.389 . S
C2572 C2571 1.389 . S
C2572 C2573 1.387 . S
C2573 H2558 0.930 . S
C2573 C2568 1.390 . S
C2573 C2572 1.387 . S
H2574 C2586 0.930 . S
H2575 C2588 0.944 . S
H2576 C2589 0.950 . S
H2577 C2593 0.959 . S
H2578 C2593 0.959 . S
H2579 C2593 0.961 . S
H2580 C2594 0.960 . S
H2581 C2594 0.961 . S
H2582 C2594 0.959 . S
H2583 C2597 0.929 1_565 S
H2584 C2598 0.931 . S
H2585 C2600 0.930 . S
C2586 H2574 0.930 . S
C2586 C2587 1.399 . S
C2586 C2591 1.399 . S
C2587 C2586 1.399 . S
C2587 C2588 1.357 1_545 S
C2588 H2575 0.944 . S
C2588 C2587 1.357 1_565 S
C2588 C2589 1.388 . S
C2589 H2576 0.950 . S
C2589 C2588 1.388 . S
C2589 C2590 1.377 1_565 S
C2590 C2589 1.377 1_545 S
C2590 C2591 1.394 . S
C2590 C2596 1.465 . S
C2591 C2586 1.399 . S
C2591 C2590 1.394 . S
C2591 C2592 1.516 . S
C2592 C2591 1.516 . S
C2592 C2593 1.502 . S
C2592 C2594 1.561 . S
C2592 C2595 1.526 . S
C2593 H2577 0.959 . S
C2593 H2578 0.959 . S
C2593 H2579 0.961 . S
C2593 C2592 1.502 . S
C2594 H2580 0.960 . S
C2594 H2581 0.961 . S
C2594 H2582 0.959 . S
C2594 C2592 1.561 . S
C2595 C2592 1.526 . S
C2595 C2596 1.396 . S
C2595 C2600 1.390 . S
C2596 C2590 1.465 . S
C2596 C2595 1.396 . S
C2596 C2597 1.399 . S
C2597 H2583 0.929 1_545 S
C2597 C2596 1.399 . S
C2597 C2598 1.385 . S
C2598 H2584 0.931 . S
C2598 C2597 1.385 . S
C2598 C2599 1.389 . S
C2599 C2598 1.389 . S
C2599 C2600 1.387 . S
C2600 H2585 0.930 . S
C2600 C2595 1.390 . S
C2600 C2599 1.387 . S
H2601 C2613 0.930 . S
H2602 C2615 0.930 . S
H2603 C2616 0.930 . S
H2604 C2620 0.959 . S
H2605 C2620 0.959 . S
H2606 C2620 0.961 . S
H2607 C2621 0.960 . S
H2608 C2621 0.961 . S
H2609 C2621 0.959 . S
H2610 C2624 0.929 . S
H2611 C2625 0.931 . S
H2612 C2627 0.930 . S
C2613 H2601 0.930 . S
C2613 C2614 1.399 . S
C2613 C2618 1.399 . S
C2614 C2613 1.399 . S
C2614 C2615 1.376 . S
C2615 H2602 0.930 . S
C2615 C2614 1.376 . S
C2615 C2616 1.388 . S
C2616 H2603 0.930 . S
C2616 C2615 1.388 . S
C2616 C2617 1.390 . S
C2617 C2616 1.390 . S
C2617 C2618 1.394 . S
C2617 C2623 1.465 . S
C2618 C2613 1.399 . S
C2618 C2617 1.394 . S
C2618 C2619 1.516 . S
C2619 C2618 1.516 . S
C2619 C2620 1.502 . S
C2619 C2621 1.561 . S
C2619 C2622 1.526 . S
C2620 H2604 0.959 . S
C2620 H2605 0.959 . S
C2620 H2606 0.961 . S
C2620 C2619 1.502 . S
C2621 H2607 0.960 . S
C2621 H2608 0.961 . S
C2621 H2609 0.959 . S
C2621 C2619 1.561 . S
C2622 C2619 1.526 . S
C2622 C2623 1.396 . S
C2622 C2627 1.390 . S
C2623 C2617 1.465 . S
C2623 C2622 1.396 . S
C2623 C2624 1.399 . S
C2624 H2610 0.929 . S
C2624 C2623 1.399 . S
C2624 C2625 1.385 . S
C2625 H2611 0.931 . S
C2625 C2624 1.385 . S
C2625 C2626 1.389 . S
C2626 C2625 1.389 . S
C2626 C2627 1.387 . S
C2627 H2612 0.930 . S
C2627 C2622 1.390 . S
C2627 C2626 1.387 . S
H2628 C2640 0.930 . S
H2629 C2642 0.930 . S
H2630 C2643 0.930 . S
H2631 C2647 0.959 . S
H2632 C2647 0.959 1_565 S
H2633 C2647 0.961 1_565 S
H2634 C2648 0.960 . S
H2635 C2648 0.961 . S
H2636 C2648 0.959 . S
H2637 C2651 0.929 . S
H2638 C2652 0.931 . S
H2639 C2654 0.930 . S
C2640 H2628 0.930 . S
C2640 C2641 1.399 . S
C2640 C2645 1.399 . S
C2641 C2640 1.399 . S
C2641 C2642 1.376 . S
C2642 H2629 0.930 . S
C2642 C2641 1.376 . S
C2642 C2643 1.388 . S
C2643 H2630 0.930 . S
C2643 C2642 1.388 . S
C2643 C2644 1.390 . S
C2644 C2643 1.390 . S
C2644 C2645 1.394 . S
C2644 C2650 1.465 . S
C2645 C2640 1.399 . S
C2645 C2644 1.394 . S
C2645 C2646 1.516 . S
C2646 C2645 1.516 . S
C2646 C2647 1.502 . S
C2646 C2648 1.561 1_545 S
C2646 C2649 1.526 . S
C2647 H2631 0.959 . S
C2647 H2632 0.959 1_545 S
C2647 H2633 0.961 1_545 S
C2647 C2646 1.502 . S
C2648 H2634 0.960 . S
C2648 H2635 0.961 . S
C2648 H2636 0.959 . S
C2648 C2646 1.561 1_565 S
C2649 C2646 1.526 . S
C2649 C2650 1.396 . S
C2649 C2654 1.390 . S
C2650 C2644 1.465 . S
C2650 C2649 1.396 . S
C2650 C2651 1.399 . S
C2651 H2637 0.929 . S
C2651 C2650 1.399 . S
C2651 C2652 1.385 . S
C2652 H2638 0.931 . S
C2652 C2651 1.385 . S
C2652 C2653 1.389 . S
C2653 C2652 1.389 . S
C2653 C2654 1.387 . S
C2654 H2639 0.930 . S
C2654 C2649 1.390 . S
C2654 C2653 1.387 . S
H2655 C2667 0.930 . S
H2656 C2669 0.930 . S
H2657 C2670 0.930 . S
H2658 C2674 0.959 . S
H2659 C2674 0.959 . S
H2660 C2674 0.961 . S
H2661 C2675 0.960 . S
H2662 C2675 0.961 . S
H2663 C2675 0.959 . S
H2664 C2678 0.929 . S
H2665 C2679 0.931 . S
H2666 C2681 0.930 . S
C2667 H2655 0.930 . S
C2667 C2668 1.399 . S
C2667 C2672 1.399 . S
C2668 C2667 1.399 . S
C2668 C2669 1.376 . S
C2669 H2656 0.930 . S
C2669 C2668 1.376 . S
C2669 C2670 1.388 . S
C2670 H2657 0.930 . S
C2670 C2669 1.388 . S
C2670 C2671 1.390 . S
C2671 C2670 1.390 . S
C2671 C2672 1.394 . S
C2671 C2677 1.465 . S
C2672 C2667 1.399 . S
C2672 C2671 1.394 . S
C2672 C2673 1.516 . S
C2673 C2672 1.516 . S
C2673 C2674 1.502 . S
C2673 C2675 1.561 . S
C2673 C2676 1.526 . S
C2674 H2658 0.959 . S
C2674 H2659 0.959 . S
C2674 H2660 0.961 . S
C2674 C2673 1.502 . S
C2675 H2661 0.960 . S
C2675 H2662 0.961 . S
C2675 H2663 0.959 . S
C2675 C2673 1.561 . S
C2676 C2673 1.526 . S
C2676 C2677 1.396 . S
C2676 C2681 1.390 . S
C2677 C2671 1.465 . S
C2677 C2676 1.396 . S
C2677 C2678 1.399 . S
C2678 H2664 0.929 . S
C2678 C2677 1.399 . S
C2678 C2679 1.385 . S
C2679 H2665 0.931 . S
C2679 C2678 1.385 . S
C2679 C2680 1.389 . S
C2680 C2679 1.389 . S
C2680 C2681 1.387 . S
C2681 H2666 0.930 . S
C2681 C2676 1.390 . S
C2681 C2680 1.387 . S
H2682 C2694 0.930 . S
H2683 C2696 0.930 . S
H2684 C2697 0.930 . S
H2685 C2701 0.959 . S
H2686 C2701 0.959 . S
H2687 C2701 0.961 . S
H2688 C2702 0.960 . S
H2689 C2702 0.961 . S
H2690 C2702 0.959 . S
H2691 C2705 0.929 . S
H2692 C2706 0.931 . S
H2693 C2708 0.930 . S
C2694 H2682 0.930 . S
C2694 C2695 1.399 . S
C2694 C2699 1.399 . S
C2695 C2694 1.399 . S
C2695 C2696 1.376 1_545 S
C2696 H2683 0.930 . S
C2696 C2695 1.376 1_565 S
C2696 C2697 1.388 . S
C2697 H2684 0.930 . S
C2697 C2696 1.388 . S
C2697 C2698 1.390 . S
C2698 C2697 1.390 . S
C2698 C2699 1.394 1_565 S
C2698 C2704 1.465 . S
C2699 C2694 1.399 . S
C2699 C2698 1.394 1_545 S
C2699 C2700 1.516 . S
C2700 C2699 1.516 . S
C2700 C2701 1.502 . S
C2700 C2702 1.561 . S
C2700 C2703 1.526 . S
C2701 H2685 0.959 . S
C2701 H2686 0.959 . S
C2701 H2687 0.961 . S
C2701 C2700 1.502 . S
C2702 H2688 0.960 . S
C2702 H2689 0.961 . S
C2702 H2690 0.959 . S
C2702 C2700 1.561 . S
C2703 C2700 1.526 . S
C2703 C2704 1.396 1_545 S
C2703 C2708 1.390 . S
C2704 C2698 1.465 . S
C2704 C2703 1.396 1_565 S
C2704 C2705 1.399 . S
C2705 H2691 0.929 . S
C2705 C2704 1.399 . S
C2705 C2706 1.385 . S
C2706 H2692 0.931 . S
C2706 C2705 1.385 . S
C2706 C2707 1.389 1_565 S
C2707 C2706 1.389 1_545 S
C2707 C2708 1.387 . S
C2708 H2693 0.930 . S
C2708 C2703 1.390 . S
C2708 C2707 1.387 . S
H2709 C2721 0.930 . S
H2710 C2723 0.930 . S
H2711 C2724 0.930 . S
H2712 C2728 0.959 . S
H2713 C2728 0.959 . S
H2714 C2728 0.961 . S
H2715 C2729 0.960 . S
H2716 C2729 0.961 . S
H2717 C2729 0.959 . S
H2718 C2732 0.929 . S
H2719 C2733 0.931 . S
H2720 C2735 0.930 . S
C2721 H2709 0.930 . S
C2721 C2722 1.399 . S
C2721 C2726 1.399 . S
C2722 C2721 1.399 . S
C2722 C2723 1.376 . S
C2723 H2710 0.930 . S
C2723 C2722 1.376 . S
C2723 C2724 1.388 . S
C2724 H2711 0.930 . S
C2724 C2723 1.388 . S
C2724 C2725 1.390 . S
C2725 C2724 1.390 . S
C2725 C2726 1.394 . S
C2725 C2731 1.465 . S
C2726 C2721 1.399 . S
C2726 C2725 1.394 . S
C2726 C2727 1.516 . S
C2727 C2726 1.516 . S
C2727 C2728 1.502 . S
C2727 C2729 1.561 . S
C2727 C2730 1.526 . S
C2728 H2712 0.959 . S
C2728 H2713 0.959 . S
C2728 H2714 0.961 . S
C2728 C2727 1.502 . S
C2729 H2715 0.960 . S
C2729 H2716 0.961 . S
C2729 H2717 0.959 . S
C2729 C2727 1.561 . S
C2730 C2727 1.526 . S
C2730 C2731 1.396 . S
C2730 C2735 1.390 . S
C2731 C2725 1.465 . S
C2731 C2730 1.396 . S
C2731 C2732 1.399 . S
C2732 H2718 0.929 . S
C2732 C2731 1.399 . S
C2732 C2733 1.385 . S
C2733 H2719 0.931 . S
C2733 C2732 1.385 . S
C2733 C2734 1.389 . S
C2734 C2733 1.389 . S
C2734 C2735 1.387 . S
C2735 H2720 0.930 . S
C2735 C2730 1.390 . S
C2735 C2734 1.387 . S
H2736 C2748 0.930 . S
H2737 C2750 0.930 . S
H2738 C2751 0.930 . S
H2739 C2755 0.959 . S
H2740 C2755 0.959 . S
H2741 C2755 0.961 . S
H2742 C2756 0.960 . S
H2743 C2756 0.961 . S
H2744 C2756 0.959 . S
H2745 C2759 0.929 . S
H2746 C2760 0.931 . S
H2747 C2762 0.930 . S
C2748 H2736 0.930 . S
C2748 C2749 1.399 . S
C2748 C2753 1.399 . S
C2749 C2748 1.399 . S
C2749 C2750 1.376 . S
C2750 H2737 0.930 . S
C2750 C2749 1.376 . S
C2750 C2751 1.388 . S
C2751 H2738 0.930 . S
C2751 C2750 1.388 . S
C2751 C2752 1.390 . S
C2752 C2751 1.390 . S
C2752 C2753 1.394 . S
C2752 C2758 1.465 . S
C2753 C2748 1.399 . S
C2753 C2752 1.394 . S
C2753 C2754 1.516 . S
C2754 C2753 1.516 . S
C2754 C2755 1.502 1_554 S
C2754 C2756 1.561 . S
C2754 C2757 1.526 . S
C2755 H2739 0.959 . S
C2755 H2740 0.959 . S
C2755 H2741 0.961 . S
C2755 C2754 1.502 1_556 S
C2756 H2742 0.960 . S
C2756 H2743 0.961 . S
C2756 H2744 0.959 . S
C2756 C2754 1.561 . S
C2757 C2754 1.526 . S
C2757 C2758 1.396 . S
C2757 C2762 1.390 . S
C2758 C2752 1.465 . S
C2758 C2757 1.396 . S
C2758 C2759 1.399 . S
C2759 H2745 0.929 . S
C2759 C2758 1.399 . S
C2759 C2760 1.385 . S
C2760 H2746 0.931 . S
C2760 C2759 1.385 . S
C2760 C2761 1.389 . S
C2761 C2760 1.389 . S
C2761 C2762 1.387 . S
C2762 H2747 0.930 . S
C2762 C2757 1.390 . S
C2762 C2761 1.387 . S
H2763 C2775 0.930 . S
H2764 C2777 0.930 . S
H2765 C2778 0.930 . S
H2766 C2782 0.959 . S
H2767 C2782 0.959 1_556 S
H2768 C2782 0.967 . S
H2769 C2783 0.960 . S
H2770 C2783 0.961 . S
H2771 C2783 0.959 1_554 S
H2772 C2786 0.929 . S
H2773 C2787 0.931 . S
H2774 C2789 0.930 . S
C2775 H2763 0.930 . S
C2775 C2776 1.399 . S
C2775 C2780 1.399 . S
C2776 C2775 1.399 . S
C2776 C2777 1.376 . S
C2777 H2764 0.930 . S
C2777 C2776 1.376 . S
C2777 C2778 1.388 . S
C2778 H2765 0.930 . S
C2778 C2777 1.388 . S
C2778 C2779 1.390 . S
C2779 C2778 1.390 . S
C2779 C2780 1.394 . S
C2779 C2785 1.465 . S
C2780 C2775 1.399 . S
C2780 C2779 1.394 . S
C2780 C2781 1.516 . S
C2781 C2780 1.516 . S
C2781 C2782 1.502 . S
C2781 C2783 1.561 1_554 S
C2781 C2784 1.526 . S
C2782 H2766 0.959 . S
C2782 H2767 0.959 1_554 S
C2782 H2768 0.967 . S
C2782 C2781 1.502 . S
C2783 H2769 0.960 . S
C2783 H2770 0.961 . S
C2783 H2771 0.959 1_556 S
C2783 C2781 1.561 1_556 S
C2784 C2781 1.526 . S
C2784 C2785 1.396 . S
C2784 C2789 1.390 . S
C2785 C2779 1.465 . S
C2785 C2784 1.396 . S
C2785 C2786 1.399 . S
C2786 H2772 0.929 . S
C2786 C2785 1.399 . S
C2786 C2787 1.385 . S
C2787 H2773 0.931 . S
C2787 C2786 1.385 . S
C2787 C2788 1.389 . S
C2788 C2787 1.389 . S
C2788 C2789 1.387 . S
C2789 H2774 0.930 . S
C2789 C2784 1.390 . S
C2789 C2788 1.387 . S
H2790 C2802 0.930 . S
H2791 C2804 0.930 . S
H2792 C2805 0.930 . S
H2793 C2809 0.959 . S
H2794 C2809 0.959 . S
H2795 C2809 0.961 . S
H2796 C2810 0.960 . S
H2797 C2810 0.961 . S
H2798 C2810 0.959 . S
H2799 C2813 0.929 . S
H2800 C2814 0.931 . S
H2801 C2816 0.930 . S
C2802 H2790 0.930 . S
C2802 C2803 1.399 . S
C2802 C2807 1.399 . S
C2803 C2802 1.399 . S
C2803 C2804 1.376 . S
C2804 H2791 0.930 . S
C2804 C2803 1.376 . S
C2804 C2805 1.388 . S
C2805 H2792 0.930 . S
C2805 C2804 1.388 . S
C2805 C2806 1.390 . S
C2806 C2805 1.390 . S
C2806 C2807 1.394 . S
C2806 C2812 1.465 . S
C2807 C2802 1.399 . S
C2807 C2806 1.394 . S
C2807 C2808 1.516 . S
C2808 C2807 1.516 . S
C2808 C2809 1.502 . S
C2808 C2810 1.561 . S
C2808 C2811 1.526 . S
C2809 H2793 0.959 . S
C2809 H2794 0.959 . S
C2809 H2795 0.961 . S
C2809 C2808 1.502 . S
C2810 H2796 0.960 . S
C2810 H2797 0.961 . S
C2810 H2798 0.959 . S
C2810 C2808 1.561 . S
C2811 C2808 1.526 . S
C2811 C2812 1.396 . S
C2811 C2816 1.390 . S
C2812 C2806 1.465 . S
C2812 C2811 1.396 . S
C2812 C2813 1.399 . S
C2813 H2799 0.929 . S
C2813 C2812 1.399 . S
C2813 C2814 1.385 . S
C2814 H2800 0.931 . S
C2814 C2813 1.385 . S
C2814 C2815 1.389 . S
C2815 C2814 1.389 . S
C2815 C2816 1.387 . S
C2816 H2801 0.930 . S
C2816 C2811 1.390 . S
C2816 C2815 1.387 . S
H2817 C2829 0.930 . S
H2818 C2831 0.930 . S
H2819 C2832 0.930 . S
H2820 C2836 0.959 . S
H2821 C2836 0.959 . S
H2822 C2836 0.961 . S
H2823 C2837 0.960 . S
H2824 C2837 0.961 . S
H2825 C2837 0.959 . S
H2826 C2840 0.929 . S
H2827 C2841 0.931 . S
H2828 C2843 0.930 . S
C2829 H2817 0.930 . S
C2829 C2830 1.399 . S
C2829 C2834 1.399 . S
C2830 C2829 1.399 . S
C2830 C2831 1.376 . S
C2831 H2818 0.930 . S
C2831 C2830 1.376 . S
C2831 C2832 1.388 . S
C2832 H2819 0.930 . S
C2832 C2831 1.388 . S
C2832 C2833 1.390 . S
C2833 C2832 1.390 . S
C2833 C2834 1.394 . S
C2833 C2839 1.465 . S
C2834 C2829 1.399 . S
C2834 C2833 1.394 . S
C2834 C2835 1.516 . S
C2835 C2834 1.516 . S
C2835 C2836 1.502 . S
C2835 C2837 1.561 . S
C2835 C2838 1.526 . S
C2836 H2820 0.959 . S
C2836 H2821 0.959 . S
C2836 H2822 0.961 . S
C2836 C2835 1.502 . S
C2837 H2823 0.960 . S
C2837 H2824 0.961 . S
C2837 H2825 0.959 . S
C2837 C2835 1.561 . S
C2838 C2835 1.526 . S
C2838 C2839 1.396 . S
C2838 C2843 1.390 . S
C2839 C2833 1.465 . S
C2839 C2838 1.396 . S
C2839 C2840 1.399 . S
C2840 H2826 0.929 . S
C2840 C2839 1.399 . S
C2840 C2841 1.385 . S
C2841 H2827 0.931 . S
C2841 C2840 1.385 . S
C2841 C2842 1.389 . S
C2842 C2841 1.389 . S
C2842 C2843 1.387 . S
C2843 H2828 0.930 . S
C2843 C2838 1.390 . S
C2843 C2842 1.387 . S
H2844 C2856 0.930 . S
H2845 C2858 0.930 . S
H2846 C2859 0.927 1_545 S
H2847 C2863 0.959 . S
H2848 C2863 0.959 . S
H2849 C2863 0.961 . S
H2850 C2864 0.960 . S
H2851 C2864 0.961 . S
H2852 C2864 0.959 . S
H2853 C2867 0.929 . S
H2854 C2868 0.931 . S
H2855 C2870 0.930 . S
C2856 H2844 0.930 . S
C2856 C2857 1.399 1_565 S
C2856 C2861 1.399 . S
C2857 C2856 1.399 1_545 S
C2857 C2858 1.376 . S
C2858 H2845 0.930 . S
C2858 C2857 1.376 . S
C2858 C2859 1.364 1_545 S
C2859 H2846 0.927 1_565 S
C2859 C2858 1.364 1_565 S
C2859 C2860 1.419 . S
C2860 C2859 1.419 . S
C2860 C2861 1.394 . S
C2860 C2866 1.465 . S
C2861 C2856 1.399 . S
C2861 C2860 1.394 . S
C2861 C2862 1.516 . S
C2862 C2861 1.516 . S
C2862 C2863 1.502 . S
C2862 C2864 1.561 . S
C2862 C2865 1.526 . S
C2863 H2847 0.959 . S
C2863 H2848 0.959 . S
C2863 H2849 0.961 . S
C2863 C2862 1.502 . S
C2864 H2850 0.960 . S
C2864 H2851 0.961 . S
C2864 H2852 0.959 . S
C2864 C2862 1.561 . S
C2865 C2862 1.526 . S
C2865 C2866 1.396 . S
C2865 C2870 1.390 . S
C2866 C2860 1.465 . S
C2866 C2865 1.396 . S
C2866 C2867 1.399 . S
C2867 H2853 0.929 . S
C2867 C2866 1.399 . S
C2867 C2868 1.385 . S
C2868 H2854 0.931 . S
C2868 C2867 1.385 . S
C2868 C2869 1.389 . S
C2869 C2868 1.389 . S
C2869 C2870 1.387 . S
C2870 H2855 0.930 . S
C2870 C2865 1.390 . S
C2870 C2869 1.387 . S
H2871 C2883 0.930 . S
H2872 C2885 0.930 . S
H2873 C2886 0.930 . S
H2874 C2890 0.959 . S
H2875 C2890 0.959 . S
H2876 C2890 0.961 . S
H2877 C2891 0.960 . S
H2878 C2891 0.961 . S
H2879 C2891 0.959 . S
H2880 C2894 0.929 . S
H2881 C2895 0.931 . S
H2882 C2897 0.930 . S
C2883 H2871 0.930 . S
C2883 C2884 1.399 . S
C2883 C2888 1.399 . S
C2884 C2883 1.399 . S
C2884 C2885 1.376 . S
C2885 H2872 0.930 . S
C2885 C2884 1.376 . S
C2885 C2886 1.388 . S
C2886 H2873 0.930 . S
C2886 C2885 1.388 . S
C2886 C2887 1.390 . S
C2887 C2886 1.390 . S
C2887 C2888 1.394 . S
C2887 C2893 1.465 . S
C2888 C2883 1.399 . S
C2888 C2887 1.394 . S
C2888 C2889 1.516 . S
C2889 C2888 1.516 . S
C2889 C2890 1.502 . S
C2889 C2891 1.561 . S
C2889 C2892 1.526 . S
C2890 H2874 0.959 . S
C2890 H2875 0.959 . S
C2890 H2876 0.961 . S
C2890 C2889 1.502 . S
C2891 H2877 0.960 . S
C2891 H2878 0.961 . S
C2891 H2879 0.959 . S
C2891 C2889 1.561 . S
C2892 C2889 1.526 . S
C2892 C2893 1.396 . S
C2892 C2897 1.390 . S
C2893 C2887 1.465 . S
C2893 C2892 1.396 . S
C2893 C2894 1.399 . S
C2894 H2880 0.929 . S
C2894 C2893 1.399 . S
C2894 C2895 1.385 . S
C2895 H2881 0.931 . S
C2895 C2894 1.385 . S
C2895 C2896 1.389 . S
C2896 C2895 1.389 . S
C2896 C2897 1.387 . S
C2897 H2882 0.930 . S
C2897 C2892 1.390 . S
C2897 C2896 1.387 . S
H2898 C2910 0.930 . S
H2899 C2912 0.930 . S
H2900 C2913 0.930 . S
H2901 C2917 0.959 . S
H2902 C2917 0.959 . S
H2903 C2917 0.961 . S
H2904 C2918 0.960 . S
H2905 C2918 0.961 . S
H2906 C2918 0.959 . S
H2907 C2921 0.929 . S
H2908 C2922 0.931 . S
H2909 C2924 0.930 . S
C2910 H2898 0.930 . S
C2910 C2911 1.399 . S
C2910 C2915 1.399 . S
C2911 C2910 1.399 . S
C2911 C2912 1.376 . S
C2912 H2899 0.930 . S
C2912 C2911 1.376 . S
C2912 C2913 1.388 . S
C2913 H2900 0.930 . S
C2913 C2912 1.388 . S
C2913 C2914 1.390 . S
C2914 C2913 1.390 . S
C2914 C2915 1.394 . S
C2914 C2920 1.465 . S
C2915 C2910 1.399 . S
C2915 C2914 1.394 . S
C2915 C2916 1.516 . S
C2916 C2915 1.516 . S
C2916 C2917 1.502 . S
C2916 C2918 1.561 . S
C2916 C2919 1.526 . S
C2917 H2901 0.959 . S
C2917 H2902 0.959 . S
C2917 H2903 0.961 . S
C2917 C2916 1.502 . S
C2918 H2904 0.960 . S
C2918 H2905 0.961 . S
C2918 H2906 0.959 . S
C2918 C2916 1.561 . S
C2919 C2916 1.526 . S
C2919 C2920 1.396 . S
C2919 C2924 1.390 . S
C2920 C2914 1.465 . S
C2920 C2919 1.396 . S
C2920 C2921 1.399 . S
C2921 H2907 0.929 . S
C2921 C2920 1.399 . S
C2921 C2922 1.385 . S
C2922 H2908 0.931 . S
C2922 C2921 1.385 . S
C2922 C2923 1.389 . S
C2923 C2922 1.389 . S
C2923 C2924 1.387 . S
C2924 H2909 0.930 . S
C2924 C2919 1.390 . S
C2924 C2923 1.387 . S
H2925 C2937 0.930 . S
H2926 C2939 0.930 . S
H2927 C2940 0.930 . S
H2928 C2944 0.959 . S
H2929 C2944 0.959 . S
H2930 C2944 0.961 . S
H2931 C2945 0.960 . S
H2932 C2945 0.961 . S
H2933 C2945 0.959 . S
H2934 C2948 0.929 . S
H2935 C2949 0.931 . S
H2936 C2951 0.930 . S
C2937 H2925 0.930 . S
C2937 C2938 1.399 . S
C2937 C2942 1.399 . S
C2938 C2937 1.399 . S
C2938 C2939 1.376 . S
C2939 H2926 0.930 . S
C2939 C2938 1.376 . S
C2939 C2940 1.388 . S
C2940 H2927 0.930 . S
C2940 C2939 1.388 . S
C2940 C2941 1.390 . S
C2941 C2940 1.390 . S
C2941 C2942 1.394 . S
C2941 C2947 1.465 . S
C2942 C2937 1.399 . S
C2942 C2941 1.394 . S
C2942 C2943 1.516 . S
C2943 C2942 1.516 . S
C2943 C2944 1.502 . S
C2943 C2945 1.561 . S
C2943 C2946 1.526 . S
C2944 H2928 0.959 . S
C2944 H2929 0.959 . S
C2944 H2930 0.961 . S
C2944 C2943 1.502 . S
C2945 H2931 0.960 . S
C2945 H2932 0.961 . S
C2945 H2933 0.959 . S
C2945 C2943 1.561 . S
C2946 C2943 1.526 . S
C2946 C2947 1.396 . S
C2946 C2951 1.390 . S
C2947 C2941 1.465 . S
C2947 C2946 1.396 . S
C2947 C2948 1.399 . S
C2948 H2934 0.929 . S
C2948 C2947 1.399 . S
C2948 C2949 1.385 . S
C2949 H2935 0.931 . S
C2949 C2948 1.385 . S
C2949 C2950 1.389 . S
C2950 C2949 1.389 . S
C2950 C2951 1.387 . S
C2951 H2936 0.930 . S
C2951 C2946 1.390 . S
C2951 C2950 1.387 . S
H2952 C2964 0.930 . S
H2953 C2966 0.930 . S
H2954 C2967 0.930 . S
H2955 C2971 0.959 . S
H2956 C2971 0.959 . S
H2957 C2971 0.961 . S
H2958 C2972 0.960 . S
H2959 C2972 0.961 . S
H2960 C2972 0.959 . S
H2961 C2975 0.929 . S
H2962 C2976 0.931 . S
H2963 C2978 0.930 . S
C2964 H2952 0.930 . S
C2964 C2965 1.399 . S
C2964 C2969 1.399 . S
C2965 C2964 1.399 . S
C2965 C2966 1.376 . S
C2966 H2953 0.930 . S
C2966 C2965 1.376 . S
C2966 C2967 1.388 . S
C2967 H2954 0.930 . S
C2967 C2966 1.388 . S
C2967 C2968 1.390 . S
C2968 C2967 1.390 . S
C2968 C2969 1.394 . S
C2968 C2974 1.465 . S
C2969 C2964 1.399 . S
C2969 C2968 1.394 . S
C2969 C2970 1.516 . S
C2970 C2969 1.516 . S
C2970 C2971 1.502 . S
C2970 C2972 1.561 . S
C2970 C2973 1.526 . S
C2971 H2955 0.959 . S
C2971 H2956 0.959 . S
C2971 H2957 0.961 . S
C2971 C2970 1.502 . S
C2972 H2958 0.960 . S
C2972 H2959 0.961 . S
C2972 H2960 0.959 . S
C2972 C2970 1.561 . S
C2973 C2970 1.526 . S
C2973 C2974 1.396 . S
C2973 C2978 1.390 . S
C2974 C2968 1.465 . S
C2974 C2973 1.396 . S
C2974 C2975 1.399 . S
C2975 H2961 0.929 . S
C2975 C2974 1.399 . S
C2975 C2976 1.385 . S
C2976 H2962 0.931 . S
C2976 C2975 1.385 . S
C2976 C2977 1.389 . S
C2977 C2976 1.389 . S
C2977 C2978 1.387 . S
C2978 H2963 0.930 . S
C2978 C2973 1.390 . S
C2978 C2977 1.387 . S
H2979 C2991 0.930 . S
H2980 C2993 0.930 . S
H2981 C2994 0.930 . S
H2982 C2998 0.959 . S
H2983 C2998 0.959 . S
H2984 C2998 0.961 . S
H2985 C2999 0.960 . S
H2986 C2999 0.961 . S
H2987 C2999 0.959 . S
H2988 C3002 0.929 . S
H2989 C3003 0.931 . S
H2990 C3005 0.930 . S
C2991 H2979 0.930 . S
C2991 C2992 1.399 . S
C2991 C2996 1.399 . S
C2992 C2991 1.399 . S
C2992 C2993 1.376 . S
C2993 H2980 0.930 . S
C2993 C2992 1.376 . S
C2993 C2994 1.388 . S
C2994 H2981 0.930 . S
C2994 C2993 1.388 . S
C2994 C2995 1.390 . S
C2995 C2994 1.390 . S
C2995 C2996 1.394 . S
C2995 C3001 1.465 . S
C2996 C2991 1.399 . S
C2996 C2995 1.394 . S
C2996 C2997 1.516 . S
C2997 C2996 1.516 . S
C2997 C2998 1.502 . S
C2997 C2999 1.561 . S
C2997 C3000 1.526 . S
C2998 H2982 0.959 . S
C2998 H2983 0.959 . S
C2998 H2984 0.961 . S
C2998 C2997 1.502 . S
C2999 H2985 0.960 . S
C2999 H2986 0.961 . S
C2999 H2987 0.959 . S
C2999 C2997 1.561 . S
C3000 C2997 1.526 . S
C3000 C3001 1.396 . S
C3000 C3005 1.390 . S
C3001 C2995 1.465 . S
C3001 C3000 1.396 . S
C3001 C3002 1.399 . S
C3002 H2988 0.929 . S
C3002 C3001 1.399 . S
C3002 C3003 1.385 . S
C3003 H2989 0.931 . S
C3003 C3002 1.385 . S
C3003 C3004 1.389 . S
C3004 C3003 1.389 . S
C3004 C3005 1.387 . S
C3005 H2990 0.930 . S
C3005 C3000 1.390 . S
C3005 C3004 1.387 . S
H3006 C3018 0.930 1_655 S
H3007 C3020 0.930 . S
H3008 C3021 0.930 . S
H3009 C3025 0.959 . S
H3010 C3025 0.959 . S
H3011 C3025 0.961 . S
H3012 C3026 0.960 . S
H3013 C3026 0.961 . S
H3014 C3026 0.959 . S
H3015 C3029 0.929 . S
H3016 C3030 0.931 . S
H3017 C3032 0.930 . S
C3018 H3006 0.930 1_455 S
C3018 C3019 1.399 1_554 S
C3018 C3023 1.399 . S
C3019 C3018 1.399 1_556 S
C3019 C3020 1.376 . S
C3020 H3007 0.930 . S
C3020 C3019 1.376 . S
C3020 C3021 1.388 . S
C3021 H3008 0.930 . S
C3021 C3020 1.388 . S
C3021 C3022 1.390 . S
C3022 C3021 1.390 . S
C3022 C3023 1.394 1_556 S
C3022 C3028 1.465 . S
C3023 C3018 1.399 . S
C3023 C3022 1.394 1_554 S
C3023 C3024 1.516 . S
C3024 C3023 1.516 . S
C3024 C3025 1.502 1_455 S
C3024 C3026 1.561 . S
C3024 C3027 1.526 . S
C3025 H3009 0.959 . S
C3025 H3010 0.959 . S
C3025 H3011 0.961 . S
C3025 C3024 1.502 1_655 S
C3026 H3012 0.960 . S
C3026 H3013 0.961 . S
C3026 H3014 0.959 . S
C3026 C3024 1.561 . S
C3027 C3024 1.526 . S
C3027 C3028 1.396 1_554 S
C3027 C3032 1.390 . S
C3028 C3022 1.465 . S
C3028 C3027 1.396 1_556 S
C3028 C3029 1.399 . S
C3029 H3015 0.929 . S
C3029 C3028 1.399 . S
C3029 C3030 1.385 . S
C3030 H3016 0.931 . S
C3030 C3029 1.385 . S
C3030 C3031 1.389 1_556 S
C3031 C3030 1.389 1_554 S
C3031 C3032 1.387 . S
C3032 H3017 0.930 . S
C3032 C3027 1.390 . S
C3032 C3031 1.387 . S
H3033 C3045 0.930 . S
H3034 C3047 0.930 . S
H3035 C3048 0.930 . S
H3036 C3052 0.959 . S
H3037 C3052 0.959 . S
H3038 C3052 0.961 . S
H3039 C3053 0.960 . S
H3040 C3053 0.961 . S
H3041 C3053 0.959 . S
H3042 C3056 0.929 . S
H3043 C3057 0.931 . S
H3044 C3059 0.930 . S
C3045 H3033 0.930 . S
C3045 C3046 1.399 . S
C3045 C3050 1.399 . S
C3046 C3045 1.399 . S
C3046 C3047 1.376 . S
C3047 H3034 0.930 . S
C3047 C3046 1.376 . S
C3047 C3048 1.388 . S
C3048 H3035 0.930 . S
C3048 C3047 1.388 . S
C3048 C3049 1.390 . S
C3049 C3048 1.390 . S
C3049 C3050 1.394 . S
C3049 C3055 1.465 . S
C3050 C3045 1.399 . S
C3050 C3049 1.394 . S
C3050 C3051 1.516 . S
C3051 C3050 1.516 . S
C3051 C3052 1.502 . S
C3051 C3053 1.561 . S
C3051 C3054 1.526 . S
C3052 H3036 0.959 . S
C3052 H3037 0.959 . S
C3052 H3038 0.961 . S
C3052 C3051 1.502 . S
C3053 H3039 0.960 . S
C3053 H3040 0.961 . S
C3053 H3041 0.959 . S
C3053 C3051 1.561 . S
C3054 C3051 1.526 . S
C3054 C3055 1.396 . S
C3054 C3059 1.390 . S
C3055 C3049 1.465 . S
C3055 C3054 1.396 . S
C3055 C3056 1.399 . S
C3056 H3042 0.929 . S
C3056 C3055 1.399 . S
C3056 C3057 1.385 . S
C3057 H3043 0.931 . S
C3057 C3056 1.385 . S
C3057 C3058 1.389 . S
C3058 C3057 1.389 . S
C3058 C3059 1.387 . S
C3059 H3044 0.930 . S
C3059 C3054 1.390 . S
C3059 C3058 1.387 . S
H3060 C3072 0.930 . S
H3061 C3074 0.930 . S
H3062 C3075 0.930 . S
H3063 C3079 0.959 . S
H3064 C3079 0.959 . S
H3065 C3079 0.961 . S
H3066 C3080 0.960 . S
H3067 C3080 0.961 . S
H3068 C3080 0.959 . S
H3069 C3083 0.929 . S
H3070 C3084 0.931 . S
H3071 C3086 0.930 . S
C3072 H3060 0.930 . S
C3072 C3073 1.399 . S
C3072 C3077 1.399 . S
C3073 C3072 1.399 . S
C3073 C3074 1.376 . S
C3074 H3061 0.930 . S
C3074 C3073 1.376 . S
C3074 C3075 1.388 . S
C3075 H3062 0.930 . S
C3075 C3074 1.388 . S
C3075 C3076 1.390 . S
C3076 C3075 1.390 . S
C3076 C3077 1.394 . S
C3076 C3082 1.465 . S
C3077 C3072 1.399 . S
C3077 C3076 1.394 . S
C3077 C3078 1.516 . S
C3078 C3077 1.516 . S
C3078 C3079 1.502 . S
C3078 C3080 1.561 . S
C3078 C3081 1.526 . S
C3079 H3063 0.959 . S
C3079 H3064 0.959 . S
C3079 H3065 0.961 . S
C3079 C3078 1.502 . S
C3080 H3066 0.960 . S
C3080 H3067 0.961 . S
C3080 H3068 0.959 . S
C3080 C3078 1.561 . S
C3081 C3078 1.526 . S
C3081 C3082 1.396 . S
C3081 C3086 1.390 . S
C3082 C3076 1.465 . S
C3082 C3081 1.396 . S
C3082 C3083 1.399 . S
C3083 H3069 0.929 . S
C3083 C3082 1.399 . S
C3083 C3084 1.385 . S
C3084 H3070 0.931 . S
C3084 C3083 1.385 . S
C3084 C3085 1.389 . S
C3085 C3084 1.389 . S
C3085 C3086 1.387 . S
C3086 H3071 0.930 . S
C3086 C3081 1.390 . S
C3086 C3085 1.387 . S
H3087 C3099 0.930 . S
H3088 C3101 0.930 . S
H3089 C3102 0.930 . S
H3090 C3106 0.959 . S
H3091 C3106 0.959 . S
H3092 C3106 0.961 . S
H3093 C3107 0.960 . S
H3094 C3107 0.961 . S
H3095 C3107 0.959 . S
H3096 C3110 0.929 . S
H3097 C3111 0.931 . S
H3098 C3113 0.930 . S
C3099 H3087 0.930 . S
C3099 C3100 1.399 . S
C3099 C3104 1.399 . S
C3100 C3099 1.399 . S
C3100 C3101 1.376 . S
C3101 H3088 0.930 . S
C3101 C3100 1.376 . S
C3101 C3102 1.388 . S
C3102 H3089 0.930 . S
C3102 C3101 1.388 . S
C3102 C3103 1.390 . S
C3103 C3102 1.390 . S
C3103 C3104 1.394 . S
C3103 C3109 1.465 . S
C3104 C3099 1.399 . S
C3104 C3103 1.394 . S
C3104 C3105 1.516 . S
C3105 C3104 1.516 . S
C3105 C3106 1.502 . S
C3105 C3107 1.561 . S
C3105 C3108 1.526 . S
C3106 H3090 0.959 . S
C3106 H3091 0.959 . S
C3106 H3092 0.961 . S
C3106 C3105 1.502 . S
C3107 H3093 0.960 . S
C3107 H3094 0.961 . S
C3107 H3095 0.959 . S
C3107 C3105 1.561 . S
C3108 C3105 1.526 . S
C3108 C3109 1.396 . S
C3108 C3113 1.390 . S
C3109 C3103 1.465 . S
C3109 C3108 1.396 . S
C3109 C3110 1.399 . S
C3110 H3096 0.929 . S
C3110 C3109 1.399 . S
C3110 C3111 1.385 . S
C3111 H3097 0.931 . S
C3111 C3110 1.385 . S
C3111 C3112 1.389 . S
C3112 C3111 1.389 . S
C3112 C3113 1.387 . S
C3113 H3098 0.930 . S
C3113 C3108 1.390 . S
C3113 C3112 1.387 . S
H3114 C3126 0.930 1_655 S
H3115 C3128 0.930 . S
H3116 C3129 0.930 . S
H3117 C3133 0.959 . S
H3118 C3133 0.959 . S
H3119 C3133 0.961 . S
H3120 C3134 0.960 . S
H3121 C3134 0.961 . S
H3122 C3134 0.981 . S
H3123 C3137 0.929 . S
H3124 C3138 0.931 . S
H3125 C3140 0.930 1_655 S
C3126 H3114 0.930 1_455 S
C3126 C3127 1.399 . S
C3126 C3131 1.399 . S
C3127 C3126 1.399 . S
C3127 C3128 1.376 . S
C3128 H3115 0.930 . S
C3128 C3127 1.376 . S
C3128 C3129 1.388 . S
C3129 H3116 0.930 . S
C3129 C3128 1.388 . S
C3129 C3130 1.390 . S
C3130 C3129 1.390 . S
C3130 C3131 1.394 . S
C3130 C3136 1.465 . S
C3131 C3126 1.399 . S
C3131 C3130 1.394 . S
C3131 C3132 1.516 1_455 S
C3132 C3131 1.516 1_655 S
C3132 C3133 1.502 . S
C3132 C3134 1.561 . S
C3132 C3135 1.526 1_655 S
C3133 H3117 0.959 . S
C3133 H3118 0.959 . S
C3133 H3119 0.961 . S
C3133 C3132 1.502 . S
C3134 H3120 0.960 . S
C3134 H3121 0.961 . S
C3134 H3122 0.981 . S
C3134 C3132 1.561 . S
C3135 C3132 1.526 1_455 S
C3135 C3136 1.396 . S
C3135 C3140 1.390 . S
C3136 C3130 1.465 . S
C3136 C3135 1.396 . S
C3136 C3137 1.399 . S
C3137 H3123 0.929 . S
C3137 C3136 1.399 . S
C3137 C3138 1.385 . S
C3138 H3124 0.931 . S
C3138 C3137 1.385 . S
C3138 C3139 1.389 . S
C3139 C3138 1.389 . S
C3139 C3140 1.387 . S
C3140 H3125 0.930 1_455 S
C3140 C3135 1.390 . S
C3140 C3139 1.387 . S
H3141 C3153 0.930 . S
H3142 C3155 0.930 . S
H3143 C3156 0.930 . S
H3144 C3160 0.959 . S
H3145 C3160 0.959 . S
H3146 C3160 0.961 . S
H3147 C3161 0.960 . S
H3148 C3161 0.961 . S
H3149 C3161 0.959 . S
H3150 C3164 0.929 . S
H3151 C3165 0.931 . S
H3152 C3167 0.930 . S
C3153 H3141 0.930 . S
C3153 C3154 1.399 . S
C3153 C3158 1.399 . S
C3154 C3153 1.399 . S
C3154 C3155 1.376 . S
C3155 H3142 0.930 . S
C3155 C3154 1.376 . S
C3155 C3156 1.388 . S
C3156 H3143 0.930 . S
C3156 C3155 1.388 . S
C3156 C3157 1.390 . S
C3157 C3156 1.390 . S
C3157 C3158 1.394 . S
C3157 C3163 1.465 . S
C3158 C3153 1.399 . S
C3158 C3157 1.394 . S
C3158 C3159 1.516 . S
C3159 C3158 1.516 . S
C3159 C3160 1.502 . S
C3159 C3161 1.561 . S
C3159 C3162 1.526 . S
C3160 H3144 0.959 . S
C3160 H3145 0.959 . S
C3160 H3146 0.961 . S
C3160 C3159 1.502 . S
C3161 H3147 0.960 . S
C3161 H3148 0.961 . S
C3161 H3149 0.959 . S
C3161 C3159 1.561 . S
C3162 C3159 1.526 . S
C3162 C3163 1.396 . S
C3162 C3167 1.390 . S
C3163 C3157 1.465 . S
C3163 C3162 1.396 . S
C3163 C3164 1.399 . S
C3164 H3150 0.929 . S
C3164 C3163 1.399 . S
C3164 C3165 1.385 . S
C3165 H3151 0.931 . S
C3165 C3164 1.385 . S
C3165 C3166 1.389 . S
C3166 C3165 1.389 . S
C3166 C3167 1.387 . S
C3167 H3152 0.930 . S
C3167 C3162 1.390 . S
C3167 C3166 1.387 . S
H3168 C3180 0.930 . S
H3169 C3182 0.930 . S
H3170 C3183 0.930 . S
H3171 C3187 0.959 . S
H3172 C3187 0.959 . S
H3173 C3187 0.961 . S
H3174 C3188 0.960 . S
H3175 C3188 0.961 . S
H3176 C3188 0.959 . S
H3177 C3191 0.929 . S
H3178 C3192 0.931 . S
H3179 C3194 0.930 . S
C3180 H3168 0.930 . S
C3180 C3181 1.399 . S
C3180 C3185 1.399 . S
C3181 C3180 1.399 . S
C3181 C3182 1.376 . S
C3182 H3169 0.930 . S
C3182 C3181 1.376 . S
C3182 C3183 1.388 . S
C3183 H3170 0.930 . S
C3183 C3182 1.388 . S
C3183 C3184 1.390 . S
C3184 C3183 1.390 . S
C3184 C3185 1.394 . S
C3184 C3190 1.465 . S
C3185 C3180 1.399 . S
C3185 C3184 1.394 . S
C3185 C3186 1.516 . S
C3186 C3185 1.516 . S
C3186 C3187 1.502 . S
C3186 C3188 1.561 . S
C3186 C3189 1.526 . S
C3187 H3171 0.959 . S
C3187 H3172 0.959 . S
C3187 H3173 0.961 . S
C3187 C3186 1.502 . S
C3188 H3174 0.960 . S
C3188 H3175 0.961 . S
C3188 H3176 0.959 . S
C3188 C3186 1.561 . S
C3189 C3186 1.526 . S
C3189 C3190 1.396 . S
C3189 C3194 1.390 . S
C3190 C3184 1.465 . S
C3190 C3189 1.396 . S
C3190 C3191 1.399 . S
C3191 H3177 0.929 . S
C3191 C3190 1.399 . S
C3191 C3192 1.385 . S
C3192 H3178 0.931 . S
C3192 C3191 1.385 . S
C3192 C3193 1.389 . S
C3193 C3192 1.389 . S
C3193 C3194 1.387 . S
C3194 H3179 0.930 . S
C3194 C3189 1.390 . S
C3194 C3193 1.387 . S
H3195 C3207 0.930 . S
H3196 C3209 0.916 1_554 S
H3197 C3210 0.930 . S
H3198 C3214 0.959 . S
H3199 C3214 0.959 . S
H3200 C3214 0.961 . S
H3201 C3215 0.960 1_554 S
H3202 C3215 0.961 . S
H3203 C3215 0.959 . S
H3204 C3218 0.929 . S
H3205 C3219 0.931 . S
H3206 C3221 0.930 . S
C3207 H3195 0.930 . S
C3207 C3208 1.399 . S
C3207 C3212 1.399 1_554 S
C3208 C3207 1.399 . S
C3208 C3209 1.350 1_554 S
C3209 H3196 0.916 1_556 S
C3209 C3208 1.350 1_556 S
C3209 C3210 1.430 . S
C3210 H3197 0.930 . S
C3210 C3209 1.430 . S
C3210 C3211 1.390 . S
C3211 C3210 1.390 . S
C3211 C3212 1.394 . S
C3211 C3217 1.465 . S
C3212 C3207 1.399 1_556 S
C3212 C3211 1.394 . S
C3212 C3213 1.516 . S
C3213 C3212 1.516 . S
C3213 C3214 1.502 . S
C3213 C3215 1.561 . S
C3213 C3216 1.526 . S
C3214 H3198 0.959 . S
C3214 H3199 0.959 . S
C3214 H3200 0.961 . S
C3214 C3213 1.502 . S
C3215 H3201 0.960 1_556 S
C3215 H3202 0.961 . S
C3215 H3203 0.959 . S
C3215 C3213 1.561 . S
C3216 C3213 1.526 . S
C3216 C3217 1.396 . S
C3216 C3221 1.390 . S
C3217 C3211 1.465 . S
C3217 C3216 1.396 . S
C3217 C3218 1.399 . S
C3218 H3204 0.929 . S
C3218 C3217 1.399 . S
C3218 C3219 1.385 . S
C3219 H3205 0.931 . S
C3219 C3218 1.385 . S
C3219 C3220 1.389 . S
C3220 C3219 1.389 . S
C3220 C3221 1.387 . S
C3221 H3206 0.930 . S
C3221 C3216 1.390 . S
C3221 C3220 1.387 . S
H3222 C3234 0.930 . S
H3223 C3236 0.930 . S
H3224 C3237 0.930 . S
H3225 C3241 0.959 . S
H3226 C3241 0.959 . S
H3227 C3241 0.961 . S
H3228 C3242 0.960 . S
H3229 C3242 0.961 . S
H3230 C3242 0.959 . S
H3231 C3245 0.929 . S
H3232 C3246 0.931 . S
H3233 C3248 0.930 . S
C3234 H3222 0.930 . S
C3234 C3235 1.399 . S
C3234 C3239 1.399 . S
C3235 C3234 1.399 . S
C3235 C3236 1.376 . S
C3236 H3223 0.930 . S
C3236 C3235 1.376 . S
C3236 C3237 1.388 . S
C3237 H3224 0.930 . S
C3237 C3236 1.388 . S
C3237 C3238 1.390 . S
C3238 C3237 1.390 . S
C3238 C3239 1.394 . S
C3238 C3244 1.465 . S
C3239 C3234 1.399 . S
C3239 C3238 1.394 . S
C3239 C3240 1.516 . S
C3240 C3239 1.516 . S
C3240 C3241 1.502 . S
C3240 C3242 1.561 . S
C3240 C3243 1.526 . S
C3241 H3225 0.959 . S
C3241 H3226 0.959 . S
C3241 H3227 0.961 . S
C3241 C3240 1.502 . S
C3242 H3228 0.960 . S
C3242 H3229 0.961 . S
C3242 H3230 0.959 . S
C3242 C3240 1.561 . S
C3243 C3240 1.526 . S
C3243 C3244 1.396 . S
C3243 C3248 1.390 . S
C3244 C3238 1.465 . S
C3244 C3243 1.396 . S
C3244 C3245 1.399 . S
C3245 H3231 0.929 . S
C3245 C3244 1.399 . S
C3245 C3246 1.385 . S
C3246 H3232 0.931 . S
C3246 C3245 1.385 . S
C3246 C3247 1.389 . S
C3247 C3246 1.389 . S
C3247 C3248 1.387 . S
C3248 H3233 0.930 . S
C3248 C3243 1.390 . S
C3248 C3247 1.387 . S
H3249 C3261 0.930 . S
H3250 C3263 0.930 . S
H3251 C3264 0.930 . S
H3252 C3268 0.959 . S
H3253 C3268 0.959 . S
H3254 C3268 0.961 . S
H3255 C3269 0.960 . S
H3256 C3269 0.961 . S
H3257 C3269 0.959 . S
H3258 C3272 0.929 . S
H3259 C3273 0.931 . S
H3260 C3275 0.930 . S
C3261 H3249 0.930 . S
C3261 C3262 1.399 . S
C3261 C3266 1.399 . S
C3262 C3261 1.399 . S
C3262 C3263 1.376 . S
C3263 H3250 0.930 . S
C3263 C3262 1.376 . S
C3263 C3264 1.388 . S
C3264 H3251 0.930 . S
C3264 C3263 1.388 . S
C3264 C3265 1.390 . S
C3265 C3264 1.390 . S
C3265 C3266 1.394 . S
C3265 C3271 1.465 . S
C3266 C3261 1.399 . S
C3266 C3265 1.394 . S
C3266 C3267 1.516 . S
C3267 C3266 1.516 . S
C3267 C3268 1.502 . S
C3267 C3269 1.561 . S
C3267 C3270 1.526 . S
C3268 H3252 0.959 . S
C3268 H3253 0.959 . S
C3268 H3254 0.961 . S
C3268 C3267 1.502 . S
C3269 H3255 0.960 . S
C3269 H3256 0.961 . S
C3269 H3257 0.959 . S
C3269 C3267 1.561 . S
C3270 C3267 1.526 . S
C3270 C3271 1.396 . S
C3270 C3275 1.390 . S
C3271 C3265 1.465 . S
C3271 C3270 1.396 . S
C3271 C3272 1.399 . S
C3272 H3258 0.929 . S
C3272 C3271 1.399 . S
C3272 C3273 1.385 . S
C3273 H3259 0.931 . S
C3273 C3272 1.385 . S
C3273 C3274 1.389 . S
C3274 C3273 1.389 . S
C3274 C3275 1.387 . S
C3275 H3260 0.930 . S
C3275 C3270 1.390 . S
C3275 C3274 1.387 . S
H3276 C3288 0.930 . S
H3277 C3290 0.930 . S
H3278 C3291 0.930 . S
H3279 C3295 0.959 . S
H3280 C3295 0.959 . S
H3281 C3295 0.961 . S
H3282 C3296 0.960 . S
H3283 C3296 0.961 . S
H3284 C3296 0.959 . S
H3285 C3299 0.929 . S
H3286 C3300 0.931 . S
H3287 C3302 0.930 . S
C3288 H3276 0.930 . S
C3288 C3289 1.399 . S
C3288 C3293 1.399 . S
C3289 C3288 1.399 . S
C3289 C3290 1.376 . S
C3290 H3277 0.930 . S
C3290 C3289 1.376 . S
C3290 C3291 1.388 . S
C3291 H3278 0.930 . S
C3291 C3290 1.388 . S
C3291 C3292 1.390 . S
C3292 C3291 1.390 . S
C3292 C3293 1.394 . S
C3292 C3298 1.465 . S
C3293 C3288 1.399 . S
C3293 C3292 1.394 . S
C3293 C3294 1.516 . S
C3294 C3293 1.516 . S
C3294 C3295 1.502 . S
C3294 C3296 1.561 . S
C3294 C3297 1.526 . S
C3295 H3279 0.959 . S
C3295 H3280 0.959 . S
C3295 H3281 0.961 . S
C3295 C3294 1.502 . S
C3296 H3282 0.960 . S
C3296 H3283 0.961 . S
C3296 H3284 0.959 . S
C3296 C3294 1.561 . S
C3297 C3294 1.526 . S
C3297 C3298 1.396 . S
C3297 C3302 1.390 . S
C3298 C3292 1.465 . S
C3298 C3297 1.396 . S
C3298 C3299 1.399 . S
C3299 H3285 0.929 . S
C3299 C3298 1.399 . S
C3299 C3300 1.385 . S
C3300 H3286 0.931 . S
C3300 C3299 1.385 . S
C3300 C3301 1.389 . S
C3301 C3300 1.389 . S
C3301 C3302 1.387 . S
C3302 H3287 0.930 . S
C3302 C3297 1.390 . S
C3302 C3301 1.387 . S
H3303 C3315 0.930 . S
H3304 C3317 0.930 . S
H3305 C3318 0.930 . S
H3306 C3322 0.959 . S
H3307 C3322 0.959 . S
H3308 C3322 0.961 . S
H3309 C3323 0.960 . S
H3310 C3323 0.961 . S
H3311 C3323 0.959 . S
H3312 C3326 0.929 . S
H3313 C3327 0.931 . S
H3314 C3329 0.930 . S
C3315 H3303 0.930 . S
C3315 C3316 1.399 . S
C3315 C3320 1.399 . S
C3316 C3315 1.399 . S
C3316 C3317 1.376 . S
C3317 H3304 0.930 . S
C3317 C3316 1.376 . S
C3317 C3318 1.388 . S
C3318 H3305 0.930 . S
C3318 C3317 1.388 . S
C3318 C3319 1.390 . S
C3319 C3318 1.390 . S
C3319 C3320 1.394 . S
C3319 C3325 1.465 . S
C3320 C3315 1.399 . S
C3320 C3319 1.394 . S
C3320 C3321 1.516 . S
C3321 C3320 1.516 . S
C3321 C3322 1.502 . S
C3321 C3323 1.561 . S
C3321 C3324 1.526 . S
C3322 H3306 0.959 . S
C3322 H3307 0.959 . S
C3322 H3308 0.961 . S
C3322 C3321 1.502 . S
C3323 H3309 0.960 . S
C3323 H3310 0.961 . S
C3323 H3311 0.959 . S
C3323 C3321 1.561 . S
C3324 C3321 1.526 . S
C3324 C3325 1.396 . S
C3324 C3329 1.390 . S
C3325 C3319 1.465 . S
C3325 C3324 1.396 . S
C3325 C3326 1.399 . S
C3326 H3312 0.929 . S
C3326 C3325 1.399 . S
C3326 C3327 1.385 . S
C3327 H3313 0.931 . S
C3327 C3326 1.385 . S
C3327 C3328 1.389 . S
C3328 C3327 1.389 . S
C3328 C3329 1.387 . S
C3329 H3314 0.930 . S
C3329 C3324 1.390 . S
C3329 C3328 1.387 . S
H3330 C3342 0.930 . S
H3331 C3344 0.930 . S
H3332 C3345 0.930 . S
H3333 C3349 0.959 . S
H3334 C3349 0.959 . S
H3335 C3349 0.961 . S
H3336 C3350 0.960 . S
H3337 C3350 0.961 . S
H3338 C3350 0.959 . S
H3339 C3353 0.929 . S
H3340 C3354 0.931 . S
H3341 C3356 0.930 . S
C3342 H3330 0.930 . S
C3342 C3343 1.399 . S
C3342 C3347 1.399 . S
C3343 C3342 1.399 . S
C3343 C3344 1.376 . S
C3344 H3331 0.930 . S
C3344 C3343 1.376 . S
C3344 C3345 1.388 . S
C3345 H3332 0.930 . S
C3345 C3344 1.388 . S
C3345 C3346 1.390 . S
C3346 C3345 1.390 . S
C3346 C3347 1.394 . S
C3346 C3352 1.465 . S
C3347 C3342 1.399 . S
C3347 C3346 1.394 . S
C3347 C3348 1.516 . S
C3348 C3347 1.516 . S
C3348 C3349 1.502 . S
C3348 C3350 1.561 . S
C3348 C3351 1.526 . S
C3349 H3333 0.959 . S
C3349 H3334 0.959 . S
C3349 H3335 0.961 . S
C3349 C3348 1.502 . S
C3350 H3336 0.960 . S
C3350 H3337 0.961 . S
C3350 H3338 0.959 . S
C3350 C3348 1.561 . S
C3351 C3348 1.526 . S
C3351 C3352 1.396 . S
C3351 C3356 1.390 . S
C3352 C3346 1.465 . S
C3352 C3351 1.396 . S
C3352 C3353 1.399 . S
C3353 H3339 0.929 . S
C3353 C3352 1.399 . S
C3353 C3354 1.385 . S
C3354 H3340 0.931 . S
C3354 C3353 1.385 . S
C3354 C3355 1.389 . S
C3355 C3354 1.389 . S
C3355 C3356 1.387 . S
C3356 H3341 0.930 . S
C3356 C3351 1.390 . S
C3356 C3355 1.387 . S
H3357 C3369 0.930 . S
H3358 C3371 0.930 . S
H3359 C3372 0.930 . S
H3360 C3376 0.959 . S
H3361 C3376 0.959 . S
H3362 C3376 0.961 . S
H3363 C3377 0.960 . S
H3364 C3377 0.961 . S
H3365 C3377 0.959 . S
H3366 C3380 0.929 . S
H3367 C3381 0.931 . S
H3368 C3383 0.930 . S
C3369 H3357 0.930 . S
C3369 C3370 1.399 . S
C3369 C3374 1.399 . S
C3370 C3369 1.399 . S
C3370 C3371 1.376 . S
C3371 H3358 0.930 . S
C3371 C3370 1.376 . S
C3371 C3372 1.388 . S
C3372 H3359 0.930 . S
C3372 C3371 1.388 . S
C3372 C3373 1.390 . S
C3373 C3372 1.390 . S
C3373 C3374 1.394 . S
C3373 C3379 1.465 . S
C3374 C3369 1.399 . S
C3374 C3373 1.394 . S
C3374 C3375 1.516 . S
C3375 C3374 1.516 . S
C3375 C3376 1.502 . S
C3375 C3377 1.561 . S
C3375 C3378 1.526 . S
C3376 H3360 0.959 . S
C3376 H3361 0.959 . S
C3376 H3362 0.961 . S
C3376 C3375 1.502 . S
C3377 H3363 0.960 . S
C3377 H3364 0.961 . S
C3377 H3365 0.959 . S
C3377 C3375 1.561 . S
C3378 C3375 1.526 . S
C3378 C3379 1.396 . S
C3378 C3383 1.390 . S
C3379 C3373 1.465 . S
C3379 C3378 1.396 . S
C3379 C3380 1.399 . S
C3380 H3366 0.929 . S
C3380 C3379 1.399 . S
C3380 C3381 1.385 . S
C3381 H3367 0.931 . S
C3381 C3380 1.385 . S
C3381 C3382 1.389 . S
C3382 C3381 1.389 . S
C3382 C3383 1.387 . S
C3383 H3368 0.930 . S
C3383 C3378 1.390 . S
C3383 C3382 1.387 . S
H3384 C3396 0.930 . S
H3385 C3398 0.930 . S
H3386 C3399 0.930 . S
H3387 C3403 0.959 . S
H3388 C3403 0.959 . S
H3389 C3403 0.961 . S
H3390 C3404 0.960 . S
H3391 C3404 0.961 . S
H3392 C3404 0.959 . S
H3393 C3407 0.929 . S
H3394 C3408 0.931 . S
H3395 C3410 0.930 . S
C3396 H3384 0.930 . S
C3396 C3397 1.399 . S
C3396 C3401 1.399 . S
C3397 C3396 1.399 . S
C3397 C3398 1.376 . S
C3398 H3385 0.930 . S
C3398 C3397 1.376 . S
C3398 C3399 1.388 . S
C3399 H3386 0.930 . S
C3399 C3398 1.388 . S
C3399 C3400 1.390 . S
C3400 C3399 1.390 . S
C3400 C3401 1.394 . S
C3400 C3406 1.465 . S
C3401 C3396 1.399 . S
C3401 C3400 1.394 . S
C3401 C3402 1.516 . S
C3402 C3401 1.516 . S
C3402 C3403 1.502 . S
C3402 C3404 1.561 . S
C3402 C3405 1.526 . S
C3403 H3387 0.959 . S
C3403 H3388 0.959 . S
C3403 H3389 0.961 . S
C3403 C3402 1.502 . S
C3404 H3390 0.960 . S
C3404 H3391 0.961 . S
C3404 H3392 0.959 . S
C3404 C3402 1.561 . S
C3405 C3402 1.526 . S
C3405 C3406 1.396 . S
C3405 C3410 1.390 . S
C3406 C3400 1.465 . S
C3406 C3405 1.396 . S
C3406 C3407 1.399 . S
C3407 H3393 0.929 . S
C3407 C3406 1.399 . S
C3407 C3408 1.385 . S
C3408 H3394 0.931 . S
C3408 C3407 1.385 . S
C3408 C3409 1.389 . S
C3409 C3408 1.389 . S
C3409 C3410 1.387 . S
C3410 H3395 0.930 . S
C3410 C3405 1.390 . S
C3410 C3409 1.387 . S
H3411 C3423 0.930 . S
H3412 C3425 0.930 . S
H3413 C3426 0.930 . S
H3414 C3430 0.959 . S
H3415 C3430 0.959 . S
H3416 C3430 0.961 . S
H3417 C3431 0.960 . S
H3418 C3431 0.961 . S
H3419 C3431 0.959 . S
H3420 C3434 0.929 . S
H3421 C3435 0.931 . S
H3422 C3437 0.930 . S
C3423 H3411 0.930 . S
C3423 C3424 1.399 . S
C3423 C3428 1.399 . S
C3424 C3423 1.399 . S
C3424 C3425 1.376 . S
C3425 H3412 0.930 . S
C3425 C3424 1.376 . S
C3425 C3426 1.388 . S
C3426 H3413 0.930 . S
C3426 C3425 1.388 . S
C3426 C3427 1.390 . S
C3427 C3426 1.390 . S
C3427 C3428 1.394 . S
C3427 C3433 1.465 . S
C3428 C3423 1.399 . S
C3428 C3427 1.394 . S
C3428 C3429 1.516 . S
C3429 C3428 1.516 . S
C3429 C3430 1.502 . S
C3429 C3431 1.561 . S
C3429 C3432 1.526 . S
C3430 H3414 0.959 . S
C3430 H3415 0.959 . S
C3430 H3416 0.961 . S
C3430 C3429 1.502 . S
C3431 H3417 0.960 . S
C3431 H3418 0.961 . S
C3431 H3419 0.959 . S
C3431 C3429 1.561 . S
C3432 C3429 1.526 . S
C3432 C3433 1.396 . S
C3432 C3437 1.390 . S
C3433 C3427 1.465 . S
C3433 C3432 1.396 . S
C3433 C3434 1.399 . S
C3434 H3420 0.929 . S
C3434 C3433 1.399 . S
C3434 C3435 1.385 . S
C3435 H3421 0.931 . S
C3435 C3434 1.385 . S
C3435 C3436 1.389 . S
C3436 C3435 1.389 . S
C3436 C3437 1.387 . S
C3437 H3422 0.930 . S
C3437 C3432 1.390 . S
C3437 C3436 1.387 . S
H3438 C3450 0.930 . S
H3439 C3452 0.930 . S
H3440 C3453 0.930 . S
H3441 C3457 0.959 . S
H3442 C3457 0.959 . S
H3443 C3457 0.961 . S
H3444 C3458 0.960 . S
H3445 C3458 0.961 . S
H3446 C3458 0.959 . S
H3447 C3461 0.929 . S
H3448 C3462 0.931 . S
H3449 C3464 0.930 . S
C3450 H3438 0.930 . S
C3450 C3451 1.399 . S
C3450 C3455 1.399 . S
C3451 C3450 1.399 . S
C3451 C3452 1.376 . S
C3452 H3439 0.930 . S
C3452 C3451 1.376 . S
C3452 C3453 1.388 . S
C3453 H3440 0.930 . S
C3453 C3452 1.388 . S
C3453 C3454 1.390 . S
C3454 C3453 1.390 . S
C3454 C3455 1.394 . S
C3454 C3460 1.465 . S
C3455 C3450 1.399 . S
C3455 C3454 1.394 . S
C3455 C3456 1.516 . S
C3456 C3455 1.516 . S
C3456 C3457 1.502 . S
C3456 C3458 1.561 . S
C3456 C3459 1.526 . S
C3457 H3441 0.959 . S
C3457 H3442 0.959 . S
C3457 H3443 0.961 . S
C3457 C3456 1.502 . S
C3458 H3444 0.960 . S
C3458 H3445 0.961 . S
C3458 H3446 0.959 . S
C3458 C3456 1.561 . S
C3459 C3456 1.526 . S
C3459 C3460 1.396 . S
C3459 C3464 1.390 . S
C3460 C3454 1.465 . S
C3460 C3459 1.396 . S
C3460 C3461 1.399 . S
C3461 H3447 0.929 . S
C3461 C3460 1.399 . S
C3461 C3462 1.385 . S
C3462 H3448 0.931 . S
C3462 C3461 1.385 . S
C3462 C3463 1.389 . S
C3463 C3462 1.389 . S
C3463 C3464 1.387 . S
C3464 H3449 0.930 . S
C3464 C3459 1.390 . S
C3464 C3463 1.387 . S
H3465 C3477 0.930 . S
H3466 C3479 0.930 . S
H3467 C3480 0.930 . S
H3468 C3484 0.959 . S
H3469 C3484 0.959 . S
H3470 C3484 0.961 . S
H3471 C3485 0.960 . S
H3472 C3485 0.961 . S
H3473 C3485 0.959 . S
H3474 C3488 0.929 . S
H3475 C3489 0.938 . S
H3476 C3491 0.930 . S
C3477 H3465 0.930 . S
C3477 C3478 1.399 . S
C3477 C3482 1.399 . S
C3478 C3477 1.399 . S
C3478 C3479 1.376 1_554 S
C3479 H3466 0.930 . S
C3479 C3478 1.376 1_556 S
C3479 C3480 1.388 . S
C3480 H3467 0.930 . S
C3480 C3479 1.388 . S
C3480 C3481 1.390 1_556 S
C3481 C3480 1.390 1_554 S
C3481 C3482 1.394 . S
C3481 C3487 1.465 . S
C3482 C3477 1.399 . S
C3482 C3481 1.394 . S
C3482 C3483 1.521 . S
C3483 C3482 1.521 . S
C3483 C3484 1.488 1_565 S
C3483 C3485 1.569 . S
C3483 C3486 1.528 . S
C3484 H3468 0.959 . S
C3484 H3469 0.959 . S
C3484 H3470 0.961 . S
C3484 C3483 1.488 1_545 S
C3485 H3471 0.960 . S
C3485 H3472 0.961 . S
C3485 H3473 0.959 . S
C3485 C3483 1.569 . S
C3486 C3483 1.528 . S
C3486 C3487 1.396 . S
C3486 C3491 1.390 1_565 S
C3487 C3481 1.465 . S
C3487 C3486 1.396 . S
C3487 C3488 1.399 1_554 S
C3488 H3474 0.929 . S
C3488 C3487 1.399 1_556 S
C3488 C3489 1.386 . S
C3489 H3475 0.938 . S
C3489 C3488 1.386 . S
C3489 C3490 1.381 1_566 S
C3490 C3489 1.381 1_544 S
C3490 C3491 1.387 . S
C3491 H3476 0.930 . S
C3491 C3486 1.390 1_545 S
C3491 C3490 1.387 . S
H3492 C3504 0.930 . S
H3493 C3506 0.930 . S
H3494 C3507 0.930 . S
H3495 C3511 0.959 . S
H3496 C3511 0.959 . S
H3497 C3511 0.961 . S
H3498 C3512 0.960 . S
H3499 C3512 0.961 . S
H3500 C3512 0.959 . S
H3501 C3515 0.929 . S
H3502 C3516 0.931 . S
H3503 C3518 0.930 . S
C3504 H3492 0.930 . S
C3504 C3505 1.399 . S
C3504 C3509 1.399 . S
C3505 C3504 1.399 . S
C3505 C3506 1.376 . S
C3506 H3493 0.930 . S
C3506 C3505 1.376 . S
C3506 C3507 1.388 . S
C3507 H3494 0.930 . S
C3507 C3506 1.388 . S
C3507 C3508 1.390 . S
C3508 C3507 1.390 . S
C3508 C3509 1.394 . S
C3508 C3514 1.465 . S
C3509 C3504 1.399 . S
C3509 C3508 1.394 . S
C3509 C3510 1.516 . S
C3510 C3509 1.516 . S
C3510 C3511 1.502 . S
C3510 C3512 1.561 . S
C3510 C3513 1.526 . S
C3511 H3495 0.959 . S
C3511 H3496 0.959 . S
C3511 H3497 0.961 . S
C3511 C3510 1.502 . S
C3512 H3498 0.960 . S
C3512 H3499 0.961 . S
C3512 H3500 0.959 . S
C3512 C3510 1.561 . S
C3513 C3510 1.526 . S
C3513 C3514 1.396 . S
C3513 C3518 1.390 . S
C3514 C3508 1.465 . S
C3514 C3513 1.396 . S
C3514 C3515 1.399 . S
C3515 H3501 0.929 . S
C3515 C3514 1.399 . S
C3515 C3516 1.385 . S
C3516 H3502 0.931 . S
C3516 C3515 1.385 . S
C3516 C3517 1.389 . S
C3517 C3516 1.389 . S
C3517 C3518 1.387 . S
C3518 H3503 0.930 . S
C3518 C3513 1.390 . S
C3518 C3517 1.387 . S
H3519 C3531 0.900 1_556 S
H3520 C3533 0.930 . S
H3521 C3534 0.930 . S
H3522 C3538 0.959 . S
H3523 C3538 0.959 . S
H3524 C3538 0.961 . S
H3525 C3539 0.960 . S
H3526 C3539 0.961 . S
H3527 C3539 0.959 . S
H3528 C3542 0.929 . S
H3529 C3543 0.931 . S
H3530 C3545 0.930 1_556 S
C3531 H3519 0.900 1_554 S
C3531 C3532 1.421 . S
C3531 C3536 1.408 . S
C3532 C3531 1.421 . S
C3532 C3533 1.376 . S
C3533 H3520 0.930 . S
C3533 C3532 1.376 . S
C3533 C3534 1.388 . S
C3534 H3521 0.930 . S
C3534 C3533 1.388 . S
C3534 C3535 1.390 . S
C3535 C3534 1.390 . S
C3535 C3536 1.394 . S
C3535 C3541 1.465 . S
C3536 C3531 1.408 . S
C3536 C3535 1.394 . S
C3536 C3537 1.516 1_554 S
C3537 C3536 1.516 1_556 S
C3537 C3538 1.502 . S
C3537 C3539 1.561 . S
C3537 C3540 1.526 1_556 S
C3538 H3522 0.959 . S
C3538 H3523 0.959 . S
C3538 H3524 0.961 . S
C3538 C3537 1.502 . S
C3539 H3525 0.960 . S
C3539 H3526 0.961 . S
C3539 H3527 0.959 . S
C3539 C3537 1.561 . S
C3540 C3537 1.526 1_554 S
C3540 C3541 1.396 . S
C3540 C3545 1.390 . S
C3541 C3535 1.465 . S
C3541 C3540 1.396 . S
C3541 C3542 1.399 . S
C3542 H3528 0.929 . S
C3542 C3541 1.399 . S
C3542 C3543 1.385 . S
C3543 H3529 0.931 . S
C3543 C3542 1.385 . S
C3543 C3544 1.389 . S
C3544 C3543 1.389 . S
C3544 C3545 1.387 . S
C3545 H3530 0.930 1_554 S
C3545 C3540 1.390 . S
C3545 C3544 1.387 . S
H3546 C3558 0.930 . S
H3547 C3560 0.930 . S
H3548 C3561 0.930 . S
H3549 C3565 0.959 . S
H3550 C3565 0.959 . S
H3551 C3565 0.961 . S
H3552 C3566 0.960 . S
H3553 C3566 0.961 . S
H3554 C3566 0.959 . S
H3555 C3569 0.929 . S
H3556 C3570 0.931 . S
H3557 C3572 0.930 . S
C3558 H3546 0.930 . S
C3558 C3559 1.399 . S
C3558 C3563 1.399 . S
C3559 C3558 1.399 . S
C3559 C3560 1.376 . S
C3560 H3547 0.930 . S
C3560 C3559 1.376 . S
C3560 C3561 1.388 . S
C3561 H3548 0.930 . S
C3561 C3560 1.388 . S
C3561 C3562 1.390 . S
C3562 C3561 1.390 . S
C3562 C3563 1.394 . S
C3562 C3568 1.465 . S
C3563 C3558 1.399 . S
C3563 C3562 1.394 . S
C3563 C3564 1.516 . S
C3564 C3563 1.516 . S
C3564 C3565 1.502 . S
C3564 C3566 1.561 . S
C3564 C3567 1.526 . S
C3565 H3549 0.959 . S
C3565 H3550 0.959 . S
C3565 H3551 0.961 . S
C3565 C3564 1.502 . S
C3566 H3552 0.960 . S
C3566 H3553 0.961 . S
C3566 H3554 0.959 . S
C3566 C3564 1.561 . S
C3567 C3564 1.526 . S
C3567 C3568 1.396 . S
C3567 C3572 1.390 . S
C3568 C3562 1.465 . S
C3568 C3567 1.396 . S
C3568 C3569 1.399 . S
C3569 H3555 0.929 . S
C3569 C3568 1.399 . S
C3569 C3570 1.385 . S
C3570 H3556 0.931 . S
C3570 C3569 1.385 . S
C3570 C3571 1.389 . S
C3571 C3570 1.389 . S
C3571 C3572 1.387 . S
C3572 H3557 0.930 . S
C3572 C3567 1.390 . S
C3572 C3571 1.387 . S
H3573 C3585 0.930 . S
H3574 C3587 0.930 . S
H3575 C3588 0.930 . S
H3576 C3592 0.959 . S
H3577 C3592 0.959 . S
H3578 C3592 0.961 . S
H3579 C3593 0.960 . S
H3580 C3593 0.961 . S
H3581 C3593 0.959 . S
H3582 C3596 0.929 . S
H3583 C3597 0.931 . S
H3584 C3599 0.930 . S
C3585 H3573 0.930 . S
C3585 C3586 1.399 . S
C3585 C3590 1.399 . S
C3586 C3585 1.399 . S
C3586 C3587 1.376 . S
C3587 H3574 0.930 . S
C3587 C3586 1.376 . S
C3587 C3588 1.388 . S
C3588 H3575 0.930 . S
C3588 C3587 1.388 . S
C3588 C3589 1.390 . S
C3589 C3588 1.390 . S
C3589 C3590 1.394 . S
C3589 C3595 1.465 . S
C3590 C3585 1.399 . S
C3590 C3589 1.394 . S
C3590 C3591 1.516 . S
C3591 C3590 1.516 . S
C3591 C3592 1.502 . S
C3591 C3593 1.561 . S
C3591 C3594 1.526 . S
C3592 H3576 0.959 . S
C3592 H3577 0.959 . S
C3592 H3578 0.961 . S
C3592 C3591 1.502 . S
C3593 H3579 0.960 . S
C3593 H3580 0.961 . S
C3593 H3581 0.959 . S
C3593 C3591 1.561 . S
C3594 C3591 1.526 . S
C3594 C3595 1.396 . S
C3594 C3599 1.390 . S
C3595 C3589 1.465 . S
C3595 C3594 1.396 . S
C3595 C3596 1.399 . S
C3596 H3582 0.929 . S
C3596 C3595 1.399 . S
C3596 C3597 1.385 . S
C3597 H3583 0.931 . S
C3597 C3596 1.385 . S
C3597 C3598 1.389 . S
C3598 C3597 1.389 . S
C3598 C3599 1.387 . S
C3599 H3584 0.930 . S
C3599 C3594 1.390 . S
C3599 C3598 1.387 . S
H3600 C3612 0.930 . S
H3601 C3614 0.930 . S
H3602 C3615 0.930 . S
H3603 C3619 0.959 . S
H3604 C3619 0.959 . S
H3605 C3619 0.961 . S
H3606 C3620 0.960 . S
H3607 C3620 0.961 . S
H3608 C3620 0.959 . S
H3609 C3623 0.929 . S
H3610 C3624 0.931 . S
H3611 C3626 0.930 . S
C3612 H3600 0.930 . S
C3612 C3613 1.399 . S
C3612 C3617 1.399 . S
C3613 C3612 1.399 . S
C3613 C3614 1.376 . S
C3614 H3601 0.930 . S
C3614 C3613 1.376 . S
C3614 C3615 1.388 . S
C3615 H3602 0.930 . S
C3615 C3614 1.388 . S
C3615 C3616 1.390 . S
C3616 C3615 1.390 . S
C3616 C3617 1.394 . S
C3616 C3622 1.465 . S
C3617 C3612 1.399 . S
C3617 C3616 1.394 . S
C3617 C3618 1.516 . S
C3618 C3617 1.516 . S
C3618 C3619 1.502 . S
C3618 C3620 1.561 . S
C3618 C3621 1.526 . S
C3619 H3603 0.959 . S
C3619 H3604 0.959 . S
C3619 H3605 0.961 . S
C3619 C3618 1.502 . S
C3620 H3606 0.960 . S
C3620 H3607 0.961 . S
C3620 H3608 0.959 . S
C3620 C3618 1.561 . S
C3621 C3618 1.526 . S
C3621 C3622 1.396 . S
C3621 C3626 1.390 . S
C3622 C3616 1.465 . S
C3622 C3621 1.396 . S
C3622 C3623 1.399 . S
C3623 H3609 0.929 . S
C3623 C3622 1.399 . S
C3623 C3624 1.385 . S
C3624 H3610 0.931 . S
C3624 C3623 1.385 . S
C3624 C3625 1.389 . S
C3625 C3624 1.389 . S
C3625 C3626 1.387 . S
C3626 H3611 0.930 . S
C3626 C3621 1.390 . S
C3626 C3625 1.387 . S
H3627 C3639 0.930 . S
H3628 C3641 0.930 . S
H3629 C3642 0.930 . S
H3630 C3646 0.959 . S
H3631 C3646 0.959 . S
H3632 C3646 0.961 . S
H3633 C3647 0.960 . S
H3634 C3647 0.961 . S
H3635 C3647 0.959 . S
H3636 C3650 0.929 . S
H3637 C3651 0.931 . S
H3638 C3653 0.930 . S
C3639 H3627 0.930 . S
C3639 C3640 1.399 . S
C3639 C3644 1.399 . S
C3640 C3639 1.399 . S
C3640 C3641 1.376 . S
C3641 H3628 0.930 . S
C3641 C3640 1.376 . S
C3641 C3642 1.388 . S
C3642 H3629 0.930 . S
C3642 C3641 1.388 . S
C3642 C3643 1.390 . S
C3643 C3642 1.390 . S
C3643 C3644 1.394 . S
C3643 C3649 1.465 . S
C3644 C3639 1.399 . S
C3644 C3643 1.394 . S
C3644 C3645 1.516 . S
C3645 C3644 1.516 . S
C3645 C3646 1.502 . S
C3645 C3647 1.561 . S
C3645 C3648 1.526 . S
C3646 H3630 0.959 . S
C3646 H3631 0.959 . S
C3646 H3632 0.961 . S
C3646 C3645 1.502 . S
C3647 H3633 0.960 . S
C3647 H3634 0.961 . S
C3647 H3635 0.959 . S
C3647 C3645 1.561 . S
C3648 C3645 1.526 . S
C3648 C3649 1.396 . S
C3648 C3653 1.390 . S
C3649 C3643 1.465 . S
C3649 C3648 1.396 . S
C3649 C3650 1.399 . S
C3650 H3636 0.929 . S
C3650 C3649 1.399 . S
C3650 C3651 1.385 . S
C3651 H3637 0.931 . S
C3651 C3650 1.385 . S
C3651 C3652 1.389 . S
C3652 C3651 1.389 . S
C3652 C3653 1.387 . S
C3653 H3638 0.930 . S
C3653 C3648 1.390 . S
C3653 C3652 1.387 . S
H3654 C3666 0.930 . S
H3655 C3668 0.930 . S
H3656 C3669 0.930 . S
H3657 C3673 0.987 . S
H3658 C3673 0.959 . S
H3659 C3673 0.961 . S
H3660 C3674 0.965 . S
H3661 C3674 0.961 1_556 S
H3662 C3674 0.959 . S
H3663 C3677 0.929 . S
H3664 C3678 0.931 . S
H3665 C3680 0.930 . S
C3666 H3654 0.930 . S
C3666 C3667 1.399 . S
C3666 C3671 1.399 . S
C3667 C3666 1.399 . S
C3667 C3668 1.376 . S
C3668 H3655 0.930 . S
C3668 C3667 1.376 . S
C3668 C3669 1.388 . S
C3669 H3656 0.930 . S
C3669 C3668 1.388 . S
C3669 C3670 1.390 . S
C3670 C3669 1.390 . S
C3670 C3671 1.394 . S
C3670 C3676 1.465 . S
C3671 C3666 1.399 . S
C3671 C3670 1.394 . S
C3671 C3672 1.516 . S
C3672 C3671 1.516 . S
C3672 C3673 1.502 . S
C3672 C3674 1.561 . S
C3672 C3675 1.526 . S
C3673 H3657 0.987 . S
C3673 H3658 0.959 . S
C3673 H3659 0.961 . S
C3673 C3672 1.502 . S
C3674 H3660 0.965 . S
C3674 H3661 0.961 1_554 S
C3674 H3662 0.959 . S
C3674 C3672 1.561 . S
C3675 C3672 1.526 . S
C3675 C3676 1.396 . S
C3675 C3680 1.390 . S
C3676 C3670 1.465 . S
C3676 C3675 1.396 . S
C3676 C3677 1.399 . S
C3677 H3663 0.929 . S
C3677 C3676 1.399 . S
C3677 C3678 1.385 . S
C3678 H3664 0.931 . S
C3678 C3677 1.385 . S
C3678 C3679 1.389 . S
C3679 C3678 1.389 . S
C3679 C3680 1.387 . S
C3680 H3665 0.930 . S
C3680 C3675 1.390 . S
C3680 C3679 1.387 . S
H3681 C3693 0.930 . S
H3682 C3695 0.930 . S
H3683 C3696 0.930 . S
H3684 C3700 0.959 . S
H3685 C3700 0.959 . S
H3686 C3700 0.961 . S
H3687 C3701 0.960 . S
H3688 C3701 0.961 . S
H3689 C3701 0.959 . S
H3690 C3704 0.929 . S
H3691 C3705 0.931 . S
H3692 C3707 0.930 . S
C3693 H3681 0.930 . S
C3693 C3694 1.399 . S
C3693 C3698 1.399 . S
C3694 C3693 1.399 . S
C3694 C3695 1.376 . S
C3695 H3682 0.930 . S
C3695 C3694 1.376 . S
C3695 C3696 1.388 . S
C3696 H3683 0.930 . S
C3696 C3695 1.388 . S
C3696 C3697 1.390 . S
C3697 C3696 1.390 . S
C3697 C3698 1.394 . S
C3697 C3703 1.465 . S
C3698 C3693 1.399 . S
C3698 C3697 1.394 . S
C3698 C3699 1.516 . S
C3699 C3698 1.516 . S
C3699 C3700 1.502 . S
C3699 C3701 1.561 . S
C3699 C3702 1.526 . S
C3700 H3684 0.959 . S
C3700 H3685 0.959 . S
C3700 H3686 0.961 . S
C3700 C3699 1.502 . S
C3701 H3687 0.960 . S
C3701 H3688 0.961 . S
C3701 H3689 0.959 . S
C3701 C3699 1.561 . S
C3702 C3699 1.526 . S
C3702 C3703 1.396 . S
C3702 C3707 1.390 . S
C3703 C3697 1.465 . S
C3703 C3702 1.396 . S
C3703 C3704 1.399 . S
C3704 H3690 0.929 . S
C3704 C3703 1.399 . S
C3704 C3705 1.385 . S
C3705 H3691 0.931 . S
C3705 C3704 1.385 . S
C3705 C3706 1.389 . S
C3706 C3705 1.389 . S
C3706 C3707 1.387 . S
C3707 H3692 0.930 . S
C3707 C3702 1.390 . S
C3707 C3706 1.387 . S
H3708 C3720 0.930 . S
H3709 C3722 0.930 . S
H3710 C3723 0.930 . S
H3711 C3727 0.959 . S
H3712 C3727 0.959 . S
H3713 C3727 0.961 . S
H3714 C3728 0.960 . S
H3715 C3728 0.961 . S
H3716 C3728 0.959 . S
H3717 C3731 0.929 . S
H3718 C3732 0.931 . S
H3719 C3734 0.930 . S
C3720 H3708 0.930 . S
C3720 C3721 1.399 . S
C3720 C3725 1.399 . S
C3721 C3720 1.399 . S
C3721 C3722 1.376 . S
C3722 H3709 0.930 . S
C3722 C3721 1.376 . S
C3722 C3723 1.388 . S
C3723 H3710 0.930 . S
C3723 C3722 1.388 . S
C3723 C3724 1.390 . S
C3724 C3723 1.390 . S
C3724 C3725 1.394 . S
C3724 C3730 1.465 . S
C3725 C3720 1.399 . S
C3725 C3724 1.394 . S
C3725 C3726 1.516 . S
C3726 C3725 1.516 . S
C3726 C3727 1.502 . S
C3726 C3728 1.561 . S
C3726 C3729 1.526 . S
C3727 H3711 0.959 . S
C3727 H3712 0.959 . S
C3727 H3713 0.961 . S
C3727 C3726 1.502 . S
C3728 H3714 0.960 . S
C3728 H3715 0.961 . S
C3728 H3716 0.959 . S
C3728 C3726 1.561 . S
C3729 C3726 1.526 . S
C3729 C3730 1.396 . S
C3729 C3734 1.390 . S
C3730 C3724 1.465 . S
C3730 C3729 1.396 . S
C3730 C3731 1.399 . S
C3731 H3717 0.929 . S
C3731 C3730 1.399 . S
C3731 C3732 1.385 . S
C3732 H3718 0.931 . S
C3732 C3731 1.385 . S
C3732 C3733 1.389 . S
C3733 C3732 1.389 . S
C3733 C3734 1.387 . S
C3734 H3719 0.930 . S
C3734 C3729 1.390 . S
C3734 C3733 1.387 . S
H3735 C3747 0.930 . S
H3736 C3749 0.930 . S
H3737 C3750 0.930 . S
H3738 C3754 0.959 . S
H3739 C3754 0.959 . S
H3740 C3754 0.961 . S
H3741 C3755 0.960 . S
H3742 C3755 0.961 . S
H3743 C3755 0.959 . S
H3744 C3758 0.929 . S
H3745 C3759 0.931 . S
H3746 C3761 0.930 . S
C3747 H3735 0.930 . S
C3747 C3748 1.399 . S
C3747 C3752 1.399 . S
C3748 C3747 1.399 . S
C3748 C3749 1.376 . S
C3749 H3736 0.930 . S
C3749 C3748 1.376 . S
C3749 C3750 1.388 . S
C3750 H3737 0.930 . S
C3750 C3749 1.388 . S
C3750 C3751 1.390 . S
C3751 C3750 1.390 . S
C3751 C3752 1.394 . S
C3751 C3757 1.465 . S
C3752 C3747 1.399 . S
C3752 C3751 1.394 . S
C3752 C3753 1.516 . S
C3753 C3752 1.516 . S
C3753 C3754 1.502 . S
C3753 C3755 1.561 . S
C3753 C3756 1.526 . S
C3754 H3738 0.959 . S
C3754 H3739 0.959 . S
C3754 H3740 0.961 . S
C3754 C3753 1.502 . S
C3755 H3741 0.960 . S
C3755 H3742 0.961 . S
C3755 H3743 0.959 . S
C3755 C3753 1.561 . S
C3756 C3753 1.526 . S
C3756 C3757 1.396 . S
C3756 C3761 1.390 . S
C3757 C3751 1.465 . S
C3757 C3756 1.396 . S
C3757 C3758 1.399 . S
C3758 H3744 0.929 . S
C3758 C3757 1.399 . S
C3758 C3759 1.385 . S
C3759 H3745 0.931 . S
C3759 C3758 1.385 . S
C3759 C3760 1.389 . S
C3760 C3759 1.389 . S
C3760 C3761 1.387 . S
C3761 H3746 0.930 . S
C3761 C3756 1.390 . S
C3761 C3760 1.387 . S
H3762 C3774 0.930 . S
H3763 C3776 0.930 . S
H3764 C3777 0.930 . S
H3765 C3781 0.959 . S
H3766 C3781 0.959 . S
H3767 C3781 0.961 . S
H3768 C3782 0.960 . S
H3769 C3782 0.961 . S
H3770 C3782 0.959 . S
H3771 C3785 0.929 . S
H3772 C3786 0.931 . S
H3773 C3788 0.930 . S
C3774 H3762 0.930 . S
C3774 C3775 1.399 . S
C3774 C3779 1.399 . S
C3775 C3774 1.399 . S
C3775 C3776 1.376 . S
C3776 H3763 0.930 . S
C3776 C3775 1.376 . S
C3776 C3777 1.388 . S
C3777 H3764 0.930 . S
C3777 C3776 1.388 . S
C3777 C3778 1.390 . S
C3778 C3777 1.390 . S
C3778 C3779 1.394 . S
C3778 C3784 1.465 . S
C3779 C3774 1.399 . S
C3779 C3778 1.394 . S
C3779 C3780 1.516 . S
C3780 C3779 1.516 . S
C3780 C3781 1.502 1_455 S
C3780 C3782 1.561 . S
C3780 C3783 1.526 . S
C3781 H3765 0.959 . S
C3781 H3766 0.959 . S
C3781 H3767 0.961 . S
C3781 C3780 1.502 1_655 S
C3782 H3768 0.960 . S
C3782 H3769 0.961 . S
C3782 H3770 0.959 . S
C3782 C3780 1.561 . S
C3783 C3780 1.526 . S
C3783 C3784 1.396 . S
C3783 C3788 1.390 . S
C3784 C3778 1.465 . S
C3784 C3783 1.396 . S
C3784 C3785 1.399 . S
C3785 H3771 0.929 . S
C3785 C3784 1.399 . S
C3785 C3786 1.385 . S
C3786 H3772 0.931 . S
C3786 C3785 1.385 . S
C3786 C3787 1.389 . S
C3787 C3786 1.389 . S
C3787 C3788 1.387 . S
C3788 H3773 0.930 . S
C3788 C3783 1.390 . S
C3788 C3787 1.387 . S
H3789 C3801 0.930 . S
H3790 C3803 0.930 . S
H3791 C3804 0.930 . S
H3792 C3808 0.959 . S
H3793 C3808 0.959 . S
H3794 C3808 0.961 . S
H3795 C3809 0.960 . S
H3796 C3809 0.961 . S
H3797 C3809 0.959 . S
H3798 C3812 0.929 . S
H3799 C3813 0.931 . S
H3800 C3815 0.930 . S
C3801 H3789 0.930 . S
C3801 C3802 1.399 . S
C3801 C3806 1.399 . S
C3802 C3801 1.399 . S
C3802 C3803 1.376 . S
C3803 H3790 0.930 . S
C3803 C3802 1.376 . S
C3803 C3804 1.388 . S
C3804 H3791 0.930 . S
C3804 C3803 1.388 . S
C3804 C3805 1.390 . S
C3805 C3804 1.390 . S
C3805 C3806 1.394 . S
C3805 C3811 1.465 . S
C3806 C3801 1.399 . S
C3806 C3805 1.394 . S
C3806 C3807 1.516 . S
C3807 C3806 1.516 . S
C3807 C3808 1.502 . S
C3807 C3809 1.561 . S
C3807 C3810 1.526 . S
C3808 H3792 0.959 . S
C3808 H3793 0.959 . S
C3808 H3794 0.961 . S
C3808 C3807 1.502 . S
C3809 H3795 0.960 . S
C3809 H3796 0.961 . S
C3809 H3797 0.959 . S
C3809 C3807 1.561 . S
C3810 C3807 1.526 . S
C3810 C3811 1.396 . S
C3810 C3815 1.390 . S
C3811 C3805 1.465 . S
C3811 C3810 1.396 . S
C3811 C3812 1.399 . S
C3812 H3798 0.929 . S
C3812 C3811 1.399 . S
C3812 C3813 1.385 . S
C3813 H3799 0.931 . S
C3813 C3812 1.385 . S
C3813 C3814 1.389 . S
C3814 C3813 1.389 . S
C3814 C3815 1.387 . S
C3815 H3800 0.930 . S
C3815 C3810 1.390 . S
C3815 C3814 1.387 . S
H3816 C3828 0.930 . S
H3817 C3830 0.930 . S
H3818 C3831 0.930 . S
H3819 C3835 0.959 . S
H3820 C3835 0.959 . S
H3821 C3835 0.961 . S
H3822 C3836 0.960 . S
H3823 C3836 0.961 . S
H3824 C3836 0.959 . S
H3825 C3839 0.929 . S
H3826 C3840 0.931 . S
H3827 C3842 0.930 . S
C3828 H3816 0.930 . S
C3828 C3829 1.399 . S
C3828 C3833 1.399 . S
C3829 C3828 1.399 . S
C3829 C3830 1.376 . S
C3830 H3817 0.930 . S
C3830 C3829 1.376 . S
C3830 C3831 1.388 . S
C3831 H3818 0.930 . S
C3831 C3830 1.388 . S
C3831 C3832 1.390 . S
C3832 C3831 1.390 . S
C3832 C3833 1.394 . S
C3832 C3838 1.465 . S
C3833 C3828 1.399 . S
C3833 C3832 1.394 . S
C3833 C3834 1.516 . S
C3834 C3833 1.516 . S
C3834 C3835 1.502 . S
C3834 C3836 1.561 . S
C3834 C3837 1.526 . S
C3835 H3819 0.959 . S
C3835 H3820 0.959 . S
C3835 H3821 0.961 . S
C3835 C3834 1.502 . S
C3836 H3822 0.960 . S
C3836 H3823 0.961 . S
C3836 H3824 0.959 . S
C3836 C3834 1.561 . S
C3837 C3834 1.526 . S
C3837 C3838 1.396 . S
C3837 C3842 1.390 . S
C3838 C3832 1.465 . S
C3838 C3837 1.396 . S
C3838 C3839 1.399 . S
C3839 H3825 0.929 . S
C3839 C3838 1.399 . S
C3839 C3840 1.385 . S
C3840 H3826 0.931 . S
C3840 C3839 1.385 . S
C3840 C3841 1.389 . S
C3841 C3840 1.389 . S
C3841 C3842 1.387 . S
C3842 H3827 0.930 . S
C3842 C3837 1.390 . S
C3842 C3841 1.387 . S
H3843 C3855 0.930 . S
H3844 C3857 0.930 . S
H3845 C3858 0.930 . S
H3846 C3862 0.959 . S
H3847 C3862 0.959 . S
H3848 C3862 0.961 . S
H3849 C3863 0.960 . S
H3850 C3863 0.961 . S
H3851 C3863 0.959 . S
H3852 C3866 0.929 . S
H3853 C3867 0.931 . S
H3854 C3869 0.930 . S
C3855 H3843 0.930 . S
C3855 C3856 1.399 . S
C3855 C3860 1.399 . S
C3856 C3855 1.399 . S
C3856 C3857 1.376 . S
C3857 H3844 0.930 . S
C3857 C3856 1.376 . S
C3857 C3858 1.388 . S
C3858 H3845 0.930 . S
C3858 C3857 1.388 . S
C3858 C3859 1.390 . S
C3859 C3858 1.390 . S
C3859 C3860 1.394 . S
C3859 C3865 1.465 . S
C3860 C3855 1.399 . S
C3860 C3859 1.394 . S
C3860 C3861 1.516 . S
C3861 C3860 1.516 . S
C3861 C3862 1.502 . S
C3861 C3863 1.561 . S
C3861 C3864 1.526 . S
C3862 H3846 0.959 . S
C3862 H3847 0.959 . S
C3862 H3848 0.961 . S
C3862 C3861 1.502 . S
C3863 H3849 0.960 . S
C3863 H3850 0.961 . S
C3863 H3851 0.959 . S
C3863 C3861 1.561 . S
C3864 C3861 1.526 . S
C3864 C3865 1.396 . S
C3864 C3869 1.390 . S
C3865 C3859 1.465 . S
C3865 C3864 1.396 . S
C3865 C3866 1.399 . S
C3866 H3852 0.929 . S
C3866 C3865 1.399 . S
C3866 C3867 1.385 . S
C3867 H3853 0.931 . S
C3867 C3866 1.385 . S
C3867 C3868 1.389 . S
C3868 C3867 1.389 . S
C3868 C3869 1.387 . S
C3869 H3854 0.930 . S
C3869 C3864 1.390 . S
C3869 C3868 1.387 . S
H3870 C3882 0.930 . S
H3871 C3884 0.930 . S
H3872 C3885 0.930 . S
H3873 C3889 0.959 . S
H3874 C3889 0.959 . S
H3875 C3889 0.961 . S
H3876 C3890 0.960 . S
H3877 C3890 0.961 . S
H3878 C3890 0.959 . S
H3879 C3893 0.929 . S
H3880 C3894 0.931 . S
H3881 C3896 0.930 . S
C3882 H3870 0.930 . S
C3882 C3883 1.399 . S
C3882 C3887 1.399 . S
C3883 C3882 1.399 . S
C3883 C3884 1.376 . S
C3884 H3871 0.930 . S
C3884 C3883 1.376 . S
C3884 C3885 1.388 . S
C3885 H3872 0.930 . S
C3885 C3884 1.388 . S
C3885 C3886 1.390 . S
C3886 C3885 1.390 . S
C3886 C3887 1.394 . S
C3886 C3892 1.465 . S
C3887 C3882 1.399 . S
C3887 C3886 1.394 . S
C3887 C3888 1.516 . S
C3888 C3887 1.516 . S
C3888 C3889 1.502 . S
C3888 C3890 1.561 . S
C3888 C3891 1.526 . S
C3889 H3873 0.959 . S
C3889 H3874 0.959 . S
C3889 H3875 0.961 . S
C3889 C3888 1.502 . S
C3890 H3876 0.960 . S
C3890 H3877 0.961 . S
C3890 H3878 0.959 . S
C3890 C3888 1.561 . S
C3891 C3888 1.526 . S
C3891 C3892 1.396 . S
C3891 C3896 1.390 . S
C3892 C3886 1.465 . S
C3892 C3891 1.396 . S
C3892 C3893 1.399 . S
C3893 H3879 0.929 . S
C3893 C3892 1.399 . S
C3893 C3894 1.385 . S
C3894 H3880 0.931 . S
C3894 C3893 1.385 . S
C3894 C3895 1.389 . S
C3895 C3894 1.389 . S
C3895 C3896 1.387 . S
C3896 H3881 0.930 . S
C3896 C3891 1.390 . S
C3896 C3895 1.387 . S
H3897 C3909 0.930 . S
H3898 C3911 0.930 . S
H3899 C3912 0.930 . S
H3900 C3916 0.959 . S
H3901 C3916 0.959 . S
H3902 C3916 0.961 . S
H3903 C3917 0.960 . S
H3904 C3917 0.961 . S
H3905 C3917 0.959 . S
H3906 C3920 0.929 . S
H3907 C3921 0.931 . S
H3908 C3923 0.930 . S
C3909 H3897 0.930 . S
C3909 C3910 1.399 . S
C3909 C3914 1.399 . S
C3910 C3909 1.399 . S
C3910 C3911 1.376 . S
C3911 H3898 0.930 . S
C3911 C3910 1.376 . S
C3911 C3912 1.388 . S
C3912 H3899 0.930 . S
C3912 C3911 1.388 . S
C3912 C3913 1.390 . S
C3913 C3912 1.390 . S
C3913 C3914 1.394 . S
C3913 C3919 1.465 . S
C3914 C3909 1.399 . S
C3914 C3913 1.394 . S
C3914 C3915 1.516 . S
C3915 C3914 1.516 . S
C3915 C3916 1.502 . S
C3915 C3917 1.561 . S
C3915 C3918 1.526 . S
C3916 H3900 0.959 . S
C3916 H3901 0.959 . S
C3916 H3902 0.961 . S
C3916 C3915 1.502 . S
C3917 H3903 0.960 . S
C3917 H3904 0.961 . S
C3917 H3905 0.959 . S
C3917 C3915 1.561 . S
C3918 C3915 1.526 . S
C3918 C3919 1.396 . S
C3918 C3923 1.390 . S
C3919 C3913 1.465 . S
C3919 C3918 1.396 . S
C3919 C3920 1.399 . S
C3920 H3906 0.929 . S
C3920 C3919 1.399 . S
C3920 C3921 1.385 . S
C3921 H3907 0.931 . S
C3921 C3920 1.385 . S
C3921 C3922 1.389 . S
C3922 C3921 1.389 . S
C3922 C3923 1.387 . S
C3923 H3908 0.930 . S
C3923 C3918 1.390 . S
C3923 C3922 1.387 . S
H3924 C3936 0.930 . S
H3925 C3938 0.930 . S
H3926 C3939 0.930 . S
H3927 C3943 0.959 . S
H3928 C3943 0.959 . S
H3929 C3943 0.961 . S
H3930 C3944 0.960 . S
H3931 C3944 0.961 . S
H3932 C3944 0.959 . S
H3933 C3947 0.929 . S
H3934 C3948 0.931 . S
H3935 C3950 0.930 . S
C3936 H3924 0.930 . S
C3936 C3937 1.399 . S
C3936 C3941 1.399 . S
C3937 C3936 1.399 . S
C3937 C3938 1.376 . S
C3938 H3925 0.930 . S
C3938 C3937 1.376 . S
C3938 C3939 1.388 . S
C3939 H3926 0.930 . S
C3939 C3938 1.388 . S
C3939 C3940 1.390 . S
C3940 C3939 1.390 . S
C3940 C3941 1.394 . S
C3940 C3946 1.465 . S
C3941 C3936 1.399 . S
C3941 C3940 1.394 . S
C3941 C3942 1.516 . S
C3942 C3941 1.516 . S
C3942 C3943 1.502 . S
C3942 C3944 1.561 . S
C3942 C3945 1.526 . S
C3943 H3927 0.959 . S
C3943 H3928 0.959 . S
C3943 H3929 0.961 . S
C3943 C3942 1.502 . S
C3944 H3930 0.960 . S
C3944 H3931 0.961 . S
C3944 H3932 0.959 . S
C3944 C3942 1.561 . S
C3945 C3942 1.526 . S
C3945 C3946 1.396 . S
C3945 C3950 1.390 . S
C3946 C3940 1.465 . S
C3946 C3945 1.396 . S
C3946 C3947 1.399 . S
C3947 H3933 0.929 . S
C3947 C3946 1.399 . S
C3947 C3948 1.385 . S
C3948 H3934 0.931 . S
C3948 C3947 1.385 . S
C3948 C3949 1.389 . S
C3949 C3948 1.389 . S
C3949 C3950 1.387 . S
C3950 H3935 0.930 . S
C3950 C3945 1.390 . S
C3950 C3949 1.387 . S
H3951 C3963 0.930 . S
H3952 C3965 0.930 . S
H3953 C3966 0.930 . S
H3954 C3970 0.959 . S
H3955 C3970 0.959 . S
H3956 C3970 0.961 . S
H3957 C3971 0.960 . S
H3958 C3971 0.961 . S
H3959 C3971 0.959 . S
H3960 C3974 0.929 . S
H3961 C3975 0.931 . S
H3962 C3977 0.930 . S
C3963 H3951 0.930 . S
C3963 C3964 1.399 . S
C3963 C3968 1.399 . S
C3964 C3963 1.399 . S
C3964 C3965 1.376 . S
C3965 H3952 0.930 . S
C3965 C3964 1.376 . S
C3965 C3966 1.388 . S
C3966 H3953 0.930 . S
C3966 C3965 1.388 . S
C3966 C3967 1.390 . S
C3967 C3966 1.390 . S
C3967 C3968 1.394 . S
C3967 C3973 1.465 . S
C3968 C3963 1.399 . S
C3968 C3967 1.394 . S
C3968 C3969 1.516 . S
C3969 C3968 1.516 . S
C3969 C3970 1.502 . S
C3969 C3971 1.561 . S
C3969 C3972 1.526 . S
C3970 H3954 0.959 . S
C3970 H3955 0.959 . S
C3970 H3956 0.961 . S
C3970 C3969 1.502 . S
C3971 H3957 0.960 . S
C3971 H3958 0.961 . S
C3971 H3959 0.959 . S
C3971 C3969 1.561 . S
C3972 C3969 1.526 . S
C3972 C3973 1.396 . S
C3972 C3977 1.390 . S
C3973 C3967 1.465 . S
C3973 C3972 1.396 . S
C3973 C3974 1.399 . S
C3974 H3960 0.929 . S
C3974 C3973 1.399 . S
C3974 C3975 1.385 . S
C3975 H3961 0.931 . S
C3975 C3974 1.385 . S
C3975 C3976 1.389 . S
C3976 C3975 1.389 . S
C3976 C3977 1.387 . S
C3977 H3962 0.930 . S
C3977 C3972 1.390 . S
C3977 C3976 1.387 . S
H3978 C3990 0.930 . S
H3979 C3992 0.930 . S
H3980 C3993 0.930 . S
H3981 C3997 0.959 . S
H3982 C3997 0.959 . S
H3983 C3997 0.961 . S
H3984 C3998 0.960 . S
H3985 C3998 0.961 . S
H3986 C3998 0.959 . S
H3987 C4001 0.929 . S
H3988 C4002 0.931 . S
H3989 C4004 0.930 . S
C3990 H3978 0.930 . S
C3990 C3991 1.399 . S
C3990 C3995 1.399 . S
C3991 C3990 1.399 . S
C3991 C3992 1.376 . S
C3992 H3979 0.930 . S
C3992 C3991 1.376 . S
C3992 C3993 1.388 . S
C3993 H3980 0.930 . S
C3993 C3992 1.388 . S
C3993 C3994 1.390 . S
C3994 C3993 1.390 . S
C3994 C3995 1.394 . S
C3994 C4000 1.465 . S
C3995 C3990 1.399 . S
C3995 C3994 1.394 . S
C3995 C3996 1.516 . S
C3996 C3995 1.516 . S
C3996 C3997 1.502 . S
C3996 C3998 1.561 . S
C3996 C3999 1.526 . S
C3997 H3981 0.959 . S
C3997 H3982 0.959 . S
C3997 H3983 0.961 . S
C3997 C3996 1.502 . S
C3998 H3984 0.960 . S
C3998 H3985 0.961 . S
C3998 H3986 0.959 . S
C3998 C3996 1.561 . S
C3999 C3996 1.526 . S
C3999 C4000 1.396 . S
C3999 C4004 1.390 . S
C4000 C3994 1.465 . S
C4000 C3999 1.396 . S
C4000 C4001 1.399 . S
C4001 H3987 0.929 . S
C4001 C4000 1.399 . S
C4001 C4002 1.385 . S
C4002 H3988 0.931 . S
C4002 C4001 1.385 . S
C4002 C4003 1.389 . S
C4003 C4002 1.389 . S
C4003 C4004 1.387 . S
C4004 H3989 0.930 . S
C4004 C3999 1.390 . S
C4004 C4003 1.387 . S
H4005 C4017 0.930 . S
H4006 C4019 0.930 . S
H4007 C4020 0.930 . S
H4008 C4024 0.959 . S
H4009 C4024 0.959 . S
H4010 C4024 0.961 . S
H4011 C4025 0.960 . S
H4012 C4025 0.961 . S
H4013 C4025 0.959 . S
H4014 C4028 0.929 . S
H4015 C4029 0.931 . S
H4016 C4031 0.930 . S
C4017 H4005 0.930 . S
C4017 C4018 1.399 . S
C4017 C4022 1.399 . S
C4018 C4017 1.399 . S
C4018 C4019 1.376 . S
C4019 H4006 0.930 . S
C4019 C4018 1.376 . S
C4019 C4020 1.388 . S
C4020 H4007 0.930 . S
C4020 C4019 1.388 . S
C4020 C4021 1.390 . S
C4021 C4020 1.390 . S
C4021 C4022 1.394 . S
C4021 C4027 1.465 . S
C4022 C4017 1.399 . S
C4022 C4021 1.394 . S
C4022 C4023 1.516 . S
C4023 C4022 1.516 . S
C4023 C4024 1.502 . S
C4023 C4025 1.561 . S
C4023 C4026 1.526 . S
C4024 H4008 0.959 . S
C4024 H4009 0.959 . S
C4024 H4010 0.961 . S
C4024 C4023 1.502 . S
C4025 H4011 0.960 . S
C4025 H4012 0.961 . S
C4025 H4013 0.959 . S
C4025 C4023 1.561 . S
C4026 C4023 1.526 . S
C4026 C4027 1.396 . S
C4026 C4031 1.390 . S
C4027 C4021 1.465 . S
C4027 C4026 1.396 . S
C4027 C4028 1.399 . S
C4028 H4014 0.929 . S
C4028 C4027 1.399 . S
C4028 C4029 1.385 . S
C4029 H4015 0.931 . S
C4029 C4028 1.385 . S
C4029 C4030 1.389 . S
C4030 C4029 1.389 . S
C4030 C4031 1.387 . S
C4031 H4016 0.930 . S
C4031 C4026 1.390 . S
C4031 C4030 1.387 . S
H4032 C4044 0.930 . S
H4033 C4046 0.930 . S
H4034 C4047 0.930 . S
H4035 C4051 0.959 . S
H4036 C4051 0.959 . S
H4037 C4051 0.961 . S
H4038 C4052 0.960 . S
H4039 C4052 0.961 . S
H4040 C4052 0.959 . S
H4041 C4055 0.929 . S
H4042 C4056 0.931 . S
H4043 C4058 0.930 . S
C4044 H4032 0.930 . S
C4044 C4045 1.399 . S
C4044 C4049 1.399 . S
C4045 C4044 1.399 . S
C4045 C4046 1.376 . S
C4046 H4033 0.930 . S
C4046 C4045 1.376 . S
C4046 C4047 1.388 . S
C4047 H4034 0.930 . S
C4047 C4046 1.388 . S
C4047 C4048 1.390 . S
C4048 C4047 1.390 . S
C4048 C4049 1.394 . S
C4048 C4054 1.465 . S
C4049 C4044 1.399 . S
C4049 C4048 1.394 . S
C4049 C4050 1.516 . S
C4050 C4049 1.516 . S
C4050 C4051 1.502 . S
C4050 C4052 1.561 . S
C4050 C4053 1.526 . S
C4051 H4035 0.959 . S
C4051 H4036 0.959 . S
C4051 H4037 0.961 . S
C4051 C4050 1.502 . S
C4052 H4038 0.960 . S
C4052 H4039 0.961 . S
C4052 H4040 0.959 . S
C4052 C4050 1.561 . S
C4053 C4050 1.526 . S
C4053 C4054 1.396 . S
C4053 C4058 1.390 . S
C4054 C4048 1.465 . S
C4054 C4053 1.396 . S
C4054 C4055 1.399 . S
C4055 H4041 0.929 . S
C4055 C4054 1.399 . S
C4055 C4056 1.385 . S
C4056 H4042 0.931 . S
C4056 C4055 1.385 . S
C4056 C4057 1.389 . S
C4057 C4056 1.389 . S
C4057 C4058 1.387 . S
C4058 H4043 0.930 . S
C4058 C4053 1.390 . S
C4058 C4057 1.387 . S
H4059 C4071 0.930 . S
H4060 C4073 0.930 . S
H4061 C4074 0.930 . S
H4062 C4078 0.959 . S
H4063 C4078 0.959 . S
H4064 C4078 0.961 . S
H4065 C4079 0.960 . S
H4066 C4079 0.961 . S
H4067 C4079 0.959 . S
H4068 C4082 0.929 1_545 S
H4069 C4083 0.931 . S
H4070 C4085 0.930 . S
C4071 H4059 0.930 . S
C4071 C4072 1.399 . S
C4071 C4076 1.399 . S
C4072 C4071 1.399 . S
C4072 C4073 1.376 . S
C4073 H4060 0.930 . S
C4073 C4072 1.376 . S
C4073 C4074 1.388 . S
C4074 H4061 0.930 . S
C4074 C4073 1.388 . S
C4074 C4075 1.390 . S
C4075 C4074 1.390 . S
C4075 C4076 1.394 . S
C4075 C4081 1.465 . S
C4076 C4071 1.399 . S
C4076 C4075 1.394 . S
C4076 C4077 1.516 . S
C4077 C4076 1.516 . S
C4077 C4078 1.502 . S
C4077 C4079 1.561 . S
C4077 C4080 1.526 . S
C4078 H4062 0.959 . S
C4078 H4063 0.959 . S
C4078 H4064 0.961 . S
C4078 C4077 1.502 . S
C4079 H4065 0.960 . S
C4079 H4066 0.961 . S
C4079 H4067 0.959 . S
C4079 C4077 1.561 . S
C4080 C4077 1.526 . S
C4080 C4081 1.396 . S
C4080 C4085 1.390 . S
C4081 C4075 1.465 . S
C4081 C4080 1.396 . S
C4081 C4082 1.399 . S
C4082 H4068 0.929 1_565 S
C4082 C4081 1.399 . S
C4082 C4083 1.385 1_565 S
C4083 H4069 0.931 . S
C4083 C4082 1.385 1_545 S
C4083 C4084 1.389 1_545 S
C4084 C4083 1.389 1_565 S
C4084 C4085 1.387 . S
C4085 H4070 0.930 . S
C4085 C4080 1.390 . S
C4085 C4084 1.387 . S
H4086 C4098 0.930 . S
H4087 C4100 0.930 . S
H4088 C4101 0.930 . S
H4089 C4105 0.959 . S
H4090 C4105 0.959 . S
H4091 C4105 0.961 . S
H4092 C4106 0.960 . S
H4093 C4106 0.961 . S
H4094 C4106 0.959 . S
H4095 C4109 0.929 . S
H4096 C4110 0.931 . S
H4097 C4112 0.930 . S
C4098 H4086 0.930 . S
C4098 C4099 1.399 . S
C4098 C4103 1.399 . S
C4099 C4098 1.399 . S
C4099 C4100 1.376 . S
C4100 H4087 0.930 . S
C4100 C4099 1.376 . S
C4100 C4101 1.388 . S
C4101 H4088 0.930 . S
C4101 C4100 1.388 . S
C4101 C4102 1.390 . S
C4102 C4101 1.390 . S
C4102 C4103 1.394 . S
C4102 C4108 1.465 . S
C4103 C4098 1.399 . S
C4103 C4102 1.394 . S
C4103 C4104 1.516 . S
C4104 C4103 1.516 . S
C4104 C4105 1.502 . S
C4104 C4106 1.561 . S
C4104 C4107 1.526 . S
C4105 H4089 0.959 . S
C4105 H4090 0.959 . S
C4105 H4091 0.961 . S
C4105 C4104 1.502 . S
C4106 H4092 0.960 . S
C4106 H4093 0.961 . S
C4106 H4094 0.959 . S
C4106 C4104 1.561 . S
C4107 C4104 1.526 . S
C4107 C4108 1.396 . S
C4107 C4112 1.390 . S
C4108 C4102 1.465 . S
C4108 C4107 1.396 . S
C4108 C4109 1.399 . S
C4109 H4095 0.929 . S
C4109 C4108 1.399 . S
C4109 C4110 1.385 . S
C4110 H4096 0.931 . S
C4110 C4109 1.385 . S
C4110 C4111 1.389 . S
C4111 C4110 1.389 . S
C4111 C4112 1.387 . S
C4112 H4097 0.930 . S
C4112 C4107 1.390 . S
C4112 C4111 1.387 . S
H4113 C4125 0.930 . S
H4114 C4127 0.930 . S
H4115 C4128 0.930 . S
H4116 C4132 0.959 . S
H4117 C4132 0.959 . S
H4118 C4132 0.961 . S
H4119 C4133 0.960 . S
H4120 C4133 0.961 . S
H4121 C4133 0.959 . S
H4122 C4136 0.929 1_556 S
H4123 C4137 0.931 . S
H4124 C4139 0.930 . S
C4125 H4113 0.930 . S
C4125 C4126 1.399 . S
C4125 C4130 1.399 . S
C4126 C4125 1.399 . S
C4126 C4127 1.376 . S
C4127 H4114 0.930 . S
C4127 C4126 1.376 . S
C4127 C4128 1.388 . S
C4128 H4115 0.930 . S
C4128 C4127 1.388 . S
C4128 C4129 1.390 . S
C4129 C4128 1.390 . S
C4129 C4130 1.394 . S
C4129 C4135 1.465 . S
C4130 C4125 1.399 . S
C4130 C4129 1.394 . S
C4130 C4131 1.516 . S
C4131 C4130 1.516 . S
C4131 C4132 1.502 . S
C4131 C4133 1.561 . S
C4131 C4134 1.526 . S
C4132 H4116 0.959 . S
C4132 H4117 0.959 . S
C4132 H4118 0.961 . S
C4132 C4131 1.502 . S
C4133 H4119 0.960 . S
C4133 H4120 0.961 . S
C4133 H4121 0.959 . S
C4133 C4131 1.561 . S
C4134 C4131 1.526 . S
C4134 C4135 1.396 . S
C4134 C4139 1.390 . S
C4135 C4129 1.465 . S
C4135 C4134 1.396 . S
C4135 C4136 1.399 . S
C4136 H4122 0.929 1_554 S
C4136 C4135 1.399 . S
C4136 C4137 1.385 . S
C4137 H4123 0.931 . S
C4137 C4136 1.385 . S
C4137 C4138 1.389 . S
C4138 C4137 1.389 . S
C4138 C4139 1.387 . S
C4139 H4124 0.930 . S
C4139 C4134 1.390 . S
C4139 C4138 1.387 . S
H4140 C4152 0.930 . S
H4141 C4154 0.930 . S
H4142 C4155 0.930 . S
H4143 C4159 0.959 . S
H4144 C4159 0.959 . S
H4145 C4159 0.961 . S
H4146 C4160 0.960 . S
H4147 C4160 0.961 . S
H4148 C4160 0.959 . S
H4149 C4163 0.929 . S
H4150 C4164 0.931 . S
H4151 C4166 0.930 . S
C4152 H4140 0.930 . S
C4152 C4153 1.399 . S
C4152 C4157 1.399 . S
C4153 C4152 1.399 . S
C4153 C4154 1.376 . S
C4154 H4141 0.930 . S
C4154 C4153 1.376 . S
C4154 C4155 1.388 . S
C4155 H4142 0.930 . S
C4155 C4154 1.388 . S
C4155 C4156 1.390 . S
C4156 C4155 1.390 . S
C4156 C4157 1.394 . S
C4156 C4162 1.465 . S
C4157 C4152 1.399 . S
C4157 C4156 1.394 . S
C4157 C4158 1.516 . S
C4158 C4157 1.516 . S
C4158 C4159 1.502 . S
C4158 C4160 1.561 . S
C4158 C4161 1.526 . S
C4159 H4143 0.959 . S
C4159 H4144 0.959 . S
C4159 H4145 0.961 . S
C4159 C4158 1.502 . S
C4160 H4146 0.960 . S
C4160 H4147 0.961 . S
C4160 H4148 0.959 . S
C4160 C4158 1.561 . S
C4161 C4158 1.526 . S
C4161 C4162 1.396 . S
C4161 C4166 1.390 . S
C4162 C4156 1.465 . S
C4162 C4161 1.396 . S
C4162 C4163 1.399 . S
C4163 H4149 0.929 . S
C4163 C4162 1.399 . S
C4163 C4164 1.385 . S
C4164 H4150 0.931 . S
C4164 C4163 1.385 . S
C4164 C4165 1.389 . S
C4165 C4164 1.389 . S
C4165 C4166 1.387 . S
C4166 H4151 0.930 . S
C4166 C4161 1.390 . S
C4166 C4165 1.387 . S
H4167 C4179 0.930 . S
H4168 C4181 0.930 . S
H4169 C4182 0.930 . S
H4170 C4186 0.959 . S
H4171 C4186 0.959 . S
H4172 C4186 0.961 . S
H4173 C4187 0.960 . S
H4174 C4187 0.961 . S
H4175 C4187 0.959 . S
H4176 C4190 0.929 . S
H4177 C4191 0.931 . S
H4178 C4193 0.930 . S
C4179 H4167 0.930 . S
C4179 C4180 1.399 . S
C4179 C4184 1.399 . S
C4180 C4179 1.399 . S
C4180 C4181 1.376 . S
C4181 H4168 0.930 . S
C4181 C4180 1.376 . S
C4181 C4182 1.388 . S
C4182 H4169 0.930 . S
C4182 C4181 1.388 . S
C4182 C4183 1.390 . S
C4183 C4182 1.390 . S
C4183 C4184 1.394 . S
C4183 C4189 1.465 . S
C4184 C4179 1.399 . S
C4184 C4183 1.394 . S
C4184 C4185 1.516 . S
C4185 C4184 1.516 . S
C4185 C4186 1.502 1_554 S
C4185 C4187 1.561 . S
C4185 C4188 1.526 . S
C4186 H4170 0.959 . S
C4186 H4171 0.959 . S
C4186 H4172 0.961 . S
C4186 C4185 1.502 1_556 S
C4187 H4173 0.960 . S
C4187 H4174 0.961 . S
C4187 H4175 0.959 . S
C4187 C4185 1.561 . S
C4188 C4185 1.526 . S
C4188 C4189 1.396 . S
C4188 C4193 1.390 . S
C4189 C4183 1.465 . S
C4189 C4188 1.396 . S
C4189 C4190 1.399 . S
C4190 H4176 0.929 . S
C4190 C4189 1.399 . S
C4190 C4191 1.385 . S
C4191 H4177 0.931 . S
C4191 C4190 1.385 . S
C4191 C4192 1.389 . S
C4192 C4191 1.389 . S
C4192 C4193 1.387 . S
C4193 H4178 0.930 . S
C4193 C4188 1.390 . S
C4193 C4192 1.387 . S
H4194 C4206 0.930 . S
H4195 C4208 0.930 . S
H4196 C4209 0.930 . S
H4197 C4213 0.959 . S
H4198 C4213 0.959 . S
H4199 C4213 0.961 . S
H4200 C4214 0.960 . S
H4201 C4214 0.961 . S
H4202 C4214 0.959 . S
H4203 C4217 0.929 . S
H4204 C4218 0.931 . S
H4205 C4220 0.930 . S
C4206 H4194 0.930 . S
C4206 C4207 1.399 . S
C4206 C4211 1.399 . S
C4207 C4206 1.399 . S
C4207 C4208 1.376 . S
C4208 H4195 0.930 . S
C4208 C4207 1.376 . S
C4208 C4209 1.388 . S
C4209 H4196 0.930 . S
C4209 C4208 1.388 . S
C4209 C4210 1.390 . S
C4210 C4209 1.390 . S
C4210 C4211 1.394 . S
C4210 C4216 1.465 . S
C4211 C4206 1.399 . S
C4211 C4210 1.394 . S
C4211 C4212 1.516 . S
C4212 C4211 1.516 . S
C4212 C4213 1.502 . S
C4212 C4214 1.561 . S
C4212 C4215 1.526 . S
C4213 H4197 0.959 . S
C4213 H4198 0.959 . S
C4213 H4199 0.961 . S
C4213 C4212 1.502 . S
C4214 H4200 0.960 . S
C4214 H4201 0.961 . S
C4214 H4202 0.959 . S
C4214 C4212 1.561 . S
C4215 C4212 1.526 . S
C4215 C4216 1.396 . S
C4215 C4220 1.390 . S
C4216 C4210 1.465 . S
C4216 C4215 1.396 . S
C4216 C4217 1.399 . S
C4217 H4203 0.929 . S
C4217 C4216 1.399 . S
C4217 C4218 1.385 . S
C4218 H4204 0.931 . S
C4218 C4217 1.385 . S
C4218 C4219 1.389 . S
C4219 C4218 1.389 . S
C4219 C4220 1.387 . S
C4220 H4205 0.930 . S
C4220 C4215 1.390 . S
C4220 C4219 1.387 . S
H4221 C4233 0.930 . S
H4222 C4235 0.930 . S
H4223 C4236 0.930 . S
H4224 C4240 0.959 . S
H4225 C4240 0.959 . S
H4226 C4240 0.961 . S
H4227 C4241 0.960 . S
H4228 C4241 0.961 . S
H4229 C4241 0.959 . S
H4230 C4244 0.929 . S
H4231 C4245 0.931 . S
H4232 C4247 0.930 . S
C4233 H4221 0.930 . S
C4233 C4234 1.399 . S
C4233 C4238 1.399 . S
C4234 C4233 1.399 . S
C4234 C4235 1.376 . S
C4235 H4222 0.930 . S
C4235 C4234 1.376 . S
C4235 C4236 1.388 . S
C4236 H4223 0.930 . S
C4236 C4235 1.388 . S
C4236 C4237 1.390 . S
C4237 C4236 1.390 . S
C4237 C4238 1.394 . S
C4237 C4243 1.465 . S
C4238 C4233 1.399 . S
C4238 C4237 1.394 . S
C4238 C4239 1.516 . S
C4239 C4238 1.516 . S
C4239 C4240 1.502 . S
C4239 C4241 1.561 . S
C4239 C4242 1.526 . S
C4240 H4224 0.959 . S
C4240 H4225 0.959 . S
C4240 H4226 0.961 . S
C4240 C4239 1.502 . S
C4241 H4227 0.960 . S
C4241 H4228 0.961 . S
C4241 H4229 0.959 . S
C4241 C4239 1.561 . S
C4242 C4239 1.526 . S
C4242 C4243 1.396 . S
C4242 C4247 1.390 . S
C4243 C4237 1.465 . S
C4243 C4242 1.396 . S
C4243 C4244 1.399 . S
C4244 H4230 0.929 . S
C4244 C4243 1.399 . S
C4244 C4245 1.385 . S
C4245 H4231 0.931 . S
C4245 C4244 1.385 . S
C4245 C4246 1.389 . S
C4246 C4245 1.389 . S
C4246 C4247 1.387 . S
C4247 H4232 0.930 . S
C4247 C4242 1.390 . S
C4247 C4246 1.387 . S
C1669 C101 2.168 1_455 S
C1681 C368 2.203 . S
C1696 C57 1.838 . S
C1708 C470 1.866 . S
C1723 C73 1.876 . S
C1735 C536 1.988 . S
C1762 C622 1.312 . S
C1750 C78 1.401 . S
C1777 C21 1.556 . S
C1789 C706 1.487 . S
C1816 C788 1.926 . S
C1804 C31 1.839 . S
C1843 C890 1.909 . S
C1831 C49 1.904 . S
C1858 C0 1.990 . S
C1870 C956 2.101 . S
C1897 C386 1.730 . S
C1885 C218 1.703 . S
C1912 C229 0.960 . S
C1924 C454 0.962 . S
C1951 C554 1.073 . S
C1939 C257 1.080 . S
C1978 C620 1.638 . S
C1966 C164 1.542 1_556 S
C1993 C216 1.519 . S
C2005 C704 1.632 . S
C2032 C806 1.106 . S
C2020 C231 1.139 . S
C2059 C874 0.875 . S
C2047 C255 0.912 . S
C2086 C974 1.642 . S
C2074 C166 1.700 . S
C2113 C370 0.912 1_565 S
C2101 C143 0.871 1_556 S
C2128 C265 1.658 . S
C2140 C1058 1.689 . S
C2167 C1126 1.281 . S
C2155 C299 1.292 . S
C2194 C1208 0.848 . S
C2182 C291 0.879 . S
C2209 C104 0.885 . S
C2221 C958 0.885 . S
C2236 C117 1.349 . S
C2248 C538 1.332 . S
C2263 C304 1.585 . S
C2275 C1310 1.628 . S
C2302 C1376 0.767 . S
C2290 C278 0.756 . S
C2329 C379 2.143 . S
C2317 C60 2.107 . S
C2356 C1383 1.774 . S
C2344 C96 1.802 . S
C2371 C88 1.888 . S
C2383 C547 1.874 . S
C2398 C65 1.396 . S
C2410 C1305 1.259 . S
C2437 C717 1.380 . S
C2425 C10 1.456 . S
C2452 C44 1.727 . S
C2464 C1135 1.829 . S
C2491 C879 1.836 1_556 S
C2479 C34 1.792 . S
C2518 C1471 2.024 . S
C2506 C13 1.992 . S
C2545 C375 1.560 . S
C2533 C138 1.591 . S
C2572 C1389 0.874 . S
C2560 C296 0.831 . S
C2587 C112 1.019 . S
C2599 C543 1.014 . S
C2614 C270 1.555 . S
C2626 C1303 1.539 . S
C2641 C140 1.527 . S
C2653 C715 1.534 . S
C2680 C1131 1.042 . S
C2668 C294 1.026 . S
C2695 C114 0.842 . S
C2707 C885 0.767 . S
C2722 C268 1.598 . S
C2734 C1467 1.546 . S
C2749 C169 0.962 . S
C2761 C381 0.999 . S
C2776 C161 1.618 . S
C2788 C1047 1.609 . S
C2803 C234 1.316 . S
C2815 C801 1.202 . S
C2830 C226 0.820 . S
C2842 C1219 0.779 . S
C2869 C1473 0.840 . S
C2857 C247 0.929 . S
C2884 C195 1.304 . S
C2896 C549 1.285 . S
C2923 C627 1.548 . S
C2911 C239 1.547 . S
C2950 C463 0.683 . S
C2938 C187 0.696 . S
C2965 C75 2.171 . S
C2977 C1544 2.199 . S
C3004 C1394 1.897 . S
C2992 C83 1.853 . S
C3019 C99 1.884 . S
C3031 C1628 1.985 . S
C3046 C52 1.398 1_655 S
C3058 C1294 1.306 . S
C3073 C47 1.515 . S
C3085 C1042 1.402 . S
C3112 C1124 1.915 . S
C3100 C5 1.847 . S
C3139 C1226 1.893 . S
C3127 C23 1.888 . S
C3166 C1460 2.097 . S
C3154 C26 1.997 . S
C3193 C1562 1.636 . S
C3181 C244 1.709 . S
C3208 C177 0.964 . S
C3220 C1378 0.968 . S
C3247 C1646 1.138 . S
C3235 C192 1.127 . S
C3274 C1292 1.635 . S
C3262 C203 1.575 . S
C3301 C1040 1.610 . S
C3289 C242 1.594 . S
C3316 C179 1.093 . S
C3328 C1142 1.091 . S
C3355 C1210 0.810 . S
C3343 C190 0.884 . S
C3370 C205 1.678 . S
C3382 C1478 1.639 . S
C3409 C1546 1.016 . S
C3397 C286 1.003 . S
C3424 C122 1.661 . S
C3436 C722 1.648 . S
C3463 C790 1.203 . S
C3451 C130 1.243 1_565 S
C3490 C872 0.884 . S
C3478 C148 0.802 . S
C3517 C1462 0.968 . S
C3505 C273 0.971 . S
C3532 C260 1.271 . S
C3544 C1630 1.231 . S
C3571 C638 1.628 . S
C3559 C135 1.579 . S
C3598 C452 0.736 . S
C3586 C109 0.808 . S
C3613 C86 2.098 . S
C3625 C1555 2.139 . S
C3652 C459 1.788 . S
C3640 C70 1.806 . S
C3667 C62 1.874 . S
C3679 C1639 1.889 . S
C3694 C91 1.347 . S
C3706 C633 1.357 . S
C3721 C36 1.467 . S
C3733 C1053 1.416 . S
C3760 C799 1.839 . S
C3748 C18 1.767 . S
C3775 C8 1.793 . S
C3787 C1215 1.836 . S
C3802 C39 2.010 . S
C3814 C967 2.042 . S
C3841 C1551 1.580 . S
C3829 C307 1.624 . S
C3856 C153 0.886 . S
C3868 C465 0.782 . S
C3895 C1635 0.999 1_655 S
C3883 C281 1.000 . S
C3910 C127 1.549 . S
C3922 C631 1.557 . S
C3937 C309 1.528 . S
C3949 C1051 1.532 . S
C3976 C795 1.021 . S
C3964 C151 1.028 . S
C3991 C283 0.887 . S
C4003 C1221 0.911 . S
C4030 C963 1.541 . S
C4018 C125 1.593 . S
C4057 C1557 0.891 . S
C4045 C221 0.989 . S
C4084 C711 1.605 1_565 S
C4072 C200 1.620 . S
C4099 C208 1.283 . S
C4111 C1137 1.294 . S
C4138 C883 0.761 . S
C4126 C174 0.781 . S
C4153 C182 0.876 . S
C4165 C969 0.911 . S
C4180 C156 1.315 . S
C4192 C1641 1.292 . S
C4219 C1299 1.545 . S
C4207 C213 1.549 . S
C4246 C1387 0.663 . S
C4234 C252 0.642 . S
