# Generated by pormake.
# Topology ocu, (6,8)-cn, num edge types: 1
# Building blocks:
#     Node 0, Type 0, BuildingBlock: KUMBOL_clean_sbu_0, # of connection points: 6
#     Node 1, Type 0, BuildingBlock: KUMBOL_clean_sbu_0, # of connection points: 6
#     Node 2, Type 0, BuildingBlock: KUMBOL_clean_sbu_0, # of connection points: 6
#     Node 3, Type 0, BuildingBlock: KUMBOL_clean_sbu_0, # of connection points: 6
#     Node 4, Type 0, BuildingBlock: KUMBOL_clean_sbu_0, # of connection points: 6
#     Node 5, Type 0, BuildingBlock: KUMBOL_clean_sbu_0, # of connection points: 6
#     Node 6, Type 0, BuildingBlock: KUMBOL_clean_sbu_0, # of connection points: 6
#     Node 7, Type 0, BuildingBlock: KUMBOL_clean_sbu_0, # of connection points: 6
#     Node 8, Type 1, BuildingBlock: GIZVER_clean_sbu_0, # of connection points: 8
#     Node 9, Type 1, BuildingBlock: GIZVER_clean_sbu_0, # of connection points: 8
#     Node 10, Type 1, BuildingBlock: GIZVER_clean_sbu_0, # of connection points: 8
#     Node 11, Type 1, BuildingBlock: GIZVER_clean_sbu_0, # of connection points: 8
#     Node 12, Type 1, BuildingBlock: GIZVER_clean_sbu_0, # of connection points: 8
#     Node 13, Type 1, BuildingBlock: GIZVER_clean_sbu_0, # of connection points: 8
#     Edge 14, Type (0, 1), BuildingBlock: XIVTED_clean_linker_0, # of connection points: 2
#     Edge 15, Type (0, 1), BuildingBlock: XIVTED_clean_linker_0, # of connection points: 2
#     Edge 16, Type (0, 1), BuildingBlock: XIVTED_clean_linker_0, # of connection points: 2
#     Edge 17, Type (0, 1), BuildingBlock: XIVTED_clean_linker_0, # of connection points: 2
#     Edge 18, Type (0, 1), BuildingBlock: XIVTED_clean_linker_0, # of connection points: 2
#     Edge 19, Type (0, 1), BuildingBlock: XIVTED_clean_linker_0, # of connection points: 2
#     Edge 20, Type (0, 1), BuildingBlock: XIVTED_clean_linker_0, # of connection points: 2
#     Edge 21, Type (0, 1), BuildingBlock: XIVTED_clean_linker_0, # of connection points: 2
#     Edge 22, Type (0, 1), BuildingBlock: XIVTED_clean_linker_0, # of connection points: 2
#     Edge 23, Type (0, 1), BuildingBlock: XIVTED_clean_linker_0, # of connection points: 2
#     Edge 24, Type (0, 1), BuildingBlock: XIVTED_clean_linker_0, # of connection points: 2
#     Edge 25, Type (0, 1), BuildingBlock: XIVTED_clean_linker_0, # of connection points: 2
#     Edge 26, Type (0, 1), BuildingBlock: XIVTED_clean_linker_0, # of connection points: 2
#     Edge 27, Type (0, 1), BuildingBlock: XIVTED_clean_linker_0, # of connection points: 2
#     Edge 28, Type (0, 1), BuildingBlock: XIVTED_clean_linker_0, # of connection points: 2
#     Edge 29, Type (0, 1), BuildingBlock: XIVTED_clean_linker_0, # of connection points: 2
#     Edge 30, Type (0, 1), BuildingBlock: XIVTED_clean_linker_0, # of connection points: 2
#     Edge 31, Type (0, 1), BuildingBlock: XIVTED_clean_linker_0, # of connection points: 2
#     Edge 32, Type (0, 1), BuildingBlock: XIVTED_clean_linker_0, # of connection points: 2
#     Edge 33, Type (0, 1), BuildingBlock: XIVTED_clean_linker_0, # of connection points: 2
#     Edge 34, Type (0, 1), BuildingBlock: XIVTED_clean_linker_0, # of connection points: 2
#     Edge 35, Type (0, 1), BuildingBlock: XIVTED_clean_linker_0, # of connection points: 2
#     Edge 36, Type (0, 1), BuildingBlock: XIVTED_clean_linker_0, # of connection points: 2
#     Edge 37, Type (0, 1), BuildingBlock: XIVTED_clean_linker_0, # of connection points: 2
#     Edge 38, Type (0, 1), BuildingBlock: XIVTED_clean_linker_0, # of connection points: 2
#     Edge 39, Type (0, 1), BuildingBlock: XIVTED_clean_linker_0, # of connection points: 2
#     Edge 40, Type (0, 1), BuildingBlock: XIVTED_clean_linker_0, # of connection points: 2
#     Edge 41, Type (0, 1), BuildingBlock: XIVTED_clean_linker_0, # of connection points: 2
#     Edge 42, Type (0, 1), BuildingBlock: XIVTED_clean_linker_0, # of connection points: 2
#     Edge 43, Type (0, 1), BuildingBlock: XIVTED_clean_linker_0, # of connection points: 2
#     Edge 44, Type (0, 1), BuildingBlock: XIVTED_clean_linker_0, # of connection points: 2
#     Edge 45, Type (0, 1), BuildingBlock: XIVTED_clean_linker_0, # of connection points: 2
#     Edge 46, Type (0, 1), BuildingBlock: XIVTED_clean_linker_0, # of connection points: 2
#     Edge 47, Type (0, 1), BuildingBlock: XIVTED_clean_linker_0, # of connection points: 2
#     Edge 48, Type (0, 1), BuildingBlock: XIVTED_clean_linker_0, # of connection points: 2
#     Edge 49, Type (0, 1), BuildingBlock: XIVTED_clean_linker_0, # of connection points: 2
#     Edge 50, Type (0, 1), BuildingBlock: XIVTED_clean_linker_0, # of connection points: 2
#     Edge 51, Type (0, 1), BuildingBlock: XIVTED_clean_linker_0, # of connection points: 2
#     Edge 52, Type (0, 1), BuildingBlock: XIVTED_clean_linker_0, # of connection points: 2
#     Edge 53, Type (0, 1), BuildingBlock: XIVTED_clean_linker_0, # of connection points: 2
#     Edge 54, Type (0, 1), BuildingBlock: XIVTED_clean_linker_0, # of connection points: 2
#     Edge 55, Type (0, 1), BuildingBlock: XIVTED_clean_linker_0, # of connection points: 2
#     Edge 56, Type (0, 1), BuildingBlock: XIVTED_clean_linker_0, # of connection points: 2
#     Edge 57, Type (0, 1), BuildingBlock: XIVTED_clean_linker_0, # of connection points: 2
#     Edge 58, Type (0, 1), BuildingBlock: XIVTED_clean_linker_0, # of connection points: 2
#     Edge 59, Type (0, 1), BuildingBlock: XIVTED_clean_linker_0, # of connection points: 2
#     Edge 60, Type (0, 1), BuildingBlock: XIVTED_clean_linker_0, # of connection points: 2
#     Edge 61, Type (0, 1), BuildingBlock: XIVTED_clean_linker_0, # of connection points: 2
# Relax obj value: 0.190
# Max RMSD: 0.299
# Mean RMSD: 0.217
data_MOF--net-ocu--node1-KUMBOL_clean_sbu_0--node2-GIZVER_clean_sbu_0--edge1-XIVTED_clean_linker_0
_symmetry_space_group_name_H-M    P1
_symmetry_Int_Tables_number       1
_symmetry_cell_setting            triclinic
loop_
_symmetry_equiv_pos_as_xyz
'x, y, z'
_cell_length_a     43.90721
_cell_length_b     43.358905
_cell_length_c     34.775861
_cell_angle_alpha  82.735705
_cell_angle_beta   96.373131
_cell_angle_gamma 112.09236
loop_
_atom_site_label
_atom_site_type_symbol
_atom_site_fract_x
_atom_site_fract_y
_atom_site_fract_z
_atom_type_partial_charge
Gd0 Gd 0.30266 0.32839 0.3206 0.0
Gd1 Gd 0.27463 0.27531 0.24778 0.0
C2 C 0.19058 0.28027 0.16287 0.0
C3 C 0.14955 0.22432 0.1736 0.0
C4 C 0.20103 0.2409 0.21395 0.0
C5 C 0.21081 0.27289 0.19429 0.0
C6 C 0.17048 0.21625 0.20326 0.0
C7 C 0.15967 0.25613 0.15331 0.0
C8 C 0.2027 0.31111 0.14065 0.0
C9 C 0.23442 0.33361 0.14954 0.0
N10 N 0.24143 0.29543 0.20285 0.0
C11 C 0.2536 0.32527 0.18079 0.0
H12 H 0.27845 0.34237 0.18677 0.0
C13 C 0.21615 0.2006 0.256 0.0
N14 N 0.2228 0.23286 0.24033 0.0
C15 C 0.18571 0.1757 0.24726 0.0
C16 C 0.16269 0.1836 0.22097 0.0
H17 H 0.23439 0.1944 0.27554 0.0
H18 H 0.1438 0.26146 0.1294 0.0
H19 H 0.26362 0.25928 0.38356 0.0
H20 H 0.18803 0.31749 0.11608 0.0
H21 H 0.24424 0.35725 0.13212 0.0
H22 H 0.12604 0.20567 0.16499 0.0
H23 H 0.37722 0.38133 0.28627 0.0
H24 H 0.33494 0.25984 0.4767 0.0
H25 H 0.27737 0.2391 0.449 0.0
H26 H 0.43678 0.33156 0.42584 0.0
H27 H 0.18023 0.15033 0.26025 0.0
H28 H 0.13945 0.16404 0.2135 0.0
H29 H 0.39407 0.29313 0.46716 0.0
H30 H 0.43498 0.39442 0.30397 0.0
N31 N 0.31251 0.29288 0.37309 0.0
C32 C 0.329 0.26913 0.44757 0.0
C33 C 0.29651 0.25734 0.43204 0.0
C34 C 0.35369 0.29153 0.42466 0.0
C35 C 0.34473 0.30317 0.38685 0.0
C36 C 0.28874 0.26916 0.39448 0.0
N37 N 0.35994 0.33951 0.32877 0.0
C38 C 0.369 0.32573 0.36352 0.0
C39 C 0.41686 0.37427 0.32033 0.0
C40 C 0.42649 0.35945 0.35479 0.0
C41 C 0.38347 0.36505 0.3087 0.0
C42 C 0.40254 0.33585 0.37753 0.0
H43 H 0.45236 0.36777 0.36463 0.0
O44 O 0.33253 0.37812 0.33646 0.0
O45 O 0.26657 0.32078 0.26634 0.0
O46 O 0.32259 0.31611 0.23458 0.0
O47 O 0.32146 0.35871 0.26583 0.0
O48 O 0.26905 0.35789 0.29814 0.0
O49 O 0.29807 0.34234 0.37609 0.0
O50 O 0.2772 0.23588 0.21812 0.0
O51 O 0.30878 0.28136 0.30361 0.0
O52 O 0.25104 0.29646 0.3358 0.0
O53 O 0.23546 0.2573 0.29015 0.0
O54 O 0.30028 0.23987 0.27694 0.0
O55 O 0.29314 0.28712 0.19022 0.0
C56 C 0.2541 0.34432 0.26669 0.0
C57 C 0.41123 0.32366 0.41469 0.0
C58 C 0.3869 0.30194 0.43832 0.0
C59 C 0.32023 0.37242 0.37011 0.0
C60 C 0.31371 0.39953 0.38334 0.0
C61 C 0.34 0.42898 0.39216 0.0
C62 C 0.28201 0.39444 0.39217 0.0
C63 C 0.2769 0.41714 0.41284 0.0
C64 C 0.33448 0.45269 0.41121 0.0
C65 C 0.30299 0.44645 0.42243 0.0
C66 C 0.33063 0.34794 0.23748 0.0
C67 C 0.31818 0.25545 0.30561 0.0
C68 C 0.28782 0.25586 0.18714 0.0
C69 C 0.27483 0.24239 0.15003 0.0
C70 C 0.24125 0.23019 0.13762 0.0
C71 C 0.29681 0.23508 0.131 0.0
C72 C 0.28522 0.2112 0.1043 0.0
C73 C 0.22997 0.20948 0.1073 0.0
C74 C 0.25184 0.19915 0.09119 0.0
C75 C 0.22981 0.26968 0.32012 0.0
H76 H 0.36483 0.43302 0.38552 0.0
H77 H 0.26164 0.37149 0.38592 0.0
H78 H 0.35479 0.47517 0.41865 0.0
H79 H 0.29906 0.46395 0.43911 0.0
H80 H 0.22361 0.23542 0.15162 0.0
H81 H 0.32283 0.24492 0.14052 0.0
H82 H 0.20402 0.19976 0.09807 0.0
H83 H 0.24251 0.18067 0.07028 0.0
Gd84 Gd 0.7529 0.32368 0.29946 0.0
Gd85 Gd 0.80881 0.28593 0.2753 0.0
C86 C 0.89877 0.3469 0.20614 0.0
C87 C 0.88614 0.31894 0.1471 0.0
C88 C 0.84567 0.30257 0.19595 0.0
C89 C 0.86754 0.32608 0.21924 0.0
C90 C 0.85501 0.29868 0.15967 0.0
C91 C 0.90795 0.343 0.17026 0.0
C92 C 0.91977 0.37165 0.22901 0.0
C93 C 0.90898 0.37637 0.26303 0.0
N94 N 0.85801 0.32947 0.25389 0.0
C95 C 0.87799 0.35534 0.27482 0.0
H96 H 0.87051 0.36133 0.30005 0.0
C97 C 0.79548 0.25724 0.18778 0.0
N98 N 0.8157 0.28306 0.2089 0.0
C99 C 0.80346 0.25286 0.15169 0.0
C100 C 0.83326 0.27386 0.13736 0.0
H101 H 0.7738 0.23816 0.19915 0.0
H102 H 0.93182 0.35871 0.15998 0.0
H103 H 0.67699 0.27114 0.25873 0.0
H104 H 0.94386 0.38803 0.21998 0.0
H105 H 0.92442 0.39649 0.28014 0.0
H106 H 0.89362 0.3161 0.11951 0.0
H107 H 0.78135 0.36563 0.37975 0.0
H108 H 0.62272 0.2071 0.34963 0.0
H109 H 0.63022 0.22352 0.27984 0.0
H110 H 0.68026 0.25616 0.46424 0.0
H111 H 0.78707 0.23241 0.13563 0.0
H112 H 0.8397 0.26997 0.10965 0.0
H113 H 0.6412 0.21978 0.41794 0.0
H114 H 0.77352 0.35768 0.44912 0.0
N115 N 0.70159 0.28002 0.31566 0.0
C116 C 0.64469 0.22764 0.34051 0.0
C117 C 0.64893 0.23672 0.30118 0.0
C118 C 0.66795 0.2463 0.36759 0.0
C119 C 0.69657 0.27254 0.35427 0.0
C120 C 0.67684 0.26364 0.28927 0.0
N121 N 0.7458 0.31786 0.36715 0.0
C122 C 0.71919 0.29215 0.38067 0.0
C123 C 0.7586 0.33847 0.43054 0.0
C124 C 0.73365 0.31023 0.44563 0.0
C125 C 0.76358 0.34238 0.39101 0.0
C126 C 0.7129 0.28718 0.42051 0.0
H127 H 0.72944 0.30745 0.47621 0.0
O128 O 0.76995 0.37614 0.30814 0.0
O129 O 0.79845 0.33192 0.27058 0.0
O130 O 0.83523 0.31083 0.32957 0.0
O131 O 0.80131 0.33988 0.33719 0.0
O132 O 0.76443 0.34888 0.23886 0.0
O133 O 0.71785 0.34826 0.29582 0.0
O134 O 0.79441 0.23374 0.26808 0.0
O135 O 0.76324 0.27768 0.3032 0.0
O136 O 0.72858 0.30101 0.24331 0.0
O137 O 0.7596 0.26853 0.23854 0.0
O138 O 0.79694 0.26074 0.33568 0.0
O139 O 0.84559 0.26329 0.28454 0.0
C140 C 0.79298 0.34683 0.23871 0.0
C141 C 0.68519 0.26049 0.43378 0.0
C142 C 0.66287 0.23993 0.40739 0.0
C143 C 0.74116 0.37777 0.29798 0.0
C144 C 0.74142 0.40274 0.26563 0.0
C145 C 0.76118 0.43651 0.26818 0.0
C146 C 0.72562 0.39195 0.23006 0.0
C147 C 0.72888 0.41431 0.19704 0.0
C148 C 0.76473 0.45921 0.2351 0.0
C149 C 0.74864 0.44822 0.19954 0.0
C150 C 0.82809 0.33261 0.34705 0.0
C151 C 0.76795 0.26202 0.33479 0.0
C152 C 0.82407 0.23395 0.27662 0.0
C153 C 0.82571 0.20494 0.30098 0.0
C154 C 0.81278 0.17371 0.28589 0.0
C155 C 0.83958 0.20789 0.33895 0.0
C156 C 0.84092 0.17967 0.3618 0.0
C157 C 0.81403 0.1454 0.30885 0.0
C158 C 0.82816 0.14831 0.3468 0.0
C159 C 0.73382 0.27729 0.22755 0.0
H160 H 0.7744 0.44506 0.29537 0.0
H161 H 0.71139 0.36563 0.22762 0.0
H162 H 0.78 0.48528 0.23701 0.0
H163 H 0.75108 0.46624 0.17438 0.0
H164 H 0.80182 0.17132 0.25639 0.0
H165 H 0.84953 0.23202 0.35073 0.0
H166 H 0.80436 0.12133 0.29713 0.0
H167 H 0.82984 0.12633 0.36411 0.0
Gd168 Gd 0.77814 0.76385 0.32628 0.0
Gd169 Gd 0.78676 0.82342 0.24746 0.0
C170 C 0.85685 0.82612 0.15881 0.0
C171 C 0.89674 0.88293 0.15939 0.0
C172 C 0.85221 0.86293 0.203 0.0
C173 C 0.84135 0.83151 0.18947 0.0
C174 C 0.87964 0.88913 0.18747 0.0
C175 C 0.88524 0.85156 0.1449 0.0
C176 C 0.84189 0.79639 0.14084 0.0
C177 C 0.81156 0.77348 0.15239 0.0
N178 N 0.81282 0.80797 0.20193 0.0
C179 C 0.79714 0.77991 0.18278 0.0
H180 H 0.77353 0.76218 0.19124 0.0
C181 C 0.84018 0.90077 0.2366 0.0
N182 N 0.83377 0.8689 0.22794 0.0
C183 C 0.86781 0.92722 0.22309 0.0
C184 C 0.88786 0.92131 0.19875 0.0
H185 H 0.82432 0.90546 0.25492 0.0
H186 H 0.89757 0.84774 0.12163 0.0
H187 H 0.81365 0.8234 0.38798 0.0
H188 H 0.85284 0.79152 0.11697 0.0
H189 H 0.79925 0.75088 0.13792 0.0
H190 H 0.91789 0.90273 0.14722 0.0
H191 H 0.71037 0.69303 0.30733 0.0
H192 H 0.74044 0.82281 0.45898 0.0
H193 H 0.79812 0.84524 0.44098 0.0
H194 H 0.64319 0.73552 0.41506 0.0
H195 H 0.87335 0.9522 0.23102 0.0
H196 H 0.90881 0.94202 0.18754 0.0
H197 H 0.68288 0.7824 0.44863 0.0
H198 H 0.65293 0.66788 0.32279 0.0
N199 N 0.76487 0.78987 0.37354 0.0
C200 C 0.74703 0.81324 0.43514 0.0
C201 C 0.77957 0.82603 0.42502 0.0
C202 C 0.72349 0.78781 0.41492 0.0
C203 C 0.73323 0.77617 0.38394 0.0
C204 C 0.78819 0.81376 0.39434 0.0
N205 N 0.72135 0.73661 0.33759 0.0
C206 C 0.71077 0.74947 0.36491 0.0
C207 C 0.66863 0.69125 0.33411 0.0
C208 C 0.65681 0.70549 0.3598 0.0
C209 C 0.70125 0.70649 0.32432 0.0
C210 C 0.67814 0.73422 0.37655 0.0
H211 H 0.63168 0.69312 0.36809 0.0
O212 O 0.76384 0.717 0.36248 0.0
O213 O 0.80191 0.77812 0.26802 0.0
O214 O 0.73677 0.78215 0.24808 0.0
O215 O 0.74934 0.73778 0.2751 0.0
O216 O 0.80438 0.73583 0.29854 0.0
O217 O 0.81167 0.7578 0.37429 0.0
O218 O 0.77137 0.86091 0.21376 0.0
O219 O 0.76636 0.81115 0.30723 0.0
O220 O 0.8284 0.80362 0.33519 0.0
O221 O 0.83083 0.84682 0.28724 0.0
O222 O 0.76842 0.856 0.27958 0.0
O223 O 0.75348 0.8101 0.19645 0.0
C224 C 0.81422 0.75465 0.26685 0.0
C225 C 0.66815 0.7469 0.406 0.0
C226 C 0.69078 0.7735 0.42523 0.0
C227 C 0.79036 0.7284 0.38524 0.0
C228 C 0.79725 0.70833 0.41862 0.0
C229 C 0.7736 0.69073 0.44534 0.0
C230 C 0.8282 0.70662 0.42326 0.0
C231 C 0.83578 0.68654 0.45401 0.0
C232 C 0.78164 0.67146 0.47726 0.0
C233 C 0.81282 0.66925 0.48166 0.0
C234 C 0.73189 0.75037 0.24985 0.0
C235 C 0.75784 0.83682 0.31074 0.0
C236 C 0.75442 0.84042 0.18807 0.0
C237 C 0.75735 0.85373 0.14788 0.0
C238 C 0.78521 0.86052 0.12724 0.0
C239 C 0.73265 0.86457 0.1321 0.0
C240 C 0.73727 0.88607 0.09838 0.0
C241 C 0.78853 0.8798 0.09138 0.0
C242 C 0.76484 0.89347 0.07729 0.0
C243 C 0.84289 0.8342 0.31885 0.0
H244 H 0.74932 0.69212 0.44165 0.0
H245 H 0.84619 0.7201 0.40205 0.0
H246 H 0.76361 0.65788 0.49816 0.0
H247 H 0.81863 0.65342 0.50568 0.0
H248 H 0.80455 0.85196 0.13884 0.0
H249 H 0.71135 0.85964 0.14859 0.0
H250 H 0.81023 0.88564 0.07566 0.0
H251 H 0.7688 0.91087 0.05149 0.0
Gd252 Gd 0.2577 0.82534 0.26413 0.0
Gd253 Gd 0.30376 0.77171 0.28328 0.0
C254 C 0.28323 0.68467 0.37767 0.0
C255 C 0.33289 0.70306 0.42071 0.0
C256 C 0.3261 0.73866 0.36321 0.0
C257 C 0.29563 0.7149 0.35382 0.0
C258 C 0.34568 0.73241 0.39587 0.0
C259 C 0.30162 0.67931 0.41173 0.0
C260 C 0.2533 0.66027 0.36589 0.0
C261 C 0.23715 0.66579 0.33038 0.0
N262 N 0.27908 0.72038 0.32005 0.0
C263 C 0.25068 0.69589 0.30746 0.0
H264 H 0.23777 0.69938 0.28008 0.0
C265 C 0.37033 0.78716 0.34178 0.0
N266 N 0.33797 0.76642 0.33824 0.0
C267 C 0.39078 0.782 0.3737 0.0
C268 C 0.37817 0.7549 0.40134 0.0
H269 H 0.37994 0.8081 0.3203 0.0
H270 H 0.29241 0.65636 0.43056 0.0
H271 H 0.31597 0.89494 0.30572 0.0
H272 H 0.24286 0.63682 0.38351 0.0
H273 H 0.21428 0.64688 0.32061 0.0
H274 H 0.34741 0.69795 0.44621 0.0
H275 H 0.2002 0.80175 0.18979 0.0
H276 H 0.34704 0.97268 0.21537 0.0
H277 H 0.3508 0.951 0.28405 0.0
H278 H 0.27755 0.9287 0.10437 0.0
H279 H 0.41614 0.79895 0.37702 0.0
H280 H 0.39408 0.75086 0.42596 0.0
H281 H 0.32031 0.96385 0.14868 0.0
H282 H 0.19041 0.82206 0.12208 0.0
N283 N 0.29103 0.88243 0.24999 0.0
C284 C 0.33107 0.94751 0.22474 0.0
C285 C 0.33323 0.93539 0.26349 0.0
C286 C 0.30816 0.92719 0.19858 0.0
C287 C 0.2881 0.89437 0.21206 0.0
C288 C 0.31298 0.90286 0.2757 0.0
N289 N 0.24527 0.84279 0.19963 0.0
C290 C 0.26468 0.87408 0.18639 0.0
C291 C 0.21168 0.83674 0.13956 0.0
C292 C 0.23349 0.86726 0.12402 0.0
C293 C 0.2174 0.8253 0.17795 0.0
C294 C 0.25985 0.88674 0.14769 0.0
H295 H 0.22897 0.87619 0.09422 0.0
O296 O 0.20456 0.79973 0.26169 0.0
O297 O 0.25436 0.77331 0.28716 0.0
O298 O 0.2583 0.75172 0.24466 0.0
O299 O 0.26065 0.80059 0.21185 0.0
O300 O 0.23978 0.79947 0.32281 0.0
O301 O 0.22734 0.85327 0.26896 0.0
O302 O 0.34722 0.7739 0.25854 0.0
O303 O 0.30656 0.82372 0.26343 0.0
O304 O 0.28818 0.84003 0.32026 0.0
O305 O 0.31541 0.80195 0.33497 0.0
O306 O 0.33606 0.80739 0.23721 0.0
O307 O 0.30017 0.73234 0.24908 0.0
C308 C 0.24233 0.77129 0.31949 0.0
C309 C 0.28057 0.91884 0.13416 0.0
C310 C 0.30477 0.93893 0.15946 0.0
C311 C 0.2008 0.82601 0.27193 0.0
C312 C 0.18333 0.82069 0.30722 0.0
C313 C 0.15543 0.79194 0.3151 0.0
C314 C 0.19566 0.84434 0.33428 0.0
C315 C 0.17832 0.84219 0.36621 0.0
C316 C 0.13938 0.78808 0.34897 0.0
C317 C 0.15028 0.81346 0.37411 0.0
C318 C 0.25251 0.76834 0.21252 0.0
C319 C 0.32624 0.83163 0.23677 0.0
C320 C 0.33171 0.74518 0.24453 0.0
C321 C 0.34846 0.72222 0.25103 0.0
C322 C 0.36228 0.71431 0.2875 0.0
C323 C 0.35184 0.70923 0.21847 0.0
C324 C 0.36969 0.68874 0.22155 0.0
C325 C 0.3797 0.69292 0.29077 0.0
C326 C 0.38357 0.68007 0.2576 0.0
C327 C 0.30785 0.82724 0.34301 0.0
H328 H 0.14614 0.77263 0.29519 0.0
H329 H 0.21824 0.86573 0.32966 0.0
H330 H 0.11775 0.76601 0.35497 0.0
H331 H 0.13603 0.81122 0.39851 0.0
H332 H 0.36015 0.72481 0.31298 0.0
H333 H 0.34153 0.71601 0.19022 0.0
H334 H 0.39073 0.68693 0.31869 0.0
H335 H 0.39808 0.66443 0.25974 0.0
Gd336 Gd 0.25781 0.81439 0.77048 0.0
Gd337 Gd 0.30339 0.76332 0.78945 0.0
C338 C 0.40093 0.81539 0.7309 0.0
C339 C 0.38741 0.79386 0.66757 0.0
C340 C 0.34645 0.77491 0.7159 0.0
C341 C 0.3687 0.79567 0.74166 0.0
C342 C 0.35603 0.77303 0.679 0.0
C343 C 0.40983 0.81499 0.69348 0.0
C344 C 0.42338 0.83493 0.75808 0.0
C345 C 0.41403 0.83333 0.79547 0.0
N346 N 0.35916 0.79613 0.77742 0.0
C347 C 0.38204 0.81312 0.80495 0.0
H348 H 0.37649 0.81078 0.83477 0.0
C349 C 0.29709 0.72904 0.70661 0.0
N350 N 0.31618 0.75516 0.72765 0.0
C351 C 0.30505 0.72658 0.66962 0.0
C352 C 0.33426 0.74937 0.65522 0.0
H353 H 0.27574 0.70944 0.71817 0.0
H354 H 0.43421 0.8305 0.68454 0.0
H355 H 0.18652 0.76367 0.72445 0.0
H356 H 0.44821 0.85059 0.75083 0.0
H357 H 0.43162 0.84728 0.81726 0.0
H358 H 0.39489 0.79316 0.63913 0.0
H359 H 0.28493 0.86602 0.84418 0.0
H360 H 0.11336 0.7233 0.8064 0.0
H361 H 0.13177 0.72582 0.74115 0.0
H362 H 0.16256 0.78323 0.91736 0.0
H363 H 0.28896 0.70664 0.65265 0.0
H364 H 0.34063 0.74723 0.62671 0.0
H365 H 0.12493 0.74505 0.87164 0.0
H366 H 0.26972 0.86826 0.90866 0.0
N367 N 0.20232 0.77978 0.78148 0.0
C368 C 0.13815 0.73951 0.7996 0.0
C369 C 0.14853 0.74066 0.7629 0.0
C370 C 0.15948 0.76015 0.82665 0.0
C371 C 0.19178 0.78049 0.8166 0.0
C372 C 0.18041 0.76166 0.75395 0.0
N373 N 0.24391 0.82135 0.83217 0.0
C374 C 0.21316 0.80172 0.84265 0.0
C375 C 0.25386 0.84883 0.89088 0.0
C376 C 0.22378 0.82664 0.90364 0.0
C377 C 0.26298 0.84659 0.85445 0.0
C378 C 0.20252 0.80347 0.87899 0.0
H379 H 0.21658 0.82861 0.93177 0.0
O380 O 0.27183 0.86804 0.76883 0.0
O381 O 0.30754 0.81396 0.76034 0.0
O382 O 0.32046 0.79697 0.83805 0.0
O383 O 0.30516 0.83908 0.80529 0.0
O384 O 0.28049 0.82533 0.71206 0.0
O385 O 0.22567 0.83817 0.74001 0.0
O386 O 0.28737 0.70938 0.79256 0.0
O387 O 0.25397 0.76387 0.80008 0.0
O388 O 0.2431 0.78356 0.71981 0.0
O389 O 0.256 0.74031 0.75345 0.0
O390 O 0.28181 0.75339 0.84834 0.0
O391 O 0.33485 0.73853 0.81925 0.0
C392 C 0.30891 0.82382 0.72405 0.0
C393 C 0.17085 0.78255 0.88938 0.0
C394 C 0.14941 0.76091 0.86331 0.0
C395 C 0.24807 0.86795 0.743 0.0
C396 C 0.25866 0.88824 0.70649 0.0
C397 C 0.28149 0.92107 0.7068 0.0
C398 C 0.2472 0.87419 0.67109 0.0
C399 C 0.25471 0.89377 0.63577 0.0
C400 C 0.29159 0.94003 0.67186 0.0
C401 C 0.27783 0.92686 0.63656 0.0
C402 C 0.32152 0.82793 0.8341 0.0
C403 C 0.25322 0.75465 0.83659 0.0
C404 C 0.31207 0.70894 0.81654 0.0
C405 C 0.30334 0.68774 0.8529 0.0
C406 C 0.28224 0.65425 0.8523 0.0
C407 C 0.31689 0.70067 0.88842 0.0
C408 C 0.31449 0.67939 0.92266 0.0
C409 C 0.27635 0.63354 0.8869 0.0
C410 C 0.29303 0.64564 0.92172 0.0
C411 C 0.24212 0.75277 0.72316 0.0
H412 H 0.2915 0.93196 0.73398 0.0
H413 H 0.23113 0.84819 0.67104 0.0
H414 H 0.30907 0.96549 0.67211 0.0
H415 H 0.28411 0.94344 0.61027 0.0
H416 H 0.27076 0.64408 0.82512 0.0
H417 H 0.33141 0.72707 0.88889 0.0
H418 H 0.2603 0.60755 0.88639 0.0
H419 H 0.29046 0.62787 0.94708 0.0
Gd420 Gd 0.31633 0.2945 0.7436 0.0
Gd421 Gd 0.26451 0.28387 0.82506 0.0
C422 C 0.27568 0.21877 0.93511 0.0
C423 C 0.22178 0.17403 0.93584 0.0
C424 C 0.23364 0.21915 0.88401 0.0
C425 C 0.26532 0.23349 0.90025 0.0
C426 C 0.21107 0.18997 0.90241 0.0
C427 C 0.25412 0.18827 0.95198 0.0
C428 C 0.30674 0.23599 0.95282 0.0
C429 C 0.32551 0.26797 0.93721 0.0
N430 N 0.28498 0.26342 0.88384 0.0
C431 C 0.31384 0.28168 0.90292 0.0
H432 H 0.32864 0.30639 0.89107 0.0
C433 C 0.19143 0.22623 0.83967 0.0
N434 N 0.22399 0.23565 0.8523 0.0
C435 C 0.16815 0.19722 0.85661 0.0
C436 C 0.17812 0.17864 0.88771 0.0
H437 H 0.18349 0.24118 0.81655 0.0
H438 H 0.26171 0.17606 0.97824 0.0
H439 H 0.25179 0.27361 0.67782 0.0
H440 H 0.31601 0.22548 0.97922 0.0
H441 H 0.34905 0.28199 0.95141 0.0
H442 H 0.20496 0.15131 0.95015 0.0
H443 H 0.3972 0.33829 0.75587 0.0
H444 H 0.26878 0.35253 0.58627 0.0
H445 H 0.23317 0.29765 0.6161 0.0
H446 H 0.37964 0.42521 0.61722 0.0
H447 H 0.1425 0.18946 0.84599 0.0
H448 H 0.15998 0.15639 0.90115 0.0
H449 H 0.32349 0.40019 0.58708 0.0
H450 H 0.43886 0.38942 0.72672 0.0
N451 N 0.29666 0.31538 0.68452 0.0
C452 C 0.27691 0.3423 0.61375 0.0
C453 C 0.25681 0.31127 0.63039 0.0
C454 C 0.3079 0.35902 0.63189 0.0
C455 C 0.31724 0.34469 0.66771 0.0
C456 C 0.26745 0.29778 0.66553 0.0
N457 N 0.35749 0.34297 0.71765 0.0
C458 C 0.34871 0.35892 0.68477 0.0
C459 C 0.4135 0.38144 0.71498 0.0
C460 C 0.40444 0.39928 0.68243 0.0
C461 C 0.38974 0.35279 0.73182 0.0
C462 C 0.37189 0.38768 0.66637 0.0
H463 H 0.42301 0.42121 0.66905 0.0
O464 O 0.35057 0.26886 0.74408 0.0
O465 O 0.30429 0.27136 0.80371 0.0
O466 O 0.31167 0.32897 0.82808 0.0
O467 O 0.33453 0.34462 0.76757 0.0
O468 O 0.35372 0.29461 0.79264 0.0
O469 O 0.31303 0.26336 0.69744 0.0
O470 O 0.22924 0.30806 0.82581 0.0
O471 O 0.27656 0.30666 0.76512 0.0
O472 O 0.26856 0.24984 0.73966 0.0
O473 O 0.24448 0.23446 0.79951 0.0
O474 O 0.22718 0.28462 0.77614 0.0
O475 O 0.26946 0.31699 0.86954 0.0
C476 C 0.33349 0.2778 0.81857 0.0
C477 C 0.36225 0.40298 0.63166 0.0
C478 C 0.33029 0.38871 0.6145 0.0
C479 C 0.33884 0.25654 0.71105 0.0
C480 C 0.3635 0.26081 0.68319 0.0
C481 C 0.38298 0.29302 0.66848 0.0
C482 C 0.36846 0.233 0.67184 0.0
C483 C 0.39308 0.23791 0.64626 0.0
C484 C 0.40828 0.29801 0.64494 0.0
C485 C 0.41355 0.27075 0.63419 0.0
C486 C 0.33182 0.3505 0.80321 0.0
C487 C 0.24755 0.30105 0.75018 0.0
C488 C 0.24258 0.32228 0.85741 0.0
C489 C 0.21968 0.31865 0.88707 0.0
C490 C 0.20272 0.28694 0.90535 0.0
C491 C 0.21402 0.3466 0.89677 0.0
C492 C 0.19122 0.34244 0.92444 0.0
C493 C 0.17923 0.28252 0.9313 0.0
C494 C 0.17327 0.30992 0.94055 0.0
C495 C 0.24702 0.22895 0.76368 0.0
H496 H 0.37879 0.31447 0.67506 0.0
H497 H 0.35292 0.20791 0.68214 0.0
H498 H 0.42367 0.32312 0.63465 0.0
H499 H 0.4335 0.27543 0.61583 0.0
H500 H 0.20748 0.26548 0.89962 0.0
H501 H 0.22767 0.37133 0.8835 0.0
H502 H 0.16574 0.25777 0.94454 0.0
H503 H 0.1547 0.30562 0.96076 0.0
Gd504 Gd 0.77391 0.30356 0.77809 0.0
Gd505 Gd 0.8246 0.25635 0.79605 0.0
C506 C 0.76584 0.1629 0.87322 0.0
C507 C 0.78971 0.17775 0.93777 0.0
C508 C 0.81183 0.21491 0.88065 0.0
C509 C 0.78871 0.19318 0.85697 0.0
C510 C 0.81381 0.20653 0.92121 0.0
C511 C 0.7656 0.15601 0.91377 0.0
C512 C 0.74455 0.14007 0.84826 0.0
C513 C 0.74794 0.1467 0.8084 0.0
N514 N 0.78974 0.20084 0.81791 0.0
C515 C 0.77134 0.17682 0.7938 0.0
H516 H 0.77462 0.17993 0.76324 0.0
C517 C 0.8633 0.25864 0.88466 0.0
N518 N 0.83463 0.24242 0.8636 0.0
C519 C 0.86652 0.25165 0.92491 0.0
C520 C 0.84106 0.22616 0.94353 0.0
H521 H 0.88385 0.27724 0.87058 0.0
H522 H 0.74781 0.13324 0.92675 0.0
H523 H 0.83134 0.3815 0.79375 0.0
H524 H 0.7265 0.11668 0.85953 0.0
H525 H 0.73279 0.12845 0.78883 0.0
H526 H 0.79041 0.17131 0.96891 0.0
H527 H 0.70531 0.26939 0.71748 0.0
H528 H 0.85612 0.43639 0.68424 0.0
H529 H 0.86482 0.43126 0.75574 0.0
H530 H 0.77414 0.37039 0.59507 0.0
H531 H 0.88881 0.26564 0.9414 0.0
H532 H 0.84365 0.22049 0.97469 0.0
H533 H 0.8225 0.41325 0.62444 0.0
H534 H 0.68768 0.27475 0.6486 0.0
N535 N 0.80442 0.35575 0.74467 0.0
C536 C 0.84134 0.41384 0.70086 0.0
C537 C 0.84628 0.41106 0.74116 0.0
C538 C 0.8163 0.38821 0.68265 0.0
C539 C 0.79788 0.35919 0.70561 0.0
C540 C 0.82718 0.38208 0.76273 0.0
N541 N 0.75278 0.30839 0.71231 0.0
C542 C 0.77123 0.33472 0.68891 0.0
C543 C 0.71156 0.29143 0.65927 0.0
C544 C 0.7318 0.31647 0.63421 0.0
C545 C 0.72205 0.28828 0.69843 0.0
C546 C 0.76157 0.3391 0.64907 0.0
H547 H 0.72345 0.31914 0.6039 0.0
O548 O 0.72176 0.29207 0.78236 0.0
O549 O 0.77529 0.25491 0.80441 0.0
O550 O 0.79269 0.23592 0.74208 0.0
O551 O 0.75032 0.25435 0.74623 0.0
O552 O 0.76703 0.28455 0.84057 0.0
O553 O 0.75874 0.33707 0.80418 0.0
O554 O 0.87785 0.27358 0.79859 0.0
O555 O 0.82354 0.30548 0.77083 0.0
O556 O 0.81147 0.32976 0.82624 0.0
O557 O 0.84755 0.30161 0.83296 0.0
O558 O 0.83423 0.27783 0.73423 0.0
O559 O 0.84702 0.22629 0.77559 0.0
C560 C 0.76695 0.25534 0.83777 0.0
C561 C 0.78093 0.3669 0.62577 0.0
C562 C 0.80838 0.39134 0.64251 0.0
C563 C 0.72759 0.31946 0.79823 0.0
C564 C 0.70746 0.33895 0.78531 0.0
C565 C 0.69564 0.34314 0.74666 0.0
C566 C 0.70286 0.3565 0.81324 0.0
C567 C 0.68681 0.37873 0.80321 0.0
C568 C 0.67903 0.36521 0.73647 0.0
C569 C 0.67478 0.38329 0.76469 0.0
C570 C 0.76269 0.23521 0.73075 0.0
C571 C 0.83349 0.30667 0.73782 0.0
C572 C 0.87677 0.2466 0.78498 0.0
C573 C 0.89959 0.23092 0.80203 0.0
C574 C 0.92492 0.24464 0.83038 0.0
C575 C 0.89879 0.20406 0.78384 0.0
C576 C 0.92477 0.19293 0.7899 0.0
C577 C 0.94957 0.23123 0.8395 0.0
C578 C 0.94994 0.20573 0.81872 0.0
C579 C 0.83872 0.32571 0.84241 0.0
H580 H 0.69955 0.33003 0.72449 0.0
H581 H 0.71291 0.35366 0.84293 0.0
H582 H 0.6698 0.36857 0.7067 0.0
H583 H 0.66203 0.40046 0.75665 0.0
H584 H 0.92632 0.26607 0.84441 0.0
H585 H 0.8792 0.19364 0.76176 0.0
H586 H 0.96927 0.24177 0.86117 0.0
H587 H 0.97039 0.19721 0.8238 0.0
Gd588 Gd 0.79744 0.82109 0.82437 0.0
Gd589 Gd 0.79568 0.76608 0.75238 0.0
C590 C 0.73807 0.78068 0.63916 0.0
C591 C 0.6933 0.72664 0.63683 0.0
C592 C 0.73453 0.73703 0.69129 0.0
C593 C 0.75002 0.76949 0.67537 0.0
C594 C 0.70678 0.71484 0.6714 0.0
C595 C 0.70895 0.75952 0.62072 0.0
C596 C 0.75672 0.81209 0.62158 0.0
C597 C 0.78711 0.83084 0.63935 0.0
N598 N 0.77865 0.78894 0.69329 0.0
C599 C 0.79787 0.8187 0.67533 0.0
H600 H 0.82135 0.83327 0.68887 0.0
C601 C 0.73955 0.69256 0.73512 0.0
N602 N 0.74919 0.726 0.72354 0.0
C603 C 0.71163 0.66971 0.71702 0.0
C604 C 0.69476 0.68101 0.68544 0.0
H605 H 0.75293 0.68379 0.75921 0.0
H606 H 0.69915 0.76784 0.59312 0.0
H607 H 0.76493 0.75719 0.89318 0.0
H608 H 0.74844 0.82155 0.5937 0.0
H609 H 0.80214 0.85474 0.62551 0.0
H610 H 0.67175 0.7101 0.62136 0.0
H611 H 0.85483 0.90015 0.81325 0.0
H612 H 0.83977 0.7592 0.98287 0.0
H613 H 0.78291 0.73303 0.95445 0.0
H614 H 0.92983 0.85945 0.94768 0.0
H615 H 0.70338 0.64342 0.72715 0.0
H616 H 0.67349 0.66318 0.67098 0.0
H617 H 0.89462 0.80596 0.97964 0.0
H618 H 0.91046 0.93179 0.84017 0.0
N619 N 0.81162 0.79659 0.88475 0.0
C620 C 0.83209 0.77001 0.95551 0.0
C621 C 0.80001 0.75518 0.93958 0.0
C622 C 0.85359 0.79916 0.93653 0.0
C623 C 0.84246 0.81219 0.90082 0.0
C624 C 0.79 0.76905 0.90433 0.0
N625 N 0.84998 0.85533 0.84999 0.0
C626 C 0.8624 0.84218 0.88261 0.0
C627 C 0.8975 0.9064 0.85202 0.0
C628 C 0.91178 0.89207 0.88341 0.0
C629 C 0.86606 0.88803 0.83645 0.0
C630 C 0.89381 0.86007 0.89995 0.0
H631 H 0.93598 0.90654 0.89583 0.0
O632 O 0.79262 0.86709 0.83391 0.0
O633 O 0.77936 0.80666 0.76408 0.0
O634 O 0.84393 0.80943 0.75511 0.0
O635 O 0.83283 0.85088 0.77985 0.0
O636 O 0.76851 0.84464 0.78074 0.0
O637 O 0.76159 0.82032 0.86346 0.0
O638 O 0.81559 0.72749 0.75059 0.0
O639 O 0.81845 0.78271 0.81176 0.0
O640 O 0.75254 0.77411 0.82945 0.0
O641 O 0.74742 0.74146 0.77879 0.0
O642 O 0.79731 0.73162 0.80547 0.0
O643 O 0.82941 0.77103 0.70887 0.0
C644 C 0.7639 0.82656 0.75264 0.0
C645 C 0.90563 0.84625 0.93427 0.0
C646 C 0.88554 0.81586 0.95255 0.0
C647 C 0.76976 0.85273 0.85826 0.0
C648 C 0.77309 0.87067 0.89226 0.0
C649 C 0.80179 0.87859 0.91707 0.0
C650 C 0.74878 0.88325 0.89725 0.0
C651 C 0.75344 0.90476 0.92635 0.0
C652 C 0.80663 0.89971 0.94603 0.0
C653 C 0.78301 0.91311 0.95032 0.0
C654 C 0.85124 0.84077 0.76123 0.0
C655 C 0.81422 0.75351 0.82927 0.0
C656 C 0.83106 0.74181 0.71954 0.0
C657 C 0.82626 0.72012 0.68869 0.0
C658 C 0.79869 0.71327 0.66197 0.0
C659 C 0.84922 0.7053 0.68664 0.0
C660 C 0.84446 0.68332 0.6583 0.0
C661 C 0.79353 0.69096 0.63423 0.0
C662 C 0.81628 0.67597 0.63235 0.0
C663 C 0.73707 0.74776 0.80989 0.0
H664 H 0.8208 0.86926 0.91334 0.0
H665 H 0.72656 0.87651 0.87804 0.0
H666 H 0.82913 0.90637 0.9647 0.0
H667 H 0.78844 0.93054 0.97208 0.0
H668 H 0.78131 0.72525 0.66226 0.0
H669 H 0.87061 0.71067 0.70724 0.0
H670 H 0.77207 0.68557 0.61388 0.0
H671 H 0.81227 0.65928 0.61001 0.0
Co672 Co 0.08187 0.9955 0.50661 0.0
Co673 Co 0.09554 1.01102 0.57888 0.0
Co674 Co 0.04597 0.03993 0.5351 0.0
O675 O 0.08557 0.03168 0.53208 0.0
H676 H 0.10407 0.0518 0.52526 0.0
O677 O 1.00687 0.04842 0.53854 0.0
Co678 Co 1.00941 0.08545 0.56212 0.0
Co679 Co 0.99755 0.06751 0.49092 0.0
H680 H 0.98821 0.02838 0.54504 0.0
O681 O 0.1358 1.00617 0.59023 0.0
O682 O 0.09105 0.9734 0.55668 0.0
O683 O 0.06442 0.99899 0.61777 0.0
O684 O 1.02518 0.99928 0.57173 0.0
O685 O 0.06842 0.06453 0.58017 0.0
O686 O 1.0067 0.11731 0.58561 0.0
O687 O 0.96714 0.06788 0.57078 0.0
O688 O 0.05548 0.10796 0.55858 0.0
O689 O 0.06667 0.08114 0.49937 0.0
O690 O 1.02844 0.0792 0.45164 0.0
O691 O 1.00107 0.1061 0.51066 0.0
O692 O 0.95709 0.06991 0.47864 0.0
C693 C 0.11297 0.98605 0.47776 0.0
C694 C 1.01833 0.9842 0.49096 0.0
C695 C 1.0343 0.99182 0.60661 0.0
C696 C 0.12064 0.97961 0.57197 0.0
C697 C 0.97736 0.09469 0.58892 0.0
C698 C 0.07383 0.09524 0.58008 0.0
C699 C 0.05824 0.08987 0.46473 0.0
C700 C 0.97146 0.09786 0.49454 0.0
O701 O 0.08317 0.9643 0.48101 0.0
O702 O 0.12378 1.01288 0.49599 0.0
O703 O 1.02308 1.01492 0.48953 0.0
O704 O 0.03697 0.97301 0.51373 0.0
Co705 Co 0.55582 1.01594 0.99744 0.0
Co706 Co 0.55251 0.0261 0.06725 0.0
Co707 Co 0.52043 0.0694 0.01012 0.0
O708 O 0.55536 0.05165 0.0223 0.0
H709 H 0.57677 0.06948 0.02275 0.0
O710 O 0.48725 0.08859 0.9961 0.0
Co711 Co 0.48905 0.12437 0.02108 0.0
Co712 Co 0.49028 0.11628 0.9524 0.0
H713 H 0.46565 0.07108 0.99506 0.0
O714 O 0.5894 0.02533 0.09359 0.0
O715 O 0.55702 0.99148 0.0482 0.0
O716 O 0.51394 1.01159 0.09334 0.0
O717 O 0.48815 0.03807 0.05077 0.0
O718 O 0.54499 0.10232 0.04977 0.0
O719 O 0.48577 0.15524 0.04634 0.0
O720 O 0.44713 0.10747 0.02589 0.0
O721 O 0.53583 0.14615 0.01992 0.0
O722 O 0.55107 0.09892 0.96982 0.0
O723 O 0.53054 0.13148 0.92866 0.0
O724 O 0.48167 0.14978 0.97007 0.0
O725 O 0.45251 0.11403 0.92493 0.0
C726 C 0.59138 1.00378 0.97718 0.0
C727 C 0.48982 1.0058 0.9784 0.0
C728 C 0.48846 0.0177 0.08121 0.0
C729 C 0.58133 0.99912 0.07447 0.0
C730 C 0.45541 0.13445 0.04323 0.0
C731 C 0.55342 0.13405 0.04392 0.0
C732 C 0.55324 0.12062 0.94071 0.0
C733 C 0.45699 0.13966 0.94378 0.0
O734 O 0.56054 0.98437 0.97339 0.0
O735 O 0.59989 0.03078 0.99514 0.0
O736 O 0.49617 0.03693 0.97094 0.0
O737 O 0.51068 0.99537 0.99743 0.0
Co738 Co 0.06088 0.5003 0.04928 0.0
Co739 Co 0.06667 0.51114 0.11749 0.0
Co740 Co 1.02237 0.56015 0.06342 0.0
O741 O 0.06213 0.54114 0.07242 0.0
H742 H 0.08303 0.55924 0.0687 0.0
O743 O 0.98215 0.57972 0.05859 0.0
Co744 Co 0.97706 0.62086 0.08525 0.0
Co745 Co 0.98805 0.61439 0.01757 0.0
H746 H 0.961 0.56197 0.05468 0.0
O747 O 0.10694 0.50683 0.14512 0.0
O748 O 0.07503 0.47333 0.10158 0.0
O749 O 1.02471 0.49592 0.14009 0.0
O750 O 0.99952 0.53069 0.10982 0.0
O751 O 0.04777 0.59831 0.09516 0.0
O752 O 0.97308 0.65717 0.1109 0.0
O753 O 0.92982 0.61418 0.09632 0.0
O754 O 1.02347 0.6371 0.08373 0.0
O755 O 0.04802 0.58951 0.01579 0.0
O756 O 1.03184 0.63249 0.99574 0.0
O757 O 0.97234 0.64652 0.03213 0.0
O758 O 0.95177 0.61245 0.98381 0.0
C759 C 0.09221 0.48567 0.02307 0.0
C760 C 0.99381 0.49081 0.03192 0.0
C761 C 1.00072 0.50629 0.13455 0.0
C762 C 0.10049 0.47961 0.12857 0.0
C763 C 0.94139 0.64287 0.11236 0.0
C764 C 0.04879 0.62864 0.08895 0.0
C765 C 0.05231 0.618 0.99565 0.0
C766 C 0.95225 0.63769 0.00081 0.0
O767 O 0.06121 0.46736 0.02501 0.0
O768 O 0.10396 0.51485 0.03714 0.0
O769 O 0.99575 0.52162 0.02947 0.0
O770 O 1.01398 0.48086 0.05506 0.0
Co771 Co 0.57489 0.50146 0.98396 0.0
Co772 Co 0.56424 0.48508 0.05349 0.0
Co773 Co 0.54122 0.54451 0.02779 0.0
O774 O 0.5743 0.52474 0.02664 0.0
H775 H 0.59613 0.53957 0.03475 0.0
O776 O 0.50856 0.56313 0.02831 0.0
Co777 Co 0.51766 0.60418 0.04421 0.0
Co778 Co 0.49417 0.57567 0.97954 0.0
H779 H 0.48929 0.54653 0.0397 0.0
O780 O 0.59824 0.47514 0.0758 0.0
O781 O 0.56769 0.45952 0.01898 0.0
O782 O 0.52736 0.4705 0.08324 0.0
O783 O 0.52515 0.52129 0.07936 0.0
O784 O 0.57543 0.58036 0.0559 0.0
O785 O 0.52071 0.64205 0.0617 0.0
O786 O 0.47971 0.59128 0.06213 0.0
O787 O 0.56074 0.62138 0.02754 0.0
O788 O 0.55881 0.56941 0.97736 0.0
O789 O 0.51994 0.58042 0.93789 0.0
O790 O 0.50066 0.61737 0.99206 0.0
O791 O 0.45335 0.57791 0.97054 0.0
C792 C 0.60925 0.49359 0.9596 0.0
C793 C 0.50443 0.48845 0.98015 0.0
C794 C 0.5175 0.49141 0.09487 0.0
C795 C 0.58906 0.45656 0.04684 0.0
C796 C 0.49119 0.62196 0.07038 0.0
C797 C 0.58149 0.61146 0.0484 0.0
C798 C 0.54861 0.5799 0.94448 0.0
C799 C 0.46943 0.60767 0.9815 0.0
O800 O 0.57883 0.48189 0.94616 0.0
O801 O 0.61854 0.5125 0.98827 0.0
O802 O 0.5042 0.50988 0.00106 0.0
O803 O 0.53083 0.48606 0.97377 0.0
Co804 Co 0.12393 0.48871 0.58648 0.0
Co805 Co 0.11324 0.49994 0.5187 0.0
Co806 Co 0.06734 0.52412 0.55541 0.0
O807 O 0.08502 0.48896 0.55612 0.0
H808 H 0.06807 0.46703 0.55434 0.0
O809 O 0.05072 0.55888 0.55748 0.0
Co810 Co 1.01085 0.55646 0.53376 0.0
Co811 Co 0.03648 0.55988 0.60391 0.0
H812 H 0.06751 0.58054 0.55173 0.0
O813 O 0.10142 0.46891 0.48795 0.0
O814 O 0.14093 0.48079 0.53918 0.0
O815 O 0.13545 0.54411 0.49768 0.0
O816 O 0.09475 0.55801 0.512 0.0
O817 O 1.03212 0.50095 0.5152 0.0
O818 O 0.97517 0.55928 0.50904 0.0
O819 O 1.02427 0.59989 0.52373 0.0
O820 O 0.9923 0.50905 0.54045 0.0
O821 O 0.03821 0.49244 0.59695 0.0
O822 O 1.03033 0.52202 0.64029 0.0
O823 O 0.99549 0.5593 0.58471 0.0
O824 O 0.03545 0.59834 0.61854 0.0
C825 C 0.1404 0.45427 0.61822 0.0
C826 C 0.13238 0.55559 0.58843 0.0
C827 C 0.12157 0.56499 0.49515 0.0
C828 C 0.12387 0.46211 0.51132 0.0
C829 C 0.99491 0.59046 0.50668 0.0
C830 C 1.00145 0.49286 0.51911 0.0
C831 C 1.02698 0.49427 0.62886 0.0
C832 C 1.00536 0.5859 0.6036 0.0
O833 O 0.15843 0.48583 0.61497 0.0
O834 O 0.1106 0.44397 0.60117 0.0
O835 O 0.10215 0.5465 0.59474 0.0
O836 O 0.14366 0.53563 0.57673 0.0
Co837 Co 0.61913 0.98259 0.53788 0.0
Co838 Co 0.59978 0.98291 0.46729 0.0
Co839 Co 0.5541 0.02204 0.50777 0.0
O840 O 0.5747 0.98304 0.5102 0.0
H841 H 0.55756 0.9613 0.51453 0.0
O842 O 0.53612 0.06388 0.50164 0.0
Co843 Co 0.4957 0.07564 0.46723 0.0
Co844 Co 0.50663 0.05692 0.53935 0.0
H845 H 0.55458 0.08451 0.5053 0.0
O846 O 0.60086 0.94497 0.44493 0.0
O847 O 0.6404 0.9758 0.48583 0.0
O848 O 0.61014 0.02505 0.43674 0.0
O849 O 0.58312 0.05007 0.46553 0.0
O850 O 0.51653 0.99923 0.46977 0.0
O851 O 0.4581 0.08433 0.43555 0.0
O852 O 0.49769 0.12475 0.46091 0.0
O853 O 0.48295 0.02922 0.46363 0.0
O854 O 0.52328 0.99113 0.5516 0.0
O855 O 0.48928 1.0144 0.56727 0.0
O856 O 0.47283 0.06901 0.51545 0.0
O857 O 0.51007 0.09168 0.56513 0.0
C858 C 0.63951 0.94717 0.56905 0.0
C859 C 0.62259 0.05094 0.55125 0.0
C860 C 0.60274 0.05014 0.44077 0.0
C861 C 0.63084 0.95228 0.46022 0.0
C862 C 0.46925 0.11598 0.43997 0.0
C863 C 0.48806 1.00204 0.46304 0.0
C864 C 0.49854 0.98994 0.57015 0.0
C865 C 0.48296 0.0886 0.54387 0.0
O866 O 0.65558 0.9793 0.56593 0.0
O867 O 0.60967 0.93626 0.55171 0.0
O868 O 0.59127 0.04531 0.54718 0.0
O869 O 0.63538 0.03331 0.53523 0.0
H870 H 0.17293 0.22638 0.28767 0.0
H871 H 0.11727 0.13312 0.49214 0.0
H872 H 0.2164 0.26849 0.39569 0.0
H873 H 0.054 0.10946 0.38705 0.0
H874 H 0.15536 0.18145 0.45621 0.0
H875 H 0.12898 0.18332 0.32242 0.0
C876 C 0.17322 0.22658 0.31871 0.0
C877 C 0.19931 0.24986 0.33915 0.0
C878 C 0.13306 0.16578 0.44106 0.0
C879 C 0.1489 0.20117 0.37896 0.0
C880 C 0.1115 0.13796 0.4614 0.0
C881 C 0.08246 0.11732 0.44244 0.0
C882 C 0.12573 0.17272 0.40143 0.0
C883 C 0.07611 0.12488 0.40269 0.0
C884 C 0.14796 0.20216 0.33848 0.0
C885 C 0.19742 0.25024 0.37899 0.0
N886 N 0.09774 0.152 0.38335 0.0
N887 N 0.17297 0.22566 0.39786 0.0
H888 H 0.81687 0.14791 0.43028 0.0
H889 H 0.99592 0.1654 0.49325 0.0
H890 H 0.90385 0.22004 0.37966 0.0
H891 H 0.90663 0.07825 0.50361 0.0
H892 H 0.96298 0.20087 0.48438 0.0
H893 H 0.85029 0.14217 0.48972 0.0
C894 C 0.84288 0.16323 0.43234 0.0
C895 C 0.85816 0.18335 0.40015 0.0
C896 C 0.95082 0.17408 0.49023 0.0
C897 C 0.89623 0.17618 0.46653 0.0
C898 C 0.96943 0.15393 0.49472 0.0
C899 C 0.95338 0.11918 0.49706 0.0
C900 C 0.91634 0.15893 0.48853 0.0
C901 C 0.91944 0.10509 0.49989 0.0
C902 C 0.86184 0.16031 0.46621 0.0
C903 C 0.8916 0.2035 0.40393 0.0
N904 N 0.90188 0.12511 0.49501 0.0
N905 N 0.90995 0.19858 0.43631 0.0
H906 H 0.87083 0.90249 0.30814 0.0
H907 H 0.99835 0.91652 0.49317 0.0
H908 H 0.88193 0.81719 0.37798 0.0
H909 H 0.98215 1.00151 0.4286 0.0
H910 H 0.95863 0.88008 0.44822 0.0
H911 H 0.91543 0.93935 0.34773 0.0
C912 C 0.88304 0.8914 0.3312 0.0
C913 C 0.87261 0.85659 0.33951 0.0
C914 C 0.96376 0.90669 0.44381 0.0
C915 C 0.92324 0.89885 0.38588 0.0
C916 C 0.98638 0.92752 0.46952 0.0
C917 C 0.99343 0.96207 0.46466 0.0
C918 C 0.94813 0.92049 0.41291 0.0
C919 C 0.97723 0.97496 0.43352 0.0
C920 C 0.90834 0.91257 0.35417 0.0
C921 C 0.88904 0.84385 0.37055 0.0
N922 N 0.9553 0.95412 0.40874 0.0
N923 N 0.91342 0.86501 0.39276 0.0
H924 H 0.17585 0.84723 0.44376 0.0
H925 H 0.09639 0.95247 0.4143 0.0
H926 H 0.19865 0.90654 0.3335 0.0
H927 H 0.17917 1.00259 0.49222 0.0
H928 H 0.13027 0.92823 0.38734 0.0
H929 H 0.17578 0.89663 0.47059 0.0
C930 C 0.18225 0.87077 0.4258 0.0
C931 C 0.18661 0.87253 0.38626 0.0
C932 C 0.14111 0.94516 0.40982 0.0
C933 C 0.18845 0.92876 0.41739 0.0
C934 C 0.12191 0.95874 0.42519 0.0
C935 C 0.13504 0.97841 0.45613 0.0
C936 C 0.17298 0.95061 0.4265 0.0
C937 C 0.16828 0.98652 0.46904 0.0
C938 C 0.18325 0.89907 0.44149 0.0
C939 C 0.19523 0.90383 0.36424 0.0
N940 N 0.18614 0.97132 0.45514 0.0
N941 N 0.19497 0.9306 0.3799 0.0
H942 H 0.19012 0.84774 0.63003 0.0
H943 H 0.18655 0.99509 0.5767 0.0
H944 H 0.26756 0.91255 0.55774 0.0
H945 H 0.09363 0.91742 0.5469 0.0
H946 H 0.21504 0.96053 0.56088 0.0
H947 H 0.15025 0.85836 0.5836 0.0
C948 C 0.19924 0.86321 0.60379 0.0
C949 C 0.23296 0.88266 0.60018 0.0
C950 C 0.18841 0.95139 0.55667 0.0
C951 C 0.18671 0.8956 0.54802 0.0
C952 C 0.17222 0.97073 0.5668 0.0
C953 C 0.13791 0.95871 0.56371 0.0
C954 C 0.1701 0.91939 0.54474 0.0
C955 C 0.12031 0.92727 0.54998 0.0
C956 C 0.17588 0.86909 0.57677 0.0
C957 C 0.24193 0.90009 0.56386 0.0
N958 N 0.13664 0.90815 0.54183 0.0
N959 N 0.2189 0.90779 0.53969 0.0
H960 H 0.25242 0.18275 0.72203 0.0
H961 H 0.07757 0.15113 0.61209 0.0
H962 H 0.18185 0.2173 0.76038 0.0
H963 H 0.12818 0.08305 0.61082 0.0
H964 H 0.11845 0.17962 0.66259 0.0
H965 H 0.20902 0.14781 0.67822 0.0
C966 C 0.22747 0.18194 0.72221 0.0
C967 C 0.22027 0.20192 0.74565 0.0
C968 C 0.12049 0.1584 0.65121 0.0
C969 C 0.17128 0.16375 0.69467 0.0
C970 C 0.09749 0.14247 0.62215 0.0
C971 C 0.09967 0.11485 0.60738 0.0
C972 C 0.14603 0.1469 0.66487 0.0
C973 C 0.12567 0.10428 0.62161 0.0
C974 C 0.20287 0.16234 0.69709 0.0
C975 C 0.18797 0.20114 0.74403 0.0
N976 N 0.14801 0.12046 0.64948 0.0
N977 N 0.16467 0.1827 0.71848 0.0
H978 H 0.93692 0.13513 0.80422 0.0
H979 H 0.92672 0.11701 0.57814 0.0
H980 H 0.91573 0.20225 0.71179 0.0
H981 H 0.98532 0.07899 0.66445 0.0
H982 H 0.90233 0.13117 0.63024 0.0
H983 H 0.937 0.09897 0.75521 0.0
C984 C 0.93232 0.14209 0.77374 0.0
C985 C 0.9266 0.17149 0.76182 0.0
C986 C 0.91986 0.11886 0.63768 0.0
C987 C 0.92539 0.13046 0.70663 0.0
C988 C 0.93356 0.11084 0.60812 0.0
C989 C 0.95783 0.09729 0.61778 0.0
C990 C 0.93119 0.11346 0.67643 0.0
C991 C 0.96657 0.08971 0.65658 0.0
C992 C 0.93177 0.12139 0.74604 0.0
C993 C 0.9201 0.17953 0.72211 0.0
N994 N 0.95354 0.09843 0.68482 0.0
N995 N 0.91974 0.15908 0.69585 0.0
H996 H 0.90718 0.83171 0.74918 0.0
H997 H 0.97263 0.99251 0.60592 0.0
H998 H 0.86215 0.90579 0.7357 0.0
H999 H 0.03885 0.94819 0.66865 0.0
H1000 H 0.92981 0.95862 0.6494 0.0
H1001 H 0.95444 0.87186 0.716 0.0
C1002 C 0.90746 0.85657 0.73951 0.0
C1003 C 0.8809 0.86562 0.74489 0.0
C1004 C 0.95384 0.95663 0.65382 0.0
C1005 C 0.93428 0.91113 0.70685 0.0
C1006 C 0.97811 0.97565 0.62889 0.0
C1007 C 1.00906 0.97273 0.63361 0.0
C1008 C 0.9605 0.93415 0.683 0.0
C1009 C 1.01519 0.95099 0.6641 0.0
C1010 C 0.93441 0.87943 0.72085 0.0
C1011 C 0.88234 0.89806 0.73213 0.0
N1012 N 0.99086 0.93205 0.68742 0.0
N1013 N 0.90849 0.91964 0.71304 0.0
H1014 H 0.29212 0.19408 0.03452 0.0
H1015 H 0.45997 0.17351 0.10004 0.0
H1016 H 0.32826 0.19292 0.15503 0.0
H1017 H 0.39327 0.1155 0.01191 0.0
H1018 H 0.41604 0.19075 0.11566 0.0
H1019 H 0.33398 0.17321 0.01981 0.0
C1020 C 0.30879 0.18929 0.05756 0.0
C1021 C 0.30763 0.19598 0.09536 0.0
C1022 C 0.41121 0.17398 0.09321 0.0
C1023 C 0.35473 0.17301 0.07954 0.0
C1024 C 0.43601 0.16433 0.08435 0.0
C1025 C 0.42968 0.14309 0.05508 0.0
C1026 C 0.38067 0.1626 0.07193 0.0
C1027 C 0.39862 0.13163 0.03513 0.0
C1028 C 0.33244 0.17759 0.0494 0.0
C1029 C 0.32927 0.18919 0.12506 0.0
N1030 N 0.37505 0.14185 0.04376 0.0
N1031 N 0.35245 0.17845 0.11637 0.0
H1032 H 0.81282 0.34879 0.16647 0.0
H1033 H 0.95935 0.52518 0.17125 0.0
H1034 H 0.83223 0.40527 0.26576 0.0
H1035 H 0.97155 0.43949 0.13429 0.0
H1036 H 0.90492 0.48834 0.19352 0.0
H1037 H 0.86332 0.39027 0.13922 0.0
C1038 C 0.82747 0.37027 0.18202 0.0
C1039 C 0.81938 0.37346 0.21867 0.0
C1040 C 0.9197 0.47782 0.18054 0.0
C1041 C 0.87559 0.42092 0.18762 0.0
C1042 C 0.95062 0.49862 0.16822 0.0
C1043 C 0.96996 0.48502 0.15191 0.0
C1044 C 0.90781 0.44373 0.17477 0.0
C1045 C 0.95754 0.45065 0.14766 0.0
C1046 C 0.85606 0.39376 0.16663 0.0
C1047 C 0.83837 0.40191 0.23765 0.0
N1048 N 0.92699 0.43118 0.1586 0.0
N1049 N 0.86588 0.4246 0.222 0.0
H1050 H 0.73539 0.92906 0.14528 0.0
H1051 H 0.57377 0.94549 0.03621 0.0
H1052 H 0.69004 0.88251 0.04023 0.0
H1053 H 0.63108 1.00422 0.12928 0.0
H1054 H 0.61094 0.91532 0.04282 0.0
H1055 H 0.69174 0.95033 0.14507 0.0
C1056 C 0.71676 0.92467 0.12121 0.0
C1057 C 0.71646 0.90534 0.09176 0.0
C1058 C 0.61506 0.93457 0.06198 0.0
C1059 C 0.66682 0.92914 0.09139 0.0
C1060 C 0.59404 0.95185 0.05824 0.0
C1061 C 0.60027 0.97798 0.08155 0.0
C1062 C 0.64181 0.94339 0.08957 0.0
C1063 C 0.62604 0.9847 0.11023 0.0
C1064 C 0.69168 0.93624 0.12143 0.0
C1065 C 0.69127 0.89844 0.06239 0.0
N1066 N 0.6462 0.96756 0.11324 0.0
N1067 N 0.66721 0.91069 0.06269 0.0
H1068 H 0.1935 0.72796 0.23496 0.0
H1069 H 0.10911 0.63124 0.07294 0.0
H1070 H 0.24836 0.77067 0.13324 0.0
H1071 H 0.05993 0.68774 0.11695 0.0
H1072 H 0.16244 0.67372 0.09243 0.0
H1073 H 0.14439 0.70154 0.1932 0.0
C1074 C 0.19515 0.73124 0.20375 0.0
C1075 C 0.22464 0.75081 0.18709 0.0
C1076 C 0.13981 0.67709 0.09648 0.0
C1077 C 0.16927 0.72113 0.13986 0.0
C1078 C 0.10964 0.65278 0.08615 0.0
C1079 C 0.08045 0.65566 0.09471 0.0
C1080 C 0.14019 0.70349 0.11609 0.0
C1081 C 0.08202 0.68437 0.11063 0.0
C1082 C 0.16726 0.71669 0.18013 0.0
C1083 C 0.22578 0.75524 0.14662 0.0
N1084 N 0.11158 0.70681 0.12199 0.0
N1085 N 0.19824 0.73984 0.1239 0.0
H1086 H 0.35025 0.81808 0.90675 0.0
H1087 H 0.44553 1.01487 0.92005 0.0
H1088 H 0.3452 0.89499 0.81706 0.0
H1089 H 0.46549 0.93931 0.00074 0.0
H1090 H 0.40073 0.97059 0.88824 0.0
H1091 H 0.387 0.86198 0.947 0.0
C1092 C 0.3569 0.84408 0.89561 0.0
C1093 C 0.34461 0.85295 0.85877 0.0
C1094 C 0.41484 0.96379 0.9131 0.0
C1095 C 0.38582 0.90287 0.90427 0.0
C1096 C 0.44022 0.98906 0.93131 0.0
C1097 C 0.45965 0.98066 0.96237 0.0
C1098 C 0.40904 0.93012 0.9262 0.0
C1099 C 0.45155 0.94683 0.97621 0.0
C1100 C 0.37759 0.86906 0.91854 0.0
C1101 C 0.35381 0.88697 0.84553 0.0
N1102 N 0.42709 0.92273 0.95773 0.0
N1103 N 0.3738 0.91064 0.86827 0.0
H1104 H 0.18475 0.39867 0.88174 0.0
H1105 H 0.08946 0.42337 0.04376 0.0
H1106 H 0.18593 0.35172 0.9987 0.0
H1107 H 0.14172 0.51186 0.97108 0.0
H1108 H 0.11923 0.39371 0.01908 0.0
H1109 H 0.16609 0.43944 0.90595 0.0
C1110 C 0.18167 0.39727 0.91247 0.0
C1111 C 0.18597 0.37114 0.93809 0.0
C1112 C 0.12458 0.41973 0.00874 0.0
C1113 C 0.16449 0.417 0.96547 0.0
C1114 C 0.10761 0.43669 0.02284 0.0
C1115 C 0.11348 0.47019 0.00982 0.0
C1116 C 0.14733 0.43603 0.98065 0.0
C1117 C 0.13695 0.48613 0.98223 0.0
C1118 C 0.17103 0.42045 0.92616 0.0
C1119 C 0.18186 0.37066 0.97763 0.0
N1120 N 0.1529 0.46871 0.96803 0.0
N1121 N 0.17078 0.39271 0.98987 0.0
H1122 H 0.75311 0.24592 0.9129 0.0
H1123 H 0.58296 0.09369 0.89688 0.0
H1124 H 0.71925 0.20318 0.80337 0.0
H1125 H 0.59535 0.18338 0.94836 0.0
H1126 H 0.63878 0.1214 0.87312 0.0
H1127 H 0.70119 0.20825 0.93962 0.0
C1128 C 0.73512 0.22789 0.89494 0.0
C1129 C 0.74031 0.22742 0.85611 0.0
C1130 C 0.62908 0.13479 0.88965 0.0
C1131 C 0.6814 0.18494 0.88605 0.0
C1132 C 0.59751 0.1192 0.90294 0.0
C1133 C 0.585 0.1367 0.92403 0.0
C1134 C 0.64813 0.16734 0.89903 0.0
C1135 C 0.60437 0.16945 0.93175 0.0
C1136 C 0.70563 0.20668 0.91003 0.0
C1137 C 0.71624 0.20394 0.83365 0.0
N1138 N 0.63525 0.18371 0.91952 0.0
N1139 N 0.68752 0.18361 0.84892 0.0
H1140 H 0.88101 0.78641 0.85721 0.0
H1141 H 0.89375 0.61437 0.95766 0.0
H1142 H 0.79793 0.69397 0.87207 0.0
H1143 H 0.96433 0.70688 0.99587 0.0
H1144 H 0.86221 0.64511 0.91999 0.0
H1145 H 0.91504 0.76111 0.90245 0.0
C1146 C 0.86962 0.76119 0.87049 0.0
C1147 C 0.83594 0.74277 0.86119 0.0
C1148 C 0.88444 0.65891 0.93674 0.0
C1149 C 0.87557 0.71279 0.91151 0.0
C1150 C 0.90261 0.64122 0.95852 0.0
C1151 C 0.93182 0.65762 0.98085 0.0
C1152 C 0.8954 0.69396 0.93586 0.0
C1153 C 0.94179 0.6928 0.97986 0.0
C1154 C 0.88924 0.74657 0.89613 0.0
C1155 C 0.8234 0.7096 0.87849 0.0
N1156 N 0.92392 0.70972 0.95758 0.0
N1157 N 0.84298 0.69588 0.902 0.0
H1158 H 0.261 0.41089 0.25377 0.0
H1159 H 0.09383 0.41084 0.11656 0.0
H1160 H 0.18865 0.31773 0.22153 0.0
H1161 H 0.15741 0.4926 0.1803 0.0
H1162 H 0.12781 0.37766 0.14571 0.0
H1163 H 0.22543 0.43999 0.22158 0.0
C1164 C 0.23813 0.39601 0.23895 0.0
C1165 C 0.23036 0.36077 0.2398 0.0
C1166 C 0.13457 0.40287 0.15355 0.0
C1167 C 0.18632 0.39639 0.20053 0.0
C1168 C 0.11477 0.42244 0.13633 0.0
C1169 C 0.12144 0.45604 0.14476 0.0
C1170 C 0.16268 0.41598 0.18016 0.0
C1171 C 0.14987 0.46756 0.17162 0.0
C1172 C 0.2172 0.41325 0.22024 0.0
C1173 C 0.19843 0.34464 0.2205 0.0
N1174 N 0.16854 0.44839 0.18736 0.0
N1175 N 0.1786 0.36211 0.20192 0.0
H1176 H 0.19663 0.70166 0.81264 0.0
H1177 H 0.09144 0.68464 0.99195 0.0
H1178 H 0.24127 0.75616 0.91222 0.0
H1179 H 0.08332 0.5942 0.94558 0.0
H1180 H 0.13951 0.71576 0.95392 0.0
H1181 H 0.14918 0.66645 0.85096 0.0
C1182 C 0.19645 0.7065 0.84239 0.0
C1183 C 0.22302 0.73283 0.85864 0.0
C1184 C 0.12731 0.68911 0.95198 0.0
C1185 C 0.16805 0.69227 0.90305 0.0
C1186 C 0.09963 0.67116 0.97375 0.0
C1187 C 0.08287 0.63635 0.97261 0.0
C1188 C 0.1384 0.67281 0.92723 0.0
C1189 C 0.09525 0.62078 0.94804 0.0
C1190 C 0.16934 0.68613 0.86443 0.0
C1191 C 0.22136 0.73682 0.89794 0.0
N1192 N 0.12171 0.63904 0.92613 0.0
N1193 N 0.19439 0.71754 0.91821 0.0
H1194 H 0.38747 0.29824 0.86727 0.0
H1195 H 0.39887 0.11975 0.89971 0.0
H1196 H 0.30661 0.20966 0.83505 0.0
H1197 H 0.46407 0.20187 0.96306 0.0
H1198 H 0.36422 0.15186 0.87717 0.0
H1199 H 0.41469 0.2633 0.9051 0.0
C1200 C 0.3751 0.2713 0.86917 0.0
C1201 C 0.34464 0.25669 0.84868 0.0
C1202 C 0.38584 0.16273 0.89641 0.0
C1203 C 0.37619 0.21655 0.89038 0.0
C1204 C 0.40583 0.1445 0.90915 0.0
C1205 C 0.4347 0.1583 0.933 0.0
C1206 C 0.39483 0.1952 0.90725 0.0
C1207 C 0.44218 0.19034 0.94453 0.0
C1208 C 0.39067 0.25139 0.89057 0.0
C1209 C 0.32979 0.22178 0.85119 0.0
N1210 N 0.42257 0.2079 0.93112 0.0
N1211 N 0.34603 0.20281 0.87117 0.0
H1212 H 0.90062 0.33088 0.87708 0.0
H1213 H 0.94066 0.49721 0.98402 0.0
H1214 H 0.82996 0.37852 0.87237 0.0
H1215 H 0.99016 0.42792 0.01757 0.0
H1216 H 0.90267 0.45774 0.93928 0.0
H1217 H 0.93559 0.36871 0.92405 0.0
C1218 C 0.89187 0.34871 0.88623 0.0
C1219 C 0.86121 0.35012 0.87096 0.0
C1220 C 0.92175 0.45109 0.95655 0.0
C1221 C 0.90312 0.39596 0.92445 0.0
C1222 C 0.94361 0.47375 0.98227 0.0
C1223 C 0.969 0.46628 0.00526 0.0
C1224 C 0.92529 0.42061 0.95279 0.0
C1225 C 0.97117 0.43517 0.00098 0.0
C1226 C 0.91235 0.37087 0.91303 0.0
C1227 C 0.85294 0.37573 0.88323 0.0
N1228 N 0.95004 0.41393 0.97538 0.0
N1229 N 0.87364 0.39749 0.90881 0.0
H1230 H 0.73964 0.92204 0.99369 0.0
H1231 H 0.58557 0.96738 0.91627 0.0
H1232 H 0.70864 0.91993 0.87128 0.0
H1233 H 0.65377 1.01558 0.0091 0.0
H1234 H 0.62541 0.94428 0.90029 0.0
H1235 H 0.70329 0.95072 0.00143 0.0
C1236 C 0.72546 0.92764 0.96828 0.0
C1237 C 0.72827 0.91913 0.93155 0.0
C1238 C 0.6317 0.96027 0.92377 0.0
C1239 C 0.68433 0.95004 0.94123 0.0
C1240 C 0.60908 0.97336 0.93298 0.0
C1241 C 0.6165 0.99333 0.96409 0.0
C1242 C 0.66142 0.96655 0.9466 0.0
C1243 C 0.64723 1.00051 0.98473 0.0
C1244 C 0.70427 0.94367 0.97297 0.0
C1245 C 0.70749 0.92572 0.9003 0.0
N1246 N 0.66836 0.98666 0.97602 0.0
N1247 N 0.68618 0.94061 0.90592 0.0
H1248 H 0.79289 0.69276 0.23615 0.0
H1249 H 0.96119 0.70784 0.13715 0.0
H1250 H 0.87738 0.78412 0.23039 0.0
H1251 H 0.87347 0.61939 0.13533 0.0
H1252 H 0.93205 0.73536 0.16915 0.0
H1253 H 0.82086 0.66707 0.19969 0.0
C1254 C 0.81707 0.70818 0.22662 0.0
C1255 C 0.83114 0.74202 0.23639 0.0
C1256 C 0.91878 0.70994 0.16196 0.0
C1257 C 0.86592 0.71044 0.1935 0.0
C1258 C 0.93575 0.69367 0.14317 0.0
C1259 C 0.9209 0.66016 0.1322 0.0
C1260 C 0.88547 0.69346 0.17155 0.0
C1261 C 0.88722 0.64483 0.14209 0.0
C1262 C 0.83349 0.69292 0.20556 0.0
C1263 C 0.86379 0.75871 0.22339 0.0
N1264 N 0.87144 0.6611 0.16069 0.0
N1265 N 0.87936 0.74318 0.20329 0.0
H1266 H 0.31821 0.84772 0.15867 0.0
H1267 H 0.48499 1.00943 0.15921 0.0
H1268 H 0.37465 0.88757 0.26234 0.0
H1269 H 0.42532 0.97907 0.05377 0.0
H1270 H 0.44198 0.96759 0.19691 0.0
H1271 H 0.35367 0.89707 0.11962 0.0
C1272 C 0.3375 0.86739 0.1733 0.0
C1273 C 0.3425 0.86427 0.21405 0.0
C1274 C 0.43775 0.97034 0.16561 0.0
C1275 C 0.38444 0.92017 0.16932 0.0
C1276 C 0.46229 0.99457 0.144 0.0
C1277 C 0.45861 0.99844 0.1032 0.0
C1278 C 0.40912 0.9489 0.14658 0.0
C1279 C 0.42893 0.97767 0.08516 0.0
C1280 C 0.35793 0.89544 0.15095 0.0
C1281 C 0.36895 0.88963 0.23124 0.0
N1282 N 0.40553 0.95357 0.10689 0.0
N1283 N 0.38883 0.91629 0.20892 0.0
H1284 H 0.71884 0.21203 0.21409 0.0
H1285 H 0.57294 0.2023 0.04802 0.0
H1286 H 0.6896 0.29588 0.17533 0.0
H1287 H 0.59882 0.1179 0.09553 0.0
H1288 H 0.61726 0.23792 0.09056 0.0
H1289 H 0.67747 0.17882 0.16762 0.0
C1290 C 0.70415 0.22378 0.19532 0.0
C1291 C 0.70845 0.25726 0.19837 0.0
C1292 C 0.61332 0.21163 0.09162 0.0
C1293 C 0.65965 0.21847 0.14506 0.0
C1294 C 0.58798 0.19118 0.06717 0.0
C1295 C 0.58172 0.15673 0.06807 0.0
C1296 C 0.63294 0.19781 0.11732 0.0
C1297 C 0.60233 0.14411 0.09373 0.0
C1298 C 0.68012 0.20453 0.16892 0.0
C1299 C 0.68744 0.27032 0.17405 0.0
N1300 N 0.62676 0.16449 0.11715 0.0
N1301 N 0.66412 0.25101 0.1485 0.0
H1302 H 0.69387 0.75843 0.85134 0.0
H1303 H 0.59081 0.56471 0.90453 0.0
H1304 H 0.71421 0.68013 0.80699 0.0
H1305 H 0.56413 0.64548 0.9306 0.0
H1306 H 0.6368 0.60568 0.86875 0.0
H1307 H 0.64689 0.71632 0.88232 0.0
C1308 C 0.68811 0.73233 0.84772 0.0
C1309 C 0.70735 0.72268 0.82589 0.0
C1310 C 0.62062 0.61429 0.88199 0.0
C1311 C 0.65394 0.67433 0.86139 0.0
C1312 C 0.59447 0.59102 0.90204 0.0
C1313 C 0.57354 0.60205 0.91917 0.0
C1314 C 0.62594 0.64851 0.88042 0.0
C1315 C 0.57934 0.63619 0.91647 0.0
C1316 C 0.66133 0.70828 0.86537 0.0
C1317 C 0.69924 0.68858 0.82245 0.0
N1318 N 0.60517 0.65828 0.89764 0.0
N1319 N 0.67308 0.66547 0.84019 0.0
H1320 H 0.37697 0.72929 0.92079 0.0
H1321 H 0.49357 0.67516 0.98497 0.0
H1322 H 0.3123 0.65541 0.00088 0.0
H1323 H 0.40526 0.58678 0.99567 0.0
H1324 H 0.46245 0.70893 0.99781 0.0
H1325 H 0.42325 0.72535 0.96004 0.0
C1326 C 0.37191 0.71303 0.94742 0.0
C1327 C 0.34001 0.69012 0.95533 0.0
C1328 C 0.45007 0.68214 0.9975 0.0
C1329 C 0.39423 0.68486 0.99991 0.0
C1330 C 0.4676 0.66301 0.98976 0.0
C1331 C 0.45143 0.62849 0.98785 0.0
C1332 C 0.41634 0.66636 0.00328 0.0
C1333 C 0.41822 0.61354 0.99545 0.0
C1334 C 0.39909 0.71095 0.97033 0.0
C1335 C 0.33639 0.67122 0.99153 0.0
N1336 N 0.40171 0.63266 0.0026 0.0
N1337 N 0.36331 0.6677 0.01172 0.0
H1338 H 0.32202 0.39657 0.84107 0.0
H1339 H 0.49159 0.4266 0.96 0.0
H1340 H 0.39748 0.36603 0.80838 0.0
H1341 H 0.44963 0.50281 0.95258 0.0
H1342 H 0.44869 0.39701 0.91283 0.0
H1343 H 0.36262 0.43241 0.88705 0.0
C1344 C 0.34747 0.39861 0.8424 0.0
C1345 C 0.35687 0.37926 0.82019 0.0
C1346 C 0.44878 0.42015 0.92161 0.0
C1347 C 0.40227 0.41814 0.87353 0.0
C1348 C 0.47297 0.43682 0.94877 0.0
C1349 C 0.4743 0.46737 0.95955 0.0
C1350 C 0.42571 0.43406 0.90517 0.0
C1351 C 0.44932 0.47929 0.94477 0.0
C1352 C 0.37037 0.41865 0.86877 0.0
C1353 C 0.38964 0.38159 0.82368 0.0
N1354 N 0.42598 0.46267 0.91779 0.0
N1355 N 0.4111 0.40027 0.85041 0.0
H1356 H 0.66295 0.35217 0.87311 0.0
H1357 H 0.67224 0.52481 0.93678 0.0
H1358 H 0.70505 0.44591 0.80358 0.0
H1359 H 0.59382 0.42888 0.95597 0.0
H1360 H 0.70303 0.49698 0.908 0.0
H1361 H 0.65756 0.38238 0.92485 0.0
C1362 C 0.67113 0.3792 0.86895 0.0
C1363 C 0.68331 0.39682 0.83386 0.0
C1364 C 0.67947 0.48223 0.91963 0.0
C1365 C 0.67767 0.43108 0.89249 0.0
C1366 C 0.66207 0.49796 0.93563 0.0
C1367 C 0.63058 0.47892 0.94742 0.0
C1368 C 0.66515 0.4476 0.91697 0.0
C1369 C 0.6179 0.44429 0.94602 0.0
C1370 C 0.66849 0.39632 0.8985 0.0
C1371 C 0.69431 0.43169 0.82985 0.0
N1372 N 0.63527 0.42967 0.93083 0.0
N1373 N 0.69071 0.44788 0.85882 0.0
H1374 H 0.74822 0.42993 0.12255 0.0
H1375 H 0.56553 0.39012 0.06723 0.0
H1376 H 0.66584 0.36938 0.19 0.0
H1377 H 0.64974 0.47243 0.02487 0.0
H1378 H 0.60072 0.35744 0.08604 0.0
H1379 H 0.71179 0.41781 0.06346 0.0
C1380 C 0.72268 0.41364 0.12483 0.0
C1381 C 0.70962 0.40202 0.16107 0.0
C1382 C 0.61095 0.3818 0.07013 0.0
C1383 C 0.66813 0.38833 0.09429 0.0
C1384 C 0.59098 0.40039 0.05973 0.0
C1385 C 0.6052 0.4336 0.04459 0.0
C1386 C 0.64502 0.39725 0.06571 0.0
C1387 C 0.63808 0.44659 0.03597 0.0
C1388 C 0.70208 0.40614 0.0912 0.0
C1389 C 0.67677 0.37971 0.16259 0.0
N1390 N 0.65704 0.42835 0.04681 0.0
N1391 N 0.65687 0.3743 0.12963 0.0
H1392 H 0.72528 0.68772 0.23557 0.0
H1393 H 0.59234 0.67715 0.05592 0.0
H1394 H 0.6873 0.76589 0.19733 0.0
H1395 H 0.6294 0.59874 0.09701 0.0
H1396 H 0.62956 0.71176 0.10459 0.0
H1397 H 0.69135 0.65558 0.18343 0.0
C1398 C 0.70949 0.69797 0.21648 0.0
C1399 C 0.709 0.72947 0.22087 0.0
C1400 C 0.62971 0.68708 0.10269 0.0
C1401 C 0.67048 0.69303 0.16067 0.0
C1402 C 0.60865 0.6674 0.07472 0.0
C1403 C 0.60756 0.63487 0.07259 0.0
C1404 C 0.64978 0.67413 0.12862 0.0
C1405 C 0.62923 0.62356 0.09776 0.0
C1406 C 0.69032 0.67972 0.18648 0.0
C1407 C 0.68843 0.74169 0.19494 0.0
N1408 N 0.64924 0.64306 0.12491 0.0
N1409 N 0.66998 0.72344 0.16587 0.0
H1410 H 0.35004 0.62692 0.19844 0.0
H1411 H 0.50096 0.68605 0.08247 0.0
H1412 H 0.40227 0.73117 0.16366 0.0
H1413 H 0.42853 0.58519 0.08662 0.0
H1414 H 0.45932 0.70516 0.10044 0.0
H1415 H 0.36883 0.6122 0.14268 0.0
C1416 C 0.36534 0.64652 0.1786 0.0
C1417 C 0.37649 0.67983 0.18599 0.0
C1418 C 0.4525 0.67895 0.09665 0.0
C1419 C 0.39842 0.66393 0.12361 0.0
C1420 C 0.47644 0.66804 0.08741 0.0
C1421 C 0.46829 0.63409 0.08411 0.0
C1422 C 0.42072 0.65545 0.10308 0.0
C1423 C 0.43607 0.61163 0.08964 0.0
C1424 C 0.37569 0.63841 0.14657 0.0
C1425 C 0.39471 0.70499 0.15914 0.0
N1426 N 0.41345 0.62277 0.099 0.0
N1427 N 0.4061 0.69646 0.12933 0.0
H1428 H 0.33804 0.41207 0.21235 0.0
H1429 H 0.52018 0.44942 0.1583 0.0
H1430 H 0.38312 0.33886 0.21468 0.0
H1431 H 0.46435 0.50775 0.10159 0.0
H1432 H 0.47495 0.41894 0.19982 0.0
H1433 H 0.38802 0.45523 0.18642 0.0
C1434 C 0.35829 0.40514 0.20671 0.0
C1435 C 0.35665 0.37209 0.21488 0.0
C1436 C 0.47286 0.43878 0.17866 0.0
C1437 C 0.41351 0.42081 0.18775 0.0
C1438 C 0.49856 0.45613 0.15521 0.0
C1439 C 0.49516 0.48008 0.12597 0.0
C1440 C 0.44362 0.44514 0.17201 0.0
C1441 C 0.46734 0.48884 0.12355 0.0
C1442 C 0.38671 0.42966 0.19258 0.0
C1443 C 0.38333 0.36401 0.20785 0.0
N1444 N 0.44195 0.47063 0.14576 0.0
N1445 N 0.41093 0.38839 0.195 0.0
H1446 H 0.91131 0.7151 0.6598 0.0
H1447 H 0.93834 0.55826 0.59439 0.0
H1448 H 0.83372 0.61865 0.64886 0.0
H1449 H 1.01859 0.64679 0.62915 0.0
H1450 H 0.89938 0.58163 0.61069 0.0
H1451 H 0.95135 0.69145 0.64721 0.0
C1452 C 0.90282 0.68884 0.65524 0.0
C1453 C 0.86923 0.66878 0.65484 0.0
C1454 C 0.92552 0.59593 0.61476 0.0
C1455 C 0.91451 0.64187 0.63995 0.0
C1456 C 0.94774 0.58272 0.6052 0.0
C1457 C 0.98166 0.6006 0.61066 0.0
C1458 C 0.93739 0.62732 0.62947 0.0
C1459 C 0.99257 0.63211 0.62484 0.0
C1460 C 0.92559 0.67544 0.64785 0.0
C1461 C 0.85937 0.63503 0.64857 0.0
N1462 N 0.97043 0.64454 0.63377 0.0
N1463 N 0.88193 0.62265 0.64109 0.0
H1464 H 0.31943 0.82739 0.6469 0.0
H1465 H 0.49366 0.9838 0.64903 0.0
H1466 H 0.36761 0.87253 0.75141 0.0
H1467 H 0.45189 0.92958 0.54871 0.0
H1468 H 0.44942 0.94295 0.6871 0.0
H1469 H 0.36735 0.86395 0.61109 0.0
C1470 C 0.34016 0.84489 0.66249 0.0
C1471 C 0.3394 0.84591 0.70275 0.0
C1472 C 0.45019 0.93935 0.65703 0.0
C1473 C 0.39507 0.88924 0.66105 0.0
C1474 C 0.47596 0.96254 0.63526 0.0
C1475 C 0.47792 0.95968 0.59566 0.0
C1476 C 0.42492 0.91304 0.63926 0.0
C1477 C 0.45268 0.93233 0.57935 0.0
C1478 C 0.36771 0.86589 0.64188 0.0
C1479 C 0.36706 0.86995 0.72077 0.0
N1480 N 0.42746 0.9105 0.60091 0.0
N1481 N 0.39344 0.89039 0.7 0.0
H1482 H 0.19264 0.2832 0.70279 0.0
H1483 H 0.19941 0.47035 0.66026 0.0
H1484 H 0.27739 0.36891 0.73407 0.0
H1485 H 0.11772 0.38543 0.61989 0.0
H1486 H 0.22859 0.43367 0.68607 0.0
H1487 H 0.16644 0.32035 0.66827 0.0
C1488 C 0.20606 0.30998 0.7013 0.0
C1489 C 0.23723 0.32315 0.72077 0.0
C1490 C 0.20429 0.42297 0.67163 0.0
C1491 C 0.20697 0.36581 0.68288 0.0
C1492 C 0.18739 0.44386 0.65706 0.0
C1493 C 0.15589 0.43094 0.63789 0.0
C1494 C 0.1897 0.38872 0.66716 0.0
C1495 C 0.14176 0.39643 0.63474 0.0
C1496 C 0.191 0.33116 0.682 0.0
C1497 C 0.25353 0.35789 0.71877 0.0
N1498 N 0.15882 0.37649 0.64919 0.0
N1499 N 0.23796 0.37812 0.70057 0.0
H1500 H 0.78341 0.20123 0.68352 0.0
H1501 H 0.60268 0.08889 0.59411 0.0
H1502 H 0.69398 0.20924 0.71242 0.0
H1503 H 0.69172 0.07829 0.56793 0.0
H1504 H 0.6354 0.13303 0.63565 0.0
H1505 H 0.75085 0.15803 0.64046 0.0
C1506 C 0.7569 0.19417 0.68086 0.0
C1507 C 0.74191 0.20966 0.70219 0.0
C1508 C 0.64798 0.12127 0.62083 0.0
C1509 C 0.70359 0.15879 0.65178 0.0
C1510 C 0.62917 0.09575 0.5967 0.0
C1511 C 0.64395 0.07915 0.57657 0.0
C1512 C 0.68251 0.1312 0.62557 0.0
C1513 C 0.67869 0.08987 0.58226 0.0
C1514 C 0.73818 0.16919 0.65602 0.0
C1515 C 0.70717 0.19878 0.69672 0.0
N1516 N 0.69648 0.1149 0.60587 0.0
N1517 N 0.68947 0.17428 0.67245 0.0
H1518 H 0.8339 0.39408 0.36602 0.0
H1519 H 1.00791 0.44119 0.48583 0.0
H1520 H 0.88217 0.32284 0.38893 0.0
H1521 H 0.93691 0.48499 0.50001 0.0
H1522 H 0.9657 0.40019 0.44609 0.0
H1523 H 0.87446 0.43009 0.4102 0.0
C1524 C 0.85237 0.38531 0.38125 0.0
C1525 C 0.85336 0.35428 0.37487 0.0
C1526 C 0.9594 0.4187 0.45811 0.0
C1527 C 0.9019 0.39722 0.42436 0.0
C1528 C 0.9835 0.44219 0.48068 0.0
C1529 C 0.97608 0.46671 0.49633 0.0
C1530 C 0.92782 0.42016 0.45035 0.0
C1531 C 0.94389 0.46659 0.48877 0.0
C1532 C 0.87602 0.40637 0.40616 0.0
C1533 C 0.87986 0.34608 0.39344 0.0
N1534 N 0.92122 0.44405 0.4661 0.0
N1535 N 0.90311 0.36742 0.41722 0.0
H1536 H 0.78428 0.89186 0.35656 0.0
H1537 H 0.60968 0.895 0.41982 0.0
H1538 H 0.69053 0.81503 0.3323 0.0
H1539 H 0.70266 0.96649 0.45909 0.0
H1540 H 0.63881 0.86705 0.38927 0.0
H1541 H 0.75711 0.91851 0.3933 0.0
C1542 C 0.75806 0.87958 0.35959 0.0
C1543 C 0.74102 0.84908 0.34174 0.0
C1544 C 0.65332 0.88872 0.40453 0.0
C1545 C 0.70749 0.88249 0.38424 0.0
C1546 C 0.63633 0.90527 0.42264 0.0
C1547 C 0.65243 0.93421 0.44364 0.0
C1548 C 0.68821 0.90026 0.40558 0.0
C1549 C 0.68771 0.94464 0.4444 0.0
C1550 C 0.74217 0.8955 0.38075 0.0
C1551 C 0.70621 0.83712 0.34615 0.0
N1552 N 0.70367 0.92825 0.42605 0.0
N1553 N 0.69136 0.85329 0.36627 0.0
H1554 H 0.18148 0.72298 0.30469 0.0
H1555 H 0.18729 0.6012 0.49461 0.0
H1556 H 0.26114 0.7508 0.39304 0.0
H1557 H 0.09432 0.60358 0.4428 0.0
H1558 H 0.21609 0.6513 0.45254 0.0
H1559 H 0.15056 0.67468 0.34886 0.0
C1560 C 0.1927 0.71857 0.33312 0.0
C1561 C 0.22448 0.74034 0.34465 0.0
C1562 C 0.1894 0.64115 0.45054 0.0
C1563 C 0.18897 0.68529 0.3957 0.0
C1564 C 0.17284 0.61246 0.47459 0.0
C1565 C 0.13817 0.59803 0.47253 0.0
C1566 C 0.17142 0.65552 0.42316 0.0
C1567 C 0.12097 0.61388 0.44578 0.0
C1568 C 0.17488 0.69122 0.35849 0.0
C1569 C 0.23715 0.7342 0.38253 0.0
N1570 N 0.13773 0.64142 0.42181 0.0
N1571 N 0.2197 0.70707 0.40633 0.0
H1572 H 0.33175 0.23651 0.38845 0.0
H1573 H 0.42699 0.11156 0.37098 0.0
H1574 H 0.36047 0.22966 0.27781 0.0
H1575 H 0.46237 0.17595 0.46338 0.0
H1576 H 0.3945 0.14542 0.34131 0.0
H1577 H 0.37002 0.20988 0.42033 0.0
C1578 C 0.34775 0.23228 0.37051 0.0
C1579 C 0.3446 0.24081 0.32956 0.0
C1580 C 0.40918 0.15242 0.36818 0.0
C1581 C 0.38642 0.20196 0.36711 0.0
C1582 C 0.42833 0.13265 0.38567 0.0
C1583 C 0.44913 0.13963 0.42079 0.0
C1584 C 0.40829 0.18002 0.38567 0.0
C1585 C 0.44784 0.16818 0.43675 0.0
C1586 C 0.36902 0.2149 0.38902 0.0
C1587 C 0.36252 0.22679 0.30925 0.0
N1588 N 0.42811 0.18621 0.4199 0.0
N1589 N 0.38152 0.20865 0.3275 0.0
H1590 H 0.7886 0.88229 0.70401 0.0
H1591 H 0.61455 0.87773 0.59314 0.0
H1592 H 0.70005 0.79573 0.71927 0.0
H1593 H 0.70386 0.96493 0.59839 0.0
H1594 H 0.64431 0.84451 0.6323 0.0
H1595 H 0.75801 0.90895 0.65754 0.0
C1596 C 0.76289 0.86817 0.69634 0.0
C1597 C 0.74763 0.83577 0.71458 0.0
C1598 C 0.65737 0.87091 0.6247 0.0
C1599 C 0.71095 0.86769 0.66208 0.0
C1600 C 0.64031 0.89 0.60216 0.0
C1601 C 0.65634 0.92463 0.59196 0.0
C1602 C 0.69101 0.88622 0.63708 0.0
C1603 C 0.68994 0.93859 0.60509 0.0
C1604 C 0.74512 0.88379 0.67011 0.0
C1605 C 0.71351 0.81996 0.70481 0.0
N1606 N 0.70578 0.91962 0.6265 0.0
N1607 N 0.69645 0.83595 0.67951 0.0
H1608 H 0.75483 0.24189 0.41088 0.0
H1609 H 0.63688 0.06106 0.37609 0.0
H1610 H 0.72179 0.21549 0.29383 0.0
H1611 H 0.61332 0.11256 0.46027 0.0
H1612 H 0.67561 0.11472 0.34952 0.0
H1613 H 0.70997 0.1909 0.43514 0.0
C1614 C 0.73811 0.22532 0.3905 0.0
C1615 C 0.74132 0.23277 0.35051 0.0
C1616 C 0.66146 0.11411 0.37342 0.0
C1617 C 0.69164 0.17489 0.37755 0.0
C1618 C 0.63939 0.08365 0.3885 0.0
C1619 C 0.62173 0.0824 0.42025 0.0
C1620 C 0.66642 0.1432 0.39084 0.0
C1621 C 0.62622 0.11244 0.43553 0.0
C1622 C 0.71267 0.19658 0.40418 0.0
C1623 C 0.71953 0.21067 0.3249 0.0
N1624 N 0.64861 0.1417 0.42105 0.0
N1625 N 0.69572 0.18241 0.3389 0.0
H1626 H 0.85773 0.66714 0.39555 0.0
H1627 H 1.00985 0.65233 0.52818 0.0
H1628 H 0.88409 0.69729 0.51212 0.0
H1629 H 0.95293 0.5846 0.44314 0.0
H1630 H 0.98015 0.68942 0.50443 0.0
H1631 H 0.90917 0.6577 0.39654 0.0
C1632 C 0.87468 0.67206 0.42118 0.0
C1633 C 0.86681 0.682 0.45436 0.0
C1634 C 0.97513 0.66702 0.49018 0.0
C1635 C 0.92501 0.67193 0.45525 0.0
C1636 C 0.99187 0.64598 0.50361 0.0
C1637 C 0.98293 0.61547 0.48778 0.0
C1638 C 0.94986 0.65717 0.46083 0.0
C1639 C 0.95968 0.60783 0.45631 0.0
C1640 C 0.90395 0.66709 0.42149 0.0
C1641 C 0.88928 0.6886 0.48665 0.0
N1642 N 0.94341 0.6285 0.44405 0.0
N1643 N 0.91749 0.68295 0.48656 0.0
H1644 H 0.35186 0.81174 0.39714 0.0
H1645 H 0.42496 0.99934 0.44992 0.0
H1646 H 0.30278 0.88187 0.37001 0.0
H1647 H 0.4837 0.93783 0.45575 0.0
H1648 H 0.37623 0.95177 0.43519 0.0
H1649 H 0.39518 0.85216 0.43498 0.0
C1650 C 0.35036 0.83573 0.39877 0.0
C1651 C 0.32575 0.84493 0.37696 0.0
C1652 C 0.3997 0.94854 0.43983 0.0
C1653 C 0.37365 0.89025 0.42209 0.0
C1654 C 0.42777 0.97582 0.44798 0.0
C1655 C 0.45876 0.97278 0.45336 0.0
C1656 C 0.40238 0.91785 0.43668 0.0
C1657 C 0.46041 0.94141 0.45116 0.0
C1658 C 0.37482 0.85859 0.42085 0.0
C1659 C 0.32274 0.87472 0.3839 0.0
N1660 N 0.43251 0.91508 0.44254 0.0
N1661 N 0.34699 0.89679 0.40512 0.0
H1662 H 0.21783 0.40734 0.37336 0.0
H1663 H 0.16014 0.4316 0.55793 0.0
H1664 H 0.26459 0.39978 0.48792 0.0
H1665 H 0.10532 0.42859 0.44654 0.0
H1666 H 0.18272 0.39359 0.5384 0.0
H1667 H 0.16501 0.3915 0.40188 0.0
C1668 C 0.21667 0.40232 0.4046 0.0
C1669 C 0.24525 0.40702 0.42896 0.0
C1670 C 0.16513 0.40053 0.51842 0.0
C1671 C 0.18579 0.38811 0.46154 0.0
C1672 C 0.15233 0.42237 0.52969 0.0
C1673 C 0.1322 0.43437 0.50321 0.0
C1674 C 0.15957 0.39297 0.47953 0.0
C1675 C 0.12208 0.42103 0.46726 0.0
C1676 C 0.18663 0.3926 0.42084 0.0
C1677 C 0.24299 0.39843 0.4688 0.0
N1678 N 0.13686 0.40183 0.45583 0.0
N1679 N 0.21369 0.38989 0.48406 0.0
H1680 H 0.39435 0.17814 0.68452 0.0
H1681 H 0.48542 0.1504 0.51627 0.0
H1682 H 0.40236 0.23374 0.57162 0.0
H1683 H 0.439 0.06837 0.59978 0.0
H1684 H 0.45748 0.18274 0.53976 0.0
H1685 H 0.41153 0.13756 0.6578 0.0
C1686 C 0.3992 0.18153 0.6541 0.0
C1687 C 0.39772 0.2098 0.63047 0.0
C1688 C 0.45266 0.15735 0.55243 0.0
C1689 C 0.41772 0.16419 0.60019 0.0
C1690 C 0.46819 0.13878 0.53847 0.0
C1691 C 0.46288 0.1062 0.55456 0.0
C1692 C 0.4326 0.14365 0.58381 0.0
C1693 C 0.44257 0.09312 0.58575 0.0
C1694 C 0.40911 0.15852 0.63896 0.0
C1695 C 0.40413 0.21291 0.59122 0.0
N1696 N 0.42822 0.112 0.59966 0.0
N1697 N 0.41432 0.19079 0.57757 0.0
H1698 H 0.8474 0.32374 0.66207 0.0
H1699 H 1.00797 0.48507 0.70322 0.0
H1700 H 0.88181 0.35488 0.77699 0.0
H1701 H 0.98921 0.43547 0.5982 0.0
H1702 H 0.96003 0.44012 0.72994 0.0
H1703 H 0.89642 0.36844 0.63637 0.0
C1704 C 0.8651 0.34032 0.68171 0.0
C1705 C 0.86031 0.33614 0.72145 0.0
C1706 C 0.96669 0.43883 0.70128 0.0
C1707 C 0.91668 0.38654 0.69273 0.0
C1708 C 0.99422 0.46435 0.68609 0.0
C1709 C 1.00291 0.46393 0.64849 0.0
C1710 C 0.94731 0.41289 0.67851 0.0
C1711 C 0.98383 0.43663 0.6275 0.0
C1712 C 0.89313 0.36559 0.66719 0.0
C1713 C 0.88418 0.35779 0.74598 0.0
N1714 N 0.95674 0.41243 0.64261 0.0
N1715 N 0.9113 0.38212 0.73122 0.0
H1716 H 0.23828 0.76398 0.64372 0.0
H1717 H 0.19375 0.57571 0.62479 0.0
H1718 H 0.20367 0.68867 0.73914 0.0
H1719 H 0.12056 0.61267 0.56673 0.0
H1720 H 0.22394 0.63101 0.64836 0.0
H1721 H 0.21631 0.71959 0.59846 0.0
C1722 C 0.22527 0.73835 0.65484 0.0
C1723 C 0.22262 0.72961 0.69488 0.0
C1724 C 0.20182 0.62708 0.62927 0.0
C1725 C 0.19956 0.67991 0.64466 0.0
C1726 C 0.18465 0.59575 0.61604 0.0
C1727 C 0.15427 0.5897 0.595 0.0
C1728 C 0.18856 0.65216 0.62065 0.0
C1729 C 0.14336 0.6163 0.58413 0.0
C1730 C 0.21339 0.71328 0.62932 0.0
C1731 C 0.20631 0.69618 0.70839 0.0
N1732 N 0.16025 0.64648 0.59775 0.0
N1733 N 0.19577 0.67238 0.68331 0.0
loop_
_geom_bond_atom_site_label_1
_geom_bond_atom_site_label_2
_geom_bond_distance
_geom_bond_site_symmetry_2
_ccdc_geom_bond_type
Gd0 N31 2.661 . S
Gd0 N37 2.601 . S
Gd0 O44 2.545 . S
Gd0 O45 2.606 . S
Gd0 O47 2.429 . S
Gd0 O48 2.545 . S
Gd0 O49 2.412 . S
Gd0 O51 2.362 . S
Gd0 O52 2.324 . S
Gd0 C59 2.828 . S
Gd1 N10 2.661 . S
Gd1 N14 2.601 . S
Gd1 O45 2.362 . S
Gd1 O46 2.324 . S
Gd1 O50 2.545 . S
Gd1 O51 2.606 . S
Gd1 O53 2.429 . S
Gd1 O54 2.545 . S
Gd1 O55 2.412 . S
Gd1 C68 2.828 . S
C2 C5 1.417 . S
C2 C7 1.431 . S
C2 C8 1.412 . S
C3 C6 1.437 . S
C3 C7 1.317 . S
C3 H22 0.929 . S
C4 C5 1.426 . S
C4 C6 1.413 . S
C4 N14 1.359 . S
C5 C2 1.417 . S
C5 C4 1.426 . S
C5 N10 1.350 . S
C6 C3 1.437 . S
C6 C4 1.413 . S
C6 C16 1.391 . S
C7 C2 1.431 . S
C7 C3 1.317 . S
C7 H18 0.930 . S
C8 C2 1.412 . S
C8 C9 1.355 . S
C8 H20 0.930 . S
C9 C8 1.355 . S
C9 C11 1.402 . S
C9 H21 0.930 . S
N10 Gd1 2.661 . S
N10 C5 1.350 . S
N10 C11 1.307 . S
C11 C9 1.402 . S
C11 N10 1.307 . S
C11 H12 0.930 . S
H12 C11 0.930 . S
C13 N14 1.334 . S
C13 C15 1.394 . S
C13 H17 0.930 . S
N14 Gd1 2.601 . S
N14 C4 1.359 . S
N14 C13 1.334 . S
C15 C13 1.394 . S
C15 C16 1.359 . S
C15 H27 0.930 . S
C16 C6 1.391 . S
C16 C15 1.359 . S
C16 H28 0.929 . S
H17 C13 0.930 . S
H18 C7 0.930 . S
H19 C36 0.930 . S
H20 C8 0.930 . S
H21 C9 0.930 . S
H22 C3 0.929 . S
H23 C41 0.930 . S
H24 C32 0.930 . S
H25 C33 0.930 . S
H26 C57 0.929 . S
H27 C15 0.930 . S
H28 C16 0.929 . S
H29 C58 0.930 . S
H30 C39 0.930 . S
N31 Gd0 2.661 . S
N31 C35 1.350 . S
N31 C36 1.307 . S
C32 H24 0.930 . S
C32 C33 1.355 . S
C32 C34 1.412 . S
C33 H25 0.930 . S
C33 C32 1.355 . S
C33 C36 1.402 . S
C34 C32 1.412 . S
C34 C35 1.417 . S
C34 C58 1.431 . S
C35 N31 1.350 . S
C35 C34 1.417 . S
C35 C38 1.426 . S
C36 H19 0.930 . S
C36 N31 1.307 . S
C36 C33 1.402 . S
N37 Gd0 2.601 . S
N37 C38 1.359 . S
N37 C41 1.334 . S
C38 C35 1.426 . S
C38 N37 1.359 . S
C38 C42 1.413 . S
C39 H30 0.930 . S
C39 C40 1.359 . S
C39 C41 1.394 . S
C40 C39 1.359 . S
C40 C42 1.391 . S
C40 H43 0.929 . S
C41 H23 0.930 . S
C41 N37 1.334 . S
C41 C39 1.394 . S
C42 C38 1.413 . S
C42 C40 1.391 . S
C42 C57 1.437 . S
H43 C40 0.929 . S
O44 Gd0 2.545 . S
O44 C59 1.258 . S
O45 Gd0 2.606 . S
O45 Gd1 2.362 . S
O45 C56 1.284 . S
O46 Gd1 2.324 . S
O46 C66 1.254 . S
O47 Gd0 2.429 . S
O47 C66 1.268 . S
O48 Gd0 2.545 . S
O48 C56 1.250 . S
O49 Gd0 2.412 . S
O49 C59 1.252 . S
O50 Gd1 2.545 . S
O50 C68 1.258 . S
O51 Gd0 2.362 . S
O51 Gd1 2.606 . S
O51 C67 1.284 . S
O52 Gd0 2.324 . S
O52 C75 1.254 . S
O53 Gd1 2.429 . S
O53 C75 1.268 . S
O54 Gd1 2.545 . S
O54 C67 1.250 . S
O55 Gd1 2.412 . S
O55 C68 1.252 . S
C56 O45 1.284 . S
C56 O48 1.250 . S
C57 H26 0.929 . S
C57 C42 1.437 . S
C57 C58 1.317 . S
C58 H29 0.930 . S
C58 C34 1.431 . S
C58 C57 1.317 . S
C59 Gd0 2.828 . S
C59 O44 1.258 . S
C59 O49 1.252 . S
C59 C60 1.497 . S
C60 C59 1.497 . S
C60 C61 1.395 . S
C60 C62 1.380 . S
C61 C60 1.395 . S
C61 C64 1.398 . S
C61 H76 0.930 . S
C62 C60 1.380 . S
C62 C63 1.391 . S
C62 H77 0.930 . S
C63 C62 1.391 . S
C63 C65 1.387 . S
C64 C61 1.398 . S
C64 C65 1.380 . S
C64 H78 0.930 . S
C65 C63 1.387 . S
C65 C64 1.380 . S
C65 H79 0.930 . S
C66 O46 1.254 . S
C66 O47 1.268 . S
C67 O51 1.284 . S
C67 O54 1.250 . S
C68 Gd1 2.828 . S
C68 O50 1.258 . S
C68 O55 1.252 . S
C68 C69 1.497 . S
C69 C68 1.497 . S
C69 C70 1.395 . S
C69 C71 1.380 . S
C70 C69 1.395 . S
C70 C73 1.398 . S
C70 H80 0.930 . S
C71 C69 1.380 . S
C71 C72 1.391 . S
C71 H81 0.930 . S
C72 C71 1.391 . S
C72 C74 1.387 . S
C73 C70 1.398 . S
C73 C74 1.380 . S
C73 H82 0.930 . S
C74 C72 1.387 . S
C74 C73 1.380 . S
C74 H83 0.930 . S
C75 O52 1.254 . S
C75 O53 1.268 . S
H76 C61 0.930 . S
H77 C62 0.930 . S
H78 C64 0.930 . S
H79 C65 0.930 . S
H80 C70 0.930 . S
H81 C71 0.930 . S
H82 C73 0.930 . S
H83 C74 0.930 . S
Gd84 N115 2.661 . S
Gd84 N121 2.601 . S
Gd84 O128 2.545 . S
Gd84 O129 2.606 . S
Gd84 O131 2.429 . S
Gd84 O132 2.545 . S
Gd84 O133 2.412 . S
Gd84 O135 2.362 . S
Gd84 O136 2.324 . S
Gd84 C143 2.828 . S
Gd85 N94 2.661 . S
Gd85 N98 2.601 . S
Gd85 O129 2.362 . S
Gd85 O130 2.324 . S
Gd85 O134 2.545 . S
Gd85 O135 2.606 . S
Gd85 O137 2.429 . S
Gd85 O138 2.545 . S
Gd85 O139 2.412 . S
Gd85 C152 2.828 . S
C86 C89 1.417 . S
C86 C91 1.431 . S
C86 C92 1.412 . S
C87 C90 1.437 . S
C87 C91 1.317 . S
C87 H106 0.929 . S
C88 C89 1.426 . S
C88 C90 1.413 . S
C88 N98 1.359 . S
C89 C86 1.417 . S
C89 C88 1.426 . S
C89 N94 1.350 . S
C90 C87 1.437 . S
C90 C88 1.413 . S
C90 C100 1.391 . S
C91 C86 1.431 . S
C91 C87 1.317 . S
C91 H102 0.930 . S
C92 C86 1.412 . S
C92 C93 1.355 . S
C92 H104 0.930 . S
C93 C92 1.355 . S
C93 C95 1.402 . S
C93 H105 0.930 . S
N94 Gd85 2.661 . S
N94 C89 1.350 . S
N94 C95 1.307 . S
C95 C93 1.402 . S
C95 N94 1.307 . S
C95 H96 0.930 . S
H96 C95 0.930 . S
C97 N98 1.334 . S
C97 C99 1.394 . S
C97 H101 0.930 . S
N98 Gd85 2.601 . S
N98 C88 1.359 . S
N98 C97 1.334 . S
C99 C97 1.394 . S
C99 C100 1.359 . S
C99 H111 0.930 . S
C100 C90 1.391 . S
C100 C99 1.359 . S
C100 H112 0.929 . S
H101 C97 0.930 . S
H102 C91 0.930 . S
H103 C120 0.930 . S
H104 C92 0.930 . S
H105 C93 0.930 . S
H106 C87 0.929 . S
H107 C125 0.930 . S
H108 C116 0.930 . S
H109 C117 0.930 . S
H110 C141 0.929 . S
H111 C99 0.930 . S
H112 C100 0.929 . S
H113 C142 0.930 . S
H114 C123 0.930 . S
N115 Gd84 2.661 . S
N115 C119 1.350 . S
N115 C120 1.307 . S
C116 H108 0.930 . S
C116 C117 1.355 . S
C116 C118 1.412 . S
C117 H109 0.930 . S
C117 C116 1.355 . S
C117 C120 1.402 . S
C118 C116 1.412 . S
C118 C119 1.417 . S
C118 C142 1.431 . S
C119 N115 1.350 . S
C119 C118 1.417 . S
C119 C122 1.426 . S
C120 H103 0.930 . S
C120 N115 1.307 . S
C120 C117 1.402 . S
N121 Gd84 2.601 . S
N121 C122 1.359 . S
N121 C125 1.334 . S
C122 C119 1.426 . S
C122 N121 1.359 . S
C122 C126 1.413 . S
C123 H114 0.930 . S
C123 C124 1.359 . S
C123 C125 1.394 . S
C124 C123 1.359 . S
C124 C126 1.391 . S
C124 H127 0.929 . S
C125 H107 0.930 . S
C125 N121 1.334 . S
C125 C123 1.394 . S
C126 C122 1.413 . S
C126 C124 1.391 . S
C126 C141 1.437 . S
H127 C124 0.929 . S
O128 Gd84 2.545 . S
O128 C143 1.258 . S
O129 Gd84 2.606 . S
O129 Gd85 2.362 . S
O129 C140 1.284 . S
O130 Gd85 2.324 . S
O130 C150 1.254 . S
O131 Gd84 2.429 . S
O131 C150 1.268 . S
O132 Gd84 2.545 . S
O132 C140 1.250 . S
O133 Gd84 2.412 . S
O133 C143 1.252 . S
O134 Gd85 2.545 . S
O134 C152 1.258 . S
O135 Gd84 2.362 . S
O135 Gd85 2.606 . S
O135 C151 1.284 . S
O136 Gd84 2.324 . S
O136 C159 1.254 . S
O137 Gd85 2.429 . S
O137 C159 1.268 . S
O138 Gd85 2.545 . S
O138 C151 1.250 . S
O139 Gd85 2.412 . S
O139 C152 1.252 . S
C140 O129 1.284 . S
C140 O132 1.250 . S
C141 H110 0.929 . S
C141 C126 1.437 . S
C141 C142 1.317 . S
C142 H113 0.930 . S
C142 C118 1.431 . S
C142 C141 1.317 . S
C143 Gd84 2.828 . S
C143 O128 1.258 . S
C143 O133 1.252 . S
C143 C144 1.497 . S
C144 C143 1.497 . S
C144 C145 1.395 . S
C144 C146 1.380 . S
C145 C144 1.395 . S
C145 C148 1.398 . S
C145 H160 0.930 . S
C146 C144 1.380 . S
C146 C147 1.391 . S
C146 H161 0.930 . S
C147 C146 1.391 . S
C147 C149 1.387 . S
C148 C145 1.398 . S
C148 C149 1.380 . S
C148 H162 0.930 . S
C149 C147 1.387 . S
C149 C148 1.380 . S
C149 H163 0.930 . S
C150 O130 1.254 . S
C150 O131 1.268 . S
C151 O135 1.284 . S
C151 O138 1.250 . S
C152 Gd85 2.828 . S
C152 O134 1.258 . S
C152 O139 1.252 . S
C152 C153 1.497 . S
C153 C152 1.497 . S
C153 C154 1.395 . S
C153 C155 1.380 . S
C154 C153 1.395 . S
C154 C157 1.398 . S
C154 H164 0.930 . S
C155 C153 1.380 . S
C155 C156 1.391 . S
C155 H165 0.930 . S
C156 C155 1.391 . S
C156 C158 1.387 . S
C157 C154 1.398 . S
C157 C158 1.380 . S
C157 H166 0.930 . S
C158 C156 1.387 . S
C158 C157 1.380 . S
C158 H167 0.930 . S
C159 O136 1.254 . S
C159 O137 1.268 . S
H160 C145 0.930 . S
H161 C146 0.930 . S
H162 C148 0.930 . S
H163 C149 0.930 . S
H164 C154 0.930 . S
H165 C155 0.930 . S
H166 C157 0.930 . S
H167 C158 0.930 . S
Gd168 N199 2.661 . S
Gd168 N205 2.601 . S
Gd168 O212 2.545 . S
Gd168 O213 2.606 . S
Gd168 O215 2.429 . S
Gd168 O216 2.545 . S
Gd168 O217 2.412 . S
Gd168 O219 2.362 . S
Gd168 O220 2.324 . S
Gd168 C227 2.828 . S
Gd169 N178 2.661 . S
Gd169 N182 2.601 . S
Gd169 O213 2.362 . S
Gd169 O214 2.324 . S
Gd169 O218 2.545 . S
Gd169 O219 2.606 . S
Gd169 O221 2.429 . S
Gd169 O222 2.545 . S
Gd169 O223 2.412 . S
Gd169 C236 2.828 . S
C170 C173 1.417 . S
C170 C175 1.431 . S
C170 C176 1.412 . S
C171 C174 1.437 . S
C171 C175 1.317 . S
C171 H190 0.929 . S
C172 C173 1.426 . S
C172 C174 1.413 . S
C172 N182 1.359 . S
C173 C170 1.417 . S
C173 C172 1.426 . S
C173 N178 1.350 . S
C174 C171 1.437 . S
C174 C172 1.413 . S
C174 C184 1.391 . S
C175 C170 1.431 . S
C175 C171 1.317 . S
C175 H186 0.930 . S
C176 C170 1.412 . S
C176 C177 1.355 . S
C176 H188 0.930 . S
C177 C176 1.355 . S
C177 C179 1.402 . S
C177 H189 0.930 . S
N178 Gd169 2.661 . S
N178 C173 1.350 . S
N178 C179 1.307 . S
C179 C177 1.402 . S
C179 N178 1.307 . S
C179 H180 0.930 . S
H180 C179 0.930 . S
C181 N182 1.334 . S
C181 C183 1.394 . S
C181 H185 0.930 . S
N182 Gd169 2.601 . S
N182 C172 1.359 . S
N182 C181 1.334 . S
C183 C181 1.394 . S
C183 C184 1.359 . S
C183 H195 0.930 . S
C184 C174 1.391 . S
C184 C183 1.359 . S
C184 H196 0.929 . S
H185 C181 0.930 . S
H186 C175 0.930 . S
H187 C204 0.930 . S
H188 C176 0.930 . S
H189 C177 0.930 . S
H190 C171 0.929 . S
H191 C209 0.930 . S
H192 C200 0.930 . S
H193 C201 0.930 . S
H194 C225 0.929 . S
H195 C183 0.930 . S
H196 C184 0.929 . S
H197 C226 0.930 . S
H198 C207 0.930 . S
N199 Gd168 2.661 . S
N199 C203 1.350 . S
N199 C204 1.307 . S
C200 H192 0.930 . S
C200 C201 1.355 . S
C200 C202 1.412 . S
C201 H193 0.930 . S
C201 C200 1.355 . S
C201 C204 1.402 . S
C202 C200 1.412 . S
C202 C203 1.417 . S
C202 C226 1.431 . S
C203 N199 1.350 . S
C203 C202 1.417 . S
C203 C206 1.426 . S
C204 H187 0.930 . S
C204 N199 1.307 . S
C204 C201 1.402 . S
N205 Gd168 2.601 . S
N205 C206 1.359 . S
N205 C209 1.334 . S
C206 C203 1.426 . S
C206 N205 1.359 . S
C206 C210 1.413 . S
C207 H198 0.930 . S
C207 C208 1.359 . S
C207 C209 1.394 . S
C208 C207 1.359 . S
C208 C210 1.391 . S
C208 H211 0.929 . S
C209 H191 0.930 . S
C209 N205 1.334 . S
C209 C207 1.394 . S
C210 C206 1.413 . S
C210 C208 1.391 . S
C210 C225 1.437 . S
H211 C208 0.929 . S
O212 Gd168 2.545 . S
O212 C227 1.258 . S
O213 Gd168 2.606 . S
O213 Gd169 2.362 . S
O213 C224 1.284 . S
O214 Gd169 2.324 . S
O214 C234 1.254 . S
O215 Gd168 2.429 . S
O215 C234 1.268 . S
O216 Gd168 2.545 . S
O216 C224 1.250 . S
O217 Gd168 2.412 . S
O217 C227 1.252 . S
O218 Gd169 2.545 . S
O218 C236 1.258 . S
O219 Gd168 2.362 . S
O219 Gd169 2.606 . S
O219 C235 1.284 . S
O220 Gd168 2.324 . S
O220 C243 1.254 . S
O221 Gd169 2.429 . S
O221 C243 1.268 . S
O222 Gd169 2.545 . S
O222 C235 1.250 . S
O223 Gd169 2.412 . S
O223 C236 1.252 . S
C224 O213 1.284 . S
C224 O216 1.250 . S
C225 H194 0.929 . S
C225 C210 1.437 . S
C225 C226 1.317 . S
C226 H197 0.930 . S
C226 C202 1.431 . S
C226 C225 1.317 . S
C227 Gd168 2.828 . S
C227 O212 1.258 . S
C227 O217 1.252 . S
C227 C228 1.497 . S
C228 C227 1.497 . S
C228 C229 1.395 . S
C228 C230 1.380 . S
C229 C228 1.395 . S
C229 C232 1.398 . S
C229 H244 0.930 . S
C230 C228 1.380 . S
C230 C231 1.391 . S
C230 H245 0.930 . S
C231 C230 1.391 . S
C231 C233 1.387 . S
C232 C229 1.398 . S
C232 C233 1.380 . S
C232 H246 0.930 . S
C233 C231 1.387 . S
C233 C232 1.380 . S
C233 H247 0.930 . S
C234 O214 1.254 . S
C234 O215 1.268 . S
C235 O219 1.284 . S
C235 O222 1.250 . S
C236 Gd169 2.828 . S
C236 O218 1.258 . S
C236 O223 1.252 . S
C236 C237 1.497 . S
C237 C236 1.497 . S
C237 C238 1.395 . S
C237 C239 1.380 . S
C238 C237 1.395 . S
C238 C241 1.398 . S
C238 H248 0.930 . S
C239 C237 1.380 . S
C239 C240 1.391 . S
C239 H249 0.930 . S
C240 C239 1.391 . S
C240 C242 1.387 . S
C241 C238 1.398 . S
C241 C242 1.380 . S
C241 H250 0.930 . S
C242 C240 1.387 . S
C242 C241 1.380 . S
C242 H251 0.930 . S
C243 O220 1.254 . S
C243 O221 1.268 . S
H244 C229 0.930 . S
H245 C230 0.930 . S
H246 C232 0.930 . S
H247 C233 0.930 . S
H248 C238 0.930 . S
H249 C239 0.930 . S
H250 C241 0.930 . S
H251 C242 0.930 . S
Gd252 N283 2.661 . S
Gd252 N289 2.601 . S
Gd252 O296 2.545 . S
Gd252 O297 2.606 . S
Gd252 O299 2.429 . S
Gd252 O300 2.545 . S
Gd252 O301 2.412 . S
Gd252 O303 2.362 . S
Gd252 O304 2.324 . S
Gd252 C311 2.828 . S
Gd253 N262 2.661 . S
Gd253 N266 2.601 . S
Gd253 O297 2.362 . S
Gd253 O298 2.324 . S
Gd253 O302 2.545 . S
Gd253 O303 2.606 . S
Gd253 O305 2.429 . S
Gd253 O306 2.545 . S
Gd253 O307 2.412 . S
Gd253 C320 2.828 . S
C254 C257 1.417 . S
C254 C259 1.431 . S
C254 C260 1.412 . S
C255 C258 1.437 . S
C255 C259 1.317 . S
C255 H274 0.929 . S
C256 C257 1.426 . S
C256 C258 1.413 . S
C256 N266 1.359 . S
C257 C254 1.417 . S
C257 C256 1.426 . S
C257 N262 1.350 . S
C258 C255 1.437 . S
C258 C256 1.413 . S
C258 C268 1.391 . S
C259 C254 1.431 . S
C259 C255 1.317 . S
C259 H270 0.930 . S
C260 C254 1.412 . S
C260 C261 1.355 . S
C260 H272 0.930 . S
C261 C260 1.355 . S
C261 C263 1.402 . S
C261 H273 0.930 . S
N262 Gd253 2.661 . S
N262 C257 1.350 . S
N262 C263 1.307 . S
C263 C261 1.402 . S
C263 N262 1.307 . S
C263 H264 0.930 . S
H264 C263 0.930 . S
C265 N266 1.334 . S
C265 C267 1.394 . S
C265 H269 0.930 . S
N266 Gd253 2.601 . S
N266 C256 1.359 . S
N266 C265 1.334 . S
C267 C265 1.394 . S
C267 C268 1.359 . S
C267 H279 0.930 . S
C268 C258 1.391 . S
C268 C267 1.359 . S
C268 H280 0.929 . S
H269 C265 0.930 . S
H270 C259 0.930 . S
H271 C288 0.930 . S
H272 C260 0.930 . S
H273 C261 0.930 . S
H274 C255 0.929 . S
H275 C293 0.930 . S
H276 C284 0.930 . S
H277 C285 0.930 . S
H278 C309 0.929 . S
H279 C267 0.930 . S
H280 C268 0.929 . S
H281 C310 0.930 . S
H282 C291 0.930 . S
N283 Gd252 2.661 . S
N283 C287 1.350 . S
N283 C288 1.307 . S
C284 H276 0.930 . S
C284 C285 1.355 . S
C284 C286 1.412 . S
C285 H277 0.930 . S
C285 C284 1.355 . S
C285 C288 1.402 . S
C286 C284 1.412 . S
C286 C287 1.417 . S
C286 C310 1.431 . S
C287 N283 1.350 . S
C287 C286 1.417 . S
C287 C290 1.426 . S
C288 H271 0.930 . S
C288 N283 1.307 . S
C288 C285 1.402 . S
N289 Gd252 2.601 . S
N289 C290 1.359 . S
N289 C293 1.334 . S
C290 C287 1.426 . S
C290 N289 1.359 . S
C290 C294 1.413 . S
C291 H282 0.930 . S
C291 C292 1.359 . S
C291 C293 1.394 . S
C292 C291 1.359 . S
C292 C294 1.391 . S
C292 H295 0.929 . S
C293 H275 0.930 . S
C293 N289 1.334 . S
C293 C291 1.394 . S
C294 C290 1.413 . S
C294 C292 1.391 . S
C294 C309 1.437 . S
H295 C292 0.929 . S
O296 Gd252 2.545 . S
O296 C311 1.258 . S
O297 Gd252 2.606 . S
O297 Gd253 2.362 . S
O297 C308 1.284 . S
O298 Gd253 2.324 . S
O298 C318 1.254 . S
O299 Gd252 2.429 . S
O299 C318 1.268 . S
O300 Gd252 2.545 . S
O300 C308 1.250 . S
O301 Gd252 2.412 . S
O301 C311 1.252 . S
O302 Gd253 2.545 . S
O302 C320 1.258 . S
O303 Gd252 2.362 . S
O303 Gd253 2.606 . S
O303 C319 1.284 . S
O304 Gd252 2.324 . S
O304 C327 1.254 . S
O305 Gd253 2.429 . S
O305 C327 1.268 . S
O306 Gd253 2.545 . S
O306 C319 1.250 . S
O307 Gd253 2.412 . S
O307 C320 1.252 . S
C308 O297 1.284 . S
C308 O300 1.250 . S
C309 H278 0.929 . S
C309 C294 1.437 . S
C309 C310 1.317 . S
C310 H281 0.930 . S
C310 C286 1.431 . S
C310 C309 1.317 . S
C311 Gd252 2.828 . S
C311 O296 1.258 . S
C311 O301 1.252 . S
C311 C312 1.497 . S
C312 C311 1.497 . S
C312 C313 1.395 . S
C312 C314 1.380 . S
C313 C312 1.395 . S
C313 C316 1.398 . S
C313 H328 0.930 . S
C314 C312 1.380 . S
C314 C315 1.391 . S
C314 H329 0.930 . S
C315 C314 1.391 . S
C315 C317 1.387 . S
C316 C313 1.398 . S
C316 C317 1.380 . S
C316 H330 0.930 . S
C317 C315 1.387 . S
C317 C316 1.380 . S
C317 H331 0.930 . S
C318 O298 1.254 . S
C318 O299 1.268 . S
C319 O303 1.284 . S
C319 O306 1.250 . S
C320 Gd253 2.828 . S
C320 O302 1.258 . S
C320 O307 1.252 . S
C320 C321 1.497 . S
C321 C320 1.497 . S
C321 C322 1.395 . S
C321 C323 1.380 . S
C322 C321 1.395 . S
C322 C325 1.398 . S
C322 H332 0.930 . S
C323 C321 1.380 . S
C323 C324 1.391 . S
C323 H333 0.930 . S
C324 C323 1.391 . S
C324 C326 1.387 . S
C325 C322 1.398 . S
C325 C326 1.380 . S
C325 H334 0.930 . S
C326 C324 1.387 . S
C326 C325 1.380 . S
C326 H335 0.930 . S
C327 O304 1.254 . S
C327 O305 1.268 . S
H328 C313 0.930 . S
H329 C314 0.930 . S
H330 C316 0.930 . S
H331 C317 0.930 . S
H332 C322 0.930 . S
H333 C323 0.930 . S
H334 C325 0.930 . S
H335 C326 0.930 . S
Gd336 N367 2.661 . S
Gd336 N373 2.601 . S
Gd336 O380 2.545 . S
Gd336 O381 2.606 . S
Gd336 O383 2.429 . S
Gd336 O384 2.545 . S
Gd336 O385 2.412 . S
Gd336 O387 2.362 . S
Gd336 O388 2.324 . S
Gd336 C395 2.828 . S
Gd337 N346 2.661 . S
Gd337 N350 2.601 . S
Gd337 O381 2.362 . S
Gd337 O382 2.324 . S
Gd337 O386 2.545 . S
Gd337 O387 2.606 . S
Gd337 O389 2.429 . S
Gd337 O390 2.545 . S
Gd337 O391 2.412 . S
Gd337 C404 2.828 . S
C338 C341 1.417 . S
C338 C343 1.431 . S
C338 C344 1.412 . S
C339 C342 1.437 . S
C339 C343 1.317 . S
C339 H358 0.929 . S
C340 C341 1.426 . S
C340 C342 1.413 . S
C340 N350 1.359 . S
C341 C338 1.417 . S
C341 C340 1.426 . S
C341 N346 1.350 . S
C342 C339 1.437 . S
C342 C340 1.413 . S
C342 C352 1.391 . S
C343 C338 1.431 . S
C343 C339 1.317 . S
C343 H354 0.930 . S
C344 C338 1.412 . S
C344 C345 1.355 . S
C344 H356 0.930 . S
C345 C344 1.355 . S
C345 C347 1.402 . S
C345 H357 0.930 . S
N346 Gd337 2.661 . S
N346 C341 1.350 . S
N346 C347 1.307 . S
C347 C345 1.402 . S
C347 N346 1.307 . S
C347 H348 0.930 . S
H348 C347 0.930 . S
C349 N350 1.334 . S
C349 C351 1.394 . S
C349 H353 0.930 . S
N350 Gd337 2.601 . S
N350 C340 1.359 . S
N350 C349 1.334 . S
C351 C349 1.394 . S
C351 C352 1.359 . S
C351 H363 0.930 . S
C352 C342 1.391 . S
C352 C351 1.359 . S
C352 H364 0.929 . S
H353 C349 0.930 . S
H354 C343 0.930 . S
H355 C372 0.930 . S
H356 C344 0.930 . S
H357 C345 0.930 . S
H358 C339 0.929 . S
H359 C377 0.930 . S
H360 C368 0.930 . S
H361 C369 0.930 . S
H362 C393 0.929 . S
H363 C351 0.930 . S
H364 C352 0.929 . S
H365 C394 0.930 . S
H366 C375 0.930 . S
N367 Gd336 2.661 . S
N367 C371 1.350 . S
N367 C372 1.307 . S
C368 H360 0.930 . S
C368 C369 1.355 . S
C368 C370 1.412 . S
C369 H361 0.930 . S
C369 C368 1.355 . S
C369 C372 1.402 . S
C370 C368 1.412 . S
C370 C371 1.417 . S
C370 C394 1.431 . S
C371 N367 1.350 . S
C371 C370 1.417 . S
C371 C374 1.426 . S
C372 H355 0.930 . S
C372 N367 1.307 . S
C372 C369 1.402 . S
N373 Gd336 2.601 . S
N373 C374 1.359 . S
N373 C377 1.334 . S
C374 C371 1.426 . S
C374 N373 1.359 . S
C374 C378 1.413 . S
C375 H366 0.930 . S
C375 C376 1.359 . S
C375 C377 1.394 . S
C376 C375 1.359 . S
C376 C378 1.391 . S
C376 H379 0.929 . S
C377 H359 0.930 . S
C377 N373 1.334 . S
C377 C375 1.394 . S
C378 C374 1.413 . S
C378 C376 1.391 . S
C378 C393 1.437 . S
H379 C376 0.929 . S
O380 Gd336 2.545 . S
O380 C395 1.258 . S
O381 Gd336 2.606 . S
O381 Gd337 2.362 . S
O381 C392 1.284 . S
O382 Gd337 2.324 . S
O382 C402 1.254 . S
O383 Gd336 2.429 . S
O383 C402 1.268 . S
O384 Gd336 2.545 . S
O384 C392 1.250 . S
O385 Gd336 2.412 . S
O385 C395 1.252 . S
O386 Gd337 2.545 . S
O386 C404 1.258 . S
O387 Gd336 2.362 . S
O387 Gd337 2.606 . S
O387 C403 1.284 . S
O388 Gd336 2.324 . S
O388 C411 1.254 . S
O389 Gd337 2.429 . S
O389 C411 1.268 . S
O390 Gd337 2.545 . S
O390 C403 1.250 . S
O391 Gd337 2.412 . S
O391 C404 1.252 . S
C392 O381 1.284 . S
C392 O384 1.250 . S
C393 H362 0.929 . S
C393 C378 1.437 . S
C393 C394 1.317 . S
C394 H365 0.930 . S
C394 C370 1.431 . S
C394 C393 1.317 . S
C395 Gd336 2.828 . S
C395 O380 1.258 . S
C395 O385 1.252 . S
C395 C396 1.497 . S
C396 C395 1.497 . S
C396 C397 1.395 . S
C396 C398 1.380 . S
C397 C396 1.395 . S
C397 C400 1.398 . S
C397 H412 0.930 . S
C398 C396 1.380 . S
C398 C399 1.391 . S
C398 H413 0.930 . S
C399 C398 1.391 . S
C399 C401 1.387 . S
C400 C397 1.398 . S
C400 C401 1.380 . S
C400 H414 0.930 . S
C401 C399 1.387 . S
C401 C400 1.380 . S
C401 H415 0.930 . S
C402 O382 1.254 . S
C402 O383 1.268 . S
C403 O387 1.284 . S
C403 O390 1.250 . S
C404 Gd337 2.828 . S
C404 O386 1.258 . S
C404 O391 1.252 . S
C404 C405 1.497 . S
C405 C404 1.497 . S
C405 C406 1.395 . S
C405 C407 1.380 . S
C406 C405 1.395 . S
C406 C409 1.398 . S
C406 H416 0.930 . S
C407 C405 1.380 . S
C407 C408 1.391 . S
C407 H417 0.930 . S
C408 C407 1.391 . S
C408 C410 1.387 . S
C409 C406 1.398 . S
C409 C410 1.380 . S
C409 H418 0.930 . S
C410 C408 1.387 . S
C410 C409 1.380 . S
C410 H419 0.930 . S
C411 O388 1.254 . S
C411 O389 1.268 . S
H412 C397 0.930 . S
H413 C398 0.930 . S
H414 C400 0.930 . S
H415 C401 0.930 . S
H416 C406 0.930 . S
H417 C407 0.930 . S
H418 C409 0.930 . S
H419 C410 0.930 . S
Gd420 N451 2.661 . S
Gd420 N457 2.601 . S
Gd420 O464 2.545 . S
Gd420 O465 2.606 . S
Gd420 O467 2.429 . S
Gd420 O468 2.545 . S
Gd420 O469 2.412 . S
Gd420 O471 2.362 . S
Gd420 O472 2.324 . S
Gd420 C479 2.828 . S
Gd421 N430 2.661 . S
Gd421 N434 2.601 . S
Gd421 O465 2.362 . S
Gd421 O466 2.324 . S
Gd421 O470 2.545 . S
Gd421 O471 2.606 . S
Gd421 O473 2.429 . S
Gd421 O474 2.545 . S
Gd421 O475 2.412 . S
Gd421 C488 2.828 . S
C422 C425 1.417 . S
C422 C427 1.431 . S
C422 C428 1.412 . S
C423 C426 1.437 . S
C423 C427 1.317 . S
C423 H442 0.929 . S
C424 C425 1.426 . S
C424 C426 1.413 . S
C424 N434 1.359 . S
C425 C422 1.417 . S
C425 C424 1.426 . S
C425 N430 1.350 . S
C426 C423 1.437 . S
C426 C424 1.413 . S
C426 C436 1.391 . S
C427 C422 1.431 . S
C427 C423 1.317 . S
C427 H438 0.930 . S
C428 C422 1.412 . S
C428 C429 1.355 . S
C428 H440 0.930 . S
C429 C428 1.355 . S
C429 C431 1.402 . S
C429 H441 0.930 . S
N430 Gd421 2.661 . S
N430 C425 1.350 . S
N430 C431 1.307 . S
C431 C429 1.402 . S
C431 N430 1.307 . S
C431 H432 0.930 . S
H432 C431 0.930 . S
C433 N434 1.334 . S
C433 C435 1.394 . S
C433 H437 0.930 . S
N434 Gd421 2.601 . S
N434 C424 1.359 . S
N434 C433 1.334 . S
C435 C433 1.394 . S
C435 C436 1.359 . S
C435 H447 0.930 . S
C436 C426 1.391 . S
C436 C435 1.359 . S
C436 H448 0.929 . S
H437 C433 0.930 . S
H438 C427 0.930 . S
H439 C456 0.930 . S
H440 C428 0.930 . S
H441 C429 0.930 . S
H442 C423 0.929 . S
H443 C461 0.930 . S
H444 C452 0.930 . S
H445 C453 0.930 . S
H446 C477 0.929 . S
H447 C435 0.930 . S
H448 C436 0.929 . S
H449 C478 0.930 . S
H450 C459 0.930 . S
N451 Gd420 2.661 . S
N451 C455 1.350 . S
N451 C456 1.307 . S
C452 H444 0.930 . S
C452 C453 1.355 . S
C452 C454 1.412 . S
C453 H445 0.930 . S
C453 C452 1.355 . S
C453 C456 1.402 . S
C454 C452 1.412 . S
C454 C455 1.417 . S
C454 C478 1.431 . S
C455 N451 1.350 . S
C455 C454 1.417 . S
C455 C458 1.426 . S
C456 H439 0.930 . S
C456 N451 1.307 . S
C456 C453 1.402 . S
N457 Gd420 2.601 . S
N457 C458 1.359 . S
N457 C461 1.334 . S
C458 C455 1.426 . S
C458 N457 1.359 . S
C458 C462 1.413 . S
C459 H450 0.930 . S
C459 C460 1.359 . S
C459 C461 1.394 . S
C460 C459 1.359 . S
C460 C462 1.391 . S
C460 H463 0.929 . S
C461 H443 0.930 . S
C461 N457 1.334 . S
C461 C459 1.394 . S
C462 C458 1.413 . S
C462 C460 1.391 . S
C462 C477 1.437 . S
H463 C460 0.929 . S
O464 Gd420 2.545 . S
O464 C479 1.258 . S
O465 Gd420 2.606 . S
O465 Gd421 2.362 . S
O465 C476 1.284 . S
O466 Gd421 2.324 . S
O466 C486 1.254 . S
O467 Gd420 2.429 . S
O467 C486 1.268 . S
O468 Gd420 2.545 . S
O468 C476 1.250 . S
O469 Gd420 2.412 . S
O469 C479 1.252 . S
O470 Gd421 2.545 . S
O470 C488 1.258 . S
O471 Gd420 2.362 . S
O471 Gd421 2.606 . S
O471 C487 1.284 . S
O472 Gd420 2.324 . S
O472 C495 1.254 . S
O473 Gd421 2.429 . S
O473 C495 1.268 . S
O474 Gd421 2.545 . S
O474 C487 1.250 . S
O475 Gd421 2.412 . S
O475 C488 1.252 . S
C476 O465 1.284 . S
C476 O468 1.250 . S
C477 H446 0.929 . S
C477 C462 1.437 . S
C477 C478 1.317 . S
C478 H449 0.930 . S
C478 C454 1.431 . S
C478 C477 1.317 . S
C479 Gd420 2.828 . S
C479 O464 1.258 . S
C479 O469 1.252 . S
C479 C480 1.497 . S
C480 C479 1.497 . S
C480 C481 1.395 . S
C480 C482 1.380 . S
C481 C480 1.395 . S
C481 C484 1.398 . S
C481 H496 0.930 . S
C482 C480 1.380 . S
C482 C483 1.391 . S
C482 H497 0.930 . S
C483 C482 1.391 . S
C483 C485 1.387 . S
C484 C481 1.398 . S
C484 C485 1.380 . S
C484 H498 0.930 . S
C485 C483 1.387 . S
C485 C484 1.380 . S
C485 H499 0.930 . S
C486 O466 1.254 . S
C486 O467 1.268 . S
C487 O471 1.284 . S
C487 O474 1.250 . S
C488 Gd421 2.828 . S
C488 O470 1.258 . S
C488 O475 1.252 . S
C488 C489 1.497 . S
C489 C488 1.497 . S
C489 C490 1.395 . S
C489 C491 1.380 . S
C490 C489 1.395 . S
C490 C493 1.398 . S
C490 H500 0.930 . S
C491 C489 1.380 . S
C491 C492 1.391 . S
C491 H501 0.930 . S
C492 C491 1.391 . S
C492 C494 1.387 . S
C493 C490 1.398 . S
C493 C494 1.380 . S
C493 H502 0.930 . S
C494 C492 1.387 . S
C494 C493 1.380 . S
C494 H503 0.930 . S
C495 O472 1.254 . S
C495 O473 1.268 . S
H496 C481 0.930 . S
H497 C482 0.930 . S
H498 C484 0.930 . S
H499 C485 0.930 . S
H500 C490 0.930 . S
H501 C491 0.930 . S
H502 C493 0.930 . S
H503 C494 0.930 . S
Gd504 N535 2.661 . S
Gd504 N541 2.601 . S
Gd504 O548 2.545 . S
Gd504 O549 2.606 . S
Gd504 O551 2.429 . S
Gd504 O552 2.545 . S
Gd504 O553 2.412 . S
Gd504 O555 2.362 . S
Gd504 O556 2.324 . S
Gd504 C563 2.828 . S
Gd505 N514 2.661 . S
Gd505 N518 2.601 . S
Gd505 O549 2.362 . S
Gd505 O550 2.324 . S
Gd505 O554 2.545 . S
Gd505 O555 2.606 . S
Gd505 O557 2.429 . S
Gd505 O558 2.545 . S
Gd505 O559 2.412 . S
Gd505 C572 2.828 . S
C506 C509 1.417 . S
C506 C511 1.431 . S
C506 C512 1.412 . S
C507 C510 1.437 . S
C507 C511 1.317 . S
C507 H526 0.929 . S
C508 C509 1.426 . S
C508 C510 1.413 . S
C508 N518 1.359 . S
C509 C506 1.417 . S
C509 C508 1.426 . S
C509 N514 1.350 . S
C510 C507 1.437 . S
C510 C508 1.413 . S
C510 C520 1.391 . S
C511 C506 1.431 . S
C511 C507 1.317 . S
C511 H522 0.930 . S
C512 C506 1.412 . S
C512 C513 1.355 . S
C512 H524 0.930 . S
C513 C512 1.355 . S
C513 C515 1.402 . S
C513 H525 0.930 . S
N514 Gd505 2.661 . S
N514 C509 1.350 . S
N514 C515 1.307 . S
C515 C513 1.402 . S
C515 N514 1.307 . S
C515 H516 0.930 . S
H516 C515 0.930 . S
C517 N518 1.334 . S
C517 C519 1.394 . S
C517 H521 0.930 . S
N518 Gd505 2.601 . S
N518 C508 1.359 . S
N518 C517 1.334 . S
C519 C517 1.394 . S
C519 C520 1.359 . S
C519 H531 0.930 . S
C520 C510 1.391 . S
C520 C519 1.359 . S
C520 H532 0.929 . S
H521 C517 0.930 . S
H522 C511 0.930 . S
H523 C540 0.930 . S
H524 C512 0.930 . S
H525 C513 0.930 . S
H526 C507 0.929 . S
H527 C545 0.930 . S
H528 C536 0.930 . S
H529 C537 0.930 . S
H530 C561 0.929 . S
H531 C519 0.930 . S
H532 C520 0.929 . S
H533 C562 0.930 . S
H534 C543 0.930 . S
N535 Gd504 2.661 . S
N535 C539 1.350 . S
N535 C540 1.307 . S
C536 H528 0.930 . S
C536 C537 1.355 . S
C536 C538 1.412 . S
C537 H529 0.930 . S
C537 C536 1.355 . S
C537 C540 1.402 . S
C538 C536 1.412 . S
C538 C539 1.417 . S
C538 C562 1.431 . S
C539 N535 1.350 . S
C539 C538 1.417 . S
C539 C542 1.426 . S
C540 H523 0.930 . S
C540 N535 1.307 . S
C540 C537 1.402 . S
N541 Gd504 2.601 . S
N541 C542 1.359 . S
N541 C545 1.334 . S
C542 C539 1.426 . S
C542 N541 1.359 . S
C542 C546 1.413 . S
C543 H534 0.930 . S
C543 C544 1.359 . S
C543 C545 1.394 . S
C544 C543 1.359 . S
C544 C546 1.391 . S
C544 H547 0.929 . S
C545 H527 0.930 . S
C545 N541 1.334 . S
C545 C543 1.394 . S
C546 C542 1.413 . S
C546 C544 1.391 . S
C546 C561 1.437 . S
H547 C544 0.929 . S
O548 Gd504 2.545 . S
O548 C563 1.258 . S
O549 Gd504 2.606 . S
O549 Gd505 2.362 . S
O549 C560 1.284 . S
O550 Gd505 2.324 . S
O550 C570 1.254 . S
O551 Gd504 2.429 . S
O551 C570 1.268 . S
O552 Gd504 2.545 . S
O552 C560 1.250 . S
O553 Gd504 2.412 . S
O553 C563 1.252 . S
O554 Gd505 2.545 . S
O554 C572 1.258 . S
O555 Gd504 2.362 . S
O555 Gd505 2.606 . S
O555 C571 1.284 . S
O556 Gd504 2.324 . S
O556 C579 1.254 . S
O557 Gd505 2.429 . S
O557 C579 1.268 . S
O558 Gd505 2.545 . S
O558 C571 1.250 . S
O559 Gd505 2.412 . S
O559 C572 1.252 . S
C560 O549 1.284 . S
C560 O552 1.250 . S
C561 H530 0.929 . S
C561 C546 1.437 . S
C561 C562 1.317 . S
C562 H533 0.930 . S
C562 C538 1.431 . S
C562 C561 1.317 . S
C563 Gd504 2.828 . S
C563 O548 1.258 . S
C563 O553 1.252 . S
C563 C564 1.497 . S
C564 C563 1.497 . S
C564 C565 1.395 . S
C564 C566 1.380 . S
C565 C564 1.395 . S
C565 C568 1.398 . S
C565 H580 0.930 . S
C566 C564 1.380 . S
C566 C567 1.391 . S
C566 H581 0.930 . S
C567 C566 1.391 . S
C567 C569 1.387 . S
C568 C565 1.398 . S
C568 C569 1.380 . S
C568 H582 0.930 . S
C569 C567 1.387 . S
C569 C568 1.380 . S
C569 H583 0.930 . S
C570 O550 1.254 . S
C570 O551 1.268 . S
C571 O555 1.284 . S
C571 O558 1.250 . S
C572 Gd505 2.828 . S
C572 O554 1.258 . S
C572 O559 1.252 . S
C572 C573 1.497 . S
C573 C572 1.497 . S
C573 C574 1.395 . S
C573 C575 1.380 . S
C574 C573 1.395 . S
C574 C577 1.398 . S
C574 H584 0.930 . S
C575 C573 1.380 . S
C575 C576 1.391 . S
C575 H585 0.930 . S
C576 C575 1.391 . S
C576 C578 1.387 . S
C577 C574 1.398 . S
C577 C578 1.380 . S
C577 H586 0.930 . S
C578 C576 1.387 . S
C578 C577 1.380 . S
C578 H587 0.930 . S
C579 O556 1.254 . S
C579 O557 1.268 . S
H580 C565 0.930 . S
H581 C566 0.930 . S
H582 C568 0.930 . S
H583 C569 0.930 . S
H584 C574 0.930 . S
H585 C575 0.930 . S
H586 C577 0.930 . S
H587 C578 0.930 . S
Gd588 N619 2.661 . S
Gd588 N625 2.601 . S
Gd588 O632 2.545 . S
Gd588 O633 2.606 . S
Gd588 O635 2.429 . S
Gd588 O636 2.545 . S
Gd588 O637 2.412 . S
Gd588 O639 2.362 . S
Gd588 O640 2.324 . S
Gd588 C647 2.828 . S
Gd589 N598 2.661 . S
Gd589 N602 2.601 . S
Gd589 O633 2.362 . S
Gd589 O634 2.324 . S
Gd589 O638 2.545 . S
Gd589 O639 2.606 . S
Gd589 O641 2.429 . S
Gd589 O642 2.545 . S
Gd589 O643 2.412 . S
Gd589 C656 2.828 . S
C590 C593 1.417 . S
C590 C595 1.431 . S
C590 C596 1.412 . S
C591 C594 1.437 . S
C591 C595 1.317 . S
C591 H610 0.929 . S
C592 C593 1.426 . S
C592 C594 1.413 . S
C592 N602 1.359 . S
C593 C590 1.417 . S
C593 C592 1.426 . S
C593 N598 1.350 . S
C594 C591 1.437 . S
C594 C592 1.413 . S
C594 C604 1.391 . S
C595 C590 1.431 . S
C595 C591 1.317 . S
C595 H606 0.930 . S
C596 C590 1.412 . S
C596 C597 1.355 . S
C596 H608 0.930 . S
C597 C596 1.355 . S
C597 C599 1.402 . S
C597 H609 0.930 . S
N598 Gd589 2.661 . S
N598 C593 1.350 . S
N598 C599 1.307 . S
C599 C597 1.402 . S
C599 N598 1.307 . S
C599 H600 0.930 . S
H600 C599 0.930 . S
C601 N602 1.334 . S
C601 C603 1.394 . S
C601 H605 0.930 . S
N602 Gd589 2.601 . S
N602 C592 1.359 . S
N602 C601 1.334 . S
C603 C601 1.394 . S
C603 C604 1.359 . S
C603 H615 0.930 . S
C604 C594 1.391 . S
C604 C603 1.359 . S
C604 H616 0.929 . S
H605 C601 0.930 . S
H606 C595 0.930 . S
H607 C624 0.930 . S
H608 C596 0.930 . S
H609 C597 0.930 . S
H610 C591 0.929 . S
H611 C629 0.930 . S
H612 C620 0.930 . S
H613 C621 0.930 . S
H614 C645 0.929 . S
H615 C603 0.930 . S
H616 C604 0.929 . S
H617 C646 0.930 . S
H618 C627 0.930 . S
N619 Gd588 2.661 . S
N619 C623 1.350 . S
N619 C624 1.307 . S
C620 H612 0.930 . S
C620 C621 1.355 . S
C620 C622 1.412 . S
C621 H613 0.930 . S
C621 C620 1.355 . S
C621 C624 1.402 . S
C622 C620 1.412 . S
C622 C623 1.417 . S
C622 C646 1.431 . S
C623 N619 1.350 . S
C623 C622 1.417 . S
C623 C626 1.426 . S
C624 H607 0.930 . S
C624 N619 1.307 . S
C624 C621 1.402 . S
N625 Gd588 2.601 . S
N625 C626 1.359 . S
N625 C629 1.334 . S
C626 C623 1.426 . S
C626 N625 1.359 . S
C626 C630 1.413 . S
C627 H618 0.930 . S
C627 C628 1.359 . S
C627 C629 1.394 . S
C628 C627 1.359 . S
C628 C630 1.391 . S
C628 H631 0.929 . S
C629 H611 0.930 . S
C629 N625 1.334 . S
C629 C627 1.394 . S
C630 C626 1.413 . S
C630 C628 1.391 . S
C630 C645 1.437 . S
H631 C628 0.929 . S
O632 Gd588 2.545 . S
O632 C647 1.258 . S
O633 Gd588 2.606 . S
O633 Gd589 2.362 . S
O633 C644 1.284 . S
O634 Gd589 2.324 . S
O634 C654 1.254 . S
O635 Gd588 2.429 . S
O635 C654 1.268 . S
O636 Gd588 2.545 . S
O636 C644 1.250 . S
O637 Gd588 2.412 . S
O637 C647 1.252 . S
O638 Gd589 2.545 . S
O638 C656 1.258 . S
O639 Gd588 2.362 . S
O639 Gd589 2.606 . S
O639 C655 1.284 . S
O640 Gd588 2.324 . S
O640 C663 1.254 . S
O641 Gd589 2.429 . S
O641 C663 1.268 . S
O642 Gd589 2.545 . S
O642 C655 1.250 . S
O643 Gd589 2.412 . S
O643 C656 1.252 . S
C644 O633 1.284 . S
C644 O636 1.250 . S
C645 H614 0.929 . S
C645 C630 1.437 . S
C645 C646 1.317 . S
C646 H617 0.930 . S
C646 C622 1.431 . S
C646 C645 1.317 . S
C647 Gd588 2.828 . S
C647 O632 1.258 . S
C647 O637 1.252 . S
C647 C648 1.497 . S
C648 C647 1.497 . S
C648 C649 1.395 . S
C648 C650 1.380 . S
C649 C648 1.395 . S
C649 C652 1.398 . S
C649 H664 0.930 . S
C650 C648 1.380 . S
C650 C651 1.391 . S
C650 H665 0.930 . S
C651 C650 1.391 . S
C651 C653 1.387 . S
C652 C649 1.398 . S
C652 C653 1.380 . S
C652 H666 0.930 . S
C653 C651 1.387 . S
C653 C652 1.380 . S
C653 H667 0.930 . S
C654 O634 1.254 . S
C654 O635 1.268 . S
C655 O639 1.284 . S
C655 O642 1.250 . S
C656 Gd589 2.828 . S
C656 O638 1.258 . S
C656 O643 1.252 . S
C656 C657 1.497 . S
C657 C656 1.497 . S
C657 C658 1.395 . S
C657 C659 1.380 . S
C658 C657 1.395 . S
C658 C661 1.398 . S
C658 H668 0.930 . S
C659 C657 1.380 . S
C659 C660 1.391 . S
C659 H669 0.930 . S
C660 C659 1.391 . S
C660 C662 1.387 . S
C661 C658 1.398 . S
C661 C662 1.380 . S
C661 H670 0.930 . S
C662 C660 1.387 . S
C662 C661 1.380 . S
C662 H671 0.930 . S
C663 O640 1.254 . S
C663 O641 1.268 . S
H664 C649 0.930 . S
H665 C650 0.930 . S
H666 C652 0.930 . S
H667 C653 0.930 . S
H668 C658 0.930 . S
H669 C659 0.930 . S
H670 C661 0.930 . S
H671 C662 0.930 . S
Co672 O675 2.042 . S
Co672 O682 2.264 . S
Co672 O701 2.286 . S
Co672 O702 2.069 . S
Co672 O704 2.015 1_455 S
Co673 O675 2.122 . S
Co673 O681 2.073 . S
Co673 O682 2.327 . S
Co673 O683 1.976 1_455 S
Co674 O675 2.087 1_545 S
Co674 O677 2.087 1_455 S
Co674 O684 2.111 1_445 S
Co674 O685 2.143 . S
Co674 O689 2.111 . S
Co674 O703 2.143 1_445 S
O675 Co672 2.042 . S
O675 Co673 2.122 . S
O675 Co674 2.087 1_565 S
O675 H676 0.980 1_565 S
H676 O675 0.980 1_545 S
O677 Co674 2.087 1_655 S
O677 Co678 2.042 . S
O677 Co679 2.122 . S
O677 H680 0.980 . S
Co678 O677 2.042 . S
Co678 O686 2.286 . S
Co678 O687 2.069 . S
Co678 O688 2.015 1_655 S
Co678 O691 2.264 . S
Co679 O677 2.122 . S
Co679 O690 1.976 1_655 S
Co679 O691 2.327 . S
Co679 O692 2.073 . S
H680 O677 0.980 . S
O681 Co673 2.073 . S
O681 C696 1.245 . S
O682 Co672 2.264 . S
O682 Co673 2.327 . S
O682 C696 1.257 . S
O683 Co673 1.976 1_655 S
O683 C695 1.251 . S
O684 Co674 2.111 1_665 S
O684 C695 1.274 . S
O685 Co674 2.143 . S
O685 C698 1.246 . S
O686 Co678 2.286 . S
O686 C697 1.259 . S
O687 Co678 2.069 . S
O687 C697 1.289 . S
O688 Co678 2.015 1_455 S
O688 C698 1.257 . S
O689 Co674 2.111 . S
O689 C699 1.274 . S
O690 Co679 1.976 1_455 S
O690 C699 1.251 . S
O691 Co678 2.264 . S
O691 Co679 2.327 . S
O691 C700 1.257 . S
O692 Co679 2.073 . S
O692 C700 1.245 . S
C693 O701 1.259 . S
C693 O702 1.289 . S
C694 O703 1.246 . S
C694 O704 1.257 . S
C695 O683 1.251 . S
C695 O684 1.274 . S
C696 O681 1.245 . S
C696 O682 1.257 . S
C697 O686 1.259 . S
C697 O687 1.289 . S
C698 O685 1.246 . S
C698 O688 1.257 . S
C699 O689 1.274 . S
C699 O690 1.251 . S
C700 O691 1.257 . S
C700 O692 1.245 . S
O701 Co672 2.286 . S
O701 C693 1.259 . S
O702 Co672 2.069 . S
O702 C693 1.289 . S
O703 Co674 2.143 1_665 S
O703 C694 1.246 . S
O704 Co672 2.015 1_655 S
O704 C694 1.257 . S
Co705 O708 2.042 1_566 S
Co705 O715 2.264 1_556 S
Co705 O734 2.286 . S
Co705 O735 2.069 . S
Co705 O737 2.015 . S
Co706 O708 2.122 1_565 S
Co706 O714 2.073 . S
Co706 O715 2.327 . S
Co706 O716 1.976 . S
Co707 O708 2.087 . S
Co707 O710 2.087 1_554 S
Co707 O717 2.111 . S
Co707 O718 2.143 . S
Co707 O722 2.111 1_554 S
Co707 O736 2.143 1_554 S
O708 Co705 2.042 1_544 S
O708 Co706 2.122 1_545 S
O708 Co707 2.087 . S
O708 H709 0.980 . S
H709 O708 0.980 . S
O710 Co707 2.087 1_556 S
O710 Co711 2.042 1_556 S
O710 Co712 2.122 . S
O710 H713 0.980 . S
Co711 O710 2.042 1_554 S
Co711 O719 2.286 . S
Co711 O720 2.069 . S
Co711 O721 2.015 . S
Co711 O724 2.264 1_554 S
Co712 O710 2.122 . S
Co712 O723 1.976 . S
Co712 O724 2.327 . S
Co712 O725 2.073 . S
H713 O710 0.980 . S
O714 Co706 2.073 . S
O714 C729 1.245 . S
O715 Co705 2.264 1_554 S
O715 Co706 2.327 . S
O715 C729 1.257 . S
O716 Co706 1.976 . S
O716 C728 1.251 . S
O717 Co707 2.111 . S
O717 C728 1.274 1_545 S
O718 Co707 2.143 . S
O718 C731 1.246 . S
O719 Co711 2.286 . S
O719 C730 1.259 . S
O720 Co711 2.069 . S
O720 C730 1.289 . S
O721 Co711 2.015 . S
O721 C731 1.257 . S
O722 Co707 2.111 1_556 S
O722 C732 1.274 . S
O723 Co712 1.976 . S
O723 C732 1.251 . S
O724 Co711 2.264 1_556 S
O724 Co712 2.327 . S
O724 C733 1.257 . S
O725 Co712 2.073 . S
O725 C733 1.245 . S
C726 O734 1.259 . S
C726 O735 1.289 . S
C727 O736 1.246 1_565 S
C727 O737 1.257 . S
C728 O716 1.251 . S
C728 O717 1.274 1_565 S
C729 O714 1.245 . S
C729 O715 1.257 . S
C730 O719 1.259 . S
C730 O720 1.289 . S
C731 O718 1.246 . S
C731 O721 1.257 . S
C732 O722 1.274 . S
C732 O723 1.251 . S
C733 O724 1.257 . S
C733 O725 1.245 . S
O734 Co705 2.286 . S
O734 C726 1.259 . S
O735 Co705 2.069 . S
O735 C726 1.289 . S
O736 Co707 2.143 1_556 S
O736 C727 1.246 1_545 S
O737 Co705 2.015 . S
O737 C727 1.257 . S
Co738 O741 2.042 . S
Co738 O748 2.264 . S
Co738 O767 2.286 . S
Co738 O768 2.069 . S
Co738 O770 2.015 1_455 S
Co739 O741 2.122 . S
Co739 O747 2.073 . S
Co739 O748 2.327 . S
Co739 O749 1.976 1_455 S
Co740 O741 2.087 . S
Co740 O743 2.087 1_455 S
Co740 O750 2.111 1_455 S
Co740 O751 2.143 . S
Co740 O755 2.111 . S
Co740 O769 2.143 1_455 S
O741 Co738 2.042 . S
O741 Co739 2.122 . S
O741 Co740 2.087 . S
O741 H742 0.980 . S
H742 O741 0.980 . S
O743 Co740 2.087 1_655 S
O743 Co744 2.042 . S
O743 Co745 2.122 1_554 S
O743 H746 0.980 . S
Co744 O743 2.042 . S
Co744 O752 2.286 . S
Co744 O753 2.069 . S
Co744 O754 2.015 1_655 S
Co744 O757 2.264 . S
Co745 O743 2.122 1_556 S
Co745 O756 1.976 1_655 S
Co745 O757 2.327 1_556 S
Co745 O758 2.073 . S
H746 O743 0.980 . S
O747 Co739 2.073 . S
O747 C762 1.245 . S
O748 Co738 2.264 . S
O748 Co739 2.327 . S
O748 C762 1.257 . S
O749 Co739 1.976 1_655 S
O749 C761 1.251 . S
O750 Co740 2.111 1_655 S
O750 C761 1.274 . S
O751 Co740 2.143 . S
O751 C764 1.246 . S
O752 Co744 2.286 . S
O752 C763 1.259 . S
O753 Co744 2.069 . S
O753 C763 1.289 . S
O754 Co744 2.015 1_455 S
O754 C764 1.257 . S
O755 Co740 2.111 . S
O755 C765 1.274 . S
O756 Co745 1.976 1_455 S
O756 C765 1.251 1_556 S
O757 Co744 2.264 . S
O757 Co745 2.327 1_554 S
O757 C766 1.262 . S
O758 Co745 2.073 . S
O758 C766 1.237 1_556 S
C759 O767 1.259 . S
C759 O768 1.289 . S
C760 O769 1.246 . S
C760 O770 1.257 . S
C761 O749 1.251 . S
C761 O750 1.274 . S
C762 O747 1.245 . S
C762 O748 1.257 . S
C763 O752 1.259 . S
C763 O753 1.289 . S
C764 O751 1.246 . S
C764 O754 1.257 . S
C765 O755 1.274 . S
C765 O756 1.251 1_554 S
C766 O757 1.262 . S
C766 O758 1.237 1_554 S
O767 Co738 2.286 . S
O767 C759 1.259 . S
O768 Co738 2.069 . S
O768 C759 1.289 . S
O769 Co740 2.143 1_655 S
O769 C760 1.246 . S
O770 Co738 2.015 1_655 S
O770 C760 1.257 . S
Co771 O774 2.042 . S
Co771 O781 2.264 . S
Co771 O800 2.286 1_554 S
Co771 O801 2.069 1_554 S
Co771 O803 2.015 1_554 S
Co772 O774 2.122 . S
Co772 O780 2.073 . S
Co772 O781 2.327 . S
Co772 O782 1.976 . S
Co773 O774 2.087 . S
Co773 O776 2.087 . S
Co773 O783 2.111 . S
Co773 O784 2.143 . S
Co773 O788 2.111 1_554 S
Co773 O802 2.143 1_554 S
O774 Co771 2.042 . S
O774 Co772 2.122 . S
O774 Co773 2.087 . S
O774 H775 0.980 . S
H775 O774 0.980 . S
O776 Co773 2.087 . S
O776 Co777 2.042 . S
O776 Co778 2.122 1_554 S
O776 H779 0.980 . S
Co777 O776 2.042 . S
Co777 O785 2.286 . S
Co777 O786 2.069 . S
Co777 O787 2.015 . S
Co777 O790 2.264 1_554 S
Co778 O776 2.122 1_556 S
Co778 O789 1.976 . S
Co778 O790 2.327 . S
Co778 O791 2.073 . S
H779 O776 0.980 . S
O780 Co772 2.073 . S
O780 C795 1.245 . S
O781 Co771 2.264 . S
O781 Co772 2.327 . S
O781 C795 1.257 . S
O782 Co772 1.976 . S
O782 C794 1.251 . S
O783 Co773 2.111 . S
O783 C794 1.274 . S
O784 Co773 2.143 . S
O784 C797 1.246 . S
O785 Co777 2.286 . S
O785 C796 1.259 . S
O786 Co777 2.069 . S
O786 C796 1.289 . S
O787 Co777 2.015 . S
O787 C797 1.257 . S
O788 Co773 2.111 1_556 S
O788 C798 1.274 . S
O789 Co778 1.976 . S
O789 C798 1.251 . S
O790 Co777 2.264 1_556 S
O790 Co778 2.327 . S
O790 C799 1.257 . S
O791 Co778 2.073 . S
O791 C799 1.245 . S
C792 O800 1.259 . S
C792 O801 1.289 . S
C793 O802 1.246 . S
C793 O803 1.257 . S
C794 O782 1.251 . S
C794 O783 1.274 . S
C795 O780 1.245 . S
C795 O781 1.257 . S
C796 O785 1.259 . S
C796 O786 1.289 . S
C797 O784 1.246 . S
C797 O787 1.257 . S
C798 O788 1.274 . S
C798 O789 1.251 . S
C799 O790 1.257 . S
C799 O791 1.245 . S
O800 Co771 2.286 1_556 S
O800 C792 1.259 . S
O801 Co771 2.069 1_556 S
O801 C792 1.289 . S
O802 Co773 2.143 1_556 S
O802 C793 1.246 . S
O803 Co771 2.015 1_556 S
O803 C793 1.257 . S
Co804 O807 2.042 . S
Co804 O814 2.264 . S
Co804 O833 2.286 . S
Co804 O834 2.069 . S
Co804 O836 2.015 . S
Co805 O807 2.122 . S
Co805 O813 2.073 . S
Co805 O814 2.327 . S
Co805 O815 1.976 . S
Co806 O807 2.087 . S
Co806 O809 2.087 . S
Co806 O816 2.111 . S
Co806 O817 2.143 1_455 S
Co806 O821 2.111 . S
Co806 O835 2.143 . S
O807 Co804 2.042 . S
O807 Co805 2.122 . S
O807 Co806 2.087 . S
O807 H808 0.980 . S
H808 O807 0.980 . S
O809 Co806 2.087 . S
O809 Co810 2.042 1_455 S
O809 Co811 2.122 1_455 S
O809 H812 0.980 . S
Co810 O809 2.042 1_655 S
Co810 O818 2.286 . S
Co810 O819 2.069 . S
Co810 O820 2.015 . S
Co810 O823 2.264 . S
Co811 O809 2.122 1_655 S
Co811 O822 1.976 . S
Co811 O823 2.327 . S
Co811 O824 2.073 . S
H812 O809 0.980 . S
O813 Co805 2.073 . S
O813 C828 1.245 . S
O814 Co804 2.264 . S
O814 Co805 2.327 . S
O814 C828 1.257 . S
O815 Co805 1.976 . S
O815 C827 1.251 . S
O816 Co806 2.111 . S
O816 C827 1.274 . S
O817 Co806 2.143 1_655 S
O817 C830 1.246 . S
O818 Co810 2.286 . S
O818 C829 1.259 . S
O819 Co810 2.069 . S
O819 C829 1.289 . S
O820 Co810 2.015 . S
O820 C830 1.257 . S
O821 Co806 2.111 . S
O821 C831 1.274 1_455 S
O822 Co811 1.976 . S
O822 C831 1.251 . S
O823 Co810 2.264 . S
O823 Co811 2.327 . S
O823 C832 1.257 . S
O824 Co811 2.073 . S
O824 C832 1.245 . S
C825 O833 1.259 . S
C825 O834 1.289 . S
C826 O835 1.246 . S
C826 O836 1.257 . S
C827 O815 1.251 . S
C827 O816 1.274 . S
C828 O813 1.245 . S
C828 O814 1.257 . S
C829 O818 1.259 . S
C829 O819 1.289 . S
C830 O817 1.246 . S
C830 O820 1.257 . S
C831 O821 1.274 1_655 S
C831 O822 1.251 . S
C832 O823 1.257 . S
C832 O824 1.245 . S
O833 Co804 2.286 . S
O833 C825 1.259 . S
O834 Co804 2.069 . S
O834 C825 1.289 . S
O835 Co806 2.143 . S
O835 C826 1.246 . S
O836 Co804 2.015 . S
O836 C826 1.257 . S
Co837 O840 2.042 . S
Co837 O847 2.264 . S
Co837 O866 2.286 . S
Co837 O867 2.069 . S
Co837 O869 2.015 1_565 S
Co838 O840 2.122 . S
Co838 O846 2.104 . S
Co838 O847 2.342 . S
Co838 O848 1.949 1_565 S
Co839 O840 2.087 1_545 S
Co839 O842 2.087 . S
Co839 O849 2.111 . S
Co839 O850 2.143 1_545 S
Co839 O854 2.111 1_545 S
Co839 O868 2.143 . S
O840 Co837 2.042 . S
O840 Co838 2.122 . S
O840 Co839 2.087 1_565 S
O840 H841 0.980 . S
H841 O840 0.980 . S
O842 Co839 2.087 . S
O842 Co843 2.042 . S
O842 Co844 2.122 . S
O842 H845 0.980 . S
Co843 O842 2.042 . S
Co843 O851 2.286 . S
Co843 O852 2.069 . S
Co843 O853 2.015 1_545 S
Co843 O856 2.264 . S
Co844 O842 2.122 . S
Co844 O855 1.976 1_545 S
Co844 O856 2.327 . S
Co844 O857 2.073 . S
H845 O842 0.980 . S
O846 Co838 2.104 . S
O846 C861 1.245 . S
O847 Co837 2.264 . S
O847 Co838 2.342 . S
O847 C861 1.257 . S
O848 Co838 1.949 1_545 S
O848 C860 1.251 . S
O849 Co839 2.111 . S
O849 C860 1.274 . S
O850 Co839 2.143 1_565 S
O850 C863 1.246 . S
O851 Co843 2.286 . S
O851 C862 1.259 . S
O852 Co843 2.069 . S
O852 C862 1.289 . S
O853 Co843 2.015 1_565 S
O853 C863 1.257 . S
O854 Co839 2.111 1_565 S
O854 C864 1.274 . S
O855 Co844 1.976 1_565 S
O855 C864 1.251 . S
O856 Co843 2.264 . S
O856 Co844 2.327 . S
O856 C865 1.257 . S
O857 Co844 2.073 . S
O857 C865 1.245 . S
C858 O866 1.259 . S
C858 O867 1.289 . S
C859 O868 1.246 . S
C859 O869 1.257 . S
C860 O848 1.251 . S
C860 O849 1.274 . S
C861 O846 1.245 . S
C861 O847 1.257 . S
C862 O851 1.259 . S
C862 O852 1.289 . S
C863 O850 1.246 . S
C863 O853 1.257 . S
C864 O854 1.274 . S
C864 O855 1.251 . S
C865 O856 1.257 . S
C865 O857 1.245 . S
O866 Co837 2.286 . S
O866 C858 1.259 . S
O867 Co837 2.069 . S
O867 C858 1.289 . S
O868 Co839 2.143 . S
O868 C859 1.246 . S
O869 Co837 2.015 1_545 S
O869 C859 1.257 . S
H870 C876 0.930 . S
H871 C880 0.930 . S
H872 C885 0.929 . S
H873 C883 0.929 . S
H874 C878 0.929 . S
H875 C884 0.929 . S
C876 H870 0.930 . S
C876 C877 1.367 . S
C876 C884 1.378 . S
C877 C876 1.367 . S
C877 C885 1.433 . S
C878 H874 0.929 . S
C878 C880 1.378 . S
C878 C882 1.350 . S
C879 C882 1.463 . S
C879 C884 1.350 . S
C879 N887 1.427 . S
C880 H871 0.930 . S
C880 C878 1.378 . S
C880 C881 1.367 . S
C881 C880 1.367 . S
C881 C883 1.433 . S
C882 C878 1.350 . S
C882 C879 1.463 . S
C882 N886 1.427 . S
C883 H873 0.929 . S
C883 C881 1.433 . S
C883 N886 1.384 . S
C884 H875 0.929 . S
C884 C876 1.378 . S
C884 C879 1.350 . S
C885 H872 0.929 . S
C885 C877 1.433 . S
C885 N887 1.384 . S
N886 C882 1.427 . S
N886 C883 1.384 . S
N887 C879 1.427 . S
N887 C885 1.384 . S
H888 C894 0.930 . S
H889 C898 0.930 . S
H890 C903 0.929 . S
H891 C901 0.929 . S
H892 C896 0.929 . S
H893 C902 0.929 . S
C894 H888 0.930 . S
C894 C895 1.367 . S
C894 C902 1.378 . S
C895 C894 1.367 . S
C895 C903 1.433 . S
C896 H892 0.929 . S
C896 C898 1.378 . S
C896 C900 1.350 . S
C897 C900 1.463 . S
C897 C902 1.350 . S
C897 N905 1.427 . S
C898 H889 0.930 . S
C898 C896 1.378 . S
C898 C899 1.367 . S
C899 C898 1.367 . S
C899 C901 1.433 . S
C900 C896 1.350 . S
C900 C897 1.463 . S
C900 N904 1.427 . S
C901 H891 0.929 . S
C901 C899 1.433 . S
C901 N904 1.384 . S
C902 H893 0.929 . S
C902 C894 1.378 . S
C902 C897 1.350 . S
C903 H890 0.929 . S
C903 C895 1.433 . S
C903 N905 1.384 . S
N904 C900 1.427 . S
N904 C901 1.384 . S
N905 C897 1.427 . S
N905 C903 1.384 . S
H906 C912 0.930 . S
H907 C916 0.930 . S
H908 C921 0.929 . S
H909 C919 0.929 . S
H910 C914 0.929 . S
H911 C920 0.929 . S
C912 H906 0.930 . S
C912 C913 1.367 . S
C912 C920 1.378 . S
C913 C912 1.367 . S
C913 C921 1.433 . S
C914 H910 0.929 . S
C914 C916 1.378 . S
C914 C918 1.350 . S
C915 C918 1.463 . S
C915 C920 1.350 . S
C915 N923 1.427 . S
C916 H907 0.930 . S
C916 C914 1.378 . S
C916 C917 1.367 . S
C917 C916 1.367 . S
C917 C919 1.433 . S
C918 C914 1.350 . S
C918 C915 1.463 . S
C918 N922 1.427 . S
C919 H909 0.929 . S
C919 C917 1.433 . S
C919 N922 1.384 . S
C920 H911 0.929 . S
C920 C912 1.378 . S
C920 C915 1.350 . S
C921 H908 0.929 . S
C921 C913 1.433 . S
C921 N923 1.384 . S
N922 C918 1.427 . S
N922 C919 1.384 . S
N923 C915 1.427 . S
N923 C921 1.384 . S
H924 C930 0.930 . S
H925 C934 0.930 . S
H926 C939 0.929 . S
H927 C937 0.929 . S
H928 C932 0.929 . S
H929 C938 0.929 . S
C930 H924 0.930 . S
C930 C931 1.367 . S
C930 C938 1.378 . S
C931 C930 1.367 . S
C931 C939 1.433 . S
C932 H928 0.929 . S
C932 C934 1.378 . S
C932 C936 1.350 . S
C933 C936 1.463 . S
C933 C938 1.350 . S
C933 N941 1.427 . S
C934 H925 0.930 . S
C934 C932 1.378 . S
C934 C935 1.367 . S
C935 C934 1.367 . S
C935 C937 1.433 . S
C936 C932 1.350 . S
C936 C933 1.463 . S
C936 N940 1.427 . S
C937 H927 0.929 . S
C937 C935 1.433 . S
C937 N940 1.384 . S
C938 H929 0.929 . S
C938 C930 1.378 . S
C938 C933 1.350 . S
C939 H926 0.929 . S
C939 C931 1.433 . S
C939 N941 1.384 . S
N940 C936 1.427 . S
N940 C937 1.384 . S
N941 C933 1.427 . S
N941 C939 1.384 . S
H942 C948 0.930 . S
H943 C952 0.930 . S
H944 C957 0.929 . S
H945 C955 0.929 . S
H946 C950 0.929 . S
H947 C956 0.929 . S
C948 H942 0.930 . S
C948 C949 1.367 . S
C948 C956 1.378 . S
C949 C948 1.367 . S
C949 C957 1.433 . S
C950 H946 0.929 . S
C950 C952 1.378 . S
C950 C954 1.350 . S
C951 C954 1.463 . S
C951 C956 1.350 . S
C951 N959 1.427 . S
C952 H943 0.930 . S
C952 C950 1.378 . S
C952 C953 1.367 . S
C953 C952 1.367 . S
C953 C955 1.433 . S
C954 C950 1.350 . S
C954 C951 1.463 . S
C954 N958 1.427 . S
C955 H945 0.929 . S
C955 C953 1.433 . S
C955 N958 1.384 . S
C956 H947 0.929 . S
C956 C948 1.378 . S
C956 C951 1.350 . S
C957 H944 0.929 . S
C957 C949 1.433 . S
C957 N959 1.384 . S
N958 C954 1.427 . S
N958 C955 1.384 . S
N959 C951 1.427 . S
N959 C957 1.384 . S
H960 C966 0.930 . S
H961 C970 0.930 . S
H962 C975 0.929 . S
H963 C973 0.929 . S
H964 C968 0.929 . S
H965 C974 0.929 . S
C966 H960 0.930 . S
C966 C967 1.367 . S
C966 C974 1.378 . S
C967 C966 1.367 . S
C967 C975 1.433 . S
C968 H964 0.929 . S
C968 C970 1.378 . S
C968 C972 1.350 . S
C969 C972 1.463 . S
C969 C974 1.350 . S
C969 N977 1.427 . S
C970 H961 0.930 . S
C970 C968 1.378 . S
C970 C971 1.367 . S
C971 C970 1.367 . S
C971 C973 1.433 . S
C972 C968 1.350 . S
C972 C969 1.463 . S
C972 N976 1.427 . S
C973 H963 0.929 . S
C973 C971 1.433 . S
C973 N976 1.384 . S
C974 H965 0.929 . S
C974 C966 1.378 . S
C974 C969 1.350 . S
C975 H962 0.929 . S
C975 C967 1.433 . S
C975 N977 1.384 . S
N976 C972 1.427 . S
N976 C973 1.384 . S
N977 C969 1.427 . S
N977 C975 1.384 . S
H978 C984 0.930 . S
H979 C988 0.930 . S
H980 C993 0.929 . S
H981 C991 0.929 . S
H982 C986 0.929 . S
H983 C992 0.929 . S
C984 H978 0.930 . S
C984 C985 1.367 . S
C984 C992 1.378 . S
C985 C984 1.367 . S
C985 C993 1.433 . S
C986 H982 0.929 . S
C986 C988 1.378 . S
C986 C990 1.350 . S
C987 C990 1.463 . S
C987 C992 1.350 . S
C987 N995 1.427 . S
C988 H979 0.930 . S
C988 C986 1.378 . S
C988 C989 1.367 . S
C989 C988 1.367 . S
C989 C991 1.433 . S
C990 C986 1.350 . S
C990 C987 1.463 . S
C990 N994 1.427 . S
C991 H981 0.929 . S
C991 C989 1.433 . S
C991 N994 1.384 . S
C992 H983 0.929 . S
C992 C984 1.378 . S
C992 C987 1.350 . S
C993 H980 0.929 . S
C993 C985 1.433 . S
C993 N995 1.384 . S
N994 C990 1.427 . S
N994 C991 1.384 . S
N995 C987 1.427 . S
N995 C993 1.384 . S
H996 C1002 0.930 . S
H997 C1006 0.930 . S
H998 C1011 0.929 . S
H999 C1009 0.929 . S
H1000 C1004 0.929 . S
H1001 C1010 0.929 . S
C1002 H996 0.930 . S
C1002 C1003 1.367 . S
C1002 C1010 1.378 . S
C1003 C1002 1.367 . S
C1003 C1011 1.433 . S
C1004 H1000 0.929 . S
C1004 C1006 1.378 . S
C1004 C1008 1.350 . S
C1005 C1008 1.463 . S
C1005 C1010 1.350 . S
C1005 N1013 1.427 . S
C1006 H997 0.930 . S
C1006 C1004 1.378 . S
C1006 C1007 1.367 . S
C1007 C1006 1.367 . S
C1007 C1009 1.433 . S
C1008 C1004 1.350 . S
C1008 C1005 1.463 . S
C1008 N1012 1.427 . S
C1009 H999 0.929 . S
C1009 C1007 1.433 . S
C1009 N1012 1.384 . S
C1010 H1001 0.929 . S
C1010 C1002 1.378 . S
C1010 C1005 1.350 . S
C1011 H998 0.929 . S
C1011 C1003 1.433 . S
C1011 N1013 1.384 . S
N1012 C1008 1.427 . S
N1012 C1009 1.384 . S
N1013 C1005 1.427 . S
N1013 C1011 1.384 . S
H1014 C1020 0.930 . S
H1015 C1024 0.930 . S
H1016 C1029 0.929 . S
H1017 C1027 0.929 . S
H1018 C1022 0.929 . S
H1019 C1028 0.929 . S
C1020 H1014 0.930 . S
C1020 C1021 1.367 . S
C1020 C1028 1.378 . S
C1021 C1020 1.367 . S
C1021 C1029 1.433 . S
C1022 H1018 0.929 . S
C1022 C1024 1.378 . S
C1022 C1026 1.350 . S
C1023 C1026 1.463 . S
C1023 C1028 1.350 . S
C1023 N1031 1.427 . S
C1024 H1015 0.930 . S
C1024 C1022 1.378 . S
C1024 C1025 1.367 . S
C1025 C1024 1.367 . S
C1025 C1027 1.433 . S
C1026 C1022 1.350 . S
C1026 C1023 1.463 . S
C1026 N1030 1.427 . S
C1027 H1017 0.929 . S
C1027 C1025 1.433 . S
C1027 N1030 1.384 . S
C1028 H1019 0.929 . S
C1028 C1020 1.378 . S
C1028 C1023 1.350 . S
C1029 H1016 0.929 . S
C1029 C1021 1.433 . S
C1029 N1031 1.384 . S
N1030 C1026 1.427 . S
N1030 C1027 1.384 . S
N1031 C1023 1.427 . S
N1031 C1029 1.384 . S
H1032 C1038 0.930 . S
H1033 C1042 0.930 . S
H1034 C1047 0.929 . S
H1035 C1045 0.929 . S
H1036 C1040 0.929 . S
H1037 C1046 0.929 . S
C1038 H1032 0.930 . S
C1038 C1039 1.367 . S
C1038 C1046 1.378 . S
C1039 C1038 1.367 . S
C1039 C1047 1.433 . S
C1040 H1036 0.929 . S
C1040 C1042 1.378 . S
C1040 C1044 1.350 . S
C1041 C1044 1.463 . S
C1041 C1046 1.350 . S
C1041 N1049 1.427 . S
C1042 H1033 0.930 . S
C1042 C1040 1.378 . S
C1042 C1043 1.367 . S
C1043 C1042 1.367 . S
C1043 C1045 1.433 . S
C1044 C1040 1.350 . S
C1044 C1041 1.463 . S
C1044 N1048 1.427 . S
C1045 H1035 0.929 . S
C1045 C1043 1.433 . S
C1045 N1048 1.384 . S
C1046 H1037 0.929 . S
C1046 C1038 1.378 . S
C1046 C1041 1.350 . S
C1047 H1034 0.929 . S
C1047 C1039 1.433 . S
C1047 N1049 1.384 . S
N1048 C1044 1.427 . S
N1048 C1045 1.384 . S
N1049 C1041 1.427 . S
N1049 C1047 1.384 . S
H1050 C1056 0.930 . S
H1051 C1060 0.930 . S
H1052 C1065 0.929 . S
H1053 C1063 0.929 . S
H1054 C1058 0.929 . S
H1055 C1064 0.929 . S
C1056 H1050 0.930 . S
C1056 C1057 1.367 . S
C1056 C1064 1.378 . S
C1057 C1056 1.367 . S
C1057 C1065 1.433 . S
C1058 H1054 0.929 . S
C1058 C1060 1.378 . S
C1058 C1062 1.350 . S
C1059 C1062 1.463 . S
C1059 C1064 1.350 . S
C1059 N1067 1.427 . S
C1060 H1051 0.930 . S
C1060 C1058 1.378 . S
C1060 C1061 1.367 . S
C1061 C1060 1.367 . S
C1061 C1063 1.433 . S
C1062 C1058 1.350 . S
C1062 C1059 1.463 . S
C1062 N1066 1.427 . S
C1063 H1053 0.929 . S
C1063 C1061 1.433 . S
C1063 N1066 1.384 . S
C1064 H1055 0.929 . S
C1064 C1056 1.378 . S
C1064 C1059 1.350 . S
C1065 H1052 0.929 . S
C1065 C1057 1.433 . S
C1065 N1067 1.384 . S
N1066 C1062 1.427 . S
N1066 C1063 1.384 . S
N1067 C1059 1.427 . S
N1067 C1065 1.384 . S
H1068 C1074 0.930 . S
H1069 C1078 0.930 . S
H1070 C1083 0.929 . S
H1071 C1081 0.929 . S
H1072 C1076 0.929 . S
H1073 C1082 0.929 . S
C1074 H1068 0.930 . S
C1074 C1075 1.367 . S
C1074 C1082 1.378 . S
C1075 C1074 1.367 . S
C1075 C1083 1.433 . S
C1076 H1072 0.929 . S
C1076 C1078 1.378 . S
C1076 C1080 1.350 . S
C1077 C1080 1.463 . S
C1077 C1082 1.350 . S
C1077 N1085 1.427 . S
C1078 H1069 0.930 . S
C1078 C1076 1.378 . S
C1078 C1079 1.367 . S
C1079 C1078 1.367 . S
C1079 C1081 1.433 . S
C1080 C1076 1.350 . S
C1080 C1077 1.463 . S
C1080 N1084 1.427 . S
C1081 H1071 0.929 . S
C1081 C1079 1.433 . S
C1081 N1084 1.384 . S
C1082 H1073 0.929 . S
C1082 C1074 1.378 . S
C1082 C1077 1.350 . S
C1083 H1070 0.929 . S
C1083 C1075 1.433 . S
C1083 N1085 1.384 . S
N1084 C1080 1.427 . S
N1084 C1081 1.384 . S
N1085 C1077 1.427 . S
N1085 C1083 1.384 . S
H1086 C1092 0.930 . S
H1087 C1096 0.930 . S
H1088 C1101 0.929 . S
H1089 C1099 0.929 . S
H1090 C1094 0.929 . S
H1091 C1100 0.929 . S
C1092 H1086 0.930 . S
C1092 C1093 1.367 . S
C1092 C1100 1.378 . S
C1093 C1092 1.367 . S
C1093 C1101 1.433 . S
C1094 H1090 0.929 . S
C1094 C1096 1.378 . S
C1094 C1098 1.350 . S
C1095 C1098 1.463 . S
C1095 C1100 1.350 . S
C1095 N1103 1.427 . S
C1096 H1087 0.930 . S
C1096 C1094 1.378 . S
C1096 C1097 1.367 . S
C1097 C1096 1.367 . S
C1097 C1099 1.433 . S
C1098 C1094 1.350 . S
C1098 C1095 1.463 . S
C1098 N1102 1.427 . S
C1099 H1089 0.929 . S
C1099 C1097 1.433 . S
C1099 N1102 1.384 . S
C1100 H1091 0.929 . S
C1100 C1092 1.378 . S
C1100 C1095 1.350 . S
C1101 H1088 0.929 . S
C1101 C1093 1.433 . S
C1101 N1103 1.384 . S
N1102 C1098 1.427 . S
N1102 C1099 1.384 . S
N1103 C1095 1.427 . S
N1103 C1101 1.384 . S
H1104 C1110 0.930 . S
H1105 C1114 0.930 . S
H1106 C1119 0.929 . S
H1107 C1117 0.929 . S
H1108 C1112 0.929 . S
H1109 C1118 0.929 . S
C1110 H1104 0.930 . S
C1110 C1111 1.367 . S
C1110 C1118 1.378 . S
C1111 C1110 1.367 . S
C1111 C1119 1.433 . S
C1112 H1108 0.929 . S
C1112 C1114 1.378 . S
C1112 C1116 1.350 1_554 S
C1113 C1116 1.463 . S
C1113 C1118 1.350 . S
C1113 N1121 1.427 . S
C1114 H1105 0.930 . S
C1114 C1112 1.378 . S
C1114 C1115 1.367 1_554 S
C1115 C1114 1.367 1_556 S
C1115 C1117 1.433 . S
C1116 C1112 1.350 1_556 S
C1116 C1113 1.463 . S
C1116 N1120 1.427 . S
C1117 H1107 0.929 . S
C1117 C1115 1.433 . S
C1117 N1120 1.384 . S
C1118 H1109 0.929 . S
C1118 C1110 1.378 . S
C1118 C1113 1.350 . S
C1119 H1106 0.929 . S
C1119 C1111 1.433 . S
C1119 N1121 1.384 . S
N1120 C1116 1.427 . S
N1120 C1117 1.384 . S
N1121 C1113 1.427 . S
N1121 C1119 1.384 . S
H1122 C1128 0.930 . S
H1123 C1132 0.930 . S
H1124 C1137 0.929 . S
H1125 C1135 0.929 . S
H1126 C1130 0.929 . S
H1127 C1136 0.929 . S
C1128 H1122 0.930 . S
C1128 C1129 1.367 . S
C1128 C1136 1.378 . S
C1129 C1128 1.367 . S
C1129 C1137 1.433 . S
C1130 H1126 0.929 . S
C1130 C1132 1.378 . S
C1130 C1134 1.350 . S
C1131 C1134 1.463 . S
C1131 C1136 1.350 . S
C1131 N1139 1.427 . S
C1132 H1123 0.930 . S
C1132 C1130 1.378 . S
C1132 C1133 1.367 . S
C1133 C1132 1.367 . S
C1133 C1135 1.433 . S
C1134 C1130 1.350 . S
C1134 C1131 1.463 . S
C1134 N1138 1.427 . S
C1135 H1125 0.929 . S
C1135 C1133 1.433 . S
C1135 N1138 1.384 . S
C1136 H1127 0.929 . S
C1136 C1128 1.378 . S
C1136 C1131 1.350 . S
C1137 H1124 0.929 . S
C1137 C1129 1.433 . S
C1137 N1139 1.384 . S
N1138 C1134 1.427 . S
N1138 C1135 1.384 . S
N1139 C1131 1.427 . S
N1139 C1137 1.384 . S
H1140 C1146 0.930 . S
H1141 C1150 0.930 . S
H1142 C1155 0.929 . S
H1143 C1153 0.929 . S
H1144 C1148 0.929 . S
H1145 C1154 0.929 . S
C1146 H1140 0.930 . S
C1146 C1147 1.367 . S
C1146 C1154 1.378 . S
C1147 C1146 1.367 . S
C1147 C1155 1.433 . S
C1148 H1144 0.929 . S
C1148 C1150 1.378 . S
C1148 C1152 1.350 . S
C1149 C1152 1.463 . S
C1149 C1154 1.350 . S
C1149 N1157 1.427 . S
C1150 H1141 0.930 . S
C1150 C1148 1.378 . S
C1150 C1151 1.367 . S
C1151 C1150 1.367 . S
C1151 C1153 1.433 . S
C1152 C1148 1.350 . S
C1152 C1149 1.463 . S
C1152 N1156 1.427 . S
C1153 H1143 0.929 . S
C1153 C1151 1.433 . S
C1153 N1156 1.384 . S
C1154 H1145 0.929 . S
C1154 C1146 1.378 . S
C1154 C1149 1.350 . S
C1155 H1142 0.929 . S
C1155 C1147 1.433 . S
C1155 N1157 1.384 . S
N1156 C1152 1.427 . S
N1156 C1153 1.384 . S
N1157 C1149 1.427 . S
N1157 C1155 1.384 . S
H1158 C1164 0.930 . S
H1159 C1168 0.930 . S
H1160 C1173 0.929 . S
H1161 C1171 0.929 . S
H1162 C1166 0.929 . S
H1163 C1172 0.929 . S
C1164 H1158 0.930 . S
C1164 C1165 1.367 . S
C1164 C1172 1.378 . S
C1165 C1164 1.367 . S
C1165 C1173 1.433 . S
C1166 H1162 0.929 . S
C1166 C1168 1.378 . S
C1166 C1170 1.350 . S
C1167 C1170 1.463 . S
C1167 C1172 1.350 . S
C1167 N1175 1.427 . S
C1168 H1159 0.930 . S
C1168 C1166 1.378 . S
C1168 C1169 1.367 . S
C1169 C1168 1.367 . S
C1169 C1171 1.433 . S
C1170 C1166 1.350 . S
C1170 C1167 1.463 . S
C1170 N1174 1.427 . S
C1171 H1161 0.929 . S
C1171 C1169 1.433 . S
C1171 N1174 1.384 . S
C1172 H1163 0.929 . S
C1172 C1164 1.378 . S
C1172 C1167 1.350 . S
C1173 H1160 0.929 . S
C1173 C1165 1.433 . S
C1173 N1175 1.384 . S
N1174 C1170 1.427 . S
N1174 C1171 1.384 . S
N1175 C1167 1.427 . S
N1175 C1173 1.384 . S
H1176 C1182 0.930 . S
H1177 C1186 0.930 1_554 S
H1178 C1191 0.929 . S
H1179 C1189 0.929 . S
H1180 C1184 0.929 . S
H1181 C1190 0.929 . S
C1182 H1176 0.930 . S
C1182 C1183 1.367 . S
C1182 C1190 1.378 . S
C1183 C1182 1.367 . S
C1183 C1191 1.433 . S
C1184 H1180 0.929 . S
C1184 C1186 1.378 . S
C1184 C1188 1.350 . S
C1185 C1188 1.463 . S
C1185 C1190 1.350 . S
C1185 N1193 1.427 . S
C1186 H1177 0.930 1_556 S
C1186 C1184 1.378 . S
C1186 C1187 1.367 . S
C1187 C1186 1.367 . S
C1187 C1189 1.433 . S
C1188 C1184 1.350 . S
C1188 C1185 1.463 . S
C1188 N1192 1.427 . S
C1189 H1179 0.929 . S
C1189 C1187 1.433 . S
C1189 N1192 1.384 . S
C1190 H1181 0.929 . S
C1190 C1182 1.378 . S
C1190 C1185 1.350 . S
C1191 H1178 0.929 . S
C1191 C1183 1.433 . S
C1191 N1193 1.384 . S
N1192 C1188 1.427 . S
N1192 C1189 1.384 . S
N1193 C1185 1.427 . S
N1193 C1191 1.384 . S
H1194 C1200 0.930 . S
H1195 C1204 0.930 . S
H1196 C1209 0.929 . S
H1197 C1207 0.929 . S
H1198 C1202 0.929 . S
H1199 C1208 0.929 . S
C1200 H1194 0.930 . S
C1200 C1201 1.367 . S
C1200 C1208 1.378 . S
C1201 C1200 1.367 . S
C1201 C1209 1.433 . S
C1202 H1198 0.929 . S
C1202 C1204 1.378 . S
C1202 C1206 1.350 . S
C1203 C1206 1.463 . S
C1203 C1208 1.350 . S
C1203 N1211 1.427 . S
C1204 H1195 0.930 . S
C1204 C1202 1.378 . S
C1204 C1205 1.367 . S
C1205 C1204 1.367 . S
C1205 C1207 1.433 . S
C1206 C1202 1.350 . S
C1206 C1203 1.463 . S
C1206 N1210 1.427 . S
C1207 H1197 0.929 . S
C1207 C1205 1.433 . S
C1207 N1210 1.384 . S
C1208 H1199 0.929 . S
C1208 C1200 1.378 . S
C1208 C1203 1.350 . S
C1209 H1196 0.929 . S
C1209 C1201 1.433 . S
C1209 N1211 1.384 . S
N1210 C1206 1.427 . S
N1210 C1207 1.384 . S
N1211 C1203 1.427 . S
N1211 C1209 1.384 . S
H1212 C1218 0.930 . S
H1213 C1222 0.930 . S
H1214 C1227 0.929 . S
H1215 C1225 0.929 . S
H1216 C1220 0.929 . S
H1217 C1226 0.929 . S
C1218 H1212 0.930 . S
C1218 C1219 1.367 . S
C1218 C1226 1.378 . S
C1219 C1218 1.367 . S
C1219 C1227 1.433 . S
C1220 H1216 0.929 . S
C1220 C1222 1.378 . S
C1220 C1224 1.350 . S
C1221 C1224 1.463 . S
C1221 C1226 1.350 . S
C1221 N1229 1.427 . S
C1222 H1213 0.930 . S
C1222 C1220 1.378 . S
C1222 C1223 1.367 . S
C1223 C1222 1.367 . S
C1223 C1225 1.433 1_556 S
C1224 C1220 1.350 . S
C1224 C1221 1.463 . S
C1224 N1228 1.427 . S
C1225 H1215 0.929 . S
C1225 C1223 1.433 1_554 S
C1225 N1228 1.384 1_554 S
C1226 H1217 0.929 . S
C1226 C1218 1.378 . S
C1226 C1221 1.350 . S
C1227 H1214 0.929 . S
C1227 C1219 1.433 . S
C1227 N1229 1.384 . S
N1228 C1224 1.427 . S
N1228 C1225 1.384 1_556 S
N1229 C1221 1.427 . S
N1229 C1227 1.384 . S
H1230 C1236 0.930 . S
H1231 C1240 0.930 . S
H1232 C1245 0.929 . S
H1233 C1243 0.931 . S
H1234 C1238 0.929 . S
H1235 C1244 0.929 . S
C1236 H1230 0.930 . S
C1236 C1237 1.367 . S
C1236 C1244 1.378 . S
C1237 C1236 1.367 . S
C1237 C1245 1.433 . S
C1238 H1234 0.929 . S
C1238 C1240 1.378 . S
C1238 C1242 1.350 . S
C1239 C1242 1.463 . S
C1239 C1244 1.350 . S
C1239 N1247 1.427 . S
C1240 H1231 0.930 . S
C1240 C1238 1.378 . S
C1240 C1241 1.367 . S
C1241 C1240 1.367 . S
C1241 C1243 1.433 . S
C1242 C1238 1.350 . S
C1242 C1239 1.463 . S
C1242 N1246 1.427 . S
C1243 H1233 0.931 . S
C1243 C1241 1.433 . S
C1243 N1246 1.384 . S
C1244 H1235 0.929 . S
C1244 C1236 1.378 . S
C1244 C1239 1.350 . S
C1245 H1232 0.929 . S
C1245 C1237 1.433 . S
C1245 N1247 1.384 . S
N1246 C1242 1.427 . S
N1246 C1243 1.384 . S
N1247 C1239 1.427 . S
N1247 C1245 1.384 . S
H1248 C1254 0.930 . S
H1249 C1258 0.930 . S
H1250 C1263 0.929 . S
H1251 C1261 0.929 . S
H1252 C1256 0.929 . S
H1253 C1262 0.929 . S
C1254 H1248 0.930 . S
C1254 C1255 1.367 . S
C1254 C1262 1.378 . S
C1255 C1254 1.367 . S
C1255 C1263 1.433 . S
C1256 H1252 0.929 . S
C1256 C1258 1.378 . S
C1256 C1260 1.350 . S
C1257 C1260 1.463 . S
C1257 C1262 1.350 . S
C1257 N1265 1.427 . S
C1258 H1249 0.930 . S
C1258 C1256 1.378 . S
C1258 C1259 1.367 . S
C1259 C1258 1.367 . S
C1259 C1261 1.433 . S
C1260 C1256 1.350 . S
C1260 C1257 1.463 . S
C1260 N1264 1.427 . S
C1261 H1251 0.929 . S
C1261 C1259 1.433 . S
C1261 N1264 1.384 . S
C1262 H1253 0.929 . S
C1262 C1254 1.378 . S
C1262 C1257 1.350 . S
C1263 H1250 0.929 . S
C1263 C1255 1.433 . S
C1263 N1265 1.384 . S
N1264 C1260 1.427 . S
N1264 C1261 1.384 . S
N1265 C1257 1.427 . S
N1265 C1263 1.384 . S
H1266 C1272 0.930 . S
H1267 C1276 0.930 . S
H1268 C1281 0.929 . S
H1269 C1279 0.929 . S
H1270 C1274 0.929 . S
H1271 C1280 0.929 . S
C1272 H1266 0.930 . S
C1272 C1273 1.367 . S
C1272 C1280 1.378 . S
C1273 C1272 1.367 . S
C1273 C1281 1.433 . S
C1274 H1270 0.929 . S
C1274 C1276 1.378 . S
C1274 C1278 1.350 . S
C1275 C1278 1.463 . S
C1275 C1280 1.350 . S
C1275 N1283 1.427 . S
C1276 H1267 0.930 . S
C1276 C1274 1.378 . S
C1276 C1277 1.367 . S
C1277 C1276 1.367 . S
C1277 C1279 1.433 . S
C1278 C1274 1.350 . S
C1278 C1275 1.463 . S
C1278 N1282 1.427 . S
C1279 H1269 0.929 . S
C1279 C1277 1.433 . S
C1279 N1282 1.384 . S
C1280 H1271 0.929 . S
C1280 C1272 1.378 . S
C1280 C1275 1.350 . S
C1281 H1268 0.929 . S
C1281 C1273 1.433 . S
C1281 N1283 1.384 . S
N1282 C1278 1.427 . S
N1282 C1279 1.384 . S
N1283 C1275 1.427 . S
N1283 C1281 1.384 . S
H1284 C1290 0.930 . S
H1285 C1294 0.930 . S
H1286 C1299 0.929 . S
H1287 C1297 0.929 . S
H1288 C1292 0.929 . S
H1289 C1298 0.929 . S
C1290 H1284 0.930 . S
C1290 C1291 1.367 . S
C1290 C1298 1.378 . S
C1291 C1290 1.367 . S
C1291 C1299 1.433 . S
C1292 H1288 0.929 . S
C1292 C1294 1.378 . S
C1292 C1296 1.350 . S
C1293 C1296 1.463 . S
C1293 C1298 1.350 . S
C1293 N1301 1.427 . S
C1294 H1285 0.930 . S
C1294 C1292 1.378 . S
C1294 C1295 1.367 . S
C1295 C1294 1.367 . S
C1295 C1297 1.433 . S
C1296 C1292 1.350 . S
C1296 C1293 1.463 . S
C1296 N1300 1.427 . S
C1297 H1287 0.929 . S
C1297 C1295 1.433 . S
C1297 N1300 1.384 . S
C1298 H1289 0.929 . S
C1298 C1290 1.378 . S
C1298 C1293 1.350 . S
C1299 H1286 0.929 . S
C1299 C1291 1.433 . S
C1299 N1301 1.384 . S
N1300 C1296 1.427 . S
N1300 C1297 1.384 . S
N1301 C1293 1.427 . S
N1301 C1299 1.384 . S
H1302 C1308 0.930 . S
H1303 C1312 0.930 . S
H1304 C1317 0.929 . S
H1305 C1315 0.929 . S
H1306 C1310 0.929 . S
H1307 C1316 0.929 . S
C1308 H1302 0.930 . S
C1308 C1309 1.367 . S
C1308 C1316 1.378 . S
C1309 C1308 1.367 . S
C1309 C1317 1.433 . S
C1310 H1306 0.929 . S
C1310 C1312 1.378 . S
C1310 C1314 1.350 . S
C1311 C1314 1.463 . S
C1311 C1316 1.350 . S
C1311 N1319 1.427 . S
C1312 H1303 0.930 . S
C1312 C1310 1.378 . S
C1312 C1313 1.367 . S
C1313 C1312 1.367 . S
C1313 C1315 1.433 . S
C1314 C1310 1.350 . S
C1314 C1311 1.463 . S
C1314 N1318 1.427 . S
C1315 H1305 0.929 . S
C1315 C1313 1.433 . S
C1315 N1318 1.384 . S
C1316 H1307 0.929 . S
C1316 C1308 1.378 . S
C1316 C1311 1.350 . S
C1317 H1304 0.929 . S
C1317 C1309 1.433 . S
C1317 N1319 1.384 . S
N1318 C1314 1.427 . S
N1318 C1315 1.384 . S
N1319 C1311 1.427 . S
N1319 C1317 1.384 . S
H1320 C1326 0.930 . S
H1321 C1330 0.930 . S
H1322 C1335 0.929 . S
H1323 C1333 0.929 . S
H1324 C1328 0.929 1_554 S
H1325 C1334 0.929 . S
C1326 H1320 0.930 . S
C1326 C1327 1.367 . S
C1326 C1334 1.378 . S
C1327 C1326 1.367 . S
C1327 C1335 1.433 . S
C1328 H1324 0.929 1_556 S
C1328 C1330 1.378 1_556 S
C1328 C1332 1.350 . S
C1329 C1332 1.463 . S
C1329 C1334 1.350 . S
C1329 N1337 1.427 . S
C1330 H1321 0.930 . S
C1330 C1328 1.378 1_554 S
C1330 C1331 1.367 1_554 S
C1331 C1330 1.367 1_556 S
C1331 C1333 1.433 . S
C1332 C1328 1.350 . S
C1332 C1329 1.463 . S
C1332 N1336 1.427 . S
C1333 H1323 0.929 . S
C1333 C1331 1.433 . S
C1333 N1336 1.384 . S
C1334 H1325 0.929 . S
C1334 C1326 1.378 . S
C1334 C1329 1.350 . S
C1335 H1322 0.929 . S
C1335 C1327 1.433 . S
C1335 N1337 1.384 . S
N1336 C1332 1.427 . S
N1336 C1333 1.384 . S
N1337 C1329 1.427 . S
N1337 C1335 1.384 . S
H1338 C1344 0.930 . S
H1339 C1348 0.930 . S
H1340 C1353 0.929 . S
H1341 C1351 0.929 . S
H1342 C1346 0.929 . S
H1343 C1352 0.929 . S
C1344 H1338 0.930 . S
C1344 C1345 1.367 . S
C1344 C1352 1.378 . S
C1345 C1344 1.367 . S
C1345 C1353 1.433 . S
C1346 H1342 0.929 . S
C1346 C1348 1.378 . S
C1346 C1350 1.350 . S
C1347 C1350 1.463 . S
C1347 C1352 1.350 . S
C1347 N1355 1.427 . S
C1348 H1339 0.930 . S
C1348 C1346 1.378 . S
C1348 C1349 1.367 . S
C1349 C1348 1.367 . S
C1349 C1351 1.433 . S
C1350 C1346 1.350 . S
C1350 C1347 1.463 . S
C1350 N1354 1.427 . S
C1351 H1341 0.929 . S
C1351 C1349 1.433 . S
C1351 N1354 1.384 . S
C1352 H1343 0.929 . S
C1352 C1344 1.378 . S
C1352 C1347 1.350 . S
C1353 H1340 0.929 . S
C1353 C1345 1.433 . S
C1353 N1355 1.384 . S
N1354 C1350 1.427 . S
N1354 C1351 1.384 . S
N1355 C1347 1.427 . S
N1355 C1353 1.384 . S
H1356 C1362 0.930 . S
H1357 C1366 0.930 . S
H1358 C1371 0.929 . S
H1359 C1369 0.929 1_554 S
H1360 C1364 0.929 . S
H1361 C1370 0.929 . S
C1362 H1356 0.930 . S
C1362 C1363 1.367 . S
C1362 C1370 1.378 . S
C1363 C1362 1.367 . S
C1363 C1371 1.433 . S
C1364 H1360 0.929 . S
C1364 C1366 1.378 . S
C1364 C1368 1.350 . S
C1365 C1368 1.463 . S
C1365 C1370 1.350 . S
C1365 N1373 1.427 . S
C1366 H1357 0.930 . S
C1366 C1364 1.378 . S
C1366 C1367 1.367 . S
C1367 C1366 1.367 . S
C1367 C1369 1.433 . S
C1368 C1364 1.350 . S
C1368 C1365 1.463 . S
C1368 N1372 1.427 . S
C1369 H1359 0.929 1_556 S
C1369 C1367 1.433 . S
C1369 N1372 1.384 . S
C1370 H1361 0.929 . S
C1370 C1362 1.378 . S
C1370 C1365 1.350 . S
C1371 H1358 0.929 . S
C1371 C1363 1.433 . S
C1371 N1373 1.384 . S
N1372 C1368 1.427 . S
N1372 C1369 1.384 . S
N1373 C1365 1.427 . S
N1373 C1371 1.384 . S
H1374 C1380 0.930 . S
H1375 C1384 0.930 . S
H1376 C1389 0.929 . S
H1377 C1387 0.929 . S
H1378 C1382 0.929 . S
H1379 C1388 0.929 . S
C1380 H1374 0.930 . S
C1380 C1381 1.367 . S
C1380 C1388 1.378 . S
C1381 C1380 1.367 . S
C1381 C1389 1.433 . S
C1382 H1378 0.929 . S
C1382 C1384 1.378 . S
C1382 C1386 1.350 . S
C1383 C1386 1.463 . S
C1383 C1388 1.350 . S
C1383 N1391 1.427 . S
C1384 H1375 0.930 . S
C1384 C1382 1.378 . S
C1384 C1385 1.367 . S
C1385 C1384 1.367 . S
C1385 C1387 1.433 . S
C1386 C1382 1.350 . S
C1386 C1383 1.463 . S
C1386 N1390 1.427 . S
C1387 H1377 0.929 . S
C1387 C1385 1.433 . S
C1387 N1390 1.384 . S
C1388 H1379 0.929 . S
C1388 C1380 1.378 . S
C1388 C1383 1.350 . S
C1389 H1376 0.929 . S
C1389 C1381 1.433 . S
C1389 N1391 1.384 . S
N1390 C1386 1.427 . S
N1390 C1387 1.384 . S
N1391 C1383 1.427 . S
N1391 C1389 1.384 . S
H1392 C1398 0.930 . S
H1393 C1402 0.930 . S
H1394 C1407 0.929 . S
H1395 C1405 0.929 . S
H1396 C1400 0.929 . S
H1397 C1406 0.929 . S
C1398 H1392 0.930 . S
C1398 C1399 1.367 . S
C1398 C1406 1.378 . S
C1399 C1398 1.367 . S
C1399 C1407 1.433 . S
C1400 H1396 0.929 . S
C1400 C1402 1.378 . S
C1400 C1404 1.350 . S
C1401 C1404 1.463 . S
C1401 C1406 1.350 . S
C1401 N1409 1.427 . S
C1402 H1393 0.930 . S
C1402 C1400 1.378 . S
C1402 C1403 1.367 . S
C1403 C1402 1.367 . S
C1403 C1405 1.433 . S
C1404 C1400 1.350 . S
C1404 C1401 1.463 . S
C1404 N1408 1.427 . S
C1405 H1395 0.929 . S
C1405 C1403 1.433 . S
C1405 N1408 1.384 . S
C1406 H1397 0.929 . S
C1406 C1398 1.378 . S
C1406 C1401 1.350 . S
C1407 H1394 0.929 . S
C1407 C1399 1.433 . S
C1407 N1409 1.384 . S
N1408 C1404 1.427 . S
N1408 C1405 1.384 . S
N1409 C1401 1.427 . S
N1409 C1407 1.384 . S
H1410 C1416 0.930 . S
H1411 C1420 0.930 . S
H1412 C1425 0.929 . S
H1413 C1423 0.929 . S
H1414 C1418 0.929 . S
H1415 C1424 0.929 . S
C1416 H1410 0.930 . S
C1416 C1417 1.367 . S
C1416 C1424 1.378 . S
C1417 C1416 1.367 . S
C1417 C1425 1.433 . S
C1418 H1414 0.929 . S
C1418 C1420 1.378 . S
C1418 C1422 1.350 . S
C1419 C1422 1.463 . S
C1419 C1424 1.350 . S
C1419 N1427 1.427 . S
C1420 H1411 0.930 . S
C1420 C1418 1.378 . S
C1420 C1421 1.367 . S
C1421 C1420 1.367 . S
C1421 C1423 1.433 . S
C1422 C1418 1.350 . S
C1422 C1419 1.463 . S
C1422 N1426 1.427 . S
C1423 H1413 0.929 . S
C1423 C1421 1.433 . S
C1423 N1426 1.384 . S
C1424 H1415 0.929 . S
C1424 C1416 1.378 . S
C1424 C1419 1.350 . S
C1425 H1412 0.929 . S
C1425 C1417 1.433 . S
C1425 N1427 1.384 . S
N1426 C1422 1.427 . S
N1426 C1423 1.384 . S
N1427 C1419 1.427 . S
N1427 C1425 1.384 . S
H1428 C1434 0.930 . S
H1429 C1438 0.930 . S
H1430 C1443 0.929 . S
H1431 C1441 0.929 . S
H1432 C1436 0.929 . S
H1433 C1442 0.929 . S
C1434 H1428 0.930 . S
C1434 C1435 1.367 . S
C1434 C1442 1.378 . S
C1435 C1434 1.367 . S
C1435 C1443 1.433 . S
C1436 H1432 0.929 . S
C1436 C1438 1.378 . S
C1436 C1440 1.350 . S
C1437 C1440 1.463 . S
C1437 C1442 1.350 . S
C1437 N1445 1.427 . S
C1438 H1429 0.930 . S
C1438 C1436 1.378 . S
C1438 C1439 1.367 . S
C1439 C1438 1.367 . S
C1439 C1441 1.433 . S
C1440 C1436 1.350 . S
C1440 C1437 1.463 . S
C1440 N1444 1.427 . S
C1441 H1431 0.929 . S
C1441 C1439 1.433 . S
C1441 N1444 1.384 . S
C1442 H1433 0.929 . S
C1442 C1434 1.378 . S
C1442 C1437 1.350 . S
C1443 H1430 0.929 . S
C1443 C1435 1.433 . S
C1443 N1445 1.384 . S
N1444 C1440 1.427 . S
N1444 C1441 1.384 . S
N1445 C1437 1.427 . S
N1445 C1443 1.384 . S
H1446 C1452 0.930 . S
H1447 C1456 0.930 . S
H1448 C1461 0.929 . S
H1449 C1459 0.929 . S
H1450 C1454 0.929 . S
H1451 C1460 0.929 . S
C1452 H1446 0.930 . S
C1452 C1453 1.367 . S
C1452 C1460 1.378 . S
C1453 C1452 1.367 . S
C1453 C1461 1.433 . S
C1454 H1450 0.929 . S
C1454 C1456 1.378 . S
C1454 C1458 1.350 . S
C1455 C1458 1.463 . S
C1455 C1460 1.350 . S
C1455 N1463 1.427 . S
C1456 H1447 0.930 . S
C1456 C1454 1.378 . S
C1456 C1457 1.367 . S
C1457 C1456 1.367 . S
C1457 C1459 1.433 . S
C1458 C1454 1.350 . S
C1458 C1455 1.463 . S
C1458 N1462 1.427 . S
C1459 H1449 0.929 . S
C1459 C1457 1.433 . S
C1459 N1462 1.384 . S
C1460 H1451 0.929 . S
C1460 C1452 1.378 . S
C1460 C1455 1.350 . S
C1461 H1448 0.929 . S
C1461 C1453 1.433 . S
C1461 N1463 1.384 . S
N1462 C1458 1.427 . S
N1462 C1459 1.384 . S
N1463 C1455 1.427 . S
N1463 C1461 1.384 . S
H1464 C1470 0.930 . S
H1465 C1474 0.930 . S
H1466 C1479 0.929 . S
H1467 C1477 0.929 . S
H1468 C1472 0.929 . S
H1469 C1478 0.929 . S
C1470 H1464 0.930 . S
C1470 C1471 1.367 . S
C1470 C1478 1.378 . S
C1471 C1470 1.367 . S
C1471 C1479 1.433 . S
C1472 H1468 0.929 . S
C1472 C1474 1.378 . S
C1472 C1476 1.350 . S
C1473 C1476 1.463 . S
C1473 C1478 1.350 . S
C1473 N1481 1.427 . S
C1474 H1465 0.930 . S
C1474 C1472 1.378 . S
C1474 C1475 1.367 . S
C1475 C1474 1.367 . S
C1475 C1477 1.433 . S
C1476 C1472 1.350 . S
C1476 C1473 1.463 . S
C1476 N1480 1.427 . S
C1477 H1467 0.929 . S
C1477 C1475 1.433 . S
C1477 N1480 1.384 . S
C1478 H1469 0.929 . S
C1478 C1470 1.378 . S
C1478 C1473 1.350 . S
C1479 H1466 0.929 . S
C1479 C1471 1.433 . S
C1479 N1481 1.384 . S
N1480 C1476 1.427 . S
N1480 C1477 1.384 . S
N1481 C1473 1.427 . S
N1481 C1479 1.384 . S
H1482 C1488 0.930 . S
H1483 C1492 0.930 . S
H1484 C1497 0.929 . S
H1485 C1495 0.929 . S
H1486 C1490 0.929 . S
H1487 C1496 0.929 . S
C1488 H1482 0.930 . S
C1488 C1489 1.367 . S
C1488 C1496 1.378 . S
C1489 C1488 1.367 . S
C1489 C1497 1.433 . S
C1490 H1486 0.929 . S
C1490 C1492 1.378 . S
C1490 C1494 1.350 . S
C1491 C1494 1.463 . S
C1491 C1496 1.350 . S
C1491 N1499 1.427 . S
C1492 H1483 0.930 . S
C1492 C1490 1.378 . S
C1492 C1493 1.367 . S
C1493 C1492 1.367 . S
C1493 C1495 1.433 . S
C1494 C1490 1.350 . S
C1494 C1491 1.463 . S
C1494 N1498 1.427 . S
C1495 H1485 0.929 . S
C1495 C1493 1.433 . S
C1495 N1498 1.384 . S
C1496 H1487 0.929 . S
C1496 C1488 1.378 . S
C1496 C1491 1.350 . S
C1497 H1484 0.929 . S
C1497 C1489 1.433 . S
C1497 N1499 1.384 . S
N1498 C1494 1.427 . S
N1498 C1495 1.384 . S
N1499 C1491 1.427 . S
N1499 C1497 1.384 . S
H1500 C1506 0.930 . S
H1501 C1510 0.930 . S
H1502 C1515 0.929 . S
H1503 C1513 0.929 . S
H1504 C1508 0.929 . S
H1505 C1514 0.929 . S
C1506 H1500 0.930 . S
C1506 C1507 1.367 . S
C1506 C1514 1.378 . S
C1507 C1506 1.367 . S
C1507 C1515 1.433 . S
C1508 H1504 0.929 . S
C1508 C1510 1.378 . S
C1508 C1512 1.350 . S
C1509 C1512 1.463 . S
C1509 C1514 1.350 . S
C1509 N1517 1.427 . S
C1510 H1501 0.930 . S
C1510 C1508 1.378 . S
C1510 C1511 1.367 . S
C1511 C1510 1.367 . S
C1511 C1513 1.433 . S
C1512 C1508 1.350 . S
C1512 C1509 1.463 . S
C1512 N1516 1.427 . S
C1513 H1503 0.929 . S
C1513 C1511 1.433 . S
C1513 N1516 1.384 . S
C1514 H1505 0.929 . S
C1514 C1506 1.378 . S
C1514 C1509 1.350 . S
C1515 H1502 0.929 . S
C1515 C1507 1.433 . S
C1515 N1517 1.384 . S
N1516 C1512 1.427 . S
N1516 C1513 1.384 . S
N1517 C1509 1.427 . S
N1517 C1515 1.384 . S
H1518 C1524 0.930 . S
H1519 C1528 0.930 . S
H1520 C1533 0.929 . S
H1521 C1531 0.929 . S
H1522 C1526 0.929 . S
H1523 C1532 0.929 . S
C1524 H1518 0.930 . S
C1524 C1525 1.367 . S
C1524 C1532 1.378 . S
C1525 C1524 1.367 . S
C1525 C1533 1.433 . S
C1526 H1522 0.929 . S
C1526 C1528 1.378 . S
C1526 C1530 1.350 . S
C1527 C1530 1.463 . S
C1527 C1532 1.350 . S
C1527 N1535 1.427 . S
C1528 H1519 0.930 . S
C1528 C1526 1.378 . S
C1528 C1529 1.367 . S
C1529 C1528 1.367 . S
C1529 C1531 1.433 . S
C1530 C1526 1.350 . S
C1530 C1527 1.463 . S
C1530 N1534 1.427 . S
C1531 H1521 0.929 . S
C1531 C1529 1.433 . S
C1531 N1534 1.384 . S
C1532 H1523 0.929 . S
C1532 C1524 1.378 . S
C1532 C1527 1.350 . S
C1533 H1520 0.929 . S
C1533 C1525 1.433 . S
C1533 N1535 1.384 . S
N1534 C1530 1.427 . S
N1534 C1531 1.384 . S
N1535 C1527 1.427 . S
N1535 C1533 1.384 . S
H1536 C1542 0.930 . S
H1537 C1546 0.930 . S
H1538 C1551 0.929 . S
H1539 C1549 0.929 . S
H1540 C1544 0.929 . S
H1541 C1550 0.929 . S
C1542 H1536 0.930 . S
C1542 C1543 1.367 . S
C1542 C1550 1.378 . S
C1543 C1542 1.367 . S
C1543 C1551 1.433 . S
C1544 H1540 0.929 . S
C1544 C1546 1.378 . S
C1544 C1548 1.350 . S
C1545 C1548 1.463 . S
C1545 C1550 1.350 . S
C1545 N1553 1.427 . S
C1546 H1537 0.930 . S
C1546 C1544 1.378 . S
C1546 C1547 1.367 . S
C1547 C1546 1.367 . S
C1547 C1549 1.433 . S
C1548 C1544 1.350 . S
C1548 C1545 1.463 . S
C1548 N1552 1.427 . S
C1549 H1539 0.929 . S
C1549 C1547 1.433 . S
C1549 N1552 1.384 . S
C1550 H1541 0.929 . S
C1550 C1542 1.378 . S
C1550 C1545 1.350 . S
C1551 H1538 0.929 . S
C1551 C1543 1.433 . S
C1551 N1553 1.384 . S
N1552 C1548 1.427 . S
N1552 C1549 1.384 . S
N1553 C1545 1.427 . S
N1553 C1551 1.384 . S
H1554 C1560 0.930 . S
H1555 C1564 0.930 . S
H1556 C1569 0.929 . S
H1557 C1567 0.929 . S
H1558 C1562 0.929 . S
H1559 C1568 0.929 . S
C1560 H1554 0.930 . S
C1560 C1561 1.367 . S
C1560 C1568 1.378 . S
C1561 C1560 1.367 . S
C1561 C1569 1.433 . S
C1562 H1558 0.929 . S
C1562 C1564 1.378 . S
C1562 C1566 1.350 . S
C1563 C1566 1.463 . S
C1563 C1568 1.350 . S
C1563 N1571 1.427 . S
C1564 H1555 0.930 . S
C1564 C1562 1.378 . S
C1564 C1565 1.367 . S
C1565 C1564 1.367 . S
C1565 C1567 1.433 . S
C1566 C1562 1.350 . S
C1566 C1563 1.463 . S
C1566 N1570 1.427 . S
C1567 H1557 0.929 . S
C1567 C1565 1.433 . S
C1567 N1570 1.384 . S
C1568 H1559 0.929 . S
C1568 C1560 1.378 . S
C1568 C1563 1.350 . S
C1569 H1556 0.929 . S
C1569 C1561 1.433 . S
C1569 N1571 1.384 . S
N1570 C1566 1.427 . S
N1570 C1567 1.384 . S
N1571 C1563 1.427 . S
N1571 C1569 1.384 . S
H1572 C1578 0.930 . S
H1573 C1582 0.930 . S
H1574 C1587 0.929 . S
H1575 C1585 0.929 . S
H1576 C1580 0.929 . S
H1577 C1586 0.929 . S
C1578 H1572 0.930 . S
C1578 C1579 1.367 . S
C1578 C1586 1.378 . S
C1579 C1578 1.367 . S
C1579 C1587 1.433 . S
C1580 H1576 0.929 . S
C1580 C1582 1.378 . S
C1580 C1584 1.350 . S
C1581 C1584 1.463 . S
C1581 C1586 1.350 . S
C1581 N1589 1.427 . S
C1582 H1573 0.930 . S
C1582 C1580 1.378 . S
C1582 C1583 1.367 . S
C1583 C1582 1.367 . S
C1583 C1585 1.433 . S
C1584 C1580 1.350 . S
C1584 C1581 1.463 . S
C1584 N1588 1.427 . S
C1585 H1575 0.929 . S
C1585 C1583 1.433 . S
C1585 N1588 1.384 . S
C1586 H1577 0.929 . S
C1586 C1578 1.378 . S
C1586 C1581 1.350 . S
C1587 H1574 0.929 . S
C1587 C1579 1.433 . S
C1587 N1589 1.384 . S
N1588 C1584 1.427 . S
N1588 C1585 1.384 . S
N1589 C1581 1.427 . S
N1589 C1587 1.384 . S
H1590 C1596 0.930 . S
H1591 C1600 0.930 . S
H1592 C1605 0.929 . S
H1593 C1603 0.929 . S
H1594 C1598 0.929 . S
H1595 C1604 0.929 . S
C1596 H1590 0.930 . S
C1596 C1597 1.367 . S
C1596 C1604 1.378 . S
C1597 C1596 1.367 . S
C1597 C1605 1.433 . S
C1598 H1594 0.929 . S
C1598 C1600 1.378 . S
C1598 C1602 1.350 . S
C1599 C1602 1.463 . S
C1599 C1604 1.350 . S
C1599 N1607 1.427 . S
C1600 H1591 0.930 . S
C1600 C1598 1.378 . S
C1600 C1601 1.367 . S
C1601 C1600 1.367 . S
C1601 C1603 1.433 . S
C1602 C1598 1.350 . S
C1602 C1599 1.463 . S
C1602 N1606 1.427 . S
C1603 H1593 0.929 . S
C1603 C1601 1.433 . S
C1603 N1606 1.384 . S
C1604 H1595 0.929 . S
C1604 C1596 1.378 . S
C1604 C1599 1.350 . S
C1605 H1592 0.929 . S
C1605 C1597 1.433 . S
C1605 N1607 1.384 . S
N1606 C1602 1.427 . S
N1606 C1603 1.384 . S
N1607 C1599 1.427 . S
N1607 C1605 1.384 . S
H1608 C1614 0.930 . S
H1609 C1618 0.930 . S
H1610 C1623 0.929 . S
H1611 C1621 0.929 . S
H1612 C1616 0.929 . S
H1613 C1622 0.929 . S
C1614 H1608 0.930 . S
C1614 C1615 1.367 . S
C1614 C1622 1.378 . S
C1615 C1614 1.367 . S
C1615 C1623 1.433 . S
C1616 H1612 0.929 . S
C1616 C1618 1.378 . S
C1616 C1620 1.350 . S
C1617 C1620 1.463 . S
C1617 C1622 1.350 . S
C1617 N1625 1.427 . S
C1618 H1609 0.930 . S
C1618 C1616 1.378 . S
C1618 C1619 1.367 . S
C1619 C1618 1.367 . S
C1619 C1621 1.433 . S
C1620 C1616 1.350 . S
C1620 C1617 1.463 . S
C1620 N1624 1.427 . S
C1621 H1611 0.929 . S
C1621 C1619 1.433 . S
C1621 N1624 1.384 . S
C1622 H1613 0.929 . S
C1622 C1614 1.378 . S
C1622 C1617 1.350 . S
C1623 H1610 0.929 . S
C1623 C1615 1.433 . S
C1623 N1625 1.384 . S
N1624 C1620 1.427 . S
N1624 C1621 1.384 . S
N1625 C1617 1.427 . S
N1625 C1623 1.384 . S
H1626 C1632 0.930 . S
H1627 C1636 0.930 . S
H1628 C1641 0.929 . S
H1629 C1639 0.929 . S
H1630 C1634 0.929 . S
H1631 C1640 0.929 . S
C1632 H1626 0.930 . S
C1632 C1633 1.367 . S
C1632 C1640 1.378 . S
C1633 C1632 1.367 . S
C1633 C1641 1.433 . S
C1634 H1630 0.929 . S
C1634 C1636 1.378 . S
C1634 C1638 1.350 . S
C1635 C1638 1.463 . S
C1635 C1640 1.350 . S
C1635 N1643 1.427 . S
C1636 H1627 0.930 . S
C1636 C1634 1.378 . S
C1636 C1637 1.367 . S
C1637 C1636 1.367 . S
C1637 C1639 1.433 . S
C1638 C1634 1.350 . S
C1638 C1635 1.463 . S
C1638 N1642 1.427 . S
C1639 H1629 0.929 . S
C1639 C1637 1.433 . S
C1639 N1642 1.384 . S
C1640 H1631 0.929 . S
C1640 C1632 1.378 . S
C1640 C1635 1.350 . S
C1641 H1628 0.929 . S
C1641 C1633 1.433 . S
C1641 N1643 1.384 . S
N1642 C1638 1.427 . S
N1642 C1639 1.384 . S
N1643 C1635 1.427 . S
N1643 C1641 1.384 . S
H1644 C1650 0.930 . S
H1645 C1654 0.930 . S
H1646 C1659 0.929 . S
H1647 C1657 0.929 . S
H1648 C1652 0.929 . S
H1649 C1658 0.929 . S
C1650 H1644 0.930 . S
C1650 C1651 1.367 . S
C1650 C1658 1.378 . S
C1651 C1650 1.367 . S
C1651 C1659 1.433 . S
C1652 H1648 0.929 . S
C1652 C1654 1.378 . S
C1652 C1656 1.350 . S
C1653 C1656 1.463 . S
C1653 C1658 1.350 . S
C1653 N1661 1.427 . S
C1654 H1645 0.930 . S
C1654 C1652 1.378 . S
C1654 C1655 1.367 . S
C1655 C1654 1.367 . S
C1655 C1657 1.433 . S
C1656 C1652 1.350 . S
C1656 C1653 1.463 . S
C1656 N1660 1.427 . S
C1657 H1647 0.929 . S
C1657 C1655 1.433 . S
C1657 N1660 1.384 . S
C1658 H1649 0.929 . S
C1658 C1650 1.378 . S
C1658 C1653 1.350 . S
C1659 H1646 0.929 . S
C1659 C1651 1.433 . S
C1659 N1661 1.384 . S
N1660 C1656 1.427 . S
N1660 C1657 1.384 . S
N1661 C1653 1.427 . S
N1661 C1659 1.384 . S
H1662 C1668 0.930 . S
H1663 C1672 0.930 . S
H1664 C1677 0.929 . S
H1665 C1675 0.929 . S
H1666 C1670 0.929 . S
H1667 C1676 0.929 . S
C1668 H1662 0.930 . S
C1668 C1669 1.367 . S
C1668 C1676 1.378 . S
C1669 C1668 1.367 . S
C1669 C1677 1.433 . S
C1670 H1666 0.929 . S
C1670 C1672 1.378 . S
C1670 C1674 1.350 . S
C1671 C1674 1.463 . S
C1671 C1676 1.350 . S
C1671 N1679 1.427 . S
C1672 H1663 0.930 . S
C1672 C1670 1.378 . S
C1672 C1673 1.367 . S
C1673 C1672 1.367 . S
C1673 C1675 1.433 . S
C1674 C1670 1.350 . S
C1674 C1671 1.463 . S
C1674 N1678 1.427 . S
C1675 H1665 0.929 . S
C1675 C1673 1.433 . S
C1675 N1678 1.384 . S
C1676 H1667 0.929 . S
C1676 C1668 1.378 . S
C1676 C1671 1.350 . S
C1677 H1664 0.929 . S
C1677 C1669 1.433 . S
C1677 N1679 1.384 . S
N1678 C1674 1.427 . S
N1678 C1675 1.384 . S
N1679 C1671 1.427 . S
N1679 C1677 1.384 . S
H1680 C1686 0.930 . S
H1681 C1690 0.930 . S
H1682 C1695 0.929 . S
H1683 C1693 0.929 . S
H1684 C1688 0.929 . S
H1685 C1694 0.929 . S
C1686 H1680 0.930 . S
C1686 C1687 1.367 . S
C1686 C1694 1.378 . S
C1687 C1686 1.367 . S
C1687 C1695 1.433 . S
C1688 H1684 0.929 . S
C1688 C1690 1.378 . S
C1688 C1692 1.350 . S
C1689 C1692 1.463 . S
C1689 C1694 1.350 . S
C1689 N1697 1.427 . S
C1690 H1681 0.930 . S
C1690 C1688 1.378 . S
C1690 C1691 1.367 . S
C1691 C1690 1.367 . S
C1691 C1693 1.433 . S
C1692 C1688 1.350 . S
C1692 C1689 1.463 . S
C1692 N1696 1.427 . S
C1693 H1683 0.929 . S
C1693 C1691 1.433 . S
C1693 N1696 1.384 . S
C1694 H1685 0.929 . S
C1694 C1686 1.378 . S
C1694 C1689 1.350 . S
C1695 H1682 0.929 . S
C1695 C1687 1.433 . S
C1695 N1697 1.384 . S
N1696 C1692 1.427 . S
N1696 C1693 1.384 . S
N1697 C1689 1.427 . S
N1697 C1695 1.384 . S
H1698 C1704 0.930 . S
H1699 C1708 0.930 . S
H1700 C1713 0.929 . S
H1701 C1711 0.929 . S
H1702 C1706 0.929 . S
H1703 C1712 0.929 . S
C1704 H1698 0.930 . S
C1704 C1705 1.367 . S
C1704 C1712 1.378 . S
C1705 C1704 1.367 . S
C1705 C1713 1.433 . S
C1706 H1702 0.929 . S
C1706 C1708 1.378 . S
C1706 C1710 1.350 . S
C1707 C1710 1.463 . S
C1707 C1712 1.350 . S
C1707 N1715 1.427 . S
C1708 H1699 0.930 . S
C1708 C1706 1.378 . S
C1708 C1709 1.367 . S
C1709 C1708 1.367 . S
C1709 C1711 1.433 . S
C1710 C1706 1.350 . S
C1710 C1707 1.463 . S
C1710 N1714 1.427 . S
C1711 H1701 0.929 . S
C1711 C1709 1.433 . S
C1711 N1714 1.384 . S
C1712 H1703 0.929 . S
C1712 C1704 1.378 . S
C1712 C1707 1.350 . S
C1713 H1700 0.929 . S
C1713 C1705 1.433 . S
C1713 N1715 1.384 . S
N1714 C1710 1.427 . S
N1714 C1711 1.384 . S
N1715 C1707 1.427 . S
N1715 C1713 1.384 . S
H1716 C1722 0.930 . S
H1717 C1726 0.930 . S
H1718 C1731 0.929 . S
H1719 C1729 0.929 . S
H1720 C1724 0.929 . S
H1721 C1730 0.929 . S
C1722 H1716 0.930 . S
C1722 C1723 1.367 . S
C1722 C1730 1.378 . S
C1723 C1722 1.367 . S
C1723 C1731 1.433 . S
C1724 H1720 0.929 . S
C1724 C1726 1.378 . S
C1724 C1728 1.350 . S
C1725 C1728 1.463 . S
C1725 C1730 1.350 . S
C1725 N1733 1.427 . S
C1726 H1717 0.930 . S
C1726 C1724 1.378 . S
C1726 C1727 1.367 . S
C1727 C1726 1.367 . S
C1727 C1729 1.433 . S
C1728 C1724 1.350 . S
C1728 C1725 1.463 . S
C1728 N1732 1.427 . S
C1729 H1719 0.929 . S
C1729 C1727 1.433 . S
C1729 N1732 1.384 . S
C1730 H1721 0.929 . S
C1730 C1722 1.378 . S
C1730 C1725 1.350 . S
C1731 H1718 0.929 . S
C1731 C1723 1.433 . S
C1731 N1733 1.384 . S
N1732 C1728 1.427 . S
N1732 C1729 1.384 . S
N1733 C1725 1.427 . S
N1733 C1731 1.384 . S
C881 C699 1.299 . S
C877 C75 1.330 . S
C899 C700 0.990 . S
C895 C156 0.897 . S
C917 C694 1.449 . S
C913 C243 1.414 . S
C931 C315 0.705 . S
C935 C693 0.590 . S
C949 C399 0.743 . S
C953 C696 0.542 . S
C971 C698 1.239 . S
C967 C495 1.204 . S
C985 C576 1.017 . S
C989 C697 1.109 . S
C1003 C654 1.274 . S
C1007 C695 1.243 . S
C1025 C730 1.024 . S
C1021 C72 0.958 . S
C1039 C140 1.483 . S
C1043 C761 1.464 . S
C1061 C729 1.045 . S
C1057 C240 0.983 . S
C1079 C764 0.901 . S
C1075 C318 0.846 . S
C1093 C402 1.141 . S
C1097 C727 1.164 . S
C1115 C759 1.762 1_556 S
C1111 C492 1.635 . S
C1129 C560 1.151 . S
C1133 C732 1.224 . S
C1147 C655 2.697 . S
C1151 C766 2.710 1_556 S
C1165 C56 3.114 . S
C1169 C762 3.213 . S
C1183 C403 1.833 . S
C1187 C765 1.782 1_556 S
C1205 C733 2.263 . S
C1201 C476 2.142 . S
C1223 C760 1.601 1_556 S
C1219 C579 1.550 . S
C1237 C651 1.398 . S
C1241 C726 1.517 . S
C1255 C224 3.060 . S
C1259 C763 3.222 . S
C1277 C728 1.399 . S
C1273 C319 1.447 . S
C1291 C159 1.873 . S
C1295 C731 1.929 . S
C1309 C663 1.264 . S
C1313 C798 1.221 . S
C1327 C408 0.844 . S
C1331 C799 0.384 . S
C1349 C793 1.366 . S
C1345 C486 1.340 . S
C1367 C792 1.416 . S
C1363 C567 1.260 . S
C1381 C147 0.686 . S
C1385 C795 0.601 . S
C1403 C797 1.322 . S
C1399 C234 1.281 . S
C1417 C324 0.862 . S
C1421 C796 0.968 . S
C1435 C66 1.262 . S
C1439 C794 1.209 . S
C1453 C660 1.427 . S
C1457 C832 1.511 . S
C1475 C864 1.347 . S
C1471 C392 1.427 . S
C1489 C487 2.049 . S
C1493 C825 2.180 . S
C1507 C570 1.844 . S
C1511 C859 1.907 . S
C1529 C830 1.682 . S
C1525 C150 1.595 . S
C1543 C235 3.287 . S
C1547 C861 3.395 . S
C1565 C827 1.700 . S
C1561 C308 1.772 . S
C1583 C862 3.139 . S
C1579 C67 2.908 . S
C1601 C858 2.623 . S
C1597 C644 2.424 . S
C1615 C151 1.134 . S
C1619 C860 1.146 . S
C1633 C231 0.880 . S
C1637 C829 0.949 . S
C1655 C863 1.171 . S
C1651 C327 1.133 . S
C1669 C63 1.006 . S
C1673 C828 1.074 . S
C1687 C483 1.823 . S
C1691 C865 1.886 . S
C1709 C831 1.401 . S
C1705 C571 1.422 . S
C1727 C826 0.905 . S
C1723 C411 0.877 . S
