# Generated by pormake.
# Topology gar, (4,6)-cn, num edge types: 1
# Building blocks:
#     Node 0, Type 0, BuildingBlock: GALJAG_clean_sbu_0, # of connection points: 4
#     Node 1, Type 0, BuildingBlock: GALJAG_clean_sbu_0, # of connection points: 4
#     Node 2, Type 0, BuildingBlock: GALJAG_clean_sbu_0, # of connection points: 4
#     Node 3, Type 0, BuildingBlock: GALJAG_clean_sbu_0, # of connection points: 4
#     Node 4, Type 0, BuildingBlock: GALJAG_clean_sbu_0, # of connection points: 4
#     Node 5, Type 0, BuildingBlock: GALJAG_clean_sbu_0, # of connection points: 4
#     Node 6, Type 0, BuildingBlock: GALJAG_clean_sbu_0, # of connection points: 4
#     Node 7, Type 0, BuildingBlock: GALJAG_clean_sbu_0, # of connection points: 4
#     Node 8, Type 0, BuildingBlock: GALJAG_clean_sbu_0, # of connection points: 4
#     Node 9, Type 0, BuildingBlock: GALJAG_clean_sbu_0, # of connection points: 4
#     Node 10, Type 0, BuildingBlock: GALJAG_clean_sbu_0, # of connection points: 4
#     Node 11, Type 0, BuildingBlock: GALJAG_clean_sbu_0, # of connection points: 4
#     Node 12, Type 0, BuildingBlock: GALJAG_clean_sbu_0, # of connection points: 4
#     Node 13, Type 0, BuildingBlock: GALJAG_clean_sbu_0, # of connection points: 4
#     Node 14, Type 0, BuildingBlock: GALJAG_clean_sbu_0, # of connection points: 4
#     Node 15, Type 0, BuildingBlock: GALJAG_clean_sbu_0, # of connection points: 4
#     Node 16, Type 0, BuildingBlock: GALJAG_clean_sbu_0, # of connection points: 4
#     Node 17, Type 0, BuildingBlock: GALJAG_clean_sbu_0, # of connection points: 4
#     Node 18, Type 0, BuildingBlock: GALJAG_clean_sbu_0, # of connection points: 4
#     Node 19, Type 0, BuildingBlock: GALJAG_clean_sbu_0, # of connection points: 4
#     Node 20, Type 0, BuildingBlock: GALJAG_clean_sbu_0, # of connection points: 4
#     Node 21, Type 0, BuildingBlock: GALJAG_clean_sbu_0, # of connection points: 4
#     Node 22, Type 0, BuildingBlock: GALJAG_clean_sbu_0, # of connection points: 4
#     Node 23, Type 0, BuildingBlock: GALJAG_clean_sbu_0, # of connection points: 4
#     Node 24, Type 1, BuildingBlock: PAMTUU_clean_sbu_0, # of connection points: 6
#     Node 25, Type 1, BuildingBlock: PAMTUU_clean_sbu_0, # of connection points: 6
#     Node 26, Type 1, BuildingBlock: PAMTUU_clean_sbu_0, # of connection points: 6
#     Node 27, Type 1, BuildingBlock: PAMTUU_clean_sbu_0, # of connection points: 6
#     Node 28, Type 1, BuildingBlock: PAMTUU_clean_sbu_0, # of connection points: 6
#     Node 29, Type 1, BuildingBlock: PAMTUU_clean_sbu_0, # of connection points: 6
#     Node 30, Type 1, BuildingBlock: PAMTUU_clean_sbu_0, # of connection points: 6
#     Node 31, Type 1, BuildingBlock: PAMTUU_clean_sbu_0, # of connection points: 6
#     Node 32, Type 1, BuildingBlock: PAMTUU_clean_sbu_0, # of connection points: 6
#     Node 33, Type 1, BuildingBlock: PAMTUU_clean_sbu_0, # of connection points: 6
#     Node 34, Type 1, BuildingBlock: PAMTUU_clean_sbu_0, # of connection points: 6
#     Node 35, Type 1, BuildingBlock: PAMTUU_clean_sbu_0, # of connection points: 6
#     Node 36, Type 1, BuildingBlock: PAMTUU_clean_sbu_0, # of connection points: 6
#     Node 37, Type 1, BuildingBlock: PAMTUU_clean_sbu_0, # of connection points: 6
#     Node 38, Type 1, BuildingBlock: PAMTUU_clean_sbu_0, # of connection points: 6
#     Node 39, Type 1, BuildingBlock: PAMTUU_clean_sbu_0, # of connection points: 6
#     Edge 40, Type (0, 1), BuildingBlock: TEMPAE_clean_linker_10, # of connection points: 2
#     Edge 41, Type (0, 1), BuildingBlock: TEMPAE_clean_linker_10, # of connection points: 2
#     Edge 42, Type (0, 1), BuildingBlock: TEMPAE_clean_linker_10, # of connection points: 2
#     Edge 43, Type (0, 1), BuildingBlock: TEMPAE_clean_linker_10, # of connection points: 2
#     Edge 44, Type (0, 1), BuildingBlock: TEMPAE_clean_linker_10, # of connection points: 2
#     Edge 45, Type (0, 1), BuildingBlock: TEMPAE_clean_linker_10, # of connection points: 2
#     Edge 46, Type (0, 1), BuildingBlock: TEMPAE_clean_linker_10, # of connection points: 2
#     Edge 47, Type (0, 1), BuildingBlock: TEMPAE_clean_linker_10, # of connection points: 2
#     Edge 48, Type (0, 1), BuildingBlock: TEMPAE_clean_linker_10, # of connection points: 2
#     Edge 49, Type (0, 1), BuildingBlock: TEMPAE_clean_linker_10, # of connection points: 2
#     Edge 50, Type (0, 1), BuildingBlock: TEMPAE_clean_linker_10, # of connection points: 2
#     Edge 51, Type (0, 1), BuildingBlock: TEMPAE_clean_linker_10, # of connection points: 2
#     Edge 52, Type (0, 1), BuildingBlock: TEMPAE_clean_linker_10, # of connection points: 2
#     Edge 53, Type (0, 1), BuildingBlock: TEMPAE_clean_linker_10, # of connection points: 2
#     Edge 54, Type (0, 1), BuildingBlock: TEMPAE_clean_linker_10, # of connection points: 2
#     Edge 55, Type (0, 1), BuildingBlock: TEMPAE_clean_linker_10, # of connection points: 2
#     Edge 56, Type (0, 1), BuildingBlock: TEMPAE_clean_linker_10, # of connection points: 2
#     Edge 57, Type (0, 1), BuildingBlock: TEMPAE_clean_linker_10, # of connection points: 2
#     Edge 58, Type (0, 1), BuildingBlock: TEMPAE_clean_linker_10, # of connection points: 2
#     Edge 59, Type (0, 1), BuildingBlock: TEMPAE_clean_linker_10, # of connection points: 2
#     Edge 60, Type (0, 1), BuildingBlock: TEMPAE_clean_linker_10, # of connection points: 2
#     Edge 61, Type (0, 1), BuildingBlock: TEMPAE_clean_linker_10, # of connection points: 2
#     Edge 62, Type (0, 1), BuildingBlock: TEMPAE_clean_linker_10, # of connection points: 2
#     Edge 63, Type (0, 1), BuildingBlock: TEMPAE_clean_linker_10, # of connection points: 2
#     Edge 64, Type (0, 1), BuildingBlock: TEMPAE_clean_linker_10, # of connection points: 2
#     Edge 65, Type (0, 1), BuildingBlock: TEMPAE_clean_linker_10, # of connection points: 2
#     Edge 66, Type (0, 1), BuildingBlock: TEMPAE_clean_linker_10, # of connection points: 2
#     Edge 67, Type (0, 1), BuildingBlock: TEMPAE_clean_linker_10, # of connection points: 2
#     Edge 68, Type (0, 1), BuildingBlock: TEMPAE_clean_linker_10, # of connection points: 2
#     Edge 69, Type (0, 1), BuildingBlock: TEMPAE_clean_linker_10, # of connection points: 2
#     Edge 70, Type (0, 1), BuildingBlock: TEMPAE_clean_linker_10, # of connection points: 2
#     Edge 71, Type (0, 1), BuildingBlock: TEMPAE_clean_linker_10, # of connection points: 2
#     Edge 72, Type (0, 1), BuildingBlock: TEMPAE_clean_linker_10, # of connection points: 2
#     Edge 73, Type (0, 1), BuildingBlock: TEMPAE_clean_linker_10, # of connection points: 2
#     Edge 74, Type (0, 1), BuildingBlock: TEMPAE_clean_linker_10, # of connection points: 2
#     Edge 75, Type (0, 1), BuildingBlock: TEMPAE_clean_linker_10, # of connection points: 2
#     Edge 76, Type (0, 1), BuildingBlock: TEMPAE_clean_linker_10, # of connection points: 2
#     Edge 77, Type (0, 1), BuildingBlock: TEMPAE_clean_linker_10, # of connection points: 2
#     Edge 78, Type (0, 1), BuildingBlock: TEMPAE_clean_linker_10, # of connection points: 2
#     Edge 79, Type (0, 1), BuildingBlock: TEMPAE_clean_linker_10, # of connection points: 2
#     Edge 80, Type (0, 1), BuildingBlock: TEMPAE_clean_linker_10, # of connection points: 2
#     Edge 81, Type (0, 1), BuildingBlock: TEMPAE_clean_linker_10, # of connection points: 2
#     Edge 82, Type (0, 1), BuildingBlock: TEMPAE_clean_linker_10, # of connection points: 2
#     Edge 83, Type (0, 1), BuildingBlock: TEMPAE_clean_linker_10, # of connection points: 2
#     Edge 84, Type (0, 1), BuildingBlock: TEMPAE_clean_linker_10, # of connection points: 2
#     Edge 85, Type (0, 1), BuildingBlock: TEMPAE_clean_linker_10, # of connection points: 2
#     Edge 86, Type (0, 1), BuildingBlock: TEMPAE_clean_linker_10, # of connection points: 2
#     Edge 87, Type (0, 1), BuildingBlock: TEMPAE_clean_linker_10, # of connection points: 2
#     Edge 88, Type (0, 1), BuildingBlock: TEMPAE_clean_linker_10, # of connection points: 2
#     Edge 89, Type (0, 1), BuildingBlock: TEMPAE_clean_linker_10, # of connection points: 2
#     Edge 90, Type (0, 1), BuildingBlock: TEMPAE_clean_linker_10, # of connection points: 2
#     Edge 91, Type (0, 1), BuildingBlock: TEMPAE_clean_linker_10, # of connection points: 2
#     Edge 92, Type (0, 1), BuildingBlock: TEMPAE_clean_linker_10, # of connection points: 2
#     Edge 93, Type (0, 1), BuildingBlock: TEMPAE_clean_linker_10, # of connection points: 2
#     Edge 94, Type (0, 1), BuildingBlock: TEMPAE_clean_linker_10, # of connection points: 2
#     Edge 95, Type (0, 1), BuildingBlock: TEMPAE_clean_linker_10, # of connection points: 2
#     Edge 96, Type (0, 1), BuildingBlock: TEMPAE_clean_linker_10, # of connection points: 2
#     Edge 97, Type (0, 1), BuildingBlock: TEMPAE_clean_linker_10, # of connection points: 2
#     Edge 98, Type (0, 1), BuildingBlock: TEMPAE_clean_linker_10, # of connection points: 2
#     Edge 99, Type (0, 1), BuildingBlock: TEMPAE_clean_linker_10, # of connection points: 2
#     Edge 100, Type (0, 1), BuildingBlock: TEMPAE_clean_linker_10, # of connection points: 2
#     Edge 101, Type (0, 1), BuildingBlock: TEMPAE_clean_linker_10, # of connection points: 2
#     Edge 102, Type (0, 1), BuildingBlock: TEMPAE_clean_linker_10, # of connection points: 2
#     Edge 103, Type (0, 1), BuildingBlock: TEMPAE_clean_linker_10, # of connection points: 2
#     Edge 104, Type (0, 1), BuildingBlock: TEMPAE_clean_linker_10, # of connection points: 2
#     Edge 105, Type (0, 1), BuildingBlock: TEMPAE_clean_linker_10, # of connection points: 2
#     Edge 106, Type (0, 1), BuildingBlock: TEMPAE_clean_linker_10, # of connection points: 2
#     Edge 107, Type (0, 1), BuildingBlock: TEMPAE_clean_linker_10, # of connection points: 2
#     Edge 108, Type (0, 1), BuildingBlock: TEMPAE_clean_linker_10, # of connection points: 2
#     Edge 109, Type (0, 1), BuildingBlock: TEMPAE_clean_linker_10, # of connection points: 2
#     Edge 110, Type (0, 1), BuildingBlock: TEMPAE_clean_linker_10, # of connection points: 2
#     Edge 111, Type (0, 1), BuildingBlock: TEMPAE_clean_linker_10, # of connection points: 2
#     Edge 112, Type (0, 1), BuildingBlock: TEMPAE_clean_linker_10, # of connection points: 2
#     Edge 113, Type (0, 1), BuildingBlock: TEMPAE_clean_linker_10, # of connection points: 2
#     Edge 114, Type (0, 1), BuildingBlock: TEMPAE_clean_linker_10, # of connection points: 2
#     Edge 115, Type (0, 1), BuildingBlock: TEMPAE_clean_linker_10, # of connection points: 2
#     Edge 116, Type (0, 1), BuildingBlock: TEMPAE_clean_linker_10, # of connection points: 2
#     Edge 117, Type (0, 1), BuildingBlock: TEMPAE_clean_linker_10, # of connection points: 2
#     Edge 118, Type (0, 1), BuildingBlock: TEMPAE_clean_linker_10, # of connection points: 2
#     Edge 119, Type (0, 1), BuildingBlock: TEMPAE_clean_linker_10, # of connection points: 2
#     Edge 120, Type (0, 1), BuildingBlock: TEMPAE_clean_linker_10, # of connection points: 2
#     Edge 121, Type (0, 1), BuildingBlock: TEMPAE_clean_linker_10, # of connection points: 2
#     Edge 122, Type (0, 1), BuildingBlock: TEMPAE_clean_linker_10, # of connection points: 2
#     Edge 123, Type (0, 1), BuildingBlock: TEMPAE_clean_linker_10, # of connection points: 2
#     Edge 124, Type (0, 1), BuildingBlock: TEMPAE_clean_linker_10, # of connection points: 2
#     Edge 125, Type (0, 1), BuildingBlock: TEMPAE_clean_linker_10, # of connection points: 2
#     Edge 126, Type (0, 1), BuildingBlock: TEMPAE_clean_linker_10, # of connection points: 2
#     Edge 127, Type (0, 1), BuildingBlock: TEMPAE_clean_linker_10, # of connection points: 2
#     Edge 128, Type (0, 1), BuildingBlock: TEMPAE_clean_linker_10, # of connection points: 2
#     Edge 129, Type (0, 1), BuildingBlock: TEMPAE_clean_linker_10, # of connection points: 2
#     Edge 130, Type (0, 1), BuildingBlock: TEMPAE_clean_linker_10, # of connection points: 2
#     Edge 131, Type (0, 1), BuildingBlock: TEMPAE_clean_linker_10, # of connection points: 2
#     Edge 132, Type (0, 1), BuildingBlock: TEMPAE_clean_linker_10, # of connection points: 2
#     Edge 133, Type (0, 1), BuildingBlock: TEMPAE_clean_linker_10, # of connection points: 2
#     Edge 134, Type (0, 1), BuildingBlock: TEMPAE_clean_linker_10, # of connection points: 2
#     Edge 135, Type (0, 1), BuildingBlock: TEMPAE_clean_linker_10, # of connection points: 2
# Relax obj value: 0.188
# Max RMSD: 0.331
# Mean RMSD: 0.178
data_MOF--net-gar--node1-GALJAG_clean_sbu_0--node2-PAMTUU_clean_sbu_0--edge1-TEMPAE_clean_linker_10
_symmetry_space_group_name_H-M    P1
_symmetry_Int_Tables_number       1
_symmetry_cell_setting            triclinic
loop_
_symmetry_equiv_pos_as_xyz
'x, y, z'
_cell_length_a     60.862089
_cell_length_b     56.814454
_cell_length_c     60.404238
_cell_angle_alpha  93.461531
_cell_angle_beta   93.636044
_cell_angle_gamma 106.01533
loop_
_atom_site_label
_atom_site_type_symbol
_atom_site_fract_x
_atom_site_fract_y
_atom_site_fract_z
_atom_type_partial_charge
In0 In 0.06052 0.28726 0.39921 0.0
O1 O 0.08313 0.28639 0.36628 0.0
O2 O 0.10189 0.29254 0.39676 0.0
C3 C 1.01498 0.28439 0.3766 0.0
C4 C 0.05787 0.2433 0.4237 0.0
C5 C 0.06393 0.3339 0.42432 0.0
O6 O 0.03291 0.285 0.36653 0.0
O7 O 0.01974 0.28416 0.39726 0.0
O8 O 0.05378 0.31285 0.43 0.0
O9 O 0.07359 0.33184 0.40659 0.0
C10 C 0.10319 0.28991 0.3759 0.0
O11 O 0.0691 0.26511 0.4305 0.0
O12 O 0.04768 0.24328 0.40468 0.0
In13 In 0.05199 0.79947 0.67383 0.0
O14 O 0.05793 0.8243 0.64171 0.0
O15 O 0.05406 0.84284 0.67106 0.0
C16 C 0.04761 0.75198 0.64972 0.0
C17 C 0.09778 0.80387 0.69663 0.0
C18 C 1.00825 0.79457 0.69576 0.0
O19 O 0.04023 0.76888 0.64191 0.0
O20 O 0.05594 0.75835 0.66958 0.0
O21 O 0.02816 0.79917 0.70591 0.0
O22 O 1.01015 0.79155 0.67505 0.0
C23 C 0.05679 0.84472 0.65054 0.0
O24 O 0.07959 0.80237 0.7065 0.0
O25 O 0.09328 0.8047 0.67596 0.0
In26 In 0.56069 0.7877 0.8991 0.0
O27 O 0.58329 0.78613 0.86617 0.0
O28 O 0.60236 0.79523 0.89633 0.0
C29 C 0.51451 0.7842 0.8778 0.0
C30 C 0.55683 0.7437 0.9241 0.0
C31 C 0.56456 0.83527 0.92259 0.0
O32 O 0.53116 0.78081 0.86745 0.0
O33 O 0.52069 0.78811 0.89846 0.0
O34 O 0.56659 0.81647 0.9319 0.0
O35 O 0.56183 0.83069 0.90166 0.0
C36 C 0.60354 0.79125 0.87562 0.0
O37 O 0.56796 0.76551 0.93093 0.0
O38 O 0.54697 0.74372 0.90492 0.0
In39 In 0.5524 0.29943 0.17445 0.0
O40 O 0.53683 0.25608 0.16237 0.0
O41 O 0.56189 0.27585 0.1435 0.0
C42 C 0.55575 0.34372 0.15001 0.0
C43 C 0.5088 0.295 0.19661 0.0
C44 C 0.59653 0.30122 0.20004 0.0
O45 O 0.55714 0.32322 0.1415 0.0
O46 O 0.55309 0.3422 0.17057 0.0
O47 O 0.57999 0.28226 0.19452 0.0
O48 O 0.59058 0.31987 0.19429 0.0
C49 C 0.54909 0.25468 0.14639 0.0
O50 O 0.52872 0.29904 0.20669 0.0
O51 O 0.51068 0.29254 0.17583 0.0
In52 In 0.09931 0.81804 0.13547 0.0
O53 O 0.11539 0.78843 0.12218 0.0
O54 O 0.08209 0.7864 0.1084 0.0
C55 C 0.09859 0.85945 0.11423 0.0
C56 C 0.06214 0.80812 0.15962 0.0
C57 C 0.13591 0.82395 0.16576 0.0
O58 O 0.11012 0.84527 0.10788 0.0
O59 O 0.08773 0.85268 0.13082 0.0
O60 O 0.1174 0.80713 0.16575 0.0
O61 O 0.13606 0.83834 0.15056 0.0
C62 C 0.09838 0.77662 0.10923 0.0
O63 O 0.08077 0.82401 0.16615 0.0
O64 O 0.06223 0.79699 0.14089 0.0
In65 In 0.51863 0.78741 0.43696 0.0
O66 O 0.53441 0.78152 0.40451 0.0
O67 O 0.55717 0.79588 0.43334 0.0
C68 C 0.47792 0.78564 0.41439 0.0
C69 C 0.5193 0.74555 0.45678 0.0
C70 C 0.52615 0.83255 0.45913 0.0
O71 O 0.49717 0.79463 0.40718 0.0
O72 O 0.47892 0.77667 0.43293 0.0
O73 O 0.51484 0.81313 0.46694 0.0
O74 O 0.53407 0.82896 0.44087 0.0
C75 C 0.55494 0.78922 0.41279 0.0
O76 O 0.52478 0.76647 0.46741 0.0
O77 O 0.51267 0.7457 0.43659 0.0
In78 In 0.603 0.32436 0.63519 0.0
O79 O 0.59475 0.297 0.60372 0.0
O80 O 0.6018 0.2839 0.63477 0.0
C81 C 0.60251 0.36673 0.61583 0.0
C82 C 0.5648 0.31343 0.65787 0.0
C83 C 0.64547 0.33363 0.65701 0.0
O84 O 0.6083 0.34951 0.60574 0.0
O85 O 0.59758 0.36271 0.63543 0.0
O86 O 0.62886 0.33864 0.66574 0.0
O87 O 0.64105 0.32513 0.63696 0.0
C88 C 0.59697 0.27898 0.6141 0.0
O89 O 0.58485 0.31846 0.66726 0.0
O90 O 0.56394 0.31364 0.63694 0.0
In91 In 0.01631 0.28233 0.93835 0.0
O92 O 0.02276 0.26129 0.96882 0.0
O93 O 1.01021 0.24055 0.93812 0.0
C94 C 0.02253 0.32723 0.96091 0.0
C95 C 0.05313 0.28421 0.91491 0.0
C96 C 0.97684 0.28037 0.91327 0.0
O97 O 1.01018 0.30768 0.96772 0.0
O98 O 0.03202 0.32384 0.94355 0.0
O99 O 0.99662 0.29092 0.90799 0.0
O100 O 0.97664 0.27017 0.93132 0.0
C101 C 0.01723 0.24036 0.95819 0.0
O102 O 0.03273 0.27621 0.90638 0.0
O103 O 0.05502 0.29126 0.93535 0.0
In104 In 0.45639 0.08004 0.31752 0.0
O105 O 0.48856 0.09145 0.29902 0.0
O106 O 0.47665 0.05414 0.30612 0.0
C107 C 0.47312 0.10101 0.35848 0.0
C108 C 0.43624 0.10636 0.29164 0.0
C109 C 0.42481 0.03645 0.31942 0.0
O110 O 0.48435 0.10525 0.34164 0.0
O111 O 0.45284 0.08745 0.35438 0.0
O112 O 0.42122 0.05301 0.30791 0.0
O113 O 0.44408 0.04215 0.33048 0.0
C114 C 0.49135 0.07026 0.29736 0.0
O115 O 0.44355 0.08908 0.28402 0.0
O116 O 0.43932 0.11072 0.31256 0.0
In117 In 0.30044 0.21748 0.53083 0.0
O118 O 0.31773 0.24653 0.5609 0.0
O119 O 0.2834 0.22628 0.56234 0.0
C120 C 0.30516 0.23609 0.48916 0.0
C121 C 0.33466 0.19572 0.53703 0.0
C122 C 0.25936 0.18238 0.52675 0.0
O123 O 0.29862 0.24704 0.50528 0.0
O124 O 0.3093 0.21648 0.49419 0.0
O125 O 0.27787 0.17875 0.53425 0.0
O126 O 0.2615 0.20379 0.52067 0.0
C127 C 0.30064 0.24161 0.57241 0.0
O128 O 0.31369 0.18402 0.53449 0.0
O129 O 0.33863 0.21872 0.53656 0.0
In130 In 0.17121 0.02862 0.81464 0.0
O131 O 0.13335 0.02748 0.80822 0.0
O132 O 0.15325 0.02769 0.78056 0.0
C133 C 0.16426 0.02181 0.85762 0.0
C134 C 0.19143 0.99436 0.80116 0.0
C135 C 0.19662 0.07488 0.81038 0.0
O136 O 0.15297 1.00665 0.84202 0.0
O137 O 0.1793 0.03969 0.85144 0.0
O138 O 0.20195 0.05631 0.80255 0.0
O139 O 0.17838 0.0701 0.82012 0.0
C140 C 0.13402 0.0273 0.78738 0.0
O141 O 0.20128 0.01219 0.81508 0.0
O142 O 0.171 0.9932 0.79483 0.0
In143 In 0.29839 0.91745 0.01735 0.0
O144 O 0.27863 0.88264 0.03251 0.0
O145 O 0.31207 0.90197 0.04693 0.0
C146 C 0.28885 0.89705 0.97526 0.0
C147 C 0.2711 0.94398 0.03234 0.0
C148 C 0.34253 0.94362 0.01643 0.0
O149 O 0.28929 0.88466 0.99182 0.0
O150 O 0.29254 0.91983 0.97995 0.0
O151 O 0.32663 0.95373 0.01814 0.0
O152 O 0.33606 0.92049 0.01479 0.0
C153 C 0.29461 0.88388 0.04733 0.0
O154 O 0.28804 0.94128 0.04392 0.0
O155 O 0.26767 0.93303 0.01309 0.0
In156 In 0.31169 0.37538 0.03979 0.0
O157 O 0.29272 0.34851 0.06532 0.0
O158 O 0.32628 0.37009 0.07522 0.0
C159 C 0.30777 0.3541 0.9964 0.0
C160 C 0.27941 0.40028 0.04147 0.0
C161 C 0.3545 0.40609 0.03868 0.0
O162 O 0.31075 0.34255 0.01316 0.0
O163 O 0.30598 0.37519 1.00173 0.0
O164 O 0.33697 0.41352 0.0409 0.0
O165 O 0.35062 0.38296 0.03763 0.0
C166 C 0.30864 0.35486 0.08086 0.0
O167 O 0.30041 0.41003 0.04723 0.0
O168 O 0.27443 0.37765 0.03525 0.0
In169 In 0.81585 0.15836 0.06721 0.0
O170 O 0.82899 0.12527 0.0725 0.0
O171 O 0.84989 0.15453 0.05631 0.0
C172 C 0.77149 0.13184 0.0641 0.0
C173 C 0.82365 0.18201 0.10807 0.0
C174 C 0.81763 0.18639 0.03266 0.0
O175 O 0.78607 0.12605 0.05265 0.0
O176 O 0.77939 0.15061 0.07747 0.0
O177 O 0.8287 0.19463 0.0512 0.0
O178 O 0.80624 0.16411 0.03157 0.0
C179 C 0.84721 0.13347 0.06318 0.0
O180 O 0.81598 0.19051 0.09138 0.0
O181 O 0.82807 0.16182 0.10403 0.0
In182 In 0.15869 0.54501 0.26958 0.0
O183 O 0.18457 0.53689 0.29459 0.0
O184 O 0.17437 0.51328 0.26485 0.0
C185 C 0.18361 0.59243 0.2762 0.0
C186 C 0.14474 0.53442 0.22622 0.0
C187 C 0.1204 0.53561 0.29148 0.0
O188 O 0.19099 0.57604 0.2668 0.0
O189 O 0.1635 0.58497 0.28211 0.0
O190 O 0.12164 0.54493 0.27306 0.0
O191 O 0.13854 0.53119 0.29894 0.0
C192 C 0.18668 0.51853 0.28305 0.0
O193 O 0.14045 0.51839 0.24014 0.0
O194 O 0.15663 0.55546 0.23414 0.0
In195 In 0.81025 0.87784 0.54005 0.0
O196 O 0.79059 0.85171 0.56581 0.0
O197 O 0.82515 0.87052 0.57475 0.0
C198 C 0.80683 0.85691 0.49656 0.0
C199 C 0.77815 0.90309 0.54153 0.0
C200 C 0.85318 0.90842 0.5393 0.0
O201 O 0.80785 0.84461 0.51327 0.0
O202 O 0.80675 0.87861 0.50195 0.0
O203 O 0.83573 0.91598 0.54162 0.0
O204 O 0.84914 0.88528 0.53802 0.0
C205 C 0.80702 0.85652 0.58082 0.0
O206 O 0.79869 0.91199 0.54943 0.0
O207 O 0.77352 0.88112 0.5333 0.0
In208 In 0.9365 0.05508 0.23338 0.0
O209 O 0.96514 0.0779 0.21452 0.0
O210 O 0.93715 0.05238 0.1957 0.0
C211 C 0.96173 0.05693 0.27189 0.0
C212 C 0.90923 0.08411 0.24139 0.0
C213 C 0.91742 1.00619 0.23088 0.0
O214 O 0.9704 0.05881 0.25339 0.0
O215 O 0.94045 0.05469 0.27093 0.0
O216 O 0.90586 0.02114 0.22762 0.0
O217 O 0.93872 0.01581 0.23457 0.0
C218 C 0.95618 0.06829 0.19559 0.0
O219 O 0.9022 0.06343 0.23059 0.0
O220 O 0.93036 0.09068 0.24757 0.0
In221 In 0.31393 0.66154 0.56835 0.0
O222 O 0.32717 0.62793 0.57098 0.0
O223 O 0.34599 0.65712 0.55339 0.0
C224 C 0.26912 0.63765 0.56105 0.0
C225 C 0.32383 0.67677 0.61172 0.0
C226 C 0.31396 0.6962 0.53988 0.0
O227 O 0.2844 0.62952 0.55282 0.0
O228 O 0.27652 0.65761 0.57302 0.0
O229 O 0.31795 0.70134 0.56062 0.0
O230 O 0.31052 0.67381 0.53365 0.0
C231 C 0.34405 0.636 0.5598 0.0
O232 O 0.33568 0.68741 0.59688 0.0
O233 O 0.30762 0.65819 0.60464 0.0
In234 In 0.43488 0.55189 0.73647 0.0
O235 O 0.41728 0.56247 0.76588 0.0
O236 O 0.41439 0.58001 0.73616 0.0
C237 C 0.40917 0.5048 0.72952 0.0
C238 C 0.45337 0.5691 0.69921 0.0
C239 C 0.4682 0.55126 0.76768 0.0
O240 O 0.40032 0.52229 0.73225 0.0
O241 O 0.43066 0.51125 0.72925 0.0
O242 O 0.46194 0.5704 0.76488 0.0
O243 O 0.45813 0.53298 0.75435 0.0
C244 C 0.40938 0.57768 0.75603 0.0
O245 O 0.46415 0.57403 0.71816 0.0
O246 O 0.43295 0.55599 0.69905 0.0
In247 In 0.66199 0.03863 0.76443 0.0
O248 O 0.69422 0.03797 0.78495 0.0
O249 O 0.68066 1.00948 0.7591 0.0
C250 C 0.6845 0.08576 0.76002 0.0
C251 C 0.63481 0.02864 0.72642 0.0
C252 C 0.63396 0.02326 0.79648 0.0
O253 O 0.68978 0.06801 0.75036 0.0
O254 O 0.66745 0.07974 0.77145 0.0
O255 O 0.63363 0.01001 0.77892 0.0
O256 O 0.64867 0.04397 0.79798 0.0
C257 C 0.69625 0.01896 0.77442 0.0
O258 O 0.63275 0.04354 0.74195 0.0
O259 O 0.65085 0.01887 0.72997 0.0
In260 In 0.80154 0.71665 0.03087 0.0
O261 O 0.83798 0.71632 0.04382 0.0
O262 O 0.81644 0.68424 0.02562 0.0
C263 C 0.76026 0.68168 0.02653 0.0
C264 C 0.80132 0.73954 0.07297 0.0
C265 C 0.80715 0.73739 0.99003 0.0
O266 O 0.77871 0.67785 0.03388 0.0
O267 O 0.76254 0.70319 0.02071 0.0
O268 O 0.81598 0.72109 0.9963 0.0
O269 O 0.79586 0.74442 0.00472 0.0
C270 C 0.83572 0.69456 0.03593 0.0
O271 O 0.81581 0.74875 0.05945 0.0
O272 O 0.7868 0.72012 0.06482 0.0
In273 In 0.95143 0.57372 0.82087 0.0
O274 O 0.92609 0.59674 0.82013 0.0
O275 O 0.94458 0.59479 0.79174 0.0
C276 C 0.9201 0.52949 0.81824 0.0
C277 C 0.98518 0.56275 0.79958 0.0
C278 C 0.97053 0.59372 0.86152 0.0
O279 O 0.93459 0.53735 0.83478 0.0
O280 O 0.92133 0.54405 0.80311 0.0
O281 O 0.98085 0.5982 0.84416 0.0
O282 O 0.95019 0.58023 0.85817 0.0
C283 C 0.9296 0.60275 0.8006 0.0
O284 O 0.97143 0.54729 0.80992 0.0
O285 O 0.98226 0.58391 0.80054 0.0
In286 In 0.79326 0.4288 0.50861 0.0
O287 O 0.783 0.38898 0.51839 0.0
O288 O 0.80189 0.41757 0.54239 0.0
C289 C 0.78479 0.41379 0.46485 0.0
C290 C 0.76399 0.45448 0.52058 0.0
C291 C 0.83844 0.45153 0.5153 0.0
O292 O 0.77255 0.40279 0.47927 0.0
O293 O 0.80069 0.43233 0.47253 0.0
O294 O 0.82348 0.46265 0.51879 0.0
O295 O 0.83052 0.42926 0.50817 0.0
C296 C 0.79251 0.39491 0.53796 0.0
O297 O 0.77725 0.46066 0.50544 0.0
O298 O 0.76504 0.43514 0.52909 0.0
In299 In 0.67093 0.53412 0.32079 0.0
O300 O 0.70641 0.52912 0.3219 0.0
O301 O 0.6785 0.49762 0.31188 0.0
C302 C 0.69022 0.5811 0.31343 0.0
C303 C 0.63537 0.52486 0.28935 0.0
C304 C 0.66426 0.53084 0.36419 0.0
O305 O 0.6968 0.56353 0.30521 0.0
O306 O 0.6735 0.57498 0.3253 0.0
O307 O 0.65453 0.51352 0.34968 0.0
O308 O 0.6771 0.54949 0.3567 0.0
C309 C 0.69995 0.50672 0.31514 0.0
O310 O 0.63235 0.52543 0.30982 0.0
O311 O 0.6559 0.52812 0.28505 0.0
Tb312 Tb 0.09076 0.06961 0.04295 0.0
Tb313 Tb 0.0441 0.03293 0.01753 0.0
C314 C 0.04477 0.05904 0.06429 0.0
C315 C 0.14902 0.08787 0.06876 0.0
C316 C 0.18304 0.06306 0.0728 0.0
C317 C 0.16713 0.06146 0.0889 0.0
C318 C 0.15029 0.07378 0.08692 0.0
C319 C 0.16641 0.09154 0.05406 0.0
C320 C 0.18319 0.07914 0.05597 0.0
C321 C 0.12795 0.0951 0.06301 0.0
O322 O 0.0866 0.03357 0.05609 0.0
O323 O 0.06501 1.00891 0.02659 0.0
O324 O 0.06868 0.04083 0.99269 0.0
O325 O 0.10142 0.04912 0.01619 0.0
O326 O 0.01811 0.99957 0.01593 0.0
O327 O 0.01771 0.02584 0.99173 0.0
O328 O 0.03979 0.06996 0.01784 0.0
O329 O 0.07768 0.09167 0.01977 0.0
O330 O 0.06264 0.07656 0.06001 0.0
O331 O 0.03844 0.03795 0.05234 0.0
C332 C 0.07835 0.01179 0.04512 0.0
O333 O 0.12268 0.09559 0.04177 0.0
O334 O 0.10998 0.08438 0.07314 0.0
C335 C 0.09066 0.04302 0.99629 0.0
C336 C 0.98323 1.00878 0.00734 0.0
C337 C 0.94758 0.02703 0.02163 0.0
C338 C 0.95055 0.02428 0.99882 0.0
C339 C 0.96828 0.01521 0.99173 0.0
C340 C 0.97888 1.00944 0.02995 0.0
C341 C 0.9612 0.01845 0.037 0.0
C342 C 1.00564 1.00682 1.00091 0.0
C343 C 0.0559 0.09018 0.01507 0.0
H344 H 0.16695 0.04965 0.10235 0.0
H345 H 0.1374 0.07092 0.09882 0.0
H346 H 0.16608 0.10255 0.04007 0.0
H347 H 0.19518 0.08077 0.04326 0.0
H348 H 0.94031 0.03084 0.98662 0.0
H349 H 0.9714 0.01503 0.97426 0.0
H350 H 0.9901 1.00467 0.04248 0.0
H351 H 0.959 0.01999 0.05465 0.0
Tb352 Tb 0.29192 0.81992 0.32117 0.0
Tb353 Tb 0.31795 0.80841 0.27775 0.0
C354 C 0.27108 0.82302 0.27209 0.0
C355 C 0.27867 0.81768 0.37847 0.0
C356 C 0.28879 0.80119 0.4198 0.0
C357 C 0.27393 0.8162 0.41798 0.0
C358 C 0.26899 0.82453 0.39739 0.0
C359 C 0.29327 0.80252 0.38024 0.0
C360 C 0.29833 0.7944 0.40069 0.0
C361 C 0.27454 0.82676 0.35687 0.0
O362 O 0.28633 0.78046 0.31573 0.0
O363 O 0.28641 0.77935 0.27808 0.0
O364 O 0.334 0.79465 0.30539 0.0
O365 O 0.32594 0.81864 0.33383 0.0
O366 O 0.32857 0.7828 0.25769 0.0
O367 O 0.33722 0.82111 0.25114 0.0
O368 O 0.33699 0.84417 0.29382 0.0
O369 O 0.30646 0.85445 0.30733 0.0
O370 O 0.26751 0.82039 0.29323 0.0
O371 O 0.29037 0.82207 0.26383 0.0
C372 C 0.27995 0.7686 0.29606 0.0
O373 O 0.2924 0.84236 0.35017 0.0
O374 O 0.2643 0.80984 0.34111 0.0
C375 C 0.33776 0.80426 0.32606 0.0
C376 C 0.32708 0.7924 0.22046 0.0
C377 C 0.30845 0.7901 0.17641 0.0
C378 C 0.33235 0.79602 0.1813 0.0
C379 C 0.34161 0.79723 0.20323 0.0
C380 C 0.30322 0.78467 0.21546 0.0
C381 C 0.29396 0.78345 0.19356 0.0
C382 C 0.33658 0.79891 0.24359 0.0
C383 C 0.3274 0.86082 0.30122 0.0
H384 H 0.26635 0.82165 0.43248 0.0
H385 H 0.25776 0.83632 0.39626 0.0
H386 H 0.30079 0.79694 0.36576 0.0
H387 H 0.30943 0.78244 0.40148 0.0
H388 H 0.34394 0.80155 0.16846 0.0
H389 H 0.36005 0.8034 0.20688 0.0
H390 H 0.29174 0.78097 0.22863 0.0
H391 H 0.2755 0.77865 0.19019 0.0
Tb392 Tb 0.53432 0.05221 0.54153 0.0
Tb393 Tb 0.58766 0.05933 0.52796 0.0
C394 C 0.57145 0.04214 0.5743 0.0
C395 C 0.47886 0.06609 0.54934 0.0
C396 C 0.45055 0.0981 0.5472 0.0
C397 C 0.44348 0.07456 0.53585 0.0
C398 C 0.45745 0.05873 0.53698 0.0
C399 C 0.48603 0.08965 0.56069 0.0
C400 C 0.47196 0.10544 0.55972 0.0
C401 C 0.49348 0.04912 0.54971 0.0
O402 O 0.55482 0.08778 0.55714 0.0
O403 O 0.58612 0.09688 0.53614 0.0
O404 O 0.56706 0.06367 0.49839 0.0
O405 O 0.53996 0.07727 0.51574 0.0
O406 O 0.62351 0.07204 0.53492 0.0
O407 O 0.60863 0.05003 0.5045 0.0
O408 O 0.57172 0.02029 0.5293 0.0
O409 O 0.53454 0.01964 0.52031 0.0
O410 O 0.54994 0.03423 0.56617 0.0
O411 O 0.58742 0.05616 0.56345 0.0
C412 C 0.57282 0.10361 0.55026 0.0
O413 O 0.4993 0.04242 0.53042 0.0
O414 O 0.51063 0.05397 0.56499 0.0
C415 C 0.55118 0.07533 0.49832 0.0
C416 C 0.64241 0.04308 0.52104 0.0
C417 C 0.67094 0.0114 0.52661 0.0
C418 C 0.66328 0.01598 0.50522 0.0
C419 C 0.64931 0.03167 0.5025 0.0
C420 C 0.64988 0.03847 0.54245 0.0
C421 C 0.66401 0.02288 0.54519 0.0
C422 C 0.62731 0.05938 0.51755 0.0
C423 C 0.55076 1.00841 0.52146 0.0
H424 H 0.42698 0.06824 0.52629 0.0
H425 H 0.45153 0.04068 0.52809 0.0
H426 H 0.50253 0.09595 0.57024 0.0
H427 H 0.47798 0.12353 0.56849 0.0
H428 H 0.66784 1.00721 0.49048 0.0
H429 H 0.64375 0.03479 0.48581 0.0
H430 H 0.64486 0.0469 0.55713 0.0
H431 H 0.66974 0.02012 0.56192 0.0
Tb432 Tb 0.33186 0.28884 0.7879 0.0
Tb433 Tb 0.28248 0.30162 0.78249 0.0
C434 C 0.28603 0.24908 0.79225 0.0
C435 C 0.3899 0.28371 0.77565 0.0
C436 C 0.4269 0.28917 0.74835 0.0
C437 C 0.40575 0.27159 0.74212 0.0
C438 C 0.38743 0.26893 0.75557 0.0
C439 C 0.41108 0.30114 0.78192 0.0
C440 C 0.42932 0.30393 0.7684 0.0
C441 C 0.37086 0.28114 0.79033 0.0
O442 O 0.31731 0.2755 0.75362 0.0
O443 O 0.29249 0.29915 0.74827 0.0
O444 O 0.30962 0.33598 0.78451 0.0
O445 O 0.33706 0.32115 0.7695 0.0
O446 O 0.24787 0.29266 0.76991 0.0
O447 O 0.26352 0.32633 0.79019 0.0
O448 O 0.28827 0.29716 0.81792 0.0
O449 O 0.32748 0.30652 0.82034 0.0
O450 O 0.3073 0.25841 0.80067 0.0
O451 O 0.27514 0.26198 0.78087 0.0
C452 C 0.30442 0.28483 0.74025 0.0
O453 O 0.3671 0.30151 0.79804 0.0
O454 O 0.35173 0.26414 0.78426 0.0
C455 C 0.32814 0.33917 0.77387 0.0
C456 C 0.22478 0.30708 0.79426 0.0
C457 C 0.18772 0.30052 0.82127 0.0
C458 C 0.1872 0.31153 0.80105 0.0
C459 C 0.20558 0.31479 0.7877 0.0
C460 C 0.22532 0.29575 0.81422 0.0
C461 C 0.20695 0.2925 0.82763 0.0
C462 C 0.24446 0.31177 0.7806 0.0
C463 C 0.30812 0.30417 0.82992 0.0
H464 H 0.40329 0.26009 0.72669 0.0
H465 H 0.37135 0.25532 0.75019 0.0
H466 H 0.41354 0.31264 0.79736 0.0
H467 H 0.44546 0.31742 0.77382 0.0
H468 H 0.17252 0.31756 0.79549 0.0
H469 H 0.20489 0.32354 0.77232 0.0
H470 H 0.24007 0.28974 0.81957 0.0
H471 H 0.20802 0.28419 0.84319 0.0
Tb472 Tb 0.05558 0.06013 0.56078 0.0
Tb473 Tb 0.05934 0.03007 0.51564 0.0
C474 C 1.01283 0.02345 0.53536 0.0
C475 C 0.04486 0.07459 0.61875 0.0
C476 C 0.04142 0.06185 0.66291 0.0
C477 C 0.04094 0.08546 0.65742 0.0
C478 C 0.04283 0.09182 0.63548 0.0
C479 C 0.04319 0.05042 0.62375 0.0
C480 C 0.04157 0.04411 0.64566 0.0
C481 C 0.05135 0.08248 0.59687 0.0
O482 O 0.06412 0.02651 0.57299 0.0
O483 O 0.05688 1.00164 0.54044 0.0
O484 O 0.09431 0.04408 0.53104 0.0
O485 O 0.08907 0.07758 0.5501 0.0
O486 O 0.04516 1.00016 0.49198 0.0
O487 O 0.07768 0.026 0.48805 0.0
O488 O 0.06092 0.06742 0.50435 0.0
O489 O 0.04841 0.08453 0.53464 0.0
O490 O 0.02437 0.03033 0.55471 0.0
O491 O 0.02324 0.02856 0.51718 0.0
C492 C 0.06076 1.00425 0.56251 0.0
O493 O 0.07061 0.07888 0.59124 0.0
O494 O 0.03524 0.07584 0.58055 0.0
C495 C 0.10257 0.06641 0.54062 0.0
C496 C 0.05239 0.01278 0.45635 0.0
C497 C 0.03794 0.0244 0.41432 0.0
C498 C 0.05089 1.00746 0.4161 0.0
C499 C 0.05817 1.00176 0.43705 0.0
C500 C 0.03925 0.02944 0.4546 0.0
C501 C 0.0321 0.03522 0.43379 0.0
C502 C 0.06088 1.00817 0.47843 0.0
C503 C 0.05437 0.08584 0.51377 0.0
H504 H 0.04043 0.09941 0.67025 0.0
H505 H 0.0439 0.11052 0.6318 0.0
H506 H 0.0446 0.03684 0.61094 0.0
H507 H 0.04224 0.02585 0.64921 0.0
H508 H 0.05569 0.99895 0.40134 0.0
H509 H 0.06846 0.989 0.43818 0.0
H510 H 0.03462 0.0381 0.46937 0.0
H511 H 0.0218 0.04799 0.43293 0.0
Tb512 Tb 0.31806 0.81939 0.77876 0.0
Tb513 Tb 0.29323 0.7699 0.79932 0.0
C514 C 0.31293 0.76901 0.75395 0.0
C515 C 0.3235 0.87318 0.7479 0.0
C516 C 0.29177 0.89939 0.7386 0.0
C517 C 0.28632 0.87425 0.73186 0.0
C518 C 0.30212 0.86116 0.73651 0.0
C519 C 0.33012 0.89884 0.75163 0.0
C520 C 0.3143 0.91196 0.74692 0.0
C521 C 0.33507 0.85909 0.76166 0.0
O522 O 0.28038 0.81689 0.77167 0.0
O523 O 0.26472 0.77622 0.77663 0.0
O524 O 0.28415 0.79923 0.81759 0.0
O525 O 0.31784 0.82739 0.81428 0.0
O526 O 0.27188 0.73379 0.79498 0.0
O527 O 0.28553 0.75084 0.82783 0.0
O528 O 0.33015 0.7776 0.81376 0.0
O529 O 0.34852 0.8077 0.79218 0.0
O530 O 0.30921 0.79038 0.75202 0.0
O531 O 0.3123 0.75977 0.77319 0.0
C532 C 0.26212 0.79715 0.76949 0.0
O533 O 0.32848 0.85781 0.78173 0.0
O534 O 0.33576 0.83773 0.75304 0.0
C535 C 0.29936 0.81975 0.82469 0.0
C536 C 0.28474 0.70925 0.81975 0.0
C537 C 0.30897 0.67362 0.81875 0.0
C538 C 0.31595 0.69416 0.83437 0.0
C539 C 0.30403 0.7119 0.8348 0.0
C540 C 0.2764 0.68752 0.80579 0.0
C541 C 0.28848 0.66994 0.80516 0.0
C542 C 0.27553 0.73024 0.8159 0.0
C543 C 0.34973 0.79191 0.80738 0.0
H544 H 0.26907 0.86429 0.72524 0.0
H545 H 0.29662 0.84132 0.73354 0.0
H546 H 0.34648 0.90836 0.76056 0.0
H547 H 0.31883 0.93135 0.75231 0.0
H548 H 0.33135 0.69722 0.84546 0.0
H549 H 0.31077 0.72831 0.846 0.0
H550 H 0.26147 0.68495 0.79414 0.0
H551 H 0.28263 0.65442 0.79283 0.0
Tb552 Tb 0.55798 0.03207 0.05586 0.0
Tb553 Tb 0.55483 0.05766 0.01108 0.0
C554 C 0.60103 0.06103 0.03552 0.0
C555 C 0.55755 0.0163 0.11433 0.0
C556 C 0.54893 0.02496 0.15863 0.0
C557 C 0.56069 1.00767 0.15298 0.0
C558 C 0.56496 1.00335 0.13089 0.0
C559 C 0.5459 0.03363 0.11988 0.0
C560 C 0.54161 0.03793 0.1419 0.0
C561 C 0.56283 0.01243 0.09145 0.0
O562 O 0.56061 0.07105 0.06837 0.0
O563 O 0.549 0.08543 0.03625 0.0
O564 O 0.52252 0.03042 0.01357 0.0
O565 O 0.52289 0.03368 0.0511 0.0
O566 O 0.5693 0.07188 0.98246 0.0
O567 O 0.5347 0.07174 0.98886 0.0
O568 O 0.56298 0.02269 0.99985 0.0
O569 O 0.55181 1.00073 0.02972 0.0
O570 O 0.59066 0.03948 0.04172 0.0
O571 O 0.58894 0.07448 0.02693 0.0
C572 C 0.55436 0.08862 0.05811 0.0
O573 O 0.54519 1.00425 0.07684 0.0
O574 O 0.57849 0.03051 0.08456 0.0
C575 C 0.51151 0.02837 0.03152 0.0
C576 C 0.54176 0.06133 0.95241 0.0
C577 C 0.5362 0.03369 0.91134 0.0
C578 C 0.54468 0.05951 0.91269 0.0
C579 C 0.54751 0.07321 0.93314 0.0
C580 C 0.53146 0.03585 0.95089 0.0
C581 C 0.52866 0.0221 0.93046 0.0
C582 C 0.54987 0.07454 0.97421 0.0
C583 C 0.55779 1.00128 0.00895 0.0
H584 H 0.56636 0.99735 0.16557 0.0
H585 H 0.5741 0.99001 0.12674 0.0
H586 H 0.54031 0.04393 0.10721 0.0
H587 H 0.5328 0.05162 0.14589 0.0
H588 H 0.55102 0.06897 0.89834 0.0
H589 H 0.55564 0.09283 0.93411 0.0
H590 H 0.52701 0.02637 0.96572 0.0
H591 H 0.52202 1.00229 0.92988 0.0
Tb592 Tb 0.29484 0.26433 0.27608 0.0
Tb593 Tb 0.31565 0.32009 0.2928 0.0
C594 C 0.29876 0.30596 0.24239 0.0
C595 C 0.29016 0.20591 0.2454 0.0
C596 C 0.31771 0.1771 0.22996 0.0
C597 C 0.29466 0.16608 0.23393 0.0
C598 C 0.28116 0.18039 0.24216 0.0
C599 C 0.31151 0.21715 0.23778 0.0
C600 C 0.32534 0.20293 0.23043 0.0
C601 C 0.28024 0.22012 0.2609 0.0
O602 O 0.33288 0.27024 0.27171 0.0
O603 O 0.34544 0.31211 0.27622 0.0
O604 O 0.32548 0.2995 0.31967 0.0
O605 O 0.29581 0.26515 0.31232 0.0
O606 O 0.33487 0.35584 0.28759 0.0
O607 O 0.32215 0.34732 0.3194 0.0
O608 O 0.27913 0.31298 0.30287 0.0
O609 O 0.26316 0.2735 0.28771 0.0
O610 O 0.29993 0.28376 0.24583 0.0
O611 O 0.2992 0.32161 0.25952 0.0
C612 C 0.34941 0.29094 0.26973 0.0
O613 O 0.29285 0.2275 0.27967 0.0
O614 O 0.27295 0.23769 0.25281 0.0
C615 C 0.31144 0.27982 0.32657 0.0
C616 C 0.32229 0.38605 0.30772 0.0
C617 C 0.30004 0.42333 0.30939 0.0
C618 C 0.30738 0.41491 0.32914 0.0
C619 C 0.31855 0.39651 0.3283 0.0
C620 C 0.31573 0.39516 0.288 0.0
C621 C 0.30476 0.41369 0.28885 0.0
C622 C 0.33161 0.36472 0.30709 0.0
C623 C 0.26089 0.29325 0.29953 0.0
H624 H 0.28765 0.1463 0.23261 0.0
H625 H 0.2645 0.17143 0.2476 0.0
H626 H 0.31848 0.23692 0.23963 0.0
H627 H 0.34276 0.21245 0.22741 0.0
H628 H 0.30406 0.42221 0.34517 0.0
H629 H 0.32362 0.38988 0.34372 0.0
H630 H 0.31836 0.3875 0.27186 0.0
H631 H 0.29903 0.41967 0.27337 0.0
Tb632 Tb 0.5561 0.5598 0.06055 0.0
Tb633 Tb 0.55999 0.53008 0.01532 0.0
C634 C 0.51328 0.52305 0.03488 0.0
C635 C 0.5469 0.57289 0.11907 0.0
C636 C 0.544 0.55385 0.16113 0.0
C637 C 0.53225 0.53926 0.14203 0.0
C638 C 0.53386 0.54865 0.12112 0.0
C639 C 0.5573 0.58797 0.13816 0.0
C640 C 0.55595 0.57856 0.15898 0.0
C641 C 0.55278 0.58148 0.09723 0.0
O642 O 0.5643 0.52593 0.07256 0.0
O643 O 0.55723 0.50134 0.03989 0.0
O644 O 0.59482 0.54391 0.03105 0.0
O645 O 0.58941 0.57753 0.04958 0.0
O646 O 0.54672 0.49998 0.99167 0.0
O647 O 0.57864 0.52692 0.98776 0.0
O648 O 0.56082 0.56737 0.00411 0.0
O649 O 0.54874 0.58447 0.03472 0.0
O650 O 0.52464 0.53032 0.05428 0.0
O651 O 0.52374 0.5279 0.01669 0.0
C652 C 0.5609 0.50373 0.06199 0.0
O653 O 0.57188 0.57806 0.09099 0.0
O654 O 0.53639 0.57547 0.08112 0.0
C655 C 0.60302 0.56635 0.04037 0.0
C656 C 0.55396 0.51213 0.95584 0.0
C657 C 0.53934 0.52183 0.91315 0.0
C658 C 0.55507 0.50792 0.91578 0.0
C659 C 0.56232 0.50309 0.93704 0.0
C660 C 0.53836 0.5261 0.95328 0.0
C661 C 0.53107 0.53085 0.93212 0.0
C662 C 0.56243 0.50843 0.97822 0.0
C663 C 0.55438 0.58581 0.01374 0.0
H664 H 0.52267 0.52028 0.14306 0.0
H665 H 0.52585 0.53664 0.10648 0.0
H666 H 0.56767 0.60661 0.13683 0.0
H667 H 0.56564 0.5903 0.17311 0.0
H668 H 0.56159 0.50063 0.90141 0.0
H669 H 0.57455 0.49248 0.93881 0.0
H670 H 0.53201 0.53355 0.96769 0.0
H671 H 0.51921 0.54192 0.9306 0.0
Tb672 Tb 0.81803 0.31688 0.27749 0.0
Tb673 Tb 0.79323 0.27002 0.30135 0.0
C674 C 0.81432 0.26476 0.25631 0.0
C675 C 0.8279 0.3766 0.25515 0.0
C676 C 0.80667 0.41419 0.26069 0.0
C677 C 0.79525 0.39243 0.24771 0.0
C678 C 0.80574 0.37365 0.24505 0.0
C679 C 0.84023 0.39945 0.2659 0.0
C680 C 0.8296 0.41809 0.26884 0.0
C681 C 0.83617 0.35508 0.25889 0.0
O682 O 0.78138 0.30686 0.262 0.0
O683 O 0.76387 0.28444 0.28925 0.0
O684 O 0.7996 0.30011 0.32667 0.0
O685 O 0.80066 0.33057 0.3036 0.0
O686 O 0.7645 0.23953 0.30215 0.0
O687 O 0.7924 0.2471 0.32754 0.0
O688 O 0.83077 0.27112 0.30646 0.0
O689 O 0.84668 0.31127 0.30029 0.0
O690 O 0.82767 0.28708 0.26066 0.0
O691 O 0.79676 0.25634 0.26784 0.0
C692 C 0.76206 0.29621 0.2711 0.0
O693 O 0.84063 0.35232 0.27983 0.0
O694 O 0.82471 0.33433 0.24795 0.0
C695 C 0.79847 0.32224 0.32329 0.0
C696 C 0.77777 0.20623 0.31267 0.0
C697 C 0.79754 0.16956 0.29807 0.0
C698 C 0.80074 0.17847 0.32057 0.0
C699 C 0.79087 0.19671 0.32784 0.0
C700 C 0.77234 0.19505 0.29082 0.0
C701 C 0.78221 0.17691 0.28359 0.0
C702 C 0.77442 0.23061 0.31802 0.0
C703 C 0.84925 0.29054 0.3078 0.0
H704 H 0.7775 0.38905 0.24138 0.0
H705 H 0.79577 0.35622 0.23668 0.0
H706 H 0.85733 0.40209 0.27377 0.0
H707 H 0.83869 0.43487 0.2788 0.0
H708 H 0.81249 0.173 0.33205 0.0
H709 H 0.79519 0.20492 0.34478 0.0
H710 H 0.76208 0.2017 0.27871 0.0
H711 H 0.77923 0.16995 0.26623 0.0
Tb712 Tb 0.05704 0.52996 0.55866 0.0
Tb713 Tb 0.05153 0.55561 0.51331 0.0
C714 C 0.09918 0.56003 0.53655 0.0
C715 C 0.05566 0.51214 0.61663 0.0
C716 C 0.04381 0.51697 0.66042 0.0
C717 C 0.05761 0.5017 0.65485 0.0
C718 C 0.06347 0.49929 0.63302 0.0
C719 C 0.04187 0.52736 0.62206 0.0
C720 C 0.03598 0.52976 0.64381 0.0
C721 C 0.06248 0.51018 0.59404 0.0
O722 O 0.05739 0.56804 0.57163 0.0
O723 O 0.04822 0.58392 0.53928 0.0
O724 O 0.01957 0.52827 0.51669 0.0
O725 O 0.0213 0.52957 0.55439 0.0
O726 O 0.06409 0.57004 0.48411 0.0
O727 O 0.03044 0.57091 0.49327 0.0
O728 O 0.05784 0.52015 0.50067 0.0
O729 O 0.05407 0.49946 0.53245 0.0
O730 O 0.08994 0.53925 0.54483 0.0
O731 O 0.08636 0.57231 0.52725 0.0
C732 C 0.05242 0.58621 0.56127 0.0
O733 O 0.0458 0.50077 0.57863 0.0
O734 O 0.07706 0.52983 0.58813 0.0
C735 C 1.00936 0.52511 0.53508 0.0
C736 C 0.03542 0.56594 0.45519 0.0
C737 C 0.02596 0.55278 0.40936 0.0
C738 C 0.02388 0.57538 0.41845 0.0
C739 C 0.02877 0.58198 0.44124 0.0
C740 C 0.035 0.54233 0.44662 0.0
C741 C 0.03036 0.53579 0.42383 0.0
C742 C 0.04492 0.57486 0.47797 0.0
C743 C 0.05655 0.49963 0.51075 0.0
H744 H 0.06373 0.49155 0.66731 0.0
H745 H 0.0742 0.48752 0.62897 0.0
H746 H 0.03588 0.53753 0.60952 0.0
H747 H 0.02563 0.54196 0.64773 0.0
H748 H 0.02016 0.58866 0.40774 0.0
H749 H 0.02868 0.60016 0.44773 0.0
H750 H 0.0398 0.52959 0.45729 0.0
H751 H 0.03227 0.51831 0.41743 0.0
Tb752 Tb 0.83086 0.78882 0.28862 0.0
Tb753 Tb 0.78425 0.80699 0.28208 0.0
C754 C 0.78258 0.75324 0.29287 0.0
C755 C 0.88705 0.77921 0.27718 0.0
C756 C 0.92395 0.7832 0.24994 0.0
C757 C 0.91396 0.76105 0.25936 0.0
C758 C 0.89578 0.75913 0.27288 0.0
C759 C 0.89673 0.80125 0.26757 0.0
C760 C 0.91503 0.80326 0.25423 0.0
C761 C 0.86786 0.77686 0.29153 0.0
O762 O 0.81663 0.7769 0.254 0.0
O763 O 0.79447 0.8032 0.24804 0.0
O764 O 0.81345 0.83953 0.28404 0.0
O765 O 0.83986 0.82158 0.27095 0.0
O766 O 0.7505 0.80158 0.26807 0.0
O767 O 0.76717 0.8333 0.29049 0.0
O768 O 0.78869 0.80216 0.31762 0.0
O769 O 0.82747 0.80744 0.32094 0.0
O770 O 0.80401 0.76049 0.30122 0.0
O771 O 0.77351 0.76727 0.28097 0.0
C772 C 0.80523 0.78754 0.24032 0.0
O773 O 0.86541 0.79725 0.30077 0.0
O774 O 0.84819 0.76177 0.28373 0.0
C775 C 0.83257 0.8409 0.2747 0.0
C776 C 0.72779 0.81575 0.29296 0.0
C777 C 0.68981 0.80835 0.3189 0.0
C778 C 0.69044 0.82107 0.29954 0.0
C779 C 0.70928 0.82476 0.28672 0.0
C780 C 0.72717 0.80277 0.31207 0.0
C781 C 0.70838 0.79914 0.32494 0.0
C782 C 0.74791 0.82045 0.27985 0.0
C783 C 0.80823 0.80719 0.33005 0.0
H784 H 0.92005 0.74507 0.25615 0.0
H785 H 0.88848 0.74189 0.27996 0.0
H786 H 0.89026 0.81703 0.27044 0.0
H787 H 0.92241 0.82073 0.24758 0.0
H788 H 0.6763 0.82809 0.2942 0.0
H789 H 0.70946 0.83476 0.27198 0.0
H790 H 0.74134 0.79568 0.31716 0.0
H791 H 0.70862 0.78953 0.33986 0.0
Tb792 Tb 0.79382 0.30722 0.80794 0.0
Tb793 Tb 0.82377 0.30295 0.76575 0.0
C794 C 0.77625 0.31543 0.75948 0.0
C795 C 0.77662 0.29712 0.86317 0.0
C796 C 0.78864 0.27864 0.90294 0.0
C797 C 0.77763 0.29743 0.9034 0.0
C798 C 0.77173 0.30668 0.8836 0.0
C799 C 0.78722 0.2781 0.86266 0.0
C800 C 0.79306 0.26887 0.88232 0.0
C801 C 0.77326 0.30852 0.84258 0.0
O802 O 0.79159 0.26889 0.79977 0.0
O803 O 0.79324 0.27202 0.76262 0.0
O804 O 0.84028 0.2883 0.79272 0.0
O805 O 0.82727 0.30632 0.82231 0.0
O806 O 0.83597 0.28098 0.74311 0.0
O807 O 0.84469 0.32038 0.74186 0.0
O808 O 0.84059 0.33688 0.78581 0.0
O809 O 0.80812 0.3439 0.79792 0.0
O810 O 0.77067 0.30754 0.77898 0.0
O811 O 0.79713 0.31888 0.75313 0.0
C812 C 0.78648 0.25897 0.77931 0.0
O813 O 0.79102 0.32595 0.83819 0.0
O814 O 0.76465 0.2933 0.82512 0.0
C815 C 0.84141 0.29494 0.81412 0.0
C816 C 0.8364 0.29679 0.70791 0.0
C817 C 0.81941 0.30004 0.66409 0.0
C818 C 0.84308 0.30884 0.67059 0.0
C819 C 0.85148 0.3072 0.69232 0.0
C820 C 0.81295 0.28688 0.70128 0.0
C821 C 0.80454 0.28835 0.67951 0.0
C822 C 0.84458 0.29952 0.73155 0.0
C823 C 0.82957 0.35205 0.79351 0.0
H824 H 0.77413 0.3054 0.91907 0.0
H825 H 0.7639 0.32165 0.88428 0.0
H826 H 0.79144 0.2707 0.84706 0.0
H827 H 0.80112 0.2541 0.88136 0.0
H828 H 0.85499 0.31836 0.65931 0.0
H829 H 0.86957 0.31524 0.69726 0.0
H830 H 0.80097 0.279 0.71319 0.0
H831 H 0.78629 0.28117 0.675 0.0
Tb832 Tb 0.79437 0.76492 0.77607 0.0
Tb833 Tb 0.8163 0.82058 0.79288 0.0
C834 C 0.79865 0.80689 0.74238 0.0
C835 C 0.78728 0.70543 0.74613 0.0
C836 C 0.81773 0.67971 0.73229 0.0
C837 C 0.82048 0.70392 0.72662 0.0
C838 C 0.80534 0.71678 0.73361 0.0
C839 C 0.78252 0.68027 0.74877 0.0
C840 C 0.79765 0.66738 0.74177 0.0
C841 C 0.77843 0.72062 0.76163 0.0
O842 O 0.83189 0.76996 0.76975 0.0
O843 O 0.84569 0.81161 0.77646 0.0
O844 O 0.82557 0.80028 0.82017 0.0
O845 O 0.79636 0.76549 0.81245 0.0
O846 O 0.8394 0.85468 0.78878 0.0
O847 O 0.82079 0.8492 0.818 0.0
O848 O 0.77977 0.81423 0.80293 0.0
O849 O 0.76325 0.77475 0.78803 0.0
O850 O 0.79861 0.78425 0.74565 0.0
O851 O 0.80038 0.82292 0.75956 0.0
C852 C 0.84896 0.79048 0.76877 0.0
O853 O 0.79179 0.72805 0.77994 0.0
O854 O 0.77145 0.73836 0.7535 0.0
C855 C 0.81181 0.78028 0.82682 0.0
C856 C 0.82835 0.8881 0.80436 0.0
C857 C 0.81313 0.93019 0.80146 0.0
C858 C 0.82415 0.92615 0.82143 0.0
C859 C 0.8318 0.90525 0.82282 0.0
C860 C 0.81803 0.89251 0.78419 0.0
C861 C 0.8106 0.91349 0.78273 0.0
C862 C 0.83433 0.86509 0.80675 0.0
C863 C 0.76133 0.79466 0.79975 0.0
H864 H 0.83572 0.71372 0.71911 0.0
H865 H 0.80929 0.73627 0.73147 0.0
H866 H 0.76872 0.67131 0.75852 0.0
H867 H 0.79511 0.64875 0.74639 0.0
H868 H 0.82621 0.93879 0.83608 0.0
H869 H 0.83975 0.90206 0.8385 0.0
H870 H 0.81503 0.87939 0.76976 0.0
H871 H 0.80177 0.91597 0.76727 0.0
Tb872 Tb 0.58716 0.57539 0.54843 0.0
Tb873 Tb 0.54231 0.53861 0.51957 0.0
C874 C 0.53903 0.56373 0.56592 0.0
C875 C 0.64321 0.59352 0.578 0.0
C876 C 0.67638 0.56773 0.57827 0.0
C877 C 0.65774 0.56076 0.59127 0.0
C878 C 0.64127 0.57357 0.59119 0.0
C879 C 0.66343 0.6024 0.56742 0.0
C880 C 0.67994 0.58952 0.56751 0.0
C881 C 0.62264 0.60104 0.57106 0.0
O882 O 0.58306 0.53881 0.56044 0.0
O883 O 0.56184 0.51406 0.53053 0.0
O884 O 0.56946 0.5487 0.49753 0.0
O885 O 0.60041 0.5558 0.52299 0.0
O886 O 0.5119 0.50963 0.51784 0.0
O887 O 0.52314 0.52791 0.48866 0.0
O888 O 0.53777 0.57539 0.51935 0.0
O889 O 0.57565 0.59738 0.5241 0.0
O890 O 0.55742 0.58137 0.56316 0.0
O891 O 0.53361 0.5429 0.55356 0.0
C892 C 0.575 0.5171 0.54922 0.0
O893 O 0.61907 0.60195 0.54962 0.0
O894 O 0.60378 0.59004 0.57978 0.0
C895 C 0.59113 0.55049 0.50252 0.0
C896 C 0.48432 0.52094 0.49559 0.0
C897 C 0.44765 0.53972 0.50502 0.0
C898 C 0.46681 0.55446 0.49594 0.0
C899 C 0.48497 0.54514 0.49116 0.0
C900 C 0.46423 0.50553 0.50279 0.0
C901 C 0.44589 0.51489 0.50744 0.0
C902 C 0.50587 0.51399 0.49775 0.0
C903 C 0.55414 0.59574 0.51776 0.0
H904 H 0.65498 0.54426 0.60004 0.0
H905 H 0.62607 0.56639 0.59983 0.0
H906 H 0.66541 0.61784 0.55729 0.0
H907 H 0.69428 0.59523 0.55742 0.0
H908 H 0.46833 0.57365 0.49388 0.0
H909 H 0.5002 0.55757 0.48568 0.0
H910 H 0.46347 0.48691 0.5065 0.0
H911 H 0.43117 0.50333 0.5145 0.0
Tb912 Tb 0.03559 0.54911 0.04526 0.0
Tb913 Tb 0.08783 0.55376 0.02918 0.0
C914 C 0.0725 0.53463 0.07552 0.0
C915 C 0.98139 0.5662 0.05337 0.0
C916 C 0.95273 0.59806 0.05149 0.0
C917 C 0.95888 0.58978 0.07187 0.0
C918 C 0.97294 0.57397 0.07276 0.0
C919 C 0.97565 0.57479 0.03303 0.0
C920 C 0.96145 0.59043 0.03211 0.0
C921 C 0.99556 0.5487 0.05454 0.0
O922 O 0.05837 0.58346 0.06124 0.0
O923 O 0.08694 0.5916 0.03721 0.0
O924 O 0.06598 0.55713 1.00028 0.0
O925 O 0.04115 0.57331 0.01873 0.0
O926 O 0.12377 0.56677 0.03492 0.0
O927 O 0.10793 0.54397 0.00518 0.0
O928 O 0.07123 0.51484 0.03003 0.0
O929 O 0.03368 0.51513 0.02477 0.0
O930 O 0.05052 0.53003 0.0694 0.0
O931 O 0.08871 0.54746 0.06414 0.0
C932 C 0.07556 0.59893 0.05286 0.0
O933 O 1.00032 0.5396 0.03569 0.0
O934 O 1.01329 0.55453 0.06919 0.0
C935 C 0.05093 0.56979 1.00067 0.0
C936 C 0.14203 0.53784 0.02117 0.0
C937 C 0.17046 0.50631 0.02693 0.0
C938 C 0.17776 0.52781 0.01571 0.0
C939 C 0.16368 0.54336 0.01285 0.0
C940 C 0.13469 0.51661 0.03259 0.0
C941 C 0.14875 0.501 0.03545 0.0
C942 C 0.12705 0.55396 0.01742 0.0
C943 C 0.0496 0.50343 0.02425 0.0
H944 H 0.95287 0.59553 0.08722 0.0
H945 H 0.97712 0.5677 0.08865 0.0
H946 H 0.98186 0.56923 0.01772 0.0
H947 H 0.95691 0.59606 0.01605 0.0
H948 H 0.19448 0.53274 0.00924 0.0
H949 H 0.16968 0.55968 0.00404 0.0
H950 H 0.11798 0.51197 0.03911 0.0
H951 H 0.14242 0.48454 0.04397 0.0
C952 C 0.02765 0.21778 0.99025 0.0
C953 C 0.02057 0.21776 0.96766 0.0
C954 C 0.03243 0.19697 0.99882 0.0
C955 C 0.03042 0.17563 0.98446 0.0
C956 C 0.02291 0.17541 0.96172 0.0
C957 C 0.01798 0.19632 0.95368 0.0
C958 C 0.04005 0.19797 0.02321 0.0
C959 C 0.02069 0.15327 0.9457 0.0
C960 C 0.06584 0.13191 0.99995 0.0
C961 C 0.04936 0.11209 0.00742 0.0
C962 C 0.05992 0.15262 0.99256 0.0
C963 C 0.03699 0.15389 0.9929 0.0
C964 C 0.02033 0.13409 1.00072 0.0
C965 C 0.02665 0.11342 0.0077 0.0
C966 C 0.07823 0.17305 0.98412 0.0
C967 C 0.99577 0.1347 1.00171 0.0
H968 H 0.02972 0.2342 1.00121 0.0
H969 H 1.01263 0.19607 0.93618 0.0
H970 H 0.02903 0.18215 0.03091 0.0
H971 H 0.05787 0.19654 0.02514 0.0
H972 H 0.03941 0.21524 0.03247 0.0
H973 H 1.01408 0.15571 0.92867 0.0
H974 H 0.03767 0.14974 0.94476 0.0
H975 H 1.00898 0.13671 0.95173 0.0
H976 H 0.08341 0.13114 0.99958 0.0
H977 H 1.01377 0.09837 0.01359 0.0
H978 H 0.07978 0.19063 0.99399 0.0
H979 H 0.07335 0.17551 0.96658 0.0
H980 H 0.09527 0.16939 0.985 0.0
H981 H 0.99514 0.15146 0.01177 0.0
H982 H 0.98507 0.11835 0.00902 0.0
H983 H 0.98811 0.13554 0.98472 0.0
C984 C 0.17518 0.84637 0.1838 0.0
C985 C 0.15595 0.82572 0.18182 0.0
C986 C 0.19429 0.84772 0.19878 0.0
C987 C 0.19434 0.82778 0.2118 0.0
C988 C 0.17495 0.80691 0.20981 0.0
C989 C 0.15598 0.80623 0.19502 0.0
C990 C 0.21449 0.87043 0.20059 0.0
C991 C 0.17444 0.785 0.22295 0.0
C992 C 0.2512 0.81852 0.23379 0.0
C993 C 0.25216 0.8258 0.25655 0.0
C994 C 0.23262 0.81929 0.21905 0.0
C995 C 0.21484 0.82826 0.22706 0.0
C996 C 0.21608 0.83638 0.24989 0.0
C997 C 0.23455 0.83475 0.2644 0.0
C998 C 0.23179 0.80996 0.19498 0.0
C999 C 0.19768 0.84643 0.25904 0.0
H1000 H 0.17526 0.86151 0.17369 0.0
H1001 H 0.14126 0.79012 0.1935 0.0
H1002 H 0.21862 0.87799 0.21821 0.0
H1003 H 0.22982 0.86561 0.195 0.0
H1004 H 0.21122 0.88495 0.19042 0.0
H1005 H 0.15807 0.77018 0.21951 0.0
H1006 H 0.18878 0.7774 0.21886 0.0
H1007 H 0.17687 0.79068 0.24103 0.0
H1008 H 0.26464 0.81144 0.22756 0.0
H1009 H 0.23522 0.84055 0.28192 0.0
H1010 H 0.23323 0.82536 0.18423 0.0
H1011 H 0.21514 0.79612 0.18989 0.0
H1012 H 0.24578 0.80145 0.19188 0.0
H1013 H 0.19509 0.86142 0.24914 0.0
H1014 H 0.20197 0.85363 0.27676 0.0
H1015 H 0.18116 0.83178 0.25768 0.0
C1016 C 0.53986 0.87822 0.45841 0.0
C1017 C 0.52915 0.85774 0.46964 0.0
C1018 C 0.54235 0.90227 0.46744 0.0
C1019 C 0.53412 0.90613 0.48837 0.0
C1020 C 0.52336 0.88554 0.49988 0.0
C1021 C 0.52092 0.86158 0.49033 0.0
C1022 C 0.55385 0.9236 0.45453 0.0
C1023 C 0.51454 0.88885 0.52231 0.0
C1024 C 0.5619 0.96906 0.51884 0.0
C1025 C 0.54563 0.98182 0.51402 0.0
C1026 C 0.558 0.94426 0.51126 0.0
C1027 C 0.5374 0.93178 0.49831 0.0
C1028 C 0.52069 0.94437 0.49374 0.0
C1029 C 0.52495 0.96918 0.50173 0.0
C1030 C 0.57624 0.93158 0.5167 0.0
C1031 C 0.49859 0.93183 0.47984 0.0
H1032 H 0.54619 0.87547 0.44236 0.0
H1033 H 0.51258 0.84587 0.49909 0.0
H1034 H 0.54218 0.93524 0.45153 0.0
H1035 H 0.56948 0.9353 0.46435 0.0
H1036 H 0.5588 0.9175 0.43823 0.0
H1037 H 0.50646 0.87102 0.52906 0.0
H1038 H 0.52885 0.8996 0.53433 0.0
H1039 H 0.50174 0.89943 0.52103 0.0
H1040 H 0.57788 0.97851 0.52847 0.0
H1041 H 0.51228 0.97883 0.4979 0.0
H1042 H 0.58327 0.92658 0.50116 0.0
H1043 H 0.56868 0.91428 0.52447 0.0
H1044 H 0.59062 0.94331 0.52814 0.0
H1045 H 0.5024 0.92686 0.46274 0.0
H1046 H 0.48682 0.94366 0.47877 0.0
H1047 H 0.48964 0.91453 0.48691 0.0
C1048 C 0.52231 0.3054 0.65961 0.0
C1049 C 0.54409 0.30846 0.67051 0.0
C1050 C 0.50271 0.30166 0.67158 0.0
C1051 C 0.50489 0.30083 0.69499 0.0
C1052 C 0.5268 0.30352 0.70601 0.0
C1053 C 0.54611 0.30737 0.69366 0.0
C1054 C 0.47969 0.29898 0.6592 0.0
C1055 C 0.52988 0.30259 0.73092 0.0
C1056 C 0.45969 0.31556 0.72989 0.0
C1057 C 0.44645 0.29207 0.73412 0.0
C1058 C 0.47851 0.31864 0.71692 0.0
C1059 C 0.4844 0.29773 0.70807 0.0
C1060 C 0.471 0.27396 0.71214 0.0
C1061 C 0.45215 0.27141 0.72503 0.0
C1062 C 0.49218 0.34429 0.7128 0.0
C1063 C 0.47681 0.25122 0.70318 0.0
H1064 H 0.52062 0.30625 0.64173 0.0
H1065 H 0.56287 0.30967 0.7022 0.0
H1066 H 0.4674 0.28135 0.66245 0.0
H1067 H 0.47257 0.31394 0.66528 0.0
H1068 H 0.4808 0.29956 0.64095 0.0
H1069 H 0.54792 0.30421 0.73688 0.0
H1070 H 0.52458 0.31775 0.73945 0.0
H1071 H 0.51873 0.28509 0.73593 0.0
H1072 H 0.45521 0.33158 0.73661 0.0
H1073 H 0.44214 0.25322 0.72841 0.0
H1074 H 0.49258 0.3462 0.69465 0.0
H1075 H 0.51018 0.34777 0.71982 0.0
H1076 H 0.485 0.35859 0.72034 0.0
H1077 H 0.47704 0.25088 0.68482 0.0
H1078 H 0.46442 0.23406 0.70743 0.0
H1079 H 0.49424 0.2515 0.71005 0.0
C1080 C 0.04794 0.88695 0.64562 0.0
C1081 C 0.0579 0.86846 0.63794 0.0
C1082 C 0.04798 0.90837 0.63384 0.0
C1083 C 0.05929 0.91326 0.61373 0.0
C1084 C 0.06994 0.89486 0.60627 0.0
C1085 C 0.06861 0.87302 0.61784 0.0
C1086 C 0.03535 0.92555 0.6433 0.0
C1087 C 0.08323 0.89788 0.58591 0.0
C1088 C 0.04853 0.95692 0.56725 0.0
C1089 C 0.06064 0.98117 0.57579 0.0
C1090 C 0.04746 0.93546 0.57926 0.0
C1091 C 0.05975 0.93691 0.60065 0.0
C1092 C 0.0724 0.96145 0.60918 0.0
C1093 C 0.0722 0.98271 0.59721 0.0
C1094 C 0.03256 0.91115 0.56859 0.0
C1095 C 0.08666 0.9659 0.63115 0.0
H1096 H 0.03938 0.88441 0.66086 0.0
H1097 H 0.0766 0.85957 0.61118 0.0
H1098 H 0.04677 0.93842 0.65647 0.0
H1099 H 0.02977 0.93637 0.63049 0.0
H1100 H 0.02 0.91519 0.6512 0.0
H1101 H 0.09837 0.89066 0.58818 0.0
H1102 H 0.07214 0.88693 0.57149 0.0
H1103 H 0.08926 0.91731 0.58194 0.0
H1104 H 0.03914 0.95457 0.55104 0.0
H1105 H 0.08174 1.00077 0.60465 0.0
H1106 H 0.02691 0.89745 0.58089 0.0
H1107 H 0.04229 0.90374 0.55635 0.0
H1108 H 0.01708 0.91357 0.55931 0.0
H1109 H 0.07691 0.97195 0.64419 0.0
H1110 H 0.1027 0.98093 0.63043 0.0
H1111 H 0.09129 0.94931 0.63616 0.0
C1112 C 0.47449 0.79341 0.87935 0.0
C1113 C 0.49016 0.78453 0.86707 0.0
C1114 C 0.45233 0.79452 0.86997 0.0
C1115 C 0.4441 0.78617 0.84728 0.0
C1116 C 0.45972 0.7769 0.83484 0.0
C1117 C 0.48203 0.77645 0.84453 0.0
C1118 C 0.43765 0.80508 0.88458 0.0
C1119 C 0.45274 0.76713 0.81094 0.0
C1120 C 0.37677 0.77005 0.82906 0.0
C1121 C 0.37387 0.79026 0.81757 0.0
C1122 C 0.39885 0.7683 0.83816 0.0
C1123 C 0.41973 0.78741 0.83678 0.0
C1124 C 0.41685 0.80793 0.82537 0.0
C1125 C 0.39466 0.80893 0.81594 0.0
C1126 C 0.39977 0.74549 0.84923 0.0
C1127 C 0.43747 0.82934 0.82323 0.0
H1128 H 0.47972 0.79998 0.89662 0.0
H1129 H 0.49315 0.76943 0.83428 0.0
H1130 H 0.43352 0.82076 0.87687 0.0
H1131 H 0.42116 0.79102 0.88606 0.0
H1132 H 0.44616 0.8115 0.90153 0.0
H1133 H 0.46577 0.75946 0.80347 0.0
H1134 H 0.43616 0.75255 0.80979 0.0
H1135 H 0.45012 0.78204 0.80096 0.0
H1136 H 0.3616 0.75511 0.83075 0.0
H1137 H 0.39362 0.82488 0.80742 0.0
H1138 H 0.40596 0.75037 0.86703 0.0
H1139 H 0.41215 0.73715 0.84139 0.0
H1140 H 0.38276 0.73156 0.84811 0.0
H1141 H 0.44598 0.83679 0.83998 0.0
H1142 H 0.43291 0.84434 0.81472 0.0
H1143 H 0.45013 0.82312 0.81372 0.0
C1144 C 0.53235 0.20774 0.13431 0.0
C1145 C 0.54938 0.23029 0.13308 0.0
C1146 C 0.53273 0.18508 0.12245 0.0
C1147 C 0.55089 0.18376 0.1089 0.0
C1148 C 0.56824 0.20644 0.10778 0.0
C1149 C 0.56717 0.22895 0.11943 0.0
C1150 C 0.51335 0.16233 0.12437 0.0
C1151 C 0.58838 0.20696 0.09435 0.0
C1152 C 0.56241 0.11943 0.09379 0.0
C1153 C 0.55335 0.11282 0.07135 0.0
C1154 C 0.56188 0.14194 0.10586 0.0
C1155 C 0.55167 0.15909 0.09595 0.0
C1156 C 0.54226 0.15235 0.07341 0.0
C1157 C 0.54338 0.12996 0.06161 0.0
C1158 C 0.57262 0.1475 0.12945 0.0
C1159 C 0.53072 0.1689 0.06157 0.0
H1160 H 0.51838 0.20777 0.14456 0.0
H1161 H 0.58073 0.24565 0.11808 0.0
H1162 H 0.50526 0.15452 0.10756 0.0
H1163 H 0.5201 0.14815 0.13194 0.0
H1164 H 0.49998 0.16606 0.13462 0.0
H1165 H 0.60094 0.22544 0.09548 0.0
H1166 H 0.59726 0.19357 0.10024 0.0
H1167 H 0.5823 0.20132 0.07661 0.0
H1168 H 0.57029 0.10702 0.10203 0.0
H1169 H 0.53611 0.1258 0.04451 0.0
H1170 H 0.5595 0.14917 0.1409 0.0
H1171 H 0.58607 0.16539 0.13098 0.0
H1172 H 0.58044 0.13307 0.1349 0.0
H1173 H 0.51672 0.17205 0.07121 0.0
H1174 H 0.52343 0.16111 0.0445 0.0
H1175 H 0.54321 0.18706 0.06043 0.0
C1176 C 0.14691 0.29001 0.37623 0.0
C1177 C 0.12618 0.29059 0.36418 0.0
C1178 C 0.16799 0.29028 0.36601 0.0
C1179 C 0.16997 0.29172 0.34251 0.0
C1180 C 0.14917 0.29258 0.33026 0.0
C1181 C 0.12814 0.29177 0.34085 0.0
C1182 C 0.18842 0.28878 0.38069 0.0
C1183 C 0.14909 0.29461 0.30552 0.0
C1184 C 0.23247 0.31451 0.3193 0.0
C1185 C 0.2373 0.29303 0.30993 0.0
C1186 C 0.21126 0.31442 0.32925 0.0
C1187 C 0.19327 0.29222 0.33103 0.0
C1188 C 0.19815 0.27046 0.32179 0.0
C1189 C 0.21929 0.27113 0.31151 0.0
C1190 C 0.20812 0.33859 0.33792 0.0
C1191 C 0.18091 0.24591 0.32304 0.0
H1192 H 0.14668 0.28902 0.39407 0.0
H1193 H 0.11306 0.29233 0.33061 0.0
H1194 H 0.19443 0.27304 0.37446 0.0
H1195 H 0.20276 0.30567 0.3801 0.0
H1196 H 0.1845 0.28657 0.39828 0.0
H1197 H 0.1325 0.29637 0.2981 0.0
H1198 H 0.16305 0.31081 0.30191 0.0
H1199 H 0.1525 0.27813 0.29729 0.0
H1200 H 0.24541 0.33188 0.31877 0.0
H1201 H 0.22183 0.25401 0.30493 0.0
H1202 H 0.20709 0.3389 0.3562 0.0
H1203 H 0.19173 0.34077 0.33045 0.0
H1204 H 0.22238 0.35448 0.33425 0.0
H1205 H 0.17739 0.24303 0.34063 0.0
H1206 H 0.18689 0.23045 0.31604 0.0
H1207 H 0.16447 0.24555 0.31381 0.0
C1208 C 0.95624 0.065 0.15433 0.0
C1209 C 0.9682 0.07289 0.17525 0.0
C1210 C 0.968 0.0657 0.13507 0.0
C1211 C 0.99227 0.0739 0.137 0.0
C1212 C 1.00431 0.08313 0.15795 0.0
C1213 C 0.99206 0.08279 0.17684 0.0
C1214 C 0.95443 0.05607 0.11301 0.0
C1215 C 0.03021 0.09155 0.16073 0.0
C1216 C 0.02251 0.0438 0.0959 0.0
C1217 C 0.0313 0.063 0.08267 0.0
C1218 C 1.00982 0.0472 0.11372 0.0
C1219 C 1.00518 0.0701 0.11779 0.0
C1220 C 1.01332 0.08928 0.1039 0.0
C1221 C 0.02676 0.08566 0.0867 0.0
C1222 C 1.00165 0.0264 0.12835 0.0
C1223 C 1.00771 0.11347 0.10714 0.0
H1224 H 0.93774 0.05751 0.15306 0.0
H1225 H 1.00131 0.08884 0.19304 0.0
H1226 H 0.96303 0.0654 0.099 0.0
H1227 H 0.95273 0.03616 0.11009 0.0
H1228 H 0.93687 0.05836 0.11291 0.0
H1229 H 0.03685 0.09994 0.17779 0.0
H1230 H 0.03703 0.0756 0.15728 0.0
H1231 H 0.03697 0.10513 0.14863 0.0
H1232 H 0.02605 0.02628 0.09262 0.0
H1233 H 0.03328 0.10031 0.07609 0.0
H1234 H 0.98264 0.02062 0.12745 0.0
H1235 H 1.00796 0.03264 0.14596 0.0
H1236 H 1.00759 0.01016 0.12344 0.0
H1237 H 0.98897 0.11023 0.10809 0.0
H1238 H 1.01323 0.12543 0.09347 0.0
H1239 H 0.01633 0.12339 0.12311 0.0
C1240 C 0.31467 0.73902 0.53162 0.0
C1241 C 0.31221 0.71453 0.52409 0.0
C1242 C 0.31174 0.75614 0.51669 0.0
C1243 C 0.30621 0.74847 0.4938 0.0
C1244 C 0.30404 0.72383 0.48611 0.0
C1245 C 0.30709 0.70718 0.50135 0.0
C1246 C 0.31426 0.7823 0.5254 0.0
C1247 C 0.29821 0.71495 0.46179 0.0
C1248 C 0.27591 0.78037 0.45389 0.0
C1249 C 0.29381 0.79154 0.44118 0.0
C1250 C 0.27997 0.7675 0.47209 0.0
C1251 C 0.30245 0.7659 0.47764 0.0
C1252 C 0.32082 0.7786 0.46581 0.0
C1253 C 0.31626 0.79129 0.44769 0.0
C1254 C 0.25995 0.75419 0.48436 0.0
C1255 C 0.34504 0.77745 0.4713 0.0
H1256 H 0.31859 0.74474 0.54921 0.0
H1257 H 0.30517 0.68826 0.49545 0.0
H1258 H 0.32738 0.79516 0.51662 0.0
H1259 H 0.29783 0.78684 0.52203 0.0
H1260 H 0.31927 0.78549 0.54357 0.0
H1261 H 0.29735 0.69524 0.45854 0.0
H1262 H 0.28141 0.71752 0.45605 0.0
H1263 H 0.31125 0.72593 0.45162 0.0
H1264 H 0.25852 0.78045 0.44882 0.0
H1265 H 0.33018 0.80029 0.43807 0.0
H1266 H 0.26416 0.75771 0.50261 0.0
H1267 H 0.2562 0.7341 0.48024 0.0
H1268 H 0.24422 0.75976 0.47988 0.0
H1269 H 0.34981 0.78117 0.48946 0.0
H1270 H 0.35771 0.79078 0.46243 0.0
H1271 H 0.34621 0.75871 0.46647 0.0
C1272 C 0.6236 1.00803 0.68815 0.0
C1273 C 0.62054 0.02438 0.70519 0.0
C1274 C 0.61241 1.0065 0.66689 0.0
C1275 C 0.59813 0.0219 0.66271 0.0
C1276 C 0.59364 0.03702 0.68032 0.0
C1277 C 0.60487 0.03801 0.70143 0.0
C1278 C 0.61729 0.98987 0.64854 0.0
C1279 C 0.57858 0.05378 0.67648 0.0
C1280 C 0.59976 0.04859 0.60705 0.0
C1281 C 0.57818 0.03588 0.59656 0.0
C1282 C 0.6065 0.0438 0.62842 0.0
C1283 C 0.59138 0.02563 0.63953 0.0
C1284 C 0.56979 0.01223 0.62889 0.0
C1285 C 0.56333 0.01765 0.60748 0.0
C1286 C 0.62964 0.05866 0.63931 0.0
C1287 C 0.55347 0.99248 0.64021 0.0
H1288 H 0.63546 0.99719 0.69113 0.0
H1289 H 0.60226 0.05046 0.71467 0.0
H1290 H 0.60134 0.98022 0.63806 0.0
H1291 H 0.62935 1.00106 0.63763 0.0
H1292 H 0.62514 0.97599 0.65523 0.0
H1293 H 0.57428 0.06168 0.69235 0.0
H1294 H 0.58764 0.06913 0.66694 0.0
H1295 H 0.56242 0.04379 0.66649 0.0
H1296 H 0.61134 0.06274 0.59875 0.0
H1297 H 0.54671 1.00764 0.59934 0.0
H1298 H 0.64004 0.04627 0.64419 0.0
H1299 H 0.62734 0.06911 0.6547 0.0
H1300 H 0.63945 0.07187 0.6282 0.0
H1301 H 0.56229 0.97903 0.64607 0.0
H1302 H 0.53809 0.98251 0.62903 0.0
H1303 H 0.54775 1.00078 0.65509 0.0
C1304 C 0.30919 0.32131 0.96596 0.0
C1305 C 0.30748 0.34492 0.97235 0.0
C1306 C 0.30945 0.31338 0.94322 0.0
C1307 C 0.30817 0.3294 0.92625 0.0
C1308 C 0.30646 0.35322 0.93271 0.0
C1309 C 0.30606 0.36056 0.95542 0.0
C1310 C 0.3111 0.28779 0.93734 0.0
C1311 C 0.30515 0.37114 0.91554 0.0
C1312 C 0.32906 0.31977 0.86819 0.0
C1313 C 0.30842 0.30966 0.85478 0.0
C1314 C 0.32928 0.32574 0.89137 0.0
C1315 C 0.30837 0.32145 0.90178 0.0
C1316 C 0.28752 0.31081 0.88839 0.0
C1317 C 0.28779 0.30517 0.86527 0.0
C1318 C 0.35196 0.33719 0.90468 0.0
C1319 C 0.26476 0.3057 0.89844 0.0
H1320 H 0.31034 0.30901 0.97873 0.0
H1321 H 0.30483 0.37888 0.95994 0.0
H1322 H 0.2961 0.27745 0.9259 0.0
H1323 H 0.32667 0.2887 0.92845 0.0
H1324 H 0.31179 0.27742 0.95226 0.0
H1325 H 0.30415 0.38907 0.92316 0.0
H1326 H 0.32045 0.37442 0.90585 0.0
H1327 H 0.28986 0.36331 0.90362 0.0
H1328 H 0.34515 0.3234 0.86052 0.0
H1329 H 0.27165 0.29731 0.85535 0.0
H1330 H 0.35376 0.32632 0.91899 0.0
H1331 H 0.35262 0.35595 0.91157 0.0
H1332 H 0.36676 0.33843 0.89452 0.0
H1333 H 0.26474 0.29412 0.91259 0.0
H1334 H 0.25014 0.29626 0.88615 0.0
H1335 H 0.26202 0.3232 0.90511 0.0
C1336 C 0.9639 0.05109 0.3124 0.0
C1337 C 0.97496 0.05534 0.29278 0.0
C1338 C 0.97564 0.04726 0.33194 0.0
C1339 C 0.99902 0.04778 0.33183 0.0
C1340 C 1.01049 0.05282 0.31226 0.0
C1341 C 0.99828 0.05651 0.2929 0.0
C1342 C 0.96284 0.04196 0.35253 0.0
C1343 C 0.03545 0.05366 0.31162 0.0
C1344 C 0.03146 0.05511 0.38859 0.0
C1345 C 0.03003 0.03062 0.39232 0.0
C1346 C 0.02213 0.0611 0.36861 0.0
C1347 C 1.0111 0.04212 0.35204 0.0
C1348 C 1.01034 0.01745 0.35539 0.0
C1349 C 0.01987 0.012 0.37551 0.0
C1350 C 0.0234 0.08762 0.36557 0.0
C1351 C 0.99865 0.99672 0.33808 0.0
H1352 H 0.94587 0.05018 0.31237 0.0
H1353 H 1.00689 0.05981 0.27775 0.0
H1354 H 0.96241 0.02327 0.35726 0.0
H1355 H 0.97184 0.05515 0.3667 0.0
H1356 H 0.94493 0.04309 0.35006 0.0
H1357 H 0.04218 0.05925 0.29549 0.0
H1358 H 0.04596 0.0667 0.3252 0.0
H1359 H 0.03764 0.03528 0.31436 0.0
H1360 H 0.03964 0.06958 0.40145 0.0
H1361 H 0.01858 0.99304 0.37844 0.0
H1362 H 1.00588 0.08997 0.36467 0.0
H1363 H 0.03075 0.09299 0.34966 0.0
H1364 H 0.03396 0.10032 0.37939 0.0
H1365 H 0.98003 0.99512 0.336 0.0
H1366 H 1.00082 0.9788 0.34265 0.0
H1367 H 1.00558 1.0006 0.32172 0.0
C1368 C 0.34504 0.70733 0.64264 0.0
C1369 C 0.3265 0.68709 0.63501 0.0
C1370 C 0.34562 0.7197 0.66358 0.0
C1371 C 0.32699 0.71185 0.67683 0.0
C1372 C 0.30893 0.69053 0.66974 0.0
C1373 C 0.30903 0.67825 0.64898 0.0
C1374 C 0.36545 0.74198 0.67092 0.0
C1375 C 0.28862 0.68175 0.68328 0.0
C1376 C 0.32839 0.73651 0.73678 0.0
C1377 C 0.31743 0.75502 0.73427 0.0
C1378 C 0.33244 0.72282 0.71816 0.0
C1379 C 0.32485 0.72745 0.69667 0.0
C1380 C 0.31395 0.74627 0.69407 0.0
C1381 C 0.3106 0.76002 0.71292 0.0
C1382 C 0.34455 0.70324 0.72149 0.0
C1383 C 0.30522 0.75143 0.67141 0.0
H1384 H 0.35868 0.71405 0.63194 0.0
H1385 H 0.29468 0.66255 0.64315 0.0
H1386 H 0.35976 0.75883 0.66971 0.0
H1387 H 0.37149 0.74148 0.68856 0.0
H1388 H 0.38009 0.74336 0.6605 0.0
H1389 H 0.2771 0.66366 0.67641 0.0
H1390 H 0.29444 0.6802 0.70077 0.0
H1391 H 0.27857 0.69535 0.68354 0.0
H1392 H 0.33393 0.73282 0.75331 0.0
H1393 H 0.30206 0.77428 0.71097 0.0
H1394 H 0.35931 0.70604 0.71108 0.0
H1395 H 0.3327 0.68488 0.71607 0.0
H1396 H 0.35088 0.70321 0.73914 0.0
H1397 H 0.31948 0.75599 0.66043 0.0
H1398 H 0.29729 0.76685 0.67229 0.0
H1399 H 0.29225 0.73479 0.66349 0.0
C1400 C 0.59788 0.99579 0.80862 0.0
C1401 C 0.61718 0.01621 0.81309 0.0
C1402 C 0.58034 0.99102 0.82315 0.0
C1403 C 0.58227 1.00716 0.84239 0.0
C1404 C 0.60239 0.02694 0.84756 0.0
C1405 C 0.61958 0.0312 0.83282 0.0
C1406 C 0.55936 0.96955 0.81723 0.0
C1407 C 0.60537 0.04442 0.86815 0.0
C1408 C 0.53674 0.02708 0.87021 0.0
C1409 C 0.5399 0.01925 0.89141 0.0
C1410 C 0.54814 0.02024 0.85258 0.0
C1411 C 0.56288 1.00524 0.85644 0.0
C1412 C 0.56295 0.994 0.87668 0.0
C1413 C 0.55149 1.00125 0.89408 0.0
C1414 C 0.54701 0.03194 0.83092 0.0
C1415 C 0.5777 0.9771 0.88113 0.0
H1416 H 0.59603 0.9841 0.79336 0.0
H1417 H 0.63462 0.04682 0.83642 0.0
H1418 H 0.55245 0.96099 0.8323 0.0
H1419 H 0.54577 0.9761 0.80863 0.0
H1420 H 0.56314 0.95532 0.80586 0.0
H1421 H 0.62248 0.05817 0.87014 0.0
H1422 H 0.59205 0.05439 0.86726 0.0
H1423 H 0.60319 0.03406 0.88322 0.0
H1424 H 0.52721 0.04044 0.86797 0.0
H1425 H 0.55383 0.99485 0.91037 0.0
H1426 H 0.54638 0.01861 0.81655 0.0
H1427 H 0.56267 0.04751 0.83045 0.0
H1428 H 0.53182 0.03913 0.82903 0.0
H1429 H 0.57863 0.9657 0.86584 0.0
H1430 H 0.57108 0.96483 0.8943 0.0
H1431 H 0.59539 0.98828 0.88692 0.0
C1432 C 0.2852 0.33433 0.11154 0.0
C1433 C 0.30651 0.34679 0.10424 0.0
C1434 C 0.28296 0.32815 0.13389 0.0
C1435 C 0.30249 0.3342 0.1496 0.0
C1436 C 0.32407 0.34656 0.14222 0.0
C1437 C 0.32576 0.3528 0.11989 0.0
C1438 C 0.25955 0.31523 0.14074 0.0
C1439 C 0.34552 0.35315 0.15794 0.0
C1440 C 0.29628 0.33628 0.21317 0.0
C1441 C 0.29857 0.31329 0.21866 0.0
C1442 C 0.29709 0.34315 0.19091 0.0
C1443 C 0.30059 0.3269 0.17345 0.0
C1444 C 0.30284 0.3037 0.17894 0.0
C1445 C 0.30169 0.29721 0.20118 0.0
C1446 C 0.29436 0.36796 0.18608 0.0
C1447 C 0.3069 0.28572 0.16131 0.0
H1448 H 0.27012 0.32974 0.09984 0.0
H1449 H 0.34234 0.36247 0.11466 0.0
H1450 H 0.25957 0.29711 0.14661 0.0
H1451 H 0.25524 0.32612 0.15485 0.0
H1452 H 0.24593 0.31235 0.1269 0.0
H1453 H 0.36101 0.36267 0.14979 0.0
H1454 H 0.34358 0.36523 0.17237 0.0
H1455 H 0.34826 0.33628 0.16455 0.0
H1456 H 0.29393 0.34901 0.2263 0.0
H1457 H 0.30366 0.27945 0.20491 0.0
H1458 H 0.2801 0.36576 0.17302 0.0
H1459 H 0.31019 0.37918 0.17954 0.0
H1460 H 0.29084 0.37814 0.2011 0.0
H1461 H 0.29279 0.28131 0.14784 0.0
H1462 H 0.3081 0.26833 0.16809 0.0
H1463 H 0.32304 0.29412 0.15368 0.0
C1464 C 0.2415 0.96614 0.0257 0.0
C1465 C 0.25725 0.95977 0.0404 0.0
C1466 C 0.2295 0.98262 0.03284 0.0
C1467 C 0.23323 0.99269 0.05524 0.0
C1468 C 0.24858 0.98572 0.07031 0.0
C1469 C 0.26053 0.96942 0.06267 0.0
C1470 C 0.21326 0.98972 0.01628 0.0
C1471 C 0.25264 0.99579 0.0944 0.0
C1472 C 0.21975 0.05343 0.06526 0.0
C1473 C 0.19731 0.04576 0.07167 0.0
C1474 C 0.23198 0.03638 0.06058 0.0
C1475 C 0.22156 0.01113 0.06261 0.0
C1476 C 0.19943 1.00342 0.07029 0.0
C1477 C 0.1875 0.02082 0.0746 0.0
C1478 C 0.25559 0.04526 0.05245 0.0
C1479 C 0.18783 0.97668 0.07284 0.0
H1480 H 0.23897 0.95872 0.00847 0.0
H1481 H 0.27262 0.9644 0.0741 0.0
H1482 H 0.19587 0.98567 0.02233 0.0
H1483 H 0.21915 0.00977 0.01457 0.0
H1484 H 0.21198 0.97987 0.99959 0.0
H1485 H 0.26431 0.9876 0.10421 0.0
H1486 H 0.26023 0.016 0.09548 0.0
H1487 H 0.2361 0.9922 0.10213 0.0
H1488 H 0.22748 0.07271 0.06324 0.0
H1489 H 0.17001 0.01465 0.07918 0.0
H1490 H 0.25527 0.03774 0.035 0.0
H1491 H 0.26807 0.0385 0.06259 0.0
H1492 H 0.26179 0.06562 0.05309 0.0
H1493 H 0.18242 0.96675 0.05614 0.0
H1494 H 0.17242 0.97426 0.08232 0.0
H1495 H 0.19983 0.96795 0.08142 0.0
C1496 C 0.71766 0.66665 0.01646 0.0
C1497 C 0.7377 0.66291 0.0265 0.0
C1498 C 0.69611 0.64956 0.01767 0.0
C1499 C 0.69449 0.62842 0.02953 0.0
C1500 C 0.71475 0.62436 0.03933 0.0
C1501 C 0.73607 0.64153 0.03756 0.0
C1502 C 0.67499 0.65443 0.00669 0.0
C1503 C 0.71385 0.60233 0.05239 0.0
C1504 C 0.63752 0.60104 0.05367 0.0
C1505 C 0.62728 0.58047 0.0387 0.0
C1506 C 0.65951 0.61638 0.05112 0.0
C1507 C 0.67153 0.61141 0.03289 0.0
C1508 C 0.66147 0.59042 0.01791 0.0
C1509 C 0.63955 0.57507 0.02111 0.0
C1510 C 0.66972 0.63822 0.06778 0.0
C1511 C 0.67355 0.58462 0.99811 0.0
H1512 H 0.71877 0.68307 0.00782 0.0
H1513 H 0.75146 0.6385 0.04544 0.0
H1514 H 0.665 0.63813 0.99571 0.0
H1515 H 0.66374 0.65775 0.01957 0.0
H1516 H 0.67927 0.6706 0.99667 0.0
H1517 H 0.73122 0.60118 0.0581 0.0
H1518 H 0.70413 0.6033 0.06719 0.0
H1519 H 0.70467 0.58516 0.04213 0.0
H1520 H 0.62818 0.60531 0.06734 0.0
H1521 H 0.63165 0.5594 0.00931 0.0
H1522 H 0.67228 0.65547 0.05935 0.0
H1523 H 0.6868 0.63764 0.07491 0.0
H1524 H 0.65866 0.63887 0.08161 0.0
H1525 H 0.67611 0.59985 0.98701 0.0
H1526 H 0.66375 0.56728 0.98836 0.0
H1527 H 0.69078 0.58305 0.00364 0.0
C1528 C 0.73933 0.5062 0.30743 0.0
C1529 C 0.71644 0.49318 0.30935 0.0
C1530 C 0.75495 0.4942 0.29984 0.0
C1531 C 0.74754 0.46854 0.29447 0.0
C1532 C 0.72464 0.45513 0.29711 0.0
C1533 C 0.70923 0.4677 0.30435 0.0
C1534 C 0.77921 0.50907 0.29701 0.0
C1535 C 0.71636 0.42762 0.29196 0.0
C1536 C 0.77966 0.43951 0.25433 0.0
C1537 C 0.7934 0.4304 0.26902 0.0
C1538 C 0.76493 0.45247 0.26243 0.0
C1539 C 0.76369 0.4558 0.2857 0.0
C1540 C 0.77777 0.44686 0.30059 0.0
C1541 C 0.79258 0.43435 0.29203 0.0
C1542 C 0.75041 0.4622 0.24614 0.0
C1543 C 0.77662 0.44974 0.32549 0.0
H1544 H 0.74491 0.52595 0.31117 0.0
H1545 H 0.69153 0.45765 0.3059 0.0
H1546 H 0.79161 0.50198 0.30692 0.0
H1547 H 0.78282 0.50722 0.27931 0.0
H1548 H 0.78228 0.52888 0.30221 0.0
H1549 H 0.69834 0.41982 0.29593 0.0
H1550 H 0.71752 0.42295 0.27405 0.0
H1551 H 0.72747 0.41863 0.30157 0.0
H1552 H 0.78027 0.43621 0.23654 0.0
H1553 H 0.80287 0.42673 0.30334 0.0
H1554 H 0.75332 0.48222 0.25004 0.0
H1555 H 0.73198 0.45319 0.24762 0.0
H1556 H 0.7542 0.459 0.22864 0.0
H1557 H 0.77908 0.46929 0.33117 0.0
H1558 H 0.78974 0.44303 0.33476 0.0
H1559 H 0.7594 0.43928 0.32985 0.0
C1560 C 0.87871 0.44917 0.51726 0.0
C1561 C 0.86329 0.46329 0.51965 0.0
C1562 C 0.9024 0.45987 0.52117 0.0
C1563 C 0.91085 0.48534 0.52749 0.0
C1564 C 0.89537 0.49967 0.53019 0.0
C1565 C 0.87169 0.48843 0.52628 0.0
C1566 C 0.91839 0.44398 0.51815 0.0
C1567 C 0.90383 0.52691 0.53678 0.0
C1568 C 0.97255 0.50813 0.55245 0.0
C1569 C 0.98409 0.51593 0.53367 0.0
C1570 C 0.94857 0.49861 0.55084 0.0
C1571 C 0.93596 0.49706 0.53002 0.0
C1572 C 0.94748 0.50552 0.51118 0.0
C1573 C 0.9714 0.51477 0.51322 0.0
C1574 C 0.93679 0.48964 0.57124 0.0
C1575 C 0.9346 0.5043 0.48872 0.0
H1576 H 0.87227 0.42969 0.51226 0.0
H1577 H 0.85979 0.49938 0.52819 0.0
H1578 H 0.92935 0.45025 0.50445 0.0
H1579 H 0.92996 0.44575 0.53349 0.0
H1580 H 0.909 0.42428 0.51421 0.0
H1581 H 0.88954 0.53522 0.53914 0.0
H1582 H 0.91516 0.53042 0.55246 0.0
H1583 H 0.9142 0.53633 0.52376 0.0
H1584 H 0.98226 0.50903 0.5683 0.0
H1585 H 0.98016 0.52101 0.49867 0.0
H1586 H 0.9285 0.46956 0.56862 0.0
H1587 H 0.92306 0.4986 0.57413 0.0
H1588 H 0.94891 0.49332 0.58642 0.0
H1589 H 0.9261 0.48485 0.48277 0.0
H1590 H 0.94602 0.51287 0.47602 0.0
H1591 H 0.92095 0.5137 0.49009 0.0
C1592 C 0.41426 0.10806 0.25585 0.0
C1593 C 0.42297 0.11858 0.27735 0.0
C1594 C 0.39869 0.11712 0.24327 0.0
C1595 C 0.392 0.13734 0.25236 0.0
C1596 C 0.40222 0.14926 0.2733 0.0
C1597 C 0.41744 0.13956 0.28567 0.0
C1598 C 0.3881 0.10384 0.2211 0.0
C1599 C 0.39591 0.17129 0.2833 0.0
C1600 C 0.35587 0.17111 0.22091 0.0
C1601 C 0.33483 0.16263 0.23032 0.0
C1602 C 0.37457 0.16218 0.22692 0.0
C1603 C 0.37185 0.14368 0.24199 0.0
C1604 C 0.35001 0.133 0.24938 0.0
C1605 C 0.3319 0.14279 0.24373 0.0
C1606 C 0.39761 0.17403 0.21866 0.0
C1607 C 0.3462 0.11268 0.26498 0.0
H1608 H 0.4186 0.09187 0.24931 0.0
H1609 H 0.42441 0.14791 0.30216 0.0
H1610 H 0.3704 0.09249 0.22304 0.0
H1611 H 0.3869 0.11705 0.2086 0.0
H1612 H 0.39801 0.09155 0.21461 0.0
H1613 H 0.40754 0.18032 0.29817 0.0
H1614 H 0.39646 0.18499 0.27086 0.0
H1615 H 0.37812 0.16541 0.28834 0.0
H1616 H 0.35825 0.18578 0.20987 0.0
H1617 H 0.31603 0.13596 0.25142 0.0
H1618 H 0.40653 0.16007 0.21405 0.0
H1619 H 0.40858 0.18682 0.23217 0.0
H1620 H 0.39604 0.18465 0.20408 0.0
H1621 H 0.35386 0.09811 0.259 0.0
H1622 H 0.3277 0.10417 0.26673 0.0
H1623 H 0.35473 0.12022 0.2817 0.0
C1624 C 0.347 0.15801 0.54327 0.0
C1625 C 0.35291 0.1831 0.53979 0.0
C1626 C 0.36375 0.14534 0.54515 0.0
C1627 C 0.38705 0.15794 0.54327 0.0
C1628 C 0.39318 0.18336 0.53999 0.0
C1629 C 0.37605 0.19568 0.53841 0.0
C1630 C 0.35645 0.11833 0.54889 0.0
C1631 C 0.41778 0.19741 0.53771 0.0
C1632 C 0.43154 0.12743 0.56541 0.0
C1633 C 0.43545 0.11475 0.54607 0.0
C1634 C 0.41625 0.14202 0.5647 0.0
C1635 C 0.40475 0.14421 0.54411 0.0
C1636 C 0.40919 0.13206 0.52443 0.0
C1637 C 0.42438 0.11741 0.52567 0.0
C1638 C 0.41185 0.15447 0.58609 0.0
C1639 C 0.39752 0.1341 0.50211 0.0
H1640 H 0.32917 0.14818 0.54446 0.0
H1641 H 0.38072 0.21505 0.53567 0.0
H1642 H 0.36053 0.10751 0.5346 0.0
H1643 H 0.3661 0.11487 0.56398 0.0
H1644 H 0.3378 0.11145 0.55089 0.0
H1645 H 0.41984 0.21721 0.53579 0.0
H1646 H 0.42883 0.19573 0.55251 0.0
H1647 H 0.42409 0.18945 0.523 0.0
H1648 H 0.4399 0.12531 0.58126 0.0
H1649 H 0.42758 0.10796 0.5106 0.0
H1650 H 0.3937 0.14675 0.58961 0.0
H1651 H 0.41464 0.1744 0.58447 0.0
H1652 H 0.42309 0.15209 0.60051 0.0
H1653 H 0.37875 0.12573 0.50208 0.0
H1654 H 0.40389 0.1248 0.48822 0.0
H1655 H 0.40026 0.1537 0.49897 0.0
C1656 C 0.7185 0.61202 0.2946 0.0
C1657 C 0.70208 0.60682 0.31018 0.0
C1658 C 0.73097 0.63622 0.29202 0.0
C1659 C 0.72704 0.65563 0.30552 0.0
C1660 C 0.71027 0.65055 0.32112 0.0
C1661 C 0.69786 0.62612 0.32319 0.0
C1662 C 0.74853 0.641 0.27502 0.0
C1663 C 0.70577 0.67086 0.33585 0.0
C1664 C 0.77569 0.71452 0.31223 0.0
C1665 C 0.76811 0.72859 0.29676 0.0
C1666 C 0.76215 0.69095 0.31574 0.0
C1667 C 0.74068 0.68122 0.30332 0.0
C1668 C 0.73279 0.69545 0.28791 0.0
C1669 C 0.74657 0.71902 0.28489 0.0
C1670 C 0.77097 0.67629 0.33246 0.0
C1671 C 0.71007 0.68555 0.27423 0.0
H1672 H 0.72173 0.59711 0.28446 0.0
H1673 H 0.68522 0.62209 0.33531 0.0
H1674 H 0.74467 0.65379 0.26317 0.0
H1675 H 0.76583 0.64993 0.28343 0.0
H1676 H 0.74904 0.62387 0.26543 0.0
H1677 H 0.69191 0.66383 0.3469 0.0
H1678 H 0.72164 0.68078 0.34634 0.0
H1679 H 0.70092 0.68442 0.32553 0.0
H1680 H 0.79222 0.72189 0.32161 0.0
H1681 H 0.74057 0.72978 0.27289 0.0
H1682 H 0.77367 0.65964 0.32383 0.0
H1683 H 0.75812 0.67003 0.34464 0.0
H1684 H 0.78741 0.68705 0.34166 0.0
H1685 H 0.71036 0.66922 0.26332 0.0
H1686 H 0.70601 0.69937 0.26363 0.0
H1687 H 0.69604 0.67949 0.28527 0.0
C1688 C 0.90414 0.48871 0.83292 0.0
C1689 C 0.9042 0.50451 0.81598 0.0
C1690 C 0.89067 0.4642 0.83013 0.0
C1691 C 0.87703 0.45537 0.80989 0.0
C1692 C 0.87635 0.4715 0.79307 0.0
C1693 C 0.88996 0.49594 0.79633 0.0
C1694 C 0.89169 0.44753 0.84849 0.0
C1695 C 0.86196 0.46271 0.77128 0.0
C1696 C 0.86423 0.38758 0.7921 0.0
C1697 C 0.84158 0.37851 0.79763 0.0
C1698 C 0.87593 0.41259 0.796 0.0
C1699 C 0.86471 0.42889 0.80571 0.0
C1700 C 0.84185 0.4199 0.81135 0.0
C1701 C 0.83053 0.39478 0.8072 0.0
C1702 C 0.90031 0.42157 0.78973 0.0
C1703 C 0.82942 0.4368 0.82179 0.0
H1704 H 0.91507 0.49533 0.84818 0.0
H1705 H 0.8899 0.50814 0.78322 0.0
H1706 H 0.87414 0.43803 0.8527 0.0
H1707 H 0.89969 0.43315 0.84275 0.0
H1708 H 0.90176 0.45769 0.86382 0.0
H1709 H 0.86208 0.47797 0.76058 0.0
H1710 H 0.86857 0.44898 0.76204 0.0
H1711 H 0.84396 0.45349 0.77437 0.0
H1712 H 0.87288 0.37515 0.78467 0.0
H1713 H 0.81303 0.3879 0.81156 0.0
H1714 H 0.9119 0.43032 0.80467 0.0
H1715 H 0.90156 0.43574 0.77764 0.0
H1716 H 0.90653 0.4065 0.78225 0.0
H1717 H 0.83895 0.44603 0.83765 0.0
H1718 H 0.81166 0.42687 0.82521 0.0
H1719 H 0.82861 0.4514 0.81063 0.0
C1720 C 0.11138 0.89106 0.08637 0.0
C1721 C 0.09751 0.88215 0.10346 0.0
C1722 C 0.11019 0.91261 0.0764 0.0
C1723 C 0.09455 0.92545 0.08345 0.0
C1724 C 0.08064 0.91656 0.10078 0.0
C1725 C 0.08234 0.8952 0.11056 0.0
C1726 C 0.12556 0.92157 0.05821 0.0
C1727 C 0.0637 0.92949 0.10888 0.0
C1728 C 0.10033 0.9924 0.072 0.0
C1729 C 0.08373 0.98982 0.05407 0.0
C1730 C 0.10473 0.9717 0.08114 0.0
C1731 C 0.09203 0.94771 0.0724 0.0
C1732 C 0.07568 0.94503 0.05396 0.0
C1733 C 0.07182 0.96601 0.045 0.0
C1734 C 0.12247 0.9756 0.10064 0.0
C1735 C 0.06168 0.91991 0.04409 0.0
H1736 H 0.12324 0.88123 0.08083 0.0
H1737 H 0.07154 0.88857 0.12375 0.0
H1738 H 0.11499 0.92023 0.04229 0.0
H1739 H 0.13513 0.94121 0.06211 0.0
H1740 H 0.13807 0.91081 0.05584 0.0
H1741 H 0.05429 0.92042 0.12265 0.0
H1742 H 0.07274 0.94882 0.11478 0.0
H1743 H 0.05103 0.9299 0.09496 0.0
H1744 H 0.10982 0.01065 0.07908 0.0
H1745 H 0.05898 0.96367 0.03116 0.0
H1746 H 0.13343 0.96307 0.09852 0.0
H1747 H 0.1137 0.97135 0.11606 0.0
H1748 H 0.13362 0.99484 0.10288 0.0
H1749 H 0.07315 0.90856 0.03952 0.0
H1750 H 0.05054 0.92085 0.02906 0.0
H1751 H 0.05067 0.91036 0.05663 0.0
C1752 C 0.95756 0.29755 0.88306 0.0
C1753 C 0.95585 0.28082 0.89947 0.0
C1754 C 0.93815 0.29876 0.8698 0.0
C1755 C 0.91642 0.2825 0.87262 0.0
C1756 C 0.91455 0.26541 0.88908 0.0
C1757 C 0.93427 0.26492 0.90245 0.0
C1758 C 0.94092 0.31768 0.85288 0.0
C1759 C 0.89179 0.24747 0.89237 0.0
C1760 C 0.8646 0.30233 0.85106 0.0
C1761 C 0.85966 0.29038 0.82952 0.0
C1762 C 0.88256 0.29938 0.86547 0.0
C1763 C 0.89577 0.28377 0.8584 0.0
C1764 C 0.8903 0.2709 0.83702 0.0
C1765 C 0.87248 0.27452 0.82278 0.0
C1766 C 0.88793 0.31372 0.88797 0.0
C1767 C 0.9036 0.25367 0.82899 0.0
H1768 H 0.97413 0.31004 0.88075 0.0
H1769 H 0.93285 0.25188 0.91504 0.0
H1770 H 0.9355 0.30843 0.83593 0.0
H1771 H 0.92971 0.32972 0.85618 0.0
H1772 H 0.9589 0.32936 0.8531 0.0
H1773 H 0.89305 0.2358 0.90624 0.0
H1774 H 0.87893 0.25745 0.89586 0.0
H1775 H 0.88527 0.23539 0.87686 0.0
H1776 H 0.85482 0.31459 0.85652 0.0
H1777 H 0.86867 0.26498 0.8063 0.0
H1778 H 0.90534 0.3268 0.88885 0.0
H1779 H 0.88796 0.30116 0.90132 0.0
H1780 H 0.87543 0.32423 0.89138 0.0
H1781 H 0.9215 0.26427 0.82689 0.0
H1782 H 0.89592 0.24333 0.81287 0.0
H1783 H 0.90437 0.24036 0.84152 0.0
C1784 C 0.60024 0.23615 0.61565 0.0
C1785 C 0.59449 0.25404 0.60326 0.0
C1786 C 0.59779 0.2123 0.60609 0.0
C1787 C 0.58915 0.20594 0.58354 0.0
C1788 C 0.58357 0.224 0.57082 0.0
C1789 C 0.5864 0.24786 0.5808 0.0
C1790 C 0.60408 0.19375 0.62027 0.0
C1791 C 0.57412 0.21794 0.54681 0.0
C1792 C 0.59804 0.14745 0.55537 0.0
C1793 C 0.5772 0.13002 0.55813 0.0
C1794 C 0.60208 0.17231 0.56321 0.0
C1795 C 0.5848 0.18001 0.57382 0.0
C1796 C 0.56358 0.16257 0.57617 0.0
C1797 C 0.56011 0.1379 0.56844 0.0
C1798 C 0.62501 0.19026 0.56051 0.0
C1799 C 0.54456 0.16988 0.58715 0.0
H1800 H 0.60666 0.24076 0.63298 0.0
H1801 H 0.58194 0.26157 0.5711 0.0
H1802 H 0.58857 0.17845 0.62209 0.0
H1803 H 0.61649 0.18574 0.6121 0.0
H1804 H 0.61173 0.20194 0.63714 0.0
H1805 H 0.57155 0.23424 0.53891 0.0
H1806 H 0.58591 0.21041 0.53716 0.0
H1807 H 0.55743 0.20356 0.54574 0.0
H1808 H 0.61134 0.14163 0.54741 0.0
H1809 H 0.54382 0.12475 0.57046 0.0
H1810 H 0.63385 0.19773 0.57713 0.0
H1811 H 0.62254 0.20602 0.55168 0.0
H1812 H 0.63631 0.18166 0.55114 0.0
H1813 H 0.55019 0.17638 0.60483 0.0
H1814 H 0.52861 0.15444 0.58653 0.0
H1815 H 0.54054 0.18532 0.57894 0.0
C1816 C 0.57126 0.78443 0.37633 0.0
C1817 C 0.57477 0.79089 0.39933 0.0
C1818 C 0.58987 0.78665 0.36321 0.0
C1819 C 0.61256 0.7955 0.37333 0.0
C1820 C 0.6162 0.80175 0.3966 0.0
C1821 C 0.59727 0.7994 0.40931 0.0
C1822 C 0.58525 0.77984 0.33847 0.0
C1823 C 0.64012 0.81116 0.40802 0.0
C1824 C 0.66104 0.78263 0.34221 0.0
C1825 C 0.66999 0.80498 0.33287 0.0
C1826 C 0.64243 0.77931 0.35548 0.0
C1827 C 0.63246 0.79877 0.35948 0.0
C1828 C 0.64141 0.82136 0.35012 0.0
C1829 C 0.66006 0.82421 0.33699 0.0
C1830 C 0.63338 0.75493 0.36515 0.0
C1831 C 0.63129 0.84258 0.35401 0.0
H1832 H 0.55392 0.77784 0.36851 0.0
H1833 H 0.6001 0.80439 0.42708 0.0
H1834 H 0.59258 0.79615 0.32928 0.0
H1835 H 0.59376 0.76564 0.33347 0.0
H1836 H 0.56662 0.77272 0.33324 0.0
H1837 H 0.64005 0.8146 0.42632 0.0
H1838 H 0.64996 0.79771 0.40472 0.0
H1839 H 0.64935 0.82853 0.40122 0.0
H1840 H 0.66839 0.76757 0.33891 0.0
H1841 H 0.66707 0.84167 0.33016 0.0
H1842 H 0.61513 0.7466 0.35903 0.0
H1843 H 0.63408 0.7577 0.38355 0.0
H1844 H 0.64323 0.74177 0.36073 0.0
H1845 H 0.61285 0.83694 0.34794 0.0
H1846 H 0.64017 0.8589 0.34548 0.0
H1847 H 0.63238 0.84794 0.3721 0.0
C1848 C 0.07275 0.2204 0.45533 0.0
C1849 C 0.057 0.22 0.43684 0.0
C1850 C 0.07246 0.19916 0.46743 0.0
C1851 C 0.05561 0.17599 0.46193 0.0
C1852 C 0.03948 0.17556 0.44343 0.0
C1853 C 0.04053 0.19693 0.43125 0.0
C1854 C 0.09067 0.20153 0.48619 0.0
C1855 C 0.0207 0.15228 0.43647 0.0
C1856 C 0.06541 0.11332 0.48054 0.0
C1857 C 0.05426 0.10882 0.50046 0.0
C1858 C 0.06613 0.13456 0.46832 0.0
C1859 C 0.05499 0.1526 0.47523 0.0
C1860 C 0.04338 0.14797 0.49514 0.0
C1861 C 0.04341 0.12686 0.50736 0.0
C1862 C 0.07928 0.13782 0.44788 0.0
C1863 C 0.03057 0.16543 0.5036 0.0
H1864 H 0.08579 0.23751 0.46029 0.0
H1865 H 0.02802 0.19556 0.4173 0.0
H1866 H 0.08259 0.19803 0.50206 0.0
H1867 H 0.09998 0.18751 0.48322 0.0
H1868 H 0.10326 0.22002 0.48808 0.0
H1869 H 1.00838 0.1549 0.42312 0.0
H1870 H 0.02828 0.13771 0.43036 0.0
H1871 H 1.01117 0.14563 0.451 0.0
H1872 H 0.07408 0.10023 0.47449 0.0
H1873 H 0.03456 0.12437 0.52242 0.0
H1874 H 0.09211 0.15613 0.44936 0.0
H1875 H 0.06739 0.13709 0.433 0.0
H1876 H 0.08828 0.12346 0.44515 0.0
H1877 H 0.04273 0.18382 0.50825 0.0
H1878 H 0.02124 0.15903 0.51831 0.0
H1879 H 0.01806 0.16761 0.49023 0.0
C1880 C 0.63757 0.3224 0.22102 0.0
C1881 C 0.62083 0.30105 0.21106 0.0
C1882 C 0.65987 0.32213 0.23092 0.0
C1883 C 0.66714 0.30011 0.23083 0.0
C1884 C 0.6504 0.27861 0.22052 0.0
C1885 C 0.62803 0.27927 0.21131 0.0
C1886 C 0.67577 0.34578 0.24178 0.0
C1887 C 0.65626 0.25451 0.21887 0.0
C1888 C 0.73403 0.30413 0.23886 0.0
C1889 C 0.73782 0.29752 0.26082 0.0
C1890 C 0.71182 0.30481 0.22913 0.0
C1891 C 0.69174 0.29948 0.2413 0.0
C1892 C 0.69557 0.29324 0.26362 0.0
C1893 C 0.71783 0.29204 0.27273 0.0
C1894 C 0.70984 0.31102 0.20533 0.0
C1895 C 0.67594 0.28796 0.27827 0.0
H1896 H 0.63316 0.33962 0.22136 0.0
H1897 H 0.61612 0.26239 0.2038 0.0
H1898 H 0.68144 0.34313 0.25905 0.0
H1899 H 0.69134 0.35127 0.23257 0.0
H1900 H 0.66757 0.361 0.24224 0.0
H1901 H 0.64242 0.23962 0.2095 0.0
H1902 H 0.67233 0.25664 0.2105 0.0
H1903 H 0.65935 0.24887 0.23578 0.0
H1904 H 0.74857 0.30847 0.22886 0.0
H1905 H 0.71957 0.287 0.28963 0.0
H1906 H 0.70476 0.32828 0.20463 0.0
H1907 H 0.69621 0.29631 0.19554 0.0
H1908 H 0.72617 0.31333 0.19736 0.0
H1909 H 0.66805 0.3034 0.27876 0.0
H1910 H 0.68144 0.28513 0.29555 0.0
H1911 H 0.66248 0.27126 0.27126 0.0
C1912 C 0.55211 0.87562 0.92565 0.0
C1913 C 0.56417 0.86004 0.935 0.0
C1914 C 0.55066 0.89801 0.93717 0.0
C1915 C 0.56235 0.9066 0.95868 0.0
C1916 C 0.57508 0.89124 0.96793 0.0
C1917 C 0.57538 0.86836 0.95646 0.0
C1918 C 0.53615 0.91236 0.92619 0.0
C1919 C 0.58887 0.89917 0.99006 0.0
C1920 C 0.57391 0.97701 0.97887 0.0
C1921 C 0.55878 0.97718 0.99573 0.0
C1922 C 0.57557 0.95473 0.96728 0.0
C1923 C 0.5611 0.93114 0.97144 0.0
C1924 C 0.54532 0.93134 0.98798 0.0
C1925 C 0.54475 0.95378 1.00001 0.0
C1926 C 0.59326 0.95658 0.95062 0.0
C1927 C 0.52849 0.90764 0.99281 0.0
H1928 H 0.54312 0.86994 0.90931 0.0
H1929 H 0.58493 0.85712 0.96426 0.0
H1930 H 0.5251 0.91791 0.93824 0.0
H1931 H 0.5474 0.92936 0.92043 0.0
H1932 H 0.52508 0.90166 0.91161 0.0
H1933 H 0.60004 0.8872 0.99398 0.0
H1934 H 0.59976 0.9184 0.99014 0.0
H1935 H 0.57718 0.89863 0.00348 0.0
H1936 H 0.58506 0.99446 0.97504 0.0
H1937 H 0.53274 0.95296 0.01264 0.0
H1938 H 0.58463 0.95277 0.93355 0.0
H1939 H 0.60278 0.94272 0.9531 0.0
H1940 H 0.60575 0.97512 0.95182 0.0
H1941 H 0.51934 0.8976 0.97705 0.0
H1942 H 0.51563 0.91073 0.00405 0.0
H1943 H 0.53777 0.89565 1.00072 0.0
C1944 C 0.98226 0.79202 0.72996 0.0
C1945 C 0.98486 0.79346 0.70677 0.0
C1946 C 0.96089 0.79095 0.73996 0.0
C1947 C 0.94043 0.7919 0.72718 0.0
C1948 C 0.94304 0.7936 0.7038 0.0
C1949 C 0.96444 0.79405 0.69417 0.0
C1950 C 0.9602 0.78851 0.7646 0.0
C1951 C 0.92296 0.79516 0.68864 0.0
C1952 C 0.87749 0.76883 0.74937 0.0
C1953 C 0.87248 0.79036 0.75844 0.0
C1954 C 0.89875 0.76906 0.73944 0.0
C1955 C 0.91683 0.79128 0.73803 0.0
C1956 C 0.91179 0.81301 0.74703 0.0
C1957 C 0.89043 0.81229 0.75682 0.0
C1958 C 0.90195 0.745 0.73053 0.0
C1959 C 0.9291 0.83758 0.74606 0.0
H1960 H 0.9971 0.79143 0.74057 0.0
H1961 H 0.96519 0.79525 0.67639 0.0
H1962 H 0.95604 0.80458 0.77276 0.0
H1963 H 0.9464 0.7719 0.76764 0.0
H1964 H 0.97673 0.78716 0.77252 0.0
H1965 H 0.92724 0.79707 0.67111 0.0
H1966 H 0.90841 0.77843 0.68918 0.0
H1967 H 0.91705 0.8111 0.69448 0.0
H1968 H 0.8646 0.75143 0.74991 0.0
H1969 H 0.88778 0.82944 0.7632 0.0
H1970 H 0.90913 0.74668 0.71409 0.0
H1971 H 0.88561 0.73009 0.72872 0.0
H1972 H 0.91441 0.73976 0.74205 0.0
H1973 H 0.94545 0.83784 0.75545 0.0
H1974 H 0.92307 0.85301 0.75305 0.0
H1975 H 0.93285 0.8406 0.72854 0.0
C1976 C 0.16702 0.04184 0.89574 0.0
C1977 C 0.15819 0.02096 0.88084 0.0
C1978 C 0.1581 0.04362 0.91636 0.0
C1979 C 0.14026 0.02381 0.92234 0.0
C1980 C 0.1328 1.00178 0.90826 0.0
C1981 C 0.1417 1.0007 0.88747 0.0
C1982 C 0.16632 0.06756 0.93076 0.0
C1983 C 0.11429 0.98001 0.91443 0.0
C1984 C 0.12251 0.02892 0.98115 0.0
C1985 C 0.10331 0.03772 0.97755 0.0
C1986 C 0.13439 0.02349 0.96325 0.0
C1987 C 0.12718 0.02763 0.94145 0.0
C1988 C 0.10783 0.0366 0.93782 0.0
C1989 C 0.09596 0.04124 0.95591 0.0
C1990 C 0.15459 0.01336 0.96762 0.0
C1991 C 0.09992 0.04179 0.91486 0.0
H1992 H 0.17987 0.05752 0.89072 0.0
H1993 H 0.13503 0.98443 0.87606 0.0
H1994 H 0.15265 0.07708 0.93032 0.0
H1995 H 0.1699 0.0642 0.94834 0.0
H1996 H 0.18205 0.08001 0.92505 0.0
H1997 H 0.1134 0.96306 0.90381 0.0
H1998 H 0.11725 0.97662 0.93212 0.0
H1999 H 0.09742 0.98389 0.91236 0.0
H2000 H 0.12802 0.02593 0.99791 0.0
H2001 H 0.08118 0.04816 0.95315 0.0
H2002 H 0.17045 0.02634 0.96278 0.0
H2003 H 0.15198 0.99583 0.9573 0.0
H2004 H 0.15728 0.01005 0.9854 0.0
H2005 H 0.11398 0.05546 0.90788 0.0
H2006 H 0.0847 0.04899 0.91497 0.0
H2007 H 0.09551 0.02478 0.90351 0.0
C2008 C 0.78111 0.35219 0.55056 0.0
C2009 C 0.79333 0.37707 0.55455 0.0
C2010 C 0.78224 0.33546 0.56656 0.0
C2011 C 0.7961 0.3439 0.58676 0.0
C2012 C 0.80843 0.36902 0.59078 0.0
C2013 C 0.80681 0.38526 0.57469 0.0
C2014 C 0.76868 0.30885 0.5619 0.0
C2015 C 0.82353 0.3788 0.61206 0.0
C2016 C 0.79072 0.31456 0.64121 0.0
C2017 C 0.81022 0.30588 0.64236 0.0
C2018 C 0.78446 0.32487 0.62214 0.0
C2019 C 0.79821 0.32684 0.60393 0.0
C2020 C 0.81669 0.3162 0.60423 0.0
C2021 C 0.8224 0.30572 0.62343 0.0
C2022 C 0.76444 0.33571 0.6224 0.0
C2023 C 0.83178 0.31791 0.58515 0.0
H2024 H 0.77062 0.34583 0.53502 0.0
H2025 H 0.81635 0.40447 0.57785 0.0
H2026 H 0.78043 0.29701 0.56217 0.0
H2027 H 0.75688 0.30331 0.57513 0.0
H2028 H 0.75846 0.3053 0.54553 0.0
H2029 H 0.83212 0.39881 0.61245 0.0
H2030 H 0.81316 0.37542 0.6266 0.0
H2031 H 0.83692 0.36903 0.61399 0.0
H2032 H 0.78123 0.31493 0.65576 0.0
H2033 H 0.83715 0.29852 0.62401 0.0
H2034 H 0.75432 0.33199 0.60601 0.0
H2035 H 0.77097 0.35594 0.62589 0.0
H2036 H 0.75289 0.32835 0.63542 0.0
H2037 H 0.82128 0.3134 0.56897 0.0
H2038 H 0.84296 0.30546 0.58637 0.0
H2039 H 0.84289 0.33704 0.58523 0.0
C2040 C 0.50739 0.12068 0.3848 0.0
C2041 C 0.48446 0.10644 0.38122 0.0
C2042 C 0.52031 0.1206 0.40485 0.0
C2043 C 0.51007 0.10561 0.42138 0.0
C2044 C 0.4864 0.09292 0.41858 0.0
C2045 C 0.4738 0.0937 0.39857 0.0
C2046 C 0.54529 0.1351 0.40762 0.0
C2047 C 0.47483 0.07676 0.43588 0.0
C2048 C 0.54442 0.07371 0.45712 0.0
C2049 C 0.54459 0.08568 0.47806 0.0
C2050 C 0.53415 0.08086 0.43821 0.0
C2051 C 0.52439 0.10077 0.44038 0.0
C2052 C 0.52625 0.11414 0.46124 0.0
C2053 C 0.53607 0.10621 0.47993 0.0
C2054 C 0.53233 0.06603 0.41622 0.0
C2055 C 0.51671 0.13591 0.4641 0.0
H2056 H 0.51562 0.13075 0.37147 0.0
H2057 H 0.45605 0.08274 0.39589 0.0
H2058 H 0.54999 0.14431 0.42466 0.0
H2059 H 0.55608 0.12244 0.40515 0.0
H2060 H 0.54943 0.14919 0.39538 0.0
H2061 H 0.45598 0.06967 0.43191 0.0
H2062 H 0.482 0.06085 0.43694 0.0
H2063 H 0.47817 0.087 0.45252 0.0
H2064 H 0.55096 0.0578 0.45574 0.0
H2065 H 0.53652 0.11568 0.49617 0.0
H2066 H 0.53887 0.07829 0.40306 0.0
H2067 H 0.51404 0.0564 0.41115 0.0
H2068 H 0.54203 0.05212 0.41706 0.0
H2069 H 0.52107 0.14802 0.45033 0.0
H2070 H 0.52328 0.14691 0.48019 0.0
H2071 H 0.49774 0.12938 0.46364 0.0
C2072 C 0.81942 0.76914 0.10695 0.0
C2073 C 0.80178 0.74907 0.09692 0.0
C2074 C 0.82041 0.77674 0.12993 0.0
C2075 C 0.80343 0.76401 0.14347 0.0
C2076 C 0.78542 0.74402 0.13328 0.0
C2077 C 0.78483 0.73688 0.11037 0.0
C2078 C 0.83991 0.79817 0.13984 0.0
C2079 C 0.76689 0.72974 0.14671 0.0
C2080 C 0.81639 0.76534 0.20692 0.0
C2081 C 0.805 0.78194 0.21548 0.0
C2082 C 0.81635 0.75976 0.18375 0.0
C2083 C 0.80467 0.77097 0.16832 0.0
C2084 C 0.79337 0.78796 0.17681 0.0
C2085 C 0.79365 0.79319 0.20011 0.0
C2086 C 0.82864 0.74152 0.17577 0.0
C2087 C 0.78071 0.80049 0.16124 0.0
H2088 H 0.83268 0.77871 0.09692 0.0
H2089 H 0.7711 0.72132 0.10301 0.0
H2090 H 0.83309 0.81225 0.14824 0.0
H2091 H 0.85041 0.79192 0.15267 0.0
H2092 H 0.85121 0.80686 0.1271 0.0
H2093 H 0.7537 0.71512 0.13632 0.0
H2094 H 0.77462 0.72111 0.15998 0.0
H2095 H 0.75831 0.74232 0.15502 0.0
H2096 H 0.82534 0.75649 0.21838 0.0
H2097 H 0.78485 0.80612 0.20626 0.0
H2098 H 0.84143 0.74996 0.16417 0.0
H2099 H 0.81617 0.72542 0.16644 0.0
H2100 H 0.83757 0.73497 0.18971 0.0
H2101 H 0.79239 0.8102 0.14926 0.0
H2102 H 0.77353 0.81392 0.17026 0.0
H2103 H 0.76644 0.78656 0.15142 0.0
C2104 C 0.09509 0.03345 0.77991 0.0
C2105 C 0.11448 0.02807 0.77201 0.0
C2106 C 0.07789 0.03724 0.76505 0.0
C2107 C 0.08032 0.03563 0.7419 0.0
C2108 C 0.09917 0.02865 0.73388 0.0
C2109 C 0.11601 0.025 0.74904 0.0
C2110 C 0.05789 0.04431 0.77419 0.0
C2111 C 0.10232 0.02644 0.70929 0.0
C2112 C 0.03723 0.03342 0.69366 0.0
C2113 C 0.04603 0.05695 0.6864 0.0
C2114 C 0.0466 0.02673 0.71334 0.0
C2115 C 0.0651 0.04401 0.72593 0.0
C2116 C 0.07209 0.06857 0.7201 0.0
C2117 C 0.06252 0.07472 0.70037 0.0
C2118 C 0.03827 1.00053 0.71934 0.0
C2119 C 0.09159 0.08768 0.73323 0.0
H2120 H 0.0938 0.03569 0.79769 0.0
H2121 H 0.13083 0.0205 0.74287 0.0
H2122 H 0.06076 0.06443 0.77383 0.0
H2123 H 0.04169 0.03512 0.76389 0.0
H2124 H 0.05583 0.03957 0.79167 0.0
H2125 H 0.11702 0.01915 0.70579 0.0
H2126 H 0.0866 0.01414 0.70009 0.0
H2127 H 0.10536 0.04476 0.70265 0.0
H2128 H 0.02407 0.01975 0.68324 0.0
H2129 H 0.06955 0.09293 0.69497 0.0
H2130 H 0.03813 0.99969 0.73763 0.0
H2131 H 0.05006 0.99014 0.71345 0.0
H2132 H 0.02077 0.99128 0.71143 0.0
H2133 H 0.0898 0.08699 0.75135 0.0
H2134 H 0.09249 0.10656 0.72867 0.0
H2135 H 0.10806 0.08387 0.72991 0.0
C2136 C 0.80008 0.41443 0.4276 0.0
C2137 C 0.78267 0.4043 0.44127 0.0
C2138 C 0.80072 0.40324 0.40644 0.0
C2139 C 0.78332 0.38163 0.39865 0.0
C2140 C 0.76461 0.37259 0.41156 0.0
C2141 C 0.76463 0.3839 0.43289 0.0
C2142 C 0.82105 0.41339 0.39328 0.0
C2143 C 0.74539 0.35 0.40349 0.0
C2144 C 0.78372 0.35625 0.33893 0.0
C2145 C 0.79464 0.33785 0.34221 0.0
C2146 C 0.77943 0.37048 0.35715 0.0
C2147 C 0.78672 0.36644 0.37898 0.0
C2148 C 0.79808 0.34812 0.38225 0.0
C2149 C 0.80164 0.33388 0.36385 0.0
C2150 C 0.76676 0.38941 0.35306 0.0
C2151 C 0.80674 0.3437 0.4052 0.0
H2152 H 0.814 0.43034 0.43393 0.0
H2153 H 0.75098 0.37621 0.4433 0.0
H2154 H 0.832 0.40067 0.39312 0.0
H2155 H 0.81532 0.41484 0.37574 0.0
H2156 H 0.83168 0.43178 0.40044 0.0
H2157 H 0.73042 0.34781 0.41358 0.0
H2158 H 0.73969 0.35083 0.38581 0.0
H2159 H 0.7516 0.33345 0.40452 0.0
H2160 H 0.77809 0.35916 0.32218 0.0
H2161 H 0.81027 0.3198 0.36641 0.0
H2162 H 0.77613 0.4074 0.36192 0.0
H2163 H 0.7497 0.38357 0.35976 0.0
H2164 H 0.76421 0.39191 0.33507 0.0
H2165 H 0.81873 0.3609 0.41332 0.0
H2166 H 0.81576 0.32915 0.40478 0.0
H2167 H 0.7922 0.33817 0.41576 0.0
C2168 C 0.50832 0.03945 0.27977 0.0
C2169 C 0.50804 0.06397 0.28326 0.0
C2170 C 0.5195 0.03207 0.26221 0.0
C2171 C 0.53049 0.0497 0.24796 0.0
C2172 C 0.53257 0.0749 0.25308 0.0
C2173 C 0.52128 0.08177 0.27078 0.0
C2174 C 0.51732 1.00509 0.2575 0.0
C2175 C 0.54443 0.09428 0.23841 0.0
C2176 C 0.5613 0.03315 0.19932 0.0
C2177 C 0.54408 0.02952 0.18186 0.0
C2178 C 0.55707 0.0391 0.22122 0.0
C2179 C 0.53518 0.04149 0.22552 0.0
C2180 C 0.51757 0.03705 0.20801 0.0
C2181 C 0.52225 0.03106 0.1864 0.0
C2182 C 0.57614 0.04358 0.23954 0.0
C2183 C 0.49389 0.03922 0.21197 0.0
H2184 H 0.4984 0.02569 0.28968 0.0
H2185 H 0.5214 0.10082 0.2737 0.0
H2186 H 0.5036 0.99726 0.24393 0.0
H2187 H 0.53349 1.00229 0.25191 0.0
H2188 H 0.51279 0.99475 0.27238 0.0
H2189 H 0.54812 0.11309 0.24675 0.0
H2190 H 0.56073 0.09119 0.23353 0.0
H2191 H 0.53322 0.09321 0.22293 0.0
H2192 H 0.57824 0.03206 0.19575 0.0
H2193 H 0.50883 0.02778 0.17294 0.0
H2194 H 0.56991 0.03373 0.25424 0.0
H2195 H 0.58213 0.06347 0.24499 0.0
H2196 H 0.591 0.03766 0.23404 0.0
H2197 H 0.48636 0.02686 0.22473 0.0
H2198 H 0.48203 0.03453 0.19658 0.0
H2199 H 0.49504 0.05828 0.21837 0.0
C2200 C 0.79648 0.76141 0.95858 0.0
C2201 C 0.80915 0.74607 0.96686 0.0
C2202 C 0.79739 0.76806 0.93627 0.0
C2203 C 0.81137 0.75934 0.92163 0.0
C2204 C 0.82452 0.74427 0.93011 0.0
C2205 C 0.82321 0.73783 0.95236 0.0
C2206 C 0.78296 0.78406 0.9282 0.0
C2207 C 0.83976 0.73448 0.91549 0.0
C2208 C 0.79668 0.75401 0.8581 0.0
C2209 C 0.81249 0.77478 0.85105 0.0
C2210 C 0.79603 0.749 0.88078 0.0
C2211 C 0.81161 0.76502 0.8973 0.0
C2212 C 0.82769 0.78598 0.89033 0.0
C2213 C 0.82792 0.79061 0.86748 0.0
C2214 C 0.77853 0.72644 0.88706 0.0
C2215 C 0.84473 0.80362 0.90708 0.0
H2216 H 0.78547 0.76787 0.96942 0.0
H2217 H 0.83313 0.72599 0.95837 0.0
H2218 H 0.7939 0.80047 0.92123 0.0
H2219 H 0.77017 0.77377 0.91461 0.0
H2220 H 0.77372 0.79023 0.94168 0.0
H2221 H 0.8497 0.72391 0.92471 0.0
H2222 H 0.82919 0.72232 0.90139 0.0
H2223 H 0.85196 0.74985 0.90831 0.0
H2224 H 0.7845 0.74159 0.84585 0.0
H2225 H 0.84015 0.8068 0.86252 0.0
H2226 H 0.76755 0.73179 0.89926 0.0
H2227 H 0.78734 0.71414 0.89518 0.0
H2228 H 0.76737 0.71596 0.87243 0.0
H2229 H 0.83553 0.81116 0.91976 0.0
H2230 H 0.85604 0.81914 0.89922 0.0
H2231 H 0.85558 0.79378 0.91596 0.0
C2232 C 0.86163 0.09741 0.07026 0.0
C2233 C 0.86328 0.11878 0.05927 0.0
C2234 C 0.87566 0.08224 0.06545 0.0
C2235 C 0.89136 0.08846 0.04901 0.0
C2236 C 0.89342 0.11029 0.03819 0.0
C2237 C 0.87944 0.12532 0.04358 0.0
C2238 C 0.87342 0.05938 0.07765 0.0
C2239 C 0.91004 0.11747 0.02057 0.0
C2240 C 0.94065 0.06007 0.04689 0.0
C2241 C 0.9324 0.04147 0.02957 0.0
C2242 C 0.92739 0.07541 0.05354 0.0
C2243 C 0.9053 0.07187 0.04272 0.0
C2244 C 0.89672 0.0529 0.02547 0.0
C2245 C 0.91044 0.03792 0.01904 0.0
C2246 C 0.93715 0.09555 0.07192 0.0
C2247 C 0.87326 0.04875 0.0135 0.0
H2248 H 0.84921 0.09242 0.08249 0.0
H2249 H 0.88068 0.14181 0.03503 0.0
H2250 H 0.86773 0.04286 0.06567 0.0
H2251 H 0.89035 0.05952 0.08575 0.0
H2252 H 0.86098 0.05766 0.09056 0.0
H2253 H 0.90987 0.13531 0.01408 0.0
H2254 H 0.92773 0.11882 0.02744 0.0
H2255 H 0.90566 0.10309 0.00647 0.0
H2256 H 0.95781 0.06315 0.05479 0.0
H2257 H 0.90406 0.02352 0.0057 0.0
H2258 H 0.92754 0.09118 0.08685 0.0
H2259 H 0.9352 0.11336 0.06687 0.0
H2260 H 0.9556 0.09784 0.07658 0.0
H2261 H 0.85998 0.0454 0.02561 0.0
H2262 H 0.86899 0.03293 1.00072 0.0
H2263 H 0.87242 0.06545 0.00526 0.0
C2264 C 0.39701 0.41467 0.03605 0.0
C2265 C 0.37756 0.42327 0.03691 0.0
C2266 C 0.41888 0.43094 0.03448 0.0
C2267 C 0.42136 0.45641 0.03357 0.0
C2268 C 0.4017 0.46511 0.03405 0.0
C2269 C 0.3801 0.44848 0.0358 0.0
C2270 C 0.43941 0.42092 0.03421 0.0
C2271 C 0.40353 0.49207 0.03306 0.0
C2272 C 0.47913 0.50105 0.05398 0.0
C2273 C 0.4892 0.50719 0.03404 0.0
C2274 C 0.45715 0.48467 0.05399 0.0
C2275 C 0.44465 0.47415 0.03355 0.0
C2276 C 0.45447 0.48058 0.01329 0.0
C2277 C 0.47665 0.49698 0.01377 0.0
C2278 C 0.44743 0.47835 0.07599 0.0
C2279 C 0.44162 0.46991 0.99114 0.0
H2280 H 0.39518 0.39522 0.03684 0.0
H2281 H 0.36514 0.45529 0.0363 0.0
H2282 H 0.44878 0.42636 0.01933 0.0
H2283 H 0.45146 0.42887 0.04906 0.0
H2284 H 0.43452 0.40058 0.03414 0.0
H2285 H 0.38648 0.49571 0.03236 0.0
H2286 H 0.41408 0.50269 0.04793 0.0
H2287 H 0.41228 0.49906 0.01822 0.0
H2288 H 0.4886 0.50875 0.06978 0.0
H2289 H 0.48426 0.50151 0.99828 0.0
H2290 H 0.44379 0.4583 0.0775 0.0
H2291 H 0.43095 0.48302 0.07681 0.0
H2292 H 0.4593 0.48821 0.09043 0.0
H2293 H 0.43809 0.44963 0.98987 0.0
H2294 H 0.45133 0.47723 0.97689 0.0
H2295 H 0.42481 0.47402 0.98978 0.0
C2296 C 0.38366 0.60502 0.75454 0.0
C2297 C 0.39517 0.59135 0.76695 0.0
C2298 C 0.36974 0.6177 0.76472 0.0
C2299 C 0.36756 0.61684 0.78789 0.0
C2300 C 0.3793 0.60324 0.80054 0.0
C2301 C 0.39289 0.59051 0.78987 0.0
C2302 C 0.35731 0.63192 0.75069 0.0
C2303 C 0.37759 0.60224 0.82532 0.0
C2304 C 0.34806 0.669 0.81395 0.0
C2305 C 0.32442 0.65803 0.81439 0.0
C2306 C 0.36254 0.65545 0.80642 0.0
C2307 C 0.35309 0.63043 0.7988 0.0
C2308 C 0.32948 0.61892 0.80018 0.0
C2309 C 0.31544 0.63283 0.80814 0.0
C2310 C 0.38772 0.66828 0.80549 0.0
C2311 C 0.31882 0.59225 0.79216 0.0
H2312 H 0.38535 0.60562 0.73681 0.0
H2313 H 0.40185 0.58001 0.79953 0.0
H2314 H 0.33857 0.62516 0.75214 0.0
H2315 H 0.36283 0.65164 0.75679 0.0
H2316 H 0.36051 0.63034 0.73283 0.0
H2317 H 0.38789 0.59086 0.83274 0.0
H2318 H 0.38362 0.62108 0.8337 0.0
H2319 H 0.35945 0.59457 0.82883 0.0
H2320 H 0.35516 0.68853 0.81839 0.0
H2321 H 0.29727 0.62415 0.80877 0.0
H2322 H 0.39163 0.67012 0.78788 0.0
H2323 H 0.3984 0.65731 0.81287 0.0
H2324 H 0.39279 0.68692 0.81439 0.0
H2325 H 0.31965 0.58981 0.77389 0.0
H2326 H 0.30059 0.58561 0.79588 0.0
H2327 H 0.32851 0.58055 0.79995 0.0
C2328 C 0.22869 0.63294 0.56919 0.0
C2329 C 0.24446 0.62515 0.5568 0.0
C2330 C 0.20512 0.62162 0.56519 0.0
C2331 C 0.19719 0.60227 0.54822 0.0
C2332 C 0.21302 0.59432 0.53562 0.0
C2333 C 0.23656 0.6058 0.54017 0.0
C2334 C 0.18873 0.63035 0.57916 0.0
C2335 C 0.20507 0.57386 0.51727 0.0
C2336 C 0.13788 0.55979 0.55248 0.0
C2337 C 0.12437 0.56993 0.53835 0.0
C2338 C 0.16172 0.56983 0.55547 0.0
C2339 C 0.17226 0.5903 0.54387 0.0
C2340 C 0.15882 0.60015 0.52905 0.0
C2341 C 0.13496 0.58992 0.52657 0.0
C2342 C 0.17551 0.55902 0.5716 0.0
C2343 C 0.16959 0.62182 0.51623 0.0
H2344 H 0.23479 0.64786 0.58212 0.0
H2345 H 0.24875 0.59983 0.53052 0.0
H2346 H 0.17667 0.63702 0.56835 0.0
H2347 H 0.17831 0.61486 0.5877 0.0
H2348 H 0.19775 0.6454 0.59192 0.0
H2349 H 0.21959 0.57002 0.50891 0.0
H2350 H 0.1952 0.55679 0.52411 0.0
H2351 H 0.19339 0.57874 0.50462 0.0
H2352 H 0.12979 0.54437 0.56169 0.0
H2353 H 0.12461 0.5977 0.51551 0.0
H2354 H 0.18364 0.57291 0.58557 0.0
H2355 H 0.18951 0.55404 0.56325 0.0
H2356 H 0.1648 0.54242 0.57854 0.0
H2357 H 0.17737 0.63824 0.52796 0.0
H2358 H 0.15694 0.62621 0.50427 0.0
H2359 H 0.18357 0.61808 0.50692 0.0
C2360 C 0.7147 0.98515 0.77109 0.0
C2361 C 0.71569 1.00898 0.77934 0.0
C2362 C 0.73299 0.9753 0.77581 0.0
C2363 C 0.75284 0.98987 0.78876 0.0
C2364 C 0.75414 0.01417 0.79673 0.0
C2365 C 0.73539 0.02339 0.79208 0.0
C2366 C 0.73092 0.94917 0.76724 0.0
C2367 C 0.77525 0.0303 0.8102 0.0
C2368 C 0.78613 0.95142 0.81666 0.0
C2369 C 0.80151 0.94973 0.80075 0.0
C2370 C 0.77111 0.96589 0.81372 0.0
C2371 C 0.77173 0.97907 0.79453 0.0
C2372 C 0.78858 0.9791 0.77942 0.0
C2373 C 0.80322 0.96422 0.78264 0.0
C2374 C 0.75327 0.9653 0.83012 0.0
C2375 C 0.79003 0.99338 0.75902 0.0
H2376 H 0.69946 0.97404 0.76122 0.0
H2377 H 0.73624 0.04196 0.79826 0.0
H2378 H 0.74504 0.94876 0.75661 0.0
H2379 H 0.73251 0.93802 0.78142 0.0
H2380 H 0.71432 0.94037 0.7574 0.0
H2381 H 0.77396 0.04921 0.81415 0.0
H2382 H 0.77792 0.02216 0.82604 0.0
H2383 H 0.79066 0.03143 0.80098 0.0
H2384 H 0.78468 0.94003 0.83057 0.0
H2385 H 0.81531 0.96304 0.77047 0.0
H2386 H 0.73616 0.95465 0.82223 0.0
H2387 H 0.75233 0.98412 0.8349 0.0
H2388 H 0.75687 0.95665 0.84545 0.0
H2389 H 0.77549 0.98407 0.74665 0.0
H2390 H 0.80628 0.99476 0.75111 0.0
H2391 H 0.78871 0.01218 0.76329 0.0
C2392 C 0.73997 0.90879 0.52861 0.0
C2393 C 0.76135 0.91781 0.54089 0.0
C2394 C 0.72463 0.92329 0.52668 0.0
C2395 C 0.73068 0.94735 0.53744 0.0
C2396 C 0.75201 0.95629 0.55031 0.0
C2397 C 0.76709 0.94149 0.55179 0.0
C2398 C 0.70217 0.91308 0.51266 0.0
C2399 C 0.75909 0.98169 0.56225 0.0
C2400 C 0.70325 0.99483 0.51481 0.0
C2401 C 0.68618 0.99485 0.52943 0.0
C2402 C 0.7176 0.97933 0.51709 0.0
C2403 C 0.71512 0.96352 0.53459 0.0
C2404 C 0.69803 0.96347 0.54948 0.0
C2405 C 0.68374 0.979 0.54667 0.0
C2406 C 0.73554 0.97999 0.5008 0.0
C2407 C 0.69485 0.94701 0.56843 0.0
H2408 H 0.73541 0.89056 0.52007 0.0
H2409 H 0.78354 0.94862 0.56135 0.0
H2410 H 0.68764 0.91384 0.52261 0.0
H2411 H 0.70157 0.92448 0.49847 0.0
H2412 H 0.69963 0.89377 0.50599 0.0
H2413 H 0.77573 0.98549 0.57243 0.0
H2414 H 0.76065 0.99568 0.54996 0.0
H2415 H 0.74578 0.9839 0.57328 0.0
H2416 H 0.70567 1.00723 0.50166 0.0
H2417 H 0.67045 0.97849 0.55789 0.0
H2418 H 0.73314 0.96134 0.4926 0.0
H2419 H 0.75289 0.98576 0.50976 0.0
H2420 H 0.73488 0.99279 0.48774 0.0
H2421 H 0.69079 0.92752 0.56182 0.0
H2422 H 0.6809 0.94922 0.57865 0.0
H2423 H 0.71102 0.95114 0.57935 0.0
C2424 C 0.37217 0.47156 0.72707 0.0
C2425 C 0.39614 0.47897 0.73059 0.0
C2426 C 0.35959 0.44783 0.7314 0.0
C2427 C 0.37131 0.43165 0.74013 0.0
C2428 C 0.39556 0.43878 0.74288 0.0
C2429 C 0.4077 0.46225 0.73773 0.0
C2430 C 0.33377 0.44044 0.72746 0.0
C2431 C 0.40867 0.42226 0.75262 0.0
C2432 C 0.34132 0.38473 0.77829 0.0
C2433 C 0.33805 0.36286 0.76499 0.0
C2434 C 0.35186 0.40738 0.77024 0.0
C2435 C 0.35836 0.40803 0.74811 0.0
C2436 C 0.354 0.38596 0.73429 0.0
C2437 C 0.34428 0.36353 0.74308 0.0
C2438 C 0.35685 0.43049 0.78568 0.0
C2439 C 0.3599 0.38602 0.71038 0.0
H2440 H 0.36325 0.48448 0.72144 0.0
H2441 H 0.42624 0.46802 0.7406 0.0
H2442 H 0.32745 0.42189 0.71853 0.0
H2443 H 0.32608 0.43956 0.74366 0.0
H2444 H 0.3276 0.45365 0.71768 0.0
H2445 H 0.42754 0.43027 0.75295 0.0
H2446 H 0.40414 0.41897 0.7699 0.0
H2447 H 0.40389 0.40414 0.7429 0.0
H2448 H 0.33642 0.38401 0.79525 0.0
H2449 H 0.3413 0.34647 0.73274 0.0
H2450 H 0.34878 0.44383 0.77836 0.0
H2451 H 0.37563 0.43933 0.78787 0.0
H2452 H 0.3505 0.42679 0.80232 0.0
H2453 H 0.35312 0.39952 0.70166 0.0
H2454 H 0.35288 0.36764 0.70118 0.0
H2455 H 0.37879 0.39168 0.70979 0.0
C2456 C 0.22097 0.62466 0.27684 0.0
C2457 C 0.19751 0.61828 0.28 0.0
C2458 C 0.23445 0.64913 0.28028 0.0
C2459 C 0.22411 0.66767 0.28672 0.0
C2460 C 0.20043 0.66133 0.28998 0.0
C2461 C 0.18742 0.63663 0.28672 0.0
C2462 C 0.25971 0.65519 0.27687 0.0
C2463 C 0.18878 0.68067 0.29656 0.0
C2464 C 0.26258 0.72897 0.31245 0.0
C2465 C 0.26535 0.74295 0.29395 0.0
C2466 C 0.24913 0.7044 0.31038 0.0
C2467 C 0.23799 0.69377 0.28939 0.0
C2468 C 0.24044 0.70793 0.27075 0.0
C2469 C 0.25422 0.73231 0.27323 0.0
C2470 C 0.24711 0.68972 0.33054 0.0
C2471 C 0.22859 0.69731 0.24815 0.0
H2472 H 0.22885 0.61047 0.27176 0.0
H2473 H 0.16926 0.63174 0.28913 0.0
H2474 H 0.26365 0.6675 0.2632 0.0
H2475 H 0.27 0.66515 0.29213 0.0
H2476 H 0.26526 0.63851 0.27271 0.0
H2477 H 0.17029 0.67265 0.29871 0.0
H2478 H 0.19729 0.6911 0.31237 0.0
H2479 H 0.1904 0.694 0.28366 0.0
H2480 H 0.27121 0.7371 0.32849 0.0
H2481 H 0.25615 0.74308 0.25889 0.0
H2482 H 0.2538 0.67364 0.32739 0.0
H2483 H 0.22882 0.68253 0.33379 0.0
H2484 H 0.25668 0.70078 0.34571 0.0
H2485 H 0.23476 0.68159 0.24224 0.0
H2486 H 0.23166 0.71105 0.23554 0.0
H2487 H 0.20983 0.6902 0.24933 0.0
C2488 C 0.52764 0.72285 0.48946 0.0
C2489 C 0.52208 0.72295 0.46657 0.0
C2490 C 0.53174 0.70198 0.49852 0.0
C2491 C 0.53063 0.68078 0.48434 0.0
C2492 C 0.52468 0.6807 0.46126 0.0
C2493 C 0.52034 0.70165 0.45271 0.0
C2494 C 0.53763 0.70277 0.52326 0.0
C2495 C 0.52354 0.6587 0.44544 0.0
C2496 C 0.56516 0.63745 0.50284 0.0
C2497 C 0.54811 0.61753 0.50936 0.0
C2498 C 0.55969 0.65806 0.49473 0.0
C2499 C 0.53663 0.6591 0.49339 0.0
C2500 C 0.51937 0.63918 0.50024 0.0
C2501 C 0.52527 0.61861 0.50794 0.0
C2502 C 0.57863 0.67864 0.48733 0.0
C2503 C 0.49463 0.63956 0.49943 0.0
H2504 H 0.52899 0.73918 0.50031 0.0
H2505 H 0.51616 0.70154 0.43499 0.0
H2506 H 0.52598 0.68685 0.53028 0.0
H2507 H 0.55536 0.70137 0.52644 0.0
H2508 H 0.53638 0.71995 0.53222 0.0
H2509 H 0.51809 0.66124 0.42806 0.0
H2510 H 0.54064 0.65526 0.44571 0.0
H2511 H 0.51136 0.64204 0.4508 0.0
H2512 H 0.58283 0.63682 0.50377 0.0
H2513 H 0.51195 0.60343 0.51308 0.0
H2514 H 0.57952 0.69613 0.49705 0.0
H2515 H 0.5749 0.68123 0.46956 0.0
H2516 H 0.59566 0.67507 0.48937 0.0
H2517 H 0.49324 0.65644 0.50878 0.0
H2518 H 0.48347 0.62331 0.50652 0.0
H2519 H 0.48804 0.63996 0.48196 0.0
C2520 C 0.6736 0.34891 0.6904 0.0
C2521 C 0.66726 0.33462 0.67005 0.0
C2522 C 0.69277 0.34778 0.70414 0.0
C2523 C 0.7055 0.3314 0.69772 0.0
C2524 C 0.69956 0.31747 0.67686 0.0
C2525 C 0.68069 0.31949 0.66317 0.0
C2526 C 0.69896 0.36357 0.72588 0.0
C2527 C 0.7123 0.29938 0.66953 0.0
C2528 C 0.7641 0.33656 0.72749 0.0
C2529 C 0.75827 0.31989 0.74384 0.0
C2530 C 0.74714 0.34078 0.71255 0.0
C2531 C 0.72385 0.32748 0.71354 0.0
C2532 C 0.71796 0.31031 0.72978 0.0
C2533 C 0.73517 0.30699 0.74491 0.0
C2534 C 0.75412 0.35959 0.6958 0.0
C2535 C 0.69348 0.29517 0.73102 0.0
H2536 H 0.66334 0.36073 0.69575 0.0
H2537 H 0.67576 0.30823 0.64754 0.0
H2538 H 0.69552 0.3518 0.73997 0.0
H2539 H 0.71754 0.37344 0.72758 0.0
H2540 H 0.68904 0.37726 0.72729 0.0
H2541 H 0.70687 0.29155 0.6521 0.0
H2542 H 0.73105 0.30824 0.67097 0.0
H2543 H 0.70908 0.2841 0.6806 0.0
H2544 H 0.78192 0.34661 0.7266 0.0
H2545 H 0.73058 0.29383 0.75729 0.0
H2546 H 0.74428 0.37332 0.69732 0.0
H2547 H 0.75003 0.35053 0.67867 0.0
H2548 H 0.77273 0.36936 0.698 0.0
H2549 H 0.68255 0.30739 0.73477 0.0
H2550 H 0.69188 0.28186 0.74398 0.0
H2551 H 0.68663 0.28486 0.7147 0.0
C2552 C 0.03615 0.373 0.96058 0.0
C2553 C 0.02513 0.35238 0.97149 0.0
C2554 C 0.03865 0.39703 0.96975 0.0
C2555 C 0.03017 0.40077 0.99059 0.0
C2556 C 0.01899 0.38004 1.00174 0.0
C2557 C 0.01648 0.3561 0.992 0.0
C2558 C 0.05052 0.41846 0.95714 0.0
C2559 C 1.00995 0.38316 0.02409 0.0
C2560 C 0.05922 0.46321 0.02165 0.0
C2561 C 0.04349 0.47666 0.01696 0.0
C2562 C 0.05467 0.43834 0.01396 0.0
C2563 C 0.03394 0.42644 1.00093 0.0
C2564 C 0.01772 0.43971 0.99655 0.0
C2565 C 0.0226 0.46458 0.00473 0.0
C2566 C 0.07239 0.42498 0.0193 0.0
C2567 C 0.99553 0.42788 0.98254 0.0
H2568 H 0.04278 0.37039 0.94465 0.0
H2569 H 1.00791 0.34031 1.00054 0.0
H2570 H 0.03921 0.43054 0.95444 0.0
H2571 H 0.06632 0.42966 0.96703 0.0
H2572 H 0.05529 0.41247 0.94071 0.0
H2573 H 1.00128 0.36528 0.03043 0.0
H2574 H 0.02428 0.39326 0.03639 0.0
H2575 H 0.99762 0.39431 0.02292 0.0
H2576 H 0.07533 0.47219 0.03128 0.0
H2577 H 1.01035 0.47476 1.00097 0.0
H2578 H 0.07945 0.42003 0.00375 0.0
H2579 H 0.06437 0.40761 0.02676 0.0
H2580 H 0.08683 0.43623 0.03097 0.0
H2581 H 0.99928 0.4232 0.96534 0.0
H2582 H 0.98408 0.44008 0.98178 0.0
H2583 H 0.98627 0.41048 0.98926 0.0
C2584 C 0.0417 0.81884 0.1917 0.0
C2585 C 0.04176 0.80344 0.17268 0.0
C2586 C 0.02238 0.8151 0.20403 0.0
C2587 C 1.00268 0.79529 0.19734 0.0
C2588 C 1.00273 0.7795 0.17828 0.0
C2589 C 0.02222 0.78384 0.1661 0.0
C2590 C 0.02298 0.83252 0.22411 0.0
C2591 C 0.98218 0.75802 0.17074 0.0
C2592 C 0.96095 0.7742 0.24134 0.0
C2593 C 0.94373 0.78553 0.23594 0.0
C2594 C 0.97994 0.77677 0.22865 0.0
C2595 C 0.98201 0.7913 0.21024 0.0
C2596 C 0.96464 0.80263 0.20456 0.0
C2597 C 0.94568 0.79948 0.21735 0.0
C2598 C 0.99799 0.76422 0.23517 0.0
C2599 C 0.96624 0.81839 0.18514 0.0
H2600 H 0.0567 0.83407 0.19685 0.0
H2601 H 0.02218 0.77183 0.15145 0.0
H2602 H 1.009 0.84144 0.22185 0.0
H2603 H 0.02002 0.82221 0.23917 0.0
H2604 H 0.03959 0.84705 0.22709 0.0
H2605 H 0.9851 0.74718 0.15584 0.0
H2606 H 0.97798 0.74569 0.18437 0.0
H2607 H 0.967 0.76467 0.16674 0.0
H2608 H 0.95988 0.76368 0.2558 0.0
H2609 H 0.93233 0.80794 0.21271 0.0
H2610 H 1.01458 0.7782 0.24014 0.0
H2611 H 1.0007 0.75261 0.22074 0.0
H2612 H 0.99328 0.75253 0.24918 0.0
H2613 H 0.98201 0.83406 0.18778 0.0
H2614 H 0.95121 0.82574 0.18276 0.0
H2615 H 0.96754 0.80758 0.16961 0.0
C2616 C 0.56783 0.37201 0.11728 0.0
C2617 C 0.55677 0.36732 0.13719 0.0
C2618 C 0.56933 0.39392 0.10574 0.0
C2619 C 0.55853 0.41228 0.11301 0.0
C2620 C 0.54686 0.40723 0.1329 0.0
C2621 C 0.54666 0.38576 0.14468 0.0
C2622 C 0.58303 0.39708 0.08566 0.0
C2623 C 0.53404 0.42431 0.14219 0.0
C2624 C 0.57151 0.48193 0.09688 0.0
C2625 C 0.56057 0.48052 0.07519 0.0
C2626 C 0.57147 0.46059 0.10884 0.0
C2627 C 0.55922 0.43604 0.09997 0.0
C2628 C 0.54753 0.43471 0.07828 0.0
C2629 C 0.54882 0.45627 0.06633 0.0
C2630 C 0.58502 0.46502 0.13121 0.0
C2631 C 0.533 0.41043 0.06722 0.0
H2632 H 0.576 0.35865 0.11079 0.0
H2633 H 0.53788 0.38316 0.15978 0.0
H2634 H 0.57227 0.38602 0.0711 0.0
H2635 H 0.589 0.41651 0.08168 0.0
H2636 H 0.59824 0.39005 0.08827 0.0
H2637 H 0.51839 0.4138 0.14956 0.0
H2638 H 0.54512 0.43686 0.15577 0.0
H2639 H 0.5289 0.43545 0.12943 0.0
H2640 H 0.58073 0.49997 0.10459 0.0
H2641 H 0.53987 0.45399 0.04991 0.0
H2642 H 0.58942 0.44842 0.13653 0.0
H2643 H 0.57485 0.47115 0.14383 0.0
H2644 H 0.60116 0.48002 0.13089 0.0
H2645 H 0.54308 0.40334 0.05512 0.0
H2646 H 0.51763 0.4128 0.0577 0.0
H2647 H 0.52719 0.3965 0.07929 0.0
C2648 C 0.9847 0.28292 0.34252 0.0
C2649 C 0.99065 0.28467 0.36582 0.0
C2650 C 0.96236 0.28338 0.33291 0.0
C2651 C 0.94442 0.28601 0.34639 0.0
C2652 C 0.95042 0.28789 0.36989 0.0
C2653 C 0.97274 0.28708 0.37903 0.0
C2654 C 0.95793 0.28096 0.30795 0.0
C2655 C 0.93309 0.29102 0.38572 0.0
C2656 C 0.89286 0.31028 0.32175 0.0
C2657 C 0.87359 0.28919 0.31765 0.0
C2658 C 0.91524 0.30952 0.33082 0.0
C2659 C 0.91989 0.28702 0.33618 0.0
C2660 C 0.90057 0.26561 0.33191 0.0
C2661 C 0.87826 0.26693 0.32309 0.0
C2662 C 0.93412 0.33326 0.33484 0.0
C2663 C 0.90347 0.24086 0.33663 0.0
H2664 H 0.99762 0.28105 0.33153 0.0
H2665 H 0.97623 0.28861 0.39695 0.0
H2666 H 0.94271 0.26517 0.30275 0.0
H2667 H 0.954 0.29768 0.3023 0.0
H2668 H 0.97281 0.27826 0.29944 0.0
H2669 H 0.93989 0.29259 0.40341 0.0
H2670 H 0.92776 0.30774 0.38242 0.0
H2671 H 0.9175 0.27514 0.38299 0.0
H2672 H 0.89045 0.32785 0.31798 0.0
H2673 H 0.86432 0.25015 0.32028 0.0
H2674 H 0.94868 0.3323 0.325 0.0
H2675 H 0.94068 0.33614 0.35265 0.0
H2676 H 0.92831 0.34936 0.33031 0.0
H2677 H 0.91755 0.23728 0.32737 0.0
H2678 H 0.88757 0.22572 0.33191 0.0
H2679 H 0.9084 0.24073 0.35461 0.0
C2680 C 0.06533 0.716 0.64128 0.0
C2681 C 0.04777 0.72744 0.63673 0.0
C2682 C 0.06641 0.69377 0.6292 0.0
C2683 C 0.04891 0.68096 0.61233 0.0
C2684 C 0.0308 0.69213 0.60805 0.0
C2685 C 0.03076 0.71506 0.61965 0.0
C2686 C 0.08679 0.68423 0.63436 0.0
C2687 C 1.01103 0.67963 0.59124 0.0
C2688 C 0.05886 0.63358 0.56584 0.0
C2689 C 0.05165 0.61035 0.5746 0.0
C2690 C 0.05857 0.65614 0.57785 0.0
C2691 C 0.04974 0.65641 0.59923 0.0
C2692 C 0.04193 0.63289 0.60794 0.0
C2693 C 0.04348 0.61072 0.59602 0.0
C2694 C 0.0682 0.67998 0.56758 0.0
C2695 C 0.03145 0.63095 0.62993 0.0
H2696 H 0.07885 0.72489 0.6541 0.0
H2697 H 0.0169 0.72303 0.61564 0.0
H2698 H 0.08129 0.66689 0.64259 0.0
H2699 H 0.09418 0.68008 0.61874 0.0
H2700 H 0.10041 0.69755 0.64549 0.0
H2701 H 0.99661 0.68803 0.59214 0.0
H2702 H 0.01686 0.681 0.57423 0.0
H2703 H 1.00462 0.65981 0.59388 0.0
H2704 H 0.06538 0.63427 0.54954 0.0
H2705 H 0.0376 0.59337 0.60337 0.0
H2706 H 0.08035 0.69345 0.57987 0.0
H2707 H 0.05412 0.68798 0.56267 0.0
H2708 H 0.07725 0.67745 0.5526 0.0
H2709 H 0.04497 0.63886 0.64363 0.0
H2710 H 0.02292 0.61159 0.63299 0.0
H2711 H 0.01866 0.64159 0.63056 0.0
C2712 C 0.64751 0.79251 0.87621 0.0
C2713 C 0.62657 0.79208 0.86399 0.0
C2714 C 0.66863 0.79283 0.86608 0.0
C2715 C 0.67044 0.79338 0.8425 0.0
C2716 C 0.64943 0.79327 0.83007 0.0
C2717 C 0.62835 0.79234 0.84059 0.0
C2718 C 0.68928 0.7923 0.88096 0.0
C2719 C 0.64918 0.79437 0.80522 0.0
C2720 C 0.73275 0.81621 0.81896 0.0
C2721 C 0.73782 0.79462 0.81019 0.0
C2722 C 0.71149 0.81613 0.8288 0.0
C2723 C 0.69376 0.79388 0.83112 0.0
C2724 C 0.69891 0.77203 0.82252 0.0
C2725 C 0.72004 0.77268 0.81227 0.0
C2726 C 0.70799 0.84038 0.83674 0.0
C2727 C 0.682 0.74743 0.82445 0.0
H2728 H 0.6474 0.79224 0.89412 0.0
H2729 H 0.61309 0.7921 0.83023 0.0
H2730 H 0.6957 0.77669 0.87518 0.0
H2731 H 0.7033 0.80939 0.88 0.0
H2732 H 0.68543 0.79053 0.89861 0.0
H2733 H 0.63252 0.7958 0.79768 0.0
H2734 H 0.66304 0.8104 0.80112 0.0
H2735 H 0.6526 0.77766 0.79751 0.0
H2736 H 0.74551 0.83362 0.818 0.0
H2737 H 0.72279 0.75549 0.80615 0.0
H2738 H 0.70724 0.84138 0.85505 0.0
H2739 H 0.69137 0.84194 0.82925 0.0
H2740 H 0.72196 0.85624 0.83248 0.0
H2741 H 0.67843 0.74521 0.84211 0.0
H2742 H 0.68831 0.73193 0.81812 0.0
H2743 H 0.66552 0.7464 0.81495 0.0
C2744 C 0.45187 0.57196 0.65808 0.0
C2745 C 0.46475 0.57509 0.67866 0.0
C2746 C 0.46266 0.57359 0.63816 0.0
C2747 C 0.48673 0.57771 0.639 0.0
C2748 C 0.49988 0.58237 0.65979 0.0
C2749 C 0.48872 0.58131 0.6794 0.0
C2750 C 0.44819 0.56942 0.61627 0.0
C2751 C 0.52557 0.58651 0.6614 0.0
C2752 C 0.51224 0.54702 0.5941 0.0
C2753 C 0.52427 0.56722 0.58342 0.0
C2754 C 0.49933 0.55015 0.61183 0.0
C2755 C 0.49795 0.57399 0.61855 0.0
C2756 C 0.50903 0.59427 0.60696 0.0
C2757 C 0.52242 0.5907 0.5897 0.0
C2758 C 0.48803 0.52809 0.62401 0.0
C2759 C 0.50717 0.61975 0.61315 0.0
H2760 H 0.43332 0.5674 0.65751 0.0
H2761 H 0.49871 0.58378 0.69531 0.0
H2762 H 0.4566 0.58233 0.60426 0.0
H2763 H 0.44613 0.5505 0.60888 0.0
H2764 H 0.43084 0.57163 0.61838 0.0
H2765 H 0.53343 0.5917 0.67874 0.0
H2766 H 0.52949 0.56943 0.65523 0.0
H2767 H 0.53378 0.60116 0.65078 0.0
H2768 H 0.51367 0.52886 0.58917 0.0
H2769 H 0.53142 0.60625 0.58109 0.0
H2770 H 0.4694 0.52611 0.62426 0.0
H2771 H 0.49543 0.53073 0.64155 0.0
H2772 H 0.49029 0.51076 0.61629 0.0
H2773 H 0.48895 0.61932 0.61435 0.0
H2774 H 0.51456 0.63292 0.60088 0.0
H2775 H 0.51637 0.62666 0.62972 0.0
C2776 C 0.80581 0.19072 0.99333 0.0
C2777 C 0.81674 0.20174 0.01399 0.0
C2778 C 0.80299 0.20497 0.97583 0.0
C2779 C 0.81118 0.23088 0.97915 0.0
C2780 C 0.82276 0.24212 0.9998 0.0
C2781 C 0.82549 0.22737 0.01701 0.0
C2782 C 0.79075 0.19228 0.95397 0.0
C2783 C 0.83165 0.26971 0.00388 0.0
C2784 C 0.81669 0.2637 0.92623 0.0
C2785 C 0.7955 0.26898 0.92373 0.0
C2786 C 0.82249 0.2522 0.9447 0.0
C2787 C 0.80678 0.24601 0.96113 0.0
C2788 C 0.78587 0.25242 0.95929 0.0
C2789 C 0.78045 0.26379 0.94055 0.0
C2790 C 0.84494 0.24566 0.94608 0.0
C2791 C 0.76875 0.2462 0.97657 0.0
H2792 H 0.79911 0.1709 0.99091 0.0
H2793 H 0.8339 0.23593 0.03301 0.0
H2794 H 0.7747 0.1976 0.95065 0.0
H2795 H 0.80162 0.19817 0.94012 0.0
H2796 H 0.78633 0.17195 0.95381 0.0
H2797 H 0.84135 0.27551 0.02043 0.0
H2798 H 0.84299 0.27733 0.99083 0.0
H2799 H 0.81708 0.27789 1.0029 0.0
H2800 H 0.8286 0.26816 0.91348 0.0
H2801 H 0.76402 0.26771 0.93865 0.0
H2802 H 0.84151 0.22541 0.94375 0.0
H2803 H 0.85425 0.25175 0.96273 0.0
H2804 H 0.85625 0.25403 0.93322 0.0
H2805 H 0.76156 0.22596 0.97615 0.0
H2806 H 0.75435 0.25446 0.97377 0.0
H2807 H 0.77728 0.2527 0.99348 0.0
C2808 C 0.13738 0.54928 0.18949 0.0
C2809 C 0.13478 0.52969 0.203 0.0
C2810 C 0.12602 0.54593 0.16821 0.0
C2811 C 0.11195 0.52232 0.16016 0.0
C2812 C 0.10996 0.50221 0.17335 0.0
C2813 C 0.12133 0.50618 0.19477 0.0
C2814 C 0.12858 0.56787 0.1546 0.0
C2815 C 0.09542 0.47673 0.16506 0.0
C2816 C 0.06776 0.52695 0.11526 0.0
C2817 C 0.07981 0.52611 0.09642 0.0
C2818 C 0.07728 0.5238 0.13623 0.0
C2819 C 0.09906 0.51926 0.13808 0.0
C2820 C 0.11011 0.51593 0.11873 0.0
C2821 C 0.10045 0.51969 0.09809 0.0
C2822 C 0.06506 0.5276 0.15655 0.0
C2823 C 0.13305 0.51044 0.11995 0.0
H2824 H 0.14778 0.56748 0.19581 0.0
H2825 H 0.11934 0.49098 0.20521 0.0
H2826 H 0.13542 0.56437 0.13852 0.0
H2827 H 0.11156 0.57095 0.15077 0.0
H2828 H 0.14024 0.58495 0.16334 0.0
H2829 H 0.09743 0.46272 0.17648 0.0
H2830 H 0.07709 0.47642 0.16338 0.0
H2831 H 0.09999 0.47153 0.14833 0.0
H2832 H 0.05176 0.53188 0.11386 0.0
H2833 H 0.10953 0.51861 0.08335 0.0
H2834 H 0.07425 0.54555 0.16563 0.0
H2835 H 0.06507 0.51314 0.16808 0.0
H2836 H 0.04704 0.52754 0.15214 0.0
H2837 H 0.14671 0.52737 0.12612 0.0
H2838 H 0.13717 0.50395 0.10342 0.0
H2839 H 0.13338 0.49632 0.13178 0.0
C2840 C 0.80637 0.8235 0.46594 0.0
C2841 C 0.8067 0.84778 0.4725 0.0
C2842 C 0.80671 0.81557 0.4432 0.0
C2843 C 0.80757 0.83226 0.42639 0.0
C2844 C 0.80795 0.85677 0.43302 0.0
C2845 C 0.80744 0.86411 0.45572 0.0
C2846 C 0.8061 0.78925 0.43713 0.0
C2847 C 0.80897 0.87542 0.41606 0.0
C2848 C 0.82878 0.8207 0.36882 0.0
C2849 C 0.80825 0.81265 0.3549 0.0
C2850 C 0.82881 0.82659 0.392 0.0
C2851 C 0.80781 0.82432 0.4019 0.0
C2852 C 0.78704 0.81576 0.38799 0.0
C2853 C 0.78751 0.81016 0.36489 0.0
C2854 C 0.85144 0.83579 0.40586 0.0
C2855 C 0.76417 0.81284 0.39748 0.0
H2856 H 0.80585 0.81065 0.47857 0.0
H2857 H 0.8078 0.88294 0.46036 0.0
H2858 H 0.79093 0.78034 0.42533 0.0
H2859 H 0.82155 0.78863 0.42857 0.0
H2860 H 0.80536 0.77845 0.45193 0.0
H2861 H 0.80948 0.89383 0.4238 0.0
H2862 H 0.82441 0.87721 0.40675 0.0
H2863 H 0.79378 0.86916 0.40378 0.0
H2864 H 0.84497 0.82278 0.36155 0.0
H2865 H 0.77144 0.8039 0.35459 0.0
H2866 H 0.8517 0.82433 0.42006 0.0
H2867 H 0.85364 0.85486 0.41292 0.0
H2868 H 0.86624 0.83559 0.39605 0.0
H2869 H 0.76261 0.80088 0.41149 0.0
H2870 H 0.74951 0.80481 0.38483 0.0
H2871 H 0.76294 0.83099 0.40422 0.0
C2872 C 0.49245 0.56888 0.80292 0.0
C2873 C 0.48389 0.54926 0.78665 0.0
C2874 C 0.50426 0.56575 0.82274 0.0
C2875 C 0.50741 0.54244 0.82629 0.0
C2876 C 0.50004 0.52303 0.80931 0.0
C2877 C 0.4884 0.52671 0.78965 0.0
C2878 C 0.51208 0.58692 0.84043 0.0
C2879 C 0.50306 0.49791 0.81247 0.0
C2880 C 0.54702 0.53494 0.87486 0.0
C2881 C 0.53137 0.5269 0.89075 0.0
C2882 C 0.53956 0.54036 0.8538 0.0
C2883 C 0.51592 0.53747 0.84858 0.0
C2884 C 0.50006 0.52923 0.86454 0.0
C2885 C 0.508 0.52407 0.88544 0.0
C2886 C 0.55691 0.54922 0.83718 0.0
C2887 C 0.47466 0.5257 0.85951 0.0
H2888 H 0.48907 0.58637 0.80061 0.0
H2889 H 0.48191 0.5115 0.77705 0.0
H2890 H 0.50116 0.58315 0.85456 0.0
H2891 H 0.53001 0.58902 0.84701 0.0
H2892 H 0.511 0.60454 0.83404 0.0
H2893 H 0.49865 0.48566 0.79683 0.0
H2894 H 0.521 0.49942 0.81862 0.0
H2895 H 0.49183 0.48916 0.82521 0.0
H2896 H 0.56514 0.53738 0.87904 0.0
H2897 H 0.49584 0.51756 0.89762 0.0
H2898 H 0.55615 0.56746 0.83217 0.0
H2899 H 0.55279 0.53642 0.82191 0.0
H2900 H 0.5747 0.55072 0.84393 0.0
H2901 H 0.47157 0.54321 0.85497 0.0
H2902 H 0.46466 0.51935 0.87386 0.0
H2903 H 0.46806 0.512 0.84505 0.0
C2904 C 0.8163 0.21363 0.13458 0.0
C2905 C 0.8253 0.1937 0.13079 0.0
C2906 C 0.81585 0.2237 0.15621 0.0
C2907 C 0.82486 0.21376 0.17446 0.0
C2908 C 0.83452 0.19404 0.1707 0.0
C2909 C 0.83451 0.18412 0.14886 0.0
C2910 C 0.80531 0.24469 0.15956 0.0
C2911 C 0.84445 0.18315 0.18973 0.0
C2912 C 0.83854 0.25755 0.22625 0.0
C2913 C 0.81847 0.24955 0.23719 0.0
C2914 C 0.84154 0.24503 0.20649 0.0
C2915 C 0.82396 0.22418 0.19738 0.0
C2916 C 0.80432 0.21508 0.20908 0.0
C2917 C 0.80185 0.22784 0.22896 0.0
C2918 C 0.86296 0.25495 0.19474 0.0
C2919 C 0.78523 0.19283 0.1999 0.0
H2920 H 0.80908 0.22102 0.12065 0.0
H2921 H 0.84146 0.16867 0.14596 0.0
H2922 H 0.79072 0.23935 0.17009 0.0
H2923 H 0.81811 0.26088 0.1684 0.0
H2924 H 0.799 0.25023 0.14358 0.0
H2925 H 0.85285 0.16912 0.18392 0.0
H2926 H 0.8572 0.19781 0.20047 0.0
H2927 H 0.83058 0.17441 0.20016 0.0
H2928 H 0.85167 0.27407 0.23275 0.0
H2929 H 0.78642 0.22139 0.23747 0.0
H2930 H 0.85855 0.26307 0.17941 0.0
H2931 H 0.87043 0.23993 0.18962 0.0
H2932 H 0.87619 0.26932 0.20535 0.0
H2933 H 0.77621 0.19742 0.18493 0.0
H2934 H 0.77251 0.18645 0.21221 0.0
H2935 H 0.79223 0.17749 0.19468 0.0
C2936 C 0.10145 0.52689 0.32643 0.0
C2937 C 0.10005 0.53218 0.30416 0.0
C2938 C 0.08366 0.5274 0.33984 0.0
C2939 C 0.06387 0.53296 0.33058 0.0
C2940 C 0.06149 0.53611 0.3076 0.0
C2941 C 0.07979 0.53597 0.29465 0.0
C2942 C 0.08691 0.5239 0.36432 0.0
C2943 C 0.04035 0.54122 0.29696 0.0
C2944 C 0.02143 0.52571 0.374 0.0
C2945 C 0.02898 0.54916 0.38536 0.0
C2946 C 0.03066 0.52061 0.35415 0.0
C2947 C 0.04793 0.53933 0.34587 0.0
C2948 C 0.05333 0.56369 0.3557 0.0
C2949 C 0.0437 0.56832 0.37531 0.0
C2950 C 0.02368 0.49467 0.34346 0.0
C2951 C 0.07152 0.5843 0.34728 0.0
H2952 H 0.11701 0.5237 0.33374 0.0
H2953 H 0.07852 0.53967 0.27729 0.0
H2954 H 0.08832 0.5414 0.37428 0.0
H2955 H 0.07189 0.50988 0.36943 0.0
H2956 H 0.10258 0.51809 0.3685 0.0
H2957 H 0.03822 0.53611 0.27874 0.0
H2958 H 0.02467 0.53111 0.30448 0.0
H2959 H 0.04195 0.56114 0.29955 0.0
H2960 H 1.00962 0.51096 0.38144 0.0
H2961 H 0.0497 0.5865 0.38394 0.0
H2962 H 0.03626 0.48502 0.34928 0.0
H2963 H 0.02349 0.4945 0.32506 0.0
H2964 H 1.00648 0.48425 0.34796 0.0
H2965 H 0.08866 0.58155 0.35126 0.0
H2966 H 0.07157 0.60258 0.35496 0.0
H2967 H 0.06894 0.58434 0.32896 0.0
C2968 C 0.82464 0.85267 0.61924 0.0
C2969 C 0.80504 0.84822 0.60417 0.0
C2970 C 0.82318 0.84627 0.64155 0.0
C2971 C 0.80152 0.83533 0.64953 0.0
C2972 C 0.78165 0.83082 0.63439 0.0
C2973 C 0.78364 0.83714 0.61204 0.0
C2974 C 0.84496 0.85121 0.65664 0.0
C2975 C 0.75815 0.81945 0.64187 0.0
C2976 C 0.79969 0.79766 0.70085 0.0
C2977 C 0.7982 0.81427 0.71864 0.0
C2978 C 0.80061 0.80419 0.6786 0.0
C2979 C 0.79982 0.82799 0.67341 0.0
C2980 C 0.79796 0.84479 0.6912 0.0
C2981 C 0.79732 0.83784 0.71345 0.0
C2982 C 0.80287 0.78558 0.6606 0.0
C2983 C 0.79682 0.87027 0.68674 0.0
H2984 H 0.8413 0.86126 0.61359 0.0
H2985 H 0.7683 0.83376 0.6008 0.0
H2986 H 0.8443 0.86365 0.6713 0.0
H2987 H 0.84664 0.83379 0.66295 0.0
H2988 H 0.86048 0.85967 0.64805 0.0
H2989 H 0.74431 0.81756 0.62841 0.0
H2990 H 0.75714 0.80101 0.64754 0.0
H2991 H 0.75502 0.83086 0.65624 0.0
H2992 H 0.80055 0.77944 0.70433 0.0
H2993 H 0.79624 0.85099 0.7268 0.0
H2994 H 0.81899 0.79285 0.65253 0.0
H2995 H 0.78848 0.78224 0.64752 0.0
H2996 H 0.80302 0.76776 0.66715 0.0
H2997 H 0.81283 0.88045 0.67979 0.0
H2998 H 0.79449 0.88091 0.70203 0.0
H2999 H 0.78242 0.86917 0.67414 0.0
C3000 C 0.74429 0.48722 0.51613 0.0
C3001 C 0.74977 0.46963 0.52901 0.0
C3002 C 0.73169 0.50251 0.52458 0.0
C3003 C 0.72506 0.50053 0.5466 0.0
C3004 C 0.73046 0.4827 0.55961 0.0
C3005 C 0.74253 0.46723 0.55053 0.0
C3006 C 0.72558 0.52086 0.51001 0.0
C3007 C 0.72398 0.48034 0.58327 0.0
C3008 C 0.71312 0.55692 0.57427 0.0
C3009 C 0.68915 0.55002 0.57234 0.0
C3010 C 0.72509 0.54064 0.56652 0.0
C3011 C 0.71267 0.51732 0.5561 0.0
C3012 C 0.68841 0.51025 0.55432 0.0
C3013 C 0.67694 0.52665 0.56264 0.0
C3014 C 0.75098 0.54852 0.56913 0.0
C3015 C 0.67455 0.48576 0.54295 0.0
H3016 H 0.74981 0.48897 0.49944 0.0
H3017 H 0.74693 0.45374 0.56057 0.0
H3018 H 0.70676 0.51812 0.50877 0.0
H3019 H 0.73376 0.5398 0.51757 0.0
H3020 H 0.73116 0.51931 0.49295 0.0
H3021 H 0.72945 0.46547 0.59113 0.0
H3022 H 0.732 0.49793 0.59342 0.0
H3023 H 0.70514 0.47654 0.58372 0.0
H3024 H 0.72244 0.57508 0.58169 0.0
H3025 H 0.65834 0.52159 0.56076 0.0
H3026 H 0.75779 0.54979 0.5525 0.0
H3027 H 0.75738 0.53461 0.57761 0.0
H3028 H 0.75797 0.5666 0.57883 0.0
H3029 H 0.67868 0.48438 0.52537 0.0
H3030 H 0.65578 0.48306 0.54321 0.0
H3031 H 0.67904 0.47056 0.55115 0.0
C3032 C 0.23546 0.14206 0.5377 0.0
C3033 C 0.2369 0.16348 0.52674 0.0
C3034 C 0.21423 0.12475 0.53946 0.0
C3035 C 0.19388 0.12871 0.52977 0.0
C3036 C 0.1953 0.14989 0.51802 0.0
C3037 C 0.21677 0.16711 0.51679 0.0
C3038 C 0.21352 0.10265 0.55238 0.0
C3039 C 0.17407 0.15466 0.5072 0.0
C3040 C 0.13905 0.07525 0.52131 0.0
C3041 C 0.12684 0.0805 0.539 0.0
C3042 C 0.16094 0.09066 0.51811 0.0
C3043 C 0.17101 0.11156 0.53318 0.0
C3044 C 0.15906 0.11637 0.55152 0.0
C3045 C 0.13711 0.10095 0.55408 0.0
C3046 C 0.17297 0.08503 0.49821 0.0
C3047 C 0.16928 0.13812 0.56826 0.0
H3048 H 0.25092 0.13912 0.5455 0.0
H3049 H 0.21775 0.18355 0.50823 0.0
H3050 H 0.20389 0.10349 0.56727 0.0
H3051 H 0.20434 0.08551 0.54208 0.0
H3052 H 0.23094 0.10157 0.55794 0.0
H3053 H 0.17821 0.17091 0.49725 0.0
H3054 H 0.16412 0.13838 0.49617 0.0
H3055 H 0.16285 0.15782 0.52016 0.0
H3056 H 0.13112 0.05967 0.50942 0.0
H3057 H 0.12782 0.1051 0.56784 0.0
H3058 H 0.19028 0.0836 0.50363 0.0
H3059 H 0.17535 0.10028 0.48715 0.0
H3060 H 0.16323 0.06767 0.48846 0.0
H3061 H 0.18642 0.13759 0.57528 0.0
H3062 H 0.15828 0.13863 0.58217 0.0
H3063 H 0.17172 0.15543 0.55993 0.0
C3064 C 0.22586 0.97898 0.79996 0.0
C3065 C 0.20367 0.97783 0.79129 0.0
C3066 C 0.23862 0.96511 0.78955 0.0
C3067 C 0.22899 0.94994 0.76989 0.0
C3068 C 0.20645 0.94839 0.76125 0.0
C3069 C 0.19397 0.9623 0.77215 0.0
C3070 C 0.26249 0.96685 0.79949 0.0
C3071 C 0.19573 0.93244 0.74029 0.0
C3072 C 0.27355 0.93368 0.73565 0.0
C3073 C 0.27321 0.91067 0.74288 0.0
C3074 C 0.25816 0.94614 0.74326 0.0
C3075 C 0.24256 0.93543 0.75876 0.0
C3076 C 0.24162 0.91177 0.76539 0.0
C3077 C 0.25699 0.8997 0.75737 0.0
C3078 C 0.25943 0.97128 0.73569 0.0
C3079 C 0.22547 0.89988 0.7821 0.0
H3080 H 0.23338 0.99096 0.81476 0.0
H3081 H 0.17686 0.96153 0.76532 0.0
H3082 H 0.26375 0.94835 0.80318 0.0
H3083 H 0.2752 0.97387 0.78736 0.0
H3084 H 0.26726 0.97917 0.81507 0.0
H3085 H 0.17788 0.93298 0.73594 0.0
H3086 H 0.20613 0.93862 0.72618 0.0
H3087 H 0.19559 0.91311 0.74224 0.0
H3088 H 0.28632 0.94221 0.72467 0.0
H3089 H 0.25722 0.88221 0.76348 0.0
H3090 H 0.2665 0.98538 0.74977 0.0
H3091 H 0.24203 0.97254 0.73038 0.0
H3092 H 0.27049 0.97571 0.72171 0.0
H3093 H 0.22998 0.91093 0.79837 0.0
H3094 H 0.22611 0.88086 0.78461 0.0
H3095 H 0.20759 0.89934 0.77659 0.0
C3096 C 0.38373 0.94498 0.01663 0.0
C3097 C 0.36695 0.95756 0.01752 0.0
C3098 C 0.40708 0.95772 0.01887 0.0
C3099 C 0.41377 0.98368 0.02202 0.0
C3100 C 0.39692 0.99655 0.02258 0.0
C3101 C 0.37363 0.98329 0.02034 0.0
C3102 C 0.4246 0.94339 0.01812 0.0
C3103 C 0.4035 0.02425 0.02576 0.0
C3104 C 0.47423 0.01256 0.04827 0.0
C3105 C 0.48629 0.01856 0.02944 0.0
C3106 C 0.45041 1.00186 0.04616 0.0
C3107 C 0.43849 0.9972 0.02474 0.0
C3108 C 0.45046 1.00399 0.00576 0.0
C3109 C 0.47424 0.01455 0.00834 0.0
C3110 C 0.43814 0.9948 0.06676 0.0
C3111 C 0.43828 0.99941 0.98266 0.0
H3112 H 0.37863 0.92508 0.01445 0.0
H3113 H 0.36067 0.99306 0.02104 0.0
H3114 H 0.43588 0.94922 0.00456 0.0
H3115 H 0.4357 0.94725 0.03396 0.0
H3116 H 0.41652 0.92325 0.0154 0.0
H3117 H 0.38829 0.03147 0.02532 0.0
H3118 H 0.41369 0.03063 0.04196 0.0
H3119 H 0.41447 0.03227 0.01258 0.0
H3120 H 0.48343 0.01569 0.06462 0.0
H3121 H 0.48342 0.01936 0.99371 0.0
H3122 H 0.43106 0.97454 0.06606 0.0
H3123 H 0.42348 1.00278 0.06756 0.0
H3124 H 0.44965 1.00105 0.08228 0.0
H3125 H 0.43131 0.97935 0.97831 0.0
H3126 H 0.44983 1.00736 0.96984 0.0
H3127 H 0.42355 1.00736 0.98208 0.0
C3128 C 0.92126 0.62327 0.76701 0.0
C3129 C 0.9158 0.616 0.78824 0.0
C3130 C 0.90724 0.63421 0.75435 0.0
C3131 C 0.88728 0.63767 0.76312 0.0
C3132 C 0.88183 0.63057 0.78465 0.0
C3133 C 0.89626 0.61993 0.79701 0.0
C3134 C 0.91364 0.64183 0.73157 0.0
C3135 C 0.86067 0.63408 0.7946 0.0
C3136 C 0.85806 0.68485 0.74611 0.0
C3137 C 0.83786 0.66999 0.73441 0.0
C3138 C 0.87529 0.67483 0.75404 0.0
C3139 C 0.87215 0.64929 0.75027 0.0
C3140 C 0.85268 0.63449 0.73694 0.0
C3141 C 0.83567 0.64506 0.72917 0.0
C3142 C 0.89587 0.6912 0.76813 0.0
C3143 C 0.84881 0.60716 0.73259 0.0
H3144 H 0.93638 0.62021 0.76019 0.0
H3145 H 0.89195 0.6142 0.81336 0.0
H3146 H 0.89974 0.63193 0.71878 0.0
H3147 H 0.91557 0.66175 0.73078 0.0
H3148 H 0.92988 0.63804 0.72726 0.0
H3149 H 0.85875 0.6272 0.8114 0.0
H3150 H 0.86144 0.65386 0.79593 0.0
H3151 H 0.84513 0.62429 0.78359 0.0
H3152 H 0.85954 0.70396 0.75081 0.0
H3153 H 0.82002 0.63356 0.7202 0.0
H3154 H 0.91189 0.68993 0.761 0.0
H3155 H 0.89628 0.68504 0.78519 0.0
H3156 H 0.89573 0.71074 0.7694 0.0
H3157 H 0.86472 0.60303 0.7278 0.0
H3158 H 0.83485 0.59902 0.71926 0.0
H3159 H 0.84405 0.59809 0.74805 0.0
C3160 C 0.87346 0.69165 0.05336 0.0
C3161 C 0.85396 0.68186 0.03847 0.0
C3162 C 0.89038 0.67918 0.05622 0.0
C3163 C 0.88789 0.65655 0.04366 0.0
C3164 C 0.86839 0.64683 0.02835 0.0
C3165 C 0.85163 0.65949 0.02606 0.0
C3166 C 0.91076 0.69004 0.0729 0.0
C3167 C 0.86515 0.62296 0.01441 0.0
C3168 C 0.93981 0.63262 0.03552 0.0
C3169 C 0.93682 0.61402 0.05031 0.0
C3170 C 0.9243 0.64687 0.03347 0.0
C3171 C 0.90539 0.64272 0.04669 0.0
C3172 C 0.90259 0.62445 0.06206 0.0
C3173 C 0.91819 0.61027 0.06358 0.0
C3174 C 0.92788 0.66605 0.01678 0.0
C3175 C 0.88276 0.61948 0.07657 0.0
H3176 H 0.87533 0.70888 0.06305 0.0
H3177 H 0.83667 0.65184 0.01444 0.0
H3178 H 0.9112 0.67707 0.08583 0.0
H3179 H 0.9269 0.69286 0.06456 0.0
H3180 H 0.91032 0.70788 0.08119 0.0
H3181 H 0.84938 0.61824 1.0028 0.0
H3182 H 0.88014 0.62411 0.00457 0.0
H3183 H 0.86407 0.60777 0.02537 0.0
H3184 H 0.95431 0.63607 0.02546 0.0
H3185 H 0.9154 0.59578 0.07483 0.0
H3186 H 0.92881 0.68426 0.02516 0.0
H3187 H 0.91306 0.66139 0.00404 0.0
H3188 H 0.94379 0.66756 0.00823 0.0
H3189 H 0.88226 0.63677 0.08584 0.0
H3190 H 0.88383 0.60583 0.08871 0.0
H3191 H 0.86636 0.61245 0.06602 0.0
C3192 C 0.20612 0.11989 0.82059 0.0
C3193 C 0.21071 0.10021 0.80848 0.0
C3194 C 0.21923 0.14411 0.81884 0.0
C3195 C 0.23712 0.14869 0.80443 0.0
C3196 C 0.24196 0.12885 0.79231 0.0
C3197 C 0.22875 0.10478 0.79459 0.0
C3198 C 0.21373 0.16482 0.83218 0.0
C3199 C 0.26074 0.1331 0.77659 0.0
C3200 C 0.25355 0.21147 0.78215 0.0
C3201 C 0.27385 0.22331 0.79536 0.0
C3202 C 0.2416 0.18709 0.78479 0.0
C3203 C 0.25001 0.17433 0.80122 0.0
C3204 C 0.27048 0.18613 0.81464 0.0
C3205 C 0.28227 0.2105 0.81145 0.0
C3206 C 0.21995 0.175 0.77 0.0
C3207 C 0.27977 0.17311 0.83249 0.0
H3208 H 0.19227 0.11638 0.83147 0.0
H3209 H 0.23232 0.08957 0.78522 0.0
H3210 H 0.22934 0.17624 0.84223 0.0
H3211 H 0.20798 0.17693 0.82077 0.0
H3212 H 0.20009 0.15804 0.84352 0.0
H3213 H 0.26277 0.11563 0.76892 0.0
H3214 H 0.25688 0.14416 0.76312 0.0
H3215 H 0.27733 0.14372 0.78554 0.0
H3216 H 0.24702 0.2212 0.76956 0.0
H3217 H 0.2979 0.2196 0.82177 0.0
H3218 H 0.20519 0.16943 0.78028 0.0
H3219 H 0.2216 0.15808 0.76092 0.0
H3220 H 0.21604 0.18731 0.75766 0.0
H3221 H 0.26688 0.16737 0.84474 0.0
H3222 H 0.29594 0.18486 0.84146 0.0
H3223 H 0.28304 0.15619 0.82504 0.0
C3224 C 0.41257 0.9945 0.33284 0.0
C3225 C 0.40868 0.01162 0.31844 0.0
C3226 C 0.39858 0.97017 0.33074 0.0
C3227 C 0.38048 0.9628 0.31364 0.0
C3228 C 0.37613 0.98018 0.2994 0.0
C3229 C 0.39021 1.00446 0.30206 0.0
C3230 C 0.40349 0.95223 0.34647 0.0
C3231 C 0.35708 0.97294 0.28088 0.0
C3232 C 0.361 0.89518 0.2934 0.0
C3233 C 0.3407 0.88699 0.30391 0.0
C3234 C 0.37397 0.9199 0.29623 0.0
C3235 C 0.36662 0.93671 0.31016 0.0
C3236 C 0.34616 0.92854 0.32082 0.0
C3237 C 0.33335 0.9038 0.31744 0.0
C3238 C 0.39557 0.92804 0.28435 0.0
C3239 C 0.33796 0.94587 0.33602 0.0
H3240 H 0.4268 1.00001 0.34557 0.0
H3241 H 0.3872 0.01764 0.29084 0.0
H3242 H 0.38775 0.94314 0.35443 0.0
H3243 H 0.4088 0.93762 0.33705 0.0
H3244 H 0.41727 0.96125 0.35971 0.0
H3245 H 0.35543 0.98887 0.27177 0.0
H3246 H 0.36039 0.95902 0.26885 0.0
H3247 H 0.34047 0.96441 0.28766 0.0
H3248 H 0.3667 0.88228 0.28285 0.0
H3249 H 0.31776 0.89756 0.32576 0.0
H3250 H 0.4106 0.93542 0.29668 0.0
H3251 H 0.39452 0.94308 0.2738 0.0
H3252 H 0.39861 0.91281 0.27369 0.0
H3253 H 0.3512 0.95392 0.34996 0.0
H3254 H 0.32167 0.93659 0.34307 0.0
H3255 H 0.33531 0.96131 0.32682 0.0
C3256 C 0.60896 0.39534 0.5849 0.0
C3257 C 0.60052 0.38936 0.60555 0.0
C3258 C 0.60646 0.41649 0.57506 0.0
C3259 C 0.59487 0.43182 0.58592 0.0
C3260 C 0.58646 0.42589 0.60682 0.0
C3261 C 0.58953 0.40493 0.6164 0.0
C3262 C 0.61607 0.42234 0.55298 0.0
C3263 C 0.57381 0.44146 0.61894 0.0
C3264 C 0.60081 0.49797 0.57182 0.0
C3265 C 0.58072 0.49531 0.55795 0.0
C3266 C 0.60612 0.47739 0.58028 0.0
C3267 C 0.59073 0.4536 0.57525 0.0
C3268 C 0.57057 0.45084 0.56105 0.0
C3269 C 0.56596 0.47162 0.55241 0.0
C3270 C 0.62811 0.48111 0.59479 0.0
C3271 C 0.5535 0.42596 0.55545 0.0
H3272 H 0.61756 0.38349 0.57643 0.0
H3273 H 0.58288 0.40048 0.63232 0.0
H3274 H 0.60197 0.42183 0.54023 0.0
H3275 H 0.62792 0.4412 0.55434 0.0
H3276 H 0.62546 0.40924 0.54712 0.0
H3277 H 0.56848 0.4345 0.63513 0.0
H3278 H 0.58482 0.46066 0.62204 0.0
H3279 H 0.55828 0.44188 0.60848 0.0
H3280 H 0.6125 0.51614 0.57593 0.0
H3281 H 0.55039 0.46935 0.54174 0.0
H3282 H 0.63829 0.46937 0.58787 0.0
H3283 H 0.62417 0.47549 0.6117 0.0
H3284 H 0.63882 0.50049 0.59628 0.0
H3285 H 0.5621 0.41287 0.54807 0.0
H3286 H 0.53903 0.42673 0.5436 0.0
H3287 H 0.54643 0.4185 0.57088 0.0
C3288 C 0.45707 0.80191 0.38473 0.0
C3289 C 0.45623 0.7868 0.40237 0.0
C3290 C 0.43694 0.80405 0.37338 0.0
C3291 C 0.4153 0.79043 0.37952 0.0
C3292 C 0.41429 0.77497 0.39724 0.0
C3293 C 0.43478 0.7735 0.40859 0.0
C3294 C 0.43887 0.82105 0.35486 0.0
C3295 C 0.39157 0.75988 0.40408 0.0
C3296 C 0.36452 0.81362 0.36092 0.0
C3297 C 0.3564 0.79945 0.34068 0.0
C3298 C 0.38322 0.81039 0.3741 0.0
C3299 C 0.39389 0.7923 0.36708 0.0
C3300 C 0.38513 0.77724 0.34716 0.0
C3301 C 0.36664 0.78111 0.33415 0.0
C3302 C 0.39212 0.82701 0.39509 0.0
C3303 C 0.3957 0.75745 0.33924 0.0
H3304 H 0.47357 0.8124 0.37992 0.0
H3305 H 0.43401 0.7618 0.42221 0.0
H3306 H 0.43089 0.81043 0.33897 0.0
H3307 H 0.42944 0.83482 0.35844 0.0
H3308 H 0.45696 0.83091 0.35257 0.0
H3309 H 0.39369 0.74851 0.41796 0.0
H3310 H 0.38112 0.7721 0.40933 0.0
H3311 H 0.38177 0.74757 0.38968 0.0
H3312 H 0.35671 0.82779 0.36619 0.0
H3313 H 0.36036 0.76984 0.31869 0.0
H3314 H 0.40969 0.83874 0.39322 0.0
H3315 H 0.39329 0.81597 0.40942 0.0
H3316 H 0.38107 0.83908 0.39901 0.0
H3317 H 0.41335 0.76598 0.33468 0.0
H3318 H 0.38564 0.74586 0.32455 0.0
H3319 H 0.39705 0.74545 0.35279 0.0
C3320 C 0.07762 0.73918 0.08377 0.0
C3321 C 0.09683 0.75199 0.09807 0.0
C3322 C 0.07504 0.71488 0.07503 0.0
C3323 C 0.09192 0.7029 0.08094 0.0
C3324 C 0.11165 0.71602 0.09489 0.0
C3325 C 0.11391 0.74036 0.10315 0.0
C3326 C 0.05389 0.70175 0.06001 0.0
C3327 C 0.12997 0.70402 0.10184 0.0
C3328 C 0.07266 0.63291 0.08012 0.0
C3329 C 0.08094 0.62557 0.06044 0.0
C3330 C 0.07629 0.6579 0.087 0.0
C3331 C 0.08828 0.67623 0.07378 0.0
C3332 C 0.0968 0.66897 0.05394 0.0
C3333 C 0.09318 0.64378 0.04759 0.0
C3334 C 0.06718 0.66468 0.10843 0.0
C3335 C 0.10942 0.68783 0.03921 0.0
H3336 H 0.06433 0.74797 0.07974 0.0
H3337 H 0.12878 0.75002 0.11425 0.0
H3338 H 0.05878 0.69369 0.04453 0.0
H3339 H 0.04316 0.68638 0.06846 0.0
H3340 H 0.04335 0.71416 0.05547 0.0
H3341 H 0.14484 0.71707 0.11174 0.0
H3342 H 0.12264 0.68855 0.112 0.0
H3343 H 0.13619 0.69625 0.08699 0.0
H3344 H 0.06323 0.61907 0.09024 0.0
H3345 H 0.09946 0.63837 0.03225 0.0
H3346 H 0.05463 0.67519 0.10498 0.0
H3347 H 0.08139 0.67671 0.11984 0.0
H3348 H 0.05867 0.64829 0.11707 0.0
H3349 H 0.09819 0.69909 0.03354 0.0
H3350 H 0.11503 0.67929 0.02437 0.0
H3351 H 0.12473 0.70051 0.04875 0.0
C3352 C 0.06992 0.27799 0.87903 0.0
C3353 C 0.07316 0.28563 0.90181 0.0
C3354 C 0.08868 0.27981 0.86621 0.0
C3355 C 0.11126 0.2895 0.8764 0.0
C3356 C 0.11466 0.29696 0.89946 0.0
C3357 C 0.09556 0.29494 0.91189 0.0
C3358 C 0.08433 0.27167 0.84167 0.0
C3359 C 0.13847 0.30735 0.91094 0.0
C3360 C 0.16012 0.27609 0.84632 0.0
C3361 C 0.1684 0.29777 0.83577 0.0
C3362 C 0.14169 0.27321 0.85977 0.0
C3363 C 0.13127 0.29248 0.86275 0.0
C3364 C 0.13968 0.31448 0.85233 0.0
C3365 C 0.15813 0.31686 0.839 0.0
C3366 C 0.13319 0.24946 0.87058 0.0
C3367 C 0.1291 0.33549 0.85515 0.0
H3368 H 0.05265 0.27074 0.87114 0.0
H3369 H 0.09818 0.30085 0.9295 0.0
H3370 H 0.0914 0.28748 0.83181 0.0
H3371 H 0.09324 0.25757 0.83755 0.0
H3372 H 0.06577 0.26392 0.83641 0.0
H3373 H 0.13821 0.31164 0.92909 0.0
H3374 H 0.14867 0.2941 0.90845 0.0
H3375 H 0.14743 0.32441 0.9035 0.0
H3376 H 0.1678 0.26115 0.84374 0.0
H3377 H 0.16466 0.33383 0.83123 0.0
H3378 H 0.11507 0.24035 0.86448 0.0
H3379 H 0.13368 0.25325 0.88887 0.0
H3380 H 0.14354 0.23653 0.86711 0.0
H3381 H 0.11073 0.3293 0.84889 0.0
H3382 H 0.13783 0.35148 0.84614 0.0
H3383 H 0.12991 0.34157 0.87305 0.0
C3384 C 0.57166 0.7208 0.95582 0.0
C3385 C 0.55595 0.72036 0.93727 0.0
C3386 C 0.57151 0.69954 0.96787 0.0
C3387 C 0.55485 0.67626 0.96227 0.0
C3388 C 0.53874 0.67578 0.94374 0.0
C3389 C 0.53965 0.69719 0.93159 0.0
C3390 C 0.58969 0.70203 0.98669 0.0
C3391 C 0.52011 0.65241 0.93669 0.0
C3392 C 0.56528 0.61367 0.98066 0.0
C3393 C 0.55407 0.60886 1.00052 0.0
C3394 C 0.56583 0.63498 0.96855 0.0
C3395 C 0.55443 0.65279 0.97549 0.0
C3396 C 0.54279 0.64785 0.99535 0.0
C3397 C 0.543 0.62669 0.00747 0.0
C3398 C 0.57911 0.63859 0.94821 0.0
C3399 C 0.52973 0.66504 0.00388 0.0
H3400 H 0.58459 0.73797 0.96086 0.0
H3401 H 0.52717 0.69575 0.9176 0.0
H3402 H 0.58155 0.69835 1.00251 0.0
H3403 H 0.59918 0.68818 0.98371 0.0
H3404 H 0.60212 0.72061 0.98869 0.0
H3405 H 0.50795 0.65487 0.92312 0.0
H3406 H 0.52785 0.63786 0.93087 0.0
H3407 H 0.51039 0.64583 0.95112 0.0
H3408 H 0.57417 0.60079 0.97458 0.0
H3409 H 0.5341 0.624 0.02249 0.0
H3410 H 0.59208 0.65682 0.95007 0.0
H3411 H 0.56737 0.63834 0.93334 0.0
H3412 H 0.58798 0.62417 0.94522 0.0
H3413 H 0.54174 0.68347 0.00869 0.0
H3414 H 0.52035 0.6584 0.0185 0.0
H3415 H 0.51724 0.66722 0.9905 0.0
C3416 C 0.13974 0.7998 0.69491 0.0
C3417 C 0.12198 0.80349 0.70773 0.0
C3418 C 0.16182 0.79866 0.7045 0.0
C3419 C 0.16776 0.80164 0.72807 0.0
C3420 C 0.15004 0.80574 0.74111 0.0
C3421 C 0.12788 0.80631 0.73109 0.0
C3422 C 0.17903 0.7942 0.68911 0.0
C3423 C 0.15461 0.80991 0.76602 0.0
C3424 C 0.21841 0.77756 0.75541 0.0
C3425 C 0.23797 0.79842 0.75883 0.0
C3426 C 0.19623 0.77834 0.74571 0.0
C3427 C 0.19213 0.80059 0.73878 0.0
C3428 C 0.21183 0.82169 0.74206 0.0
C3429 C 0.23383 0.8204 0.75185 0.0
C3430 C 0.17696 0.75487 0.74267 0.0
C3431 C 0.20977 0.84621 0.73554 0.0
H3432 H 0.1363 0.79744 0.67698 0.0
H3433 H 0.11511 0.80926 0.7418 0.0
H3434 H 0.19474 0.80999 0.6912 0.0
H3435 H 0.18417 0.77766 0.69347 0.0
H3436 H 0.17222 0.79159 0.67136 0.0
H3437 H 0.1398 0.8133 0.7742 0.0
H3438 H 0.15859 0.7937 0.7728 0.0
H3439 H 0.16986 0.82592 0.77039 0.0
H3440 H 0.22037 0.76018 0.76031 0.0
H3441 H 0.24796 0.83701 0.7541 0.0
H3442 H 0.17045 0.751 0.72485 0.0
H3443 H 0.16249 0.7569 0.75217 0.0
H3444 H 0.18236 0.73889 0.74826 0.0
H3445 H 0.198 0.84428 0.72034 0.0
H3446 H 0.22667 0.85863 0.73251 0.0
H3447 H 0.20267 0.85495 0.74923 0.0
C3448 C 0.04516 0.36008 0.44979 0.0
C3449 C 0.06337 0.35856 0.4368 0.0
C3450 C 0.04377 0.38268 0.4609 0.0
C3451 C 0.06145 0.40519 0.46026 0.0
C3452 C 0.08012 0.40367 0.44749 0.0
C3453 C 0.0806 0.38098 0.43577 0.0
C3454 C 0.02292 0.38246 0.47317 0.0
C3455 C 0.10003 0.42616 0.44642 0.0
C3456 C 0.05109 0.47019 0.47451 0.0
C3457 C 0.05808 0.47574 0.49751 0.0
C3458 C 0.05175 0.44771 0.46252 0.0
C3459 C 0.0605 0.42983 0.47305 0.0
C3460 C 0.06809 0.43569 0.49613 0.0
C3461 C 0.06639 0.45782 0.50789 0.0
C3462 C 0.04257 0.4429 0.43843 0.0
C3463 C 0.07842 0.41857 0.50857 0.0
H3464 H 0.03144 0.34344 0.4509 0.0
H3465 H 0.09492 0.38074 0.42607 0.0
H3466 H 0.02795 0.38677 0.49124 0.0
H3467 H 1.01522 0.39687 0.46747 0.0
H3468 H 1.00968 0.36441 0.47069 0.0
H3469 H 0.11419 0.42195 0.4377 0.0
H3470 H 0.09421 0.44018 0.43756 0.0
H3471 H 0.10678 0.43439 0.46349 0.0
H3472 H 0.04445 0.48326 0.46585 0.0
H3473 H 0.0721 0.46129 0.52545 0.0
H3474 H 0.02947 0.42477 0.43576 0.0
H3475 H 0.05661 0.44218 0.42781 0.0
H3476 H 0.03475 0.45727 0.43285 0.0
H3477 H 0.06521 0.4009 0.50971 0.0
H3478 H 0.0855 0.42637 0.52568 0.0
H3479 H 0.09235 0.41445 0.49941 0.0
C3480 C 0.46432 0.29175 0.19507 0.0
C3481 C 0.4854 0.29368 0.20775 0.0
C3482 C 0.44286 0.29093 0.20477 0.0
C3483 C 0.44093 0.29171 0.22838 0.0
C3484 C 0.46211 0.29345 0.24128 0.0
C3485 C 0.48342 0.29452 0.23115 0.0
C3486 C 0.42195 0.28937 0.1894 0.0
C3487 C 0.46231 0.29413 0.26625 0.0
C3488 C 0.38994 0.31273 0.25559 0.0
C3489 C 0.37303 0.29078 0.2596 0.0
C3490 C 0.41126 0.31322 0.2458 0.0
C3491 C 0.41738 0.29125 0.23933 0.0
C3492 C 0.40042 0.26898 0.24339 0.0
C3493 C 0.37909 0.26901 0.25306 0.0
C3494 C 0.42741 0.33777 0.24216 0.0
C3495 C 0.40478 0.24462 0.23744 0.0
H3496 H 0.46453 0.29108 0.17713 0.0
H3497 H 0.49878 0.29596 0.24186 0.0
H3498 H 0.4082 0.27249 0.19182 0.0
H3499 H 0.41525 0.30527 0.19348 0.0
H3500 H 0.42561 0.28915 0.17162 0.0
H3501 H 0.47936 0.29459 0.27432 0.0
H3502 H 0.45755 0.31058 0.27273 0.0
H3503 H 0.44932 0.27776 0.27109 0.0
H3504 H 0.38645 0.33003 0.25999 0.0
H3505 H 0.367 0.25159 0.25551 0.0
H3506 H 0.43038 0.33867 0.22425 0.0
H3507 H 0.44427 0.34001 0.25145 0.0
H3508 H 0.42073 0.35333 0.24758 0.0
H3509 H 0.40615 0.24233 0.21925 0.0
H3510 H 0.39096 0.22887 0.24215 0.0
H3511 H 0.42136 0.2441 0.24587 0.0
C3512 C 0.66817 0.55197 0.40205 0.0
C3513 C 0.65939 0.53056 0.38776 0.0
C3514 C 0.66049 0.55377 0.42326 0.0
C3515 C 0.64383 0.53358 0.43035 0.0
C3516 C 0.63669 0.5111 0.41688 0.0
C3517 C 0.64445 0.5099 0.39558 0.0
C3518 C 0.66846 0.57811 0.43706 0.0
C3519 C 0.61932 0.489 0.42413 0.0
C3520 C 0.62504 0.53904 0.48879 0.0
C3521 C 0.60514 0.54645 0.48448 0.0
C3522 C 0.6378 0.53431 0.47132 0.0
C3523 C 0.6306 0.53759 0.44925 0.0
C3524 C 0.61068 0.54539 0.44495 0.0
C3525 C 0.59811 0.54952 0.4626 0.0
C3526 C 0.65876 0.52563 0.47641 0.0
C3527 C 0.60264 0.54955 0.42168 0.0
H3528 H 0.67998 0.56791 0.39617 0.0
H3529 H 0.63793 0.49318 0.3847 0.0
H3530 H 0.65463 0.5874 0.43618 0.0
H3531 H 0.67214 0.57543 0.45479 0.0
H3532 H 0.68407 0.59046 0.43103 0.0
H3533 H 0.61901 0.47189 0.41403 0.0
H3534 H 0.62301 0.48658 0.44194 0.0
H3535 H 0.60198 0.49179 0.42219 0.0
H3536 H 0.63037 0.53647 0.50574 0.0
H3537 H 0.58283 0.55544 0.45925 0.0
H3538 H 0.67413 0.53868 0.47076 0.0
H3539 H 0.6567 0.50758 0.46717 0.0
H3540 H 0.66191 0.52379 0.49447 0.0
H3541 H 0.61639 0.56338 0.41448 0.0
H3542 H 0.58701 0.55606 0.42132 0.0
H3543 H 0.59882 0.53225 0.41079 0.0
C3544 C 0.27531 0.84406 0.06266 0.0
C3545 C 0.29329 0.86586 0.06408 0.0
C3546 C 0.27423 0.82706 0.07881 0.0
C3547 C 0.29138 0.83229 0.09679 0.0
C3548 C 0.30962 0.85422 0.09814 0.0
C3549 C 0.3104 0.87064 0.08171 0.0
C3550 C 0.25474 0.8037 0.07677 0.0
C3551 C 0.32816 0.86063 0.11719 0.0
C3552 C 0.28433 0.81024 0.15395 0.0
C3553 C 0.29915 0.79524 0.15458 0.0
C3554 C 0.27966 0.82056 0.13437 0.0
C3555 C 0.29011 0.81574 0.115 0.0
C3556 C 0.30319 0.79864 0.11494 0.0
C3557 C 0.3077 0.78867 0.13485 0.0
C3558 C 0.2657 0.8388 0.1352 0.0
C3559 C 0.31427 0.79271 0.09448 0.0
H3560 H 0.26214 0.84028 0.04893 0.0
H3561 H 0.32433 0.88747 0.08287 0.0
H3562 H 0.26156 0.78753 0.07748 0.0
H3563 H 0.24402 0.80355 0.09098 0.0
H3564 H 0.24364 0.80165 0.06105 0.0
H3565 H 0.34122 0.87835 0.1156 0.0
H3566 H 0.32041 0.86191 0.1332 0.0
H3567 H 0.33696 0.84598 0.11797 0.0
H3568 H 0.27797 0.8157 0.16922 0.0
H3569 H 0.31897 0.77685 0.13527 0.0
H3570 H 0.25369 0.83608 0.12007 0.0
H3571 H 0.2774 0.85771 0.13583 0.0
H3572 H 0.25571 0.83737 0.15007 0.0
H3573 H 0.30238 0.79051 0.07931 0.0
H3574 H 0.31974 0.77569 0.09572 0.0
H3575 H 0.32966 0.80809 0.09247 0.0
C3576 C 1.0058 0.61298 0.88672 0.0
C3577 C 0.98267 0.59928 0.8839 0.0
C3578 C 0.01908 0.61326 0.90663 0.0
C3579 C 1.00897 0.59915 0.92376 0.0
C3580 C 0.98518 0.58703 0.92167 0.0
C3581 C 0.97224 0.58745 0.90179 0.0
C3582 C 0.04422 0.62716 0.90866 0.0
C3583 C 0.97375 0.57181 0.93962 0.0
C3584 C 0.0429 0.56702 0.95958 0.0
C3585 C 0.04384 0.57966 0.98036 0.0
C3586 C 0.03253 0.57401 0.94067 0.0
C3587 C 0.02348 0.59445 0.94265 0.0
C3588 C 0.02607 0.60842 0.96329 0.0
C3589 C 0.03597 0.60064 0.98202 0.0
C3590 C 0.02986 0.5585 0.91893 0.0
C3591 C 0.01728 0.63074 0.96591 0.0
H3592 H 1.01385 0.62236 0.87297 0.0
H3593 H 0.95432 0.57697 0.8997 0.0
H3594 H 0.04945 0.63694 0.92545 0.0
H3595 H 0.05458 0.61404 0.9064 0.0
H3596 H 0.04836 0.64071 0.89595 0.0
H3597 H 0.95482 0.56509 0.9361 0.0
H3598 H 0.98055 0.55568 0.94101 0.0
H3599 H 0.97765 0.58264 0.95598 0.0
H3600 H 0.04898 0.55079 0.95836 0.0
H3601 H 0.03702 0.61063 0.99811 0.0
H3602 H 0.03639 0.5702 0.90539 0.0
H3603 H 1.0114 0.54931 0.91431 0.0
H3604 H 0.03908 0.54417 0.91987 0.0
H3605 H 0.02129 0.64219 0.95165 0.0
H3606 H 0.02471 0.64223 0.98158 0.0
H3607 H 0.99836 0.62479 0.96626 0.0
C3608 C 0.3206 0.26749 0.6077 0.0
C3609 C 0.30113 0.2506 0.59647 0.0
C3610 C 0.32153 0.27434 0.6308 0.0
C3611 C 0.30269 0.26386 0.64326 0.0
C3612 C 0.28292 0.24705 0.63189 0.0
C3613 C 0.28234 0.2408 0.60881 0.0
C3614 C 0.34287 0.29256 0.64196 0.0
C3615 C 0.26246 0.23512 0.64424 0.0
C3616 C 0.31271 0.26087 0.70651 0.0
C3617 C 0.30407 0.27964 0.71542 0.0
C3618 C 0.3125 0.25571 0.68327 0.0
C3619 C 0.30376 0.26983 0.6682 0.0
C3620 C 0.29534 0.28907 0.6771 0.0
C3621 C 0.29544 0.29359 0.70043 0.0
C3622 C 0.3214 0.23483 0.67482 0.0
C3623 C 0.28617 0.30492 0.66191 0.0
H3624 H 0.33527 0.27517 0.59849 0.0
H3625 H 0.26722 0.22762 0.60051 0.0
H3626 H 0.33832 0.30797 0.65091 0.0
H3627 H 0.35115 0.28356 0.65451 0.0
H3628 H 0.35549 0.30015 0.62989 0.0
H3629 H 0.24823 0.22274 0.63304 0.0
H3630 H 0.26765 0.22428 0.65726 0.0
H3631 H 0.25598 0.24938 0.65279 0.0
H3632 H 0.31945 0.24989 0.71774 0.0
H3633 H 0.28892 0.30831 0.70693 0.0
H3634 H 0.33551 0.24169 0.66404 0.0
H3635 H 0.30755 0.22091 0.66449 0.0
H3636 H 0.32785 0.2257 0.68856 0.0
H3637 H 0.29931 0.31335 0.65062 0.0
H3638 H 0.28115 0.31979 0.67129 0.0
H3639 H 0.27098 0.29346 0.65133 0.0
C3640 C 0.62318 0.53279 0.25136 0.0
C3641 C 0.61708 0.52339 0.27168 0.0
C3642 C 0.60649 0.53403 0.23484 0.0
C3643 C 0.58298 0.52486 0.23841 0.0
C3644 C 0.57663 0.51416 0.25849 0.0
C3645 C 0.59383 0.51402 0.27516 0.0
C3646 C 0.61414 0.54601 0.21387 0.0
C3647 C 0.55182 0.50339 0.26267 0.0
C3648 C 0.54956 0.55714 0.20283 0.0
C3649 C 0.54685 0.54285 0.18253 0.0
C3650 C 0.55923 0.55019 0.22217 0.0
C3651 C 0.56559 0.52802 0.22132 0.0
C3652 C 0.55961 0.51178 0.20182 0.0
C3653 C 0.55063 0.51954 0.1825 0.0
C3654 C 0.56514 0.56799 0.24269 0.0
C3655 C 0.56496 0.48736 0.2006 0.0
H3656 H 0.64115 0.54017 0.24867 0.0
H3657 H 0.58909 0.50662 0.29086 0.0
H3658 H 0.60768 0.53271 0.19913 0.0
H3659 H 0.60691 0.56175 0.21178 0.0
H3660 H 0.63311 0.55283 0.21405 0.0
H3661 H 0.54997 0.48963 0.27524 0.0
H3662 H 0.54478 0.51825 0.26914 0.0
H3663 H 0.54133 0.49452 0.24713 0.0
H3664 H 0.54579 0.57471 0.20323 0.0
H3665 H 0.54847 0.50811 0.16705 0.0
H3666 H 0.58396 0.57658 0.24473 0.0
H3667 H 0.56023 0.55829 0.25777 0.0
H3668 H 0.55652 0.58282 0.24163 0.0
H3669 H 0.58327 0.49024 0.19757 0.0
H3670 H 0.55435 0.47462 0.18682 0.0
H3671 H 0.56205 0.47859 0.2165 0.0
C3672 C 0.28441 0.89983 0.93418 0.0
C3673 C 0.28659 0.88603 0.95223 0.0
C3674 C 0.28462 0.89019 0.91227 0.0
C3675 C 0.2875 0.86643 0.90852 0.0
C3676 C 0.28903 0.85218 0.92667 0.0
C3677 C 0.28835 0.86209 0.94831 0.0
C3678 C 0.28244 0.90565 0.89323 0.0
C3679 C 0.29233 0.82684 0.92334 0.0
C3680 C 0.27411 0.8297 0.85253 0.0
C3681 C 0.29607 0.8335 0.84508 0.0
C3682 C 0.27087 0.84137 0.87267 0.0
C3683 C 0.29013 0.85675 0.8858 0.0
C3684 C 0.31226 0.86125 0.87801 0.0
C3685 C 0.31493 0.84972 0.85759 0.0
C3686 C 0.24696 0.83659 0.88023 0.0
C3687 C 0.33324 0.8773 0.89172 0.0
H3688 H 0.28294 0.91832 0.93719 0.0
H3689 H 0.29009 0.85138 0.96224 0.0
H3690 H 0.29884 0.91083 0.88525 0.0
H3691 H 0.269 0.89499 0.88035 0.0
H3692 H 0.27813 0.92272 0.89879 0.0
H3693 H 0.29258 0.81792 0.93918 0.0
H3694 H 0.27839 0.81488 0.91162 0.0
H3695 H 0.30875 0.82806 0.91584 0.0
H3696 H 0.25944 0.8174 0.84271 0.0
H3697 H 0.33193 0.85268 0.85184 0.0
H3698 H 0.2434 0.85417 0.88537 0.0
H3699 H 0.24552 0.82566 0.89495 0.0
H3700 H 0.23362 0.82641 0.86701 0.0
H3701 H 0.33085 0.89556 0.89637 0.0
H3702 H 0.34902 0.87997 0.88276 0.0
H3703 H 0.33581 0.86882 0.9074 0.0
C3704 C 1.00107 0.53107 0.78171 0.0
C3705 C 1.00085 0.55567 0.78462 0.0
C3706 C 1.01157 0.52298 0.76392 0.0
C3707 C 0.02188 0.53994 0.74881 0.0
C3708 C 0.02365 0.5652 0.75301 0.0
C3709 C 1.01313 0.57279 0.77097 0.0
C3710 C 1.00976 0.49598 0.76021 0.0
C3711 C 0.03465 0.58387 0.73732 0.0
C3712 C 0.05467 0.52442 0.70142 0.0
C3713 C 0.03783 0.52007 0.68352 0.0
C3714 C 0.04954 0.52981 0.72313 0.0
C3715 C 0.02714 0.53097 0.72683 0.0
C3716 C 1.00984 0.52544 0.70895 0.0
C3717 C 0.0154 0.51998 0.68752 0.0
C3718 C 0.0683 0.53533 0.74187 0.0
C3719 C 0.98566 0.52631 0.71227 0.0
H3720 H 0.9918 0.51782 0.79243 0.0
H3721 H 1.01321 0.59188 0.77335 0.0
H3722 H 0.996 0.48739 0.74686 0.0
H3723 H 0.02599 0.49322 0.75472 0.0
H3724 H 1.00555 0.48628 0.77549 0.0
H3725 H 0.0374 0.60302 0.74451 0.0
H3726 H 0.05138 0.58146 0.73301 0.0
H3727 H 0.02341 0.58112 0.72162 0.0
H3728 H 0.07205 0.52457 0.69832 0.0
H3729 H 1.00227 0.51611 0.67374 0.0
H3730 H 0.06204 0.52558 0.75661 0.0
H3731 H 0.07354 0.5553 0.747 0.0
H3732 H 0.08365 0.53002 0.7369 0.0
H3733 H 0.97854 0.51438 0.72547 0.0
H3734 H 0.97402 0.52032 0.69681 0.0
H3735 H 0.98579 0.54534 0.7178 0.0
C3736 C 0.31827 0.23316 0.45049 0.0
C3737 C 0.30754 0.24472 0.46605 0.0
C3738 C 0.32007 0.23996 0.42839 0.0
C3739 C 0.31065 0.2587 0.42116 0.0
C3740 C 0.3 0.27068 0.43685 0.0
C3741 C 0.29871 0.2637 0.45903 0.0
C3742 C 0.33179 0.22671 0.41262 0.0
C3743 C 0.28945 0.29053 0.43007 0.0
C3744 C 0.32946 0.28798 0.3667 0.0
C3745 C 0.31188 0.27453 0.35081 0.0
C3746 C 0.32929 0.28319 0.38951 0.0
C3747 C 0.31095 0.26471 0.39696 0.0
C3748 C 0.29308 0.2513 0.381 0.0
C3749 C 0.29383 0.25622 0.35834 0.0
C3750 C 0.34889 0.29783 0.40567 0.0
C3751 C 0.27301 0.23163 0.38785 0.0
H3752 H 0.32528 0.21855 0.45557 0.0
H3753 H 0.29032 0.27277 0.47075 0.0
H3754 H 0.31925 0.21637 0.39887 0.0
H3755 H 0.34553 0.24015 0.40504 0.0
H3756 H 0.33944 0.21362 0.42102 0.0
H3757 H 0.28258 0.29876 0.44426 0.0
H3758 H 0.30237 0.30529 0.42292 0.0
H3759 H 0.27527 0.28278 0.41691 0.0
H3760 H 0.34347 0.30222 0.36131 0.0
H3761 H 0.27994 0.24577 0.34649 0.0
H3762 H 0.35752 0.28528 0.41364 0.0
H3763 H 0.34228 0.30746 0.41912 0.0
H3764 H 0.3618 0.31163 0.39747 0.0
H3765 H 0.27913 0.2168 0.39497 0.0
H3766 H 0.26006 0.22341 0.37369 0.0
H3767 H 0.26453 0.23944 0.40101 0.0
C3768 C 0.37404 0.62843 0.53657 0.0
C3769 C 0.3595 0.62132 0.5535 0.0
C3770 C 0.38788 0.61398 0.52937 0.0
C3771 C 0.38738 0.59212 0.53964 0.0
C3772 C 0.37309 0.58509 0.55708 0.0
C3773 C 0.35911 0.59971 0.5637 0.0
C3774 C 0.40286 0.62197 0.51063 0.0
C3775 C 0.37255 0.56215 0.56868 0.0
C3776 C 0.40851 0.54525 0.50635 0.0
C3777 C 0.43144 0.5514 0.51483 0.0
C3778 C 0.39367 0.55798 0.51471 0.0
C3779 C 0.40207 0.57684 0.53213 0.0
C3780 C 0.42502 0.58226 0.54137 0.0
C3781 C 0.4395 0.56956 0.53244 0.0
C3782 C 0.36934 0.55195 0.50435 0.0
C3783 C 0.43446 0.60191 0.56022 0.0
H3784 H 0.37426 0.64508 0.52859 0.0
H3785 H 0.34791 0.59425 0.57686 0.0
H3786 H 0.42114 0.62477 0.5164 0.0
H3787 H 0.39847 0.60738 0.4967 0.0
H3788 H 0.40095 0.63927 0.5042 0.0
H3789 H 0.36069 0.55945 0.58215 0.0
H3790 H 0.36711 0.54581 0.55649 0.0
H3791 H 0.39 0.56311 0.57598 0.0
H3792 H 0.40247 0.53113 0.49271 0.0
H3793 H 0.45728 0.57398 0.53906 0.0
H3794 H 0.36674 0.56805 0.49615 0.0
H3795 H 0.35708 0.54797 0.51738 0.0
H3796 H 0.36517 0.53592 0.49179 0.0
H3797 H 0.43415 0.62009 0.55468 0.0
H3798 H 0.45236 0.60292 0.56621 0.0
H3799 H 0.42357 0.59834 0.57438 0.0
C3800 C 0.89558 0.91652 0.53639 0.0
C3801 C 0.87633 0.92543 0.53757 0.0
C3802 C 0.91755 0.93256 0.53475 0.0
C3803 C 0.92034 0.95812 0.53412 0.0
C3804 C 0.90088 0.96713 0.53493 0.0
C3805 C 0.87917 0.95072 0.53673 0.0
C3806 C 0.93785 0.9222 0.53412 0.0
C3807 C 0.90304 0.9942 0.53425 0.0
C3808 C 0.97863 1.00169 0.5545 0.0
C3809 C 0.98865 1.0079 0.53454 0.0
C3810 C 0.95648 0.98567 0.55452 0.0
C3811 C 0.94376 0.97558 0.53407 0.0
C3812 C 0.95353 0.98208 0.51381 0.0
C3813 C 0.97588 0.99812 0.51427 0.0
C3814 C 0.94683 0.97925 0.57652 0.0
C3815 C 0.94045 0.97186 0.49166 0.0
H3816 H 0.89353 0.89701 0.53695 0.0
H3817 H 0.86437 0.95776 0.53748 0.0
H3818 H 0.94714 0.92769 0.5192 0.0
H3819 H 0.95005 0.92983 0.54893 0.0
H3820 H 0.93272 0.90183 0.53384 0.0
H3821 H 0.88612 0.99811 0.53378 0.0
H3822 H 0.91378 1.00455 0.54913 0.0
H3823 H 0.91174 1.00124 0.51941 0.0
H3824 H 0.98826 1.00906 0.5703 0.0
H3825 H 0.98344 1.00272 0.49877 0.0
H3826 H 0.94293 0.95914 0.57784 0.0
H3827 H 0.9305 0.98419 0.57755 0.0
H3828 H 0.95885 0.98881 0.59097 0.0
H3829 H 0.93663 0.95155 0.49014 0.0
H3830 H 0.95013 0.97923 0.47742 0.0
H3831 H 0.92378 0.97628 0.49054 0.0
C3832 C 0.90066 0.11773 0.2646 0.0
C3833 C 0.89341 0.09815 0.24813 0.0
C3834 C 0.88506 0.12949 0.27283 0.0
C3835 C 0.86182 0.12155 0.26417 0.0
C3836 C 0.85458 0.10227 0.24708 0.0
C3837 C 0.87048 0.09072 0.23931 0.0
C3838 C 0.89335 0.15012 0.291 0.0
C3839 C 0.82998 0.09362 0.23725 0.0
C3840 C 0.81678 0.13594 0.29902 0.0
C3841 C 0.81295 0.15615 0.28894 0.0
C3842 C 0.83262 0.12434 0.29104 0.0
C3843 C 0.84505 0.13353 0.27286 0.0
C3844 C 0.84137 0.1541 0.26282 0.0
C3845 C 0.82521 0.16504 0.27087 0.0
C3846 C 0.83618 0.1024 0.3021 0.0
C3847 C 0.85459 0.16466 0.24368 0.0
H3848 H 0.91837 0.12341 0.27151 0.0
H3849 H 0.86486 0.0756 0.22652 0.0
H3850 H 0.88956 0.16701 0.28559 0.0
H3851 H 0.88409 0.14514 0.30604 0.0
H3852 H 0.91207 0.15435 0.29564 0.0
H3853 H 0.82721 0.07852 0.22389 0.0
H3854 H 0.81846 0.08706 0.25047 0.0
H3855 H 0.82488 0.10912 0.23023 0.0
H3856 H 0.80736 0.12924 0.31308 0.0
H3857 H 0.82259 0.18105 0.2634 0.0
H3858 H 0.85437 0.10623 0.30866 0.0
H3859 H 0.83242 0.08627 0.28972 0.0
H3860 H 0.8251 0.09753 0.31601 0.0
H3861 H 0.87328 0.16807 0.24778 0.0
H3862 H 0.85133 0.1822 0.23936 0.0
H3863 H 0.84964 0.15127 0.22884 0.0
C3864 C 0.73166 0.12531 0.07503 0.0
C3865 C 0.74682 0.11906 0.06079 0.0
C3866 C 0.70793 0.11494 0.07097 0.0
C3867 C 0.69926 0.09813 0.05212 0.0
C3868 C 0.71452 0.0913 0.03797 0.0
C3869 C 0.73819 0.1018 0.04255 0.0
C3870 C 0.69214 0.12235 0.08659 0.0
C3871 C 0.70581 0.07346 0.01769 0.0
C3872 C 0.63851 0.05724 0.05146 0.0
C3873 C 0.62624 0.07011 0.03885 0.0
C3874 C 0.66235 0.06603 0.05573 0.0
C3875 C 0.67418 0.08809 0.047 0.0
C3876 C 0.66198 0.10093 0.03389 0.0
C3877 C 0.63807 0.09183 0.03005 0.0
C3878 C 0.6748 0.05198 0.06994 0.0
C3879 C 0.67415 0.12444 0.02417 0.0
H3880 H 0.73832 0.1386 0.08919 0.0
H3881 H 0.74991 0.09701 0.03148 0.0
H3882 H 0.68108 0.13181 0.07751 0.0
H3883 H 0.68065 0.10582 0.0929 0.0
H3884 H 0.7017 0.13481 0.10103 0.0
H3885 H 0.71998 0.06949 0.0088 0.0
H3886 H 0.69459 0.05591 0.02254 0.0
H3887 H 0.69527 0.08109 0.006 0.0
H3888 H 0.62945 0.04047 0.0584 0.0
H3889 H 0.62867 0.10178 0.02023 0.0
H3890 H 0.68333 0.06365 0.08517 0.0
H3891 H 0.68842 0.04722 0.06077 0.0
H3892 H 0.6631 0.03479 0.07499 0.0
H3893 H 0.68265 0.13866 0.03778 0.0
H3894 H 0.66226 0.13167 0.01365 0.0
H3895 H 0.68776 0.12132 0.01395 0.0
C3896 C 0.21943 0.51428 0.3079 0.0
C3897 C 0.20312 0.50502 0.28977 0.0
C3898 C 0.23613 0.50242 0.31354 0.0
C3899 C 0.2363 0.48075 0.30083 0.0
C3900 C 0.2195 0.47099 0.28286 0.0
C3901 C 0.20315 0.48333 0.27748 0.0
C3902 C 0.25391 0.51338 0.3327 0.0
C3903 C 0.21904 0.44775 0.26907 0.0
C3904 C 0.28993 0.46016 0.29639 0.0
C3905 C 0.28571 0.44048 0.30989 0.0
C3906 C 0.27453 0.47436 0.29422 0.0
C3907 C 0.25441 0.46851 0.30572 0.0
C3908 C 0.25067 0.44946 0.32028 0.0
C3909 C 0.26644 0.43566 0.32223 0.0
C3910 C 0.27919 0.49475 0.27874 0.0
C3911 C 0.22935 0.44266 0.33273 0.0
H3912 H 0.21947 0.53111 0.31738 0.0
H3913 H 0.1905 0.4761 0.2635 0.0
H3914 H 0.25402 0.49953 0.34486 0.0
H3915 H 0.27122 0.51881 0.32648 0.0
H3916 H 0.25081 0.52977 0.34148 0.0
H3917 H 0.20427 0.44209 0.25624 0.0
H3918 H 0.23511 0.4505 0.2606 0.0
H3919 H 0.21811 0.43252 0.27996 0.0
H3920 H 0.30498 0.46401 0.28703 0.0
H3921 H 0.26305 0.42026 0.33251 0.0
H3922 H 0.27729 0.5119 0.28716 0.0
H3923 H 0.26647 0.48963 0.26402 0.0
H3924 H 0.29666 0.49854 0.27285 0.0
H3925 H 0.22664 0.45925 0.34146 0.0
H3926 H 0.23021 0.42919 0.34511 0.0
H3927 H 0.21416 0.43452 0.32074 0.0
C3928 C 0.26941 0.44002 0.04726 0.0
C3929 C 0.26238 0.41471 0.04096 0.0
C3930 C 0.25396 0.45436 0.04569 0.0
C3931 C 0.23081 0.44317 0.03763 0.0
C3932 C 0.22348 0.41751 0.03166 0.0
C3933 C 0.23934 0.4036 0.03338 0.0
C3934 C 0.26255 0.48161 0.05222 0.0
C3935 C 0.19897 0.40483 0.02307 0.0
C3936 C 0.18722 0.47849 0.04954 0.0
C3937 C 0.18539 0.48951 0.02955 0.0
C3938 C 0.20161 0.46308 0.05229 0.0
C3939 C 0.21458 0.45854 0.03468 0.0
C3940 C 0.21261 0.46935 0.01438 0.0
C3941 C 0.19806 0.48461 0.01206 0.0
C3942 C 0.2032 0.45195 0.0742 0.0
C3943 C 0.22606 0.46499 0.99515 0.0
H3944 H 0.28717 0.44878 0.05314 0.0
H3945 H 0.23376 0.38407 0.02847 0.0
H3946 H 0.26074 0.49196 0.03754 0.0
H3947 H 0.25206 0.4869 0.06497 0.0
H3948 H 0.28082 0.48736 0.05894 0.0
H3949 H 0.19572 0.38464 0.02007 0.0
H3950 H 0.18708 0.40855 0.03512 0.0
H3951 H 0.19482 0.41224 0.00724 0.0
H3952 H 0.17773 0.48231 0.06325 0.0
H3953 H 0.1965 0.49262 0.99641 0.0
H3954 H 0.22098 0.45878 0.08214 0.0
H3955 H 0.19921 0.43168 0.07139 0.0
H3956 H 0.19132 0.45643 0.08593 0.0
H3957 H 0.24471 0.47178 1.00021 0.0
H3958 H 0.22227 0.47431 0.98032 0.0
H3959 H 0.22211 0.44501 0.99036 0.0
C3960 C 0.88394 0.96903 0.22447 0.0
C3961 C 0.90652 0.98008 0.23333 0.0
C3962 C 0.87225 0.94526 0.22939 0.0
C3963 C 0.88328 0.93269 0.24398 0.0
C3964 C 0.90638 0.94345 0.25231 0.0
C3965 C 0.91785 0.96696 0.24662 0.0
C3966 C 0.84783 0.93403 0.2197 0.0
C3967 C 0.91854 0.93076 0.26824 0.0
C3968 C 0.8449 0.88663 0.27776 0.0
C3969 C 0.84555 0.86437 0.267 0.0
C3970 C 0.85736 0.90906 0.27055 0.0
C3971 C 0.87017 0.90906 0.25177 0.0
C3972 C 0.87057 0.88659 0.24063 0.0
C3973 C 0.85847 0.86446 0.24858 0.0
C3974 C 0.85697 0.93271 0.28314 0.0
C3975 C 0.88357 0.88594 0.22022 0.0
H3976 H 0.87525 0.97919 0.2141 0.0
H3977 H 0.93527 0.97562 0.25363 0.0
H3978 H 0.84561 0.91509 0.21227 0.0
H3979 H 0.83601 0.93275 0.23311 0.0
H3980 H 0.84268 0.945 0.20675 0.0
H3981 H 0.93689 0.94103 0.2722 0.0
H3982 H 0.90998 0.92887 0.28398 0.0
H3983 H 0.91751 0.91198 0.26118 0.0
H3984 H 0.83498 0.88651 0.29207 0.0
H3985 H 0.85875 0.84718 0.24009 0.0
H3986 H 0.84966 0.94396 0.272 0.0
H3987 H 0.87473 0.94365 0.28894 0.0
H3988 H 0.84671 0.92946 0.2978 0.0
H3989 H 0.87737 0.89613 0.20722 0.0
H3990 H 0.88164 0.86689 0.21318 0.0
H3991 H 0.90208 0.8952 0.22437 0.0
C3992 C 0.72074 0.11654 0.75278 0.0
C3993 C 0.69846 0.11143 0.75964 0.0
C3994 C 0.73521 0.14062 0.75469 0.0
C3995 C 0.72701 0.16002 0.76329 0.0
C3996 C 0.70416 0.15509 0.76929 0.0
C3997 C 0.6902 0.13076 0.76759 0.0
C3998 C 0.75957 0.14516 0.74838 0.0
C3999 C 0.69468 0.1754 0.77811 0.0
C4000 C 0.76952 0.21729 0.79185 0.0
C4001 C 0.77188 0.23346 0.77499 0.0
C4002 C 0.75522 0.19318 0.78811 0.0
C4003 C 0.74268 0.18529 0.76716 0.0
C4004 C 0.74498 0.20156 0.75008 0.0
C4005 C 0.75975 0.22542 0.75414 0.0
C4006 C 0.75349 0.17617 0.80661 0.0
C4007 C 0.73156 0.19391 0.72767 0.0
H4008 H 0.7272 0.10158 0.74672 0.0
H4009 H 0.67292 0.12684 0.77279 0.0
H4010 H 0.76332 0.15943 0.73632 0.0
H4011 H 0.77167 0.15216 0.76337 0.0
H4012 H 0.76293 0.12825 0.74094 0.0
H4013 H 0.67605 0.16875 0.78029 0.0
H4014 H 0.70388 0.18354 0.79443 0.0
H4015 H 0.69748 0.19029 0.76664 0.0
H4016 H 0.77896 0.22343 0.80795 0.0
H4017 H 0.76139 0.23797 0.74111 0.0
H4018 H 0.75798 0.15931 0.8008 0.0
H4019 H 0.73559 0.17038 0.81135 0.0
H4020 H 0.76497 0.18492 0.82165 0.0
H4021 H 0.73555 0.17758 0.71982 0.0
H4022 H 0.73534 0.20879 0.71617 0.0
H4023 H 0.71291 0.18858 0.72981 0.0
loop_
_geom_bond_atom_site_label_1
_geom_bond_atom_site_label_2
_geom_bond_distance
_geom_bond_site_symmetry_2
_ccdc_geom_bond_type
In0 O1 2.294 . S
In0 O2 2.326 . S
In0 O6 2.266 . S
In0 O7 2.374 . S
In0 O8 2.266 . S
In0 O9 2.326 . S
In0 O11 2.294 . S
In0 O12 2.326 . S
O1 In0 2.294 . S
O1 C10 1.240 . S
O2 In0 2.326 . S
O2 C10 1.252 . S
C3 O6 1.252 1_655 S
C3 O7 1.256 1_655 S
C4 O11 1.240 . S
C4 O12 1.252 . S
C5 O8 1.252 . S
C5 O9 1.260 . S
O6 In0 2.266 . S
O6 C3 1.252 1_455 S
O7 In0 2.374 . S
O7 C3 1.256 1_455 S
O8 In0 2.266 . S
O8 C5 1.252 . S
O9 In0 2.326 . S
O9 C5 1.260 . S
C10 O1 1.240 . S
C10 O2 1.252 . S
O11 In0 2.294 . S
O11 C4 1.240 . S
O12 In0 2.326 . S
O12 C4 1.252 . S
In13 O14 2.294 . S
In13 O15 2.326 . S
In13 O19 2.266 . S
In13 O20 2.326 . S
In13 O21 2.266 . S
In13 O22 2.326 . S
In13 O24 2.294 . S
In13 O25 2.326 . S
O14 In13 2.294 . S
O14 C23 1.240 . S
O15 In13 2.326 . S
O15 C23 1.252 . S
C16 O19 1.252 . S
C16 O20 1.260 . S
C17 O24 1.240 . S
C17 O25 1.252 . S
C18 O21 1.252 . S
C18 O22 1.260 . S
O19 In13 2.266 . S
O19 C16 1.252 . S
O20 In13 2.326 . S
O20 C16 1.260 . S
O21 In13 2.266 . S
O21 C18 1.252 . S
O22 In13 2.326 . S
O22 C18 1.260 . S
C23 O14 1.240 . S
C23 O15 1.252 . S
O24 In13 2.294 . S
O24 C17 1.240 . S
O25 In13 2.326 . S
O25 C17 1.252 . S
In26 O27 2.294 . S
In26 O28 2.326 . S
In26 O32 2.266 . S
In26 O33 2.326 . S
In26 O34 2.266 . S
In26 O35 2.326 . S
In26 O37 2.294 . S
In26 O38 2.326 . S
O27 In26 2.294 . S
O27 C36 1.240 . S
O28 In26 2.326 . S
O28 C36 1.252 . S
C29 O32 1.252 . S
C29 O33 1.260 . S
C30 O37 1.240 . S
C30 O38 1.252 . S
C31 O34 1.252 . S
C31 O35 1.260 . S
O32 In26 2.266 . S
O32 C29 1.252 . S
O33 In26 2.326 . S
O33 C29 1.260 . S
O34 In26 2.266 . S
O34 C31 1.252 . S
O35 In26 2.326 . S
O35 C31 1.260 . S
C36 O27 1.240 . S
C36 O28 1.252 . S
O37 In26 2.294 . S
O37 C30 1.240 . S
O38 In26 2.326 . S
O38 C30 1.252 . S
In39 O40 2.294 . S
In39 O41 2.326 . S
In39 O45 2.266 . S
In39 O46 2.326 . S
In39 O47 2.266 . S
In39 O48 2.326 . S
In39 O50 2.294 . S
In39 O51 2.326 . S
O40 In39 2.294 . S
O40 C49 1.240 . S
O41 In39 2.326 . S
O41 C49 1.252 . S
C42 O45 1.252 . S
C42 O46 1.260 . S
C43 O50 1.240 . S
C43 O51 1.252 . S
C44 O47 1.252 . S
C44 O48 1.260 . S
O45 In39 2.266 . S
O45 C42 1.252 . S
O46 In39 2.326 . S
O46 C42 1.260 . S
O47 In39 2.266 . S
O47 C44 1.252 . S
O48 In39 2.326 . S
O48 C44 1.260 . S
C49 O40 1.240 . S
C49 O41 1.252 . S
O50 In39 2.294 . S
O50 C43 1.240 . S
O51 In39 2.326 . S
O51 C43 1.252 . S
In52 O53 2.294 . S
In52 O54 2.326 . S
In52 O58 2.266 . S
In52 O59 2.326 . S
In52 O60 2.266 . S
In52 O61 2.326 . S
In52 O63 2.294 . S
In52 O64 2.326 . S
O53 In52 2.294 . S
O53 C62 1.240 . S
O54 In52 2.326 . S
O54 C62 1.252 . S
C55 O58 1.252 . S
C55 O59 1.260 . S
C56 O63 1.240 . S
C56 O64 1.252 . S
C57 O60 1.252 . S
C57 O61 1.260 . S
O58 In52 2.266 . S
O58 C55 1.252 . S
O59 In52 2.326 . S
O59 C55 1.260 . S
O60 In52 2.266 . S
O60 C57 1.252 . S
O61 In52 2.326 . S
O61 C57 1.260 . S
C62 O53 1.240 . S
C62 O54 1.252 . S
O63 In52 2.294 . S
O63 C56 1.240 . S
O64 In52 2.326 . S
O64 C56 1.252 . S
In65 O66 2.294 . S
In65 O67 2.326 . S
In65 O71 2.266 . S
In65 O72 2.326 . S
In65 O73 2.266 . S
In65 O74 2.326 . S
In65 O76 2.294 . S
In65 O77 2.326 . S
O66 In65 2.294 . S
O66 C75 1.240 . S
O67 In65 2.326 . S
O67 C75 1.252 . S
C68 O71 1.252 . S
C68 O72 1.260 . S
C69 O76 1.240 . S
C69 O77 1.252 . S
C70 O73 1.252 . S
C70 O74 1.260 . S
O71 In65 2.266 . S
O71 C68 1.252 . S
O72 In65 2.326 . S
O72 C68 1.260 . S
O73 In65 2.266 . S
O73 C70 1.252 . S
O74 In65 2.326 . S
O74 C70 1.260 . S
C75 O66 1.240 . S
C75 O67 1.252 . S
O76 In65 2.294 . S
O76 C69 1.240 . S
O77 In65 2.326 . S
O77 C69 1.252 . S
In78 O79 2.294 . S
In78 O80 2.326 . S
In78 O84 2.266 . S
In78 O85 2.326 . S
In78 O86 2.266 . S
In78 O87 2.326 . S
In78 O89 2.294 . S
In78 O90 2.326 . S
O79 In78 2.294 . S
O79 C88 1.240 . S
O80 In78 2.326 . S
O80 C88 1.252 . S
C81 O84 1.252 . S
C81 O85 1.260 . S
C82 O89 1.240 . S
C82 O90 1.252 . S
C83 O86 1.252 . S
C83 O87 1.260 . S
O84 In78 2.266 . S
O84 C81 1.252 . S
O85 In78 2.326 . S
O85 C81 1.260 . S
O86 In78 2.266 . S
O86 C83 1.252 . S
O87 In78 2.326 . S
O87 C83 1.260 . S
C88 O79 1.240 . S
C88 O80 1.252 . S
O89 In78 2.294 . S
O89 C82 1.240 . S
O90 In78 2.326 . S
O90 C82 1.252 . S
In91 O92 2.295 . S
In91 O93 2.327 1_455 S
In91 O97 2.276 . S
In91 O98 2.325 . S
In91 O99 2.264 1_455 S
In91 O100 2.323 1_455 S
In91 O102 2.296 . S
In91 O103 2.329 . S
O92 In91 2.295 . S
O92 C101 1.240 1_455 S
O93 In91 2.327 1_655 S
O93 C101 1.253 . S
C94 O97 1.249 . S
C94 O98 1.260 . S
C95 O102 1.240 . S
C95 O103 1.252 . S
C96 O99 1.252 . S
C96 O100 1.260 . S
O97 In91 2.276 . S
O97 C94 1.249 . S
O98 In91 2.325 . S
O98 C94 1.260 . S
O99 In91 2.264 1_655 S
O99 C96 1.252 . S
O100 In91 2.323 1_655 S
O100 C96 1.260 . S
C101 O92 1.240 1_655 S
C101 O93 1.253 . S
O102 In91 2.296 . S
O102 C95 1.240 . S
O103 In91 2.329 . S
O103 C95 1.252 . S
In104 O105 2.294 . S
In104 O106 2.326 . S
In104 O110 2.266 . S
In104 O111 2.326 . S
In104 O112 2.266 1_545 S
In104 O113 2.326 1_545 S
In104 O115 2.294 . S
In104 O116 2.326 . S
O105 In104 2.294 . S
O105 C114 1.240 . S
O106 In104 2.326 . S
O106 C114 1.252 . S
C107 O110 1.252 . S
C107 O111 1.260 . S
C108 O115 1.240 . S
C108 O116 1.252 . S
C109 O112 1.252 . S
C109 O113 1.260 . S
O110 In104 2.266 . S
O110 C107 1.252 . S
O111 In104 2.326 . S
O111 C107 1.260 . S
O112 In104 2.266 1_565 S
O112 C109 1.252 . S
O113 In104 2.326 1_565 S
O113 C109 1.260 . S
C114 O105 1.240 . S
C114 O106 1.252 . S
O115 In104 2.294 . S
O115 C108 1.240 . S
O116 In104 2.326 . S
O116 C108 1.252 . S
In117 O118 2.294 . S
In117 O119 2.326 . S
In117 O123 2.266 . S
In117 O124 2.326 . S
In117 O125 2.266 . S
In117 O126 2.326 . S
In117 O128 2.294 . S
In117 O129 2.326 . S
O118 In117 2.294 . S
O118 C127 1.240 . S
O119 In117 2.326 . S
O119 C127 1.252 . S
C120 O123 1.252 . S
C120 O124 1.260 . S
C121 O128 1.240 . S
C121 O129 1.252 . S
C122 O125 1.252 . S
C122 O126 1.260 . S
O123 In117 2.266 . S
O123 C120 1.252 . S
O124 In117 2.326 . S
O124 C120 1.260 . S
O125 In117 2.266 . S
O125 C122 1.252 . S
O126 In117 2.326 . S
O126 C122 1.260 . S
C127 O118 1.240 . S
C127 O119 1.252 . S
O128 In117 2.294 . S
O128 C121 1.240 . S
O129 In117 2.326 . S
O129 C121 1.252 . S
In130 O131 2.294 . S
In130 O132 2.326 . S
In130 O136 2.266 . S
In130 O137 2.326 . S
In130 O138 2.266 . S
In130 O139 2.326 . S
In130 O141 2.294 . S
In130 O142 2.326 . S
O131 In130 2.294 . S
O131 C140 1.240 . S
O132 In130 2.326 . S
O132 C140 1.252 . S
C133 O136 1.252 . S
C133 O137 1.260 . S
C134 O141 1.240 . S
C134 O142 1.252 . S
C135 O138 1.252 . S
C135 O139 1.260 . S
O136 In130 2.266 . S
O136 C133 1.252 . S
O137 In130 2.326 . S
O137 C133 1.260 . S
O138 In130 2.266 . S
O138 C135 1.252 . S
O139 In130 2.326 . S
O139 C135 1.260 . S
C140 O131 1.240 . S
C140 O132 1.252 . S
O141 In130 2.294 . S
O141 C134 1.240 . S
O142 In130 2.326 . S
O142 C134 1.252 . S
In143 O144 2.297 . S
In143 O145 2.332 . S
In143 O149 2.263 1_554 S
In143 O150 2.320 1_554 S
In143 O151 2.265 1_554 S
In143 O152 2.325 1_554 S
In143 O154 2.295 . S
In143 O155 2.327 . S
O144 In143 2.297 . S
O144 C153 1.240 . S
O145 In143 2.332 . S
O145 C153 1.252 . S
C146 O149 1.252 . S
C146 O150 1.260 . S
C147 O154 1.240 . S
C147 O155 1.252 . S
C148 O151 1.252 . S
C148 O152 1.260 . S
O149 In143 2.263 1_556 S
O149 C146 1.252 . S
O150 In143 2.320 1_556 S
O150 C146 1.260 . S
O151 In143 2.265 1_556 S
O151 C148 1.252 . S
O152 In143 2.325 1_556 S
O152 C148 1.260 . S
C153 O144 1.240 . S
C153 O145 1.252 . S
O154 In143 2.295 . S
O154 C147 1.240 . S
O155 In143 2.327 . S
O155 C147 1.252 . S
In156 O157 2.294 . S
In156 O158 2.326 . S
In156 O162 2.266 . S
In156 O163 2.326 1_554 S
In156 O164 2.266 . S
In156 O165 2.326 . S
In156 O167 2.294 . S
In156 O168 2.326 . S
O157 In156 2.294 . S
O157 C166 1.240 . S
O158 In156 2.326 . S
O158 C166 1.252 . S
C159 O162 1.252 1_556 S
C159 O163 1.260 . S
C160 O167 1.240 . S
C160 O168 1.252 . S
C161 O164 1.252 . S
C161 O165 1.260 . S
O162 In156 2.266 . S
O162 C159 1.252 1_554 S
O163 In156 2.326 1_556 S
O163 C159 1.260 . S
O164 In156 2.266 . S
O164 C161 1.252 . S
O165 In156 2.326 . S
O165 C161 1.260 . S
C166 O157 1.240 . S
C166 O158 1.252 . S
O167 In156 2.294 . S
O167 C160 1.240 . S
O168 In156 2.326 . S
O168 C160 1.252 . S
In169 O170 2.294 . S
In169 O171 2.326 . S
In169 O175 2.266 . S
In169 O176 2.326 . S
In169 O177 2.266 . S
In169 O178 2.326 . S
In169 O180 2.294 . S
In169 O181 2.326 . S
O170 In169 2.294 . S
O170 C179 1.240 . S
O171 In169 2.326 . S
O171 C179 1.252 . S
C172 O175 1.252 . S
C172 O176 1.260 . S
C173 O180 1.240 . S
C173 O181 1.252 . S
C174 O177 1.252 . S
C174 O178 1.260 . S
O175 In169 2.266 . S
O175 C172 1.252 . S
O176 In169 2.326 . S
O176 C172 1.260 . S
O177 In169 2.266 . S
O177 C174 1.252 . S
O178 In169 2.326 . S
O178 C174 1.260 . S
C179 O170 1.240 . S
C179 O171 1.252 . S
O180 In169 2.294 . S
O180 C173 1.240 . S
O181 In169 2.326 . S
O181 C173 1.252 . S
In182 O183 2.294 . S
In182 O184 2.326 . S
In182 O188 2.266 . S
In182 O189 2.326 . S
In182 O190 2.266 . S
In182 O191 2.326 . S
In182 O193 2.294 . S
In182 O194 2.326 . S
O183 In182 2.294 . S
O183 C192 1.240 . S
O184 In182 2.326 . S
O184 C192 1.252 . S
C185 O188 1.252 . S
C185 O189 1.260 . S
C186 O193 1.240 . S
C186 O194 1.252 . S
C187 O190 1.252 . S
C187 O191 1.260 . S
O188 In182 2.266 . S
O188 C185 1.252 . S
O189 In182 2.326 . S
O189 C185 1.260 . S
O190 In182 2.266 . S
O190 C187 1.252 . S
O191 In182 2.326 . S
O191 C187 1.260 . S
C192 O183 1.240 . S
C192 O184 1.252 . S
O193 In182 2.294 . S
O193 C186 1.240 . S
O194 In182 2.326 . S
O194 C186 1.252 . S
In195 O196 2.294 . S
In195 O197 2.326 . S
In195 O201 2.266 . S
In195 O202 2.326 . S
In195 O203 2.266 . S
In195 O204 2.326 . S
In195 O206 2.294 . S
In195 O207 2.326 . S
O196 In195 2.294 . S
O196 C205 1.240 . S
O197 In195 2.326 . S
O197 C205 1.252 . S
C198 O201 1.252 . S
C198 O202 1.260 . S
C199 O206 1.240 . S
C199 O207 1.252 . S
C200 O203 1.252 . S
C200 O204 1.260 . S
O201 In195 2.266 . S
O201 C198 1.252 . S
O202 In195 2.326 . S
O202 C198 1.260 . S
O203 In195 2.266 . S
O203 C200 1.252 . S
O204 In195 2.326 . S
O204 C200 1.260 . S
C205 O196 1.240 . S
C205 O197 1.252 . S
O206 In195 2.294 . S
O206 C199 1.240 . S
O207 In195 2.326 . S
O207 C199 1.252 . S
In208 O209 2.294 . S
In208 O210 2.326 . S
In208 O214 2.266 . S
In208 O215 2.326 . S
In208 O216 2.266 1_545 S
In208 O217 2.326 1_545 S
In208 O219 2.294 . S
In208 O220 2.326 . S
O209 In208 2.294 . S
O209 C218 1.240 . S
O210 In208 2.326 . S
O210 C218 1.252 . S
C211 O214 1.252 . S
C211 O215 1.260 . S
C212 O219 1.240 . S
C212 O220 1.252 . S
C213 O216 1.252 . S
C213 O217 1.260 . S
O214 In208 2.266 . S
O214 C211 1.252 . S
O215 In208 2.326 . S
O215 C211 1.260 . S
O216 In208 2.266 1_565 S
O216 C213 1.252 . S
O217 In208 2.326 1_565 S
O217 C213 1.260 . S
C218 O209 1.240 . S
C218 O210 1.252 . S
O219 In208 2.294 . S
O219 C212 1.240 . S
O220 In208 2.326 . S
O220 C212 1.252 . S
In221 O222 2.294 . S
In221 O223 2.326 . S
In221 O227 2.266 . S
In221 O228 2.326 . S
In221 O229 2.266 . S
In221 O230 2.326 . S
In221 O232 2.294 . S
In221 O233 2.326 . S
O222 In221 2.294 . S
O222 C231 1.240 . S
O223 In221 2.326 . S
O223 C231 1.252 . S
C224 O227 1.252 . S
C224 O228 1.260 . S
C225 O232 1.240 . S
C225 O233 1.252 . S
C226 O229 1.252 . S
C226 O230 1.260 . S
O227 In221 2.266 . S
O227 C224 1.252 . S
O228 In221 2.326 . S
O228 C224 1.260 . S
O229 In221 2.266 . S
O229 C226 1.252 . S
O230 In221 2.326 . S
O230 C226 1.260 . S
C231 O222 1.240 . S
C231 O223 1.252 . S
O232 In221 2.294 . S
O232 C225 1.240 . S
O233 In221 2.326 . S
O233 C225 1.252 . S
In234 O235 2.294 . S
In234 O236 2.326 . S
In234 O240 2.266 . S
In234 O241 2.326 . S
In234 O242 2.266 . S
In234 O243 2.326 . S
In234 O245 2.294 . S
In234 O246 2.326 . S
O235 In234 2.294 . S
O235 C244 1.240 . S
O236 In234 2.326 . S
O236 C244 1.252 . S
C237 O240 1.252 . S
C237 O241 1.260 . S
C238 O245 1.240 . S
C238 O246 1.252 . S
C239 O242 1.252 . S
C239 O243 1.260 . S
O240 In234 2.266 . S
O240 C237 1.252 . S
O241 In234 2.326 . S
O241 C237 1.260 . S
O242 In234 2.266 . S
O242 C239 1.252 . S
O243 In234 2.326 . S
O243 C239 1.260 . S
C244 O235 1.240 . S
C244 O236 1.252 . S
O245 In234 2.294 . S
O245 C238 1.240 . S
O246 In234 2.326 . S
O246 C238 1.252 . S
In247 O248 2.294 . S
In247 O249 2.326 . S
In247 O253 2.266 . S
In247 O254 2.326 . S
In247 O255 2.266 . S
In247 O256 2.326 . S
In247 O258 2.294 . S
In247 O259 2.326 . S
O248 In247 2.294 . S
O248 C257 1.240 . S
O249 In247 2.326 . S
O249 C257 1.252 . S
C250 O253 1.252 . S
C250 O254 1.260 . S
C251 O258 1.240 . S
C251 O259 1.252 . S
C252 O255 1.252 . S
C252 O256 1.260 . S
O253 In247 2.266 . S
O253 C250 1.252 . S
O254 In247 2.326 . S
O254 C250 1.260 . S
O255 In247 2.266 . S
O255 C252 1.252 . S
O256 In247 2.326 . S
O256 C252 1.260 . S
C257 O248 1.240 . S
C257 O249 1.252 . S
O258 In247 2.294 . S
O258 C251 1.240 . S
O259 In247 2.326 . S
O259 C251 1.252 . S
In260 O261 2.294 . S
In260 O262 2.326 . S
In260 O266 2.266 . S
In260 O267 2.326 . S
In260 O268 2.266 . S
In260 O269 2.326 1_554 S
In260 O271 2.294 . S
In260 O272 2.326 . S
O261 In260 2.294 . S
O261 C270 1.240 . S
O262 In260 2.326 . S
O262 C270 1.252 . S
C263 O266 1.252 . S
C263 O267 1.260 . S
C264 O271 1.240 . S
C264 O272 1.252 . S
C265 O268 1.252 1_556 S
C265 O269 1.260 . S
O266 In260 2.266 . S
O266 C263 1.252 . S
O267 In260 2.326 . S
O267 C263 1.260 . S
O268 In260 2.266 . S
O268 C265 1.252 1_554 S
O269 In260 2.326 1_556 S
O269 C265 1.260 . S
C270 O261 1.240 . S
C270 O262 1.252 . S
O271 In260 2.294 . S
O271 C264 1.240 . S
O272 In260 2.326 . S
O272 C264 1.252 . S
In273 O274 2.294 . S
In273 O275 2.326 . S
In273 O279 2.266 . S
In273 O280 2.326 . S
In273 O281 2.266 . S
In273 O282 2.326 . S
In273 O284 2.294 . S
In273 O285 2.326 . S
O274 In273 2.294 . S
O274 C283 1.240 . S
O275 In273 2.326 . S
O275 C283 1.252 . S
C276 O279 1.252 . S
C276 O280 1.260 . S
C277 O284 1.240 . S
C277 O285 1.252 . S
C278 O281 1.252 . S
C278 O282 1.260 . S
O279 In273 2.266 . S
O279 C276 1.252 . S
O280 In273 2.326 . S
O280 C276 1.260 . S
O281 In273 2.266 . S
O281 C278 1.252 . S
O282 In273 2.326 . S
O282 C278 1.260 . S
C283 O274 1.240 . S
C283 O275 1.252 . S
O284 In273 2.294 . S
O284 C277 1.240 . S
O285 In273 2.326 . S
O285 C277 1.252 . S
In286 O287 2.294 . S
In286 O288 2.326 . S
In286 O292 2.266 . S
In286 O293 2.326 . S
In286 O294 2.266 . S
In286 O295 2.326 . S
In286 O297 2.294 . S
In286 O298 2.326 . S
O287 In286 2.294 . S
O287 C296 1.240 . S
O288 In286 2.326 . S
O288 C296 1.252 . S
C289 O292 1.252 . S
C289 O293 1.260 . S
C290 O297 1.240 . S
C290 O298 1.252 . S
C291 O294 1.252 . S
C291 O295 1.260 . S
O292 In286 2.266 . S
O292 C289 1.252 . S
O293 In286 2.326 . S
O293 C289 1.260 . S
O294 In286 2.266 . S
O294 C291 1.252 . S
O295 In286 2.326 . S
O295 C291 1.260 . S
C296 O287 1.240 . S
C296 O288 1.252 . S
O297 In286 2.294 . S
O297 C290 1.240 . S
O298 In286 2.326 . S
O298 C290 1.252 . S
In299 O300 2.294 . S
In299 O301 2.326 . S
In299 O305 2.266 . S
In299 O306 2.326 . S
In299 O307 2.266 . S
In299 O308 2.326 . S
In299 O310 2.294 . S
In299 O311 2.326 . S
O300 In299 2.294 . S
O300 C309 1.240 . S
O301 In299 2.326 . S
O301 C309 1.252 . S
C302 O305 1.252 . S
C302 O306 1.260 . S
C303 O310 1.240 . S
C303 O311 1.252 . S
C304 O307 1.252 . S
C304 O308 1.260 . S
O305 In299 2.266 . S
O305 C302 1.252 . S
O306 In299 2.326 . S
O306 C302 1.260 . S
O307 In299 2.266 . S
O307 C304 1.252 . S
O308 In299 2.326 . S
O308 C304 1.260 . S
C309 O300 1.240 . S
C309 O301 1.252 . S
O310 In299 2.294 . S
O310 C303 1.240 . S
O311 In299 2.326 . S
O311 C303 1.252 . S
Tb312 C321 2.764 . S
Tb312 O322 2.325 . S
Tb312 O325 2.303 . S
Tb312 O329 2.322 . S
Tb312 O330 2.349 . S
Tb312 O333 2.415 . S
Tb312 O334 2.399 . S
Tb313 O323 2.322 . S
Tb313 O324 2.349 . S
Tb313 O326 2.415 1_455 S
Tb313 O327 2.399 1_455 S
Tb313 O328 2.325 . S
Tb313 O331 2.303 . S
Tb313 C342 2.764 1_455 S
C314 O330 1.261 . S
C314 O331 1.257 . S
C315 C318 1.358 . S
C315 C319 1.332 . S
C315 C321 1.504 . S
C316 C317 1.373 . S
C316 C320 1.308 . S
C317 C316 1.373 . S
C317 C318 1.429 . S
C317 H344 0.932 . S
C318 C315 1.358 . S
C318 C317 1.429 . S
C318 H345 0.930 . S
C319 C315 1.332 . S
C319 C320 1.394 . S
C319 H346 0.932 . S
C320 C316 1.308 . S
C320 C319 1.394 . S
C320 H347 0.929 . S
C321 Tb312 2.764 . S
C321 C315 1.504 . S
C321 O333 1.239 . S
C321 O334 1.263 . S
O322 Tb312 2.325 . S
O322 C332 1.236 . S
O323 Tb313 2.322 . S
O323 C332 1.257 . S
O324 Tb313 2.349 . S
O324 C335 1.261 . S
O325 Tb312 2.303 . S
O325 C335 1.257 . S
O326 Tb313 2.415 1_655 S
O326 C342 1.239 . S
O327 Tb313 2.399 1_655 S
O327 C342 1.263 . S
O328 Tb313 2.325 . S
O328 C343 1.236 . S
O329 Tb312 2.322 . S
O329 C343 1.257 . S
O330 Tb312 2.349 . S
O330 C314 1.261 . S
O331 Tb313 2.303 . S
O331 C314 1.257 . S
C332 O322 1.236 . S
C332 O323 1.257 . S
O333 Tb312 2.415 . S
O333 C321 1.239 . S
O334 Tb312 2.399 . S
O334 C321 1.263 . S
C335 O324 1.261 . S
C335 O325 1.257 . S
C336 C339 1.358 . S
C336 C340 1.332 . S
C336 C342 1.504 . S
C337 C338 1.364 1_554 S
C337 C341 1.308 . S
C338 C337 1.364 1_556 S
C338 C339 1.428 1_556 S
C338 H348 0.943 . S
C339 C336 1.358 . S
C339 C338 1.428 1_554 S
C339 H349 0.930 1_554 S
C340 C336 1.332 . S
C340 C341 1.394 . S
C340 H350 0.932 . S
C341 C337 1.308 . S
C341 C340 1.394 . S
C341 H351 0.929 . S
C342 Tb313 2.764 1_655 S
C342 O326 1.239 . S
C342 O327 1.263 . S
C342 C336 1.504 . S
C343 O328 1.236 . S
C343 O329 1.257 . S
H344 C317 0.932 . S
H345 C318 0.930 . S
H346 C319 0.932 . S
H347 C320 0.929 . S
H348 C338 0.943 . S
H349 C339 0.930 1_556 S
H350 C340 0.932 . S
H351 C341 0.929 . S
Tb352 C361 2.764 . S
Tb352 O362 2.325 . S
Tb352 O365 2.303 . S
Tb352 O369 2.322 . S
Tb352 O370 2.349 . S
Tb352 O373 2.415 . S
Tb352 O374 2.399 . S
Tb353 O363 2.322 . S
Tb353 O364 2.349 . S
Tb353 O366 2.415 . S
Tb353 O367 2.399 . S
Tb353 O368 2.325 . S
Tb353 O371 2.303 . S
Tb353 C382 2.764 . S
C354 O370 1.261 . S
C354 O371 1.257 . S
C355 C358 1.358 . S
C355 C359 1.332 . S
C355 C361 1.504 . S
C356 C357 1.373 . S
C356 C360 1.308 . S
C357 C356 1.373 . S
C357 C358 1.429 . S
C357 H384 0.932 . S
C358 C355 1.358 . S
C358 C357 1.429 . S
C358 H385 0.930 . S
C359 C355 1.332 . S
C359 C360 1.394 . S
C359 H386 0.932 . S
C360 C356 1.308 . S
C360 C359 1.394 . S
C360 H387 0.929 . S
C361 Tb352 2.764 . S
C361 C355 1.504 . S
C361 O373 1.239 . S
C361 O374 1.263 . S
O362 Tb352 2.325 . S
O362 C372 1.236 . S
O363 Tb353 2.322 . S
O363 C372 1.257 . S
O364 Tb353 2.349 . S
O364 C375 1.261 . S
O365 Tb352 2.303 . S
O365 C375 1.257 . S
O366 Tb353 2.415 . S
O366 C382 1.239 . S
O367 Tb353 2.399 . S
O367 C382 1.263 . S
O368 Tb353 2.325 . S
O368 C383 1.236 . S
O369 Tb352 2.322 . S
O369 C383 1.257 . S
O370 Tb352 2.349 . S
O370 C354 1.261 . S
O371 Tb353 2.303 . S
O371 C354 1.257 . S
C372 O362 1.236 . S
C372 O363 1.257 . S
O373 Tb352 2.415 . S
O373 C361 1.239 . S
O374 Tb352 2.399 . S
O374 C361 1.263 . S
C375 O364 1.261 . S
C375 O365 1.257 . S
C376 C379 1.358 . S
C376 C380 1.332 . S
C376 C382 1.504 . S
C377 C378 1.373 . S
C377 C381 1.308 . S
C378 C377 1.373 . S
C378 C379 1.429 . S
C378 H388 0.932 . S
C379 C376 1.358 . S
C379 C378 1.429 . S
C379 H389 0.930 . S
C380 C376 1.332 . S
C380 C381 1.394 . S
C380 H390 0.932 . S
C381 C377 1.308 . S
C381 C380 1.394 . S
C381 H391 0.929 . S
C382 Tb353 2.764 . S
C382 O366 1.239 . S
C382 O367 1.263 . S
C382 C376 1.504 . S
C383 O368 1.236 . S
C383 O369 1.257 . S
H384 C357 0.932 . S
H385 C358 0.930 . S
H386 C359 0.932 . S
H387 C360 0.929 . S
H388 C378 0.932 . S
H389 C379 0.930 . S
H390 C380 0.932 . S
H391 C381 0.929 . S
Tb392 C401 2.764 . S
Tb392 O402 2.325 . S
Tb392 O405 2.303 . S
Tb392 O409 2.322 1_545 S
Tb392 O410 2.349 . S
Tb392 O413 2.415 . S
Tb392 O414 2.399 . S
Tb393 O403 2.322 . S
Tb393 O404 2.349 . S
Tb393 O406 2.415 . S
Tb393 O407 2.399 . S
Tb393 O408 2.325 1_545 S
Tb393 O411 2.303 . S
Tb393 C422 2.764 . S
C394 O410 1.261 . S
C394 O411 1.257 . S
C395 C398 1.358 . S
C395 C399 1.332 . S
C395 C401 1.504 . S
C396 C397 1.373 . S
C396 C400 1.308 . S
C397 C396 1.373 . S
C397 C398 1.429 . S
C397 H424 0.932 . S
C398 C395 1.358 . S
C398 C397 1.429 . S
C398 H425 0.930 . S
C399 C395 1.332 . S
C399 C400 1.394 . S
C399 H426 0.932 . S
C400 C396 1.308 . S
C400 C399 1.394 . S
C400 H427 0.929 . S
C401 Tb392 2.764 . S
C401 C395 1.504 . S
C401 O413 1.239 . S
C401 O414 1.263 . S
O402 Tb392 2.325 . S
O402 C412 1.236 . S
O403 Tb393 2.322 . S
O403 C412 1.257 . S
O404 Tb393 2.349 . S
O404 C415 1.261 . S
O405 Tb392 2.303 . S
O405 C415 1.257 . S
O406 Tb393 2.415 . S
O406 C422 1.239 . S
O407 Tb393 2.399 . S
O407 C422 1.263 . S
O408 Tb393 2.325 1_565 S
O408 C423 1.236 . S
O409 Tb392 2.322 1_565 S
O409 C423 1.257 . S
O410 Tb392 2.349 . S
O410 C394 1.261 . S
O411 Tb393 2.303 . S
O411 C394 1.257 . S
C412 O402 1.236 . S
C412 O403 1.257 . S
O413 Tb392 2.415 . S
O413 C401 1.239 . S
O414 Tb392 2.399 . S
O414 C401 1.263 . S
C415 O404 1.261 . S
C415 O405 1.257 . S
C416 C419 1.358 . S
C416 C420 1.332 . S
C416 C422 1.504 1_565 S
C417 C418 1.373 . S
C417 C421 1.308 . S
C418 C417 1.373 . S
C418 C419 1.429 . S
C418 H428 0.932 . S
C419 C416 1.358 . S
C419 C418 1.429 . S
C419 H429 0.930 1_565 S
C420 C416 1.332 . S
C420 C421 1.394 . S
C420 H430 0.932 . S
C421 C417 1.308 . S
C421 C420 1.394 . S
C421 H431 0.929 . S
C422 Tb393 2.764 . S
C422 O406 1.239 . S
C422 O407 1.263 . S
C422 C416 1.504 1_545 S
C423 O408 1.236 . S
C423 O409 1.257 . S
H424 C397 0.932 . S
H425 C398 0.930 . S
H426 C399 0.932 . S
H427 C400 0.929 . S
H428 C418 0.932 . S
H429 C419 0.930 1_545 S
H430 C420 0.932 . S
H431 C421 0.929 . S
Tb432 C441 2.764 . S
Tb432 O442 2.325 . S
Tb432 O445 2.303 . S
Tb432 O449 2.322 . S
Tb432 O450 2.349 . S
Tb432 O453 2.415 . S
Tb432 O454 2.399 . S
Tb433 O443 2.322 . S
Tb433 O444 2.349 . S
Tb433 O446 2.415 . S
Tb433 O447 2.399 . S
Tb433 O448 2.325 . S
Tb433 O451 2.303 . S
Tb433 C462 2.764 . S
C434 O450 1.261 . S
C434 O451 1.257 . S
C435 C438 1.358 . S
C435 C439 1.332 . S
C435 C441 1.504 . S
C436 C437 1.373 . S
C436 C440 1.308 . S
C437 C436 1.373 . S
C437 C438 1.429 . S
C437 H464 0.932 . S
C438 C435 1.358 . S
C438 C437 1.429 . S
C438 H465 0.930 . S
C439 C435 1.332 . S
C439 C440 1.394 . S
C439 H466 0.932 . S
C440 C436 1.308 . S
C440 C439 1.394 . S
C440 H467 0.929 . S
C441 Tb432 2.764 . S
C441 C435 1.504 . S
C441 O453 1.239 . S
C441 O454 1.263 . S
O442 Tb432 2.325 . S
O442 C452 1.236 . S
O443 Tb433 2.322 . S
O443 C452 1.257 . S
O444 Tb433 2.349 . S
O444 C455 1.261 . S
O445 Tb432 2.303 . S
O445 C455 1.257 . S
O446 Tb433 2.415 . S
O446 C462 1.239 . S
O447 Tb433 2.399 . S
O447 C462 1.263 . S
O448 Tb433 2.325 . S
O448 C463 1.236 . S
O449 Tb432 2.322 . S
O449 C463 1.257 . S
O450 Tb432 2.349 . S
O450 C434 1.261 . S
O451 Tb433 2.303 . S
O451 C434 1.257 . S
C452 O442 1.236 . S
C452 O443 1.257 . S
O453 Tb432 2.415 . S
O453 C441 1.239 . S
O454 Tb432 2.399 . S
O454 C441 1.263 . S
C455 O444 1.261 . S
C455 O445 1.257 . S
C456 C459 1.358 . S
C456 C460 1.332 . S
C456 C462 1.504 . S
C457 C458 1.373 . S
C457 C461 1.308 . S
C458 C457 1.373 . S
C458 C459 1.429 . S
C458 H468 0.932 . S
C459 C456 1.358 . S
C459 C458 1.429 . S
C459 H469 0.930 . S
C460 C456 1.332 . S
C460 C461 1.394 . S
C460 H470 0.932 . S
C461 C457 1.308 . S
C461 C460 1.394 . S
C461 H471 0.929 . S
C462 Tb433 2.764 . S
C462 O446 1.239 . S
C462 O447 1.263 . S
C462 C456 1.504 . S
C463 O448 1.236 . S
C463 O449 1.257 . S
H464 C437 0.932 . S
H465 C438 0.930 . S
H466 C439 0.932 . S
H467 C440 0.929 . S
H468 C458 0.932 . S
H469 C459 0.930 . S
H470 C460 0.932 . S
H471 C461 0.929 . S
Tb472 C481 2.764 . S
Tb472 O482 2.325 . S
Tb472 O485 2.303 . S
Tb472 O489 2.322 . S
Tb472 O490 2.349 . S
Tb472 O493 2.415 . S
Tb472 O494 2.399 . S
Tb473 O483 2.322 1_545 S
Tb473 O484 2.349 . S
Tb473 O486 2.415 . S
Tb473 O487 2.399 . S
Tb473 O488 2.325 . S
Tb473 O491 2.303 . S
Tb473 C502 2.764 . S
C474 O490 1.261 . S
C474 O491 1.257 . S
C475 C478 1.358 . S
C475 C479 1.332 . S
C475 C481 1.504 . S
C476 C477 1.373 . S
C476 C480 1.308 . S
C477 C476 1.373 . S
C477 C478 1.429 . S
C477 H504 0.932 . S
C478 C475 1.358 . S
C478 C477 1.429 . S
C478 H505 0.930 . S
C479 C475 1.332 . S
C479 C480 1.394 . S
C479 H506 0.932 . S
C480 C476 1.308 . S
C480 C479 1.394 . S
C480 H507 0.929 . S
C481 Tb472 2.764 . S
C481 C475 1.504 . S
C481 O493 1.239 . S
C481 O494 1.263 . S
O482 Tb472 2.325 . S
O482 C492 1.236 1_545 S
O483 Tb473 2.322 1_565 S
O483 C492 1.257 . S
O484 Tb473 2.349 . S
O484 C495 1.261 . S
O485 Tb472 2.303 . S
O485 C495 1.257 . S
O486 Tb473 2.415 . S
O486 C502 1.239 . S
O487 Tb473 2.399 . S
O487 C502 1.263 . S
O488 Tb473 2.325 . S
O488 C503 1.236 . S
O489 Tb472 2.322 . S
O489 C503 1.257 . S
O490 Tb472 2.349 . S
O490 C474 1.261 . S
O491 Tb473 2.303 . S
O491 C474 1.257 . S
C492 O482 1.236 1_565 S
C492 O483 1.257 . S
O493 Tb472 2.415 . S
O493 C481 1.239 . S
O494 Tb472 2.399 . S
O494 C481 1.263 . S
C495 O484 1.261 . S
C495 O485 1.257 . S
C496 C499 1.358 . S
C496 C500 1.332 . S
C496 C502 1.504 . S
C497 C498 1.373 . S
C497 C501 1.308 1_455 S
C498 C497 1.373 . S
C498 C499 1.429 . S
C498 H508 0.932 . S
C499 C496 1.358 . S
C499 C498 1.429 . S
C499 H509 0.930 . S
C500 C496 1.332 . S
C500 C501 1.394 1_455 S
C500 H510 0.932 1_455 S
C501 C497 1.308 1_655 S
C501 C500 1.394 1_655 S
C501 H511 0.929 . S
C502 Tb473 2.764 . S
C502 O486 1.239 . S
C502 O487 1.263 . S
C502 C496 1.504 . S
C503 O488 1.236 . S
C503 O489 1.257 . S
H504 C477 0.932 . S
H505 C478 0.930 . S
H506 C479 0.932 . S
H507 C480 0.929 . S
H508 C498 0.932 . S
H509 C499 0.930 . S
H510 C500 0.932 1_655 S
H511 C501 0.929 . S
Tb512 C521 2.764 . S
Tb512 O522 2.325 . S
Tb512 O525 2.303 . S
Tb512 O529 2.322 . S
Tb512 O530 2.349 . S
Tb512 O533 2.415 . S
Tb512 O534 2.399 . S
Tb513 O523 2.322 . S
Tb513 O524 2.349 . S
Tb513 O526 2.415 . S
Tb513 O527 2.399 . S
Tb513 O528 2.325 . S
Tb513 O531 2.303 . S
Tb513 C542 2.764 . S
C514 O530 1.261 . S
C514 O531 1.257 . S
C515 C518 1.358 . S
C515 C519 1.332 . S
C515 C521 1.504 . S
C516 C517 1.373 . S
C516 C520 1.308 . S
C517 C516 1.373 . S
C517 C518 1.429 . S
C517 H544 0.932 . S
C518 C515 1.358 . S
C518 C517 1.429 . S
C518 H545 0.930 . S
C519 C515 1.332 . S
C519 C520 1.394 . S
C519 H546 0.932 . S
C520 C516 1.308 . S
C520 C519 1.394 . S
C520 H547 0.929 . S
C521 Tb512 2.764 . S
C521 C515 1.504 . S
C521 O533 1.239 . S
C521 O534 1.263 . S
O522 Tb512 2.325 . S
O522 C532 1.236 . S
O523 Tb513 2.322 . S
O523 C532 1.257 . S
O524 Tb513 2.349 . S
O524 C535 1.261 . S
O525 Tb512 2.303 . S
O525 C535 1.257 . S
O526 Tb513 2.415 . S
O526 C542 1.239 . S
O527 Tb513 2.399 . S
O527 C542 1.263 . S
O528 Tb513 2.325 . S
O528 C543 1.236 . S
O529 Tb512 2.322 . S
O529 C543 1.257 . S
O530 Tb512 2.349 . S
O530 C514 1.261 . S
O531 Tb513 2.303 . S
O531 C514 1.257 . S
C532 O522 1.236 . S
C532 O523 1.257 . S
O533 Tb512 2.415 . S
O533 C521 1.239 . S
O534 Tb512 2.399 . S
O534 C521 1.263 . S
C535 O524 1.261 . S
C535 O525 1.257 . S
C536 C539 1.358 . S
C536 C540 1.332 . S
C536 C542 1.504 . S
C537 C538 1.373 . S
C537 C541 1.308 . S
C538 C537 1.373 . S
C538 C539 1.429 . S
C538 H548 0.932 . S
C539 C536 1.358 . S
C539 C538 1.429 . S
C539 H549 0.930 . S
C540 C536 1.332 . S
C540 C541 1.394 . S
C540 H550 0.932 . S
C541 C537 1.308 . S
C541 C540 1.394 . S
C541 H551 0.929 . S
C542 Tb513 2.764 . S
C542 O526 1.239 . S
C542 O527 1.263 . S
C542 C536 1.504 . S
C543 O528 1.236 . S
C543 O529 1.257 . S
H544 C517 0.932 . S
H545 C518 0.930 . S
H546 C519 0.932 . S
H547 C520 0.929 . S
H548 C538 0.932 . S
H549 C539 0.930 . S
H550 C540 0.932 . S
H551 C541 0.929 . S
Tb552 C561 2.764 . S
Tb552 O562 2.325 . S
Tb552 O565 2.303 . S
Tb552 O569 2.322 . S
Tb552 O570 2.349 . S
Tb552 O573 2.415 . S
Tb552 O574 2.399 . S
Tb553 O563 2.322 1_556 S
Tb553 O564 2.349 . S
Tb553 O566 2.415 . S
Tb553 O567 2.399 . S
Tb553 O568 2.325 . S
Tb553 O571 2.303 1_556 S
Tb553 C582 2.764 . S
C554 O570 1.261 . S
C554 O571 1.257 . S
C555 C558 1.358 . S
C555 C559 1.332 . S
C555 C561 1.504 . S
C556 C557 1.373 . S
C556 C560 1.308 . S
C557 C556 1.373 . S
C557 C558 1.429 . S
C557 H584 0.932 . S
C558 C555 1.358 . S
C558 C557 1.429 . S
C558 H585 0.930 . S
C559 C555 1.332 . S
C559 C560 1.394 . S
C559 H586 0.932 . S
C560 C556 1.308 . S
C560 C559 1.394 . S
C560 H587 0.929 . S
C561 Tb552 2.764 . S
C561 C555 1.504 . S
C561 O573 1.239 . S
C561 O574 1.263 . S
O562 Tb552 2.325 . S
O562 C572 1.236 . S
O563 Tb553 2.322 1_554 S
O563 C572 1.257 . S
O564 Tb553 2.349 . S
O564 C575 1.261 1_556 S
O565 Tb552 2.303 . S
O565 C575 1.257 . S
O566 Tb553 2.415 . S
O566 C582 1.239 . S
O567 Tb553 2.399 . S
O567 C582 1.263 . S
O568 Tb553 2.325 . S
O568 C583 1.236 1_556 S
O569 Tb552 2.322 . S
O569 C583 1.257 . S
O570 Tb552 2.349 . S
O570 C554 1.261 . S
O571 Tb553 2.303 1_554 S
O571 C554 1.257 . S
C572 O562 1.236 . S
C572 O563 1.257 . S
O573 Tb552 2.415 . S
O573 C561 1.239 . S
O574 Tb552 2.399 . S
O574 C561 1.263 . S
C575 O564 1.261 1_554 S
C575 O565 1.257 . S
C576 C579 1.358 . S
C576 C580 1.332 . S
C576 C582 1.504 . S
C577 C578 1.373 . S
C577 C581 1.308 . S
C578 C577 1.373 . S
C578 C579 1.429 . S
C578 H588 0.932 . S
C579 C576 1.358 . S
C579 C578 1.429 . S
C579 H589 0.930 . S
C580 C576 1.332 . S
C580 C581 1.394 . S
C580 H590 0.932 . S
C581 C577 1.308 . S
C581 C580 1.394 . S
C581 H591 0.929 . S
C582 Tb553 2.764 . S
C582 O566 1.239 . S
C582 O567 1.263 . S
C582 C576 1.504 . S
C583 O568 1.236 1_554 S
C583 O569 1.257 . S
H584 C557 0.932 . S
H585 C558 0.930 . S
H586 C559 0.932 . S
H587 C560 0.929 . S
H588 C578 0.932 . S
H589 C579 0.930 . S
H590 C580 0.932 . S
H591 C581 0.929 . S
Tb592 C601 2.764 . S
Tb592 O602 2.325 . S
Tb592 O605 2.303 . S
Tb592 O609 2.322 . S
Tb592 O610 2.349 . S
Tb592 O613 2.415 . S
Tb592 O614 2.399 . S
Tb593 O603 2.322 . S
Tb593 O604 2.349 . S
Tb593 O606 2.415 . S
Tb593 O607 2.399 . S
Tb593 O608 2.325 . S
Tb593 O611 2.303 . S
Tb593 C622 2.764 . S
C594 O610 1.261 . S
C594 O611 1.257 . S
C595 C598 1.358 . S
C595 C599 1.332 . S
C595 C601 1.504 . S
C596 C597 1.373 . S
C596 C600 1.308 . S
C597 C596 1.373 . S
C597 C598 1.429 . S
C597 H624 0.932 . S
C598 C595 1.358 . S
C598 C597 1.429 . S
C598 H625 0.930 . S
C599 C595 1.332 . S
C599 C600 1.394 . S
C599 H626 0.932 . S
C600 C596 1.308 . S
C600 C599 1.394 . S
C600 H627 0.929 . S
C601 Tb592 2.764 . S
C601 C595 1.504 . S
C601 O613 1.239 . S
C601 O614 1.263 . S
O602 Tb592 2.325 . S
O602 C612 1.236 . S
O603 Tb593 2.322 . S
O603 C612 1.257 . S
O604 Tb593 2.349 . S
O604 C615 1.261 . S
O605 Tb592 2.303 . S
O605 C615 1.257 . S
O606 Tb593 2.415 . S
O606 C622 1.239 . S
O607 Tb593 2.399 . S
O607 C622 1.263 . S
O608 Tb593 2.325 . S
O608 C623 1.236 . S
O609 Tb592 2.322 . S
O609 C623 1.257 . S
O610 Tb592 2.349 . S
O610 C594 1.261 . S
O611 Tb593 2.303 . S
O611 C594 1.257 . S
C612 O602 1.236 . S
C612 O603 1.257 . S
O613 Tb592 2.415 . S
O613 C601 1.239 . S
O614 Tb592 2.399 . S
O614 C601 1.263 . S
C615 O604 1.261 . S
C615 O605 1.257 . S
C616 C619 1.358 . S
C616 C620 1.332 . S
C616 C622 1.504 . S
C617 C618 1.373 . S
C617 C621 1.308 . S
C618 C617 1.373 . S
C618 C619 1.429 . S
C618 H628 0.932 . S
C619 C616 1.358 . S
C619 C618 1.429 . S
C619 H629 0.930 . S
C620 C616 1.332 . S
C620 C621 1.394 . S
C620 H630 0.932 . S
C621 C617 1.308 . S
C621 C620 1.394 . S
C621 H631 0.929 . S
C622 Tb593 2.764 . S
C622 O606 1.239 . S
C622 O607 1.263 . S
C622 C616 1.504 . S
C623 O608 1.236 . S
C623 O609 1.257 . S
H624 C597 0.932 . S
H625 C598 0.930 . S
H626 C599 0.932 . S
H627 C600 0.929 . S
H628 C618 0.932 . S
H629 C619 0.930 . S
H630 C620 0.932 . S
H631 C621 0.929 . S
Tb632 C641 2.764 . S
Tb632 O642 2.325 . S
Tb632 O645 2.303 . S
Tb632 O649 2.322 . S
Tb632 O650 2.349 . S
Tb632 O653 2.415 . S
Tb632 O654 2.399 . S
Tb633 O643 2.322 1_556 S
Tb633 O644 2.349 . S
Tb633 O646 2.415 . S
Tb633 O647 2.399 . S
Tb633 O648 2.325 . S
Tb633 O651 2.303 1_556 S
Tb633 C662 2.764 . S
C634 O650 1.261 . S
C634 O651 1.257 . S
C635 C638 1.358 . S
C635 C639 1.332 . S
C635 C641 1.504 . S
C636 C637 1.373 . S
C636 C640 1.308 . S
C637 C636 1.373 . S
C637 C638 1.429 . S
C637 H664 0.932 . S
C638 C635 1.358 . S
C638 C637 1.429 . S
C638 H665 0.930 . S
C639 C635 1.332 . S
C639 C640 1.394 . S
C639 H666 0.932 . S
C640 C636 1.308 . S
C640 C639 1.394 . S
C640 H667 0.929 . S
C641 Tb632 2.764 . S
C641 C635 1.504 . S
C641 O653 1.239 . S
C641 O654 1.263 . S
O642 Tb632 2.325 . S
O642 C652 1.236 . S
O643 Tb633 2.322 1_554 S
O643 C652 1.257 . S
O644 Tb633 2.349 . S
O644 C655 1.261 1_556 S
O645 Tb632 2.303 . S
O645 C655 1.257 . S
O646 Tb633 2.415 . S
O646 C662 1.239 . S
O647 Tb633 2.399 . S
O647 C662 1.263 . S
O648 Tb633 2.325 . S
O648 C663 1.236 1_556 S
O649 Tb632 2.322 . S
O649 C663 1.257 . S
O650 Tb632 2.349 . S
O650 C634 1.261 . S
O651 Tb633 2.303 1_554 S
O651 C634 1.257 . S
C652 O642 1.236 . S
C652 O643 1.257 . S
O653 Tb632 2.415 . S
O653 C641 1.239 . S
O654 Tb632 2.399 . S
O654 C641 1.263 . S
C655 O644 1.261 1_554 S
C655 O645 1.257 . S
C656 C659 1.358 . S
C656 C660 1.332 . S
C656 C662 1.504 . S
C657 C658 1.373 . S
C657 C661 1.308 . S
C658 C657 1.373 . S
C658 C659 1.429 . S
C658 H668 0.932 . S
C659 C656 1.358 . S
C659 C658 1.429 . S
C659 H669 0.930 . S
C660 C656 1.332 . S
C660 C661 1.394 . S
C660 H670 0.932 . S
C661 C657 1.308 . S
C661 C660 1.394 . S
C661 H671 0.929 . S
C662 Tb633 2.764 . S
C662 O646 1.239 . S
C662 O647 1.263 . S
C662 C656 1.504 . S
C663 O648 1.236 1_554 S
C663 O649 1.257 . S
H664 C637 0.932 . S
H665 C638 0.930 . S
H666 C639 0.932 . S
H667 C640 0.929 . S
H668 C658 0.932 . S
H669 C659 0.930 . S
H670 C660 0.932 . S
H671 C661 0.929 . S
Tb672 C681 2.764 . S
Tb672 O682 2.325 . S
Tb672 O685 2.303 . S
Tb672 O689 2.322 . S
Tb672 O690 2.349 . S
Tb672 O693 2.415 . S
Tb672 O694 2.399 . S
Tb673 O683 2.322 . S
Tb673 O684 2.349 . S
Tb673 O686 2.415 . S
Tb673 O687 2.399 . S
Tb673 O688 2.325 . S
Tb673 O691 2.303 . S
Tb673 C702 2.764 . S
C674 O690 1.261 . S
C674 O691 1.257 . S
C675 C678 1.358 . S
C675 C679 1.332 . S
C675 C681 1.504 . S
C676 C677 1.373 . S
C676 C680 1.308 . S
C677 C676 1.373 . S
C677 C678 1.429 . S
C677 H704 0.932 . S
C678 C675 1.358 . S
C678 C677 1.429 . S
C678 H705 0.930 . S
C679 C675 1.332 . S
C679 C680 1.394 . S
C679 H706 0.932 . S
C680 C676 1.308 . S
C680 C679 1.394 . S
C680 H707 0.929 . S
C681 Tb672 2.764 . S
C681 C675 1.504 . S
C681 O693 1.239 . S
C681 O694 1.263 . S
O682 Tb672 2.325 . S
O682 C692 1.236 . S
O683 Tb673 2.322 . S
O683 C692 1.257 . S
O684 Tb673 2.349 . S
O684 C695 1.261 . S
O685 Tb672 2.303 . S
O685 C695 1.257 . S
O686 Tb673 2.415 . S
O686 C702 1.239 . S
O687 Tb673 2.399 . S
O687 C702 1.263 . S
O688 Tb673 2.325 . S
O688 C703 1.236 . S
O689 Tb672 2.322 . S
O689 C703 1.257 . S
O690 Tb672 2.349 . S
O690 C674 1.261 . S
O691 Tb673 2.303 . S
O691 C674 1.257 . S
C692 O682 1.236 . S
C692 O683 1.257 . S
O693 Tb672 2.415 . S
O693 C681 1.239 . S
O694 Tb672 2.399 . S
O694 C681 1.263 . S
C695 O684 1.261 . S
C695 O685 1.257 . S
C696 C699 1.358 . S
C696 C700 1.332 . S
C696 C702 1.504 . S
C697 C698 1.373 . S
C697 C701 1.308 . S
C698 C697 1.373 . S
C698 C699 1.429 . S
C698 H708 0.932 . S
C699 C696 1.358 . S
C699 C698 1.429 . S
C699 H709 0.930 . S
C700 C696 1.332 . S
C700 C701 1.394 . S
C700 H710 0.932 . S
C701 C697 1.308 . S
C701 C700 1.394 . S
C701 H711 0.929 . S
C702 Tb673 2.764 . S
C702 O686 1.239 . S
C702 O687 1.263 . S
C702 C696 1.504 . S
C703 O688 1.236 . S
C703 O689 1.257 . S
H704 C677 0.932 . S
H705 C678 0.930 . S
H706 C679 0.932 . S
H707 C680 0.929 . S
H708 C698 0.932 . S
H709 C699 0.930 . S
H710 C700 0.932 . S
H711 C701 0.929 . S
Tb712 C721 2.764 . S
Tb712 O722 2.325 . S
Tb712 O725 2.303 . S
Tb712 O729 2.322 . S
Tb712 O730 2.349 . S
Tb712 O733 2.415 . S
Tb712 O734 2.399 . S
Tb713 O723 2.322 . S
Tb713 O724 2.349 1_455 S
Tb713 O726 2.415 . S
Tb713 O727 2.399 . S
Tb713 O728 2.325 . S
Tb713 O731 2.303 . S
Tb713 C742 2.764 . S
C714 O730 1.261 . S
C714 O731 1.257 . S
C715 C718 1.358 . S
C715 C719 1.332 1_455 S
C715 C721 1.504 . S
C716 C717 1.373 1_655 S
C716 C720 1.308 . S
C717 C716 1.373 1_455 S
C717 C718 1.429 . S
C717 H744 0.932 . S
C718 C715 1.358 . S
C718 C717 1.429 . S
C718 H745 0.930 . S
C719 C715 1.332 1_655 S
C719 C720 1.394 . S
C719 H746 0.932 . S
C720 C716 1.308 . S
C720 C719 1.394 . S
C720 H747 0.929 . S
C721 Tb712 2.764 . S
C721 C715 1.504 . S
C721 O733 1.239 . S
C721 O734 1.263 . S
O722 Tb712 2.325 . S
O722 C732 1.236 . S
O723 Tb713 2.322 . S
O723 C732 1.257 . S
O724 Tb713 2.349 1_655 S
O724 C735 1.261 . S
O725 Tb712 2.303 . S
O725 C735 1.257 1_455 S
O726 Tb713 2.415 . S
O726 C742 1.239 . S
O727 Tb713 2.399 . S
O727 C742 1.263 . S
O728 Tb713 2.325 . S
O728 C743 1.236 . S
O729 Tb712 2.322 . S
O729 C743 1.257 . S
O730 Tb712 2.349 . S
O730 C714 1.261 . S
O731 Tb713 2.303 . S
O731 C714 1.257 . S
C732 O722 1.236 . S
C732 O723 1.257 . S
O733 Tb712 2.415 . S
O733 C721 1.239 . S
O734 Tb712 2.399 . S
O734 C721 1.263 . S
C735 O724 1.261 . S
C735 O725 1.257 1_655 S
C736 C739 1.358 . S
C736 C740 1.332 . S
C736 C742 1.504 . S
C737 C738 1.373 . S
C737 C741 1.308 . S
C738 C737 1.373 . S
C738 C739 1.429 . S
C738 H748 0.932 . S
C739 C736 1.358 . S
C739 C738 1.429 . S
C739 H749 0.930 . S
C740 C736 1.332 . S
C740 C741 1.394 . S
C740 H750 0.932 . S
C741 C737 1.308 . S
C741 C740 1.394 . S
C741 H751 0.929 . S
C742 Tb713 2.764 . S
C742 O726 1.239 . S
C742 O727 1.263 . S
C742 C736 1.504 . S
C743 O728 1.236 . S
C743 O729 1.257 . S
H744 C717 0.932 . S
H745 C718 0.930 . S
H746 C719 0.932 . S
H747 C720 0.929 . S
H748 C738 0.932 . S
H749 C739 0.930 . S
H750 C740 0.932 . S
H751 C741 0.929 . S
Tb752 C761 2.764 . S
Tb752 O762 2.325 . S
Tb752 O765 2.303 . S
Tb752 O769 2.322 . S
Tb752 O770 2.349 . S
Tb752 O773 2.415 . S
Tb752 O774 2.399 . S
Tb753 O763 2.322 . S
Tb753 O764 2.349 . S
Tb753 O766 2.415 . S
Tb753 O767 2.399 . S
Tb753 O768 2.325 . S
Tb753 O771 2.303 . S
Tb753 C782 2.764 . S
C754 O770 1.261 . S
C754 O771 1.257 . S
C755 C758 1.358 . S
C755 C759 1.332 . S
C755 C761 1.504 . S
C756 C757 1.373 . S
C756 C760 1.308 . S
C757 C756 1.373 . S
C757 C758 1.429 . S
C757 H784 0.932 . S
C758 C755 1.358 . S
C758 C757 1.429 . S
C758 H785 0.930 . S
C759 C755 1.332 . S
C759 C760 1.394 . S
C759 H786 0.932 . S
C760 C756 1.308 . S
C760 C759 1.394 . S
C760 H787 0.929 . S
C761 Tb752 2.764 . S
C761 C755 1.504 . S
C761 O773 1.239 . S
C761 O774 1.263 . S
O762 Tb752 2.325 . S
O762 C772 1.236 . S
O763 Tb753 2.322 . S
O763 C772 1.257 . S
O764 Tb753 2.349 . S
O764 C775 1.261 . S
O765 Tb752 2.303 . S
O765 C775 1.257 . S
O766 Tb753 2.415 . S
O766 C782 1.239 . S
O767 Tb753 2.399 . S
O767 C782 1.263 . S
O768 Tb753 2.325 . S
O768 C783 1.236 . S
O769 Tb752 2.322 . S
O769 C783 1.257 . S
O770 Tb752 2.349 . S
O770 C754 1.261 . S
O771 Tb753 2.303 . S
O771 C754 1.257 . S
C772 O762 1.236 . S
C772 O763 1.257 . S
O773 Tb752 2.415 . S
O773 C761 1.239 . S
O774 Tb752 2.399 . S
O774 C761 1.263 . S
C775 O764 1.261 . S
C775 O765 1.257 . S
C776 C779 1.358 . S
C776 C780 1.332 . S
C776 C782 1.504 . S
C777 C778 1.373 . S
C777 C781 1.308 . S
C778 C777 1.373 . S
C778 C779 1.429 . S
C778 H788 0.932 . S
C779 C776 1.358 . S
C779 C778 1.429 . S
C779 H789 0.930 . S
C780 C776 1.332 . S
C780 C781 1.394 . S
C780 H790 0.932 . S
C781 C777 1.308 . S
C781 C780 1.394 . S
C781 H791 0.929 . S
C782 Tb753 2.764 . S
C782 O766 1.239 . S
C782 O767 1.263 . S
C782 C776 1.504 . S
C783 O768 1.236 . S
C783 O769 1.257 . S
H784 C757 0.932 . S
H785 C758 0.930 . S
H786 C759 0.932 . S
H787 C760 0.929 . S
H788 C778 0.932 . S
H789 C779 0.930 . S
H790 C780 0.932 . S
H791 C781 0.929 . S
Tb792 C801 2.764 . S
Tb792 O802 2.325 . S
Tb792 O805 2.303 . S
Tb792 O809 2.322 . S
Tb792 O810 2.349 . S
Tb792 O813 2.415 . S
Tb792 O814 2.399 . S
Tb793 O803 2.322 . S
Tb793 O804 2.349 . S
Tb793 O806 2.415 . S
Tb793 O807 2.399 . S
Tb793 O808 2.325 . S
Tb793 O811 2.303 . S
Tb793 C822 2.764 . S
C794 O810 1.261 . S
C794 O811 1.257 . S
C795 C798 1.358 . S
C795 C799 1.332 . S
C795 C801 1.504 . S
C796 C797 1.373 . S
C796 C800 1.308 . S
C797 C796 1.373 . S
C797 C798 1.429 . S
C797 H824 0.932 . S
C798 C795 1.358 . S
C798 C797 1.429 . S
C798 H825 0.930 . S
C799 C795 1.332 . S
C799 C800 1.394 . S
C799 H826 0.932 . S
C800 C796 1.308 . S
C800 C799 1.394 . S
C800 H827 0.929 . S
C801 Tb792 2.764 . S
C801 C795 1.504 . S
C801 O813 1.239 . S
C801 O814 1.263 . S
O802 Tb792 2.325 . S
O802 C812 1.236 . S
O803 Tb793 2.322 . S
O803 C812 1.257 . S
O804 Tb793 2.349 . S
O804 C815 1.261 . S
O805 Tb792 2.303 . S
O805 C815 1.257 . S
O806 Tb793 2.415 . S
O806 C822 1.239 . S
O807 Tb793 2.399 . S
O807 C822 1.263 . S
O808 Tb793 2.325 . S
O808 C823 1.236 . S
O809 Tb792 2.322 . S
O809 C823 1.257 . S
O810 Tb792 2.349 . S
O810 C794 1.261 . S
O811 Tb793 2.303 . S
O811 C794 1.257 . S
C812 O802 1.236 . S
C812 O803 1.257 . S
O813 Tb792 2.415 . S
O813 C801 1.239 . S
O814 Tb792 2.399 . S
O814 C801 1.263 . S
C815 O804 1.261 . S
C815 O805 1.257 . S
C816 C819 1.358 . S
C816 C820 1.332 . S
C816 C822 1.504 . S
C817 C818 1.373 . S
C817 C821 1.308 . S
C818 C817 1.373 . S
C818 C819 1.429 . S
C818 H828 0.932 . S
C819 C816 1.358 . S
C819 C818 1.429 . S
C819 H829 0.930 . S
C820 C816 1.332 . S
C820 C821 1.394 . S
C820 H830 0.932 . S
C821 C817 1.308 . S
C821 C820 1.394 . S
C821 H831 0.929 . S
C822 Tb793 2.764 . S
C822 O806 1.239 . S
C822 O807 1.263 . S
C822 C816 1.504 . S
C823 O808 1.236 . S
C823 O809 1.257 . S
H824 C797 0.932 . S
H825 C798 0.930 . S
H826 C799 0.932 . S
H827 C800 0.929 . S
H828 C818 0.932 . S
H829 C819 0.930 . S
H830 C820 0.932 . S
H831 C821 0.929 . S
Tb832 C841 2.764 . S
Tb832 O842 2.325 . S
Tb832 O845 2.303 . S
Tb832 O849 2.322 . S
Tb832 O850 2.349 . S
Tb832 O853 2.415 . S
Tb832 O854 2.399 . S
Tb833 O843 2.322 . S
Tb833 O844 2.349 . S
Tb833 O846 2.415 . S
Tb833 O847 2.399 . S
Tb833 O848 2.325 . S
Tb833 O851 2.303 . S
Tb833 C862 2.764 . S
C834 O850 1.261 . S
C834 O851 1.257 . S
C835 C838 1.358 . S
C835 C839 1.332 . S
C835 C841 1.504 . S
C836 C837 1.373 . S
C836 C840 1.308 . S
C837 C836 1.373 . S
C837 C838 1.429 . S
C837 H864 0.932 . S
C838 C835 1.358 . S
C838 C837 1.429 . S
C838 H865 0.930 . S
C839 C835 1.332 . S
C839 C840 1.394 . S
C839 H866 0.932 . S
C840 C836 1.308 . S
C840 C839 1.394 . S
C840 H867 0.929 . S
C841 Tb832 2.764 . S
C841 C835 1.504 . S
C841 O853 1.239 . S
C841 O854 1.263 . S
O842 Tb832 2.325 . S
O842 C852 1.236 . S
O843 Tb833 2.322 . S
O843 C852 1.257 . S
O844 Tb833 2.349 . S
O844 C855 1.261 . S
O845 Tb832 2.303 . S
O845 C855 1.257 . S
O846 Tb833 2.415 . S
O846 C862 1.239 . S
O847 Tb833 2.399 . S
O847 C862 1.263 . S
O848 Tb833 2.325 . S
O848 C863 1.236 . S
O849 Tb832 2.322 . S
O849 C863 1.257 . S
O850 Tb832 2.349 . S
O850 C834 1.261 . S
O851 Tb833 2.303 . S
O851 C834 1.257 . S
C852 O842 1.236 . S
C852 O843 1.257 . S
O853 Tb832 2.415 . S
O853 C841 1.239 . S
O854 Tb832 2.399 . S
O854 C841 1.263 . S
C855 O844 1.261 . S
C855 O845 1.257 . S
C856 C859 1.358 . S
C856 C860 1.332 . S
C856 C862 1.504 . S
C857 C858 1.373 . S
C857 C861 1.308 . S
C858 C857 1.373 . S
C858 C859 1.429 . S
C858 H868 0.932 . S
C859 C856 1.358 . S
C859 C858 1.429 . S
C859 H869 0.930 . S
C860 C856 1.332 . S
C860 C861 1.394 . S
C860 H870 0.932 . S
C861 C857 1.308 . S
C861 C860 1.394 . S
C861 H871 0.929 . S
C862 Tb833 2.764 . S
C862 O846 1.239 . S
C862 O847 1.263 . S
C862 C856 1.504 . S
C863 O848 1.236 . S
C863 O849 1.257 . S
H864 C837 0.932 . S
H865 C838 0.930 . S
H866 C839 0.932 . S
H867 C840 0.929 . S
H868 C858 0.932 . S
H869 C859 0.930 . S
H870 C860 0.932 . S
H871 C861 0.929 . S
Tb872 C881 2.764 . S
Tb872 O882 2.325 . S
Tb872 O885 2.303 . S
Tb872 O889 2.322 . S
Tb872 O890 2.349 . S
Tb872 O893 2.415 . S
Tb872 O894 2.399 . S
Tb873 O883 2.322 . S
Tb873 O884 2.349 . S
Tb873 O886 2.415 . S
Tb873 O887 2.399 . S
Tb873 O888 2.325 . S
Tb873 O891 2.303 . S
Tb873 C902 2.764 . S
C874 O890 1.261 . S
C874 O891 1.257 . S
C875 C878 1.358 . S
C875 C879 1.332 . S
C875 C881 1.504 . S
C876 C877 1.373 . S
C876 C880 1.308 . S
C877 C876 1.373 . S
C877 C878 1.429 . S
C877 H904 0.932 . S
C878 C875 1.358 . S
C878 C877 1.429 . S
C878 H905 0.930 . S
C879 C875 1.332 . S
C879 C880 1.394 . S
C879 H906 0.932 . S
C880 C876 1.308 . S
C880 C879 1.394 . S
C880 H907 0.929 . S
C881 Tb872 2.764 . S
C881 C875 1.504 . S
C881 O893 1.239 . S
C881 O894 1.263 . S
O882 Tb872 2.325 . S
O882 C892 1.236 . S
O883 Tb873 2.322 . S
O883 C892 1.257 . S
O884 Tb873 2.349 . S
O884 C895 1.261 . S
O885 Tb872 2.303 . S
O885 C895 1.257 . S
O886 Tb873 2.415 . S
O886 C902 1.239 . S
O887 Tb873 2.399 . S
O887 C902 1.263 . S
O888 Tb873 2.325 . S
O888 C903 1.236 . S
O889 Tb872 2.322 . S
O889 C903 1.257 . S
O890 Tb872 2.349 . S
O890 C874 1.261 . S
O891 Tb873 2.303 . S
O891 C874 1.257 . S
C892 O882 1.236 . S
C892 O883 1.257 . S
O893 Tb872 2.415 . S
O893 C881 1.239 . S
O894 Tb872 2.399 . S
O894 C881 1.263 . S
C895 O884 1.261 . S
C895 O885 1.257 . S
C896 C899 1.358 . S
C896 C900 1.332 . S
C896 C902 1.504 . S
C897 C898 1.373 . S
C897 C901 1.308 . S
C898 C897 1.373 . S
C898 C899 1.429 . S
C898 H908 0.932 . S
C899 C896 1.358 . S
C899 C898 1.429 . S
C899 H909 0.930 . S
C900 C896 1.332 . S
C900 C901 1.394 . S
C900 H910 0.932 . S
C901 C897 1.308 . S
C901 C900 1.394 . S
C901 H911 0.929 . S
C902 Tb873 2.764 . S
C902 O886 1.239 . S
C902 O887 1.263 . S
C902 C896 1.504 . S
C903 O888 1.236 . S
C903 O889 1.257 . S
H904 C877 0.932 . S
H905 C878 0.930 . S
H906 C879 0.932 . S
H907 C880 0.929 . S
H908 C898 0.932 . S
H909 C899 0.930 . S
H910 C900 0.932 . S
H911 C901 0.929 . S
Tb912 C921 2.792 . S
Tb912 O922 2.316 1_655 S
Tb912 O925 2.289 1_655 S
Tb912 O929 2.306 1_655 S
Tb912 O930 2.335 1_655 S
Tb912 O933 2.441 . S
Tb912 O934 2.424 . S
Tb913 O923 2.322 . S
Tb913 O924 2.349 . S
Tb913 O926 2.415 . S
Tb913 O927 2.399 . S
Tb913 O928 2.325 . S
Tb913 O931 2.303 . S
Tb913 C942 2.764 . S
C914 O930 1.261 . S
C914 O931 1.257 . S
C915 C918 1.358 . S
C915 C919 1.332 . S
C915 C921 1.504 . S
C916 C917 1.373 . S
C916 C920 1.308 . S
C917 C916 1.373 . S
C917 C918 1.429 . S
C917 H944 0.932 . S
C918 C915 1.358 . S
C918 C917 1.429 . S
C918 H945 0.930 . S
C919 C915 1.332 . S
C919 C920 1.394 . S
C919 H946 0.932 . S
C920 C916 1.308 . S
C920 C919 1.394 . S
C920 H947 0.929 . S
C921 Tb912 2.792 . S
C921 C915 1.504 . S
C921 O933 1.239 . S
C921 O934 1.263 . S
O922 Tb912 2.316 1_455 S
O922 C932 1.236 . S
O923 Tb913 2.322 . S
O923 C932 1.257 . S
O924 Tb913 2.349 . S
O924 C935 1.261 . S
O925 Tb912 2.289 1_455 S
O925 C935 1.257 . S
O926 Tb913 2.415 . S
O926 C942 1.239 . S
O927 Tb913 2.399 . S
O927 C942 1.263 . S
O928 Tb913 2.325 . S
O928 C943 1.236 . S
O929 Tb912 2.306 1_455 S
O929 C943 1.257 . S
O930 Tb912 2.335 1_455 S
O930 C914 1.261 . S
O931 Tb913 2.303 . S
O931 C914 1.257 . S
C932 O922 1.236 . S
C932 O923 1.257 . S
O933 Tb912 2.441 . S
O933 C921 1.239 . S
O934 Tb912 2.424 . S
O934 C921 1.263 . S
C935 O924 1.261 . S
C935 O925 1.257 . S
C936 C939 1.358 . S
C936 C940 1.332 . S
C936 C942 1.504 . S
C937 C938 1.373 . S
C937 C941 1.308 . S
C938 C937 1.373 . S
C938 C939 1.429 . S
C938 H948 0.932 1_554 S
C939 C936 1.358 . S
C939 C938 1.429 . S
C939 H949 0.930 1_554 S
C940 C936 1.332 . S
C940 C941 1.394 . S
C940 H950 0.932 . S
C941 C937 1.308 . S
C941 C940 1.394 . S
C941 H951 0.929 . S
C942 Tb913 2.764 . S
C942 O926 1.239 . S
C942 O927 1.263 . S
C942 C936 1.504 . S
C943 O928 1.236 . S
C943 O929 1.257 . S
H944 C917 0.932 . S
H945 C918 0.930 . S
H946 C919 0.932 . S
H947 C920 0.929 . S
H948 C938 0.932 1_556 S
H949 C939 0.930 1_556 S
H950 C940 0.932 . S
H951 C941 0.929 . S
C952 C953 1.391 . S
C952 C954 1.390 1_556 S
C952 H968 0.931 . S
C953 C952 1.391 . S
C953 C957 1.376 1_455 S
C954 C952 1.390 1_554 S
C954 C955 1.368 1_554 S
C954 C958 1.535 . S
C955 C954 1.368 1_556 S
C955 C956 1.410 . S
C955 C963 1.503 1_556 S
C956 C955 1.410 . S
C956 C957 1.392 1_455 S
C956 C959 1.511 1_455 S
C957 C953 1.376 1_655 S
C957 C956 1.392 1_655 S
C957 H969 0.929 . S
C958 C954 1.535 . S
C958 H970 0.960 . S
C958 H971 0.962 . S
C958 H972 0.960 . S
C959 C956 1.511 1_655 S
C959 H973 0.961 . S
C959 H974 0.917 1_655 S
C959 H975 0.961 . S
C960 C961 1.370 . S
C960 C962 1.363 . S
C960 H976 0.931 . S
C961 C960 1.370 . S
C961 C965 1.408 . S
C962 C960 1.363 . S
C962 C963 1.370 . S
C962 C966 1.524 1_554 S
C963 C955 1.503 1_554 S
C963 C962 1.370 . S
C963 C964 1.403 . S
C964 C963 1.403 . S
C964 C965 1.404 . S
C964 C967 1.539 1_455 S
C965 C961 1.408 . S
C965 C964 1.404 . S
C965 H977 0.930 . S
C966 C962 1.524 1_556 S
C966 H978 0.956 . S
C966 H979 0.961 . S
C966 H980 0.961 . S
C967 C964 1.539 1_655 S
C967 H981 0.958 . S
C967 H982 0.961 . S
C967 H983 0.960 . S
H968 C952 0.931 . S
H969 C957 0.929 . S
H970 C958 0.960 . S
H971 C958 0.962 . S
H972 C958 0.960 . S
H973 C959 0.961 . S
H974 C959 0.917 1_455 S
H975 C959 0.961 . S
H976 C960 0.931 . S
H977 C965 0.930 . S
H978 C966 0.956 . S
H979 C966 0.961 . S
H980 C966 0.961 . S
H981 C967 0.958 . S
H982 C967 0.961 . S
H983 C967 0.960 . S
C984 C985 1.391 . S
C984 C986 1.394 . S
C984 H1000 0.931 . S
C985 C984 1.391 . S
C985 C989 1.376 . S
C986 C984 1.394 . S
C986 C987 1.369 . S
C986 C990 1.531 . S
C987 C986 1.369 . S
C987 C988 1.410 . S
C987 C995 1.503 . S
C988 C987 1.410 . S
C988 C989 1.392 . S
C988 C991 1.511 . S
C989 C985 1.376 . S
C989 C988 1.392 . S
C989 H1001 0.929 . S
C990 C986 1.531 . S
C990 H1002 0.960 . S
C990 H1003 0.962 . S
C990 H1004 0.960 . S
C991 C988 1.511 . S
C991 H1005 0.961 . S
C991 H1006 0.961 . S
C991 H1007 0.961 . S
C992 C993 1.370 . S
C992 C994 1.363 . S
C992 H1008 0.931 . S
C993 C992 1.370 . S
C993 C997 1.408 . S
C994 C992 1.363 . S
C994 C995 1.370 . S
C994 C998 1.524 . S
C995 C987 1.503 . S
C995 C994 1.370 . S
C995 C996 1.403 . S
C996 C995 1.403 . S
C996 C997 1.404 . S
C996 C999 1.539 . S
C997 C993 1.408 . S
C997 C996 1.404 . S
C997 H1009 0.930 . S
C998 C994 1.524 . S
C998 H1010 0.956 . S
C998 H1011 0.961 . S
C998 H1012 0.961 . S
C999 C996 1.539 . S
C999 H1013 0.958 . S
C999 H1014 0.961 . S
C999 H1015 0.960 . S
H1000 C984 0.931 . S
H1001 C989 0.929 . S
H1002 C990 0.960 . S
H1003 C990 0.962 . S
H1004 C990 0.960 . S
H1005 C991 0.961 . S
H1006 C991 0.961 . S
H1007 C991 0.961 . S
H1008 C992 0.931 . S
H1009 C997 0.930 . S
H1010 C998 0.956 . S
H1011 C998 0.961 . S
H1012 C998 0.961 . S
H1013 C999 0.958 . S
H1014 C999 0.961 . S
H1015 C999 0.960 . S
C1016 C1017 1.391 . S
C1016 C1018 1.394 . S
C1016 H1032 0.931 . S
C1017 C1016 1.391 . S
C1017 C1021 1.376 . S
C1018 C1016 1.394 . S
C1018 C1019 1.369 . S
C1018 C1022 1.531 . S
C1019 C1018 1.369 . S
C1019 C1020 1.410 . S
C1019 C1027 1.503 . S
C1020 C1019 1.410 . S
C1020 C1021 1.392 . S
C1020 C1023 1.511 . S
C1021 C1017 1.376 . S
C1021 C1020 1.392 . S
C1021 H1033 0.929 . S
C1022 C1018 1.531 . S
C1022 H1034 0.960 . S
C1022 H1035 0.962 . S
C1022 H1036 0.960 . S
C1023 C1020 1.511 . S
C1023 H1037 0.961 . S
C1023 H1038 0.961 . S
C1023 H1039 0.961 . S
C1024 C1025 1.370 . S
C1024 C1026 1.363 . S
C1024 H1040 0.931 . S
C1025 C1024 1.370 . S
C1025 C1029 1.408 . S
C1026 C1024 1.363 . S
C1026 C1027 1.370 . S
C1026 C1030 1.524 . S
C1027 C1019 1.503 . S
C1027 C1026 1.370 . S
C1027 C1028 1.403 . S
C1028 C1027 1.403 . S
C1028 C1029 1.404 . S
C1028 C1031 1.539 . S
C1029 C1025 1.408 . S
C1029 C1028 1.404 . S
C1029 H1041 0.930 . S
C1030 C1026 1.524 . S
C1030 H1042 0.956 . S
C1030 H1043 0.961 . S
C1030 H1044 0.961 . S
C1031 C1028 1.539 . S
C1031 H1045 0.958 . S
C1031 H1046 0.961 . S
C1031 H1047 0.960 . S
H1032 C1016 0.931 . S
H1033 C1021 0.929 . S
H1034 C1022 0.960 . S
H1035 C1022 0.962 . S
H1036 C1022 0.960 . S
H1037 C1023 0.961 . S
H1038 C1023 0.961 . S
H1039 C1023 0.961 . S
H1040 C1024 0.931 . S
H1041 C1029 0.930 . S
H1042 C1030 0.956 . S
H1043 C1030 0.961 . S
H1044 C1030 0.961 . S
H1045 C1031 0.958 . S
H1046 C1031 0.961 . S
H1047 C1031 0.960 . S
C1048 C1049 1.391 . S
C1048 C1050 1.394 . S
C1048 H1064 0.931 . S
C1049 C1048 1.391 . S
C1049 C1053 1.376 . S
C1050 C1048 1.394 . S
C1050 C1051 1.369 . S
C1050 C1054 1.531 . S
C1051 C1050 1.369 . S
C1051 C1052 1.410 . S
C1051 C1059 1.503 . S
C1052 C1051 1.410 . S
C1052 C1053 1.392 . S
C1052 C1055 1.511 . S
C1053 C1049 1.376 . S
C1053 C1052 1.392 . S
C1053 H1065 0.929 . S
C1054 C1050 1.531 . S
C1054 H1066 0.960 . S
C1054 H1067 0.962 . S
C1054 H1068 0.960 . S
C1055 C1052 1.511 . S
C1055 H1069 0.961 . S
C1055 H1070 0.961 . S
C1055 H1071 0.961 . S
C1056 C1057 1.370 . S
C1056 C1058 1.363 . S
C1056 H1072 0.931 . S
C1057 C1056 1.370 . S
C1057 C1061 1.408 . S
C1058 C1056 1.363 . S
C1058 C1059 1.370 . S
C1058 C1062 1.524 . S
C1059 C1051 1.503 . S
C1059 C1058 1.370 . S
C1059 C1060 1.403 . S
C1060 C1059 1.403 . S
C1060 C1061 1.404 . S
C1060 C1063 1.539 . S
C1061 C1057 1.408 . S
C1061 C1060 1.404 . S
C1061 H1073 0.930 . S
C1062 C1058 1.524 . S
C1062 H1074 0.956 . S
C1062 H1075 0.961 . S
C1062 H1076 0.961 . S
C1063 C1060 1.539 . S
C1063 H1077 0.958 . S
C1063 H1078 0.961 . S
C1063 H1079 0.960 . S
H1064 C1048 0.931 . S
H1065 C1053 0.929 . S
H1066 C1054 0.960 . S
H1067 C1054 0.962 . S
H1068 C1054 0.960 . S
H1069 C1055 0.961 . S
H1070 C1055 0.961 . S
H1071 C1055 0.961 . S
H1072 C1056 0.931 . S
H1073 C1061 0.930 . S
H1074 C1062 0.956 . S
H1075 C1062 0.961 . S
H1076 C1062 0.961 . S
H1077 C1063 0.958 . S
H1078 C1063 0.961 . S
H1079 C1063 0.960 . S
C1080 C1081 1.391 . S
C1080 C1082 1.394 . S
C1080 H1096 0.931 . S
C1081 C1080 1.391 . S
C1081 C1085 1.376 . S
C1082 C1080 1.394 . S
C1082 C1083 1.369 . S
C1082 C1086 1.531 . S
C1083 C1082 1.369 . S
C1083 C1084 1.410 . S
C1083 C1091 1.503 . S
C1084 C1083 1.410 . S
C1084 C1085 1.392 . S
C1084 C1087 1.511 . S
C1085 C1081 1.376 . S
C1085 C1084 1.392 . S
C1085 H1097 0.929 . S
C1086 C1082 1.531 . S
C1086 H1098 0.960 . S
C1086 H1099 0.962 . S
C1086 H1100 0.960 . S
C1087 C1084 1.511 . S
C1087 H1101 0.961 . S
C1087 H1102 0.961 . S
C1087 H1103 0.961 . S
C1088 C1089 1.370 . S
C1088 C1090 1.363 . S
C1088 H1104 0.931 . S
C1089 C1088 1.370 . S
C1089 C1093 1.408 . S
C1090 C1088 1.363 . S
C1090 C1091 1.370 . S
C1090 C1094 1.524 . S
C1091 C1083 1.503 . S
C1091 C1090 1.370 . S
C1091 C1092 1.403 . S
C1092 C1091 1.403 . S
C1092 C1093 1.404 . S
C1092 C1095 1.539 . S
C1093 C1089 1.408 . S
C1093 C1092 1.404 . S
C1093 H1105 0.930 . S
C1094 C1090 1.524 . S
C1094 H1106 0.956 . S
C1094 H1107 0.961 . S
C1094 H1108 0.961 . S
C1095 C1092 1.539 . S
C1095 H1109 0.958 . S
C1095 H1110 0.961 . S
C1095 H1111 0.960 . S
H1096 C1080 0.931 . S
H1097 C1085 0.929 . S
H1098 C1086 0.960 . S
H1099 C1086 0.962 . S
H1100 C1086 0.960 . S
H1101 C1087 0.961 . S
H1102 C1087 0.961 . S
H1103 C1087 0.961 . S
H1104 C1088 0.931 . S
H1105 C1093 0.930 . S
H1106 C1094 0.956 . S
H1107 C1094 0.961 . S
H1108 C1094 0.961 . S
H1109 C1095 0.958 . S
H1110 C1095 0.961 . S
H1111 C1095 0.960 . S
C1112 C1113 1.391 . S
C1112 C1114 1.394 . S
C1112 H1128 0.931 . S
C1113 C1112 1.391 . S
C1113 C1117 1.376 . S
C1114 C1112 1.394 . S
C1114 C1115 1.369 . S
C1114 C1118 1.531 . S
C1115 C1114 1.369 . S
C1115 C1116 1.410 . S
C1115 C1123 1.503 . S
C1116 C1115 1.410 . S
C1116 C1117 1.392 . S
C1116 C1119 1.511 . S
C1117 C1113 1.376 . S
C1117 C1116 1.392 . S
C1117 H1129 0.929 . S
C1118 C1114 1.531 . S
C1118 H1130 0.960 . S
C1118 H1131 0.962 . S
C1118 H1132 0.960 . S
C1119 C1116 1.511 . S
C1119 H1133 0.961 . S
C1119 H1134 0.961 . S
C1119 H1135 0.961 . S
C1120 C1121 1.370 . S
C1120 C1122 1.363 . S
C1120 H1136 0.931 . S
C1121 C1120 1.370 . S
C1121 C1125 1.408 . S
C1122 C1120 1.363 . S
C1122 C1123 1.370 . S
C1122 C1126 1.524 . S
C1123 C1115 1.503 . S
C1123 C1122 1.370 . S
C1123 C1124 1.403 . S
C1124 C1123 1.403 . S
C1124 C1125 1.404 . S
C1124 C1127 1.539 . S
C1125 C1121 1.408 . S
C1125 C1124 1.404 . S
C1125 H1137 0.930 . S
C1126 C1122 1.524 . S
C1126 H1138 0.956 . S
C1126 H1139 0.961 . S
C1126 H1140 0.961 . S
C1127 C1124 1.539 . S
C1127 H1141 0.958 . S
C1127 H1142 0.961 . S
C1127 H1143 0.960 . S
H1128 C1112 0.931 . S
H1129 C1117 0.929 . S
H1130 C1118 0.960 . S
H1131 C1118 0.962 . S
H1132 C1118 0.960 . S
H1133 C1119 0.961 . S
H1134 C1119 0.961 . S
H1135 C1119 0.961 . S
H1136 C1120 0.931 . S
H1137 C1125 0.930 . S
H1138 C1126 0.956 . S
H1139 C1126 0.961 . S
H1140 C1126 0.961 . S
H1141 C1127 0.958 . S
H1142 C1127 0.961 . S
H1143 C1127 0.960 . S
C1144 C1145 1.391 . S
C1144 C1146 1.394 . S
C1144 H1160 0.931 . S
C1145 C1144 1.391 . S
C1145 C1149 1.376 . S
C1146 C1144 1.394 . S
C1146 C1147 1.369 . S
C1146 C1150 1.531 . S
C1147 C1146 1.369 . S
C1147 C1148 1.410 . S
C1147 C1155 1.503 . S
C1148 C1147 1.410 . S
C1148 C1149 1.392 . S
C1148 C1151 1.511 . S
C1149 C1145 1.376 . S
C1149 C1148 1.392 . S
C1149 H1161 0.929 . S
C1150 C1146 1.531 . S
C1150 H1162 0.960 . S
C1150 H1163 0.962 . S
C1150 H1164 0.960 . S
C1151 C1148 1.511 . S
C1151 H1165 0.961 . S
C1151 H1166 0.961 . S
C1151 H1167 0.961 . S
C1152 C1153 1.370 . S
C1152 C1154 1.363 . S
C1152 H1168 0.931 . S
C1153 C1152 1.370 . S
C1153 C1157 1.408 . S
C1154 C1152 1.363 . S
C1154 C1155 1.370 . S
C1154 C1158 1.524 . S
C1155 C1147 1.503 . S
C1155 C1154 1.370 . S
C1155 C1156 1.403 . S
C1156 C1155 1.403 . S
C1156 C1157 1.404 . S
C1156 C1159 1.539 . S
C1157 C1153 1.408 . S
C1157 C1156 1.404 . S
C1157 H1169 0.930 . S
C1158 C1154 1.524 . S
C1158 H1170 0.956 . S
C1158 H1171 0.961 . S
C1158 H1172 0.961 . S
C1159 C1156 1.539 . S
C1159 H1173 0.958 . S
C1159 H1174 0.961 . S
C1159 H1175 0.960 . S
H1160 C1144 0.931 . S
H1161 C1149 0.929 . S
H1162 C1150 0.960 . S
H1163 C1150 0.962 . S
H1164 C1150 0.960 . S
H1165 C1151 0.961 . S
H1166 C1151 0.961 . S
H1167 C1151 0.961 . S
H1168 C1152 0.931 . S
H1169 C1157 0.930 . S
H1170 C1158 0.956 . S
H1171 C1158 0.961 . S
H1172 C1158 0.961 . S
H1173 C1159 0.958 . S
H1174 C1159 0.961 . S
H1175 C1159 0.960 . S
C1176 C1177 1.391 . S
C1176 C1178 1.394 . S
C1176 H1192 0.931 . S
C1177 C1176 1.391 . S
C1177 C1181 1.376 . S
C1178 C1176 1.394 . S
C1178 C1179 1.369 . S
C1178 C1182 1.531 . S
C1179 C1178 1.369 . S
C1179 C1180 1.410 . S
C1179 C1187 1.503 . S
C1180 C1179 1.410 . S
C1180 C1181 1.392 . S
C1180 C1183 1.511 . S
C1181 C1177 1.376 . S
C1181 C1180 1.392 . S
C1181 H1193 0.929 . S
C1182 C1178 1.531 . S
C1182 H1194 0.960 . S
C1182 H1195 0.962 . S
C1182 H1196 0.960 . S
C1183 C1180 1.511 . S
C1183 H1197 0.961 . S
C1183 H1198 0.961 . S
C1183 H1199 0.961 . S
C1184 C1185 1.370 . S
C1184 C1186 1.363 . S
C1184 H1200 0.931 . S
C1185 C1184 1.370 . S
C1185 C1189 1.408 . S
C1186 C1184 1.363 . S
C1186 C1187 1.370 . S
C1186 C1190 1.524 . S
C1187 C1179 1.503 . S
C1187 C1186 1.370 . S
C1187 C1188 1.403 . S
C1188 C1187 1.403 . S
C1188 C1189 1.404 . S
C1188 C1191 1.539 . S
C1189 C1185 1.408 . S
C1189 C1188 1.404 . S
C1189 H1201 0.930 . S
C1190 C1186 1.524 . S
C1190 H1202 0.956 . S
C1190 H1203 0.961 . S
C1190 H1204 0.961 . S
C1191 C1188 1.539 . S
C1191 H1205 0.958 . S
C1191 H1206 0.961 . S
C1191 H1207 0.960 . S
H1192 C1176 0.931 . S
H1193 C1181 0.929 . S
H1194 C1182 0.960 . S
H1195 C1182 0.962 . S
H1196 C1182 0.960 . S
H1197 C1183 0.961 . S
H1198 C1183 0.961 . S
H1199 C1183 0.961 . S
H1200 C1184 0.931 . S
H1201 C1189 0.930 . S
H1202 C1190 0.956 . S
H1203 C1190 0.961 . S
H1204 C1190 0.961 . S
H1205 C1191 0.958 . S
H1206 C1191 0.961 . S
H1207 C1191 0.960 . S
C1208 C1209 1.391 . S
C1208 C1210 1.394 . S
C1208 H1224 0.931 . S
C1209 C1208 1.391 . S
C1209 C1213 1.376 . S
C1210 C1208 1.394 . S
C1210 C1211 1.369 . S
C1210 C1214 1.531 . S
C1211 C1210 1.369 . S
C1211 C1212 1.410 . S
C1211 C1219 1.503 . S
C1212 C1211 1.410 . S
C1212 C1213 1.392 . S
C1212 C1215 1.511 1_655 S
C1213 C1209 1.376 . S
C1213 C1212 1.392 . S
C1213 H1225 0.929 . S
C1214 C1210 1.531 . S
C1214 H1226 0.960 . S
C1214 H1227 0.962 . S
C1214 H1228 0.960 . S
C1215 C1212 1.511 1_455 S
C1215 H1229 0.961 . S
C1215 H1230 0.961 . S
C1215 H1231 0.961 . S
C1216 C1217 1.370 . S
C1216 C1218 1.363 . S
C1216 H1232 0.931 . S
C1217 C1216 1.370 . S
C1217 C1221 1.408 . S
C1218 C1216 1.363 . S
C1218 C1219 1.370 1_455 S
C1218 C1222 1.524 . S
C1219 C1211 1.503 . S
C1219 C1218 1.370 1_655 S
C1219 C1220 1.403 1_655 S
C1220 C1219 1.403 1_455 S
C1220 C1221 1.404 . S
C1220 C1223 1.539 1_455 S
C1221 C1217 1.408 . S
C1221 C1220 1.404 . S
C1221 H1233 0.930 . S
C1222 C1218 1.524 . S
C1222 H1234 0.956 1_445 S
C1222 H1235 0.961 . S
C1222 H1236 0.959 1_545 S
C1223 C1220 1.539 1_655 S
C1223 H1237 0.958 . S
C1223 H1238 0.961 1_655 S
C1223 H1239 0.960 . S
H1224 C1208 0.931 . S
H1225 C1213 0.929 . S
H1226 C1214 0.960 . S
H1227 C1214 0.962 . S
H1228 C1214 0.960 . S
H1229 C1215 0.961 . S
H1230 C1215 0.961 . S
H1231 C1215 0.961 . S
H1232 C1216 0.931 . S
H1233 C1221 0.930 . S
H1234 C1222 0.956 1_665 S
H1235 C1222 0.961 . S
H1236 C1222 0.959 1_565 S
H1237 C1223 0.958 . S
H1238 C1223 0.961 1_455 S
H1239 C1223 0.960 . S
C1240 C1241 1.391 . S
C1240 C1242 1.394 . S
C1240 H1256 0.931 . S
C1241 C1240 1.391 . S
C1241 C1245 1.376 . S
C1242 C1240 1.394 . S
C1242 C1243 1.369 . S
C1242 C1246 1.531 . S
C1243 C1242 1.369 . S
C1243 C1244 1.410 . S
C1243 C1251 1.503 . S
C1244 C1243 1.410 . S
C1244 C1245 1.392 . S
C1244 C1247 1.511 . S
C1245 C1241 1.376 . S
C1245 C1244 1.392 . S
C1245 H1257 0.929 . S
C1246 C1242 1.531 . S
C1246 H1258 0.960 . S
C1246 H1259 0.962 . S
C1246 H1260 0.960 . S
C1247 C1244 1.511 . S
C1247 H1261 0.961 . S
C1247 H1262 0.961 . S
C1247 H1263 0.961 . S
C1248 C1249 1.370 . S
C1248 C1250 1.363 . S
C1248 H1264 0.931 . S
C1249 C1248 1.370 . S
C1249 C1253 1.408 . S
C1250 C1248 1.363 . S
C1250 C1251 1.370 . S
C1250 C1254 1.524 . S
C1251 C1243 1.503 . S
C1251 C1250 1.370 . S
C1251 C1252 1.403 . S
C1252 C1251 1.403 . S
C1252 C1253 1.404 . S
C1252 C1255 1.539 . S
C1253 C1249 1.408 . S
C1253 C1252 1.404 . S
C1253 H1265 0.930 . S
C1254 C1250 1.524 . S
C1254 H1266 0.956 . S
C1254 H1267 0.961 . S
C1254 H1268 0.961 . S
C1255 C1252 1.539 . S
C1255 H1269 0.958 . S
C1255 H1270 0.961 . S
C1255 H1271 0.960 . S
H1256 C1240 0.931 . S
H1257 C1245 0.929 . S
H1258 C1246 0.960 . S
H1259 C1246 0.962 . S
H1260 C1246 0.960 . S
H1261 C1247 0.961 . S
H1262 C1247 0.961 . S
H1263 C1247 0.961 . S
H1264 C1248 0.931 . S
H1265 C1253 0.930 . S
H1266 C1254 0.956 . S
H1267 C1254 0.961 . S
H1268 C1254 0.961 . S
H1269 C1255 0.958 . S
H1270 C1255 0.961 . S
H1271 C1255 0.960 . S
C1272 C1273 1.391 . S
C1272 C1274 1.394 . S
C1272 H1288 0.931 . S
C1273 C1272 1.391 . S
C1273 C1277 1.376 . S
C1274 C1272 1.394 . S
C1274 C1275 1.369 . S
C1274 C1278 1.531 . S
C1275 C1274 1.369 . S
C1275 C1276 1.410 . S
C1275 C1283 1.503 . S
C1276 C1275 1.410 . S
C1276 C1277 1.392 . S
C1276 C1279 1.511 . S
C1277 C1273 1.376 . S
C1277 C1276 1.392 . S
C1277 H1289 0.929 . S
C1278 C1274 1.531 . S
C1278 H1290 0.960 . S
C1278 H1291 0.962 . S
C1278 H1292 0.960 . S
C1279 C1276 1.511 . S
C1279 H1293 0.961 . S
C1279 H1294 0.961 . S
C1279 H1295 0.961 . S
C1280 C1281 1.370 . S
C1280 C1282 1.363 . S
C1280 H1296 0.931 . S
C1281 C1280 1.370 . S
C1281 C1285 1.408 1_545 S
C1282 C1280 1.363 . S
C1282 C1283 1.370 . S
C1282 C1286 1.524 . S
C1283 C1275 1.503 . S
C1283 C1282 1.370 . S
C1283 C1284 1.403 1_545 S
C1284 C1283 1.403 1_565 S
C1284 C1285 1.404 . S
C1284 C1287 1.539 . S
C1285 C1281 1.408 1_565 S
C1285 C1284 1.404 . S
C1285 H1297 0.930 . S
C1286 C1282 1.524 . S
C1286 H1298 0.956 . S
C1286 H1299 0.961 . S
C1286 H1300 0.961 . S
C1287 C1284 1.539 . S
C1287 H1301 0.958 . S
C1287 H1302 0.961 . S
C1287 H1303 0.960 . S
H1288 C1272 0.931 . S
H1289 C1277 0.929 . S
H1290 C1278 0.960 . S
H1291 C1278 0.962 . S
H1292 C1278 0.960 . S
H1293 C1279 0.961 . S
H1294 C1279 0.961 . S
H1295 C1279 0.961 . S
H1296 C1280 0.931 . S
H1297 C1285 0.930 . S
H1298 C1286 0.956 . S
H1299 C1286 0.961 . S
H1300 C1286 0.961 . S
H1301 C1287 0.958 . S
H1302 C1287 0.961 . S
H1303 C1287 0.960 . S
C1304 C1305 1.391 . S
C1304 C1306 1.394 . S
C1304 H1320 0.931 . S
C1305 C1304 1.391 . S
C1305 C1309 1.376 . S
C1306 C1304 1.394 . S
C1306 C1307 1.369 . S
C1306 C1310 1.531 . S
C1307 C1306 1.369 . S
C1307 C1308 1.410 . S
C1307 C1315 1.503 . S
C1308 C1307 1.410 . S
C1308 C1309 1.392 . S
C1308 C1311 1.511 . S
C1309 C1305 1.376 . S
C1309 C1308 1.392 . S
C1309 H1321 0.929 . S
C1310 C1306 1.531 . S
C1310 H1322 0.960 . S
C1310 H1323 0.962 . S
C1310 H1324 0.960 . S
C1311 C1308 1.511 . S
C1311 H1325 0.961 . S
C1311 H1326 0.961 . S
C1311 H1327 0.961 . S
C1312 C1313 1.370 . S
C1312 C1314 1.363 . S
C1312 H1328 0.931 . S
C1313 C1312 1.370 . S
C1313 C1317 1.408 . S
C1314 C1312 1.363 . S
C1314 C1315 1.370 . S
C1314 C1318 1.524 . S
C1315 C1307 1.503 . S
C1315 C1314 1.370 . S
C1315 C1316 1.403 . S
C1316 C1315 1.403 . S
C1316 C1317 1.404 . S
C1316 C1319 1.539 . S
C1317 C1313 1.408 . S
C1317 C1316 1.404 . S
C1317 H1329 0.930 . S
C1318 C1314 1.524 . S
C1318 H1330 0.956 . S
C1318 H1331 0.961 . S
C1318 H1332 0.961 . S
C1319 C1316 1.539 . S
C1319 H1333 0.958 . S
C1319 H1334 0.961 . S
C1319 H1335 0.960 . S
H1320 C1304 0.931 . S
H1321 C1309 0.929 . S
H1322 C1310 0.960 . S
H1323 C1310 0.962 . S
H1324 C1310 0.960 . S
H1325 C1311 0.961 . S
H1326 C1311 0.961 . S
H1327 C1311 0.961 . S
H1328 C1312 0.931 . S
H1329 C1317 0.930 . S
H1330 C1318 0.956 . S
H1331 C1318 0.961 . S
H1332 C1318 0.961 . S
H1333 C1319 0.958 . S
H1334 C1319 0.961 . S
H1335 C1319 0.960 . S
C1336 C1337 1.391 1_565 S
C1336 C1338 1.394 . S
C1336 H1352 0.931 . S
C1337 C1336 1.391 1_545 S
C1337 C1341 1.376 . S
C1338 C1336 1.394 . S
C1338 C1339 1.369 1_565 S
C1338 C1342 1.531 . S
C1339 C1338 1.369 1_545 S
C1339 C1340 1.410 . S
C1339 C1347 1.503 . S
C1340 C1339 1.410 . S
C1340 C1341 1.392 . S
C1340 C1343 1.511 . S
C1341 C1337 1.376 . S
C1341 C1340 1.392 . S
C1341 H1353 0.929 . S
C1342 C1338 1.531 . S
C1342 H1354 0.960 . S
C1342 H1355 0.962 . S
C1342 H1356 0.960 . S
C1343 C1340 1.511 . S
C1343 H1357 0.961 . S
C1343 H1358 0.961 . S
C1343 H1359 0.961 1_655 S
C1344 C1345 1.370 1_655 S
C1344 C1346 1.363 . S
C1344 H1360 0.931 . S
C1345 C1344 1.370 1_455 S
C1345 C1349 1.408 . S
C1346 C1344 1.363 . S
C1346 C1347 1.370 . S
C1346 C1350 1.524 . S
C1347 C1339 1.503 . S
C1347 C1346 1.370 . S
C1347 C1348 1.403 1_655 S
C1348 C1347 1.403 1_455 S
C1348 C1349 1.404 . S
C1348 C1351 1.539 1_545 S
C1349 C1345 1.408 . S
C1349 C1348 1.404 . S
C1349 H1361 0.930 1_545 S
C1350 C1346 1.524 . S
C1350 H1362 0.956 . S
C1350 H1363 0.961 . S
C1350 H1364 0.961 . S
C1351 C1348 1.539 1_565 S
C1351 H1365 0.958 . S
C1351 H1366 0.961 1_565 S
C1351 H1367 0.960 1_565 S
H1352 C1336 0.931 . S
H1353 C1341 0.929 . S
H1354 C1342 0.960 . S
H1355 C1342 0.962 . S
H1356 C1342 0.960 . S
H1357 C1343 0.961 . S
H1358 C1343 0.961 . S
H1359 C1343 0.961 1_455 S
H1360 C1344 0.931 . S
H1361 C1349 0.930 1_565 S
H1362 C1350 0.956 . S
H1363 C1350 0.961 . S
H1364 C1350 0.961 . S
H1365 C1351 0.958 . S
H1366 C1351 0.961 1_545 S
H1367 C1351 0.960 1_545 S
C1368 C1369 1.391 . S
C1368 C1370 1.394 . S
C1368 H1384 0.931 . S
C1369 C1368 1.391 . S
C1369 C1373 1.376 . S
C1370 C1368 1.394 . S
C1370 C1371 1.369 . S
C1370 C1374 1.531 . S
C1371 C1370 1.369 . S
C1371 C1372 1.410 . S
C1371 C1379 1.503 . S
C1372 C1371 1.410 . S
C1372 C1373 1.392 . S
C1372 C1375 1.511 . S
C1373 C1369 1.376 . S
C1373 C1372 1.392 . S
C1373 H1385 0.929 . S
C1374 C1370 1.531 . S
C1374 H1386 0.960 . S
C1374 H1387 0.962 . S
C1374 H1388 0.960 . S
C1375 C1372 1.511 . S
C1375 H1389 0.961 . S
C1375 H1390 0.961 . S
C1375 H1391 0.961 . S
C1376 C1377 1.370 . S
C1376 C1378 1.363 . S
C1376 H1392 0.931 . S
C1377 C1376 1.370 . S
C1377 C1381 1.408 . S
C1378 C1376 1.363 . S
C1378 C1379 1.370 . S
C1378 C1382 1.524 . S
C1379 C1371 1.503 . S
C1379 C1378 1.370 . S
C1379 C1380 1.403 . S
C1380 C1379 1.403 . S
C1380 C1381 1.404 . S
C1380 C1383 1.539 . S
C1381 C1377 1.408 . S
C1381 C1380 1.404 . S
C1381 H1393 0.930 . S
C1382 C1378 1.524 . S
C1382 H1394 0.956 . S
C1382 H1395 0.961 . S
C1382 H1396 0.961 . S
C1383 C1380 1.539 . S
C1383 H1397 0.958 . S
C1383 H1398 0.961 . S
C1383 H1399 0.960 . S
H1384 C1368 0.931 . S
H1385 C1373 0.929 . S
H1386 C1374 0.960 . S
H1387 C1374 0.962 . S
H1388 C1374 0.960 . S
H1389 C1375 0.961 . S
H1390 C1375 0.961 . S
H1391 C1375 0.961 . S
H1392 C1376 0.931 . S
H1393 C1381 0.930 . S
H1394 C1382 0.956 . S
H1395 C1382 0.961 . S
H1396 C1382 0.961 . S
H1397 C1383 0.958 . S
H1398 C1383 0.961 . S
H1399 C1383 0.960 . S
C1400 C1401 1.391 . S
C1400 C1402 1.394 . S
C1400 H1416 0.931 . S
C1401 C1400 1.391 . S
C1401 C1405 1.376 . S
C1402 C1400 1.394 . S
C1402 C1403 1.369 . S
C1402 C1406 1.531 . S
C1403 C1402 1.369 . S
C1403 C1404 1.410 . S
C1403 C1411 1.503 . S
C1404 C1403 1.410 . S
C1404 C1405 1.392 . S
C1404 C1407 1.511 . S
C1405 C1401 1.376 . S
C1405 C1404 1.392 . S
C1405 H1417 0.929 . S
C1406 C1402 1.531 . S
C1406 H1418 0.960 . S
C1406 H1419 0.962 . S
C1406 H1420 0.960 1_545 S
C1407 C1404 1.511 . S
C1407 H1421 0.961 . S
C1407 H1422 0.961 . S
C1407 H1423 0.961 . S
C1408 C1409 1.370 . S
C1408 C1410 1.363 . S
C1408 H1424 0.931 . S
C1409 C1408 1.370 . S
C1409 C1413 1.408 . S
C1410 C1408 1.363 . S
C1410 C1411 1.370 . S
C1410 C1414 1.524 . S
C1411 C1403 1.503 . S
C1411 C1410 1.370 . S
C1411 C1412 1.403 . S
C1412 C1411 1.403 . S
C1412 C1413 1.404 . S
C1412 C1415 1.539 . S
C1413 C1409 1.408 . S
C1413 C1412 1.404 . S
C1413 H1425 0.930 . S
C1414 C1410 1.524 . S
C1414 H1426 0.956 . S
C1414 H1427 0.961 . S
C1414 H1428 0.961 . S
C1415 C1412 1.539 . S
C1415 H1429 0.958 . S
C1415 H1430 0.961 . S
C1415 H1431 0.960 . S
H1416 C1400 0.931 . S
H1417 C1405 0.929 . S
H1418 C1406 0.960 . S
H1419 C1406 0.962 . S
H1420 C1406 0.960 1_565 S
H1421 C1407 0.961 . S
H1422 C1407 0.961 . S
H1423 C1407 0.961 . S
H1424 C1408 0.931 . S
H1425 C1413 0.930 . S
H1426 C1414 0.956 . S
H1427 C1414 0.961 . S
H1428 C1414 0.961 . S
H1429 C1415 0.958 . S
H1430 C1415 0.961 . S
H1431 C1415 0.960 . S
C1432 C1433 1.391 . S
C1432 C1434 1.394 . S
C1432 H1448 0.931 . S
C1433 C1432 1.391 . S
C1433 C1437 1.376 . S
C1434 C1432 1.394 . S
C1434 C1435 1.369 . S
C1434 C1438 1.531 . S
C1435 C1434 1.369 . S
C1435 C1436 1.410 . S
C1435 C1443 1.503 . S
C1436 C1435 1.410 . S
C1436 C1437 1.392 . S
C1436 C1439 1.511 . S
C1437 C1433 1.376 . S
C1437 C1436 1.392 . S
C1437 H1449 0.929 . S
C1438 C1434 1.531 . S
C1438 H1450 0.960 . S
C1438 H1451 0.962 . S
C1438 H1452 0.960 . S
C1439 C1436 1.511 . S
C1439 H1453 0.961 . S
C1439 H1454 0.961 . S
C1439 H1455 0.961 . S
C1440 C1441 1.370 . S
C1440 C1442 1.363 . S
C1440 H1456 0.931 . S
C1441 C1440 1.370 . S
C1441 C1445 1.408 . S
C1442 C1440 1.363 . S
C1442 C1443 1.370 . S
C1442 C1446 1.524 . S
C1443 C1435 1.503 . S
C1443 C1442 1.370 . S
C1443 C1444 1.403 . S
C1444 C1443 1.403 . S
C1444 C1445 1.404 . S
C1444 C1447 1.539 . S
C1445 C1441 1.408 . S
C1445 C1444 1.404 . S
C1445 H1457 0.930 . S
C1446 C1442 1.524 . S
C1446 H1458 0.956 . S
C1446 H1459 0.961 . S
C1446 H1460 0.961 . S
C1447 C1444 1.539 . S
C1447 H1461 0.958 . S
C1447 H1462 0.961 . S
C1447 H1463 0.960 . S
H1448 C1432 0.931 . S
H1449 C1437 0.929 . S
H1450 C1438 0.960 . S
H1451 C1438 0.962 . S
H1452 C1438 0.960 . S
H1453 C1439 0.961 . S
H1454 C1439 0.961 . S
H1455 C1439 0.961 . S
H1456 C1440 0.931 . S
H1457 C1445 0.930 . S
H1458 C1446 0.956 . S
H1459 C1446 0.961 . S
H1460 C1446 0.961 . S
H1461 C1447 0.958 . S
H1462 C1447 0.961 . S
H1463 C1447 0.960 . S
C1464 C1465 1.391 . S
C1464 C1466 1.394 . S
C1464 H1480 0.931 1_554 S
C1465 C1464 1.391 . S
C1465 C1469 1.376 . S
C1466 C1464 1.394 . S
C1466 C1467 1.369 . S
C1466 C1470 1.531 . S
C1467 C1466 1.369 . S
C1467 C1468 1.410 . S
C1467 C1475 1.511 . S
C1468 C1467 1.410 . S
C1468 C1469 1.392 . S
C1468 C1471 1.511 1_565 S
C1469 C1465 1.376 . S
C1469 C1468 1.392 . S
C1469 H1481 0.929 . S
C1470 C1466 1.531 . S
C1470 H1482 0.960 . S
C1470 H1483 0.962 . S
C1470 H1484 0.960 . S
C1471 C1468 1.511 1_545 S
C1471 H1485 0.961 . S
C1471 H1486 0.961 . S
C1471 H1487 0.961 1_545 S
C1472 C1473 1.370 . S
C1472 C1474 1.363 . S
C1472 H1488 0.931 . S
C1473 C1472 1.370 . S
C1473 C1477 1.408 . S
C1474 C1472 1.363 . S
C1474 C1475 1.360 1_545 S
C1474 C1478 1.524 . S
C1475 C1467 1.511 . S
C1475 C1474 1.360 1_565 S
C1475 C1476 1.406 . S
C1476 C1475 1.406 . S
C1476 C1477 1.404 1_565 S
C1476 C1479 1.539 . S
C1477 C1473 1.408 . S
C1477 C1476 1.404 1_545 S
C1477 H1489 0.930 1_545 S
C1478 C1474 1.524 . S
C1478 H1490 0.956 . S
C1478 H1491 0.961 . S
C1478 H1492 0.961 . S
C1479 C1476 1.539 . S
C1479 H1493 0.958 . S
C1479 H1494 0.961 . S
C1479 H1495 0.960 . S
H1480 C1464 0.931 1_556 S
H1481 C1469 0.929 . S
H1482 C1470 0.960 . S
H1483 C1470 0.962 . S
H1484 C1470 0.960 . S
H1485 C1471 0.961 . S
H1486 C1471 0.961 . S
H1487 C1471 0.961 1_565 S
H1488 C1472 0.931 . S
H1489 C1477 0.930 1_565 S
H1490 C1478 0.956 . S
H1491 C1478 0.961 . S
H1492 C1478 0.961 . S
H1493 C1479 0.958 . S
H1494 C1479 0.961 . S
H1495 C1479 0.960 . S
C1496 C1497 1.391 . S
C1496 C1498 1.394 . S
C1496 H1512 0.931 1_554 S
C1497 C1496 1.391 . S
C1497 C1501 1.376 . S
C1498 C1496 1.394 . S
C1498 C1499 1.369 . S
C1498 C1502 1.531 1_554 S
C1499 C1498 1.369 . S
C1499 C1500 1.410 . S
C1499 C1507 1.503 . S
C1500 C1499 1.410 . S
C1500 C1501 1.392 . S
C1500 C1503 1.511 . S
C1501 C1497 1.376 . S
C1501 C1500 1.392 . S
C1501 H1513 0.929 . S
C1502 C1498 1.531 1_556 S
C1502 H1514 0.960 . S
C1502 H1515 0.962 . S
C1502 H1516 0.960 . S
C1503 C1500 1.511 . S
C1503 H1517 0.961 . S
C1503 H1518 0.961 . S
C1503 H1519 0.961 . S
C1504 C1505 1.370 . S
C1504 C1506 1.363 . S
C1504 H1520 0.931 . S
C1505 C1504 1.370 . S
C1505 C1509 1.408 . S
C1506 C1504 1.363 . S
C1506 C1507 1.370 . S
C1506 C1510 1.524 . S
C1507 C1499 1.503 . S
C1507 C1506 1.370 . S
C1507 C1508 1.403 . S
C1508 C1507 1.403 . S
C1508 C1509 1.404 . S
C1508 C1511 1.539 1_554 S
C1509 C1505 1.408 . S
C1509 C1508 1.404 . S
C1509 H1521 0.930 1_554 S
C1510 C1506 1.524 . S
C1510 H1522 0.956 . S
C1510 H1523 0.961 . S
C1510 H1524 0.961 . S
C1511 C1508 1.539 1_556 S
C1511 H1525 0.958 . S
C1511 H1526 0.961 . S
C1511 H1527 0.960 . S
H1512 C1496 0.931 1_556 S
H1513 C1501 0.929 . S
H1514 C1502 0.960 . S
H1515 C1502 0.962 . S
H1516 C1502 0.960 . S
H1517 C1503 0.961 . S
H1518 C1503 0.961 . S
H1519 C1503 0.961 . S
H1520 C1504 0.931 . S
H1521 C1509 0.930 1_556 S
H1522 C1510 0.956 . S
H1523 C1510 0.961 . S
H1524 C1510 0.961 . S
H1525 C1511 0.958 . S
H1526 C1511 0.961 . S
H1527 C1511 0.960 . S
C1528 C1529 1.391 . S
C1528 C1530 1.394 . S
C1528 H1544 0.931 . S
C1529 C1528 1.391 . S
C1529 C1533 1.376 . S
C1530 C1528 1.394 . S
C1530 C1531 1.369 . S
C1530 C1534 1.531 . S
C1531 C1530 1.369 . S
C1531 C1532 1.410 . S
C1531 C1539 1.503 . S
C1532 C1531 1.410 . S
C1532 C1533 1.392 . S
C1532 C1535 1.511 . S
C1533 C1529 1.376 . S
C1533 C1532 1.392 . S
C1533 H1545 0.929 . S
C1534 C1530 1.531 . S
C1534 H1546 0.960 . S
C1534 H1547 0.962 . S
C1534 H1548 0.960 . S
C1535 C1532 1.511 . S
C1535 H1549 0.961 . S
C1535 H1550 0.961 . S
C1535 H1551 0.961 . S
C1536 C1537 1.370 . S
C1536 C1538 1.363 . S
C1536 H1552 0.931 . S
C1537 C1536 1.370 . S
C1537 C1541 1.408 . S
C1538 C1536 1.363 . S
C1538 C1539 1.370 . S
C1538 C1542 1.524 . S
C1539 C1531 1.503 . S
C1539 C1538 1.370 . S
C1539 C1540 1.403 . S
C1540 C1539 1.403 . S
C1540 C1541 1.404 . S
C1540 C1543 1.539 . S
C1541 C1537 1.408 . S
C1541 C1540 1.404 . S
C1541 H1553 0.930 . S
C1542 C1538 1.524 . S
C1542 H1554 0.956 . S
C1542 H1555 0.961 . S
C1542 H1556 0.961 . S
C1543 C1540 1.539 . S
C1543 H1557 0.958 . S
C1543 H1558 0.961 . S
C1543 H1559 0.960 . S
H1544 C1528 0.931 . S
H1545 C1533 0.929 . S
H1546 C1534 0.960 . S
H1547 C1534 0.962 . S
H1548 C1534 0.960 . S
H1549 C1535 0.961 . S
H1550 C1535 0.961 . S
H1551 C1535 0.961 . S
H1552 C1536 0.931 . S
H1553 C1541 0.930 . S
H1554 C1542 0.956 . S
H1555 C1542 0.961 . S
H1556 C1542 0.961 . S
H1557 C1543 0.958 . S
H1558 C1543 0.961 . S
H1559 C1543 0.960 . S
C1560 C1561 1.391 . S
C1560 C1562 1.394 . S
C1560 H1576 0.931 . S
C1561 C1560 1.391 . S
C1561 C1565 1.376 . S
C1562 C1560 1.394 . S
C1562 C1563 1.369 . S
C1562 C1566 1.531 . S
C1563 C1562 1.369 . S
C1563 C1564 1.410 . S
C1563 C1571 1.503 . S
C1564 C1563 1.410 . S
C1564 C1565 1.392 . S
C1564 C1567 1.511 . S
C1565 C1561 1.376 . S
C1565 C1564 1.392 . S
C1565 H1577 0.929 . S
C1566 C1562 1.531 . S
C1566 H1578 0.960 . S
C1566 H1579 0.962 . S
C1566 H1580 0.960 . S
C1567 C1564 1.511 . S
C1567 H1581 0.961 . S
C1567 H1582 0.961 . S
C1567 H1583 0.961 . S
C1568 C1569 1.370 . S
C1568 C1570 1.363 . S
C1568 H1584 0.931 . S
C1569 C1568 1.370 . S
C1569 C1573 1.408 . S
C1570 C1568 1.363 . S
C1570 C1571 1.370 . S
C1570 C1574 1.524 . S
C1571 C1563 1.503 . S
C1571 C1570 1.370 . S
C1571 C1572 1.403 . S
C1572 C1571 1.403 . S
C1572 C1573 1.404 . S
C1572 C1575 1.539 . S
C1573 C1569 1.408 . S
C1573 C1572 1.404 . S
C1573 H1585 0.930 . S
C1574 C1570 1.524 . S
C1574 H1586 0.956 . S
C1574 H1587 0.961 . S
C1574 H1588 0.961 . S
C1575 C1572 1.539 . S
C1575 H1589 0.958 . S
C1575 H1590 0.961 . S
C1575 H1591 0.960 . S
H1576 C1560 0.931 . S
H1577 C1565 0.929 . S
H1578 C1566 0.960 . S
H1579 C1566 0.962 . S
H1580 C1566 0.960 . S
H1581 C1567 0.961 . S
H1582 C1567 0.961 . S
H1583 C1567 0.961 . S
H1584 C1568 0.931 . S
H1585 C1573 0.930 . S
H1586 C1574 0.956 . S
H1587 C1574 0.961 . S
H1588 C1574 0.961 . S
H1589 C1575 0.958 . S
H1590 C1575 0.961 . S
H1591 C1575 0.960 . S
C1592 C1593 1.391 . S
C1592 C1594 1.394 . S
C1592 H1608 0.931 . S
C1593 C1592 1.391 . S
C1593 C1597 1.376 . S
C1594 C1592 1.394 . S
C1594 C1595 1.369 . S
C1594 C1598 1.531 . S
C1595 C1594 1.369 . S
C1595 C1596 1.410 . S
C1595 C1603 1.503 . S
C1596 C1595 1.410 . S
C1596 C1597 1.392 . S
C1596 C1599 1.511 . S
C1597 C1593 1.376 . S
C1597 C1596 1.392 . S
C1597 H1609 0.929 . S
C1598 C1594 1.531 . S
C1598 H1610 0.960 . S
C1598 H1611 0.962 . S
C1598 H1612 0.960 . S
C1599 C1596 1.511 . S
C1599 H1613 0.961 . S
C1599 H1614 0.961 . S
C1599 H1615 0.961 . S
C1600 C1601 1.370 . S
C1600 C1602 1.363 . S
C1600 H1616 0.931 . S
C1601 C1600 1.370 . S
C1601 C1605 1.408 . S
C1602 C1600 1.363 . S
C1602 C1603 1.370 . S
C1602 C1606 1.524 . S
C1603 C1595 1.503 . S
C1603 C1602 1.370 . S
C1603 C1604 1.403 . S
C1604 C1603 1.403 . S
C1604 C1605 1.404 . S
C1604 C1607 1.539 . S
C1605 C1601 1.408 . S
C1605 C1604 1.404 . S
C1605 H1617 0.930 . S
C1606 C1602 1.524 . S
C1606 H1618 0.956 . S
C1606 H1619 0.961 . S
C1606 H1620 0.961 . S
C1607 C1604 1.539 . S
C1607 H1621 0.958 . S
C1607 H1622 0.961 . S
C1607 H1623 0.960 . S
H1608 C1592 0.931 . S
H1609 C1597 0.929 . S
H1610 C1598 0.960 . S
H1611 C1598 0.962 . S
H1612 C1598 0.960 . S
H1613 C1599 0.961 . S
H1614 C1599 0.961 . S
H1615 C1599 0.961 . S
H1616 C1600 0.931 . S
H1617 C1605 0.930 . S
H1618 C1606 0.956 . S
H1619 C1606 0.961 . S
H1620 C1606 0.961 . S
H1621 C1607 0.958 . S
H1622 C1607 0.961 . S
H1623 C1607 0.960 . S
C1624 C1625 1.391 . S
C1624 C1626 1.394 . S
C1624 H1640 0.931 . S
C1625 C1624 1.391 . S
C1625 C1629 1.376 . S
C1626 C1624 1.394 . S
C1626 C1627 1.369 . S
C1626 C1630 1.531 . S
C1627 C1626 1.369 . S
C1627 C1628 1.410 . S
C1627 C1635 1.503 . S
C1628 C1627 1.410 . S
C1628 C1629 1.392 . S
C1628 C1631 1.511 . S
C1629 C1625 1.376 . S
C1629 C1628 1.392 . S
C1629 H1641 0.929 . S
C1630 C1626 1.531 . S
C1630 H1642 0.960 . S
C1630 H1643 0.962 . S
C1630 H1644 0.960 . S
C1631 C1628 1.511 . S
C1631 H1645 0.961 . S
C1631 H1646 0.961 . S
C1631 H1647 0.961 . S
C1632 C1633 1.370 . S
C1632 C1634 1.363 . S
C1632 H1648 0.931 . S
C1633 C1632 1.370 . S
C1633 C1637 1.408 . S
C1634 C1632 1.363 . S
C1634 C1635 1.370 . S
C1634 C1638 1.524 . S
C1635 C1627 1.503 . S
C1635 C1634 1.370 . S
C1635 C1636 1.403 . S
C1636 C1635 1.403 . S
C1636 C1637 1.404 . S
C1636 C1639 1.539 . S
C1637 C1633 1.408 . S
C1637 C1636 1.404 . S
C1637 H1649 0.930 . S
C1638 C1634 1.524 . S
C1638 H1650 0.956 . S
C1638 H1651 0.961 . S
C1638 H1652 0.961 . S
C1639 C1636 1.539 . S
C1639 H1653 0.958 . S
C1639 H1654 0.961 . S
C1639 H1655 0.960 . S
H1640 C1624 0.931 . S
H1641 C1629 0.929 . S
H1642 C1630 0.960 . S
H1643 C1630 0.962 . S
H1644 C1630 0.960 . S
H1645 C1631 0.961 . S
H1646 C1631 0.961 . S
H1647 C1631 0.961 . S
H1648 C1632 0.931 . S
H1649 C1637 0.930 . S
H1650 C1638 0.956 . S
H1651 C1638 0.961 . S
H1652 C1638 0.961 . S
H1653 C1639 0.958 . S
H1654 C1639 0.961 . S
H1655 C1639 0.960 . S
C1656 C1657 1.391 . S
C1656 C1658 1.394 . S
C1656 H1672 0.931 . S
C1657 C1656 1.391 . S
C1657 C1661 1.376 . S
C1658 C1656 1.394 . S
C1658 C1659 1.369 . S
C1658 C1662 1.531 . S
C1659 C1658 1.369 . S
C1659 C1660 1.410 . S
C1659 C1667 1.503 . S
C1660 C1659 1.410 . S
C1660 C1661 1.392 . S
C1660 C1663 1.511 . S
C1661 C1657 1.376 . S
C1661 C1660 1.392 . S
C1661 H1673 0.929 . S
C1662 C1658 1.531 . S
C1662 H1674 0.960 . S
C1662 H1675 0.962 . S
C1662 H1676 0.960 . S
C1663 C1660 1.511 . S
C1663 H1677 0.961 . S
C1663 H1678 0.961 . S
C1663 H1679 0.961 . S
C1664 C1665 1.370 . S
C1664 C1666 1.363 . S
C1664 H1680 0.931 . S
C1665 C1664 1.370 . S
C1665 C1669 1.408 . S
C1666 C1664 1.363 . S
C1666 C1667 1.370 . S
C1666 C1670 1.524 . S
C1667 C1659 1.503 . S
C1667 C1666 1.370 . S
C1667 C1668 1.403 . S
C1668 C1667 1.403 . S
C1668 C1669 1.404 . S
C1668 C1671 1.539 . S
C1669 C1665 1.408 . S
C1669 C1668 1.404 . S
C1669 H1681 0.930 . S
C1670 C1666 1.524 . S
C1670 H1682 0.956 . S
C1670 H1683 0.961 . S
C1670 H1684 0.961 . S
C1671 C1668 1.539 . S
C1671 H1685 0.958 . S
C1671 H1686 0.961 . S
C1671 H1687 0.960 . S
H1672 C1656 0.931 . S
H1673 C1661 0.929 . S
H1674 C1662 0.960 . S
H1675 C1662 0.962 . S
H1676 C1662 0.960 . S
H1677 C1663 0.961 . S
H1678 C1663 0.961 . S
H1679 C1663 0.961 . S
H1680 C1664 0.931 . S
H1681 C1669 0.930 . S
H1682 C1670 0.956 . S
H1683 C1670 0.961 . S
H1684 C1670 0.961 . S
H1685 C1671 0.958 . S
H1686 C1671 0.961 . S
H1687 C1671 0.960 . S
C1688 C1689 1.391 . S
C1688 C1690 1.394 . S
C1688 H1704 0.931 . S
C1689 C1688 1.391 . S
C1689 C1693 1.376 . S
C1690 C1688 1.394 . S
C1690 C1691 1.369 . S
C1690 C1694 1.531 . S
C1691 C1690 1.369 . S
C1691 C1692 1.410 . S
C1691 C1699 1.503 . S
C1692 C1691 1.410 . S
C1692 C1693 1.392 . S
C1692 C1695 1.511 . S
C1693 C1689 1.376 . S
C1693 C1692 1.392 . S
C1693 H1705 0.929 . S
C1694 C1690 1.531 . S
C1694 H1706 0.960 . S
C1694 H1707 0.962 . S
C1694 H1708 0.960 . S
C1695 C1692 1.511 . S
C1695 H1709 0.961 . S
C1695 H1710 0.961 . S
C1695 H1711 0.961 . S
C1696 C1697 1.370 . S
C1696 C1698 1.363 . S
C1696 H1712 0.931 . S
C1697 C1696 1.370 . S
C1697 C1701 1.408 . S
C1698 C1696 1.363 . S
C1698 C1699 1.370 . S
C1698 C1702 1.524 . S
C1699 C1691 1.503 . S
C1699 C1698 1.370 . S
C1699 C1700 1.403 . S
C1700 C1699 1.403 . S
C1700 C1701 1.404 . S
C1700 C1703 1.539 . S
C1701 C1697 1.408 . S
C1701 C1700 1.404 . S
C1701 H1713 0.930 . S
C1702 C1698 1.524 . S
C1702 H1714 0.956 . S
C1702 H1715 0.961 . S
C1702 H1716 0.961 . S
C1703 C1700 1.539 . S
C1703 H1717 0.958 . S
C1703 H1718 0.961 . S
C1703 H1719 0.960 . S
H1704 C1688 0.931 . S
H1705 C1693 0.929 . S
H1706 C1694 0.960 . S
H1707 C1694 0.962 . S
H1708 C1694 0.960 . S
H1709 C1695 0.961 . S
H1710 C1695 0.961 . S
H1711 C1695 0.961 . S
H1712 C1696 0.931 . S
H1713 C1701 0.930 . S
H1714 C1702 0.956 . S
H1715 C1702 0.961 . S
H1716 C1702 0.961 . S
H1717 C1703 0.958 . S
H1718 C1703 0.961 . S
H1719 C1703 0.960 . S
C1720 C1721 1.391 . S
C1720 C1722 1.394 . S
C1720 H1736 0.931 . S
C1721 C1720 1.391 . S
C1721 C1725 1.376 . S
C1722 C1720 1.394 . S
C1722 C1723 1.369 . S
C1722 C1726 1.531 . S
C1723 C1722 1.369 . S
C1723 C1724 1.410 . S
C1723 C1731 1.503 . S
C1724 C1723 1.410 . S
C1724 C1725 1.392 . S
C1724 C1727 1.511 . S
C1725 C1721 1.376 . S
C1725 C1724 1.392 . S
C1725 H1737 0.929 . S
C1726 C1722 1.531 . S
C1726 H1738 0.960 . S
C1726 H1739 0.962 . S
C1726 H1740 0.960 . S
C1727 C1724 1.511 . S
C1727 H1741 0.961 . S
C1727 H1742 0.961 . S
C1727 H1743 0.961 . S
C1728 C1729 1.370 . S
C1728 C1730 1.363 . S
C1728 H1744 0.931 . S
C1729 C1728 1.370 . S
C1729 C1733 1.408 . S
C1730 C1728 1.363 . S
C1730 C1731 1.370 . S
C1730 C1734 1.524 . S
C1731 C1723 1.503 . S
C1731 C1730 1.370 . S
C1731 C1732 1.403 . S
C1732 C1731 1.403 . S
C1732 C1733 1.404 . S
C1732 C1735 1.539 . S
C1733 C1729 1.408 . S
C1733 C1732 1.404 . S
C1733 H1745 0.930 . S
C1734 C1730 1.524 . S
C1734 H1746 0.956 . S
C1734 H1747 0.961 . S
C1734 H1748 0.961 . S
C1735 C1732 1.539 . S
C1735 H1749 0.958 . S
C1735 H1750 0.961 . S
C1735 H1751 0.960 . S
H1736 C1720 0.931 . S
H1737 C1725 0.929 . S
H1738 C1726 0.960 . S
H1739 C1726 0.962 . S
H1740 C1726 0.960 . S
H1741 C1727 0.961 . S
H1742 C1727 0.961 . S
H1743 C1727 0.961 . S
H1744 C1728 0.931 . S
H1745 C1733 0.930 . S
H1746 C1734 0.956 . S
H1747 C1734 0.961 . S
H1748 C1734 0.961 . S
H1749 C1735 0.958 . S
H1750 C1735 0.961 . S
H1751 C1735 0.960 . S
C1752 C1753 1.391 . S
C1752 C1754 1.394 . S
C1752 H1768 0.931 . S
C1753 C1752 1.391 . S
C1753 C1757 1.376 . S
C1754 C1752 1.394 . S
C1754 C1755 1.369 . S
C1754 C1758 1.531 . S
C1755 C1754 1.369 . S
C1755 C1756 1.410 . S
C1755 C1763 1.503 . S
C1756 C1755 1.410 . S
C1756 C1757 1.392 . S
C1756 C1759 1.511 . S
C1757 C1753 1.376 . S
C1757 C1756 1.392 . S
C1757 H1769 0.929 . S
C1758 C1754 1.531 . S
C1758 H1770 0.960 . S
C1758 H1771 0.962 . S
C1758 H1772 0.960 . S
C1759 C1756 1.511 . S
C1759 H1773 0.961 . S
C1759 H1774 0.961 . S
C1759 H1775 0.961 . S
C1760 C1761 1.370 . S
C1760 C1762 1.363 . S
C1760 H1776 0.931 . S
C1761 C1760 1.370 . S
C1761 C1765 1.408 . S
C1762 C1760 1.363 . S
C1762 C1763 1.370 . S
C1762 C1766 1.524 . S
C1763 C1755 1.503 . S
C1763 C1762 1.370 . S
C1763 C1764 1.403 . S
C1764 C1763 1.403 . S
C1764 C1765 1.404 . S
C1764 C1767 1.539 . S
C1765 C1761 1.408 . S
C1765 C1764 1.404 . S
C1765 H1777 0.930 . S
C1766 C1762 1.524 . S
C1766 H1778 0.956 . S
C1766 H1779 0.961 . S
C1766 H1780 0.961 . S
C1767 C1764 1.539 . S
C1767 H1781 0.958 . S
C1767 H1782 0.961 . S
C1767 H1783 0.960 . S
H1768 C1752 0.931 . S
H1769 C1757 0.929 . S
H1770 C1758 0.960 . S
H1771 C1758 0.962 . S
H1772 C1758 0.960 . S
H1773 C1759 0.961 . S
H1774 C1759 0.961 . S
H1775 C1759 0.961 . S
H1776 C1760 0.931 . S
H1777 C1765 0.930 . S
H1778 C1766 0.956 . S
H1779 C1766 0.961 . S
H1780 C1766 0.961 . S
H1781 C1767 0.958 . S
H1782 C1767 0.961 . S
H1783 C1767 0.960 . S
C1784 C1785 1.391 . S
C1784 C1786 1.394 . S
C1784 H1800 0.931 . S
C1785 C1784 1.391 . S
C1785 C1789 1.376 . S
C1786 C1784 1.394 . S
C1786 C1787 1.369 . S
C1786 C1790 1.531 . S
C1787 C1786 1.369 . S
C1787 C1788 1.410 . S
C1787 C1795 1.503 . S
C1788 C1787 1.410 . S
C1788 C1789 1.392 . S
C1788 C1791 1.511 . S
C1789 C1785 1.376 . S
C1789 C1788 1.392 . S
C1789 H1801 0.929 . S
C1790 C1786 1.531 . S
C1790 H1802 0.960 . S
C1790 H1803 0.962 . S
C1790 H1804 0.960 . S
C1791 C1788 1.511 . S
C1791 H1805 0.961 . S
C1791 H1806 0.961 . S
C1791 H1807 0.961 . S
C1792 C1793 1.370 . S
C1792 C1794 1.363 . S
C1792 H1808 0.931 . S
C1793 C1792 1.370 . S
C1793 C1797 1.408 . S
C1794 C1792 1.363 . S
C1794 C1795 1.370 . S
C1794 C1798 1.524 . S
C1795 C1787 1.503 . S
C1795 C1794 1.370 . S
C1795 C1796 1.403 . S
C1796 C1795 1.403 . S
C1796 C1797 1.404 . S
C1796 C1799 1.539 . S
C1797 C1793 1.408 . S
C1797 C1796 1.404 . S
C1797 H1809 0.930 . S
C1798 C1794 1.524 . S
C1798 H1810 0.956 . S
C1798 H1811 0.961 . S
C1798 H1812 0.961 . S
C1799 C1796 1.539 . S
C1799 H1813 0.958 . S
C1799 H1814 0.961 . S
C1799 H1815 0.960 . S
H1800 C1784 0.931 . S
H1801 C1789 0.929 . S
H1802 C1790 0.960 . S
H1803 C1790 0.962 . S
H1804 C1790 0.960 . S
H1805 C1791 0.961 . S
H1806 C1791 0.961 . S
H1807 C1791 0.961 . S
H1808 C1792 0.931 . S
H1809 C1797 0.930 . S
H1810 C1798 0.956 . S
H1811 C1798 0.961 . S
H1812 C1798 0.961 . S
H1813 C1799 0.958 . S
H1814 C1799 0.961 . S
H1815 C1799 0.960 . S
C1816 C1817 1.391 . S
C1816 C1818 1.394 . S
C1816 H1832 0.931 . S
C1817 C1816 1.391 . S
C1817 C1821 1.376 . S
C1818 C1816 1.394 . S
C1818 C1819 1.369 . S
C1818 C1822 1.531 . S
C1819 C1818 1.369 . S
C1819 C1820 1.410 . S
C1819 C1827 1.503 . S
C1820 C1819 1.410 . S
C1820 C1821 1.392 . S
C1820 C1823 1.511 . S
C1821 C1817 1.376 . S
C1821 C1820 1.392 . S
C1821 H1833 0.929 . S
C1822 C1818 1.531 . S
C1822 H1834 0.960 . S
C1822 H1835 0.962 . S
C1822 H1836 0.960 . S
C1823 C1820 1.511 . S
C1823 H1837 0.961 . S
C1823 H1838 0.961 . S
C1823 H1839 0.961 . S
C1824 C1825 1.370 . S
C1824 C1826 1.363 . S
C1824 H1840 0.931 . S
C1825 C1824 1.370 . S
C1825 C1829 1.408 . S
C1826 C1824 1.363 . S
C1826 C1827 1.370 . S
C1826 C1830 1.524 . S
C1827 C1819 1.503 . S
C1827 C1826 1.370 . S
C1827 C1828 1.403 . S
C1828 C1827 1.403 . S
C1828 C1829 1.404 . S
C1828 C1831 1.539 . S
C1829 C1825 1.408 . S
C1829 C1828 1.404 . S
C1829 H1841 0.930 . S
C1830 C1826 1.524 . S
C1830 H1842 0.956 . S
C1830 H1843 0.961 . S
C1830 H1844 0.961 . S
C1831 C1828 1.539 . S
C1831 H1845 0.958 . S
C1831 H1846 0.961 . S
C1831 H1847 0.960 . S
H1832 C1816 0.931 . S
H1833 C1821 0.929 . S
H1834 C1822 0.960 . S
H1835 C1822 0.962 . S
H1836 C1822 0.960 . S
H1837 C1823 0.961 . S
H1838 C1823 0.961 . S
H1839 C1823 0.961 . S
H1840 C1824 0.931 . S
H1841 C1829 0.930 . S
H1842 C1830 0.956 . S
H1843 C1830 0.961 . S
H1844 C1830 0.961 . S
H1845 C1831 0.958 . S
H1846 C1831 0.961 . S
H1847 C1831 0.960 . S
C1848 C1849 1.391 . S
C1848 C1850 1.394 . S
C1848 H1864 0.931 . S
C1849 C1848 1.391 . S
C1849 C1853 1.376 . S
C1850 C1848 1.394 . S
C1850 C1851 1.369 . S
C1850 C1854 1.531 . S
C1851 C1850 1.369 . S
C1851 C1852 1.410 . S
C1851 C1859 1.503 . S
C1852 C1851 1.410 . S
C1852 C1853 1.392 . S
C1852 C1855 1.511 . S
C1853 C1849 1.376 . S
C1853 C1852 1.392 . S
C1853 H1865 0.929 . S
C1854 C1850 1.531 . S
C1854 H1866 0.960 . S
C1854 H1867 0.962 . S
C1854 H1868 0.960 . S
C1855 C1852 1.511 . S
C1855 H1869 0.961 . S
C1855 H1870 0.961 . S
C1855 H1871 0.961 1_455 S
C1856 C1857 1.370 . S
C1856 C1858 1.363 . S
C1856 H1872 0.931 . S
C1857 C1856 1.370 . S
C1857 C1861 1.408 . S
C1858 C1856 1.363 . S
C1858 C1859 1.370 . S
C1858 C1862 1.524 . S
C1859 C1851 1.503 . S
C1859 C1858 1.370 . S
C1859 C1860 1.403 . S
C1860 C1859 1.403 . S
C1860 C1861 1.404 . S
C1860 C1863 1.539 1_455 S
C1861 C1857 1.408 . S
C1861 C1860 1.404 . S
C1861 H1873 0.930 . S
C1862 C1858 1.524 . S
C1862 H1874 0.956 . S
C1862 H1875 0.961 . S
C1862 H1876 0.961 . S
C1863 C1860 1.539 1_655 S
C1863 H1877 0.958 . S
C1863 H1878 0.961 . S
C1863 H1879 0.960 . S
H1864 C1848 0.931 . S
H1865 C1853 0.929 . S
H1866 C1854 0.960 . S
H1867 C1854 0.962 . S
H1868 C1854 0.960 . S
H1869 C1855 0.961 . S
H1870 C1855 0.961 . S
H1871 C1855 0.961 1_655 S
H1872 C1856 0.931 . S
H1873 C1861 0.930 . S
H1874 C1862 0.956 . S
H1875 C1862 0.961 . S
H1876 C1862 0.961 . S
H1877 C1863 0.958 . S
H1878 C1863 0.961 . S
H1879 C1863 0.960 . S
C1880 C1881 1.391 . S
C1880 C1882 1.394 . S
C1880 H1896 0.931 . S
C1881 C1880 1.391 . S
C1881 C1885 1.376 . S
C1882 C1880 1.394 . S
C1882 C1883 1.369 . S
C1882 C1886 1.531 . S
C1883 C1882 1.369 . S
C1883 C1884 1.410 . S
C1883 C1891 1.503 . S
C1884 C1883 1.410 . S
C1884 C1885 1.392 . S
C1884 C1887 1.511 . S
C1885 C1881 1.376 . S
C1885 C1884 1.392 . S
C1885 H1897 0.929 . S
C1886 C1882 1.531 . S
C1886 H1898 0.960 . S
C1886 H1899 0.962 . S
C1886 H1900 0.960 . S
C1887 C1884 1.511 . S
C1887 H1901 0.961 . S
C1887 H1902 0.961 . S
C1887 H1903 0.961 . S
C1888 C1889 1.370 . S
C1888 C1890 1.363 . S
C1888 H1904 0.931 . S
C1889 C1888 1.370 . S
C1889 C1893 1.408 . S
C1890 C1888 1.363 . S
C1890 C1891 1.370 . S
C1890 C1894 1.524 . S
C1891 C1883 1.503 . S
C1891 C1890 1.370 . S
C1891 C1892 1.403 . S
C1892 C1891 1.403 . S
C1892 C1893 1.404 . S
C1892 C1895 1.539 . S
C1893 C1889 1.408 . S
C1893 C1892 1.404 . S
C1893 H1905 0.930 . S
C1894 C1890 1.524 . S
C1894 H1906 0.956 . S
C1894 H1907 0.961 . S
C1894 H1908 0.961 . S
C1895 C1892 1.539 . S
C1895 H1909 0.958 . S
C1895 H1910 0.961 . S
C1895 H1911 0.960 . S
H1896 C1880 0.931 . S
H1897 C1885 0.929 . S
H1898 C1886 0.960 . S
H1899 C1886 0.962 . S
H1900 C1886 0.960 . S
H1901 C1887 0.961 . S
H1902 C1887 0.961 . S
H1903 C1887 0.961 . S
H1904 C1888 0.931 . S
H1905 C1893 0.930 . S
H1906 C1894 0.956 . S
H1907 C1894 0.961 . S
H1908 C1894 0.961 . S
H1909 C1895 0.958 . S
H1910 C1895 0.961 . S
H1911 C1895 0.960 . S
C1912 C1913 1.391 . S
C1912 C1914 1.394 . S
C1912 H1928 0.931 . S
C1913 C1912 1.391 . S
C1913 C1917 1.376 . S
C1914 C1912 1.394 . S
C1914 C1915 1.369 . S
C1914 C1918 1.531 . S
C1915 C1914 1.369 . S
C1915 C1916 1.410 . S
C1915 C1923 1.503 . S
C1916 C1915 1.410 . S
C1916 C1917 1.392 . S
C1916 C1919 1.511 . S
C1917 C1913 1.376 . S
C1917 C1916 1.392 . S
C1917 H1929 0.929 . S
C1918 C1914 1.531 . S
C1918 H1930 0.960 . S
C1918 H1931 0.962 . S
C1918 H1932 0.960 . S
C1919 C1916 1.511 . S
C1919 H1933 0.961 . S
C1919 H1934 0.961 . S
C1919 H1935 0.961 . S
C1920 C1921 1.370 . S
C1920 C1922 1.363 . S
C1920 H1936 0.931 . S
C1921 C1920 1.370 . S
C1921 C1925 1.408 . S
C1922 C1920 1.363 . S
C1922 C1923 1.370 . S
C1922 C1926 1.524 . S
C1923 C1915 1.503 . S
C1923 C1922 1.370 . S
C1923 C1924 1.403 . S
C1924 C1923 1.403 . S
C1924 C1925 1.404 . S
C1924 C1927 1.539 . S
C1925 C1921 1.408 . S
C1925 C1924 1.404 . S
C1925 H1937 0.930 1_556 S
C1926 C1922 1.524 . S
C1926 H1938 0.956 . S
C1926 H1939 0.961 . S
C1926 H1940 0.961 . S
C1927 C1924 1.539 . S
C1927 H1941 0.958 . S
C1927 H1942 0.961 1_556 S
C1927 H1943 0.960 . S
H1928 C1912 0.931 . S
H1929 C1917 0.929 . S
H1930 C1918 0.960 . S
H1931 C1918 0.962 . S
H1932 C1918 0.960 . S
H1933 C1919 0.961 . S
H1934 C1919 0.961 . S
H1935 C1919 0.961 . S
H1936 C1920 0.931 . S
H1937 C1925 0.930 1_554 S
H1938 C1926 0.956 . S
H1939 C1926 0.961 . S
H1940 C1926 0.961 . S
H1941 C1927 0.958 . S
H1942 C1927 0.961 1_554 S
H1943 C1927 0.960 . S
C1944 C1945 1.391 . S
C1944 C1946 1.394 . S
C1944 H1960 0.931 . S
C1945 C1944 1.391 . S
C1945 C1949 1.376 . S
C1946 C1944 1.394 . S
C1946 C1947 1.369 . S
C1946 C1950 1.531 . S
C1947 C1946 1.369 . S
C1947 C1948 1.410 . S
C1947 C1955 1.503 . S
C1948 C1947 1.410 . S
C1948 C1949 1.392 . S
C1948 C1951 1.511 . S
C1949 C1945 1.376 . S
C1949 C1948 1.392 . S
C1949 H1961 0.929 . S
C1950 C1946 1.531 . S
C1950 H1962 0.960 . S
C1950 H1963 0.962 . S
C1950 H1964 0.960 . S
C1951 C1948 1.511 . S
C1951 H1965 0.961 . S
C1951 H1966 0.961 . S
C1951 H1967 0.961 . S
C1952 C1953 1.370 . S
C1952 C1954 1.363 . S
C1952 H1968 0.931 . S
C1953 C1952 1.370 . S
C1953 C1957 1.408 . S
C1954 C1952 1.363 . S
C1954 C1955 1.370 . S
C1954 C1958 1.524 . S
C1955 C1947 1.503 . S
C1955 C1954 1.370 . S
C1955 C1956 1.403 . S
C1956 C1955 1.403 . S
C1956 C1957 1.404 . S
C1956 C1959 1.539 . S
C1957 C1953 1.408 . S
C1957 C1956 1.404 . S
C1957 H1969 0.930 . S
C1958 C1954 1.524 . S
C1958 H1970 0.956 . S
C1958 H1971 0.961 . S
C1958 H1972 0.961 . S
C1959 C1956 1.539 . S
C1959 H1973 0.958 . S
C1959 H1974 0.961 . S
C1959 H1975 0.960 . S
H1960 C1944 0.931 . S
H1961 C1949 0.929 . S
H1962 C1950 0.960 . S
H1963 C1950 0.962 . S
H1964 C1950 0.960 . S
H1965 C1951 0.961 . S
H1966 C1951 0.961 . S
H1967 C1951 0.961 . S
H1968 C1952 0.931 . S
H1969 C1957 0.930 . S
H1970 C1958 0.956 . S
H1971 C1958 0.961 . S
H1972 C1958 0.961 . S
H1973 C1959 0.958 . S
H1974 C1959 0.961 . S
H1975 C1959 0.960 . S
C1976 C1977 1.391 . S
C1976 C1978 1.394 . S
C1976 H1992 0.931 . S
C1977 C1976 1.391 . S
C1977 C1981 1.376 . S
C1978 C1976 1.394 . S
C1978 C1979 1.369 . S
C1978 C1982 1.531 . S
C1979 C1978 1.369 . S
C1979 C1980 1.410 . S
C1979 C1987 1.503 . S
C1980 C1979 1.410 . S
C1980 C1981 1.392 . S
C1980 C1983 1.511 . S
C1981 C1977 1.376 . S
C1981 C1980 1.392 . S
C1981 H1993 0.929 . S
C1982 C1978 1.531 . S
C1982 H1994 0.960 . S
C1982 H1995 0.962 . S
C1982 H1996 0.960 . S
C1983 C1980 1.511 . S
C1983 H1997 0.961 . S
C1983 H1998 0.961 . S
C1983 H1999 0.961 . S
C1984 C1985 1.370 . S
C1984 C1986 1.363 . S
C1984 H2000 0.931 . S
C1985 C1984 1.370 . S
C1985 C1989 1.408 . S
C1986 C1984 1.363 . S
C1986 C1987 1.370 . S
C1986 C1990 1.524 . S
C1987 C1979 1.503 . S
C1987 C1986 1.370 . S
C1987 C1988 1.403 . S
C1988 C1987 1.403 . S
C1988 C1989 1.404 . S
C1988 C1991 1.539 . S
C1989 C1985 1.408 . S
C1989 C1988 1.404 . S
C1989 H2001 0.930 . S
C1990 C1986 1.524 . S
C1990 H2002 0.956 . S
C1990 H2003 0.961 . S
C1990 H2004 0.961 . S
C1991 C1988 1.539 . S
C1991 H2005 0.958 . S
C1991 H2006 0.961 . S
C1991 H2007 0.960 . S
H1992 C1976 0.931 . S
H1993 C1981 0.929 . S
H1994 C1982 0.960 . S
H1995 C1982 0.962 . S
H1996 C1982 0.960 . S
H1997 C1983 0.961 . S
H1998 C1983 0.961 . S
H1999 C1983 0.961 . S
H2000 C1984 0.931 . S
H2001 C1989 0.930 . S
H2002 C1990 0.956 . S
H2003 C1990 0.961 . S
H2004 C1990 0.961 . S
H2005 C1991 0.958 . S
H2006 C1991 0.961 . S
H2007 C1991 0.960 . S
C2008 C2009 1.391 . S
C2008 C2010 1.394 . S
C2008 H2024 0.931 . S
C2009 C2008 1.391 . S
C2009 C2013 1.376 . S
C2010 C2008 1.394 . S
C2010 C2011 1.369 . S
C2010 C2014 1.531 . S
C2011 C2010 1.369 . S
C2011 C2012 1.410 . S
C2011 C2019 1.503 . S
C2012 C2011 1.410 . S
C2012 C2013 1.392 . S
C2012 C2015 1.511 . S
C2013 C2009 1.376 . S
C2013 C2012 1.392 . S
C2013 H2025 0.929 . S
C2014 C2010 1.531 . S
C2014 H2026 0.960 . S
C2014 H2027 0.962 . S
C2014 H2028 0.960 . S
C2015 C2012 1.511 . S
C2015 H2029 0.961 . S
C2015 H2030 0.961 . S
C2015 H2031 0.961 . S
C2016 C2017 1.370 . S
C2016 C2018 1.363 . S
C2016 H2032 0.931 . S
C2017 C2016 1.370 . S
C2017 C2021 1.408 . S
C2018 C2016 1.363 . S
C2018 C2019 1.370 . S
C2018 C2022 1.524 . S
C2019 C2011 1.503 . S
C2019 C2018 1.370 . S
C2019 C2020 1.403 . S
C2020 C2019 1.403 . S
C2020 C2021 1.404 . S
C2020 C2023 1.539 . S
C2021 C2017 1.408 . S
C2021 C2020 1.404 . S
C2021 H2033 0.930 . S
C2022 C2018 1.524 . S
C2022 H2034 0.956 . S
C2022 H2035 0.961 . S
C2022 H2036 0.961 . S
C2023 C2020 1.539 . S
C2023 H2037 0.958 . S
C2023 H2038 0.961 . S
C2023 H2039 0.960 . S
H2024 C2008 0.931 . S
H2025 C2013 0.929 . S
H2026 C2014 0.960 . S
H2027 C2014 0.962 . S
H2028 C2014 0.960 . S
H2029 C2015 0.961 . S
H2030 C2015 0.961 . S
H2031 C2015 0.961 . S
H2032 C2016 0.931 . S
H2033 C2021 0.930 . S
H2034 C2022 0.956 . S
H2035 C2022 0.961 . S
H2036 C2022 0.961 . S
H2037 C2023 0.958 . S
H2038 C2023 0.961 . S
H2039 C2023 0.960 . S
C2040 C2041 1.391 . S
C2040 C2042 1.394 . S
C2040 H2056 0.931 . S
C2041 C2040 1.391 . S
C2041 C2045 1.376 . S
C2042 C2040 1.394 . S
C2042 C2043 1.369 . S
C2042 C2046 1.531 . S
C2043 C2042 1.369 . S
C2043 C2044 1.410 . S
C2043 C2051 1.503 . S
C2044 C2043 1.410 . S
C2044 C2045 1.392 . S
C2044 C2047 1.511 . S
C2045 C2041 1.376 . S
C2045 C2044 1.392 . S
C2045 H2057 0.929 . S
C2046 C2042 1.531 . S
C2046 H2058 0.960 . S
C2046 H2059 0.962 . S
C2046 H2060 0.960 . S
C2047 C2044 1.511 . S
C2047 H2061 0.961 1_545 S
C2047 H2062 0.961 1_545 S
C2047 H2063 0.961 . S
C2048 C2049 1.370 . S
C2048 C2050 1.363 . S
C2048 H2064 0.931 . S
C2049 C2048 1.370 . S
C2049 C2053 1.408 . S
C2050 C2048 1.363 . S
C2050 C2051 1.370 . S
C2050 C2054 1.524 . S
C2051 C2043 1.503 . S
C2051 C2050 1.370 . S
C2051 C2052 1.403 . S
C2052 C2051 1.403 . S
C2052 C2053 1.404 . S
C2052 C2055 1.539 . S
C2053 C2049 1.408 . S
C2053 C2052 1.404 . S
C2053 H2065 0.930 . S
C2054 C2050 1.524 . S
C2054 H2066 0.956 . S
C2054 H2067 0.961 1_545 S
C2054 H2068 0.961 1_545 S
C2055 C2052 1.539 . S
C2055 H2069 0.958 . S
C2055 H2070 0.961 . S
C2055 H2071 0.960 . S
H2056 C2040 0.931 . S
H2057 C2045 0.929 . S
H2058 C2046 0.960 . S
H2059 C2046 0.962 . S
H2060 C2046 0.960 . S
H2061 C2047 0.961 1_565 S
H2062 C2047 0.961 1_565 S
H2063 C2047 0.961 . S
H2064 C2048 0.931 . S
H2065 C2053 0.930 . S
H2066 C2054 0.956 . S
H2067 C2054 0.961 1_565 S
H2068 C2054 0.961 1_565 S
H2069 C2055 0.958 . S
H2070 C2055 0.961 . S
H2071 C2055 0.960 . S
C2072 C2073 1.391 . S
C2072 C2074 1.394 . S
C2072 H2088 0.931 . S
C2073 C2072 1.391 . S
C2073 C2077 1.376 . S
C2074 C2072 1.394 . S
C2074 C2075 1.369 . S
C2074 C2078 1.531 . S
C2075 C2074 1.369 . S
C2075 C2076 1.410 . S
C2075 C2083 1.503 . S
C2076 C2075 1.410 . S
C2076 C2077 1.392 . S
C2076 C2079 1.511 . S
C2077 C2073 1.376 . S
C2077 C2076 1.392 . S
C2077 H2089 0.929 . S
C2078 C2074 1.531 . S
C2078 H2090 0.960 . S
C2078 H2091 0.962 . S
C2078 H2092 0.960 . S
C2079 C2076 1.511 . S
C2079 H2093 0.961 . S
C2079 H2094 0.961 . S
C2079 H2095 0.961 . S
C2080 C2081 1.370 . S
C2080 C2082 1.363 . S
C2080 H2096 0.931 . S
C2081 C2080 1.370 . S
C2081 C2085 1.408 . S
C2082 C2080 1.363 . S
C2082 C2083 1.370 . S
C2082 C2086 1.524 . S
C2083 C2075 1.503 . S
C2083 C2082 1.370 . S
C2083 C2084 1.403 . S
C2084 C2083 1.403 . S
C2084 C2085 1.404 . S
C2084 C2087 1.539 . S
C2085 C2081 1.408 . S
C2085 C2084 1.404 . S
C2085 H2097 0.930 . S
C2086 C2082 1.524 . S
C2086 H2098 0.956 . S
C2086 H2099 0.961 . S
C2086 H2100 0.961 . S
C2087 C2084 1.539 . S
C2087 H2101 0.958 . S
C2087 H2102 0.961 . S
C2087 H2103 0.960 . S
H2088 C2072 0.931 . S
H2089 C2077 0.929 . S
H2090 C2078 0.960 . S
H2091 C2078 0.962 . S
H2092 C2078 0.960 . S
H2093 C2079 0.961 . S
H2094 C2079 0.961 . S
H2095 C2079 0.961 . S
H2096 C2080 0.931 . S
H2097 C2085 0.930 . S
H2098 C2086 0.956 . S
H2099 C2086 0.961 . S
H2100 C2086 0.961 . S
H2101 C2087 0.958 . S
H2102 C2087 0.961 . S
H2103 C2087 0.960 . S
C2104 C2105 1.391 . S
C2104 C2106 1.394 . S
C2104 H2120 0.931 . S
C2105 C2104 1.391 . S
C2105 C2109 1.376 . S
C2106 C2104 1.394 . S
C2106 C2107 1.369 . S
C2106 C2110 1.531 . S
C2107 C2106 1.369 . S
C2107 C2108 1.410 . S
C2107 C2115 1.503 . S
C2108 C2107 1.410 . S
C2108 C2109 1.392 . S
C2108 C2111 1.511 . S
C2109 C2105 1.376 . S
C2109 C2108 1.392 . S
C2109 H2121 0.929 . S
C2110 C2106 1.531 . S
C2110 H2122 0.960 . S
C2110 H2123 0.962 . S
C2110 H2124 0.960 . S
C2111 C2108 1.511 . S
C2111 H2125 0.961 . S
C2111 H2126 0.961 . S
C2111 H2127 0.961 . S
C2112 C2113 1.370 . S
C2112 C2114 1.363 . S
C2112 H2128 0.931 . S
C2113 C2112 1.370 . S
C2113 C2117 1.408 . S
C2114 C2112 1.363 . S
C2114 C2115 1.370 . S
C2114 C2118 1.524 . S
C2115 C2107 1.503 . S
C2115 C2114 1.370 . S
C2115 C2116 1.403 . S
C2116 C2115 1.403 . S
C2116 C2117 1.404 . S
C2116 C2119 1.539 . S
C2117 C2113 1.408 . S
C2117 C2116 1.404 . S
C2117 H2129 0.930 . S
C2118 C2114 1.524 . S
C2118 H2130 0.956 . S
C2118 H2131 0.961 . S
C2118 H2132 0.961 . S
C2119 C2116 1.539 . S
C2119 H2133 0.958 . S
C2119 H2134 0.961 . S
C2119 H2135 0.960 . S
H2120 C2104 0.931 . S
H2121 C2109 0.929 . S
H2122 C2110 0.960 . S
H2123 C2110 0.962 . S
H2124 C2110 0.960 . S
H2125 C2111 0.961 . S
H2126 C2111 0.961 . S
H2127 C2111 0.961 . S
H2128 C2112 0.931 . S
H2129 C2117 0.930 . S
H2130 C2118 0.956 . S
H2131 C2118 0.961 . S
H2132 C2118 0.961 . S
H2133 C2119 0.958 . S
H2134 C2119 0.961 . S
H2135 C2119 0.960 . S
C2136 C2137 1.391 . S
C2136 C2138 1.394 . S
C2136 H2152 0.931 . S
C2137 C2136 1.391 . S
C2137 C2141 1.376 . S
C2138 C2136 1.394 . S
C2138 C2139 1.369 . S
C2138 C2142 1.531 . S
C2139 C2138 1.369 . S
C2139 C2140 1.410 . S
C2139 C2147 1.503 . S
C2140 C2139 1.410 . S
C2140 C2141 1.392 . S
C2140 C2143 1.511 . S
C2141 C2137 1.376 . S
C2141 C2140 1.392 . S
C2141 H2153 0.929 . S
C2142 C2138 1.531 . S
C2142 H2154 0.960 . S
C2142 H2155 0.962 . S
C2142 H2156 0.960 . S
C2143 C2140 1.511 . S
C2143 H2157 0.961 . S
C2143 H2158 0.961 . S
C2143 H2159 0.961 . S
C2144 C2145 1.370 . S
C2144 C2146 1.363 . S
C2144 H2160 0.931 . S
C2145 C2144 1.370 . S
C2145 C2149 1.408 . S
C2146 C2144 1.363 . S
C2146 C2147 1.370 . S
C2146 C2150 1.524 . S
C2147 C2139 1.503 . S
C2147 C2146 1.370 . S
C2147 C2148 1.403 . S
C2148 C2147 1.403 . S
C2148 C2149 1.404 . S
C2148 C2151 1.539 . S
C2149 C2145 1.408 . S
C2149 C2148 1.404 . S
C2149 H2161 0.930 . S
C2150 C2146 1.524 . S
C2150 H2162 0.956 . S
C2150 H2163 0.961 . S
C2150 H2164 0.961 . S
C2151 C2148 1.539 . S
C2151 H2165 0.958 . S
C2151 H2166 0.961 . S
C2151 H2167 0.960 . S
H2152 C2136 0.931 . S
H2153 C2141 0.929 . S
H2154 C2142 0.960 . S
H2155 C2142 0.962 . S
H2156 C2142 0.960 . S
H2157 C2143 0.961 . S
H2158 C2143 0.961 . S
H2159 C2143 0.961 . S
H2160 C2144 0.931 . S
H2161 C2149 0.930 . S
H2162 C2150 0.956 . S
H2163 C2150 0.961 . S
H2164 C2150 0.961 . S
H2165 C2151 0.958 . S
H2166 C2151 0.961 . S
H2167 C2151 0.960 . S
C2168 C2169 1.391 . S
C2168 C2170 1.394 . S
C2168 H2184 0.931 . S
C2169 C2168 1.391 . S
C2169 C2173 1.376 . S
C2170 C2168 1.394 . S
C2170 C2171 1.369 . S
C2170 C2174 1.531 . S
C2171 C2170 1.369 . S
C2171 C2172 1.410 . S
C2171 C2179 1.503 . S
C2172 C2171 1.410 . S
C2172 C2173 1.392 . S
C2172 C2175 1.511 . S
C2173 C2169 1.376 . S
C2173 C2172 1.392 . S
C2173 H2185 0.929 . S
C2174 C2170 1.531 . S
C2174 H2186 0.960 1_545 S
C2174 H2187 0.962 . S
C2174 H2188 0.960 1_545 S
C2175 C2172 1.511 . S
C2175 H2189 0.961 . S
C2175 H2190 0.961 . S
C2175 H2191 0.961 . S
C2176 C2177 1.370 . S
C2176 C2178 1.363 . S
C2176 H2192 0.931 . S
C2177 C2176 1.370 . S
C2177 C2181 1.408 . S
C2178 C2176 1.363 . S
C2178 C2179 1.370 . S
C2178 C2182 1.524 . S
C2179 C2171 1.503 . S
C2179 C2178 1.370 . S
C2179 C2180 1.403 . S
C2180 C2179 1.403 . S
C2180 C2181 1.404 . S
C2180 C2183 1.539 . S
C2181 C2177 1.408 . S
C2181 C2180 1.404 . S
C2181 H2193 0.930 . S
C2182 C2178 1.524 . S
C2182 H2194 0.956 . S
C2182 H2195 0.961 . S
C2182 H2196 0.961 . S
C2183 C2180 1.539 . S
C2183 H2197 0.958 1_545 S
C2183 H2198 0.961 . S
C2183 H2199 0.960 . S
H2184 C2168 0.931 . S
H2185 C2173 0.929 . S
H2186 C2174 0.960 1_565 S
H2187 C2174 0.962 . S
H2188 C2174 0.960 1_565 S
H2189 C2175 0.961 . S
H2190 C2175 0.961 . S
H2191 C2175 0.961 . S
H2192 C2176 0.931 . S
H2193 C2181 0.930 . S
H2194 C2182 0.956 . S
H2195 C2182 0.961 . S
H2196 C2182 0.961 . S
H2197 C2183 0.958 1_565 S
H2198 C2183 0.961 . S
H2199 C2183 0.960 . S
C2200 C2201 1.391 . S
C2200 C2202 1.394 . S
C2200 H2216 0.931 . S
C2201 C2200 1.391 . S
C2201 C2205 1.376 . S
C2202 C2200 1.394 . S
C2202 C2203 1.369 . S
C2202 C2206 1.531 . S
C2203 C2202 1.369 . S
C2203 C2204 1.410 . S
C2203 C2211 1.503 . S
C2204 C2203 1.410 . S
C2204 C2205 1.392 . S
C2204 C2207 1.511 . S
C2205 C2201 1.376 . S
C2205 C2204 1.392 . S
C2205 H2217 0.929 . S
C2206 C2202 1.531 . S
C2206 H2218 0.960 . S
C2206 H2219 0.962 . S
C2206 H2220 0.960 . S
C2207 C2204 1.511 . S
C2207 H2221 0.961 . S
C2207 H2222 0.961 . S
C2207 H2223 0.961 . S
C2208 C2209 1.370 . S
C2208 C2210 1.363 . S
C2208 H2224 0.931 . S
C2209 C2208 1.370 . S
C2209 C2213 1.408 . S
C2210 C2208 1.363 . S
C2210 C2211 1.370 . S
C2210 C2214 1.524 . S
C2211 C2203 1.503 . S
C2211 C2210 1.370 . S
C2211 C2212 1.403 . S
C2212 C2211 1.403 . S
C2212 C2213 1.404 . S
C2212 C2215 1.539 . S
C2213 C2209 1.408 . S
C2213 C2212 1.404 . S
C2213 H2225 0.930 . S
C2214 C2210 1.524 . S
C2214 H2226 0.956 . S
C2214 H2227 0.961 . S
C2214 H2228 0.961 . S
C2215 C2212 1.539 . S
C2215 H2229 0.958 . S
C2215 H2230 0.961 . S
C2215 H2231 0.960 . S
H2216 C2200 0.931 . S
H2217 C2205 0.929 . S
H2218 C2206 0.960 . S
H2219 C2206 0.962 . S
H2220 C2206 0.960 . S
H2221 C2207 0.961 . S
H2222 C2207 0.961 . S
H2223 C2207 0.961 . S
H2224 C2208 0.931 . S
H2225 C2213 0.930 . S
H2226 C2214 0.956 . S
H2227 C2214 0.961 . S
H2228 C2214 0.961 . S
H2229 C2215 0.958 . S
H2230 C2215 0.961 . S
H2231 C2215 0.960 . S
C2232 C2233 1.391 . S
C2232 C2234 1.394 . S
C2232 H2248 0.931 . S
C2233 C2232 1.391 . S
C2233 C2237 1.376 . S
C2234 C2232 1.394 . S
C2234 C2235 1.369 . S
C2234 C2238 1.531 . S
C2235 C2234 1.369 . S
C2235 C2236 1.410 . S
C2235 C2243 1.503 . S
C2236 C2235 1.410 . S
C2236 C2237 1.392 . S
C2236 C2239 1.511 . S
C2237 C2233 1.376 . S
C2237 C2236 1.392 . S
C2237 H2249 0.929 . S
C2238 C2234 1.531 . S
C2238 H2250 0.960 . S
C2238 H2251 0.962 . S
C2238 H2252 0.960 . S
C2239 C2236 1.511 . S
C2239 H2253 0.961 . S
C2239 H2254 0.961 . S
C2239 H2255 0.967 . S
C2240 C2241 1.370 . S
C2240 C2242 1.363 . S
C2240 H2256 0.931 . S
C2241 C2240 1.370 . S
C2241 C2245 1.408 . S
C2242 C2240 1.363 . S
C2242 C2243 1.370 . S
C2242 C2246 1.524 . S
C2243 C2235 1.503 . S
C2243 C2242 1.370 . S
C2243 C2244 1.403 . S
C2244 C2243 1.403 . S
C2244 C2245 1.404 . S
C2244 C2247 1.539 . S
C2245 C2241 1.408 . S
C2245 C2244 1.404 . S
C2245 H2257 0.930 . S
C2246 C2242 1.524 . S
C2246 H2258 0.956 . S
C2246 H2259 0.961 . S
C2246 H2260 0.961 . S
C2247 C2244 1.539 . S
C2247 H2261 0.958 . S
C2247 H2262 0.961 . S
C2247 H2263 0.960 . S
H2248 C2232 0.931 . S
H2249 C2237 0.929 . S
H2250 C2238 0.960 . S
H2251 C2238 0.962 . S
H2252 C2238 0.960 . S
H2253 C2239 0.961 . S
H2254 C2239 0.961 . S
H2255 C2239 0.967 . S
H2256 C2240 0.931 . S
H2257 C2245 0.930 . S
H2258 C2246 0.956 . S
H2259 C2246 0.961 . S
H2260 C2246 0.961 . S
H2261 C2247 0.958 . S
H2262 C2247 0.961 . S
H2263 C2247 0.960 . S
C2264 C2265 1.391 . S
C2264 C2266 1.394 . S
C2264 H2280 0.960 . S
C2265 C2264 1.391 . S
C2265 C2269 1.376 . S
C2266 C2264 1.394 . S
C2266 C2267 1.369 . S
C2266 C2270 1.531 1_554 S
C2267 C2266 1.369 . S
C2267 C2268 1.410 . S
C2267 C2275 1.503 . S
C2268 C2267 1.410 . S
C2268 C2269 1.392 . S
C2268 C2271 1.511 . S
C2269 C2265 1.376 . S
C2269 C2268 1.392 . S
C2269 H2281 0.929 . S
C2270 C2266 1.531 1_556 S
C2270 H2282 0.960 . S
C2270 H2283 0.962 . S
C2270 H2284 0.960 . S
C2271 C2268 1.511 . S
C2271 H2285 0.961 . S
C2271 H2286 0.961 . S
C2271 H2287 0.961 . S
C2272 C2273 1.370 . S
C2272 C2274 1.363 . S
C2272 H2288 0.931 . S
C2273 C2272 1.370 . S
C2273 C2277 1.408 . S
C2274 C2272 1.363 . S
C2274 C2275 1.370 . S
C2274 C2278 1.524 . S
C2275 C2267 1.503 . S
C2275 C2274 1.370 . S
C2275 C2276 1.403 . S
C2276 C2275 1.403 . S
C2276 C2277 1.404 . S
C2276 C2279 1.539 1_554 S
C2277 C2273 1.408 . S
C2277 C2276 1.404 . S
C2277 H2289 0.930 . S
C2278 C2274 1.524 . S
C2278 H2290 0.956 . S
C2278 H2291 0.961 . S
C2278 H2292 0.961 . S
C2279 C2276 1.539 1_556 S
C2279 H2293 0.958 . S
C2279 H2294 0.961 . S
C2279 H2295 0.960 1_556 S
H2280 C2264 0.960 . S
H2281 C2269 0.929 . S
H2282 C2270 0.960 . S
H2283 C2270 0.962 . S
H2284 C2270 0.960 . S
H2285 C2271 0.961 . S
H2286 C2271 0.961 . S
H2287 C2271 0.961 . S
H2288 C2272 0.931 . S
H2289 C2277 0.930 . S
H2290 C2278 0.956 . S
H2291 C2278 0.961 . S
H2292 C2278 0.961 . S
H2293 C2279 0.958 . S
H2294 C2279 0.961 . S
H2295 C2279 0.960 1_554 S
C2296 C2297 1.391 . S
C2296 C2298 1.394 . S
C2296 H2312 0.931 . S
C2297 C2296 1.391 . S
C2297 C2301 1.376 . S
C2298 C2296 1.394 . S
C2298 C2299 1.369 . S
C2298 C2302 1.531 . S
C2299 C2298 1.369 . S
C2299 C2300 1.410 . S
C2299 C2307 1.503 . S
C2300 C2299 1.410 . S
C2300 C2301 1.392 . S
C2300 C2303 1.511 . S
C2301 C2297 1.376 . S
C2301 C2300 1.392 . S
C2301 H2313 0.929 . S
C2302 C2298 1.531 . S
C2302 H2314 0.960 . S
C2302 H2315 0.962 . S
C2302 H2316 0.960 . S
C2303 C2300 1.511 . S
C2303 H2317 0.961 . S
C2303 H2318 0.961 . S
C2303 H2319 0.961 . S
C2304 C2305 1.370 . S
C2304 C2306 1.363 . S
C2304 H2320 0.931 . S
C2305 C2304 1.370 . S
C2305 C2309 1.408 . S
C2306 C2304 1.363 . S
C2306 C2307 1.370 . S
C2306 C2310 1.524 . S
C2307 C2299 1.503 . S
C2307 C2306 1.370 . S
C2307 C2308 1.403 . S
C2308 C2307 1.403 . S
C2308 C2309 1.404 . S
C2308 C2311 1.539 . S
C2309 C2305 1.408 . S
C2309 C2308 1.404 . S
C2309 H2321 0.930 . S
C2310 C2306 1.524 . S
C2310 H2322 0.956 . S
C2310 H2323 0.961 . S
C2310 H2324 0.961 . S
C2311 C2308 1.539 . S
C2311 H2325 0.958 . S
C2311 H2326 0.961 . S
C2311 H2327 0.960 . S
H2312 C2296 0.931 . S
H2313 C2301 0.929 . S
H2314 C2302 0.960 . S
H2315 C2302 0.962 . S
H2316 C2302 0.960 . S
H2317 C2303 0.961 . S
H2318 C2303 0.961 . S
H2319 C2303 0.961 . S
H2320 C2304 0.931 . S
H2321 C2309 0.930 . S
H2322 C2310 0.956 . S
H2323 C2310 0.961 . S
H2324 C2310 0.961 . S
H2325 C2311 0.958 . S
H2326 C2311 0.961 . S
H2327 C2311 0.960 . S
C2328 C2329 1.391 . S
C2328 C2330 1.394 . S
C2328 H2344 0.931 . S
C2329 C2328 1.391 . S
C2329 C2333 1.376 . S
C2330 C2328 1.394 . S
C2330 C2331 1.369 . S
C2330 C2334 1.531 . S
C2331 C2330 1.369 . S
C2331 C2332 1.410 . S
C2331 C2339 1.503 . S
C2332 C2331 1.410 . S
C2332 C2333 1.392 . S
C2332 C2335 1.511 . S
C2333 C2329 1.376 . S
C2333 C2332 1.392 . S
C2333 H2345 0.929 . S
C2334 C2330 1.531 . S
C2334 H2346 0.960 . S
C2334 H2347 0.962 . S
C2334 H2348 0.960 . S
C2335 C2332 1.511 . S
C2335 H2349 0.961 . S
C2335 H2350 0.961 . S
C2335 H2351 0.961 . S
C2336 C2337 1.370 . S
C2336 C2338 1.363 . S
C2336 H2352 0.931 . S
C2337 C2336 1.370 . S
C2337 C2341 1.408 . S
C2338 C2336 1.363 . S
C2338 C2339 1.370 . S
C2338 C2342 1.524 . S
C2339 C2331 1.503 . S
C2339 C2338 1.370 . S
C2339 C2340 1.403 . S
C2340 C2339 1.403 . S
C2340 C2341 1.404 . S
C2340 C2343 1.539 . S
C2341 C2337 1.408 . S
C2341 C2340 1.404 . S
C2341 H2353 0.930 . S
C2342 C2338 1.524 . S
C2342 H2354 0.956 . S
C2342 H2355 0.961 . S
C2342 H2356 0.961 . S
C2343 C2340 1.539 . S
C2343 H2357 0.958 . S
C2343 H2358 0.961 . S
C2343 H2359 0.960 . S
H2344 C2328 0.931 . S
H2345 C2333 0.929 . S
H2346 C2334 0.960 . S
H2347 C2334 0.962 . S
H2348 C2334 0.960 . S
H2349 C2335 0.961 . S
H2350 C2335 0.961 . S
H2351 C2335 0.961 . S
H2352 C2336 0.931 . S
H2353 C2341 0.930 . S
H2354 C2342 0.956 . S
H2355 C2342 0.961 . S
H2356 C2342 0.961 . S
H2357 C2343 0.958 . S
H2358 C2343 0.961 . S
H2359 C2343 0.960 . S
C2360 C2361 1.391 . S
C2360 C2362 1.394 . S
C2360 H2376 0.931 . S
C2361 C2360 1.391 . S
C2361 C2365 1.376 1_565 S
C2362 C2360 1.394 . S
C2362 C2363 1.369 . S
C2362 C2366 1.531 . S
C2363 C2362 1.369 . S
C2363 C2364 1.410 . S
C2363 C2371 1.503 . S
C2364 C2363 1.410 . S
C2364 C2365 1.392 1_565 S
C2364 C2367 1.511 . S
C2365 C2361 1.376 1_545 S
C2365 C2364 1.392 1_545 S
C2365 H2377 0.929 . S
C2366 C2362 1.531 . S
C2366 H2378 0.960 . S
C2366 H2379 0.962 . S
C2366 H2380 0.960 . S
C2367 C2364 1.511 . S
C2367 H2381 0.961 1_565 S
C2367 H2382 0.961 . S
C2367 H2383 0.961 . S
C2368 C2369 1.370 . S
C2368 C2370 1.363 . S
C2368 H2384 0.931 . S
C2369 C2368 1.370 . S
C2369 C2373 1.408 . S
C2370 C2368 1.363 . S
C2370 C2371 1.370 . S
C2370 C2374 1.524 . S
C2371 C2363 1.503 . S
C2371 C2370 1.370 . S
C2371 C2372 1.403 . S
C2372 C2371 1.403 . S
C2372 C2373 1.404 . S
C2372 C2375 1.539 . S
C2373 C2369 1.408 . S
C2373 C2372 1.404 . S
C2373 H2385 0.930 . S
C2374 C2370 1.524 . S
C2374 H2386 0.956 . S
C2374 H2387 0.961 . S
C2374 H2388 0.961 . S
C2375 C2372 1.539 . S
C2375 H2389 0.958 . S
C2375 H2390 0.961 . S
C2375 H2391 0.960 . S
H2376 C2360 0.931 . S
H2377 C2365 0.929 . S
H2378 C2366 0.960 . S
H2379 C2366 0.962 . S
H2380 C2366 0.960 . S
H2381 C2367 0.961 1_545 S
H2382 C2367 0.961 . S
H2383 C2367 0.961 . S
H2384 C2368 0.931 . S
H2385 C2373 0.930 . S
H2386 C2374 0.956 . S
H2387 C2374 0.961 . S
H2388 C2374 0.961 . S
H2389 C2375 0.958 . S
H2390 C2375 0.961 . S
H2391 C2375 0.960 . S
C2392 C2393 1.391 . S
C2392 C2394 1.394 . S
C2392 H2408 0.931 . S
C2393 C2392 1.391 . S
C2393 C2397 1.376 . S
C2394 C2392 1.394 . S
C2394 C2395 1.369 . S
C2394 C2398 1.531 . S
C2395 C2394 1.369 . S
C2395 C2396 1.410 . S
C2395 C2403 1.503 . S
C2396 C2395 1.410 . S
C2396 C2397 1.392 . S
C2396 C2399 1.511 . S
C2397 C2393 1.376 . S
C2397 C2396 1.392 . S
C2397 H2409 0.929 . S
C2398 C2394 1.531 . S
C2398 H2410 0.960 . S
C2398 H2411 0.962 . S
C2398 H2412 0.960 . S
C2399 C2396 1.511 . S
C2399 H2413 0.961 . S
C2399 H2414 0.961 . S
C2399 H2415 0.961 . S
C2400 C2401 1.370 . S
C2400 C2402 1.363 . S
C2400 H2416 0.931 . S
C2401 C2400 1.370 . S
C2401 C2405 1.408 . S
C2402 C2400 1.363 . S
C2402 C2403 1.370 . S
C2402 C2406 1.524 . S
C2403 C2395 1.503 . S
C2403 C2402 1.370 . S
C2403 C2404 1.403 . S
C2404 C2403 1.403 . S
C2404 C2405 1.404 . S
C2404 C2407 1.539 . S
C2405 C2401 1.408 . S
C2405 C2404 1.404 . S
C2405 H2417 0.930 . S
C2406 C2402 1.524 . S
C2406 H2418 0.956 . S
C2406 H2419 0.961 . S
C2406 H2420 0.961 . S
C2407 C2404 1.539 . S
C2407 H2421 0.958 . S
C2407 H2422 0.961 . S
C2407 H2423 0.960 . S
H2408 C2392 0.931 . S
H2409 C2397 0.929 . S
H2410 C2398 0.960 . S
H2411 C2398 0.962 . S
H2412 C2398 0.960 . S
H2413 C2399 0.961 . S
H2414 C2399 0.961 . S
H2415 C2399 0.961 . S
H2416 C2400 0.931 . S
H2417 C2405 0.930 . S
H2418 C2406 0.956 . S
H2419 C2406 0.961 . S
H2420 C2406 0.961 . S
H2421 C2407 0.958 . S
H2422 C2407 0.961 . S
H2423 C2407 0.960 . S
C2424 C2425 1.391 . S
C2424 C2426 1.394 . S
C2424 H2440 0.931 . S
C2425 C2424 1.391 . S
C2425 C2429 1.376 . S
C2426 C2424 1.394 . S
C2426 C2427 1.369 . S
C2426 C2430 1.531 . S
C2427 C2426 1.369 . S
C2427 C2428 1.410 . S
C2427 C2435 1.503 . S
C2428 C2427 1.410 . S
C2428 C2429 1.392 . S
C2428 C2431 1.511 . S
C2429 C2425 1.376 . S
C2429 C2428 1.392 . S
C2429 H2441 0.929 . S
C2430 C2426 1.531 . S
C2430 H2442 0.960 . S
C2430 H2443 0.962 . S
C2430 H2444 0.960 . S
C2431 C2428 1.511 . S
C2431 H2445 0.961 . S
C2431 H2446 0.961 . S
C2431 H2447 0.961 . S
C2432 C2433 1.370 . S
C2432 C2434 1.363 . S
C2432 H2448 0.931 . S
C2433 C2432 1.370 . S
C2433 C2437 1.408 . S
C2434 C2432 1.363 . S
C2434 C2435 1.370 . S
C2434 C2438 1.524 . S
C2435 C2427 1.503 . S
C2435 C2434 1.370 . S
C2435 C2436 1.403 . S
C2436 C2435 1.403 . S
C2436 C2437 1.404 . S
C2436 C2439 1.539 . S
C2437 C2433 1.408 . S
C2437 C2436 1.404 . S
C2437 H2449 0.930 . S
C2438 C2434 1.524 . S
C2438 H2450 0.956 . S
C2438 H2451 0.961 . S
C2438 H2452 0.961 . S
C2439 C2436 1.539 . S
C2439 H2453 0.958 . S
C2439 H2454 0.961 . S
C2439 H2455 0.960 . S
H2440 C2424 0.931 . S
H2441 C2429 0.929 . S
H2442 C2430 0.960 . S
H2443 C2430 0.962 . S
H2444 C2430 0.960 . S
H2445 C2431 0.961 . S
H2446 C2431 0.961 . S
H2447 C2431 0.961 . S
H2448 C2432 0.931 . S
H2449 C2437 0.930 . S
H2450 C2438 0.956 . S
H2451 C2438 0.961 . S
H2452 C2438 0.961 . S
H2453 C2439 0.958 . S
H2454 C2439 0.961 . S
H2455 C2439 0.960 . S
C2456 C2457 1.391 . S
C2456 C2458 1.394 . S
C2456 H2472 0.931 . S
C2457 C2456 1.391 . S
C2457 C2461 1.376 . S
C2458 C2456 1.394 . S
C2458 C2459 1.369 . S
C2458 C2462 1.531 . S
C2459 C2458 1.369 . S
C2459 C2460 1.410 . S
C2459 C2467 1.503 . S
C2460 C2459 1.410 . S
C2460 C2461 1.392 . S
C2460 C2463 1.511 . S
C2461 C2457 1.376 . S
C2461 C2460 1.392 . S
C2461 H2473 0.929 . S
C2462 C2458 1.531 . S
C2462 H2474 0.960 . S
C2462 H2475 0.962 . S
C2462 H2476 0.960 . S
C2463 C2460 1.511 . S
C2463 H2477 0.961 . S
C2463 H2478 0.961 . S
C2463 H2479 0.961 . S
C2464 C2465 1.370 . S
C2464 C2466 1.363 . S
C2464 H2480 0.931 . S
C2465 C2464 1.370 . S
C2465 C2469 1.408 . S
C2466 C2464 1.363 . S
C2466 C2467 1.370 . S
C2466 C2470 1.524 . S
C2467 C2459 1.503 . S
C2467 C2466 1.370 . S
C2467 C2468 1.403 . S
C2468 C2467 1.403 . S
C2468 C2469 1.404 . S
C2468 C2471 1.539 . S
C2469 C2465 1.408 . S
C2469 C2468 1.404 . S
C2469 H2481 0.930 . S
C2470 C2466 1.524 . S
C2470 H2482 0.956 . S
C2470 H2483 0.961 . S
C2470 H2484 0.961 . S
C2471 C2468 1.539 . S
C2471 H2485 0.958 . S
C2471 H2486 0.961 . S
C2471 H2487 0.960 . S
H2472 C2456 0.931 . S
H2473 C2461 0.929 . S
H2474 C2462 0.960 . S
H2475 C2462 0.962 . S
H2476 C2462 0.960 . S
H2477 C2463 0.961 . S
H2478 C2463 0.961 . S
H2479 C2463 0.961 . S
H2480 C2464 0.931 . S
H2481 C2469 0.930 . S
H2482 C2470 0.956 . S
H2483 C2470 0.961 . S
H2484 C2470 0.961 . S
H2485 C2471 0.958 . S
H2486 C2471 0.961 . S
H2487 C2471 0.960 . S
C2488 C2489 1.391 . S
C2488 C2490 1.394 . S
C2488 H2504 0.931 . S
C2489 C2488 1.391 . S
C2489 C2493 1.376 . S
C2490 C2488 1.394 . S
C2490 C2491 1.369 . S
C2490 C2494 1.531 . S
C2491 C2490 1.369 . S
C2491 C2492 1.410 . S
C2491 C2499 1.503 . S
C2492 C2491 1.410 . S
C2492 C2493 1.392 . S
C2492 C2495 1.511 . S
C2493 C2489 1.376 . S
C2493 C2492 1.392 . S
C2493 H2505 0.929 . S
C2494 C2490 1.531 . S
C2494 H2506 0.960 . S
C2494 H2507 0.962 . S
C2494 H2508 0.960 . S
C2495 C2492 1.511 . S
C2495 H2509 0.961 . S
C2495 H2510 0.961 . S
C2495 H2511 0.961 . S
C2496 C2497 1.370 . S
C2496 C2498 1.363 . S
C2496 H2512 0.931 . S
C2497 C2496 1.370 . S
C2497 C2501 1.408 . S
C2498 C2496 1.363 . S
C2498 C2499 1.370 . S
C2498 C2502 1.524 . S
C2499 C2491 1.503 . S
C2499 C2498 1.370 . S
C2499 C2500 1.403 . S
C2500 C2499 1.403 . S
C2500 C2501 1.404 . S
C2500 C2503 1.539 . S
C2501 C2497 1.408 . S
C2501 C2500 1.404 . S
C2501 H2513 0.930 . S
C2502 C2498 1.524 . S
C2502 H2514 0.956 . S
C2502 H2515 0.961 . S
C2502 H2516 0.961 . S
C2503 C2500 1.539 . S
C2503 H2517 0.958 . S
C2503 H2518 0.961 . S
C2503 H2519 0.960 . S
H2504 C2488 0.931 . S
H2505 C2493 0.929 . S
H2506 C2494 0.960 . S
H2507 C2494 0.962 . S
H2508 C2494 0.960 . S
H2509 C2495 0.961 . S
H2510 C2495 0.961 . S
H2511 C2495 0.961 . S
H2512 C2496 0.931 . S
H2513 C2501 0.930 . S
H2514 C2502 0.956 . S
H2515 C2502 0.961 . S
H2516 C2502 0.961 . S
H2517 C2503 0.958 . S
H2518 C2503 0.961 . S
H2519 C2503 0.960 . S
C2520 C2521 1.391 . S
C2520 C2522 1.394 . S
C2520 H2536 0.931 . S
C2521 C2520 1.391 . S
C2521 C2525 1.376 . S
C2522 C2520 1.394 . S
C2522 C2523 1.369 . S
C2522 C2526 1.531 . S
C2523 C2522 1.369 . S
C2523 C2524 1.410 . S
C2523 C2531 1.503 . S
C2524 C2523 1.410 . S
C2524 C2525 1.392 . S
C2524 C2527 1.511 . S
C2525 C2521 1.376 . S
C2525 C2524 1.392 . S
C2525 H2537 0.929 . S
C2526 C2522 1.531 . S
C2526 H2538 0.960 . S
C2526 H2539 0.962 . S
C2526 H2540 0.960 . S
C2527 C2524 1.511 . S
C2527 H2541 0.961 . S
C2527 H2542 0.961 . S
C2527 H2543 0.961 . S
C2528 C2529 1.370 . S
C2528 C2530 1.363 . S
C2528 H2544 0.931 . S
C2529 C2528 1.370 . S
C2529 C2533 1.408 . S
C2530 C2528 1.363 . S
C2530 C2531 1.370 . S
C2530 C2534 1.524 . S
C2531 C2523 1.503 . S
C2531 C2530 1.370 . S
C2531 C2532 1.403 . S
C2532 C2531 1.403 . S
C2532 C2533 1.404 . S
C2532 C2535 1.539 . S
C2533 C2529 1.408 . S
C2533 C2532 1.404 . S
C2533 H2545 0.930 . S
C2534 C2530 1.524 . S
C2534 H2546 0.956 . S
C2534 H2547 0.961 . S
C2534 H2548 0.961 . S
C2535 C2532 1.539 . S
C2535 H2549 0.958 . S
C2535 H2550 0.961 . S
C2535 H2551 0.960 . S
H2536 C2520 0.931 . S
H2537 C2525 0.929 . S
H2538 C2526 0.960 . S
H2539 C2526 0.962 . S
H2540 C2526 0.960 . S
H2541 C2527 0.961 . S
H2542 C2527 0.961 . S
H2543 C2527 0.961 . S
H2544 C2528 0.931 . S
H2545 C2533 0.930 . S
H2546 C2534 0.956 . S
H2547 C2534 0.961 . S
H2548 C2534 0.961 . S
H2549 C2535 0.958 . S
H2550 C2535 0.961 . S
H2551 C2535 0.960 . S
C2552 C2553 1.391 . S
C2552 C2554 1.394 . S
C2552 H2568 0.931 . S
C2553 C2552 1.391 . S
C2553 C2557 1.376 1_455 S
C2554 C2552 1.394 . S
C2554 C2555 1.369 . S
C2554 C2558 1.531 . S
C2555 C2554 1.369 . S
C2555 C2556 1.410 1_455 S
C2555 C2563 1.488 1_556 S
C2556 C2555 1.410 1_655 S
C2556 C2557 1.392 . S
C2556 C2559 1.483 1_556 S
C2557 C2553 1.376 1_655 S
C2557 C2556 1.392 . S
C2557 H2569 0.929 . S
C2558 C2554 1.531 . S
C2558 H2570 0.960 . S
C2558 H2571 0.962 . S
C2558 H2572 0.960 . S
C2559 C2556 1.483 1_554 S
C2559 H2573 0.980 . S
C2559 H2574 0.996 . S
C2559 H2575 0.937 1_554 S
C2560 C2561 1.370 . S
C2560 C2562 1.363 . S
C2560 H2576 0.931 . S
C2561 C2560 1.370 . S
C2561 C2565 1.408 . S
C2562 C2560 1.363 . S
C2562 C2563 1.395 . S
C2562 C2566 1.524 . S
C2563 C2555 1.488 1_554 S
C2563 C2562 1.395 . S
C2563 C2564 1.393 1_554 S
C2564 C2563 1.393 1_556 S
C2564 C2565 1.404 1_556 S
C2564 C2567 1.539 1_455 S
C2565 C2561 1.408 . S
C2565 C2564 1.404 1_554 S
C2565 H2577 0.930 . S
C2566 C2562 1.524 . S
C2566 H2578 0.956 . S
C2566 H2579 0.961 . S
C2566 H2580 0.961 . S
C2567 C2564 1.539 1_655 S
C2567 H2581 0.958 1_655 S
C2567 H2582 0.961 . S
C2567 H2583 0.960 . S
H2568 C2552 0.931 . S
H2569 C2557 0.929 . S
H2570 C2558 0.960 . S
H2571 C2558 0.962 . S
H2572 C2558 0.960 . S
H2573 C2559 0.980 . S
H2574 C2559 0.996 . S
H2575 C2559 0.937 1_556 S
H2576 C2560 0.931 . S
H2577 C2565 0.930 . S
H2578 C2566 0.956 . S
H2579 C2566 0.961 . S
H2580 C2566 0.961 . S
H2581 C2567 0.958 1_455 S
H2582 C2567 0.961 . S
H2583 C2567 0.960 . S
C2584 C2585 1.391 . S
C2584 C2586 1.394 . S
C2584 H2600 0.931 . S
C2585 C2584 1.391 . S
C2585 C2589 1.376 . S
C2586 C2584 1.394 . S
C2586 C2587 1.369 1_455 S
C2586 C2590 1.531 . S
C2587 C2586 1.369 1_655 S
C2587 C2588 1.410 . S
C2587 C2595 1.503 . S
C2588 C2587 1.410 . S
C2588 C2589 1.392 1_655 S
C2588 C2591 1.511 . S
C2589 C2585 1.376 . S
C2589 C2588 1.392 1_455 S
C2589 H2601 0.929 . S
C2590 C2586 1.531 . S
C2590 H2602 0.960 1_455 S
C2590 H2603 0.962 . S
C2590 H2604 0.960 . S
C2591 C2588 1.511 . S
C2591 H2605 0.961 . S
C2591 H2606 0.961 . S
C2591 H2607 0.961 . S
C2592 C2593 1.370 . S
C2592 C2594 1.363 . S
C2592 H2608 0.931 . S
C2593 C2592 1.370 . S
C2593 C2597 1.408 . S
C2594 C2592 1.363 . S
C2594 C2595 1.370 . S
C2594 C2598 1.524 . S
C2595 C2587 1.503 . S
C2595 C2594 1.370 . S
C2595 C2596 1.403 . S
C2596 C2595 1.403 . S
C2596 C2597 1.404 . S
C2596 C2599 1.539 . S
C2597 C2593 1.408 . S
C2597 C2596 1.404 . S
C2597 H2609 0.930 . S
C2598 C2594 1.524 . S
C2598 H2610 0.956 1_655 S
C2598 H2611 0.961 . S
C2598 H2612 0.961 . S
C2599 C2596 1.539 . S
C2599 H2613 0.958 . S
C2599 H2614 0.961 . S
C2599 H2615 0.960 . S
H2600 C2584 0.931 . S
H2601 C2589 0.929 . S
H2602 C2590 0.960 1_655 S
H2603 C2590 0.962 . S
H2604 C2590 0.960 . S
H2605 C2591 0.961 . S
H2606 C2591 0.961 . S
H2607 C2591 0.961 . S
H2608 C2592 0.931 . S
H2609 C2597 0.930 . S
H2610 C2598 0.956 1_455 S
H2611 C2598 0.961 . S
H2612 C2598 0.961 . S
H2613 C2599 0.958 . S
H2614 C2599 0.961 . S
H2615 C2599 0.960 . S
C2616 C2617 1.391 . S
C2616 C2618 1.394 . S
C2616 H2632 0.931 . S
C2617 C2616 1.391 . S
C2617 C2621 1.376 . S
C2618 C2616 1.394 . S
C2618 C2619 1.369 . S
C2618 C2622 1.531 . S
C2619 C2618 1.369 . S
C2619 C2620 1.410 . S
C2619 C2627 1.503 . S
C2620 C2619 1.410 . S
C2620 C2621 1.392 . S
C2620 C2623 1.511 . S
C2621 C2617 1.376 . S
C2621 C2620 1.392 . S
C2621 H2633 0.929 . S
C2622 C2618 1.531 . S
C2622 H2634 0.960 . S
C2622 H2635 0.962 . S
C2622 H2636 0.960 . S
C2623 C2620 1.511 . S
C2623 H2637 0.961 . S
C2623 H2638 0.961 . S
C2623 H2639 0.961 . S
C2624 C2625 1.370 . S
C2624 C2626 1.363 . S
C2624 H2640 0.931 . S
C2625 C2624 1.370 . S
C2625 C2629 1.408 . S
C2626 C2624 1.363 . S
C2626 C2627 1.370 . S
C2626 C2630 1.524 . S
C2627 C2619 1.503 . S
C2627 C2626 1.370 . S
C2627 C2628 1.403 . S
C2628 C2627 1.403 . S
C2628 C2629 1.404 . S
C2628 C2631 1.539 . S
C2629 C2625 1.408 . S
C2629 C2628 1.404 . S
C2629 H2641 0.930 . S
C2630 C2626 1.524 . S
C2630 H2642 0.956 . S
C2630 H2643 0.961 . S
C2630 H2644 0.961 . S
C2631 C2628 1.539 . S
C2631 H2645 0.958 . S
C2631 H2646 0.961 . S
C2631 H2647 0.960 . S
H2632 C2616 0.931 . S
H2633 C2621 0.929 . S
H2634 C2622 0.960 . S
H2635 C2622 0.962 . S
H2636 C2622 0.960 . S
H2637 C2623 0.961 . S
H2638 C2623 0.961 . S
H2639 C2623 0.961 . S
H2640 C2624 0.931 . S
H2641 C2629 0.930 . S
H2642 C2630 0.956 . S
H2643 C2630 0.961 . S
H2644 C2630 0.961 . S
H2645 C2631 0.958 . S
H2646 C2631 0.961 . S
H2647 C2631 0.960 . S
C2648 C2649 1.391 . S
C2648 C2650 1.394 . S
C2648 H2664 0.931 . S
C2649 C2648 1.391 . S
C2649 C2653 1.376 . S
C2650 C2648 1.394 . S
C2650 C2651 1.369 . S
C2650 C2654 1.531 . S
C2651 C2650 1.369 . S
C2651 C2652 1.410 . S
C2651 C2659 1.503 . S
C2652 C2651 1.410 . S
C2652 C2653 1.392 . S
C2652 C2655 1.511 . S
C2653 C2649 1.376 . S
C2653 C2652 1.392 . S
C2653 H2665 0.929 . S
C2654 C2650 1.531 . S
C2654 H2666 0.960 . S
C2654 H2667 0.962 . S
C2654 H2668 0.960 . S
C2655 C2652 1.511 . S
C2655 H2669 0.961 . S
C2655 H2670 0.961 . S
C2655 H2671 0.961 . S
C2656 C2657 1.370 . S
C2656 C2658 1.363 . S
C2656 H2672 0.931 . S
C2657 C2656 1.370 . S
C2657 C2661 1.408 . S
C2658 C2656 1.363 . S
C2658 C2659 1.370 . S
C2658 C2662 1.524 . S
C2659 C2651 1.503 . S
C2659 C2658 1.370 . S
C2659 C2660 1.403 . S
C2660 C2659 1.403 . S
C2660 C2661 1.404 . S
C2660 C2663 1.539 . S
C2661 C2657 1.408 . S
C2661 C2660 1.404 . S
C2661 H2673 0.930 . S
C2662 C2658 1.524 . S
C2662 H2674 0.956 . S
C2662 H2675 0.961 . S
C2662 H2676 0.961 . S
C2663 C2660 1.539 . S
C2663 H2677 0.958 . S
C2663 H2678 0.961 . S
C2663 H2679 0.960 . S
H2664 C2648 0.931 . S
H2665 C2653 0.929 . S
H2666 C2654 0.960 . S
H2667 C2654 0.962 . S
H2668 C2654 0.960 . S
H2669 C2655 0.961 . S
H2670 C2655 0.961 . S
H2671 C2655 0.961 . S
H2672 C2656 0.931 . S
H2673 C2661 0.930 . S
H2674 C2662 0.956 . S
H2675 C2662 0.961 . S
H2676 C2662 0.961 . S
H2677 C2663 0.958 . S
H2678 C2663 0.961 . S
H2679 C2663 0.960 . S
C2680 C2681 1.391 . S
C2680 C2682 1.394 . S
C2680 H2696 0.931 . S
C2681 C2680 1.391 . S
C2681 C2685 1.376 . S
C2682 C2680 1.394 . S
C2682 C2683 1.369 . S
C2682 C2686 1.531 . S
C2683 C2682 1.369 . S
C2683 C2684 1.410 . S
C2683 C2691 1.503 . S
C2684 C2683 1.410 . S
C2684 C2685 1.392 . S
C2684 C2687 1.511 1_455 S
C2685 C2681 1.376 . S
C2685 C2684 1.392 . S
C2685 H2697 0.929 1_455 S
C2686 C2682 1.531 . S
C2686 H2698 0.960 . S
C2686 H2699 0.962 . S
C2686 H2700 0.960 . S
C2687 C2684 1.511 1_655 S
C2687 H2701 0.961 . S
C2687 H2702 0.961 . S
C2687 H2703 0.961 . S
C2688 C2689 1.370 . S
C2688 C2690 1.363 . S
C2688 H2704 0.931 . S
C2689 C2688 1.370 . S
C2689 C2693 1.408 . S
C2690 C2688 1.363 . S
C2690 C2691 1.370 . S
C2690 C2694 1.524 . S
C2691 C2683 1.503 . S
C2691 C2690 1.370 . S
C2691 C2692 1.403 . S
C2692 C2691 1.403 . S
C2692 C2693 1.404 . S
C2692 C2695 1.539 . S
C2693 C2689 1.408 . S
C2693 C2692 1.404 . S
C2693 H2705 0.930 . S
C2694 C2690 1.524 . S
C2694 H2706 0.956 . S
C2694 H2707 0.961 . S
C2694 H2708 0.961 . S
C2695 C2692 1.539 . S
C2695 H2709 0.958 . S
C2695 H2710 0.957 1_455 S
C2695 H2711 0.960 . S
H2696 C2680 0.931 . S
H2697 C2685 0.929 1_655 S
H2698 C2686 0.960 . S
H2699 C2686 0.962 . S
H2700 C2686 0.960 . S
H2701 C2687 0.961 . S
H2702 C2687 0.961 . S
H2703 C2687 0.961 . S
H2704 C2688 0.931 . S
H2705 C2693 0.930 . S
H2706 C2694 0.956 . S
H2707 C2694 0.961 . S
H2708 C2694 0.961 . S
H2709 C2695 0.958 . S
H2710 C2695 0.957 1_655 S
H2711 C2695 0.960 . S
C2712 C2713 1.391 . S
C2712 C2714 1.394 . S
C2712 H2728 0.931 . S
C2713 C2712 1.391 . S
C2713 C2717 1.376 . S
C2714 C2712 1.394 . S
C2714 C2715 1.369 . S
C2714 C2718 1.531 . S
C2715 C2714 1.369 . S
C2715 C2716 1.410 . S
C2715 C2723 1.503 . S
C2716 C2715 1.410 . S
C2716 C2717 1.392 . S
C2716 C2719 1.511 . S
C2717 C2713 1.376 . S
C2717 C2716 1.392 . S
C2717 H2729 0.929 . S
C2718 C2714 1.531 . S
C2718 H2730 0.960 . S
C2718 H2731 0.962 . S
C2718 H2732 0.960 . S
C2719 C2716 1.511 . S
C2719 H2733 0.961 . S
C2719 H2734 0.961 . S
C2719 H2735 0.961 . S
C2720 C2721 1.370 . S
C2720 C2722 1.363 . S
C2720 H2736 0.931 . S
C2721 C2720 1.370 . S
C2721 C2725 1.408 . S
C2722 C2720 1.363 . S
C2722 C2723 1.370 . S
C2722 C2726 1.524 . S
C2723 C2715 1.503 . S
C2723 C2722 1.370 . S
C2723 C2724 1.403 . S
C2724 C2723 1.403 . S
C2724 C2725 1.404 . S
C2724 C2727 1.539 . S
C2725 C2721 1.408 . S
C2725 C2724 1.404 . S
C2725 H2737 0.930 . S
C2726 C2722 1.524 . S
C2726 H2738 0.956 . S
C2726 H2739 0.961 . S
C2726 H2740 0.961 . S
C2727 C2724 1.539 . S
C2727 H2741 0.958 . S
C2727 H2742 0.961 . S
C2727 H2743 0.960 . S
H2728 C2712 0.931 . S
H2729 C2717 0.929 . S
H2730 C2718 0.960 . S
H2731 C2718 0.962 . S
H2732 C2718 0.960 . S
H2733 C2719 0.961 . S
H2734 C2719 0.961 . S
H2735 C2719 0.961 . S
H2736 C2720 0.931 . S
H2737 C2725 0.930 . S
H2738 C2726 0.956 . S
H2739 C2726 0.961 . S
H2740 C2726 0.961 . S
H2741 C2727 0.958 . S
H2742 C2727 0.961 . S
H2743 C2727 0.960 . S
C2744 C2745 1.391 . S
C2744 C2746 1.394 . S
C2744 H2760 0.931 . S
C2745 C2744 1.391 . S
C2745 C2749 1.376 . S
C2746 C2744 1.394 . S
C2746 C2747 1.369 . S
C2746 C2750 1.531 . S
C2747 C2746 1.369 . S
C2747 C2748 1.410 . S
C2747 C2755 1.503 . S
C2748 C2747 1.410 . S
C2748 C2749 1.392 . S
C2748 C2751 1.511 . S
C2749 C2745 1.376 . S
C2749 C2748 1.392 . S
C2749 H2761 0.929 . S
C2750 C2746 1.531 . S
C2750 H2762 0.960 . S
C2750 H2763 0.962 . S
C2750 H2764 0.960 . S
C2751 C2748 1.511 . S
C2751 H2765 0.961 . S
C2751 H2766 0.961 . S
C2751 H2767 0.961 . S
C2752 C2753 1.370 . S
C2752 C2754 1.363 . S
C2752 H2768 0.931 . S
C2753 C2752 1.370 . S
C2753 C2757 1.408 . S
C2754 C2752 1.363 . S
C2754 C2755 1.370 . S
C2754 C2758 1.524 . S
C2755 C2747 1.503 . S
C2755 C2754 1.370 . S
C2755 C2756 1.403 . S
C2756 C2755 1.403 . S
C2756 C2757 1.404 . S
C2756 C2759 1.539 . S
C2757 C2753 1.408 . S
C2757 C2756 1.404 . S
C2757 H2769 0.930 . S
C2758 C2754 1.524 . S
C2758 H2770 0.956 . S
C2758 H2771 0.961 . S
C2758 H2772 0.961 . S
C2759 C2756 1.539 . S
C2759 H2773 0.958 . S
C2759 H2774 0.961 . S
C2759 H2775 0.960 . S
H2760 C2744 0.931 . S
H2761 C2749 0.929 . S
H2762 C2750 0.960 . S
H2763 C2750 0.962 . S
H2764 C2750 0.960 . S
H2765 C2751 0.961 . S
H2766 C2751 0.961 . S
H2767 C2751 0.961 . S
H2768 C2752 0.931 . S
H2769 C2757 0.930 . S
H2770 C2758 0.956 . S
H2771 C2758 0.961 . S
H2772 C2758 0.961 . S
H2773 C2759 0.958 . S
H2774 C2759 0.961 . S
H2775 C2759 0.960 . S
C2776 C2777 1.391 1_556 S
C2776 C2778 1.394 . S
C2776 H2792 0.931 . S
C2777 C2776 1.391 1_554 S
C2777 C2781 1.376 . S
C2778 C2776 1.394 . S
C2778 C2779 1.369 . S
C2778 C2782 1.531 . S
C2779 C2778 1.369 . S
C2779 C2780 1.368 1_556 S
C2779 C2787 1.503 . S
C2780 C2779 1.368 1_554 S
C2780 C2781 1.428 . S
C2780 C2783 1.519 . S
C2781 C2777 1.376 . S
C2781 C2780 1.428 . S
C2781 H2793 0.929 . S
C2782 C2778 1.531 . S
C2782 H2794 0.960 . S
C2782 H2795 0.962 . S
C2782 H2796 0.960 . S
C2783 C2780 1.519 . S
C2783 H2797 0.961 . S
C2783 H2798 0.961 1_554 S
C2783 H2799 0.961 . S
C2784 C2785 1.370 . S
C2784 C2786 1.363 . S
C2784 H2800 0.931 . S
C2785 C2784 1.370 . S
C2785 C2789 1.408 . S
C2786 C2784 1.363 . S
C2786 C2787 1.370 . S
C2786 C2790 1.524 . S
C2787 C2779 1.503 . S
C2787 C2786 1.370 . S
C2787 C2788 1.403 . S
C2788 C2787 1.403 . S
C2788 C2789 1.404 . S
C2788 C2791 1.539 . S
C2789 C2785 1.408 . S
C2789 C2788 1.404 . S
C2789 H2801 0.930 . S
C2790 C2786 1.524 . S
C2790 H2802 0.956 . S
C2790 H2803 0.961 . S
C2790 H2804 0.961 . S
C2791 C2788 1.539 . S
C2791 H2805 0.958 . S
C2791 H2806 0.961 . S
C2791 H2807 0.960 . S
H2792 C2776 0.931 . S
H2793 C2781 0.929 . S
H2794 C2782 0.960 . S
H2795 C2782 0.962 . S
H2796 C2782 0.960 . S
H2797 C2783 0.961 . S
H2798 C2783 0.961 1_556 S
H2799 C2783 0.961 . S
H2800 C2784 0.931 . S
H2801 C2789 0.930 . S
H2802 C2790 0.956 . S
H2803 C2790 0.961 . S
H2804 C2790 0.961 . S
H2805 C2791 0.958 . S
H2806 C2791 0.961 . S
H2807 C2791 0.960 . S
C2808 C2809 1.391 . S
C2808 C2810 1.394 . S
C2808 H2824 0.931 . S
C2809 C2808 1.391 . S
C2809 C2813 1.376 . S
C2810 C2808 1.394 . S
C2810 C2811 1.369 . S
C2810 C2814 1.531 . S
C2811 C2810 1.369 . S
C2811 C2812 1.410 . S
C2811 C2819 1.503 . S
C2812 C2811 1.410 . S
C2812 C2813 1.392 . S
C2812 C2815 1.511 . S
C2813 C2809 1.376 . S
C2813 C2812 1.392 . S
C2813 H2825 0.929 . S
C2814 C2810 1.531 . S
C2814 H2826 0.960 . S
C2814 H2827 0.962 . S
C2814 H2828 0.960 . S
C2815 C2812 1.511 . S
C2815 H2829 0.961 . S
C2815 H2830 0.961 . S
C2815 H2831 0.961 . S
C2816 C2817 1.370 . S
C2816 C2818 1.363 . S
C2816 H2832 0.931 . S
C2817 C2816 1.370 . S
C2817 C2821 1.408 . S
C2818 C2816 1.363 . S
C2818 C2819 1.370 . S
C2818 C2822 1.524 . S
C2819 C2811 1.503 . S
C2819 C2818 1.370 . S
C2819 C2820 1.403 . S
C2820 C2819 1.403 . S
C2820 C2821 1.404 . S
C2820 C2823 1.539 . S
C2821 C2817 1.408 . S
C2821 C2820 1.404 . S
C2821 H2833 0.930 . S
C2822 C2818 1.524 . S
C2822 H2834 0.956 . S
C2822 H2835 0.961 . S
C2822 H2836 0.961 . S
C2823 C2820 1.539 . S
C2823 H2837 0.958 . S
C2823 H2838 0.961 . S
C2823 H2839 0.960 . S
H2824 C2808 0.931 . S
H2825 C2813 0.929 . S
H2826 C2814 0.960 . S
H2827 C2814 0.962 . S
H2828 C2814 0.960 . S
H2829 C2815 0.961 . S
H2830 C2815 0.961 . S
H2831 C2815 0.961 . S
H2832 C2816 0.931 . S
H2833 C2821 0.930 . S
H2834 C2822 0.956 . S
H2835 C2822 0.961 . S
H2836 C2822 0.961 . S
H2837 C2823 0.958 . S
H2838 C2823 0.961 . S
H2839 C2823 0.960 . S
C2840 C2841 1.391 . S
C2840 C2842 1.394 . S
C2840 H2856 0.931 . S
C2841 C2840 1.391 . S
C2841 C2845 1.376 . S
C2842 C2840 1.394 . S
C2842 C2843 1.369 . S
C2842 C2846 1.531 . S
C2843 C2842 1.369 . S
C2843 C2844 1.410 . S
C2843 C2851 1.503 . S
C2844 C2843 1.410 . S
C2844 C2845 1.392 . S
C2844 C2847 1.511 . S
C2845 C2841 1.376 . S
C2845 C2844 1.392 . S
C2845 H2857 0.929 . S
C2846 C2842 1.531 . S
C2846 H2858 0.960 . S
C2846 H2859 0.962 . S
C2846 H2860 0.960 . S
C2847 C2844 1.511 . S
C2847 H2861 0.961 . S
C2847 H2862 0.961 . S
C2847 H2863 0.961 . S
C2848 C2849 1.370 . S
C2848 C2850 1.363 . S
C2848 H2864 0.931 . S
C2849 C2848 1.370 . S
C2849 C2853 1.408 . S
C2850 C2848 1.363 . S
C2850 C2851 1.370 . S
C2850 C2854 1.524 . S
C2851 C2843 1.503 . S
C2851 C2850 1.370 . S
C2851 C2852 1.403 . S
C2852 C2851 1.403 . S
C2852 C2853 1.404 . S
C2852 C2855 1.539 . S
C2853 C2849 1.408 . S
C2853 C2852 1.404 . S
C2853 H2865 0.930 . S
C2854 C2850 1.524 . S
C2854 H2866 0.956 . S
C2854 H2867 0.961 . S
C2854 H2868 0.961 . S
C2855 C2852 1.539 . S
C2855 H2869 0.958 . S
C2855 H2870 0.961 . S
C2855 H2871 0.960 . S
H2856 C2840 0.931 . S
H2857 C2845 0.929 . S
H2858 C2846 0.960 . S
H2859 C2846 0.962 . S
H2860 C2846 0.960 . S
H2861 C2847 0.961 . S
H2862 C2847 0.961 . S
H2863 C2847 0.961 . S
H2864 C2848 0.931 . S
H2865 C2853 0.930 . S
H2866 C2854 0.956 . S
H2867 C2854 0.961 . S
H2868 C2854 0.961 . S
H2869 C2855 0.958 . S
H2870 C2855 0.961 . S
H2871 C2855 0.960 . S
C2872 C2873 1.391 . S
C2872 C2874 1.394 . S
C2872 H2888 0.931 . S
C2873 C2872 1.391 . S
C2873 C2877 1.376 . S
C2874 C2872 1.394 . S
C2874 C2875 1.369 . S
C2874 C2878 1.531 . S
C2875 C2874 1.369 . S
C2875 C2876 1.410 . S
C2875 C2883 1.503 . S
C2876 C2875 1.410 . S
C2876 C2877 1.392 . S
C2876 C2879 1.511 . S
C2877 C2873 1.376 . S
C2877 C2876 1.392 . S
C2877 H2889 0.929 . S
C2878 C2874 1.531 . S
C2878 H2890 0.960 . S
C2878 H2891 0.962 . S
C2878 H2892 0.960 . S
C2879 C2876 1.511 . S
C2879 H2893 0.961 . S
C2879 H2894 0.961 . S
C2879 H2895 0.961 . S
C2880 C2881 1.370 . S
C2880 C2882 1.363 . S
C2880 H2896 0.931 . S
C2881 C2880 1.370 . S
C2881 C2885 1.408 . S
C2882 C2880 1.363 . S
C2882 C2883 1.370 . S
C2882 C2886 1.524 . S
C2883 C2875 1.503 . S
C2883 C2882 1.370 . S
C2883 C2884 1.403 . S
C2884 C2883 1.403 . S
C2884 C2885 1.404 . S
C2884 C2887 1.539 . S
C2885 C2881 1.408 . S
C2885 C2884 1.404 . S
C2885 H2897 0.930 . S
C2886 C2882 1.524 . S
C2886 H2898 0.956 . S
C2886 H2899 0.961 . S
C2886 H2900 0.961 . S
C2887 C2884 1.539 . S
C2887 H2901 0.958 . S
C2887 H2902 0.961 . S
C2887 H2903 0.960 . S
H2888 C2872 0.931 . S
H2889 C2877 0.929 . S
H2890 C2878 0.960 . S
H2891 C2878 0.962 . S
H2892 C2878 0.960 . S
H2893 C2879 0.961 . S
H2894 C2879 0.961 . S
H2895 C2879 0.961 . S
H2896 C2880 0.931 . S
H2897 C2885 0.930 . S
H2898 C2886 0.956 . S
H2899 C2886 0.961 . S
H2900 C2886 0.961 . S
H2901 C2887 0.958 . S
H2902 C2887 0.961 . S
H2903 C2887 0.960 . S
C2904 C2905 1.391 . S
C2904 C2906 1.394 . S
C2904 H2920 0.931 . S
C2905 C2904 1.391 . S
C2905 C2909 1.376 . S
C2906 C2904 1.394 . S
C2906 C2907 1.369 . S
C2906 C2910 1.531 . S
C2907 C2906 1.369 . S
C2907 C2908 1.410 . S
C2907 C2915 1.503 . S
C2908 C2907 1.410 . S
C2908 C2909 1.392 . S
C2908 C2911 1.511 . S
C2909 C2905 1.376 . S
C2909 C2908 1.392 . S
C2909 H2921 0.929 . S
C2910 C2906 1.531 . S
C2910 H2922 0.960 . S
C2910 H2923 0.962 . S
C2910 H2924 0.960 . S
C2911 C2908 1.511 . S
C2911 H2925 0.961 . S
C2911 H2926 0.961 . S
C2911 H2927 0.961 . S
C2912 C2913 1.370 . S
C2912 C2914 1.363 . S
C2912 H2928 0.931 . S
C2913 C2912 1.370 . S
C2913 C2917 1.408 . S
C2914 C2912 1.363 . S
C2914 C2915 1.370 . S
C2914 C2918 1.524 . S
C2915 C2907 1.503 . S
C2915 C2914 1.370 . S
C2915 C2916 1.403 . S
C2916 C2915 1.403 . S
C2916 C2917 1.404 . S
C2916 C2919 1.539 . S
C2917 C2913 1.408 . S
C2917 C2916 1.404 . S
C2917 H2929 0.930 . S
C2918 C2914 1.524 . S
C2918 H2930 0.956 . S
C2918 H2931 0.961 . S
C2918 H2932 0.961 . S
C2919 C2916 1.539 . S
C2919 H2933 0.958 . S
C2919 H2934 0.961 . S
C2919 H2935 0.960 . S
H2920 C2904 0.931 . S
H2921 C2909 0.929 . S
H2922 C2910 0.960 . S
H2923 C2910 0.962 . S
H2924 C2910 0.960 . S
H2925 C2911 0.961 . S
H2926 C2911 0.961 . S
H2927 C2911 0.961 . S
H2928 C2912 0.931 . S
H2929 C2917 0.930 . S
H2930 C2918 0.956 . S
H2931 C2918 0.961 . S
H2932 C2918 0.961 . S
H2933 C2919 0.958 . S
H2934 C2919 0.961 . S
H2935 C2919 0.960 . S
C2936 C2937 1.391 . S
C2936 C2938 1.394 . S
C2936 H2952 0.931 . S
C2937 C2936 1.391 . S
C2937 C2941 1.376 . S
C2938 C2936 1.394 . S
C2938 C2939 1.369 . S
C2938 C2942 1.531 . S
C2939 C2938 1.369 . S
C2939 C2940 1.410 . S
C2939 C2947 1.503 . S
C2940 C2939 1.410 . S
C2940 C2941 1.392 . S
C2940 C2943 1.511 . S
C2941 C2937 1.376 . S
C2941 C2940 1.392 . S
C2941 H2953 0.929 . S
C2942 C2938 1.531 . S
C2942 H2954 0.960 . S
C2942 H2955 0.962 . S
C2942 H2956 0.960 . S
C2943 C2940 1.511 . S
C2943 H2957 0.961 . S
C2943 H2958 0.961 . S
C2943 H2959 0.961 . S
C2944 C2945 1.370 . S
C2944 C2946 1.363 . S
C2944 H2960 0.931 . S
C2945 C2944 1.370 . S
C2945 C2949 1.408 . S
C2946 C2944 1.363 . S
C2946 C2947 1.370 . S
C2946 C2950 1.524 . S
C2947 C2939 1.503 . S
C2947 C2946 1.370 . S
C2947 C2948 1.403 . S
C2948 C2947 1.403 . S
C2948 C2949 1.404 . S
C2948 C2951 1.539 . S
C2949 C2945 1.408 . S
C2949 C2948 1.404 . S
C2949 H2961 0.930 . S
C2950 C2946 1.524 . S
C2950 H2962 0.956 . S
C2950 H2963 0.961 . S
C2950 H2964 0.961 . S
C2951 C2948 1.539 . S
C2951 H2965 0.958 . S
C2951 H2966 0.961 . S
C2951 H2967 0.960 . S
H2952 C2936 0.931 . S
H2953 C2941 0.929 . S
H2954 C2942 0.960 . S
H2955 C2942 0.962 . S
H2956 C2942 0.960 . S
H2957 C2943 0.961 . S
H2958 C2943 0.961 . S
H2959 C2943 0.961 . S
H2960 C2944 0.931 . S
H2961 C2949 0.930 . S
H2962 C2950 0.956 . S
H2963 C2950 0.961 . S
H2964 C2950 0.961 . S
H2965 C2951 0.958 . S
H2966 C2951 0.961 . S
H2967 C2951 0.960 . S
C2968 C2969 1.391 . S
C2968 C2970 1.394 . S
C2968 H2984 0.931 . S
C2969 C2968 1.391 . S
C2969 C2973 1.376 . S
C2970 C2968 1.394 . S
C2970 C2971 1.369 . S
C2970 C2974 1.531 . S
C2971 C2970 1.369 . S
C2971 C2972 1.410 . S
C2971 C2979 1.503 . S
C2972 C2971 1.410 . S
C2972 C2973 1.392 . S
C2972 C2975 1.511 . S
C2973 C2969 1.376 . S
C2973 C2972 1.392 . S
C2973 H2985 0.929 . S
C2974 C2970 1.531 . S
C2974 H2986 0.960 . S
C2974 H2987 0.962 . S
C2974 H2988 0.960 . S
C2975 C2972 1.511 . S
C2975 H2989 0.961 . S
C2975 H2990 0.961 . S
C2975 H2991 0.961 . S
C2976 C2977 1.370 . S
C2976 C2978 1.363 . S
C2976 H2992 0.931 . S
C2977 C2976 1.370 . S
C2977 C2981 1.408 . S
C2978 C2976 1.363 . S
C2978 C2979 1.370 . S
C2978 C2982 1.524 . S
C2979 C2971 1.503 . S
C2979 C2978 1.370 . S
C2979 C2980 1.403 . S
C2980 C2979 1.403 . S
C2980 C2981 1.404 . S
C2980 C2983 1.539 . S
C2981 C2977 1.408 . S
C2981 C2980 1.404 . S
C2981 H2993 0.930 . S
C2982 C2978 1.524 . S
C2982 H2994 0.956 . S
C2982 H2995 0.961 . S
C2982 H2996 0.961 . S
C2983 C2980 1.539 . S
C2983 H2997 0.958 . S
C2983 H2998 0.961 . S
C2983 H2999 0.960 . S
H2984 C2968 0.931 . S
H2985 C2973 0.929 . S
H2986 C2974 0.960 . S
H2987 C2974 0.962 . S
H2988 C2974 0.960 . S
H2989 C2975 0.961 . S
H2990 C2975 0.961 . S
H2991 C2975 0.961 . S
H2992 C2976 0.931 . S
H2993 C2981 0.930 . S
H2994 C2982 0.956 . S
H2995 C2982 0.961 . S
H2996 C2982 0.961 . S
H2997 C2983 0.958 . S
H2998 C2983 0.961 . S
H2999 C2983 0.960 . S
C3000 C3001 1.391 . S
C3000 C3002 1.394 . S
C3000 H3016 0.931 . S
C3001 C3000 1.391 . S
C3001 C3005 1.376 . S
C3002 C3000 1.394 . S
C3002 C3003 1.369 . S
C3002 C3006 1.531 . S
C3003 C3002 1.369 . S
C3003 C3004 1.410 . S
C3003 C3011 1.503 . S
C3004 C3003 1.410 . S
C3004 C3005 1.392 . S
C3004 C3007 1.511 . S
C3005 C3001 1.376 . S
C3005 C3004 1.392 . S
C3005 H3017 0.929 . S
C3006 C3002 1.531 . S
C3006 H3018 0.960 . S
C3006 H3019 0.962 . S
C3006 H3020 0.960 . S
C3007 C3004 1.511 . S
C3007 H3021 0.961 . S
C3007 H3022 0.961 . S
C3007 H3023 0.961 . S
C3008 C3009 1.370 . S
C3008 C3010 1.363 . S
C3008 H3024 0.931 . S
C3009 C3008 1.370 . S
C3009 C3013 1.408 . S
C3010 C3008 1.363 . S
C3010 C3011 1.370 . S
C3010 C3014 1.524 . S
C3011 C3003 1.503 . S
C3011 C3010 1.370 . S
C3011 C3012 1.403 . S
C3012 C3011 1.403 . S
C3012 C3013 1.404 . S
C3012 C3015 1.539 . S
C3013 C3009 1.408 . S
C3013 C3012 1.404 . S
C3013 H3025 0.930 . S
C3014 C3010 1.524 . S
C3014 H3026 0.956 . S
C3014 H3027 0.961 . S
C3014 H3028 0.961 . S
C3015 C3012 1.539 . S
C3015 H3029 0.958 . S
C3015 H3030 0.961 . S
C3015 H3031 0.960 . S
H3016 C3000 0.931 . S
H3017 C3005 0.929 . S
H3018 C3006 0.960 . S
H3019 C3006 0.962 . S
H3020 C3006 0.960 . S
H3021 C3007 0.961 . S
H3022 C3007 0.961 . S
H3023 C3007 0.961 . S
H3024 C3008 0.931 . S
H3025 C3013 0.930 . S
H3026 C3014 0.956 . S
H3027 C3014 0.961 . S
H3028 C3014 0.961 . S
H3029 C3015 0.958 . S
H3030 C3015 0.961 . S
H3031 C3015 0.960 . S
C3032 C3033 1.391 . S
C3032 C3034 1.394 . S
C3032 H3048 0.931 . S
C3033 C3032 1.391 . S
C3033 C3037 1.376 . S
C3034 C3032 1.394 . S
C3034 C3035 1.369 . S
C3034 C3038 1.531 . S
C3035 C3034 1.369 . S
C3035 C3036 1.410 . S
C3035 C3043 1.503 . S
C3036 C3035 1.410 . S
C3036 C3037 1.392 . S
C3036 C3039 1.511 . S
C3037 C3033 1.376 . S
C3037 C3036 1.392 . S
C3037 H3049 0.929 . S
C3038 C3034 1.531 . S
C3038 H3050 0.960 . S
C3038 H3051 0.962 . S
C3038 H3052 0.960 . S
C3039 C3036 1.511 . S
C3039 H3053 0.961 . S
C3039 H3054 0.961 . S
C3039 H3055 0.961 . S
C3040 C3041 1.370 . S
C3040 C3042 1.363 . S
C3040 H3056 0.931 . S
C3041 C3040 1.370 . S
C3041 C3045 1.408 . S
C3042 C3040 1.363 . S
C3042 C3043 1.370 . S
C3042 C3046 1.524 . S
C3043 C3035 1.503 . S
C3043 C3042 1.370 . S
C3043 C3044 1.403 . S
C3044 C3043 1.403 . S
C3044 C3045 1.404 . S
C3044 C3047 1.539 . S
C3045 C3041 1.408 . S
C3045 C3044 1.404 . S
C3045 H3057 0.930 . S
C3046 C3042 1.524 . S
C3046 H3058 0.956 . S
C3046 H3059 0.961 . S
C3046 H3060 0.961 . S
C3047 C3044 1.539 . S
C3047 H3061 0.958 . S
C3047 H3062 0.961 . S
C3047 H3063 0.960 . S
H3048 C3032 0.931 . S
H3049 C3037 0.929 . S
H3050 C3038 0.960 . S
H3051 C3038 0.962 . S
H3052 C3038 0.960 . S
H3053 C3039 0.961 . S
H3054 C3039 0.961 . S
H3055 C3039 0.961 . S
H3056 C3040 0.931 . S
H3057 C3045 0.930 . S
H3058 C3046 0.956 . S
H3059 C3046 0.961 . S
H3060 C3046 0.961 . S
H3061 C3047 0.958 . S
H3062 C3047 0.961 . S
H3063 C3047 0.960 . S
C3064 C3065 1.392 . S
C3064 C3066 1.392 1_545 S
C3064 H3080 0.931 . S
C3065 C3064 1.392 . S
C3065 C3069 1.376 1_545 S
C3066 C3064 1.392 1_565 S
C3066 C3067 1.369 . S
C3066 C3070 1.531 . S
C3067 C3066 1.369 . S
C3067 C3068 1.410 . S
C3067 C3075 1.503 . S
C3068 C3067 1.410 . S
C3068 C3069 1.392 . S
C3068 C3071 1.511 . S
C3069 C3065 1.376 1_565 S
C3069 C3068 1.392 . S
C3069 H3081 0.929 . S
C3070 C3066 1.531 . S
C3070 H3082 0.960 . S
C3070 H3083 0.935 1_565 S
C3070 H3084 0.960 . S
C3071 C3068 1.511 . S
C3071 H3085 0.961 . S
C3071 H3086 0.961 . S
C3071 H3087 0.961 . S
C3072 C3073 1.370 . S
C3072 C3074 1.363 . S
C3072 H3088 0.931 . S
C3073 C3072 1.370 . S
C3073 C3077 1.408 . S
C3074 C3072 1.363 . S
C3074 C3075 1.370 . S
C3074 C3078 1.524 1_565 S
C3075 C3067 1.503 . S
C3075 C3074 1.370 . S
C3075 C3076 1.403 . S
C3076 C3075 1.403 . S
C3076 C3077 1.404 . S
C3076 C3079 1.539 . S
C3077 C3073 1.408 . S
C3077 C3076 1.404 . S
C3077 H3089 0.930 . S
C3078 C3074 1.524 1_545 S
C3078 H3090 0.956 . S
C3078 H3091 0.961 . S
C3078 H3092 0.961 . S
C3079 C3076 1.539 . S
C3079 H3093 0.958 . S
C3079 H3094 0.961 . S
C3079 H3095 0.960 . S
H3080 C3064 0.931 . S
H3081 C3069 0.929 . S
H3082 C3070 0.960 . S
H3083 C3070 0.935 1_545 S
H3084 C3070 0.960 . S
H3085 C3071 0.961 . S
H3086 C3071 0.961 . S
H3087 C3071 0.961 . S
H3088 C3072 0.931 . S
H3089 C3077 0.930 . S
H3090 C3078 0.956 . S
H3091 C3078 0.961 . S
H3092 C3078 0.961 . S
H3093 C3079 0.958 . S
H3094 C3079 0.961 . S
H3095 C3079 0.960 . S
C3096 C3097 1.391 . S
C3096 C3098 1.394 . S
C3096 H3112 0.931 . S
C3097 C3096 1.391 . S
C3097 C3101 1.376 1_556 S
C3098 C3096 1.394 . S
C3098 C3099 1.369 . S
C3098 C3102 1.531 . S
C3099 C3098 1.369 . S
C3099 C3100 1.410 1_556 S
C3099 C3107 1.503 1_566 S
C3100 C3099 1.410 1_554 S
C3100 C3101 1.392 . S
C3100 C3103 1.511 1_565 S
C3101 C3097 1.376 1_554 S
C3101 C3100 1.392 . S
C3101 H3113 0.929 . S
C3102 C3098 1.531 . S
C3102 H3114 0.960 . S
C3102 H3115 0.994 . S
C3102 H3116 0.960 . S
C3103 C3100 1.511 1_545 S
C3103 H3117 0.961 . S
C3103 H3118 0.961 . S
C3103 H3119 0.961 1_554 S
C3104 C3105 1.370 . S
C3104 C3106 1.363 . S
C3104 H3120 0.931 . S
C3105 C3104 1.370 . S
C3105 C3109 1.408 1_554 S
C3106 C3104 1.363 . S
C3106 C3107 1.370 . S
C3106 C3110 1.524 1_545 S
C3107 C3099 1.503 1_544 S
C3107 C3106 1.370 . S
C3107 C3108 1.403 1_554 S
C3108 C3107 1.403 1_556 S
C3108 C3109 1.404 . S
C3108 C3111 1.539 . S
C3109 C3105 1.408 1_556 S
C3109 C3108 1.404 . S
C3109 H3121 0.930 . S
C3110 C3106 1.524 1_565 S
C3110 H3122 0.956 . S
C3110 H3123 0.961 . S
C3110 H3124 0.961 . S
C3111 C3108 1.539 . S
C3111 H3125 0.958 . S
C3111 H3126 0.961 . S
C3111 H3127 0.960 . S
H3112 C3096 0.931 . S
H3113 C3101 0.929 . S
H3114 C3102 0.960 . S
H3115 C3102 0.994 . S
H3116 C3102 0.960 . S
H3117 C3103 0.961 . S
H3118 C3103 0.961 . S
H3119 C3103 0.961 1_556 S
H3120 C3104 0.931 . S
H3121 C3109 0.930 . S
H3122 C3110 0.956 . S
H3123 C3110 0.961 . S
H3124 C3110 0.961 . S
H3125 C3111 0.958 . S
H3126 C3111 0.961 . S
H3127 C3111 0.960 . S
C3128 C3129 1.391 . S
C3128 C3130 1.394 . S
C3128 H3144 0.931 . S
C3129 C3128 1.391 . S
C3129 C3133 1.376 . S
C3130 C3128 1.394 . S
C3130 C3131 1.369 . S
C3130 C3134 1.531 . S
C3131 C3130 1.369 . S
C3131 C3132 1.410 . S
C3131 C3139 1.503 . S
C3132 C3131 1.410 . S
C3132 C3133 1.392 . S
C3132 C3135 1.511 . S
C3133 C3129 1.376 . S
C3133 C3132 1.392 . S
C3133 H3145 0.929 . S
C3134 C3130 1.531 . S
C3134 H3146 0.960 . S
C3134 H3147 0.962 . S
C3134 H3148 0.960 . S
C3135 C3132 1.511 . S
C3135 H3149 0.961 . S
C3135 H3150 0.961 . S
C3135 H3151 0.961 . S
C3136 C3137 1.370 . S
C3136 C3138 1.363 . S
C3136 H3152 0.931 . S
C3137 C3136 1.370 . S
C3137 C3141 1.408 . S
C3138 C3136 1.363 . S
C3138 C3139 1.370 . S
C3138 C3142 1.524 . S
C3139 C3131 1.503 . S
C3139 C3138 1.370 . S
C3139 C3140 1.403 . S
C3140 C3139 1.403 . S
C3140 C3141 1.404 . S
C3140 C3143 1.539 . S
C3141 C3137 1.408 . S
C3141 C3140 1.404 . S
C3141 H3153 0.930 . S
C3142 C3138 1.524 . S
C3142 H3154 0.956 . S
C3142 H3155 0.961 . S
C3142 H3156 0.961 . S
C3143 C3140 1.539 . S
C3143 H3157 0.958 . S
C3143 H3158 0.961 . S
C3143 H3159 0.960 . S
H3144 C3128 0.931 . S
H3145 C3133 0.929 . S
H3146 C3134 0.960 . S
H3147 C3134 0.962 . S
H3148 C3134 0.960 . S
H3149 C3135 0.961 . S
H3150 C3135 0.961 . S
H3151 C3135 0.961 . S
H3152 C3136 0.931 . S
H3153 C3141 0.930 . S
H3154 C3142 0.956 . S
H3155 C3142 0.961 . S
H3156 C3142 0.961 . S
H3157 C3143 0.958 . S
H3158 C3143 0.961 . S
H3159 C3143 0.960 . S
C3160 C3161 1.391 . S
C3160 C3162 1.394 . S
C3160 H3176 0.931 . S
C3161 C3160 1.391 . S
C3161 C3165 1.376 . S
C3162 C3160 1.394 . S
C3162 C3163 1.369 . S
C3162 C3166 1.531 . S
C3163 C3162 1.369 . S
C3163 C3164 1.410 . S
C3163 C3171 1.503 . S
C3164 C3163 1.410 . S
C3164 C3165 1.392 . S
C3164 C3167 1.511 . S
C3165 C3161 1.376 . S
C3165 C3164 1.392 . S
C3165 H3177 0.929 . S
C3166 C3162 1.531 . S
C3166 H3178 0.960 . S
C3166 H3179 0.962 . S
C3166 H3180 0.960 . S
C3167 C3164 1.511 . S
C3167 H3181 0.979 . S
C3167 H3182 0.961 . S
C3167 H3183 0.961 . S
C3168 C3169 1.370 . S
C3168 C3170 1.363 . S
C3168 H3184 0.931 . S
C3169 C3168 1.370 . S
C3169 C3173 1.408 . S
C3170 C3168 1.363 . S
C3170 C3171 1.370 . S
C3170 C3174 1.524 . S
C3171 C3163 1.503 . S
C3171 C3170 1.370 . S
C3171 C3172 1.403 . S
C3172 C3171 1.403 . S
C3172 C3173 1.404 . S
C3172 C3175 1.539 . S
C3173 C3169 1.408 . S
C3173 C3172 1.404 . S
C3173 H3185 0.930 . S
C3174 C3170 1.524 . S
C3174 H3186 0.956 . S
C3174 H3187 0.961 . S
C3174 H3188 0.961 . S
C3175 C3172 1.539 . S
C3175 H3189 0.958 . S
C3175 H3190 0.961 . S
C3175 H3191 0.960 . S
H3176 C3160 0.931 . S
H3177 C3165 0.929 . S
H3178 C3166 0.960 . S
H3179 C3166 0.962 . S
H3180 C3166 0.960 . S
H3181 C3167 0.979 . S
H3182 C3167 0.961 . S
H3183 C3167 0.961 . S
H3184 C3168 0.931 . S
H3185 C3173 0.930 . S
H3186 C3174 0.956 . S
H3187 C3174 0.961 . S
H3188 C3174 0.961 . S
H3189 C3175 0.958 . S
H3190 C3175 0.961 . S
H3191 C3175 0.960 . S
C3192 C3193 1.391 . S
C3192 C3194 1.394 . S
C3192 H3208 0.931 . S
C3193 C3192 1.391 . S
C3193 C3197 1.376 . S
C3194 C3192 1.394 . S
C3194 C3195 1.369 . S
C3194 C3198 1.531 . S
C3195 C3194 1.369 . S
C3195 C3196 1.410 . S
C3195 C3203 1.503 . S
C3196 C3195 1.410 . S
C3196 C3197 1.392 . S
C3196 C3199 1.511 . S
C3197 C3193 1.376 . S
C3197 C3196 1.392 . S
C3197 H3209 0.929 . S
C3198 C3194 1.531 . S
C3198 H3210 0.960 . S
C3198 H3211 0.962 . S
C3198 H3212 0.960 . S
C3199 C3196 1.511 . S
C3199 H3213 0.961 . S
C3199 H3214 0.961 . S
C3199 H3215 0.961 . S
C3200 C3201 1.370 . S
C3200 C3202 1.363 . S
C3200 H3216 0.931 . S
C3201 C3200 1.370 . S
C3201 C3205 1.408 . S
C3202 C3200 1.363 . S
C3202 C3203 1.370 . S
C3202 C3206 1.524 . S
C3203 C3195 1.503 . S
C3203 C3202 1.370 . S
C3203 C3204 1.403 . S
C3204 C3203 1.403 . S
C3204 C3205 1.404 . S
C3204 C3207 1.539 . S
C3205 C3201 1.408 . S
C3205 C3204 1.404 . S
C3205 H3217 0.930 . S
C3206 C3202 1.524 . S
C3206 H3218 0.956 . S
C3206 H3219 0.961 . S
C3206 H3220 0.961 . S
C3207 C3204 1.539 . S
C3207 H3221 0.958 . S
C3207 H3222 0.961 . S
C3207 H3223 0.960 . S
H3208 C3192 0.931 . S
H3209 C3197 0.929 . S
H3210 C3198 0.960 . S
H3211 C3198 0.962 . S
H3212 C3198 0.960 . S
H3213 C3199 0.961 . S
H3214 C3199 0.961 . S
H3215 C3199 0.961 . S
H3216 C3200 0.931 . S
H3217 C3205 0.930 . S
H3218 C3206 0.956 . S
H3219 C3206 0.961 . S
H3220 C3206 0.961 . S
H3221 C3207 0.958 . S
H3222 C3207 0.961 . S
H3223 C3207 0.960 . S
C3224 C3225 1.391 . S
C3224 C3226 1.394 . S
C3224 H3240 0.931 . S
C3225 C3224 1.391 . S
C3225 C3229 1.376 . S
C3226 C3224 1.394 . S
C3226 C3227 1.369 . S
C3226 C3230 1.531 . S
C3227 C3226 1.369 . S
C3227 C3228 1.410 . S
C3227 C3235 1.503 . S
C3228 C3227 1.410 . S
C3228 C3229 1.392 . S
C3228 C3231 1.511 . S
C3229 C3225 1.376 . S
C3229 C3228 1.392 . S
C3229 H3241 0.929 . S
C3230 C3226 1.531 . S
C3230 H3242 0.960 . S
C3230 H3243 0.962 . S
C3230 H3244 0.960 . S
C3231 C3228 1.511 . S
C3231 H3245 0.961 . S
C3231 H3246 0.961 . S
C3231 H3247 0.961 . S
C3232 C3233 1.370 . S
C3232 C3234 1.363 . S
C3232 H3248 0.931 . S
C3233 C3232 1.370 . S
C3233 C3237 1.408 . S
C3234 C3232 1.363 . S
C3234 C3235 1.370 . S
C3234 C3238 1.524 . S
C3235 C3227 1.503 . S
C3235 C3234 1.370 . S
C3235 C3236 1.403 . S
C3236 C3235 1.403 . S
C3236 C3237 1.404 . S
C3236 C3239 1.539 . S
C3237 C3233 1.408 . S
C3237 C3236 1.404 . S
C3237 H3249 0.930 . S
C3238 C3234 1.524 . S
C3238 H3250 0.956 . S
C3238 H3251 0.961 . S
C3238 H3252 0.961 . S
C3239 C3236 1.539 . S
C3239 H3253 0.958 . S
C3239 H3254 0.961 . S
C3239 H3255 0.960 . S
H3240 C3224 0.931 . S
H3241 C3229 0.929 . S
H3242 C3230 0.960 . S
H3243 C3230 0.962 . S
H3244 C3230 0.960 . S
H3245 C3231 0.961 . S
H3246 C3231 0.961 . S
H3247 C3231 0.961 . S
H3248 C3232 0.931 . S
H3249 C3237 0.930 . S
H3250 C3238 0.956 . S
H3251 C3238 0.961 . S
H3252 C3238 0.961 . S
H3253 C3239 0.958 . S
H3254 C3239 0.961 . S
H3255 C3239 0.960 . S
C3256 C3257 1.391 . S
C3256 C3258 1.394 . S
C3256 H3272 0.931 . S
C3257 C3256 1.391 . S
C3257 C3261 1.376 . S
C3258 C3256 1.394 . S
C3258 C3259 1.369 . S
C3258 C3262 1.531 . S
C3259 C3258 1.369 . S
C3259 C3260 1.410 . S
C3259 C3267 1.503 . S
C3260 C3259 1.410 . S
C3260 C3261 1.392 . S
C3260 C3263 1.511 . S
C3261 C3257 1.376 . S
C3261 C3260 1.392 . S
C3261 H3273 0.929 . S
C3262 C3258 1.531 . S
C3262 H3274 0.960 . S
C3262 H3275 0.962 . S
C3262 H3276 0.960 . S
C3263 C3260 1.511 . S
C3263 H3277 0.961 . S
C3263 H3278 0.961 . S
C3263 H3279 0.961 . S
C3264 C3265 1.370 . S
C3264 C3266 1.363 . S
C3264 H3280 0.931 . S
C3265 C3264 1.370 . S
C3265 C3269 1.408 . S
C3266 C3264 1.363 . S
C3266 C3267 1.370 . S
C3266 C3270 1.524 . S
C3267 C3259 1.503 . S
C3267 C3266 1.370 . S
C3267 C3268 1.403 . S
C3268 C3267 1.403 . S
C3268 C3269 1.404 . S
C3268 C3271 1.539 . S
C3269 C3265 1.408 . S
C3269 C3268 1.404 . S
C3269 H3281 0.930 . S
C3270 C3266 1.524 . S
C3270 H3282 0.956 . S
C3270 H3283 0.961 . S
C3270 H3284 0.961 . S
C3271 C3268 1.539 . S
C3271 H3285 0.958 . S
C3271 H3286 0.961 . S
C3271 H3287 0.960 . S
H3272 C3256 0.931 . S
H3273 C3261 0.929 . S
H3274 C3262 0.960 . S
H3275 C3262 0.962 . S
H3276 C3262 0.960 . S
H3277 C3263 0.961 . S
H3278 C3263 0.961 . S
H3279 C3263 0.961 . S
H3280 C3264 0.931 . S
H3281 C3269 0.930 . S
H3282 C3270 0.956 . S
H3283 C3270 0.961 . S
H3284 C3270 0.961 . S
H3285 C3271 0.958 . S
H3286 C3271 0.961 . S
H3287 C3271 0.960 . S
C3288 C3289 1.391 . S
C3288 C3290 1.394 . S
C3288 H3304 0.931 . S
C3289 C3288 1.391 . S
C3289 C3293 1.376 . S
C3290 C3288 1.394 . S
C3290 C3291 1.369 . S
C3290 C3294 1.531 . S
C3291 C3290 1.369 . S
C3291 C3292 1.410 . S
C3291 C3299 1.503 . S
C3292 C3291 1.410 . S
C3292 C3293 1.392 . S
C3292 C3295 1.511 . S
C3293 C3289 1.376 . S
C3293 C3292 1.392 . S
C3293 H3305 0.929 . S
C3294 C3290 1.531 . S
C3294 H3306 0.960 . S
C3294 H3307 0.962 . S
C3294 H3308 0.960 . S
C3295 C3292 1.511 . S
C3295 H3309 0.961 . S
C3295 H3310 0.961 . S
C3295 H3311 0.961 . S
C3296 C3297 1.370 . S
C3296 C3298 1.363 . S
C3296 H3312 0.931 . S
C3297 C3296 1.370 . S
C3297 C3301 1.408 . S
C3298 C3296 1.363 . S
C3298 C3299 1.370 . S
C3298 C3302 1.524 . S
C3299 C3291 1.503 . S
C3299 C3298 1.370 . S
C3299 C3300 1.403 . S
C3300 C3299 1.403 . S
C3300 C3301 1.404 . S
C3300 C3303 1.539 . S
C3301 C3297 1.408 . S
C3301 C3300 1.404 . S
C3301 H3313 0.930 . S
C3302 C3298 1.524 . S
C3302 H3314 0.956 . S
C3302 H3315 0.961 . S
C3302 H3316 0.961 . S
C3303 C3300 1.539 . S
C3303 H3317 0.958 . S
C3303 H3318 0.961 . S
C3303 H3319 0.960 . S
H3304 C3288 0.931 . S
H3305 C3293 0.929 . S
H3306 C3294 0.960 . S
H3307 C3294 0.962 . S
H3308 C3294 0.960 . S
H3309 C3295 0.961 . S
H3310 C3295 0.961 . S
H3311 C3295 0.961 . S
H3312 C3296 0.931 . S
H3313 C3301 0.930 . S
H3314 C3302 0.956 . S
H3315 C3302 0.961 . S
H3316 C3302 0.961 . S
H3317 C3303 0.958 . S
H3318 C3303 0.961 . S
H3319 C3303 0.960 . S
C3320 C3321 1.391 . S
C3320 C3322 1.394 . S
C3320 H3336 0.931 . S
C3321 C3320 1.391 . S
C3321 C3325 1.376 . S
C3322 C3320 1.394 . S
C3322 C3323 1.369 . S
C3322 C3326 1.531 . S
C3323 C3322 1.369 . S
C3323 C3324 1.410 . S
C3323 C3331 1.503 . S
C3324 C3323 1.410 . S
C3324 C3325 1.392 . S
C3324 C3327 1.511 . S
C3325 C3321 1.376 . S
C3325 C3324 1.392 . S
C3325 H3337 0.929 . S
C3326 C3322 1.531 . S
C3326 H3338 0.960 . S
C3326 H3339 0.962 . S
C3326 H3340 0.960 . S
C3327 C3324 1.511 . S
C3327 H3341 0.961 . S
C3327 H3342 0.961 . S
C3327 H3343 0.961 . S
C3328 C3329 1.370 . S
C3328 C3330 1.363 . S
C3328 H3344 0.931 . S
C3329 C3328 1.370 . S
C3329 C3333 1.408 . S
C3330 C3328 1.363 . S
C3330 C3331 1.370 . S
C3330 C3334 1.524 . S
C3331 C3323 1.503 . S
C3331 C3330 1.370 . S
C3331 C3332 1.403 . S
C3332 C3331 1.403 . S
C3332 C3333 1.404 . S
C3332 C3335 1.539 . S
C3333 C3329 1.408 . S
C3333 C3332 1.404 . S
C3333 H3345 0.930 . S
C3334 C3330 1.524 . S
C3334 H3346 0.956 . S
C3334 H3347 0.961 . S
C3334 H3348 0.961 . S
C3335 C3332 1.539 . S
C3335 H3349 0.958 . S
C3335 H3350 0.961 . S
C3335 H3351 0.960 . S
H3336 C3320 0.931 . S
H3337 C3325 0.929 . S
H3338 C3326 0.960 . S
H3339 C3326 0.962 . S
H3340 C3326 0.960 . S
H3341 C3327 0.961 . S
H3342 C3327 0.961 . S
H3343 C3327 0.961 . S
H3344 C3328 0.931 . S
H3345 C3333 0.930 . S
H3346 C3334 0.956 . S
H3347 C3334 0.961 . S
H3348 C3334 0.961 . S
H3349 C3335 0.958 . S
H3350 C3335 0.961 . S
H3351 C3335 0.960 . S
C3352 C3353 1.391 . S
C3352 C3354 1.394 . S
C3352 H3368 0.931 . S
C3353 C3352 1.391 . S
C3353 C3357 1.376 . S
C3354 C3352 1.394 . S
C3354 C3355 1.369 . S
C3354 C3358 1.531 . S
C3355 C3354 1.369 . S
C3355 C3356 1.410 . S
C3355 C3363 1.503 . S
C3356 C3355 1.410 . S
C3356 C3357 1.392 . S
C3356 C3359 1.511 . S
C3357 C3353 1.376 . S
C3357 C3356 1.392 . S
C3357 H3369 0.929 . S
C3358 C3354 1.531 . S
C3358 H3370 0.960 . S
C3358 H3371 0.962 . S
C3358 H3372 0.960 . S
C3359 C3356 1.511 . S
C3359 H3373 0.961 . S
C3359 H3374 0.961 . S
C3359 H3375 0.961 . S
C3360 C3361 1.370 . S
C3360 C3362 1.363 . S
C3360 H3376 0.931 . S
C3361 C3360 1.370 . S
C3361 C3365 1.408 . S
C3362 C3360 1.363 . S
C3362 C3363 1.370 . S
C3362 C3366 1.524 . S
C3363 C3355 1.503 . S
C3363 C3362 1.370 . S
C3363 C3364 1.403 . S
C3364 C3363 1.403 . S
C3364 C3365 1.404 . S
C3364 C3367 1.539 . S
C3365 C3361 1.408 . S
C3365 C3364 1.404 . S
C3365 H3377 0.930 . S
C3366 C3362 1.524 . S
C3366 H3378 0.956 . S
C3366 H3379 0.961 . S
C3366 H3380 0.961 . S
C3367 C3364 1.539 . S
C3367 H3381 0.958 . S
C3367 H3382 0.961 . S
C3367 H3383 0.960 . S
H3368 C3352 0.931 . S
H3369 C3357 0.929 . S
H3370 C3358 0.960 . S
H3371 C3358 0.962 . S
H3372 C3358 0.960 . S
H3373 C3359 0.961 . S
H3374 C3359 0.961 . S
H3375 C3359 0.961 . S
H3376 C3360 0.931 . S
H3377 C3365 0.930 . S
H3378 C3366 0.956 . S
H3379 C3366 0.961 . S
H3380 C3366 0.961 . S
H3381 C3367 0.958 . S
H3382 C3367 0.961 . S
H3383 C3367 0.960 . S
C3384 C3385 1.391 . S
C3384 C3386 1.394 . S
C3384 H3400 0.931 . S
C3385 C3384 1.391 . S
C3385 C3389 1.376 . S
C3386 C3384 1.394 . S
C3386 C3387 1.369 . S
C3386 C3390 1.531 . S
C3387 C3386 1.369 . S
C3387 C3388 1.410 . S
C3387 C3395 1.503 . S
C3388 C3387 1.410 . S
C3388 C3389 1.392 . S
C3388 C3391 1.511 . S
C3389 C3385 1.376 . S
C3389 C3388 1.392 . S
C3389 H3401 0.929 . S
C3390 C3386 1.531 . S
C3390 H3402 0.960 . S
C3390 H3403 0.962 . S
C3390 H3404 0.960 . S
C3391 C3388 1.511 . S
C3391 H3405 0.961 . S
C3391 H3406 0.961 . S
C3391 H3407 0.961 . S
C3392 C3393 1.370 . S
C3392 C3394 1.363 . S
C3392 H3408 0.931 . S
C3393 C3392 1.370 . S
C3393 C3397 1.408 . S
C3394 C3392 1.363 . S
C3394 C3395 1.370 . S
C3394 C3398 1.524 . S
C3395 C3387 1.503 . S
C3395 C3394 1.370 . S
C3395 C3396 1.403 . S
C3396 C3395 1.403 . S
C3396 C3397 1.404 . S
C3396 C3399 1.539 . S
C3397 C3393 1.408 . S
C3397 C3396 1.404 . S
C3397 H3409 0.930 1_556 S
C3398 C3394 1.524 . S
C3398 H3410 0.956 . S
C3398 H3411 0.961 . S
C3398 H3412 0.961 . S
C3399 C3396 1.539 . S
C3399 H3413 0.957 . S
C3399 H3414 0.961 1_556 S
C3399 H3415 0.960 . S
H3400 C3384 0.931 . S
H3401 C3389 0.929 . S
H3402 C3390 0.960 . S
H3403 C3390 0.962 . S
H3404 C3390 0.960 . S
H3405 C3391 0.961 . S
H3406 C3391 0.961 . S
H3407 C3391 0.961 . S
H3408 C3392 0.931 . S
H3409 C3397 0.930 1_554 S
H3410 C3398 0.956 . S
H3411 C3398 0.961 . S
H3412 C3398 0.961 . S
H3413 C3399 0.957 . S
H3414 C3399 0.961 1_554 S
H3415 C3399 0.960 . S
C3416 C3417 1.391 . S
C3416 C3418 1.394 . S
C3416 H3432 0.931 . S
C3417 C3416 1.391 . S
C3417 C3421 1.376 . S
C3418 C3416 1.394 . S
C3418 C3419 1.369 . S
C3418 C3422 1.531 . S
C3419 C3418 1.369 . S
C3419 C3420 1.410 . S
C3419 C3427 1.503 . S
C3420 C3419 1.410 . S
C3420 C3421 1.392 . S
C3420 C3423 1.511 . S
C3421 C3417 1.376 . S
C3421 C3420 1.392 . S
C3421 H3433 0.929 . S
C3422 C3418 1.531 . S
C3422 H3434 0.960 . S
C3422 H3435 0.962 . S
C3422 H3436 0.960 . S
C3423 C3420 1.511 . S
C3423 H3437 0.961 . S
C3423 H3438 0.961 . S
C3423 H3439 0.961 . S
C3424 C3425 1.370 . S
C3424 C3426 1.363 . S
C3424 H3440 0.931 . S
C3425 C3424 1.370 . S
C3425 C3429 1.408 . S
C3426 C3424 1.363 . S
C3426 C3427 1.370 . S
C3426 C3430 1.524 . S
C3427 C3419 1.503 . S
C3427 C3426 1.370 . S
C3427 C3428 1.403 . S
C3428 C3427 1.403 . S
C3428 C3429 1.404 . S
C3428 C3431 1.539 . S
C3429 C3425 1.408 . S
C3429 C3428 1.404 . S
C3429 H3441 0.930 . S
C3430 C3426 1.524 . S
C3430 H3442 0.956 . S
C3430 H3443 0.961 . S
C3430 H3444 0.961 . S
C3431 C3428 1.539 . S
C3431 H3445 0.958 . S
C3431 H3446 0.961 . S
C3431 H3447 0.960 . S
H3432 C3416 0.931 . S
H3433 C3421 0.929 . S
H3434 C3422 0.960 . S
H3435 C3422 0.962 . S
H3436 C3422 0.960 . S
H3437 C3423 0.961 . S
H3438 C3423 0.961 . S
H3439 C3423 0.961 . S
H3440 C3424 0.931 . S
H3441 C3429 0.930 . S
H3442 C3430 0.956 . S
H3443 C3430 0.961 . S
H3444 C3430 0.961 . S
H3445 C3431 0.958 . S
H3446 C3431 0.961 . S
H3447 C3431 0.960 . S
C3448 C3449 1.391 . S
C3448 C3450 1.394 . S
C3448 H3464 0.931 . S
C3449 C3448 1.391 . S
C3449 C3453 1.376 . S
C3450 C3448 1.394 . S
C3450 C3451 1.369 . S
C3450 C3454 1.531 . S
C3451 C3450 1.369 . S
C3451 C3452 1.410 . S
C3451 C3459 1.503 . S
C3452 C3451 1.410 . S
C3452 C3453 1.392 . S
C3452 C3455 1.511 . S
C3453 C3449 1.376 . S
C3453 C3452 1.392 . S
C3453 H3465 0.929 . S
C3454 C3450 1.531 . S
C3454 H3466 0.960 . S
C3454 H3467 0.962 1_455 S
C3454 H3468 0.969 . S
C3455 C3452 1.511 . S
C3455 H3469 0.961 . S
C3455 H3470 0.961 . S
C3455 H3471 0.961 . S
C3456 C3457 1.370 . S
C3456 C3458 1.363 . S
C3456 H3472 0.931 . S
C3457 C3456 1.370 . S
C3457 C3461 1.408 . S
C3458 C3456 1.363 . S
C3458 C3459 1.370 . S
C3458 C3462 1.524 . S
C3459 C3451 1.503 . S
C3459 C3458 1.370 . S
C3459 C3460 1.403 . S
C3460 C3459 1.403 . S
C3460 C3461 1.404 . S
C3460 C3463 1.539 . S
C3461 C3457 1.408 . S
C3461 C3460 1.404 . S
C3461 H3473 0.930 . S
C3462 C3458 1.524 . S
C3462 H3474 0.956 . S
C3462 H3475 0.961 . S
C3462 H3476 0.961 . S
C3463 C3460 1.539 . S
C3463 H3477 0.958 . S
C3463 H3478 0.961 . S
C3463 H3479 0.960 . S
H3464 C3448 0.931 . S
H3465 C3453 0.929 . S
H3466 C3454 0.960 . S
H3467 C3454 0.962 1_655 S
H3468 C3454 0.969 . S
H3469 C3455 0.961 . S
H3470 C3455 0.961 . S
H3471 C3455 0.961 . S
H3472 C3456 0.931 . S
H3473 C3461 0.930 . S
H3474 C3462 0.956 . S
H3475 C3462 0.961 . S
H3476 C3462 0.961 . S
H3477 C3463 0.958 . S
H3478 C3463 0.961 . S
H3479 C3463 0.960 . S
C3480 C3481 1.391 . S
C3480 C3482 1.394 . S
C3480 H3496 0.931 . S
C3481 C3480 1.391 . S
C3481 C3485 1.376 . S
C3482 C3480 1.394 . S
C3482 C3483 1.369 . S
C3482 C3486 1.531 . S
C3483 C3482 1.369 . S
C3483 C3484 1.410 . S
C3483 C3491 1.503 . S
C3484 C3483 1.410 . S
C3484 C3485 1.392 . S
C3484 C3487 1.511 . S
C3485 C3481 1.376 . S
C3485 C3484 1.392 . S
C3485 H3497 0.929 . S
C3486 C3482 1.531 . S
C3486 H3498 0.960 . S
C3486 H3499 0.962 . S
C3486 H3500 0.960 . S
C3487 C3484 1.511 . S
C3487 H3501 0.961 . S
C3487 H3502 0.961 . S
C3487 H3503 0.961 . S
C3488 C3489 1.370 . S
C3488 C3490 1.363 . S
C3488 H3504 0.931 . S
C3489 C3488 1.370 . S
C3489 C3493 1.408 . S
C3490 C3488 1.363 . S
C3490 C3491 1.370 . S
C3490 C3494 1.524 . S
C3491 C3483 1.503 . S
C3491 C3490 1.370 . S
C3491 C3492 1.403 . S
C3492 C3491 1.403 . S
C3492 C3493 1.404 . S
C3492 C3495 1.539 . S
C3493 C3489 1.408 . S
C3493 C3492 1.404 . S
C3493 H3505 0.930 . S
C3494 C3490 1.524 . S
C3494 H3506 0.956 . S
C3494 H3507 0.961 . S
C3494 H3508 0.961 . S
C3495 C3492 1.539 . S
C3495 H3509 0.958 . S
C3495 H3510 0.961 . S
C3495 H3511 0.960 . S
H3496 C3480 0.931 . S
H3497 C3485 0.929 . S
H3498 C3486 0.960 . S
H3499 C3486 0.962 . S
H3500 C3486 0.960 . S
H3501 C3487 0.961 . S
H3502 C3487 0.961 . S
H3503 C3487 0.961 . S
H3504 C3488 0.931 . S
H3505 C3493 0.930 . S
H3506 C3494 0.956 . S
H3507 C3494 0.961 . S
H3508 C3494 0.961 . S
H3509 C3495 0.958 . S
H3510 C3495 0.961 . S
H3511 C3495 0.960 . S
C3512 C3513 1.391 . S
C3512 C3514 1.394 . S
C3512 H3528 0.931 . S
C3513 C3512 1.391 . S
C3513 C3517 1.376 . S
C3514 C3512 1.394 . S
C3514 C3515 1.369 . S
C3514 C3518 1.531 . S
C3515 C3514 1.369 . S
C3515 C3516 1.410 . S
C3515 C3523 1.503 . S
C3516 C3515 1.410 . S
C3516 C3517 1.392 . S
C3516 C3519 1.511 . S
C3517 C3513 1.376 . S
C3517 C3516 1.392 . S
C3517 H3529 0.929 . S
C3518 C3514 1.531 . S
C3518 H3530 0.960 . S
C3518 H3531 0.962 . S
C3518 H3532 0.960 . S
C3519 C3516 1.511 . S
C3519 H3533 0.961 . S
C3519 H3534 0.961 . S
C3519 H3535 0.961 . S
C3520 C3521 1.370 . S
C3520 C3522 1.363 . S
C3520 H3536 0.931 . S
C3521 C3520 1.370 . S
C3521 C3525 1.408 . S
C3522 C3520 1.363 . S
C3522 C3523 1.370 . S
C3522 C3526 1.524 . S
C3523 C3515 1.503 . S
C3523 C3522 1.370 . S
C3523 C3524 1.403 . S
C3524 C3523 1.403 . S
C3524 C3525 1.404 . S
C3524 C3527 1.539 . S
C3525 C3521 1.408 . S
C3525 C3524 1.404 . S
C3525 H3537 0.930 . S
C3526 C3522 1.524 . S
C3526 H3538 0.956 . S
C3526 H3539 0.961 . S
C3526 H3540 0.961 . S
C3527 C3524 1.539 . S
C3527 H3541 0.958 . S
C3527 H3542 0.961 . S
C3527 H3543 0.960 . S
H3528 C3512 0.931 . S
H3529 C3517 0.929 . S
H3530 C3518 0.960 . S
H3531 C3518 0.962 . S
H3532 C3518 0.960 . S
H3533 C3519 0.961 . S
H3534 C3519 0.961 . S
H3535 C3519 0.961 . S
H3536 C3520 0.931 . S
H3537 C3525 0.930 . S
H3538 C3526 0.956 . S
H3539 C3526 0.961 . S
H3540 C3526 0.961 . S
H3541 C3527 0.958 . S
H3542 C3527 0.961 . S
H3543 C3527 0.960 . S
C3544 C3545 1.391 . S
C3544 C3546 1.394 . S
C3544 H3560 0.931 . S
C3545 C3544 1.391 . S
C3545 C3549 1.376 . S
C3546 C3544 1.394 . S
C3546 C3547 1.369 . S
C3546 C3550 1.531 . S
C3547 C3546 1.369 . S
C3547 C3548 1.410 . S
C3547 C3555 1.503 . S
C3548 C3547 1.410 . S
C3548 C3549 1.392 . S
C3548 C3551 1.511 . S
C3549 C3545 1.376 . S
C3549 C3548 1.392 . S
C3549 H3561 0.929 . S
C3550 C3546 1.531 . S
C3550 H3562 0.960 . S
C3550 H3563 0.962 . S
C3550 H3564 0.960 . S
C3551 C3548 1.511 . S
C3551 H3565 0.961 . S
C3551 H3566 0.961 . S
C3551 H3567 0.961 . S
C3552 C3553 1.370 . S
C3552 C3554 1.363 . S
C3552 H3568 0.931 . S
C3553 C3552 1.370 . S
C3553 C3557 1.408 . S
C3554 C3552 1.363 . S
C3554 C3555 1.370 . S
C3554 C3558 1.524 . S
C3555 C3547 1.503 . S
C3555 C3554 1.370 . S
C3555 C3556 1.403 . S
C3556 C3555 1.403 . S
C3556 C3557 1.404 . S
C3556 C3559 1.539 . S
C3557 C3553 1.408 . S
C3557 C3556 1.404 . S
C3557 H3569 0.930 . S
C3558 C3554 1.524 . S
C3558 H3570 0.956 . S
C3558 H3571 0.961 . S
C3558 H3572 0.961 . S
C3559 C3556 1.539 . S
C3559 H3573 0.958 . S
C3559 H3574 0.961 . S
C3559 H3575 0.960 . S
H3560 C3544 0.931 . S
H3561 C3549 0.929 . S
H3562 C3550 0.960 . S
H3563 C3550 0.962 . S
H3564 C3550 0.960 . S
H3565 C3551 0.961 . S
H3566 C3551 0.961 . S
H3567 C3551 0.961 . S
H3568 C3552 0.931 . S
H3569 C3557 0.930 . S
H3570 C3558 0.956 . S
H3571 C3558 0.961 . S
H3572 C3558 0.961 . S
H3573 C3559 0.958 . S
H3574 C3559 0.961 . S
H3575 C3559 0.960 . S
C3576 C3577 1.391 . S
C3576 C3578 1.394 . S
C3576 H3592 0.931 . S
C3577 C3576 1.391 . S
C3577 C3581 1.376 . S
C3578 C3576 1.394 . S
C3578 C3579 1.369 . S
C3578 C3582 1.531 1_655 S
C3579 C3578 1.369 . S
C3579 C3580 1.410 . S
C3579 C3587 1.503 . S
C3580 C3579 1.410 . S
C3580 C3581 1.392 . S
C3580 C3583 1.511 . S
C3581 C3577 1.376 . S
C3581 C3580 1.392 . S
C3581 H3593 0.929 . S
C3582 C3578 1.531 1_455 S
C3582 H3594 0.960 . S
C3582 H3595 0.962 . S
C3582 H3596 0.960 . S
C3583 C3580 1.511 . S
C3583 H3597 0.961 . S
C3583 H3598 0.961 . S
C3583 H3599 0.961 . S
C3584 C3585 1.370 . S
C3584 C3586 1.363 . S
C3584 H3600 0.931 . S
C3585 C3584 1.370 . S
C3585 C3589 1.408 1_455 S
C3586 C3584 1.363 . S
C3586 C3587 1.370 1_455 S
C3586 C3590 1.524 . S
C3587 C3579 1.503 . S
C3587 C3586 1.370 1_655 S
C3587 C3588 1.403 . S
C3588 C3587 1.403 . S
C3588 C3589 1.404 . S
C3588 C3591 1.539 . S
C3589 C3585 1.408 1_655 S
C3589 C3588 1.404 . S
C3589 H3601 0.930 . S
C3590 C3586 1.524 . S
C3590 H3602 0.956 . S
C3590 H3603 0.961 1_455 S
C3590 H3604 0.961 . S
C3591 C3588 1.539 . S
C3591 H3605 0.958 . S
C3591 H3606 0.961 . S
C3591 H3607 0.960 . S
H3592 C3576 0.931 . S
H3593 C3581 0.929 . S
H3594 C3582 0.960 . S
H3595 C3582 0.962 . S
H3596 C3582 0.960 . S
H3597 C3583 0.961 . S
H3598 C3583 0.961 . S
H3599 C3583 0.961 . S
H3600 C3584 0.931 . S
H3601 C3589 0.930 . S
H3602 C3590 0.956 . S
H3603 C3590 0.961 1_655 S
H3604 C3590 0.961 . S
H3605 C3591 0.958 . S
H3606 C3591 0.961 . S
H3607 C3591 0.960 . S
C3608 C3609 1.391 . S
C3608 C3610 1.394 . S
C3608 H3624 0.931 . S
C3609 C3608 1.391 . S
C3609 C3613 1.376 . S
C3610 C3608 1.394 . S
C3610 C3611 1.369 . S
C3610 C3614 1.531 . S
C3611 C3610 1.369 . S
C3611 C3612 1.410 . S
C3611 C3619 1.503 . S
C3612 C3611 1.410 . S
C3612 C3613 1.392 . S
C3612 C3615 1.511 . S
C3613 C3609 1.376 . S
C3613 C3612 1.392 . S
C3613 H3625 0.929 . S
C3614 C3610 1.531 . S
C3614 H3626 0.960 . S
C3614 H3627 0.962 . S
C3614 H3628 0.960 . S
C3615 C3612 1.511 . S
C3615 H3629 0.961 . S
C3615 H3630 0.961 . S
C3615 H3631 0.961 . S
C3616 C3617 1.370 . S
C3616 C3618 1.363 . S
C3616 H3632 0.931 . S
C3617 C3616 1.370 . S
C3617 C3621 1.408 . S
C3618 C3616 1.363 . S
C3618 C3619 1.370 . S
C3618 C3622 1.524 . S
C3619 C3611 1.503 . S
C3619 C3618 1.370 . S
C3619 C3620 1.403 . S
C3620 C3619 1.403 . S
C3620 C3621 1.404 . S
C3620 C3623 1.539 . S
C3621 C3617 1.408 . S
C3621 C3620 1.404 . S
C3621 H3633 0.930 . S
C3622 C3618 1.524 . S
C3622 H3634 0.956 . S
C3622 H3635 0.961 . S
C3622 H3636 0.961 . S
C3623 C3620 1.539 . S
C3623 H3637 0.958 . S
C3623 H3638 0.961 . S
C3623 H3639 0.960 . S
H3624 C3608 0.931 . S
H3625 C3613 0.929 . S
H3626 C3614 0.960 . S
H3627 C3614 0.962 . S
H3628 C3614 0.960 . S
H3629 C3615 0.961 . S
H3630 C3615 0.961 . S
H3631 C3615 0.961 . S
H3632 C3616 0.931 . S
H3633 C3621 0.930 . S
H3634 C3622 0.956 . S
H3635 C3622 0.961 . S
H3636 C3622 0.961 . S
H3637 C3623 0.958 . S
H3638 C3623 0.961 . S
H3639 C3623 0.960 . S
C3640 C3641 1.391 . S
C3640 C3642 1.394 . S
C3640 H3656 0.931 . S
C3641 C3640 1.391 . S
C3641 C3645 1.376 . S
C3642 C3640 1.394 . S
C3642 C3643 1.369 . S
C3642 C3646 1.531 . S
C3643 C3642 1.369 . S
C3643 C3644 1.410 . S
C3643 C3651 1.503 . S
C3644 C3643 1.410 . S
C3644 C3645 1.392 . S
C3644 C3647 1.511 . S
C3645 C3641 1.376 . S
C3645 C3644 1.392 . S
C3645 H3657 0.929 . S
C3646 C3642 1.531 . S
C3646 H3658 0.960 . S
C3646 H3659 0.962 . S
C3646 H3660 0.960 . S
C3647 C3644 1.511 . S
C3647 H3661 0.961 . S
C3647 H3662 0.961 . S
C3647 H3663 0.961 . S
C3648 C3649 1.370 . S
C3648 C3650 1.363 . S
C3648 H3664 0.931 . S
C3649 C3648 1.370 . S
C3649 C3653 1.408 . S
C3650 C3648 1.363 . S
C3650 C3651 1.370 . S
C3650 C3654 1.524 . S
C3651 C3643 1.503 . S
C3651 C3650 1.370 . S
C3651 C3652 1.403 . S
C3652 C3651 1.403 . S
C3652 C3653 1.404 . S
C3652 C3655 1.539 . S
C3653 C3649 1.408 . S
C3653 C3652 1.404 . S
C3653 H3665 0.930 . S
C3654 C3650 1.524 . S
C3654 H3666 0.956 . S
C3654 H3667 0.961 . S
C3654 H3668 0.961 . S
C3655 C3652 1.539 . S
C3655 H3669 0.958 . S
C3655 H3670 0.961 . S
C3655 H3671 0.960 . S
H3656 C3640 0.931 . S
H3657 C3645 0.929 . S
H3658 C3646 0.960 . S
H3659 C3646 0.962 . S
H3660 C3646 0.960 . S
H3661 C3647 0.961 . S
H3662 C3647 0.961 . S
H3663 C3647 0.961 . S
H3664 C3648 0.931 . S
H3665 C3653 0.930 . S
H3666 C3654 0.956 . S
H3667 C3654 0.961 . S
H3668 C3654 0.961 . S
H3669 C3655 0.958 . S
H3670 C3655 0.961 . S
H3671 C3655 0.960 . S
C3672 C3673 1.391 . S
C3672 C3674 1.394 . S
C3672 H3688 0.931 . S
C3673 C3672 1.391 . S
C3673 C3677 1.376 . S
C3674 C3672 1.394 . S
C3674 C3675 1.369 . S
C3674 C3678 1.531 . S
C3675 C3674 1.369 . S
C3675 C3676 1.410 . S
C3675 C3683 1.503 . S
C3676 C3675 1.410 . S
C3676 C3677 1.392 . S
C3676 C3679 1.511 . S
C3677 C3673 1.376 . S
C3677 C3676 1.392 . S
C3677 H3689 0.929 . S
C3678 C3674 1.531 . S
C3678 H3690 0.960 . S
C3678 H3691 0.962 . S
C3678 H3692 0.960 . S
C3679 C3676 1.511 . S
C3679 H3693 0.961 . S
C3679 H3694 0.961 . S
C3679 H3695 0.961 . S
C3680 C3681 1.370 . S
C3680 C3682 1.363 . S
C3680 H3696 0.931 . S
C3681 C3680 1.370 . S
C3681 C3685 1.408 . S
C3682 C3680 1.363 . S
C3682 C3683 1.370 . S
C3682 C3686 1.524 . S
C3683 C3675 1.503 . S
C3683 C3682 1.370 . S
C3683 C3684 1.403 . S
C3684 C3683 1.403 . S
C3684 C3685 1.404 . S
C3684 C3687 1.539 . S
C3685 C3681 1.408 . S
C3685 C3684 1.404 . S
C3685 H3697 0.930 . S
C3686 C3682 1.524 . S
C3686 H3698 0.956 . S
C3686 H3699 0.961 . S
C3686 H3700 0.961 . S
C3687 C3684 1.539 . S
C3687 H3701 0.958 . S
C3687 H3702 0.961 . S
C3687 H3703 0.960 . S
H3688 C3672 0.931 . S
H3689 C3677 0.929 . S
H3690 C3678 0.960 . S
H3691 C3678 0.962 . S
H3692 C3678 0.960 . S
H3693 C3679 0.961 . S
H3694 C3679 0.961 . S
H3695 C3679 0.961 . S
H3696 C3680 0.931 . S
H3697 C3685 0.930 . S
H3698 C3686 0.956 . S
H3699 C3686 0.961 . S
H3700 C3686 0.961 . S
H3701 C3687 0.958 . S
H3702 C3687 0.961 . S
H3703 C3687 0.960 . S
C3704 C3705 1.391 . S
C3704 C3706 1.394 . S
C3704 H3720 0.931 . S
C3705 C3704 1.391 . S
C3705 C3709 1.376 . S
C3706 C3704 1.394 . S
C3706 C3707 1.369 . S
C3706 C3710 1.531 . S
C3707 C3706 1.369 . S
C3707 C3708 1.410 . S
C3707 C3715 1.503 . S
C3708 C3707 1.410 . S
C3708 C3709 1.392 . S
C3708 C3711 1.511 . S
C3709 C3705 1.376 . S
C3709 C3708 1.392 . S
C3709 H3721 0.929 . S
C3710 C3706 1.531 . S
C3710 H3722 0.960 . S
C3710 H3723 0.962 1_655 S
C3710 H3724 0.960 . S
C3711 C3708 1.511 . S
C3711 H3725 0.961 . S
C3711 H3726 0.961 . S
C3711 H3727 0.961 . S
C3712 C3713 1.370 1_455 S
C3712 C3714 1.363 1_455 S
C3712 H3728 0.931 . S
C3713 C3712 1.370 1_655 S
C3713 C3717 1.408 . S
C3714 C3712 1.363 1_655 S
C3714 C3715 1.370 . S
C3714 C3718 1.524 1_655 S
C3715 C3707 1.503 . S
C3715 C3714 1.370 . S
C3715 C3716 1.403 . S
C3716 C3715 1.403 . S
C3716 C3717 1.404 . S
C3716 C3719 1.539 . S
C3717 C3713 1.408 . S
C3717 C3716 1.404 . S
C3717 H3729 0.930 . S
C3718 C3714 1.524 1_455 S
C3718 H3730 0.956 . S
C3718 H3731 0.961 1_455 S
C3718 H3732 0.961 . S
C3719 C3716 1.539 . S
C3719 H3733 0.958 . S
C3719 H3734 0.961 . S
C3719 H3735 0.960 . S
H3720 C3704 0.931 . S
H3721 C3709 0.929 . S
H3722 C3710 0.960 . S
H3723 C3710 0.962 1_455 S
H3724 C3710 0.960 . S
H3725 C3711 0.961 . S
H3726 C3711 0.961 . S
H3727 C3711 0.961 . S
H3728 C3712 0.931 . S
H3729 C3717 0.930 . S
H3730 C3718 0.956 . S
H3731 C3718 0.961 1_655 S
H3732 C3718 0.961 . S
H3733 C3719 0.958 . S
H3734 C3719 0.961 . S
H3735 C3719 0.960 . S
C3736 C3737 1.391 . S
C3736 C3738 1.394 . S
C3736 H3752 0.931 . S
C3737 C3736 1.391 . S
C3737 C3741 1.376 . S
C3738 C3736 1.394 . S
C3738 C3739 1.369 . S
C3738 C3742 1.531 . S
C3739 C3738 1.369 . S
C3739 C3740 1.410 . S
C3739 C3747 1.503 . S
C3740 C3739 1.410 . S
C3740 C3741 1.392 . S
C3740 C3743 1.511 . S
C3741 C3737 1.376 . S
C3741 C3740 1.392 . S
C3741 H3753 0.929 . S
C3742 C3738 1.531 . S
C3742 H3754 0.960 . S
C3742 H3755 0.962 . S
C3742 H3756 0.960 . S
C3743 C3740 1.511 . S
C3743 H3757 0.961 . S
C3743 H3758 0.961 . S
C3743 H3759 0.961 . S
C3744 C3745 1.370 . S
C3744 C3746 1.363 . S
C3744 H3760 0.931 . S
C3745 C3744 1.370 . S
C3745 C3749 1.408 . S
C3746 C3744 1.363 . S
C3746 C3747 1.370 . S
C3746 C3750 1.524 . S
C3747 C3739 1.503 . S
C3747 C3746 1.370 . S
C3747 C3748 1.403 . S
C3748 C3747 1.403 . S
C3748 C3749 1.404 . S
C3748 C3751 1.539 . S
C3749 C3745 1.408 . S
C3749 C3748 1.404 . S
C3749 H3761 0.930 . S
C3750 C3746 1.524 . S
C3750 H3762 0.956 . S
C3750 H3763 0.961 . S
C3750 H3764 0.961 . S
C3751 C3748 1.539 . S
C3751 H3765 0.958 . S
C3751 H3766 0.961 . S
C3751 H3767 0.960 . S
H3752 C3736 0.931 . S
H3753 C3741 0.929 . S
H3754 C3742 0.960 . S
H3755 C3742 0.962 . S
H3756 C3742 0.960 . S
H3757 C3743 0.961 . S
H3758 C3743 0.961 . S
H3759 C3743 0.961 . S
H3760 C3744 0.931 . S
H3761 C3749 0.930 . S
H3762 C3750 0.956 . S
H3763 C3750 0.961 . S
H3764 C3750 0.961 . S
H3765 C3751 0.958 . S
H3766 C3751 0.961 . S
H3767 C3751 0.960 . S
C3768 C3769 1.391 . S
C3768 C3770 1.394 . S
C3768 H3784 0.931 . S
C3769 C3768 1.391 . S
C3769 C3773 1.376 . S
C3770 C3768 1.394 . S
C3770 C3771 1.369 . S
C3770 C3774 1.531 . S
C3771 C3770 1.369 . S
C3771 C3772 1.410 . S
C3771 C3779 1.503 . S
C3772 C3771 1.410 . S
C3772 C3773 1.392 . S
C3772 C3775 1.511 . S
C3773 C3769 1.376 . S
C3773 C3772 1.392 . S
C3773 H3785 0.929 . S
C3774 C3770 1.531 . S
C3774 H3786 0.960 . S
C3774 H3787 0.962 . S
C3774 H3788 0.960 . S
C3775 C3772 1.511 . S
C3775 H3789 0.961 . S
C3775 H3790 0.961 . S
C3775 H3791 0.961 . S
C3776 C3777 1.370 . S
C3776 C3778 1.363 . S
C3776 H3792 0.931 . S
C3777 C3776 1.370 . S
C3777 C3781 1.408 . S
C3778 C3776 1.363 . S
C3778 C3779 1.370 . S
C3778 C3782 1.524 . S
C3779 C3771 1.503 . S
C3779 C3778 1.370 . S
C3779 C3780 1.403 . S
C3780 C3779 1.403 . S
C3780 C3781 1.404 . S
C3780 C3783 1.539 . S
C3781 C3777 1.408 . S
C3781 C3780 1.404 . S
C3781 H3793 0.930 . S
C3782 C3778 1.524 . S
C3782 H3794 0.956 . S
C3782 H3795 0.961 . S
C3782 H3796 0.961 . S
C3783 C3780 1.539 . S
C3783 H3797 0.958 . S
C3783 H3798 0.961 . S
C3783 H3799 0.960 . S
H3784 C3768 0.931 . S
H3785 C3773 0.929 . S
H3786 C3774 0.960 . S
H3787 C3774 0.962 . S
H3788 C3774 0.960 . S
H3789 C3775 0.961 . S
H3790 C3775 0.961 . S
H3791 C3775 0.961 . S
H3792 C3776 0.931 . S
H3793 C3781 0.930 . S
H3794 C3782 0.956 . S
H3795 C3782 0.961 . S
H3796 C3782 0.961 . S
H3797 C3783 0.958 . S
H3798 C3783 0.961 . S
H3799 C3783 0.960 . S
C3800 C3801 1.391 . S
C3800 C3802 1.394 . S
C3800 H3816 0.931 . S
C3801 C3800 1.391 . S
C3801 C3805 1.376 . S
C3802 C3800 1.394 . S
C3802 C3803 1.369 . S
C3802 C3806 1.531 . S
C3803 C3802 1.369 . S
C3803 C3804 1.410 . S
C3803 C3811 1.503 . S
C3804 C3803 1.410 . S
C3804 C3805 1.392 . S
C3804 C3807 1.511 . S
C3805 C3801 1.376 . S
C3805 C3804 1.392 . S
C3805 H3817 0.929 . S
C3806 C3802 1.531 . S
C3806 H3818 0.960 . S
C3806 H3819 0.962 . S
C3806 H3820 0.960 . S
C3807 C3804 1.511 . S
C3807 H3821 0.961 . S
C3807 H3822 0.961 . S
C3807 H3823 0.961 . S
C3808 C3809 1.370 . S
C3808 C3810 1.363 . S
C3808 H3824 0.931 . S
C3809 C3808 1.370 . S
C3809 C3813 1.408 . S
C3810 C3808 1.363 . S
C3810 C3811 1.370 . S
C3810 C3814 1.524 . S
C3811 C3803 1.503 . S
C3811 C3810 1.370 . S
C3811 C3812 1.403 . S
C3812 C3811 1.403 . S
C3812 C3813 1.404 . S
C3812 C3815 1.539 . S
C3813 C3809 1.408 . S
C3813 C3812 1.404 . S
C3813 H3825 0.930 1_565 S
C3814 C3810 1.524 . S
C3814 H3826 0.956 . S
C3814 H3827 0.961 . S
C3814 H3828 0.961 . S
C3815 C3812 1.539 . S
C3815 H3829 0.958 . S
C3815 H3830 0.961 . S
C3815 H3831 0.960 . S
H3816 C3800 0.931 . S
H3817 C3805 0.929 . S
H3818 C3806 0.960 . S
H3819 C3806 0.962 . S
H3820 C3806 0.960 . S
H3821 C3807 0.961 . S
H3822 C3807 0.961 . S
H3823 C3807 0.961 . S
H3824 C3808 0.931 . S
H3825 C3813 0.930 1_545 S
H3826 C3814 0.956 . S
H3827 C3814 0.961 . S
H3828 C3814 0.961 . S
H3829 C3815 0.958 . S
H3830 C3815 0.961 . S
H3831 C3815 0.960 . S
C3832 C3833 1.391 . S
C3832 C3834 1.394 . S
C3832 H3848 0.931 . S
C3833 C3832 1.391 . S
C3833 C3837 1.376 . S
C3834 C3832 1.394 . S
C3834 C3835 1.369 . S
C3834 C3838 1.531 . S
C3835 C3834 1.369 . S
C3835 C3836 1.410 . S
C3835 C3843 1.503 . S
C3836 C3835 1.410 . S
C3836 C3837 1.392 . S
C3836 C3839 1.511 . S
C3837 C3833 1.376 . S
C3837 C3836 1.392 . S
C3837 H3849 0.929 . S
C3838 C3834 1.531 . S
C3838 H3850 0.960 . S
C3838 H3851 0.962 . S
C3838 H3852 0.960 . S
C3839 C3836 1.511 . S
C3839 H3853 0.961 . S
C3839 H3854 0.961 . S
C3839 H3855 0.961 . S
C3840 C3841 1.370 . S
C3840 C3842 1.363 . S
C3840 H3856 0.931 . S
C3841 C3840 1.370 . S
C3841 C3845 1.408 . S
C3842 C3840 1.363 . S
C3842 C3843 1.370 . S
C3842 C3846 1.524 . S
C3843 C3835 1.503 . S
C3843 C3842 1.370 . S
C3843 C3844 1.403 . S
C3844 C3843 1.403 . S
C3844 C3845 1.404 . S
C3844 C3847 1.539 . S
C3845 C3841 1.408 . S
C3845 C3844 1.404 . S
C3845 H3857 0.930 . S
C3846 C3842 1.524 . S
C3846 H3858 0.956 . S
C3846 H3859 0.961 . S
C3846 H3860 0.961 . S
C3847 C3844 1.539 . S
C3847 H3861 0.958 . S
C3847 H3862 0.961 . S
C3847 H3863 0.960 . S
H3848 C3832 0.931 . S
H3849 C3837 0.929 . S
H3850 C3838 0.960 . S
H3851 C3838 0.962 . S
H3852 C3838 0.960 . S
H3853 C3839 0.961 . S
H3854 C3839 0.961 . S
H3855 C3839 0.961 . S
H3856 C3840 0.931 . S
H3857 C3845 0.930 . S
H3858 C3846 0.956 . S
H3859 C3846 0.961 . S
H3860 C3846 0.961 . S
H3861 C3847 0.958 . S
H3862 C3847 0.961 . S
H3863 C3847 0.960 . S
C3864 C3865 1.391 . S
C3864 C3866 1.394 . S
C3864 H3880 0.931 . S
C3865 C3864 1.391 . S
C3865 C3869 1.376 . S
C3866 C3864 1.394 . S
C3866 C3867 1.369 . S
C3866 C3870 1.531 . S
C3867 C3866 1.369 . S
C3867 C3868 1.410 . S
C3867 C3875 1.503 . S
C3868 C3867 1.410 . S
C3868 C3869 1.392 . S
C3868 C3871 1.511 . S
C3869 C3865 1.376 . S
C3869 C3868 1.392 . S
C3869 H3881 0.929 . S
C3870 C3866 1.531 . S
C3870 H3882 0.960 . S
C3870 H3883 0.962 . S
C3870 H3884 0.960 . S
C3871 C3868 1.511 . S
C3871 H3885 0.961 . S
C3871 H3886 0.961 . S
C3871 H3887 0.961 . S
C3872 C3873 1.370 . S
C3872 C3874 1.363 . S
C3872 H3888 0.931 . S
C3873 C3872 1.370 . S
C3873 C3877 1.408 . S
C3874 C3872 1.363 . S
C3874 C3875 1.370 . S
C3874 C3878 1.524 . S
C3875 C3867 1.503 . S
C3875 C3874 1.370 . S
C3875 C3876 1.403 . S
C3876 C3875 1.403 . S
C3876 C3877 1.404 . S
C3876 C3879 1.539 1_554 S
C3877 C3873 1.408 . S
C3877 C3876 1.404 . S
C3877 H3889 0.918 1_554 S
C3878 C3874 1.524 . S
C3878 H3890 0.956 . S
C3878 H3891 0.961 . S
C3878 H3892 0.961 . S
C3879 C3876 1.539 1_556 S
C3879 H3893 0.958 . S
C3879 H3894 0.961 . S
C3879 H3895 0.959 1_556 S
H3880 C3864 0.931 . S
H3881 C3869 0.929 . S
H3882 C3870 0.960 . S
H3883 C3870 0.962 . S
H3884 C3870 0.960 . S
H3885 C3871 0.961 . S
H3886 C3871 0.961 . S
H3887 C3871 0.961 . S
H3888 C3872 0.931 . S
H3889 C3877 0.918 1_556 S
H3890 C3878 0.956 . S
H3891 C3878 0.961 . S
H3892 C3878 0.961 . S
H3893 C3879 0.958 . S
H3894 C3879 0.961 . S
H3895 C3879 0.959 1_554 S
C3896 C3897 1.391 . S
C3896 C3898 1.394 . S
C3896 H3912 0.931 . S
C3897 C3896 1.391 . S
C3897 C3901 1.376 . S
C3898 C3896 1.394 . S
C3898 C3899 1.369 . S
C3898 C3902 1.531 . S
C3899 C3898 1.369 . S
C3899 C3900 1.410 . S
C3899 C3907 1.503 . S
C3900 C3899 1.410 . S
C3900 C3901 1.392 . S
C3900 C3903 1.511 . S
C3901 C3897 1.376 . S
C3901 C3900 1.392 . S
C3901 H3913 0.929 . S
C3902 C3898 1.531 . S
C3902 H3914 0.960 . S
C3902 H3915 0.962 . S
C3902 H3916 0.960 . S
C3903 C3900 1.511 . S
C3903 H3917 0.961 . S
C3903 H3918 0.961 . S
C3903 H3919 0.961 . S
C3904 C3905 1.370 . S
C3904 C3906 1.363 . S
C3904 H3920 0.931 . S
C3905 C3904 1.370 . S
C3905 C3909 1.408 . S
C3906 C3904 1.363 . S
C3906 C3907 1.370 . S
C3906 C3910 1.524 . S
C3907 C3899 1.503 . S
C3907 C3906 1.370 . S
C3907 C3908 1.403 . S
C3908 C3907 1.403 . S
C3908 C3909 1.404 . S
C3908 C3911 1.539 . S
C3909 C3905 1.408 . S
C3909 C3908 1.404 . S
C3909 H3921 0.930 . S
C3910 C3906 1.524 . S
C3910 H3922 0.956 . S
C3910 H3923 0.961 . S
C3910 H3924 0.961 . S
C3911 C3908 1.539 . S
C3911 H3925 0.958 . S
C3911 H3926 0.961 . S
C3911 H3927 0.960 . S
H3912 C3896 0.931 . S
H3913 C3901 0.929 . S
H3914 C3902 0.960 . S
H3915 C3902 0.962 . S
H3916 C3902 0.960 . S
H3917 C3903 0.961 . S
H3918 C3903 0.961 . S
H3919 C3903 0.961 . S
H3920 C3904 0.931 . S
H3921 C3909 0.930 . S
H3922 C3910 0.956 . S
H3923 C3910 0.961 . S
H3924 C3910 0.961 . S
H3925 C3911 0.958 . S
H3926 C3911 0.961 . S
H3927 C3911 0.960 . S
C3928 C3929 1.391 . S
C3928 C3930 1.394 . S
C3928 H3944 0.931 . S
C3929 C3928 1.391 . S
C3929 C3933 1.376 . S
C3930 C3928 1.394 . S
C3930 C3931 1.369 . S
C3930 C3934 1.531 . S
C3931 C3930 1.369 . S
C3931 C3932 1.410 . S
C3931 C3939 1.503 . S
C3932 C3931 1.410 . S
C3932 C3933 1.392 . S
C3932 C3935 1.511 . S
C3933 C3929 1.376 . S
C3933 C3932 1.392 . S
C3933 H3945 0.929 . S
C3934 C3930 1.531 . S
C3934 H3946 0.960 . S
C3934 H3947 0.962 . S
C3934 H3948 0.960 . S
C3935 C3932 1.511 . S
C3935 H3949 0.961 . S
C3935 H3950 0.961 . S
C3935 H3951 0.961 . S
C3936 C3937 1.370 . S
C3936 C3938 1.363 . S
C3936 H3952 0.931 . S
C3937 C3936 1.370 . S
C3937 C3941 1.408 1_554 S
C3938 C3936 1.363 . S
C3938 C3939 1.370 . S
C3938 C3942 1.524 . S
C3939 C3931 1.503 . S
C3939 C3938 1.370 . S
C3939 C3940 1.438 . S
C3940 C3939 1.438 . S
C3940 C3941 1.401 1_554 S
C3940 C3943 1.509 1_554 S
C3941 C3937 1.408 1_556 S
C3941 C3940 1.401 1_556 S
C3941 H3953 0.930 . S
C3942 C3938 1.524 . S
C3942 H3954 0.956 . S
C3942 H3955 0.961 . S
C3942 H3956 0.961 . S
C3943 C3940 1.509 1_556 S
C3943 H3957 0.958 . S
C3943 H3958 0.961 . S
C3943 H3959 0.960 . S
H3944 C3928 0.931 . S
H3945 C3933 0.929 . S
H3946 C3934 0.960 . S
H3947 C3934 0.962 . S
H3948 C3934 0.960 . S
H3949 C3935 0.961 . S
H3950 C3935 0.961 . S
H3951 C3935 0.961 . S
H3952 C3936 0.931 . S
H3953 C3941 0.930 . S
H3954 C3942 0.956 . S
H3955 C3942 0.961 . S
H3956 C3942 0.961 . S
H3957 C3943 0.958 . S
H3958 C3943 0.961 . S
H3959 C3943 0.960 . S
C3960 C3961 1.391 . S
C3960 C3962 1.394 . S
C3960 H3976 0.931 . S
C3961 C3960 1.391 . S
C3961 C3965 1.376 . S
C3962 C3960 1.394 . S
C3962 C3963 1.369 . S
C3962 C3966 1.531 . S
C3963 C3962 1.369 . S
C3963 C3964 1.410 . S
C3963 C3971 1.503 . S
C3964 C3963 1.410 . S
C3964 C3965 1.392 . S
C3964 C3967 1.511 . S
C3965 C3961 1.376 . S
C3965 C3964 1.392 . S
C3965 H3977 0.929 . S
C3966 C3962 1.531 . S
C3966 H3978 0.960 . S
C3966 H3979 0.962 . S
C3966 H3980 0.960 . S
C3967 C3964 1.511 . S
C3967 H3981 0.961 . S
C3967 H3982 0.961 . S
C3967 H3983 0.961 . S
C3968 C3969 1.370 . S
C3968 C3970 1.363 . S
C3968 H3984 0.931 . S
C3969 C3968 1.370 . S
C3969 C3973 1.408 . S
C3970 C3968 1.363 . S
C3970 C3971 1.370 . S
C3970 C3974 1.524 . S
C3971 C3963 1.503 . S
C3971 C3970 1.370 . S
C3971 C3972 1.403 . S
C3972 C3971 1.403 . S
C3972 C3973 1.404 . S
C3972 C3975 1.539 . S
C3973 C3969 1.408 . S
C3973 C3972 1.404 . S
C3973 H3985 0.930 . S
C3974 C3970 1.524 . S
C3974 H3986 0.956 . S
C3974 H3987 0.961 . S
C3974 H3988 0.961 . S
C3975 C3972 1.539 . S
C3975 H3989 0.958 . S
C3975 H3990 0.961 . S
C3975 H3991 0.960 . S
H3976 C3960 0.931 . S
H3977 C3965 0.929 . S
H3978 C3966 0.960 . S
H3979 C3966 0.962 . S
H3980 C3966 0.960 . S
H3981 C3967 0.961 . S
H3982 C3967 0.961 . S
H3983 C3967 0.961 . S
H3984 C3968 0.931 . S
H3985 C3973 0.930 . S
H3986 C3974 0.956 . S
H3987 C3974 0.961 . S
H3988 C3974 0.961 . S
H3989 C3975 0.958 . S
H3990 C3975 0.961 . S
H3991 C3975 0.960 . S
C3992 C3993 1.391 . S
C3992 C3994 1.394 . S
C3992 H4008 0.931 . S
C3993 C3992 1.391 . S
C3993 C3997 1.376 . S
C3994 C3992 1.394 . S
C3994 C3995 1.369 . S
C3994 C3998 1.531 . S
C3995 C3994 1.369 . S
C3995 C3996 1.410 . S
C3995 C4003 1.503 . S
C3996 C3995 1.410 . S
C3996 C3997 1.392 . S
C3996 C3999 1.511 . S
C3997 C3993 1.376 . S
C3997 C3996 1.392 . S
C3997 H4009 0.929 . S
C3998 C3994 1.531 . S
C3998 H4010 0.960 . S
C3998 H4011 0.962 . S
C3998 H4012 0.960 . S
C3999 C3996 1.511 . S
C3999 H4013 0.961 . S
C3999 H4014 0.961 . S
C3999 H4015 0.961 . S
C4000 C4001 1.370 . S
C4000 C4002 1.363 . S
C4000 H4016 0.931 . S
C4001 C4000 1.370 . S
C4001 C4005 1.408 . S
C4002 C4000 1.363 . S
C4002 C4003 1.370 . S
C4002 C4006 1.524 . S
C4003 C3995 1.503 . S
C4003 C4002 1.370 . S
C4003 C4004 1.403 . S
C4004 C4003 1.403 . S
C4004 C4005 1.404 . S
C4004 C4007 1.539 . S
C4005 C4001 1.408 . S
C4005 C4004 1.404 . S
C4005 H4017 0.930 . S
C4006 C4002 1.524 . S
C4006 H4018 0.956 . S
C4006 H4019 0.961 . S
C4006 H4020 0.961 . S
C4007 C4004 1.539 . S
C4007 H4021 0.958 . S
C4007 H4022 0.961 . S
C4007 H4023 0.960 . S
H4008 C3992 0.931 . S
H4009 C3997 0.929 . S
H4010 C3998 0.960 . S
H4011 C3998 0.962 . S
H4012 C3998 0.960 . S
H4013 C3999 0.961 . S
H4014 C3999 0.961 . S
H4015 C3999 0.961 . S
H4016 C4000 0.931 . S
H4017 C4005 0.930 . S
H4018 C4006 0.956 . S
H4019 C4006 0.961 . S
H4020 C4006 0.961 . S
H4021 C4007 0.958 . S
H4022 C4007 0.961 . S
H4023 C4007 0.960 . S
C953 C101 2.128 1_455 S
C961 C343 2.075 . S
C985 C57 1.711 . S
C993 C354 1.778 . S
C1017 C70 1.557 . S
C1025 C423 1.488 . S
C1057 C436 1.213 . S
C1049 C82 1.204 . S
C1081 C23 2.454 . S
C1089 C492 2.424 . S
C1121 C543 2.016 . S
C1113 C29 2.058 . S
C1153 C572 2.272 . S
C1145 C49 2.268 . S
C1177 C10 2.442 . S
C1185 C623 2.369 . S
C1217 C314 1.329 . S
C1209 C218 1.301 . S
C1241 C226 0.969 . S
C1249 C356 0.919 . S
C1281 C394 1.040 . S
C1273 C251 1.028 . S
C1313 C463 1.509 . S
C1305 C159 1.516 . S
C1337 C211 0.579 . S
C1345 C497 0.662 . S
C1377 C514 1.429 . S
C1369 C225 1.414 . S
C1409 C577 0.399 . S
C1401 C252 0.444 . S
C1441 C594 1.978 . S
C1433 C166 2.012 . S
C1473 C316 1.775 . S
C1465 C147 1.881 . S
C1497 C263 1.596 . S
C1505 C655 1.574 . S
C1537 C676 1.603 . S
C1529 C309 1.743 . S
C1569 C735 0.334 . S
C1561 C291 0.365 . S
C1593 C108 1.185 . S
C1601 C596 1.141 . S
C1625 C121 1.471 . S
C1633 C396 1.451 . S
C1657 C302 0.798 . S
C1665 C754 0.876 . S
C1697 C823 0.938 . S
C1689 C276 0.910 . S
C1729 C332 2.283 1_565 S
C1721 C55 2.269 . S
C1761 C815 2.048 . S
C1753 C96 2.035 . S
C1785 C88 1.877 . S
C1793 C412 1.849 . S
C1817 C75 1.353 . S
C1825 C777 1.348 . S
C1857 C503 2.751 . S
C1849 C4 2.771 . S
C1881 C44 2.273 . S
C1889 C692 2.266 . S
C1921 C583 2.637 1_566 S
C1913 C31 2.643 . S
C1953 C852 2.555 . S
C1945 C18 2.597 1_655 S
C1985 C335 1.417 1_556 S
C1977 C133 1.427 . S
C2017 C817 1.117 . S
C2009 C296 1.127 . S
C2041 C107 1.293 . S
C2049 C415 1.284 . S
C2073 C264 1.960 . S
C2081 C772 1.972 . S
C2105 C140 0.762 . S
C2113 C476 0.790 . S
C2145 C695 1.641 . S
C2137 C289 1.651 . S
C2169 C114 0.612 . S
C2177 C556 0.605 . S
C2201 C265 2.348 . S
C2209 C855 2.302 . S
C2233 C179 1.687 . S
C2241 C337 1.644 . S
C2265 C161 1.748 . S
C2273 C634 1.722 . S
C2297 C244 1.532 . S
C2305 C537 1.470 . S
C2329 C224 0.605 . S
C2337 C714 0.661 . S
C2369 C857 1.040 . S
C2361 C257 1.092 1_565 S
C2393 C199 1.495 . S
C2401 C417 1.452 . S
C2433 C455 1.175 . S
C2425 C237 1.183 . S
C2465 C372 1.104 . S
C2457 C185 1.148 . S
C2489 C69 2.139 . S
C2497 C903 2.065 . S
C2529 C794 1.774 . S
C2521 C83 1.721 . S
C2553 C94 1.559 . S
C2561 C943 1.492 . S
C2585 C56 1.241 . S
C2593 C756 1.189 . S
C2617 C42 2.441 . S
C2625 C652 2.428 . S
C2657 C703 2.009 . S
C2649 C3 2.075 . S
C2689 C732 2.285 . S
C2681 C16 2.296 . S
C2721 C863 2.368 . S
C2713 C36 2.443 . S
C2753 C874 1.330 . S
C2745 C238 1.280 . S
C2777 C174 0.942 . S
C2785 C796 0.958 . S
C2817 C914 1.039 . S
C2809 C186 1.025 . S
C2849 C783 1.507 . S
C2841 C198 1.515 . S
C2881 C657 0.613 . S
C2873 C239 0.652 . S
C2905 C173 1.428 . S
C2913 C674 1.429 . S
C2945 C737 0.465 . S
C2937 C187 0.365 . S
C2969 C205 2.015 . S
C2977 C834 1.989 . S
C3009 C876 1.758 . S
C3001 C290 1.903 . S
C3033 C122 1.589 . S
C3041 C495 1.585 . S
C3073 C516 1.606 . S
C3065 C134 1.742 . S
C3105 C575 0.357 . S
C3097 C148 0.338 . S
C3137 C836 1.171 . S
C3129 C283 1.132 . S
C3161 C270 1.466 . S
C3169 C916 1.453 . S
C3201 C434 0.871 . S
C3193 C135 0.899 . S
C3233 C383 0.926 . S
C3225 C109 0.954 . S
C3257 C81 2.268 . S
C3265 C892 2.282 . S
C3297 C375 2.045 . S
C3289 C68 2.022 . S
C3321 C62 1.878 . S
C3329 C932 1.859 . S
C3353 C95 1.349 . S
C3361 C457 1.344 . S
C3385 C30 2.767 . S
C3393 C663 2.750 1_556 S
C3425 C532 2.251 . S
C3417 C17 2.278 . S
C3449 C5 2.646 . S
C3457 C743 2.642 . S
C3481 C43 2.600 . S
C3489 C612 2.552 . S
C3521 C895 1.418 . S
C3513 C304 1.427 . S
C3545 C153 1.131 . S
C3553 C377 1.112 . S
C3585 C935 1.284 1_556 S
C3577 C278 1.293 . S
C3609 C127 1.964 . S
C3617 C452 1.972 . S
C3641 C303 0.789 . S
C3649 C636 0.774 . S
C3681 C535 1.645 . S
C3673 C146 1.659 . S
C3705 C277 0.609 . S
C3713 C716 0.603 . S
C3745 C615 2.310 . S
C3737 C120 2.337 . S
C3777 C897 1.619 . S
C3769 C231 1.713 . S
C3809 C474 1.723 1_665 S
C3801 C200 1.749 . S
C3833 C212 1.536 . S
C3841 C697 1.461 . S
C3873 C554 0.660 . S
C3865 C172 0.607 . S
C3897 C192 1.031 . S
C3905 C617 1.066 . S
C3929 C160 1.472 . S
C3937 C937 1.468 . S
C3969 C775 1.178 . S
C3961 C213 1.181 . S
C4001 C812 1.107 . S
C3993 C250 1.146 . S
