# Generated by pormake.
# Topology pyr, (3,6)-cn, num edge types: 1
# Building blocks:
#     Node 0, Type 0, BuildingBlock: WUSLED_clean_sbu_0, # of connection points: 3
#     Node 1, Type 0, BuildingBlock: WUSLED_clean_sbu_0, # of connection points: 3
#     Node 2, Type 0, BuildingBlock: WUSLED_clean_sbu_0, # of connection points: 3
#     Node 3, Type 0, BuildingBlock: WUSLED_clean_sbu_0, # of connection points: 3
#     Node 4, Type 0, BuildingBlock: WUSLED_clean_sbu_0, # of connection points: 3
#     Node 5, Type 0, BuildingBlock: WUSLED_clean_sbu_0, # of connection points: 3
#     Node 6, Type 0, BuildingBlock: WUSLED_clean_sbu_0, # of connection points: 3
#     Node 7, Type 0, BuildingBlock: WUSLED_clean_sbu_0, # of connection points: 3
#     Node 8, Type 1, BuildingBlock: BETDIP_clean_sbu_0, # of connection points: 6
#     Node 9, Type 1, BuildingBlock: BETDIP_clean_sbu_0, # of connection points: 6
#     Node 10, Type 1, BuildingBlock: BETDIP_clean_sbu_0, # of connection points: 6
#     Node 11, Type 1, BuildingBlock: BETDIP_clean_sbu_0, # of connection points: 6
#     Edge 12, Type (0, 1), BuildingBlock: TEMPAE_clean_linker_10, # of connection points: 2
#     Edge 13, Type (0, 1), BuildingBlock: TEMPAE_clean_linker_10, # of connection points: 2
#     Edge 14, Type (0, 1), BuildingBlock: TEMPAE_clean_linker_10, # of connection points: 2
#     Edge 15, Type (0, 1), BuildingBlock: TEMPAE_clean_linker_10, # of connection points: 2
#     Edge 16, Type (0, 1), BuildingBlock: TEMPAE_clean_linker_10, # of connection points: 2
#     Edge 17, Type (0, 1), BuildingBlock: TEMPAE_clean_linker_10, # of connection points: 2
#     Edge 18, Type (0, 1), BuildingBlock: TEMPAE_clean_linker_10, # of connection points: 2
#     Edge 19, Type (0, 1), BuildingBlock: TEMPAE_clean_linker_10, # of connection points: 2
#     Edge 20, Type (0, 1), BuildingBlock: TEMPAE_clean_linker_10, # of connection points: 2
#     Edge 21, Type (0, 1), BuildingBlock: TEMPAE_clean_linker_10, # of connection points: 2
#     Edge 22, Type (0, 1), BuildingBlock: TEMPAE_clean_linker_10, # of connection points: 2
#     Edge 23, Type (0, 1), BuildingBlock: TEMPAE_clean_linker_10, # of connection points: 2
#     Edge 24, Type (0, 1), BuildingBlock: TEMPAE_clean_linker_10, # of connection points: 2
#     Edge 25, Type (0, 1), BuildingBlock: TEMPAE_clean_linker_10, # of connection points: 2
#     Edge 26, Type (0, 1), BuildingBlock: TEMPAE_clean_linker_10, # of connection points: 2
#     Edge 27, Type (0, 1), BuildingBlock: TEMPAE_clean_linker_10, # of connection points: 2
#     Edge 28, Type (0, 1), BuildingBlock: TEMPAE_clean_linker_10, # of connection points: 2
#     Edge 29, Type (0, 1), BuildingBlock: TEMPAE_clean_linker_10, # of connection points: 2
#     Edge 30, Type (0, 1), BuildingBlock: TEMPAE_clean_linker_10, # of connection points: 2
#     Edge 31, Type (0, 1), BuildingBlock: TEMPAE_clean_linker_10, # of connection points: 2
#     Edge 32, Type (0, 1), BuildingBlock: TEMPAE_clean_linker_10, # of connection points: 2
#     Edge 33, Type (0, 1), BuildingBlock: TEMPAE_clean_linker_10, # of connection points: 2
#     Edge 34, Type (0, 1), BuildingBlock: TEMPAE_clean_linker_10, # of connection points: 2
#     Edge 35, Type (0, 1), BuildingBlock: TEMPAE_clean_linker_10, # of connection points: 2
# Relax obj value: 0.106
# Max RMSD: 0.188
# Mean RMSD: 0.081
data_MOF--net-pyr--node1-WUSLED_clean_sbu_0--node2-BETDIP_clean_sbu_0--edge1-TEMPAE_clean_linker_10
_symmetry_space_group_name_H-M    P1
_symmetry_Int_Tables_number       1
_symmetry_cell_setting            triclinic
loop_
_symmetry_equiv_pos_as_xyz
'x, y, z'
_cell_length_a     46.443911
_cell_length_b     50.789993
_cell_length_c     50.247057
_cell_angle_alpha  88.244227
_cell_angle_beta   93.483386
_cell_angle_gamma 102.23519
loop_
_atom_site_label
_atom_site_type_symbol
_atom_site_fract_x
_atom_site_fract_y
_atom_site_fract_z
_atom_type_partial_charge
C0 C 0.3125 0.3116 0.16653 0.0
C1 C 0.28796 0.31187 0.18147 0.0
C2 C 0.27375 0.34512 0.15079 0.0
C3 C 0.26867 0.32867 0.17366 0.0
C4 C 0.2989 0.34556 0.13653 0.0
C5 C 0.31829 0.32891 0.14446 0.0
U6 U 0.32944 0.25776 0.21284 0.0
O7 O 0.33951 0.21824 0.20683 0.0
O8 O 0.37143 0.24916 0.22927 0.0
C9 C 0.36639 0.22564 0.21774 0.0
C10 C 0.3312 0.29237 0.17331 0.0
C11 C 0.38934 0.22172 0.2009 0.0
C12 C 0.40846 0.22417 0.15702 0.0
C13 C 0.39 0.23197 0.17462 0.0
C14 C 0.42774 0.19824 0.19269 0.0
C15 C 0.42655 0.20654 0.16587 0.0
C16 C 0.40899 0.20573 0.2102 0.0
C17 C 0.28292 0.23806 0.27128 0.0
C18 C 0.27826 0.19464 0.29378 0.0
C19 C 0.25898 0.23034 0.31283 0.0
C20 C 0.26892 0.24745 0.29172 0.0
C21 C 0.26278 0.20371 0.31341 0.0
C22 C 0.28869 0.21195 0.27282 0.0
C23 C 0.29009 0.2553 0.24796 0.0
O24 O 0.34776 0.29749 0.19545 0.0
O25 O 0.31756 0.26698 0.1712 0.0
O26 O 0.28435 0.24292 0.22503 0.0
O27 O 0.31585 0.27207 0.24989 0.0
H28 H 0.28327 0.29851 0.19862 0.0
H29 H 0.24914 0.32792 0.18466 0.0
H30 H 0.303 0.35818 0.11882 0.0
H31 H 0.33725 0.32893 0.13292 0.0
H32 H 0.40695 0.23009 0.13616 0.0
H33 H 0.37486 0.24445 0.16731 0.0
H34 H 0.44115 0.18401 0.19942 0.0
H35 H 0.40855 0.19774 0.23044 0.0
H36 H 0.28092 0.17394 0.29398 0.0
H37 H 0.24652 0.23729 0.32773 0.0
H38 H 0.26455 0.26759 0.29075 0.0
H39 H 0.29993 0.20461 0.25724 0.0
C40 C 0.12482 0.79734 0.69008 0.0
C41 C 0.12407 0.81947 0.70604 0.0
C42 C 0.09564 0.83792 0.67054 0.0
C43 C 0.10935 0.83962 0.69635 0.0
C44 C 0.09484 0.81489 0.65554 0.0
C45 C 0.10922 0.79479 0.66526 0.0
U46 U 0.18208 0.77097 0.73613 0.0
O47 O 0.19235 0.73046 0.74105 0.0
O48 O 0.22568 0.76476 0.72659 0.0
C49 C 0.21952 0.7392 0.73377 0.0
C50 C 0.14488 0.77885 0.69676 0.0
C51 C 0.23494 0.72085 0.72105 0.0
C52 C 0.24076 0.68937 0.68717 0.0
C53 C 0.22387 0.70587 0.69825 0.0
C54 C 0.27949 0.7031 0.7215 0.0
C55 C 0.26894 0.68783 0.69871 0.0
C56 C 0.26265 0.71911 0.73256 0.0
C57 C 0.20717 0.80347 0.80305 0.0
C58 C 0.25651 0.80552 0.82302 0.0
C59 C 0.22296 0.82853 0.84339 0.0
C60 C 0.2011 0.81889 0.82375 0.0
C61 C 0.25131 0.82308 0.8424 0.0
C62 C 0.23452 0.79577 0.80339 0.0
C63 C 0.18675 0.79933 0.77942 0.0
O64 O 0.17304 0.79035 0.69789 0.0
O65 O 0.13763 0.76083 0.71592 0.0
O66 O 0.16919 0.77546 0.77706 0.0
O67 O 0.19879 0.80871 0.75714 0.0
H68 H 0.13612 0.82187 0.72527 0.0
H69 H 0.11036 0.85728 0.70822 0.0
H70 H 0.08431 0.81312 0.63564 0.0
H71 H 0.1096 0.77795 0.65265 0.0
H72 H 0.23173 0.67786 0.6697 0.0
H73 H 0.20247 0.70701 0.68903 0.0
H74 H 0.30126 0.70338 0.73063 0.0
H75 H 0.27163 0.73064 0.75008 0.0
H76 H 0.27817 0.80102 0.82179 0.0
H77 H 0.21824 0.84162 0.85843 0.0
H78 H 0.18007 0.8249 0.8238 0.0
H79 H 0.23952 0.78377 0.7875 0.0
C80 C 0.64079 0.38096 0.77506 0.0
C81 C 0.66074 0.4052 0.76923 0.0
C82 C 0.62734 0.41559 0.73238 0.0
C83 C 0.65415 0.42226 0.74793 0.0
C84 C 0.60769 0.39134 0.73833 0.0
C85 C 0.61441 0.37426 0.7592 0.0
U86 U 0.68157 0.35457 0.83885 0.0
O87 O 0.6609 0.33314 0.8741 0.0
O88 O 0.68597 0.3127 0.84863 0.0
C89 C 0.67128 0.31146 0.87035 0.0
C90 C 0.64598 0.36205 0.79737 0.0
C91 C 0.65541 0.28494 0.88073 0.0
C92 C 0.6128 0.24744 0.88331 0.0
C93 C 0.6269 0.27199 0.8714 0.0
C94 C 0.65556 0.2485 0.91357 0.0
C95 C 0.62704 0.2356 0.90462 0.0
C96 C 0.66951 0.27283 0.90178 0.0
C97 C 0.75565 0.39965 0.86861 0.0
C98 C 0.79094 0.39077 0.90405 0.0
C99 C 0.7973 0.43494 0.88302 0.0
C100 C 0.77191 0.42612 0.86664 0.0
C101 C 0.80753 0.41744 0.90183 0.0
C102 C 0.7652 0.38193 0.88756 0.0
C103 C 0.72939 0.39178 0.85002 0.0
O104 O 0.66799 0.34967 0.79599 0.0
O105 O 0.64272 0.3692 0.82175 0.0
O106 O 0.70353 0.39203 0.85914 0.0
O107 O 0.72879 0.37164 0.83405 0.0
H108 H 0.68123 0.41097 0.78114 0.0
H109 H 0.6697 0.44089 0.74393 0.0
H110 H 0.58703 0.3855 0.72668 0.0
H111 H 0.5987 0.3557 0.76311 0.0
H112 H 0.59075 0.23782 0.87608 0.0
H113 H 0.6155 0.2809 0.85522 0.0
H114 H 0.66694 0.2399 0.92999 0.0
H115 H 0.6914 0.28246 0.90945 0.0
H116 H 0.79804 0.3766 0.9182 0.0
H117 H 0.80868 0.45577 0.88106 0.0
H118 H 0.76491 0.44018 0.85228 0.0
H119 H 0.75297 0.36135 0.88948 0.0
C120 C 0.78206 0.67169 0.3602 0.0
C121 C 0.77424 0.68865 0.37884 0.0
C122 C 0.73448 0.65193 0.39425 0.0
C123 C 0.75067 0.67895 0.39554 0.0
C124 C 0.74269 0.63531 0.37532 0.0
C125 C 0.76582 0.64509 0.35856 0.0
U126 U 0.85408 0.71492 0.32657 0.0
O127 O 0.88844 0.6966 0.31028 0.0
O128 O 0.86046 0.71609 0.28296 0.0
C129 C 0.88249 0.70348 0.28547 0.0
C130 C 0.8066 0.6803 0.34184 0.0
C131 C 0.88843 0.68647 0.26321 0.0
C132 C 0.87716 0.64738 0.23367 0.0
C133 C 0.86937 0.66245 0.25448 0.0
C134 C 0.92298 0.67985 0.23015 0.0
C135 C 0.90432 0.65578 0.22141 0.0
C136 C 0.91509 0.69493 0.25049 0.0
C137 C 0.88658 0.78578 0.36731 0.0
C138 C 0.92685 0.82423 0.37877 0.0
C139 C 0.88033 0.81958 0.39919 0.0
C140 C 0.8691 0.79577 0.38479 0.0
C141 C 0.90956 0.83438 0.39661 0.0
C142 C 0.91557 0.80039 0.36445 0.0
C143 C 0.87481 0.76009 0.35254 0.0
O144 O 0.80555 0.70028 0.32479 0.0
O145 O 0.83359 0.67954 0.35081 0.0
O146 O 0.8834 0.73751 0.35869 0.0
O147 O 0.85492 0.75835 0.33253 0.0
H148 H 0.78623 0.70934 0.38049 0.0
H149 H 0.74512 0.69286 0.40925 0.0
H150 H 0.73182 0.61434 0.37362 0.0
H151 H 0.77126 0.63156 0.34432 0.0
H152 H 0.86226 0.62888 0.22755 0.0
H153 H 0.84868 0.65524 0.26381 0.0
H154 H 0.94388 0.68709 0.22116 0.0
H155 H 0.93021 0.71336 0.25654 0.0
H156 H 0.94949 0.83432 0.37615 0.0
H157 H 0.86578 0.82644 0.41215 0.0
H158 H 0.84667 0.78502 0.38749 0.0
H159 H 0.92967 0.7933 0.35113 0.0
C160 C 0.72045 0.75127 0.90675 0.0
C161 C 0.73823 0.74432 0.88761 0.0
C162 C 0.76413 0.72216 0.92207 0.0
C163 C 0.75976 0.72966 0.89518 0.0
C164 C 0.7458 0.72888 0.94097 0.0
C165 C 0.72409 0.74321 0.93333 0.0
U166 U 0.69907 0.80236 0.85903 0.0
O167 O 0.65611 0.81165 0.84616 0.0
O168 O 0.69138 0.84272 0.86479 0.0
C169 C 0.66352 0.83584 0.85634 0.0
C170 C 0.7006 0.76951 0.89975 0.0
C171 C 0.64308 0.84262 0.8745 0.0
C172 C 0.63151 0.84942 0.91978 0.0
C173 C 0.64637 0.83732 0.902 0.0
C174 C 0.60759 0.86944 0.88242 0.0
C175 C 0.61329 0.8667 0.91003 0.0
C176 C 0.62267 0.85762 0.86472 0.0
C177 C 0.74589 0.82006 0.79911 0.0
C178 C 0.75306 0.86332 0.77589 0.0
C179 C 0.77918 0.82928 0.76342 0.0
C180 C 0.76523 0.8117 0.78262 0.0
C181 C 0.77388 0.85537 0.76062 0.0
C182 C 0.73895 0.8456 0.79518 0.0
C183 C 0.73678 0.80342 0.82246 0.0
O184 O 0.71366 0.79511 0.90042 0.0
O185 O 0.68278 0.76313 0.87849 0.0
O186 O 0.71013 0.78808 0.82081 0.0
O187 O 0.74354 0.81593 0.8452 0.0
H188 H 0.73594 0.7508 0.86698 0.0
H189 H 0.77318 0.72456 0.88003 0.0
H190 H 0.74889 0.724 0.96193 0.0
H191 H 0.71085 0.74885 0.94835 0.0
H192 H 0.63617 0.8471 0.94102 0.0
H193 H 0.66199 0.8255 0.90976 0.0
H194 H 0.59318 0.8824 0.8746 0.0
H195 H 0.61982 0.86164 0.84353 0.0
H196 H 0.74908 0.88358 0.77396 0.0
H197 H 0.79548 0.82313 0.75184 0.0
H198 H 0.77087 0.79214 0.78564 0.0
H199 H 0.72406 0.8523 0.80797 0.0
C200 C 0.80962 0.28909 0.2788 0.0
C201 C 0.81669 0.26372 0.27679 0.0
C202 C 0.77938 0.25301 0.2405 0.0
C203 C 0.80166 0.24574 0.2576 0.0
C204 C 0.77442 0.2793 0.24116 0.0
C205 C 0.78947 0.29719 0.2602 0.0
U206 U 0.85264 0.30646 0.34604 0.0
O207 O 0.86627 0.3466 0.36402 0.0
O208 O 0.83405 0.31489 0.38317 0.0
C209 C 0.84672 0.34059 0.38235 0.0
C210 C 0.81834 0.30527 0.30259 0.0
C211 C 0.82626 0.35901 0.38433 0.0
C212 C 0.78219 0.37497 0.36832 0.0
C213 C 0.80395 0.36026 0.36433 0.0
C214 C 0.80546 0.38811 0.41172 0.0
C215 C 0.78255 0.38859 0.3923 0.0
C216 C 0.82712 0.37346 0.40776 0.0
C217 C 0.90807 0.25962 0.36898 0.0
C218 C 0.92502 0.24439 0.41243 0.0
C219 C 0.9402 0.22749 0.37217 0.0
C220 C 0.92445 0.24361 0.35682 0.0
C221 C 0.93981 0.22686 0.40014 0.0
C222 C 0.90911 0.26058 0.39693 0.0
C223 C 0.88723 0.27161 0.35174 0.0
O224 O 0.8098 0.29278 0.32492 0.0
O225 O 0.84534 0.31985 0.30443 0.0
O226 O 0.89618 0.29618 0.34212 0.0
O227 O 0.85957 0.26632 0.35822 0.0
H228 H 0.83226 0.25721 0.29112 0.0
H229 H 0.80612 0.22567 0.25721 0.0
H230 H 0.75718 0.28538 0.22847 0.0
H231 H 0.78367 0.31665 0.26169 0.0
H232 H 0.76452 0.3749 0.35319 0.0
H233 H 0.80275 0.34908 0.34613 0.0
H234 H 0.80593 0.39826 0.43044 0.0
H235 H 0.84395 0.37256 0.42346 0.0
H236 H 0.92427 0.24443 0.43392 0.0
H237 H 0.95183 0.21473 0.36204 0.0
H238 H 0.9239 0.24253 0.33528 0.0
H239 H 0.89656 0.27279 0.40672 0.0
C240 C 0.27705 0.6762 0.22226 0.0
C241 C 0.27495 0.69069 0.19815 0.0
C242 C 0.22867 0.6596 0.18494 0.0
C243 C 0.25099 0.68237 0.17959 0.0
C244 C 0.2306 0.64577 0.20941 0.0
C245 C 0.2545 0.65393 0.22775 0.0
U246 U 0.35152 0.71876 0.25289 0.0
O247 O 0.36594 0.72377 0.29562 0.0
O248 O 0.39001 0.70334 0.26952 0.0
C249 C 0.38762 0.71104 0.29389 0.0
C250 C 0.30293 0.68242 0.24157 0.0
C251 C 0.39356 0.69273 0.3165 0.0
C252 C 0.38727 0.64885 0.33966 0.0
C253 C 0.37911 0.66547 0.31864 0.0
C254 C 0.42369 0.68655 0.35696 0.0
C255 C 0.40978 0.6592 0.35909 0.0
C256 C 0.41579 0.70296 0.33596 0.0
C257 C 0.37706 0.78809 0.20997 0.0
C258 C 0.41903 0.82574 0.20478 0.0
C259 C 0.37494 0.82298 0.17593 0.0
C260 C 0.36183 0.79919 0.18906 0.0
C261 C 0.40395 0.83649 0.18315 0.0
C262 C 0.40574 0.8017 0.21803 0.0
C263 C 0.36215 0.76184 0.22153 0.0
O264 O 0.32873 0.68167 0.2326 0.0
O265 O 0.3041 0.70234 0.25796 0.0
O266 O 0.34781 0.7609 0.24343 0.0
O267 O 0.37214 0.74001 0.21755 0.0
H268 H 0.29203 0.70803 0.19349 0.0
H269 H 0.25 0.69358 0.16098 0.0
H270 H 0.21408 0.62798 0.21403 0.0
H271 H 0.25572 0.64236 0.2461 0.0
H272 H 0.37593 0.62792 0.34077 0.0
H273 H 0.36185 0.65697 0.30397 0.0
H274 H 0.44131 0.69518 0.37126 0.0
H275 H 0.42751 0.72377 0.33471 0.0
H276 H 0.44141 0.83542 0.21096 0.0
H277 H 0.36217 0.83073 0.15997 0.0
H278 H 0.33967 0.78914 0.18252 0.0
H279 H 0.41796 0.79357 0.23417 0.0
C280 C 0.15548 0.28282 0.7174 0.0
C281 C 0.16526 0.28176 0.69157 0.0
C282 C 0.13581 0.23547 0.68567 0.0
C283 C 0.15566 0.25842 0.67599 0.0
C284 C 0.12624 0.23687 0.71164 0.0
C285 C 0.13597 0.26001 0.72715 0.0
U286 U 0.18918 0.35455 0.75498 0.0
O287 O 0.15723 0.37704 0.76962 0.0
O288 O 0.18431 0.35789 0.79844 0.0
C289 C 0.16328 0.37157 0.7948 0.0
C290 C 0.16338 0.30749 0.73427 0.0
C291 C 0.15558 0.38794 0.81675 0.0
C292 C 0.11827 0.39442 0.84701 0.0
C293 C 0.12734 0.38023 0.82659 0.0
C294 C 0.1659 0.42464 0.84907 0.0
C295 C 0.13726 0.41692 0.8591 0.0
C296 C 0.17486 0.41046 0.82818 0.0
C297 C 0.26362 0.39451 0.72055 0.0
C298 C 0.30276 0.43196 0.7071 0.0
C299 C 0.29886 0.38806 0.68831 0.0
C300 C 0.27421 0.37767 0.70355 0.0
C301 C 0.31353 0.41548 0.68977 0.0
C302 C 0.27832 0.42163 0.72218 0.0
C303 C 0.23778 0.38527 0.73731 0.0
O304 O 0.18389 0.3099 0.75381 0.0
O305 O 0.15827 0.33066 0.72504 0.0
O306 O 0.21117 0.38677 0.72779 0.0
O307 O 0.238 0.36606 0.75543 0.0
H308 H 0.18019 0.299 0.68337 0.0
H309 H 0.16399 0.25838 0.65634 0.0
H310 H 0.11054 0.22027 0.71993 0.0
H311 H 0.12765 0.26026 0.74682 0.0
H312 H 0.09583 0.38766 0.85273 0.0
H313 H 0.11189 0.36302 0.81825 0.0
H314 H 0.1818 0.44146 0.85744 0.0
H315 H 0.19684 0.41704 0.8211 0.0
H316 H 0.31278 0.45317 0.70866 0.0
H317 H 0.30654 0.37451 0.67553 0.0
H318 H 0.26348 0.35661 0.702 0.0
H319 H 0.2707 0.43507 0.73516 0.0
Tb320 Tb 0.99271 0.03143 0.551 0.0
Tb321 Tb 0.04812 0.04091 0.53073 0.0
C322 C 0.94444 1.00904 0.56918 0.0
C323 C 0.93662 0.99239 0.59309 0.0
C324 C 0.92253 0.96527 0.59028 0.0
C325 C 0.91246 0.94984 0.61251 0.0
C326 C 0.91628 0.96139 0.63787 0.0
C327 C 0.93238 0.98792 0.64091 0.0
C328 C 0.94243 1.00335 0.61868 0.0
C329 C 0.0299 0.07237 0.57538 0.0
C330 C 0.03919 0.99783 0.57395 0.0
C331 C 0.09605 0.06344 0.51242 0.0
C332 C 0.10278 0.07921 0.48785 0.0
C333 C 0.11647 0.10655 0.48949 0.0
C334 C 0.12573 0.12112 0.46655 0.0
C335 C 0.12155 0.10837 0.44184 0.0
C336 C 0.10529 0.08183 0.43987 0.0
C337 C 0.09594 0.06729 0.46276 0.0
C338 C 1.0114 0.99957 0.50697 0.0
C339 C 1.00146 0.07482 0.50768 0.0
O340 O 0.95719 0.99821 0.55121 0.0
O341 O 0.95672 0.03433 0.57293 0.0
O342 O 0.03592 0.05023 0.56905 0.0
O343 O 1.00226 0.07113 0.56924 0.0
O344 O 1.01119 0.99836 0.56899 0.0
O345 O 0.05982 1.01681 0.56425 0.0
O346 O 0.08292 0.07461 0.52984 0.0
O347 O 0.08473 0.03777 0.50976 0.0
O348 O 1.0051 1.02189 0.51258 0.0
O349 O 0.03887 1.00071 0.51387 0.0
O350 O 0.02933 0.07308 0.5111 0.0
O351 O 0.98087 0.05693 0.51886 0.0
H352 H 0.91827 0.95631 0.57075 0.0
H353 H 0.9 0.92947 0.60956 0.0
H354 H 0.93604 0.9971 0.66035 0.0
H355 H 0.95385 1.02407 0.62154 0.0
H356 H 0.12124 0.11627 0.50862 0.0
H357 H 0.13826 0.14162 0.46847 0.0
H358 H 0.10158 0.07181 0.42084 0.0
H359 H 0.08456 0.04644 0.46082 0.0
Tb360 Tb 0.54693 0.03989 0.05922 0.0
Tb361 Tb 0.4894 1.02552 1.02622 0.0
C362 C 0.59082 0.06133 0.08774 0.0
C363 C 0.5967 0.08219 0.10795 0.0
C364 C 0.59766 0.10941 0.10119 0.0
C365 C 0.60863 0.12919 0.11995 0.0
C366 C 0.61851 0.12177 0.1454 0.0
C367 C 0.61438 0.09457 0.153 0.0
C368 C 0.60359 0.07483 0.13431 0.0
C369 C 0.51087 0.99491 0.07328 0.0
C370 C 0.49395 0.06863 0.06808 0.0
C371 C 0.44335 0.99632 1.00763 0.0
C372 C 0.43776 0.97899 0.98419 0.0
C373 C 0.44261 0.95257 0.98628 0.0
C374 C 0.43282 0.93466 0.96571 0.0
C375 C 0.41801 0.94292 0.94294 0.0
C376 C 0.41634 0.97003 0.93936 0.0
C377 C 0.42611 0.98804 0.96 0.0
C378 C 0.52459 0.0657 1.0012 0.0
C379 C 0.54517 1.00283 1.01278 0.0
O380 O 0.58631 0.06883 0.06291 0.0
O381 O 0.57269 0.03912 0.0945 0.0
O382 O 0.5036 1.01686 0.06629 0.0
O383 O 0.53911 0.99778 0.07208 0.0
O384 O 0.52196 0.06779 0.07295 0.0
O385 O 0.47561 0.05248 0.05188 0.0
O386 O 0.45985 0.98856 1.02713 0.0
O387 O 0.44975 1.02243 1.00312 0.0
O388 O 0.53011 0.05391 1.02283 0.0
O389 O 0.49821 0.05419 0.99271 0.0
O390 O 0.51622 0.9996 1.01194 0.0
O391 O 0.56294 1.02102 1.02749 0.0
H392 H 0.59189 0.11554 0.08107 0.0
H393 H 0.61211 0.15022 0.11382 0.0
H394 H 0.62228 0.08868 0.17257 0.0
H395 H 0.60259 0.05391 0.14 0.0
H396 H 0.45213 0.9451 1.00444 0.0
H397 H 0.43404 0.9137 0.96873 0.0
H398 H 0.40471 0.97657 0.92187 0.0
H399 H 0.42273 1.00846 0.95766 0.0
Tb400 Tb 0.52185 0.56202 0.55795 0.0
Tb401 Tb 0.52545 0.51361 0.52859 0.0
C402 C 0.50116 0.59927 0.57631 0.0
C403 C 0.47521 0.60142 0.59141 0.0
C404 C 0.44654 0.5967 0.57905 0.0
C405 C 0.42276 0.60158 0.59258 0.0
C406 C 0.42718 0.61153 0.61858 0.0
C407 C 0.4555 0.61541 0.63128 0.0
C408 C 0.47926 0.61027 0.61787 0.0
C409 C 0.55542 0.53155 0.58317 0.0
C410 C 0.47409 0.50691 0.5669 0.0
C411 C 0.54501 0.47647 0.50845 0.0
C412 C 0.5716 0.47397 0.49433 0.0
C413 C 0.59577 0.46672 0.50866 0.0
C414 C 0.61969 0.46167 0.49548 0.0
C415 C 0.62043 0.46395 0.46747 0.0
C416 C 0.59664 0.47228 0.45325 0.0
C417 C 0.57247 0.47696 0.46645 0.0
C418 C 0.49184 0.54469 0.50418 0.0
C419 C 0.5742 0.56803 0.52104 0.0
O420 O 0.49574 0.59075 0.55185 0.0
O421 O 0.522 0.58918 0.58888 0.0
O422 O 0.53143 0.52367 0.56972 0.0
O423 O 0.56069 0.55773 0.58371 0.0
O424 O 0.48033 0.53361 0.56722 0.0
O425 O 0.4909 0.49365 0.55457 0.0
O426 O 0.54931 0.48297 0.53358 0.0
O427 O 0.52582 0.48865 0.49595 0.0
O428 O 0.51634 0.55204 0.51687 0.0
O429 O 0.48561 0.5185 0.50416 0.0
O430 O 0.5679 0.54134 0.52118 0.0
O431 O 0.55688 0.58157 0.53228 0.0
H432 H 0.44252 0.58998 0.55866 0.0
H433 H 0.40115 0.59871 0.58232 0.0
H434 H 0.45935 0.62301 0.65138 0.0
H435 H 0.501 0.61406 0.62792 0.0
H436 H 0.59586 0.46409 0.53014 0.0
H437 H 0.63699 0.4549 0.50742 0.0
H438 H 0.59639 0.47499 0.4318 0.0
H439 H 0.55425 0.48251 0.45472 0.0
Tb440 Tb 0.01987 0.56006 1.02134 0.0
Tb441 Tb 0.02328 0.51554 0.0592 0.0
C442 C 0.99905 0.59261 0.99166 0.0
C443 C 0.97679 0.60882 0.99475 0.0
C444 C 0.94855 0.59679 1.00306 0.0
C445 C 0.9261 0.61121 1.00125 0.0
C446 C 0.93171 0.63787 0.99152 0.0
C447 C 0.96056 0.65072 0.98586 0.0
C448 C 0.98299 0.63618 0.98734 0.0
C449 C 0.06886 0.56818 0.05194 0.0
C450 C 0.98952 0.55813 0.07824 0.0
C451 C 0.04254 0.48184 0.08872 0.0
C452 C 0.06611 0.4667 0.08675 0.0
C453 C 0.09594 0.47994 0.08714 0.0
C454 C 0.11809 0.46524 0.08763 0.0
C455 C 0.11091 0.43695 0.0875 0.0
C456 C 0.08101 0.42378 0.0854 0.0
C457 C 0.05883 0.43853 0.08524 0.0
C458 C 0.97469 0.50819 1.02772 0.0
C459 C 0.05337 0.51738 1.00235 0.0
O460 O 0.98922 0.56649 0.99113 0.0
O461 O 0.02389 0.59955 1.00591 0.0
O462 O 0.0433 0.5573 0.05883 0.0
O463 O 0.06704 0.57634 1.02725 0.0
O464 O 0.99283 0.56871 0.05379 0.0
O465 O 1.00085 0.53708 0.08579 0.0
O466 O 0.05092 0.50793 0.09158 0.0
O467 O 0.01962 0.4753 0.07197 0.0
O468 O 1.00059 0.51835 1.02162 0.0
O469 O 0.9757 0.50005 0.05242 0.0
O470 O 0.05263 0.50864 1.02762 0.0
O471 O 0.03976 0.53689 0.99437 0.0
H472 H 0.9433 0.57585 1.00949 0.0
H473 H 0.90395 0.60107 1.00587 0.0
H474 H 0.96523 0.6713 0.97828 0.0
H475 H 1.00475 0.64587 0.98127 0.0
H476 H 0.10238 0.50161 0.08797 0.0
H477 H 0.14083 0.4761 0.0895 0.0
H478 H 0.07473 0.40202 0.08468 0.0
H479 H 0.03598 0.42787 0.08458 0.0
C480 C 0.21779 0.17028 0.32099 0.0
C481 C 0.24508 0.18462 0.33115 0.0
C482 C 0.19674 0.15702 0.33815 0.0
C483 C 0.20368 0.15791 0.3659 0.0
C484 C 0.23192 0.17119 0.37616 0.0
C485 C 0.25236 0.1848 0.3585 0.0
C486 C 0.16655 0.14362 0.32667 0.0
C487 C 0.24015 0.17169 0.40571 0.0
C488 C 0.14146 0.14759 0.41251 0.0
C489 C 0.13943 0.1205 0.41984 0.0
C490 C 0.16217 0.16009 0.39453 0.0
C491 C 0.18121 0.14504 0.38419 0.0
C492 C 0.17878 0.11757 0.39113 0.0
C493 C 0.15771 0.10556 0.40879 0.0
C494 C 0.16418 0.18944 0.38711 0.0
C495 C 0.19883 0.10107 0.38036 0.0
H496 H 0.21228 0.17093 0.29972 0.0
H497 H 0.27351 0.19637 0.366 0.0
H498 H 0.15926 0.12324 0.33561 0.0
H499 H 0.15032 0.15572 0.33146 0.0
H500 H 0.16606 0.14181 0.30466 0.0
H501 H 0.2628 0.18356 0.41035 0.0
H502 H 0.22434 0.18044 0.41648 0.0
H503 H 0.23879 0.15081 0.41349 0.0
H504 H 0.12731 0.15904 0.42128 0.0
H505 H 0.1565 0.08473 0.41497 0.0
H506 H 0.16149 0.19188 0.36514 0.0
H507 H 0.18631 0.20131 0.39347 0.0
H508 H 0.1472 0.19801 0.39645 0.0
H509 H 0.19524 0.0998 0.35836 0.0
H510 H 0.195 0.08028 0.38894 0.0
H511 H 0.22227 0.11096 0.38473 0.0
C512 C 0.27885 0.8668 0.86038 0.0
C513 C 0.2762 0.83886 0.85876 0.0
C514 C 0.30302 0.8828 0.87408 0.0
C515 C 0.3253 0.87059 0.88613 0.0
C516 C 0.32274 0.84239 0.8849 0.0
C517 C 0.29814 0.82677 0.8711 0.0
C518 C 0.30485 0.91283 0.87519 0.0
C519 C 0.34587 0.82884 0.89835 0.0
C520 C 0.3986 0.91824 0.90128 0.0
C521 C 0.39647 0.92261 0.92829 0.0
C522 C 0.37595 0.90031 0.88738 0.0
C523 C 0.35071 0.88735 0.9009 0.0
C524 C 0.34881 0.89178 0.92829 0.0
C525 C 0.37189 0.90926 0.94169 0.0
C526 C 0.37864 0.89569 0.8582 0.0
C527 C 0.32172 0.87948 0.94314 0.0
H528 H 0.26231 0.87632 0.85032 0.0
H529 H 0.29605 0.80516 0.86996 0.0
H530 H 0.31057 0.92013 0.89582 0.0
H531 H 0.32254 0.9235 0.86248 0.0
H532 H 0.28382 0.91847 0.86808 0.0
H533 H 0.34145 0.80693 0.89437 0.0
H534 H 0.368 0.83835 0.89148 0.0
H535 H 0.34662 0.83159 0.92023 0.0
H536 H 0.41766 0.92899 0.89111 0.0
H537 H 0.37024 0.91341 0.96254 0.0
H538 H 0.36107 0.9031 0.84616 0.0
H539 H 0.37551 0.87379 0.8546 0.0
H540 H 0.40041 0.90608 0.85109 0.0
H541 H 0.30369 0.88997 0.93685 0.0
H542 H 0.32584 0.88138 0.96509 0.0
H543 H 0.31389 0.85787 0.93845 0.0
C544 C 0.59345 0.44411 0.71149 0.0
C545 C 0.61906 0.43373 0.71035 0.0
C546 C 0.58418 0.46004 0.69047 0.0
C547 C 0.60025 0.46514 0.66703 0.0
C548 C 0.62599 0.45436 0.66565 0.0
C549 C 0.63535 0.43927 0.68744 0.0
C550 C 0.55693 0.47123 0.69334 0.0
C551 C 0.64368 0.45862 0.64109 0.0
C552 C 0.55783 0.4862 0.6045 0.0
C553 C 0.56834 0.51426 0.60336 0.0
C554 C 0.56856 0.46994 0.6245 0.0
C555 C 0.59015 0.4819 0.64428 0.0
C556 C 0.60113 0.51018 0.64291 0.0
C557 C 0.59026 0.5259 0.62252 0.0
C558 C 0.55661 0.43991 0.62457 0.0
C559 C 0.62365 0.52407 0.66363 0.0
H560 H 0.58066 0.43982 0.72905 0.0
H561 H 0.65497 0.4311 0.68624 0.0
H562 H 0.5612 0.49299 0.68785 0.0
H563 H 0.53883 0.46075 0.67958 0.0
H564 H 0.5493 0.46865 0.71397 0.0
H565 H 0.65906 0.4446 0.64078 0.0
H566 H 0.62894 0.45582 0.62271 0.0
H567 H 0.65687 0.47955 0.64064 0.0
H568 H 0.54088 0.47691 0.58989 0.0
H569 H 0.5985 0.54752 0.62197 0.0
H570 H 0.54445 0.43368 0.64283 0.0
H571 H 0.57507 0.42913 0.6249 0.0
H572 H 0.54146 0.43343 0.60692 0.0
H573 H 0.61367 0.52228 0.68329 0.0
H574 H 0.63169 0.54577 0.65876 0.0
H575 H 0.64283 0.5142 0.66561 0.0
C576 C 0.94006 0.6295 0.20473 0.0
C577 C 0.91418 0.63957 0.20024 0.0
C578 C 0.95095 0.61565 0.18481 0.0
C579 C 0.93629 0.6122 0.1591 0.0
C580 C 0.91018 0.62254 0.15438 0.0
C581 C 0.89927 0.63564 0.175 0.0
C582 C 0.97864 0.6051 0.19123 0.0
C583 C 0.89353 0.61973 0.12754 0.0
C584 C 0.98159 0.59997 0.1003 0.0
C585 C 0.9748 0.57176 0.09817 0.0
C586 C 0.96933 0.61325 0.11982 0.0
C587 C 0.9487 0.59825 0.1373 0.0
C588 C 0.94097 0.56979 0.13451 0.0
C589 C 0.95455 0.55692 0.11556 0.0
C590 C 0.9788 0.64344 0.12194 0.0
C591 C 0.91846 0.5528 0.15178 0.0
H592 H 0.95188 0.63249 0.22405 0.0
H593 H 0.87944 0.6435 0.17112 0.0
H594 H 0.9748 0.58341 0.18644 0.0
H595 H 0.99648 0.61596 0.17877 0.0
H596 H 0.98632 0.6076 0.21255 0.0
H597 H 0.87808 0.63371 0.12507 0.0
H598 H 0.90884 0.62362 0.11108 0.0
H599 H 0.88054 0.5988 0.12561 0.0
H600 H 0.99734 0.6117 0.08716 0.0
H601 H 0.94894 0.53516 0.11407 0.0
H602 H 0.98895 0.64871 0.14216 0.0
H603 H 0.95926 0.65278 0.11912 0.0
H604 H 0.99494 0.65232 0.10698 0.0
H605 H 0.92778 0.55262 0.17263 0.0
H606 H 0.91179 0.53169 0.1449 0.0
H607 H 0.89849 0.56153 0.15188 0.0
C608 C 0.4167 0.16812 0.13663 0.0
C609 C 0.43682 0.19058 0.14655 0.0
C610 C 0.42625 0.14901 0.12223 0.0
C611 C 0.45648 0.15315 0.11729 0.0
C612 C 0.47669 0.17659 0.12605 0.0
C613 C 0.46657 0.19512 0.14109 0.0
C614 C 0.40444 0.12362 0.11399 0.0
C615 C 0.50892 0.18159 0.12014 0.0
C616 C 0.48557 0.09087 0.10828 0.0
C617 C 0.48332 0.08937 0.08061 0.0
C618 C 0.47693 0.11183 0.12064 0.0
C619 C 0.46706 0.13188 0.10456 0.0
C620 C 0.46547 0.13061 0.07646 0.0
C621 C 0.47313 0.10881 0.06471 0.0
C622 C 0.47796 0.11231 0.15074 0.0
C623 C 0.45551 0.15205 0.05892 0.0
H624 H 0.39375 0.16479 0.14153 0.0
H625 H 0.48182 0.21259 0.14919 0.0
H626 H 0.40523 0.12017 0.0924 0.0
H627 H 0.4104 0.10601 0.12488 0.0
H628 H 0.38144 0.12436 0.11826 0.0
H629 H 0.52185 0.20046 0.12917 0.0
H630 H 0.51875 0.16453 0.12772 0.0
H631 H 0.51107 0.18293 0.09824 0.0
H632 H 0.49375 0.0755 0.12013 0.0
H633 H 0.47204 0.10733 0.04315 0.0
H634 H 0.45563 0.11205 0.15757 0.0
H635 H 0.49272 0.13113 0.15799 0.0
H636 H 0.48594 0.09487 0.16009 0.0
H637 H 0.43139 0.15021 0.06009 0.0
H638 H 0.46023 0.15028 1.03771 0.0
H639 H 0.46651 0.17244 0.06585 0.0
C640 C 0.09894 0.87205 0.63386 0.0
C641 C 0.08607 0.86143 0.65744 0.0
C642 C 0.09056 0.89404 0.62044 0.0
C643 C 0.06868 0.90576 0.63082 0.0
C644 C 0.05534 0.89502 0.65458 0.0
C645 C 0.06441 0.87303 0.66781 0.0
C646 C 0.10542 0.90487 0.59526 0.0
C647 C 0.03122 0.90649 0.6657 0.0
C648 C 0.07001 0.97811 0.60824 0.0
C649 C 0.04683 0.97463 0.58874 0.0
C650 C 0.07661 0.95588 0.62281 0.0
C651 C 0.06032 0.92959 0.61694 0.0
C652 C 0.03717 0.92605 0.59685 0.0
C653 C 0.03048 0.9487 0.58322 0.0
C654 C 0.10087 0.96049 0.64459 0.0
C655 C 0.02011 0.89839 0.58905 0.0
H656 H 0.1159 0.86321 0.62601 0.0
H657 H 0.05428 0.86464 0.68593 0.0
H658 H 0.08871 0.90672 0.57897 0.0
H659 H 0.11906 0.92532 0.59883 0.0
H660 H 0.11988 0.89186 0.58848 0.0
H661 H 0.02501 0.89761 0.68555 0.0
H662 H 0.03823 0.92869 0.66745 0.0
H663 H 1.01134 0.90245 0.65181 0.0
H664 H 0.08251 0.99826 0.61248 0.0
H665 H 1.01285 0.94607 0.56771 0.0
H666 H 0.11842 0.94979 0.64004 0.0
H667 H 0.09194 0.95206 0.66377 0.0
H668 H 0.11091 0.9822 0.64715 0.0
H669 H 0.03454 0.88802 0.57826 0.0
H670 H 1.00024 0.89932 0.57587 0.0
H671 H 1.01314 0.88591 0.60696 0.0
C672 C 0.83751 0.41947 0.94595 0.0
C673 C 0.83502 0.42764 0.91907 0.0
C674 C 0.86203 0.43114 0.96277 0.0
C675 C 0.88434 0.45193 0.95276 0.0
C676 C 0.88265 0.45945 0.92546 0.0
C677 C 0.85838 0.44695 0.90894 0.0
C678 C 0.86355 0.42188 0.99155 0.0
C679 C 0.90614 0.48118 0.91377 0.0
C680 C 0.92517 0.50257 1.00389 0.0
C681 C 0.95208 0.49453 1.00802 0.0
C682 C 0.90334 0.48931 0.98538 0.0
C683 C 0.90829 0.46704 0.97124 0.0
C684 C 0.93581 0.45921 0.97515 0.0
C685 C 0.95744 0.47318 0.99341 0.0
C686 C 0.87496 0.49919 0.98089 0.0
C687 C 0.9422 0.4355 0.96094 0.0
H688 H 0.81984 0.40463 0.95419 0.0
H689 H 0.85749 0.45276 0.88803 0.0
H690 H 0.88578 0.41806 0.99729 0.0
H691 H 0.85981 0.43796 1.00456 0.0
H692 H 0.8468 0.40324 0.99542 0.0
H693 H 0.90044 0.48618 0.89269 0.0
H694 H 0.90956 0.49979 0.92561 0.0
H695 H 0.92742 0.47448 0.91463 0.0
H696 H 0.92131 0.51933 1.01503 0.0
H697 H 0.97839 0.46706 0.9967 0.0
H698 H 0.85612 0.48322 0.98691 0.0
H699 H 0.87109 0.50367 0.95937 0.0
H700 H 0.87517 0.51762 0.99232 0.0
H701 H 0.93093 0.4166 0.97082 0.0
H702 H 0.96622 0.43576 0.96156 0.0
H703 H 0.9337 0.43502 0.93983 0.0
C704 C 0.68695 0.61862 0.40541 0.0
C705 C 0.70978 0.64079 0.41271 0.0
C706 C 0.66499 0.60693 0.42305 0.0
C707 C 0.66476 0.61806 0.44852 0.0
C708 C 0.68693 0.64087 0.45577 0.0
C709 C 0.70922 0.65162 0.43812 0.0
C710 C 0.64197 0.58256 0.41435 0.0
C711 C 0.68756 0.65358 0.4826 0.0
C712 C 0.59387 0.60338 0.48689 0.0
C713 C 0.59835 0.58231 0.50431 0.0
C714 C 0.6149 0.61478 0.46837 0.0
C715 C 0.64174 0.60568 0.46781 0.0
C716 C 0.64659 0.58479 0.48589 0.0
C717 C 0.62463 0.57301 0.50342 0.0
C718 C 0.6079 0.63597 0.44879 0.0
C719 C 0.67464 0.57424 0.48629 0.0
H720 H 0.68595 0.61022 0.38577 0.0
H721 H 0.72659 0.66827 0.4447 0.0
H722 H 0.64102 0.56606 0.42947 0.0
H723 H 0.61991 0.58779 0.41267 0.0
H724 H 0.64642 0.57494 0.39485 0.0
H725 H 0.70431 0.67272 0.48436 0.0
H726 H 0.66562 0.65775 0.48617 0.0
H727 H 0.69264 0.63934 0.49851 0.0
H728 H 0.57328 0.61019 0.48695 0.0
H729 H 0.62803 0.55644 0.51651 0.0
H730 H 0.60499 0.62772 0.42838 0.0
H731 H 0.62642 0.65381 0.44878 0.0
H732 H 0.58742 0.64258 0.45326 0.0
H733 H 0.67388 0.56125 0.46879 0.0
H734 H 0.67758 0.56209 0.50463 0.0
H735 H 0.6942 0.591 0.48495 0.0
C736 C 0.24373 0.38005 0.15384 0.0
C737 C 0.25109 0.35923 0.13989 0.0
C738 C 0.22167 0.39309 0.14337 0.0
C739 C 0.20615 0.38427 0.11901 0.0
C740 C 0.21356 0.36312 0.10502 0.0
C741 C 0.23627 0.35106 0.11552 0.0
C742 C 0.21478 0.41606 0.15845 0.0
C743 C 0.19741 0.35314 0.07908 0.0
C744 C 0.12981 0.39902 0.10999 0.0
C745 C 0.13443 0.42144 0.09257 0.0
C746 C 0.1528 0.38617 0.11796 0.0
C747 C 0.18126 0.39632 0.10874 0.0
C748 C 0.1859 0.41823 0.09031 0.0
C749 C 0.16233 0.43044 0.0823 0.0
C750 C 0.1468 0.36222 0.13692 0.0
C751 C 0.21599 0.42992 0.08017 0.0
H752 H 0.25539 0.3862 0.17274 0.0
H753 H 0.24207 0.33476 0.10498 0.0
H754 H 0.21375 0.43346 0.14477 0.0
H755 H 0.19285 0.40962 0.16696 0.0
H756 H 0.23144 0.42281 0.17499 0.0
H757 H 0.20404 0.33487 0.07207 0.0
H758 H 0.17322 0.34841 0.08134 0.0
H759 H 0.20207 0.36918 0.0635 0.0
H760 H 0.1085 0.39213 0.11837 0.0
H761 H 0.16599 0.44751 0.06852 0.0
H762 H 0.15821 0.36779 0.15662 0.0
H763 H 0.15558 0.34534 0.1294 0.0
H764 H 0.12286 0.35503 0.1398 0.0
H765 H 0.22851 0.4445 0.09488 0.0
H766 H 0.21427 0.44084 0.06083 0.0
H767 H 0.22889 0.41423 0.07762 0.0
C768 C 0.59435 0.21145 0.93955 0.0
C769 C 0.61232 0.21032 0.91837 0.0
C770 C 0.58192 0.18801 0.9541 0.0
C771 C 0.58763 0.16271 0.94742 0.0
C772 C 0.60593 0.16158 0.92603 0.0
C773 C 0.61813 0.18538 0.91186 0.0
C774 C 0.56278 0.19037 0.97675 0.0
C775 C 0.61215 0.13512 0.91773 0.0
C776 C 0.57027 0.10342 0.9977 0.0
C777 C 0.54225 0.08999 0.98788 0.0
C778 C 0.58558 0.12693 0.98463 0.0
C779 C 0.57252 0.13728 0.96133 0.0
C780 C 0.54438 0.1235 0.95138 0.0
C781 C 0.52976 0.10024 0.9647 0.0
C782 C 0.61564 0.14081 0.9958 0.0
C783 C 0.52919 0.13368 0.92695 0.0
H784 H 0.59028 0.2308 0.9449 0.0
H785 H 0.63229 0.18452 0.89568 0.0
H786 H 0.54113 0.17618 0.97411 0.0
H787 H 0.57351 0.18479 0.99581 0.0
H788 H 0.55891 0.21109 0.97837 0.0
H789 H 0.62917 0.13789 0.90269 0.0
H790 H 0.61963 0.12407 0.9353 0.0
H791 H 0.59154 0.12231 0.90907 0.0
H792 H 0.58011 0.09571 1.01556 0.0
H793 H 0.50807 0.09015 0.95693 0.0
H794 H 0.61528 0.16178 1.0011 0.0
H795 H 0.63209 0.14198 0.98046 0.0
H796 H 0.62298 0.13021 1.0138 0.0
H797 H 0.52287 0.15285 0.9316 0.0
H798 H 0.50896 0.11908 0.92002 0.0
H799 H 0.5443 0.13794 0.91036 0.0
C800 C 0.91211 0.8635 0.43793 0.0
C801 C 0.92199 0.85987 0.41255 0.0
C802 C 0.92402 0.88671 0.45324 0.0
C803 C 0.94674 0.90733 0.44337 0.0
C804 C 0.95656 0.90406 0.41767 0.0
C805 C 0.94417 0.88072 0.40272 0.0
C806 C 0.91229 0.88903 0.48022 0.0
C807 C 0.98093 0.92495 0.40612 0.0
C808 C 0.96734 0.97802 0.47558 0.0
C809 C 0.99277 0.97623 0.49166 0.0
C810 C 0.95196 0.95587 0.45998 0.0
C811 C 0.96184 0.9311 0.4606 0.0
C812 C 0.98695 0.92918 0.47748 0.0
C813 C 1.00197 0.95154 0.49247 0.0
C814 C 0.92547 0.95914 0.44233 0.0
C815 C 0.99824 0.90339 0.47967 0.0
H816 H 0.89542 0.84783 0.44636 0.0
H817 H 0.95198 0.87899 0.38312 0.0
H818 H 0.93067 0.89349 0.49567 0.0
H819 H 0.90067 0.90602 0.47974 0.0
H820 H 0.89665 0.87039 0.48625 0.0
H821 H 0.98281 0.922 0.38453 0.0
H822 H 0.97727 0.94555 0.40892 0.0
H823 H 1.00225 0.92364 0.41675 0.0
H824 H 0.95991 0.99688 0.47462 0.0
H825 H 0.02131 0.94964 0.50498 0.0
H826 H 0.90613 0.94306 0.44698 0.0
H827 H 0.92995 0.95691 0.42116 0.0
H828 H 0.91972 0.97906 0.44464 0.0
H829 H 0.98072 0.88673 0.4868 0.0
H830 H 0.01804 0.90505 0.49358 0.0
H831 H 1.00392 0.89784 0.45976 0.0
C832 C 0.28889 0.66927 0.65915 0.0
C833 C 0.28828 0.67159 0.68689 0.0
C834 C 0.30985 0.65713 0.64799 0.0
C835 C 0.33112 0.64756 0.66487 0.0
C836 C 0.32984 0.64877 0.69284 0.0
C837 C 0.30816 0.66022 0.70344 0.0
C838 C 0.30985 0.65534 0.61807 0.0
C839 C 0.35245 0.63949 0.71168 0.0
C840 C 0.37677 0.60174 0.63672 0.0
C841 C 0.4029 0.62017 0.6314 0.0
C842 C 0.35332 0.61026 0.64798 0.0
C843 C 0.35586 0.63792 0.65334 0.0
C844 C 0.38234 0.65652 0.64801 0.0
C845 C 0.40559 0.64737 0.63729 0.0
C846 C 0.32587 0.58971 0.65422 0.0
C847 C 0.38598 0.6862 0.65322 0.0
H848 H 0.27382 0.6779 0.64603 0.0
H849 H 0.30743 0.66092 0.72491 0.0
H850 H 0.33108 0.66689 0.61091 0.0
H851 H 0.30781 0.63405 0.61241 0.0
H852 H 0.29153 0.66323 0.60769 0.0
H853 H 0.34547 0.63731 0.73253 0.0
H854 H 0.35675 0.61998 0.70546 0.0
H855 H 0.37359 0.65454 0.7113 0.0
H856 H 0.3748 0.58067 0.63222 0.0
H857 H 0.42573 0.66162 0.63288 0.0
H858 H 0.30648 0.59464 0.64273 0.0
H859 H 0.32169 0.59031 0.67568 0.0
H860 H 0.32759 0.5689 0.64945 0.0
H861 H 0.37032 0.69471 0.63973 0.0
H862 H 0.40871 0.69765 0.64996 0.0
H863 H 0.38071 0.68928 0.67399 0.0
C864 C 0.82222 0.88526 0.7558 0.0
C865 C 0.79379 0.87499 0.74489 0.0
C866 C 0.84384 0.90008 0.73998 0.0
C867 C 0.8365 0.90474 0.71281 0.0
C868 C 0.80739 0.89518 0.70195 0.0
C869 C 0.78624 0.88017 0.71825 0.0
C870 C 0.87463 0.91013 0.75214 0.0
C871 C 0.79898 0.89961 0.67291 0.0
C872 C 0.8834 0.96133 0.67491 0.0
C873 C 0.89959 0.94731 0.65998 0.0
C874 C 0.86335 0.94774 0.69283 0.0
C875 C 0.85938 0.91949 0.69567 0.0
C876 C 0.87655 0.90529 0.68157 0.0
C877 C 0.8967 0.91947 0.66393 0.0
C878 C 0.8453 0.96339 0.70762 0.0
C879 C 0.87303 0.87511 0.68455 0.0
H880 H 0.82775 0.88077 0.77649 0.0
H881 H 0.76423 0.87164 0.71001 0.0
H882 H 0.89093 0.90266 0.74078 0.0
H883 H 0.88034 0.93246 0.751 0.0
H884 H 0.87693 0.90363 0.77334 0.0
H885 H 0.7747 0.89449 0.66869 0.0
H886 H 0.80737 0.92085 0.66665 0.0
H887 H 0.80917 0.88673 0.66052 0.0
H888 H 0.88517 0.98279 0.67156 0.0
H889 H 0.90952 0.90871 0.6526 0.0
H890 H 0.84703 0.9589 0.72933 0.0
H891 H 0.82169 0.95716 0.70088 0.0
H892 H 0.85238 0.9855 0.70435 0.0
H893 H 0.87903 0.86977 0.70543 0.0
H894 H 0.88704 0.86701 0.67109 0.0
H895 H 0.84966 0.865 0.6802 0.0
C896 C 0.74567 0.20798 0.23772 0.0
C897 C 0.7581 0.23245 0.22519 0.0
C898 C 0.72193 0.19006 0.22541 0.0
C899 C 0.71063 0.19677 0.19995 0.0
C900 C 0.72359 0.22102 0.18682 0.0
C901 C 0.74724 0.23864 0.19965 0.0
C902 C 0.70871 0.16413 0.23976 0.0
C903 C 0.71206 0.22863 0.15953 0.0
C904 C 0.67044 0.13925 0.15781 0.0
C905 C 0.64109 0.14097 0.16015 0.0
C906 C 0.6933 0.15746 0.17062 0.0
C907 C 0.68639 0.1776 0.18634 0.0
C908 C 0.65661 0.17936 0.18888 0.0
C909 C 0.63406 0.16093 0.17545 0.0
C910 C 0.7248 0.15539 0.16697 0.0
C911 C 0.64863 0.20037 0.20596 0.0
H912 H 0.75364 0.20335 0.25767 0.0
H913 H 0.75687 0.25754 0.18995 0.0
H914 H 0.68448 0.16193 0.24048 0.0
H915 H 0.71255 0.14672 0.22873 0.0
H916 H 0.71834 0.16313 0.26046 0.0
H917 H 0.72669 0.2466 0.15085 0.0
H918 H 0.70968 0.21165 0.14562 0.0
H919 H 0.68985 0.23311 0.16101 0.0
H920 H 0.67546 0.12374 0.14556 0.0
H921 H 0.61114 0.16196 0.17697 0.0
H922 H 0.73606 0.15237 0.18657 0.0
H923 H 0.73706 0.17445 0.1581 0.0
H924 H 0.7262 0.13852 0.15388 0.0
H925 H 0.65506 0.19663 0.22715 0.0
H926 H 0.62462 0.20019 0.20424 0.0
H927 H 0.66096 0.22075 0.20031 0.0
C928 C 0.42269 0.65033 0.4078 0.0
C929 C 0.41955 0.64179 0.38122 0.0
C930 C 0.43325 0.63493 0.42866 0.0
C931 C 0.44207 0.61068 0.42294 0.0
C932 C 0.43909 0.60207 0.39607 0.0
C933 C 0.42743 0.61737 0.37574 0.0
C934 C 0.43525 0.64496 0.45681 0.0
C935 C 0.44863 0.57677 0.38866 0.0
C936 C 0.49666 0.58481 0.47263 0.0
C937 C 0.47874 0.56222 0.48443 0.0
C938 C 0.48516 0.6006 0.45269 0.0
C939 C 0.45461 0.59442 0.44481 0.0
C940 C 0.43623 0.5722 0.45747 0.0
C941 C 0.44856 0.55613 0.47666 0.0
C942 C 0.50596 0.62345 0.43948 0.0
C943 C 0.40338 0.56567 0.45105 0.0
H944 H 0.41665 0.66912 0.41234 0.0
H945 H 0.42541 0.61068 0.3553 0.0
H946 H 0.42774 0.62812 0.47106 0.0
H947 H 0.45854 0.65414 0.46263 0.0
H948 H 0.42186 0.66044 0.45879 0.0
H949 H 0.44865 0.57466 0.36673 0.0
H950 H 0.4711 0.57666 0.3975 0.0
H951 H 0.43343 0.55891 0.39683 0.0
H952 H 0.52001 0.58964 0.47837 0.0
H953 H 0.43446 0.53895 0.48589 0.0
H954 H 0.49917 0.64275 0.44247 0.0
H955 H 0.50498 0.62023 0.41766 0.0
H956 H 0.52916 0.62536 0.4474 0.0
H957 H 0.39384 0.58294 0.45645 0.0
H958 H 0.39213 0.54737 0.46194 0.0
H959 H 0.3986 0.5626 0.42935 0.0
C960 C 0.14025 0.45883 0.88794 0.0
C961 C 0.12683 0.43194 0.88156 0.0
C962 C 0.12997 0.47293 0.90817 0.0
C963 C 0.10502 0.46046 0.92245 0.0
C964 C 0.09148 0.43342 0.91638 0.0
C965 C 0.10271 0.41955 0.89669 0.0
C966 C 0.14608 0.50128 0.91444 0.0
C967 C 0.06431 0.41918 0.93012 0.0
C968 C 0.08814 0.48755 0.98978 0.0
C969 C 0.06765 0.50358 0.98208 0.0
C970 C 0.10088 0.47401 0.97074 0.0
C971 C 0.09256 0.47575 0.94311 0.0
C972 C 0.07158 0.49162 0.93534 0.0
C973 C 0.05982 0.5055 0.95468 0.0
C974 C 0.12328 0.45773 0.98027 0.0
C975 C 0.06121 0.49379 0.90647 0.0
H976 H 0.15866 0.46932 0.87691 0.0
H977 H 0.09224 0.39871 0.89343 0.0
H978 H 0.13047 0.5151 0.91365 0.0
H979 H 0.15623 0.50172 0.93504 0.0
H980 H 0.16372 0.50904 0.90049 0.0
H981 H 0.05848 0.39729 0.92588 0.0
H982 H 0.06741 0.42171 0.95202 0.0
H983 H 0.0454 0.42826 0.92315 0.0
H984 H 0.09442 0.4857 1.01077 0.0
H985 H 0.04381 0.51744 0.94828 0.0
H986 H 0.14424 0.46529 0.97036 0.0
H987 H 0.1153 0.43636 0.97468 0.0
H988 H 0.12787 0.45862 1.00222 0.0
H989 H 0.07982 0.50458 0.89483 0.0
H990 H 0.04289 0.50475 0.90384 0.0
H991 H 0.05366 0.47341 0.89796 0.0
C992 C 0.59176 0.87668 0.95196 0.0
C993 C 0.6047 0.88552 0.92796 0.0
C994 C 0.58383 0.89514 0.96874 0.0
C995 C 0.58907 0.92265 0.96098 0.0
C996 C 0.60316 0.93172 0.9373 0.0
C997 C 0.61098 0.91299 0.92113 0.0
C998 C 0.56901 0.88519 0.99416 0.0
C999 C 0.60932 0.9611 0.92872 0.0
C1000 C 0.5392 0.96687 0.98013 0.0
C1001 C 0.55724 0.98316 0.99912 0.0
C1002 C 0.5489 0.94614 0.96846 0.0
C1003 C 0.57739 0.94189 0.97594 0.0
C1004 C 0.59574 0.95814 0.99522 0.0
C1005 C 0.58538 0.9788 1.00665 0.0
C1006 C 0.52898 0.92938 0.94758 0.0
C1007 C 0.62609 0.95363 1.00377 0.0
H1008 H 0.58736 0.85541 0.95728 0.0
H1009 H 0.62203 0.91984 0.903 0.0
H1010 H 0.57903 0.89821 1.01107 0.0
H1011 H 0.54536 0.8862 0.9919 0.0
H1012 H 0.57051 0.86406 0.99922 0.0
H1013 H 0.61994 0.96458 0.90933 0.0
H1014 H 0.58847 0.96855 0.92686 0.0
H1015 H 0.62401 0.97336 0.94403 0.0
H1016 H 0.51738 0.97027 0.97435 0.0
H1017 H 0.59905 0.99113 1.02179 0.0
H1018 H 0.52591 0.90767 0.95299 0.0
H1019 H 0.53934 0.93241 0.92808 0.0
H1020 H 0.50691 0.93463 0.94512 0.0
H1021 H 0.62404 0.93362 1.01384 0.0
H1022 H 0.63826 0.96927 1.01768 0.0
H1023 H 0.63938 0.95354 0.98618 0.0
C1024 C 0.94752 0.1797 0.40655 0.0
C1025 C 0.95225 0.20611 0.41597 0.0
C1026 C 0.95758 0.1593 0.42141 0.0
C1027 C 0.97239 0.16521 0.44663 0.0
C1028 C 0.97785 0.1919 0.45613 0.0
C1029 C 0.96772 0.21207 0.44067 0.0
C1030 C 0.95131 0.13117 0.41045 0.0
C1031 C 0.99421 0.19906 0.48267 0.0
C1032 C 0.96655 0.10493 0.49424 0.0
C1033 C 0.99387 0.09782 0.49205 0.0
C1034 C 0.95977 0.12743 0.48028 0.0
C1035 C 0.98063 0.14299 0.46349 0.0
C1036 C 1.00838 0.13607 0.4615 0.0
C1037 C 1.01468 0.11364 0.47586 0.0
C1038 C 0.93017 0.1345 0.48336 0.0
C1039 C 0.03109 0.15162 0.44345 0.0
H1040 H 0.93511 0.17467 0.38777 0.0
H1041 H 0.97185 0.23247 0.44794 0.0
H1042 H 0.9711 0.12217 0.4131 0.0
H1043 H 0.9335 0.11819 0.42153 0.0
H1044 H 0.94417 0.13086 0.38894 0.0
H1045 H 0.99515 0.22031 0.48798 0.0
H1046 H 0.9835 0.18562 0.49868 0.0
H1047 H 1.01711 0.19597 0.48206 0.0
H1048 H 0.95057 0.09309 0.50709 0.0
H1049 H 0.03589 0.10831 0.47411 0.0
H1050 H 0.91733 0.13269 0.46391 0.0
H1051 H 0.9333 0.15574 0.4896 0.0
H1052 H 0.91702 0.12128 0.49824 0.0
H1053 H 0.02426 0.14604 0.42247 0.0
H1054 H 0.05328 0.14712 0.4481 0.0
H1055 H 0.03277 0.17363 0.44496 0.0
C1056 C 0.17498 0.64106 0.17228 0.0
C1057 C 0.20425 0.64911 0.16475 0.0
C1058 C 0.15217 0.62894 0.15401 0.0
C1059 C 0.15882 0.6241 0.12768 0.0
C1060 C 0.18823 0.63254 0.11987 0.0
C1061 C 0.21047 0.64521 0.13836 0.0
C1062 C 0.12106 0.62086 0.16306 0.0
C1063 C 0.19632 0.62768 0.09206 0.0
C1064 C 0.10668 0.56779 0.08938 0.0
C1065 C 0.09185 0.58229 0.07118 0.0
C1066 C 0.12868 0.58109 0.10773 0.0
C1067 C 0.13525 0.60966 0.10845 0.0
C1068 C 0.1196 0.62435 0.09047 0.0
C1069 C 0.09835 0.61049 0.07184 0.0
C1070 C 0.14511 0.56456 0.1261 0.0
C1071 C 0.12468 0.65467 0.09132 0.0
H1072 H 0.16994 0.64415 0.19259 0.0
H1073 H 0.23303 0.65112 0.13245 0.0
H1074 H 0.10532 0.62766 0.14827 0.0
H1075 H 0.1146 0.59858 0.16465 0.0
H1076 H 0.11881 0.62932 0.18276 0.0
H1077 H 0.22043 0.63386 0.08958 0.0
H1078 H 0.18903 0.606 0.08729 0.0
H1079 H 0.18474 0.63912 0.07735 0.0
H1080 H 0.10143 0.54606 0.08892 0.0
H1081 H 0.08633 0.62169 0.05809 0.0
H1082 H 0.14109 0.5679 0.14713 0.0
H1083 H 0.16921 0.57105 0.12378 0.0
H1084 H 0.13836 0.54264 0.12214 0.0
H1085 H 0.11632 0.66051 0.11002 0.0
H1086 H 0.11324 0.66323 0.07416 0.0
H1087 H 0.14858 0.66387 0.09144 0.0
C1088 C 0.36241 0.44805 0.68246 0.0
C1089 C 0.3392 0.42731 0.67287 0.0
C1090 C 0.38547 0.46052 0.66624 0.0
C1091 C 0.38554 0.45237 0.6395 0.0
C1092 C 0.36277 0.43097 0.62996 0.0
C1093 C 0.34005 0.41878 0.64662 0.0
C1094 C 0.40941 0.48284 0.67769 0.0
C1095 C 0.36218 0.42121 0.60184 0.0
C1096 C 0.42555 0.50237 0.58817 0.0
C1097 C 0.45076 0.49215 0.58428 0.0
C1098 C 0.40431 0.48968 0.606 0.0
C1099 C 0.40866 0.4666 0.62109 0.0
C1100 C 0.43463 0.45674 0.6178 0.0
C1101 C 0.45506 0.46935 0.59922 0.0
C1102 C 0.37721 0.50112 0.60875 0.0
C1103 C 0.44161 0.43358 0.63471 0.0
H1104 H 0.36266 0.45464 0.70279 0.0
H1105 H 0.32239 0.40306 0.63867 0.0
H1106 H 0.43142 0.48101 0.67149 0.0
H1107 H 0.40542 0.50255 0.67007 0.0
H1108 H 0.40989 0.48291 0.69982 0.0
H1109 H 0.34293 0.40458 0.59719 0.0
H1110 H 0.36146 0.43811 0.58746 0.0
H1111 H 0.38267 0.41399 0.59886 0.0
H1112 H 0.42236 0.52029 0.57711 0.0
H1113 H 0.47505 0.46196 0.59714 0.0
H1114 H 0.37713 0.50848 0.62929 0.0
H1115 H 0.35701 0.48516 0.60539 0.0
H1116 H 0.37615 0.51809 0.5945 0.0
H1117 H 0.44863 0.44075 0.65521 0.0
H1118 H 0.45971 0.42542 0.62679 0.0
H1119 H 0.42188 0.41702 0.63616 0.0
C1120 C 0.78475 0.68941 0.95177 0.0
C1121 C 0.7885 0.70855 0.93086 0.0
C1122 C 0.80825 0.6783 0.96216 0.0
C1123 C 0.83601 0.68594 0.95088 0.0
C1124 C 0.83975 0.70436 0.92904 0.0
C1125 C 0.81603 0.7157 0.91946 0.0
C1126 C 0.80354 0.659 0.98574 0.0
C1127 C 0.86879 0.71199 0.91581 0.0
C1128 C 0.90423 0.67522 0.99161 0.0
C1129 C 0.90688 0.6502 0.98236 0.0
C1130 C 0.88105 0.68715 0.98161 0.0
C1131 C 0.86087 0.67397 0.96149 0.0
C1132 C 0.86397 0.64894 0.95182 0.0
C1133 C 0.88673 0.63718 0.96268 0.0
C1134 C 0.87798 0.71368 0.99263 0.0
C1135 C 0.84316 0.63441 0.93016 0.0
H1136 H 0.76343 0.68325 0.96028 0.0
H1137 H 0.81931 0.73063 0.90345 0.0
H1138 H 0.81177 0.64054 0.9821 0.0
H1139 H 0.81624 0.66874 1.00353 0.0
H1140 H 0.77992 0.653 0.99035 0.0
H1141 H 0.8682 0.72687 0.89922 0.0
H1142 H 0.88675 0.72058 0.93062 0.0
H1143 H 0.87445 0.69371 0.90779 0.0
H1144 H 0.92008 0.68523 1.00674 0.0
H1145 H 0.88924 0.61799 0.95531 0.0
H1146 H 0.85627 0.71125 1.00154 0.0
H1147 H 0.87866 0.72899 0.97633 0.0
H1148 H 0.89566 0.7214 1.00806 0.0
H1149 H 0.82135 0.6262 0.93834 0.0
H1150 H 0.8514 0.61745 0.92206 0.0
H1151 H 0.83977 0.64848 0.9135 0.0
C1152 C 0.41235 0.86258 0.13966 0.0
C1153 C 0.41828 0.861 0.16741 0.0
C1154 C 0.42524 0.88522 0.12436 0.0
C1155 C 0.4452 0.90692 0.1368 0.0
C1156 C 0.45121 0.90568 0.1648 0.0
C1157 C 0.43766 0.88287 0.17974 0.0
C1158 C 0.41816 0.88547 0.09464 0.0
C1159 C 0.47198 0.92852 0.179 0.0
C1160 C 0.50388 0.949 0.09412 0.0
C1161 C 0.49267 0.97217 0.08812 0.0
C1162 C 0.48867 0.92782 0.10986 0.0
C1163 C 0.46148 0.92975 0.12017 0.0
C1164 C 0.44987 0.95308 0.11402 0.0
C1165 C 0.46549 0.97394 0.09789 0.0
C1166 C 0.50195 0.90344 0.11571 0.0
C1167 C 0.42095 0.95601 0.12443 0.0
H1168 H 0.398 0.84577 0.1296 0.0
H1169 H 0.44211 0.88228 0.20114 0.0
H1170 H 0.41248 0.90487 0.08803 0.0
H1171 H 0.43785 0.88345 0.08408 0.0
H1172 H 0.39953 0.8688 0.08848 0.0
H1173 H 0.47633 0.92362 0.20037 0.0
H1174 H 0.49332 0.93363 0.16926 0.0
H1175 H 0.46231 0.94674 0.1777 0.0
H1176 H 0.52486 0.94748 0.08663 0.0
H1177 H 0.45675 0.99184 0.09342 0.0
H1178 H 0.48632 0.88499 0.10868 0.0
H1179 H 0.50597 0.90102 0.13756 0.0
H1180 H 0.52312 0.90492 0.10603 0.0
H1181 H 0.40265 0.94124 0.1146 0.0
H1182 H 0.41668 0.97655 0.12064 0.0
H1183 H 0.42064 0.95158 0.14618 0.0
C1184 C 0.11964 0.21229 0.64101 0.0
C1185 C 0.1245 0.21047 0.66891 0.0
C1186 C 0.1074 0.18931 0.62549 0.0
C1187 C 0.09932 0.16344 0.63783 0.0
C1188 C 0.10503 0.1613 0.66582 0.0
C1189 C 0.11755 0.18455 0.68082 0.0
C1190 C 0.10207 0.193 0.59583 0.0
C1191 C 0.09769 0.13436 0.68011 0.0
C1192 C 0.03483 0.11252 0.60463 0.0
C1193 C 0.04866 0.09451 0.59213 0.0
C1194 C 0.05097 0.13448 0.61954 0.0
C1195 C 0.08222 0.13934 0.62207 0.0
C1196 C 0.09653 0.12115 0.60963 0.0
C1197 C 0.07966 0.09892 0.59501 0.0
C1198 C 0.03433 0.15255 0.63272 0.0
C1199 C 0.12972 0.1255 0.61127 0.0
H1200 H 0.1245 0.2319 0.63122 0.0
H1201 H 0.12183 0.18228 0.70211 0.0
H1202 H 0.10985 0.17745 0.58484 0.0
H1203 H 0.07804 0.19051 0.59097 0.0
H1204 H 0.11334 0.21324 0.58861 0.0
H1205 H 0.1005 0.13627 0.70213 0.0
H1206 H 0.07464 0.12395 0.67481 0.0
H1207 H 0.11237 0.12137 0.67376 0.0
H1208 H 1.01099 0.10944 0.6028 0.0
H1209 H 0.09078 0.08538 0.58541 0.0
H1210 H 0.04165 0.17364 0.62554 0.0
H1211 H 0.03921 0.15223 0.65461 0.0
H1212 H 1.01008 0.14634 0.62872 0.0
H1213 H 0.13917 0.14439 0.60037 0.0
H1214 H 0.13756 0.10861 0.60258 0.0
H1215 H 0.13837 0.12791 0.63232 0.0
C1216 C 0.7577 0.42788 0.39315 0.0
C1217 C 0.75751 0.40066 0.39872 0.0
C1218 C 0.73529 0.43988 0.40189 0.0
C1219 C 0.71256 0.42433 0.41691 0.0
C1220 C 0.71212 0.39664 0.42199 0.0
C1221 C 0.73451 0.38514 0.41269 0.0
C1222 C 0.73646 0.46934 0.39574 0.0
C1223 C 0.68837 0.37922 0.43779 0.0
C1224 C 0.67338 0.4586 0.46586 0.0
C1225 C 0.64502 0.45623 0.45331 0.0
C1226 C 0.6956 0.44868 0.45408 0.0
C1227 C 0.68998 0.43705 0.42854 0.0
C1228 C 0.6621 0.43591 0.41507 0.0
C1229 C 0.63991 0.44509 0.4277 0.0
C1230 C 0.72479 0.44976 0.46946 0.0
C1231 C 0.65556 0.42472 0.38736 0.0
H1232 H 0.77568 0.43986 0.38246 0.0
H1233 H 0.73453 0.36409 0.417 0.0
H1234 H 0.71437 0.47259 0.38862 0.0
H1235 H 0.74315 0.48109 0.41416 0.0
H1236 H 0.75249 0.47739 0.38044 0.0
H1237 H 0.69271 0.35878 0.44207 0.0
H1238 H 0.68651 0.38881 0.45698 0.0
H1239 H 0.66676 0.37706 0.42648 0.0
H1240 H 0.6783 0.46788 0.48517 0.0
H1241 H 0.61827 0.4427 0.41765 0.0
H1242 H 0.743 0.46157 0.458 0.0
H1243 H 0.72893 0.42909 0.47231 0.0
H1244 H 0.72556 0.45894 0.48934 0.0
H1245 H 0.6707 0.43725 0.37343 0.0
H1246 H 0.63246 0.42433 0.3799 0.0
H1247 H 0.65954 0.40397 0.38699 0.0
loop_
_geom_bond_atom_site_label_1
_geom_bond_atom_site_label_2
_geom_bond_distance
_geom_bond_site_symmetry_2
_ccdc_geom_bond_type
C0 C1 1.264 . S
C0 C5 1.479 . S
C0 C10 1.465 . S
C1 C0 1.264 . S
C1 C3 1.339 . S
C1 H28 0.931 . S
C2 C3 1.395 . S
C2 C4 1.320 . S
C3 C1 1.339 . S
C3 C2 1.395 . S
C3 H29 0.929 . S
C4 C2 1.320 . S
C4 C5 1.405 . S
C4 H30 0.930 . S
C5 C0 1.479 . S
C5 C4 1.405 . S
C5 H31 0.931 . S
U6 O7 2.454 . S
U6 O8 2.458 . S
U6 C9 2.984 . S
U6 C10 2.847 . S
U6 C23 2.882 . S
U6 O24 2.441 . S
U6 O25 2.420 . S
U6 O26 2.455 . S
U6 O27 2.449 . S
O7 U6 2.454 . S
O7 C9 1.353 . S
O8 U6 2.458 . S
O8 C9 1.286 . S
C9 U6 2.984 . S
C9 O7 1.353 . S
C9 O8 1.286 . S
C9 C11 1.363 . S
C10 C0 1.465 . S
C10 U6 2.847 . S
C10 O24 1.249 . S
C10 O25 1.202 . S
C11 C9 1.363 . S
C11 C13 1.408 . S
C11 C16 1.342 . S
C12 C13 1.310 . S
C12 C15 1.461 . S
C12 H32 0.932 . S
C13 C11 1.408 . S
C13 C12 1.310 . S
C13 H33 0.930 . S
C14 C15 1.474 . S
C14 C16 1.285 . S
C14 H34 0.929 . S
C15 C12 1.461 . S
C15 C14 1.474 . S
C16 C11 1.342 . S
C16 C14 1.285 . S
C16 H35 0.930 . S
C17 C20 1.424 . S
C17 C22 1.245 . S
C17 C23 1.428 . S
C18 C21 1.260 . S
C18 C22 1.477 . S
C18 H36 0.932 . S
C19 C20 1.384 . S
C19 C21 1.479 . S
C19 H37 0.929 . S
C20 C17 1.424 . S
C20 C19 1.384 . S
C20 H38 0.928 . S
C21 C18 1.260 . S
C21 C19 1.479 . S
C22 C17 1.245 . S
C22 C18 1.477 . S
C22 H39 0.932 . S
C23 U6 2.882 . S
C23 C17 1.428 . S
C23 O26 1.301 . S
C23 O27 1.282 . S
O24 U6 2.441 . S
O24 C10 1.249 . S
O25 U6 2.420 . S
O25 C10 1.202 . S
O26 U6 2.455 . S
O26 C23 1.301 . S
O27 U6 2.449 . S
O27 C23 1.282 . S
H28 C1 0.931 . S
H29 C3 0.929 . S
H30 C4 0.930 . S
H31 C5 0.931 . S
H32 C12 0.932 . S
H33 C13 0.930 . S
H34 C14 0.929 . S
H35 C16 0.930 . S
H36 C18 0.932 . S
H37 C19 0.929 . S
H38 C20 0.928 . S
H39 C22 0.932 . S
C40 C41 1.264 . S
C40 C45 1.479 . S
C40 C50 1.465 . S
C41 C40 1.264 . S
C41 C43 1.339 . S
C41 H68 0.931 . S
C42 C43 1.395 . S
C42 C44 1.320 . S
C43 C41 1.339 . S
C43 C42 1.395 . S
C43 H69 0.929 . S
C44 C42 1.320 . S
C44 C45 1.405 . S
C44 H70 0.930 . S
C45 C40 1.479 . S
C45 C44 1.405 . S
C45 H71 0.931 . S
U46 O47 2.454 . S
U46 O48 2.458 . S
U46 C49 2.984 . S
U46 C50 2.847 . S
U46 C63 2.882 . S
U46 O64 2.441 . S
U46 O65 2.420 . S
U46 O66 2.455 . S
U46 O67 2.449 . S
O47 U46 2.454 . S
O47 C49 1.353 . S
O48 U46 2.458 . S
O48 C49 1.286 . S
C49 U46 2.984 . S
C49 O47 1.353 . S
C49 O48 1.286 . S
C49 C51 1.363 . S
C50 C40 1.465 . S
C50 U46 2.847 . S
C50 O64 1.249 . S
C50 O65 1.202 . S
C51 C49 1.363 . S
C51 C53 1.408 . S
C51 C56 1.342 . S
C52 C53 1.310 . S
C52 C55 1.461 . S
C52 H72 0.932 . S
C53 C51 1.408 . S
C53 C52 1.310 . S
C53 H73 0.930 . S
C54 C55 1.474 . S
C54 C56 1.285 . S
C54 H74 0.929 . S
C55 C52 1.461 . S
C55 C54 1.474 . S
C56 C51 1.342 . S
C56 C54 1.285 . S
C56 H75 0.930 . S
C57 C60 1.424 . S
C57 C62 1.245 . S
C57 C63 1.428 . S
C58 C61 1.260 . S
C58 C62 1.477 . S
C58 H76 0.932 . S
C59 C60 1.384 . S
C59 C61 1.479 . S
C59 H77 0.929 . S
C60 C57 1.424 . S
C60 C59 1.384 . S
C60 H78 0.928 . S
C61 C58 1.260 . S
C61 C59 1.479 . S
C62 C57 1.245 . S
C62 C58 1.477 . S
C62 H79 0.932 . S
C63 U46 2.882 . S
C63 C57 1.428 . S
C63 O66 1.301 . S
C63 O67 1.282 . S
O64 U46 2.441 . S
O64 C50 1.249 . S
O65 U46 2.420 . S
O65 C50 1.202 . S
O66 U46 2.455 . S
O66 C63 1.301 . S
O67 U46 2.449 . S
O67 C63 1.282 . S
H68 C41 0.931 . S
H69 C43 0.929 . S
H70 C44 0.930 . S
H71 C45 0.931 . S
H72 C52 0.932 . S
H73 C53 0.930 . S
H74 C54 0.929 . S
H75 C56 0.930 . S
H76 C58 0.932 . S
H77 C59 0.929 . S
H78 C60 0.928 . S
H79 C62 0.932 . S
C80 C81 1.264 . S
C80 C85 1.479 . S
C80 C90 1.465 . S
C81 C80 1.264 . S
C81 C83 1.339 . S
C81 H108 0.931 . S
C82 C83 1.395 . S
C82 C84 1.320 . S
C83 C81 1.339 . S
C83 C82 1.395 . S
C83 H109 0.929 . S
C84 C82 1.320 . S
C84 C85 1.405 . S
C84 H110 0.930 . S
C85 C80 1.479 . S
C85 C84 1.405 . S
C85 H111 0.931 . S
U86 O87 2.454 . S
U86 O88 2.458 . S
U86 C89 2.984 . S
U86 C90 2.847 . S
U86 C103 2.882 . S
U86 O104 2.441 . S
U86 O105 2.420 . S
U86 O106 2.455 . S
U86 O107 2.449 . S
O87 U86 2.454 . S
O87 C89 1.353 . S
O88 U86 2.458 . S
O88 C89 1.286 . S
C89 U86 2.984 . S
C89 O87 1.353 . S
C89 O88 1.286 . S
C89 C91 1.363 . S
C90 C80 1.465 . S
C90 U86 2.847 . S
C90 O104 1.249 . S
C90 O105 1.202 . S
C91 C89 1.363 . S
C91 C93 1.408 . S
C91 C96 1.342 . S
C92 C93 1.310 . S
C92 C95 1.461 . S
C92 H112 0.932 . S
C93 C91 1.408 . S
C93 C92 1.310 . S
C93 H113 0.930 . S
C94 C95 1.474 . S
C94 C96 1.285 . S
C94 H114 0.929 . S
C95 C92 1.461 . S
C95 C94 1.474 . S
C96 C91 1.342 . S
C96 C94 1.285 . S
C96 H115 0.930 . S
C97 C100 1.424 . S
C97 C102 1.245 . S
C97 C103 1.428 . S
C98 C101 1.260 . S
C98 C102 1.477 . S
C98 H116 0.932 . S
C99 C100 1.384 . S
C99 C101 1.479 . S
C99 H117 0.929 . S
C100 C97 1.424 . S
C100 C99 1.384 . S
C100 H118 0.928 . S
C101 C98 1.260 . S
C101 C99 1.479 . S
C102 C97 1.245 . S
C102 C98 1.477 . S
C102 H119 0.932 . S
C103 U86 2.882 . S
C103 C97 1.428 . S
C103 O106 1.301 . S
C103 O107 1.282 . S
O104 U86 2.441 . S
O104 C90 1.249 . S
O105 U86 2.420 . S
O105 C90 1.202 . S
O106 U86 2.455 . S
O106 C103 1.301 . S
O107 U86 2.449 . S
O107 C103 1.282 . S
H108 C81 0.931 . S
H109 C83 0.929 . S
H110 C84 0.930 . S
H111 C85 0.931 . S
H112 C92 0.932 . S
H113 C93 0.930 . S
H114 C94 0.929 . S
H115 C96 0.930 . S
H116 C98 0.932 . S
H117 C99 0.929 . S
H118 C100 0.928 . S
H119 C102 0.932 . S
C120 C121 1.264 . S
C120 C125 1.479 . S
C120 C130 1.465 . S
C121 C120 1.264 . S
C121 C123 1.339 . S
C121 H148 0.931 . S
C122 C123 1.395 . S
C122 C124 1.320 . S
C123 C121 1.339 . S
C123 C122 1.395 . S
C123 H149 0.929 . S
C124 C122 1.320 . S
C124 C125 1.405 . S
C124 H150 0.930 . S
C125 C120 1.479 . S
C125 C124 1.405 . S
C125 H151 0.931 . S
U126 O127 2.454 . S
U126 O128 2.458 . S
U126 C129 2.984 . S
U126 C130 2.847 . S
U126 C143 2.882 . S
U126 O144 2.441 . S
U126 O145 2.420 . S
U126 O146 2.455 . S
U126 O147 2.449 . S
O127 U126 2.454 . S
O127 C129 1.353 . S
O128 U126 2.458 . S
O128 C129 1.286 . S
C129 U126 2.984 . S
C129 O127 1.353 . S
C129 O128 1.286 . S
C129 C131 1.363 . S
C130 C120 1.465 . S
C130 U126 2.847 . S
C130 O144 1.249 . S
C130 O145 1.202 . S
C131 C129 1.363 . S
C131 C133 1.408 . S
C131 C136 1.342 . S
C132 C133 1.310 . S
C132 C135 1.461 . S
C132 H152 0.932 . S
C133 C131 1.408 . S
C133 C132 1.310 . S
C133 H153 0.930 . S
C134 C135 1.474 . S
C134 C136 1.285 . S
C134 H154 0.929 . S
C135 C132 1.461 . S
C135 C134 1.474 . S
C136 C131 1.342 . S
C136 C134 1.285 . S
C136 H155 0.930 . S
C137 C140 1.424 . S
C137 C142 1.245 . S
C137 C143 1.428 . S
C138 C141 1.260 . S
C138 C142 1.477 . S
C138 H156 0.932 . S
C139 C140 1.384 . S
C139 C141 1.479 . S
C139 H157 0.929 . S
C140 C137 1.424 . S
C140 C139 1.384 . S
C140 H158 0.928 . S
C141 C138 1.260 . S
C141 C139 1.479 . S
C142 C137 1.245 . S
C142 C138 1.477 . S
C142 H159 0.932 . S
C143 U126 2.882 . S
C143 C137 1.428 . S
C143 O146 1.301 . S
C143 O147 1.282 . S
O144 U126 2.441 . S
O144 C130 1.249 . S
O145 U126 2.420 . S
O145 C130 1.202 . S
O146 U126 2.455 . S
O146 C143 1.301 . S
O147 U126 2.449 . S
O147 C143 1.282 . S
H148 C121 0.931 . S
H149 C123 0.929 . S
H150 C124 0.930 . S
H151 C125 0.931 . S
H152 C132 0.932 . S
H153 C133 0.930 . S
H154 C134 0.929 . S
H155 C136 0.930 . S
H156 C138 0.932 . S
H157 C139 0.929 . S
H158 C140 0.928 . S
H159 C142 0.932 . S
C160 C161 1.264 . S
C160 C165 1.479 . S
C160 C170 1.465 . S
C161 C160 1.264 . S
C161 C163 1.339 . S
C161 H188 0.931 . S
C162 C163 1.395 . S
C162 C164 1.320 . S
C163 C161 1.339 . S
C163 C162 1.395 . S
C163 H189 0.929 . S
C164 C162 1.320 . S
C164 C165 1.405 . S
C164 H190 0.930 . S
C165 C160 1.479 . S
C165 C164 1.405 . S
C165 H191 0.931 . S
U166 O167 2.454 . S
U166 O168 2.458 . S
U166 C169 2.984 . S
U166 C170 2.847 . S
U166 C183 2.882 . S
U166 O184 2.441 . S
U166 O185 2.420 . S
U166 O186 2.455 . S
U166 O187 2.449 . S
O167 U166 2.454 . S
O167 C169 1.353 . S
O168 U166 2.458 . S
O168 C169 1.286 . S
C169 U166 2.984 . S
C169 O167 1.353 . S
C169 O168 1.286 . S
C169 C171 1.363 . S
C170 C160 1.465 . S
C170 U166 2.847 . S
C170 O184 1.249 . S
C170 O185 1.202 . S
C171 C169 1.363 . S
C171 C173 1.408 . S
C171 C176 1.342 . S
C172 C173 1.310 . S
C172 C175 1.461 . S
C172 H192 0.932 . S
C173 C171 1.408 . S
C173 C172 1.310 . S
C173 H193 0.930 . S
C174 C175 1.474 . S
C174 C176 1.285 . S
C174 H194 0.929 . S
C175 C172 1.461 . S
C175 C174 1.474 . S
C176 C171 1.342 . S
C176 C174 1.285 . S
C176 H195 0.930 . S
C177 C180 1.424 . S
C177 C182 1.245 . S
C177 C183 1.428 . S
C178 C181 1.260 . S
C178 C182 1.477 . S
C178 H196 0.932 . S
C179 C180 1.384 . S
C179 C181 1.479 . S
C179 H197 0.929 . S
C180 C177 1.424 . S
C180 C179 1.384 . S
C180 H198 0.928 . S
C181 C178 1.260 . S
C181 C179 1.479 . S
C182 C177 1.245 . S
C182 C178 1.477 . S
C182 H199 0.932 . S
C183 U166 2.882 . S
C183 C177 1.428 . S
C183 O186 1.301 . S
C183 O187 1.282 . S
O184 U166 2.441 . S
O184 C170 1.249 . S
O185 U166 2.420 . S
O185 C170 1.202 . S
O186 U166 2.455 . S
O186 C183 1.301 . S
O187 U166 2.449 . S
O187 C183 1.282 . S
H188 C161 0.931 . S
H189 C163 0.929 . S
H190 C164 0.930 . S
H191 C165 0.931 . S
H192 C172 0.932 . S
H193 C173 0.930 . S
H194 C174 0.929 . S
H195 C176 0.930 . S
H196 C178 0.932 . S
H197 C179 0.929 . S
H198 C180 0.928 . S
H199 C182 0.932 . S
C200 C201 1.264 . S
C200 C205 1.479 . S
C200 C210 1.465 . S
C201 C200 1.264 . S
C201 C203 1.339 . S
C201 H228 0.931 . S
C202 C203 1.395 . S
C202 C204 1.320 . S
C203 C201 1.339 . S
C203 C202 1.395 . S
C203 H229 0.929 . S
C204 C202 1.320 . S
C204 C205 1.405 . S
C204 H230 0.930 . S
C205 C200 1.479 . S
C205 C204 1.405 . S
C205 H231 0.931 . S
U206 O207 2.454 . S
U206 O208 2.458 . S
U206 C209 2.984 . S
U206 C210 2.847 . S
U206 C223 2.882 . S
U206 O224 2.441 . S
U206 O225 2.420 . S
U206 O226 2.455 . S
U206 O227 2.449 . S
O207 U206 2.454 . S
O207 C209 1.353 . S
O208 U206 2.458 . S
O208 C209 1.286 . S
C209 U206 2.984 . S
C209 O207 1.353 . S
C209 O208 1.286 . S
C209 C211 1.363 . S
C210 C200 1.465 . S
C210 U206 2.847 . S
C210 O224 1.249 . S
C210 O225 1.202 . S
C211 C209 1.363 . S
C211 C213 1.408 . S
C211 C216 1.342 . S
C212 C213 1.310 . S
C212 C215 1.461 . S
C212 H232 0.932 . S
C213 C211 1.408 . S
C213 C212 1.310 . S
C213 H233 0.930 . S
C214 C215 1.474 . S
C214 C216 1.285 . S
C214 H234 0.929 . S
C215 C212 1.461 . S
C215 C214 1.474 . S
C216 C211 1.342 . S
C216 C214 1.285 . S
C216 H235 0.930 . S
C217 C220 1.424 . S
C217 C222 1.245 . S
C217 C223 1.428 . S
C218 C221 1.260 . S
C218 C222 1.477 . S
C218 H236 0.932 . S
C219 C220 1.384 . S
C219 C221 1.479 . S
C219 H237 0.929 . S
C220 C217 1.424 . S
C220 C219 1.384 . S
C220 H238 0.928 . S
C221 C218 1.260 . S
C221 C219 1.479 . S
C222 C217 1.245 . S
C222 C218 1.477 . S
C222 H239 0.932 . S
C223 U206 2.882 . S
C223 C217 1.428 . S
C223 O226 1.301 . S
C223 O227 1.282 . S
O224 U206 2.441 . S
O224 C210 1.249 . S
O225 U206 2.420 . S
O225 C210 1.202 . S
O226 U206 2.455 . S
O226 C223 1.301 . S
O227 U206 2.449 . S
O227 C223 1.282 . S
H228 C201 0.931 . S
H229 C203 0.929 . S
H230 C204 0.930 . S
H231 C205 0.931 . S
H232 C212 0.932 . S
H233 C213 0.930 . S
H234 C214 0.929 . S
H235 C216 0.930 . S
H236 C218 0.932 . S
H237 C219 0.929 . S
H238 C220 0.928 . S
H239 C222 0.932 . S
C240 C241 1.264 . S
C240 C245 1.479 . S
C240 C250 1.465 . S
C241 C240 1.264 . S
C241 C243 1.339 . S
C241 H268 0.931 . S
C242 C243 1.395 . S
C242 C244 1.320 . S
C243 C241 1.339 . S
C243 C242 1.395 . S
C243 H269 0.929 . S
C244 C242 1.320 . S
C244 C245 1.405 . S
C244 H270 0.930 . S
C245 C240 1.479 . S
C245 C244 1.405 . S
C245 H271 0.931 . S
U246 O247 2.454 . S
U246 O248 2.458 . S
U246 C249 2.984 . S
U246 C250 2.847 . S
U246 C263 2.882 . S
U246 O264 2.441 . S
U246 O265 2.420 . S
U246 O266 2.455 . S
U246 O267 2.449 . S
O247 U246 2.454 . S
O247 C249 1.353 . S
O248 U246 2.458 . S
O248 C249 1.286 . S
C249 U246 2.984 . S
C249 O247 1.353 . S
C249 O248 1.286 . S
C249 C251 1.363 . S
C250 C240 1.465 . S
C250 U246 2.847 . S
C250 O264 1.249 . S
C250 O265 1.202 . S
C251 C249 1.363 . S
C251 C253 1.408 . S
C251 C256 1.342 . S
C252 C253 1.310 . S
C252 C255 1.461 . S
C252 H272 0.932 . S
C253 C251 1.408 . S
C253 C252 1.310 . S
C253 H273 0.930 . S
C254 C255 1.474 . S
C254 C256 1.285 . S
C254 H274 0.929 . S
C255 C252 1.461 . S
C255 C254 1.474 . S
C256 C251 1.342 . S
C256 C254 1.285 . S
C256 H275 0.930 . S
C257 C260 1.424 . S
C257 C262 1.245 . S
C257 C263 1.428 . S
C258 C261 1.260 . S
C258 C262 1.477 . S
C258 H276 0.932 . S
C259 C260 1.384 . S
C259 C261 1.479 . S
C259 H277 0.929 . S
C260 C257 1.424 . S
C260 C259 1.384 . S
C260 H278 0.928 . S
C261 C258 1.260 . S
C261 C259 1.479 . S
C262 C257 1.245 . S
C262 C258 1.477 . S
C262 H279 0.932 . S
C263 U246 2.882 . S
C263 C257 1.428 . S
C263 O266 1.301 . S
C263 O267 1.282 . S
O264 U246 2.441 . S
O264 C250 1.249 . S
O265 U246 2.420 . S
O265 C250 1.202 . S
O266 U246 2.455 . S
O266 C263 1.301 . S
O267 U246 2.449 . S
O267 C263 1.282 . S
H268 C241 0.931 . S
H269 C243 0.929 . S
H270 C244 0.930 . S
H271 C245 0.931 . S
H272 C252 0.932 . S
H273 C253 0.930 . S
H274 C254 0.929 . S
H275 C256 0.930 . S
H276 C258 0.932 . S
H277 C259 0.929 . S
H278 C260 0.928 . S
H279 C262 0.932 . S
C280 C281 1.264 . S
C280 C285 1.479 . S
C280 C290 1.465 . S
C281 C280 1.264 . S
C281 C283 1.339 . S
C281 H308 0.931 . S
C282 C283 1.395 . S
C282 C284 1.320 . S
C283 C281 1.339 . S
C283 C282 1.395 . S
C283 H309 0.929 . S
C284 C282 1.320 . S
C284 C285 1.405 . S
C284 H310 0.930 . S
C285 C280 1.479 . S
C285 C284 1.405 . S
C285 H311 0.931 . S
U286 O287 2.454 . S
U286 O288 2.458 . S
U286 C289 2.984 . S
U286 C290 2.847 . S
U286 C303 2.882 . S
U286 O304 2.441 . S
U286 O305 2.420 . S
U286 O306 2.455 . S
U286 O307 2.449 . S
O287 U286 2.454 . S
O287 C289 1.353 . S
O288 U286 2.458 . S
O288 C289 1.286 . S
C289 U286 2.984 . S
C289 O287 1.353 . S
C289 O288 1.286 . S
C289 C291 1.363 . S
C290 C280 1.465 . S
C290 U286 2.847 . S
C290 O304 1.249 . S
C290 O305 1.202 . S
C291 C289 1.363 . S
C291 C293 1.408 . S
C291 C296 1.342 . S
C292 C293 1.310 . S
C292 C295 1.461 . S
C292 H312 0.932 . S
C293 C291 1.408 . S
C293 C292 1.310 . S
C293 H313 0.930 . S
C294 C295 1.474 . S
C294 C296 1.285 . S
C294 H314 0.929 . S
C295 C292 1.461 . S
C295 C294 1.474 . S
C296 C291 1.342 . S
C296 C294 1.285 . S
C296 H315 0.930 . S
C297 C300 1.424 . S
C297 C302 1.245 . S
C297 C303 1.428 . S
C298 C301 1.260 . S
C298 C302 1.477 . S
C298 H316 0.932 . S
C299 C300 1.384 . S
C299 C301 1.479 . S
C299 H317 0.929 . S
C300 C297 1.424 . S
C300 C299 1.384 . S
C300 H318 0.928 . S
C301 C298 1.260 . S
C301 C299 1.479 . S
C302 C297 1.245 . S
C302 C298 1.477 . S
C302 H319 0.932 . S
C303 U286 2.882 . S
C303 C297 1.428 . S
C303 O306 1.301 . S
C303 O307 1.282 . S
O304 U286 2.441 . S
O304 C290 1.249 . S
O305 U286 2.420 . S
O305 C290 1.202 . S
O306 U286 2.455 . S
O306 C303 1.301 . S
O307 U286 2.449 . S
O307 C303 1.282 . S
H308 C281 0.931 . S
H309 C283 0.929 . S
H310 C284 0.930 . S
H311 C285 0.931 . S
H312 C292 0.932 . S
H313 C293 0.930 . S
H314 C294 0.929 . S
H315 C296 0.930 . S
H316 C298 0.932 . S
H317 C299 0.929 . S
H318 C300 0.928 . S
H319 C302 0.932 . S
Tb320 C322 2.809 1_545 S
Tb320 O340 2.484 1_545 S
Tb320 O341 2.440 1_545 S
Tb320 O342 2.658 1_655 S
Tb320 O343 2.423 . S
Tb320 O344 2.378 1_645 S
Tb320 O348 2.325 1_545 S
Tb320 O351 2.341 . S
Tb321 C331 2.809 . S
Tb321 O342 2.325 . S
Tb321 O345 2.341 1_545 S
Tb321 O346 2.484 . S
Tb321 O347 2.440 . S
Tb321 O348 2.658 1_445 S
Tb321 O349 2.409 1_545 S
Tb321 O350 2.378 1_455 S
C322 Tb320 2.809 1_565 S
C322 C323 1.514 . S
C322 O340 1.248 . S
C322 O341 1.266 . S
C323 C322 1.514 . S
C323 C324 1.359 . S
C323 C328 1.348 . S
C324 C323 1.359 . S
C324 C325 1.380 . S
C324 H352 0.929 . S
C325 C324 1.380 . S
C325 C326 1.347 . S
C325 H353 0.931 . S
C326 C325 1.347 . S
C326 C327 1.369 . S
C327 C326 1.369 . S
C327 C328 1.408 . S
C327 H354 0.930 . S
C328 C323 1.348 . S
C328 C327 1.408 . S
C328 H355 0.930 . S
C329 O342 1.281 . S
C329 O343 1.227 1_455 S
C330 O344 1.236 . S
C330 O345 1.266 . S
C331 Tb321 2.809 . S
C331 C332 1.514 . S
C331 O346 1.248 . S
C331 O347 1.266 . S
C332 C331 1.514 . S
C332 C333 1.359 . S
C332 C337 1.348 . S
C333 C332 1.359 . S
C333 C334 1.380 . S
C333 H356 0.929 . S
C334 C333 1.380 . S
C334 C335 1.347 . S
C334 H357 0.931 . S
C335 C334 1.347 . S
C335 C336 1.369 . S
C336 C335 1.369 . S
C336 C337 1.408 . S
C336 H358 0.930 . S
C337 C332 1.348 . S
C337 C336 1.408 . S
C337 H359 0.930 . S
C338 O348 1.281 . S
C338 O349 1.254 1_655 S
C339 O350 1.236 . S
C339 O351 1.266 . S
O340 Tb320 2.484 1_565 S
O340 C322 1.248 . S
O341 Tb320 2.440 1_565 S
O341 C322 1.266 . S
O342 Tb320 2.658 1_455 S
O342 Tb321 2.325 . S
O342 C329 1.281 . S
O343 Tb320 2.423 . S
O343 C329 1.227 1_655 S
O344 Tb320 2.378 1_465 S
O344 C330 1.236 . S
O345 Tb321 2.341 1_565 S
O345 C330 1.266 . S
O346 Tb321 2.484 . S
O346 C331 1.248 . S
O347 Tb321 2.440 . S
O347 C331 1.266 . S
O348 Tb320 2.325 1_565 S
O348 Tb321 2.658 1_665 S
O348 C338 1.281 . S
O349 Tb321 2.409 1_565 S
O349 C338 1.254 1_455 S
O350 Tb321 2.378 1_655 S
O350 C339 1.236 . S
O351 Tb320 2.341 . S
O351 C339 1.266 . S
H352 C324 0.929 . S
H353 C325 0.931 . S
H354 C327 0.930 . S
H355 C328 0.930 . S
H356 C333 0.929 . S
H357 C334 0.931 . S
H358 C336 0.930 . S
H359 C337 0.930 . S
Tb360 C362 2.809 . S
Tb360 O380 2.484 . S
Tb360 O381 2.440 . S
Tb360 O382 2.658 1_545 S
Tb360 O383 2.409 1_545 S
Tb360 O384 2.378 . S
Tb360 O388 2.325 1_554 S
Tb360 O391 2.341 1_544 S
Tb361 C371 2.809 . S
Tb361 O382 2.325 1_556 S
Tb361 O385 2.341 1_566 S
Tb361 O386 2.484 . S
Tb361 O387 2.440 . S
Tb361 O388 2.658 1_565 S
Tb361 O389 2.409 1_565 S
Tb361 O390 2.378 . S
C362 Tb360 2.809 . S
C362 C363 1.514 . S
C362 O380 1.248 . S
C362 O381 1.266 . S
C363 C362 1.514 . S
C363 C364 1.359 . S
C363 C368 1.348 . S
C364 C363 1.359 . S
C364 C365 1.380 . S
C364 H392 0.929 . S
C365 C364 1.380 . S
C365 C366 1.347 . S
C365 H393 0.931 . S
C366 C365 1.347 . S
C366 C367 1.369 . S
C367 C366 1.369 . S
C367 C368 1.408 . S
C367 H394 0.930 . S
C368 C363 1.348 . S
C368 C367 1.408 . S
C368 H395 0.930 . S
C369 O382 1.281 . S
C369 O383 1.254 . S
C370 O384 1.236 . S
C370 O385 1.266 . S
C371 Tb361 2.809 . S
C371 C372 1.514 . S
C371 O386 1.248 . S
C371 O387 1.266 . S
C372 C371 1.514 . S
C372 C373 1.359 . S
C372 C377 1.348 . S
C373 C372 1.359 . S
C373 C374 1.380 . S
C373 H396 0.929 . S
C374 C373 1.380 . S
C374 C375 1.347 . S
C374 H397 0.931 . S
C375 C374 1.347 . S
C375 C376 1.369 . S
C376 C375 1.369 . S
C376 C377 1.408 . S
C376 H398 0.930 . S
C377 C372 1.348 . S
C377 C376 1.408 . S
C377 H399 0.930 . S
C378 O388 1.281 . S
C378 O389 1.254 . S
C379 O390 1.236 . S
C379 O391 1.266 . S
O380 Tb360 2.484 . S
O380 C362 1.248 . S
O381 Tb360 2.440 . S
O381 C362 1.266 . S
O382 Tb360 2.658 1_565 S
O382 Tb361 2.325 1_554 S
O382 C369 1.281 . S
O383 Tb360 2.409 1_565 S
O383 C369 1.254 . S
O384 Tb360 2.378 . S
O384 C370 1.236 . S
O385 Tb361 2.341 1_544 S
O385 C370 1.266 . S
O386 Tb361 2.484 . S
O386 C371 1.248 . S
O387 Tb361 2.440 . S
O387 C371 1.266 . S
O388 Tb360 2.325 1_556 S
O388 Tb361 2.658 1_545 S
O388 C378 1.281 . S
O389 Tb361 2.409 1_545 S
O389 C378 1.254 . S
O390 Tb361 2.378 . S
O390 C379 1.236 . S
O391 Tb360 2.341 1_566 S
O391 C379 1.266 . S
H392 C364 0.929 . S
H393 C365 0.931 . S
H394 C367 0.930 . S
H395 C368 0.930 . S
H396 C373 0.929 . S
H397 C374 0.931 . S
H398 C376 0.930 . S
H399 C377 0.930 . S
Tb400 C402 2.809 . S
Tb400 O420 2.484 . S
Tb400 O421 2.440 . S
Tb400 O422 2.658 . S
Tb400 O423 2.409 . S
Tb400 O424 2.378 . S
Tb400 O428 2.325 . S
Tb400 O431 2.341 . S
Tb401 C411 2.809 . S
Tb401 O422 2.325 . S
Tb401 O425 2.341 . S
Tb401 O426 2.484 . S
Tb401 O427 2.440 . S
Tb401 O428 2.658 . S
Tb401 O429 2.409 . S
Tb401 O430 2.378 . S
C402 Tb400 2.809 . S
C402 C403 1.514 . S
C402 O420 1.248 . S
C402 O421 1.266 . S
C403 C402 1.514 . S
C403 C404 1.359 . S
C403 C408 1.348 . S
C404 C403 1.359 . S
C404 C405 1.380 . S
C404 H432 0.929 . S
C405 C404 1.380 . S
C405 C406 1.347 . S
C405 H433 0.931 . S
C406 C405 1.347 . S
C406 C407 1.369 . S
C407 C406 1.369 . S
C407 C408 1.408 . S
C407 H434 0.930 . S
C408 C403 1.348 . S
C408 C407 1.408 . S
C408 H435 0.930 . S
C409 O422 1.281 . S
C409 O423 1.254 . S
C410 O424 1.236 . S
C410 O425 1.266 . S
C411 Tb401 2.809 . S
C411 C412 1.514 . S
C411 O426 1.248 . S
C411 O427 1.266 . S
C412 C411 1.514 . S
C412 C413 1.359 . S
C412 C417 1.348 . S
C413 C412 1.359 . S
C413 C414 1.380 . S
C413 H436 0.929 . S
C414 C413 1.380 . S
C414 C415 1.347 . S
C414 H437 0.931 . S
C415 C414 1.347 . S
C415 C416 1.369 . S
C416 C415 1.369 . S
C416 C417 1.408 . S
C416 H438 0.930 . S
C417 C412 1.348 . S
C417 C416 1.408 . S
C417 H439 0.930 . S
C418 O428 1.281 . S
C418 O429 1.254 . S
C419 O430 1.236 . S
C419 O431 1.266 . S
O420 Tb400 2.484 . S
O420 C402 1.248 . S
O421 Tb400 2.440 . S
O421 C402 1.266 . S
O422 Tb400 2.658 . S
O422 Tb401 2.325 . S
O422 C409 1.281 . S
O423 Tb400 2.409 . S
O423 C409 1.254 . S
O424 Tb400 2.378 . S
O424 C410 1.236 . S
O425 Tb401 2.341 . S
O425 C410 1.266 . S
O426 Tb401 2.484 . S
O426 C411 1.248 . S
O427 Tb401 2.440 . S
O427 C411 1.266 . S
O428 Tb400 2.325 . S
O428 Tb401 2.658 . S
O428 C418 1.281 . S
O429 Tb401 2.409 . S
O429 C418 1.254 . S
O430 Tb401 2.378 . S
O430 C419 1.236 . S
O431 Tb400 2.341 . S
O431 C419 1.266 . S
H432 C404 0.929 . S
H433 C405 0.931 . S
H434 C407 0.930 . S
H435 C408 0.930 . S
H436 C413 0.929 . S
H437 C414 0.931 . S
H438 C416 0.930 . S
H439 C417 0.930 . S
Tb440 C442 2.809 1_455 S
Tb440 O460 2.484 1_455 S
Tb440 O461 2.440 1_455 S
Tb440 O462 2.658 1_556 S
Tb440 O463 2.409 1_556 S
Tb440 O464 2.378 1_456 S
Tb440 O468 2.325 1_455 S
Tb440 O471 2.341 . S
Tb441 C451 2.809 . S
Tb441 O462 2.325 . S
Tb441 O465 2.341 1_455 S
Tb441 O466 2.484 . S
Tb441 O467 2.440 . S
Tb441 O468 2.658 1_454 S
Tb441 O469 2.409 1_455 S
Tb441 O470 2.378 1_554 S
C442 Tb440 2.809 1_655 S
C442 C443 1.514 . S
C442 O460 1.248 . S
C442 O461 1.266 . S
C443 C442 1.514 . S
C443 C444 1.359 . S
C443 C448 1.348 . S
C444 C443 1.359 . S
C444 C445 1.380 . S
C444 H472 0.929 . S
C445 C444 1.380 . S
C445 C446 1.347 . S
C445 H473 0.931 . S
C446 C445 1.347 . S
C446 C447 1.369 . S
C447 C446 1.369 . S
C447 C448 1.408 . S
C447 H474 0.930 . S
C448 C443 1.348 . S
C448 C447 1.408 . S
C448 H475 0.930 . S
C449 O462 1.281 . S
C449 O463 1.254 . S
C450 O464 1.236 . S
C450 O465 1.266 . S
C451 Tb441 2.809 . S
C451 C452 1.514 . S
C451 O466 1.248 . S
C451 O467 1.266 . S
C452 C451 1.514 . S
C452 C453 1.359 . S
C452 C457 1.348 . S
C453 C452 1.359 . S
C453 C454 1.380 . S
C453 H476 0.929 . S
C454 C453 1.380 . S
C454 C455 1.347 . S
C454 H477 0.931 . S
C455 C454 1.347 . S
C455 C456 1.369 . S
C456 C455 1.369 . S
C456 C457 1.408 . S
C456 H478 0.930 . S
C457 C452 1.348 . S
C457 C456 1.408 . S
C457 H479 0.930 . S
C458 O468 1.281 . S
C458 O469 1.254 1_556 S
C459 O470 1.236 . S
C459 O471 1.266 . S
O460 Tb440 2.484 1_655 S
O460 C442 1.248 . S
O461 Tb440 2.440 1_655 S
O461 C442 1.266 . S
O462 Tb440 2.658 1_554 S
O462 Tb441 2.325 . S
O462 C449 1.281 . S
O463 Tb440 2.409 1_554 S
O463 C449 1.254 . S
O464 Tb440 2.378 1_654 S
O464 C450 1.236 . S
O465 Tb441 2.341 1_655 S
O465 C450 1.266 . S
O466 Tb441 2.484 . S
O466 C451 1.248 . S
O467 Tb441 2.440 . S
O467 C451 1.266 . S
O468 Tb440 2.325 1_655 S
O468 Tb441 2.658 1_656 S
O468 C458 1.281 . S
O469 Tb441 2.409 1_655 S
O469 C458 1.254 1_554 S
O470 Tb441 2.378 1_556 S
O470 C459 1.236 . S
O471 Tb440 2.341 . S
O471 C459 1.266 . S
H472 C444 0.929 . S
H473 C445 0.931 . S
H474 C447 0.930 . S
H475 C448 0.930 . S
H476 C453 0.929 . S
H477 C454 0.931 . S
H478 C456 0.930 . S
H479 C457 0.930 . S
C480 C481 1.391 . S
C480 C482 1.394 . S
C480 H496 0.931 . S
C481 C480 1.391 . S
C481 C485 1.376 . S
C482 C480 1.394 . S
C482 C483 1.369 . S
C482 C486 1.531 . S
C483 C482 1.369 . S
C483 C484 1.410 . S
C483 C491 1.503 . S
C484 C483 1.410 . S
C484 C485 1.392 . S
C484 C487 1.511 . S
C485 C481 1.376 . S
C485 C484 1.392 . S
C485 H497 0.929 . S
C486 C482 1.531 . S
C486 H498 0.960 . S
C486 H499 0.962 . S
C486 H500 0.960 . S
C487 C484 1.511 . S
C487 H501 0.961 . S
C487 H502 0.961 . S
C487 H503 0.961 . S
C488 C489 1.370 . S
C488 C490 1.363 . S
C488 H504 0.931 . S
C489 C488 1.370 . S
C489 C493 1.408 . S
C490 C488 1.363 . S
C490 C491 1.370 . S
C490 C494 1.524 . S
C491 C483 1.503 . S
C491 C490 1.370 . S
C491 C492 1.403 . S
C492 C491 1.403 . S
C492 C493 1.404 . S
C492 C495 1.539 . S
C493 C489 1.408 . S
C493 C492 1.404 . S
C493 H505 0.930 . S
C494 C490 1.524 . S
C494 H506 0.956 . S
C494 H507 0.961 . S
C494 H508 0.961 . S
C495 C492 1.539 . S
C495 H509 0.958 . S
C495 H510 0.961 . S
C495 H511 0.960 . S
H496 C480 0.931 . S
H497 C485 0.929 . S
H498 C486 0.960 . S
H499 C486 0.962 . S
H500 C486 0.960 . S
H501 C487 0.961 . S
H502 C487 0.961 . S
H503 C487 0.961 . S
H504 C488 0.931 . S
H505 C493 0.930 . S
H506 C494 0.956 . S
H507 C494 0.961 . S
H508 C494 0.961 . S
H509 C495 0.958 . S
H510 C495 0.961 . S
H511 C495 0.960 . S
C512 C513 1.391 . S
C512 C514 1.394 . S
C512 H528 0.931 . S
C513 C512 1.391 . S
C513 C517 1.376 . S
C514 C512 1.394 . S
C514 C515 1.369 . S
C514 C518 1.531 . S
C515 C514 1.369 . S
C515 C516 1.410 . S
C515 C523 1.503 . S
C516 C515 1.410 . S
C516 C517 1.392 . S
C516 C519 1.511 . S
C517 C513 1.376 . S
C517 C516 1.392 . S
C517 H529 0.929 . S
C518 C514 1.531 . S
C518 H530 0.960 . S
C518 H531 0.962 . S
C518 H532 0.960 . S
C519 C516 1.511 . S
C519 H533 0.961 . S
C519 H534 0.961 . S
C519 H535 0.961 . S
C520 C521 1.370 . S
C520 C522 1.363 . S
C520 H536 0.931 . S
C521 C520 1.370 . S
C521 C525 1.408 . S
C522 C520 1.363 . S
C522 C523 1.370 . S
C522 C526 1.524 . S
C523 C515 1.503 . S
C523 C522 1.370 . S
C523 C524 1.403 . S
C524 C523 1.403 . S
C524 C525 1.404 . S
C524 C527 1.539 . S
C525 C521 1.408 . S
C525 C524 1.404 . S
C525 H537 0.930 . S
C526 C522 1.524 . S
C526 H538 0.956 . S
C526 H539 0.961 . S
C526 H540 0.961 . S
C527 C524 1.539 . S
C527 H541 0.958 . S
C527 H542 0.961 . S
C527 H543 0.960 . S
H528 C512 0.931 . S
H529 C517 0.929 . S
H530 C518 0.960 . S
H531 C518 0.962 . S
H532 C518 0.960 . S
H533 C519 0.961 . S
H534 C519 0.961 . S
H535 C519 0.961 . S
H536 C520 0.931 . S
H537 C525 0.930 . S
H538 C526 0.956 . S
H539 C526 0.961 . S
H540 C526 0.961 . S
H541 C527 0.958 . S
H542 C527 0.961 . S
H543 C527 0.960 . S
C544 C545 1.391 . S
C544 C546 1.394 . S
C544 H560 0.931 . S
C545 C544 1.391 . S
C545 C549 1.376 . S
C546 C544 1.394 . S
C546 C547 1.369 . S
C546 C550 1.531 . S
C547 C546 1.369 . S
C547 C548 1.410 . S
C547 C555 1.503 . S
C548 C547 1.410 . S
C548 C549 1.392 . S
C548 C551 1.511 . S
C549 C545 1.376 . S
C549 C548 1.392 . S
C549 H561 0.929 . S
C550 C546 1.531 . S
C550 H562 0.960 . S
C550 H563 0.962 . S
C550 H564 0.960 . S
C551 C548 1.511 . S
C551 H565 0.961 . S
C551 H566 0.961 . S
C551 H567 0.961 . S
C552 C553 1.370 . S
C552 C554 1.363 . S
C552 H568 0.931 . S
C553 C552 1.370 . S
C553 C557 1.408 . S
C554 C552 1.363 . S
C554 C555 1.370 . S
C554 C558 1.524 . S
C555 C547 1.503 . S
C555 C554 1.370 . S
C555 C556 1.403 . S
C556 C555 1.403 . S
C556 C557 1.404 . S
C556 C559 1.539 . S
C557 C553 1.408 . S
C557 C556 1.404 . S
C557 H569 0.930 . S
C558 C554 1.524 . S
C558 H570 0.956 . S
C558 H571 0.961 . S
C558 H572 0.961 . S
C559 C556 1.539 . S
C559 H573 0.958 . S
C559 H574 0.961 . S
C559 H575 0.960 . S
H560 C544 0.931 . S
H561 C549 0.929 . S
H562 C550 0.960 . S
H563 C550 0.962 . S
H564 C550 0.960 . S
H565 C551 0.961 . S
H566 C551 0.961 . S
H567 C551 0.961 . S
H568 C552 0.931 . S
H569 C557 0.930 . S
H570 C558 0.956 . S
H571 C558 0.961 . S
H572 C558 0.961 . S
H573 C559 0.958 . S
H574 C559 0.961 . S
H575 C559 0.960 . S
C576 C577 1.391 . S
C576 C578 1.394 . S
C576 H592 0.931 . S
C577 C576 1.391 . S
C577 C581 1.376 . S
C578 C576 1.394 . S
C578 C579 1.369 . S
C578 C582 1.531 . S
C579 C578 1.369 . S
C579 C580 1.410 . S
C579 C587 1.503 . S
C580 C579 1.410 . S
C580 C581 1.392 . S
C580 C583 1.511 . S
C581 C577 1.376 . S
C581 C580 1.392 . S
C581 H593 0.929 . S
C582 C578 1.531 . S
C582 H594 0.960 . S
C582 H595 0.962 . S
C582 H596 0.960 . S
C583 C580 1.511 . S
C583 H597 0.961 . S
C583 H598 0.961 . S
C583 H599 0.961 . S
C584 C585 1.370 . S
C584 C586 1.363 . S
C584 H600 0.931 . S
C585 C584 1.370 . S
C585 C589 1.408 . S
C586 C584 1.363 . S
C586 C587 1.370 . S
C586 C590 1.524 . S
C587 C579 1.503 . S
C587 C586 1.370 . S
C587 C588 1.403 . S
C588 C587 1.403 . S
C588 C589 1.404 . S
C588 C591 1.539 . S
C589 C585 1.408 . S
C589 C588 1.404 . S
C589 H601 0.930 . S
C590 C586 1.524 . S
C590 H602 0.956 . S
C590 H603 0.961 . S
C590 H604 0.961 . S
C591 C588 1.539 . S
C591 H605 0.958 . S
C591 H606 0.961 . S
C591 H607 0.960 . S
H592 C576 0.931 . S
H593 C581 0.929 . S
H594 C582 0.960 . S
H595 C582 0.962 . S
H596 C582 0.960 . S
H597 C583 0.961 . S
H598 C583 0.961 . S
H599 C583 0.961 . S
H600 C584 0.931 . S
H601 C589 0.930 . S
H602 C590 0.956 . S
H603 C590 0.961 . S
H604 C590 0.961 . S
H605 C591 0.958 . S
H606 C591 0.961 . S
H607 C591 0.960 . S
C608 C609 1.391 . S
C608 C610 1.394 . S
C608 H624 0.931 . S
C609 C608 1.391 . S
C609 C613 1.376 . S
C610 C608 1.394 . S
C610 C611 1.369 . S
C610 C614 1.531 . S
C611 C610 1.369 . S
C611 C612 1.410 . S
C611 C619 1.503 . S
C612 C611 1.410 . S
C612 C613 1.392 . S
C612 C615 1.511 . S
C613 C609 1.376 . S
C613 C612 1.392 . S
C613 H625 0.929 . S
C614 C610 1.531 . S
C614 H626 0.960 . S
C614 H627 0.962 . S
C614 H628 0.960 . S
C615 C612 1.511 . S
C615 H629 0.961 . S
C615 H630 0.961 . S
C615 H631 0.961 . S
C616 C617 1.370 . S
C616 C618 1.363 . S
C616 H632 0.931 . S
C617 C616 1.370 . S
C617 C621 1.408 . S
C618 C616 1.363 . S
C618 C619 1.370 . S
C618 C622 1.524 . S
C619 C611 1.503 . S
C619 C618 1.370 . S
C619 C620 1.403 . S
C620 C619 1.403 . S
C620 C621 1.404 . S
C620 C623 1.539 . S
C621 C617 1.408 . S
C621 C620 1.404 . S
C621 H633 0.930 . S
C622 C618 1.524 . S
C622 H634 0.956 . S
C622 H635 0.961 . S
C622 H636 0.961 . S
C623 C620 1.539 . S
C623 H637 0.958 . S
C623 H638 0.961 . S
C623 H639 0.960 . S
H624 C608 0.931 . S
H625 C613 0.929 . S
H626 C614 0.960 . S
H627 C614 0.962 . S
H628 C614 0.960 . S
H629 C615 0.961 . S
H630 C615 0.961 . S
H631 C615 0.961 . S
H632 C616 0.931 . S
H633 C621 0.930 . S
H634 C622 0.956 . S
H635 C622 0.961 . S
H636 C622 0.961 . S
H637 C623 0.958 . S
H638 C623 0.961 . S
H639 C623 0.960 . S
C640 C641 1.391 . S
C640 C642 1.394 . S
C640 H656 0.931 . S
C641 C640 1.391 . S
C641 C645 1.376 . S
C642 C640 1.394 . S
C642 C643 1.369 . S
C642 C646 1.531 . S
C643 C642 1.369 . S
C643 C644 1.410 . S
C643 C651 1.503 . S
C644 C643 1.410 . S
C644 C645 1.392 . S
C644 C647 1.511 1_455 S
C645 C641 1.376 . S
C645 C644 1.392 . S
C645 H657 0.929 . S
C646 C642 1.531 . S
C646 H658 0.960 . S
C646 H659 0.962 . S
C646 H660 0.960 . S
C647 C644 1.511 1_655 S
C647 H661 0.961 . S
C647 H662 0.961 1_655 S
C647 H663 0.961 . S
C648 C649 1.370 . S
C648 C650 1.363 . S
C648 H664 0.931 . S
C649 C648 1.370 . S
C649 C653 1.408 . S
C650 C648 1.363 . S
C650 C651 1.370 . S
C650 C654 1.524 . S
C651 C643 1.503 . S
C651 C650 1.370 . S
C651 C652 1.403 . S
C652 C651 1.403 . S
C652 C653 1.404 . S
C652 C655 1.539 1_455 S
C653 C649 1.408 . S
C653 C652 1.404 . S
C653 H665 0.930 . S
C654 C650 1.524 . S
C654 H666 0.956 . S
C654 H667 0.961 . S
C654 H668 0.961 . S
C655 C652 1.539 1_655 S
C655 H669 0.958 1_655 S
C655 H670 0.961 . S
C655 H671 0.960 . S
H656 C640 0.931 . S
H657 C645 0.929 . S
H658 C646 0.960 . S
H659 C646 0.962 . S
H660 C646 0.960 . S
H661 C647 0.961 . S
H662 C647 0.961 1_455 S
H663 C647 0.961 . S
H664 C648 0.931 . S
H665 C653 0.930 . S
H666 C654 0.956 . S
H667 C654 0.961 . S
H668 C654 0.961 . S
H669 C655 0.958 1_455 S
H670 C655 0.961 . S
H671 C655 0.960 . S
C672 C673 1.391 . S
C672 C674 1.394 . S
C672 H688 0.931 . S
C673 C672 1.391 . S
C673 C677 1.376 . S
C674 C672 1.394 . S
C674 C675 1.369 . S
C674 C678 1.531 . S
C675 C674 1.369 . S
C675 C676 1.410 . S
C675 C683 1.503 . S
C676 C675 1.410 . S
C676 C677 1.392 . S
C676 C679 1.511 . S
C677 C673 1.376 . S
C677 C676 1.392 . S
C677 H689 0.929 . S
C678 C674 1.531 . S
C678 H690 0.960 . S
C678 H691 0.962 . S
C678 H692 0.960 . S
C679 C676 1.511 . S
C679 H693 0.961 . S
C679 H694 0.961 . S
C679 H695 0.961 . S
C680 C681 1.370 . S
C680 C682 1.363 . S
C680 H696 0.931 . S
C681 C680 1.370 . S
C681 C685 1.408 . S
C682 C680 1.363 . S
C682 C683 1.370 . S
C682 C686 1.524 . S
C683 C675 1.503 . S
C683 C682 1.370 . S
C683 C684 1.403 . S
C684 C683 1.403 . S
C684 C685 1.404 . S
C684 C687 1.539 . S
C685 C681 1.408 . S
C685 C684 1.404 . S
C685 H697 0.930 . S
C686 C682 1.524 . S
C686 H698 0.956 . S
C686 H699 0.961 . S
C686 H700 0.961 . S
C687 C684 1.539 . S
C687 H701 0.958 . S
C687 H702 0.961 . S
C687 H703 0.960 . S
H688 C672 0.931 . S
H689 C677 0.929 . S
H690 C678 0.960 . S
H691 C678 0.962 . S
H692 C678 0.960 . S
H693 C679 0.961 . S
H694 C679 0.961 . S
H695 C679 0.961 . S
H696 C680 0.931 . S
H697 C685 0.930 . S
H698 C686 0.956 . S
H699 C686 0.961 . S
H700 C686 0.961 . S
H701 C687 0.958 . S
H702 C687 0.961 . S
H703 C687 0.960 . S
C704 C705 1.391 . S
C704 C706 1.394 . S
C704 H720 0.931 . S
C705 C704 1.391 . S
C705 C709 1.376 . S
C706 C704 1.394 . S
C706 C707 1.369 . S
C706 C710 1.531 . S
C707 C706 1.369 . S
C707 C708 1.410 . S
C707 C715 1.503 . S
C708 C707 1.410 . S
C708 C709 1.392 . S
C708 C711 1.511 . S
C709 C705 1.376 . S
C709 C708 1.392 . S
C709 H721 0.929 . S
C710 C706 1.531 . S
C710 H722 0.960 . S
C710 H723 0.962 . S
C710 H724 0.960 . S
C711 C708 1.511 . S
C711 H725 0.961 . S
C711 H726 0.961 . S
C711 H727 0.961 . S
C712 C713 1.370 . S
C712 C714 1.363 . S
C712 H728 0.931 . S
C713 C712 1.370 . S
C713 C717 1.408 . S
C714 C712 1.363 . S
C714 C715 1.370 . S
C714 C718 1.524 . S
C715 C707 1.503 . S
C715 C714 1.370 . S
C715 C716 1.403 . S
C716 C715 1.403 . S
C716 C717 1.404 . S
C716 C719 1.539 . S
C717 C713 1.408 . S
C717 C716 1.404 . S
C717 H729 0.930 . S
C718 C714 1.524 . S
C718 H730 0.956 . S
C718 H731 0.961 . S
C718 H732 0.961 . S
C719 C716 1.539 . S
C719 H733 0.958 . S
C719 H734 0.961 . S
C719 H735 0.960 . S
H720 C704 0.931 . S
H721 C709 0.929 . S
H722 C710 0.960 . S
H723 C710 0.962 . S
H724 C710 0.960 . S
H725 C711 0.961 . S
H726 C711 0.961 . S
H727 C711 0.961 . S
H728 C712 0.931 . S
H729 C717 0.930 . S
H730 C718 0.956 . S
H731 C718 0.961 . S
H732 C718 0.961 . S
H733 C719 0.958 . S
H734 C719 0.961 . S
H735 C719 0.960 . S
C736 C737 1.391 . S
C736 C738 1.394 . S
C736 H752 0.931 . S
C737 C736 1.391 . S
C737 C741 1.376 . S
C738 C736 1.394 . S
C738 C739 1.369 . S
C738 C742 1.531 . S
C739 C738 1.369 . S
C739 C740 1.410 . S
C739 C747 1.503 . S
C740 C739 1.410 . S
C740 C741 1.392 . S
C740 C743 1.511 . S
C741 C737 1.376 . S
C741 C740 1.392 . S
C741 H753 0.929 . S
C742 C738 1.531 . S
C742 H754 0.960 . S
C742 H755 0.962 . S
C742 H756 0.960 . S
C743 C740 1.511 . S
C743 H757 0.961 . S
C743 H758 0.961 . S
C743 H759 0.961 . S
C744 C745 1.370 . S
C744 C746 1.363 . S
C744 H760 0.931 . S
C745 C744 1.370 . S
C745 C749 1.408 . S
C746 C744 1.363 . S
C746 C747 1.370 . S
C746 C750 1.524 . S
C747 C739 1.503 . S
C747 C746 1.370 . S
C747 C748 1.403 . S
C748 C747 1.403 . S
C748 C749 1.404 . S
C748 C751 1.539 . S
C749 C745 1.408 . S
C749 C748 1.404 . S
C749 H761 0.930 . S
C750 C746 1.524 . S
C750 H762 0.956 . S
C750 H763 0.961 . S
C750 H764 0.961 . S
C751 C748 1.539 . S
C751 H765 0.958 . S
C751 H766 0.961 . S
C751 H767 0.960 . S
H752 C736 0.931 . S
H753 C741 0.929 . S
H754 C742 0.960 . S
H755 C742 0.962 . S
H756 C742 0.960 . S
H757 C743 0.961 . S
H758 C743 0.961 . S
H759 C743 0.961 . S
H760 C744 0.931 . S
H761 C749 0.930 . S
H762 C750 0.956 . S
H763 C750 0.961 . S
H764 C750 0.961 . S
H765 C751 0.958 . S
H766 C751 0.961 . S
H767 C751 0.960 . S
C768 C769 1.391 . S
C768 C770 1.394 . S
C768 H784 0.931 . S
C769 C768 1.391 . S
C769 C773 1.376 . S
C770 C768 1.394 . S
C770 C771 1.369 . S
C770 C774 1.531 . S
C771 C770 1.369 . S
C771 C772 1.410 . S
C771 C779 1.503 . S
C772 C771 1.410 . S
C772 C773 1.392 . S
C772 C775 1.511 . S
C773 C769 1.376 . S
C773 C772 1.392 . S
C773 H785 0.929 . S
C774 C770 1.531 . S
C774 H786 0.960 . S
C774 H787 0.962 . S
C774 H788 0.960 . S
C775 C772 1.511 . S
C775 H789 0.961 . S
C775 H790 0.961 . S
C775 H791 0.961 . S
C776 C777 1.370 . S
C776 C778 1.363 . S
C776 H792 0.931 . S
C777 C776 1.370 . S
C777 C781 1.408 . S
C778 C776 1.363 . S
C778 C779 1.370 . S
C778 C782 1.524 . S
C779 C771 1.503 . S
C779 C778 1.370 . S
C779 C780 1.403 . S
C780 C779 1.403 . S
C780 C781 1.404 . S
C780 C783 1.539 . S
C781 C777 1.408 . S
C781 C780 1.404 . S
C781 H793 0.930 . S
C782 C778 1.524 . S
C782 H794 0.956 . S
C782 H795 0.961 . S
C782 H796 0.961 . S
C783 C780 1.539 . S
C783 H797 0.958 . S
C783 H798 0.961 . S
C783 H799 0.960 . S
H784 C768 0.931 . S
H785 C773 0.929 . S
H786 C774 0.960 . S
H787 C774 0.962 . S
H788 C774 0.960 . S
H789 C775 0.961 . S
H790 C775 0.961 . S
H791 C775 0.961 . S
H792 C776 0.931 . S
H793 C781 0.930 . S
H794 C782 0.956 . S
H795 C782 0.961 . S
H796 C782 0.961 . S
H797 C783 0.958 . S
H798 C783 0.961 . S
H799 C783 0.960 . S
C800 C801 1.391 . S
C800 C802 1.394 . S
C800 H816 0.931 . S
C801 C800 1.391 . S
C801 C805 1.376 . S
C802 C800 1.394 . S
C802 C803 1.369 . S
C802 C806 1.531 . S
C803 C802 1.369 . S
C803 C804 1.410 . S
C803 C811 1.503 . S
C804 C803 1.410 . S
C804 C805 1.392 . S
C804 C807 1.511 . S
C805 C801 1.376 . S
C805 C804 1.392 . S
C805 H817 0.929 . S
C806 C802 1.531 . S
C806 H818 0.960 . S
C806 H819 0.962 . S
C806 H820 0.960 . S
C807 C804 1.511 . S
C807 H821 0.961 . S
C807 H822 0.961 . S
C807 H823 0.961 . S
C808 C809 1.370 . S
C808 C810 1.363 . S
C808 H824 0.931 . S
C809 C808 1.370 . S
C809 C813 1.408 . S
C810 C808 1.363 . S
C810 C811 1.370 . S
C810 C814 1.524 . S
C811 C803 1.503 . S
C811 C810 1.370 . S
C811 C812 1.403 . S
C812 C811 1.403 . S
C812 C813 1.404 . S
C812 C815 1.539 . S
C813 C809 1.408 . S
C813 C812 1.404 . S
C813 H825 0.930 . S
C814 C810 1.524 . S
C814 H826 0.956 . S
C814 H827 0.961 . S
C814 H828 0.961 . S
C815 C812 1.539 . S
C815 H829 0.958 . S
C815 H830 0.961 . S
C815 H831 0.960 . S
H816 C800 0.931 . S
H817 C805 0.929 . S
H818 C806 0.960 . S
H819 C806 0.962 . S
H820 C806 0.960 . S
H821 C807 0.961 . S
H822 C807 0.961 . S
H823 C807 0.961 . S
H824 C808 0.931 . S
H825 C813 0.930 . S
H826 C814 0.956 . S
H827 C814 0.961 . S
H828 C814 0.961 . S
H829 C815 0.958 . S
H830 C815 0.961 . S
H831 C815 0.960 . S
C832 C833 1.391 . S
C832 C834 1.394 . S
C832 H848 0.931 . S
C833 C832 1.391 . S
C833 C837 1.376 . S
C834 C832 1.394 . S
C834 C835 1.369 . S
C834 C838 1.531 . S
C835 C834 1.369 . S
C835 C836 1.410 . S
C835 C843 1.503 . S
C836 C835 1.410 . S
C836 C837 1.392 . S
C836 C839 1.511 . S
C837 C833 1.376 . S
C837 C836 1.392 . S
C837 H849 0.929 . S
C838 C834 1.531 . S
C838 H850 0.960 . S
C838 H851 0.962 . S
C838 H852 0.960 . S
C839 C836 1.511 . S
C839 H853 0.961 . S
C839 H854 0.961 . S
C839 H855 0.961 . S
C840 C841 1.370 . S
C840 C842 1.363 . S
C840 H856 0.931 . S
C841 C840 1.370 . S
C841 C845 1.408 . S
C842 C840 1.363 . S
C842 C843 1.370 . S
C842 C846 1.524 . S
C843 C835 1.503 . S
C843 C842 1.370 . S
C843 C844 1.403 . S
C844 C843 1.403 . S
C844 C845 1.404 . S
C844 C847 1.539 . S
C845 C841 1.408 . S
C845 C844 1.404 . S
C845 H857 0.930 . S
C846 C842 1.524 . S
C846 H858 0.956 . S
C846 H859 0.961 . S
C846 H860 0.961 . S
C847 C844 1.539 . S
C847 H861 0.958 . S
C847 H862 0.961 . S
C847 H863 0.960 . S
H848 C832 0.931 . S
H849 C837 0.929 . S
H850 C838 0.960 . S
H851 C838 0.962 . S
H852 C838 0.960 . S
H853 C839 0.961 . S
H854 C839 0.961 . S
H855 C839 0.961 . S
H856 C840 0.931 . S
H857 C845 0.930 . S
H858 C846 0.956 . S
H859 C846 0.961 . S
H860 C846 0.961 . S
H861 C847 0.958 . S
H862 C847 0.961 . S
H863 C847 0.960 . S
C864 C865 1.391 . S
C864 C866 1.394 . S
C864 H880 0.931 . S
C865 C864 1.391 . S
C865 C869 1.376 . S
C866 C864 1.394 . S
C866 C867 1.369 . S
C866 C870 1.531 . S
C867 C866 1.369 . S
C867 C868 1.410 . S
C867 C875 1.503 . S
C868 C867 1.410 . S
C868 C869 1.392 . S
C868 C871 1.511 . S
C869 C865 1.376 . S
C869 C868 1.392 . S
C869 H881 0.929 . S
C870 C866 1.531 . S
C870 H882 0.960 . S
C870 H883 0.962 . S
C870 H884 0.960 . S
C871 C868 1.511 . S
C871 H885 0.961 . S
C871 H886 0.961 . S
C871 H887 0.961 . S
C872 C873 1.370 . S
C872 C874 1.363 . S
C872 H888 0.931 . S
C873 C872 1.370 . S
C873 C877 1.408 . S
C874 C872 1.363 . S
C874 C875 1.370 . S
C874 C878 1.524 . S
C875 C867 1.503 . S
C875 C874 1.370 . S
C875 C876 1.403 . S
C876 C875 1.403 . S
C876 C877 1.404 . S
C876 C879 1.539 . S
C877 C873 1.408 . S
C877 C876 1.404 . S
C877 H889 0.930 . S
C878 C874 1.524 . S
C878 H890 0.956 . S
C878 H891 0.961 . S
C878 H892 0.961 . S
C879 C876 1.539 . S
C879 H893 0.958 . S
C879 H894 0.961 . S
C879 H895 0.960 . S
H880 C864 0.931 . S
H881 C869 0.929 . S
H882 C870 0.960 . S
H883 C870 0.962 . S
H884 C870 0.960 . S
H885 C871 0.961 . S
H886 C871 0.961 . S
H887 C871 0.961 . S
H888 C872 0.931 . S
H889 C877 0.930 . S
H890 C878 0.956 . S
H891 C878 0.961 . S
H892 C878 0.961 . S
H893 C879 0.958 . S
H894 C879 0.961 . S
H895 C879 0.960 . S
C896 C897 1.391 . S
C896 C898 1.394 . S
C896 H912 0.931 . S
C897 C896 1.391 . S
C897 C901 1.376 . S
C898 C896 1.394 . S
C898 C899 1.369 . S
C898 C902 1.531 . S
C899 C898 1.369 . S
C899 C900 1.410 . S
C899 C907 1.503 . S
C900 C899 1.410 . S
C900 C901 1.392 . S
C900 C903 1.511 . S
C901 C897 1.376 . S
C901 C900 1.392 . S
C901 H913 0.929 . S
C902 C898 1.531 . S
C902 H914 0.960 . S
C902 H915 0.962 . S
C902 H916 0.960 . S
C903 C900 1.511 . S
C903 H917 0.961 . S
C903 H918 0.961 . S
C903 H919 0.961 . S
C904 C905 1.370 . S
C904 C906 1.363 . S
C904 H920 0.931 . S
C905 C904 1.370 . S
C905 C909 1.408 . S
C906 C904 1.363 . S
C906 C907 1.370 . S
C906 C910 1.524 . S
C907 C899 1.503 . S
C907 C906 1.370 . S
C907 C908 1.403 . S
C908 C907 1.403 . S
C908 C909 1.404 . S
C908 C911 1.539 . S
C909 C905 1.408 . S
C909 C908 1.404 . S
C909 H921 0.930 . S
C910 C906 1.524 . S
C910 H922 0.956 . S
C910 H923 0.961 . S
C910 H924 0.961 . S
C911 C908 1.539 . S
C911 H925 0.958 . S
C911 H926 0.961 . S
C911 H927 0.960 . S
H912 C896 0.931 . S
H913 C901 0.929 . S
H914 C902 0.960 . S
H915 C902 0.962 . S
H916 C902 0.960 . S
H917 C903 0.961 . S
H918 C903 0.961 . S
H919 C903 0.961 . S
H920 C904 0.931 . S
H921 C909 0.930 . S
H922 C910 0.956 . S
H923 C910 0.961 . S
H924 C910 0.961 . S
H925 C911 0.958 . S
H926 C911 0.961 . S
H927 C911 0.960 . S
C928 C929 1.391 . S
C928 C930 1.394 . S
C928 H944 0.931 . S
C929 C928 1.391 . S
C929 C933 1.376 . S
C930 C928 1.394 . S
C930 C931 1.369 . S
C930 C934 1.531 . S
C931 C930 1.369 . S
C931 C932 1.410 . S
C931 C939 1.503 . S
C932 C931 1.410 . S
C932 C933 1.392 . S
C932 C935 1.511 . S
C933 C929 1.376 . S
C933 C932 1.392 . S
C933 H945 0.929 . S
C934 C930 1.531 . S
C934 H946 0.960 . S
C934 H947 0.962 . S
C934 H948 0.960 . S
C935 C932 1.511 . S
C935 H949 0.961 . S
C935 H950 0.961 . S
C935 H951 0.961 . S
C936 C937 1.370 . S
C936 C938 1.363 . S
C936 H952 0.931 . S
C937 C936 1.370 . S
C937 C941 1.408 . S
C938 C936 1.363 . S
C938 C939 1.370 . S
C938 C942 1.524 . S
C939 C931 1.503 . S
C939 C938 1.370 . S
C939 C940 1.403 . S
C940 C939 1.403 . S
C940 C941 1.404 . S
C940 C943 1.539 . S
C941 C937 1.408 . S
C941 C940 1.404 . S
C941 H953 0.930 . S
C942 C938 1.524 . S
C942 H954 0.956 . S
C942 H955 0.961 . S
C942 H956 0.961 . S
C943 C940 1.539 . S
C943 H957 0.958 . S
C943 H958 0.961 . S
C943 H959 0.960 . S
H944 C928 0.931 . S
H945 C933 0.929 . S
H946 C934 0.960 . S
H947 C934 0.962 . S
H948 C934 0.960 . S
H949 C935 0.961 . S
H950 C935 0.961 . S
H951 C935 0.961 . S
H952 C936 0.931 . S
H953 C941 0.930 . S
H954 C942 0.956 . S
H955 C942 0.961 . S
H956 C942 0.961 . S
H957 C943 0.958 . S
H958 C943 0.961 . S
H959 C943 0.960 . S
C960 C961 1.391 . S
C960 C962 1.394 . S
C960 H976 0.931 . S
C961 C960 1.391 . S
C961 C965 1.376 . S
C962 C960 1.394 . S
C962 C963 1.369 . S
C962 C966 1.531 . S
C963 C962 1.369 . S
C963 C964 1.410 . S
C963 C971 1.503 . S
C964 C963 1.410 . S
C964 C965 1.392 . S
C964 C967 1.511 . S
C965 C961 1.376 . S
C965 C964 1.392 . S
C965 H977 0.929 . S
C966 C962 1.531 . S
C966 H978 0.960 . S
C966 H979 0.962 . S
C966 H980 0.960 . S
C967 C964 1.511 . S
C967 H981 0.961 . S
C967 H982 0.961 . S
C967 H983 0.961 . S
C968 C969 1.370 . S
C968 C970 1.363 . S
C968 H984 0.931 . S
C969 C968 1.370 . S
C969 C973 1.408 . S
C970 C968 1.363 . S
C970 C971 1.370 . S
C970 C974 1.524 . S
C971 C963 1.503 . S
C971 C970 1.370 . S
C971 C972 1.403 . S
C972 C971 1.403 . S
C972 C973 1.404 . S
C972 C975 1.539 . S
C973 C969 1.408 . S
C973 C972 1.404 . S
C973 H985 0.930 . S
C974 C970 1.524 . S
C974 H986 0.956 . S
C974 H987 0.961 . S
C974 H988 0.961 . S
C975 C972 1.539 . S
C975 H989 0.958 . S
C975 H990 0.961 . S
C975 H991 0.960 . S
H976 C960 0.931 . S
H977 C965 0.929 . S
H978 C966 0.960 . S
H979 C966 0.962 . S
H980 C966 0.960 . S
H981 C967 0.961 . S
H982 C967 0.961 . S
H983 C967 0.961 . S
H984 C968 0.931 . S
H985 C973 0.930 . S
H986 C974 0.956 . S
H987 C974 0.961 . S
H988 C974 0.961 . S
H989 C975 0.958 . S
H990 C975 0.961 . S
H991 C975 0.960 . S
C992 C993 1.391 . S
C992 C994 1.394 . S
C992 H1008 0.931 . S
C993 C992 1.391 . S
C993 C997 1.376 . S
C994 C992 1.394 . S
C994 C995 1.369 . S
C994 C998 1.531 . S
C995 C994 1.369 . S
C995 C996 1.410 . S
C995 C1003 1.503 . S
C996 C995 1.410 . S
C996 C997 1.392 . S
C996 C999 1.511 . S
C997 C993 1.376 . S
C997 C996 1.392 . S
C997 H1009 0.929 . S
C998 C994 1.531 . S
C998 H1010 0.960 . S
C998 H1011 0.962 . S
C998 H1012 0.960 . S
C999 C996 1.511 . S
C999 H1013 0.961 . S
C999 H1014 0.961 . S
C999 H1015 0.961 . S
C1000 C1001 1.370 . S
C1000 C1002 1.363 . S
C1000 H1016 0.931 . S
C1001 C1000 1.370 . S
C1001 C1005 1.408 . S
C1002 C1000 1.363 . S
C1002 C1003 1.370 . S
C1002 C1006 1.524 . S
C1003 C995 1.503 . S
C1003 C1002 1.370 . S
C1003 C1004 1.403 . S
C1004 C1003 1.403 . S
C1004 C1005 1.404 . S
C1004 C1007 1.539 . S
C1005 C1001 1.408 . S
C1005 C1004 1.404 . S
C1005 H1017 0.930 . S
C1006 C1002 1.524 . S
C1006 H1018 0.956 . S
C1006 H1019 0.961 . S
C1006 H1020 0.961 . S
C1007 C1004 1.539 . S
C1007 H1021 0.958 . S
C1007 H1022 0.961 . S
C1007 H1023 0.960 . S
H1008 C992 0.931 . S
H1009 C997 0.929 . S
H1010 C998 0.960 . S
H1011 C998 0.962 . S
H1012 C998 0.960 . S
H1013 C999 0.961 . S
H1014 C999 0.961 . S
H1015 C999 0.961 . S
H1016 C1000 0.931 . S
H1017 C1005 0.930 . S
H1018 C1006 0.956 . S
H1019 C1006 0.961 . S
H1020 C1006 0.961 . S
H1021 C1007 0.958 . S
H1022 C1007 0.961 . S
H1023 C1007 0.960 . S
C1024 C1025 1.391 . S
C1024 C1026 1.394 . S
C1024 H1040 0.931 . S
C1025 C1024 1.391 . S
C1025 C1029 1.376 . S
C1026 C1024 1.394 . S
C1026 C1027 1.369 . S
C1026 C1030 1.531 . S
C1027 C1026 1.369 . S
C1027 C1028 1.410 . S
C1027 C1035 1.503 . S
C1028 C1027 1.410 . S
C1028 C1029 1.392 . S
C1028 C1031 1.511 . S
C1029 C1025 1.376 . S
C1029 C1028 1.392 . S
C1029 H1041 0.929 . S
C1030 C1026 1.531 . S
C1030 H1042 0.960 . S
C1030 H1043 0.962 . S
C1030 H1044 0.960 . S
C1031 C1028 1.511 . S
C1031 H1045 0.961 . S
C1031 H1046 0.961 . S
C1031 H1047 0.961 1_655 S
C1032 C1033 1.370 . S
C1032 C1034 1.363 . S
C1032 H1048 0.931 . S
C1033 C1032 1.370 . S
C1033 C1037 1.408 . S
C1034 C1032 1.363 . S
C1034 C1035 1.370 . S
C1034 C1038 1.524 . S
C1035 C1027 1.503 . S
C1035 C1034 1.370 . S
C1035 C1036 1.403 . S
C1036 C1035 1.403 . S
C1036 C1037 1.404 . S
C1036 C1039 1.539 1_655 S
C1037 C1033 1.408 . S
C1037 C1036 1.404 . S
C1037 H1049 0.930 1_655 S
C1038 C1034 1.524 . S
C1038 H1050 0.956 . S
C1038 H1051 0.961 . S
C1038 H1052 0.961 . S
C1039 C1036 1.539 1_455 S
C1039 H1053 0.958 . S
C1039 H1054 0.961 . S
C1039 H1055 0.960 . S
H1040 C1024 0.931 . S
H1041 C1029 0.929 . S
H1042 C1030 0.960 . S
H1043 C1030 0.962 . S
H1044 C1030 0.960 . S
H1045 C1031 0.961 . S
H1046 C1031 0.961 . S
H1047 C1031 0.961 1_455 S
H1048 C1032 0.931 . S
H1049 C1037 0.930 1_455 S
H1050 C1038 0.956 . S
H1051 C1038 0.961 . S
H1052 C1038 0.961 . S
H1053 C1039 0.958 . S
H1054 C1039 0.961 . S
H1055 C1039 0.960 . S
C1056 C1057 1.391 . S
C1056 C1058 1.394 . S
C1056 H1072 0.931 . S
C1057 C1056 1.391 . S
C1057 C1061 1.376 . S
C1058 C1056 1.394 . S
C1058 C1059 1.369 . S
C1058 C1062 1.531 . S
C1059 C1058 1.369 . S
C1059 C1060 1.410 . S
C1059 C1067 1.503 . S
C1060 C1059 1.410 . S
C1060 C1061 1.392 . S
C1060 C1063 1.511 . S
C1061 C1057 1.376 . S
C1061 C1060 1.392 . S
C1061 H1073 0.929 . S
C1062 C1058 1.531 . S
C1062 H1074 0.960 . S
C1062 H1075 0.962 . S
C1062 H1076 0.960 . S
C1063 C1060 1.511 . S
C1063 H1077 0.961 . S
C1063 H1078 0.961 . S
C1063 H1079 0.961 . S
C1064 C1065 1.370 . S
C1064 C1066 1.363 . S
C1064 H1080 0.931 . S
C1065 C1064 1.370 . S
C1065 C1069 1.408 . S
C1066 C1064 1.363 . S
C1066 C1067 1.370 . S
C1066 C1070 1.524 . S
C1067 C1059 1.503 . S
C1067 C1066 1.370 . S
C1067 C1068 1.403 . S
C1068 C1067 1.403 . S
C1068 C1069 1.404 . S
C1068 C1071 1.539 . S
C1069 C1065 1.408 . S
C1069 C1068 1.404 . S
C1069 H1081 0.930 . S
C1070 C1066 1.524 . S
C1070 H1082 0.956 . S
C1070 H1083 0.961 . S
C1070 H1084 0.961 . S
C1071 C1068 1.539 . S
C1071 H1085 0.958 . S
C1071 H1086 0.961 . S
C1071 H1087 0.960 . S
H1072 C1056 0.931 . S
H1073 C1061 0.929 . S
H1074 C1062 0.960 . S
H1075 C1062 0.962 . S
H1076 C1062 0.960 . S
H1077 C1063 0.961 . S
H1078 C1063 0.961 . S
H1079 C1063 0.961 . S
H1080 C1064 0.931 . S
H1081 C1069 0.930 . S
H1082 C1070 0.956 . S
H1083 C1070 0.961 . S
H1084 C1070 0.961 . S
H1085 C1071 0.958 . S
H1086 C1071 0.961 . S
H1087 C1071 0.960 . S
C1088 C1089 1.391 . S
C1088 C1090 1.394 . S
C1088 H1104 0.931 . S
C1089 C1088 1.391 . S
C1089 C1093 1.376 . S
C1090 C1088 1.394 . S
C1090 C1091 1.369 . S
C1090 C1094 1.531 . S
C1091 C1090 1.369 . S
C1091 C1092 1.410 . S
C1091 C1099 1.503 . S
C1092 C1091 1.410 . S
C1092 C1093 1.392 . S
C1092 C1095 1.511 . S
C1093 C1089 1.376 . S
C1093 C1092 1.392 . S
C1093 H1105 0.929 . S
C1094 C1090 1.531 . S
C1094 H1106 0.960 . S
C1094 H1107 0.962 . S
C1094 H1108 0.960 . S
C1095 C1092 1.511 . S
C1095 H1109 0.961 . S
C1095 H1110 0.961 . S
C1095 H1111 0.961 . S
C1096 C1097 1.370 . S
C1096 C1098 1.363 . S
C1096 H1112 0.931 . S
C1097 C1096 1.370 . S
C1097 C1101 1.408 . S
C1098 C1096 1.363 . S
C1098 C1099 1.370 . S
C1098 C1102 1.524 . S
C1099 C1091 1.503 . S
C1099 C1098 1.370 . S
C1099 C1100 1.403 . S
C1100 C1099 1.403 . S
C1100 C1101 1.404 . S
C1100 C1103 1.539 . S
C1101 C1097 1.408 . S
C1101 C1100 1.404 . S
C1101 H1113 0.930 . S
C1102 C1098 1.524 . S
C1102 H1114 0.956 . S
C1102 H1115 0.961 . S
C1102 H1116 0.961 . S
C1103 C1100 1.539 . S
C1103 H1117 0.958 . S
C1103 H1118 0.961 . S
C1103 H1119 0.960 . S
H1104 C1088 0.931 . S
H1105 C1093 0.929 . S
H1106 C1094 0.960 . S
H1107 C1094 0.962 . S
H1108 C1094 0.960 . S
H1109 C1095 0.961 . S
H1110 C1095 0.961 . S
H1111 C1095 0.961 . S
H1112 C1096 0.931 . S
H1113 C1101 0.930 . S
H1114 C1102 0.956 . S
H1115 C1102 0.961 . S
H1116 C1102 0.961 . S
H1117 C1103 0.958 . S
H1118 C1103 0.961 . S
H1119 C1103 0.960 . S
C1120 C1121 1.391 . S
C1120 C1122 1.394 . S
C1120 H1136 0.931 . S
C1121 C1120 1.391 . S
C1121 C1125 1.376 . S
C1122 C1120 1.394 . S
C1122 C1123 1.369 . S
C1122 C1126 1.531 . S
C1123 C1122 1.369 . S
C1123 C1124 1.410 . S
C1123 C1131 1.503 . S
C1124 C1123 1.410 . S
C1124 C1125 1.392 . S
C1124 C1127 1.511 . S
C1125 C1121 1.376 . S
C1125 C1124 1.392 . S
C1125 H1137 0.929 . S
C1126 C1122 1.531 . S
C1126 H1138 0.960 . S
C1126 H1139 0.962 . S
C1126 H1140 0.960 . S
C1127 C1124 1.511 . S
C1127 H1141 0.961 . S
C1127 H1142 0.961 . S
C1127 H1143 0.961 . S
C1128 C1129 1.370 . S
C1128 C1130 1.363 . S
C1128 H1144 0.931 . S
C1129 C1128 1.370 . S
C1129 C1133 1.408 . S
C1130 C1128 1.363 . S
C1130 C1131 1.370 . S
C1130 C1134 1.524 . S
C1131 C1123 1.503 . S
C1131 C1130 1.370 . S
C1131 C1132 1.403 . S
C1132 C1131 1.403 . S
C1132 C1133 1.404 . S
C1132 C1135 1.539 . S
C1133 C1129 1.408 . S
C1133 C1132 1.404 . S
C1133 H1145 0.930 . S
C1134 C1130 1.524 . S
C1134 H1146 0.956 . S
C1134 H1147 0.961 . S
C1134 H1148 0.961 . S
C1135 C1132 1.539 . S
C1135 H1149 0.958 . S
C1135 H1150 0.961 . S
C1135 H1151 0.960 . S
H1136 C1120 0.931 . S
H1137 C1125 0.929 . S
H1138 C1126 0.960 . S
H1139 C1126 0.962 . S
H1140 C1126 0.960 . S
H1141 C1127 0.961 . S
H1142 C1127 0.961 . S
H1143 C1127 0.961 . S
H1144 C1128 0.931 . S
H1145 C1133 0.930 . S
H1146 C1134 0.956 . S
H1147 C1134 0.961 . S
H1148 C1134 0.961 . S
H1149 C1135 0.958 . S
H1150 C1135 0.961 . S
H1151 C1135 0.960 . S
C1152 C1153 1.391 . S
C1152 C1154 1.394 . S
C1152 H1168 0.931 . S
C1153 C1152 1.391 . S
C1153 C1157 1.376 . S
C1154 C1152 1.394 . S
C1154 C1155 1.369 . S
C1154 C1158 1.531 . S
C1155 C1154 1.369 . S
C1155 C1156 1.410 . S
C1155 C1163 1.503 . S
C1156 C1155 1.410 . S
C1156 C1157 1.392 . S
C1156 C1159 1.511 . S
C1157 C1153 1.376 . S
C1157 C1156 1.392 . S
C1157 H1169 0.929 . S
C1158 C1154 1.531 . S
C1158 H1170 0.960 . S
C1158 H1171 0.962 . S
C1158 H1172 0.960 . S
C1159 C1156 1.511 . S
C1159 H1173 0.961 . S
C1159 H1174 0.961 . S
C1159 H1175 0.961 . S
C1160 C1161 1.370 . S
C1160 C1162 1.363 . S
C1160 H1176 0.931 . S
C1161 C1160 1.370 . S
C1161 C1165 1.408 . S
C1162 C1160 1.363 . S
C1162 C1163 1.370 . S
C1162 C1166 1.524 . S
C1163 C1155 1.503 . S
C1163 C1162 1.370 . S
C1163 C1164 1.403 . S
C1164 C1163 1.403 . S
C1164 C1165 1.404 . S
C1164 C1167 1.539 . S
C1165 C1161 1.408 . S
C1165 C1164 1.404 . S
C1165 H1177 0.930 . S
C1166 C1162 1.524 . S
C1166 H1178 0.956 . S
C1166 H1179 0.961 . S
C1166 H1180 0.961 . S
C1167 C1164 1.539 . S
C1167 H1181 0.958 . S
C1167 H1182 0.961 . S
C1167 H1183 0.960 . S
H1168 C1152 0.931 . S
H1169 C1157 0.929 . S
H1170 C1158 0.960 . S
H1171 C1158 0.962 . S
H1172 C1158 0.960 . S
H1173 C1159 0.961 . S
H1174 C1159 0.961 . S
H1175 C1159 0.961 . S
H1176 C1160 0.931 . S
H1177 C1165 0.930 . S
H1178 C1166 0.956 . S
H1179 C1166 0.961 . S
H1180 C1166 0.961 . S
H1181 C1167 0.958 . S
H1182 C1167 0.961 . S
H1183 C1167 0.960 . S
C1184 C1185 1.391 . S
C1184 C1186 1.394 . S
C1184 H1200 0.931 . S
C1185 C1184 1.391 . S
C1185 C1189 1.376 . S
C1186 C1184 1.394 . S
C1186 C1187 1.369 . S
C1186 C1190 1.531 . S
C1187 C1186 1.369 . S
C1187 C1188 1.410 . S
C1187 C1195 1.503 . S
C1188 C1187 1.410 . S
C1188 C1189 1.392 . S
C1188 C1191 1.511 . S
C1189 C1185 1.376 . S
C1189 C1188 1.392 . S
C1189 H1201 0.929 . S
C1190 C1186 1.531 . S
C1190 H1202 0.960 . S
C1190 H1203 0.962 . S
C1190 H1204 0.960 . S
C1191 C1188 1.511 . S
C1191 H1205 0.961 . S
C1191 H1206 0.961 . S
C1191 H1207 0.961 . S
C1192 C1193 1.370 . S
C1192 C1194 1.363 . S
C1192 H1208 0.931 . S
C1193 C1192 1.370 . S
C1193 C1197 1.408 . S
C1194 C1192 1.363 . S
C1194 C1195 1.370 . S
C1194 C1198 1.524 . S
C1195 C1187 1.503 . S
C1195 C1194 1.370 . S
C1195 C1196 1.403 . S
C1196 C1195 1.403 . S
C1196 C1197 1.404 . S
C1196 C1199 1.539 . S
C1197 C1193 1.408 . S
C1197 C1196 1.404 . S
C1197 H1209 0.930 . S
C1198 C1194 1.524 . S
C1198 H1210 0.956 . S
C1198 H1211 0.961 . S
C1198 H1212 0.961 . S
C1199 C1196 1.539 . S
C1199 H1213 0.958 . S
C1199 H1214 0.961 . S
C1199 H1215 0.960 . S
H1200 C1184 0.931 . S
H1201 C1189 0.929 . S
H1202 C1190 0.960 . S
H1203 C1190 0.962 . S
H1204 C1190 0.960 . S
H1205 C1191 0.961 . S
H1206 C1191 0.961 . S
H1207 C1191 0.961 . S
H1208 C1192 0.931 . S
H1209 C1197 0.930 . S
H1210 C1198 0.956 . S
H1211 C1198 0.961 . S
H1212 C1198 0.961 . S
H1213 C1199 0.958 . S
H1214 C1199 0.961 . S
H1215 C1199 0.960 . S
C1216 C1217 1.391 . S
C1216 C1218 1.394 . S
C1216 H1232 0.931 . S
C1217 C1216 1.391 . S
C1217 C1221 1.376 . S
C1218 C1216 1.394 . S
C1218 C1219 1.369 . S
C1218 C1222 1.531 . S
C1219 C1218 1.369 . S
C1219 C1220 1.410 . S
C1219 C1227 1.503 . S
C1220 C1219 1.410 . S
C1220 C1221 1.392 . S
C1220 C1223 1.511 . S
C1221 C1217 1.376 . S
C1221 C1220 1.392 . S
C1221 H1233 0.929 . S
C1222 C1218 1.531 . S
C1222 H1234 0.960 . S
C1222 H1235 0.962 . S
C1222 H1236 0.960 . S
C1223 C1220 1.511 . S
C1223 H1237 0.961 . S
C1223 H1238 0.961 . S
C1223 H1239 0.961 . S
C1224 C1225 1.370 . S
C1224 C1226 1.363 . S
C1224 H1240 0.931 . S
C1225 C1224 1.370 . S
C1225 C1229 1.408 . S
C1226 C1224 1.363 . S
C1226 C1227 1.370 . S
C1226 C1230 1.524 . S
C1227 C1219 1.503 . S
C1227 C1226 1.370 . S
C1227 C1228 1.403 . S
C1228 C1227 1.403 . S
C1228 C1229 1.404 . S
C1228 C1231 1.539 . S
C1229 C1225 1.408 . S
C1229 C1228 1.404 . S
C1229 H1241 0.930 . S
C1230 C1226 1.524 . S
C1230 H1242 0.956 . S
C1230 H1243 0.961 . S
C1230 H1244 0.961 . S
C1231 C1228 1.539 . S
C1231 H1245 0.958 . S
C1231 H1246 0.961 . S
C1231 H1247 0.960 . S
H1232 C1216 0.931 . S
H1233 C1221 0.929 . S
H1234 C1222 0.960 . S
H1235 C1222 0.962 . S
H1236 C1222 0.960 . S
H1237 C1223 0.961 . S
H1238 C1223 0.961 . S
H1239 C1223 0.961 . S
H1240 C1224 0.931 . S
H1241 C1229 0.930 . S
H1242 C1230 0.956 . S
H1243 C1230 0.961 . S
H1244 C1230 0.961 . S
H1245 C1231 0.958 . S
H1246 C1231 0.961 . S
H1247 C1231 0.960 . S
C481 C21 1.358 . S
C489 C335 1.406 . S
C513 C61 1.487 . S
C521 C375 1.431 . S
C553 C409 2.167 . S
C545 C82 2.148 . S
C577 C135 2.662 . S
C585 C450 2.630 . S
C617 C370 1.543 . S
C609 C15 1.480 . S
C649 C330 2.358 . S
C641 C42 2.314 . S
C681 C458 1.547 . S
C673 C101 1.543 . S
C713 C419 1.818 . S
C705 C122 1.806 . S
C737 C2 1.391 . S
C745 C455 1.431 . S
C777 C378 1.898 . S
C769 C95 1.958 . S
C801 C141 2.474 . S
C809 C338 2.451 . S
C833 C55 1.633 . S
C841 C406 1.730 . S
C873 C326 1.430 . S
C865 C181 1.415 . S
C897 C202 1.400 . S
C905 C366 1.440 . S
C929 C255 2.200 . S
C937 C418 2.195 . S
C961 C295 2.629 . S
C969 C459 2.589 . S
C993 C175 1.439 . S
C1001 C379 1.515 . S
C1033 C339 2.357 . S
C1025 C221 2.301 . S
C1065 C449 1.476 . S
C1057 C242 1.495 . S
C1097 C410 1.849 . S
C1089 C301 1.879 . S
C1121 C162 1.483 . S
C1129 C446 1.419 . S
C1161 C369 1.959 . S
C1153 C261 1.992 . S
C1193 C329 2.430 . S
C1185 C282 2.477 . S
C1217 C215 1.647 . S
C1225 C415 1.736 . S
