# Generated by pormake.
# Topology pth, (4,4)-cn, num edge types: 1
# Building blocks:
#     Node 0, Type 0, BuildingBlock: QUQFOY_clean_sbu_1, # of connection points: 4
#     Node 1, Type 0, BuildingBlock: QUQFOY_clean_sbu_1, # of connection points: 4
#     Node 2, Type 0, BuildingBlock: QUQFOY_clean_sbu_1, # of connection points: 4
#     Node 3, Type 1, BuildingBlock: MUDLON_clean_sbu_0, # of connection points: 4
#     Node 4, Type 1, BuildingBlock: MUDLON_clean_sbu_0, # of connection points: 4
#     Node 5, Type 1, BuildingBlock: MUDLON_clean_sbu_0, # of connection points: 4
#     Edge 6, Type (0, 1), BuildingBlock: EZIPEK_clean_linker_0, # of connection points: 2
#     Edge 7, Type (0, 1), BuildingBlock: EZIPEK_clean_linker_0, # of connection points: 2
#     Edge 8, Type (0, 1), BuildingBlock: EZIPEK_clean_linker_0, # of connection points: 2
#     Edge 9, Type (0, 1), BuildingBlock: EZIPEK_clean_linker_0, # of connection points: 2
#     Edge 10, Type (0, 1), BuildingBlock: EZIPEK_clean_linker_0, # of connection points: 2
#     Edge 11, Type (0, 1), BuildingBlock: EZIPEK_clean_linker_0, # of connection points: 2
#     Edge 12, Type (0, 1), BuildingBlock: EZIPEK_clean_linker_0, # of connection points: 2
#     Edge 13, Type (0, 1), BuildingBlock: EZIPEK_clean_linker_0, # of connection points: 2
#     Edge 14, Type (0, 1), BuildingBlock: EZIPEK_clean_linker_0, # of connection points: 2
#     Edge 15, Type (0, 1), BuildingBlock: EZIPEK_clean_linker_0, # of connection points: 2
#     Edge 16, Type (0, 1), BuildingBlock: EZIPEK_clean_linker_0, # of connection points: 2
#     Edge 17, Type (0, 1), BuildingBlock: EZIPEK_clean_linker_0, # of connection points: 2
# Relax obj value: 0.041
# Max RMSD: 0.131
# Mean RMSD: 0.076
data_MOF--net-pth--node1-QUQFOY_clean_sbu_1--node2-MUDLON_clean_sbu_0--edge1-EZIPEK_clean_linker_0
_symmetry_space_group_name_H-M    P1
_symmetry_Int_Tables_number       1
_symmetry_cell_setting            triclinic
loop_
_symmetry_equiv_pos_as_xyz
'x, y, z'
_cell_length_a     16.317565
_cell_length_b     17.57112
_cell_length_c     44.815367
_cell_angle_alpha  90.401456
_cell_angle_beta   89.078254
_cell_angle_gamma 119.82906
loop_
_atom_site_label
_atom_site_type_symbol
_atom_site_fract_x
_atom_site_fract_y
_atom_site_fract_z
_atom_type_partial_charge
O0 O 0.10553 0.16605 0.05543 0.0
Cd1 Cd 0.97896 0.09237 0.07808 0.0
Cd2 Cd 0.04815 0.97465 0.07768 0.0
O3 O 0.16891 0.08168 0.06119 0.0
O4 O 0.93768 0.17849 0.0894 0.0
O5 O 0.96846 0.10357 0.12259 0.0
C6 C 0.94441 0.16177 0.11691 0.0
C7 C 0.06534 0.89065 0.11471 0.0
C8 C 0.1742 0.15185 0.05166 0.0
C9 C 0.86947 0.92814 0.04348 0.0
O10 O 0.93419 0.91031 0.04934 0.0
O11 O 0.87098 0.99609 0.05398 0.0
O12 O 0.09072 0.88911 0.08744 0.0
O13 O 0.03094 0.94112 0.12114 0.0
O14 O 0.91243 0.04897 0.44196 0.0
Cd15 Cd 0.03564 0.09201 0.41702 0.0
Cd16 Cd 0.99089 0.9224 0.42431 0.0
O17 O 0.88536 0.9155 0.45191 0.0
O18 O 0.06169 0.20789 0.40114 0.0
O19 O 0.04041 0.09762 0.37204 0.0
C20 C 0.05598 0.17699 0.37463 0.0
C21 C 0.95591 0.81842 0.38678 0.0
C22 C 0.86585 0.9764 0.45578 0.0
C23 C 0.17506 0.06002 0.4493 0.0
O24 O 0.1219 0.97907 0.44362 0.0
O25 O 0.15407 0.11694 0.44074 0.0
O26 O 0.95462 0.79878 0.41453 0.0
O27 O 0.97573 0.89737 0.38023 0.0
O28 O 0.84661 0.97317 0.7263 0.0
Cd29 Cd 0.922 0.92101 0.74526 0.0
Cd30 Cd 0.05415 0.09053 0.75222 0.0
O31 O 0.96173 0.11148 0.72734 0.0
O32 O 0.83142 0.79635 0.7558 0.0
O33 O 0.91493 0.89774 0.78937 0.0
C34 C 0.85289 0.81742 0.78336 0.0
C35 C 0.11652 0.17556 0.79514 0.0
C36 C 0.87935 0.05341 0.71958 0.0
C37 C 0.106 0.97989 0.71371 0.0
O38 O 0.13613 0.0512 0.72819 0.0
O39 O 0.0213 0.91839 0.71708 0.0
O40 O 0.14706 0.20728 0.76885 0.0
O41 O 0.04926 0.09501 0.79716 0.0
Mg42 Mg 0.02109 0.51849 0.24745 0.0
C43 C 0.04048 0.4071 0.28849 0.0
O44 O 0.95327 0.39224 0.29022 0.0
C45 C 0.05009 0.66018 0.20733 0.0
O46 O 0.97328 0.64194 0.22271 0.0
C47 C 0.90112 0.39554 0.19854 0.0
O48 O 0.91899 0.46838 0.18514 0.0
O49 O 0.91564 0.39744 0.22637 0.0
O50 O 0.09838 0.4662 0.27062 0.0
O51 O 0.98494 0.58283 0.28262 0.0
C52 C 0.90665 0.57082 0.29311 0.0
O53 O 0.82669 0.50791 0.28257 0.0
O54 O 0.09318 0.61838 0.21305 0.0
Mg55 Mg 0.50546 1.01614 0.5838 0.0
C56 C 0.42209 0.05115 0.53277 0.0
O57 O 0.39814 0.9681 0.5304 0.0
C58 C 0.62482 0.04688 0.63498 0.0
O59 O 0.55711 0.96484 0.63753 0.0
C60 C 0.31272 0.9487 0.61266 0.0
O61 O 0.29451 0.97178 0.5869 0.0
O62 O 0.38922 0.9474 0.61557 0.0
O63 O 0.4728 0.0952 0.55458 0.0
O64 O 0.54386 0.9441 0.55212 0.0
C65 C 0.61897 0.9406 0.55544 0.0
O66 O 0.66007 0.96036 0.5815 0.0
O67 O 0.62377 0.09184 0.61303 0.0
Mg68 Mg 0.48518 0.52977 0.92585 0.0
C69 C 0.35318 0.40972 0.88545 0.0
O70 O 0.42516 0.39599 0.88702 0.0
C71 C 0.61273 0.67462 0.96202 0.0
O72 O 0.6611 0.64026 0.95015 0.0
C73 C 0.47551 0.42227 0.98032 0.0
O74 O 0.53589 0.49866 0.99168 0.0
O75 O 0.45904 0.41641 0.95253 0.0
O76 O 0.35439 0.47112 0.90111 0.0
O77 O 0.58973 0.58536 0.8901 0.0
C78 C 0.65599 0.57419 0.87993 0.0
O79 O 0.67244 0.51488 0.89165 0.0
O80 O 0.52581 0.64125 0.95554 0.0
C81 C 0.83931 0.20442 0.1455 0.0
C82 C 0.92977 0.21243 0.14101 0.0
C83 C 0.99957 0.33716 0.17551 0.0
C84 C 0.90885 0.32832 0.18042 0.0
N85 N 0.74061 0.24701 0.17427 0.0
N86 N 0.093 0.27608 0.15519 0.0
C87 C 0.82804 0.25978 0.16666 0.0
C88 C 0.00871 0.27507 0.15733 0.0
N89 N 0.76459 0.1446 0.12917 0.0
N90 N 0.07805 0.40798 0.18689 0.0
H91 H 0.10524 0.23624 0.14061 0.0
H92 H 0.14937 0.31215 0.16935 0.0
H93 H 0.07522 0.45447 0.20075 0.0
H94 H 0.14694 0.42481 0.18094 0.0
H95 H 0.69945 0.14183 0.1286 0.0
H96 H 0.76885 0.09919 0.11505 0.0
H97 H 0.67755 0.19357 0.16733 0.0
H98 H 0.73084 0.28721 0.18946 0.0
C99 C 0.70677 0.89245 0.48192 0.0
C100 C 0.79837 0.96786 0.47997 0.0
C101 C 0.76165 0.02989 0.52374 0.0
C102 C 0.67698 0.94942 0.52853 0.0
N103 N 0.57014 0.8009 0.51344 0.0
N104 N 0.92035 0.09867 0.50403 0.0
C105 C 0.64947 0.87967 0.50789 0.0
C106 C 0.82787 0.03415 0.50218 0.0
N107 N 0.67343 0.83485 0.45862 0.0
N108 N 0.77764 0.10355 0.53901 0.0
H109 H 0.97364 0.10259 0.48995 0.0
H110 H 0.94604 0.14259 0.52182 0.0
H111 H 0.72828 0.10466 0.55382 0.0
H112 H 0.83461 0.16559 0.53424 0.0
H113 H 0.60419 0.78316 0.45755 0.0
H114 H 0.7125 0.84359 0.43902 0.0
H115 H 0.55166 0.74464 0.50091 0.0
H116 H 0.52621 0.79033 0.53197 0.0
C117 C 0.85764 0.73939 0.82991 0.0
C118 C 0.80454 0.75132 0.80743 0.0
C119 C 0.65943 0.62963 0.82862 0.0
C120 C 0.71032 0.62723 0.8536 0.0
N121 N 0.85734 0.6894 0.88018 0.0
N122 N 0.65153 0.71899 0.78938 0.0
C123 C 0.80953 0.68428 0.85482 0.0
C124 C 0.70446 0.69913 0.80772 0.0
N125 N 0.95363 0.77815 0.82707 0.0
N126 N 0.56812 0.56466 0.82462 0.0
H127 H 0.68073 0.77267 0.77495 0.0
H128 H 0.57811 0.68817 0.79094 0.0
H129 H 0.5337 0.5111 0.83902 0.0
H130 H 0.53048 0.55893 0.80536 0.0
H131 H 0.99469 0.76475 0.84133 0.0
H132 H 0.99126 0.81666 0.80875 0.0
H133 H 0.92758 0.73711 0.88344 0.0
H134 H 0.82496 0.65082 0.89898 0.0
C135 C 0.11212 0.87065 0.16626 0.0
C136 C 0.07448 0.83493 0.13786 0.0
C137 C 0.06227 0.6957 0.15302 0.0
C138 C 0.08014 0.7255 0.18287 0.0
N139 N 0.12122 0.84161 0.21858 0.0
N140 N 0.9973 0.70624 0.1063 0.0
C141 C 0.10516 0.81331 0.18967 0.0
C142 C 0.04615 0.74573 0.13159 0.0
N143 N 0.15784 0.95937 0.17058 0.0
N144 N 0.05973 0.61941 0.14513 0.0
H145 H 0.97658 0.73751 0.09098 0.0
H146 H 0.96746 0.63919 0.10232 0.0
H147 H 0.07503 0.58319 0.16006 0.0
H148 H 0.05415 0.59831 0.12308 0.0
H149 H 0.19379 0.98934 0.19004 0.0
H150 H 0.16881 1.00382 0.15358 0.0
H151 H 0.12807 0.90123 0.22546 0.0
H152 H 0.12328 0.80323 0.23591 0.0
C153 C 0.25019 0.10695 0.49938 0.0
C154 C 0.25641 0.08582 0.46907 0.0
C155 C 0.39668 0.07481 0.47977 0.0
C156 C 0.38526 0.08821 0.51049 0.0
N157 N 0.32465 0.14804 0.54769 0.0
N158 N 0.34726 0.07292 0.42867 0.0
C159 C 0.3203 0.11539 0.51965 0.0
C160 C 0.3341 0.07778 0.45867 0.0
N161 N 0.1737 0.11261 0.50927 0.0
N162 N 0.4658 0.05652 0.47117 0.0
H163 H 0.30225 0.07567 0.41295 0.0
H164 H 0.40585 0.07298 0.41915 0.0
H165 H 0.51675 0.0607 0.48593 0.0
H166 H 0.47209 0.03592 0.44986 0.0
H167 H 0.15841 0.11591 0.53173 0.0
H168 H 0.12156 0.10834 0.49514 0.0
H169 H 0.28425 0.17577 0.55479 0.0
H170 H 0.37605 0.15671 0.56289 0.0
C171 C 0.18991 0.20057 0.84623 0.0
C172 C 0.1593 0.2313 0.82193 0.0
C173 C 0.24282 0.38065 0.84248 0.0
C174 C 0.27191 0.3493 0.86687 0.0
N175 N 0.24616 0.22628 0.89703 0.0
N176 N 0.13049 0.34374 0.80268 0.0
C177 C 0.23584 0.25797 0.87044 0.0
C178 C 0.17731 0.31926 0.82193 0.0
N179 N 0.18241 0.11956 0.84539 0.0
N180 N 0.28156 0.46871 0.83778 0.0
H181 H 0.07915 0.29953 0.78821 0.0
H182 H 0.13485 0.40493 0.80346 0.0
H183 H 0.32942 0.51595 0.85229 0.0
H184 H 0.27123 0.49484 0.81834 0.0
H185 H 0.21316 0.09862 0.86117 0.0
H186 H 0.15411 0.07628 0.82758 0.0
H187 H 0.21404 0.1595 0.90185 0.0
H188 H 0.27812 0.26692 0.91535 0.0
C189 C 0.74051 0.07253 0.70929 0.0
C190 C 0.82523 0.07679 0.6991 0.0
C191 C 0.79431 0.10448 0.6481 0.0
C192 C 0.70135 0.08168 0.65724 0.0
N193 N 0.58803 0.05544 0.6965 0.0
N194 N 0.93354 0.09448 0.65883 0.0
C195 C 0.6757 0.07051 0.688 0.0
C196 C 0.85351 0.09413 0.66861 0.0
N197 N 0.72277 0.07062 0.73927 0.0
N198 N 0.82572 0.13492 0.61988 0.0
H199 H 0.97926 0.08754 0.67305 0.0
H200 H 0.95134 0.09523 0.63638 0.0
H201 H 0.78514 0.1451 0.6045 0.0
H202 H 0.89547 0.15962 0.61276 0.0
H203 H 0.66581 0.07402 0.74853 0.0
H204 H 0.76978 0.07239 0.75516 0.0
H205 H 0.55953 0.03634 0.71789 0.0
H206 H 0.54246 0.06055 0.68159 0.0
C207 C 0.70341 0.81158 0.03253 0.0
C208 C 0.7955 0.87263 1.02207 0.0
C209 C 0.74886 0.82318 0.97074 0.0
C210 C 0.66311 0.75216 0.98174 0.0
N211 N 0.55454 0.68 1.0227 0.0
N212 N 0.90734 0.94015 0.98147 0.0
C213 C 0.63818 0.74773 1.01247 0.0
C214 C 0.81837 0.88009 0.99116 0.0
N215 N 0.67872 0.81454 0.06165 0.0
N216 N 0.76248 0.8365 0.94061 0.0
H217 H 0.95863 0.98616 0.99554 0.0
H218 H 0.93219 0.94185 0.95981 0.0
H219 H 0.71115 0.79674 0.92529 0.0
H220 H 0.81969 0.89106 0.93088 0.0
H221 H 0.61012 0.77803 0.07008 0.0
H222 H 0.72591 0.85843 0.07713 0.0
H223 H 0.53762 0.66499 0.04518 0.0
H224 H 0.50224 0.63699 1.00844 0.0
C225 C 0.98888 0.70554 0.36369 0.0
C226 C 0.93885 0.75247 0.36316 0.0
C227 C 0.86505 0.67932 0.31618 0.0
C228 C 0.90856 0.62688 0.31836 0.0
N229 N 0.99169 0.57456 0.34849 0.0
N230 N 0.81306 0.76928 0.34238 0.0
C231 C 0.96412 0.63516 0.3435 0.0
C232 C 0.87209 0.73513 0.3404 0.0
N233 N 0.06383 0.73111 0.38224 0.0
N234 N 0.82098 0.67936 0.29052 0.0
H235 H 0.81403 0.80831 0.36016 0.0
H236 H 0.75692 0.75167 0.32798 0.0
H237 H 0.81509 0.64039 0.27213 0.0
H238 H 0.79751 0.72366 0.28652 0.0
H239 H 0.10828 0.70438 0.38127 0.0
H240 H 0.0884 0.7855 0.39625 0.0
H241 H 0.02473 0.57288 0.36798 0.0
H242 H 0.97227 0.52029 0.33471 0.0
C243 C 0.17581 0.89808 0.68674 0.0
C244 C 0.16518 0.97345 0.68937 0.0
C245 C 0.26696 0.03714 0.64535 0.0
C246 C 0.26487 0.95667 0.6399 0.0
N247 N 0.21223 0.8073 0.65418 0.0
N248 N 0.18335 0.10574 0.66634 0.0
C249 C 0.21822 0.88613 0.66035 0.0
C250 C 0.20625 0.04078 0.66744 0.0
N251 N 0.14818 0.83957 0.7098 0.0
N252 N 0.32956 0.11137 0.63021 0.0
H253 H 0.1353 0.10968 0.68091 0.0
H254 H 0.20416 0.15035 0.64874 0.0
H255 H 0.37946 0.113 0.61501 0.0
H256 H 0.33953 0.1733 0.63544 0.0
H257 H 0.162 0.78778 0.71037 0.0
H258 H 0.11933 0.84769 0.72969 0.0
H259 H 0.17068 0.75065 0.6666 0.0
H260 H 0.24352 0.79704 0.63525 0.0
C261 C 0.30135 0.19598 1.01139 0.0
C262 C 0.26068 0.21884 0.03579 0.0
C263 C 0.35614 0.37309 1.02227 0.0
C264 C 0.40532 0.35206 1.00027 0.0
N265 N 0.4361 0.2437 0.97771 0.0
N266 N 0.2726 0.33169 0.0695 0.0
C267 C 0.38179 0.26346 0.99611 0.0
C268 C 0.29616 0.30827 0.04298 0.0
N269 N 0.26009 0.11143 1.00137 0.0
N270 N 0.35896 0.45202 1.0218 0.0
H271 H 0.23158 0.28595 0.08587 0.0
H272 H 0.30293 0.39681 0.07646 0.0
H273 H 0.39 0.49633 1.00428 0.0
H274 H 0.31834 0.46724 0.0362 0.0
H275 H 0.28163 0.09365 0.9818 0.0
H276 H 0.19862 0.0603 1.01071 0.0
H277 H 0.42736 0.1809 0.97606 0.0
H278 H 0.49549 0.29169 0.9663 0.0
C279 C 0.99666 0.19966 0.32547 0.0
C280 C 0.06554 0.23205 0.34825 0.0
C281 C 0.13286 0.38122 0.32793 0.0
C282 C 0.06423 0.34833 0.30525 0.0
N283 N 0.95406 0.22435 0.27639 0.0
N284 N 0.2167 0.34754 0.36501 0.0
C285 C 1.00424 0.25668 0.30199 0.0
C286 C 0.13947 0.32102 0.34746 0.0
N287 N 0.91983 0.11719 0.32727 0.0
N288 N 0.18795 0.4696 0.33199 0.0
H289 H 0.22529 0.30431 0.37872 0.0
H290 H 0.27637 0.40966 0.36352 0.0
H291 H 0.18604 0.51569 0.31794 0.0
H292 H 0.231 0.49704 0.35044 0.0
H293 H 0.86288 0.09475 0.3129 0.0
H294 H 0.90778 0.07378 0.34467 0.0
H295 H 0.91554 0.15755 0.27158 0.0
H296 H 0.95971 0.26485 0.2586 0.0
loop_
_geom_bond_atom_site_label_1
_geom_bond_atom_site_label_2
_geom_bond_distance
_geom_bond_site_symmetry_2
_ccdc_geom_bond_type
O0 Cd1 2.223 1_455 S
O0 C8 1.315 . S
Cd1 O0 2.223 1_655 S
Cd1 O4 2.297 . S
Cd1 O5 2.439 . S
Cd1 O11 2.240 1_545 S
Cd2 O3 2.240 1_565 S
Cd2 O10 2.223 1_455 S
Cd2 O12 2.297 . S
Cd2 O13 2.439 . S
O3 Cd2 2.240 1_545 S
O3 C8 1.279 . S
O4 Cd1 2.297 . S
O4 C6 1.247 . S
O5 Cd1 2.439 . S
O5 C6 1.208 . S
C6 O4 1.247 . S
C6 O5 1.208 . S
C7 O12 1.247 . S
C7 O13 1.208 . S
C8 O0 1.315 . S
C8 O3 1.279 . S
C9 O10 1.315 . S
C9 O11 1.279 . S
O10 Cd2 2.223 1_655 S
O10 C9 1.315 . S
O11 Cd1 2.240 1_565 S
O11 C9 1.279 . S
O12 Cd2 2.297 . S
O12 C7 1.247 . S
O13 Cd2 2.439 . S
O13 C7 1.208 . S
O14 Cd15 2.223 1_655 S
O14 C22 1.315 . S
Cd15 O14 2.223 1_455 S
Cd15 O18 2.297 . S
Cd15 O19 2.439 . S
Cd15 O25 2.240 . S
Cd16 O17 2.240 . S
Cd16 O24 2.223 1_655 S
Cd16 O26 2.297 . S
Cd16 O27 2.439 . S
O17 Cd16 2.240 . S
O17 C22 1.279 1_565 S
O18 Cd15 2.297 . S
O18 C20 1.247 . S
O19 Cd15 2.439 . S
O19 C20 1.208 . S
C20 O18 1.247 . S
C20 O19 1.208 . S
C21 O26 1.247 . S
C21 O27 1.208 . S
C22 O14 1.315 . S
C22 O17 1.279 1_545 S
C23 O24 1.315 . S
C23 O25 1.279 1_565 S
O24 Cd16 2.223 1_455 S
O24 C23 1.315 . S
O25 Cd15 2.240 . S
O25 C23 1.279 1_545 S
O26 Cd16 2.297 . S
O26 C21 1.247 . S
O27 Cd16 2.439 . S
O27 C21 1.208 . S
O28 Cd29 2.223 . S
O28 C36 1.315 . S
Cd29 O28 2.223 . S
Cd29 O32 2.297 . S
Cd29 O33 2.439 . S
Cd29 O39 2.240 1_655 S
Cd30 O31 2.240 1_455 S
Cd30 O38 2.223 . S
Cd30 O40 2.297 . S
Cd30 O41 2.439 . S
O31 Cd30 2.240 1_655 S
O31 C36 1.279 1_545 S
O32 Cd29 2.297 . S
O32 C34 1.247 . S
O33 Cd29 2.439 . S
O33 C34 1.208 . S
C34 O32 1.247 . S
C34 O33 1.208 . S
C35 O40 1.247 . S
C35 O41 1.208 . S
C36 O28 1.315 . S
C36 O31 1.279 1_565 S
C37 O38 1.315 . S
C37 O39 1.279 1_545 S
O38 Cd30 2.223 . S
O38 C37 1.315 . S
O39 Cd29 2.240 1_455 S
O39 C37 1.279 1_565 S
O40 Cd30 2.297 . S
O40 C35 1.247 . S
O41 Cd30 2.439 . S
O41 C35 1.208 . S
Mg42 O49 2.141 . S
Mg42 O50 2.048 . S
Mg42 O51 2.048 . S
Mg42 O54 2.141 . S
C43 O44 1.313 . S
C43 O50 1.195 1_655 S
O44 C43 1.313 . S
C45 O46 1.245 . S
C45 O54 1.289 1_655 S
O46 C45 1.245 . S
C47 O48 1.245 . S
C47 O49 1.289 1_655 S
O48 C47 1.245 . S
O49 Mg42 2.141 . S
O49 C47 1.289 1_455 S
O50 Mg42 2.048 . S
O50 C43 1.195 1_455 S
O51 Mg42 2.048 . S
O51 C52 1.195 1_455 S
C52 O51 1.195 1_655 S
C52 O53 1.313 . S
O53 C52 1.313 . S
O54 Mg42 2.141 . S
O54 C45 1.289 1_455 S
Mg55 O62 2.141 . S
Mg55 O63 2.048 . S
Mg55 O64 2.048 . S
Mg55 O67 2.141 . S
C56 O57 1.313 . S
C56 O63 1.195 1_565 S
O57 C56 1.313 . S
C58 O59 1.245 . S
C58 O67 1.289 1_565 S
O59 C58 1.245 . S
C60 O61 1.245 . S
C60 O62 1.289 1_565 S
O61 C60 1.245 . S
O62 Mg55 2.141 . S
O62 C60 1.289 1_545 S
O63 Mg55 2.048 . S
O63 C56 1.195 1_545 S
O64 Mg55 2.048 . S
O64 C65 1.195 1_545 S
C65 O64 1.195 1_565 S
C65 O66 1.313 . S
O66 C65 1.313 . S
O67 Mg55 2.141 . S
O67 C58 1.289 1_545 S
Mg68 O75 2.141 . S
Mg68 O76 2.048 . S
Mg68 O77 2.048 . S
Mg68 O80 2.141 . S
C69 O70 1.313 . S
C69 O76 1.195 . S
O70 C69 1.313 . S
C71 O72 1.245 . S
C71 O80 1.289 . S
O72 C71 1.245 . S
C73 O74 1.245 . S
C73 O75 1.289 . S
O74 C73 1.245 . S
O75 Mg68 2.141 . S
O75 C73 1.289 . S
O76 Mg68 2.048 . S
O76 C69 1.195 . S
O77 Mg68 2.048 . S
O77 C78 1.195 . S
C78 O77 1.195 . S
C78 O79 1.313 . S
O79 C78 1.313 . S
O80 Mg68 2.141 . S
O80 C71 1.289 . S
C81 C82 1.363 . S
C81 C87 1.379 . S
C81 N89 1.356 . S
C82 C81 1.363 . S
C82 C88 1.363 1_655 S
C83 C84 1.362 1_455 S
C83 C88 1.379 . S
C83 N90 1.356 . S
C84 C83 1.362 1_655 S
C84 C87 1.363 . S
N85 C87 1.356 . S
N85 H97 0.984 . S
N85 H98 0.985 . S
N86 C88 1.356 . S
N86 H91 0.984 . S
N86 H92 0.985 . S
C87 C81 1.379 . S
C87 C84 1.363 . S
C87 N85 1.356 . S
C88 C82 1.363 1_455 S
C88 C83 1.379 . S
C88 N86 1.356 . S
N89 C81 1.356 . S
N89 H95 0.984 . S
N89 H96 0.984 . S
N90 C83 1.356 . S
N90 H93 0.984 . S
N90 H94 0.985 . S
H91 N86 0.984 . S
H92 N86 0.985 . S
H93 N90 0.984 . S
H94 N90 0.985 . S
H95 N89 0.984 . S
H96 N89 0.984 . S
H97 N85 0.984 . S
H98 N85 0.985 . S
C99 C100 1.363 1_565 S
C99 C105 1.379 . S
C99 N107 1.356 . S
C100 C99 1.363 1_545 S
C100 C106 1.363 . S
C101 C102 1.363 . S
C101 C106 1.379 . S
C101 N108 1.356 . S
C102 C101 1.363 . S
C102 C105 1.363 1_545 S
N103 C105 1.356 . S
N103 H115 0.984 . S
N103 H116 0.985 . S
N104 C106 1.356 . S
N104 H109 0.984 . S
N104 H110 0.985 . S
C105 C99 1.379 . S
C105 C102 1.363 1_565 S
C105 N103 1.356 . S
C106 C100 1.363 . S
C106 C101 1.379 . S
C106 N104 1.356 . S
N107 C99 1.356 . S
N107 H113 0.984 . S
N107 H114 0.984 . S
N108 C101 1.356 . S
N108 H111 0.984 . S
N108 H112 0.985 . S
H109 N104 0.984 . S
H110 N104 0.985 . S
H111 N108 0.984 . S
H112 N108 0.985 . S
H113 N107 0.984 . S
H114 N107 0.984 . S
H115 N103 0.984 . S
H116 N103 0.985 . S
C117 C118 1.363 . S
C117 C123 1.379 . S
C117 N125 1.356 . S
C118 C117 1.363 . S
C118 C124 1.363 . S
C119 C120 1.363 . S
C119 C124 1.379 . S
C119 N126 1.356 . S
C120 C119 1.363 . S
C120 C123 1.363 . S
N121 C123 1.356 . S
N121 H133 0.984 . S
N121 H134 0.985 . S
N122 C124 1.356 . S
N122 H127 0.984 . S
N122 H128 0.985 . S
C123 C117 1.379 . S
C123 C120 1.363 . S
C123 N121 1.356 . S
C124 C118 1.363 . S
C124 C119 1.379 . S
C124 N122 1.356 . S
N125 C117 1.356 . S
N125 H131 0.984 . S
N125 H132 0.984 . S
N126 C119 1.356 . S
N126 H129 0.984 . S
N126 H130 0.985 . S
H127 N122 0.984 . S
H128 N122 0.985 . S
H129 N126 0.984 . S
H130 N126 0.985 . S
H131 N125 0.984 . S
H132 N125 0.984 . S
H133 N121 0.984 . S
H134 N121 0.985 . S
C135 C136 1.363 . S
C135 C141 1.379 . S
C135 N143 1.356 . S
C136 C135 1.363 . S
C136 C142 1.363 1_455 S
C137 C138 1.362 1_655 S
C137 C142 1.379 . S
C137 N144 1.356 . S
C138 C137 1.362 1_455 S
C138 C141 1.362 . S
N139 C141 1.356 . S
N139 H151 0.984 . S
N139 H152 0.985 . S
N140 C142 1.356 . S
N140 H145 0.984 . S
N140 H146 0.985 . S
C141 C135 1.379 . S
C141 C138 1.362 . S
C141 N139 1.356 . S
C142 C136 1.363 1_655 S
C142 C137 1.379 . S
C142 N140 1.356 . S
N143 C135 1.356 . S
N143 H149 0.984 . S
N143 H150 0.984 . S
N144 C137 1.356 . S
N144 H147 0.984 . S
N144 H148 0.985 . S
H145 N140 0.984 . S
H146 N140 0.985 . S
H147 N144 0.984 . S
H148 N144 0.985 . S
H149 N143 0.984 . S
H150 N143 0.984 . S
H151 N139 0.984 . S
H152 N139 0.985 . S
C153 C154 1.363 . S
C153 C159 1.379 . S
C153 N161 1.356 . S
C154 C153 1.363 . S
C154 C160 1.363 1_565 S
C155 C156 1.363 1_545 S
C155 C160 1.379 . S
C155 N162 1.356 . S
C156 C155 1.363 1_565 S
C156 C159 1.363 . S
N157 C159 1.356 . S
N157 H169 0.984 . S
N157 H170 0.985 . S
N158 C160 1.356 . S
N158 H163 0.984 . S
N158 H164 0.985 . S
C159 C153 1.379 . S
C159 C156 1.363 . S
C159 N157 1.356 . S
C160 C154 1.363 1_545 S
C160 C155 1.379 . S
C160 N158 1.356 . S
N161 C153 1.356 . S
N161 H167 0.984 . S
N161 H168 0.984 . S
N162 C155 1.356 . S
N162 H165 0.984 . S
N162 H166 0.985 . S
H163 N158 0.984 . S
H164 N158 0.985 . S
H165 N162 0.984 . S
H166 N162 0.985 . S
H167 N161 0.984 . S
H168 N161 0.984 . S
H169 N157 0.984 . S
H170 N157 0.985 . S
C171 C172 1.363 . S
C171 C177 1.379 . S
C171 N179 1.356 . S
C172 C171 1.363 . S
C172 C178 1.363 . S
C173 C174 1.363 . S
C173 C178 1.379 . S
C173 N180 1.356 . S
C174 C173 1.363 . S
C174 C177 1.363 . S
N175 C177 1.356 . S
N175 H187 0.984 . S
N175 H188 0.985 . S
N176 C178 1.356 . S
N176 H181 0.984 . S
N176 H182 0.985 . S
C177 C171 1.379 . S
C177 C174 1.363 . S
C177 N175 1.356 . S
C178 C172 1.363 . S
C178 C173 1.379 . S
C178 N176 1.356 . S
N179 C171 1.356 . S
N179 H185 0.984 . S
N179 H186 0.984 . S
N180 C173 1.356 . S
N180 H183 0.984 . S
N180 H184 0.985 . S
H181 N176 0.984 . S
H182 N176 0.985 . S
H183 N180 0.984 . S
H184 N180 0.985 . S
H185 N179 0.984 . S
H186 N179 0.984 . S
H187 N175 0.984 . S
H188 N175 0.985 . S
C189 C190 1.363 1_545 S
C189 C195 1.379 . S
C189 N197 1.356 . S
C190 C189 1.363 1_565 S
C190 C196 1.363 . S
C191 C192 1.363 . S
C191 C196 1.379 . S
C191 N198 1.356 . S
C192 C191 1.363 . S
C192 C195 1.363 1_565 S
N193 C195 1.356 . S
N193 H205 0.984 . S
N193 H206 0.985 . S
N194 C196 1.356 . S
N194 H199 0.984 . S
N194 H200 0.985 . S
C195 C189 1.379 . S
C195 C192 1.363 1_545 S
C195 N193 1.356 . S
C196 C190 1.363 . S
C196 C191 1.379 . S
C196 N194 1.356 . S
N197 C189 1.356 . S
N197 H203 0.984 . S
N197 H204 0.984 . S
N198 C191 1.356 . S
N198 H201 0.984 . S
N198 H202 0.985 . S
H199 N194 0.984 . S
H200 N194 0.985 . S
H201 N198 0.984 . S
H202 N198 0.985 . S
H203 N197 0.984 . S
H204 N197 0.984 . S
H205 N193 0.984 . S
H206 N193 0.985 . S
C207 C208 1.363 1_554 S
C207 C213 1.379 1_554 S
C207 N215 1.356 . S
C208 C207 1.363 1_556 S
C208 C214 1.363 . S
C209 C210 1.363 . S
C209 C214 1.379 . S
C209 N216 1.356 . S
C210 C209 1.363 . S
C210 C213 1.363 . S
N211 C213 1.356 . S
N211 H223 0.984 . S
N211 H224 0.985 . S
N212 C214 1.356 . S
N212 H217 0.984 . S
N212 H218 0.985 . S
C213 C207 1.379 1_556 S
C213 C210 1.363 . S
C213 N211 1.356 . S
C214 C208 1.363 . S
C214 C209 1.379 . S
C214 N212 1.356 . S
N215 C207 1.356 . S
N215 H221 0.984 . S
N215 H222 0.984 . S
N216 C209 1.356 . S
N216 H219 0.984 . S
N216 H220 0.985 . S
H217 N212 0.984 . S
H218 N212 0.985 . S
H219 N216 0.984 . S
H220 N216 0.985 . S
H221 N215 0.984 . S
H222 N215 0.984 . S
H223 N211 0.984 . S
H224 N211 0.985 . S
C225 C226 1.363 . S
C225 C231 1.379 . S
C225 N233 1.356 . S
C226 C225 1.363 . S
C226 C232 1.363 1_455 S
C227 C228 1.363 1_655 S
C227 C232 1.379 . S
C227 N234 1.356 . S
C228 C227 1.363 1_455 S
C228 C231 1.363 . S
N229 C231 1.356 . S
N229 H241 0.984 . S
N229 H242 0.985 . S
N230 C232 1.356 . S
N230 H235 0.984 . S
N230 H236 0.985 . S
C231 C225 1.379 . S
C231 C228 1.363 . S
C231 N229 1.356 . S
C232 C226 1.363 1_655 S
C232 C227 1.379 . S
C232 N230 1.356 . S
N233 C225 1.356 . S
N233 H239 0.984 . S
N233 H240 0.984 . S
N234 C227 1.356 . S
N234 H237 0.984 . S
N234 H238 0.985 . S
H235 N230 0.984 . S
H236 N230 0.985 . S
H237 N234 0.984 . S
H238 N234 0.985 . S
H239 N233 0.984 . S
H240 N233 0.984 . S
H241 N229 0.984 . S
H242 N229 0.985 . S
C243 C244 1.363 1_565 S
C243 C249 1.379 . S
C243 N251 1.356 . S
C244 C243 1.363 1_545 S
C244 C250 1.363 . S
C245 C246 1.363 . S
C245 C250 1.379 . S
C245 N252 1.356 . S
C246 C245 1.363 . S
C246 C249 1.363 1_545 S
N247 C249 1.356 . S
N247 H259 0.984 . S
N247 H260 0.985 . S
N248 C250 1.356 . S
N248 H253 0.984 . S
N248 H254 0.985 . S
C249 C243 1.379 . S
C249 C246 1.363 1_565 S
C249 N247 1.356 . S
C250 C244 1.363 . S
C250 C245 1.379 . S
C250 N248 1.356 . S
N251 C243 1.356 . S
N251 H257 0.984 . S
N251 H258 0.984 . S
N252 C245 1.356 . S
N252 H255 0.984 . S
N252 H256 0.985 . S
H253 N248 0.984 . S
H254 N248 0.985 . S
H255 N252 0.984 . S
H256 N252 0.985 . S
H257 N251 0.984 . S
H258 N251 0.984 . S
H259 N247 0.984 . S
H260 N247 0.985 . S
C261 C262 1.363 . S
C261 C267 1.379 . S
C261 N269 1.356 . S
C262 C261 1.363 . S
C262 C268 1.363 1_556 S
C263 C264 1.363 . S
C263 C268 1.379 1_556 S
C263 N270 1.356 . S
C264 C263 1.363 . S
C264 C267 1.363 . S
N265 C267 1.356 . S
N265 H277 0.984 . S
N265 H278 0.985 . S
N266 C268 1.356 . S
N266 H271 0.984 . S
N266 H272 0.985 . S
C267 C261 1.379 . S
C267 C264 1.363 . S
C267 N265 1.356 . S
C268 C262 1.363 1_554 S
C268 C263 1.379 1_554 S
C268 N266 1.356 . S
N269 C261 1.356 . S
N269 H275 0.984 . S
N269 H276 0.984 . S
N270 C263 1.356 . S
N270 H273 0.984 . S
N270 H274 0.985 . S
H271 N266 0.984 . S
H272 N266 0.985 . S
H273 N270 0.984 . S
H274 N270 0.985 . S
H275 N269 0.984 . S
H276 N269 0.984 . S
H277 N265 0.984 . S
H278 N265 0.985 . S
C279 C280 1.363 . S
C279 C285 1.379 . S
C279 N287 1.356 . S
C280 C279 1.363 . S
C280 C286 1.363 1_655 S
C281 C282 1.363 1_455 S
C281 C286 1.379 . S
C281 N288 1.356 . S
C282 C281 1.363 1_655 S
C282 C285 1.363 . S
N283 C285 1.356 . S
N283 H295 0.984 . S
N283 H296 0.985 . S
N284 C286 1.356 . S
N284 H289 0.984 . S
N284 H290 0.985 . S
C285 C279 1.379 . S
C285 C282 1.363 . S
C285 N283 1.356 . S
C286 C280 1.363 1_455 S
C286 C281 1.379 . S
C286 N284 1.356 . S
N287 C279 1.356 . S
N287 H293 0.984 . S
N287 H294 0.984 . S
N288 C281 1.356 . S
N288 H291 0.984 . S
N288 H292 0.985 . S
H289 N284 0.984 . S
H290 N284 0.985 . S
H291 N288 0.984 . S
H292 N288 0.985 . S
H293 N287 0.984 . S
H294 N287 0.984 . S
H295 N283 0.984 . S
H296 N283 0.985 . S
C84 C47 1.442 . S
C82 C6 1.441 . S
C100 C22 1.537 . S
C102 C65 1.555 1_545 S
C118 C34 1.348 . S
C120 C78 1.366 . S
C136 C7 1.442 . S
C138 C45 1.444 1_455 S
C156 C56 1.551 . S
C154 C23 1.536 . S
C172 C35 1.348 . S
C174 C69 1.355 . S
C192 C58 1.490 . S
C190 C36 1.495 . S
C208 C9 1.646 1_556 S
C210 C71 1.671 . S
C228 C52 1.501 1_455 S
C226 C21 1.489 1_455 S
C246 C60 1.500 1_545 S
C244 C37 1.493 . S
C264 C73 1.669 . S
C262 C8 1.645 1_556 S
C280 C20 1.488 1_655 S
C282 C43 1.496 . S
