# Generated by pormake.
# Topology pth, (4,4)-cn, num edge types: 1
# Building blocks:
#     Node 0, Type 0, BuildingBlock: NAHDIM_clean_sbu_0, # of connection points: 4
#     Node 1, Type 0, BuildingBlock: NAHDIM_clean_sbu_0, # of connection points: 4
#     Node 2, Type 0, BuildingBlock: NAHDIM_clean_sbu_0, # of connection points: 4
#     Node 3, Type 1, BuildingBlock: KOZSID_clean_sbu_0, # of connection points: 4
#     Node 4, Type 1, BuildingBlock: KOZSID_clean_sbu_0, # of connection points: 4
#     Node 5, Type 1, BuildingBlock: KOZSID_clean_sbu_0, # of connection points: 4
#     Edge 6, Type (0, 1), BuildingBlock: CIFDUS_clean_linker_0, # of connection points: 2
#     Edge 7, Type (0, 1), BuildingBlock: CIFDUS_clean_linker_0, # of connection points: 2
#     Edge 8, Type (0, 1), BuildingBlock: CIFDUS_clean_linker_0, # of connection points: 2
#     Edge 9, Type (0, 1), BuildingBlock: CIFDUS_clean_linker_0, # of connection points: 2
#     Edge 10, Type (0, 1), BuildingBlock: CIFDUS_clean_linker_0, # of connection points: 2
#     Edge 11, Type (0, 1), BuildingBlock: CIFDUS_clean_linker_0, # of connection points: 2
#     Edge 12, Type (0, 1), BuildingBlock: CIFDUS_clean_linker_0, # of connection points: 2
#     Edge 13, Type (0, 1), BuildingBlock: CIFDUS_clean_linker_0, # of connection points: 2
#     Edge 14, Type (0, 1), BuildingBlock: CIFDUS_clean_linker_0, # of connection points: 2
#     Edge 15, Type (0, 1), BuildingBlock: CIFDUS_clean_linker_0, # of connection points: 2
#     Edge 16, Type (0, 1), BuildingBlock: CIFDUS_clean_linker_0, # of connection points: 2
#     Edge 17, Type (0, 1), BuildingBlock: CIFDUS_clean_linker_0, # of connection points: 2
# Relax obj value: 0.042
# Max RMSD: 0.171
# Mean RMSD: 0.086
data_MOF--net-pth--node1-NAHDIM_clean_sbu_0--node2-KOZSID_clean_sbu_0--edge1-CIFDUS_clean_linker_0
_symmetry_space_group_name_H-M    P1
_symmetry_Int_Tables_number       1
_symmetry_cell_setting            triclinic
loop_
_symmetry_equiv_pos_as_xyz
'x, y, z'
_cell_length_a     23.645341
_cell_length_b     23.773062
_cell_length_c     52.858771
_cell_angle_alpha  89.030003
_cell_angle_beta   87.046091
_cell_angle_gamma 120.6932
loop_
_atom_site_label
_atom_site_type_symbol
_atom_site_fract_x
_atom_site_fract_y
_atom_site_fract_z
_atom_type_partial_charge
C0 C 0.08989 0.01573 0.08484 0.0
O1 O 0.11684 0.07577 0.09252 0.0
O2 O 0.0604 0.13924 0.05481 0.0
Zn3 Zn 0.07007 0.06933 0.03761 0.0
O4 O 0.99623 0.01779 0.01491 0.0
C5 C 0.15958 0.14674 0.99607 0.0
O6 O 0.10465 0.13922 0.98796 0.0
O7 O 0.06877 0.00384 0.06279 0.0
C8 C 0.00248 0.97832 0.00075 0.0
O9 O 0.05666 0.97577 0.00106 0.0
C10 C 0.02135 0.13202 0.07367 0.0
O11 O 0.97989 0.07291 0.08358 0.0
O12 O 0.15725 0.11815 0.01698 0.0
C13 C 0.0682 0.1986 0.31954 0.0
O14 O 0.07206 0.15065 0.30925 0.0
O15 O 0.01606 0.04261 0.34667 0.0
Zn16 Zn 0.04448 0.12311 0.36693 0.0
O17 O 0.9721 0.11016 0.39255 0.0
C18 C 0.17284 0.13922 0.37232 0.0
O19 O 0.16862 0.12666 0.34815 0.0
O20 O 0.06004 0.19807 0.34352 0.0
C21 C 0.9811 0.12332 0.41573 0.0
O22 O 0.03886 0.14148 0.42431 0.0
C23 C 0.02703 0.99773 0.35356 0.0
O24 O 0.05238 0.00088 0.37539 0.0
O25 O 0.12681 0.14319 0.3841 0.0
C26 C 0.12983 0.08781 0.65298 0.0
O27 O 0.10445 0.12468 0.64863 0.0
O28 O 0.97671 0.05896 0.67356 0.0
Zn29 Zn 0.0408 0.05377 0.69566 0.0
O30 O 0.09046 0.13307 0.71631 0.0
C31 C 0.93655 0.92457 0.71454 0.0
O32 O 0.91375 0.92307 0.69227 0.0
O33 O 0.10913 0.04959 0.67275 0.0
C34 C 0.12579 0.12597 0.73191 0.0
O35 O 0.12396 0.0698 0.7333 0.0
C36 C 0.9335 0.07316 0.68053 0.0
O37 O 0.92996 0.08891 0.70402 0.0
O38 O 0.99089 0.97423 0.71967 0.0
C39 C 0.09288 0.69384 0.16242 0.0
C40 C 0.153 0.73867 0.14986 0.0
C41 C 0.19967 0.73036 0.16052 0.0
C42 C 0.16553 0.6809 0.17876 0.0
N43 N 0.09964 0.6563 0.18017 0.0
Co44 Co 0.03159 0.58431 0.2041 0.0
N45 N 0.10116 0.57668 0.22138 0.0
C46 C 0.1672 0.61312 0.21616 0.0
C47 C 0.20242 0.59645 0.23119 0.0
C48 C 0.15614 0.54569 0.24676 0.0
C49 C 0.09511 0.5341 0.24016 0.0
N50 N 0.96354 0.51193 0.22797 0.0
C51 C 0.9706 0.47465 0.24581 0.0
C52 C 0.91019 0.42731 0.25739 0.0
C53 C 0.86324 0.43466 0.2464 0.0
C54 C 0.89741 0.48565 0.22874 0.0
N55 N 0.9622 0.59265 0.18687 0.0
C56 C 0.89618 0.55679 0.19231 0.0
C57 C 0.86141 0.57616 0.17826 0.0
C58 C 0.90794 0.6281 0.16317 0.0
C59 C 0.9687 0.63724 0.16881 0.0
N60 N 0.02408 0.5176 0.18012 0.0
C61 C 0.01148 0.41178 0.15249 0.0
C62 C 0.95607 0.41433 0.16104 0.0
C63 C 0.96344 0.46736 0.1745 0.0
C64 C 0.0736 0.46504 0.15669 0.0
C65 C 0.07873 0.51717 0.17037 0.0
N66 N 0.03865 0.65018 0.22834 0.0
C67 C 0.98626 0.69072 0.25709 0.0
C68 C 0.04732 0.74147 0.26355 0.0
C69 C 0.10416 0.74623 0.25196 0.0
C70 C 0.09873 0.7007 0.23436 0.0
C71 C 0.98309 0.64594 0.2397 0.0
H72 H 0.14373 0.70734 0.22588 0.0
H73 H 0.93501 0.60815 0.23589 0.0
H74 H 0.91911 0.46561 0.18066 0.0
H75 H 0.12734 0.55565 0.17339 0.0
C76 C 0.19442 0.66001 0.19604 0.0
C77 C 0.03134 0.69088 0.15751 0.0
C78 C 0.03295 0.48024 0.25149 0.0
C79 C 0.8687 0.50797 0.21184 0.0
H80 H 0.16234 0.77471 0.13493 0.0
H81 H 0.25242 0.75836 0.15602 0.0
H82 H 0.25533 0.61761 0.23048 0.0
H83 H 0.16609 0.51922 0.261 0.0
H84 H 0.90084 0.39035 0.2719 0.0
H85 H 0.81036 0.40525 0.25036 0.0
H86 H 0.80866 0.55624 0.17944 0.0
H87 H 0.89821 0.65695 0.14999 0.0
H88 H 0.90692 0.37513 0.1576 0.0
H89 H 0.11811 0.46553 0.15028 0.0
H90 H 0.94088 0.68476 0.26578 0.0
H91 H 0.15261 0.78535 0.25621 0.0
C92 C 0.4289 0.04226 0.56489 0.0
C93 C 0.37618 0.97968 0.57141 0.0
C94 C 0.3854 0.93775 0.55696 0.0
C95 C 0.44269 0.97684 0.54242 0.0
N96 N 0.47088 0.04137 0.54666 0.0
Co97 Co 0.55387 0.11527 0.52921 0.0
N98 N 0.5669 0.05305 0.50792 0.0
C99 C 0.52697 0.98724 0.50791 0.0
C100 C 0.54939 0.9575 0.49166 0.0
C101 C 0.60751 0.00716 0.48072 0.0
C102 C 0.61707 0.06457 0.49098 0.0
N103 N 0.63729 0.18902 0.51188 0.0
C104 C 0.68119 0.18744 0.49477 0.0
C105 C 0.73376 0.24978 0.488 0.0
C106 C 0.72317 0.29233 0.50152 0.0
C107 C 0.66495 0.25374 0.51569 0.0
N108 N 0.54065 0.17749 0.55044 0.0
C109 C 0.57966 0.24355 0.54992 0.0
C110 C 0.55806 0.27294 0.56673 0.0
C111 C 0.50171 0.22279 0.57865 0.0
C112 C 0.492 0.16547 0.56829 0.0
N113 N 0.60591 0.10666 0.55567 0.0
C114 C 0.67867 0.09586 0.59397 0.0
C115 C 0.68696 0.15634 0.58672 0.0
C116 C 0.65096 0.16069 0.56754 0.0
C117 C 0.63383 0.04068 0.58164 0.0
C118 C 0.59766 0.04704 0.56281 0.0
N119 N 0.50144 0.12431 0.50286 0.0
C120 C 0.46943 0.19183 0.4802 0.0
C121 C 0.41858 0.13708 0.46979 0.0
C122 C 0.41147 0.07604 0.47518 0.0
C123 C 0.45295 0.07073 0.4918 0.0
C124 C 0.51052 0.18452 0.49622 0.0
H125 H 0.44396 0.02269 0.49576 0.0
H126 H 0.54851 0.22835 0.50329 0.0
H127 H 0.66073 0.20847 0.56263 0.0
H128 H 0.56331 0.0032 0.55431 0.0
C129 C 0.47041 0.9544 0.5243 0.0
C130 C 0.43575 0.10095 0.57603 0.0
C131 C 0.67575 0.1283 0.48471 0.0
C132 C 0.63656 0.27651 0.53352 0.0
H133 H 0.33481 0.96564 0.585 0.0
H134 H 0.35372 0.88508 0.55687 0.0
H135 H 0.52689 0.90573 0.48856 0.0
H136 H 0.63978 0.00153 0.46708 0.0
H137 H 0.77579 0.26295 0.47486 0.0
H138 H 0.75475 0.34504 0.50138 0.0
H139 H 0.58065 0.32465 0.56995 0.0
H140 H 0.47117 0.22785 0.59332 0.0
H141 H 0.72214 0.20052 0.5955 0.0
H142 H 0.62608 0.99279 0.58673 0.0
H143 H 0.4773 0.24023 0.47609 0.0
H144 H 0.37264 0.03234 0.46735 0.0
C145 C 0.68105 0.59001 0.82071 0.0
C146 C 0.73007 0.57974 0.81038 0.0
C147 C 0.72873 0.53152 0.82522 0.0
C148 C 0.67915 0.51505 0.84365 0.0
N149 N 0.64821 0.54936 0.84134 0.0
Co150 Co 0.57543 0.5429 0.86471 0.0
N151 N 0.56906 0.46742 0.88503 0.0
C152 C 0.60616 0.43954 0.88119 0.0
C153 C 0.5855 0.38403 0.8962 0.0
C154 C 0.53074 0.37473 0.90999 0.0
C155 C 0.5216 0.42578 0.90272 0.0
N156 N 0.50472 0.5381 0.88868 0.0
C157 C 0.46614 0.49198 0.90706 0.0
C158 C 0.42251 0.50666 0.91949 0.0
C159 C 0.43265 0.56325 0.90797 0.0
C160 C 0.48199 0.57995 0.88936 0.0
N161 N 0.57869 0.61555 0.84361 0.0
C162 C 0.54136 0.64315 0.84765 0.0
C163 C 0.55374 0.69119 0.82978 0.0
C164 C 0.60173 0.6944 0.81328 0.0
C165 C 0.61597 0.64792 0.8221 0.0
N166 N 0.50805 0.47887 0.84325 0.0
C167 C 0.40745 0.38035 0.81649 0.0
C168 C 0.40043 0.43054 0.82663 0.0
C169 C 0.45111 0.47913 0.83982 0.0
C170 C 0.46674 0.38191 0.81915 0.0
C171 C 0.51598 0.43119 0.83245 0.0
N172 N 0.64345 0.60757 0.88639 0.0
C173 C 0.69884 0.7145 0.90427 0.0
C174 C 0.74535 0.70246 0.91432 0.0
C175 C 0.73878 0.64138 0.91073 0.0
C176 C 0.68819 0.59528 0.89686 0.0
C177 C 0.64867 0.66679 0.89065 0.0
H178 H 0.687 0.55037 0.89481 0.0
H179 H 0.61541 0.67974 0.88355 0.0
H180 H 0.44279 0.51576 0.84754 0.0
H181 H 0.55968 0.42919 0.83415 0.0
C182 C 0.65728 0.46431 0.86214 0.0
C183 C 0.6677 0.63888 0.8102 0.0
C184 C 0.46514 0.4309 0.91174 0.0
C185 C 0.49902 0.62649 0.86951 0.0
H186 H 0.76319 0.60435 0.79376 0.0
H187 H 0.75952 0.51027 0.82264 0.0
H188 H 0.60606 0.35247 0.8963 0.0
H189 H 0.50004 0.33375 0.92322 0.0
H190 H 0.38515 0.4777 0.9345 0.0
H191 H 0.40442 0.58688 0.91161 0.0
H192 H 0.53171 0.72141 0.82917 0.0
H193 H 0.62465 0.72825 0.79693 0.0
H194 H 0.35538 0.43139 0.82507 0.0
H195 H 0.47515 0.34498 0.8111 0.0
H196 H 0.70177 0.76114 0.90637 0.0
H197 H 0.77252 0.62882 0.91864 0.0
H198 H 0.94792 0.13603 0.11439 0.0
H199 H 0.10498 0.26023 0.05839 0.0
H200 H 0.1156 0.3573 0.07763 0.0
H201 H 0.0814 0.40751 0.11066 0.0
H202 H 0.92491 0.28362 0.16678 0.0
H203 H 0.91271 0.18624 0.14708 0.0
C204 C 0.98432 0.18429 0.10633 0.0
C205 C 0.0256 0.1906 0.085 0.0
C206 C 0.99033 0.24019 0.1175 0.0
C207 C 0.07248 0.2537 0.07482 0.0
C208 C 0.07873 0.30941 0.08582 0.0
C209 C 0.04488 0.35919 0.11864 0.0
C210 C 0.0041 0.35293 0.14012 0.0
C211 C 0.03819 0.3033 0.10725 0.0
C212 C 0.9564 0.28988 0.15004 0.0
C213 C 0.9496 0.23412 0.13888 0.0
H214 H 0.87118 0.12055 0.40125 0.0
H215 H 0.97465 0.12885 0.46732 0.0
H216 H 0.89057 0.13388 0.49445 0.0
H217 H 0.78654 0.13482 0.49943 0.0
H218 H 0.68455 0.12818 0.43338 0.0
H219 H 0.76944 0.12431 0.40604 0.0
C220 C 0.8752 0.12308 0.4216 0.0
C221 C 0.9289 0.12385 0.43226 0.0
C222 C 0.82724 0.12689 0.43701 0.0
C223 C 0.93374 0.128 0.45863 0.0
C224 C 0.88576 0.13102 0.47416 0.0
C225 C 0.78373 0.13325 0.47901 0.0
C226 C 0.73026 0.13213 0.46819 0.0
C227 C 0.83239 0.13062 0.46356 0.0
C228 C 0.72596 0.12954 0.44185 0.0
C229 C 0.77413 0.12697 0.42634 0.0
H230 H 0.81394 0.81815 0.71134 0.0
H231 H 0.9692 0.91362 0.76245 0.0
H232 H 0.90028 0.83233 0.79626 0.0
H233 H 0.79379 0.73692 0.81199 0.0
H234 H 0.63846 0.64186 0.76128 0.0
H235 H 0.70929 0.72019 0.72655 0.0
C236 C 0.83296 0.82092 0.7298 0.0
C237 C 0.89659 0.87213 0.73434 0.0
C238 C 0.79285 0.77431 0.74925 0.0
C239 C 0.92037 0.87488 0.75841 0.0
C240 C 0.88096 0.82848 0.7778 0.0
C241 C 0.77601 0.73343 0.79323 0.0
C242 C 0.71148 0.68439 0.78896 0.0
C243 C 0.81688 0.77853 0.77353 0.0
C244 C 0.6882 0.67968 0.76477 0.0
C245 C 0.72859 0.72431 0.74502 0.0
H246 H 0.03509 0.88707 0.07464 0.0
H247 H 0.12829 0.02291 0.13322 0.0
H248 H 0.11607 0.93386 0.16114 0.0
H249 H 0.08022 0.81725 0.16874 0.0
H250 H 0.98914 0.68231 0.11002 0.0
H251 H 0.9986 0.77097 0.08231 0.0
C252 C 0.05276 0.89733 0.09352 0.0
C253 C 0.08272 0.96175 0.10177 0.0
C254 C 0.0456 0.84593 0.10947 0.0
C255 C 0.10518 0.97393 0.12632 0.0
C256 C 0.09815 0.92299 0.14233 0.0
C257 C 0.06212 0.80758 0.14992 0.0
C258 C 0.03344 0.74374 0.14135 0.0
C259 C 0.06856 0.85887 0.13409 0.0
C260 C 0.01064 0.73121 0.11694 0.0
C261 C 0.01636 0.78183 0.10114 0.0
H262 H 0.20865 0.18314 0.41933 0.0
H263 H 0.25372 0.09377 0.35719 0.0
H264 H 0.33308 0.08416 0.38193 0.0
H265 H 0.38751 0.09811 0.4219 0.0
H266 H 0.34578 0.19172 0.48317 0.0
H267 H 0.26719 0.20251 0.45822 0.0
C268 C 0.23616 0.16196 0.41115 0.0
C269 C 0.22512 0.13907 0.3865 0.0
C270 C 0.28202 0.15693 0.42541 0.0
C271 C 0.26147 0.11211 0.37609 0.0
C272 C 0.30664 0.10623 0.39027 0.0
C273 C 0.361 0.12074 0.42968 0.0
C274 C 0.37184 0.14376 0.45429 0.0
C275 C 0.31684 0.12785 0.41505 0.0
C276 C 0.33809 0.1738 0.4642 0.0
C277 C 0.2932 0.17991 0.44997 0.0
H278 H 0.19844 0.12027 0.76859 0.0
H279 H 0.15641 0.25414 0.72942 0.0
H280 H 0.23843 0.34475 0.75279 0.0
H281 H 0.3262 0.38653 0.7829 0.0
H282 H 0.3661 0.2507 0.82185 0.0
H283 H 0.28111 0.16037 0.79979 0.0
C284 C 0.20687 0.16917 0.76519 0.0
C285 C 0.1716 0.18044 0.74716 0.0
C286 C 0.25417 0.22082 0.77851 0.0
C287 C 0.18292 0.24411 0.74318 0.0
C288 C 0.22995 0.29596 0.75649 0.0
C289 C 0.31574 0.33705 0.78675 0.0
C290 C 0.35312 0.32559 0.80377 0.0
C291 C 0.26645 0.28501 0.774 0.0
C292 C 0.33914 0.26117 0.80844 0.0
C293 C 0.29023 0.20936 0.79596 0.0
H294 H 0.84857 0.11848 0.68565 0.0
H295 H 0.91289 0.0196 0.63431 0.0
H296 H 0.83654 0.01394 0.6038 0.0
H297 H 0.75395 0.04023 0.59092 0.0
H298 H 0.69313 0.14347 0.64115 0.0
H299 H 0.76515 0.14393 0.6729 0.0
C300 C 0.8457 0.09552 0.66783 0.0
C301 C 0.88653 0.0697 0.66228 0.0
C302 C 0.80218 0.0931 0.65015 0.0
C303 C 0.88235 0.04028 0.63904 0.0
C304 C 0.83854 0.03681 0.62156 0.0
C305 C 0.75597 0.062 0.60897 0.0
C306 C 0.71833 0.09151 0.61382 0.0
C307 C 0.7985 0.06337 0.62684 0.0
C308 C 0.72196 0.1206 0.63706 0.0
C309 C 0.76309 0.12091 0.65517 0.0
H310 H 0.00587 0.89706 0.96611 0.0
H311 H 0.87744 0.95777 0.00065 0.0
H312 H 0.78675 0.87837 0.9768 0.0
H313 H 0.74294 0.78876 0.94735 0.0
H314 H 0.87314 0.73101 0.91205 0.0
H315 H 0.96372 0.81153 0.93534 0.0
C316 C 0.95814 0.89318 0.96839 0.0
C317 C 0.94846 0.93314 0.98524 0.0
C318 C 0.90627 0.84747 0.95466 0.0
C319 C 0.88632 0.92765 0.9878 0.0
C320 C 0.83435 0.88211 0.97422 0.0
C321 C 0.79129 0.79427 0.94449 0.0
C322 C 0.80079 0.75322 0.9281 0.0
C323 C 0.84363 0.84138 0.95774 0.0
C324 C 0.8638 0.76077 0.92493 0.0
C325 C 0.91589 0.80723 0.93809 0.0
H326 H 0.09107 0.93026 0.35267 0.0
H327 H 0.94859 0.95501 0.3138 0.0
H328 H 0.9419 0.87734 0.28261 0.0
H329 H 0.97859 0.80447 0.26585 0.0
H330 H 0.12467 0.78355 0.30365 0.0
H331 H 0.12867 0.85843 0.33565 0.0
C332 C 0.058 0.91807 0.33754 0.0
C333 C 0.01987 0.94778 0.33566 0.0
C334 C 0.05568 0.87472 0.31934 0.0
C335 C 0.97823 0.93255 0.31567 0.0
C336 C 0.97451 0.8883 0.29782 0.0
C337 C 0.01103 0.81612 0.28119 0.0
C338 C 0.05118 0.78849 0.28245 0.0
C339 C 0.01334 0.85946 0.29937 0.0
C340 C 0.09375 0.8047 0.30217 0.0
C341 C 0.09573 0.84714 0.32054 0.0
H342 H 0.21705 0.04855 0.6622 0.0
H343 H 0.16325 0.14024 0.60464 0.0
H344 H 0.25353 0.15295 0.57588 0.0
H345 H 0.34815 0.13817 0.56699 0.0
H346 H 0.40479 0.0502 0.62468 0.0
H347 H 0.31329 0.03592 0.65361 0.0
C348 C 0.22491 0.07094 0.64331 0.0
C349 C 0.18337 0.09315 0.63552 0.0
C350 C 0.27763 0.07905 0.62698 0.0
C351 C 0.19458 0.12278 0.6111 0.0
C352 C 0.24621 0.13012 0.59464 0.0
C353 C 0.34035 0.11628 0.58598 0.0
C354 C 0.38243 0.09515 0.5939 0.0
C355 C 0.28813 0.10866 0.6024 0.0
C356 C 0.3725 0.06669 0.6184 0.0
C357 C 0.32031 0.05846 0.63483 0.0
H358 H 0.18036 0.20119 0.94849 0.0
H359 H 0.2827 0.1989 0.01343 0.0
H360 H 0.38694 0.28571 0.99285 0.0
H361 H 0.44789 0.36747 0.95741 0.0
H362 H 0.346 0.36715 0.89212 0.0
H363 H 0.24237 0.27674 0.9119 0.0
C364 C 0.22554 0.21927 0.95806 0.0
C365 C 0.22363 0.19392 0.98253 0.0
C366 C 0.28523 0.26913 0.94613 0.0
C367 C 0.28274 0.21751 0.99458 0.0
C368 C 0.34236 0.2674 0.98288 0.0
C369 C 0.40307 0.34659 0.94744 0.0
C370 C 0.40413 0.37311 0.92336 0.0
C371 C 0.34402 0.29426 0.95882 0.0
C372 C 0.34588 0.34696 0.91068 0.0
C373 C 0.28686 0.29543 0.92196 0.0
H374 H 0.03997 0.29096 0.33455 0.0
H375 H 0.0919 0.21927 0.26809 0.0
H376 H 0.08365 0.29895 0.24116 0.0
H377 H 0.061 0.38886 0.23645 0.0
H378 H 0.00891 0.46013 0.30269 0.0
H379 H 0.01717 0.38025 0.32987 0.0
C380 C 0.0499 0.29295 0.31419 0.0
C381 C 0.06675 0.24928 0.30338 0.0
C382 C 0.04437 0.33837 0.29881 0.0
C383 C 0.07896 0.25233 0.27693 0.0
C384 C 0.07409 0.29777 0.2615 0.0
C385 C 0.0511 0.38625 0.25684 0.0
C386 C 0.0338 0.42929 0.26774 0.0
C387 C 0.05652 0.34076 0.27222 0.0
C388 C 0.02158 0.4266 0.29408 0.0
C389 C 0.02665 0.38133 0.30954 0.0
loop_
_geom_bond_atom_site_label_1
_geom_bond_atom_site_label_2
_geom_bond_distance
_geom_bond_site_symmetry_2
_ccdc_geom_bond_type
C0 O1 1.160 . S
C0 O7 1.185 1_565 S
O1 C0 1.160 . S
O2 Zn3 1.899 . S
O2 C10 1.284 . S
Zn3 O2 1.899 . S
Zn3 O4 2.032 1_545 S
Zn3 O7 2.086 . S
Zn3 O12 1.977 . S
O4 Zn3 2.032 1_565 S
O4 C8 1.278 1_465 S
C5 O6 1.206 . S
C5 O12 1.276 . S
O6 C5 1.206 . S
O7 C0 1.185 1_545 S
O7 Zn3 2.086 . S
C8 O4 1.278 1_645 S
C8 O9 1.211 1_654 S
O9 C8 1.211 1_456 S
C10 O2 1.284 . S
C10 O11 1.273 . S
O11 C10 1.273 . S
O12 Zn3 1.977 . S
O12 C5 1.276 . S
C13 O14 1.160 . S
C13 O20 1.185 . S
O14 C13 1.160 . S
O15 Zn16 1.899 . S
O15 C23 1.284 . S
Zn16 O15 1.899 . S
Zn16 O17 2.032 1_455 S
Zn16 O20 2.086 . S
Zn16 O25 1.977 . S
O17 Zn16 2.032 1_655 S
O17 C21 1.278 . S
C18 O19 1.203 . S
C18 O25 1.267 . S
O19 C18 1.203 . S
O20 C13 1.185 . S
O20 Zn16 2.086 . S
C21 O17 1.278 . S
C21 O22 1.211 . S
O22 C21 1.211 . S
C23 O15 1.284 . S
C23 O24 1.273 1_445 S
O24 C23 1.273 1_665 S
O25 Zn16 1.977 . S
O25 C18 1.267 . S
C26 O27 1.160 . S
C26 O33 1.185 1_545 S
O27 C26 1.160 . S
O28 Zn29 1.899 . S
O28 C36 1.284 1_455 S
Zn29 O28 1.899 . S
Zn29 O30 2.032 . S
Zn29 O33 2.086 1_545 S
Zn29 O38 1.977 1_545 S
O30 Zn29 2.032 . S
O30 C34 1.278 . S
C31 O32 1.203 . S
C31 O38 1.267 1_655 S
O32 C31 1.203 . S
O33 C26 1.185 1_565 S
O33 Zn29 2.086 1_565 S
C34 O30 1.278 . S
C34 O35 1.211 . S
O35 C34 1.211 . S
C36 O28 1.284 1_655 S
C36 O37 1.273 1_655 S
O37 C36 1.273 1_455 S
O38 Zn29 1.977 1_565 S
O38 C31 1.267 1_455 S
C39 C40 1.443 . S
C39 N43 1.376 . S
C39 C77 1.389 . S
C40 C39 1.443 . S
C40 C41 1.340 . S
C40 H80 0.951 . S
C41 C40 1.340 . S
C41 C42 1.439 . S
C41 H81 0.950 . S
C42 C41 1.439 . S
C42 N43 1.374 . S
C42 C76 1.395 . S
N43 C39 1.376 . S
N43 C42 1.374 . S
N43 Co44 2.008 . S
Co44 N43 2.008 . S
Co44 N45 1.995 . S
Co44 N50 2.008 1_455 S
Co44 N55 1.995 1_455 S
Co44 N60 2.282 . S
Co44 N66 2.282 . S
N45 Co44 1.995 . S
N45 C46 1.376 . S
N45 C49 1.383 . S
C46 N45 1.376 . S
C46 C47 1.446 . S
C46 C76 1.391 . S
C47 C46 1.446 . S
C47 C48 1.339 . S
C47 H82 0.949 . S
C48 C47 1.339 . S
C48 C49 1.439 . S
C48 H83 0.950 . S
C49 N45 1.383 . S
C49 C48 1.439 . S
C49 C78 1.392 . S
N50 Co44 2.008 1_655 S
N50 C51 1.376 . S
N50 C54 1.374 . S
C51 N50 1.376 . S
C51 C52 1.443 . S
C51 C78 1.389 1_655 S
C52 C51 1.443 . S
C52 C53 1.340 . S
C52 H84 0.951 . S
C53 C52 1.340 . S
C53 C54 1.439 . S
C53 H85 0.950 . S
C54 N50 1.374 . S
C54 C53 1.439 . S
C54 C79 1.395 . S
N55 Co44 1.995 1_655 S
N55 C56 1.376 . S
N55 C59 1.383 . S
C56 N55 1.376 . S
C56 C57 1.446 . S
C56 C79 1.391 . S
C57 C56 1.446 . S
C57 C58 1.339 . S
C57 H86 0.949 . S
C58 C57 1.339 . S
C58 C59 1.439 . S
C58 H87 0.950 . S
C59 N55 1.383 . S
C59 C58 1.439 . S
C59 C77 1.392 1_655 S
N60 Co44 2.282 . S
N60 C63 1.332 1_455 S
N60 C65 1.332 . S
C61 C62 1.386 1_455 S
C61 C64 1.388 . S
C62 C61 1.386 1_655 S
C62 C63 1.382 . S
C62 H88 0.950 . S
C63 N60 1.332 1_655 S
C63 C62 1.382 . S
C63 H74 0.952 . S
C64 C61 1.388 . S
C64 C65 1.382 . S
C64 H89 0.950 . S
C65 N60 1.332 . S
C65 C64 1.382 . S
C65 H75 0.948 . S
N66 Co44 2.282 . S
N66 C70 1.332 . S
N66 C71 1.332 1_455 S
C67 C68 1.388 1_655 S
C67 C71 1.382 . S
C67 H90 0.950 . S
C68 C67 1.388 1_455 S
C68 C69 1.386 . S
C69 C68 1.386 . S
C69 C70 1.382 . S
C69 H91 0.950 . S
C70 N66 1.332 . S
C70 C69 1.382 . S
C70 H72 0.952 . S
C71 N66 1.332 1_655 S
C71 C67 1.382 . S
C71 H73 0.948 . S
H72 C70 0.952 . S
H73 C71 0.948 . S
H74 C63 0.952 . S
H75 C65 0.948 . S
C76 C42 1.395 . S
C76 C46 1.391 . S
C77 C39 1.389 . S
C77 C59 1.392 1_455 S
C78 C49 1.392 . S
C78 C51 1.389 1_455 S
C79 C54 1.395 . S
C79 C56 1.391 . S
H80 C40 0.951 . S
H81 C41 0.950 . S
H82 C47 0.949 . S
H83 C48 0.950 . S
H84 C52 0.951 . S
H85 C53 0.950 . S
H86 C57 0.949 . S
H87 C58 0.950 . S
H88 C62 0.950 . S
H89 C64 0.950 . S
H90 C67 0.950 . S
H91 C69 0.950 . S
C92 C93 1.443 1_545 S
C92 N96 1.376 . S
C92 C130 1.389 . S
C93 C92 1.443 1_565 S
C93 C94 1.340 . S
C93 H133 0.951 . S
C94 C93 1.340 . S
C94 C95 1.439 . S
C94 H134 0.950 . S
C95 C94 1.439 . S
C95 N96 1.374 1_565 S
C95 C129 1.395 . S
N96 C92 1.376 . S
N96 C95 1.374 1_545 S
N96 Co97 2.008 . S
Co97 N96 2.008 . S
Co97 N98 1.995 . S
Co97 N103 2.008 . S
Co97 N108 1.995 . S
Co97 N113 2.282 . S
Co97 N119 2.282 . S
N98 Co97 1.995 . S
N98 C99 1.376 1_545 S
N98 C102 1.383 . S
C99 N98 1.376 1_565 S
C99 C100 1.446 . S
C99 C129 1.391 . S
C100 C99 1.446 . S
C100 C101 1.339 . S
C100 H135 0.949 . S
C101 C100 1.339 . S
C101 C102 1.439 1_565 S
C101 H136 0.950 . S
C102 N98 1.383 . S
C102 C101 1.439 1_545 S
C102 C131 1.392 . S
N103 Co97 2.008 . S
N103 C104 1.376 . S
N103 C107 1.374 . S
C104 N103 1.376 . S
C104 C105 1.443 . S
C104 C131 1.389 . S
C105 C104 1.443 . S
C105 C106 1.340 . S
C105 H137 0.951 . S
C106 C105 1.340 . S
C106 C107 1.439 . S
C106 H138 0.950 . S
C107 N103 1.374 . S
C107 C106 1.439 . S
C107 C132 1.395 . S
N108 Co97 1.995 . S
N108 C109 1.376 . S
N108 C112 1.383 . S
C109 N108 1.376 . S
C109 C110 1.446 . S
C109 C132 1.391 . S
C110 C109 1.446 . S
C110 C111 1.339 . S
C110 H139 0.949 . S
C111 C110 1.339 . S
C111 C112 1.439 . S
C111 H140 0.950 . S
C112 N108 1.383 . S
C112 C111 1.439 . S
C112 C130 1.392 . S
N113 Co97 2.282 . S
N113 C116 1.332 . S
N113 C118 1.332 . S
C114 C115 1.386 . S
C114 C117 1.388 . S
C115 C114 1.386 . S
C115 C116 1.382 . S
C115 H141 0.950 . S
C116 N113 1.332 . S
C116 C115 1.382 . S
C116 H127 0.952 . S
C117 C114 1.388 . S
C117 C118 1.382 . S
C117 H142 0.950 1_545 S
C118 N113 1.332 . S
C118 C117 1.382 . S
C118 H128 0.948 1_545 S
N119 Co97 2.282 . S
N119 C123 1.332 . S
N119 C124 1.332 . S
C120 C121 1.388 . S
C120 C124 1.382 . S
C120 H143 0.950 . S
C121 C120 1.388 . S
C121 C122 1.386 . S
C122 C121 1.386 . S
C122 C123 1.382 . S
C122 H144 0.950 . S
C123 N119 1.332 . S
C123 C122 1.382 . S
C123 H125 0.952 . S
C124 N119 1.332 . S
C124 C120 1.382 . S
C124 H126 0.948 . S
H125 C123 0.952 . S
H126 C124 0.948 . S
H127 C116 0.952 . S
H128 C118 0.948 1_565 S
C129 C95 1.395 . S
C129 C99 1.391 . S
C130 C92 1.389 . S
C130 C112 1.392 . S
C131 C102 1.392 . S
C131 C104 1.389 . S
C132 C107 1.395 . S
C132 C109 1.391 . S
H133 C93 0.951 . S
H134 C94 0.950 . S
H135 C100 0.949 . S
H136 C101 0.950 . S
H137 C105 0.951 . S
H138 C106 0.950 . S
H139 C110 0.949 . S
H140 C111 0.950 . S
H141 C115 0.950 . S
H142 C117 0.950 1_565 S
H143 C120 0.950 . S
H144 C122 0.950 . S
C145 C146 1.443 . S
C145 N149 1.376 . S
C145 C183 1.389 . S
C146 C145 1.443 . S
C146 C147 1.340 . S
C146 H186 0.951 . S
C147 C146 1.340 . S
C147 C148 1.439 . S
C147 H187 0.950 . S
C148 C147 1.439 . S
C148 N149 1.374 . S
C148 C182 1.395 . S
N149 C145 1.376 . S
N149 C148 1.374 . S
N149 Co150 2.008 . S
Co150 N149 2.008 . S
Co150 N151 1.995 . S
Co150 N156 2.008 . S
Co150 N161 1.995 . S
Co150 N166 2.282 . S
Co150 N172 2.282 . S
N151 Co150 1.995 . S
N151 C152 1.376 . S
N151 C155 1.383 . S
C152 N151 1.376 . S
C152 C153 1.446 . S
C152 C182 1.391 . S
C153 C152 1.446 . S
C153 C154 1.339 . S
C153 H188 0.949 . S
C154 C153 1.339 . S
C154 C155 1.439 . S
C154 H189 0.950 . S
C155 N151 1.383 . S
C155 C154 1.439 . S
C155 C184 1.392 . S
N156 Co150 2.008 . S
N156 C157 1.376 . S
N156 C160 1.374 . S
C157 N156 1.376 . S
C157 C158 1.443 . S
C157 C184 1.389 . S
C158 C157 1.443 . S
C158 C159 1.340 . S
C158 H190 0.951 . S
C159 C158 1.340 . S
C159 C160 1.439 . S
C159 H191 0.950 . S
C160 N156 1.374 . S
C160 C159 1.439 . S
C160 C185 1.395 . S
N161 Co150 1.995 . S
N161 C162 1.376 . S
N161 C165 1.383 . S
C162 N161 1.376 . S
C162 C163 1.446 . S
C162 C185 1.391 . S
C163 C162 1.446 . S
C163 C164 1.339 . S
C163 H192 0.949 . S
C164 C163 1.339 . S
C164 C165 1.439 . S
C164 H193 0.950 . S
C165 N161 1.383 . S
C165 C164 1.439 . S
C165 C183 1.392 . S
N166 Co150 2.282 . S
N166 C169 1.332 . S
N166 C171 1.332 . S
C167 C168 1.386 . S
C167 C170 1.388 . S
C168 C167 1.386 . S
C168 C169 1.382 . S
C168 H194 0.950 . S
C169 N166 1.332 . S
C169 C168 1.382 . S
C169 H180 0.952 . S
C170 C167 1.388 . S
C170 C171 1.382 . S
C170 H195 0.950 . S
C171 N166 1.332 . S
C171 C170 1.382 . S
C171 H181 0.948 . S
N172 Co150 2.282 . S
N172 C176 1.332 . S
N172 C177 1.332 . S
C173 C174 1.388 . S
C173 C177 1.382 . S
C173 H196 0.950 . S
C174 C173 1.388 . S
C174 C175 1.386 . S
C175 C174 1.386 . S
C175 C176 1.382 . S
C175 H197 0.950 . S
C176 N172 1.332 . S
C176 C175 1.382 . S
C176 H178 0.952 . S
C177 N172 1.332 . S
C177 C173 1.382 . S
C177 H179 0.948 . S
H178 C176 0.952 . S
H179 C177 0.948 . S
H180 C169 0.952 . S
H181 C171 0.948 . S
C182 C148 1.395 . S
C182 C152 1.391 . S
C183 C145 1.389 . S
C183 C165 1.392 . S
C184 C155 1.392 . S
C184 C157 1.389 . S
C185 C160 1.395 . S
C185 C162 1.391 . S
H186 C146 0.951 . S
H187 C147 0.950 . S
H188 C153 0.949 . S
H189 C154 0.950 . S
H190 C158 0.951 . S
H191 C159 0.950 . S
H192 C163 0.949 . S
H193 C164 0.950 . S
H194 C168 0.950 . S
H195 C170 0.950 . S
H196 C173 0.950 . S
H197 C175 0.950 . S
H198 C204 0.930 . S
H199 C207 0.930 . S
H200 C208 0.930 . S
H201 C209 0.930 . S
H202 C212 0.930 . S
H203 C213 0.930 . S
C204 H198 0.930 . S
C204 C205 1.355 1_655 S
C204 C206 1.415 1_655 S
C205 C204 1.355 1_455 S
C205 C207 1.419 . S
C206 C204 1.415 1_455 S
C206 C211 1.425 . S
C206 C213 1.409 1_455 S
C207 H199 0.930 . S
C207 C205 1.419 . S
C207 C208 1.362 . S
C208 H200 0.930 . S
C208 C207 1.362 . S
C208 C211 1.409 . S
C209 H201 0.930 . S
C209 C210 1.355 . S
C209 C211 1.415 . S
C210 C209 1.355 . S
C210 C212 1.419 1_455 S
C211 C206 1.425 . S
C211 C208 1.409 . S
C211 C209 1.415 . S
C212 H202 0.930 . S
C212 C210 1.419 1_655 S
C212 C213 1.362 . S
C213 H203 0.930 . S
C213 C206 1.409 1_655 S
C213 C212 1.362 . S
H214 C220 0.930 . S
H215 C223 0.930 . S
H216 C224 0.930 . S
H217 C225 0.930 . S
H218 C228 0.930 . S
H219 C229 0.930 1_565 S
C220 H214 0.930 . S
C220 C221 1.355 . S
C220 C222 1.415 . S
C221 C220 1.355 . S
C221 C223 1.419 . S
C222 C220 1.415 . S
C222 C227 1.425 . S
C222 C229 1.409 . S
C223 H215 0.930 . S
C223 C221 1.419 . S
C223 C224 1.362 . S
C224 H216 0.930 . S
C224 C223 1.362 . S
C224 C227 1.409 . S
C225 H217 0.930 . S
C225 C226 1.355 . S
C225 C227 1.415 . S
C226 C225 1.355 . S
C226 C228 1.419 . S
C227 C222 1.425 . S
C227 C224 1.409 . S
C227 C225 1.415 . S
C228 H218 0.930 . S
C228 C226 1.419 . S
C228 C229 1.362 . S
C229 H219 0.930 1_545 S
C229 C222 1.409 . S
C229 C228 1.362 . S
H230 C236 0.930 . S
H231 C239 0.930 . S
H232 C240 0.930 . S
H233 C241 0.930 . S
H234 C244 0.930 . S
H235 C245 0.930 . S
C236 H230 0.930 . S
C236 C237 1.355 . S
C236 C238 1.415 . S
C237 C236 1.355 . S
C237 C239 1.419 . S
C238 C236 1.415 . S
C238 C243 1.425 . S
C238 C245 1.409 . S
C239 H231 0.930 . S
C239 C237 1.419 . S
C239 C240 1.362 . S
C240 H232 0.930 . S
C240 C239 1.362 . S
C240 C243 1.409 . S
C241 H233 0.930 . S
C241 C242 1.355 . S
C241 C243 1.415 . S
C242 C241 1.355 . S
C242 C244 1.419 . S
C243 C238 1.425 . S
C243 C240 1.409 . S
C243 C241 1.415 . S
C244 H234 0.930 . S
C244 C242 1.419 . S
C244 C245 1.362 . S
C245 H235 0.930 . S
C245 C238 1.409 . S
C245 C244 1.362 . S
H246 C252 0.930 . S
H247 C255 0.930 . S
H248 C256 0.930 1_655 S
H249 C257 0.930 1_655 S
H250 C260 0.930 . S
H251 C261 0.930 . S
C252 H246 0.930 . S
C252 C253 1.355 . S
C252 C254 1.415 . S
C253 C252 1.355 . S
C253 C255 1.419 . S
C254 C252 1.415 . S
C254 C259 1.425 . S
C254 C261 1.409 . S
C255 H247 0.930 . S
C255 C253 1.419 . S
C255 C256 1.362 . S
C256 H248 0.930 1_455 S
C256 C255 1.362 . S
C256 C259 1.409 . S
C257 H249 0.930 1_455 S
C257 C258 1.355 . S
C257 C259 1.415 . S
C258 C257 1.355 . S
C258 C260 1.419 . S
C259 C254 1.425 . S
C259 C256 1.409 . S
C259 C257 1.415 . S
C260 H250 0.930 . S
C260 C258 1.419 . S
C260 C261 1.362 . S
C261 H251 0.930 . S
C261 C254 1.409 . S
C261 C260 1.362 . S
H262 C268 0.930 . S
H263 C271 0.930 . S
H264 C272 0.930 . S
H265 C273 0.930 . S
H266 C276 0.930 . S
H267 C277 0.930 . S
C268 H262 0.930 . S
C268 C269 1.355 . S
C268 C270 1.415 . S
C269 C268 1.355 . S
C269 C271 1.419 . S
C270 C268 1.415 . S
C270 C275 1.425 . S
C270 C277 1.409 . S
C271 H263 0.930 . S
C271 C269 1.419 . S
C271 C272 1.362 . S
C272 H264 0.930 . S
C272 C271 1.362 . S
C272 C275 1.409 . S
C273 H265 0.930 . S
C273 C274 1.355 . S
C273 C275 1.415 . S
C274 C273 1.355 . S
C274 C276 1.419 . S
C275 C270 1.425 . S
C275 C272 1.409 . S
C275 C273 1.415 . S
C276 H266 0.930 . S
C276 C274 1.419 . S
C276 C277 1.362 . S
C277 H267 0.930 . S
C277 C270 1.409 . S
C277 C276 1.362 . S
H278 C284 0.930 . S
H279 C287 0.930 . S
H280 C288 0.930 . S
H281 C289 0.930 . S
H282 C292 0.930 . S
H283 C293 0.930 . S
C284 H278 0.930 . S
C284 C285 1.355 . S
C284 C286 1.415 . S
C285 C284 1.355 . S
C285 C287 1.419 . S
C286 C284 1.415 . S
C286 C291 1.425 . S
C286 C293 1.409 . S
C287 H279 0.930 . S
C287 C285 1.419 . S
C287 C288 1.362 . S
C288 H280 0.930 . S
C288 C287 1.362 . S
C288 C291 1.409 . S
C289 H281 0.930 . S
C289 C290 1.355 . S
C289 C291 1.415 . S
C290 C289 1.355 . S
C290 C292 1.419 . S
C291 C286 1.425 . S
C291 C288 1.409 . S
C291 C289 1.415 . S
C292 H282 0.930 . S
C292 C290 1.419 . S
C292 C293 1.362 . S
C293 H283 0.930 . S
C293 C286 1.409 . S
C293 C292 1.362 . S
H294 C300 0.930 . S
H295 C303 0.930 . S
H296 C304 0.930 . S
H297 C305 0.930 . S
H298 C308 0.930 . S
H299 C309 0.930 . S
C300 H294 0.930 . S
C300 C301 1.355 . S
C300 C302 1.415 . S
C301 C300 1.355 . S
C301 C303 1.419 . S
C302 C300 1.415 . S
C302 C307 1.425 . S
C302 C309 1.409 . S
C303 H295 0.930 . S
C303 C301 1.419 . S
C303 C304 1.362 . S
C304 H296 0.930 . S
C304 C303 1.362 . S
C304 C307 1.409 . S
C305 H297 0.930 . S
C305 C306 1.355 . S
C305 C307 1.415 . S
C306 C305 1.355 . S
C306 C308 1.419 . S
C307 C302 1.425 . S
C307 C304 1.409 . S
C307 C305 1.415 . S
C308 H298 0.930 . S
C308 C306 1.419 . S
C308 C309 1.362 . S
C309 H299 0.930 . S
C309 C302 1.409 . S
C309 C308 1.362 . S
H310 C316 0.930 . S
H311 C319 0.930 . S
H312 C320 0.930 1_554 S
H313 C321 0.930 . S
H314 C324 0.930 . S
H315 C325 0.930 . S
C316 H310 0.930 . S
C316 C317 1.355 . S
C316 C318 1.415 . S
C317 C316 1.355 . S
C317 C319 1.419 1_556 S
C318 C316 1.415 . S
C318 C323 1.425 . S
C318 C325 1.409 . S
C319 H311 0.930 . S
C319 C317 1.419 1_554 S
C319 C320 1.362 1_554 S
C320 H312 0.930 1_556 S
C320 C319 1.362 1_556 S
C320 C323 1.409 . S
C321 H313 0.930 . S
C321 C322 1.355 . S
C321 C323 1.415 . S
C322 C321 1.355 . S
C322 C324 1.419 . S
C323 C318 1.425 . S
C323 C320 1.409 . S
C323 C321 1.415 . S
C324 H314 0.930 . S
C324 C322 1.419 . S
C324 C325 1.362 . S
C325 H315 0.930 . S
C325 C318 1.409 . S
C325 C324 1.362 . S
H326 C332 0.930 . S
H327 C335 0.930 1_645 S
H328 C336 0.930 1_655 S
H329 C337 0.930 1_655 S
H330 C340 0.930 . S
H331 C341 0.930 . S
C332 H326 0.930 . S
C332 C333 1.355 . S
C332 C334 1.415 . S
C333 C332 1.355 . S
C333 C335 1.419 . S
C334 C332 1.415 . S
C334 C339 1.425 . S
C334 C341 1.409 . S
C335 H327 0.930 1_465 S
C335 C333 1.419 . S
C335 C336 1.362 . S
C336 H328 0.930 1_455 S
C336 C335 1.362 . S
C336 C339 1.409 . S
C337 H329 0.930 1_455 S
C337 C338 1.355 . S
C337 C339 1.415 . S
C338 C337 1.355 . S
C338 C340 1.419 . S
C339 C334 1.425 . S
C339 C336 1.409 . S
C339 C337 1.415 . S
C340 H330 0.930 . S
C340 C338 1.419 . S
C340 C341 1.362 . S
C341 H331 0.930 . S
C341 C334 1.409 . S
C341 C340 1.362 . S
H342 C348 0.930 . S
H343 C351 0.930 . S
H344 C352 0.930 . S
H345 C353 0.930 . S
H346 C356 0.930 . S
H347 C357 0.930 . S
C348 H342 0.930 . S
C348 C349 1.355 . S
C348 C350 1.415 . S
C349 C348 1.355 . S
C349 C351 1.419 . S
C350 C348 1.415 . S
C350 C355 1.425 . S
C350 C357 1.409 . S
C351 H343 0.930 . S
C351 C349 1.419 . S
C351 C352 1.362 . S
C352 H344 0.930 . S
C352 C351 1.362 . S
C352 C355 1.409 . S
C353 H345 0.930 . S
C353 C354 1.355 . S
C353 C355 1.415 . S
C354 C353 1.355 . S
C354 C356 1.419 . S
C355 C350 1.425 . S
C355 C352 1.409 . S
C355 C353 1.415 . S
C356 H346 0.930 . S
C356 C354 1.419 . S
C356 C357 1.362 . S
C357 H347 0.930 . S
C357 C350 1.409 . S
C357 C356 1.362 . S
H358 C364 0.930 . S
H359 C367 0.930 1_554 S
H360 C368 0.930 . S
H361 C369 0.930 . S
H362 C372 0.930 . S
H363 C373 0.930 . S
C364 H358 0.930 . S
C364 C365 1.355 . S
C364 C366 1.415 . S
C365 C364 1.355 . S
C365 C367 1.419 . S
C366 C364 1.415 . S
C366 C371 1.425 . S
C366 C373 1.409 . S
C367 H359 0.930 1_556 S
C367 C365 1.419 . S
C367 C368 1.362 . S
C368 H360 0.930 . S
C368 C367 1.362 . S
C368 C371 1.409 . S
C369 H361 0.930 . S
C369 C370 1.355 . S
C369 C371 1.415 . S
C370 C369 1.355 . S
C370 C372 1.419 . S
C371 C366 1.425 . S
C371 C368 1.409 . S
C371 C369 1.415 . S
C372 H362 0.930 . S
C372 C370 1.419 . S
C372 C373 1.362 . S
C373 H363 0.930 . S
C373 C366 1.409 . S
C373 C372 1.362 . S
H374 C380 0.930 . S
H375 C383 0.930 . S
H376 C384 0.930 . S
H377 C385 0.930 . S
H378 C388 0.930 . S
H379 C389 0.930 . S
C380 H374 0.930 . S
C380 C381 1.355 . S
C380 C382 1.415 . S
C381 C380 1.355 . S
C381 C383 1.419 . S
C382 C380 1.415 . S
C382 C387 1.425 . S
C382 C389 1.409 . S
C383 H375 0.930 . S
C383 C381 1.419 . S
C383 C384 1.362 . S
C384 H376 0.930 . S
C384 C383 1.362 . S
C384 C387 1.409 . S
C385 H377 0.930 . S
C385 C386 1.355 . S
C385 C387 1.415 . S
C386 C385 1.355 . S
C386 C388 1.419 . S
C387 C382 1.425 . S
C387 C384 1.409 . S
C387 C385 1.415 . S
C388 H378 0.930 . S
C388 C386 1.419 . S
C388 C389 1.362 . S
C389 H379 0.930 . S
C389 C382 1.409 . S
C389 C388 1.362 . S
C210 C61 1.433 . S
C205 C10 1.426 . S
C221 C21 1.419 . S
C226 C131 1.465 . S
C237 C31 1.417 . S
C242 C183 1.470 . S
C253 C0 1.367 . S
C258 C77 1.439 . S
C274 C121 1.450 . S
C269 C18 1.370 . S
C285 C34 1.437 . S
C290 C167 1.438 . S
C306 C114 1.406 . S
C301 C36 1.417 . S
C317 C8 1.432 1_566 S
C322 C174 1.438 . S
C338 C68 1.425 . S
C333 C23 1.433 1_565 S
C354 C130 1.391 . S
C349 C26 1.312 . S
C370 C184 1.480 . S
C365 C5 1.397 1_556 S
C381 C13 1.366 . S
C386 C78 1.443 . S
