# Generated by pormake.
# Topology gar, (4,6)-cn, num edge types: 1
# Building blocks:
#     Node 0, Type 0, BuildingBlock: QUQFOY_clean_sbu_1, # of connection points: 4
#     Node 1, Type 0, BuildingBlock: QUQFOY_clean_sbu_1, # of connection points: 4
#     Node 2, Type 0, BuildingBlock: QUQFOY_clean_sbu_1, # of connection points: 4
#     Node 3, Type 0, BuildingBlock: QUQFOY_clean_sbu_1, # of connection points: 4
#     Node 4, Type 0, BuildingBlock: QUQFOY_clean_sbu_1, # of connection points: 4
#     Node 5, Type 0, BuildingBlock: QUQFOY_clean_sbu_1, # of connection points: 4
#     Node 6, Type 0, BuildingBlock: QUQFOY_clean_sbu_1, # of connection points: 4
#     Node 7, Type 0, BuildingBlock: QUQFOY_clean_sbu_1, # of connection points: 4
#     Node 8, Type 0, BuildingBlock: QUQFOY_clean_sbu_1, # of connection points: 4
#     Node 9, Type 0, BuildingBlock: QUQFOY_clean_sbu_1, # of connection points: 4
#     Node 10, Type 0, BuildingBlock: QUQFOY_clean_sbu_1, # of connection points: 4
#     Node 11, Type 0, BuildingBlock: QUQFOY_clean_sbu_1, # of connection points: 4
#     Node 12, Type 0, BuildingBlock: QUQFOY_clean_sbu_1, # of connection points: 4
#     Node 13, Type 0, BuildingBlock: QUQFOY_clean_sbu_1, # of connection points: 4
#     Node 14, Type 0, BuildingBlock: QUQFOY_clean_sbu_1, # of connection points: 4
#     Node 15, Type 0, BuildingBlock: QUQFOY_clean_sbu_1, # of connection points: 4
#     Node 16, Type 0, BuildingBlock: QUQFOY_clean_sbu_1, # of connection points: 4
#     Node 17, Type 0, BuildingBlock: QUQFOY_clean_sbu_1, # of connection points: 4
#     Node 18, Type 0, BuildingBlock: QUQFOY_clean_sbu_1, # of connection points: 4
#     Node 19, Type 0, BuildingBlock: QUQFOY_clean_sbu_1, # of connection points: 4
#     Node 20, Type 0, BuildingBlock: QUQFOY_clean_sbu_1, # of connection points: 4
#     Node 21, Type 0, BuildingBlock: QUQFOY_clean_sbu_1, # of connection points: 4
#     Node 22, Type 0, BuildingBlock: QUQFOY_clean_sbu_1, # of connection points: 4
#     Node 23, Type 0, BuildingBlock: QUQFOY_clean_sbu_1, # of connection points: 4
#     Node 24, Type 1, BuildingBlock: KUMBUR_clean_sbu_1, # of connection points: 6
#     Node 25, Type 1, BuildingBlock: KUMBUR_clean_sbu_1, # of connection points: 6
#     Node 26, Type 1, BuildingBlock: KUMBUR_clean_sbu_1, # of connection points: 6
#     Node 27, Type 1, BuildingBlock: KUMBUR_clean_sbu_1, # of connection points: 6
#     Node 28, Type 1, BuildingBlock: KUMBUR_clean_sbu_1, # of connection points: 6
#     Node 29, Type 1, BuildingBlock: KUMBUR_clean_sbu_1, # of connection points: 6
#     Node 30, Type 1, BuildingBlock: KUMBUR_clean_sbu_1, # of connection points: 6
#     Node 31, Type 1, BuildingBlock: KUMBUR_clean_sbu_1, # of connection points: 6
#     Node 32, Type 1, BuildingBlock: KUMBUR_clean_sbu_1, # of connection points: 6
#     Node 33, Type 1, BuildingBlock: KUMBUR_clean_sbu_1, # of connection points: 6
#     Node 34, Type 1, BuildingBlock: KUMBUR_clean_sbu_1, # of connection points: 6
#     Node 35, Type 1, BuildingBlock: KUMBUR_clean_sbu_1, # of connection points: 6
#     Node 36, Type 1, BuildingBlock: KUMBUR_clean_sbu_1, # of connection points: 6
#     Node 37, Type 1, BuildingBlock: KUMBUR_clean_sbu_1, # of connection points: 6
#     Node 38, Type 1, BuildingBlock: KUMBUR_clean_sbu_1, # of connection points: 6
#     Node 39, Type 1, BuildingBlock: KUMBUR_clean_sbu_1, # of connection points: 6
#     Edge 40, Type (0, 1), BuildingBlock: UVAHIK_clean_linker_0, # of connection points: 2
#     Edge 41, Type (0, 1), BuildingBlock: UVAHIK_clean_linker_0, # of connection points: 2
#     Edge 42, Type (0, 1), BuildingBlock: UVAHIK_clean_linker_0, # of connection points: 2
#     Edge 43, Type (0, 1), BuildingBlock: UVAHIK_clean_linker_0, # of connection points: 2
#     Edge 44, Type (0, 1), BuildingBlock: UVAHIK_clean_linker_0, # of connection points: 2
#     Edge 45, Type (0, 1), BuildingBlock: UVAHIK_clean_linker_0, # of connection points: 2
#     Edge 46, Type (0, 1), BuildingBlock: UVAHIK_clean_linker_0, # of connection points: 2
#     Edge 47, Type (0, 1), BuildingBlock: UVAHIK_clean_linker_0, # of connection points: 2
#     Edge 48, Type (0, 1), BuildingBlock: UVAHIK_clean_linker_0, # of connection points: 2
#     Edge 49, Type (0, 1), BuildingBlock: UVAHIK_clean_linker_0, # of connection points: 2
#     Edge 50, Type (0, 1), BuildingBlock: UVAHIK_clean_linker_0, # of connection points: 2
#     Edge 51, Type (0, 1), BuildingBlock: UVAHIK_clean_linker_0, # of connection points: 2
#     Edge 52, Type (0, 1), BuildingBlock: UVAHIK_clean_linker_0, # of connection points: 2
#     Edge 53, Type (0, 1), BuildingBlock: UVAHIK_clean_linker_0, # of connection points: 2
#     Edge 54, Type (0, 1), BuildingBlock: UVAHIK_clean_linker_0, # of connection points: 2
#     Edge 55, Type (0, 1), BuildingBlock: UVAHIK_clean_linker_0, # of connection points: 2
#     Edge 56, Type (0, 1), BuildingBlock: UVAHIK_clean_linker_0, # of connection points: 2
#     Edge 57, Type (0, 1), BuildingBlock: UVAHIK_clean_linker_0, # of connection points: 2
#     Edge 58, Type (0, 1), BuildingBlock: UVAHIK_clean_linker_0, # of connection points: 2
#     Edge 59, Type (0, 1), BuildingBlock: UVAHIK_clean_linker_0, # of connection points: 2
#     Edge 60, Type (0, 1), BuildingBlock: UVAHIK_clean_linker_0, # of connection points: 2
#     Edge 61, Type (0, 1), BuildingBlock: UVAHIK_clean_linker_0, # of connection points: 2
#     Edge 62, Type (0, 1), BuildingBlock: UVAHIK_clean_linker_0, # of connection points: 2
#     Edge 63, Type (0, 1), BuildingBlock: UVAHIK_clean_linker_0, # of connection points: 2
#     Edge 64, Type (0, 1), BuildingBlock: UVAHIK_clean_linker_0, # of connection points: 2
#     Edge 65, Type (0, 1), BuildingBlock: UVAHIK_clean_linker_0, # of connection points: 2
#     Edge 66, Type (0, 1), BuildingBlock: UVAHIK_clean_linker_0, # of connection points: 2
#     Edge 67, Type (0, 1), BuildingBlock: UVAHIK_clean_linker_0, # of connection points: 2
#     Edge 68, Type (0, 1), BuildingBlock: UVAHIK_clean_linker_0, # of connection points: 2
#     Edge 69, Type (0, 1), BuildingBlock: UVAHIK_clean_linker_0, # of connection points: 2
#     Edge 70, Type (0, 1), BuildingBlock: UVAHIK_clean_linker_0, # of connection points: 2
#     Edge 71, Type (0, 1), BuildingBlock: UVAHIK_clean_linker_0, # of connection points: 2
#     Edge 72, Type (0, 1), BuildingBlock: UVAHIK_clean_linker_0, # of connection points: 2
#     Edge 73, Type (0, 1), BuildingBlock: UVAHIK_clean_linker_0, # of connection points: 2
#     Edge 74, Type (0, 1), BuildingBlock: UVAHIK_clean_linker_0, # of connection points: 2
#     Edge 75, Type (0, 1), BuildingBlock: UVAHIK_clean_linker_0, # of connection points: 2
#     Edge 76, Type (0, 1), BuildingBlock: UVAHIK_clean_linker_0, # of connection points: 2
#     Edge 77, Type (0, 1), BuildingBlock: UVAHIK_clean_linker_0, # of connection points: 2
#     Edge 78, Type (0, 1), BuildingBlock: UVAHIK_clean_linker_0, # of connection points: 2
#     Edge 79, Type (0, 1), BuildingBlock: UVAHIK_clean_linker_0, # of connection points: 2
#     Edge 80, Type (0, 1), BuildingBlock: UVAHIK_clean_linker_0, # of connection points: 2
#     Edge 81, Type (0, 1), BuildingBlock: UVAHIK_clean_linker_0, # of connection points: 2
#     Edge 82, Type (0, 1), BuildingBlock: UVAHIK_clean_linker_0, # of connection points: 2
#     Edge 83, Type (0, 1), BuildingBlock: UVAHIK_clean_linker_0, # of connection points: 2
#     Edge 84, Type (0, 1), BuildingBlock: UVAHIK_clean_linker_0, # of connection points: 2
#     Edge 85, Type (0, 1), BuildingBlock: UVAHIK_clean_linker_0, # of connection points: 2
#     Edge 86, Type (0, 1), BuildingBlock: UVAHIK_clean_linker_0, # of connection points: 2
#     Edge 87, Type (0, 1), BuildingBlock: UVAHIK_clean_linker_0, # of connection points: 2
#     Edge 88, Type (0, 1), BuildingBlock: UVAHIK_clean_linker_0, # of connection points: 2
#     Edge 89, Type (0, 1), BuildingBlock: UVAHIK_clean_linker_0, # of connection points: 2
#     Edge 90, Type (0, 1), BuildingBlock: UVAHIK_clean_linker_0, # of connection points: 2
#     Edge 91, Type (0, 1), BuildingBlock: UVAHIK_clean_linker_0, # of connection points: 2
#     Edge 92, Type (0, 1), BuildingBlock: UVAHIK_clean_linker_0, # of connection points: 2
#     Edge 93, Type (0, 1), BuildingBlock: UVAHIK_clean_linker_0, # of connection points: 2
#     Edge 94, Type (0, 1), BuildingBlock: UVAHIK_clean_linker_0, # of connection points: 2
#     Edge 95, Type (0, 1), BuildingBlock: UVAHIK_clean_linker_0, # of connection points: 2
#     Edge 96, Type (0, 1), BuildingBlock: UVAHIK_clean_linker_0, # of connection points: 2
#     Edge 97, Type (0, 1), BuildingBlock: UVAHIK_clean_linker_0, # of connection points: 2
#     Edge 98, Type (0, 1), BuildingBlock: UVAHIK_clean_linker_0, # of connection points: 2
#     Edge 99, Type (0, 1), BuildingBlock: UVAHIK_clean_linker_0, # of connection points: 2
#     Edge 100, Type (0, 1), BuildingBlock: UVAHIK_clean_linker_0, # of connection points: 2
#     Edge 101, Type (0, 1), BuildingBlock: UVAHIK_clean_linker_0, # of connection points: 2
#     Edge 102, Type (0, 1), BuildingBlock: UVAHIK_clean_linker_0, # of connection points: 2
#     Edge 103, Type (0, 1), BuildingBlock: UVAHIK_clean_linker_0, # of connection points: 2
#     Edge 104, Type (0, 1), BuildingBlock: UVAHIK_clean_linker_0, # of connection points: 2
#     Edge 105, Type (0, 1), BuildingBlock: UVAHIK_clean_linker_0, # of connection points: 2
#     Edge 106, Type (0, 1), BuildingBlock: UVAHIK_clean_linker_0, # of connection points: 2
#     Edge 107, Type (0, 1), BuildingBlock: UVAHIK_clean_linker_0, # of connection points: 2
#     Edge 108, Type (0, 1), BuildingBlock: UVAHIK_clean_linker_0, # of connection points: 2
#     Edge 109, Type (0, 1), BuildingBlock: UVAHIK_clean_linker_0, # of connection points: 2
#     Edge 110, Type (0, 1), BuildingBlock: UVAHIK_clean_linker_0, # of connection points: 2
#     Edge 111, Type (0, 1), BuildingBlock: UVAHIK_clean_linker_0, # of connection points: 2
#     Edge 112, Type (0, 1), BuildingBlock: UVAHIK_clean_linker_0, # of connection points: 2
#     Edge 113, Type (0, 1), BuildingBlock: UVAHIK_clean_linker_0, # of connection points: 2
#     Edge 114, Type (0, 1), BuildingBlock: UVAHIK_clean_linker_0, # of connection points: 2
#     Edge 115, Type (0, 1), BuildingBlock: UVAHIK_clean_linker_0, # of connection points: 2
#     Edge 116, Type (0, 1), BuildingBlock: UVAHIK_clean_linker_0, # of connection points: 2
#     Edge 117, Type (0, 1), BuildingBlock: UVAHIK_clean_linker_0, # of connection points: 2
#     Edge 118, Type (0, 1), BuildingBlock: UVAHIK_clean_linker_0, # of connection points: 2
#     Edge 119, Type (0, 1), BuildingBlock: UVAHIK_clean_linker_0, # of connection points: 2
#     Edge 120, Type (0, 1), BuildingBlock: UVAHIK_clean_linker_0, # of connection points: 2
#     Edge 121, Type (0, 1), BuildingBlock: UVAHIK_clean_linker_0, # of connection points: 2
#     Edge 122, Type (0, 1), BuildingBlock: UVAHIK_clean_linker_0, # of connection points: 2
#     Edge 123, Type (0, 1), BuildingBlock: UVAHIK_clean_linker_0, # of connection points: 2
#     Edge 124, Type (0, 1), BuildingBlock: UVAHIK_clean_linker_0, # of connection points: 2
#     Edge 125, Type (0, 1), BuildingBlock: UVAHIK_clean_linker_0, # of connection points: 2
#     Edge 126, Type (0, 1), BuildingBlock: UVAHIK_clean_linker_0, # of connection points: 2
#     Edge 127, Type (0, 1), BuildingBlock: UVAHIK_clean_linker_0, # of connection points: 2
#     Edge 128, Type (0, 1), BuildingBlock: UVAHIK_clean_linker_0, # of connection points: 2
#     Edge 129, Type (0, 1), BuildingBlock: UVAHIK_clean_linker_0, # of connection points: 2
#     Edge 130, Type (0, 1), BuildingBlock: UVAHIK_clean_linker_0, # of connection points: 2
#     Edge 131, Type (0, 1), BuildingBlock: UVAHIK_clean_linker_0, # of connection points: 2
#     Edge 132, Type (0, 1), BuildingBlock: UVAHIK_clean_linker_0, # of connection points: 2
#     Edge 133, Type (0, 1), BuildingBlock: UVAHIK_clean_linker_0, # of connection points: 2
#     Edge 134, Type (0, 1), BuildingBlock: UVAHIK_clean_linker_0, # of connection points: 2
#     Edge 135, Type (0, 1), BuildingBlock: UVAHIK_clean_linker_0, # of connection points: 2
# Relax obj value: 0.078
# Max RMSD: 0.182
# Mean RMSD: 0.141
data_MOF--net-gar--node1-QUQFOY_clean_sbu_1--node2-KUMBUR_clean_sbu_1--edge1-UVAHIK_clean_linker_0
_symmetry_space_group_name_H-M    P1
_symmetry_Int_Tables_number       1
_symmetry_cell_setting            triclinic
loop_
_symmetry_equiv_pos_as_xyz
'x, y, z'
_cell_length_a     77.322306
_cell_length_b     77.399033
_cell_length_c     73.022022
_cell_angle_alpha  95.934196
_cell_angle_beta   95.962195
_cell_angle_gamma 102.71282
loop_
_atom_site_label
_atom_site_type_symbol
_atom_site_fract_x
_atom_site_fract_y
_atom_site_fract_z
_atom_type_partial_charge
O0 O 0.04204 0.27164 0.37932 0.0
Cd1 Cd 0.04312 0.28842 0.35837 0.0
Cd2 Cd 0.0287 0.30841 0.39152 0.0
O3 O 0.03391 0.28626 0.4036 0.0
O4 O 0.0567 0.27679 0.33954 0.0
O5 O 0.06869 0.30293 0.35549 0.0
C6 C 0.07061 0.28985 0.34396 0.0
C7 C 0.03338 0.33725 0.40936 0.0
C8 C 0.03854 0.27258 0.39606 0.0
C9 C 1.00437 0.29579 0.35353 0.0
O10 O 0.00698 0.30225 0.37063 0.0
O11 O 0.01698 0.29076 0.3457 0.0
O12 O 0.02014 0.32429 0.4108 0.0
O13 O 0.04458 0.33389 0.39834 0.0
O14 O 1.00357 0.72126 0.68831 0.0
Cd15 Cd 0.00729 0.74397 0.70837 0.0
Cd16 Cd 0.02074 0.76021 0.67919 0.0
O17 O 0.00971 0.73552 0.66429 0.0
O18 O 0.98707 0.73831 0.72516 0.0
O19 O 0.98836 0.7596 0.70747 0.0
C20 C 0.97968 0.75031 0.71879 0.0
C21 C 0.01852 0.78611 0.66578 0.0
C22 C 1.00521 0.72095 0.67107 0.0
C23 C 0.04858 0.75745 0.71066 0.0
O24 O 0.04489 0.76092 0.69426 0.0
O25 O 0.0357 0.75236 0.7203 0.0
O26 O 0.02723 0.77517 0.65895 0.0
O27 O 0.01071 0.78236 0.68013 0.0
O28 O 0.57022 0.79728 0.87312 0.0
Cd29 Cd 0.5505 0.79577 0.89065 0.0
Cd30 Cd 0.53285 0.80855 0.85841 0.0
O31 O 0.55644 0.80258 0.84693 0.0
O32 O 0.55895 0.78126 0.90962 0.0
O33 O 0.53326 0.77179 0.89135 0.0
C34 C 0.54477 0.76881 0.90405 0.0
C35 C 0.50183 0.80065 0.84359 0.0
C36 C 0.57033 0.79929 0.85603 0.0
C37 C 0.54179 0.83229 0.89722 0.0
O38 O 0.53691 0.83052 0.8797 0.0
O39 O 0.54693 0.81966 0.90452 0.0
O40 O 0.51383 0.81315 0.83871 0.0
O41 O 0.50755 0.79156 0.85582 0.0
O42 O 0.50648 0.21349 0.18584 0.0
Cd43 Cd 0.5092 0.23602 0.20622 0.0
Cd44 Cd 0.52459 0.25282 0.17852 0.0
O45 O 0.51522 0.22822 0.1628 0.0
O46 O 0.48884 0.23102 0.2229 0.0
O47 O 0.48984 0.25102 0.20374 0.0
C48 C 0.48125 0.24246 0.21561 0.0
C49 C 0.52337 0.27912 0.16526 0.0
C50 C 0.50969 0.21348 0.16899 0.0
C51 C 0.55049 0.25026 0.21172 0.0
O52 O 0.54795 0.25396 0.19528 0.0
O53 O 0.53688 0.2446 0.22014 0.0
O54 O 0.53377 0.26909 0.16037 0.0
O55 O 0.513 0.27399 0.17739 0.0
O56 O 0.04086 0.75977 0.11859 0.0
Cd57 Cd 0.04338 0.7839 0.13424 0.0
Cd58 Cd 0.06021 0.79731 0.10534 0.0
O59 O 0.05143 0.76898 0.09348 0.0
O60 O 0.02905 0.77599 0.15438 0.0
O61 O 0.02167 0.79461 0.13585 0.0
C62 C 0.018 0.78529 0.1492 0.0
C63 C 0.05357 0.82494 0.09546 0.0
C64 C 0.0449 0.75608 0.10249 0.0
C65 C 0.08332 0.79832 0.14194 0.0
O66 O 0.08315 0.80078 0.12489 0.0
O67 O 0.06869 0.79344 0.14859 0.0
O68 O 0.06369 0.81638 0.08702 0.0
O69 O 0.0463 0.81745 0.10873 0.0
O70 O 0.53387 0.76361 0.43697 0.0
Cd71 Cd 0.51625 0.76123 0.45687 0.0
Cd72 Cd 0.49487 0.77191 0.42279 0.0
O73 O 0.51686 0.76539 0.411 0.0
O74 O 0.5259 0.74687 0.47636 0.0
O75 O 0.50159 0.73527 0.45687 0.0
C76 C 0.5133 0.733 0.46981 0.0
C77 C 0.46641 0.76876 0.40434 0.0
C78 C 0.53179 0.76412 0.41947 0.0
C79 C 0.50747 0.79867 0.45977 0.0
O80 O 0.50098 0.79452 0.44268 0.0
O81 O 0.51287 0.78698 0.46879 0.0
O82 O 0.4804 0.78063 0.4024 0.0
O83 O 0.46855 0.75781 0.41612 0.0
O84 O 0.54998 0.25675 0.61946 0.0
Cd85 Cd 0.5517 0.28064 0.63558 0.0
Cd86 Cd 0.56752 0.29413 0.60654 0.0
O87 O 0.55819 0.2663 0.59357 0.0
O88 O 0.53665 0.27228 0.65503 0.0
O89 O 0.52956 0.29081 0.6362 0.0
C90 C 0.52552 0.28132 0.64935 0.0
C91 C 0.56094 0.32217 0.59762 0.0
C92 C 0.55276 0.25325 0.60279 0.0
C93 C 0.5912 0.29537 0.64327 0.0
O94 O 0.59057 0.29661 0.62589 0.0
O95 O 0.57678 0.29139 0.6505 0.0
O96 O 0.57149 0.3141 0.58928 0.0
O97 O 0.55329 0.314 0.61029 0.0
O98 O 0.00591 0.2337 0.94039 0.0
Cd99 Cd 0.00725 0.25342 0.92274 0.0
Cd100 Cd 0.9942 0.27088 0.95552 0.0
O101 O 1.00041 0.24721 0.96663 0.0
O102 O 0.02053 0.24463 0.90259 0.0
O103 O 0.03204 0.26931 0.9217 0.0
C104 C 0.03398 0.25789 0.90831 0.0
C105 C 1.00328 0.30191 0.96965 0.0
C106 C 1.00392 0.23348 0.95749 0.0
C107 C 0.97043 0.26273 0.91707 0.0
O108 O 0.97198 0.26719 0.93462 0.0
O109 O 0.98311 0.25779 0.90963 0.0
O110 O 0.99111 0.29039 0.97563 0.0
O111 O 0.01132 0.29577 0.95666 0.0
O112 O 0.38444 0.01527 0.27952 0.0
Cd113 Cd 0.37339 0.01817 0.30367 0.0
Cd114 Cd 0.40313 0.0175 0.31498 0.0
O115 O 0.41035 0.03096 0.29381 0.0
O116 O 0.35352 0.02977 0.29998 0.0
O117 O 0.38023 0.04273 0.31626 0.0
C118 C 0.36451 0.04372 0.30925 0.0
C119 C 0.41391 0.02409 0.34513 0.0
C120 C 0.40028 0.02399 0.27885 0.0
C121 C 0.37635 0.9854 0.31261 0.0
O122 O 0.39156 0.99119 0.30773 0.0
O123 O 0.36689 0.99626 0.3168 0.0
O124 O 0.42324 0.01802 0.33339 0.0
O125 O 0.39904 0.02797 0.33942 0.0
O126 O 0.28061 0.17218 0.54579 0.0
Cd127 Cd 0.27896 0.15563 0.52134 0.0
Cd128 Cd 0.26613 0.18244 0.5084 0.0
O129 O 0.27451 0.19623 0.53545 0.0
O130 O 0.29138 0.13786 0.5308 0.0
O131 O 0.30147 0.1543 0.50957 0.0
C132 C 0.30353 0.14251 0.52036 0.0
C133 C 0.27201 0.19275 0.47972 0.0
C134 C 0.27873 0.18807 0.549 0.0
C135 C 0.24028 0.14677 0.50822 0.0
O136 O 0.24256 0.16334 0.50694 0.0
O137 O 0.25366 0.14011 0.51187 0.0
O138 O 0.26047 0.19798 0.48918 0.0
O139 O 0.28118 0.1825 0.48701 0.0
O140 O 0.13039 0.02787 0.7627 0.0
Cd141 Cd 0.14551 0.02774 0.78768 0.0
Cd142 Cd 0.11826 0.03943 0.7992 0.0
O143 O 0.10471 0.02947 0.77236 0.0
O144 O 0.16284 0.01474 0.77816 0.0
O145 O 0.14519 0.00453 0.7985 0.0
C146 C 0.15699 1.00223 0.7878 0.0
C147 C 0.10753 0.03457 0.82803 0.0
C148 C 0.11393 0.02767 0.75905 0.0
C149 C 0.15371 0.06575 0.80077 0.0
O150 O 0.1368 0.06337 0.79952 0.0
O151 O 0.16084 0.05245 0.79942 0.0
O152 O 0.10136 0.04455 0.81714 0.0
O153 O 0.11918 0.02639 0.82212 0.0
O154 O 0.2841 0.92222 0.02898 0.0
Cd155 Cd 0.28194 0.93291 0.00461 0.0
Cd156 Cd 0.28412 0.90353 0.99288 0.0
O157 O 0.27151 0.89548 0.01436 0.0
O158 O 0.27041 0.95256 0.00942 0.0
O159 O 0.25764 0.92718 0.9908 0.0
C160 C 0.25658 0.94235 -0.00084 0.0
C161 C 0.27543 0.89334 0.96274 0.0
C162 C 0.27683 0.90594 0.02937 0.0
C163 C 0.31593 0.93108 0.99635 0.0
O164 O 0.31033 0.91514 -0.0006 0.0
O165 O 0.30497 0.94084 0.99358 0.0
O166 O 0.2817 0.88347 0.97371 0.0
O167 O 0.2733 0.90878 0.96915 0.0
O168 O 0.28595 0.38154 0.07368 0.0
Cd169 Cd 0.28805 0.39876 0.05407 0.0
Cd170 Cd 0.29731 0.36935 0.03379 0.0
O171 O 0.28966 0.3573 0.05727 0.0
O172 O 0.27597 0.41726 0.06435 0.0
O173 O 0.26521 0.39951 0.03812 0.0
C174 C 0.26331 0.41174 0.0507 0.0
C175 C 0.28905 0.35531 0.00275 0.0
C176 C 0.28644 0.36518 0.07236 0.0
C177 C 0.32558 0.40434 0.04404 0.0
O178 O 0.32161 0.38788 0.03742 0.0
O179 O 0.31392 0.41169 0.05061 0.0
O180 O 0.29965 0.34976 0.01435 0.0
O181 O 0.28222 0.36823 0.00892 0.0
O182 O 0.76326 0.12525 0.07813 0.0
Cd183 Cd 0.76342 0.11293 0.05239 0.0
Cd184 Cd 0.76118 0.14259 0.04564 0.0
O185 O 0.77806 0.14994 0.06942 0.0
O186 O 0.7762 0.09421 0.05439 0.0
O187 O 0.78593 0.11988 0.04294 0.0
C188 C 0.78875 0.10519 0.04819 0.0
C189 C 0.76535 0.15291 0.01848 0.0
C190 C 0.77274 0.14101 0.08219 0.0
C191 C 0.72967 0.11483 0.04052 0.0
O192 O 0.73577 0.13069 0.04828 0.0
O193 O 0.74031 0.10556 0.03546 0.0
O194 O 0.7599 0.16232 0.03138 0.0
O195 O 0.76928 0.13799 0.02147 0.0
O196 O 0.17806 0.5375 0.23933 0.0
Cd197 Cd 0.19186 0.53875 0.26479 0.0
Cd198 Cd 0.16219 0.53934 0.27193 0.0
O199 O 0.15462 0.52123 0.24879 0.0
O200 O 0.21079 0.52632 0.26205 0.0
O201 O 0.1864 0.51681 0.27575 0.0
C202 C 0.20064 0.51393 0.26933 0.0
C203 C 0.15135 0.53757 0.29933 0.0
C204 C 0.16273 0.52697 0.23563 0.0
C205 C 0.18872 0.57224 0.27509 0.0
O206 O 0.17288 0.56487 0.26784 0.0
O207 O 0.19919 0.56271 0.28025 0.0
O208 O 0.14206 0.54156 0.28531 0.0
O209 O 0.16628 0.53318 0.2973 0.0
O210 O 0.78989 0.88264 0.57764 0.0
Cd211 Cd 0.79041 0.89785 0.5559 0.0
Cd212 Cd 0.80037 0.86948 0.53949 0.0
O213 O 0.792 0.85724 0.56243 0.0
O214 O 0.77778 0.91609 0.56507 0.0
O215 O 0.76704 0.89657 0.53998 0.0
C216 C 0.76501 0.90938 0.55177 0.0
C217 C 0.7919 0.85678 0.50818 0.0
C218 C 0.78959 0.86612 0.57729 0.0
C219 C 0.82766 0.90469 0.54679 0.0
O220 O 0.82492 0.88777 0.54394 0.0
O221 O 0.81489 0.91198 0.55006 0.0
O222 O 0.80359 0.85166 0.51892 0.0
O223 O 0.784 0.86839 0.51543 0.0
O224 O 0.91849 0.01145 0.2348 0.0
Cd225 Cd 0.90348 0.01244 0.25657 0.0
Cd226 Cd 0.93206 0.00465 0.27432 0.0
O227 O 0.94433 0.01521 0.25232 0.0
O228 O 0.88545 0.0256 0.24792 0.0
O229 O 0.90638 0.03628 0.27193 0.0
C230 C 0.89318 0.03852 0.26076 0.0
C231 C 0.94554 0.01166 0.30555 0.0
C232 C 0.93546 0.01481 0.23651 0.0
C233 C 0.89783 0.9762 0.26693 0.0
O234 O 0.91481 0.97935 0.2688 0.0
O235 O 0.88995 0.98868 0.26432 0.0
O236 O 0.95102 1.00133 0.29359 0.0
O237 O 0.93292 0.019 0.29959 0.0
O238 O 0.26517 0.6245 0.57497 0.0
Cd239 Cd 0.26478 0.61163 0.54935 0.0
Cd240 Cd 0.26322 0.64119 0.54199 0.0
O241 O 0.28098 0.64805 0.56536 0.0
O242 O 0.27773 0.5931 0.55172 0.0
O243 O 0.28709 0.61809 0.53895 0.0
C244 C 0.29016 0.60376 0.54499 0.0
C245 C 0.26686 0.65226 0.51494 0.0
C246 C 0.27518 0.64003 0.57854 0.0
C247 C 0.23082 0.61438 0.53855 0.0
O248 O 0.23765 0.63043 0.54548 0.0
O249 O 0.2408 0.60421 0.53375 0.0
O250 O 0.26362 0.66207 0.52899 0.0
O251 O 0.26882 0.63632 0.51657 0.0
O252 O 0.42042 0.51574 0.7408 0.0
Cd253 Cd 0.40392 0.51544 0.76138 0.0
Cd254 Cd 0.43337 0.50651 0.78038 0.0
O255 O 0.44578 0.51651 0.75815 0.0
O256 O 0.38538 0.52758 0.75112 0.0
O257 O 0.40447 0.53918 0.77627 0.0
C258 C 0.39175 0.54077 0.76406 0.0
C259 C 0.44767 0.51251 0.81158 0.0
C260 C 0.43728 0.51758 0.74252 0.0
C261 C 0.39853 0.4782 0.77059 0.0
O262 O 0.41548 0.4817 0.77431 0.0
O263 O 0.3906 0.49055 0.76725 0.0
O264 O 0.45253 0.50223 0.79906 0.0
O265 O 0.43514 0.52023 0.80626 0.0
O266 O 0.67896 0.04051 0.73526 0.0
Cd267 Cd 0.6919 0.04037 0.76072 0.0
Cd268 Cd 0.66209 0.04077 0.76748 0.0
O269 O 0.65537 0.02343 0.74371 0.0
O270 O 0.71043 0.0274 0.75827 0.0
O271 O 0.68497 0.01805 0.77037 0.0
C272 C 0.69948 0.01506 0.76478 0.0
C273 C 0.65163 0.03765 0.79483 0.0
C274 C 0.66388 0.02964 0.73099 0.0
C275 C 0.68885 0.07325 0.77293 0.0
O276 O 0.6732 0.06653 0.76475 0.0
O277 O 0.69864 0.0631 0.77808 0.0
O278 O 0.64199 0.04186 0.78121 0.0
O279 O 0.66669 0.03375 0.79233 0.0
O280 O 0.77759 0.67565 0.0518 0.0
Cd281 Cd 0.77639 0.65973 0.02699 0.0
Cd282 Cd 0.7628 0.68594 0.0146 0.0
O283 O 0.77137 0.69965 0.04155 0.0
O284 O 0.78858 0.64192 0.03656 0.0
O285 O 0.79937 0.65878 0.01594 0.0
C286 C 0.80114 0.64689 0.02669 0.0
C287 C 0.76967 0.69609 0.98619 0.0
C288 C 0.77566 0.6915 0.05505 0.0
C289 C 0.73762 0.65009 0.01362 0.0
O290 O 0.73923 0.66674 0.01315 0.0
O291 O 0.75142 0.64391 0.01667 0.0
O292 O 0.75824 0.70186 0.99537 0.0
O293 O 0.77802 0.6852 0.9935 0.0
O294 O 0.88423 0.51733 0.78687 0.0
Cd295 Cd 0.87218 0.5202 0.81038 0.0
Cd296 Cd 0.90129 0.5198 0.82234 0.0
O297 O 0.90989 0.5331 0.8014 0.0
O298 O 0.85221 0.52995 0.8023 0.0
O299 O 0.87577 0.54473 0.82278 0.0
C300 C 0.86123 0.54457 0.81222 0.0
C301 C 0.9119 0.52604 0.85249 0.0
C302 C 0.89999 0.52624 0.78635 0.0
C303 C 0.87364 0.48742 0.81924 0.0
O304 O 0.88927 0.49333 0.81537 0.0
O305 O 0.86389 0.49821 0.82258 0.0
O306 O 0.92098 0.51962 0.84073 0.0
O307 O 0.8975 0.53083 0.84674 0.0
O308 O 0.78847 0.42422 0.53658 0.0
Cd309 Cd 0.78459 0.43296 0.51132 0.0
Cd310 Cd 0.78718 0.40351 0.50023 0.0
O311 O 0.77547 0.39724 0.52286 0.0
O312 O 0.77108 0.4512 0.51352 0.0
O313 O 0.76042 0.4237 0.49805 0.0
C314 C 0.75798 0.43908 0.50427 0.0
C315 C 0.77851 0.38881 0.47145 0.0
C316 C 0.78117 0.40807 0.53757 0.0
C317 C 0.81775 0.43183 0.50064 0.0
O318 O 0.81334 0.41608 0.50465 0.0
O319 O 0.8061 0.44085 0.49834 0.0
O320 O 0.7855 0.38132 0.4844 0.0
O321 O 0.77541 0.40441 0.47526 0.0
O322 O 0.63434 0.52618 0.26806 0.0
Cd323 Cd 0.64953 0.52609 0.29298 0.0
Cd324 Cd 0.62186 0.53706 0.30509 0.0
O325 O 0.60854 0.52686 0.27802 0.0
O326 O 0.6678 0.51396 0.28409 0.0
O327 O 0.64951 0.50262 0.30329 0.0
C328 C 0.66203 0.50105 0.29329 0.0
C329 C 0.61121 0.53226 0.33413 0.0
C330 C 0.61776 0.52556 0.2646 0.0
C331 C 0.65686 0.56417 0.30628 0.0
O332 O 0.63994 0.56134 0.30549 0.0
O333 O 0.66431 0.55109 0.30467 0.0
O334 O 0.60471 0.54187 0.32302 0.0
O335 O 0.62308 0.52434 0.3283 0.0
Tb336 Tb 0.05426 0.04392 0.04947 0.0
C337 C 0.99022 0.98358 0.00562 0.0
N338 N 1.00076 0.99906 0.00183 0.0
C339 C 1.00152 0.98527 0.97098 0.0
C340 C 0.98535 0.96823 0.99226 0.0
C341 C 0.00586 1.00022 0.98452 0.0
C342 C 0.99141 0.96916 0.97493 0.0
C343 C 0.97118 0.96801 0.02613 0.0
C344 C 0.98325 0.98343 0.02247 0.0
C345 C 0.96696 0.95254 0.01317 0.0
C346 C 0.97402 0.95265 0.99629 0.0
Tb347 Tb 1.00554 0.02251 0.025 0.0
N348 N 0.98718 0.99872 0.03461 0.0
C349 C 0.963 0.96882 0.04231 0.0
C350 C 0.97798 0.99993 0.04958 0.0
C351 C 0.96619 0.98495 0.05392 0.0
H352 H 0.01249 0.01273 0.9806 0.0
H353 H 0.95927 0.98598 0.06599 0.0
H354 H 0.05194 0.05267 0.0951 0.0
H355 H 0.09289 0.08163 0.00326 0.0
H356 H 0.97936 0.01254 0.05811 0.0
H357 H 0.9536 0.95729 0.04555 0.0
H358 H 0.07372 0.055 0.01264 0.0
H359 H 0.00564 0.98632 0.95734 0.0
H360 H 0.95778 0.94058 0.01581 0.0
H361 H 0.97019 0.94074 0.9862 0.0
H362 H 0.06301 0.07812 0.11975 0.0
H363 H 0.98783 0.95769 0.96428 0.0
H364 H 0.10309 0.10932 0.02549 0.0
N365 N 0.06227 0.06691 0.07357 0.0
C366 C 0.07281 0.08221 0.06956 0.0
C367 C 0.06565 0.07955 0.10564 0.0
C368 C 0.07984 0.09694 0.08341 0.0
C369 C 0.05913 0.06525 0.09153 0.0
C370 C 0.07593 0.09552 0.10155 0.0
N371 N 0.07156 0.06788 0.03913 0.0
C372 C 0.07749 0.06716 0.02213 0.0
C373 C 0.08912 0.09807 0.0473 0.0
C374 C 0.07757 0.08272 0.05178 0.0
C375 C 0.09428 0.09777 0.02948 0.0
C376 C 0.08855 0.08219 0.01689 0.0
H377 H 0.08119 0.1065 0.11258 0.0
H378 H 0.09653 0.12383 0.08935 0.0
H379 H 0.10451 0.12488 0.05769 0.0
O380 O 0.07822 0.03682 0.04331 0.0
O381 O 0.04381 0.06202 0.03186 0.0
O382 O 0.0131 0.0525 0.03071 0.0
O383 O 0.07144 0.03964 0.07167 0.0
O384 O 0.04954 0.02723 0.02227 0.0
O385 O 0.02491 0.03372 0.00711 0.0
O386 O 0.98335 0.03183 0.03185 0.0
O387 O 0.02172 1.00259 0.03073 0.0
O388 O 0.04215 0.01678 0.05614 0.0
O389 O 0.98455 0.02057 0.00358 0.0
O390 O 0.01035 0.02305 0.05491 0.0
O391 O 0.03222 0.04825 0.06506 0.0
C392 C 0.02757 0.06487 0.02902 0.0
C393 C 0.09986 0.0329 0.06845 0.0
C394 C 0.12425 0.01845 0.06482 0.0
C395 C 0.13146 0.02487 0.08338 0.0
C396 C 0.1071 0.03922 0.087 0.0
C397 C 0.12291 0.03527 0.09438 0.0
C398 C 0.10856 0.02269 0.05732 0.0
C399 C 0.04092 0.03058 0.00705 0.0
C400 C 0.08306 0.03665 0.06091 0.0
C401 C 0.09104 0.11239 0.0789 0.0
C402 C 0.0956 0.11298 0.06087 0.0
C403 C 0.03315 1.00199 0.04541 0.0
C404 C 0.96079 0.03512 0.0084 0.0
C405 C 0.93731 0.04977 0.01551 0.0
C406 C 0.92964 0.04595 0.99687 0.0
C407 C 0.95308 0.03128 0.9897 0.0
C408 C 0.95279 0.0444 0.02128 0.0
C409 C 0.93756 0.03673 0.98399 0.0
C410 C 0.01822 0.03619 0.06779 0.0
C411 C 0.97484 0.02657 0.01512 0.0
H412 H 0.14373 0.02189 0.08933 0.0
H413 H 0.10055 0.04724 0.09575 0.0
H414 H 0.12851 0.04021 0.10865 0.0
H415 H 0.10285 0.01759 0.04307 0.0
H416 H 0.91751 0.05003 0.99237 0.0
H417 H 0.95869 0.02357 0.97964 0.0
H418 H 0.95825 0.04706 0.03586 0.0
H419 H 0.93153 0.03357 0.96964 0.0
Tb420 Tb 0.25921 0.77878 0.29725 0.0
C421 C 0.29476 0.74366 0.22598 0.0
N422 N 0.30196 0.75695 0.24022 0.0
C423 C 0.32897 0.74647 0.24328 0.0
C424 C 0.30425 0.73093 0.22021 0.0
C425 C 0.31895 0.75864 0.24873 0.0
C426 C 0.32157 0.73251 0.22903 0.0
C427 C 0.26909 0.72818 0.20372 0.0
C428 C 0.27748 0.74243 0.21765 0.0
C429 C 0.27853 0.7155 0.19788 0.0
C430 C 0.29609 0.71692 0.20605 0.0
Tb431 Tb 0.28454 0.77635 0.2474 0.0
N432 N 0.26844 0.75445 0.22437 0.0
C433 C 0.25133 0.72686 0.19639 0.0
C434 C 0.25132 0.75358 0.21667 0.0
C435 C 0.24247 0.73968 0.20283 0.0
H436 H 0.3251 0.76965 0.25937 0.0
H437 H 0.2288 0.73891 0.19707 0.0
H438 H 0.21869 0.78485 0.28713 0.0
H439 H 0.31379 0.81346 0.3506 0.0
H440 H 0.2443 0.76346 0.22096 0.0
H441 H 0.24437 0.71604 0.18575 0.0
H442 H 0.29764 0.78861 0.32759 0.0
H443 H 0.34244 0.74792 0.25003 0.0
H444 H 0.27231 0.70445 0.1872 0.0
H445 H 0.30316 0.70697 0.20148 0.0
H446 H 0.20185 0.80748 0.29543 0.0
H447 H 0.32934 0.72303 0.22495 0.0
H448 H 0.30008 0.83862 0.35922 0.0
N449 N 0.2421 0.79804 0.30551 0.0
C450 C 0.24987 0.81205 0.31863 0.0
C451 C 0.21538 0.80897 0.30203 0.0
C452 C 0.24083 0.82538 0.32376 0.0
C453 C 0.225 0.7962 0.29731 0.0
C454 C 0.22337 0.82371 0.31524 0.0
N455 N 0.27507 0.79976 0.32137 0.0
C456 C 0.29147 0.79956 0.33032 0.0
C457 C 0.27573 0.82745 0.3404 0.0
C458 C 0.26702 0.81303 0.32676 0.0
C459 C 0.29291 0.82777 0.34873 0.0
C460 C 0.3007 0.81363 0.34384 0.0
H461 H 0.21594 0.83365 0.3188 0.0
H462 H 0.24284 0.85038 0.34116 0.0
H463 H 0.27347 0.85221 0.35576 0.0
O464 O 0.26073 0.75922 0.31447 0.0
O465 O 0.26686 0.80401 0.28673 0.0
O466 O 0.28899 0.79624 0.27213 0.0
O467 O 0.23511 0.76213 0.30228 0.0
O468 O 0.28556 0.77141 0.29963 0.0
O469 O 0.30207 0.77902 0.27467 0.0
O470 O 0.28139 0.79296 0.22683 0.0
O471 O 0.27141 0.74973 0.25176 0.0
O472 O 0.26712 0.7676 0.27372 0.0
O473 O 0.30753 0.78821 0.23624 0.0
O474 O 0.25874 0.78503 0.24679 0.0
O475 O 0.24162 0.77431 0.27023 0.0
C476 C 0.27916 0.80767 0.27574 0.0
C477 C 0.23745 0.75261 0.33221 0.0
C478 C 0.24154 0.74211 0.36207 0.0
C479 C 0.22778 0.74963 0.36784 0.0
C480 C 0.22355 0.76005 0.33792 0.0
C481 C 0.21874 0.75848 0.35571 0.0
C482 C 0.24623 0.74347 0.34431 0.0
C483 C 0.30048 0.77374 0.29151 0.0
C484 C 0.24349 0.75425 0.314 0.0
C485 C 0.24951 0.83993 0.33711 0.0
C486 C 0.26695 0.84098 0.34539 0.0
C487 C 0.26436 0.75129 0.26653 0.0
C488 C 0.30651 0.80701 0.212 0.0
C489 C 0.30344 0.82124 0.18439 0.0
C490 C 0.3221 0.82621 0.18521 0.0
C491 C 0.32521 0.81208 0.2129 0.0
C492 C 0.29563 0.81185 0.19784 0.0
C493 C 0.33295 0.82173 0.19955 0.0
C494 C 0.2435 0.78121 0.2543 0.0
C495 C 0.29831 0.79571 0.225 0.0
H496 H 0.22387 0.74835 0.38155 0.0
H497 H 0.2165 0.76708 0.32875 0.0
H498 H 0.20798 0.7641 0.36011 0.0
H499 H 0.25683 0.73747 0.33995 0.0
H500 H 0.32822 0.83361 0.17481 0.0
H501 H 0.33381 0.80843 0.22378 0.0
H502 H 0.28117 0.80791 0.19692 0.0
H503 H 0.34735 0.82559 0.20021 0.0
Tb504 Tb 0.50755 0.02057 0.54998 0.0
C505 C 0.57509 0.06233 0.51681 0.0
N506 N 0.56204 0.04729 0.51042 0.0
C507 C 0.55941 0.05694 0.48021 0.0
C508 C 0.5803 0.0755 0.50518 0.0
C509 C 0.55474 0.04416 0.49213 0.0
C510 C 0.57209 0.07274 0.48679 0.0
C511 C 0.59712 0.07985 0.54196 0.0
C512 C 0.58355 0.06448 0.53504 0.0
C513 C 0.6021 0.09305 0.53044 0.0
C514 C 0.59372 0.09088 0.51213 0.0
Tb515 Tb 0.55732 0.02752 0.53165 0.0
N516 N 0.57822 0.05169 0.54609 0.0
C517 C 0.60532 0.08149 0.56028 0.0
C518 C 0.5867 0.05281 0.56363 0.0
C519 C 0.60019 0.06784 0.5711 0.0
H520 H 0.54579 0.03164 0.48621 0.0
H521 H 0.60683 0.06874 0.58509 0.0
H522 H 0.51812 0.01954 0.59645 0.0
H523 H 0.45902 0.97626 0.49833 0.0
H524 H 0.58357 0.04183 0.57156 0.0
H525 H 0.61583 0.09309 0.56609 0.0
H526 H 0.48147 0.00417 0.51089 0.0
H527 H 0.55345 0.05441 0.46582 0.0
H528 H 0.61248 0.10495 0.53553 0.0
H529 H 0.59784 0.10112 0.50337 0.0
H530 H 0.51136 0.9978 0.61808 0.0
H531 H 0.57577 0.08253 0.47743 0.0
H532 H 0.45174 0.95228 0.51818 0.0
N533 N 0.50403 1.00178 0.57237 0.0
C534 C 0.49202 0.98588 0.56642 0.0
C535 C 0.5061 0.99416 0.60353 0.0
C536 C 0.48699 0.9734 0.57883 0.0
C537 C 0.51035 0.00634 0.59091 0.0
C538 C 0.49452 0.97757 0.59745 0.0
N539 N 0.48818 0.99502 0.53649 0.0
C540 C 0.4789 0.99338 0.51919 0.0
C541 C 0.47049 0.96672 0.54179 0.0
C542 C 0.48367 0.98253 0.54808 0.0
C543 C 0.46191 0.96428 0.52352 0.0
C544 C 0.46601 0.97776 0.51224 0.0
H545 H 0.49095 0.96834 0.60739 0.0
H546 H 0.4701 0.94778 0.58185 0.0
H547 H 0.45577 0.94191 0.54947 0.0
O548 O 0.4873 0.03271 0.53918 0.0
O549 O 0.51339 0.99652 0.5339 0.0
O550 O 0.54389 0.99933 0.53208 0.0
O551 O 0.48747 0.02365 0.56606 0.0
O552 O 0.51667 0.03277 0.52634 0.0
O553 O 0.53431 0.01842 0.51079 0.0
O554 O 0.58097 0.01904 0.54014 0.0
O555 O 0.54954 0.05275 0.54264 0.0
O556 O 0.5239 0.04825 0.55812 0.0
O557 O 0.57077 0.01818 0.51083 0.0
O558 O 0.54917 0.01649 0.55634 0.0
O559 O 0.53025 0.02989 0.57106 0.0
C560 C 0.52729 0.98971 0.53063 0.0
C561 C 0.47329 0.04709 0.56202 0.0
C562 C 0.45064 0.06441 0.56059 0.0
C563 C 0.45662 0.07197 0.57908 0.0
C564 C 0.47946 0.05513 0.58042 0.0
C565 C 0.4711 0.06747 0.58887 0.0
C566 C 0.45904 0.05204 0.55203 0.0
C567 C 0.51945 0.02362 0.51148 0.0
C568 C 0.47955 0.03165 0.55416 0.0
C569 C 0.47411 0.95746 0.57248 0.0
C570 C 0.46591 0.95412 0.55403 0.0
C571 C 0.53797 0.05877 0.55256 0.0
C572 C 0.59788 0.0079 0.5167 0.0
C573 C 0.62047 0.99073 0.52121 0.0
C574 C 0.62413 0.99226 0.50296 0.0
C575 C 0.60184 0.00938 0.4985 0.0
C576 C 0.60739 0.99866 0.5282 0.0
C577 C 0.61491 1.00161 0.49171 0.0
C578 C 0.54576 0.02599 0.57067 0.0
C579 C 0.58297 0.01498 0.52283 0.0
H580 H 0.45008 0.08138 0.58592 0.0
H581 H 0.49034 0.05146 0.5885 0.0
H582 H 0.47564 0.07333 0.60315 0.0
H583 H 0.45398 0.04572 0.53795 0.0
H584 H 0.63423 0.98625 0.49745 0.0
H585 H 0.59471 0.01643 0.48941 0.0
H586 H 0.60444 0.99734 0.54226 0.0
H587 H 0.61782 1.00275 0.47765 0.0
Tb588 Tb 0.30481 0.25974 0.78215 0.0
C589 C 0.24122 0.2824 0.73669 0.0
N590 N 0.25248 0.29121 0.75196 0.0
C591 C 0.25488 0.31881 0.73907 0.0
C592 C 0.23655 0.29145 0.72182 0.0
C593 C 0.25899 0.30928 0.75352 0.0
C594 C 0.2437 0.30985 0.72309 0.0
C595 C 0.22219 0.25464 0.72069 0.0
C596 C 0.23423 0.26422 0.73607 0.0
C597 C 0.2176 0.26355 0.70576 0.0
C598 C 0.2248 0.28191 0.7063 0.0
Tb599 Tb 0.25803 0.27414 0.7746 0.0
N600 N 0.23929 0.25597 0.75061 0.0
C601 C 0.21492 0.23645 0.72094 0.0
C602 C 0.2314 0.23855 0.75141 0.0
C603 C 0.21938 0.22843 0.73648 0.0
H604 H 0.26684 0.31651 0.76612 0.0
H605 H 0.21329 0.21454 0.73713 0.0
H606 H 0.29423 0.2167 0.78917 0.0
H607 H 0.34681 0.31873 0.8234 0.0
H608 H 0.23375 0.23255 0.76374 0.0
H609 H 0.20553 0.22861 0.70944 0.0
H610 H 0.3264 0.30192 0.79622 0.0
H611 H 0.26014 0.33311 0.74038 0.0
H612 H 0.20838 0.25641 0.6938 0.0
H613 H 0.22105 0.28863 0.69474 0.0
H614 H 0.30088 0.19915 0.81404 0.0
H615 H 0.24044 0.3173 0.71197 0.0
H616 H 0.35524 0.30308 0.8496 0.0
N617 N 0.30887 0.24165 0.8042 0.0
C618 C 0.31997 0.24999 0.81981 0.0
C619 C 0.30622 0.21346 0.81589 0.0
C620 C 0.32471 0.24028 0.83406 0.0
C621 C 0.30216 0.22356 0.80195 0.0
C622 C 0.31754 0.22183 0.83201 0.0
N623 N 0.32178 0.27736 0.80745 0.0
C624 C 0.32915 0.29512 0.80784 0.0
C625 C 0.33886 0.27733 0.83704 0.0
C626 C 0.32686 0.26835 0.82137 0.0
C627 C 0.34587 0.29571 0.83786 0.0
C628 C 0.34107 0.30461 0.82314 0.0
H629 H 0.32084 0.2139 0.84266 0.0
H630 H 0.3405 0.24194 0.86077 0.0
H631 H 0.35299 0.27432 0.86331 0.0
O632 O 0.3273 0.26949 0.76855 0.0
O633 O 0.29248 0.26722 0.80712 0.0
O634 O 0.27677 0.2879 0.7989 0.0
O635 O 0.32359 0.24427 0.77921 0.0
O636 O 0.30405 0.28366 0.76835 0.0
O637 O 0.28212 0.29593 0.77999 0.0
O638 O 0.23618 0.26496 0.79007 0.0
O639 O 0.26912 0.2657 0.74893 0.0
O640 O 0.28796 0.24703 0.75616 0.0
O641 O 0.2415 0.29116 0.78079 0.0
O642 O 0.2604 0.25066 0.78832 0.0
O643 O 0.28096 0.23788 0.7747 0.0
C644 C 0.28483 0.28043 0.81152 0.0
C645 C 0.34229 0.24796 0.75546 0.0
C646 C 0.36744 0.25077 0.73736 0.0
C647 C 0.36244 0.23231 0.73159 0.0
C648 C 0.33737 0.22953 0.74915 0.0
C649 C 0.34744 0.22181 0.73736 0.0
C650 C 0.35734 0.25863 0.74932 0.0
C651 C 0.29711 0.29742 0.77253 0.0
C652 C 0.33375 0.25552 0.77062 0.0
C653 C 0.3366 0.24921 0.84975 0.0
C654 C 0.3437 0.26766 0.8512 0.0
C655 C 0.27833 0.25379 0.74401 0.0
C656 C 0.21563 0.28496 0.79713 0.0
C657 C 0.19076 0.28098 0.81604 0.0
C658 C 0.18683 0.29673 0.81071 0.0
C659 C 0.21106 0.30064 0.79216 0.0
C660 C 0.20525 0.27494 0.80916 0.0
C661 C 0.19686 0.30642 0.79888 0.0
C662 C 0.26605 0.23659 0.78219 0.0
C663 C 0.23129 0.27999 0.78942 0.0
H664 H 0.37025 0.226 0.72265 0.0
H665 H 0.32607 0.22094 0.7538 0.0
H666 H 0.34378 0.20756 0.73291 0.0
H667 H 0.36155 0.27277 0.75436 0.0
H668 H 0.17583 0.30157 0.81575 0.0
H669 H 0.21851 0.30861 0.78296 0.0
H670 H 0.20846 0.26281 0.8132 0.0
H671 H 0.19361 0.31853 0.79489 0.0
Tb672 Tb 0.04114 0.00532 0.52926 0.0
C673 C 0.0171 0.06873 0.57401 0.0
N674 N 0.00887 0.0586 0.55781 0.0
C675 C 0.98021 0.05755 0.56802 0.0
C676 C 0.00712 0.07366 0.5879 0.0
C677 C 0.99065 0.05327 0.55449 0.0
C678 C 0.98847 0.06775 0.58482 0.0
C679 C 0.0446 0.08538 0.59285 0.0
C680 C 0.03564 0.07443 0.57651 0.0
C681 C 0.03469 0.09039 0.60672 0.0
C682 C 0.01601 0.08448 0.60429 0.0
Tb683 Tb 0.02753 0.05295 0.53696 0.0
N684 N 0.04487 0.06903 0.56294 0.0
C685 C 0.06324 0.09112 0.59467 0.0
C686 C 0.06295 0.07514 0.56433 0.0
C687 C 0.07243 0.08606 0.5803 0.0
H688 H 0.98411 0.04628 0.54119 0.0
H689 H 0.08681 0.09074 0.58142 0.0
H690 H 0.08345 0.01075 0.52131 0.0
H691 H 0.97986 0.96402 0.4909 0.0
H692 H 0.07009 0.07184 0.55315 0.0
H693 H 0.07063 0.09964 0.60698 0.0
H694 H 0.99847 0.98379 0.51744 0.0
H695 H 0.96578 0.05324 0.56535 0.0
H696 H 0.04134 0.09885 0.61937 0.0
H697 H 0.00855 0.08849 0.61509 0.0
H698 H 0.09998 1.00189 0.4963 0.0
H699 H 0.98032 0.07122 0.59519 0.0
H700 H 0.99377 0.95433 0.46383 0.0
N701 N 0.05787 0.99812 0.50679 0.0
C702 C 0.04873 0.98692 0.49165 0.0
C703 C 0.08553 0.99783 0.49463 0.0
C704 C 0.05762 0.98107 0.47713 0.0
C705 C 0.0761 1.00328 0.50862 0.0
C706 C 0.07624 0.98681 0.47872 0.0
N707 N 0.02238 0.9871 0.50515 0.0
C708 C 1.00457 0.98059 0.5055 0.0
C709 C 0.0204 0.96926 0.4755 0.0
C710 C 0.03041 0.98106 0.49088 0.0
C711 C 1.00194 0.96341 0.47536 0.0
C712 C 0.99403 0.96895 0.49055 0.0
H713 H 0.08358 0.98251 0.46794 0.0
H714 H 0.05429 0.96491 0.45036 0.0
H715 H 0.02165 0.95462 0.44889 0.0
O716 O 0.03148 0.98307 0.544 0.0
O717 O 0.03282 0.0168 0.50397 0.0
O718 O 0.01381 0.03495 0.51212 0.0
O719 O 0.05834 0.98931 0.53632 0.0
O720 O 0.01794 0.00789 0.54367 0.0
O721 O 1.00523 0.02917 0.53111 0.0
O722 O 0.03824 0.07374 0.52147 0.0
O723 O 0.03538 0.04078 0.56191 0.0
O724 O 0.05517 0.02404 0.55346 0.0
O725 O 0.01412 0.07343 0.53344 0.0
O726 O 0.05099 0.05112 0.52297 0.0
O727 O 0.06356 0.02898 0.53378 0.0
C728 C 0.02075 0.026 0.49958 0.0
C729 C 0.05192 0.96325 0.55196 0.0
C730 C 0.04687 0.9378 0.56966 0.0
C731 C 0.06347 0.93468 0.5661 0.0
C732 C 0.06848 0.95965 0.54864 0.0
C733 C 0.07417 0.94553 0.55566 0.0
C734 C 0.04098 0.95216 0.56257 0.0
C735 C 1.0039 0.01422 0.53869 0.0
C736 C 0.04684 0.97867 0.54411 0.0
C737 C 0.0477 0.96951 0.46167 0.0
C738 C 0.02913 0.96363 0.46085 0.0
C739 C 0.04776 0.03202 0.56616 0.0
C740 C 0.01775 0.08961 0.50761 0.0
C741 C 0.01865 0.11428 0.48859 0.0
C742 C 1.0009 0.10645 0.48094 0.0
C743 C 1.00004 0.08217 0.49945 0.0
C744 C 0.02713 0.10577 0.50202 0.0
C745 C 0.99174 0.09053 0.48625 0.0
C746 C 0.06486 0.04436 0.52708 0.0
C747 C 0.02541 0.08191 0.5236 0.0
H748 H 0.06816 0.92374 0.57143 0.0
H749 H 0.07719 0.96778 0.54052 0.0
H750 H 0.08694 0.94297 0.55298 0.0
H751 H 0.02818 0.95466 0.56531 0.0
H752 H 0.99402 0.11284 0.47089 0.0
H753 H 0.99236 0.07011 0.5037 0.0
H754 H 0.04065 0.11195 0.50847 0.0
H755 H 0.97799 0.0848 0.48033 0.0
Tb756 Tb 0.28024 0.80046 0.75344 0.0
C757 C 0.23907 0.73154 0.78803 0.0
N758 N 0.25504 0.74297 0.79462 0.0
C759 C 0.24735 0.74312 0.82566 0.0
C760 C 0.22629 0.72597 0.79995 0.0
C761 C 0.25968 0.74806 0.81332 0.0
C762 C 0.23047 0.73224 0.81891 0.0
C763 C 0.21995 0.71201 0.76216 0.0
C764 C 0.23594 0.72462 0.76943 0.0
C765 C 0.20685 0.70698 0.77379 0.0
C766 C 0.21001 0.71395 0.79265 0.0
Tb767 Tb 0.27305 0.75161 0.77258 0.0
N768 N 0.24889 0.72982 0.7586 0.0
C769 C 0.2178 0.70455 0.74353 0.0
C770 C 0.24728 0.72183 0.74072 0.0
C771 C 0.23165 0.7093 0.73284 0.0
H772 H 0.27277 0.75639 0.81866 0.0
H773 H 0.23032 0.70328 0.71856 0.0
H774 H 0.28139 0.78749 0.7079 0.0
H775 H 0.32229 0.8562 0.79984 0.0
H776 H 0.25796 0.72521 0.73251 0.0
H777 H 0.20572 0.6948 0.73742 0.0
H778 H 0.29505 0.83264 0.78921 0.0
H779 H 0.25088 0.74767 0.84037 0.0
H780 H 0.19442 0.69741 0.76844 0.0
H781 H 0.19996 0.70964 0.80155 0.0
H782 H 0.30329 0.79171 0.68598 0.0
H783 H 0.22099 0.72834 0.82852 0.0
H784 H 0.3466 0.8615 0.78013 0.0
N785 N 0.29884 0.80389 0.73078 0.0
C786 C 0.31436 0.81658 0.73563 0.0
C787 C 0.30677 0.7985 0.70004 0.0
C788 C 0.3271 0.82002 0.72316 0.0
C789 C 0.29451 0.79569 0.71283 0.0
C790 C 0.32329 0.81047 0.70533 0.0
N791 N 0.30426 0.82357 0.76425 0.0
C792 C 0.30575 0.83431 0.7807 0.0
C793 C 0.33276 0.84047 0.75824 0.0
C794 C 0.3171 0.82681 0.75287 0.0
C795 C 0.33476 0.85089 0.77549 0.0
C796 C 0.32109 0.84791 0.78668 0.0
H797 H 0.33269 0.81277 0.69532 0.0
H798 H 0.35293 0.83598 0.71929 0.0
H799 H 0.35795 0.8538 0.75007 0.0
O800 O 0.26944 0.82293 0.76039 0.0
O801 O 0.30552 0.79209 0.76273 0.0
O802 O 0.2983 0.77149 0.78364 0.0
O803 O 0.26889 0.81164 0.73165 0.0
O804 O 0.28277 0.80075 0.78308 0.0
O805 O 0.26841 0.77336 0.79157 0.0
O806 O 0.28344 0.72969 0.76218 0.0
O807 O 0.24964 0.7567 0.75523 0.0
O808 O 0.25387 0.78735 0.76154 0.0
O809 O 0.28825 0.74047 0.7912 0.0
O810 O 0.28607 0.76071 0.74949 0.0
O811 O 0.26981 0.7766 0.73407 0.0
C812 C 0.31018 0.78263 0.77594 0.0
C813 C 0.25592 0.83727 0.73606 0.0
C814 C 0.2418 0.86222 0.74132 0.0
C815 C 0.23908 0.86263 0.72207 0.0
C816 C 0.25296 0.83786 0.71683 0.0
C817 C 0.24457 0.85045 0.70992 0.0
C818 C 0.25015 0.84945 0.74835 0.0
C819 C 0.27587 0.79056 0.79499 0.0
C820 C 0.26488 0.82383 0.74293 0.0
C821 C 0.34295 0.83326 0.72864 0.0
C822 C 0.34578 0.84344 0.74615 0.0
C823 C 0.24327 0.77127 0.75611 0.0
C824 C 0.29382 0.71164 0.78434 0.0
C825 C 0.30996 0.68772 0.78238 0.0
C826 C 0.30504 0.68341 0.79959 0.0
C827 C 0.28874 0.70671 0.80137 0.0
C828 C 0.30432 0.70188 0.77472 0.0
C829 C 0.2944 0.69275 0.80894 0.0
C830 C 0.27704 0.76298 0.73433 0.0
C831 C 0.29142 0.72884 0.77857 0.0
H832 H 0.23257 0.87234 0.71645 0.0
H833 H 0.25717 0.82859 0.70707 0.0
H834 H 0.24234 0.85081 0.6951 0.0
H835 H 0.25227 0.84914 0.76321 0.0
H836 H 0.30951 0.67277 0.80584 0.0
H837 H 0.28097 0.7141 0.80925 0.0
H838 H 0.30869 0.70573 0.76178 0.0
H839 H 0.29081 0.68937 0.82227 0.0
Tb840 Tb 0.52575 0.03675 0.01062 0.0
C841 C 0.55936 0.99945 0.08256 0.0
N842 N 0.54574 0.99219 0.06869 0.0
C843 C 0.55604 0.96508 0.06563 0.0
C844 C 0.57228 0.99003 0.08801 0.0
C845 C 0.54373 0.97506 0.06046 0.0
C846 C 0.57048 0.97264 0.07933 0.0
C847 C 0.57495 0.02497 0.10485 0.0
C848 C 0.56054 0.01657 0.09105 0.0
C849 C 0.58801 0.01575 0.11013 0.0
C850 C 0.58663 0.99828 0.1018 0.0
Tb851 Tb 0.52732 0.01026 0.06021 0.0
N852 N 0.54807 0.02534 0.08492 0.0
C853 C 0.57595 0.04247 0.11271 0.0
C854 C 0.54855 0.04212 0.09332 0.0
C855 C 0.56257 0.05099 0.10706 0.0
H856 H 0.53253 0.96891 0.04999 0.0
H857 H 0.56303 0.06443 0.11329 0.0
H858 H 0.52086 0.07774 0.0217 0.0
H859 H 0.49433 0.98806 0.95083 0.0
H860 H 0.53829 0.0489 0.08966 0.0
H861 H 0.58687 0.04944 0.12324 0.0
H862 H 0.51919 0.00355 0.97466 0.0
H863 H 0.55441 0.95156 0.05898 0.0
H864 H 0.59923 0.02202 0.12062 0.0
H865 H 0.59678 0.99131 0.10604 0.0
H866 H 0.49794 0.09475 0.01538 0.0
H867 H 0.58009 0.96493 0.08315 0.0
H868 H 0.46738 1.00015 0.9457 0.0
N869 N 0.5069 0.05465 0.00329 0.0
C870 C 0.49254 0.04733 0.99045 0.0
C871 C 0.49616 0.08134 0.00837 0.0
C872 C 0.47896 0.0564 0.9865 0.0
C873 C 0.50912 0.07162 0.01197 0.0
C874 C 0.48086 0.07359 0.99577 0.0
N875 N 0.50582 0.02328 0.98474 0.0
C876 C 0.50728 0.00863 0.97334 0.0
C877 C 0.47753 0.02282 0.96698 0.0
C878 C 0.49186 0.03087 0.98094 0.0
C879 C 0.47814 0.00684 0.95653 0.0
C880 C 0.49331 0.99996 0.95942 0.0
H881 H 0.47079 0.08109 0.99308 0.0
H882 H 0.45342 0.05472 0.9702 0.0
H883 H 0.45213 0.0252 0.95307 0.0
O884 O 0.54645 0.03544 0.99478 0.0
O885 O 0.50058 0.0295 0.02132 0.0
O886 O 0.50853 0.00705 0.03492 0.0
O887 O 0.54341 0.0608 0.0073 0.0
O888 O 0.52893 0.0086 0.00643 0.0
O889 O 0.52878 0.99358 0.03343 0.0
O890 O 0.50799 0.01289 0.07775 0.0
O891 O 0.55394 0.02455 0.05699 0.0
O892 O 0.53663 0.02788 0.03381 0.0
O893 O 0.51299 0.98713 0.06913 0.0
O894 O 0.52004 0.03685 0.06157 0.0
O895 O 0.52989 0.05403 0.03782 0.0
C896 C 0.49712 0.01699 0.03206 0.0
C897 C 0.55477 0.05985 0.97846 0.0
C898 C 0.56256 0.05561 0.9473 0.0
C899 C 0.56196 0.07331 0.94524 0.0
C900 C 0.55445 0.07764 0.97644 0.0
C901 C 0.55797 0.08428 0.95981 0.0
C902 C 0.55898 0.04896 0.96385 0.0
C903 C 0.52995 0.99447 0.0153 0.0
C904 C 0.55183 0.0527 0.99597 0.0
C905 C 0.46415 0.04811 0.97327 0.0
C906 C 0.46341 0.03129 0.96355 0.0
C907 C 0.55273 0.03111 0.0418 0.0
C908 C 0.50171 0.99087 0.09777 0.0
C909 C 0.48742 0.99429 0.12534 0.0
C910 C 0.49178 0.97879 0.13081 0.0
C911 C 0.50622 0.97537 0.10332 0.0
C912 C 0.4924 1.00036 0.10895 0.0
C913 C 0.50127 0.96941 0.11984 0.0
C914 C 0.52398 0.05219 0.05425 0.0
C915 C 0.50419 0.99591 0.07932 0.0
H916 H 0.56522 0.07881 0.93263 0.0
H917 H 0.55166 0.08643 0.9877 0.0
H918 H 0.5579 0.09803 0.95832 0.0
H919 H 0.55984 0.03537 0.9654 0.0
H920 H 0.48764 0.97387 0.14341 0.0
H921 H 0.51311 0.9676 0.09472 0.0
H922 H 0.48841 0.01207 0.10461 0.0
H923 H 0.50448 0.95733 0.12396 0.0
Tb924 Tb 0.261 0.2429 0.25619 0.0
C925 C 0.3212 0.31042 0.29914 0.0
N926 N 0.30583 0.30062 0.30381 0.0
C927 C 0.31929 0.30435 0.33563 0.0
C928 C 0.3364 0.3172 0.31248 0.0
C929 C 0.30452 0.29807 0.32198 0.0
C930 C 0.33536 0.3138 0.33083 0.0
C931 C 0.33668 0.3258 0.27607 0.0
C932 C 0.32134 0.31476 0.2812 0.0
C933 C 0.35206 0.33196 0.2891 0.0
C934 C 0.35191 0.32771 0.30728 0.0
Tb935 Tb 0.28237 0.29216 0.28025 0.0
N936 N 0.30611 0.30896 0.26907 0.0
C937 C 0.33587 0.33087 0.2582 0.0
C938 C 0.30489 0.31497 0.25215 0.0
C939 C 0.31981 0.32561 0.24627 0.0
H940 H 0.29193 0.29143 0.32604 0.0
H941 H 0.31882 0.33 0.23267 0.0
H942 H 0.25165 0.25055 0.21186 0.0
H943 H 0.223 0.19661 0.2962 0.0
H944 H 0.29239 0.31173 0.24329 0.0
H945 H 0.34737 0.33934 0.25373 0.0
H946 H 0.25013 0.21605 0.28854 0.0
H947 H 0.31817 0.30213 0.34989 0.0
H948 H 0.36398 0.34043 0.28541 0.0
H949 H 0.36372 0.33298 0.31733 0.0
H950 H 0.22551 0.2444 0.18837 0.0
H951 H 0.34671 0.31886 0.34149 0.0
H952 H 0.19455 0.19144 0.27539 0.0
N953 N 0.23761 0.23859 0.23278 0.0
C954 C 0.22201 0.22797 0.23609 0.0
C955 C 0.22421 0.24004 0.20188 0.0
C956 C 0.20673 0.22353 0.22258 0.0
C957 C 0.23902 0.24401 0.21561 0.0
C958 C 0.20793 0.22996 0.20545 0.0
N959 N 0.2369 0.22399 0.26475 0.0
C960 C 0.23766 0.21487 0.27981 0.0
C961 C 0.20593 0.20872 0.25605 0.0
C962 C 0.22163 0.22052 0.2526 0.0
C963 C 0.20633 0.20054 0.27224 0.0
C964 C 0.22235 0.20345 0.28404 0.0
H965 H 0.19656 0.22669 0.19467 0.0
H966 H 0.17911 0.20876 0.21604 0.0
H967 H 0.17836 0.19593 0.24542 0.0
O968 O 0.27022 0.22004 0.26151 0.0
O969 O 0.24105 0.25863 0.26347 0.0
O970 O 0.25629 0.27933 0.28833 0.0
O971 O 0.26183 0.22458 0.23316 0.0
O972 O 0.26259 0.24659 0.2864 0.0
O973 O 0.28623 0.27064 0.2969 0.0
O974 O 0.27311 0.31454 0.27259 0.0
O975 O 0.30015 0.28118 0.26275 0.0
O976 O 0.29073 0.25109 0.26443 0.0
O977 O 0.27947 0.31101 0.30165 0.0
O978 O 0.2648 0.28656 0.25366 0.0
O979 O 0.2722 0.26261 0.23874 0.0
C980 C 0.24119 0.27041 0.27814 0.0
C981 C 0.27147 0.19726 0.23649 0.0
C982 C 0.28527 0.17263 0.24102 0.0
C983 C 0.28041 0.16591 0.22218 0.0
C984 C 0.26646 0.19043 0.21763 0.0
C985 C 0.27088 0.17475 0.21055 0.0
C986 C 0.28069 0.18817 0.24821 0.0
C987 C 0.2752 0.25573 0.29939 0.0
C988 C 0.26764 0.2141 0.24385 0.0
C989 C 0.19095 0.21226 0.22625 0.0
C990 C 0.19053 0.20493 0.24297 0.0
C991 C 0.30306 0.26496 0.2612 0.0
C992 C 0.27001 0.33784 0.29633 0.0
C993 C 0.25559 0.36175 0.29048 0.0
C994 C 0.26067 0.3694 0.30907 0.0
C995 C 0.27513 0.34556 0.31493 0.0
C996 C 0.26037 0.34609 0.28404 0.0
C997 C 0.2705 0.36134 0.32123 0.0
C998 C 0.26847 0.27827 0.23851 0.0
C999 C 0.27437 0.321 0.28999 0.0
H1000 H 0.28403 0.15389 0.21653 0.0
H1001 H 0.25925 0.19726 0.20836 0.0
H1002 H 0.26709 0.16955 0.19601 0.0
H1003 H 0.28479 0.19339 0.26276 0.0
H1004 H 0.25695 0.38156 0.31413 0.0
H1005 H 0.28266 0.3394 0.32462 0.0
H1006 H 0.25622 0.34018 0.26968 0.0
H1007 H 0.27442 0.36725 0.33557 0.0
Tb1008 Tb 0.54286 0.49928 0.03473 0.0
C1009 C 0.52118 0.56146 0.07922 0.0
N1010 N 0.51293 0.55128 0.06304 0.0
C1011 C 0.48459 0.54813 0.07469 0.0
C1012 C 0.5115 0.56485 0.094 0.0
C1013 C 0.49466 0.54568 0.06022 0.0
C1014 C 0.49308 0.5575 0.09177 0.0
C1015 C 0.54778 0.58205 0.09602 0.0
C1016 C 0.53913 0.56986 0.08038 0.0
C1017 C 0.53839 0.58484 0.11109 0.0
C1018 C 0.52031 0.57617 0.11012 0.0
Tb1019 Tb 0.53144 0.54806 0.04092 0.0
N1020 N 0.54791 0.56669 0.06567 0.0
C1021 C 0.56543 0.59147 0.09576 0.0
C1022 C 0.56463 0.5767 0.06474 0.0
C1023 C 0.57379 0.58897 0.07992 0.0
H1024 H 0.48758 0.53964 0.04676 0.0
H1025 H 0.58719 0.59662 0.07933 0.0
H1026 H 0.58633 0.50805 0.02865 0.0
H1027 H 0.48396 0.45708 0.99297 0.0
H1028 H 0.57078 0.57514 0.05225 0.0
H1029 H 0.57251 0.60105 0.10747 0.0
H1030 H 0.50066 0.47701 0.02057 0.0
H1031 H 0.47021 0.54321 0.07248 0.0
H1032 H 0.54483 0.59402 0.12334 0.0
H1033 H 0.51309 0.57885 0.12164 0.0
H1034 H 0.60392 0.50182 0.00375 0.0
H1035 H 0.48517 0.55973 0.1028 0.0
H1036 H 0.49981 0.44874 0.96691 0.0
N1037 N 0.56125 0.49418 0.01323 0.0
C1038 C 0.553 0.48304 0.99762 0.0
C1039 C 0.58958 0.4966 0.00177 0.0
C1040 C 0.56274 0.47864 0.98323 0.0
C1041 C 0.57942 0.5004 0.01577 0.0
C1042 C 0.5812 0.48579 0.98537 0.0
N1043 N 0.52563 0.48081 0.01002 0.0
C1044 C 0.50769 0.47396 0.00917 0.0
C1045 C 0.52568 0.46442 0.98007 0.0
C1046 C 0.53468 0.47598 0.99606 0.0
C1047 C 0.50721 0.45768 0.97895 0.0
C1048 C 0.49821 0.46243 0.9936 0.0
H1049 H 0.58914 0.48278 0.97461 0.0
H1050 H 0.56108 0.46364 0.95608 0.0
H1051 H 0.52865 0.45119 0.95332 0.0
O1052 O 0.5353 0.47286 0.04113 0.0
O1053 O 0.53592 0.51132 0.00912 0.0
O1054 O 0.51685 0.52934 0.01704 0.0
O1055 O 0.56201 0.48931 0.05034 0.0
O1056 O 0.51801 0.50037 0.04617 0.0
O1057 O 0.50818 0.52457 0.03602 0.0
O1058 O 0.54047 0.56609 0.02195 0.0
O1059 O 0.5492 0.54125 0.06357 0.0
O1060 O 0.53732 0.51152 0.06126 0.0
O1061 O 0.52022 0.57015 0.03865 0.0
O1062 O 0.55408 0.54342 0.027 0.0
O1063 O 0.56555 0.52252 0.04145 0.0
C1064 C 0.5236 0.52021 0.00451 0.0
C1065 C 0.55703 0.45823 0.05453 0.0
C1066 C 0.55473 0.43229 0.07135 0.0
C1067 C 0.57086 0.4298 0.06558 0.0
C1068 C 0.57306 0.45546 0.04876 0.0
C1069 C 0.57988 0.44123 0.05424 0.0
C1070 C 0.54777 0.44646 0.06567 0.0
C1071 C 0.50534 0.50885 0.04234 0.0
C1072 C 0.55063 0.47428 0.05105 0.0
C1073 C 0.55381 0.46716 0.96727 0.0
C1074 C 0.53534 0.46005 0.9657 0.0
C1075 C 0.54708 0.52624 0.07089 0.0
C1076 C 0.52128 0.58465 0.01165 0.0
C1077 C 0.52227 0.60933 0.99293 0.0
C1078 C 0.50372 0.6035 0.98788 0.0
C1079 C 0.50276 0.57901 0.00612 0.0
C1080 C 0.53107 0.59988 0.00493 0.0
C1081 C 0.49408 0.58845 0.99438 0.0
C1082 C 0.56763 0.53744 0.03395 0.0
C1083 C 0.52997 0.57642 0.02635 0.0
H1084 H 0.57652 0.41904 0.06995 0.0
H1085 H 0.58045 0.46446 0.04037 0.0
H1086 H 0.59235 0.43922 0.04994 0.0
H1087 H 0.53553 0.44871 0.07046 0.0
H1088 H 0.49666 0.61076 0.97896 0.0
H1089 H 0.49491 0.56759 0.01132 0.0
H1090 H 0.54532 0.60458 0.00936 0.0
H1091 H 0.47975 0.58422 0.9905 0.0
Tb1092 Tb 0.78327 0.29647 0.26267 0.0
C1093 C 0.74045 0.22859 0.29692 0.0
N1094 N 0.75565 0.2414 0.30333 0.0
C1095 C 0.74694 0.24277 0.33401 0.0
C1096 C 0.72771 0.22275 0.30881 0.0
C1097 C 0.75931 0.248 0.32181 0.0
C1098 C 0.73101 0.23023 0.32747 0.0
C1099 C 0.72271 0.20691 0.27165 0.0
C1100 C 0.73797 0.22065 0.27855 0.0
C1101 C 0.70984 0.20141 0.28337 0.0
C1102 C 0.71234 0.2093 0.30189 0.0
Tb1103 Tb 0.77517 0.24691 0.28193 0.0
N1104 N 0.75061 0.22631 0.26747 0.0
C1105 C 0.72099 0.19891 0.25326 0.0
C1106 C 0.7494 0.21802 0.24982 0.0
C1107 C 0.73447 0.20441 0.24234 0.0
H1108 H 0.77199 0.25678 0.32758 0.0
H1109 H 0.73351 0.19799 0.22826 0.0
H1110 H 0.78558 0.28526 0.21667 0.0
H1111 H 0.82747 0.34312 0.31622 0.0
H1112 H 0.76007 0.22156 0.24168 0.0
H1113 H 0.70949 0.18829 0.24746 0.0
H1114 H 0.80006 0.32037 0.30332 0.0
H1115 H 0.7499 0.24813 0.34857 0.0
H1116 H 0.69803 0.19089 0.27832 0.0
H1117 H 0.70243 0.20469 0.31084 0.0
H1118 H 0.80765 0.29274 0.19549 0.0
H1119 H 0.72158 0.22604 0.33704 0.0
H1120 H 0.85077 0.35252 0.29613 0.0
N1121 N 0.80243 0.30032 0.2408 0.0
C1122 C 0.81791 0.31287 0.24701 0.0
C1123 C 0.81083 0.29824 0.21 0.0
C1124 C 0.83054 0.31829 0.23486 0.0
C1125 C 0.79849 0.29357 0.22236 0.0
C1126 C 0.82696 0.31055 0.21629 0.0
N1127 N 0.80865 0.31545 0.27709 0.0
C1128 C 0.81057 0.32359 0.29488 0.0
C1129 C 0.83649 0.33437 0.27204 0.0
C1130 C 0.8209 0.32095 0.26548 0.0
C1131 C 0.83897 0.34216 0.29059 0.0
C1132 C 0.82591 0.3368 0.30202 0.0
H1133 H 0.83633 0.31439 0.20656 0.0
H1134 H 0.85588 0.33593 0.23227 0.0
H1135 H 0.86109 0.34993 0.26473 0.0
O1136 O 0.77438 0.3194 0.27252 0.0
O1137 O 0.80786 0.28828 0.27501 0.0
O1138 O 0.80206 0.2639 0.29194 0.0
O1139 O 0.77884 0.31411 0.24407 0.0
O1140 O 0.76995 0.28888 0.28627 0.0
O1141 O 0.78246 0.27017 0.30251 0.0
O1142 O 0.7868 0.22549 0.27175 0.0
O1143 O 0.75031 0.25362 0.26874 0.0
O1144 O 0.75482 0.28164 0.25765 0.0
O1145 O 0.78225 0.23065 0.30063 0.0
O1146 O 0.7876 0.25623 0.25844 0.0
O1147 O 0.77389 0.2736 0.24194 0.0
C1148 C 0.81318 0.27721 0.28608 0.0
C1149 C 0.75846 0.33211 0.24938 0.0
C1150 C 0.741 0.35453 0.25349 0.0
C1151 C 0.73401 0.35063 0.23464 0.0
C1152 C 0.75105 0.32822 0.23052 0.0
C1153 C 0.73895 0.33747 0.22326 0.0
C1154 C 0.75323 0.34528 0.26089 0.0
C1155 C 0.77787 0.28531 0.30151 0.0
C1156 C 0.77364 0.32473 0.25614 0.0
C1157 C 0.84611 0.33159 0.24145 0.0
C1158 C 0.84905 0.33961 0.25994 0.0
C1159 C 0.7444 0.26639 0.26086 0.0
C1160 C 0.79459 0.2053 0.29412 0.0
C1161 C 0.81262 0.18327 0.2908 0.0
C1162 C 0.80857 0.17805 0.308 0.0
C1163 C 0.79062 0.19964 0.31126 0.0
C1164 C 0.80548 0.19685 0.28368 0.0
C1165 C 0.79757 0.18613 0.3181 0.0
C1166 C 0.7786 0.25857 0.24321 0.0
C1167 C 0.78804 0.22073 0.2884 0.0
H1168 H 0.72481 0.35792 0.2287 0.0
H1169 H 0.75502 0.31844 0.22116 0.0
H1170 H 0.73362 0.33465 0.20868 0.0
H1171 H 0.75913 0.34878 0.2753 0.0
H1172 H 0.81398 0.16763 0.31364 0.0
H1173 H 0.78226 0.20581 0.31958 0.0
H1174 H 0.8088 0.20112 0.27055 0.0
H1175 H 0.79454 0.18202 0.33136 0.0
Tb1176 Tb 0.0238 0.54392 0.51589 0.0
C1177 C 0.05799 0.50762 0.58903 0.0
N1178 N 0.04443 0.50023 0.57517 0.0
C1179 C 0.05467 0.47308 0.57256 0.0
C1180 C 0.07088 0.49825 0.59471 0.0
C1181 C 0.04239 0.48302 0.56716 0.0
C1182 C 0.06909 0.48079 0.58624 0.0
C1183 C 0.07334 0.53328 0.61123 0.0
C1184 C 0.05908 0.52476 0.59734 0.0
C1185 C 0.08644 0.52416 0.61669 0.0
C1186 C 0.08516 0.50665 0.60851 0.0
Tb1187 Tb 0.02627 0.5183 0.56617 0.0
N1188 N 0.0466 0.53342 0.59103 0.0
C1189 C 0.07414 0.55077 0.61899 0.0
C1190 C 0.04686 0.55019 0.59927 0.0
C1191 C 0.06071 0.55917 0.61314 0.0
H1192 H 0.03124 0.47683 0.55664 0.0
H1193 H 0.06102 0.57259 0.61928 0.0
H1194 H 0.01828 0.58471 0.52638 0.0
H1195 H 0.9911 0.49252 0.45876 0.0
H1196 H 0.03659 0.55689 0.59528 0.0
H1197 H 0.08494 0.55783 0.62961 0.0
H1198 H 0.01629 0.50881 0.48168 0.0
H1199 H 0.05304 0.4595 0.56608 0.0
H1200 H 0.09758 0.53052 0.62723 0.0
H1201 H 0.09532 0.49975 0.61291 0.0
H1202 H 0.9952 0.60139 0.51935 0.0
H1203 H 0.07868 0.47312 0.59024 0.0
H1204 H 0.96437 0.50479 0.45288 0.0
N1205 N 1.00457 0.56132 0.50826 0.0
C1206 C 0.99021 0.55363 0.49549 0.0
C1207 C 0.99356 0.5879 0.51262 0.0
C1208 C 0.97655 0.56251 0.49119 0.0
C1209 C 0.0066 0.57837 0.51661 0.0
C1210 C 0.97834 0.57986 0.50002 0.0
N1211 N 1.00337 0.52928 0.49079 0.0
C1212 C 1.00449 0.51402 0.48018 0.0
C1213 C 0.97496 0.52834 0.47297 0.0
C1214 C 0.98947 0.53687 0.48657 0.0
C1215 C 0.97529 0.51185 0.46337 0.0
C1216 C 0.99032 0.50487 0.46671 0.0
H1217 H 0.96819 0.58721 0.49705 0.0
H1218 H 0.95093 0.56034 0.47483 0.0
H1219 H 0.94949 0.5303 0.45889 0.0
O1220 O 0.04384 0.54224 0.49924 0.0
O1221 O 0.9982 0.53552 0.52608 0.0
O1222 O 0.00894 0.51531 0.54033 0.0
O1223 O 0.04079 0.56785 0.51109 0.0
O1224 O 0.02863 0.51643 0.51245 0.0
O1225 O 0.02851 0.50169 0.53964 0.0
O1226 O 0.0067 0.52092 0.58347 0.0
O1227 O 0.05285 0.53317 0.5631 0.0
O1228 O 0.03586 0.53644 0.53958 0.0
O1229 O 0.01086 0.49506 0.57391 0.0
O1230 O 0.01842 0.54454 0.56695 0.0
O1231 O 0.02804 0.56144 0.5429 0.0
C1232 C 0.99628 0.52362 0.5376 0.0
C1233 C 0.05171 0.56596 0.48191 0.0
C1234 C 0.06058 0.56129 0.45123 0.0
C1235 C 0.05852 0.57835 0.44808 0.0
C1236 C 0.04993 0.58313 0.47876 0.0
C1237 C 0.0533 0.58924 0.46186 0.0
C1238 C 0.05725 0.55518 0.46811 0.0
C1239 C 0.03008 0.50258 0.52158 0.0
C1240 C 0.04906 0.55946 0.49981 0.0
C1241 C 0.9617 0.55385 0.47817 0.0
C1242 C 0.96087 0.53674 0.46912 0.0
C1243 C 0.05187 0.5398 0.54785 0.0
C1244 C 1.00047 0.49857 0.60302 0.0
C1245 C 0.98737 0.50157 0.6315 0.0
C1246 C 0.99407 0.48739 0.63744 0.0
C1247 C 0.00723 0.48437 0.60904 0.0
C1248 C 0.99048 0.5071 0.61433 0.0
C1249 C 1.00398 0.47882 0.6262 0.0
C1250 C 0.02201 0.55969 0.55929 0.0
C1251 C 1.00241 0.50386 0.58452 0.0
H1252 H 0.06154 0.58345 0.43522 0.0
H1253 H 0.04612 0.59187 0.48938 0.0
H1254 H 0.0521 0.60253 0.45953 0.0
H1255 H 0.05926 0.54213 0.47055 0.0
H1256 H 0.99144 0.48287 0.65065 0.0
H1257 H 0.0148 0.4774 0.60044 0.0
H1258 H 0.98491 0.51786 0.6097 0.0
H1259 H 0.00902 0.46777 0.63073 0.0
Tb1260 Tb 0.79884 0.76237 0.28486 0.0
C1261 C 0.73494 0.78598 0.24203 0.0
N1262 N 0.74641 0.79454 0.25727 0.0
C1263 C 0.74964 0.82222 0.24445 0.0
C1264 C 0.73056 0.79521 0.22722 0.0
C1265 C 0.75349 0.81252 0.25885 0.0
C1266 C 0.73819 0.81353 0.22853 0.0
C1267 C 0.71574 0.75841 0.22573 0.0
C1268 C 0.72777 0.76778 0.24121 0.0
C1269 C 0.71128 0.76756 0.21094 0.0
C1270 C 0.71873 0.78589 0.21165 0.0
Tb1271 Tb 0.75167 0.77707 0.27957 0.0
N1272 N 0.73293 0.75924 0.25548 0.0
C1273 C 0.7085 0.74017 0.22567 0.0
C1274 C 0.72526 0.7417 0.2559 0.0
C1275 C 0.71313 0.73183 0.24093 0.0
H1276 H 0.76176 0.81957 0.27135 0.0
H1277 H 0.70718 0.71785 0.24127 0.0
H1278 H 0.78862 0.72033 0.2944 0.0
H1279 H 0.84579 0.82161 0.32018 0.0
H1280 H 0.72802 0.7354 0.26795 0.0
H1281 H 0.6991 0.73249 0.2141 0.0
H1282 H 0.8236 0.8039 0.29476 0.0
H1283 H 0.75535 0.83644 0.24574 0.0
H1284 H 0.70209 0.76058 0.19889 0.0
H1285 H 0.71519 0.79276 0.20013 0.0
H1286 H 0.79642 0.70385 0.31988 0.0
H1287 H 0.73518 0.82111 0.21743 0.0
H1288 H 0.85497 0.80746 0.3473 0.0
N1289 N 0.80478 0.74543 0.30745 0.0
C1290 C 0.81701 0.75413 0.32207 0.0
C1291 C 0.80218 0.71803 0.32075 0.0
C1292 C 0.82214 0.74513 0.33678 0.0
C1293 C 0.79756 0.72752 0.30644 0.0
C1294 C 0.81446 0.72688 0.33603 0.0
N1295 N 0.81878 0.78047 0.30796 0.0
C1296 C 0.82672 0.79782 0.30683 0.0
C1297 C 0.83741 0.78164 0.33694 0.0
C1298 C 0.82443 0.77218 0.32222 0.0
C1299 C 0.84494 0.79971 0.33629 0.0
C1300 C 0.83969 0.80778 0.32107 0.0
H1301 H 0.81807 0.71946 0.34704 0.0
H1302 H 0.83889 0.74788 0.36312 0.0
H1303 H 0.85231 0.77984 0.36322 0.0
O1304 O 0.8201 0.77074 0.26869 0.0
O1305 O 0.78896 0.77072 0.31112 0.0
O1306 O 0.77047 0.78958 0.30411 0.0
O1307 O 0.81418 0.74437 0.27778 0.0
O1308 O 0.79685 0.7861 0.27137 0.0
O1309 O 0.77617 0.79853 0.28534 0.0
O1310 O 0.72938 0.76803 0.29446 0.0
O1311 O 0.76262 0.76952 0.25347 0.0
O1312 O 0.77899 0.74936 0.26123 0.0
O1313 O 0.73585 0.7947 0.28642 0.0
O1314 O 0.75324 0.75319 0.29315 0.0
O1315 O 0.77434 0.74111 0.2795 0.0
C1316 C 0.77927 0.78206 0.31608 0.0
C1317 C 0.83843 0.74956 0.25927 0.0
C1318 C 0.86544 0.75537 0.24399 0.0
C1319 C 0.86494 0.73702 0.24211 0.0
C1320 C 0.83832 0.73126 0.25708 0.0
C1321 C 0.85145 0.72509 0.24854 0.0
C1322 C 0.85201 0.76171 0.25247 0.0
C1323 C 0.79062 0.79998 0.27691 0.0
C1324 C 0.82418 0.75527 0.26872 0.0
C1325 C 0.83481 0.75457 0.35166 0.0
C1326 C 0.84245 0.77277 0.35172 0.0
C1327 C 0.77132 0.7572 0.24868 0.0
C1328 C 0.70969 0.78861 0.30248 0.0
C1329 C 0.68464 0.78458 0.32119 0.0
C1330 C 0.6814 0.80085 0.31666 0.0
C1331 C 0.70579 0.80481 0.29832 0.0
C1332 C 0.69888 0.7783 0.31399 0.0
C1333 C 0.69183 0.81081 0.30532 0.0
C1334 C 0.76029 0.73964 0.28847 0.0
C1335 C 0.72515 0.78343 0.29451 0.0
H1336 H 0.87505 0.73189 0.23554 0.0
H1337 H 0.82802 0.7216 0.26196 0.0
H1338 H 0.85119 0.71097 0.24695 0.0
H1339 H 0.85232 0.77586 0.25401 0.0
H1340 H 0.67061 0.8059 0.32193 0.0
H1341 H 0.71358 0.81301 0.28953 0.0
H1342 H 0.7016 0.76579 0.31744 0.0
H1343 H 0.68909 0.82332 0.30195 0.0
Tb1344 Tb 0.76685 0.2776 0.80234 0.0
C1345 C 0.80347 0.2428 0.73245 0.0
N1346 N 0.81031 0.25622 0.74666 0.0
C1347 C 0.83702 0.24536 0.75122 0.0
C1348 C 0.81289 0.22974 0.72756 0.0
C1349 C 0.82709 0.2579 0.75573 0.0
C1350 C 0.82984 0.23113 0.73721 0.0
C1351 C 0.77885 0.22796 0.70867 0.0
C1352 C 0.78676 0.242 0.72297 0.0
C1353 C 0.7881 0.21479 0.7039 0.0
C1354 C 0.80511 0.21571 0.71328 0.0
Tb1355 Tb 0.79265 0.27571 0.75285 0.0
N1356 N 0.77784 0.25451 0.72864 0.0
C1357 C 0.76181 0.22747 0.69974 0.0
C1358 C 0.76163 0.25462 0.71924 0.0
C1359 C 0.75326 0.24099 0.70492 0.0
H1360 H 0.83316 0.26912 0.76616 0.0
H1361 H 0.74026 0.24098 0.69779 0.0
H1362 H 0.7261 0.2831 0.79162 0.0
H1363 H 0.82054 0.31273 0.85634 0.0
H1364 H 0.75507 0.26523 0.72245 0.0
H1365 H 0.75524 0.21687 0.68872 0.0
H1366 H 0.80492 0.28781 0.8331 0.0
H1367 H 0.85027 0.24675 0.75851 0.0
H1368 H 0.78222 0.20384 0.69299 0.0
H1369 H 0.81211 0.20548 0.70942 0.0
H1370 H 0.70877 0.30525 0.79986 0.0
H1371 H 0.83755 0.22139 0.73383 0.0
H1372 H 0.80639 0.33763 0.86469 0.0
N1373 N 0.74932 0.29656 0.81026 0.0
C1374 C 0.7568 0.31062 0.82342 0.0
C1375 C 0.72231 0.30697 0.80655 0.0
C1376 C 0.74746 0.32372 0.82844 0.0
C1377 C 0.73222 0.29445 0.80189 0.0
C1378 C 0.73 0.32175 0.8198 0.0
N1379 N 0.78223 0.2987 0.82654 0.0
C1380 C 0.79858 0.29866 0.83574 0.0
C1381 C 0.78232 0.32626 0.8455 0.0
C1382 C 0.77393 0.31182 0.83176 0.0
C1383 C 0.79945 0.32675 0.8541 0.0
C1384 C 0.8075 0.31276 0.84937 0.0
H1385 H 0.72233 0.33149 0.82331 0.0
H1386 H 0.74895 0.3486 0.84583 0.0
H1387 H 0.77955 0.35085 0.86078 0.0
O1388 O 0.76803 0.25845 0.82018 0.0
O1389 O 0.7739 0.30276 0.79153 0.0
O1390 O 0.79644 0.29527 0.77762 0.0
O1391 O 0.74268 0.2604 0.8063 0.0
O1392 O 0.79341 0.27038 0.80507 0.0
O1393 O 0.81011 0.27866 0.78044 0.0
O1394 O 0.78963 0.29371 0.7338 0.0
O1395 O 0.77852 0.2491 0.75634 0.0
O1396 O 0.7755 0.26665 0.7792 0.0
O1397 O 0.81549 0.28736 0.74117 0.0
O1398 O 0.76593 0.28291 0.75143 0.0
O1399 O 0.74907 0.27293 0.77543 0.0
C1400 C 0.78624 0.30643 0.7806 0.0
C1401 C 0.74379 0.25178 0.83657 0.0
C1402 C 0.74654 0.24155 0.86672 0.0
C1403 C 0.73346 0.25033 0.87209 0.0
C1404 C 0.73059 0.26047 0.84187 0.0
C1405 C 0.72541 0.25963 0.8596 0.0
C1406 C 0.7515 0.24218 0.84896 0.0
C1407 C 0.80854 0.27323 0.79725 0.0
C1408 C 0.75074 0.25306 0.81879 0.0
C1409 C 0.75585 0.33831 0.84186 0.0
C1410 C 0.77327 0.3396 0.85035 0.0
C1411 C 0.77216 0.25047 0.77156 0.0
C1412 C 0.81423 0.30786 0.71852 0.0
C1413 C 0.8108 0.32161 0.69059 0.0
C1414 C 0.82943 0.32772 0.69199 0.0
C1415 C 0.83286 0.31405 0.71997 0.0
C1416 C 0.80318 0.31194 0.70397 0.0
C1417 C 0.84041 0.32406 0.70676 0.0
C1418 C 0.75074 0.2788 0.75899 0.0
C1419 C 0.80634 0.29602 0.7312 0.0
H1420 H 0.72929 0.24972 0.88577 0.0
H1421 H 0.72446 0.268 0.83247 0.0
H1422 H 0.71521 0.26626 0.86371 0.0
H1423 H 0.76172 0.23547 0.8449 0.0
H1424 H 0.83543 0.33535 0.68168 0.0
H1425 H 0.84156 0.31098 0.73115 0.0
H1426 H 0.78877 0.30705 0.70261 0.0
H1427 H 0.85477 0.32879 0.70783 0.0
Tb1428 Tb 0.75738 0.74785 0.76354 0.0
C1429 C 0.81817 0.81645 0.80816 0.0
N1430 N 0.80284 0.80605 0.8123 0.0
C1431 C 0.81512 0.81051 0.84452 0.0
C1432 C 0.83272 0.82405 0.82206 0.0
C1433 C 0.80103 0.80328 0.83031 0.0
C1434 C 0.83107 0.82086 0.84038 0.0
C1435 C 0.83465 0.83099 0.78523 0.0
C1436 C 0.81909 0.82001 0.79002 0.0
C1437 C 0.8493 0.83825 0.79895 0.0
C1438 C 0.84832 0.83484 0.81732 0.0
Tb1439 Tb 0.78038 0.79647 0.78792 0.0
N1440 N 0.80465 0.81284 0.77707 0.0
C1441 C 0.83496 0.83453 0.76685 0.0
C1442 C 0.80462 0.81705 0.75936 0.0
C1443 C 0.81981 0.82762 0.75388 0.0
H1444 H 0.78851 0.79581 0.83377 0.0
H1445 H 0.81971 0.83063 0.73973 0.0
H1446 H 0.75107 0.75186 0.71784 0.0
H1447 H 0.71671 0.70368 0.80275 0.0
H1448 H 0.7929 0.81247 0.74951 0.0
H1449 H 0.84668 0.84284 0.76261 0.0
H1450 H 0.74455 0.72227 0.79547 0.0
H1451 H 0.81358 0.80827 0.85871 0.0
H1452 H 0.86137 0.8467 0.79553 0.0
H1453 H 0.85963 0.84075 0.82781 0.0
H1454 H 0.72588 0.74574 0.69307 0.0
H1455 H 0.84191 0.82655 0.85145 0.0
H1456 H 0.68877 0.69921 0.78125 0.0
N1457 N 0.73524 0.74297 0.73879 0.0
C1458 C 0.71885 0.73388 0.74204 0.0
C1459 C 0.72364 0.74265 0.70688 0.0
C1460 C 0.70418 0.72914 0.72783 0.0
C1461 C 0.73791 0.74663 0.72123 0.0
C1462 C 0.70665 0.73408 0.71024 0.0
N1463 N 0.7321 0.73093 0.7718 0.0
C1464 C 0.73222 0.72174 0.78681 0.0
C1465 C 0.70118 0.71619 0.76215 0.0
C1466 C 0.71729 0.72757 0.75907 0.0
C1467 C 0.70083 0.70816 0.77846 0.0
C1468 C 0.71654 0.71068 0.79067 0.0
H1469 H 0.69574 0.73061 0.69895 0.0
H1470 H 0.67642 0.71498 0.7205 0.0
H1471 H 0.67385 0.70356 0.75051 0.0
O1472 O 0.76946 0.72807 0.77294 0.0
O1473 O 0.7385 0.76488 0.77049 0.0
O1474 O 0.75397 0.78424 0.79606 0.0
O1475 O 0.75292 0.72382 0.74611 0.0
O1476 O 0.75988 0.75244 0.7939 0.0
O1477 O 0.78489 0.77487 0.8039 0.0
O1478 O 0.77425 0.82028 0.78038 0.0
O1479 O 0.80036 0.78485 0.77477 0.0
O1480 O 0.78673 0.7557 0.76124 0.0
O1481 O 0.77533 0.81422 0.80917 0.0
O1482 O 0.7636 0.7915 0.76072 0.0
O1483 O 0.76901 0.76657 0.74535 0.0
C1484 C 0.73874 0.776 0.78566 0.0
C1485 C 0.77473 0.70713 0.7495 0.0
C1486 C 0.79051 0.68384 0.75276 0.0
C1487 C 0.79247 0.68263 0.73384 0.0
C1488 C 0.77696 0.70627 0.73057 0.0
C1489 C 0.78586 0.69402 0.72281 0.0
C1490 C 0.78182 0.69611 0.76057 0.0
C1491 C 0.77344 0.76034 0.80647 0.0
C1492 C 0.76298 0.71725 0.75759 0.0
C1493 C 0.68781 0.71873 0.73127 0.0
C1494 C 0.68633 0.71224 0.74837 0.0
C1495 C 0.80104 0.76925 0.76598 0.0
C1496 C 0.76948 0.84262 0.80406 0.0
C1497 C 0.75485 0.86633 0.79831 0.0
C1498 C 0.7604 0.87429 0.81676 0.0
C1499 C 0.77509 0.85057 0.82251 0.0
C1500 C 0.75962 0.8507 0.79187 0.0
C1501 C 0.77065 0.86647 0.82878 0.0
C1502 C 0.76682 0.78288 0.74548 0.0
C1503 C 0.7733 0.8256 0.79772 0.0
H1504 H 0.79901 0.67287 0.72768 0.0
H1505 H 0.7714 0.71461 0.72169 0.0
H1506 H 0.7873 0.69309 0.70818 0.0
H1507 H 0.77987 0.69649 0.77512 0.0
H1508 H 0.75676 0.88649 0.82181 0.0
H1509 H 0.78285 0.84447 0.83205 0.0
H1510 H 0.75507 0.84451 0.77765 0.0
H1511 H 0.77496 0.8726 0.843 0.0
Tb1512 Tb 0.55948 0.54197 0.55714 0.0
C1513 C 0.49552 0.48188 0.51245 0.0
N1514 N 0.50565 0.49759 0.5088 0.0
C1515 C 0.50677 0.48419 0.47788 0.0
C1516 C 0.49109 0.46656 0.49905 0.0
C1517 C 0.5107 0.49905 0.49151 0.0
C1518 C 0.49714 0.46781 0.48174 0.0
C1519 C 0.47687 0.46576 0.53287 0.0
C1520 C 0.48851 0.48146 0.52921 0.0
C1521 C 0.47312 0.45029 0.5199 0.0
C1522 C 0.48021 0.4507 0.50303 0.0
Tb1523 Tb 0.51087 0.5207 0.53248 0.0
N1524 N 0.49201 0.49675 0.54128 0.0
C1525 C 0.46867 0.46629 0.54905 0.0
C1526 C 0.48278 0.49768 0.55624 0.0
C1527 C 0.4714 0.48241 0.56061 0.0
H1528 H 0.51709 0.51172 0.48773 0.0
H1529 H 0.46449 0.48318 0.57272 0.0
H1530 H 0.55687 0.55108 0.60269 0.0
H1531 H 0.5977 0.57981 0.51066 0.0
H1532 H 0.48398 0.51022 0.56482 0.0
H1533 H 0.45962 0.45453 0.55231 0.0
H1534 H 0.57918 0.55299 0.52037 0.0
H1535 H 0.51088 0.48548 0.46426 0.0
H1536 H 0.46429 0.43811 0.52253 0.0
H1537 H 0.47674 0.4388 0.49293 0.0
H1538 H 0.56786 0.57666 0.62717 0.0
H1539 H 0.49391 0.45638 0.47104 0.0
H1540 H 0.60726 0.60775 0.53257 0.0
N1541 N 0.56709 0.56521 0.58102 0.0
C1542 C 0.57749 0.58055 0.57691 0.0
C1543 C 0.57043 0.57804 0.61304 0.0
C1544 C 0.58438 0.5954 0.59066 0.0
C1545 C 0.56396 0.56365 0.59901 0.0
C1546 C 0.58057 0.59403 0.60883 0.0
N1547 N 0.57655 0.56602 0.54664 0.0
C1548 C 0.58265 0.56525 0.52971 0.0
C1549 C 0.59356 0.59644 0.55452 0.0
C1550 C 0.58227 0.581 0.55914 0.0
C1551 C 0.59871 0.59612 0.53669 0.0
C1552 C 0.59335 0.58038 0.52428 0.0
H1553 H 0.58577 0.60508 0.6198 0.0
H1554 H 0.60075 0.62244 0.5964 0.0
H1555 H 0.60856 0.62344 0.56468 0.0
O1556 O 0.58373 0.53525 0.55145 0.0
O1557 O 0.54921 0.5597 0.53903 0.0
O1558 O 0.51898 0.55049 0.53972 0.0
O1559 O 0.5765 0.53801 0.57961 0.0
O1560 O 0.55539 0.52542 0.52983 0.0
O1561 O 0.53053 0.53162 0.51476 0.0
O1562 O 0.48955 0.53173 0.53953 0.0
O1563 O 0.52724 0.50084 0.53774 0.0
O1564 O 0.54722 0.51477 0.56355 0.0
O1565 O 0.49074 0.52076 0.51084 0.0
O1566 O 0.51529 0.52078 0.5624 0.0
O1567 O 0.53724 0.54598 0.5727 0.0
C1568 C 0.53301 0.56251 0.53646 0.0
C1569 C 0.6053 0.53208 0.57702 0.0
C1570 C 0.63043 0.5187 0.57382 0.0
C1571 C 0.63744 0.52545 0.59236 0.0
C1572 C 0.61231 0.53878 0.59555 0.0
C1573 C 0.62841 0.53552 0.60314 0.0
C1574 C 0.61446 0.52222 0.56614 0.0
C1575 C 0.54648 0.5284 0.51456 0.0
C1576 C 0.58843 0.53537 0.56912 0.0
C1577 C 0.59537 0.61091 0.58602 0.0
C1578 C 0.59985 0.61148 0.56797 0.0
C1579 C 0.53846 0.50008 0.55252 0.0
C1580 C 0.46494 0.53254 0.51639 0.0
C1581 C 0.44147 0.54746 0.52287 0.0
C1582 C 0.43338 0.54236 0.50443 0.0
C1583 C 0.45672 0.52733 0.49797 0.0
C1584 C 0.45714 0.54247 0.52892 0.0
C1585 C 0.44095 0.53222 0.49206 0.0
C1586 C 0.52314 0.53394 0.57532 0.0
C1587 C 0.48191 0.52817 0.52235 0.0
H1588 H 0.64991 0.52298 0.59845 0.0
H1589 H 0.60541 0.54659 0.60411 0.0
H1590 H 0.63384 0.54073 0.61739 0.0
H1591 H 0.60892 0.51685 0.55189 0.0
H1592 H 0.42123 0.54627 0.49965 0.0
H1593 H 0.46253 0.51962 0.48811 0.0
H1594 H 0.46338 0.54667 0.54316 0.0
H1595 H 0.43469 0.52829 0.47784 0.0
Tb1596 Tb 1.00289 0.52329 0.05979 0.0
C1597 C 0.07035 0.56495 0.02572 0.0
N1598 N 0.05748 0.54976 0.01942 0.0
C1599 C 0.05467 0.55914 0.9891 0.0
C1600 C 0.07534 0.5781 0.014 0.0
C1601 C 0.05022 0.5464 0.00111 0.0
C1602 C 0.06711 0.57513 0.99561 0.0
C1603 C 0.09225 0.58285 0.05079 0.0
C1604 C 0.07885 0.56732 0.04396 0.0
C1605 C 0.09697 0.59602 0.03918 0.0
C1606 C 0.08855 0.59366 0.02087 0.0
Tb1607 Tb 0.05285 0.53029 0.04093 0.0
N1608 N 0.07368 0.55459 0.05512 0.0
C1609 C 0.10051 0.58467 0.06911 0.0
C1610 C 0.08226 0.55586 0.07264 0.0
C1611 C 0.09561 0.57103 0.08002 0.0
H1612 H 0.04143 0.53377 0.99528 0.0
H1613 H 0.10231 0.57206 0.09399 0.0
H1614 H 0.01448 0.52137 0.10596 0.0
H1615 H 0.95363 0.47977 0.00816 0.0
H1616 H 0.07929 0.54491 0.08064 0.0
H1617 H 0.11088 0.59639 0.07485 0.0
H1618 H 0.97656 0.50733 0.02064 0.0
H1619 H 0.04872 0.55646 0.97471 0.0
H1620 H 0.1072 0.60807 0.04421 0.0
H1621 H 0.09248 0.60389 0.01206 0.0
H1622 H 0.00781 0.49934 0.12725 0.0
H1623 H 0.07061 0.5849 0.98618 0.0
H1624 H 0.94629 0.45565 0.02782 0.0
N1625 N 0.9998 0.5041 0.08182 0.0
C1626 C 0.98752 0.48836 0.07581 0.0
C1627 C 1.00229 0.49595 0.11275 0.0
C1628 C 0.98259 0.47571 0.08807 0.0
C1629 C 0.00649 0.50831 0.10029 0.0
C1630 C 0.99044 0.47953 0.1066 0.0
N1631 N 0.98335 0.49793 0.04608 0.0
C1632 C 0.97397 0.4965 0.02888 0.0
C1633 C 0.96548 0.46967 0.05128 0.0
C1634 C 0.97886 0.48533 0.05757 0.0
C1635 C 0.95665 0.46751 0.03314 0.0
C1636 C 0.96078 0.48107 0.02197 0.0
H1637 H 0.98694 0.47018 0.11643 0.0
H1638 H 0.96555 0.45012 0.09096 0.0
H1639 H 0.9507 0.44481 0.0588 0.0
O1640 O 0.9819 0.53484 0.04957 0.0
O1641 O 0.00873 0.49912 0.04392 0.0
O1642 O 0.03885 0.50216 0.03973 0.0
O1643 O 0.9835 0.52638 0.07674 0.0
O1644 O 0.01196 0.53545 0.03613 0.0
O1645 O 0.02967 0.52154 0.02016 0.0
O1646 O 0.07624 0.52131 0.05004 0.0
O1647 O 0.04512 0.55549 0.05212 0.0
O1648 O 0.01881 0.55132 0.06659 0.0
O1649 O 0.06683 0.52112 0.02067 0.0
O1650 O 0.04397 0.51937 0.0654 0.0
O1651 O 0.02566 0.53291 0.08072 0.0
C1652 C 0.02241 0.4925 0.03938 0.0
C1653 C 0.96782 0.54877 0.07281 0.0
C1654 C 0.94462 0.56543 0.07075 0.0
C1655 C 0.94931 0.57207 0.08966 0.0
C1656 C 0.97267 0.55592 0.09166 0.0
C1657 C 0.9634 0.56747 0.09999 0.0
C1658 C 0.95395 0.55387 0.0623 0.0
C1659 C 0.01464 0.52636 0.02118 0.0
C1660 C 0.97477 0.53379 0.06494 0.0
C1661 C 0.96949 0.45993 0.08169 0.0
C1662 C 0.96099 0.45691 0.06338 0.0
C1663 C 0.03323 0.56168 0.06143 0.0
C1664 C 0.09378 0.51069 0.02659 0.0
C1665 C 0.11632 0.49314 0.03004 0.0
C1666 C 0.12032 0.49592 0.01212 0.0
C1667 C 0.09821 0.51335 0.00873 0.0
C1668 C 0.10306 0.50066 0.03743 0.0
C1669 C 0.11139 0.50603 0.0016 0.0
C1670 C 0.04117 0.52917 0.07984 0.0
C1671 C 0.0787 0.51758 0.0328 0.0
H1672 H 0.94209 0.58089 0.09638 0.0
H1673 H 0.98318 0.5521 0.10018 0.0
H1674 H 0.96694 0.57262 0.11458 0.0
H1675 H 0.94987 0.54822 0.04787 0.0
H1676 H 0.13047 0.49024 0.00626 0.0
H1677 H 0.09135 0.52102 0.00014 0.0
H1678 H 0.09975 0.49836 0.05117 0.0
H1679 H 0.11459 0.50809 0.98779 0.0
C1680 C 1.00502 0.21465 0.985 0.0
C1681 C 0.00597 0.21666 0.96609 0.0
C1682 C 0.00735 0.19874 0.99221 0.0
C1683 C 0.02185 0.15472 0.97869 0.0
H1684 H 1.00493 0.14269 0.02469 0.0
C1685 C 0.03031 0.08689 0.00515 0.0
C1686 C 0.0254 0.08236 0.02238 0.0
C1687 C 0.02793 0.10297 0.99862 0.0
C1688 C 0.00998 0.14548 0.01182 0.0
H1689 H 0.00988 0.20254 0.94015 0.0
H1690 H 0.01312 0.17548 0.95208 0.0
H1691 H 1.0008 0.16978 0.01333 0.0
H1692 H 0.01466 0.09194 0.04652 0.0
H1693 H 0.0113 0.11993 0.03603 0.0
H1694 H 0.03094 0.13064 0.97688 0.0
C1695 C 0.01123 0.18614 0.96188 0.0
C1696 C 0.00757 0.16154 0.00518 0.0
C1697 C 0.00911 0.20196 0.9548 0.0
C1698 C 0.01841 0.09475 0.03306 0.0
C1699 C 0.01641 0.11107 0.02678 0.0
C1700 C 0.02421 0.13867 0.98527 0.0
C1701 C 0.01061 0.184 0.98084 0.0
C1702 C 0.01337 0.16665 0.98835 0.0
C1703 C 0.02092 0.11572 0.00921 0.0
C1704 C 0.01835 0.1334 0.00208 0.0
H1705 H 1.00263 0.22543 0.99433 0.0
H1706 H 0.00681 0.19824 0.00688 0.0
H1707 H 0.02713 0.15774 0.96596 0.0
H1708 H 0.03573 0.07775 0.99643 0.0
H1709 H 0.03161 0.10505 0.98504 0.0
C1710 C 0.11721 0.80591 0.14845 0.0
C1711 C 0.1004 0.79853 0.15367 0.0
C1712 C 0.13305 0.80444 0.15891 0.0
C1713 C 0.14981 0.77687 0.19239 0.0
H1714 H 0.19058 0.81723 0.20487 0.0
C1715 C 0.20992 0.77512 0.24622 0.0
C1716 C 0.22717 0.78376 0.24311 0.0
C1717 C 0.19471 0.77707 0.2351 0.0
C1718 C 0.17945 0.8057 0.20134 0.0
H1719 H 0.08727 0.78368 0.17404 0.0
H1720 H 0.1146 0.78111 0.19199 0.0
H1721 H 0.16411 0.82025 0.18536 0.0
H1722 H 0.24178 0.80132 0.22574 0.0
H1723 H 0.21548 0.80437 0.20623 0.0
H1724 H 0.1651 0.76223 0.20816 0.0
C1725 C 0.11563 0.78805 0.17987 0.0
C1726 C 0.16422 0.80747 0.19012 0.0
C1727 C 0.0999 0.78975 0.16964 0.0
C1728 C 0.22875 0.79445 0.22862 0.0
C1729 C 0.21358 0.79633 0.21747 0.0
C1730 C 0.16506 0.77506 0.2035 0.0
C1731 C 0.13244 0.79527 0.17463 0.0
C1732 C 0.14911 0.79315 0.18566 0.0
C1733 C 0.1963 0.78764 0.22046 0.0
C1734 C 0.18008 0.78949 0.20831 0.0
H1735 H 0.11812 0.81264 0.13618 0.0
H1736 H 0.14576 0.8101 0.15442 0.0
H1737 H 0.13856 0.76543 0.18898 0.0
H1738 H 0.20813 0.76659 0.25706 0.0
H1739 H 0.18168 0.77033 0.23807 0.0
C1740 C 0.50194 0.82961 0.45793 0.0
C1741 C 0.5091 0.81785 0.46834 0.0
C1742 C 0.50386 0.84772 0.46476 0.0
C1743 C 0.52359 0.88297 0.50796 0.0
H1744 H 0.50571 0.91384 0.47607 0.0
C1745 C 0.53701 0.96045 0.53035 0.0
C1746 C 0.52434 0.96991 0.52425 0.0
C1747 C 0.53509 0.9422 0.5239 0.0
C1748 C 0.51064 0.90551 0.48541 0.0
H1749 H 0.52422 0.81672 0.49462 0.0
H1750 H 0.52781 0.84793 0.5066 0.0
H1751 H 0.50285 0.88309 0.46456 0.0
H1752 H 0.49975 0.9672 0.50599 0.0
H1753 H 0.49628 0.93553 0.49473 0.0
H1754 H 0.53144 0.90595 0.52875 0.0
C1755 C 0.52038 0.84341 0.49298 0.0
C1756 C 0.50904 0.88734 0.47869 0.0
C1757 C 0.51832 0.82511 0.48609 0.0
C1758 C 0.50964 0.9604 0.51135 0.0
C1759 C 0.50782 0.94215 0.50466 0.0
C1760 C 0.52525 0.90118 0.51462 0.0
C1761 C 0.51323 0.85537 0.4825 0.0
C1762 C 0.51533 0.87536 0.48977 0.0
C1763 C 0.52052 0.93259 0.51079 0.0
C1764 C 0.51874 0.9129 0.50355 0.0
H1765 H 0.49473 0.82485 0.44416 0.0
H1766 H 0.49775 0.85545 0.45571 0.0
H1767 H 0.52877 0.87502 0.51749 0.0
H1768 H 0.54856 0.96723 0.54022 0.0
H1769 H 0.54539 0.93577 0.52897 0.0
C1770 C 0.50498 0.26962 0.67174 0.0
C1771 C 0.50851 0.28018 0.65743 0.0
C1772 C 0.48903 0.26806 0.67944 0.0
C1773 C 0.45065 0.2895 0.68406 0.0
H1774 H 0.43211 0.24577 0.70429 0.0
C1775 C 0.38255 0.26906 0.71478 0.0
C1776 C 0.38376 0.26111 0.73117 0.0
C1777 C 0.39772 0.27416 0.70582 0.0
C1778 C 0.43721 0.25812 0.69882 0.0
H1779 H 0.49777 0.29714 0.6397 0.0
H1780 H 0.46957 0.29412 0.65291 0.0
H1781 H 0.45721 0.2476 0.68666 0.0
H1782 H 0.40173 0.25328 0.75172 0.0
H1783 H 0.42825 0.26228 0.7362 0.0
H1784 H 0.42983 0.29957 0.6958 0.0
C1785 C 0.47938 0.28733 0.65848 0.0
C1786 C 0.45169 0.25924 0.68875 0.0
C1787 C 0.49552 0.28902 0.65083 0.0
C1788 C 0.40053 0.25953 0.73919 0.0
C1789 C 0.41563 0.26452 0.73022 0.0
C1790 C 0.43582 0.28822 0.69388 0.0
C1791 C 0.47591 0.27682 0.67294 0.0
C1792 C 0.45904 0.27512 0.68169 0.0
C1793 C 0.41422 0.27115 0.71304 0.0
C1794 C 0.4293 0.27267 0.70179 0.0
H1795 H 0.51462 0.26256 0.67716 0.0
H1796 H 0.48722 0.26018 0.6908 0.0
H1797 H 0.45586 0.30197 0.6789 0.0
H1798 H 0.36966 0.27012 0.70823 0.0
H1799 H 0.39626 0.27918 0.69258 0.0
C1800 C 0.02611 0.81933 0.6676 0.0
C1801 C 0.01801 0.80259 0.65751 0.0
C1802 C 0.02708 0.83491 0.65915 0.0
C1803 C 0.00718 0.85246 0.6182 0.0
H1804 H 0.05077 0.88979 0.62874 0.0
C1805 C 0.02642 0.90873 0.57221 0.0
C1806 C 0.03639 0.92552 0.58085 0.0
C1807 C 0.02159 0.89465 0.58268 0.0
C1808 C 0.03836 0.87965 0.62586 0.0
H1809 H 1.00451 0.78876 0.63089 0.0
H1810 H 0.00583 0.81588 0.61612 0.0
H1811 H 0.048 0.86338 0.64463 0.0
H1812 H 0.04856 0.94104 0.60718 0.0
H1813 H 0.0397 0.91665 0.62562 0.0
H1814 H 0.99778 0.86859 0.59903 0.0
C1815 C 0.0114 0.81716 0.63056 0.0
C1816 C 0.03677 0.86445 0.63499 0.0
C1817 C 0.01069 0.8016 0.63895 0.0
C1818 C 0.0405 0.92832 0.60026 0.0
C1819 C 0.03571 0.91426 0.61075 0.0
C1820 C 0.00881 0.86763 0.609 0.0
C1821 C 0.01976 0.83405 0.64047 0.0
C1822 C 0.02119 0.85057 0.63122 0.0
C1823 C 0.02681 0.89706 0.60201 0.0
C1824 C 0.02445 0.88141 0.61265 0.0
H1825 H 0.03212 0.82033 0.68187 0.0
H1826 H 0.03354 0.84763 0.66728 0.0
H1827 H 0.99486 0.84221 0.61514 0.0
H1828 H 0.02358 0.90612 0.55721 0.0
H1829 H 0.01489 0.88159 0.57544 0.0
C1830 C 0.46873 0.78492 0.84234 0.0
C1831 C 0.48213 0.79776 0.83624 0.0
C1832 C 0.45033 0.78315 0.83622 0.0
C1833 C 0.41831 0.80702 0.81085 0.0
H1834 H 0.38411 0.76215 0.81008 0.0
C1835 C 0.3435 0.79789 0.77797 0.0
C1836 C 0.32982 0.7847 0.78307 0.0
C1837 C 0.36173 0.79945 0.78461 0.0
C1838 C 0.39321 0.77499 0.81033 0.0
H1839 H 0.48607 0.81872 0.81858 0.0
H1840 H 0.45465 0.81537 0.80755 0.0
H1841 H 0.41527 0.76474 0.82113 0.0
H1842 H 0.32526 0.76264 0.79939 0.0
H1843 H 0.35634 0.7655 0.81115 0.0
H1844 H 0.39634 0.81736 0.80024 0.0
C1845 C 0.45803 0.80679 0.81746 0.0
C1846 C 0.41147 0.77647 0.81678 0.0
C1847 C 0.47636 0.80861 0.82366 0.0
C1848 C 0.33517 0.77311 0.79508 0.0
C1849 C 0.35334 0.77466 0.80175 0.0
C1850 C 0.40007 0.80556 0.80445 0.0
C1851 C 0.44447 0.79412 0.82366 0.0
C1852 C 0.42456 0.79251 0.81709 0.0
C1853 C 0.36719 0.78787 0.7967 0.0
C1854 C 0.38698 0.78947 0.80389 0.0
H1855 H 0.47243 0.77634 0.85212 0.0
H1856 H 0.44072 0.77334 0.84176 0.0
H1857 H 0.42743 0.81986 0.81115 0.0
H1858 H 0.3402 0.80704 0.76871 0.0
H1859 H 0.37151 0.80967 0.77983 0.0
C1860 C 0.51623 0.19707 0.13987 0.0
C1861 C 0.50922 0.19642 0.15691 0.0
C1862 C 0.51768 0.1815 0.12912 0.0
C1863 C 0.51593 0.1325 0.13096 0.0
H1864 H 0.51476 0.13192 0.07769 0.0
C1865 C 0.51216 0.06754 0.08093 0.0
C1866 C 0.52221 0.06875 0.06588 0.0
C1867 C 0.51078 0.08292 0.09217 0.0
C1868 C 0.51531 0.13185 0.09256 0.0
H1869 H 0.49804 0.17844 0.17575 0.0
H1870 H 0.49968 0.15115 0.1566 0.0
H1871 H 0.5111 0.15825 0.09651 0.0
H1872 H 0.53898 0.0875 0.05127 0.0
H1873 H 0.53623 0.11425 0.07052 0.0
H1874 H 0.5196 0.10574 0.12669 0.0
C1875 C 0.50458 0.16383 0.15171 0.0
C1876 C 0.51327 0.14711 0.10352 0.0
C1877 C 0.50339 0.17953 0.16267 0.0
C1878 C 0.5308 0.08591 0.06242 0.0
C1879 C 0.52927 0.10133 0.07356 0.0
C1880 C 0.51772 0.11712 0.11993 0.0
C1881 C 0.51188 0.16452 0.13474 0.0
C1882 C 0.51363 0.14783 0.12297 0.0
C1883 C 0.51926 0.10009 0.08866 0.0
C1884 C 0.5175 0.11656 0.10054 0.0
H1885 H 0.52115 0.20975 0.13498 0.0
H1886 H 0.52384 0.18298 0.11656 0.0
H1887 H 0.51668 0.13238 0.14582 0.0
H1888 H 0.50528 0.05463 0.08408 0.0
H1889 H 0.50277 0.08133 0.10346 0.0
C1890 C 0.10385 0.30305 0.34184 0.0
C1891 C 0.08832 0.28909 0.33693 0.0
C1892 C 0.12047 0.30159 0.33592 0.0
C1893 C 0.14385 0.26713 0.3142 0.0
H1894 H 0.17973 0.30894 0.30809 0.0
C1895 C 0.20732 0.26034 0.27866 0.0
C1896 C 0.22369 0.27288 0.28456 0.0
C1897 C 0.19125 0.2626 0.28526 0.0
C1898 C 0.17002 0.29701 0.30982 0.0
H1899 H 0.07864 0.26261 0.32166 0.0
H1900 H 0.10682 0.26023 0.31106 0.0
H1901 H 0.15186 0.31244 0.31909 0.0
H1902 H 0.23542 0.29803 0.30196 0.0
H1903 H 0.20777 0.302 0.31327 0.0
H1904 H 0.16193 0.25172 0.30484 0.0
C1905 C 0.10659 0.27229 0.31984 0.0
C1906 C 0.1538 0.29905 0.31626 0.0
C1907 C 0.09009 0.27374 0.32578 0.0
C1908 C 0.22325 0.28793 0.29708 0.0
C1909 C 0.20718 0.29029 0.30352 0.0
C1910 C 0.15996 0.26511 0.30766 0.0
C1911 C 0.12229 0.28608 0.32483 0.0
C1912 C 0.14018 0.28413 0.31846 0.0
C1913 C 0.19078 0.27763 0.29789 0.0
C1914 C 0.17343 0.27997 0.30518 0.0
H1915 H 0.10326 0.31509 0.35049 0.0
H1916 H 0.13195 0.31259 0.34043 0.0
H1917 H 0.13434 0.25514 0.31612 0.0
H1918 H 0.20688 0.2486 0.26905 0.0
H1919 H 0.1791 0.25255 0.2802 0.0
C1920 C 0.93646 0.00916 0.20235 0.0
C1921 C 0.94462 0.018 0.21985 0.0
C1922 C 0.94478 0.01207 0.18645 0.0
C1923 C 0.9879 0.03859 0.1707 0.0
H1924 H 0.96323 0.01498 0.1228 0.0
C1925 C 0.01375 0.05116 0.09901 0.0
C1926 C 0.01213 0.03564 0.08648 0.0
C1927 C 0.0063 0.05016 0.11579 0.0
C1928 C 0.97036 0.02166 0.1361 0.0
H1929 H 0.96773 0.03733 0.2344 0.0
H1930 H 0.98188 0.04333 0.20711 0.0
H1931 H 0.94839 0.01134 0.14971 0.0
H1932 H 1.0027 0.00678 0.08256 0.0
H1933 H 0.98932 0.00516 0.11114 0.0
H1934 H 0.00973 0.04928 0.15604 0.0
C1935 C 0.96938 0.03347 0.20508 0.0
C1936 C 0.96183 0.0195 0.15198 0.0
C1937 C 0.96122 0.03011 0.22108 0.0
C1938 C 1.00364 0.01911 0.09151 0.0
C1939 C 0.99601 0.01814 0.10798 0.0
C1940 C 0.99629 0.041 0.15467 0.0
C1941 C 0.96146 0.02443 0.18726 0.0
C1942 C 0.97045 0.02761 0.16986 0.0
C1943 C 0.99694 0.03364 0.12022 0.0
C1944 C 0.98774 0.0323 0.13722 0.0
H1945 H 0.92366 0.99965 0.20095 0.0
H1946 H 0.93779 0.00425 0.17371 0.0
H1947 H 0.99558 0.04529 0.18364 0.0
H1948 H 0.02026 0.06409 0.09561 0.0
H1949 H 0.00731 0.06235 0.12498 0.0
C1950 C 0.25533 0.6501 0.48178 0.0
C1951 C 0.26754 0.659 0.49719 0.0
C1952 C 0.25464 0.65772 0.46531 0.0
C1953 C 0.2635 0.70116 0.45007 0.0
H1954 H 0.26481 0.67711 0.40112 0.0
C1955 C 0.26221 0.74048 0.38977 0.0
C1956 C 0.25022 0.73181 0.3742 0.0
C1957 C 0.26809 0.73052 0.40289 0.0
C1958 C 0.26434 0.68398 0.41468 0.0
H1959 H 0.28883 0.68213 0.5079 0.0
H1960 H 0.28808 0.69527 0.47889 0.0
H1961 H 0.26568 0.66078 0.42804 0.0
H1962 H 0.23628 0.70635 0.35873 0.0
H1963 H 0.24549 0.68887 0.38221 0.0
H1964 H 0.26124 0.72399 0.43713 0.0
C1965 C 0.27888 0.68265 0.47956 0.0
C1966 C 0.26481 0.67462 0.43001 0.0
C1967 C 0.27937 0.67518 0.49602 0.0
C1968 C 0.24533 0.71314 0.37096 0.0
C1969 C 0.25079 0.70318 0.38432 0.0
C1970 C 0.26275 0.71038 0.43485 0.0
C1971 C 0.26628 0.67417 0.46425 0.0
C1972 C 0.26468 0.6833 0.44779 0.0
C1973 C 0.26145 0.71186 0.40089 0.0
C1974 C 0.26339 0.70201 0.41699 0.0
H1975 H 0.24588 0.63771 0.48275 0.0
H1976 H 0.24465 0.65116 0.45372 0.0
H1977 H 0.26298 0.70796 0.46368 0.0
H1978 H 0.26642 0.75493 0.39213 0.0
H1979 H 0.27695 0.73754 0.41514 0.0
C1980 C 0.64042 0.01366 0.70582 0.0
C1981 C 0.65416 0.02862 0.71276 0.0
C1982 C 0.62854 0.01435 0.69048 0.0
C1983 C 0.62162 0.0405 0.65229 0.0
H1984 H 0.57196 0.01682 0.6531 0.0
C1985 C 0.56175 0.04383 0.59959 0.0
C1986 C 0.55649 0.02734 0.5883 0.0
C1987 C 0.57304 0.04547 0.61604 0.0
C1988 C 0.58578 0.02362 0.65297 0.0
H1989 H 0.66687 0.05583 0.70929 0.0
H1990 H 0.64571 0.0573 0.68294 0.0
H1991 H 0.59413 0.01691 0.67949 0.0
H1992 H 0.55754 0.99946 0.58513 0.0
H1993 H 0.57682 1.00217 0.61461 0.0
H1994 H 0.61299 0.04742 0.62583 0.0
C1995 C 0.64436 0.04487 0.68883 0.0
C1996 C 0.59845 0.02349 0.6678 0.0
C1997 C 0.65649 0.044 0.70384 0.0
C1998 C 0.56177 0.01229 0.59376 0.0
C1999 C 0.57257 0.0138 0.61048 0.0
C2000 C 0.60887 0.04095 0.63766 0.0
C2001 C 0.63008 0.03018 0.6823 0.0
C2002 C 0.61654 0.0315 0.66732 0.0
C2003 C 0.5784 0.03043 0.62143 0.0
C2004 C 0.59107 0.03217 0.63786 0.0
H2005 H 0.6385 1.00173 0.71267 0.0
H2006 H 0.6179 1.00267 0.68535 0.0
H2007 H 0.63549 0.04665 0.65152 0.0
H2008 H 0.55772 0.05551 0.59529 0.0
H2009 H 0.57771 0.05838 0.62446 0.0
C2010 C 0.2826 0.32935 0.97746 0.0
C2011 C 0.28603 0.34786 0.98278 0.0
C2012 C 0.28159 0.32233 0.95876 0.0
C2013 C 0.29748 0.33443 0.91448 0.0
H2014 H 0.26328 0.2907 0.89286 0.0
C2015 C 0.28952 0.3067 0.8361 0.0
C2016 C 0.28637 0.28813 0.83128 0.0
C2017 C 0.28981 0.3141 0.85452 0.0
C2018 C 0.27309 0.3028 0.89873 0.0
H2019 H 0.29123 0.3736 0.97271 0.0
H2020 H 0.28988 0.36144 0.94007 0.0
H2021 H 0.26221 0.30359 0.92457 0.0
H2022 H 0.2813 0.26271 0.84198 0.0
H2023 H 0.2814 0.27554 0.87417 0.0
H2024 H 0.30839 0.33362 0.88865 0.0
C2025 C 0.28772 0.35226 0.95029 0.0
C2026 C 0.27244 0.31024 0.91695 0.0
C2027 C 0.2883 0.35925 0.96896 0.0
C2028 C 0.2838 0.27708 0.84533 0.0
C2029 C 0.28371 0.28445 0.86373 0.0
C2030 C 0.29813 0.32699 0.89625 0.0
C2031 C 0.28447 0.33368 0.94492 0.0
C2032 C 0.28468 0.32613 0.92516 0.0
C2033 C 0.28661 0.30309 0.86859 0.0
C2034 C 0.28599 0.31101 0.88811 0.0
H2035 H 0.28087 0.32028 0.98783 0.0
H2036 H 0.27918 0.30799 0.95527 0.0
H2037 H 0.30732 0.34651 0.92035 0.0
H2038 H 0.2917 0.31554 0.82556 0.0
H2039 H 0.29204 0.32846 0.85762 0.0
C2040 C 0.9625 1.00188 0.33208 0.0
C2041 C 0.95293 0.01398 0.32556 0.0
C2042 C 0.96923 0.00339 0.35085 0.0
C2043 C 0.9664 0.02534 0.39834 0.0
H2044 H 0.01145 0.0122 0.40961 0.0
C2045 C 1.0011 0.03527 0.47452 0.0
C2046 C 0.01328 0.02499 0.47966 0.0
C2047 C 0.99389 0.03443 0.45593 0.0
C2048 C 0.99868 0.01562 0.40703 0.0
H2049 H 0.94276 0.03713 0.33388 0.0
H2050 H 0.95519 0.0403 0.36664 0.0
H2051 H 0.9985 0.00979 0.37778 0.0
H2052 H 0.0278 0.0062 0.46871 0.0
H2053 H 0.01395 1.00305 0.43703 0.0
H2054 H 0.96631 0.03085 0.42755 0.0
C2055 C 0.95718 0.02933 0.35727 0.0
C2056 C 0.9912 0.01429 0.38848 0.0
C2057 C 0.95016 0.02763 0.33841 0.0
C2058 C 0.01807 0.01389 0.46556 0.0
C2059 C 0.01033 0.01247 0.44706 0.0
C2060 C 0.97377 0.02648 0.41697 0.0
C2061 C 0.96693 0.01726 0.36377 0.0
C2062 C 0.97491 0.01906 0.38377 0.0
C2063 C 0.99814 0.02282 0.44177 0.0
C2064 C 0.9901 0.02162 0.42174 0.0
H2065 H 0.96459 0.99097 0.32269 0.0
H2066 H 0.9761 0.99345 0.35522 0.0
H2067 H 0.95375 0.02899 0.39544 0.0
H2068 H 0.9972 0.04418 0.48486 0.0
H2069 H 0.98511 0.04315 0.45282 0.0
C2070 C 0.27856 0.64666 0.6127 0.0
C2071 C 0.27326 0.6508 0.59513 0.0
C2072 C 0.27635 0.65738 0.62835 0.0
C2073 C 0.25426 0.69098 0.64626 0.0
H2074 H 0.30134 0.71466 0.67193 0.0
C2075 C 0.26487 0.7516 0.70148 0.0
C2076 C 0.27666 0.75133 0.71732 0.0
C2077 C 0.26402 0.73966 0.68568 0.0
C2078 C 0.28808 0.708 0.66509 0.0
H2079 H 0.2598 0.66751 0.57951 0.0
H2080 H 0.25595 0.68632 0.60696 0.0
H2081 H 0.29832 0.6899 0.64767 0.0
H2082 H 0.29696 0.73881 0.72926 0.0
H2083 H 0.29449 0.71719 0.70236 0.0
H2084 H 0.24392 0.70879 0.664 0.0
C2085 C 0.262 0.67512 0.60869 0.0
C2086 C 0.28639 0.69385 0.65134 0.0
C2087 C 0.26454 0.66469 0.59313 0.0
C2088 C 0.28773 0.73925 0.71719 0.0
C2089 C 0.28648 0.72701 0.70169 0.0
C2090 C 0.2559 0.70494 0.66037 0.0
C2091 C 0.26841 0.67185 0.62628 0.0
C2092 C 0.2695 0.68528 0.64197 0.0
C2093 C 0.27459 0.72708 0.68584 0.0
C2094 C 0.27284 0.71343 0.66995 0.0
H2095 H 0.28483 0.63559 0.61424 0.0
H2096 H 0.28133 0.65483 0.64199 0.0
H2097 H 0.24119 0.68459 0.63877 0.0
H2098 H 0.25616 0.76082 0.70137 0.0
H2099 H 0.25495 0.74011 0.67349 0.0
C2100 C 0.64863 0.02658 0.82521 0.0
C2101 C 0.64643 0.03914 0.81332 0.0
C2102 C 0.64256 0.02774 0.84249 0.0
C2103 C 0.61304 0.05278 0.86767 0.0
H2104 H 0.61284 0.01493 0.89851 0.0
C2105 C 0.56164 0.04314 0.91449 0.0
C2106 C 0.56908 0.04488 0.93306 0.0
C2107 C 0.5709 0.03761 0.90057 0.0
C2108 C 0.6128 0.02552 0.88991 0.0
H2109 H 0.63906 0.06419 0.81065 0.0
H2110 H 0.63048 0.06759 0.84098 0.0
H2111 H 0.63395 0.01935 0.87639 0.0
H2112 H 0.59037 0.03983 0.95204 0.0
H2113 H 0.6071 0.03106 0.92761 0.0
H2114 H 0.59282 0.05968 0.88247 0.0
C2115 C 0.63477 0.05557 0.83699 0.0
C2116 C 0.62486 0.02809 0.87694 0.0
C2117 C 0.63996 0.05386 0.81942 0.0
C2118 C 0.58459 0.0388 0.93769 0.0
C2119 C 0.59409 0.03365 0.92373 0.0
C2120 C 0.6014 0.05043 0.88081 0.0
C2121 C 0.63472 0.04189 0.84842 0.0
C2122 C 0.62467 0.0413 0.86492 0.0
C2123 C 0.58794 0.03444 0.90517 0.0
C2124 C 0.60061 0.03636 0.89147 0.0
H2125 H 0.65424 0.01543 0.82081 0.0
H2126 H 0.6435 0.01699 0.85052 0.0
H2127 H 0.61199 0.06337 0.85946 0.0
H2128 H 0.54943 0.04738 0.91076 0.0
H2129 H 0.56567 0.03771 0.88623 0.0
C2130 C 0.28924 0.33977 0.09077 0.0
C2131 C 0.28378 0.35576 0.08902 0.0
C2132 C 0.28764 0.33173 0.1071 0.0
C2133 C 0.26312 0.32995 0.14827 0.0
H2134 H 0.30124 0.30979 0.16905 0.0
C2135 C 0.26176 0.30174 0.2191 0.0
C2136 C 0.26909 0.28684 0.22114 0.0
C2137 C 0.26353 0.31049 0.20325 0.0
C2138 C 0.29031 0.31511 0.16334 0.0
H2139 H 0.27219 0.37569 0.10313 0.0
H2140 H 0.26929 0.36164 0.13131 0.0
H2141 H 0.30437 0.32409 0.141 0.0
H2142 H 0.28363 0.26922 0.2078 0.0
H2143 H 0.28608 0.28392 0.18001 0.0
H2144 H 0.24893 0.3208 0.17042 0.0
C2145 C 0.27475 0.35525 0.12011 0.0
C2146 C 0.29215 0.32336 0.14721 0.0
C2147 C 0.2765 0.36335 0.10391 0.0
C2148 C 0.27781 0.28065 0.20673 0.0
C2149 C 0.27943 0.28927 0.19084 0.0
C2150 C 0.26122 0.32159 0.16433 0.0
C2151 C 0.28036 0.33936 0.12199 0.0
C2152 C 0.27853 0.33079 0.13937 0.0
C2153 C 0.27252 0.30447 0.18892 0.0
C2154 C 0.27473 0.3139 0.17206 0.0
H2155 H 0.29503 0.33364 0.07967 0.0
H2156 H 0.29197 0.31942 0.10799 0.0
H2157 H 0.25228 0.3354 0.14257 0.0
H2158 H 0.25499 0.30689 0.22995 0.0
H2159 H 0.25817 0.32222 0.20247 0.0
C2160 C 0.23277 0.94323 0.01805 0.0
C2161 C 0.23924 0.94577 0.00115 0.0
C2162 C 0.21734 0.94841 0.02169 0.0
C2163 C 0.17851 0.96381 0.00248 0.0
H2164 H 0.1863 0.99021 0.05196 0.0
C2165 C 0.13696 0.01093 0.03577 0.0
C2166 C 0.13301 0.00706 0.05347 0.0
C2167 C 0.14735 1.00141 0.0262 0.0
C2168 C 0.18396 0.98281 0.03815 0.0
H2169 H 0.23464 0.95424 0.97413 0.0
H2170 H 0.20751 0.96415 0.98076 0.0
H2171 H 0.20969 0.97715 0.04104 0.0
H2172 H 0.13505 0.98934 0.07429 0.0
H2173 H 0.15339 0.97286 0.05766 0.0
H2174 H 0.15271 0.97007 -0.00026 0.0
C2175 C 0.21425 0.95794 0.99107 0.0
C2176 C 0.19725 0.97527 0.03192 0.0
C2177 C 0.2297 0.95245 0.98732 0.0
C2178 C 0.13834 0.99277 0.06085 0.0
C2179 C 0.14864 0.98331 0.05133 0.0
C2180 C 0.16517 0.9716 0.00871 0.0
C2181 C 0.20844 0.95659 0.00859 0.0
C2182 C 0.19448 0.96531 0.01425 0.0
C2183 C 0.15372 0.98801 0.03431 0.0
C2184 C 0.16775 0.98074 0.02674 0.0
H2185 H 0.24001 0.93778 0.0287 0.0
H2186 H 0.21283 0.94677 0.03511 0.0
H2187 H 0.1762 0.95627 0.98876 0.0
H2188 H 0.13288 0.0219 0.02983 0.0
H2189 H 0.15131 0.00523 0.01311 0.0
C2190 C 0.70533 0.64549 0.01788 0.0
C2191 C 0.71963 0.63827 0.01303 0.0
C2192 C 0.68884 0.63433 0.01953 0.0
C2193 C 0.66253 0.58677 0.00841 0.0
H2194 H 0.63476 0.60213 0.04552 0.0
C2195 C 0.59048 0.54884 0.01396 0.0
C2196 C 0.58569 0.54717 0.03177 0.0
C2197 C 0.60706 0.55938 0.01166 0.0
C2198 C 0.64246 0.59756 0.03524 0.0
H2199 H 0.72773 0.61368 0.00563 0.0
H2200 H 0.69918 0.59418 0.00871 0.0
H2201 H 0.66302 0.62153 0.0414 0.0
H2202 H 0.59413 0.55494 0.06121 0.0
H2203 H 0.62312 0.57384 0.05729 0.0
H2204 H 0.64221 0.56246 0.00286 0.0
C2205 C 0.70046 0.60846 0.01104 0.0
C2206 C 0.65858 0.60884 0.03261 0.0
C2207 C 0.71695 0.61965 0.00938 0.0
C2208 C 0.59772 0.55598 0.04734 0.0
C2209 C 0.61418 0.56689 0.04506 0.0
C2210 C 0.64652 0.57544 0.01119 0.0
C2211 C 0.68621 0.61562 0.0164 0.0
C2212 C 0.66887 0.60364 0.01911 0.0
C2213 C 0.619 0.56878 0.02717 0.0
C2214 C 0.63626 0.5807 0.02459 0.0
H2215 H 0.70701 0.6598 0.021 0.0
H2216 H 0.67821 0.64048 0.02332 0.0
H2217 H 0.66978 0.58229 0.99768 0.0
H2218 H 0.5813 0.54209 0.0018 0.0
H2219 H 0.61029 0.56061 0.99771 0.0
C2220 C 0.68108 0.48313 0.2785 0.0
C2221 C 0.66919 0.48479 0.29147 0.0
C2222 C 0.68792 0.46798 0.27617 0.0
C2223 C 0.69403 0.42808 0.29871 0.0
H2224 H 0.70945 0.416 0.25115 0.0
C2225 C 0.7208 0.36517 0.27412 0.0
C2226 C 0.73585 0.369 0.26474 0.0
C2227 C 0.71278 0.37886 0.2803 0.0
C2228 C 0.70529 0.41928 0.26455 0.0
H2229 H 0.65485 0.47156 0.31203 0.0
H2230 H 0.66642 0.44464 0.30763 0.0
H2231 H 0.69297 0.43906 0.25456 0.0
H2232 H 0.75511 0.3899 0.25541 0.0
H2233 H 0.74119 0.41389 0.2663 0.0
H2234 H 0.70572 0.40724 0.30811 0.0
C2235 C 0.67083 0.45532 0.2995 0.0
C2236 C 0.69593 0.43265 0.26661 0.0
C2237 C 0.66408 0.47071 0.30197 0.0
C2238 C 0.74358 0.38675 0.26278 0.0
C2239 C 0.73555 0.40039 0.26885 0.0
C2240 C 0.70304 0.41428 0.29645 0.0
C2241 C 0.68288 0.45375 0.28652 0.0
C2242 C 0.69071 0.43776 0.2839 0.0
C2243 C 0.71966 0.39645 0.27695 0.0
C2244 C 0.70922 0.4102 0.27951 0.0
H2245 H 0.68524 0.49363 0.27005 0.0
H2246 H 0.69751 0.46774 0.26641 0.0
H2247 H 0.69028 0.4315 0.31225 0.0
H2248 H 0.71454 0.35148 0.27547 0.0
H2249 H 0.70049 0.37551 0.28643 0.0
C2250 C 0.841 0.4581 0.51413 0.0
C2251 C 0.83634 0.44101 0.50395 0.0
C2252 C 0.85873 0.46595 0.52043 0.0
C2253 C 0.90209 0.46773 0.5087 0.0
H2254 H 0.91834 0.48873 0.56002 0.0
C2255 C 0.97429 0.49538 0.53314 0.0
C2256 C 0.97854 0.51379 0.53899 0.0
C2257 C 0.95695 0.48574 0.53217 0.0
C2258 C 0.91378 0.48295 0.5457 0.0
H2259 H 0.84593 0.4186 0.49212 0.0
H2260 H 0.87751 0.43295 0.50246 0.0
H2261 H 0.88724 0.47177 0.55109 0.0
H2262 H 0.969 0.53667 0.54951 0.0
H2263 H 0.93788 0.5194 0.5478 0.0
H2264 H 0.92839 0.47906 0.50315 0.0
C2265 C 0.86733 0.43998 0.50576 0.0
C2266 C 0.89626 0.47329 0.54065 0.0
C2267 C 0.84949 0.43193 0.49974 0.0
C2268 C 0.96564 0.52244 0.54486 0.0
C2269 C 0.94813 0.51265 0.54406 0.0
C2270 C 0.9195 0.47736 0.51371 0.0
C2271 C 0.87189 0.45689 0.51633 0.0
C2272 C 0.89045 0.46572 0.52212 0.0
C2273 C 0.94378 0.49444 0.53707 0.0
C2274 C 0.92535 0.48491 0.5322 0.0
H2275 H 0.8309 0.46505 0.51792 0.0
H2276 H 0.86219 0.47913 0.52841 0.0
H2277 H 0.8976 0.46225 0.49428 0.0
H2278 H 0.98417 0.48858 0.52835 0.0
H2279 H 0.95363 0.47168 0.5267 0.0
C2280 C 0.37001 0.0726 0.29772 0.0
C2281 C 0.36048 0.06099 0.30856 0.0
C2282 C 0.36435 0.08778 0.29381 0.0
C2283 C 0.33359 0.11634 0.30616 0.0
H2284 H 0.3328 0.12299 0.25417 0.0
C2285 C 0.28805 0.15348 0.26584 0.0
C2286 C 0.29595 0.16391 0.253 0.0
C2287 C 0.29792 0.14369 0.27581 0.0
C2288 C 0.3332 0.12147 0.26879 0.0
H2289 H 0.33834 0.05589 0.32457 0.0
H2290 H 0.32831 0.0827 0.31789 0.0
H2291 H 0.34666 0.10039 0.2657 0.0
H2292 H 0.32025 0.17375 0.24132 0.0
H2293 H 0.3377 0.15668 0.25889 0.0
H2294 H 0.31915 0.13695 0.30878 0.0
C2295 C 0.34019 0.08025 0.31249 0.0
C2296 C 0.34119 0.10859 0.27543 0.0
C2297 C 0.3458 0.06495 0.31626 0.0
C2298 C 0.31399 0.16546 0.25101 0.0
C2299 C 0.32388 0.1558 0.26103 0.0
C2300 C 0.32535 0.12913 0.29942 0.0
C2301 C 0.34907 0.09146 0.30071 0.0
C2302 C 0.34147 0.10589 0.29417 0.0
C2303 C 0.31575 0.14441 0.27301 0.0
C2304 C 0.32515 0.13176 0.2807 0.0
H2305 H 0.38122 0.0694 0.29144 0.0
H2306 H 0.37157 0.09628 0.28487 0.0
H2307 H 0.33372 0.11457 0.32069 0.0
H2308 H 0.2741 0.15234 0.26752 0.0
H2309 H 0.29139 0.13485 0.28489 0.0
C2310 C 0.33289 0.139 0.51004 0.0
C2311 C 0.3196 0.13506 0.52175 0.0
C2312 C 0.34824 0.13215 0.51227 0.0
C2313 C 0.37366 0.11205 0.54713 0.0
H2314 H 0.3931 0.09261 0.50487 0.0
C2315 C 0.4184 0.0642 0.55674 0.0
C2316 C 0.43519 0.06924 0.55074 0.0
C2317 C 0.40455 0.07184 0.55046 0.0
C2318 C 0.3878 0.09808 0.51675 0.0
H2319 H 0.31201 0.1209 0.54492 0.0
H2320 H 0.33813 0.10878 0.54845 0.0
H2321 H 0.36903 0.1083 0.49981 0.0
H2322 H 0.4506 0.08507 0.53267 0.0
H2323 H 0.42622 0.09868 0.52166 0.0
H2324 H 0.39189 0.10136 0.56401 0.0
C2325 C 0.3371 0.11738 0.53779 0.0
C2326 C 0.37414 0.10716 0.5139 0.0
C2327 C 0.32192 0.12417 0.5356 0.0
C2328 C 0.43765 0.081 0.53734 0.0
C2329 C 0.42376 0.08874 0.53108 0.0
C2330 C 0.38701 0.1028 0.54992 0.0
C2331 C 0.35055 0.12135 0.5263 0.0
C2332 C 0.36659 0.11382 0.52907 0.0
C2333 C 0.40736 0.08476 0.53822 0.0
C2334 C 0.3939 0.09535 0.53477 0.0
H2335 H 0.33149 0.1474 0.49927 0.0
H2336 H 0.35838 0.13551 0.50322 0.0
H2337 H 0.36864 0.11754 0.55919 0.0
H2338 H 0.41629 0.05505 0.567 0.0
H2339 H 0.3919 0.06832 0.55588 0.0
C2340 C 0.68595 0.5873 0.31274 0.0
C2341 C 0.66754 0.5826 0.30643 0.0
C2342 C 0.69618 0.60432 0.31119 0.0
C2343 C 0.69568 0.643 0.28485 0.0
H2344 H 0.73436 0.66744 0.32316 0.0
C2345 C 0.74577 0.70811 0.27541 0.0
C2346 C 0.75039 0.72157 0.29069 0.0
C2347 C 0.73574 0.69112 0.27725 0.0
C2348 C 0.72352 0.66086 0.31239 0.0
H2349 H 0.64544 0.59199 0.29344 0.0
H2350 H 0.66314 0.62157 0.29085 0.0
H2351 H 0.71636 0.63831 0.32701 0.0
H2352 H 0.74881 0.72791 0.31989 0.0
H2353 H 0.73175 0.69804 0.32337 0.0
H2354 H 0.70255 0.66582 0.27049 0.0
C2355 C 0.66978 0.6122 0.29696 0.0
C2356 C 0.71332 0.64403 0.31448 0.0
C2357 C 0.65956 0.59529 0.29869 0.0
C2358 C 0.74524 0.71771 0.30792 0.0
C2359 C 0.73559 0.7006 0.30989 0.0
C2360 C 0.70585 0.65987 0.28279 0.0
C2361 C 0.68827 0.61693 0.30306 0.0
C2362 C 0.69923 0.63486 0.30077 0.0
C2363 C 0.73056 0.68713 0.29454 0.0
C2364 C 0.71988 0.66904 0.29656 0.0
H2365 H 0.69248 0.57777 0.31869 0.0
H2366 H 0.71039 0.60739 0.31591 0.0
H2367 H 0.68513 0.63628 0.27385 0.0
H2368 H 0.74952 0.71088 0.26193 0.0
H2369 H 0.73223 0.68106 0.26517 0.0
C2370 C 0.87411 0.4569 0.80593 0.0
C2371 C 0.86581 0.4683 0.81625 0.0
C2372 C 0.86542 0.43915 0.80052 0.0
C2373 C 0.83091 0.40376 0.8121 0.0
H2374 H 0.82667 0.38416 0.76021 0.0
C2375 C 0.78396 0.33782 0.78531 0.0
C2376 C 0.79272 0.32507 0.77816 0.0
C2377 C 0.7922 0.3558 0.78711 0.0
C2378 C 0.82786 0.38957 0.7747 0.0
H2379 H 0.8424 0.47021 0.82964 0.0
H2380 H 0.82726 0.43896 0.82034 0.0
H2381 H 0.84369 0.4149 0.77061 0.0
H2382 H 0.81585 0.32098 0.76526 0.0
H2383 H 0.8302 0.35266 0.76827 0.0
H2384 H 0.81511 0.37857 0.81624 0.0
C2385 C 0.84043 0.44382 0.81643 0.0
C2386 C 0.83759 0.40696 0.78064 0.0
C2387 C 0.84906 0.46161 0.82174 0.0
C2388 C 0.8089 0.33058 0.77097 0.0
C2389 C 0.8171 0.34863 0.77264 0.0
C2390 C 0.82118 0.38647 0.80616 0.0
C2391 C 0.84847 0.43261 0.80557 0.0
C2392 C 0.83899 0.41414 0.79935 0.0
C2393 C 0.80915 0.36118 0.78156 0.0
C2394 C 0.81943 0.37941 0.78742 0.0
H2395 H 0.88699 0.46182 0.80139 0.0
H2396 H 0.87185 0.43058 0.79227 0.0
H2397 H 0.83216 0.40902 0.82664 0.0
H2398 H 0.77131 0.33394 0.79068 0.0
H2399 H 0.78583 0.36544 0.79381 0.0
C2400 C 0.05245 0.84781 0.07255 0.0
C2401 C 0.05101 0.84302 0.09056 0.0
C2402 C 0.05045 0.86473 0.06805 0.0
C2403 C 0.04981 0.91187 0.08956 0.0
H2404 H 0.03133 0.9159 0.0393 0.0
C2405 C 0.04633 0.98253 0.0669 0.0
C2406 C 0.03499 0.98389 0.05091 0.0
C2407 C 0.04822 0.96575 0.07194 0.0
C2408 C 0.03632 0.91535 0.05355 0.0
H2409 H 0.04674 0.85315 0.11807 0.0
H2410 H 0.04351 0.88247 0.11046 0.0
H2411 H 0.03407 0.88713 0.04763 0.0
H2412 H 0.01655 0.96783 0.02793 0.0
H2413 H 0.01924 0.93907 0.03676 0.0
H2414 H 0.05142 0.93994 0.09573 0.0
C2415 C 0.04604 0.87312 0.09956 0.0
C2416 C 0.03823 0.89851 0.05832 0.0
C2417 C 0.04773 0.85605 0.10396 0.0
C2418 C 0.02548 0.96765 0.04031 0.0
C2419 C 0.02725 0.95087 0.04541 0.0
C2420 C 0.04776 0.92874 0.08483 0.0
C2421 C 0.04723 0.8779 0.08143 0.0
C2422 C 0.04507 0.89626 0.07643 0.0
C2423 C 0.03878 0.94936 0.06133 0.0
C2424 C 0.04096 0.93102 0.06664 0.0
H2425 H 0.05502 0.83836 0.06177 0.0
H2426 H 0.05179 0.86754 0.054 0.0
H2427 H 0.05534 0.91121 0.10363 0.0
H2428 H 0.05395 0.99453 0.0756 0.0
H2429 H 0.05746 0.96584 0.08414 0.0
C2430 C 0.94018 0.24842 0.89856 0.0
C2431 C 0.95377 0.26376 0.90509 0.0
C2432 C 0.92442 0.24945 0.8875 0.0
C2433 C 0.90072 0.28353 0.86641 0.0
H2434 H 0.86763 0.24012 0.84241 0.0
C2435 C 0.84165 0.28404 0.80914 0.0
C2436 C 0.82518 0.27184 0.80908 0.0
C2437 C 0.85698 0.28324 0.82105 0.0
C2438 C 0.87661 0.25245 0.84907 0.0
H2439 H 0.96145 0.29227 0.90492 0.0
H2440 H 0.93501 0.29423 0.88518 0.0
H2441 H 0.89406 0.23824 0.86188 0.0
H2442 H 0.81212 0.24911 0.82155 0.0
H2443 H 0.83878 0.24736 0.84182 0.0
H2444 H 0.88306 0.29754 0.85279 0.0
C2445 C 0.93567 0.2812 0.88875 0.0
C2446 C 0.89211 0.25145 0.86056 0.0
C2447 C 0.95123 0.28016 0.90014 0.0
C2448 C 0.82456 0.25871 0.82115 0.0
C2449 C 0.83995 0.25767 0.83277 0.0
C2450 C 0.88537 0.28449 0.85463 0.0
C2451 C 0.9217 0.26587 0.88208 0.0
C2452 C 0.9047 0.26696 0.86963 0.0
C2453 C 0.85647 0.26999 0.83306 0.0
C2454 C 0.87299 0.26898 0.84573 0.0
H2455 H 0.94164 0.23556 0.90221 0.0
H2456 H 0.91445 0.23712 0.88348 0.0
H2457 H 0.90924 0.29606 0.873 0.0
H2458 H 0.84262 0.29447 0.80023 0.0
H2459 H 0.86934 0.29294 0.82066 0.0
C2460 C 0.54256 0.22052 0.60617 0.0
C2461 C 0.55038 0.2336 0.59547 0.0
C2462 C 0.54167 0.20225 0.60142 0.0
C2463 C 0.55594 0.16868 0.56619 0.0
H2464 H 0.53045 0.13542 0.59559 0.0
C2465 C 0.55334 0.09153 0.55087 0.0
C2466 C 0.5407 0.07881 0.55806 0.0
C2467 C 0.55518 0.11013 0.55555 0.0
C2468 C 0.53745 0.14411 0.58675 0.0
H2469 H 0.5632 0.23684 0.57071 0.0
H2470 H 0.5611 0.2051 0.56183 0.0
H2471 H 0.53097 0.1661 0.60188 0.0
H2472 H 0.51989 0.07649 0.57599 0.0
H2473 H 0.52226 0.10798 0.58332 0.0
H2474 H 0.5614 0.14613 0.55033 0.0
C2475 C 0.55585 0.20884 0.57439 0.0
C2476 C 0.5381 0.16249 0.59073 0.0
C2477 C 0.55692 0.22738 0.57934 0.0
C2478 C 0.52991 0.08557 0.57009 0.0
C2479 C 0.53149 0.10409 0.57452 0.0
C2480 C 0.55491 0.15015 0.56191 0.0
C2481 C 0.54832 0.19567 0.58543 0.0
C2482 C 0.54744 0.17549 0.58068 0.0
C2483 C 0.54417 0.11702 0.56739 0.0
C2484 C 0.54561 0.13725 0.57207 0.0
H2485 H 0.53731 0.22441 0.61874 0.0
H2486 H 0.53592 0.19357 0.61093 0.0
H2487 H 0.56354 0.17753 0.55789 0.0
H2488 H 0.5617 0.08719 0.54128 0.0
H2489 H 0.56537 0.11897 0.54968 0.0
C2490 C 0.56454 0.77437 0.41756 0.0
C2491 C 0.54759 0.76435 0.40927 0.0
C2492 C 0.57971 0.77469 0.40852 0.0
C2493 C 0.59782 0.74991 0.37114 0.0
H2494 H 0.63322 0.79465 0.37522 0.0
C2495 C 0.65667 0.76282 0.32584 0.0
C2496 C 0.67262 0.77517 0.33359 0.0
C2497 C 0.6421 0.75909 0.33606 0.0
C2498 C 0.62369 0.78192 0.37415 0.0
H2499 H 0.53336 0.74656 0.38496 0.0
H2500 H 0.55998 0.74678 0.36918 0.0
H2501 H 0.60642 0.7935 0.39012 0.0
H2502 H 0.68604 0.79254 0.35847 0.0
H2503 H 0.66104 0.78568 0.37646 0.0
H2504 H 0.61514 0.73846 0.35486 0.0
C2505 C 0.56152 0.75454 0.3827 0.0
C2506 C 0.60818 0.78127 0.38272 0.0
C2507 C 0.54621 0.75452 0.39165 0.0
C2508 C 0.67409 0.78268 0.35222 0.0
C2509 C 0.65956 0.77901 0.36241 0.0
C2510 C 0.61339 0.75057 0.3625 0.0
C2511 C 0.57853 0.76474 0.39096 0.0
C2512 C 0.59498 0.76527 0.38142 0.0
C2513 C 0.64305 0.76779 0.35422 0.0
C2514 C 0.62662 0.7666 0.36391 0.0
H2515 H 0.56605 0.78217 0.43108 0.0
H2516 H 0.59247 0.78257 0.4155 0.0
H2517 H 0.58814 0.73728 0.36998 0.0
H2518 H 0.65494 0.75721 0.31137 0.0
H2519 H 0.62967 0.75042 0.32919 0.0
C2520 C 0.04748 0.24349 0.4002 0.0
C2521 C 0.03906 0.25696 0.40654 0.0
C2522 C 0.04714 0.22833 0.4094 0.0
C2523 C 0.02181 0.20229 0.44273 0.0
H2524 H 0.06196 0.17986 0.44705 0.0
C2525 C 0.02258 0.14739 0.49012 0.0
C2526 C 0.02719 0.13176 0.48276 0.0
C2527 C 0.02604 0.16291 0.4814 0.0
C2528 C 0.05058 0.18589 0.44589 0.0
H2529 H 0.02374 0.26486 0.4278 0.0
H2530 H 0.02323 0.23872 0.44385 0.0
H2531 H 0.06368 0.20607 0.43056 0.0
H2532 H 0.03957 0.12038 0.46075 0.0
H2533 H 0.04601 0.14762 0.44566 0.0
H2534 H 0.00875 0.18226 0.45808 0.0
C2535 C 0.02999 0.23968 0.43161 0.0
C2536 C 0.05152 0.20095 0.43635 0.0
C2537 C 0.03045 0.25488 0.4225 0.0
C2538 C 0.03623 0.13234 0.467 0.0
C2539 C 0.0398 0.14794 0.45828 0.0
C2540 C 0.02093 0.18739 0.45233 0.0
C2541 C 0.03821 0.22605 0.42517 0.0
C2542 C 0.0372 0.20955 0.43479 0.0
C2543 C 0.03414 0.16326 0.46497 0.0
C2544 C 0.03535 0.17906 0.4543 0.0
H2545 H 0.05428 0.24457 0.38798 0.0
H2546 H 0.05354 0.21819 0.40383 0.0
H2547 H 0.01024 0.20802 0.44141 0.0
H2548 H 0.01532 0.14728 0.50204 0.0
H2549 H 0.02178 0.17449 0.48721 0.0
C2550 C 0.58002 0.2432 0.20691 0.0
C2551 C 0.56959 0.25034 0.21907 0.0
C2552 C 0.59841 0.24457 0.21182 0.0
C2553 C 0.63845 0.26861 0.24761 0.0
H2554 H 0.66132 0.2354 0.22171 0.0
C2555 C 0.71667 0.27896 0.25749 0.0
C2556 C 0.7244 0.26406 0.25593 0.0
C2557 C 0.69804 0.27713 0.25336 0.0
C2558 C 0.65532 0.24477 0.22935 0.0
H2559 H 0.57096 0.26481 0.24633 0.0
H2560 H 0.60296 0.26693 0.25529 0.0
H2561 H 0.62937 0.23199 0.21508 0.0
H2562 H 0.71802 0.23545 0.24822 0.0
H2563 H 0.68577 0.23211 0.24108 0.0
H2564 H 0.66444 0.28084 0.2625 0.0
C2565 C 0.59694 0.26026 0.24164 0.0
C2566 C 0.63668 0.24301 0.22525 0.0
C2567 C 0.57833 0.25882 0.23665 0.0
C2568 C 0.71272 0.24723 0.24988 0.0
C2569 C 0.69406 0.24539 0.24553 0.0
C2570 C 0.65709 0.27025 0.25185 0.0
C2571 C 0.6075 0.25322 0.22928 0.0
C2572 C 0.6277 0.25493 0.23418 0.0
C2573 C 0.68622 0.2603 0.24727 0.0
C2574 C 0.66602 0.25841 0.24279 0.0
H2575 H 0.57392 0.23667 0.19318 0.0
H2576 H 0.6055 0.2392 0.20146 0.0
H2577 H 0.63261 0.27836 0.25483 0.0
H2578 H 0.72507 0.29217 0.26218 0.0
H2579 H 0.693 0.28911 0.25473 0.0
C2580 C 0.53397 0.86255 0.90189 0.0
C2581 C 0.54115 0.84916 0.90928 0.0
C2582 C 0.53317 0.87823 0.91314 0.0
C2583 C 0.54759 0.90303 0.96291 0.0
H2584 H 0.51808 0.93337 0.94431 0.0
C2585 C 0.5459 0.97017 0.00696 0.0
C2586 C 0.53118 0.97781 0.00369 0.0
C2587 C 0.54737 0.95485 0.99555 0.0
C2588 C 0.52619 0.92503 0.95011 0.0
H2589 H 0.55314 0.84212 0.93474 0.0
H2590 H 0.55116 0.86853 0.95432 0.0
H2591 H 0.5193 0.90663 0.92532 0.0
H2592 H 0.5059 0.97466 0.98655 0.0
H2593 H 0.50787 0.9478 0.96726 0.0
H2594 H 0.55331 0.92086 0.98829 0.0
C2595 C 0.54647 0.86757 0.93973 0.0
C2596 C 0.52727 0.9095 0.93879 0.0
C2597 C 0.54748 0.85202 0.92839 0.0
C2598 C 0.51768 0.96942 0.98911 0.0
C2599 C 0.51893 0.95391 0.97792 0.0
C2600 C 0.5461 0.91829 0.97442 0.0
C2601 C 0.53928 0.88117 0.93245 0.0
C2602 C 0.53806 0.89805 0.9448 0.0
C2603 C 0.53392 0.94632 0.9807 0.0
C2604 C 0.53543 0.92974 0.9683 0.0
H2605 H 0.52891 0.86097 0.88727 0.0
H2606 H 0.52783 0.888 0.90631 0.0
H2607 H 0.55644 0.89532 0.96852 0.0
H2608 H 0.55652 0.97632 0.01812 0.0
H2609 H 0.55934 0.94999 0.99831 0.0
C2610 C 0.9474 0.73758 0.72418 0.0
C2611 C 0.96144 0.75256 0.72347 0.0
C2612 C 0.9302 0.73943 0.72795 0.0
C2613 C 0.90576 0.77254 0.74902 0.0
H2614 H 0.86332 0.73799 0.72514 0.0
C2615 C 0.83475 0.78094 0.76585 0.0
C2616 C 0.8191 0.76725 0.76036 0.0
C2617 C 0.85161 0.77932 0.76093 0.0
C2618 C 0.87478 0.74781 0.73236 0.0
H2619 H 0.96786 0.78143 0.72643 0.0
H2620 H 0.93835 0.78475 0.73369 0.0
H2621 H 0.89245 0.735 0.71793 0.0
H2622 H 0.80969 0.74079 0.74501 0.0
H2623 H 0.83858 0.73759 0.73692 0.0
H2624 H 0.8886 0.78518 0.76386 0.0
C2625 C 0.94049 0.7714 0.73112 0.0
C2626 C 0.89185 0.74603 0.72805 0.0
C2627 C 0.95756 0.76951 0.72684 0.0
C2628 C 0.82119 0.75176 0.74966 0.0
C2629 C 0.83814 0.75002 0.74485 0.0
C2630 C 0.88874 0.77419 0.75356 0.0
C2631 C 0.92632 0.75639 0.73168 0.0
C2632 C 0.9078 0.75836 0.73624 0.0
C2633 C 0.85398 0.76375 0.75036 0.0
C2634 C 0.87261 0.76191 0.74536 0.0
H2635 H 0.94961 0.72426 0.72147 0.0
H2636 H 0.92 0.72743 0.72825 0.0
H2637 H 0.91745 0.7823 0.75598 0.0
H2638 H 0.8341 0.79311 0.77415 0.0
H2639 H 0.86269 0.79064 0.76553 0.0
C2640 C 0.08976 0.04313 0.85301 0.0
C2641 C 0.10195 0.03341 0.847 0.0
C2642 C 0.08481 0.04284 0.87092 0.0
C2643 C 0.08501 0.01752 0.91219 0.0
H2644 H 0.07164 0.05918 0.93531 0.0
C2645 C 0.06378 0.02278 0.98711 0.0
C2646 C 0.0491 0.03048 0.98936 0.0
C2647 C 0.07152 0.02308 0.9705 0.0
C2648 C 0.07518 0.04735 0.92904 0.0
H2649 H 0.11864 0.01578 0.85552 0.0
H2650 H 0.11024 0.01544 0.88692 0.0
H2651 H 0.08321 0.06008 0.90569 0.0
H2652 H 0.03122 0.04461 0.97577 0.0
H2653 H 0.0445 0.04498 0.94697 0.0
H2654 H 0.07717 0.00498 0.93594 0.0
C2655 C 0.1042 0.0231 0.87762 0.0
C2656 C 0.08179 0.04781 0.91189 0.0
C2657 C 0.1091 0.02334 0.85956 0.0
C2658 C 0.04244 0.03848 0.97457 0.0
C2659 C 0.05019 0.03884 0.95806 0.0
C2660 C 0.07854 0.01713 0.92952 0.0
C2661 C 0.09198 0.03291 0.88365 0.0
C2662 C 0.08642 0.03277 0.90288 0.0
C2663 C 0.0649 0.03122 0.95575 0.0
C2664 C 0.07316 0.03192 0.93801 0.0
H2665 H 0.08397 0.05109 0.84384 0.0
H2666 H 0.07509 0.05028 0.87462 0.0
H2667 H 0.0883 0.00559 0.90585 0.0
H2668 H 0.06932 0.01656 0.99823 0.0
H2669 H 0.0829 0.01719 0.96934 0.0
C2670 C 0.77732 0.40757 0.57091 0.0
C2671 C 0.78335 0.40075 0.5549 0.0
C2672 C 0.77868 0.3993 0.58693 0.0
C2673 C 0.80213 0.36875 0.6087 0.0
H2674 H 0.75892 0.3539 0.63139 0.0
C2675 C 0.80076 0.31801 0.657 0.0
C2676 C 0.7995 0.3254 0.67498 0.0
C2677 C 0.7942 0.3252 0.64185 0.0
C2678 C 0.77099 0.35799 0.62508 0.0
H2679 H 0.7966 0.38123 0.54291 0.0
H2680 H 0.79911 0.36689 0.57074 0.0
H2681 H 0.75919 0.37366 0.60714 0.0
H2682 H 0.78869 0.34425 0.69161 0.0
H2683 H 0.77755 0.35731 0.66493 0.0
H2684 H 0.81387 0.35293 0.62621 0.0
C2685 C 0.79318 0.37834 0.57109 0.0
C2686 C 0.77125 0.36941 0.61149 0.0
C2687 C 0.79157 0.38638 0.55515 0.0
C2688 C 0.7898 0.33855 0.67771 0.0
C2689 C 0.78337 0.34589 0.66253 0.0
C2690 C 0.8018 0.35727 0.62205 0.0
C2691 C 0.78644 0.3845 0.58699 0.0
C2692 C 0.78676 0.37461 0.60303 0.0
C2693 C 0.78664 0.34001 0.64468 0.0
C2694 C 0.78617 0.35158 0.6301 0.0
H2695 H 0.77109 0.41881 0.57082 0.0
H2696 H 0.77356 0.4043 0.59916 0.0
H2697 H 0.81432 0.37283 0.60257 0.0
H2698 H 0.80804 0.30766 0.65478 0.0
H2699 H 0.79656 0.32035 0.62808 0.0
C2700 C 0.41815 0.00653 0.37026 0.0
C2701 C 0.41856 0.02331 0.3646 0.0
C2702 C 0.4249 0.00529 0.38826 0.0
C2703 C 0.44397 0.03041 0.43403 0.0
H2704 H 0.47973 1.0026 0.42918 0.0
C2705 C 0.50242 0.03866 0.49074 0.0
C2706 C 0.50832 0.02337 0.49429 0.0
C2707 C 0.49035 0.03803 0.47515 0.0
C2708 C 0.46962 0.01012 0.43095 0.0
H2709 H 0.42462 0.05183 0.37289 0.0
H2710 H 0.43745 0.04985 0.40455 0.0
H2711 H 0.45753 1.00159 0.40305 0.0
H2712 H 0.50714 0.99569 0.48478 0.0
H2713 H 0.48494 0.99404 0.45805 0.0
H2714 H 0.45604 0.03889 0.46202 0.0
C2715 C 0.43154 0.03765 0.39527 0.0
C2716 C 0.45687 0.00952 0.41598 0.0
C2717 C 0.42445 0.03884 0.37725 0.0
C2718 C 0.50264 0.00759 0.48199 0.0
C2719 C 0.49003 0.00673 0.46674 0.0
C2720 C 0.45657 0.03078 0.44918 0.0
C2721 C 0.43251 0.02089 0.40056 0.0
C2722 C 0.44415 0.01986 0.41732 0.0
C2723 C 0.48359 0.0219 0.46333 0.0
C2724 C 0.46971 0.02088 0.44765 0.0
H2725 H 0.41327 0.99442 0.36052 0.0
H2726 H 0.42525 0.99224 0.39221 0.0
H2727 H 0.43424 0.03847 0.43529 0.0
H2728 H 0.50707 0.05105 0.50008 0.0
H2729 H 0.48617 0.05011 0.47253 0.0
C2730 C 0.78292 0.69063 0.08934 0.0
C2731 C 0.77688 0.69945 0.07485 0.0
C2732 C 0.78239 0.69679 0.10798 0.0
C2733 C 0.75989 0.72459 0.13785 0.0
H2734 H 0.79854 0.72379 0.17577 0.0
C2735 C 0.76293 0.75756 0.2141 0.0
C2736 C 0.77111 0.75035 0.22866 0.0
C2737 C 0.76331 0.75109 0.19542 0.0
C2738 C 0.78741 0.72389 0.16552 0.0
H2739 H 0.76578 0.72192 0.06891 0.0
H2740 H 0.76502 0.7328 0.10143 0.0
H2741 H 0.79996 0.7131 0.14362 0.0
H2742 H 0.78608 0.73046 0.23464 0.0
H2743 H 0.78632 0.71903 0.20258 0.0
H2744 H 0.74714 0.73503 0.15971 0.0
C2745 C 0.77001 0.72095 0.09832 0.0
C2746 C 0.7883 0.71777 0.14693 0.0
C2747 C 0.77063 0.71484 0.07963 0.0
C2748 C 0.77958 0.73644 0.22394 0.0
C2749 C 0.77988 0.72994 0.20535 0.0
C2750 C 0.75891 0.73055 0.15648 0.0
C2751 C 0.77573 0.71193 0.11279 0.0
C2752 C 0.77463 0.71818 0.13275 0.0
C2753 C 0.77188 0.73719 0.19069 0.0
C2754 C 0.77271 0.73045 0.17069 0.0
H2755 H 0.78777 0.67868 0.08629 0.0
H2756 H 0.78677 0.68934 0.11861 0.0
H2757 H 0.74891 0.72477 0.12744 0.0
H2758 H 0.75643 0.76837 0.21707 0.0
H2759 H 0.75718 0.75732 0.18471 0.0
C2760 C 0.08794 0.02336 0.73332 0.0
C2761 C 0.10642 0.02691 0.73918 0.0
C2762 C 0.08144 0.02348 0.71459 0.0
C2763 C 0.09577 0.0411 0.67131 0.0
H2764 H 0.0528 0.00738 0.64695 0.0
C2765 C 0.07288 0.03449 0.59178 0.0
C2766 C 0.05451 0.03226 0.58602 0.0
C2767 C 0.0792 0.03403 0.61043 0.0
C2768 C 0.06472 0.01703 0.65358 0.0
H2769 H 0.13252 0.03333 0.72967 0.0
H2770 H 0.1213 0.03352 0.69745 0.0
H2771 H 0.06359 0.00588 0.67927 0.0
H2772 H 0.02838 0.02774 0.59521 0.0
H2773 H 0.03929 0.02644 0.62767 0.0
H2774 H 0.09698 0.05216 0.64559 0.0
C2775 C 0.11172 0.03074 0.7072 0.0
C2776 C 0.07092 0.01619 0.67218 0.0
C2777 C 0.11817 0.03045 0.72578 0.0
C2778 C 0.04261 0.02959 0.59929 0.0
C2779 C 0.04887 0.0287 0.61785 0.0
C2780 C 0.08962 0.0419 0.65271 0.0
C2781 C 0.09326 0.02739 0.70127 0.0
C2782 C 0.08653 0.02823 0.68137 0.0
C2783 C 0.06727 0.03091 0.62372 0.0
C2784 C 0.07396 0.02992 0.64356 0.0
H2785 H 0.07851 0.02055 0.74321 0.0
H2786 H 0.06713 0.02091 0.71064 0.0
H2787 H 0.10767 0.05082 0.67789 0.0
H2788 H 0.08237 0.03669 0.58186 0.0
H2789 H 0.09343 0.03573 0.61434 0.0
C2790 C 0.77155 0.36194 0.44865 0.0
C2791 C 0.77639 0.38053 0.45242 0.0
C2792 C 0.77316 0.35366 0.4314 0.0
C2793 C 0.77912 0.36058 0.3835 0.0
H2794 H 0.79452 0.3163 0.38543 0.0
C2795 C 0.76699 0.30797 0.32041 0.0
C2796 C 0.77905 0.29702 0.31859 0.0
C2797 C 0.769 0.32008 0.3363 0.0
C2798 C 0.79065 0.32884 0.38455 0.0
H2799 H 0.78626 0.40535 0.44153 0.0
H2800 H 0.78964 0.39075 0.41122 0.0
H2801 H 0.79433 0.33492 0.41394 0.0
H2802 H 0.80271 0.28996 0.33126 0.0
H2803 H 0.80683 0.31173 0.3587 0.0
H2804 H 0.77623 0.35485 0.35399 0.0
C2805 C 0.78419 0.3826 0.4214 0.0
C2806 C 0.79021 0.33934 0.40093 0.0
C2807 C 0.78216 0.39092 0.43861 0.0
C2808 C 0.79312 0.29819 0.33267 0.0
C2809 C 0.79546 0.31064 0.3483 0.0
C2810 C 0.78005 0.3503 0.36702 0.0
C2811 C 0.78017 0.36389 0.41792 0.0
C2812 C 0.78358 0.35478 0.40054 0.0
C2813 C 0.78337 0.32165 0.35031 0.0
C2814 C 0.7851 0.33397 0.36744 0.0
H2815 H 0.76709 0.3538 0.45925 0.0
H2816 H 0.76939 0.33921 0.42881 0.0
H2817 H 0.77413 0.37256 0.38286 0.0
H2818 H 0.75599 0.30714 0.30961 0.0
H2819 H 0.75916 0.32799 0.33766 0.0
C2820 C 0.39825 0.01224 0.24558 0.0
C2821 C 0.40786 0.02352 0.26136 0.0
C2822 C 0.4061 0.01058 0.22942 0.0
C2823 C 0.44134 0.03434 0.20553 0.0
H2824 H 0.43625 0.98787 0.17725 0.0
C2825 C 0.48512 0.01646 0.15119 0.0
C2826 C 0.47671 0.00345 0.13633 0.0
C2827 C 0.47507 0.02212 0.16433 0.0
C2828 C 0.43743 1.00097 0.18484 0.0
H2829 H 0.4332 0.04165 0.27284 0.0
H2830 H 0.44691 0.03869 0.24455 0.0
H2831 H 0.42274 0.99003 0.2058 0.0
H2832 H 0.45152 0.98742 0.12193 0.0
H2833 H 0.43376 0.99734 0.14502 0.0
H2834 H 0.45658 0.04516 0.18482 0.0
C2835 C 0.43325 0.0314 0.24462 0.0
C2836 C 0.42981 1.00217 0.20117 0.0
C2837 C 0.42541 0.03308 0.26076 0.0
C2838 C 0.45809 0.99739 0.13354 0.0
C2839 C 0.44804 1.00301 0.14666 0.0
C2840 C 0.44905 0.03312 0.18923 0.0
C2841 C 0.42362 0.02021 0.22882 0.0
C2842 C 0.43173 0.01887 0.21163 0.0
C2843 C 0.45662 0.01464 0.16263 0.0
C2844 C 0.44711 0.01643 0.17878 0.0
H2845 H 0.38479 0.00449 0.24578 0.0
H2846 H 0.39841 1.00191 0.21735 0.0
H2847 H 0.4428 0.04739 0.21333 0.0
H2848 H 0.49954 0.02126 0.15331 0.0
H2849 H 0.48194 0.03109 0.17657 0.0
C2850 C 0.78715 0.71344 0.9641 0.0
C2851 C 0.77203 0.70091 0.9673 0.0
C2852 C 0.7884 0.71912 0.9465 0.0
C2853 C 0.76735 0.70837 0.89636 0.0
H2854 H 0.78969 0.75812 0.89469 0.0
C2855 C 0.75857 0.7438 0.83077 0.0
C2856 C 0.77411 0.75402 0.82517 0.0
C2857 C 0.75909 0.73695 0.84779 0.0
C2858 C 0.78356 0.74415 0.89488 0.0
H2859 H 0.74664 0.684 0.95455 0.0
H2860 H 0.74865 0.69378 0.92394 0.0
H2861 H 0.78922 0.7465 0.92446 0.0
H2862 H 0.80224 0.76584 0.83389 0.0
H2863 H 0.80298 0.75456 0.8641 0.0
H2864 H 0.76112 0.70634 0.86673 0.0
C2865 C 0.7597 0.6993 0.93482 0.0
C2866 C 0.78335 0.7374 0.912 0.0
C2867 C 0.75844 0.69374 0.95244 0.0
C2868 C 0.79004 0.75795 0.83762 0.0
C2869 C 0.79047 0.75144 0.85492 0.0
C2870 C 0.76734 0.71521 0.87926 0.0
C2871 C 0.77455 0.71237 0.9316 0.0
C2872 C 0.77524 0.71938 0.91309 0.0
C2873 C 0.77505 0.74059 0.8601 0.0
C2874 C 0.77544 0.73321 0.87829 0.0
H2875 H 0.79781 0.71918 0.97534 0.0
H2876 H 0.80024 0.7289 0.94464 0.0
H2877 H 0.76123 0.69438 0.89637 0.0
H2878 H 0.74583 0.74129 0.82213 0.0
H2879 H 0.74686 0.72904 0.85148 0.0
C2880 C 0.81999 0.11394 0.04201 0.0
C2881 C 0.8066 0.10202 0.04892 0.0
C2882 C 0.83739 0.11195 0.04411 0.0
C2883 C 0.86803 0.08876 0.06813 0.0
H2884 H 0.8886 0.09082 0.02197 0.0
C2885 C 0.91745 0.05047 0.03995 0.0
C2886 C 0.92915 0.05961 0.02886 0.0
C2887 C 0.9065 0.05942 0.04928 0.0
C2888 C 0.88327 0.09065 0.03513 0.0
H2889 H 0.80074 0.07902 0.06389 0.0
H2890 H 0.83118 0.07497 0.06673 0.0
H2891 H 0.86049 0.09902 0.02399 0.0
H2892 H 0.94056 0.08513 0.02035 0.0
H2893 H 0.92146 0.10089 0.03673 0.0
H2894 H 0.89054 0.07901 0.07863 0.0
C2895 C 0.82826 0.08607 0.06009 0.0
C2896 C 0.86718 0.09534 0.03628 0.0
C2897 C 0.81083 0.08817 0.05813 0.0
C2898 C 0.93141 0.078 0.02878 0.0
C2899 C 0.92065 0.08696 0.03822 0.0
C2900 C 0.88419 0.08382 0.06689 0.0
C2901 C 0.84159 0.09784 0.0529 0.0
C2902 C 0.85937 0.09433 0.05271 0.0
C2903 C 0.90735 0.07745 0.04744 0.0
C2904 C 0.89181 0.08472 0.05033 0.0
H2905 H 0.81708 0.12491 0.03509 0.0
H2906 H 0.84754 0.1213 0.03864 0.0
H2907 H 0.86216 0.08792 0.08095 0.0
H2908 H 0.91577 0.03623 0.04016 0.0
H2909 H 0.8962 0.05187 0.05624 0.0
C2910 C 0.35374 0.4114 0.02948 0.0
C2911 C 0.34412 0.41481 0.04418 0.0
C2912 C 0.37147 0.42075 0.02973 0.0
C2913 C 0.41068 0.45027 0.06141 0.0
H2914 H 0.42714 0.46111 0.01466 0.0
C2915 C 0.48382 0.48766 0.05752 0.0
C2916 C 0.48689 0.49912 0.04387 0.0
C2917 C 0.46682 0.47682 0.05788 0.0
C2918 C 0.42278 0.45849 0.02792 0.0
H2919 H 0.34559 0.4304 0.07091 0.0
H2920 H 0.37644 0.44694 0.07136 0.0
H2921 H 0.39697 0.44403 0.01482 0.0
H2922 H 0.47465 0.50811 0.01978 0.0
H2923 H 0.44485 0.48966 0.02058 0.0
H2924 H 0.43618 0.46571 0.07457 0.0
C2925 C 0.37044 0.43698 0.05958 0.0
C2926 C 0.40543 0.44828 0.02799 0.0
C2927 C 0.35263 0.4277 0.05924 0.0
C2928 C 0.47257 0.49967 0.03068 0.0
C2929 C 0.45555 0.48879 0.03098 0.0
C2930 C 0.42794 0.46078 0.06136 0.0
C2931 C 0.38015 0.43374 0.04476 0.0
C2932 C 0.39901 0.44411 0.04474 0.0
C2933 C 0.4524 0.47708 0.04451 0.0
C2934 C 0.43421 0.46524 0.04461 0.0
H2935 H 0.3475 0.40152 0.01769 0.0
H2936 H 0.3784 0.41753 0.01817 0.0
H2937 H 0.40652 0.44707 0.0746 0.0
H2938 H 0.49469 0.48687 0.06781 0.0
H2939 H 0.46517 0.46792 0.0684 0.0
C2940 C 0.3718 0.55892 0.75029 0.0
C2941 C 0.3852 0.55747 0.76418 0.0
C2942 C 0.36578 0.57467 0.74995 0.0
C2943 C 0.36863 0.61888 0.77942 0.0
H2944 H 0.34129 0.62713 0.73495 0.0
C2945 C 0.33975 0.68112 0.77937 0.0
C2946 C 0.32133 0.67732 0.77324 0.0
C2947 C 0.34974 0.66849 0.77525 0.0
C2948 C 0.34896 0.62505 0.74747 0.0
H2949 H 0.4032 0.57176 0.78835 0.0
H2950 H 0.39361 0.5994 0.78734 0.0
H2951 H 0.35496 0.6018 0.73396 0.0
H2952 H 0.29907 0.65787 0.75727 0.0
H2953 H 0.31646 0.6358 0.74988 0.0
H2954 H 0.36301 0.64265 0.79261 0.0
C2955 C 0.38696 0.58827 0.77701 0.0
C2956 C 0.3567 0.61027 0.74706 0.0
C2957 C 0.3927 0.57233 0.77755 0.0
C2958 C 0.31333 0.66122 0.76184 0.0
C2959 C 0.32331 0.64857 0.75768 0.0
C2960 C 0.36131 0.63389 0.77966 0.0
C2961 C 0.37322 0.58975 0.76329 0.0
C2962 C 0.36631 0.60657 0.76318 0.0
C2963 C 0.34146 0.65175 0.76501 0.0
C2964 C 0.35105 0.63697 0.76383 0.0
H2965 H 0.36581 0.54779 0.73962 0.0
H2966 H 0.35499 0.57466 0.73929 0.0
H2967 H 0.37552 0.61679 0.79235 0.0
H2968 H 0.34615 0.69337 0.78838 0.0
H2969 H 0.36375 0.67147 0.78086 0.0
C2970 C 0.20244 0.616 0.55046 0.0
C2971 C 0.21209 0.60676 0.53932 0.0
C2972 C 0.18485 0.60822 0.55212 0.0
C2973 C 0.14741 0.57899 0.52439 0.0
H2974 H 0.12518 0.57835 0.56961 0.0
C2975 C 0.0761 0.54234 0.52914 0.0
C2976 C 0.06699 0.55055 0.54163 0.0
C2977 C 0.09352 0.55057 0.52739 0.0
C2978 C 0.13129 0.57878 0.55691 0.0
H2979 H 0.21153 0.58213 0.52184 0.0
H2980 H 0.18052 0.56864 0.52455 0.0
H2981 H 0.15765 0.58837 0.57159 0.0
H2982 H 0.06744 0.57364 0.56123 0.0
H2983 H 0.09809 0.58851 0.55782 0.0
H2984 H 0.12118 0.56963 0.50966 0.0
C2985 C 0.18662 0.58182 0.5319 0.0
C2986 C 0.14971 0.58427 0.55808 0.0
C2987 C 0.20419 0.58956 0.53026 0.0
C2988 C 0.07453 0.56747 0.55134 0.0
C2989 C 0.09193 0.57577 0.54955 0.0
C2990 C 0.12904 0.57362 0.52321 0.0
C2991 C 0.17684 0.59127 0.54255 0.0
C2992 C 0.15776 0.58439 0.54179 0.0
C2993 C 0.10172 0.56693 0.53825 0.0
C2994 C 0.12092 0.57357 0.53943 0.0
H2995 H 0.20845 0.62916 0.55792 0.0
H2996 H 0.17734 0.61568 0.56029 0.0
H2997 H 0.15351 0.57934 0.51168 0.0
H2998 H 0.07029 0.52902 0.52194 0.0
H2999 H 0.10098 0.54349 0.51874 0.0
C3000 C 0.69359 0.98554 0.77547 0.0
C3001 C 0.70243 0.99723 0.76424 0.0
C3002 C 0.69541 0.96811 0.77416 0.0
C3003 C 0.7098 0.93302 0.74678 0.0
H3004 H 0.72498 0.92197 0.79567 0.0
C3005 C 0.75015 0.88244 0.77129 0.0
C3006 C 0.74345 0.87411 0.78608 0.0
C3007 C 0.74089 0.89355 0.76263 0.0
C3008 C 0.72046 0.92478 0.78197 0.0
H3009 H 0.71916 1.00004 0.74211 0.0
H3010 H 0.72288 0.96939 0.74029 0.0
H3011 H 0.71721 0.95025 0.79274 0.0
H3012 H 0.72121 0.86847 0.80195 0.0
H3013 H 0.70493 0.88787 0.78676 0.0
H3014 H 0.71392 0.90749 0.73615 0.0
C3015 C 0.71447 0.97374 0.74993 0.0
C3016 C 0.71603 0.94089 0.78031 0.0
C3017 C 0.71267 0.99125 0.75127 0.0
C3018 C 0.72655 0.87507 0.79067 0.0
C3019 C 0.71722 0.88591 0.78189 0.0
C3020 C 0.7144 0.91675 0.74846 0.0
C3021 C 0.70614 0.96225 0.76166 0.0
C3022 C 0.71047 0.94501 0.76278 0.0
C3023 C 0.72495 0.8961 0.76877 0.0
C3024 C 0.71947 0.91257 0.76613 0.0
H3025 H 0.6854 0.9899 0.78537 0.0
H3026 H 0.68881 0.95931 0.78324 0.0
H3027 H 0.70568 0.9362 0.73314 0.0
H3028 H 0.76319 0.88162 0.7676 0.0
H3029 H 0.74707 0.90152 0.75266 0.0
C3030 C 0.73587 0.91198 0.53479 0.0
C3031 C 0.74828 0.91569 0.55094 0.0
C3032 C 0.7202 0.9183 0.53437 0.0
C3033 C 0.70024 0.95132 0.56161 0.0
H3034 H 0.65896 0.93005 0.52525 0.0
C3035 C 0.64797 0.99016 0.54134 0.0
C3036 C 0.63099 0.9811 0.53256 0.0
C3037 C 0.66046 0.98066 0.5471 0.0
C3038 C 0.67014 0.93599 0.53586 0.0
H3039 H 0.75356 0.92796 0.57963 0.0
H3040 H 0.72607 0.93778 0.57941 0.0
H3041 H 0.68365 0.91564 0.52818 0.0
H3042 H 0.61306 0.95519 0.52394 0.0
H3043 H 0.63446 0.93839 0.53506 0.0
H3044 H 0.68626 0.97093 0.5702 0.0
C3045 C 0.72861 0.93102 0.5666 0.0
C3046 C 0.68463 0.92789 0.53723 0.0
C3047 C 0.74443 0.92521 0.56682 0.0
C3048 C 0.6261 0.9624 0.53093 0.0
C3049 C 0.63851 0.95283 0.53698 0.0
C3050 C 0.68554 0.95902 0.5607 0.0
C3051 C 0.71636 0.92805 0.55028 0.0
C3052 C 0.70015 0.93569 0.54979 0.0
C3053 C 0.65615 0.96181 0.54436 0.0
C3054 C 0.6705 0.95186 0.54739 0.0
H3055 H 0.73843 0.90454 0.52237 0.0
H3056 H 0.71139 0.91584 0.52139 0.0
H3057 H 0.71186 0.95812 0.5713 0.0
H3058 H 0.65205 0.00459 0.54239 0.0
H3059 H 0.67386 0.98822 0.55242 0.0
C3060 C 0.37091 0.4557 0.77512 0.0
C3061 C 0.38817 0.4595 0.76984 0.0
C3062 C 0.36155 0.43797 0.77503 0.0
C3063 C 0.35803 0.39162 0.75437 0.0
H3064 H 0.33566 0.37916 0.79778 0.0
C3065 C 0.32277 0.31829 0.76148 0.0
C3066 C 0.30769 0.31569 0.77103 0.0
C3067 C 0.33315 0.33555 0.76105 0.0
C3068 C 0.34151 0.38237 0.78536 0.0
H3069 H 0.40891 0.44771 0.75975 0.0
H3070 H 0.39235 0.41677 0.75907 0.0
H3071 H 0.35199 0.40969 0.7971 0.0
H3072 H 0.29208 0.32935 0.78799 0.0
H3073 H 0.30922 0.35911 0.78623 0.0
H3074 H 0.34717 0.36443 0.74236 0.0
C3075 C 0.38616 0.42748 0.76353 0.0
C3076 C 0.35098 0.39993 0.78505 0.0
C3077 C 0.39568 0.4452 0.76403 0.0
C3078 C 0.30328 0.33076 0.78008 0.0
C3079 C 0.31344 0.34794 0.7794 0.0
C3080 C 0.3483 0.37405 0.75455 0.0
C3081 C 0.36907 0.42365 0.76924 0.0
C3082 C 0.35925 0.40482 0.76952 0.0
C3083 C 0.32867 0.35066 0.77008 0.0
C3084 C 0.33973 0.36919 0.77 0.0
H3085 H 0.3648 0.46644 0.7797 0.0
H3086 H 0.34836 0.43545 0.77938 0.0
H3087 H 0.36423 0.39498 0.74216 0.0
H3088 H 0.3267 0.30699 0.75453 0.0
H3089 H 0.34489 0.33697 0.75394 0.0
C3090 C 0.18608 0.60058 0.26354 0.0
C3091 C 0.19575 0.5911 0.27447 0.0
C3092 C 0.19344 0.61829 0.26193 0.0
C3093 C 0.22303 0.65606 0.28919 0.0
H3094 H 0.22424 0.67789 0.24372 0.0
C3095 C 0.26169 0.72665 0.2847 0.0
C3096 C 0.25343 0.73637 0.27293 0.0
C3097 C 0.25334 0.70912 0.28581 0.0
C3098 C 0.22368 0.67189 0.25648 0.0
H3099 H 0.22063 0.59222 0.29184 0.0
H3100 H 0.23341 0.62331 0.28914 0.0
H3101 H 0.21301 0.64554 0.24206 0.0
H3102 H 0.23029 0.73661 0.25364 0.0
H3103 H 0.21523 0.70579 0.25597 0.0
H3104 H 0.23357 0.6822 0.30366 0.0
C3105 C 0.2202 0.61701 0.2819 0.0
C3106 C 0.21743 0.65354 0.2555 0.0
C3107 C 0.21288 0.59937 0.28352 0.0
C3108 C 0.23643 0.72916 0.26317 0.0
C3109 C 0.22806 0.71161 0.26424 0.0
C3110 C 0.22918 0.67431 0.29017 0.0
C3111 C 0.2104 0.62657 0.27136 0.0
C3112 C 0.21718 0.64564 0.27189 0.0
C3113 C 0.23682 0.70137 0.275 0.0
C3114 C 0.22952 0.68228 0.27387 0.0
H3115 H 0.17293 0.59432 0.25615 0.0
H3116 H 0.18571 0.62563 0.25384 0.0
H3117 H 0.22261 0.65009 0.30197 0.0
H3118 H 0.27512 0.73212 0.2918 0.0
H3119 H 0.26035 0.70128 0.29403 0.0
C3120 C 0.51113 0.71157 0.49423 0.0
C3121 C 0.51324 0.71488 0.47592 0.0
C3122 C 0.51235 0.69499 0.50021 0.0
C3123 C 0.52625 0.65105 0.48504 0.0
H3124 H 0.51054 0.63937 0.53175 0.0
C3125 C 0.54122 0.58782 0.51675 0.0
C3126 C 0.53055 0.57978 0.52953 0.0
C3127 C 0.53877 0.60375 0.50997 0.0
C3128 C 0.51486 0.642 0.51849 0.0
H3129 H 0.51829 0.70297 0.44953 0.0
H3130 H 0.52022 0.67434 0.4595 0.0
H3131 H 0.50563 0.66607 0.52021 0.0
H3132 H 0.50902 0.58282 0.54528 0.0
H3133 H 0.50469 0.61021 0.53378 0.0
H3134 H 0.53448 0.62629 0.48289 0.0
C3135 C 0.51777 0.68437 0.46969 0.0
C3136 C 0.51232 0.65794 0.51186 0.0
C3137 C 0.51642 0.70093 0.46372 0.0
C3138 C 0.51745 0.58842 0.53539 0.0
C3139 C 0.51512 0.60446 0.5288 0.0
C3140 C 0.52847 0.63492 0.49152 0.0
C3141 C 0.51595 0.68091 0.48821 0.0
C3142 C 0.5181 0.66312 0.49502 0.0
C3143 C 0.52565 0.61258 0.51581 0.0
C3144 C 0.52298 0.62997 0.50853 0.0
H3145 H 0.50862 0.72193 0.50406 0.0
H3146 H 0.5109 0.69365 0.51457 0.0
H3147 H 0.53125 0.65397 0.47217 0.0
H3148 H 0.55139 0.58162 0.51172 0.0
H3149 H 0.54749 0.60919 0.50027 0.0
C3150 C 0.62238 0.29013 0.64701 0.0
C3151 C 0.60857 0.2962 0.65484 0.0
C3152 C 0.63773 0.28857 0.65827 0.0
C3153 C 0.6629 0.30237 0.70667 0.0
H3154 H 0.68608 0.2645 0.69213 0.0
C3155 C 0.73027 0.29745 0.74725 0.0
C3156 C 0.73412 0.28062 0.74787 0.0
C3157 C 0.71489 0.29934 0.73629 0.0
C3158 C 0.67973 0.27505 0.69666 0.0
H3159 H 0.60033 0.30567 0.68071 0.0
H3160 H 0.62693 0.30317 0.70027 0.0
H3161 H 0.65981 0.26774 0.67279 0.0
H3162 H 0.72483 0.25253 0.7375 0.0
H3163 H 0.69792 0.25559 0.71882 0.0
H3164 H 0.68225 0.30914 0.73099 0.0
C3165 C 0.62614 0.29967 0.68542 0.0
C3166 C 0.6647 0.27713 0.68526 0.0
C3167 C 0.61074 0.30106 0.67418 0.0
C3168 C 0.72217 0.26567 0.73745 0.0
C3169 C 0.70679 0.26752 0.72648 0.0
C3170 C 0.67778 0.30015 0.71818 0.0
C3171 C 0.63985 0.29316 0.67774 0.0
C3172 C 0.65603 0.2909 0.68998 0.0
C3173 C 0.70288 0.28443 0.72556 0.0
C3174 C 0.68659 0.28652 0.71337 0.0
H3175 H 0.62104 0.28595 0.63221 0.0
H3176 H 0.64793 0.28372 0.65161 0.0
H3177 H 0.65692 0.3133 0.71087 0.0
H3178 H 0.73925 0.3092 0.75519 0.0
H3179 H 0.71271 0.31265 0.73596 0.0
C3180 C 0.01579 0.32926 0.99375 0.0
C3181 C 0.00653 0.32164 0.97619 0.0
C3182 C 0.01789 0.3476 0.00013 0.0
C3183 C 1.00422 0.39058 0.98628 0.0
H3184 H 0.02943 0.40997 0.03515 0.0
C3185 C 1.00407 0.46294 0.02108 0.0
C3186 C 0.01951 0.47279 0.03278 0.0
C3187 C 1.00241 0.44481 0.01398 0.0
C3188 C 0.02246 0.405 0.02134 0.0
H3189 H 0.99219 0.32756 0.95157 0.0
H3190 H 0.99541 0.35886 0.96224 0.0
H3191 H 0.02782 0.37953 0.02348 0.0
H3192 H 0.04521 0.47088 0.04614 0.0
H3193 H 0.04239 0.43974 0.03414 0.0
H3194 H 0.99928 0.41668 0.98445 0.0
C3195 C 1.0014 0.35125 0.97155 0.0
C3196 C 0.02133 0.387 0.01444 0.0
C3197 C 0.99952 0.33297 0.96515 0.0
C3198 C 0.03308 0.46383 0.03726 0.0
C3199 C 0.03137 0.44575 0.03039 0.0
C3200 C 1.0054 0.40863 0.99323 0.0
C3201 C 0.01054 0.35921 0.98936 0.0
C3202 C 0.01211 0.37908 0.99669 0.0
C3203 C 0.01606 0.43579 0.01849 0.0
C3204 C 0.01454 0.41628 0.01094 0.0
H3205 H 0.02143 0.32099 0.00266 0.0
H3206 H 0.02521 0.35227 0.01375 0.0
H3207 H 0.99697 0.38594 0.97261 0.0
H3208 H 0.99348 0.46938 0.01694 0.0
H3209 H 0.99032 0.43786 0.00501 0.0
C3210 C 0.98812 0.79297 0.15138 0.0
C3211 C 1.00144 0.78454 0.15801 0.0
C3212 C 0.97229 0.79149 0.15956 0.0
C3213 C 0.94613 0.76472 0.1919 0.0
H3214 H 0.92358 0.80471 0.19748 0.0
C3215 C 0.89793 0.76773 0.24475 0.0
C3216 C 0.8804 0.76712 0.23692 0.0
C3217 C 0.91227 0.77276 0.23478 0.0
C3218 C 0.92975 0.79345 0.19594 0.0
H3219 H 0.00854 0.76798 0.17844 0.0
H3220 H 0.98169 0.76603 0.19304 0.0
H3221 H 0.94907 0.80658 0.17983 0.0
H3222 H 0.86425 0.77272 0.21325 0.0
H3223 H 0.8896 0.78209 0.19588 0.0
H3224 H 0.92733 0.75196 0.20868 0.0
C3225 C 0.98298 0.77336 0.18122 0.0
C3226 C 0.94427 0.79442 0.18571 0.0
C3227 C 0.99861 0.77468 0.17296 0.0
C3228 C 0.87768 0.77338 0.2197 0.0
C3229 C 0.89213 0.77858 0.20972 0.0
C3230 C 0.93196 0.76394 0.20239 0.0
C3231 C 0.9695 0.78165 0.17463 0.0
C3232 C 0.95292 0.78018 0.18388 0.0
C3233 C 0.90939 0.77739 0.21681 0.0
C3234 C 0.92384 0.77839 0.20481 0.0
H3235 H 0.98984 0.80054 0.13976 0.0
H3236 H 0.96219 0.79789 0.1539 0.0
H3237 H 0.95185 0.75317 0.19029 0.0
H3238 H 0.90033 0.7628 0.25792 0.0
H3239 H 0.92548 0.77191 0.24062 0.0
C3240 C 0.50988 0.30485 0.15777 0.0
C3241 C 0.52409 0.29624 0.15761 0.0
C3242 C 0.51094 0.32099 0.15025 0.0
C3243 C 0.54439 0.35862 0.13685 0.0
H3244 H 0.50371 0.36772 0.10695 0.0
C3245 C 0.55322 0.42242 0.10266 0.0
C3246 C 0.54593 0.42038 0.08395 0.0
C3247 C 0.54766 0.40912 0.11378 0.0
C3248 C 0.51522 0.36539 0.11523 0.0
H3249 H 0.55065 0.29794 0.1498 0.0
H3250 H 0.55249 0.32571 0.13674 0.0
H3251 H 0.50026 0.34052 0.12186 0.0
H3252 H 0.52633 0.40359 0.06244 0.0
H3253 H 0.51685 0.38001 0.08166 0.0
H3254 H 0.55966 0.38274 0.12952 0.0
C3255 C 0.54053 0.32025 0.14269 0.0
C3256 C 0.51319 0.34986 0.12397 0.0
C3257 C 0.5394 0.30415 0.15001 0.0
C3258 C 0.53211 0.40541 0.07687 0.0
C3259 C 0.52666 0.39195 0.08794 0.0
C3260 C 0.54645 0.37398 0.12806 0.0
C3261 C 0.52635 0.32895 0.14268 0.0
C3262 C 0.52785 0.34613 0.13464 0.0
C3263 C 0.53495 0.39327 0.10634 0.0
C3264 C 0.53198 0.37756 0.11695 0.0
H3265 H 0.4979 0.29904 0.16351 0.0
H3266 H 0.4998 0.32734 0.15058 0.0
H3267 H 0.55593 0.35644 0.14522 0.0
H3268 H 0.56384 0.43392 0.10842 0.0
H3269 H 0.55395 0.41093 0.12803 0.0
C3270 C 0.97166 0.28031 0.35001 0.0
C3271 C 0.98548 0.29253 0.3438 0.0
C3272 C 0.95349 0.2787 0.34334 0.0
C3273 C 0.92198 0.3027 0.31831 0.0
H3274 H 0.88809 0.25726 0.3159 0.0
C3275 C 0.84645 0.29234 0.28643 0.0
C3276 C 0.83304 0.27976 0.29284 0.0
C3277 C 0.86485 0.29419 0.29253 0.0
C3278 C 0.89714 0.27022 0.31668 0.0
H3279 H 0.99057 0.31317 0.32594 0.0
H3280 H 0.95901 0.31027 0.31399 0.0
H3281 H 0.9195 0.25974 0.32605 0.0
H3282 H 0.82931 0.25896 0.31081 0.0
H3283 H 0.86081 0.26214 0.32135 0.0
H3284 H 0.89954 0.31317 0.30895 0.0
C3285 C 0.96215 0.30172 0.32404 0.0
C3286 C 0.91547 0.27166 0.32258 0.0
C3287 C 0.98043 0.30323 0.33067 0.0
C3288 C 0.83893 0.26896 0.30548 0.0
C3289 C 0.85729 0.2707 0.31148 0.0
C3290 C 0.9036 0.30127 0.31243 0.0
C3291 C 0.94821 0.28944 0.33029 0.0
C3292 C 0.92839 0.28793 0.32358 0.0
C3293 C 0.87077 0.28335 0.30516 0.0
C3294 C 0.89069 0.28499 0.31148 0.0
H3295 H 0.97492 0.27216 0.36047 0.0
H3296 H 0.94355 0.26932 0.349 0.0
H3297 H 0.9311 0.31562 0.31907 0.0
H3298 H 0.84286 0.30053 0.2763 0.0
H3299 H 0.87445 0.3039 0.28685 0.0
C3300 C 0.99926 0.68707 0.66537 0.0
C3301 C 1.0047 0.70382 0.65921 0.0
C3302 C 1.00072 0.67133 0.65471 0.0
C3303 C 0.01064 0.65447 0.60698 0.0
H3304 H 0.01568 0.61309 0.63077 0.0
C3305 C 0.029 0.59329 0.56739 0.0
C3306 C 0.02005 0.57621 0.57064 0.0
C3307 C 0.02737 0.60871 0.57838 0.0
C3308 C 0.01419 0.62449 0.62386 0.0
H3309 H 0.01626 0.71696 0.63699 0.0
H3310 H 0.01969 0.69025 0.61925 0.0
H3311 H 0.01226 0.63975 0.64938 0.0
H3312 H 1.00231 0.56211 0.58817 0.0
H3313 H 0.99943 0.58886 0.6072 0.0
H3314 H 0.01312 0.63929 0.58155 0.0
C3315 C 0.01346 0.68878 0.63176 0.0
C3316 C 0.0121 0.63989 0.63457 0.0
C3317 C 0.01159 0.70434 0.64214 0.0
C3318 C 0.00948 0.575 0.58525 0.0
C3319 C 0.0079 0.59039 0.59628 0.0
C3320 C 0.01306 0.63923 0.59637 0.0
C3321 C 0.00804 0.6719 0.63774 0.0
C3322 C 0.01021 0.65521 0.62634 0.0
C3323 C 0.01679 0.60749 0.59302 0.0
C3324 C 0.01477 0.62395 0.60459 0.0
H3325 H 0.99402 0.68612 0.67851 0.0
H3326 H 0.99605 0.65876 0.65987 0.0
H3327 H 0.00876 0.66554 0.59971 0.0
H3328 H 0.03753 0.5948 0.55652 0.0
H3329 H 0.03464 0.62159 0.57557 0.0
C3330 C 0.58828 0.79586 0.82821 0.0
C3331 C 0.58724 0.79767 0.84747 0.0
C3332 C 0.60421 0.79352 0.82107 0.0
C3333 C 0.65116 0.78561 0.83685 0.0
H3334 H 0.65829 0.79153 0.78601 0.0
C3335 C 0.72058 0.78561 0.81058 0.0
C3336 C 0.72117 0.7782 0.79221 0.0
C3337 C 0.70436 0.78777 0.81683 0.0
C3338 C 0.6566 0.78967 0.80026 0.0
H3339 H 0.60308 0.79896 0.87411 0.0
H3340 H 0.63018 0.79593 0.86224 0.0
H3341 H 0.6309 0.796 0.79727 0.0
H3342 H 0.70445 0.76733 0.76611 0.0
H3343 H 0.67638 0.7713 0.77681 0.0
H3344 H 0.67709 0.77965 0.83982 0.0
C3345 C 0.61879 0.79544 0.85214 0.0
C3346 C 0.64058 0.79224 0.80687 0.0
C3347 C 0.60293 0.79745 0.85918 0.0
C3348 C 0.70476 0.77309 0.78033 0.0
C3349 C 0.68854 0.7755 0.78652 0.0
C3350 C 0.66723 0.78335 0.83031 0.0
C3351 C 0.61996 0.79312 0.83285 0.0
C3352 C 0.63734 0.79031 0.82542 0.0
C3353 C 0.68791 0.78285 0.80496 0.0
C3354 C 0.67039 0.7853 0.81186 0.0
H3355 H 0.57667 0.79592 0.81858 0.0
H3356 H 0.60387 0.79174 0.80616 0.0
H3357 H 0.64972 0.7833 0.85099 0.0
H3358 H 0.73274 0.7897 0.82031 0.0
H3359 H 0.70483 0.79364 0.83104 0.0
C3360 C 0.46545 0.52656 0.72755 0.0
C3361 C 0.44675 0.5206 0.72592 0.0
C3362 C 0.47412 0.52919 0.71172 0.0
C3363 C 0.46652 0.51679 0.65992 0.0
H3364 H 0.51053 0.55285 0.66184 0.0
C3365 C 0.50809 0.51739 0.59915 0.0
C3366 C 0.51659 0.53377 0.59383 0.0
C3367 C 0.50028 0.51672 0.61555 0.0
C3368 C 0.49815 0.54282 0.66095 0.0
H3369 H 0.42253 0.51286 0.70619 0.0
H3370 H 0.43741 0.51767 0.6789 0.0
H3371 H 0.49519 0.55034 0.68935 0.0
H3372 H 0.52431 0.56234 0.60227 0.0
H3373 H 0.51057 0.56126 0.63112 0.0
H3374 H 0.469 0.50971 0.63143 0.0
C3375 C 0.44558 0.52008 0.69228 0.0
C3376 C 0.48944 0.54119 0.67689 0.0
C3377 C 0.43696 0.51748 0.70806 0.0
C3378 C 0.51781 0.5495 0.6059 0.0
C3379 C 0.50992 0.54885 0.62246 0.0
C3380 C 0.47509 0.51855 0.64401 0.0
C3381 C 0.46433 0.52587 0.69378 0.0
C3382 C 0.47354 0.52804 0.67669 0.0
C3383 C 0.50068 0.53243 0.62732 0.0
C3384 C 0.49119 0.5314 0.64429 0.0
H3385 H 0.47341 0.5292 0.74108 0.0
H3386 H 0.48855 0.53348 0.71358 0.0
H3387 H 0.4545 0.50632 0.65905 0.0
H3388 H 0.50737 0.50494 0.59052 0.0
H3389 H 0.49392 0.50376 0.61897 0.0
C3390 C 0.75093 0.1626 0.99112 0.0
C3391 C 0.76607 0.15858 0.00028 0.0
C3392 C 0.75154 0.16833 0.97376 0.0
C3393 C 0.78293 0.19327 0.94777 0.0
H3394 H 0.74343 0.17903 0.90791 0.0
C3395 C 0.76233 0.23875 0.89732 0.0
C3396 C 0.75464 0.2311 0.87928 0.0
C3397 C 0.76832 0.2282 0.90974 0.0
C3398 C 0.75478 0.18288 0.9187 0.0
H3399 H 0.79338 0.15659 0.99894 0.0
H3400 H 0.79476 0.16739 0.96858 0.0
H3401 H 0.74378 0.16201 0.9341 0.0
H3402 H 0.74845 0.20712 0.85934 0.0
H3403 H 0.75873 0.18854 0.88119 0.0
H3404 H 0.79356 0.2146 0.93272 0.0
C3405 C 0.78243 0.16592 0.9747 0.0
C3406 C 0.75486 0.17327 0.93373 0.0
C3407 C 0.78167 0.15981 0.99192 0.0
C3408 C 0.75418 0.21317 0.87333 0.0
C3409 C 0.76005 0.2026 0.88575 0.0
C3410 C 0.78284 0.20293 0.93274 0.0
C3411 C 0.76743 0.17039 0.96564 0.0
C3412 C 0.7687 0.17868 0.94855 0.0
C3413 C 0.7665 0.20988 0.90422 0.0
C3414 C 0.76854 0.19804 0.91834 0.0
H3415 H 0.73869 0.16133 0.99742 0.0
H3416 H 0.73984 0.17182 0.96704 0.0
H3417 H 0.79363 0.19778 0.95922 0.0
H3418 H 0.76315 0.2527 0.90195 0.0
H3419 H 0.77322 0.2341 0.92395 0.0
C3420 C 0.15527 0.54185 0.20885 0.0
C3421 C 0.15228 0.52652 0.21786 0.0
C3422 C 0.14269 0.54375 0.19473 0.0
C3423 C 0.09532 0.5253 0.17578 0.0
H3424 H 0.10958 0.54886 0.13349 0.0
C3425 C 0.0576 0.51518 0.10231 0.0
C3426 C 0.05225 0.53033 0.09725 0.0
C3427 C 0.06871 0.51647 0.11878 0.0
C3428 C 0.10554 0.54251 0.14543 0.0
H3429 H 0.13475 0.5007 0.2187 0.0
H3430 H 0.11338 0.50327 0.19277 0.0
H3431 H 0.13237 0.54689 0.15831 0.0
H3432 H 0.05363 0.55847 0.10477 0.0
H3433 H 0.07414 0.56094 0.13352 0.0
H3434 H 0.06856 0.51976 0.16186 0.0
C3435 C 0.12492 0.51424 0.19725 0.0
C3436 C 0.11848 0.5414 0.15961 0.0
C3437 C 0.13726 0.51257 0.21178 0.0
C3438 C 0.05772 0.54671 0.10874 0.0
C3439 C 0.0693 0.54812 0.12496 0.0
C3440 C 0.08246 0.52605 0.16136 0.0
C3441 C 0.12724 0.5301 0.18904 0.0
C3442 C 0.1135 0.53245 0.17472 0.0
C3443 C 0.07473 0.53298 0.12993 0.0
C3444 C 0.08764 0.53444 0.14612 0.0
H3445 H 0.16662 0.55297 0.21361 0.0
H3446 H 0.14474 0.55623 0.18887 0.0
H3447 H 0.09105 0.51881 0.18753 0.0
H3448 H 0.05321 0.50243 0.09355 0.0
H3449 H 0.073 0.50476 0.12259 0.0
C3450 C 0.77195 0.84454 0.47786 0.0
C3451 C 0.78911 0.85068 0.48792 0.0
C3452 C 0.76985 0.83793 0.45886 0.0
C3453 C 0.7943 0.83802 0.41732 0.0
H3454 H 0.76029 0.79302 0.39987 0.0
C3455 C 0.79637 0.79704 0.34686 0.0
C3456 C 0.78006 0.78878 0.33597 0.0
C3457 C 0.79682 0.80494 0.36513 0.0
C3458 C 0.76971 0.80571 0.40441 0.0
H3459 H 0.81745 0.85569 0.48587 0.0
H3460 H 0.81388 0.8447 0.45286 0.0
H3461 H 0.76171 0.80706 0.43169 0.0
H3462 H 0.75134 0.78231 0.33556 0.0
H3463 H 0.75199 0.79579 0.36755 0.0
H3464 H 0.8024 0.83664 0.39012 0.0
C3465 C 0.80199 0.84463 0.45952 0.0
C3466 C 0.7705 0.8138 0.42269 0.0
C3467 C 0.80406 0.85079 0.4785 0.0
C3468 C 0.76414 0.78842 0.34376 0.0
C3469 C 0.76455 0.79612 0.36211 0.0
C3470 C 0.7935 0.82995 0.39905 0.0
C3471 C 0.78488 0.8378 0.44946 0.0
C3472 C 0.78296 0.82996 0.42949 0.0
C3473 C 0.7809 0.80469 0.37301 0.0
C3474 C 0.78135 0.81356 0.39237 0.0
H3475 H 0.7602 0.84437 0.48479 0.0
H3476 H 0.75647 0.83292 0.45154 0.0
H3477 H 0.80386 0.85061 0.42193 0.0
H3478 H 0.80874 0.79803 0.34105 0.0
H3479 H 0.80969 0.81128 0.37307 0.0
C3480 C 0.46886 0.50524 0.83653 0.0
C3481 C 0.45578 0.51455 0.83142 0.0
C3482 C 0.47609 0.50627 0.85512 0.0
C3483 C 0.46815 0.5189 0.90396 0.0
H3484 H 0.51772 0.51684 0.91511 0.0
C3485 C 0.5033 0.52927 0.97989 0.0
C3486 C 0.51619 0.51954 0.98457 0.0
C3487 C 0.49607 0.52889 0.9614 0.0
C3488 C 0.50379 0.51718 0.91233 0.0
H3489 H 0.44007 0.53233 0.84218 0.0
H3490 H 0.45298 0.5345 0.87464 0.0
H3491 H 0.50509 0.51635 0.88314 0.0
H3492 H 0.53181 0.50215 0.97291 0.0
H3493 H 0.51867 0.50078 0.94079 0.0
H3494 H 0.46689 0.51978 0.9332 0.0
C3495 C 0.4575 0.52613 0.86423 0.0
C3496 C 0.49647 0.51691 0.89385 0.0
C3497 C 0.45018 0.52503 0.84554 0.0
C3498 C 0.52172 0.50954 0.97003 0.0
C3499 C 0.51431 0.50898 0.95148 0.0
C3500 C 0.47548 0.51919 0.92246 0.0
C3501 C 0.4706 0.51674 0.86935 0.0
C3502 C 0.4785 0.51766 0.88929 0.0
C3503 C 0.50133 0.51865 0.94683 0.0
C3504 C 0.49343 0.51828 0.92699 0.0
H3505 H 0.47342 0.49689 0.82613 0.0
H3506 H 0.4858 0.4985 0.85834 0.0
H3507 H 0.45421 0.51924 0.90115 0.0
H3508 H 0.49877 0.53736 0.99054 0.0
H3509 H 0.48649 0.53689 0.95855 0.0
C3510 C 0.77685 0.14483 0.11644 0.0
C3511 C 0.77167 0.1507 0.09972 0.0
C3512 C 0.77548 0.1546 0.13307 0.0
C3513 C 0.75509 0.18819 0.15429 0.0
H3514 H 0.80246 0.20893 0.1809 0.0
C3515 C 0.76757 0.24813 0.21003 0.0
C3516 C 0.77863 0.24714 0.22617 0.0
C3517 C 0.7667 0.23625 0.1942 0.0
C3518 C 0.78912 0.20305 0.1738 0.0
H3519 H 0.75939 0.16968 0.08651 0.0
H3520 H 0.75693 0.18674 0.11562 0.0
H3521 H 0.79855 0.18496 0.15551 0.0
H3522 H 0.798 0.23372 0.23842 0.0
H3523 H 0.79549 0.21222 0.21133 0.0
H3524 H 0.74554 0.20611 0.17265 0.0
C3525 C 0.76226 0.17492 0.11598 0.0
C3526 C 0.7869 0.18933 0.15944 0.0
C3527 C 0.76399 0.16546 0.09948 0.0
C3528 C 0.78923 0.23462 0.22617 0.0
C3529 C 0.78796 0.22245 0.21058 0.0
C3530 C 0.75723 0.20171 0.16893 0.0
C3531 C 0.76843 0.1698 0.13278 0.0
C3532 C 0.76993 0.18198 0.1496 0.0
C3533 C 0.77653 0.22304 0.19457 0.0
C3534 C 0.77429 0.20928 0.1787 0.0
H3535 H 0.78239 0.13314 0.11659 0.0
H3536 H 0.7803 0.15064 0.1461 0.0
H3537 H 0.74195 0.18272 0.1465 0.0
H3538 H 0.75934 0.25778 0.20975 0.0
H3539 H 0.75809 0.23718 0.18183 0.0
C3540 C 0.14094 0.55537 0.32383 0.0
C3541 C 0.14571 0.53958 0.31761 0.0
C3542 C 0.13482 0.55729 0.34096 0.0
C3543 C 0.12492 0.53369 0.38249 0.0
H3544 H 0.08683 0.55887 0.38034 0.0
C3545 C 0.08475 0.54701 0.4425 0.0
C3546 C 0.06808 0.55081 0.43761 0.0
C3547 C 0.09446 0.54198 0.42867 0.0
C3548 C 0.09711 0.55137 0.38099 0.0
H3549 H 0.14899 0.51384 0.32424 0.0
H3550 H 0.13655 0.51626 0.35344 0.0
H3551 H 0.10526 0.55976 0.35595 0.0
H3552 H 0.04702 0.54954 0.41523 0.0
H3553 H 0.06345 0.53961 0.39104 0.0
H3554 H 0.11561 0.52432 0.40709 0.0
C3555 C 0.1382 0.52757 0.34571 0.0
C3556 C 0.10817 0.55237 0.36721 0.0
C3557 C 0.14507 0.526 0.32888 0.0
C3558 C 0.06008 0.54707 0.41913 0.0
C3559 C 0.06955 0.54154 0.40537 0.0
C3560 C 0.11345 0.53229 0.39609 0.0
C3561 C 0.13248 0.54304 0.35169 0.0
C3562 C 0.12214 0.54343 0.36764 0.0
C3563 C 0.08738 0.54045 0.4099 0.0
C3564 C 0.09927 0.54093 0.3953 0.0
H3565 H 0.14192 0.56621 0.31541 0.0
H3566 H 0.13136 0.56973 0.34543 0.0
H3567 H 0.13579 0.52696 0.38353 0.0
H3568 H 0.09098 0.54962 0.45681 0.0
H3569 H 0.10806 0.541 0.43267 0.0
C3570 C 0.7869 0.83957 0.59521 0.0
C3571 C 0.78648 0.85754 0.59446 0.0
C3572 C 0.78412 0.83177 0.61152 0.0
C3573 C 0.78289 0.84322 0.66274 0.0
H3574 H 0.76007 0.79288 0.65885 0.0
C3575 C 0.76173 0.80732 0.72643 0.0
C3576 C 0.76708 0.79118 0.72783 0.0
C3577 C 0.76336 0.81573 0.71032 0.0
C3578 C 0.76652 0.80695 0.66019 0.0
H3579 H 0.78266 0.88135 0.61049 0.0
H3580 H 0.77736 0.86772 0.63849 0.0
H3581 H 0.76427 0.80684 0.63075 0.0
H3582 H 0.77848 0.77143 0.71318 0.0
H3583 H 0.78047 0.78559 0.68495 0.0
H3584 H 0.78469 0.84324 0.69232 0.0
C3585 C 0.78023 0.85964 0.6267 0.0
C3586 C 0.76907 0.81498 0.64402 0.0
C3587 C 0.78314 0.86746 0.61047 0.0
C3588 C 0.7738 0.78358 0.71254 0.0
C3589 C 0.77506 0.79177 0.69633 0.0
C3590 C 0.78009 0.83521 0.67893 0.0
C3591 C 0.78067 0.84164 0.62755 0.0
C3592 C 0.7775 0.83322 0.64497 0.0
C3593 C 0.77002 0.80803 0.69503 0.0
C3594 C 0.77205 0.81691 0.67786 0.0
H3595 H 0.78951 0.83153 0.58324 0.0
H3596 H 0.78493 0.81799 0.61157 0.0
H3597 H 0.78966 0.85721 0.66424 0.0
H3598 H 0.75663 0.81366 0.73795 0.0
H3599 H 0.75931 0.82822 0.70977 0.0
C3600 C 0.73248 0.43647 0.52115 0.0
C3601 C 0.7401 0.4412 0.50533 0.0
C3602 C 0.71746 0.44221 0.52534 0.0
C3603 C 0.68143 0.46259 0.50933 0.0
H3604 H 0.69183 0.48683 0.55988 0.0
C3605 C 0.64316 0.51113 0.54483 0.0
C3606 C 0.63955 0.50754 0.56271 0.0
C3607 C 0.65322 0.50137 0.53512 0.0
C3608 C 0.68874 0.48001 0.54579 0.0
H3609 H 0.73807 0.4543 0.48072 0.0
H3610 H 0.71127 0.46443 0.48799 0.0
H3611 H 0.71329 0.47179 0.54738 0.0
H3612 H 0.64202 0.49021 0.58382 0.0
H3613 H 0.65972 0.47323 0.56691 0.0
H3614 H 0.65681 0.47115 0.50791 0.0
C3615 C 0.71684 0.45624 0.49704 0.0
C3616 C 0.70093 0.47138 0.53869 0.0
C3617 C 0.73204 0.45053 0.4929 0.0
C3618 C 0.64509 0.49345 0.57026 0.0
C3619 C 0.65505 0.48372 0.56059 0.0
C3620 C 0.66916 0.47134 0.51649 0.0
C3621 C 0.71007 0.45281 0.51375 0.0
C3622 C 0.69718 0.4623 0.52058 0.0
C3623 C 0.65963 0.48799 0.54326 0.0
C3624 C 0.67266 0.47973 0.53489 0.0
H3625 H 0.73886 0.42942 0.53092 0.0
H3626 H 0.7123 0.43933 0.53821 0.0
H3627 H 0.67849 0.45574 0.49526 0.0
H3628 H 0.63888 0.52194 0.53876 0.0
H3629 H 0.65675 0.50483 0.52176 0.0
C3630 C 0.20759 0.14417 0.50913 0.0
C3631 C 0.22188 0.13579 0.50772 0.0
C3632 C 0.19052 0.13427 0.51067 0.0
C3633 C 0.16214 0.08807 0.50325 0.0
H3634 H 0.13369 0.10857 0.5364 0.0
C3635 C 0.09835 0.04884 0.52934 0.0
C3636 C 0.08282 0.05491 0.52454 0.0
C3637 C 0.11512 0.0586 0.52653 0.0
C3638 C 0.14148 0.10278 0.52702 0.0
H3639 H 0.22932 0.11031 0.50651 0.0
H3640 H 0.19945 0.09296 0.50918 0.0
H3641 H 0.16359 0.1255 0.53308 0.0
H3642 H 0.07318 0.07699 0.51443 0.0
H3643 H 0.1027 0.09458 0.51084 0.0
H3644 H 0.14011 0.06508 0.4978 0.0
C3645 C 0.20144 0.10722 0.50895 0.0
C3646 C 0.15856 0.11247 0.52502 0.0
C3647 C 0.21859 0.11717 0.50748 0.0
C3648 C 0.08471 0.0716 0.51788 0.0
C3649 C 0.1016 0.08172 0.51583 0.0
C3650 C 0.14517 0.07829 0.50549 0.0
C3651 C 0.18723 0.11568 0.51079 0.0
C3652 C 0.16909 0.10527 0.51304 0.0
C3653 C 0.11688 0.07514 0.51984 0.0
C3654 C 0.13471 0.0856 0.51734 0.0
H3655 H 0.20966 0.15852 0.50953 0.0
H3656 H 0.17988 0.14123 0.51177 0.0
H3657 H 0.16971 0.08222 0.49369 0.0
H3658 H 0.09772 0.03675 0.53565 0.0
H3659 H 0.12682 0.05346 0.53007 0.0
C3660 C 0.16535 0.9788 0.76735 0.0
C3661 C 0.16278 0.98536 0.78521 0.0
C3662 C 0.1719 0.96353 0.76441 0.0
C3663 C 0.18657 0.92703 0.78815 0.0
H3664 H 0.21491 0.92799 0.74738 0.0
C3665 C 0.22043 0.87021 0.76227 0.0
C3666 C 0.23575 0.8754 0.75357 0.0
C3667 C 0.21174 0.88307 0.76928 0.0
C3668 C 0.20736 0.92763 0.75909 0.0
H3669 H 0.16415 0.98073 0.81397 0.0
H3670 H 0.17719 0.9548 0.80926 0.0
H3671 H 0.19885 0.95072 0.75276 0.0
H3672 H 0.25516 0.89782 0.74698 0.0
H3673 H 0.24071 0.9203 0.76002 0.0
H3674 H 0.19649 0.90435 0.795 0.0
C3675 C 0.17356 0.961 0.79727 0.0
C3676 C 0.19759 0.94051 0.76191 0.0
C3677 C 0.16625 0.97598 0.80008 0.0
C3678 C 0.24329 0.89358 0.75359 0.0
C3679 C 0.23484 0.90639 0.76083 0.0
C3680 C 0.19679 0.91428 0.78555 0.0
C3681 C 0.17699 0.95485 0.77942 0.0
C3682 C 0.18694 0.94047 0.77643 0.0
C3683 C 0.21839 0.90124 0.76773 0.0
C3684 C 0.20746 0.91458 0.77106 0.0
H3685 H 0.16228 0.98553 0.75555 0.0
H3686 H 0.17326 0.95883 0.75028 0.0
H3687 H 0.17839 0.92626 0.79933 0.0
H3688 H 0.21441 0.85618 0.76232 0.0
H3689 H 0.19918 0.87864 0.77461 0.0
C3690 C 0.34177 0.95536 0.99321 0.0
C3691 C 0.33499 0.93901 -0.00057 0.0
C3692 C 0.35962 0.96392 0.99827 0.0
C3693 C 0.39644 0.96767 0.03438 0.0
H3694 H 0.42524 0.98741 0.99771 0.0
C3695 C 0.47319 0.99381 0.04115 0.0
C3696 C 0.47861 0.01044 0.03486 0.0
C3697 C 0.45514 0.98588 0.04005 0.0
C3698 C 0.4172 0.98207 0.00803 0.0
H3699 H 0.34124 0.91858 0.0156 0.0
H3700 H 0.37253 0.93359 0.02434 0.0
H3701 H 0.39448 0.97075 0.98784 0.0
H3702 H 0.46969 0.03259 0.02398 0.0
H3703 H 0.43809 0.01826 0.02138 0.0
H3704 H 0.41946 0.97882 0.0545 0.0
C3705 C 0.36405 0.93973 0.01562 0.0
C3706 C 0.39976 0.9726 0.00243 0.0
C3707 C 0.34627 0.9311 0.01042 0.0
C3708 C 0.46584 0.01967 0.0288 0.0
C3709 C 0.44784 0.01159 0.02734 0.0
C3710 C 0.41398 0.97707 0.03998 0.0
C3711 C 0.37073 0.95623 0.0097 0.0
C3712 C 0.38926 0.96555 0.0156 0.0
C3713 C 0.44253 0.99443 0.03233 0.0
C3714 C 0.42423 0.98449 0.02683 0.0
H3715 H 0.33321 0.96168 0.9848 0.0
H3716 H 0.36463 0.97676 0.99371 0.0
H3717 H 0.3884 0.96235 0.04471 0.0
H3718 H 0.48276 0.9863 0.04558 0.0
H3719 H 0.45109 0.97253 0.04379 0.0
C3720 C 0.85683 0.57452 0.82323 0.0
C3721 C 0.8567 0.56117 0.80876 0.0
C3722 C 0.85139 0.58988 0.81922 0.0
C3723 C 0.8245 0.6035 0.78079 0.0
H3724 H 0.83561 0.64866 0.81287 0.0
C3725 C 0.78627 0.65442 0.76378 0.0
C3726 C 0.79673 0.67168 0.76427 0.0
C3727 C 0.79302 0.64218 0.77322 0.0
C3728 C 0.8325 0.63615 0.80371 0.0
H3729 H 0.85346 0.55389 0.77894 0.0
H3730 H 0.84563 0.58116 0.77179 0.0
H3731 H 0.85206 0.62612 0.81947 0.0
H3732 H 0.8212 0.69071 0.77614 0.0
H3733 H 0.83376 0.66897 0.7917 0.0
H3734 H 0.80627 0.61389 0.76405 0.0
C3735 C 0.84829 0.57944 0.78625 0.0
C3736 C 0.84177 0.62316 0.8076 0.0
C3737 C 0.85285 0.56385 0.7903 0.0
C3738 C 0.81329 0.67717 0.77537 0.0
C3739 C 0.82028 0.66481 0.78445 0.0
C3740 C 0.81577 0.61662 0.77657 0.0
C3741 C 0.84648 0.59217 0.80066 0.0
C3742 C 0.83776 0.60663 0.79622 0.0
C3743 C 0.81054 0.64697 0.78267 0.0
C3744 C 0.81944 0.63298 0.7881 0.0
H3745 H 0.86029 0.5727 0.83755 0.0
H3746 H 0.85026 0.59942 0.83069 0.0
H3747 H 0.82054 0.59082 0.77194 0.0
H3748 H 0.77318 0.65028 0.75561 0.0
H3749 H 0.78491 0.6287 0.77224 0.0
C3750 C 0.83036 0.64256 0.01666 0.0
C3751 C 0.81731 0.63969 0.02876 0.0
C3752 C 0.84559 0.63558 0.01932 0.0
C3753 C 0.87058 0.61583 0.05524 0.0
H3754 H 0.88919 0.59476 0.01326 0.0
C3755 C 0.91252 0.56571 0.06555 0.0
C3756 C 0.92966 0.57051 0.06026 0.0
C3757 C 0.89913 0.57371 0.0588 0.0
C3758 C 0.88409 0.60065 0.02505 0.0
H3759 H 0.81016 0.6276 0.05329 0.0
H3760 H 0.8359 0.61512 0.0575 0.0
H3761 H 0.86599 0.61142 0.00788 0.0
H3762 H 0.94611 0.5862 0.04287 0.0
H3763 H 0.92252 0.60044 0.03103 0.0
H3764 H 0.88801 0.6044 0.07232 0.0
C3765 C 0.83487 0.62299 0.04618 0.0
C3766 C 0.87095 0.61032 0.02203 0.0
C3767 C 0.81984 0.62994 0.04358 0.0
C3768 C 0.93289 0.58232 0.047 0.0
C3769 C 0.91946 0.59042 0.04027 0.0
C3770 C 0.88332 0.60589 0.05819 0.0
C3771 C 0.84801 0.6257 0.03417 0.0
C3772 C 0.86368 0.61761 0.03711 0.0
C3773 C 0.90275 0.58673 0.04678 0.0
C3774 C 0.88988 0.59788 0.04314 0.0
H3775 H 0.82877 0.65009 0.00515 0.0
H3776 H 0.85549 0.63804 0.00986 0.0
H3777 H 0.8659 0.62182 0.06727 0.0
H3778 H 0.9098 0.55651 0.07569 0.0
H3779 H 0.88622 0.57046 0.06376 0.0
C3780 C 0.1815 0.08979 0.81144 0.0
C3781 C 0.16475 0.08385 0.80061 0.0
C3782 C 0.19237 0.10651 0.80997 0.0
C3783 C 0.19934 0.14088 0.77757 0.0
H3784 H 0.2294 0.16981 0.82055 0.0
C3785 C 0.25351 0.2041 0.77109 0.0
C3786 C 0.25569 0.21879 0.78481 0.0
C3787 C 0.24241 0.18762 0.77298 0.0
C3788 C 0.22098 0.16201 0.8084 0.0
H3789 H 0.14622 0.09044 0.77963 0.0
H3790 H 0.16506 0.11952 0.77698 0.0
H3791 H 0.20938 0.14183 0.8243 0.0
H3792 H 0.24832 0.22785 0.8113 0.0
H3793 H 0.22918 0.19917 0.81477 0.0
H3794 H 0.21045 0.16144 0.7618 0.0
C3795 C 0.16993 0.11144 0.78667 0.0
C3796 C 0.20965 0.14578 0.81052 0.0
C3797 C 0.159 0.09488 0.78836 0.0
C3798 C 0.24686 0.21669 0.80055 0.0
C3799 C 0.23597 0.2002 0.80256 0.0
C3800 C 0.21056 0.1572 0.77548 0.0
C3801 C 0.18683 0.11747 0.79736 0.0
C3802 C 0.19871 0.13494 0.79514 0.0
C3803 C 0.23349 0.18546 0.78876 0.0
C3804 C 0.22157 0.16798 0.79087 0.0
H3805 H 0.18622 0.08146 0.82095 0.0
H3806 H 0.20534 0.1106 0.81833 0.0
H3807 H 0.19132 0.13282 0.76532 0.0
H3808 H 0.25997 0.20551 0.75867 0.0
H3809 H 0.24093 0.17656 0.76212 0.0
C3810 C 0.35391 0.95927 0.31857 0.0
C3811 C 0.36826 0.96641 0.30931 0.0
C3812 C 0.34461 0.94166 0.31343 0.0
C3813 C 0.33243 0.90742 0.27414 0.0
H3814 H 0.32117 0.87593 0.31145 0.0
C3815 C 0.30026 0.83128 0.26349 0.0
C3816 C 0.28634 0.82641 0.27418 0.0
C3817 C 0.30948 0.84901 0.26492 0.0
C3818 C 0.32419 0.8847 0.30098 0.0
H3819 H 0.38441 0.96115 0.28766 0.0
H3820 H 0.36798 0.93023 0.27865 0.0
H3821 H 0.34054 0.90564 0.32077 0.0
H3822 H 0.27 0.83632 0.29349 0.0
H3823 H 0.28659 0.86714 0.29642 0.0
H3824 H 0.31598 0.88628 0.25435 0.0
C3825 C 0.36406 0.93823 0.28987 0.0
C3826 C 0.3352 0.90153 0.30627 0.0
C3827 C 0.37352 0.95574 0.29518 0.0
C3828 C 0.28079 0.83963 0.28519 0.0
C3829 C 0.29021 0.85724 0.28687 0.0
C3830 C 0.32142 0.89047 0.26881 0.0
C3831 C 0.3495 0.9312 0.29888 0.0
C3832 C 0.33911 0.91305 0.29294 0.0
C3833 C 0.30496 0.86182 0.27729 0.0
C3834 C 0.31702 0.87928 0.28232 0.0
H3835 H 0.34965 0.96739 0.32942 0.0
H3836 H 0.33327 0.93637 0.32042 0.0
H3837 H 0.33532 0.91628 0.26372 0.0
H3838 H 0.30476 0.82134 0.25496 0.0
H3839 H 0.32092 0.85247 0.25748 0.0
C3840 C 0.5649 0.34801 0.57785 0.0
C3841 C 0.55829 0.34041 0.59324 0.0
C3842 C 0.56293 0.36512 0.57397 0.0
C3843 C 0.54954 0.40747 0.59459 0.0
H3844 H 0.55051 0.41855 0.54418 0.0
C3845 C 0.54765 0.47984 0.57566 0.0
C3846 C 0.54042 0.48192 0.55765 0.0
C3847 C 0.54969 0.46298 0.58035 0.0
C3848 C 0.54994 0.41585 0.55837 0.0
H3849 H 0.54449 0.34574 0.61676 0.0
H3850 H 0.54079 0.37507 0.61002 0.0
H3851 H 0.55357 0.38945 0.55127 0.0
H3852 H 0.52956 0.46717 0.53058 0.0
H3853 H 0.53305 0.43818 0.53852 0.0
H3854 H 0.54521 0.43378 0.60146 0.0
C3855 C 0.54772 0.36798 0.60081 0.0
C3856 C 0.55207 0.39891 0.56261 0.0
C3857 C 0.54968 0.35082 0.60466 0.0
C3858 C 0.53522 0.46636 0.54459 0.0
C3859 C 0.53742 0.44955 0.5492 0.0
C3860 C 0.54728 0.42441 0.59031 0.0
C3861 C 0.55424 0.37563 0.58529 0.0
C3862 C 0.55194 0.39417 0.58083 0.0
C3863 C 0.54478 0.44736 0.5672 0.0
C3864 C 0.54736 0.42907 0.57204 0.0
H3865 H 0.57172 0.34071 0.56868 0.0
H3866 H 0.56861 0.37013 0.5621 0.0
H3867 H 0.54955 0.40499 0.60889 0.0
H3868 H 0.55173 0.4913 0.58629 0.0
H3869 H 0.55551 0.46237 0.59433 0.0
C3870 C 0.4461 0.7835 0.38557 0.0
C3871 C 0.44853 0.76855 0.394 0.0
C3872 C 0.42963 0.78379 0.37572 0.0
C3873 C 0.38382 0.75369 0.35591 0.0
H3874 H 0.37541 0.79889 0.34355 0.0
C3875 C 0.31607 0.76065 0.31685 0.0
C3876 C 0.31704 0.77223 0.30313 0.0
C3877 C 0.33147 0.75981 0.32845 0.0
C3878 C 0.37754 0.78609 0.34671 0.0
H3879 H 0.43506 0.74219 0.399 0.0
H3880 H 0.40621 0.7427 0.38244 0.0
H3881 H 0.40207 0.7985 0.36358 0.0
H3882 H 0.3351 0.79211 0.29104 0.0
H3883 H 0.36189 0.79075 0.31125 0.0
H3884 H 0.35847 0.74159 0.33956 0.0
C3885 C 0.4171 0.75424 0.38283 0.0
C3886 C 0.39315 0.78577 0.35824 0.0
C3887 C 0.43375 0.75394 0.39261 0.0
C3888 C 0.33385 0.78291 0.3013 0.0
C3889 C 0.34921 0.78226 0.31307 0.0
C3890 C 0.36797 0.7541 0.34472 0.0
C3891 C 0.41464 0.76918 0.37401 0.0
C3892 C 0.39697 0.76952 0.36278 0.0
C3893 C 0.34828 0.77074 0.32688 0.0
C3894 C 0.36475 0.77027 0.33962 0.0
H3895 H 0.45705 0.79515 0.38652 0.0
H3896 H 0.42906 0.79555 0.36915 0.0
H3897 H 0.38578 0.74076 0.35863 0.0
H3898 H 0.30333 0.75224 0.31866 0.0
H3899 H 0.33011 0.75087 0.33895 0.0
C3900 C 0.05213 0.72999 0.08185 0.0
C3901 C 0.04292 0.73636 0.09578 0.0
C3902 C 0.05175 0.71148 0.07808 0.0
C3903 C 0.03571 0.66647 0.09728 0.0
H3904 H 0.05107 0.6471 0.05249 0.0
C3905 C 0.02498 0.58891 0.07802 0.0
C3906 C 0.03583 0.58179 0.0663 0.0
C3907 C 0.0265 0.60753 0.08176 0.0
C3908 C 0.04684 0.6521 0.06525 0.0
H3909 H 0.02555 0.72748 0.11614 0.0
H3910 H 0.02409 0.69625 0.10922 0.0
H3911 H 0.05222 0.67867 0.05799 0.0
H3912 H 0.05675 0.58961 0.04926 0.0
H3913 H 0.06016 0.6216 0.05641 0.0
H3914 H 0.03031 0.63985 0.10448 0.0
C3915 C 0.03235 0.7051 0.10142 0.0
C3916 C 0.04749 0.67062 0.06848 0.0
C3917 C 0.03293 0.72343 0.10529 0.0
C3918 C 0.04839 0.59422 0.05866 0.0
C3919 C 0.05008 0.61286 0.06255 0.0
C3920 C 0.03494 0.64798 0.09398 0.0
C3921 C 0.04201 0.69848 0.08797 0.0
C3922 C 0.04177 0.67839 0.08452 0.0
C3923 C 0.03905 0.62004 0.07408 0.0
C3924 C 0.04036 0.64022 0.07782 0.0
H3925 H 0.06016 0.73935 0.07428 0.0
H3926 H 0.05959 0.70761 0.06765 0.0
H3927 H 0.03167 0.67122 0.11021 0.0
H3928 H 0.01499 0.58006 0.0842 0.0
H3929 H 0.01738 0.61196 0.09042 0.0
C3930 C 0.06609 0.27358 0.90633 0.0
C3931 C 0.05123 0.25926 0.90028 0.0
C3932 C 0.08244 0.27423 0.89921 0.0
C3933 C 0.10576 0.24599 0.86809 0.0
H3934 H 0.14002 0.29126 0.8711 0.0
C3935 C 0.16296 0.25953 0.82137 0.0
C3936 C 0.17909 0.27174 0.82879 0.0
C3937 C 0.14872 0.25586 0.83199 0.0
C3938 C 0.13072 0.27842 0.87028 0.0
H3939 H 0.0421 0.23436 0.88187 0.0
H3940 H 0.06966 0.23582 0.86883 0.0
H3941 H 0.11289 0.29004 0.88507 0.0
H3942 H 0.19313 0.28908 0.85344 0.0
H3943 H 0.16858 0.28237 0.87215 0.0
H3944 H 0.12351 0.23478 0.85226 0.0
C3945 C 0.06935 0.24645 0.87951 0.0
C3946 C 0.11494 0.27764 0.87846 0.0
C3947 C 0.05317 0.2457 0.88684 0.0
C3948 C 0.18104 0.27928 0.84747 0.0
C3949 C 0.16681 0.27569 0.85807 0.0
C3950 C 0.12135 0.2469 0.85952 0.0
C3951 C 0.08447 0.26067 0.88555 0.0
C3952 C 0.10194 0.26142 0.87743 0.0
C3953 C 0.15018 0.2645 0.85026 0.0
C3954 C 0.13405 0.26315 0.8604 0.0
H3955 H 0.06518 0.28426 0.91675 0.0
H3956 H 0.09347 0.28535 0.90479 0.0
H3957 H 0.09683 0.233 0.86729 0.0
H3958 H 0.16084 0.25396 0.80686 0.0
H3959 H 0.13614 0.24726 0.8254 0.0
C3960 C 0.55589 0.74179 0.91026 0.0
C3961 C 0.54253 0.75137 0.91134 0.0
C3962 C 0.55482 0.726 0.91836 0.0
C3963 C 0.53035 0.70062 0.95334 0.0
H3964 H 0.55749 0.6662 0.93856 0.0
C3965 C 0.53325 0.64253 0.99587 0.0
C3966 C 0.53165 0.62567 0.98581 0.0
C3967 C 0.5371 0.65804 0.98721 0.0
C3968 C 0.54969 0.67556 0.94285 0.0
H3969 H 0.5172 0.75171 0.92118 0.0
H3970 H 0.51489 0.72406 0.93496 0.0
H3971 H 0.55684 0.69103 0.92108 0.0
H3972 H 0.5338 0.61184 0.9592 0.0
H3973 H 0.54049 0.63873 0.94399 0.0
H3974 H 0.52219 0.68438 0.97426 0.0
C3975 C 0.52659 0.72874 0.92833 0.0
C3976 C 0.54952 0.69015 0.93291 0.0
C3977 C 0.5277 0.74455 0.92015 0.0
C3978 C 0.53518 0.62472 0.96731 0.0
C3979 C 0.53898 0.64021 0.9586 0.0
C3980 C 0.53023 0.68586 0.963 0.0
C3981 C 0.54033 0.7193 0.92795 0.0
C3982 C 0.53994 0.7031 0.93803 0.0
C3983 C 0.5392 0.65706 0.96818 0.0
C3984 C 0.54 0.67314 0.95805 0.0
H3985 H 0.56737 0.74667 0.90331 0.0
H3986 H 0.56582 0.71953 0.91759 0.0
H3987 H 0.52302 0.71016 0.95825 0.0
H3988 H 0.5304 0.64361 0.01011 0.0
H3989 H 0.53769 0.67075 0.99528 0.0
C3990 C 0.07626 0.76137 0.73548 0.0
C3991 C 0.06814 0.758 0.71686 0.0
C3992 C 0.0949 0.76257 0.74002 0.0
C3993 C 0.13598 0.75334 0.71838 0.0
H3994 H 0.16174 0.78057 0.76421 0.0
C3995 C 0.21248 0.7557 0.73851 0.0
C3996 C 0.2233 0.76951 0.75164 0.0
C3997 C 0.19387 0.75426 0.73427 0.0
C3998 C 0.1551 0.77307 0.75112 0.0
H3999 H 0.07382 0.75281 0.68859 0.0
H4000 H 0.10534 0.75513 0.69619 0.0
H4001 H 0.1301 0.77863 0.75704 0.0
H4002 H 0.22248 0.79261 0.77058 0.0
H4003 H 0.19064 0.79039 0.76335 0.0
H4004 H 0.16101 0.74858 0.71187 0.0
C4005 C 0.09773 0.75671 0.7076 0.0
C4006 C 0.13647 0.77165 0.74712 0.0
C4007 C 0.07932 0.75559 0.70313 0.0
C4008 C 0.21476 0.78181 0.76034 0.0
C4009 C 0.19616 0.78033 0.75624 0.0
C4010 C 0.15464 0.75502 0.72221 0.0
C4011 C 0.10614 0.76029 0.72614 0.0
C4012 C 0.12634 0.76171 0.73066 0.0
C4013 C 0.1851 0.7665 0.74309 0.0
C4014 C 0.16479 0.76487 0.73875 0.0
H4015 H 0.06832 0.7634 0.74653 0.0
H4016 H 0.10039 0.76515 0.75453 0.0
H4017 H 0.12916 0.7452 0.70566 0.0
H4018 H 0.21846 0.74602 0.7313 0.0
H4019 H 0.18642 0.74323 0.7242 0.0
C4020 C 0.01944 0.36236 0.41959 0.0
C4021 C 0.03481 0.35549 0.41925 0.0
C4022 C 0.02019 0.37914 0.4294 0.0
C4023 C 0.04603 0.41112 0.4693 0.0
H4024 H 0.01816 0.44301 0.45065 0.0
C4025 C 0.04683 0.47952 0.51183 0.0
C4026 C 0.03121 0.48594 0.51015 0.0
C4027 C 0.04809 0.46421 0.50034 0.0
C4028 C 0.02584 0.43421 0.45628 0.0
H4029 H 0.06316 0.36109 0.42879 0.0
H4030 H 0.06442 0.39024 0.44656 0.0
H4031 H 0.01929 0.41595 0.43102 0.0
H4032 H 1.00427 0.48085 0.49594 0.0
H4033 H 0.0062 0.45408 0.47618 0.0
H4034 H 0.05223 0.42905 0.49471 0.0
C4035 C 0.05175 0.38266 0.43905 0.0
C4036 C 0.02656 0.41864 0.4449 0.0
C4037 C 0.05108 0.36599 0.42879 0.0
C4038 C 0.01666 0.47645 0.49718 0.0
C4039 C 0.01784 0.46109 0.48579 0.0
C4040 C 0.0452 0.42662 0.48075 0.0
C4041 C 0.03626 0.38944 0.4396 0.0
C4042 C 0.03653 0.40674 0.45128 0.0
C4043 C 0.03365 0.45476 0.487 0.0
C4044 C 0.03497 0.43839 0.47452 0.0
H4045 H 0.00675 0.35468 0.41221 0.0
H4046 H 0.00796 0.38377 0.42947 0.0
H4047 H 0.05367 0.40225 0.47485 0.0
H4048 H 0.0582 0.48658 0.52178 0.0
H4049 H 0.06057 0.46003 0.50172 0.0
C4050 C 0.45372 0.23519 0.23274 0.0
C4051 C 0.46305 0.24509 0.22018 0.0
C4052 C 0.4366 0.23711 0.23665 0.0
C4053 C 0.39982 0.26298 0.2241 0.0
H4054 H 0.37663 0.23592 0.26004 0.0
C4055 C 0.33332 0.27625 0.24984 0.0
C4056 C 0.32103 0.26238 0.25602 0.0
C4057 C 0.35005 0.27398 0.24503 0.0
C4058 C 0.38262 0.24354 0.24975 0.0
H4059 H 0.46088 0.26493 0.20182 0.0
H4060 H 0.43174 0.26848 0.20843 0.0
H4061 H 0.40525 0.23221 0.25285 0.0
H4062 H 0.31727 0.23495 0.26156 0.0
H4063 H 0.34603 0.23092 0.25319 0.0
H4064 H 0.37667 0.27409 0.22108 0.0
C4065 C 0.43726 0.25902 0.21558 0.0
C4066 C 0.39961 0.2415 0.24555 0.0
C4067 C 0.45441 0.25704 0.21168 0.0
C4068 C 0.3262 0.24608 0.25702 0.0
C4069 C 0.34297 0.24381 0.25227 0.0
C4070 C 0.3828 0.265 0.22833 0.0
C4071 C 0.4277 0.2491 0.22823 0.0
C4072 C 0.40892 0.2512 0.23262 0.0
C4073 C 0.3554 0.25772 0.24619 0.0
C4074 C 0.37374 0.25538 0.24133 0.0
H4075 H 0.45963 0.22573 0.23961 0.0
H4076 H 0.43058 0.22888 0.24639 0.0
H4077 H 0.40561 0.27087 0.21397 0.0
H4078 H 0.33002 0.289 0.24864 0.0
H4079 H 0.35892 0.28524 0.24068 0.0
C4080 C 0.61353 0.52187 0.36608 0.0
C4081 C 0.60577 0.53126 0.35321 0.0
C4082 C 0.60879 0.52181 0.38423 0.0
C4083 C 0.58527 0.54586 0.41807 0.0
H4084 H 0.58357 0.50413 0.44354 0.0
C4085 C 0.54757 0.53646 0.48207 0.0
C4086 C 0.55458 0.52858 0.49679 0.0
C4087 C 0.5551 0.53697 0.46541 0.0
C4088 C 0.58412 0.516 0.43675 0.0
H4089 H 0.58688 0.54796 0.34965 0.0
H4090 H 0.57827 0.54743 0.38058 0.0
H4091 H 0.59428 0.50462 0.41328 0.0
H4092 H 0.57531 0.51521 0.50541 0.0
H4093 H 0.58861 0.51623 0.47637 0.0
H4094 H 0.57479 0.55707 0.44135 0.0
C4095 C 0.58835 0.54038 0.37705 0.0
C4096 C 0.59034 0.51631 0.41929 0.0
C4097 C 0.59314 0.54051 0.35904 0.0
C4098 C 0.56947 0.52129 0.49436 0.0
C4099 C 0.57705 0.5218 0.47763 0.0
C4100 C 0.57892 0.54547 0.43539 0.0
C4101 C 0.59611 0.53113 0.39008 0.0
C4102 C 0.59072 0.53114 0.40944 0.0
C4103 C 0.57 0.52971 0.46289 0.0
C4104 C 0.57795 0.53043 0.44491 0.0
H4105 H 0.62342 0.5147 0.36221 0.0
H4106 H 0.61533 0.51468 0.39373 0.0
H4107 H 0.58586 0.55783 0.41149 0.0
H4108 H 0.53621 0.54235 0.4834 0.0
H4109 H 0.54905 0.54292 0.45439 0.0
C4110 C 0.27544 0.90782 0.06332 0.0
C4111 C 0.27805 0.89847 0.04675 0.0
C4112 C 0.27717 0.90048 0.07987 0.0
C4113 C 0.29679 0.86746 0.10136 0.0
H4114 H 0.25563 0.86001 0.12838 0.0
C4115 C 0.29181 0.8179 0.15125 0.0
C4116 C 0.29229 0.82605 0.16935 0.0
C4117 C 0.28587 0.82578 0.13635 0.0
C4118 C 0.26715 0.86207 0.12091 0.0
H4119 H 0.28575 0.87509 0.03427 0.0
H4120 H 0.28888 0.86234 0.06309 0.0
H4121 H 0.25672 0.87885 0.10328 0.0
H4122 H 0.28512 0.84714 0.18663 0.0
H4123 H 0.27506 0.86136 0.16036 0.0
H4124 H 0.30714 0.85054 0.1186 0.0
C4125 C 0.28522 0.8751 0.06338 0.0
C4126 C 0.2679 0.87295 0.10682 0.0
C4127 C 0.28315 0.88221 0.04689 0.0
C4128 C 0.28485 0.84084 0.17261 0.0
C4129 C 0.27905 0.84886 0.15766 0.0
C4130 C 0.296 0.85657 0.11529 0.0
C4131 C 0.28198 0.88403 0.0799 0.0
C4132 C 0.28254 0.87533 0.09672 0.0
C4133 C 0.28072 0.84201 0.13956 0.0
C4134 C 0.28099 0.85346 0.12483 0.0
H4135 H 0.27181 0.92057 0.06338 0.0
H4136 H 0.27473 0.90757 0.09258 0.0
H4137 H 0.30832 0.86937 0.09388 0.0
H4138 H 0.29737 0.80632 0.14867 0.0
H4139 H 0.2869 0.82017 0.12239 0.0
C4140 C 0.91857 0.50825 0.87669 0.0
C4141 C 0.91632 0.52474 0.87193 0.0
C4142 C 0.92517 0.50686 0.89466 0.0
C4143 C 0.93855 0.52943 0.94211 0.0
H4144 H 0.98033 0.50991 0.93767 0.0
C4145 C 0.99538 0.54029 0.00148 0.0
C4146 C 1.00308 0.52584 0.00418 0.0
C4147 C 0.98338 0.53942 0.98577 0.0
C4148 C 0.96856 0.51509 0.93921 0.0
H4149 H 0.9173 0.55229 0.88189 0.0
H4150 H 0.92994 0.55015 0.91367 0.0
H4151 H 0.95939 0.50883 0.9103 0.0
H4152 H 1.00474 0.49929 0.99318 0.0
H4153 H 0.98302 0.49733 0.96585 0.0
H4154 H 0.94786 0.53575 0.97112 0.0
C4155 C 0.92626 0.53827 0.90356 0.0
C4156 C 0.95658 0.51447 0.92357 0.0
C4157 C 0.91926 0.53956 0.8855 0.0
C4158 C 0.99896 0.51059 0.99105 0.0
C4159 C 0.98661 0.50952 0.97553 0.0
C4160 C 0.95049 0.52989 0.95787 0.0
C4161 C 0.92999 0.52208 0.90792 0.0
C4162 C 0.94157 0.5217 0.92491 0.0
C4163 C 0.97867 0.52391 0.97284 0.0
C4164 C 0.96565 0.52285 0.95646 0.0
H4165 H 0.91584 0.49658 0.8663 0.0
H4166 H 0.92763 0.49419 0.8979 0.0
H4167 H 0.92703 0.5351 0.94333 0.0
H4168 H 0.99868 0.55226 0.01148 0.0
H4169 H 0.97782 0.55086 0.98375 0.0
C4170 C 0.27531 0.21226 0.5738 0.0
C4171 C 0.27996 0.19598 0.56885 0.0
C4172 C 0.27486 0.21845 0.59255 0.0
C4173 C 0.29075 0.21208 0.64123 0.0
H4174 H 0.25352 0.23554 0.65419 0.0
C4175 C 0.28417 0.23179 0.7187 0.0
C4176 C 0.27709 0.2466 0.72387 0.0
C4177 C 0.28372 0.22521 0.69996 0.0
C4178 C 0.26425 0.2293 0.65099 0.0
H4179 H 0.28801 0.17362 0.58012 0.0
H4180 H 0.28707 0.18421 0.61233 0.0
H4181 H 0.25493 0.22568 0.62179 0.0
H4182 H 0.26392 0.266 0.71289 0.0
H4183 H 0.26358 0.25504 0.68039 0.0
H4184 H 0.30045 0.21599 0.67013 0.0
C4185 C 0.28399 0.19242 0.60188 0.0
C4186 C 0.26501 0.22356 0.63221 0.0
C4187 C 0.28446 0.18628 0.58324 0.0
C4188 C 0.26938 0.25451 0.70959 0.0
C4189 C 0.26913 0.24806 0.69077 0.0
C4190 C 0.29013 0.218 0.65995 0.0
C4191 C 0.27907 0.20855 0.60691 0.0
C4192 C 0.27828 0.21486 0.62699 0.0
C4193 C 0.27644 0.23334 0.68552 0.0
C4194 C 0.27687 0.22676 0.66529 0.0
H4195 H 0.27168 0.22007 0.56317 0.0
H4196 H 0.27124 0.23105 0.59579 0.0
H4197 H 0.30134 0.20566 0.63791 0.0
H4198 H 0.29014 0.22516 0.72917 0.0
H4199 H 0.28906 0.21359 0.69693 0.0
C4200 C 0.59199 0.51777 0.2382 0.0
C4201 C 0.61014 0.52503 0.2448 0.0
C4202 C 0.58543 0.51754 0.21939 0.0
C4203 C 0.59758 0.53851 0.17645 0.0
H4204 H 0.55773 0.50092 0.15213 0.0
C4205 C 0.56481 0.54168 0.10164 0.0
C4206 C 0.55516 0.52594 0.09043 0.0
C4207 C 0.57169 0.54145 0.12019 0.0
C4208 C 0.56907 0.51145 0.15841 0.0
H4209 H 0.63555 0.53792 0.23669 0.0
H4210 H 0.62436 0.5374 0.20437 0.0
H4211 H 0.56937 0.50028 0.18404 0.0
H4212 H 0.54624 0.4973 0.08994 0.0
H4213 H 0.55902 0.49662 0.12155 0.0
H4214 H 0.59808 0.54915 0.15062 0.0
C4215 C 0.61496 0.53198 0.21349 0.0
C4216 C 0.57558 0.51126 0.17709 0.0
C4217 C 0.62149 0.53208 0.23214 0.0
C4218 C 0.55329 0.50981 0.09815 0.0
C4219 C 0.56054 0.50948 0.11655 0.0
C4220 C 0.59131 0.53853 0.15767 0.0
C4221 C 0.59679 0.52475 0.20668 0.0
C4222 C 0.58988 0.52484 0.18654 0.0
C4223 C 0.56966 0.52533 0.12812 0.0
C4224 C 0.5768 0.52507 0.14824 0.0
H4225 H 0.58291 0.51214 0.24752 0.0
H4226 H 0.57134 0.51197 0.21494 0.0
H4227 H 0.60842 0.54945 0.18305 0.0
H4228 H 0.56701 0.55428 0.09616 0.0
H4229 H 0.57834 0.5541 0.1283 0.0
C4230 C 0.25843 0.87335 0.93567 0.0
C4231 C 0.27261 0.88768 0.94306 0.0
C4232 C 0.25836 0.86469 0.91807 0.0
C4233 C 0.28022 0.86441 0.87596 0.0
H4234 H 0.27223 0.81374 0.88047 0.0
C4235 C 0.2932 0.8125 0.82063 0.0
C4236 C 0.2776 0.79936 0.81376 0.0
C4237 C 0.29382 0.82366 0.83688 0.0
C4238 C 0.27446 0.82785 0.87911 0.0
H4239 H 0.29723 0.90524 0.93831 0.0
H4240 H 0.29749 0.88961 0.90748 0.0
H4241 H 0.26948 0.83455 0.90673 0.0
H4242 H 0.25106 0.78632 0.81873 0.0
H4243 H 0.25228 0.80569 0.84779 0.0
H4244 H 0.28542 0.85749 0.84825 0.0
C4245 C 0.28621 0.88538 0.91493 0.0
C4246 C 0.27275 0.8397 0.89395 0.0
C4247 C 0.28608 0.89425 0.93245 0.0
C4248 C 0.26316 0.7964 0.82396 0.0
C4249 C 0.26385 0.80747 0.84038 0.0
C4250 C 0.28206 0.8525 0.86107 0.0
C4251 C 0.27279 0.87002 0.90811 0.0
C4252 C 0.27515 0.85796 0.89232 0.0
C4253 C 0.27897 0.82144 0.84653 0.0
C4254 C 0.27883 0.83416 0.86256 0.0
H4255 H 0.24807 0.86819 0.94393 0.0
H4256 H 0.24774 0.85303 0.91281 0.0
H4257 H 0.28231 0.8785 0.87458 0.0
H4258 H 0.30467 0.81454 0.81306 0.0
H4259 H 0.30566 0.83421 0.84169 0.0
C4260 C 0.89757 0.51582 0.75272 0.0
C4261 C 0.90731 0.52668 0.7687 0.0
C4262 C 0.90503 0.5151 0.73624 0.0
C4263 C 0.93998 0.5397 0.71221 0.0
H4264 H 0.93519 0.49337 0.6837 0.0
C4265 C 0.9847 0.52242 0.65845 0.0
C4266 C 0.97646 0.50998 0.64304 0.0
C4267 C 0.97448 0.52762 0.67166 0.0
C4268 C 0.93629 0.50643 0.69133 0.0
H4269 H 0.93232 0.54536 0.78009 0.0
H4270 H 0.94542 0.54401 0.75121 0.0
H4271 H 0.92139 0.49533 0.71205 0.0
H4272 H 0.95139 0.49425 0.62809 0.0
H4273 H 0.93334 0.50322 0.65141 0.0
H4274 H 0.95557 0.55064 0.69177 0.0
C4275 C 0.93197 0.53625 0.7514 0.0
C4276 C 0.92847 0.50753 0.70756 0.0
C4277 C 0.92451 0.53697 0.76791 0.0
C4278 C 0.95784 0.50383 0.64004 0.0
C4279 C 0.94762 0.50892 0.65331 0.0
C4280 C 0.94793 0.53857 0.69601 0.0
C4281 C 0.9223 0.52526 0.73548 0.0
C4282 C 0.9303 0.52417 0.71815 0.0
C4283 C 0.956 0.52021 0.66957 0.0
C4284 C 0.94615 0.52192 0.68551 0.0
H4285 H 0.88432 0.50762 0.753 0.0
H4286 H 0.89727 0.50662 0.7241 0.0
H4287 H 0.94139 0.5527 0.72008 0.0
H4288 H 0.99911 0.52725 0.66078 0.0
H4289 H 0.9812 0.53629 0.68415 0.0
C4290 C 0.25815 0.19504 0.44778 0.0
C4291 C 0.27362 0.19747 0.46062 0.0
C4292 C 0.25923 0.20003 0.42992 0.0
C4293 C 0.28796 0.23125 0.40425 0.0
H4294 H 0.25741 0.20376 0.36078 0.0
C4295 C 0.29191 0.25268 0.33013 0.0
C4296 C 0.27583 0.24954 0.31808 0.0
C4297 C 0.29232 0.24598 0.34732 0.0
C4298 C 0.26591 0.21175 0.37279 0.0
H4299 H 0.30242 0.20665 0.46466 0.0
H4300 H 0.30435 0.21598 0.43362 0.0
H4301 H 0.25706 0.19207 0.39054 0.0
H4302 H 0.24736 0.23779 0.31525 0.0
H4303 H 0.24803 0.22617 0.34493 0.0
H4304 H 0.29659 0.25108 0.3866 0.0
C4305 C 0.29133 0.21011 0.43732 0.0
C4306 C 0.26574 0.20499 0.38991 0.0
C4307 C 0.29027 0.20469 0.45508 0.0
C4308 C 0.26011 0.23999 0.32389 0.0
C4309 C 0.26049 0.2333 0.341 0.0
C4310 C 0.28808 0.23806 0.38714 0.0
C4311 C 0.2758 0.20799 0.42452 0.0
C4312 C 0.27668 0.21469 0.40595 0.0
C4313 C 0.27663 0.23601 0.35295 0.0
C4314 C 0.27696 0.22849 0.37115 0.0
H4315 H 0.24515 0.18927 0.45159 0.0
H4316 H 0.24696 0.19817 0.42056 0.0
H4317 H 0.29637 0.23927 0.4163 0.0
H4318 H 0.30427 0.25993 0.32608 0.0
H4319 H 0.30504 0.24829 0.35601 0.0
C4320 C 0.31275 0.58832 0.55737 0.0
C4321 C 0.30815 0.60074 0.5462 0.0
C4322 C 0.33024 0.58639 0.5598 0.0
C4323 C 0.36903 0.59239 0.53532 0.0
H4324 H 0.39294 0.58168 0.58075 0.0
C4325 C 0.435 0.57643 0.53287 0.0
C4326 C 0.43359 0.55853 0.53541 0.0
C4327 C 0.42339 0.58571 0.5404 0.0
C4328 C 0.38642 0.58487 0.5681 0.0
H4329 H 0.31811 0.62137 0.52939 0.0
H4330 H 0.34872 0.61794 0.53358 0.0
H4331 H 0.36428 0.5904 0.58109 0.0
H4332 H 0.42079 0.53668 0.54922 0.0
H4333 H 0.39999 0.55288 0.56217 0.0
H4334 H 0.39069 0.5865 0.52217 0.0
C4335 C 0.33878 0.60957 0.54026 0.0
C4336 C 0.37009 0.58971 0.56824 0.0
C4337 C 0.32129 0.61147 0.5378 0.0
C4338 C 0.42195 0.55055 0.54722 0.0
C4339 C 0.4102 0.55982 0.55468 0.0
C4340 C 0.38531 0.58778 0.53524 0.0
C4341 C 0.34332 0.59685 0.55108 0.0
C4342 C 0.36123 0.59333 0.55176 0.0
C4343 C 0.41016 0.57703 0.55026 0.0
C4344 C 0.39409 0.5839 0.55157 0.0
H4345 H 0.30291 0.58019 0.56438 0.0
H4346 H 0.33338 0.57638 0.56807 0.0
H4347 H 0.36223 0.59454 0.52231 0.0
H4348 H 0.444 0.5827 0.52379 0.0
H4349 H 0.42356 0.59903 0.53695 0.0
C4350 C 0.861 0.90903 0.55077 0.0
C4351 C 0.84584 0.9158 0.54635 0.0
C4352 C 0.8782 0.91941 0.5503 0.0
C4353 C 0.90256 0.95673 0.52887 0.0
H4354 H 0.9399 0.96122 0.57 0.0
C4355 C 0.97028 0.0073 0.53222 0.0
C4356 C 0.98585 0.0035 0.54089 0.0
C4357 C 0.95341 0.99647 0.5332 0.0
C4358 C 0.9298 0.95993 0.55819 0.0
H4359 H 0.83684 0.93868 0.53779 0.0
H4360 H 0.8669 0.95666 0.53651 0.0
H4361 H 0.91037 0.94234 0.57079 0.0
H4362 H 0.99577 0.98493 0.55713 0.0
H4363 H 0.96661 0.9656 0.55804 0.0
H4364 H 0.92192 0.97371 0.51588 0.0
C4365 C 0.86546 0.94337 0.5405 0.0
C4366 C 0.91279 0.94913 0.55874 0.0
C4367 C 0.84826 0.93313 0.54134 0.0
C4368 C 0.98408 0.98846 0.55048 0.0
C4369 C 0.96724 0.97737 0.5511 0.0
C4370 C 0.91963 0.96727 0.52816 0.0
C4371 C 0.88063 0.93665 0.54502 0.0
C4372 C 0.89891 0.9476 0.54419 0.0
C4373 C 0.95159 0.98118 0.54245 0.0
C4374 C 0.9335 0.96928 0.54293 0.0
H4375 H 0.85956 0.89574 0.55476 0.0
H4376 H 0.88961 0.91382 0.55378 0.0
H4377 H 0.89224 0.95556 0.51728 0.0
H4378 H 0.97106 0.01843 0.52428 0.0
H4379 H 0.9418 1.00017 0.52663 0.0
C4380 C 0.87449 0.05828 0.24829 0.0
C4381 C 0.88735 0.05553 0.26206 0.0
C4382 C 0.86885 0.07425 0.2493 0.0
C4383 C 0.86712 0.11262 0.28332 0.0
H4384 H 0.85134 0.13174 0.23911 0.0
C4385 C 0.84234 0.1766 0.28962 0.0
C4386 C 0.82472 0.17436 0.28114 0.0
C4387 C 0.85231 0.16428 0.2847 0.0
C4388 C 0.85575 0.12654 0.25153 0.0
H4389 H 0.90482 0.06766 0.28742 0.0
H4390 H 0.89521 0.09568 0.28909 0.0
H4391 H 0.865 0.1061 0.23613 0.0
H4392 H 0.80403 0.15835 0.26011 0.0
H4393 H 0.82168 0.1368 0.25116 0.0
H4394 H 0.85801 0.13315 0.29868 0.0
C4395 C 0.88916 0.08533 0.27767 0.0
C4396 C 0.86347 0.11179 0.24987 0.0
C4397 C 0.89475 0.06929 0.27669 0.0
C4398 C 0.81773 0.16049 0.26655 0.0
C4399 C 0.82778 0.14815 0.26154 0.0
C4400 C 0.85969 0.12748 0.28497 0.0
C4401 C 0.87598 0.08795 0.26408 0.0
C4402 C 0.86904 0.10448 0.26576 0.0
C4403 C 0.84483 0.14951 0.27121 0.0
C4404 C 0.8538 0.1345 0.26911 0.0
H4405 H 0.86865 0.04803 0.23671 0.0
H4406 H 0.85854 0.0756 0.23869 0.0
H4407 H 0.87082 0.1072 0.29584 0.0
H4408 H 0.84787 0.1871 0.30107 0.0
H4409 H 0.86549 0.16571 0.29222 0.0
C4410 C 0.70025 0.11525 0.05052 0.0
C4411 C 0.71126 0.10608 0.04128 0.0
C4412 C 0.68299 0.10645 0.05224 0.0
C4413 C 0.64907 0.07384 0.02456 0.0
H4414 H 0.62242 0.07538 0.06658 0.0
C4415 C 0.57823 0.03452 0.02494 0.0
C4416 C 0.56759 0.04244 0.03581 0.0
C4417 C 0.59547 0.04378 0.02394 0.0
C4418 C 0.62975 0.07522 0.05473 0.0
H4419 H 0.71352 0.08051 0.02756 0.0
H4420 H 0.68313 0.06525 0.03037 0.0
H4421 H 0.65487 0.08669 0.07146 0.0
H4422 H 0.56514 0.06601 0.05311 0.0
H4423 H 0.5954 0.0827 0.05085 0.0
H4424 H 0.62414 0.06277 0.00773 0.0
C4425 C 0.68794 0.07915 0.03622 0.0
C4426 C 0.64817 0.08138 0.05758 0.0
C4427 C 0.70512 0.08793 0.03441 0.0
C4428 C 0.57337 0.06004 0.0444 0.0
C4429 C 0.59057 0.06939 0.04329 0.0
C4430 C 0.63073 0.06788 0.02168 0.0
C4431 C 0.67672 0.08854 0.04464 0.0
C4432 C 0.65778 0.08066 0.04246 0.0
C4433 C 0.60194 0.06089 0.03391 0.0
C4434 C 0.62101 0.06858 0.03671 0.0
H4435 H 0.70489 0.12919 0.05629 0.0
H4436 H 0.6743 0.11384 0.05862 0.0
H4437 H 0.65641 0.07359 0.0127 0.0
H4438 H 0.57373 0.02074 0.01856 0.0
H4439 H 0.60415 0.03696 0.01678 0.0
C4440 C 0.21627 0.49149 0.25692 0.0
C4441 C 0.20394 0.49608 0.26823 0.0
C4442 C 0.21813 0.47399 0.25438 0.0
C4443 C 0.21159 0.43492 0.27858 0.0
H4444 H 0.22227 0.41118 0.23308 0.0
C4445 C 0.22682 0.36874 0.28069 0.0
C4446 C 0.24472 0.37004 0.27821 0.0
C4447 C 0.21766 0.38044 0.27319 0.0
C4448 C 0.21907 0.41765 0.24574 0.0
H4449 H 0.18347 0.48612 0.28525 0.0
H4450 H 0.18664 0.45556 0.28073 0.0
H4451 H 0.21405 0.44008 0.23295 0.0
H4452 H 0.26677 0.38283 0.26463 0.0
H4453 H 0.2508 0.40383 0.25177 0.0
H4454 H 0.21692 0.41298 0.29152 0.0
C4455 C 0.19506 0.46548 0.27407 0.0
C4456 C 0.21453 0.43413 0.24573 0.0
C4457 C 0.1933 0.48296 0.27672 0.0
C4458 C 0.25289 0.38175 0.26657 0.0
C4459 C 0.24374 0.3936 0.25914 0.0
C4460 C 0.21586 0.4185 0.27851 0.0
C4461 C 0.20765 0.46091 0.2631 0.0
C4462 C 0.21095 0.44292 0.26225 0.0
C4463 C 0.22648 0.39367 0.26343 0.0
C4464 C 0.21974 0.4098 0.26217 0.0
H4465 H 0.22433 0.50134 0.24986 0.0
H4466 H 0.22804 0.47082 0.24598 0.0
H4467 H 0.20947 0.44164 0.29163 0.0
H4468 H 0.22043 0.35969 0.28967 0.0
H4469 H 0.20432 0.38032 0.27657 0.0
C4470 C 0.23267 0.41256 0.03574 0.0
C4471 C 0.24674 0.41854 0.05029 0.0
C4472 C 0.21677 0.41844 0.03605 0.0
C4473 C 0.19466 0.44887 0.06655 0.0
H4474 H 0.15955 0.43823 0.02273 0.0
C4475 C 0.14272 0.49063 0.05117 0.0
C4476 C 0.12643 0.48226 0.04028 0.0
C4477 C 0.15546 0.48084 0.05553 0.0
C4478 C 0.16908 0.44116 0.03524 0.0
H4479 H 0.25504 0.43527 0.07676 0.0
H4480 H 0.22846 0.44597 0.07723 0.0
H4481 H 0.18492 0.42536 0.0231 0.0
H4482 H 0.1101 0.45705 0.02636 0.0
H4483 H 0.13204 0.43974 0.0345 0.0
H4484 H 0.17846 0.46523 0.07817 0.0
C4485 C 0.22881 0.43654 0.06543 0.0
C4486 C 0.18404 0.43374 0.03553 0.0
C4487 C 0.24454 0.43051 0.06515 0.0
C4488 C 0.12249 0.46371 0.03504 0.0
C4489 C 0.13518 0.45389 0.03944 0.0
C4490 C 0.1798 0.45646 0.06611 0.0
C4491 C 0.21441 0.4307 0.05089 0.0
C4492 C 0.19749 0.43767 0.05106 0.0
C4493 C 0.15216 0.46249 0.049 0.0
C4494 C 0.16695 0.45293 0.05036 0.0
H4495 H 0.23384 0.40318 0.02411 0.0
H4496 H 0.20651 0.41301 0.02448 0.0
H4497 H 0.20376 0.45217 0.07927 0.0
H4498 H 0.14619 0.50499 0.05497 0.0
H4499 H 0.1684 0.48796 0.06279 0.0
C4500 C 0.89042 0.94331 0.25662 0.0
C4501 C 0.88731 0.95796 0.26773 0.0
C4502 C 0.88041 0.92599 0.25731 0.0
C4503 C 0.85305 0.89874 0.28742 0.0
H4504 H 0.83349 0.8671 0.24177 0.0
C4505 C 0.79981 0.83317 0.28647 0.0
C4506 C 0.80112 0.81804 0.27477 0.0
C4507 C 0.81075 0.84997 0.28544 0.0
C4508 C 0.83903 0.87566 0.25468 0.0
H4509 H 0.87171 0.96611 0.28852 0.0
H4510 H 0.85453 0.93581 0.29018 0.0
H4511 H 0.85211 0.89672 0.24048 0.0
H4512 H 0.81484 0.80876 0.25266 0.0
H4513 H 0.83386 0.83805 0.25081 0.0
H4514 H 0.84006 0.87772 0.30165 0.0
C4515 C 0.86452 0.93765 0.28076 0.0
C4516 C 0.84971 0.89267 0.25393 0.0
C4517 C 0.87423 0.95501 0.27973 0.0
C4518 C 0.81344 0.82016 0.26183 0.0
C4519 C 0.82432 0.83698 0.26072 0.0
C4520 C 0.84243 0.88173 0.28818 0.0
C4521 C 0.86739 0.92292 0.26948 0.0
C4522 C 0.8567 0.90451 0.27029 0.0
C4523 C 0.82324 0.8521 0.27264 0.0
C4524 C 0.8351 0.87001 0.27181 0.0
H4525 H 0.90042 0.9453 0.24721 0.0
H4526 H 0.88304 0.91496 0.24851 0.0
H4527 H 0.85851 0.90738 0.30031 0.0
H4528 H 0.79061 0.83198 0.29674 0.0
H4529 H 0.80935 0.86132 0.29467 0.0
C4530 C 0.71481 0.09872 0.78034 0.0
C4531 C 0.69693 0.09191 0.77263 0.0
C4532 C 0.72313 0.1161 0.77884 0.0
C4533 C 0.72096 0.15515 0.75645 0.0
H4534 H 0.73889 0.17997 0.80614 0.0
C4535 C 0.74315 0.22998 0.76869 0.0
C4536 C 0.76061 0.23581 0.7777 0.0
C4537 C 0.73368 0.21283 0.76968 0.0
C4538 C 0.73397 0.17316 0.79224 0.0
H4539 H 0.67383 0.09739 0.75664 0.0
H4540 H 0.68837 0.12838 0.75484 0.0
H4541 H 0.72743 0.14781 0.80179 0.0
H4542 H 0.78194 0.22972 0.79558 0.0
H4543 H 0.76546 0.19935 0.79726 0.0
H4544 H 0.72783 0.18057 0.74688 0.0
C4545 C 0.69589 0.12003 0.76164 0.0
C4546 C 0.7276 0.15488 0.78973 0.0
C4547 C 0.68755 0.10254 0.76303 0.0
C4548 C 0.76825 0.22523 0.7889 0.0
C4549 C 0.75887 0.208 0.78979 0.0
C4550 C 0.7275 0.1735 0.75895 0.0
C4551 C 0.71356 0.12688 0.76992 0.0
C4552 C 0.7211 0.14587 0.77188 0.0
C4553 C 0.74191 0.20152 0.77942 0.0
C4554 C 0.73395 0.18252 0.7769 0.0
H4555 H 0.7224 0.09067 0.78753 0.0
H4556 H 0.73686 0.12134 0.78518 0.0
H4557 H 0.71595 0.14821 0.74261 0.0
H4558 H 0.73741 0.23813 0.75977 0.0
H4559 H 0.7205 0.20801 0.76182 0.0
loop_
_geom_bond_atom_site_label_1
_geom_bond_atom_site_label_2
_geom_bond_distance
_geom_bond_site_symmetry_2
_ccdc_geom_bond_type
O0 Cd1 2.223 . S
O0 C8 1.315 . S
Cd1 O0 2.223 . S
Cd1 O4 2.297 . S
Cd1 O5 2.439 . S
Cd1 O11 2.240 . S
Cd2 O3 2.240 . S
Cd2 O10 2.222 . S
Cd2 O12 2.297 . S
Cd2 O13 2.439 . S
O3 Cd2 2.240 . S
O3 C8 1.279 . S
O4 Cd1 2.297 . S
O4 C6 1.247 . S
O5 Cd1 2.439 . S
O5 C6 1.208 . S
C6 O4 1.247 . S
C6 O5 1.208 . S
C7 O12 1.247 . S
C7 O13 1.208 . S
C8 O0 1.315 . S
C8 O3 1.279 . S
C9 O10 1.315 . S
C9 O11 1.279 . S
O10 Cd2 2.222 . S
O10 C9 1.315 . S
O11 Cd1 2.240 . S
O11 C9 1.279 . S
O12 Cd2 2.297 . S
O12 C7 1.247 . S
O13 Cd2 2.439 . S
O13 C7 1.208 . S
O14 Cd15 2.223 . S
O14 C22 1.315 . S
Cd15 O14 2.223 . S
Cd15 O18 2.297 1_455 S
Cd15 O19 2.439 1_455 S
Cd15 O25 2.240 . S
Cd16 O17 2.235 1_455 S
Cd16 O24 2.223 . S
Cd16 O26 2.297 . S
Cd16 O27 2.439 . S
O17 Cd16 2.235 1_655 S
O17 C22 1.275 1_655 S
O18 Cd15 2.297 1_655 S
O18 C20 1.247 . S
O19 Cd15 2.439 1_655 S
O19 C20 1.208 . S
C20 O18 1.247 . S
C20 O19 1.208 . S
C21 O26 1.247 . S
C21 O27 1.208 . S
C22 O14 1.315 . S
C22 O17 1.275 1_455 S
C23 O24 1.315 . S
C23 O25 1.279 . S
O24 Cd16 2.223 . S
O24 C23 1.315 . S
O25 Cd15 2.240 . S
O25 C23 1.279 . S
O26 Cd16 2.297 . S
O26 C21 1.247 . S
O27 Cd16 2.439 . S
O27 C21 1.208 . S
O28 Cd29 2.223 . S
O28 C36 1.315 . S
Cd29 O28 2.223 . S
Cd29 O32 2.297 . S
Cd29 O33 2.439 . S
Cd29 O39 2.240 . S
Cd30 O31 2.240 . S
Cd30 O38 2.223 . S
Cd30 O40 2.297 . S
Cd30 O41 2.439 . S
O31 Cd30 2.240 . S
O31 C36 1.279 . S
O32 Cd29 2.297 . S
O32 C34 1.247 . S
O33 Cd29 2.439 . S
O33 C34 1.208 . S
C34 O32 1.247 . S
C34 O33 1.208 . S
C35 O40 1.247 . S
C35 O41 1.208 . S
C36 O28 1.315 . S
C36 O31 1.279 . S
C37 O38 1.315 . S
C37 O39 1.279 . S
O38 Cd30 2.223 . S
O38 C37 1.315 . S
O39 Cd29 2.240 . S
O39 C37 1.279 . S
O40 Cd30 2.297 . S
O40 C35 1.247 . S
O41 Cd30 2.439 . S
O41 C35 1.208 . S
O42 Cd43 2.223 . S
O42 C50 1.315 . S
Cd43 O42 2.223 . S
Cd43 O46 2.297 . S
Cd43 O47 2.439 . S
Cd43 O53 2.240 . S
Cd44 O45 2.240 . S
Cd44 O52 2.223 . S
Cd44 O54 2.297 . S
Cd44 O55 2.439 . S
O45 Cd44 2.240 . S
O45 C50 1.279 . S
O46 Cd43 2.297 . S
O46 C48 1.247 . S
O47 Cd43 2.439 . S
O47 C48 1.208 . S
C48 O46 1.247 . S
C48 O47 1.208 . S
C49 O54 1.247 . S
C49 O55 1.208 . S
C50 O42 1.315 . S
C50 O45 1.279 . S
C51 O52 1.315 . S
C51 O53 1.279 . S
O52 Cd44 2.223 . S
O52 C51 1.315 . S
O53 Cd43 2.240 . S
O53 C51 1.279 . S
O54 Cd44 2.297 . S
O54 C49 1.247 . S
O55 Cd44 2.439 . S
O55 C49 1.208 . S
O56 Cd57 2.223 . S
O56 C64 1.315 . S
Cd57 O56 2.223 . S
Cd57 O60 2.297 . S
Cd57 O61 2.439 . S
Cd57 O67 2.240 . S
Cd58 O59 2.240 . S
Cd58 O66 2.223 . S
Cd58 O68 2.297 . S
Cd58 O69 2.439 . S
O59 Cd58 2.240 . S
O59 C64 1.279 . S
O60 Cd57 2.297 . S
O60 C62 1.247 . S
O61 Cd57 2.439 . S
O61 C62 1.208 . S
C62 O60 1.247 . S
C62 O61 1.208 . S
C63 O68 1.247 . S
C63 O69 1.208 . S
C64 O56 1.315 . S
C64 O59 1.279 . S
C65 O66 1.315 . S
C65 O67 1.279 . S
O66 Cd58 2.223 . S
O66 C65 1.315 . S
O67 Cd57 2.240 . S
O67 C65 1.279 . S
O68 Cd58 2.297 . S
O68 C63 1.247 . S
O69 Cd58 2.439 . S
O69 C63 1.208 . S
O70 Cd71 2.223 . S
O70 C78 1.315 . S
Cd71 O70 2.223 . S
Cd71 O74 2.297 . S
Cd71 O75 2.439 . S
Cd71 O81 2.240 . S
Cd72 O73 2.240 . S
Cd72 O80 2.223 . S
Cd72 O82 2.297 . S
Cd72 O83 2.439 . S
O73 Cd72 2.240 . S
O73 C78 1.279 . S
O74 Cd71 2.297 . S
O74 C76 1.247 . S
O75 Cd71 2.439 . S
O75 C76 1.208 . S
C76 O74 1.247 . S
C76 O75 1.208 . S
C77 O82 1.247 . S
C77 O83 1.208 . S
C78 O70 1.315 . S
C78 O73 1.279 . S
C79 O80 1.315 . S
C79 O81 1.279 . S
O80 Cd72 2.223 . S
O80 C79 1.315 . S
O81 Cd71 2.240 . S
O81 C79 1.279 . S
O82 Cd72 2.297 . S
O82 C77 1.247 . S
O83 Cd72 2.439 . S
O83 C77 1.208 . S
O84 Cd85 2.223 . S
O84 C92 1.315 . S
Cd85 O84 2.223 . S
Cd85 O88 2.297 . S
Cd85 O89 2.439 . S
Cd85 O95 2.240 . S
Cd86 O87 2.240 . S
Cd86 O94 2.223 . S
Cd86 O96 2.297 . S
Cd86 O97 2.439 . S
O87 Cd86 2.240 . S
O87 C92 1.279 . S
O88 Cd85 2.297 . S
O88 C90 1.247 . S
O89 Cd85 2.439 . S
O89 C90 1.208 . S
C90 O88 1.247 . S
C90 O89 1.208 . S
C91 O96 1.247 . S
C91 O97 1.208 . S
C92 O84 1.315 . S
C92 O87 1.279 . S
C93 O94 1.315 . S
C93 O95 1.279 . S
O94 Cd86 2.223 . S
O94 C93 1.315 . S
O95 Cd85 2.240 . S
O95 C93 1.279 . S
O96 Cd86 2.297 . S
O96 C91 1.247 . S
O97 Cd86 2.439 . S
O97 C91 1.208 . S
O98 Cd99 2.223 1_655 S
O98 C106 1.315 . S
Cd99 O98 2.223 1_455 S
Cd99 O102 2.297 . S
Cd99 O103 2.439 . S
Cd99 O109 2.240 1_455 S
Cd100 O101 2.240 1_655 S
Cd100 O108 2.223 . S
Cd100 O110 2.297 . S
Cd100 O111 2.439 1_655 S
O101 Cd100 2.240 1_455 S
O101 C106 1.279 1_455 S
O102 Cd99 2.297 . S
O102 C104 1.247 . S
O103 Cd99 2.439 . S
O103 C104 1.208 . S
C104 O102 1.247 . S
C104 O103 1.208 . S
C105 O110 1.269 . S
C105 O111 1.187 1_655 S
C106 O98 1.315 . S
C106 O101 1.279 1_655 S
C107 O108 1.315 . S
C107 O109 1.279 . S
O108 Cd100 2.223 . S
O108 C107 1.315 . S
O109 Cd99 2.240 1_655 S
O109 C107 1.279 . S
O110 Cd100 2.297 . S
O110 C105 1.269 . S
O111 Cd100 2.439 1_455 S
O111 C105 1.187 1_455 S
O112 Cd113 2.223 . S
O112 C120 1.315 . S
Cd113 O112 2.223 . S
Cd113 O116 2.297 . S
Cd113 O117 2.439 . S
Cd113 O123 2.240 1_545 S
Cd114 O115 2.240 . S
Cd114 O122 2.223 1_545 S
Cd114 O124 2.297 1_545 S
Cd114 O125 2.439 . S
O115 Cd114 2.240 . S
O115 C120 1.279 . S
O116 Cd113 2.297 . S
O116 C118 1.247 . S
O117 Cd113 2.439 . S
O117 C118 1.208 . S
C118 O116 1.247 . S
C118 O117 1.208 . S
C119 O124 1.247 1_545 S
C119 O125 1.208 . S
C120 O112 1.315 . S
C120 O115 1.279 . S
C121 O122 1.315 . S
C121 O123 1.279 . S
O122 Cd114 2.223 1_565 S
O122 C121 1.315 . S
O123 Cd113 2.240 1_565 S
O123 C121 1.279 . S
O124 Cd114 2.297 1_565 S
O124 C119 1.247 1_565 S
O125 Cd114 2.439 . S
O125 C119 1.208 . S
O126 Cd127 2.223 . S
O126 C134 1.315 . S
Cd127 O126 2.223 . S
Cd127 O130 2.297 . S
Cd127 O131 2.439 . S
Cd127 O137 2.240 . S
Cd128 O129 2.240 . S
Cd128 O136 2.223 . S
Cd128 O138 2.297 . S
Cd128 O139 2.439 . S
O129 Cd128 2.240 . S
O129 C134 1.279 . S
O130 Cd127 2.297 . S
O130 C132 1.247 . S
O131 Cd127 2.439 . S
O131 C132 1.208 . S
C132 O130 1.247 . S
C132 O131 1.208 . S
C133 O138 1.247 . S
C133 O139 1.208 . S
C134 O126 1.315 . S
C134 O129 1.279 . S
C135 O136 1.315 . S
C135 O137 1.279 . S
O136 Cd128 2.223 . S
O136 C135 1.315 . S
O137 Cd127 2.240 . S
O137 C135 1.279 . S
O138 Cd128 2.297 . S
O138 C133 1.247 . S
O139 Cd128 2.439 . S
O139 C133 1.208 . S
O140 Cd141 2.223 . S
O140 C148 1.315 . S
Cd141 O140 2.223 . S
Cd141 O144 2.297 1_545 S
Cd141 O145 2.439 1_545 S
Cd141 O151 2.240 . S
Cd142 O143 2.240 . S
Cd142 O150 2.223 . S
Cd142 O152 2.297 . S
Cd142 O153 2.439 . S
O143 Cd142 2.240 . S
O143 C148 1.279 . S
O144 Cd141 2.297 1_565 S
O144 C146 1.247 . S
O145 Cd141 2.439 1_565 S
O145 C146 1.208 . S
C146 O144 1.247 . S
C146 O145 1.208 . S
C147 O152 1.247 . S
C147 O153 1.208 . S
C148 O140 1.315 . S
C148 O143 1.279 . S
C149 O150 1.315 . S
C149 O151 1.279 . S
O150 Cd142 2.223 . S
O150 C149 1.315 . S
O151 Cd141 2.240 . S
O151 C149 1.279 . S
O152 Cd142 2.297 . S
O152 C147 1.247 . S
O153 Cd142 2.439 . S
O153 C147 1.208 . S
O154 Cd155 2.223 . S
O154 C162 1.315 . S
Cd155 O154 2.223 . S
Cd155 O158 2.297 . S
Cd155 O159 2.439 1_554 S
Cd155 O165 2.240 1_554 S
Cd156 O157 2.240 1_556 S
Cd156 O164 2.223 1_556 S
Cd156 O166 2.297 . S
Cd156 O167 2.439 . S
O157 Cd156 2.240 1_554 S
O157 C162 1.279 . S
O158 Cd155 2.297 . S
O158 C160 1.247 . S
O159 Cd155 2.439 1_556 S
O159 C160 1.208 1_556 S
C160 O158 1.247 . S
C160 O159 1.208 1_554 S
C161 O166 1.247 . S
C161 O167 1.208 . S
C162 O154 1.315 . S
C162 O157 1.279 . S
C163 O164 1.315 . S
C163 O165 1.279 1_554 S
O164 Cd156 2.223 1_554 S
O164 C163 1.315 . S
O165 Cd155 2.240 1_556 S
O165 C163 1.279 1_556 S
O166 Cd156 2.297 . S
O166 C161 1.247 . S
O167 Cd156 2.439 . S
O167 C161 1.208 . S
O168 Cd169 2.223 . S
O168 C176 1.315 . S
Cd169 O168 2.223 . S
Cd169 O172 2.297 . S
Cd169 O173 2.439 . S
Cd169 O179 2.240 . S
Cd170 O171 2.240 . S
Cd170 O178 2.223 . S
Cd170 O180 2.297 . S
Cd170 O181 2.439 . S
O171 Cd170 2.240 . S
O171 C176 1.279 . S
O172 Cd169 2.297 . S
O172 C174 1.247 . S
O173 Cd169 2.439 . S
O173 C174 1.208 . S
C174 O172 1.247 . S
C174 O173 1.208 . S
C175 O180 1.252 . S
C175 O181 1.215 . S
C176 O168 1.315 . S
C176 O171 1.279 . S
C177 O178 1.315 . S
C177 O179 1.279 . S
O178 Cd170 2.223 . S
O178 C177 1.315 . S
O179 Cd169 2.240 . S
O179 C177 1.279 . S
O180 Cd170 2.297 . S
O180 C175 1.252 . S
O181 Cd170 2.439 . S
O181 C175 1.215 . S
O182 Cd183 2.223 . S
O182 C190 1.315 . S
Cd183 O182 2.223 . S
Cd183 O186 2.297 . S
Cd183 O187 2.439 . S
Cd183 O193 2.240 . S
Cd184 O185 2.240 . S
Cd184 O192 2.223 . S
Cd184 O194 2.297 . S
Cd184 O195 2.439 . S
O185 Cd184 2.240 . S
O185 C190 1.279 . S
O186 Cd183 2.297 . S
O186 C188 1.247 . S
O187 Cd183 2.439 . S
O187 C188 1.208 . S
C188 O186 1.247 . S
C188 O187 1.208 . S
C189 O194 1.247 . S
C189 O195 1.208 . S
C190 O182 1.315 . S
C190 O185 1.279 . S
C191 O192 1.315 . S
C191 O193 1.279 . S
O192 Cd184 2.223 . S
O192 C191 1.315 . S
O193 Cd183 2.240 . S
O193 C191 1.279 . S
O194 Cd184 2.297 . S
O194 C189 1.247 . S
O195 Cd184 2.439 . S
O195 C189 1.208 . S
O196 Cd197 2.223 . S
O196 C204 1.315 . S
Cd197 O196 2.223 . S
Cd197 O200 2.297 . S
Cd197 O201 2.439 . S
Cd197 O207 2.240 . S
Cd198 O199 2.240 . S
Cd198 O206 2.223 . S
Cd198 O208 2.297 . S
Cd198 O209 2.439 . S
O199 Cd198 2.240 . S
O199 C204 1.279 . S
O200 Cd197 2.297 . S
O200 C202 1.247 . S
O201 Cd197 2.439 . S
O201 C202 1.208 . S
C202 O200 1.247 . S
C202 O201 1.208 . S
C203 O208 1.247 . S
C203 O209 1.208 . S
C204 O196 1.315 . S
C204 O199 1.279 . S
C205 O206 1.315 . S
C205 O207 1.279 . S
O206 Cd198 2.223 . S
O206 C205 1.315 . S
O207 Cd197 2.240 . S
O207 C205 1.279 . S
O208 Cd198 2.297 . S
O208 C203 1.247 . S
O209 Cd198 2.439 . S
O209 C203 1.208 . S
O210 Cd211 2.223 . S
O210 C218 1.315 . S
Cd211 O210 2.223 . S
Cd211 O214 2.297 . S
Cd211 O215 2.439 . S
Cd211 O221 2.240 . S
Cd212 O213 2.240 . S
Cd212 O220 2.223 . S
Cd212 O222 2.297 . S
Cd212 O223 2.439 . S
O213 Cd212 2.240 . S
O213 C218 1.279 . S
O214 Cd211 2.297 . S
O214 C216 1.247 . S
O215 Cd211 2.439 . S
O215 C216 1.208 . S
C216 O214 1.247 . S
C216 O215 1.208 . S
C217 O222 1.247 . S
C217 O223 1.208 . S
C218 O210 1.315 . S
C218 O213 1.279 . S
C219 O220 1.315 . S
C219 O221 1.279 . S
O220 Cd212 2.223 . S
O220 C219 1.315 . S
O221 Cd211 2.240 . S
O221 C219 1.279 . S
O222 Cd212 2.297 . S
O222 C217 1.247 . S
O223 Cd212 2.439 . S
O223 C217 1.208 . S
O224 Cd225 2.223 . S
O224 C232 1.315 . S
Cd225 O224 2.223 . S
Cd225 O228 2.297 . S
Cd225 O229 2.439 . S
Cd225 O235 2.240 1_545 S
Cd226 O227 2.240 . S
Cd226 O234 2.223 1_545 S
Cd226 O236 2.297 1_545 S
Cd226 O237 2.439 . S
O227 Cd226 2.240 . S
O227 C232 1.279 . S
O228 Cd225 2.297 . S
O228 C230 1.247 . S
O229 Cd225 2.439 . S
O229 C230 1.208 . S
C230 O228 1.247 . S
C230 O229 1.208 . S
C231 O236 1.247 1_545 S
C231 O237 1.208 . S
C232 O224 1.315 . S
C232 O227 1.279 . S
C233 O234 1.315 . S
C233 O235 1.279 . S
O234 Cd226 2.223 1_565 S
O234 C233 1.315 . S
O235 Cd225 2.240 1_565 S
O235 C233 1.279 . S
O236 Cd226 2.297 1_565 S
O236 C231 1.247 1_565 S
O237 Cd226 2.439 . S
O237 C231 1.208 . S
O238 Cd239 2.223 . S
O238 C246 1.315 . S
Cd239 O238 2.223 . S
Cd239 O242 2.297 . S
Cd239 O243 2.439 . S
Cd239 O249 2.240 . S
Cd240 O241 2.240 . S
Cd240 O248 2.223 . S
Cd240 O250 2.297 . S
Cd240 O251 2.439 . S
O241 Cd240 2.240 . S
O241 C246 1.279 . S
O242 Cd239 2.297 . S
O242 C244 1.247 . S
O243 Cd239 2.439 . S
O243 C244 1.208 . S
C244 O242 1.247 . S
C244 O243 1.208 . S
C245 O250 1.247 . S
C245 O251 1.208 . S
C246 O238 1.315 . S
C246 O241 1.279 . S
C247 O248 1.315 . S
C247 O249 1.279 . S
O248 Cd240 2.223 . S
O248 C247 1.315 . S
O249 Cd239 2.240 . S
O249 C247 1.279 . S
O250 Cd240 2.297 . S
O250 C245 1.247 . S
O251 Cd240 2.439 . S
O251 C245 1.208 . S
O252 Cd253 2.223 . S
O252 C260 1.315 . S
Cd253 O252 2.223 . S
Cd253 O256 2.297 . S
Cd253 O257 2.439 . S
Cd253 O263 2.240 . S
Cd254 O255 2.240 . S
Cd254 O262 2.223 . S
Cd254 O264 2.297 . S
Cd254 O265 2.439 . S
O255 Cd254 2.240 . S
O255 C260 1.279 . S
O256 Cd253 2.297 . S
O256 C258 1.247 . S
O257 Cd253 2.439 . S
O257 C258 1.208 . S
C258 O256 1.247 . S
C258 O257 1.208 . S
C259 O264 1.247 . S
C259 O265 1.208 . S
C260 O252 1.315 . S
C260 O255 1.279 . S
C261 O262 1.315 . S
C261 O263 1.279 . S
O262 Cd254 2.223 . S
O262 C261 1.315 . S
O263 Cd253 2.240 . S
O263 C261 1.279 . S
O264 Cd254 2.297 . S
O264 C259 1.247 . S
O265 Cd254 2.439 . S
O265 C259 1.208 . S
O266 Cd267 2.223 . S
O266 C274 1.315 . S
Cd267 O266 2.223 . S
Cd267 O270 2.297 . S
Cd267 O271 2.439 . S
Cd267 O277 2.240 . S
Cd268 O269 2.240 . S
Cd268 O276 2.223 . S
Cd268 O278 2.297 . S
Cd268 O279 2.439 . S
O269 Cd268 2.240 . S
O269 C274 1.279 . S
O270 Cd267 2.297 . S
O270 C272 1.278 . S
O271 Cd267 2.439 . S
O271 C272 1.246 . S
C272 O270 1.278 . S
C272 O271 1.246 . S
C273 O278 1.247 . S
C273 O279 1.208 . S
C274 O266 1.315 . S
C274 O269 1.279 . S
C275 O276 1.315 . S
C275 O277 1.279 . S
O276 Cd268 2.223 . S
O276 C275 1.315 . S
O277 Cd267 2.240 . S
O277 C275 1.279 . S
O278 Cd268 2.297 . S
O278 C273 1.247 . S
O279 Cd268 2.439 . S
O279 C273 1.208 . S
O280 Cd281 2.223 . S
O280 C288 1.315 . S
Cd281 O280 2.223 . S
Cd281 O284 2.297 . S
Cd281 O285 2.439 . S
Cd281 O291 2.240 . S
Cd282 O283 2.240 . S
Cd282 O290 2.223 . S
Cd282 O292 2.297 1_554 S
Cd282 O293 2.439 1_554 S
O283 Cd282 2.240 . S
O283 C288 1.279 . S
O284 Cd281 2.297 . S
O284 C286 1.247 . S
O285 Cd281 2.439 . S
O285 C286 1.208 . S
C286 O284 1.247 . S
C286 O285 1.208 . S
C287 O292 1.247 . S
C287 O293 1.208 . S
C288 O280 1.315 . S
C288 O283 1.279 . S
C289 O290 1.315 . S
C289 O291 1.279 . S
O290 Cd282 2.223 . S
O290 C289 1.315 . S
O291 Cd281 2.240 . S
O291 C289 1.279 . S
O292 Cd282 2.297 1_556 S
O292 C287 1.247 . S
O293 Cd282 2.439 1_556 S
O293 C287 1.208 . S
O294 Cd295 2.223 . S
O294 C302 1.315 . S
Cd295 O294 2.223 . S
Cd295 O298 2.297 . S
Cd295 O299 2.439 . S
Cd295 O305 2.240 . S
Cd296 O297 2.240 . S
Cd296 O304 2.223 . S
Cd296 O306 2.297 . S
Cd296 O307 2.439 . S
O297 Cd296 2.240 . S
O297 C302 1.279 . S
O298 Cd295 2.297 . S
O298 C300 1.247 . S
O299 Cd295 2.439 . S
O299 C300 1.208 . S
C300 O298 1.247 . S
C300 O299 1.208 . S
C301 O306 1.247 . S
C301 O307 1.208 . S
C302 O294 1.315 . S
C302 O297 1.279 . S
C303 O304 1.315 . S
C303 O305 1.279 . S
O304 Cd296 2.223 . S
O304 C303 1.315 . S
O305 Cd295 2.240 . S
O305 C303 1.279 . S
O306 Cd296 2.297 . S
O306 C301 1.247 . S
O307 Cd296 2.439 . S
O307 C301 1.208 . S
O308 Cd309 2.223 . S
O308 C316 1.315 . S
Cd309 O308 2.223 . S
Cd309 O312 2.297 . S
Cd309 O313 2.439 . S
Cd309 O319 2.240 . S
Cd310 O311 2.240 . S
Cd310 O318 2.223 . S
Cd310 O320 2.297 . S
Cd310 O321 2.439 . S
O311 Cd310 2.240 . S
O311 C316 1.279 . S
O312 Cd309 2.297 . S
O312 C314 1.247 . S
O313 Cd309 2.439 . S
O313 C314 1.208 . S
C314 O312 1.247 . S
C314 O313 1.208 . S
C315 O320 1.247 . S
C315 O321 1.208 . S
C316 O308 1.315 . S
C316 O311 1.279 . S
C317 O318 1.315 . S
C317 O319 1.279 . S
O318 Cd310 2.223 . S
O318 C317 1.315 . S
O319 Cd309 2.240 . S
O319 C317 1.279 . S
O320 Cd310 2.297 . S
O320 C315 1.247 . S
O321 Cd310 2.439 . S
O321 C315 1.208 . S
O322 Cd323 2.223 . S
O322 C330 1.315 . S
Cd323 O322 2.223 . S
Cd323 O326 2.297 . S
Cd323 O327 2.439 . S
Cd323 O333 2.240 . S
Cd324 O325 2.240 . S
Cd324 O332 2.223 . S
Cd324 O334 2.297 . S
Cd324 O335 2.439 . S
O325 Cd324 2.240 . S
O325 C330 1.279 . S
O326 Cd323 2.297 . S
O326 C328 1.247 . S
O327 Cd323 2.439 . S
O327 C328 1.208 . S
C328 O326 1.247 . S
C328 O327 1.208 . S
C329 O334 1.247 . S
C329 O335 1.208 . S
C330 O322 1.315 . S
C330 O325 1.279 . S
C331 O332 1.315 . S
C331 O333 1.279 . S
O332 Cd324 2.223 . S
O332 C331 1.315 . S
O333 Cd323 2.240 . S
O333 C331 1.279 . S
O334 Cd324 2.297 . S
O334 C329 1.247 . S
O335 Cd324 2.439 . S
O335 C329 1.208 . S
Tb336 N365 2.617 . S
Tb336 N371 2.572 . S
Tb336 O380 2.465 . S
Tb336 O381 2.387 . S
Tb336 O383 2.428 . S
Tb336 O384 2.308 . S
Tb336 O388 2.349 . S
Tb336 O391 2.393 . S
Tb336 C400 2.802 . S
C337 N338 1.391 . S
C337 C340 1.416 1_554 S
C337 C344 1.424 . S
N338 C337 1.391 . S
N338 C341 1.309 1_554 S
N338 Tb347 2.633 1_565 S
C339 C341 1.390 . S
C339 C342 1.339 . S
C339 H359 0.930 . S
C340 C337 1.416 1_556 S
C340 C342 1.416 . S
C340 C346 1.448 . S
C341 N338 1.309 1_556 S
C341 C339 1.390 . S
C341 H352 0.930 1_565 S
C342 C339 1.339 . S
C342 C340 1.416 . S
C342 H363 0.930 . S
C343 C344 1.413 . S
C343 C345 1.427 . S
C343 C349 1.416 . S
C344 C337 1.424 . S
C344 C343 1.413 . S
C344 N348 1.361 . S
C345 C343 1.427 . S
C345 C346 1.328 1_554 S
C345 H360 0.929 . S
C346 C340 1.448 . S
C346 C345 1.328 1_556 S
C346 H361 0.930 . S
Tb347 N338 2.633 1_545 S
Tb347 N348 2.572 1_545 S
Tb347 O382 2.349 1_655 S
Tb347 O385 2.393 1_655 S
Tb347 O386 2.465 . S
Tb347 O387 2.387 1_645 S
Tb347 O389 2.428 . S
Tb347 O390 2.308 1_655 S
Tb347 C411 2.802 . S
N348 C344 1.361 . S
N348 Tb347 2.572 1_565 S
N348 C350 1.340 . S
C349 C343 1.416 . S
C349 C351 1.332 . S
C349 H357 0.931 . S
C350 N348 1.340 . S
C350 C351 1.407 . S
C350 H356 0.930 1_565 S
C351 C349 1.332 . S
C351 C350 1.407 . S
C351 H353 0.929 . S
H352 C341 0.930 1_545 S
H353 C351 0.929 . S
H354 C369 0.930 . S
H355 C376 0.929 . S
H356 C350 0.930 1_545 S
H357 C349 0.931 . S
H358 C372 0.930 . S
H359 C339 0.930 . S
H360 C345 0.929 . S
H361 C346 0.930 . S
H362 C367 0.930 . S
H363 C342 0.930 . S
H364 C375 0.931 . S
N365 Tb336 2.617 . S
N365 C366 1.379 . S
N365 C369 1.334 . S
C366 N365 1.379 . S
C366 C368 1.416 . S
C366 C374 1.424 . S
C367 H362 0.930 . S
C367 C369 1.390 . S
C367 C370 1.339 . S
C368 C366 1.416 . S
C368 C370 1.416 . S
C368 C401 1.448 . S
C369 H354 0.930 . S
C369 N365 1.334 . S
C369 C367 1.390 . S
C370 C367 1.339 . S
C370 C368 1.416 . S
C370 H377 0.930 . S
N371 Tb336 2.572 . S
N371 C372 1.340 . S
N371 C374 1.361 . S
C372 H358 0.930 . S
C372 N371 1.340 . S
C372 C376 1.407 . S
C373 C374 1.413 . S
C373 C375 1.416 . S
C373 C402 1.427 . S
C374 C366 1.424 . S
C374 N371 1.361 . S
C374 C373 1.413 . S
C375 H364 0.931 . S
C375 C373 1.416 . S
C375 C376 1.332 . S
C376 H355 0.929 . S
C376 C372 1.407 . S
C376 C375 1.332 . S
H377 C370 0.930 . S
H378 C401 0.930 . S
H379 C402 0.929 . S
O380 Tb336 2.465 . S
O380 C400 1.264 . S
O381 Tb336 2.387 . S
O381 C392 1.264 . S
O382 Tb347 2.349 1_455 S
O382 C392 1.243 . S
O383 Tb336 2.428 . S
O383 C400 1.256 . S
O384 Tb336 2.308 . S
O384 C399 1.266 . S
O385 Tb347 2.393 1_455 S
O385 C399 1.248 . S
O386 Tb347 2.465 . S
O386 C411 1.264 . S
O387 Tb347 2.387 1_465 S
O387 C403 1.264 . S
O388 Tb336 2.349 . S
O388 C403 1.243 1_545 S
O389 Tb347 2.428 . S
O389 C411 1.256 . S
O390 Tb347 2.308 1_455 S
O390 C410 1.266 . S
O391 Tb336 2.393 . S
O391 C410 1.248 . S
C392 O381 1.264 . S
C392 O382 1.243 . S
C393 C396 1.399 . S
C393 C398 1.383 . S
C393 C400 1.496 . S
C394 C395 1.399 . S
C394 C398 1.389 . S
C395 C394 1.399 . S
C395 C397 1.380 . S
C395 H412 0.929 . S
C396 C393 1.399 . S
C396 C397 1.392 . S
C396 H413 0.929 . S
C397 C395 1.380 . S
C397 C396 1.392 . S
C397 H414 0.929 . S
C398 C393 1.383 . S
C398 C394 1.389 . S
C398 H415 0.931 . S
C399 O384 1.266 . S
C399 O385 1.248 . S
C400 Tb336 2.802 . S
C400 O380 1.264 . S
C400 O383 1.256 . S
C400 C393 1.496 . S
C401 C368 1.448 . S
C401 H378 0.930 . S
C401 C402 1.328 . S
C402 C373 1.427 . S
C402 H379 0.929 . S
C402 C401 1.328 . S
C403 O387 1.264 . S
C403 O388 1.243 1_565 S
C404 C407 1.399 1_554 S
C404 C408 1.383 . S
C404 C411 1.496 . S
C405 C406 1.399 . S
C405 C408 1.389 . S
C406 C405 1.399 . S
C406 C409 1.380 1_554 S
C406 H416 0.929 . S
C407 C404 1.399 1_556 S
C407 C409 1.392 . S
C407 H417 0.929 . S
C408 C404 1.383 . S
C408 C405 1.389 . S
C408 H418 0.931 . S
C409 C406 1.380 1_556 S
C409 C407 1.392 . S
C409 H419 0.929 . S
C410 O390 1.266 . S
C410 O391 1.248 . S
C411 Tb347 2.802 . S
C411 O386 1.264 . S
C411 O389 1.256 . S
C411 C404 1.496 . S
H412 C395 0.929 . S
H413 C396 0.929 . S
H414 C397 0.929 . S
H415 C398 0.931 . S
H416 C406 0.929 . S
H417 C407 0.929 . S
H418 C408 0.931 . S
H419 C409 0.929 . S
Tb420 N449 2.617 . S
Tb420 N455 2.572 . S
Tb420 O464 2.465 . S
Tb420 O465 2.387 . S
Tb420 O467 2.428 . S
Tb420 O468 2.308 . S
Tb420 O472 2.349 . S
Tb420 O475 2.393 . S
Tb420 C484 2.802 . S
C421 N422 1.379 . S
C421 C424 1.416 . S
C421 C428 1.424 . S
N422 C421 1.379 . S
N422 C425 1.334 . S
N422 Tb431 2.617 . S
C423 C425 1.390 . S
C423 C426 1.339 . S
C423 H443 0.930 . S
C424 C421 1.416 . S
C424 C426 1.416 . S
C424 C430 1.448 . S
C425 N422 1.334 . S
C425 C423 1.390 . S
C425 H436 0.930 . S
C426 C423 1.339 . S
C426 C424 1.416 . S
C426 H447 0.930 . S
C427 C428 1.413 . S
C427 C429 1.427 . S
C427 C433 1.416 . S
C428 C421 1.424 . S
C428 C427 1.413 . S
C428 N432 1.361 . S
C429 C427 1.427 . S
C429 C430 1.328 . S
C429 H444 0.929 . S
C430 C424 1.448 . S
C430 C429 1.328 . S
C430 H445 0.930 . S
Tb431 N422 2.617 . S
Tb431 N432 2.572 . S
Tb431 O466 2.349 . S
Tb431 O469 2.393 . S
Tb431 O470 2.465 . S
Tb431 O471 2.387 . S
Tb431 O473 2.428 . S
Tb431 O474 2.308 . S
Tb431 C495 2.802 . S
N432 C428 1.361 . S
N432 Tb431 2.572 . S
N432 C434 1.340 . S
C433 C427 1.416 . S
C433 C435 1.332 . S
C433 H441 0.931 . S
C434 N432 1.340 . S
C434 C435 1.407 . S
C434 H440 0.930 . S
C435 C433 1.332 . S
C435 C434 1.407 . S
C435 H437 0.929 . S
H436 C425 0.930 . S
H437 C435 0.929 . S
H438 C453 0.930 . S
H439 C460 0.929 . S
H440 C434 0.930 . S
H441 C433 0.931 . S
H442 C456 0.930 . S
H443 C423 0.930 . S
H444 C429 0.929 . S
H445 C430 0.930 . S
H446 C451 0.930 . S
H447 C426 0.930 . S
H448 C459 0.931 . S
N449 Tb420 2.617 . S
N449 C450 1.379 . S
N449 C453 1.334 . S
C450 N449 1.379 . S
C450 C452 1.416 . S
C450 C458 1.424 . S
C451 H446 0.930 . S
C451 C453 1.390 . S
C451 C454 1.339 . S
C452 C450 1.416 . S
C452 C454 1.416 . S
C452 C485 1.448 . S
C453 H438 0.930 . S
C453 N449 1.334 . S
C453 C451 1.390 . S
C454 C451 1.339 . S
C454 C452 1.416 . S
C454 H461 0.930 . S
N455 Tb420 2.572 . S
N455 C456 1.340 . S
N455 C458 1.361 . S
C456 H442 0.930 . S
C456 N455 1.340 . S
C456 C460 1.407 . S
C457 C458 1.413 . S
C457 C459 1.416 . S
C457 C486 1.427 . S
C458 C450 1.424 . S
C458 N455 1.361 . S
C458 C457 1.413 . S
C459 H448 0.931 . S
C459 C457 1.416 . S
C459 C460 1.332 . S
C460 H439 0.929 . S
C460 C456 1.407 . S
C460 C459 1.332 . S
H461 C454 0.930 . S
H462 C485 0.930 . S
H463 C486 0.929 . S
O464 Tb420 2.465 . S
O464 C484 1.264 . S
O465 Tb420 2.387 . S
O465 C476 1.264 . S
O466 Tb431 2.349 . S
O466 C476 1.243 . S
O467 Tb420 2.428 . S
O467 C484 1.256 . S
O468 Tb420 2.308 . S
O468 C483 1.266 . S
O469 Tb431 2.393 . S
O469 C483 1.248 . S
O470 Tb431 2.465 . S
O470 C495 1.264 . S
O471 Tb431 2.387 . S
O471 C487 1.264 . S
O472 Tb420 2.349 . S
O472 C487 1.243 . S
O473 Tb431 2.428 . S
O473 C495 1.256 . S
O474 Tb431 2.308 . S
O474 C494 1.266 . S
O475 Tb420 2.393 . S
O475 C494 1.248 . S
C476 O465 1.264 . S
C476 O466 1.243 . S
C477 C480 1.399 . S
C477 C482 1.383 . S
C477 C484 1.496 . S
C478 C479 1.399 . S
C478 C482 1.389 . S
C479 C478 1.399 . S
C479 C481 1.380 . S
C479 H496 0.929 . S
C480 C477 1.399 . S
C480 C481 1.392 . S
C480 H497 0.929 . S
C481 C479 1.380 . S
C481 C480 1.392 . S
C481 H498 0.929 . S
C482 C477 1.383 . S
C482 C478 1.389 . S
C482 H499 0.931 . S
C483 O468 1.266 . S
C483 O469 1.248 . S
C484 Tb420 2.802 . S
C484 O464 1.264 . S
C484 O467 1.256 . S
C484 C477 1.496 . S
C485 C452 1.448 . S
C485 H462 0.930 . S
C485 C486 1.328 . S
C486 C457 1.427 . S
C486 H463 0.929 . S
C486 C485 1.328 . S
C487 O471 1.264 . S
C487 O472 1.243 . S
C488 C491 1.399 . S
C488 C492 1.383 . S
C488 C495 1.496 . S
C489 C490 1.399 . S
C489 C492 1.389 . S
C490 C489 1.399 . S
C490 C493 1.380 . S
C490 H500 0.929 . S
C491 C488 1.399 . S
C491 C493 1.392 . S
C491 H501 0.929 . S
C492 C488 1.383 . S
C492 C489 1.389 . S
C492 H502 0.931 . S
C493 C490 1.380 . S
C493 C491 1.392 . S
C493 H503 0.929 . S
C494 O474 1.266 . S
C494 O475 1.248 . S
C495 Tb431 2.802 . S
C495 O470 1.264 . S
C495 O473 1.256 . S
C495 C488 1.496 . S
H496 C479 0.929 . S
H497 C480 0.929 . S
H498 C481 0.929 . S
H499 C482 0.931 . S
H500 C490 0.929 . S
H501 C491 0.929 . S
H502 C492 0.931 . S
H503 C493 0.929 . S
Tb504 N533 2.617 1_545 S
Tb504 N539 2.572 1_545 S
Tb504 O548 2.465 . S
Tb504 O549 2.387 1_545 S
Tb504 O551 2.428 . S
Tb504 O552 2.308 . S
Tb504 O556 2.349 . S
Tb504 O559 2.393 . S
Tb504 C568 2.802 . S
C505 N506 1.379 . S
C505 C508 1.416 . S
C505 C512 1.424 . S
N506 C505 1.379 . S
N506 C509 1.334 . S
N506 Tb515 2.617 . S
C507 C509 1.390 . S
C507 C510 1.339 . S
C507 H527 0.930 . S
C508 C505 1.416 . S
C508 C510 1.416 . S
C508 C514 1.448 . S
C509 N506 1.334 . S
C509 C507 1.390 . S
C509 H520 0.930 . S
C510 C507 1.339 . S
C510 C508 1.416 . S
C510 H531 0.930 . S
C511 C512 1.413 . S
C511 C513 1.427 . S
C511 C517 1.416 . S
C512 C505 1.424 . S
C512 C511 1.413 . S
C512 N516 1.361 . S
C513 C511 1.427 . S
C513 C514 1.328 . S
C513 H528 0.929 . S
C514 C508 1.448 . S
C514 C513 1.328 . S
C514 H529 0.930 . S
Tb515 N506 2.617 . S
Tb515 N516 2.572 . S
Tb515 O550 2.349 1_545 S
Tb515 O553 2.393 . S
Tb515 O554 2.465 . S
Tb515 O555 2.387 . S
Tb515 O557 2.428 . S
Tb515 O558 2.308 . S
Tb515 C579 2.802 . S
N516 C512 1.361 . S
N516 Tb515 2.572 . S
N516 C518 1.340 . S
C517 C511 1.416 . S
C517 C519 1.332 . S
C517 H525 0.931 . S
C518 N516 1.340 . S
C518 C519 1.407 . S
C518 H524 0.930 . S
C519 C517 1.332 . S
C519 C518 1.407 . S
C519 H521 0.929 . S
H520 C509 0.930 . S
H521 C519 0.929 . S
H522 C537 0.930 1_545 S
H523 C544 0.929 . S
H524 C518 0.930 . S
H525 C517 0.931 . S
H526 C540 0.930 . S
H527 C507 0.930 . S
H528 C513 0.929 . S
H529 C514 0.930 . S
H530 C535 0.930 . S
H531 C510 0.930 . S
H532 C543 0.931 . S
N533 Tb504 2.617 1_565 S
N533 C534 1.379 . S
N533 C537 1.334 . S
C534 N533 1.379 . S
C534 C536 1.416 . S
C534 C542 1.424 . S
C535 H530 0.930 . S
C535 C537 1.390 . S
C535 C538 1.339 . S
C536 C534 1.416 . S
C536 C538 1.416 . S
C536 C569 1.448 . S
C537 H522 0.930 1_565 S
C537 N533 1.334 . S
C537 C535 1.390 . S
C538 C535 1.339 . S
C538 C536 1.416 . S
C538 H545 0.930 . S
N539 Tb504 2.572 1_565 S
N539 C540 1.340 . S
N539 C542 1.361 . S
C540 H526 0.930 . S
C540 N539 1.340 . S
C540 C544 1.407 . S
C541 C542 1.413 . S
C541 C543 1.416 . S
C541 C570 1.427 . S
C542 C534 1.424 . S
C542 N539 1.361 . S
C542 C541 1.413 . S
C543 H532 0.931 . S
C543 C541 1.416 . S
C543 C544 1.332 . S
C544 H523 0.929 . S
C544 C540 1.407 . S
C544 C543 1.332 . S
H545 C538 0.930 . S
H546 C569 0.930 . S
H547 C570 0.929 . S
O548 Tb504 2.465 . S
O548 C568 1.264 . S
O549 Tb504 2.387 1_565 S
O549 C560 1.264 . S
O550 Tb515 2.349 1_565 S
O550 C560 1.243 . S
O551 Tb504 2.428 . S
O551 C568 1.256 . S
O552 Tb504 2.308 . S
O552 C567 1.266 . S
O553 Tb515 2.393 . S
O553 C567 1.248 . S
O554 Tb515 2.465 . S
O554 C579 1.264 . S
O555 Tb515 2.387 . S
O555 C571 1.264 . S
O556 Tb504 2.349 . S
O556 C571 1.243 . S
O557 Tb515 2.428 . S
O557 C579 1.256 . S
O558 Tb515 2.308 . S
O558 C578 1.266 . S
O559 Tb504 2.393 . S
O559 C578 1.248 . S
C560 O549 1.264 . S
C560 O550 1.243 . S
C561 C564 1.399 . S
C561 C566 1.383 . S
C561 C568 1.496 . S
C562 C563 1.399 . S
C562 C566 1.389 . S
C563 C562 1.399 . S
C563 C565 1.380 . S
C563 H580 0.929 . S
C564 C561 1.399 . S
C564 C565 1.392 . S
C564 H581 0.929 . S
C565 C563 1.380 . S
C565 C564 1.392 . S
C565 H582 0.929 . S
C566 C561 1.383 . S
C566 C562 1.389 . S
C566 H583 0.931 . S
C567 O552 1.266 . S
C567 O553 1.248 . S
C568 Tb504 2.802 . S
C568 O548 1.264 . S
C568 O551 1.256 . S
C568 C561 1.496 . S
C569 C536 1.448 . S
C569 H546 0.930 . S
C569 C570 1.328 . S
C570 C541 1.427 . S
C570 H547 0.929 . S
C570 C569 1.328 . S
C571 O555 1.264 . S
C571 O556 1.243 . S
C572 C575 1.399 . S
C572 C576 1.383 . S
C572 C579 1.496 1_565 S
C573 C574 1.399 . S
C573 C576 1.389 . S
C574 C573 1.399 . S
C574 C577 1.380 . S
C574 H584 0.929 . S
C575 C572 1.399 . S
C575 C577 1.392 . S
C575 H585 0.929 . S
C576 C572 1.383 . S
C576 C573 1.389 . S
C576 H586 0.931 . S
C577 C574 1.380 . S
C577 C575 1.392 . S
C577 H587 0.929 . S
C578 O558 1.266 . S
C578 O559 1.248 . S
C579 Tb515 2.802 . S
C579 O554 1.264 . S
C579 O557 1.256 . S
C579 C572 1.496 1_545 S
H580 C563 0.929 . S
H581 C564 0.929 . S
H582 C565 0.929 . S
H583 C566 0.931 . S
H584 C574 0.929 . S
H585 C575 0.929 . S
H586 C576 0.931 . S
H587 C577 0.929 . S
Tb588 N617 2.617 . S
Tb588 N623 2.572 . S
Tb588 O632 2.465 . S
Tb588 O633 2.387 . S
Tb588 O635 2.428 . S
Tb588 O636 2.308 . S
Tb588 O640 2.349 . S
Tb588 O643 2.393 . S
Tb588 C652 2.802 . S
C589 N590 1.379 . S
C589 C592 1.416 . S
C589 C596 1.424 . S
N590 C589 1.379 . S
N590 C593 1.334 . S
N590 Tb599 2.617 . S
C591 C593 1.390 . S
C591 C594 1.339 . S
C591 H611 0.930 . S
C592 C589 1.416 . S
C592 C594 1.416 . S
C592 C598 1.448 . S
C593 N590 1.334 . S
C593 C591 1.390 . S
C593 H604 0.930 . S
C594 C591 1.339 . S
C594 C592 1.416 . S
C594 H615 0.930 . S
C595 C596 1.413 . S
C595 C597 1.427 . S
C595 C601 1.416 . S
C596 C589 1.424 . S
C596 C595 1.413 . S
C596 N600 1.361 . S
C597 C595 1.427 . S
C597 C598 1.328 . S
C597 H612 0.929 . S
C598 C592 1.448 . S
C598 C597 1.328 . S
C598 H613 0.930 . S
Tb599 N590 2.617 . S
Tb599 N600 2.572 . S
Tb599 O634 2.349 . S
Tb599 O637 2.393 . S
Tb599 O638 2.465 . S
Tb599 O639 2.387 . S
Tb599 O641 2.428 . S
Tb599 O642 2.308 . S
Tb599 C663 2.802 . S
N600 C596 1.361 . S
N600 Tb599 2.572 . S
N600 C602 1.340 . S
C601 C595 1.416 . S
C601 C603 1.332 . S
C601 H609 0.931 . S
C602 N600 1.340 . S
C602 C603 1.407 . S
C602 H608 0.930 . S
C603 C601 1.332 . S
C603 C602 1.407 . S
C603 H605 0.929 . S
H604 C593 0.930 . S
H605 C603 0.929 . S
H606 C621 0.930 . S
H607 C628 0.929 . S
H608 C602 0.930 . S
H609 C601 0.931 . S
H610 C624 0.930 . S
H611 C591 0.930 . S
H612 C597 0.929 . S
H613 C598 0.930 . S
H614 C619 0.930 . S
H615 C594 0.930 . S
H616 C627 0.931 . S
N617 Tb588 2.617 . S
N617 C618 1.379 . S
N617 C621 1.334 . S
C618 N617 1.379 . S
C618 C620 1.416 . S
C618 C626 1.424 . S
C619 H614 0.930 . S
C619 C621 1.390 . S
C619 C622 1.339 . S
C620 C618 1.416 . S
C620 C622 1.416 . S
C620 C653 1.448 . S
C621 H606 0.930 . S
C621 N617 1.334 . S
C621 C619 1.390 . S
C622 C619 1.339 . S
C622 C620 1.416 . S
C622 H629 0.930 . S
N623 Tb588 2.572 . S
N623 C624 1.340 . S
N623 C626 1.361 . S
C624 H610 0.930 . S
C624 N623 1.340 . S
C624 C628 1.407 . S
C625 C626 1.413 . S
C625 C627 1.416 . S
C625 C654 1.427 . S
C626 C618 1.424 . S
C626 N623 1.361 . S
C626 C625 1.413 . S
C627 H616 0.931 . S
C627 C625 1.416 . S
C627 C628 1.332 . S
C628 H607 0.929 . S
C628 C624 1.407 . S
C628 C627 1.332 . S
H629 C622 0.930 . S
H630 C653 0.930 . S
H631 C654 0.929 . S
O632 Tb588 2.465 . S
O632 C652 1.264 . S
O633 Tb588 2.387 . S
O633 C644 1.264 . S
O634 Tb599 2.349 . S
O634 C644 1.243 . S
O635 Tb588 2.428 . S
O635 C652 1.256 . S
O636 Tb588 2.308 . S
O636 C651 1.266 . S
O637 Tb599 2.393 . S
O637 C651 1.248 . S
O638 Tb599 2.465 . S
O638 C663 1.264 . S
O639 Tb599 2.387 . S
O639 C655 1.264 . S
O640 Tb588 2.349 . S
O640 C655 1.243 . S
O641 Tb599 2.428 . S
O641 C663 1.256 . S
O642 Tb599 2.308 . S
O642 C662 1.266 . S
O643 Tb588 2.393 . S
O643 C662 1.248 . S
C644 O633 1.264 . S
C644 O634 1.243 . S
C645 C648 1.399 . S
C645 C650 1.383 . S
C645 C652 1.496 . S
C646 C647 1.399 . S
C646 C650 1.389 . S
C647 C646 1.399 . S
C647 C649 1.380 . S
C647 H664 0.929 . S
C648 C645 1.399 . S
C648 C649 1.392 . S
C648 H665 0.929 . S
C649 C647 1.380 . S
C649 C648 1.392 . S
C649 H666 0.929 . S
C650 C645 1.383 . S
C650 C646 1.389 . S
C650 H667 0.931 . S
C651 O636 1.266 . S
C651 O637 1.248 . S
C652 Tb588 2.802 . S
C652 O632 1.264 . S
C652 O635 1.256 . S
C652 C645 1.496 . S
C653 C620 1.448 . S
C653 H630 0.930 . S
C653 C654 1.328 . S
C654 C625 1.427 . S
C654 H631 0.929 . S
C654 C653 1.328 . S
C655 O639 1.264 . S
C655 O640 1.243 . S
C656 C659 1.399 . S
C656 C660 1.383 . S
C656 C663 1.496 . S
C657 C658 1.399 . S
C657 C660 1.389 . S
C658 C657 1.399 . S
C658 C661 1.380 . S
C658 H668 0.929 . S
C659 C656 1.399 . S
C659 C661 1.392 . S
C659 H669 0.929 . S
C660 C656 1.383 . S
C660 C657 1.389 . S
C660 H670 0.931 . S
C661 C658 1.380 . S
C661 C659 1.392 . S
C661 H671 0.929 . S
C662 O642 1.266 . S
C662 O643 1.248 . S
C663 Tb599 2.802 . S
C663 O638 1.264 . S
C663 O641 1.256 . S
C663 C656 1.496 . S
H664 C647 0.929 . S
H665 C648 0.929 . S
H666 C649 0.929 . S
H667 C650 0.931 . S
H668 C658 0.929 . S
H669 C659 0.929 . S
H670 C660 0.931 . S
H671 C661 0.929 . S
Tb672 N701 2.630 . S
Tb672 N707 2.593 . S
Tb672 O716 2.494 . S
Tb672 O717 2.366 1_565 S
Tb672 O719 2.456 . S
Tb672 O720 2.296 1_565 S
Tb672 O724 2.338 1_565 S
Tb672 O727 2.372 1_565 S
Tb672 C736 2.834 . S
C673 N674 1.379 . S
C673 C676 1.416 . S
C673 C680 1.424 . S
N674 C673 1.379 . S
N674 C677 1.334 1_455 S
N674 Tb683 2.617 . S
C675 C677 1.390 . S
C675 C678 1.339 . S
C675 H695 0.930 . S
C676 C673 1.416 . S
C676 C678 1.416 1_455 S
C676 C682 1.448 . S
C677 N674 1.334 1_655 S
C677 C675 1.390 . S
C677 H688 0.930 . S
C678 C675 1.339 . S
C678 C676 1.416 1_655 S
C678 H699 0.930 . S
C679 C680 1.413 . S
C679 C681 1.427 . S
C679 C685 1.416 . S
C680 C673 1.424 . S
C680 C679 1.413 . S
C680 N684 1.361 . S
C681 C679 1.427 . S
C681 C682 1.328 . S
C681 H696 0.929 . S
C682 C676 1.448 . S
C682 C681 1.328 . S
C682 H697 0.930 . S
Tb683 N674 2.617 . S
Tb683 N684 2.572 . S
Tb683 O718 2.349 . S
Tb683 O721 2.393 1_455 S
Tb683 O722 2.465 . S
Tb683 O723 2.387 . S
Tb683 O725 2.428 . S
Tb683 O726 2.308 . S
Tb683 C747 2.802 . S
N684 C680 1.361 . S
N684 Tb683 2.572 . S
N684 C686 1.340 . S
C685 C679 1.416 . S
C685 C687 1.332 . S
C685 H693 0.931 . S
C686 N684 1.340 . S
C686 C687 1.407 . S
C686 H692 0.930 . S
C687 C685 1.332 . S
C687 C686 1.407 . S
C687 H689 0.929 . S
H688 C677 0.930 . S
H689 C687 0.929 . S
H690 C705 0.930 1_545 S
H691 C712 0.929 . S
H692 C686 0.930 . S
H693 C685 0.931 . S
H694 C708 0.930 1_655 S
H695 C675 0.930 . S
H696 C681 0.929 . S
H697 C682 0.930 . S
H698 C703 0.930 . S
H699 C678 0.930 . S
H700 C711 0.930 1_655 S
N701 Tb672 2.630 . S
N701 C702 1.379 . S
N701 C705 1.334 . S
C702 N701 1.379 . S
C702 C704 1.416 . S
C702 C710 1.424 . S
C703 H698 0.930 . S
C703 C705 1.390 . S
C703 C706 1.339 . S
C704 C702 1.416 . S
C704 C706 1.416 . S
C704 C737 1.448 . S
C705 H690 0.930 1_565 S
C705 N701 1.334 . S
C705 C703 1.390 . S
C706 C703 1.339 . S
C706 C704 1.416 . S
C706 H713 0.930 . S
N707 Tb672 2.593 . S
N707 C708 1.340 . S
N707 C710 1.361 . S
C708 H694 0.930 1_455 S
C708 N707 1.340 . S
C708 C712 1.407 1_455 S
C709 C710 1.413 . S
C709 C711 1.418 . S
C709 C738 1.427 . S
C710 C702 1.424 . S
C710 N707 1.361 . S
C710 C709 1.413 . S
C711 H700 0.930 1_455 S
C711 C709 1.418 . S
C711 C712 1.331 1_455 S
C712 H691 0.929 . S
C712 C708 1.407 1_655 S
C712 C711 1.331 1_655 S
H713 C706 0.930 . S
H714 C737 0.930 . S
H715 C738 0.929 . S
O716 Tb672 2.494 . S
O716 C736 1.264 . S
O717 Tb672 2.366 1_545 S
O717 C728 1.264 . S
O718 Tb683 2.349 . S
O718 C728 1.243 . S
O719 Tb672 2.456 . S
O719 C736 1.256 . S
O720 Tb672 2.296 1_545 S
O720 C735 1.266 1_455 S
O721 Tb683 2.393 1_655 S
O721 C735 1.248 . S
O722 Tb683 2.465 . S
O722 C747 1.264 . S
O723 Tb683 2.387 . S
O723 C739 1.264 . S
O724 Tb672 2.338 1_545 S
O724 C739 1.243 . S
O725 Tb683 2.428 . S
O725 C747 1.256 . S
O726 Tb683 2.308 . S
O726 C746 1.266 . S
O727 Tb672 2.372 1_545 S
O727 C746 1.248 . S
C728 O717 1.264 . S
C728 O718 1.243 . S
C729 C732 1.399 . S
C729 C734 1.383 . S
C729 C736 1.496 . S
C730 C731 1.399 . S
C730 C734 1.389 . S
C731 C730 1.399 . S
C731 C733 1.380 . S
C731 H748 0.929 . S
C732 C729 1.399 . S
C732 C733 1.392 . S
C732 H749 0.929 . S
C733 C731 1.380 . S
C733 C732 1.392 . S
C733 H750 0.929 . S
C734 C729 1.383 . S
C734 C730 1.389 . S
C734 H751 0.931 . S
C735 O720 1.266 1_655 S
C735 O721 1.248 . S
C736 Tb672 2.834 . S
C736 O716 1.264 . S
C736 O719 1.256 . S
C736 C729 1.496 . S
C737 C704 1.448 . S
C737 H714 0.930 . S
C737 C738 1.328 . S
C738 C709 1.427 . S
C738 H715 0.929 . S
C738 C737 1.328 . S
C739 O723 1.264 . S
C739 O724 1.243 . S
C740 C743 1.399 1_455 S
C740 C744 1.383 . S
C740 C747 1.496 . S
C741 C742 1.399 . S
C741 C744 1.389 . S
C742 C741 1.399 . S
C742 C745 1.380 1_455 S
C742 H752 0.929 . S
C743 C740 1.399 1_655 S
C743 C745 1.392 . S
C743 H753 0.929 . S
C744 C740 1.383 . S
C744 C741 1.389 . S
C744 H754 0.931 . S
C745 C742 1.380 1_655 S
C745 C743 1.392 . S
C745 H755 0.929 . S
C746 O726 1.266 . S
C746 O727 1.248 . S
C747 Tb683 2.802 . S
C747 O722 1.264 . S
C747 O725 1.256 . S
C747 C740 1.496 . S
H748 C731 0.929 . S
H749 C732 0.929 . S
H750 C733 0.929 . S
H751 C734 0.931 . S
H752 C742 0.929 . S
H753 C743 0.929 . S
H754 C744 0.931 . S
H755 C745 0.929 . S
Tb756 N785 2.617 . S
Tb756 N791 2.572 . S
Tb756 O800 2.465 . S
Tb756 O801 2.387 . S
Tb756 O803 2.428 . S
Tb756 O804 2.308 . S
Tb756 O808 2.349 . S
Tb756 O811 2.393 . S
Tb756 C820 2.802 . S
C757 N758 1.379 . S
C757 C760 1.416 . S
C757 C764 1.424 . S
N758 C757 1.379 . S
N758 C761 1.334 . S
N758 Tb767 2.617 . S
C759 C761 1.390 . S
C759 C762 1.339 . S
C759 H779 0.930 . S
C760 C757 1.416 . S
C760 C762 1.416 . S
C760 C766 1.448 . S
C761 N758 1.334 . S
C761 C759 1.390 . S
C761 H772 0.930 . S
C762 C759 1.339 . S
C762 C760 1.416 . S
C762 H783 0.930 . S
C763 C764 1.413 . S
C763 C765 1.427 . S
C763 C769 1.416 . S
C764 C757 1.424 . S
C764 C763 1.413 . S
C764 N768 1.361 . S
C765 C763 1.427 . S
C765 C766 1.328 . S
C765 H780 0.929 . S
C766 C760 1.448 . S
C766 C765 1.328 . S
C766 H781 0.930 . S
Tb767 N758 2.617 . S
Tb767 N768 2.572 . S
Tb767 O802 2.349 . S
Tb767 O805 2.393 . S
Tb767 O806 2.465 . S
Tb767 O807 2.387 . S
Tb767 O809 2.428 . S
Tb767 O810 2.308 . S
Tb767 C831 2.802 . S
N768 C764 1.361 . S
N768 Tb767 2.572 . S
N768 C770 1.340 . S
C769 C763 1.416 . S
C769 C771 1.332 . S
C769 H777 0.931 . S
C770 N768 1.340 . S
C770 C771 1.407 . S
C770 H776 0.930 . S
C771 C769 1.332 . S
C771 C770 1.407 . S
C771 H773 0.929 . S
H772 C761 0.930 . S
H773 C771 0.929 . S
H774 C789 0.930 . S
H775 C796 0.929 . S
H776 C770 0.930 . S
H777 C769 0.931 . S
H778 C792 0.930 . S
H779 C759 0.930 . S
H780 C765 0.929 . S
H781 C766 0.930 . S
H782 C787 0.930 . S
H783 C762 0.930 . S
H784 C795 0.931 . S
N785 Tb756 2.617 . S
N785 C786 1.379 . S
N785 C789 1.334 . S
C786 N785 1.379 . S
C786 C788 1.416 . S
C786 C794 1.424 . S
C787 H782 0.930 . S
C787 C789 1.390 . S
C787 C790 1.339 . S
C788 C786 1.416 . S
C788 C790 1.416 . S
C788 C821 1.448 . S
C789 H774 0.930 . S
C789 N785 1.334 . S
C789 C787 1.390 . S
C790 C787 1.339 . S
C790 C788 1.416 . S
C790 H797 0.930 . S
N791 Tb756 2.572 . S
N791 C792 1.340 . S
N791 C794 1.361 . S
C792 H778 0.930 . S
C792 N791 1.340 . S
C792 C796 1.407 . S
C793 C794 1.413 . S
C793 C795 1.416 . S
C793 C822 1.427 . S
C794 C786 1.424 . S
C794 N791 1.361 . S
C794 C793 1.413 . S
C795 H784 0.931 . S
C795 C793 1.416 . S
C795 C796 1.332 . S
C796 H775 0.929 . S
C796 C792 1.407 . S
C796 C795 1.332 . S
H797 C790 0.930 . S
H798 C821 0.930 . S
H799 C822 0.929 . S
O800 Tb756 2.465 . S
O800 C820 1.264 . S
O801 Tb756 2.387 . S
O801 C812 1.264 . S
O802 Tb767 2.349 . S
O802 C812 1.243 . S
O803 Tb756 2.428 . S
O803 C820 1.256 . S
O804 Tb756 2.308 . S
O804 C819 1.266 . S
O805 Tb767 2.393 . S
O805 C819 1.248 . S
O806 Tb767 2.465 . S
O806 C831 1.264 . S
O807 Tb767 2.387 . S
O807 C823 1.264 . S
O808 Tb756 2.349 . S
O808 C823 1.243 . S
O809 Tb767 2.428 . S
O809 C831 1.256 . S
O810 Tb767 2.308 . S
O810 C830 1.266 . S
O811 Tb756 2.393 . S
O811 C830 1.248 . S
C812 O801 1.264 . S
C812 O802 1.243 . S
C813 C816 1.399 . S
C813 C818 1.383 . S
C813 C820 1.496 . S
C814 C815 1.399 . S
C814 C818 1.389 . S
C815 C814 1.399 . S
C815 C817 1.380 . S
C815 H832 0.929 . S
C816 C813 1.399 . S
C816 C817 1.392 . S
C816 H833 0.929 . S
C817 C815 1.380 . S
C817 C816 1.392 . S
C817 H834 0.929 . S
C818 C813 1.383 . S
C818 C814 1.389 . S
C818 H835 0.931 . S
C819 O804 1.266 . S
C819 O805 1.248 . S
C820 Tb756 2.802 . S
C820 O800 1.264 . S
C820 O803 1.256 . S
C820 C813 1.496 . S
C821 C788 1.448 . S
C821 H798 0.930 . S
C821 C822 1.328 . S
C822 C793 1.427 . S
C822 H799 0.929 . S
C822 C821 1.328 . S
C823 O807 1.264 . S
C823 O808 1.243 . S
C824 C827 1.399 . S
C824 C828 1.383 . S
C824 C831 1.496 . S
C825 C826 1.399 . S
C825 C828 1.389 . S
C826 C825 1.399 . S
C826 C829 1.380 . S
C826 H836 0.929 . S
C827 C824 1.399 . S
C827 C829 1.392 . S
C827 H837 0.929 . S
C828 C824 1.383 . S
C828 C825 1.389 . S
C828 H838 0.931 . S
C829 C826 1.380 . S
C829 C827 1.392 . S
C829 H839 0.929 . S
C830 O810 1.266 . S
C830 O811 1.248 . S
C831 Tb767 2.802 . S
C831 O806 1.264 . S
C831 O809 1.256 . S
C831 C824 1.496 . S
H832 C815 0.929 . S
H833 C816 0.929 . S
H834 C817 0.929 . S
H835 C818 0.931 . S
H836 C826 0.929 . S
H837 C827 0.929 . S
H838 C828 0.931 . S
H839 C829 0.929 . S
Tb840 N869 2.627 . S
Tb840 N875 2.572 1_554 S
Tb840 O884 2.465 1_554 S
Tb840 O885 2.387 . S
Tb840 O887 2.428 1_554 S
Tb840 O888 2.308 . S
Tb840 O892 2.349 . S
Tb840 O895 2.393 . S
Tb840 C904 2.802 1_554 S
C841 N842 1.379 . S
C841 C844 1.415 . S
C841 C848 1.424 1_565 S
N842 C841 1.379 . S
N842 C845 1.334 . S
N842 Tb851 2.617 1_565 S
C843 C845 1.390 . S
C843 C846 1.339 . S
C843 H863 0.930 . S
C844 C841 1.415 . S
C844 C846 1.416 . S
C844 C850 1.446 1_565 S
C845 N842 1.334 . S
C845 C843 1.390 . S
C845 H856 0.930 . S
C846 C843 1.339 . S
C846 C844 1.416 . S
C846 H867 0.930 . S
C847 C848 1.413 . S
C847 C849 1.427 . S
C847 C853 1.416 . S
C848 C841 1.424 1_545 S
C848 C847 1.413 . S
C848 N852 1.361 . S
C849 C847 1.427 . S
C849 C850 1.339 . S
C849 H864 0.929 . S
C850 C844 1.446 1_545 S
C850 C849 1.339 . S
C850 H865 0.922 1_545 S
Tb851 N842 2.617 1_545 S
Tb851 N852 2.572 . S
Tb851 O886 2.349 . S
Tb851 O889 2.393 1_545 S
Tb851 O890 2.465 . S
Tb851 O891 2.387 . S
Tb851 O893 2.428 1_545 S
Tb851 O894 2.308 . S
Tb851 C915 2.802 . S
N852 C848 1.361 . S
N852 Tb851 2.572 . S
N852 C854 1.340 . S
C853 C847 1.416 . S
C853 C855 1.332 . S
C853 H861 0.931 . S
C854 N852 1.340 . S
C854 C855 1.407 . S
C854 H860 0.930 . S
C855 C853 1.332 . S
C855 C854 1.407 . S
C855 H857 0.929 . S
H856 C845 0.930 . S
H857 C855 0.929 . S
H858 C873 0.930 . S
H859 C880 0.929 . S
H860 C854 0.930 . S
H861 C853 0.931 . S
H862 C876 0.930 1_565 S
H863 C843 0.930 . S
H864 C849 0.929 . S
H865 C850 0.922 1_565 S
H866 C871 0.930 . S
H867 C846 0.930 . S
H868 C879 0.931 1_565 S
N869 Tb840 2.627 . S
N869 C870 1.362 1_554 S
N869 C873 1.344 . S
C870 N869 1.362 1_556 S
C870 C872 1.416 . S
C870 C878 1.424 . S
C871 H866 0.930 . S
C871 C873 1.390 . S
C871 C874 1.339 1_554 S
C872 C870 1.416 . S
C872 C874 1.416 . S
C872 C905 1.448 . S
C873 H858 0.930 . S
C873 N869 1.344 . S
C873 C871 1.390 . S
C874 C871 1.339 1_556 S
C874 C872 1.416 . S
C874 H881 0.930 . S
N875 Tb840 2.572 1_556 S
N875 C876 1.340 . S
N875 C878 1.361 . S
C876 H862 0.930 1_545 S
C876 N875 1.340 . S
C876 C880 1.407 1_545 S
C877 C878 1.413 . S
C877 C879 1.416 . S
C877 C906 1.427 . S
C878 C870 1.424 . S
C878 N875 1.361 . S
C878 C877 1.413 . S
C879 H868 0.931 1_545 S
C879 C877 1.416 . S
C879 C880 1.332 1_545 S
C880 H859 0.929 . S
C880 C876 1.407 1_565 S
C880 C879 1.332 1_565 S
H881 C874 0.930 . S
H882 C905 0.930 . S
H883 C906 0.929 . S
O884 Tb840 2.465 1_556 S
O884 C904 1.264 . S
O885 Tb840 2.387 . S
O885 C896 1.264 . S
O886 Tb851 2.349 . S
O886 C896 1.243 . S
O887 Tb840 2.428 1_556 S
O887 C904 1.256 . S
O888 Tb840 2.308 . S
O888 C903 1.266 1_545 S
O889 Tb851 2.393 1_565 S
O889 C903 1.248 . S
O890 Tb851 2.465 . S
O890 C915 1.264 . S
O891 Tb851 2.387 . S
O891 C907 1.264 . S
O892 Tb840 2.349 . S
O892 C907 1.243 . S
O893 Tb851 2.428 1_565 S
O893 C915 1.256 1_565 S
O894 Tb851 2.308 . S
O894 C914 1.266 . S
O895 Tb840 2.393 . S
O895 C914 1.248 . S
C896 O885 1.264 . S
C896 O886 1.243 . S
C897 C900 1.399 . S
C897 C902 1.383 . S
C897 C904 1.496 . S
C898 C899 1.399 . S
C898 C902 1.389 . S
C899 C898 1.399 . S
C899 C901 1.380 . S
C899 H916 0.929 . S
C900 C897 1.399 . S
C900 C901 1.392 . S
C900 H917 0.929 . S
C901 C899 1.380 . S
C901 C900 1.392 . S
C901 H918 0.929 . S
C902 C897 1.383 . S
C902 C898 1.389 . S
C902 H919 0.931 . S
C903 O888 1.266 1_565 S
C903 O889 1.248 . S
C904 Tb840 2.802 1_556 S
C904 O884 1.264 . S
C904 O887 1.256 . S
C904 C897 1.496 . S
C905 C872 1.448 . S
C905 H882 0.930 . S
C905 C906 1.328 . S
C906 C877 1.427 . S
C906 H883 0.929 . S
C906 C905 1.328 . S
C907 O891 1.264 . S
C907 O892 1.243 . S
C908 C911 1.399 . S
C908 C912 1.383 1_565 S
C908 C915 1.496 1_565 S
C909 C910 1.399 1_545 S
C909 C912 1.389 . S
C910 C909 1.399 1_565 S
C910 C913 1.380 . S
C910 H920 0.929 . S
C911 C908 1.399 . S
C911 C913 1.392 . S
C911 H921 0.929 . S
C912 C908 1.383 1_545 S
C912 C909 1.389 . S
C912 H922 0.931 . S
C913 C910 1.380 . S
C913 C911 1.392 . S
C913 H923 0.929 . S
C914 O894 1.266 . S
C914 O895 1.248 . S
C915 Tb851 2.802 . S
C915 O890 1.264 . S
C915 O893 1.256 1_545 S
C915 C908 1.496 1_545 S
H916 C899 0.929 . S
H917 C900 0.929 . S
H918 C901 0.929 . S
H919 C902 0.931 . S
H920 C910 0.929 . S
H921 C911 0.929 . S
H922 C912 0.931 . S
H923 C913 0.929 . S
Tb924 N953 2.617 . S
Tb924 N959 2.572 . S
Tb924 O968 2.465 . S
Tb924 O969 2.387 . S
Tb924 O971 2.428 . S
Tb924 O972 2.308 . S
Tb924 O976 2.349 . S
Tb924 O979 2.393 . S
Tb924 C988 2.802 . S
C925 N926 1.379 . S
C925 C928 1.416 . S
C925 C932 1.424 . S
N926 C925 1.379 . S
N926 C929 1.334 . S
N926 Tb935 2.617 . S
C927 C929 1.390 . S
C927 C930 1.339 . S
C927 H947 0.930 . S
C928 C925 1.416 . S
C928 C930 1.416 . S
C928 C934 1.448 . S
C929 N926 1.334 . S
C929 C927 1.390 . S
C929 H940 0.930 . S
C930 C927 1.339 . S
C930 C928 1.416 . S
C930 H951 0.930 . S
C931 C932 1.413 . S
C931 C933 1.427 . S
C931 C937 1.416 . S
C932 C925 1.424 . S
C932 C931 1.413 . S
C932 N936 1.361 . S
C933 C931 1.427 . S
C933 C934 1.328 . S
C933 H948 0.929 . S
C934 C928 1.448 . S
C934 C933 1.328 . S
C934 H949 0.930 . S
Tb935 N926 2.617 . S
Tb935 N936 2.572 . S
Tb935 O970 2.349 . S
Tb935 O973 2.393 . S
Tb935 O974 2.465 . S
Tb935 O975 2.387 . S
Tb935 O977 2.428 . S
Tb935 O978 2.308 . S
Tb935 C999 2.802 . S
N936 C932 1.361 . S
N936 Tb935 2.572 . S
N936 C938 1.340 . S
C937 C931 1.416 . S
C937 C939 1.332 . S
C937 H945 0.931 . S
C938 N936 1.340 . S
C938 C939 1.407 . S
C938 H944 0.930 . S
C939 C937 1.332 . S
C939 C938 1.407 . S
C939 H941 0.929 . S
H940 C929 0.930 . S
H941 C939 0.929 . S
H942 C957 0.930 . S
H943 C964 0.929 . S
H944 C938 0.930 . S
H945 C937 0.931 . S
H946 C960 0.930 . S
H947 C927 0.930 . S
H948 C933 0.929 . S
H949 C934 0.930 . S
H950 C955 0.930 . S
H951 C930 0.930 . S
H952 C963 0.931 . S
N953 Tb924 2.617 . S
N953 C954 1.379 . S
N953 C957 1.334 . S
C954 N953 1.379 . S
C954 C956 1.416 . S
C954 C962 1.424 . S
C955 H950 0.930 . S
C955 C957 1.390 . S
C955 C958 1.339 . S
C956 C954 1.416 . S
C956 C958 1.416 . S
C956 C989 1.448 . S
C957 H942 0.930 . S
C957 N953 1.334 . S
C957 C955 1.390 . S
C958 C955 1.339 . S
C958 C956 1.416 . S
C958 H965 0.930 . S
N959 Tb924 2.572 . S
N959 C960 1.340 . S
N959 C962 1.361 . S
C960 H946 0.930 . S
C960 N959 1.340 . S
C960 C964 1.407 . S
C961 C962 1.413 . S
C961 C963 1.416 . S
C961 C990 1.427 . S
C962 C954 1.424 . S
C962 N959 1.361 . S
C962 C961 1.413 . S
C963 H952 0.931 . S
C963 C961 1.416 . S
C963 C964 1.332 . S
C964 H943 0.929 . S
C964 C960 1.407 . S
C964 C963 1.332 . S
H965 C958 0.930 . S
H966 C989 0.930 . S
H967 C990 0.929 . S
O968 Tb924 2.465 . S
O968 C988 1.264 . S
O969 Tb924 2.387 . S
O969 C980 1.264 . S
O970 Tb935 2.349 . S
O970 C980 1.243 . S
O971 Tb924 2.428 . S
O971 C988 1.256 . S
O972 Tb924 2.308 . S
O972 C987 1.266 . S
O973 Tb935 2.393 . S
O973 C987 1.248 . S
O974 Tb935 2.465 . S
O974 C999 1.264 . S
O975 Tb935 2.387 . S
O975 C991 1.264 . S
O976 Tb924 2.349 . S
O976 C991 1.243 . S
O977 Tb935 2.428 . S
O977 C999 1.256 . S
O978 Tb935 2.308 . S
O978 C998 1.266 . S
O979 Tb924 2.393 . S
O979 C998 1.248 . S
C980 O969 1.264 . S
C980 O970 1.243 . S
C981 C984 1.399 . S
C981 C986 1.383 . S
C981 C988 1.496 . S
C982 C983 1.399 . S
C982 C986 1.389 . S
C983 C982 1.399 . S
C983 C985 1.380 . S
C983 H1000 0.929 . S
C984 C981 1.399 . S
C984 C985 1.392 . S
C984 H1001 0.929 . S
C985 C983 1.380 . S
C985 C984 1.392 . S
C985 H1002 0.929 . S
C986 C981 1.383 . S
C986 C982 1.389 . S
C986 H1003 0.931 . S
C987 O972 1.266 . S
C987 O973 1.248 . S
C988 Tb924 2.802 . S
C988 O968 1.264 . S
C988 O971 1.256 . S
C988 C981 1.496 . S
C989 C956 1.448 . S
C989 H966 0.930 . S
C989 C990 1.328 . S
C990 C961 1.427 . S
C990 H967 0.929 . S
C990 C989 1.328 . S
C991 O975 1.264 . S
C991 O976 1.243 . S
C992 C995 1.399 . S
C992 C996 1.383 . S
C992 C999 1.496 . S
C993 C994 1.399 . S
C993 C996 1.389 . S
C994 C993 1.399 . S
C994 C997 1.380 . S
C994 H1004 0.929 . S
C995 C992 1.399 . S
C995 C997 1.392 . S
C995 H1005 0.929 . S
C996 C992 1.383 . S
C996 C993 1.389 . S
C996 H1006 0.931 . S
C997 C994 1.380 . S
C997 C995 1.392 . S
C997 H1007 0.929 . S
C998 O978 1.266 . S
C998 O979 1.248 . S
C999 Tb935 2.802 . S
C999 O974 1.264 . S
C999 O977 1.256 . S
C999 C992 1.496 . S
H1000 C983 0.929 . S
H1001 C984 0.929 . S
H1002 C985 0.929 . S
H1003 C986 0.931 . S
H1004 C994 0.929 . S
H1005 C995 0.929 . S
H1006 C996 0.931 . S
H1007 C997 0.929 . S
Tb1008 N1037 2.617 . S
Tb1008 N1043 2.572 . S
Tb1008 O1052 2.465 . S
Tb1008 O1053 2.387 . S
Tb1008 O1055 2.428 . S
Tb1008 O1056 2.308 . S
Tb1008 O1060 2.349 . S
Tb1008 O1063 2.393 . S
Tb1008 C1072 2.802 . S
C1009 N1010 1.379 . S
C1009 C1012 1.416 . S
C1009 C1016 1.424 . S
N1010 C1009 1.379 . S
N1010 C1013 1.334 . S
N1010 Tb1019 2.617 . S
C1011 C1013 1.390 . S
C1011 C1014 1.339 . S
C1011 H1031 0.930 . S
C1012 C1009 1.416 . S
C1012 C1014 1.416 . S
C1012 C1018 1.448 . S
C1013 N1010 1.334 . S
C1013 C1011 1.390 . S
C1013 H1024 0.930 . S
C1014 C1011 1.339 . S
C1014 C1012 1.416 . S
C1014 H1035 0.930 . S
C1015 C1016 1.413 . S
C1015 C1017 1.427 . S
C1015 C1021 1.416 . S
C1016 C1009 1.424 . S
C1016 C1015 1.413 . S
C1016 N1020 1.361 . S
C1017 C1015 1.427 . S
C1017 C1018 1.328 . S
C1017 H1032 0.929 . S
C1018 C1012 1.448 . S
C1018 C1017 1.328 . S
C1018 H1033 0.930 . S
Tb1019 N1010 2.617 . S
Tb1019 N1020 2.572 . S
Tb1019 O1054 2.349 . S
Tb1019 O1057 2.393 . S
Tb1019 O1058 2.465 . S
Tb1019 O1059 2.387 . S
Tb1019 O1061 2.428 . S
Tb1019 O1062 2.308 . S
Tb1019 C1083 2.802 . S
N1020 C1016 1.361 . S
N1020 Tb1019 2.572 . S
N1020 C1022 1.340 . S
C1021 C1015 1.416 . S
C1021 C1023 1.332 . S
C1021 H1029 0.931 . S
C1022 N1020 1.340 . S
C1022 C1023 1.407 . S
C1022 H1028 0.930 . S
C1023 C1021 1.332 . S
C1023 C1022 1.407 . S
C1023 H1025 0.929 . S
H1024 C1013 0.930 . S
H1025 C1023 0.929 . S
H1026 C1041 0.930 . S
H1027 C1048 0.929 . S
H1028 C1022 0.930 . S
H1029 C1021 0.931 . S
H1030 C1044 0.930 . S
H1031 C1011 0.930 . S
H1032 C1017 0.929 . S
H1033 C1018 0.930 . S
H1034 C1039 0.930 . S
H1035 C1014 0.930 . S
H1036 C1047 0.931 . S
N1037 Tb1008 2.617 . S
N1037 C1038 1.379 1_554 S
N1037 C1041 1.334 . S
C1038 N1037 1.379 1_556 S
C1038 C1040 1.416 . S
C1038 C1046 1.424 . S
C1039 H1034 0.930 . S
C1039 C1041 1.390 1_556 S
C1039 C1042 1.339 . S
C1040 C1038 1.416 . S
C1040 C1042 1.416 . S
C1040 C1073 1.448 . S
C1041 H1026 0.930 . S
C1041 N1037 1.334 . S
C1041 C1039 1.390 1_554 S
C1042 C1039 1.339 . S
C1042 C1040 1.416 . S
C1042 H1049 0.930 . S
N1043 Tb1008 2.572 . S
N1043 C1044 1.340 . S
N1043 C1046 1.361 1_554 S
C1044 H1030 0.930 . S
C1044 N1043 1.340 . S
C1044 C1048 1.407 1_554 S
C1045 C1046 1.413 . S
C1045 C1047 1.416 . S
C1045 C1074 1.427 . S
C1046 C1038 1.424 . S
C1046 N1043 1.361 1_556 S
C1046 C1045 1.413 . S
C1047 H1036 0.931 . S
C1047 C1045 1.416 . S
C1047 C1048 1.332 . S
C1048 H1027 0.929 . S
C1048 C1044 1.407 1_556 S
C1048 C1047 1.332 . S
H1049 C1042 0.930 . S
H1050 C1073 0.930 . S
H1051 C1074 0.929 . S
O1052 Tb1008 2.465 . S
O1052 C1072 1.264 . S
O1053 Tb1008 2.387 . S
O1053 C1064 1.272 . S
O1054 Tb1019 2.349 . S
O1054 C1064 1.260 . S
O1055 Tb1008 2.428 . S
O1055 C1072 1.256 . S
O1056 Tb1008 2.308 . S
O1056 C1071 1.266 . S
O1057 Tb1019 2.393 . S
O1057 C1071 1.248 . S
O1058 Tb1019 2.465 . S
O1058 C1083 1.264 . S
O1059 Tb1019 2.387 . S
O1059 C1075 1.264 . S
O1060 Tb1008 2.349 . S
O1060 C1075 1.243 . S
O1061 Tb1019 2.428 . S
O1061 C1083 1.256 . S
O1062 Tb1019 2.308 . S
O1062 C1082 1.266 . S
O1063 Tb1008 2.393 . S
O1063 C1082 1.248 . S
C1064 O1053 1.272 . S
C1064 O1054 1.260 . S
C1065 C1068 1.399 . S
C1065 C1070 1.383 . S
C1065 C1072 1.496 . S
C1066 C1067 1.399 . S
C1066 C1070 1.389 . S
C1067 C1066 1.399 . S
C1067 C1069 1.380 . S
C1067 H1084 0.929 . S
C1068 C1065 1.399 . S
C1068 C1069 1.392 . S
C1068 H1085 0.929 . S
C1069 C1067 1.380 . S
C1069 C1068 1.392 . S
C1069 H1086 0.929 . S
C1070 C1065 1.383 . S
C1070 C1066 1.389 . S
C1070 H1087 0.931 . S
C1071 O1056 1.266 . S
C1071 O1057 1.248 . S
C1072 Tb1008 2.802 . S
C1072 O1052 1.264 . S
C1072 O1055 1.256 . S
C1072 C1065 1.496 . S
C1073 C1040 1.448 . S
C1073 H1050 0.930 . S
C1073 C1074 1.328 . S
C1074 C1045 1.427 . S
C1074 H1051 0.929 . S
C1074 C1073 1.328 . S
C1075 O1059 1.264 . S
C1075 O1060 1.243 . S
C1076 C1079 1.399 . S
C1076 C1080 1.383 . S
C1076 C1083 1.496 . S
C1077 C1078 1.399 . S
C1077 C1080 1.389 1_556 S
C1078 C1077 1.399 . S
C1078 C1081 1.380 1_556 S
C1078 H1088 0.929 . S
C1079 C1076 1.399 . S
C1079 C1081 1.392 . S
C1079 H1089 0.929 . S
C1080 C1076 1.383 . S
C1080 C1077 1.389 1_554 S
C1080 H1090 0.931 . S
C1081 C1078 1.380 1_554 S
C1081 C1079 1.392 . S
C1081 H1091 0.929 . S
C1082 O1062 1.266 . S
C1082 O1063 1.248 . S
C1083 Tb1019 2.802 . S
C1083 O1058 1.264 . S
C1083 O1061 1.256 . S
C1083 C1076 1.496 . S
H1084 C1067 0.929 . S
H1085 C1068 0.929 . S
H1086 C1069 0.929 . S
H1087 C1070 0.931 . S
H1088 C1078 0.929 . S
H1089 C1079 0.929 . S
H1090 C1080 0.931 . S
H1091 C1081 0.929 . S
Tb1092 N1121 2.617 . S
Tb1092 N1127 2.572 . S
Tb1092 O1136 2.465 . S
Tb1092 O1137 2.387 . S
Tb1092 O1139 2.428 . S
Tb1092 O1140 2.308 . S
Tb1092 O1144 2.349 . S
Tb1092 O1147 2.393 . S
Tb1092 C1156 2.802 . S
C1093 N1094 1.379 . S
C1093 C1096 1.416 . S
C1093 C1100 1.424 . S
N1094 C1093 1.379 . S
N1094 C1097 1.334 . S
N1094 Tb1103 2.617 . S
C1095 C1097 1.390 . S
C1095 C1098 1.339 . S
C1095 H1115 0.930 . S
C1096 C1093 1.416 . S
C1096 C1098 1.416 . S
C1096 C1102 1.448 . S
C1097 N1094 1.334 . S
C1097 C1095 1.390 . S
C1097 H1108 0.930 . S
C1098 C1095 1.339 . S
C1098 C1096 1.416 . S
C1098 H1119 0.930 . S
C1099 C1100 1.413 . S
C1099 C1101 1.427 . S
C1099 C1105 1.416 . S
C1100 C1093 1.424 . S
C1100 C1099 1.413 . S
C1100 N1104 1.361 . S
C1101 C1099 1.427 . S
C1101 C1102 1.328 . S
C1101 H1116 0.929 . S
C1102 C1096 1.448 . S
C1102 C1101 1.328 . S
C1102 H1117 0.930 . S
Tb1103 N1094 2.617 . S
Tb1103 N1104 2.572 . S
Tb1103 O1138 2.349 . S
Tb1103 O1141 2.393 . S
Tb1103 O1142 2.465 . S
Tb1103 O1143 2.387 . S
Tb1103 O1145 2.428 . S
Tb1103 O1146 2.308 . S
Tb1103 C1167 2.802 . S
N1104 C1100 1.361 . S
N1104 Tb1103 2.572 . S
N1104 C1106 1.340 . S
C1105 C1099 1.416 . S
C1105 C1107 1.332 . S
C1105 H1113 0.931 . S
C1106 N1104 1.340 . S
C1106 C1107 1.407 . S
C1106 H1112 0.930 . S
C1107 C1105 1.332 . S
C1107 C1106 1.407 . S
C1107 H1109 0.929 . S
H1108 C1097 0.930 . S
H1109 C1107 0.929 . S
H1110 C1125 0.930 . S
H1111 C1132 0.929 . S
H1112 C1106 0.930 . S
H1113 C1105 0.931 . S
H1114 C1128 0.930 . S
H1115 C1095 0.930 . S
H1116 C1101 0.929 . S
H1117 C1102 0.930 . S
H1118 C1123 0.930 . S
H1119 C1098 0.930 . S
H1120 C1131 0.931 . S
N1121 Tb1092 2.617 . S
N1121 C1122 1.379 . S
N1121 C1125 1.334 . S
C1122 N1121 1.379 . S
C1122 C1124 1.416 . S
C1122 C1130 1.424 . S
C1123 H1118 0.930 . S
C1123 C1125 1.390 . S
C1123 C1126 1.339 . S
C1124 C1122 1.416 . S
C1124 C1126 1.416 . S
C1124 C1157 1.448 . S
C1125 H1110 0.930 . S
C1125 N1121 1.334 . S
C1125 C1123 1.390 . S
C1126 C1123 1.339 . S
C1126 C1124 1.416 . S
C1126 H1133 0.930 . S
N1127 Tb1092 2.572 . S
N1127 C1128 1.340 . S
N1127 C1130 1.361 . S
C1128 H1114 0.930 . S
C1128 N1127 1.340 . S
C1128 C1132 1.407 . S
C1129 C1130 1.413 . S
C1129 C1131 1.416 . S
C1129 C1158 1.427 . S
C1130 C1122 1.424 . S
C1130 N1127 1.361 . S
C1130 C1129 1.413 . S
C1131 H1120 0.931 . S
C1131 C1129 1.416 . S
C1131 C1132 1.332 . S
C1132 H1111 0.929 . S
C1132 C1128 1.407 . S
C1132 C1131 1.332 . S
H1133 C1126 0.930 . S
H1134 C1157 0.930 . S
H1135 C1158 0.929 . S
O1136 Tb1092 2.465 . S
O1136 C1156 1.264 . S
O1137 Tb1092 2.387 . S
O1137 C1148 1.264 . S
O1138 Tb1103 2.349 . S
O1138 C1148 1.243 . S
O1139 Tb1092 2.428 . S
O1139 C1156 1.256 . S
O1140 Tb1092 2.308 . S
O1140 C1155 1.266 . S
O1141 Tb1103 2.393 . S
O1141 C1155 1.248 . S
O1142 Tb1103 2.465 . S
O1142 C1167 1.264 . S
O1143 Tb1103 2.387 . S
O1143 C1159 1.264 . S
O1144 Tb1092 2.349 . S
O1144 C1159 1.243 . S
O1145 Tb1103 2.428 . S
O1145 C1167 1.256 . S
O1146 Tb1103 2.308 . S
O1146 C1166 1.266 . S
O1147 Tb1092 2.393 . S
O1147 C1166 1.248 . S
C1148 O1137 1.264 . S
C1148 O1138 1.243 . S
C1149 C1152 1.399 . S
C1149 C1154 1.383 . S
C1149 C1156 1.496 . S
C1150 C1151 1.399 . S
C1150 C1154 1.389 . S
C1151 C1150 1.399 . S
C1151 C1153 1.380 . S
C1151 H1168 0.929 . S
C1152 C1149 1.399 . S
C1152 C1153 1.392 . S
C1152 H1169 0.929 . S
C1153 C1151 1.380 . S
C1153 C1152 1.392 . S
C1153 H1170 0.929 . S
C1154 C1149 1.383 . S
C1154 C1150 1.389 . S
C1154 H1171 0.931 . S
C1155 O1140 1.266 . S
C1155 O1141 1.248 . S
C1156 Tb1092 2.802 . S
C1156 O1136 1.264 . S
C1156 O1139 1.256 . S
C1156 C1149 1.496 . S
C1157 C1124 1.448 . S
C1157 H1134 0.930 . S
C1157 C1158 1.328 . S
C1158 C1129 1.427 . S
C1158 H1135 0.929 . S
C1158 C1157 1.328 . S
C1159 O1143 1.264 . S
C1159 O1144 1.243 . S
C1160 C1163 1.399 . S
C1160 C1164 1.383 . S
C1160 C1167 1.496 . S
C1161 C1162 1.399 . S
C1161 C1164 1.389 . S
C1162 C1161 1.399 . S
C1162 C1165 1.380 . S
C1162 H1172 0.929 . S
C1163 C1160 1.399 . S
C1163 C1165 1.392 . S
C1163 H1173 0.929 . S
C1164 C1160 1.383 . S
C1164 C1161 1.389 . S
C1164 H1174 0.931 . S
C1165 C1162 1.380 . S
C1165 C1163 1.392 . S
C1165 H1175 0.929 . S
C1166 O1146 1.266 . S
C1166 O1147 1.248 . S
C1167 Tb1103 2.802 . S
C1167 O1142 1.264 . S
C1167 O1145 1.256 . S
C1167 C1160 1.496 . S
H1168 C1151 0.929 . S
H1169 C1152 0.929 . S
H1170 C1153 0.929 . S
H1171 C1154 0.931 . S
H1172 C1162 0.929 . S
H1173 C1163 0.929 . S
H1174 C1164 0.931 . S
H1175 C1165 0.929 . S
Tb1176 N1205 2.617 1_455 S
Tb1176 N1211 2.572 1_455 S
Tb1176 O1220 2.465 . S
Tb1176 O1221 2.387 1_455 S
Tb1176 O1223 2.428 . S
Tb1176 O1224 2.308 . S
Tb1176 O1228 2.349 . S
Tb1176 O1231 2.393 . S
Tb1176 C1240 2.802 . S
C1177 N1178 1.379 . S
C1177 C1180 1.416 . S
C1177 C1184 1.424 . S
N1178 C1177 1.379 . S
N1178 C1181 1.334 . S
N1178 Tb1187 2.617 . S
C1179 C1181 1.390 . S
C1179 C1182 1.339 . S
C1179 H1199 0.930 . S
C1180 C1177 1.416 . S
C1180 C1182 1.416 . S
C1180 C1186 1.448 . S
C1181 N1178 1.334 . S
C1181 C1179 1.390 . S
C1181 H1192 0.930 . S
C1182 C1179 1.339 . S
C1182 C1180 1.416 . S
C1182 H1203 0.930 . S
C1183 C1184 1.413 . S
C1183 C1185 1.427 . S
C1183 C1189 1.416 . S
C1184 C1177 1.424 . S
C1184 C1183 1.413 . S
C1184 N1188 1.361 . S
C1185 C1183 1.427 . S
C1185 C1186 1.328 . S
C1185 H1200 0.929 . S
C1186 C1180 1.448 . S
C1186 C1185 1.328 . S
C1186 H1201 0.930 . S
Tb1187 N1178 2.617 . S
Tb1187 N1188 2.572 . S
Tb1187 O1222 2.349 1_455 S
Tb1187 O1225 2.393 . S
Tb1187 O1226 2.465 . S
Tb1187 O1227 2.387 . S
Tb1187 O1229 2.428 . S
Tb1187 O1230 2.308 . S
Tb1187 C1251 2.802 . S
N1188 C1184 1.361 . S
N1188 Tb1187 2.572 . S
N1188 C1190 1.340 . S
C1189 C1183 1.416 . S
C1189 C1191 1.332 . S
C1189 H1197 0.931 . S
C1190 N1188 1.340 . S
C1190 C1191 1.407 . S
C1190 H1196 0.930 . S
C1191 C1189 1.332 . S
C1191 C1190 1.407 . S
C1191 H1193 0.929 . S
H1192 C1181 0.930 . S
H1193 C1191 0.929 . S
H1194 C1209 0.930 1_455 S
H1195 C1216 0.929 . S
H1196 C1190 0.930 . S
H1197 C1189 0.931 . S
H1198 C1212 0.930 . S
H1199 C1179 0.930 . S
H1200 C1185 0.929 . S
H1201 C1186 0.930 . S
H1202 C1207 0.930 . S
H1203 C1182 0.930 . S
H1204 C1215 0.931 . S
N1205 Tb1176 2.617 1_655 S
N1205 C1206 1.379 . S
N1205 C1209 1.334 . S
C1206 N1205 1.379 . S
C1206 C1208 1.416 . S
C1206 C1214 1.424 . S
C1207 H1202 0.930 . S
C1207 C1209 1.390 . S
C1207 C1210 1.339 . S
C1208 C1206 1.416 . S
C1208 C1210 1.416 . S
C1208 C1241 1.448 . S
C1209 H1194 0.930 1_655 S
C1209 N1205 1.334 . S
C1209 C1207 1.390 . S
C1210 C1207 1.339 . S
C1210 C1208 1.416 . S
C1210 H1217 0.930 . S
N1211 Tb1176 2.572 1_655 S
N1211 C1212 1.340 . S
N1211 C1214 1.361 . S
C1212 H1198 0.930 . S
C1212 N1211 1.340 . S
C1212 C1216 1.407 . S
C1213 C1214 1.413 . S
C1213 C1215 1.416 . S
C1213 C1242 1.427 . S
C1214 C1206 1.424 . S
C1214 N1211 1.361 . S
C1214 C1213 1.413 . S
C1215 H1204 0.931 . S
C1215 C1213 1.416 . S
C1215 C1216 1.332 . S
C1216 H1195 0.929 . S
C1216 C1212 1.407 . S
C1216 C1215 1.332 . S
H1217 C1210 0.930 . S
H1218 C1241 0.930 . S
H1219 C1242 0.929 . S
O1220 Tb1176 2.465 . S
O1220 C1240 1.264 . S
O1221 Tb1176 2.387 1_655 S
O1221 C1232 1.264 . S
O1222 Tb1187 2.349 1_655 S
O1222 C1232 1.243 . S
O1223 Tb1176 2.428 . S
O1223 C1240 1.256 . S
O1224 Tb1176 2.308 . S
O1224 C1239 1.266 . S
O1225 Tb1187 2.393 . S
O1225 C1239 1.248 . S
O1226 Tb1187 2.465 . S
O1226 C1251 1.264 . S
O1227 Tb1187 2.387 . S
O1227 C1243 1.264 . S
O1228 Tb1176 2.349 . S
O1228 C1243 1.243 . S
O1229 Tb1187 2.428 . S
O1229 C1251 1.256 . S
O1230 Tb1187 2.308 . S
O1230 C1250 1.266 . S
O1231 Tb1176 2.393 . S
O1231 C1250 1.248 . S
C1232 O1221 1.264 . S
C1232 O1222 1.243 . S
C1233 C1236 1.399 . S
C1233 C1238 1.383 . S
C1233 C1240 1.496 . S
C1234 C1235 1.399 . S
C1234 C1238 1.389 . S
C1235 C1234 1.399 . S
C1235 C1237 1.380 . S
C1235 H1252 0.929 . S
C1236 C1233 1.399 . S
C1236 C1237 1.392 . S
C1236 H1253 0.929 . S
C1237 C1235 1.380 . S
C1237 C1236 1.392 . S
C1237 H1254 0.929 . S
C1238 C1233 1.383 . S
C1238 C1234 1.389 . S
C1238 H1255 0.931 . S
C1239 O1224 1.266 . S
C1239 O1225 1.248 . S
C1240 Tb1176 2.802 . S
C1240 O1220 1.264 . S
C1240 O1223 1.256 . S
C1240 C1233 1.496 . S
C1241 C1208 1.448 . S
C1241 H1218 0.930 . S
C1241 C1242 1.328 . S
C1242 C1213 1.427 . S
C1242 H1219 0.929 . S
C1242 C1241 1.328 . S
C1243 O1227 1.264 . S
C1243 O1228 1.243 . S
C1244 C1247 1.399 . S
C1244 C1248 1.383 . S
C1244 C1251 1.496 1_655 S
C1245 C1246 1.399 . S
C1245 C1248 1.389 . S
C1246 C1245 1.399 . S
C1246 C1249 1.380 . S
C1246 H1256 0.929 . S
C1247 C1244 1.399 . S
C1247 C1249 1.392 . S
C1247 H1257 0.929 . S
C1248 C1244 1.383 . S
C1248 C1245 1.389 . S
C1248 H1258 0.931 . S
C1249 C1246 1.380 . S
C1249 C1247 1.392 . S
C1249 H1259 0.929 . S
C1250 O1230 1.266 . S
C1250 O1231 1.248 . S
C1251 Tb1187 2.802 . S
C1251 O1226 1.264 . S
C1251 O1229 1.256 . S
C1251 C1244 1.496 1_455 S
H1252 C1235 0.929 . S
H1253 C1236 0.929 . S
H1254 C1237 0.929 . S
H1255 C1238 0.931 . S
H1256 C1246 0.929 . S
H1257 C1247 0.929 . S
H1258 C1248 0.931 . S
H1259 C1249 0.929 . S
Tb1260 N1289 2.617 . S
Tb1260 N1295 2.572 . S
Tb1260 O1304 2.465 . S
Tb1260 O1305 2.387 . S
Tb1260 O1307 2.428 . S
Tb1260 O1308 2.308 . S
Tb1260 O1312 2.349 . S
Tb1260 O1315 2.393 . S
Tb1260 C1324 2.802 . S
C1261 N1262 1.379 . S
C1261 C1264 1.416 . S
C1261 C1268 1.424 . S
N1262 C1261 1.379 . S
N1262 C1265 1.334 . S
N1262 Tb1271 2.617 . S
C1263 C1265 1.390 . S
C1263 C1266 1.339 . S
C1263 H1283 0.930 . S
C1264 C1261 1.416 . S
C1264 C1266 1.416 . S
C1264 C1270 1.448 . S
C1265 N1262 1.334 . S
C1265 C1263 1.390 . S
C1265 H1276 0.930 . S
C1266 C1263 1.339 . S
C1266 C1264 1.416 . S
C1266 H1287 0.930 . S
C1267 C1268 1.413 . S
C1267 C1269 1.427 . S
C1267 C1273 1.416 . S
C1268 C1261 1.424 . S
C1268 C1267 1.413 . S
C1268 N1272 1.361 . S
C1269 C1267 1.427 . S
C1269 C1270 1.328 . S
C1269 H1284 0.929 . S
C1270 C1264 1.448 . S
C1270 C1269 1.328 . S
C1270 H1285 0.930 . S
Tb1271 N1262 2.617 . S
Tb1271 N1272 2.572 . S
Tb1271 O1306 2.349 . S
Tb1271 O1309 2.393 . S
Tb1271 O1310 2.465 . S
Tb1271 O1311 2.387 . S
Tb1271 O1313 2.428 . S
Tb1271 O1314 2.308 . S
Tb1271 C1335 2.802 . S
N1272 C1268 1.361 . S
N1272 Tb1271 2.572 . S
N1272 C1274 1.340 . S
C1273 C1267 1.416 . S
C1273 C1275 1.332 . S
C1273 H1281 0.931 . S
C1274 N1272 1.340 . S
C1274 C1275 1.407 . S
C1274 H1280 0.930 . S
C1275 C1273 1.332 . S
C1275 C1274 1.407 . S
C1275 H1277 0.929 . S
H1276 C1265 0.930 . S
H1277 C1275 0.929 . S
H1278 C1293 0.930 . S
H1279 C1300 0.929 . S
H1280 C1274 0.930 . S
H1281 C1273 0.931 . S
H1282 C1296 0.930 . S
H1283 C1263 0.930 . S
H1284 C1269 0.929 . S
H1285 C1270 0.930 . S
H1286 C1291 0.930 . S
H1287 C1266 0.930 . S
H1288 C1299 0.931 . S
N1289 Tb1260 2.617 . S
N1289 C1290 1.379 . S
N1289 C1293 1.334 . S
C1290 N1289 1.379 . S
C1290 C1292 1.416 . S
C1290 C1298 1.424 . S
C1291 H1286 0.930 . S
C1291 C1293 1.390 . S
C1291 C1294 1.339 . S
C1292 C1290 1.416 . S
C1292 C1294 1.416 . S
C1292 C1325 1.448 . S
C1293 H1278 0.930 . S
C1293 N1289 1.334 . S
C1293 C1291 1.390 . S
C1294 C1291 1.339 . S
C1294 C1292 1.416 . S
C1294 H1301 0.930 . S
N1295 Tb1260 2.572 . S
N1295 C1296 1.340 . S
N1295 C1298 1.361 . S
C1296 H1282 0.930 . S
C1296 N1295 1.340 . S
C1296 C1300 1.407 . S
C1297 C1298 1.413 . S
C1297 C1299 1.416 . S
C1297 C1326 1.427 . S
C1298 C1290 1.424 . S
C1298 N1295 1.361 . S
C1298 C1297 1.413 . S
C1299 H1288 0.931 . S
C1299 C1297 1.416 . S
C1299 C1300 1.332 . S
C1300 H1279 0.929 . S
C1300 C1296 1.407 . S
C1300 C1299 1.332 . S
H1301 C1294 0.930 . S
H1302 C1325 0.930 . S
H1303 C1326 0.929 . S
O1304 Tb1260 2.465 . S
O1304 C1324 1.264 . S
O1305 Tb1260 2.387 . S
O1305 C1316 1.264 . S
O1306 Tb1271 2.349 . S
O1306 C1316 1.243 . S
O1307 Tb1260 2.428 . S
O1307 C1324 1.256 . S
O1308 Tb1260 2.308 . S
O1308 C1323 1.266 . S
O1309 Tb1271 2.393 . S
O1309 C1323 1.248 . S
O1310 Tb1271 2.465 . S
O1310 C1335 1.264 . S
O1311 Tb1271 2.387 . S
O1311 C1327 1.264 . S
O1312 Tb1260 2.349 . S
O1312 C1327 1.243 . S
O1313 Tb1271 2.428 . S
O1313 C1335 1.256 . S
O1314 Tb1271 2.308 . S
O1314 C1334 1.266 . S
O1315 Tb1260 2.393 . S
O1315 C1334 1.248 . S
C1316 O1305 1.264 . S
C1316 O1306 1.243 . S
C1317 C1320 1.399 . S
C1317 C1322 1.383 . S
C1317 C1324 1.496 . S
C1318 C1319 1.399 . S
C1318 C1322 1.389 . S
C1319 C1318 1.399 . S
C1319 C1321 1.380 . S
C1319 H1336 0.929 . S
C1320 C1317 1.399 . S
C1320 C1321 1.392 . S
C1320 H1337 0.929 . S
C1321 C1319 1.380 . S
C1321 C1320 1.392 . S
C1321 H1338 0.929 . S
C1322 C1317 1.383 . S
C1322 C1318 1.389 . S
C1322 H1339 0.931 . S
C1323 O1308 1.266 . S
C1323 O1309 1.248 . S
C1324 Tb1260 2.802 . S
C1324 O1304 1.264 . S
C1324 O1307 1.256 . S
C1324 C1317 1.496 . S
C1325 C1292 1.448 . S
C1325 H1302 0.930 . S
C1325 C1326 1.328 . S
C1326 C1297 1.427 . S
C1326 H1303 0.929 . S
C1326 C1325 1.328 . S
C1327 O1311 1.264 . S
C1327 O1312 1.243 . S
C1328 C1331 1.399 . S
C1328 C1332 1.383 . S
C1328 C1335 1.496 . S
C1329 C1330 1.399 . S
C1329 C1332 1.389 . S
C1330 C1329 1.399 . S
C1330 C1333 1.380 . S
C1330 H1340 0.929 . S
C1331 C1328 1.399 . S
C1331 C1333 1.392 . S
C1331 H1341 0.929 . S
C1332 C1328 1.383 . S
C1332 C1329 1.389 . S
C1332 H1342 0.931 . S
C1333 C1330 1.380 . S
C1333 C1331 1.392 . S
C1333 H1343 0.929 . S
C1334 O1314 1.266 . S
C1334 O1315 1.248 . S
C1335 Tb1271 2.802 . S
C1335 O1310 1.264 . S
C1335 O1313 1.256 . S
C1335 C1328 1.496 . S
H1336 C1319 0.929 . S
H1337 C1320 0.929 . S
H1338 C1321 0.929 . S
H1339 C1322 0.931 . S
H1340 C1330 0.929 . S
H1341 C1331 0.929 . S
H1342 C1332 0.931 . S
H1343 C1333 0.929 . S
Tb1344 N1373 2.617 . S
Tb1344 N1379 2.572 . S
Tb1344 O1388 2.465 . S
Tb1344 O1389 2.387 . S
Tb1344 O1391 2.428 . S
Tb1344 O1392 2.308 . S
Tb1344 O1396 2.349 . S
Tb1344 O1399 2.393 . S
Tb1344 C1408 2.802 . S
C1345 N1346 1.379 . S
C1345 C1348 1.416 . S
C1345 C1352 1.424 . S
N1346 C1345 1.379 . S
N1346 C1349 1.334 . S
N1346 Tb1355 2.617 . S
C1347 C1349 1.390 . S
C1347 C1350 1.339 . S
C1347 H1367 0.930 . S
C1348 C1345 1.416 . S
C1348 C1350 1.416 . S
C1348 C1354 1.448 . S
C1349 N1346 1.334 . S
C1349 C1347 1.390 . S
C1349 H1360 0.930 . S
C1350 C1347 1.339 . S
C1350 C1348 1.416 . S
C1350 H1371 0.930 . S
C1351 C1352 1.413 . S
C1351 C1353 1.427 . S
C1351 C1357 1.416 . S
C1352 C1345 1.424 . S
C1352 C1351 1.413 . S
C1352 N1356 1.361 . S
C1353 C1351 1.427 . S
C1353 C1354 1.328 . S
C1353 H1368 0.929 . S
C1354 C1348 1.448 . S
C1354 C1353 1.328 . S
C1354 H1369 0.930 . S
Tb1355 N1346 2.617 . S
Tb1355 N1356 2.572 . S
Tb1355 O1390 2.349 . S
Tb1355 O1393 2.393 . S
Tb1355 O1394 2.465 . S
Tb1355 O1395 2.387 . S
Tb1355 O1397 2.428 . S
Tb1355 O1398 2.308 . S
Tb1355 C1419 2.802 . S
N1356 C1352 1.361 . S
N1356 Tb1355 2.572 . S
N1356 C1358 1.340 . S
C1357 C1351 1.416 . S
C1357 C1359 1.332 . S
C1357 H1365 0.931 . S
C1358 N1356 1.340 . S
C1358 C1359 1.407 . S
C1358 H1364 0.930 . S
C1359 C1357 1.332 . S
C1359 C1358 1.407 . S
C1359 H1361 0.929 . S
H1360 C1349 0.930 . S
H1361 C1359 0.929 . S
H1362 C1377 0.930 . S
H1363 C1384 0.929 . S
H1364 C1358 0.930 . S
H1365 C1357 0.931 . S
H1366 C1380 0.930 . S
H1367 C1347 0.930 . S
H1368 C1353 0.929 . S
H1369 C1354 0.930 . S
H1370 C1375 0.930 . S
H1371 C1350 0.930 . S
H1372 C1383 0.931 . S
N1373 Tb1344 2.617 . S
N1373 C1374 1.379 . S
N1373 C1377 1.334 . S
C1374 N1373 1.379 . S
C1374 C1376 1.416 . S
C1374 C1382 1.424 . S
C1375 H1370 0.930 . S
C1375 C1377 1.390 . S
C1375 C1378 1.339 . S
C1376 C1374 1.416 . S
C1376 C1378 1.416 . S
C1376 C1409 1.448 . S
C1377 H1362 0.930 . S
C1377 N1373 1.334 . S
C1377 C1375 1.390 . S
C1378 C1375 1.339 . S
C1378 C1376 1.416 . S
C1378 H1385 0.930 . S
N1379 Tb1344 2.572 . S
N1379 C1380 1.340 . S
N1379 C1382 1.361 . S
C1380 H1366 0.930 . S
C1380 N1379 1.340 . S
C1380 C1384 1.407 . S
C1381 C1382 1.413 . S
C1381 C1383 1.416 . S
C1381 C1410 1.427 . S
C1382 C1374 1.424 . S
C1382 N1379 1.361 . S
C1382 C1381 1.413 . S
C1383 H1372 0.931 . S
C1383 C1381 1.416 . S
C1383 C1384 1.332 . S
C1384 H1363 0.929 . S
C1384 C1380 1.407 . S
C1384 C1383 1.332 . S
H1385 C1378 0.930 . S
H1386 C1409 0.930 . S
H1387 C1410 0.929 . S
O1388 Tb1344 2.465 . S
O1388 C1408 1.264 . S
O1389 Tb1344 2.387 . S
O1389 C1400 1.264 . S
O1390 Tb1355 2.349 . S
O1390 C1400 1.243 . S
O1391 Tb1344 2.428 . S
O1391 C1408 1.256 . S
O1392 Tb1344 2.308 . S
O1392 C1407 1.266 . S
O1393 Tb1355 2.393 . S
O1393 C1407 1.248 . S
O1394 Tb1355 2.465 . S
O1394 C1419 1.264 . S
O1395 Tb1355 2.387 . S
O1395 C1411 1.264 . S
O1396 Tb1344 2.349 . S
O1396 C1411 1.243 . S
O1397 Tb1355 2.428 . S
O1397 C1419 1.256 . S
O1398 Tb1355 2.308 . S
O1398 C1418 1.266 . S
O1399 Tb1344 2.393 . S
O1399 C1418 1.248 . S
C1400 O1389 1.264 . S
C1400 O1390 1.243 . S
C1401 C1404 1.399 . S
C1401 C1406 1.383 . S
C1401 C1408 1.496 . S
C1402 C1403 1.399 . S
C1402 C1406 1.389 . S
C1403 C1402 1.399 . S
C1403 C1405 1.380 . S
C1403 H1420 0.929 . S
C1404 C1401 1.399 . S
C1404 C1405 1.392 . S
C1404 H1421 0.929 . S
C1405 C1403 1.380 . S
C1405 C1404 1.392 . S
C1405 H1422 0.929 . S
C1406 C1401 1.383 . S
C1406 C1402 1.389 . S
C1406 H1423 0.931 . S
C1407 O1392 1.266 . S
C1407 O1393 1.248 . S
C1408 Tb1344 2.802 . S
C1408 O1388 1.264 . S
C1408 O1391 1.256 . S
C1408 C1401 1.496 . S
C1409 C1376 1.448 . S
C1409 H1386 0.930 . S
C1409 C1410 1.328 . S
C1410 C1381 1.427 . S
C1410 H1387 0.929 . S
C1410 C1409 1.328 . S
C1411 O1395 1.264 . S
C1411 O1396 1.243 . S
C1412 C1415 1.399 . S
C1412 C1416 1.383 . S
C1412 C1419 1.496 . S
C1413 C1414 1.399 . S
C1413 C1416 1.389 . S
C1414 C1413 1.399 . S
C1414 C1417 1.380 . S
C1414 H1424 0.929 . S
C1415 C1412 1.399 . S
C1415 C1417 1.392 . S
C1415 H1425 0.929 . S
C1416 C1412 1.383 . S
C1416 C1413 1.389 . S
C1416 H1426 0.931 . S
C1417 C1414 1.380 . S
C1417 C1415 1.392 . S
C1417 H1427 0.929 . S
C1418 O1398 1.266 . S
C1418 O1399 1.248 . S
C1419 Tb1355 2.802 . S
C1419 O1394 1.264 . S
C1419 O1397 1.256 . S
C1419 C1412 1.496 . S
H1420 C1403 0.929 . S
H1421 C1404 0.929 . S
H1422 C1405 0.929 . S
H1423 C1406 0.931 . S
H1424 C1414 0.929 . S
H1425 C1415 0.929 . S
H1426 C1416 0.931 . S
H1427 C1417 0.929 . S
Tb1428 N1457 2.617 . S
Tb1428 N1463 2.572 . S
Tb1428 O1472 2.465 . S
Tb1428 O1473 2.387 . S
Tb1428 O1475 2.428 . S
Tb1428 O1476 2.308 . S
Tb1428 O1480 2.349 . S
Tb1428 O1483 2.393 . S
Tb1428 C1492 2.802 . S
C1429 N1430 1.379 . S
C1429 C1432 1.416 . S
C1429 C1436 1.424 . S
N1430 C1429 1.379 . S
N1430 C1433 1.334 . S
N1430 Tb1439 2.617 . S
C1431 C1433 1.390 . S
C1431 C1434 1.339 . S
C1431 H1451 0.930 . S
C1432 C1429 1.416 . S
C1432 C1434 1.416 . S
C1432 C1438 1.448 . S
C1433 N1430 1.334 . S
C1433 C1431 1.390 . S
C1433 H1444 0.930 . S
C1434 C1431 1.339 . S
C1434 C1432 1.416 . S
C1434 H1455 0.930 . S
C1435 C1436 1.413 . S
C1435 C1437 1.427 . S
C1435 C1441 1.416 . S
C1436 C1429 1.424 . S
C1436 C1435 1.413 . S
C1436 N1440 1.361 . S
C1437 C1435 1.427 . S
C1437 C1438 1.328 . S
C1437 H1452 0.929 . S
C1438 C1432 1.448 . S
C1438 C1437 1.328 . S
C1438 H1453 0.930 . S
Tb1439 N1430 2.617 . S
Tb1439 N1440 2.572 . S
Tb1439 O1474 2.349 . S
Tb1439 O1477 2.393 . S
Tb1439 O1478 2.465 . S
Tb1439 O1479 2.387 . S
Tb1439 O1481 2.428 . S
Tb1439 O1482 2.308 . S
Tb1439 C1503 2.802 . S
N1440 C1436 1.361 . S
N1440 Tb1439 2.572 . S
N1440 C1442 1.340 . S
C1441 C1435 1.416 . S
C1441 C1443 1.332 . S
C1441 H1449 0.931 . S
C1442 N1440 1.340 . S
C1442 C1443 1.407 . S
C1442 H1448 0.930 . S
C1443 C1441 1.332 . S
C1443 C1442 1.407 . S
C1443 H1445 0.929 . S
H1444 C1433 0.930 . S
H1445 C1443 0.929 . S
H1446 C1461 0.930 . S
H1447 C1468 0.929 . S
H1448 C1442 0.930 . S
H1449 C1441 0.931 . S
H1450 C1464 0.930 . S
H1451 C1431 0.930 . S
H1452 C1437 0.929 . S
H1453 C1438 0.930 . S
H1454 C1459 0.930 . S
H1455 C1434 0.930 . S
H1456 C1467 0.931 . S
N1457 Tb1428 2.617 . S
N1457 C1458 1.379 . S
N1457 C1461 1.334 . S
C1458 N1457 1.379 . S
C1458 C1460 1.416 . S
C1458 C1466 1.424 . S
C1459 H1454 0.930 . S
C1459 C1461 1.390 . S
C1459 C1462 1.339 . S
C1460 C1458 1.416 . S
C1460 C1462 1.416 . S
C1460 C1493 1.448 . S
C1461 H1446 0.930 . S
C1461 N1457 1.334 . S
C1461 C1459 1.390 . S
C1462 C1459 1.339 . S
C1462 C1460 1.416 . S
C1462 H1469 0.930 . S
N1463 Tb1428 2.572 . S
N1463 C1464 1.340 . S
N1463 C1466 1.361 . S
C1464 H1450 0.930 . S
C1464 N1463 1.340 . S
C1464 C1468 1.407 . S
C1465 C1466 1.413 . S
C1465 C1467 1.416 . S
C1465 C1494 1.427 . S
C1466 C1458 1.424 . S
C1466 N1463 1.361 . S
C1466 C1465 1.413 . S
C1467 H1456 0.931 . S
C1467 C1465 1.416 . S
C1467 C1468 1.332 . S
C1468 H1447 0.929 . S
C1468 C1464 1.407 . S
C1468 C1467 1.332 . S
H1469 C1462 0.930 . S
H1470 C1493 0.930 . S
H1471 C1494 0.929 . S
O1472 Tb1428 2.465 . S
O1472 C1492 1.264 . S
O1473 Tb1428 2.387 . S
O1473 C1484 1.264 . S
O1474 Tb1439 2.349 . S
O1474 C1484 1.243 . S
O1475 Tb1428 2.428 . S
O1475 C1492 1.256 . S
O1476 Tb1428 2.308 . S
O1476 C1491 1.266 . S
O1477 Tb1439 2.393 . S
O1477 C1491 1.248 . S
O1478 Tb1439 2.465 . S
O1478 C1503 1.264 . S
O1479 Tb1439 2.387 . S
O1479 C1495 1.264 . S
O1480 Tb1428 2.349 . S
O1480 C1495 1.243 . S
O1481 Tb1439 2.428 . S
O1481 C1503 1.256 . S
O1482 Tb1439 2.308 . S
O1482 C1502 1.266 . S
O1483 Tb1428 2.393 . S
O1483 C1502 1.248 . S
C1484 O1473 1.264 . S
C1484 O1474 1.243 . S
C1485 C1488 1.399 . S
C1485 C1490 1.383 . S
C1485 C1492 1.496 . S
C1486 C1487 1.399 . S
C1486 C1490 1.389 . S
C1487 C1486 1.399 . S
C1487 C1489 1.380 . S
C1487 H1504 0.929 . S
C1488 C1485 1.399 . S
C1488 C1489 1.392 . S
C1488 H1505 0.929 . S
C1489 C1487 1.380 . S
C1489 C1488 1.392 . S
C1489 H1506 0.929 . S
C1490 C1485 1.383 . S
C1490 C1486 1.389 . S
C1490 H1507 0.931 . S
C1491 O1476 1.266 . S
C1491 O1477 1.248 . S
C1492 Tb1428 2.802 . S
C1492 O1472 1.264 . S
C1492 O1475 1.256 . S
C1492 C1485 1.496 . S
C1493 C1460 1.448 . S
C1493 H1470 0.930 . S
C1493 C1494 1.328 . S
C1494 C1465 1.427 . S
C1494 H1471 0.929 . S
C1494 C1493 1.328 . S
C1495 O1479 1.264 . S
C1495 O1480 1.243 . S
C1496 C1499 1.399 . S
C1496 C1500 1.383 . S
C1496 C1503 1.496 . S
C1497 C1498 1.399 . S
C1497 C1500 1.389 . S
C1498 C1497 1.399 . S
C1498 C1501 1.380 . S
C1498 H1508 0.929 . S
C1499 C1496 1.399 . S
C1499 C1501 1.392 . S
C1499 H1509 0.929 . S
C1500 C1496 1.383 . S
C1500 C1497 1.389 . S
C1500 H1510 0.931 . S
C1501 C1498 1.380 . S
C1501 C1499 1.392 . S
C1501 H1511 0.929 . S
C1502 O1482 1.266 . S
C1502 O1483 1.248 . S
C1503 Tb1439 2.802 . S
C1503 O1478 1.264 . S
C1503 O1481 1.256 . S
C1503 C1496 1.496 . S
H1504 C1487 0.929 . S
H1505 C1488 0.929 . S
H1506 C1489 0.929 . S
H1507 C1490 0.931 . S
H1508 C1498 0.929 . S
H1509 C1499 0.929 . S
H1510 C1500 0.931 . S
H1511 C1501 0.929 . S
Tb1512 N1541 2.617 . S
Tb1512 N1547 2.572 . S
Tb1512 O1556 2.465 . S
Tb1512 O1557 2.387 . S
Tb1512 O1559 2.428 . S
Tb1512 O1560 2.308 . S
Tb1512 O1564 2.349 . S
Tb1512 O1567 2.393 . S
Tb1512 C1576 2.802 . S
C1513 N1514 1.379 . S
C1513 C1516 1.416 . S
C1513 C1520 1.424 . S
N1514 C1513 1.379 . S
N1514 C1517 1.334 . S
N1514 Tb1523 2.617 . S
C1515 C1517 1.390 . S
C1515 C1518 1.339 . S
C1515 H1535 0.930 . S
C1516 C1513 1.416 . S
C1516 C1518 1.416 . S
C1516 C1522 1.448 . S
C1517 N1514 1.334 . S
C1517 C1515 1.390 . S
C1517 H1528 0.930 . S
C1518 C1515 1.339 . S
C1518 C1516 1.416 . S
C1518 H1539 0.930 . S
C1519 C1520 1.413 . S
C1519 C1521 1.427 . S
C1519 C1525 1.416 . S
C1520 C1513 1.424 . S
C1520 C1519 1.413 . S
C1520 N1524 1.361 . S
C1521 C1519 1.427 . S
C1521 C1522 1.328 . S
C1521 H1536 0.929 . S
C1522 C1516 1.448 . S
C1522 C1521 1.328 . S
C1522 H1537 0.930 . S
Tb1523 N1514 2.617 . S
Tb1523 N1524 2.572 . S
Tb1523 O1558 2.349 . S
Tb1523 O1561 2.393 . S
Tb1523 O1562 2.465 . S
Tb1523 O1563 2.387 . S
Tb1523 O1565 2.428 . S
Tb1523 O1566 2.308 . S
Tb1523 C1587 2.802 . S
N1524 C1520 1.361 . S
N1524 Tb1523 2.572 . S
N1524 C1526 1.340 . S
C1525 C1519 1.416 . S
C1525 C1527 1.332 . S
C1525 H1533 0.931 . S
C1526 N1524 1.340 . S
C1526 C1527 1.407 . S
C1526 H1532 0.930 . S
C1527 C1525 1.332 . S
C1527 C1526 1.407 . S
C1527 H1529 0.929 . S
H1528 C1517 0.930 . S
H1529 C1527 0.929 . S
H1530 C1545 0.930 . S
H1531 C1552 0.929 . S
H1532 C1526 0.930 . S
H1533 C1525 0.931 . S
H1534 C1548 0.930 . S
H1535 C1515 0.930 . S
H1536 C1521 0.929 . S
H1537 C1522 0.930 . S
H1538 C1543 0.930 . S
H1539 C1518 0.930 . S
H1540 C1551 0.931 . S
N1541 Tb1512 2.617 . S
N1541 C1542 1.379 . S
N1541 C1545 1.334 . S
C1542 N1541 1.379 . S
C1542 C1544 1.416 . S
C1542 C1550 1.424 . S
C1543 H1538 0.930 . S
C1543 C1545 1.390 . S
C1543 C1546 1.339 . S
C1544 C1542 1.416 . S
C1544 C1546 1.416 . S
C1544 C1577 1.448 . S
C1545 H1530 0.930 . S
C1545 N1541 1.334 . S
C1545 C1543 1.390 . S
C1546 C1543 1.339 . S
C1546 C1544 1.416 . S
C1546 H1553 0.930 . S
N1547 Tb1512 2.572 . S
N1547 C1548 1.340 . S
N1547 C1550 1.361 . S
C1548 H1534 0.930 . S
C1548 N1547 1.340 . S
C1548 C1552 1.407 . S
C1549 C1550 1.413 . S
C1549 C1551 1.416 . S
C1549 C1578 1.427 . S
C1550 C1542 1.424 . S
C1550 N1547 1.361 . S
C1550 C1549 1.413 . S
C1551 H1540 0.931 . S
C1551 C1549 1.416 . S
C1551 C1552 1.332 . S
C1552 H1531 0.929 . S
C1552 C1548 1.407 . S
C1552 C1551 1.332 . S
H1553 C1546 0.930 . S
H1554 C1577 0.930 . S
H1555 C1578 0.929 . S
O1556 Tb1512 2.465 . S
O1556 C1576 1.264 . S
O1557 Tb1512 2.387 . S
O1557 C1568 1.264 . S
O1558 Tb1523 2.349 . S
O1558 C1568 1.243 . S
O1559 Tb1512 2.428 . S
O1559 C1576 1.256 . S
O1560 Tb1512 2.308 . S
O1560 C1575 1.266 . S
O1561 Tb1523 2.393 . S
O1561 C1575 1.248 . S
O1562 Tb1523 2.465 . S
O1562 C1587 1.264 . S
O1563 Tb1523 2.387 . S
O1563 C1579 1.264 . S
O1564 Tb1512 2.349 . S
O1564 C1579 1.243 . S
O1565 Tb1523 2.428 . S
O1565 C1587 1.256 . S
O1566 Tb1523 2.308 . S
O1566 C1586 1.266 . S
O1567 Tb1512 2.393 . S
O1567 C1586 1.248 . S
C1568 O1557 1.264 . S
C1568 O1558 1.243 . S
C1569 C1572 1.399 . S
C1569 C1574 1.383 . S
C1569 C1576 1.496 . S
C1570 C1571 1.399 . S
C1570 C1574 1.389 . S
C1571 C1570 1.399 . S
C1571 C1573 1.380 . S
C1571 H1588 0.929 . S
C1572 C1569 1.399 . S
C1572 C1573 1.392 . S
C1572 H1589 0.929 . S
C1573 C1571 1.380 . S
C1573 C1572 1.392 . S
C1573 H1590 0.929 . S
C1574 C1569 1.383 . S
C1574 C1570 1.389 . S
C1574 H1591 0.931 . S
C1575 O1560 1.266 . S
C1575 O1561 1.248 . S
C1576 Tb1512 2.802 . S
C1576 O1556 1.264 . S
C1576 O1559 1.256 . S
C1576 C1569 1.496 . S
C1577 C1544 1.448 . S
C1577 H1554 0.930 . S
C1577 C1578 1.328 . S
C1578 C1549 1.427 . S
C1578 H1555 0.929 . S
C1578 C1577 1.328 . S
C1579 O1563 1.264 . S
C1579 O1564 1.243 . S
C1580 C1583 1.399 . S
C1580 C1584 1.383 . S
C1580 C1587 1.496 . S
C1581 C1582 1.399 . S
C1581 C1584 1.389 . S
C1582 C1581 1.399 . S
C1582 C1585 1.380 . S
C1582 H1592 0.929 . S
C1583 C1580 1.399 . S
C1583 C1585 1.392 . S
C1583 H1593 0.929 . S
C1584 C1580 1.383 . S
C1584 C1581 1.389 . S
C1584 H1594 0.931 . S
C1585 C1582 1.380 . S
C1585 C1583 1.392 . S
C1585 H1595 0.929 . S
C1586 O1566 1.266 . S
C1586 O1567 1.248 . S
C1587 Tb1523 2.802 . S
C1587 O1562 1.264 . S
C1587 O1565 1.256 . S
C1587 C1580 1.496 . S
H1588 C1571 0.929 . S
H1589 C1572 0.929 . S
H1590 C1573 0.929 . S
H1591 C1574 0.931 . S
H1592 C1582 0.929 . S
H1593 C1583 0.929 . S
H1594 C1584 0.931 . S
H1595 C1585 0.929 . S
Tb1596 N1625 2.617 . S
Tb1596 N1631 2.572 . S
Tb1596 O1640 2.465 . S
Tb1596 O1641 2.387 1_655 S
Tb1596 O1643 2.428 . S
Tb1596 O1644 2.308 1_655 S
Tb1596 O1648 2.349 1_655 S
Tb1596 O1651 2.393 1_655 S
Tb1596 C1660 2.802 . S
C1597 N1598 1.379 . S
C1597 C1600 1.416 . S
C1597 C1604 1.424 . S
N1598 C1597 1.379 . S
N1598 C1601 1.334 1_554 S
N1598 Tb1607 2.617 . S
C1599 C1601 1.390 . S
C1599 C1602 1.339 . S
C1599 H1619 0.930 . S
C1600 C1597 1.416 . S
C1600 C1602 1.416 1_554 S
C1600 C1606 1.448 . S
C1601 N1598 1.334 1_556 S
C1601 C1599 1.390 . S
C1601 H1612 0.930 . S
C1602 C1599 1.339 . S
C1602 C1600 1.416 1_556 S
C1602 H1623 0.930 . S
C1603 C1604 1.413 . S
C1603 C1605 1.427 . S
C1603 C1609 1.416 . S
C1604 C1597 1.424 . S
C1604 C1603 1.413 . S
C1604 N1608 1.361 . S
C1605 C1603 1.427 . S
C1605 C1606 1.328 . S
C1605 H1620 0.929 . S
C1606 C1600 1.448 . S
C1606 C1605 1.328 . S
C1606 H1621 0.930 . S
Tb1607 N1598 2.617 . S
Tb1607 N1608 2.572 . S
Tb1607 O1642 2.349 . S
Tb1607 O1645 2.393 . S
Tb1607 O1646 2.465 . S
Tb1607 O1647 2.387 . S
Tb1607 O1649 2.428 . S
Tb1607 O1650 2.308 . S
Tb1607 C1671 2.802 . S
N1608 C1604 1.361 . S
N1608 Tb1607 2.572 . S
N1608 C1610 1.340 . S
C1609 C1603 1.416 . S
C1609 C1611 1.332 . S
C1609 H1617 0.931 . S
C1610 N1608 1.340 . S
C1610 C1611 1.407 . S
C1610 H1616 0.930 . S
C1611 C1609 1.332 . S
C1611 C1610 1.407 . S
C1611 H1613 0.929 . S
H1612 C1601 0.930 . S
H1613 C1611 0.929 . S
H1614 C1629 0.930 1_455 S
H1615 C1636 0.929 . S
H1616 C1610 0.930 . S
H1617 C1609 0.931 . S
H1618 C1632 0.930 . S
H1619 C1599 0.930 . S
H1620 C1605 0.929 . S
H1621 C1606 0.930 . S
H1622 C1627 0.930 . S
H1623 C1602 0.930 . S
H1624 C1635 0.931 . S
N1625 Tb1596 2.617 . S
N1625 C1626 1.379 . S
N1625 C1629 1.334 . S
C1626 N1625 1.379 . S
C1626 C1628 1.416 . S
C1626 C1634 1.424 . S
C1627 H1622 0.930 . S
C1627 C1629 1.390 . S
C1627 C1630 1.339 . S
C1628 C1626 1.416 . S
C1628 C1630 1.416 . S
C1628 C1661 1.448 . S
C1629 H1614 0.930 1_655 S
C1629 N1625 1.334 . S
C1629 C1627 1.390 . S
C1630 C1627 1.339 . S
C1630 C1628 1.416 . S
C1630 H1637 0.930 . S
N1631 Tb1596 2.572 . S
N1631 C1632 1.340 . S
N1631 C1634 1.361 . S
C1632 H1618 0.930 . S
C1632 N1631 1.340 . S
C1632 C1636 1.407 . S
C1633 C1634 1.413 . S
C1633 C1635 1.416 . S
C1633 C1662 1.427 . S
C1634 C1626 1.424 . S
C1634 N1631 1.361 . S
C1634 C1633 1.413 . S
C1635 H1624 0.931 . S
C1635 C1633 1.416 . S
C1635 C1636 1.332 . S
C1636 H1615 0.929 . S
C1636 C1632 1.407 . S
C1636 C1635 1.332 . S
H1637 C1630 0.930 . S
H1638 C1661 0.930 . S
H1639 C1662 0.929 . S
O1640 Tb1596 2.465 . S
O1640 C1660 1.264 . S
O1641 Tb1596 2.387 1_455 S
O1641 C1652 1.264 . S
O1642 Tb1607 2.349 . S
O1642 C1652 1.243 . S
O1643 Tb1596 2.428 . S
O1643 C1660 1.256 . S
O1644 Tb1596 2.308 1_455 S
O1644 C1659 1.266 . S
O1645 Tb1607 2.393 . S
O1645 C1659 1.248 . S
O1646 Tb1607 2.465 . S
O1646 C1671 1.264 . S
O1647 Tb1607 2.387 . S
O1647 C1663 1.264 . S
O1648 Tb1596 2.349 1_455 S
O1648 C1663 1.243 . S
O1649 Tb1607 2.428 . S
O1649 C1671 1.256 . S
O1650 Tb1607 2.308 . S
O1650 C1670 1.266 . S
O1651 Tb1596 2.393 1_455 S
O1651 C1670 1.248 . S
C1652 O1641 1.264 . S
C1652 O1642 1.243 . S
C1653 C1656 1.399 . S
C1653 C1658 1.383 . S
C1653 C1660 1.496 . S
C1654 C1655 1.399 . S
C1654 C1658 1.389 . S
C1655 C1654 1.399 . S
C1655 C1657 1.380 . S
C1655 H1672 0.929 . S
C1656 C1653 1.399 . S
C1656 C1657 1.392 . S
C1656 H1673 0.929 . S
C1657 C1655 1.380 . S
C1657 C1656 1.392 . S
C1657 H1674 0.929 . S
C1658 C1653 1.383 . S
C1658 C1654 1.389 . S
C1658 H1675 0.931 . S
C1659 O1644 1.266 . S
C1659 O1645 1.248 . S
C1660 Tb1596 2.802 . S
C1660 O1640 1.264 . S
C1660 O1643 1.256 . S
C1660 C1653 1.496 . S
C1661 C1628 1.448 . S
C1661 H1638 0.930 . S
C1661 C1662 1.328 . S
C1662 C1633 1.427 . S
C1662 H1639 0.929 . S
C1662 C1661 1.328 . S
C1663 O1647 1.264 . S
C1663 O1648 1.243 . S
C1664 C1667 1.399 . S
C1664 C1668 1.383 . S
C1664 C1671 1.496 . S
C1665 C1666 1.399 . S
C1665 C1668 1.389 . S
C1666 C1665 1.399 . S
C1666 C1669 1.380 . S
C1666 H1676 0.929 . S
C1667 C1664 1.399 . S
C1667 C1669 1.392 . S
C1667 H1677 0.929 . S
C1668 C1664 1.383 . S
C1668 C1665 1.389 . S
C1668 H1678 0.931 . S
C1669 C1666 1.380 . S
C1669 C1667 1.392 . S
C1669 H1679 0.929 1_554 S
C1670 O1650 1.266 . S
C1670 O1651 1.248 . S
C1671 Tb1607 2.802 . S
C1671 O1646 1.264 . S
C1671 O1649 1.256 . S
C1671 C1664 1.496 . S
H1672 C1655 0.929 . S
H1673 C1656 0.929 . S
H1674 C1657 0.929 . S
H1675 C1658 0.931 . S
H1676 C1666 0.929 . S
H1677 C1667 0.929 . S
H1678 C1668 0.931 . S
H1679 C1669 0.929 1_556 S
C1680 C1681 1.349 . S
C1680 C1682 1.327 . S
C1680 H1705 0.950 . S
C1681 C1680 1.349 . S
C1681 C1697 1.349 1_655 S
C1682 C1680 1.327 . S
C1682 C1701 1.429 1_655 S
C1682 H1706 0.950 . S
C1683 C1700 1.574 . S
C1683 C1702 1.368 . S
C1683 H1707 0.949 . S
H1684 C1688 0.949 . S
C1685 C1686 1.349 . S
C1685 C1687 1.299 1_554 S
C1685 H1708 0.956 . S
C1686 C1685 1.349 . S
C1686 C1698 1.349 . S
C1687 C1685 1.299 1_556 S
C1687 C1703 1.404 1_556 S
C1687 H1709 1.006 . S
C1688 H1684 0.949 . S
C1688 C1696 1.574 . S
C1688 C1704 1.372 1_554 S
H1689 C1697 0.950 . S
H1690 C1695 0.950 . S
H1691 C1696 0.949 1_655 S
H1692 C1698 0.950 . S
H1693 C1699 0.950 . S
H1694 C1700 0.949 . S
C1695 H1690 0.950 . S
C1695 C1697 1.327 . S
C1695 C1701 1.429 . S
C1696 C1688 1.574 . S
C1696 H1691 0.949 1_455 S
C1696 C1702 1.368 1_554 S
C1697 C1681 1.349 1_455 S
C1697 H1689 0.950 . S
C1697 C1695 1.327 . S
C1698 C1686 1.349 . S
C1698 H1692 0.950 . S
C1698 C1699 1.327 . S
C1699 H1693 0.950 . S
C1699 C1698 1.327 . S
C1699 C1703 1.429 . S
C1700 C1683 1.574 . S
C1700 H1694 0.949 . S
C1700 C1704 1.363 . S
C1701 C1682 1.429 1_455 S
C1701 C1695 1.429 . S
C1701 C1702 1.523 . S
C1702 C1683 1.368 . S
C1702 C1696 1.368 1_556 S
C1702 C1701 1.523 . S
C1703 C1687 1.404 1_554 S
C1703 C1699 1.429 . S
C1703 C1704 1.526 1_554 S
C1704 C1688 1.372 1_556 S
C1704 C1700 1.363 . S
C1704 C1703 1.526 1_556 S
H1705 C1680 0.950 . S
H1706 C1682 0.950 . S
H1707 C1683 0.949 . S
H1708 C1685 0.956 . S
H1709 C1687 1.006 . S
C1710 C1711 1.349 . S
C1710 C1712 1.327 . S
C1710 H1735 0.950 . S
C1711 C1710 1.349 . S
C1711 C1727 1.349 . S
C1712 C1710 1.327 . S
C1712 C1731 1.429 . S
C1712 H1736 0.950 . S
C1713 C1730 1.574 . S
C1713 C1732 1.368 . S
C1713 H1737 0.949 . S
H1714 C1718 0.949 . S
C1715 C1716 1.349 . S
C1715 C1717 1.327 . S
C1715 H1738 0.950 . S
C1716 C1715 1.349 . S
C1716 C1728 1.349 . S
C1717 C1715 1.327 . S
C1717 C1733 1.429 . S
C1717 H1739 0.950 . S
C1718 H1714 0.949 . S
C1718 C1726 1.574 . S
C1718 C1734 1.368 . S
H1719 C1727 0.950 . S
H1720 C1725 0.950 . S
H1721 C1726 0.949 . S
H1722 C1728 0.950 . S
H1723 C1729 0.950 . S
H1724 C1730 0.949 . S
C1725 H1720 0.950 . S
C1725 C1727 1.327 . S
C1725 C1731 1.429 . S
C1726 C1718 1.574 . S
C1726 H1721 0.949 . S
C1726 C1732 1.368 . S
C1727 C1711 1.349 . S
C1727 H1719 0.950 . S
C1727 C1725 1.327 . S
C1728 C1716 1.349 . S
C1728 H1722 0.950 . S
C1728 C1729 1.327 . S
C1729 H1723 0.950 . S
C1729 C1728 1.327 . S
C1729 C1733 1.429 . S
C1730 C1713 1.574 . S
C1730 H1724 0.949 . S
C1730 C1734 1.368 . S
C1731 C1712 1.429 . S
C1731 C1725 1.429 . S
C1731 C1732 1.523 . S
C1732 C1713 1.368 . S
C1732 C1726 1.368 . S
C1732 C1731 1.523 . S
C1733 C1717 1.429 . S
C1733 C1729 1.429 . S
C1733 C1734 1.523 . S
C1734 C1718 1.368 . S
C1734 C1730 1.368 . S
C1734 C1733 1.523 . S
H1735 C1710 0.950 . S
H1736 C1712 0.950 . S
H1737 C1713 0.949 . S
H1738 C1715 0.950 . S
H1739 C1717 0.950 . S
C1740 C1741 1.349 . S
C1740 C1742 1.327 . S
C1740 H1765 0.950 . S
C1741 C1740 1.349 . S
C1741 C1757 1.349 . S
C1742 C1740 1.327 . S
C1742 C1761 1.429 . S
C1742 H1766 0.950 . S
C1743 C1760 1.574 . S
C1743 C1762 1.368 . S
C1743 H1767 0.949 . S
H1744 C1748 0.949 . S
C1745 C1746 1.349 . S
C1745 C1747 1.327 . S
C1745 H1768 0.950 . S
C1746 C1745 1.349 . S
C1746 C1758 1.349 . S
C1747 C1745 1.327 . S
C1747 C1763 1.429 . S
C1747 H1769 0.950 . S
C1748 H1744 0.949 . S
C1748 C1756 1.574 . S
C1748 C1764 1.368 . S
H1749 C1757 0.950 . S
H1750 C1755 0.950 . S
H1751 C1756 0.949 . S
H1752 C1758 0.950 . S
H1753 C1759 0.950 . S
H1754 C1760 0.949 . S
C1755 H1750 0.950 . S
C1755 C1757 1.327 . S
C1755 C1761 1.429 . S
C1756 C1748 1.574 . S
C1756 H1751 0.949 . S
C1756 C1762 1.368 . S
C1757 C1741 1.349 . S
C1757 H1749 0.950 . S
C1757 C1755 1.327 . S
C1758 C1746 1.349 . S
C1758 H1752 0.950 . S
C1758 C1759 1.327 . S
C1759 H1753 0.950 . S
C1759 C1758 1.327 . S
C1759 C1763 1.429 . S
C1760 C1743 1.574 . S
C1760 H1754 0.949 . S
C1760 C1764 1.368 . S
C1761 C1742 1.429 . S
C1761 C1755 1.429 . S
C1761 C1762 1.523 . S
C1762 C1743 1.368 . S
C1762 C1756 1.368 . S
C1762 C1761 1.523 . S
C1763 C1747 1.429 . S
C1763 C1759 1.429 . S
C1763 C1764 1.523 . S
C1764 C1748 1.368 . S
C1764 C1760 1.368 . S
C1764 C1763 1.523 . S
H1765 C1740 0.950 . S
H1766 C1742 0.950 . S
H1767 C1743 0.949 . S
H1768 C1745 0.950 . S
H1769 C1747 0.950 . S
C1770 C1771 1.349 . S
C1770 C1772 1.327 . S
C1770 H1795 0.950 . S
C1771 C1770 1.349 . S
C1771 C1787 1.349 . S
C1772 C1770 1.327 . S
C1772 C1791 1.429 . S
C1772 H1796 0.950 . S
C1773 C1790 1.574 . S
C1773 C1792 1.368 . S
C1773 H1797 0.949 . S
H1774 C1778 0.949 . S
C1775 C1776 1.349 . S
C1775 C1777 1.327 . S
C1775 H1798 0.950 . S
C1776 C1775 1.349 . S
C1776 C1788 1.349 . S
C1777 C1775 1.327 . S
C1777 C1793 1.429 . S
C1777 H1799 0.950 . S
C1778 H1774 0.949 . S
C1778 C1786 1.574 . S
C1778 C1794 1.368 . S
H1779 C1787 0.950 . S
H1780 C1785 0.950 . S
H1781 C1786 0.949 . S
H1782 C1788 0.950 . S
H1783 C1789 0.950 . S
H1784 C1790 0.949 . S
C1785 H1780 0.950 . S
C1785 C1787 1.327 . S
C1785 C1791 1.429 . S
C1786 C1778 1.574 . S
C1786 H1781 0.949 . S
C1786 C1792 1.368 . S
C1787 C1771 1.349 . S
C1787 H1779 0.950 . S
C1787 C1785 1.327 . S
C1788 C1776 1.349 . S
C1788 H1782 0.950 . S
C1788 C1789 1.327 . S
C1789 H1783 0.950 . S
C1789 C1788 1.327 . S
C1789 C1793 1.429 . S
C1790 C1773 1.574 . S
C1790 H1784 0.949 . S
C1790 C1794 1.368 . S
C1791 C1772 1.429 . S
C1791 C1785 1.429 . S
C1791 C1792 1.523 . S
C1792 C1773 1.368 . S
C1792 C1786 1.368 . S
C1792 C1791 1.523 . S
C1793 C1777 1.429 . S
C1793 C1789 1.429 . S
C1793 C1794 1.523 . S
C1794 C1778 1.368 . S
C1794 C1790 1.368 . S
C1794 C1793 1.523 . S
H1795 C1770 0.950 . S
H1796 C1772 0.950 . S
H1797 C1773 0.949 . S
H1798 C1775 0.950 . S
H1799 C1777 0.950 . S
C1800 C1801 1.349 . S
C1800 C1802 1.327 . S
C1800 H1825 0.950 . S
C1801 C1800 1.349 . S
C1801 C1817 1.349 . S
C1802 C1800 1.327 . S
C1802 C1821 1.429 . S
C1802 H1826 0.950 . S
C1803 C1820 1.574 . S
C1803 C1822 1.368 . S
C1803 H1827 0.949 . S
H1804 C1808 0.949 . S
C1805 C1806 1.349 . S
C1805 C1807 1.327 . S
C1805 H1828 0.950 . S
C1806 C1805 1.349 . S
C1806 C1818 1.349 . S
C1807 C1805 1.327 . S
C1807 C1823 1.429 . S
C1807 H1829 0.950 . S
C1808 H1804 0.949 . S
C1808 C1816 1.574 . S
C1808 C1824 1.368 . S
H1809 C1817 0.937 1_655 S
H1810 C1815 0.955 . S
H1811 C1816 0.949 . S
H1812 C1818 0.950 . S
H1813 C1819 0.950 . S
H1814 C1820 0.949 . S
C1815 H1810 0.955 . S
C1815 C1817 1.327 . S
C1815 C1821 1.429 . S
C1816 C1808 1.574 . S
C1816 H1811 0.949 . S
C1816 C1822 1.368 . S
C1817 C1801 1.349 . S
C1817 H1809 0.937 1_455 S
C1817 C1815 1.327 . S
C1818 C1806 1.349 . S
C1818 H1812 0.950 . S
C1818 C1819 1.327 . S
C1819 H1813 0.950 . S
C1819 C1818 1.327 . S
C1819 C1823 1.429 . S
C1820 C1803 1.574 . S
C1820 H1814 0.949 . S
C1820 C1824 1.368 . S
C1821 C1802 1.429 . S
C1821 C1815 1.429 . S
C1821 C1822 1.523 . S
C1822 C1803 1.368 . S
C1822 C1816 1.368 . S
C1822 C1821 1.523 . S
C1823 C1807 1.429 . S
C1823 C1819 1.429 . S
C1823 C1824 1.523 . S
C1824 C1808 1.368 . S
C1824 C1820 1.368 . S
C1824 C1823 1.523 . S
H1825 C1800 0.950 . S
H1826 C1802 0.950 . S
H1827 C1803 0.949 . S
H1828 C1805 0.950 . S
H1829 C1807 0.950 . S
C1830 C1831 1.349 . S
C1830 C1832 1.327 . S
C1830 H1855 0.950 . S
C1831 C1830 1.349 . S
C1831 C1847 1.349 . S
C1832 C1830 1.327 . S
C1832 C1851 1.429 . S
C1832 H1856 0.950 . S
C1833 C1850 1.574 . S
C1833 C1852 1.368 . S
C1833 H1857 0.949 . S
H1834 C1838 0.949 . S
C1835 C1836 1.349 . S
C1835 C1837 1.327 . S
C1835 H1858 0.950 . S
C1836 C1835 1.349 . S
C1836 C1848 1.349 . S
C1837 C1835 1.327 . S
C1837 C1853 1.429 . S
C1837 H1859 0.950 . S
C1838 H1834 0.949 . S
C1838 C1846 1.574 . S
C1838 C1854 1.368 . S
H1839 C1847 0.950 . S
H1840 C1845 0.950 . S
H1841 C1846 0.949 . S
H1842 C1848 0.950 . S
H1843 C1849 0.950 . S
H1844 C1850 0.949 . S
C1845 H1840 0.950 . S
C1845 C1847 1.327 . S
C1845 C1851 1.429 . S
C1846 C1838 1.574 . S
C1846 H1841 0.949 . S
C1846 C1852 1.368 . S
C1847 C1831 1.349 . S
C1847 H1839 0.950 . S
C1847 C1845 1.327 . S
C1848 C1836 1.349 . S
C1848 H1842 0.950 . S
C1848 C1849 1.327 . S
C1849 H1843 0.950 . S
C1849 C1848 1.327 . S
C1849 C1853 1.429 . S
C1850 C1833 1.574 . S
C1850 H1844 0.949 . S
C1850 C1854 1.368 . S
C1851 C1832 1.429 . S
C1851 C1845 1.429 . S
C1851 C1852 1.523 . S
C1852 C1833 1.368 . S
C1852 C1846 1.368 . S
C1852 C1851 1.523 . S
C1853 C1837 1.429 . S
C1853 C1849 1.429 . S
C1853 C1854 1.523 . S
C1854 C1838 1.368 . S
C1854 C1850 1.368 . S
C1854 C1853 1.523 . S
H1855 C1830 0.950 . S
H1856 C1832 0.950 . S
H1857 C1833 0.949 . S
H1858 C1835 0.950 . S
H1859 C1837 0.950 . S
C1860 C1861 1.349 . S
C1860 C1862 1.327 . S
C1860 H1885 0.950 . S
C1861 C1860 1.349 . S
C1861 C1877 1.349 . S
C1862 C1860 1.327 . S
C1862 C1881 1.429 . S
C1862 H1886 0.950 . S
C1863 C1880 1.574 . S
C1863 C1882 1.368 . S
C1863 H1887 0.949 . S
H1864 C1868 0.949 . S
C1865 C1866 1.349 . S
C1865 C1867 1.327 . S
C1865 H1888 0.950 . S
C1866 C1865 1.349 . S
C1866 C1878 1.349 . S
C1867 C1865 1.327 . S
C1867 C1883 1.429 . S
C1867 H1889 0.950 . S
C1868 H1864 0.949 . S
C1868 C1876 1.574 . S
C1868 C1884 1.368 . S
H1869 C1877 0.950 . S
H1870 C1875 0.950 . S
H1871 C1876 0.949 . S
H1872 C1878 0.950 . S
H1873 C1879 0.950 . S
H1874 C1880 0.949 . S
C1875 H1870 0.950 . S
C1875 C1877 1.327 . S
C1875 C1881 1.429 . S
C1876 C1868 1.574 . S
C1876 H1871 0.949 . S
C1876 C1882 1.368 . S
C1877 C1861 1.349 . S
C1877 H1869 0.950 . S
C1877 C1875 1.327 . S
C1878 C1866 1.349 . S
C1878 H1872 0.950 . S
C1878 C1879 1.327 . S
C1879 H1873 0.950 . S
C1879 C1878 1.327 . S
C1879 C1883 1.429 . S
C1880 C1863 1.574 . S
C1880 H1874 0.949 . S
C1880 C1884 1.368 . S
C1881 C1862 1.429 . S
C1881 C1875 1.429 . S
C1881 C1882 1.523 . S
C1882 C1863 1.368 . S
C1882 C1876 1.368 . S
C1882 C1881 1.523 . S
C1883 C1867 1.429 . S
C1883 C1879 1.429 . S
C1883 C1884 1.523 . S
C1884 C1868 1.368 . S
C1884 C1880 1.368 . S
C1884 C1883 1.523 . S
H1885 C1860 0.950 . S
H1886 C1862 0.950 . S
H1887 C1863 0.949 . S
H1888 C1865 0.950 . S
H1889 C1867 0.950 . S
C1890 C1891 1.349 . S
C1890 C1892 1.327 . S
C1890 H1915 0.950 . S
C1891 C1890 1.349 . S
C1891 C1907 1.349 . S
C1892 C1890 1.327 . S
C1892 C1911 1.429 . S
C1892 H1916 0.950 . S
C1893 C1910 1.574 . S
C1893 C1912 1.368 . S
C1893 H1917 0.949 . S
H1894 C1898 0.949 . S
C1895 C1896 1.349 . S
C1895 C1897 1.327 . S
C1895 H1918 0.950 . S
C1896 C1895 1.349 . S
C1896 C1908 1.349 . S
C1897 C1895 1.327 . S
C1897 C1913 1.429 . S
C1897 H1919 0.950 . S
C1898 H1894 0.949 . S
C1898 C1906 1.574 . S
C1898 C1914 1.368 . S
H1899 C1907 0.950 . S
H1900 C1905 0.950 . S
H1901 C1906 0.949 . S
H1902 C1908 0.950 . S
H1903 C1909 0.950 . S
H1904 C1910 0.949 . S
C1905 H1900 0.950 . S
C1905 C1907 1.327 . S
C1905 C1911 1.429 . S
C1906 C1898 1.574 . S
C1906 H1901 0.949 . S
C1906 C1912 1.368 . S
C1907 C1891 1.349 . S
C1907 H1899 0.950 . S
C1907 C1905 1.327 . S
C1908 C1896 1.349 . S
C1908 H1902 0.950 . S
C1908 C1909 1.327 . S
C1909 H1903 0.950 . S
C1909 C1908 1.327 . S
C1909 C1913 1.429 . S
C1910 C1893 1.574 . S
C1910 H1904 0.949 . S
C1910 C1914 1.368 . S
C1911 C1892 1.429 . S
C1911 C1905 1.429 . S
C1911 C1912 1.523 . S
C1912 C1893 1.368 . S
C1912 C1906 1.368 . S
C1912 C1911 1.523 . S
C1913 C1897 1.429 . S
C1913 C1909 1.429 . S
C1913 C1914 1.523 . S
C1914 C1898 1.368 . S
C1914 C1910 1.368 . S
C1914 C1913 1.523 . S
H1915 C1890 0.950 . S
H1916 C1892 0.950 . S
H1917 C1893 0.949 . S
H1918 C1895 0.950 . S
H1919 C1897 0.950 . S
C1920 C1921 1.354 . S
C1920 C1922 1.329 . S
C1920 H1945 0.943 1_545 S
C1921 C1920 1.354 . S
C1921 C1937 1.349 . S
C1922 C1920 1.329 . S
C1922 C1941 1.429 . S
C1922 H1946 0.950 1_545 S
C1923 C1940 1.574 . S
C1923 C1942 1.368 . S
C1923 H1947 0.949 . S
H1924 C1928 0.949 . S
C1925 C1926 1.349 . S
C1925 C1927 1.327 . S
C1925 H1948 0.950 . S
C1926 C1925 1.349 . S
C1926 C1938 1.349 1_455 S
C1927 C1925 1.327 . S
C1927 C1943 1.429 1_455 S
C1927 H1949 0.950 . S
C1928 H1924 0.949 . S
C1928 C1936 1.574 . S
C1928 C1944 1.368 . S
H1929 C1937 0.950 . S
H1930 C1935 0.950 . S
H1931 C1936 0.919 1_565 S
H1932 C1938 0.950 . S
H1933 C1939 0.950 . S
H1934 C1940 0.949 . S
C1935 H1930 0.950 . S
C1935 C1937 1.327 . S
C1935 C1941 1.429 . S
C1936 C1928 1.574 . S
C1936 H1931 0.919 1_545 S
C1936 C1942 1.368 . S
C1937 C1921 1.349 . S
C1937 H1929 0.950 . S
C1937 C1935 1.327 . S
C1938 C1926 1.349 1_655 S
C1938 H1932 0.950 . S
C1938 C1939 1.327 . S
C1939 H1933 0.950 . S
C1939 C1938 1.327 . S
C1939 C1943 1.429 . S
C1940 C1923 1.574 . S
C1940 H1934 0.949 . S
C1940 C1944 1.368 . S
C1941 C1922 1.429 . S
C1941 C1935 1.429 . S
C1941 C1942 1.523 . S
C1942 C1923 1.368 . S
C1942 C1936 1.368 . S
C1942 C1941 1.523 . S
C1943 C1927 1.429 1_655 S
C1943 C1939 1.429 . S
C1943 C1944 1.523 . S
C1944 C1928 1.368 . S
C1944 C1940 1.368 . S
C1944 C1943 1.523 . S
H1945 C1920 0.943 1_565 S
H1946 C1922 0.950 1_565 S
H1947 C1923 0.949 . S
H1948 C1925 0.950 . S
H1949 C1927 0.950 . S
C1950 C1951 1.349 . S
C1950 C1952 1.327 . S
C1950 H1975 0.950 . S
C1951 C1950 1.349 . S
C1951 C1967 1.349 . S
C1952 C1950 1.327 . S
C1952 C1971 1.429 . S
C1952 H1976 0.950 . S
C1953 C1970 1.574 . S
C1953 C1972 1.368 . S
C1953 H1977 0.949 . S
H1954 C1958 0.949 . S
C1955 C1956 1.349 . S
C1955 C1957 1.327 . S
C1955 H1978 0.950 . S
C1956 C1955 1.349 . S
C1956 C1968 1.349 . S
C1957 C1955 1.327 . S
C1957 C1973 1.429 . S
C1957 H1979 0.950 . S
C1958 H1954 0.949 . S
C1958 C1966 1.574 . S
C1958 C1974 1.368 . S
H1959 C1967 0.950 . S
H1960 C1965 0.950 . S
H1961 C1966 0.949 . S
H1962 C1968 0.950 . S
H1963 C1969 0.950 . S
H1964 C1970 0.949 . S
C1965 H1960 0.950 . S
C1965 C1967 1.327 . S
C1965 C1971 1.429 . S
C1966 C1958 1.574 . S
C1966 H1961 0.949 . S
C1966 C1972 1.368 . S
C1967 C1951 1.349 . S
C1967 H1959 0.950 . S
C1967 C1965 1.327 . S
C1968 C1956 1.349 . S
C1968 H1962 0.950 . S
C1968 C1969 1.327 . S
C1969 H1963 0.950 . S
C1969 C1968 1.327 . S
C1969 C1973 1.429 . S
C1970 C1953 1.574 . S
C1970 H1964 0.949 . S
C1970 C1974 1.368 . S
C1971 C1952 1.429 . S
C1971 C1965 1.429 . S
C1971 C1972 1.523 . S
C1972 C1953 1.368 . S
C1972 C1966 1.368 . S
C1972 C1971 1.523 . S
C1973 C1957 1.429 . S
C1973 C1969 1.429 . S
C1973 C1974 1.523 . S
C1974 C1958 1.368 . S
C1974 C1970 1.368 . S
C1974 C1973 1.523 . S
H1975 C1950 0.950 . S
H1976 C1952 0.950 . S
H1977 C1953 0.949 . S
H1978 C1955 0.950 . S
H1979 C1957 0.950 . S
C1980 C1981 1.349 . S
C1980 C1982 1.327 . S
C1980 H2005 0.950 . S
C1981 C1980 1.349 . S
C1981 C1997 1.349 . S
C1982 C1980 1.327 . S
C1982 C2001 1.429 . S
C1982 H2006 0.950 . S
C1983 C2000 1.574 . S
C1983 C2002 1.368 . S
C1983 H2007 0.949 . S
H1984 C1988 0.949 . S
C1985 C1986 1.349 . S
C1985 C1987 1.327 . S
C1985 H2008 0.950 . S
C1986 C1985 1.349 . S
C1986 C1998 1.349 . S
C1987 C1985 1.327 . S
C1987 C2003 1.429 . S
C1987 H2009 0.950 . S
C1988 H1984 0.949 . S
C1988 C1996 1.574 . S
C1988 C2004 1.368 . S
H1989 C1997 0.950 . S
H1990 C1995 0.950 . S
H1991 C1996 0.949 . S
H1992 C1998 0.950 1_565 S
H1993 C1999 0.987 . S
H1994 C2000 0.949 . S
C1995 H1990 0.950 . S
C1995 C1997 1.327 . S
C1995 C2001 1.429 . S
C1996 C1988 1.574 . S
C1996 H1991 0.949 . S
C1996 C2002 1.368 . S
C1997 C1981 1.349 . S
C1997 H1989 0.950 . S
C1997 C1995 1.327 . S
C1998 C1986 1.349 . S
C1998 H1992 0.950 1_545 S
C1998 C1999 1.327 . S
C1999 H1993 0.987 . S
C1999 C1998 1.327 . S
C1999 C2003 1.429 . S
C2000 C1983 1.574 . S
C2000 H1994 0.949 . S
C2000 C2004 1.368 . S
C2001 C1982 1.429 . S
C2001 C1995 1.429 . S
C2001 C2002 1.523 . S
C2002 C1983 1.368 . S
C2002 C1996 1.368 . S
C2002 C2001 1.523 . S
C2003 C1987 1.429 . S
C2003 C1999 1.429 . S
C2003 C2004 1.523 . S
C2004 C1988 1.368 . S
C2004 C2000 1.368 . S
C2004 C2003 1.523 . S
H2005 C1980 0.950 . S
H2006 C1982 0.950 . S
H2007 C1983 0.949 . S
H2008 C1985 0.950 . S
H2009 C1987 0.950 . S
C2010 C2011 1.349 . S
C2010 C2012 1.327 . S
C2010 H2035 0.950 . S
C2011 C2010 1.349 . S
C2011 C2027 1.349 . S
C2012 C2010 1.327 . S
C2012 C2031 1.429 . S
C2012 H2036 0.950 . S
C2013 C2030 1.574 . S
C2013 C2032 1.368 . S
C2013 H2037 0.949 . S
H2014 C2018 0.949 . S
C2015 C2016 1.349 . S
C2015 C2017 1.327 . S
C2015 H2038 0.950 . S
C2016 C2015 1.349 . S
C2016 C2028 1.349 . S
C2017 C2015 1.327 . S
C2017 C2033 1.429 . S
C2017 H2039 0.950 . S
C2018 H2014 0.949 . S
C2018 C2026 1.574 . S
C2018 C2034 1.368 . S
H2019 C2027 0.950 . S
H2020 C2025 0.950 . S
H2021 C2026 0.949 . S
H2022 C2028 0.950 . S
H2023 C2029 0.950 . S
H2024 C2030 0.949 . S
C2025 H2020 0.950 . S
C2025 C2027 1.327 . S
C2025 C2031 1.429 . S
C2026 C2018 1.574 . S
C2026 H2021 0.949 . S
C2026 C2032 1.368 . S
C2027 C2011 1.349 . S
C2027 H2019 0.950 . S
C2027 C2025 1.327 . S
C2028 C2016 1.349 . S
C2028 H2022 0.950 . S
C2028 C2029 1.327 . S
C2029 H2023 0.950 . S
C2029 C2028 1.327 . S
C2029 C2033 1.429 . S
C2030 C2013 1.574 . S
C2030 H2024 0.949 . S
C2030 C2034 1.368 . S
C2031 C2012 1.429 . S
C2031 C2025 1.429 . S
C2031 C2032 1.523 . S
C2032 C2013 1.368 . S
C2032 C2026 1.368 . S
C2032 C2031 1.523 . S
C2033 C2017 1.429 . S
C2033 C2029 1.429 . S
C2033 C2034 1.523 . S
C2034 C2018 1.368 . S
C2034 C2030 1.368 . S
C2034 C2033 1.523 . S
H2035 C2010 0.950 . S
H2036 C2012 0.950 . S
H2037 C2013 0.949 . S
H2038 C2015 0.950 . S
H2039 C2017 0.950 . S
C2040 C2041 1.349 . S
C2040 C2042 1.327 . S
C2040 H2065 0.950 1_545 S
C2041 C2040 1.349 . S
C2041 C2057 1.349 . S
C2042 C2040 1.327 . S
C2042 C2061 1.429 . S
C2042 H2066 0.950 1_545 S
C2043 C2060 1.574 . S
C2043 C2062 1.368 . S
C2043 H2067 0.949 . S
H2044 C2048 0.949 1_565 S
C2045 C2046 1.349 1_655 S
C2045 C2047 1.327 . S
C2045 H2068 0.950 . S
C2046 C2045 1.349 1_455 S
C2046 C2058 1.349 . S
C2047 C2045 1.327 . S
C2047 C2063 1.429 . S
C2047 H2069 0.950 . S
C2048 H2044 0.949 1_545 S
C2048 C2056 1.574 . S
C2048 C2064 1.368 . S
H2049 C2057 0.950 . S
H2050 C2055 0.950 . S
H2051 C2056 0.949 1_565 S
H2052 C2058 0.950 . S
H2053 C2059 0.945 . S
H2054 C2060 0.949 . S
C2055 H2050 0.950 . S
C2055 C2057 1.327 . S
C2055 C2061 1.429 . S
C2056 C2048 1.574 . S
C2056 H2051 0.949 1_545 S
C2056 C2062 1.368 . S
C2057 C2041 1.349 . S
C2057 H2049 0.950 . S
C2057 C2055 1.327 . S
C2058 C2046 1.349 . S
C2058 H2052 0.950 . S
C2058 C2059 1.327 . S
C2059 H2053 0.945 . S
C2059 C2058 1.327 . S
C2059 C2063 1.429 1_455 S
C2060 C2043 1.574 . S
C2060 H2054 0.949 . S
C2060 C2064 1.368 . S
C2061 C2042 1.429 . S
C2061 C2055 1.429 . S
C2061 C2062 1.523 . S
C2062 C2043 1.368 . S
C2062 C2056 1.368 . S
C2062 C2061 1.523 . S
C2063 C2047 1.429 . S
C2063 C2059 1.429 1_655 S
C2063 C2064 1.523 . S
C2064 C2048 1.368 . S
C2064 C2060 1.368 . S
C2064 C2063 1.523 . S
H2065 C2040 0.950 1_565 S
H2066 C2042 0.950 1_565 S
H2067 C2043 0.949 . S
H2068 C2045 0.950 . S
H2069 C2047 0.950 . S
C2070 C2071 1.349 . S
C2070 C2072 1.327 . S
C2070 H2095 0.950 . S
C2071 C2070 1.349 . S
C2071 C2087 1.349 . S
C2072 C2070 1.327 . S
C2072 C2091 1.429 . S
C2072 H2096 0.950 . S
C2073 C2090 1.574 . S
C2073 C2092 1.368 . S
C2073 H2097 0.949 . S
H2074 C2078 0.949 . S
C2075 C2076 1.349 . S
C2075 C2077 1.327 . S
C2075 H2098 0.950 . S
C2076 C2075 1.349 . S
C2076 C2088 1.349 . S
C2077 C2075 1.327 . S
C2077 C2093 1.429 . S
C2077 H2099 0.950 . S
C2078 H2074 0.949 . S
C2078 C2086 1.574 . S
C2078 C2094 1.368 . S
H2079 C2087 0.950 . S
H2080 C2085 0.950 . S
H2081 C2086 0.949 . S
H2082 C2088 0.950 . S
H2083 C2089 0.950 . S
H2084 C2090 0.949 . S
C2085 H2080 0.950 . S
C2085 C2087 1.327 . S
C2085 C2091 1.429 . S
C2086 C2078 1.574 . S
C2086 H2081 0.949 . S
C2086 C2092 1.368 . S
C2087 C2071 1.349 . S
C2087 H2079 0.950 . S
C2087 C2085 1.327 . S
C2088 C2076 1.349 . S
C2088 H2082 0.950 . S
C2088 C2089 1.327 . S
C2089 H2083 0.950 . S
C2089 C2088 1.327 . S
C2089 C2093 1.429 . S
C2090 C2073 1.574 . S
C2090 H2084 0.949 . S
C2090 C2094 1.368 . S
C2091 C2072 1.429 . S
C2091 C2085 1.429 . S
C2091 C2092 1.523 . S
C2092 C2073 1.368 . S
C2092 C2086 1.368 . S
C2092 C2091 1.523 . S
C2093 C2077 1.429 . S
C2093 C2089 1.429 . S
C2093 C2094 1.523 . S
C2094 C2078 1.368 . S
C2094 C2090 1.368 . S
C2094 C2093 1.523 . S
H2095 C2070 0.950 . S
H2096 C2072 0.950 . S
H2097 C2073 0.949 . S
H2098 C2075 0.950 . S
H2099 C2077 0.950 . S
C2100 C2101 1.349 . S
C2100 C2102 1.327 . S
C2100 H2125 0.950 . S
C2101 C2100 1.349 . S
C2101 C2117 1.349 . S
C2102 C2100 1.327 . S
C2102 C2121 1.429 . S
C2102 H2126 0.950 . S
C2103 C2120 1.574 . S
C2103 C2122 1.368 . S
C2103 H2127 0.949 . S
H2104 C2108 0.949 . S
C2105 C2106 1.349 . S
C2105 C2107 1.327 . S
C2105 H2128 0.950 . S
C2106 C2105 1.349 . S
C2106 C2118 1.349 . S
C2107 C2105 1.327 . S
C2107 C2123 1.429 . S
C2107 H2129 0.950 . S
C2108 H2104 0.949 . S
C2108 C2116 1.574 . S
C2108 C2124 1.368 . S
H2109 C2117 0.950 . S
H2110 C2115 0.950 . S
H2111 C2116 0.949 . S
H2112 C2118 0.950 . S
H2113 C2119 0.950 . S
H2114 C2120 0.949 . S
C2115 H2110 0.950 . S
C2115 C2117 1.327 . S
C2115 C2121 1.429 . S
C2116 C2108 1.574 . S
C2116 H2111 0.949 . S
C2116 C2122 1.368 . S
C2117 C2101 1.349 . S
C2117 H2109 0.950 . S
C2117 C2115 1.327 . S
C2118 C2106 1.349 . S
C2118 H2112 0.950 . S
C2118 C2119 1.327 . S
C2119 H2113 0.950 . S
C2119 C2118 1.327 . S
C2119 C2123 1.429 . S
C2120 C2103 1.574 . S
C2120 H2114 0.949 . S
C2120 C2124 1.368 . S
C2121 C2102 1.429 . S
C2121 C2115 1.429 . S
C2121 C2122 1.523 . S
C2122 C2103 1.368 . S
C2122 C2116 1.368 . S
C2122 C2121 1.523 . S
C2123 C2107 1.429 . S
C2123 C2119 1.429 . S
C2123 C2124 1.523 . S
C2124 C2108 1.368 . S
C2124 C2120 1.368 . S
C2124 C2123 1.523 . S
H2125 C2100 0.950 . S
H2126 C2102 0.950 . S
H2127 C2103 0.949 . S
H2128 C2105 0.950 . S
H2129 C2107 0.950 . S
C2130 C2131 1.349 . S
C2130 C2132 1.327 . S
C2130 H2155 0.950 . S
C2131 C2130 1.349 . S
C2131 C2147 1.349 . S
C2132 C2130 1.327 . S
C2132 C2151 1.429 . S
C2132 H2156 0.950 . S
C2133 C2150 1.574 . S
C2133 C2152 1.368 . S
C2133 H2157 0.949 . S
H2134 C2138 0.949 . S
C2135 C2136 1.349 . S
C2135 C2137 1.327 . S
C2135 H2158 0.950 . S
C2136 C2135 1.349 . S
C2136 C2148 1.349 . S
C2137 C2135 1.327 . S
C2137 C2153 1.429 . S
C2137 H2159 0.950 . S
C2138 H2134 0.949 . S
C2138 C2146 1.574 . S
C2138 C2154 1.368 . S
H2139 C2147 0.950 . S
H2140 C2145 0.950 . S
H2141 C2146 0.949 . S
H2142 C2148 0.950 . S
H2143 C2149 0.950 . S
H2144 C2150 0.949 . S
C2145 H2140 0.950 . S
C2145 C2147 1.327 . S
C2145 C2151 1.429 . S
C2146 C2138 1.574 . S
C2146 H2141 0.949 . S
C2146 C2152 1.368 . S
C2147 C2131 1.349 . S
C2147 H2139 0.950 . S
C2147 C2145 1.327 . S
C2148 C2136 1.349 . S
C2148 H2142 0.950 . S
C2148 C2149 1.327 . S
C2149 H2143 0.950 . S
C2149 C2148 1.327 . S
C2149 C2153 1.429 . S
C2150 C2133 1.574 . S
C2150 H2144 0.949 . S
C2150 C2154 1.368 . S
C2151 C2132 1.429 . S
C2151 C2145 1.429 . S
C2151 C2152 1.523 . S
C2152 C2133 1.368 . S
C2152 C2146 1.368 . S
C2152 C2151 1.523 . S
C2153 C2137 1.429 . S
C2153 C2149 1.429 . S
C2153 C2154 1.523 . S
C2154 C2138 1.368 . S
C2154 C2150 1.368 . S
C2154 C2153 1.523 . S
H2155 C2130 0.950 . S
H2156 C2132 0.950 . S
H2157 C2133 0.949 . S
H2158 C2135 0.950 . S
H2159 C2137 0.950 . S
C2160 C2161 1.349 . S
C2160 C2162 1.327 . S
C2160 H2185 0.950 . S
C2161 C2160 1.349 . S
C2161 C2177 1.349 1_554 S
C2162 C2160 1.327 . S
C2162 C2181 1.429 . S
C2162 H2186 0.950 . S
C2163 C2180 1.574 . S
C2163 C2182 1.368 . S
C2163 H2187 0.949 1_554 S
H2164 C2168 0.949 . S
C2165 C2166 1.354 . S
C2165 C2167 1.310 1_545 S
C2165 H2188 0.963 . S
C2166 C2165 1.354 . S
C2166 C2178 1.349 . S
C2167 C2165 1.310 1_565 S
C2167 C2183 1.429 . S
C2167 H2189 0.950 . S
C2168 H2164 0.949 . S
C2168 C2176 1.574 . S
C2168 C2184 1.368 . S
H2169 C2177 0.950 . S
H2170 C2175 0.950 . S
H2171 C2176 0.949 . S
H2172 C2178 0.950 . S
H2173 C2179 0.950 . S
H2174 C2180 0.949 . S
C2175 H2170 0.950 . S
C2175 C2177 1.327 . S
C2175 C2181 1.429 1_556 S
C2176 C2168 1.574 . S
C2176 H2171 0.949 . S
C2176 C2182 1.368 . S
C2177 C2161 1.349 1_556 S
C2177 H2169 0.950 . S
C2177 C2175 1.327 . S
C2178 C2166 1.349 . S
C2178 H2172 0.950 . S
C2178 C2179 1.327 1_545 S
C2179 H2173 0.950 . S
C2179 C2178 1.327 1_565 S
C2179 C2183 1.429 . S
C2180 C2163 1.574 . S
C2180 H2174 0.949 . S
C2180 C2184 1.368 . S
C2181 C2162 1.429 . S
C2181 C2175 1.429 1_554 S
C2181 C2182 1.523 . S
C2182 C2163 1.368 . S
C2182 C2176 1.368 . S
C2182 C2181 1.523 . S
C2183 C2167 1.429 . S
C2183 C2179 1.429 . S
C2183 C2184 1.523 . S
C2184 C2168 1.368 . S
C2184 C2180 1.368 . S
C2184 C2183 1.523 . S
H2185 C2160 0.950 . S
H2186 C2162 0.950 . S
H2187 C2163 0.949 1_556 S
H2188 C2165 0.963 . S
H2189 C2167 0.950 . S
C2190 C2191 1.349 . S
C2190 C2192 1.327 . S
C2190 H2215 0.950 . S
C2191 C2190 1.349 . S
C2191 C2207 1.349 . S
C2192 C2190 1.327 . S
C2192 C2211 1.429 . S
C2192 H2216 0.950 . S
C2193 C2210 1.574 . S
C2193 C2212 1.368 . S
C2193 H2217 0.949 . S
H2194 C2198 0.949 . S
C2195 C2196 1.349 . S
C2195 C2197 1.327 . S
C2195 H2218 0.950 . S
C2196 C2195 1.349 . S
C2196 C2208 1.349 . S
C2197 C2195 1.327 . S
C2197 C2213 1.429 . S
C2197 H2219 0.950 . S
C2198 H2194 0.949 . S
C2198 C2206 1.574 . S
C2198 C2214 1.368 . S
H2199 C2207 0.950 . S
H2200 C2205 0.950 . S
H2201 C2206 0.949 . S
H2202 C2208 0.950 . S
H2203 C2209 0.950 . S
H2204 C2210 0.949 . S
C2205 H2200 0.950 . S
C2205 C2207 1.327 . S
C2205 C2211 1.429 . S
C2206 C2198 1.574 . S
C2206 H2201 0.949 . S
C2206 C2212 1.368 . S
C2207 C2191 1.349 . S
C2207 H2199 0.950 . S
C2207 C2205 1.327 . S
C2208 C2196 1.349 . S
C2208 H2202 0.950 . S
C2208 C2209 1.327 . S
C2209 H2203 0.950 . S
C2209 C2208 1.327 . S
C2209 C2213 1.429 . S
C2210 C2193 1.574 . S
C2210 H2204 0.949 . S
C2210 C2214 1.368 . S
C2211 C2192 1.429 . S
C2211 C2205 1.429 . S
C2211 C2212 1.523 . S
C2212 C2193 1.368 . S
C2212 C2206 1.368 . S
C2212 C2211 1.523 . S
C2213 C2197 1.429 . S
C2213 C2209 1.429 . S
C2213 C2214 1.523 . S
C2214 C2198 1.368 . S
C2214 C2210 1.368 . S
C2214 C2213 1.523 . S
H2215 C2190 0.950 . S
H2216 C2192 0.950 . S
H2217 C2193 0.949 . S
H2218 C2195 0.950 . S
H2219 C2197 0.950 . S
C2220 C2221 1.349 . S
C2220 C2222 1.327 . S
C2220 H2245 0.950 . S
C2221 C2220 1.349 . S
C2221 C2237 1.349 . S
C2222 C2220 1.327 . S
C2222 C2241 1.429 . S
C2222 H2246 0.950 . S
C2223 C2240 1.574 . S
C2223 C2242 1.368 . S
C2223 H2247 0.949 . S
H2224 C2228 0.949 . S
C2225 C2226 1.349 . S
C2225 C2227 1.327 . S
C2225 H2248 0.950 . S
C2226 C2225 1.349 . S
C2226 C2238 1.349 . S
C2227 C2225 1.327 . S
C2227 C2243 1.429 . S
C2227 H2249 0.950 . S
C2228 H2224 0.949 . S
C2228 C2236 1.574 . S
C2228 C2244 1.368 . S
H2229 C2237 0.950 . S
H2230 C2235 0.950 . S
H2231 C2236 0.949 . S
H2232 C2238 0.950 . S
H2233 C2239 0.950 . S
H2234 C2240 0.949 . S
C2235 H2230 0.950 . S
C2235 C2237 1.327 . S
C2235 C2241 1.429 . S
C2236 C2228 1.574 . S
C2236 H2231 0.949 . S
C2236 C2242 1.368 . S
C2237 C2221 1.349 . S
C2237 H2229 0.950 . S
C2237 C2235 1.327 . S
C2238 C2226 1.349 . S
C2238 H2232 0.950 . S
C2238 C2239 1.327 . S
C2239 H2233 0.950 . S
C2239 C2238 1.327 . S
C2239 C2243 1.429 . S
C2240 C2223 1.574 . S
C2240 H2234 0.949 . S
C2240 C2244 1.368 . S
C2241 C2222 1.429 . S
C2241 C2235 1.429 . S
C2241 C2242 1.523 . S
C2242 C2223 1.368 . S
C2242 C2236 1.368 . S
C2242 C2241 1.523 . S
C2243 C2227 1.429 . S
C2243 C2239 1.429 . S
C2243 C2244 1.523 . S
C2244 C2228 1.368 . S
C2244 C2240 1.368 . S
C2244 C2243 1.523 . S
H2245 C2220 0.950 . S
H2246 C2222 0.950 . S
H2247 C2223 0.949 . S
H2248 C2225 0.950 . S
H2249 C2227 0.950 . S
C2250 C2251 1.349 . S
C2250 C2252 1.327 . S
C2250 H2275 0.950 . S
C2251 C2250 1.349 . S
C2251 C2267 1.349 . S
C2252 C2250 1.327 . S
C2252 C2271 1.429 . S
C2252 H2276 0.950 . S
C2253 C2270 1.574 . S
C2253 C2272 1.368 . S
C2253 H2277 0.949 . S
H2254 C2258 0.949 . S
C2255 C2256 1.349 . S
C2255 C2257 1.327 . S
C2255 H2278 0.950 . S
C2256 C2255 1.349 . S
C2256 C2268 1.349 . S
C2257 C2255 1.327 . S
C2257 C2273 1.429 . S
C2257 H2279 0.950 . S
C2258 H2254 0.949 . S
C2258 C2266 1.574 . S
C2258 C2274 1.368 . S
H2259 C2267 0.950 . S
H2260 C2265 0.950 . S
H2261 C2266 0.949 . S
H2262 C2268 0.950 . S
H2263 C2269 0.950 . S
H2264 C2270 0.949 . S
C2265 H2260 0.950 . S
C2265 C2267 1.327 . S
C2265 C2271 1.429 . S
C2266 C2258 1.574 . S
C2266 H2261 0.949 . S
C2266 C2272 1.368 . S
C2267 C2251 1.349 . S
C2267 H2259 0.950 . S
C2267 C2265 1.327 . S
C2268 C2256 1.349 . S
C2268 H2262 0.950 . S
C2268 C2269 1.327 . S
C2269 H2263 0.950 . S
C2269 C2268 1.327 . S
C2269 C2273 1.429 . S
C2270 C2253 1.574 . S
C2270 H2264 0.949 . S
C2270 C2274 1.368 . S
C2271 C2252 1.429 . S
C2271 C2265 1.429 . S
C2271 C2272 1.523 . S
C2272 C2253 1.368 . S
C2272 C2266 1.368 . S
C2272 C2271 1.523 . S
C2273 C2257 1.429 . S
C2273 C2269 1.429 . S
C2273 C2274 1.523 . S
C2274 C2258 1.368 . S
C2274 C2270 1.368 . S
C2274 C2273 1.523 . S
H2275 C2250 0.950 . S
H2276 C2252 0.950 . S
H2277 C2253 0.949 . S
H2278 C2255 0.950 . S
H2279 C2257 0.950 . S
C2280 C2281 1.349 . S
C2280 C2282 1.327 . S
C2280 H2305 0.950 . S
C2281 C2280 1.349 . S
C2281 C2297 1.349 . S
C2282 C2280 1.327 . S
C2282 C2301 1.429 . S
C2282 H2306 0.950 . S
C2283 C2300 1.574 . S
C2283 C2302 1.368 . S
C2283 H2307 0.949 . S
H2284 C2288 0.949 . S
C2285 C2286 1.349 . S
C2285 C2287 1.327 . S
C2285 H2308 0.950 . S
C2286 C2285 1.349 . S
C2286 C2298 1.349 . S
C2287 C2285 1.327 . S
C2287 C2303 1.429 . S
C2287 H2309 0.950 . S
C2288 H2284 0.949 . S
C2288 C2296 1.574 . S
C2288 C2304 1.368 . S
H2289 C2297 0.950 . S
H2290 C2295 0.950 . S
H2291 C2296 0.949 . S
H2292 C2298 0.950 . S
H2293 C2299 0.950 . S
H2294 C2300 0.949 . S
C2295 H2290 0.950 . S
C2295 C2297 1.327 . S
C2295 C2301 1.429 . S
C2296 C2288 1.574 . S
C2296 H2291 0.949 . S
C2296 C2302 1.368 . S
C2297 C2281 1.349 . S
C2297 H2289 0.950 . S
C2297 C2295 1.327 . S
C2298 C2286 1.349 . S
C2298 H2292 0.950 . S
C2298 C2299 1.327 . S
C2299 H2293 0.950 . S
C2299 C2298 1.327 . S
C2299 C2303 1.429 . S
C2300 C2283 1.574 . S
C2300 H2294 0.949 . S
C2300 C2304 1.368 . S
C2301 C2282 1.429 . S
C2301 C2295 1.429 . S
C2301 C2302 1.523 . S
C2302 C2283 1.368 . S
C2302 C2296 1.368 . S
C2302 C2301 1.523 . S
C2303 C2287 1.429 . S
C2303 C2299 1.429 . S
C2303 C2304 1.523 . S
C2304 C2288 1.368 . S
C2304 C2300 1.368 . S
C2304 C2303 1.523 . S
H2305 C2280 0.950 . S
H2306 C2282 0.950 . S
H2307 C2283 0.949 . S
H2308 C2285 0.950 . S
H2309 C2287 0.950 . S
C2310 C2311 1.349 . S
C2310 C2312 1.327 . S
C2310 H2335 0.950 . S
C2311 C2310 1.349 . S
C2311 C2327 1.349 . S
C2312 C2310 1.327 . S
C2312 C2331 1.429 . S
C2312 H2336 0.950 . S
C2313 C2330 1.574 . S
C2313 C2332 1.368 . S
C2313 H2337 0.949 . S
H2314 C2318 0.949 . S
C2315 C2316 1.349 . S
C2315 C2317 1.327 . S
C2315 H2338 0.950 . S
C2316 C2315 1.349 . S
C2316 C2328 1.349 . S
C2317 C2315 1.327 . S
C2317 C2333 1.429 . S
C2317 H2339 0.950 . S
C2318 H2314 0.949 . S
C2318 C2326 1.574 . S
C2318 C2334 1.368 . S
H2319 C2327 0.950 . S
H2320 C2325 0.950 . S
H2321 C2326 0.949 . S
H2322 C2328 0.950 . S
H2323 C2329 0.950 . S
H2324 C2330 0.949 . S
C2325 H2320 0.950 . S
C2325 C2327 1.327 . S
C2325 C2331 1.429 . S
C2326 C2318 1.574 . S
C2326 H2321 0.949 . S
C2326 C2332 1.368 . S
C2327 C2311 1.349 . S
C2327 H2319 0.950 . S
C2327 C2325 1.327 . S
C2328 C2316 1.349 . S
C2328 H2322 0.950 . S
C2328 C2329 1.327 . S
C2329 H2323 0.950 . S
C2329 C2328 1.327 . S
C2329 C2333 1.429 . S
C2330 C2313 1.574 . S
C2330 H2324 0.949 . S
C2330 C2334 1.368 . S
C2331 C2312 1.429 . S
C2331 C2325 1.429 . S
C2331 C2332 1.523 . S
C2332 C2313 1.368 . S
C2332 C2326 1.368 . S
C2332 C2331 1.523 . S
C2333 C2317 1.429 . S
C2333 C2329 1.429 . S
C2333 C2334 1.523 . S
C2334 C2318 1.368 . S
C2334 C2330 1.368 . S
C2334 C2333 1.523 . S
H2335 C2310 0.950 . S
H2336 C2312 0.950 . S
H2337 C2313 0.949 . S
H2338 C2315 0.950 . S
H2339 C2317 0.950 . S
C2340 C2341 1.349 . S
C2340 C2342 1.327 . S
C2340 H2365 0.950 . S
C2341 C2340 1.349 . S
C2341 C2357 1.349 . S
C2342 C2340 1.327 . S
C2342 C2361 1.429 . S
C2342 H2366 0.950 . S
C2343 C2360 1.574 . S
C2343 C2362 1.368 . S
C2343 H2367 0.949 . S
H2344 C2348 0.949 . S
C2345 C2346 1.349 . S
C2345 C2347 1.327 . S
C2345 H2368 0.950 . S
C2346 C2345 1.349 . S
C2346 C2358 1.349 . S
C2347 C2345 1.327 . S
C2347 C2363 1.429 . S
C2347 H2369 0.950 . S
C2348 H2344 0.949 . S
C2348 C2356 1.574 . S
C2348 C2364 1.368 . S
H2349 C2357 0.950 . S
H2350 C2355 0.950 . S
H2351 C2356 0.949 . S
H2352 C2358 0.950 . S
H2353 C2359 0.950 . S
H2354 C2360 0.949 . S
C2355 H2350 0.950 . S
C2355 C2357 1.327 . S
C2355 C2361 1.429 . S
C2356 C2348 1.574 . S
C2356 H2351 0.949 . S
C2356 C2362 1.368 . S
C2357 C2341 1.349 . S
C2357 H2349 0.950 . S
C2357 C2355 1.327 . S
C2358 C2346 1.349 . S
C2358 H2352 0.950 . S
C2358 C2359 1.327 . S
C2359 H2353 0.950 . S
C2359 C2358 1.327 . S
C2359 C2363 1.429 . S
C2360 C2343 1.574 . S
C2360 H2354 0.949 . S
C2360 C2364 1.368 . S
C2361 C2342 1.429 . S
C2361 C2355 1.429 . S
C2361 C2362 1.523 . S
C2362 C2343 1.368 . S
C2362 C2356 1.368 . S
C2362 C2361 1.523 . S
C2363 C2347 1.429 . S
C2363 C2359 1.429 . S
C2363 C2364 1.523 . S
C2364 C2348 1.368 . S
C2364 C2360 1.368 . S
C2364 C2363 1.523 . S
H2365 C2340 0.950 . S
H2366 C2342 0.950 . S
H2367 C2343 0.949 . S
H2368 C2345 0.950 . S
H2369 C2347 0.950 . S
C2370 C2371 1.349 . S
C2370 C2372 1.327 . S
C2370 H2395 0.950 . S
C2371 C2370 1.349 . S
C2371 C2387 1.349 . S
C2372 C2370 1.327 . S
C2372 C2391 1.429 . S
C2372 H2396 0.950 . S
C2373 C2390 1.574 . S
C2373 C2392 1.368 . S
C2373 H2397 0.949 . S
H2374 C2378 0.949 . S
C2375 C2376 1.349 . S
C2375 C2377 1.327 . S
C2375 H2398 0.950 . S
C2376 C2375 1.349 . S
C2376 C2388 1.349 . S
C2377 C2375 1.327 . S
C2377 C2393 1.429 . S
C2377 H2399 0.950 . S
C2378 H2374 0.949 . S
C2378 C2386 1.574 . S
C2378 C2394 1.368 . S
H2379 C2387 0.950 . S
H2380 C2385 0.950 . S
H2381 C2386 0.949 . S
H2382 C2388 0.950 . S
H2383 C2389 0.950 . S
H2384 C2390 0.949 . S
C2385 H2380 0.950 . S
C2385 C2387 1.327 . S
C2385 C2391 1.429 . S
C2386 C2378 1.574 . S
C2386 H2381 0.949 . S
C2386 C2392 1.368 . S
C2387 C2371 1.349 . S
C2387 H2379 0.950 . S
C2387 C2385 1.327 . S
C2388 C2376 1.349 . S
C2388 H2382 0.950 . S
C2388 C2389 1.327 . S
C2389 H2383 0.950 . S
C2389 C2388 1.327 . S
C2389 C2393 1.429 . S
C2390 C2373 1.574 . S
C2390 H2384 0.949 . S
C2390 C2394 1.368 . S
C2391 C2372 1.429 . S
C2391 C2385 1.429 . S
C2391 C2392 1.523 . S
C2392 C2373 1.368 . S
C2392 C2386 1.368 . S
C2392 C2391 1.523 . S
C2393 C2377 1.429 . S
C2393 C2389 1.429 . S
C2393 C2394 1.523 . S
C2394 C2378 1.368 . S
C2394 C2390 1.368 . S
C2394 C2393 1.523 . S
H2395 C2370 0.950 . S
H2396 C2372 0.950 . S
H2397 C2373 0.949 . S
H2398 C2375 0.950 . S
H2399 C2377 0.950 . S
C2400 C2401 1.349 . S
C2400 C2402 1.327 . S
C2400 H2425 0.950 . S
C2401 C2400 1.349 . S
C2401 C2417 1.349 . S
C2402 C2400 1.327 . S
C2402 C2421 1.429 . S
C2402 H2426 0.950 . S
C2403 C2420 1.574 . S
C2403 C2422 1.368 . S
C2403 H2427 0.949 . S
H2404 C2408 0.949 . S
C2405 C2406 1.349 . S
C2405 C2407 1.327 . S
C2405 H2428 0.950 . S
C2406 C2405 1.349 . S
C2406 C2418 1.349 . S
C2407 C2405 1.327 . S
C2407 C2423 1.429 . S
C2407 H2429 0.950 . S
C2408 H2404 0.949 . S
C2408 C2416 1.574 . S
C2408 C2424 1.368 . S
H2409 C2417 0.950 . S
H2410 C2415 0.950 . S
H2411 C2416 0.949 . S
H2412 C2418 0.950 . S
H2413 C2419 0.950 . S
H2414 C2420 0.949 . S
C2415 H2410 0.950 . S
C2415 C2417 1.327 . S
C2415 C2421 1.429 . S
C2416 C2408 1.574 . S
C2416 H2411 0.949 . S
C2416 C2422 1.368 . S
C2417 C2401 1.349 . S
C2417 H2409 0.950 . S
C2417 C2415 1.327 . S
C2418 C2406 1.349 . S
C2418 H2412 0.950 . S
C2418 C2419 1.327 . S
C2419 H2413 0.950 . S
C2419 C2418 1.327 . S
C2419 C2423 1.429 . S
C2420 C2403 1.574 . S
C2420 H2414 0.949 . S
C2420 C2424 1.368 . S
C2421 C2402 1.429 . S
C2421 C2415 1.429 . S
C2421 C2422 1.523 . S
C2422 C2403 1.368 . S
C2422 C2416 1.368 . S
C2422 C2421 1.523 . S
C2423 C2407 1.429 . S
C2423 C2419 1.429 . S
C2423 C2424 1.523 . S
C2424 C2408 1.368 . S
C2424 C2420 1.368 . S
C2424 C2423 1.523 . S
H2425 C2400 0.950 . S
H2426 C2402 0.950 . S
H2427 C2403 0.949 . S
H2428 C2405 0.950 . S
H2429 C2407 0.950 . S
C2430 C2431 1.349 . S
C2430 C2432 1.327 . S
C2430 H2455 0.950 . S
C2431 C2430 1.349 . S
C2431 C2447 1.349 . S
C2432 C2430 1.327 . S
C2432 C2451 1.429 . S
C2432 H2456 0.950 . S
C2433 C2450 1.574 . S
C2433 C2452 1.368 . S
C2433 H2457 0.949 . S
H2434 C2438 0.949 . S
C2435 C2436 1.349 . S
C2435 C2437 1.327 . S
C2435 H2458 0.950 . S
C2436 C2435 1.349 . S
C2436 C2448 1.349 . S
C2437 C2435 1.327 . S
C2437 C2453 1.429 . S
C2437 H2459 0.950 . S
C2438 H2434 0.949 . S
C2438 C2446 1.574 . S
C2438 C2454 1.368 . S
H2439 C2447 0.950 . S
H2440 C2445 0.950 . S
H2441 C2446 0.949 . S
H2442 C2448 0.950 . S
H2443 C2449 0.950 . S
H2444 C2450 0.949 . S
C2445 H2440 0.950 . S
C2445 C2447 1.327 . S
C2445 C2451 1.429 . S
C2446 C2438 1.574 . S
C2446 H2441 0.949 . S
C2446 C2452 1.368 . S
C2447 C2431 1.349 . S
C2447 H2439 0.950 . S
C2447 C2445 1.327 . S
C2448 C2436 1.349 . S
C2448 H2442 0.950 . S
C2448 C2449 1.327 . S
C2449 H2443 0.950 . S
C2449 C2448 1.327 . S
C2449 C2453 1.429 . S
C2450 C2433 1.574 . S
C2450 H2444 0.949 . S
C2450 C2454 1.368 . S
C2451 C2432 1.429 . S
C2451 C2445 1.429 . S
C2451 C2452 1.523 . S
C2452 C2433 1.368 . S
C2452 C2446 1.368 . S
C2452 C2451 1.523 . S
C2453 C2437 1.429 . S
C2453 C2449 1.429 . S
C2453 C2454 1.523 . S
C2454 C2438 1.368 . S
C2454 C2450 1.368 . S
C2454 C2453 1.523 . S
H2455 C2430 0.950 . S
H2456 C2432 0.950 . S
H2457 C2433 0.949 . S
H2458 C2435 0.950 . S
H2459 C2437 0.950 . S
C2460 C2461 1.349 . S
C2460 C2462 1.327 . S
C2460 H2485 0.950 . S
C2461 C2460 1.349 . S
C2461 C2477 1.349 . S
C2462 C2460 1.327 . S
C2462 C2481 1.429 . S
C2462 H2486 0.950 . S
C2463 C2480 1.574 . S
C2463 C2482 1.368 . S
C2463 H2487 0.949 . S
H2464 C2468 0.949 . S
C2465 C2466 1.349 . S
C2465 C2467 1.327 . S
C2465 H2488 0.950 . S
C2466 C2465 1.349 . S
C2466 C2478 1.349 . S
C2467 C2465 1.327 . S
C2467 C2483 1.429 . S
C2467 H2489 0.950 . S
C2468 H2464 0.949 . S
C2468 C2476 1.574 . S
C2468 C2484 1.368 . S
H2469 C2477 0.950 . S
H2470 C2475 0.950 . S
H2471 C2476 0.949 . S
H2472 C2478 0.950 . S
H2473 C2479 0.950 . S
H2474 C2480 0.949 . S
C2475 H2470 0.950 . S
C2475 C2477 1.327 . S
C2475 C2481 1.429 . S
C2476 C2468 1.574 . S
C2476 H2471 0.949 . S
C2476 C2482 1.368 . S
C2477 C2461 1.349 . S
C2477 H2469 0.950 . S
C2477 C2475 1.327 . S
C2478 C2466 1.349 . S
C2478 H2472 0.950 . S
C2478 C2479 1.327 . S
C2479 H2473 0.950 . S
C2479 C2478 1.327 . S
C2479 C2483 1.429 . S
C2480 C2463 1.574 . S
C2480 H2474 0.949 . S
C2480 C2484 1.368 . S
C2481 C2462 1.429 . S
C2481 C2475 1.429 . S
C2481 C2482 1.523 . S
C2482 C2463 1.368 . S
C2482 C2476 1.368 . S
C2482 C2481 1.523 . S
C2483 C2467 1.429 . S
C2483 C2479 1.429 . S
C2483 C2484 1.523 . S
C2484 C2468 1.368 . S
C2484 C2480 1.368 . S
C2484 C2483 1.523 . S
H2485 C2460 0.950 . S
H2486 C2462 0.950 . S
H2487 C2463 0.949 . S
H2488 C2465 0.950 . S
H2489 C2467 0.950 . S
C2490 C2491 1.349 . S
C2490 C2492 1.327 . S
C2490 H2515 0.950 . S
C2491 C2490 1.349 . S
C2491 C2507 1.349 . S
C2492 C2490 1.327 . S
C2492 C2511 1.429 . S
C2492 H2516 0.950 . S
C2493 C2510 1.574 . S
C2493 C2512 1.368 . S
C2493 H2517 0.949 . S
H2494 C2498 0.949 . S
C2495 C2496 1.349 . S
C2495 C2497 1.327 . S
C2495 H2518 0.950 . S
C2496 C2495 1.349 . S
C2496 C2508 1.349 . S
C2497 C2495 1.327 . S
C2497 C2513 1.429 . S
C2497 H2519 0.950 . S
C2498 H2494 0.949 . S
C2498 C2506 1.574 . S
C2498 C2514 1.368 . S
H2499 C2507 0.950 . S
H2500 C2505 0.950 . S
H2501 C2506 0.949 . S
H2502 C2508 0.950 . S
H2503 C2509 0.950 . S
H2504 C2510 0.949 . S
C2505 H2500 0.950 . S
C2505 C2507 1.327 . S
C2505 C2511 1.429 . S
C2506 C2498 1.574 . S
C2506 H2501 0.949 . S
C2506 C2512 1.368 . S
C2507 C2491 1.349 . S
C2507 H2499 0.950 . S
C2507 C2505 1.327 . S
C2508 C2496 1.349 . S
C2508 H2502 0.950 . S
C2508 C2509 1.327 . S
C2509 H2503 0.950 . S
C2509 C2508 1.327 . S
C2509 C2513 1.429 . S
C2510 C2493 1.574 . S
C2510 H2504 0.949 . S
C2510 C2514 1.368 . S
C2511 C2492 1.429 . S
C2511 C2505 1.429 . S
C2511 C2512 1.523 . S
C2512 C2493 1.368 . S
C2512 C2506 1.368 . S
C2512 C2511 1.523 . S
C2513 C2497 1.429 . S
C2513 C2509 1.429 . S
C2513 C2514 1.523 . S
C2514 C2498 1.368 . S
C2514 C2510 1.368 . S
C2514 C2513 1.523 . S
H2515 C2490 0.950 . S
H2516 C2492 0.950 . S
H2517 C2493 0.949 . S
H2518 C2495 0.950 . S
H2519 C2497 0.950 . S
C2520 C2521 1.349 . S
C2520 C2522 1.327 . S
C2520 H2545 0.950 . S
C2521 C2520 1.349 . S
C2521 C2537 1.349 . S
C2522 C2520 1.327 . S
C2522 C2541 1.429 . S
C2522 H2546 0.950 . S
C2523 C2540 1.574 . S
C2523 C2542 1.368 . S
C2523 H2547 0.949 . S
H2524 C2528 0.949 . S
C2525 C2526 1.349 . S
C2525 C2527 1.327 . S
C2525 H2548 0.950 . S
C2526 C2525 1.349 . S
C2526 C2538 1.349 . S
C2527 C2525 1.327 . S
C2527 C2543 1.429 . S
C2527 H2549 0.950 . S
C2528 H2524 0.949 . S
C2528 C2536 1.574 . S
C2528 C2544 1.368 . S
H2529 C2537 0.950 . S
H2530 C2535 0.950 . S
H2531 C2536 0.949 . S
H2532 C2538 0.950 . S
H2533 C2539 0.950 . S
H2534 C2540 0.949 . S
C2535 H2530 0.950 . S
C2535 C2537 1.327 . S
C2535 C2541 1.429 . S
C2536 C2528 1.574 . S
C2536 H2531 0.949 . S
C2536 C2542 1.368 . S
C2537 C2521 1.349 . S
C2537 H2529 0.950 . S
C2537 C2535 1.327 . S
C2538 C2526 1.349 . S
C2538 H2532 0.950 . S
C2538 C2539 1.327 . S
C2539 H2533 0.950 . S
C2539 C2538 1.327 . S
C2539 C2543 1.429 . S
C2540 C2523 1.574 . S
C2540 H2534 0.949 . S
C2540 C2544 1.368 . S
C2541 C2522 1.429 . S
C2541 C2535 1.429 . S
C2541 C2542 1.523 . S
C2542 C2523 1.368 . S
C2542 C2536 1.368 . S
C2542 C2541 1.523 . S
C2543 C2527 1.429 . S
C2543 C2539 1.429 . S
C2543 C2544 1.523 . S
C2544 C2528 1.368 . S
C2544 C2540 1.368 . S
C2544 C2543 1.523 . S
H2545 C2520 0.950 . S
H2546 C2522 0.950 . S
H2547 C2523 0.949 . S
H2548 C2525 0.950 . S
H2549 C2527 0.950 . S
C2550 C2551 1.349 . S
C2550 C2552 1.327 . S
C2550 H2575 0.950 . S
C2551 C2550 1.349 . S
C2551 C2567 1.349 . S
C2552 C2550 1.327 . S
C2552 C2571 1.429 . S
C2552 H2576 0.950 . S
C2553 C2570 1.574 . S
C2553 C2572 1.368 . S
C2553 H2577 0.949 . S
H2554 C2558 0.949 . S
C2555 C2556 1.349 . S
C2555 C2557 1.327 . S
C2555 H2578 0.950 . S
C2556 C2555 1.349 . S
C2556 C2568 1.349 . S
C2557 C2555 1.327 . S
C2557 C2573 1.429 . S
C2557 H2579 0.950 . S
C2558 H2554 0.949 . S
C2558 C2566 1.574 . S
C2558 C2574 1.368 . S
H2559 C2567 0.950 . S
H2560 C2565 0.950 . S
H2561 C2566 0.949 . S
H2562 C2568 0.950 . S
H2563 C2569 0.950 . S
H2564 C2570 0.949 . S
C2565 H2560 0.950 . S
C2565 C2567 1.327 . S
C2565 C2571 1.429 . S
C2566 C2558 1.574 . S
C2566 H2561 0.949 . S
C2566 C2572 1.368 . S
C2567 C2551 1.349 . S
C2567 H2559 0.950 . S
C2567 C2565 1.327 . S
C2568 C2556 1.349 . S
C2568 H2562 0.950 . S
C2568 C2569 1.327 . S
C2569 H2563 0.950 . S
C2569 C2568 1.327 . S
C2569 C2573 1.429 . S
C2570 C2553 1.574 . S
C2570 H2564 0.949 . S
C2570 C2574 1.368 . S
C2571 C2552 1.429 . S
C2571 C2565 1.429 . S
C2571 C2572 1.523 . S
C2572 C2553 1.368 . S
C2572 C2566 1.368 . S
C2572 C2571 1.523 . S
C2573 C2557 1.429 . S
C2573 C2569 1.429 . S
C2573 C2574 1.523 . S
C2574 C2558 1.368 . S
C2574 C2570 1.368 . S
C2574 C2573 1.523 . S
H2575 C2550 0.950 . S
H2576 C2552 0.950 . S
H2577 C2553 0.949 . S
H2578 C2555 0.950 . S
H2579 C2557 0.950 . S
C2580 C2581 1.349 . S
C2580 C2582 1.327 . S
C2580 H2605 0.950 . S
C2581 C2580 1.349 . S
C2581 C2597 1.349 . S
C2582 C2580 1.327 . S
C2582 C2601 1.429 . S
C2582 H2606 0.950 . S
C2583 C2600 1.574 . S
C2583 C2602 1.368 . S
C2583 H2607 0.949 . S
H2584 C2588 0.949 . S
C2585 C2586 1.349 . S
C2585 C2587 1.327 1_554 S
C2585 H2608 0.950 . S
C2586 C2585 1.349 . S
C2586 C2598 1.349 1_554 S
C2587 C2585 1.327 1_556 S
C2587 C2603 1.429 . S
C2587 H2609 0.953 . S
C2588 H2584 0.949 . S
C2588 C2596 1.574 . S
C2588 C2604 1.368 . S
H2589 C2597 0.950 . S
H2590 C2595 0.950 . S
H2591 C2596 0.949 . S
H2592 C2598 0.950 . S
H2593 C2599 0.950 . S
H2594 C2600 0.949 . S
C2595 H2590 0.950 . S
C2595 C2597 1.327 . S
C2595 C2601 1.429 . S
C2596 C2588 1.574 . S
C2596 H2591 0.949 . S
C2596 C2602 1.368 . S
C2597 C2581 1.349 . S
C2597 H2589 0.950 . S
C2597 C2595 1.327 . S
C2598 C2586 1.349 1_556 S
C2598 H2592 0.950 . S
C2598 C2599 1.327 . S
C2599 H2593 0.950 . S
C2599 C2598 1.327 . S
C2599 C2603 1.429 . S
C2600 C2583 1.574 . S
C2600 H2594 0.949 . S
C2600 C2604 1.368 . S
C2601 C2582 1.429 . S
C2601 C2595 1.429 . S
C2601 C2602 1.523 . S
C2602 C2583 1.368 . S
C2602 C2596 1.368 . S
C2602 C2601 1.523 . S
C2603 C2587 1.429 . S
C2603 C2599 1.429 . S
C2603 C2604 1.523 . S
C2604 C2588 1.368 . S
C2604 C2600 1.368 . S
C2604 C2603 1.523 . S
H2605 C2580 0.950 . S
H2606 C2582 0.950 . S
H2607 C2583 0.949 . S
H2608 C2585 0.950 . S
H2609 C2587 0.953 . S
C2610 C2611 1.349 . S
C2610 C2612 1.327 . S
C2610 H2635 0.950 . S
C2611 C2610 1.349 . S
C2611 C2627 1.349 . S
C2612 C2610 1.327 . S
C2612 C2631 1.429 . S
C2612 H2636 0.950 . S
C2613 C2630 1.574 . S
C2613 C2632 1.368 . S
C2613 H2637 0.949 . S
H2614 C2618 0.949 . S
C2615 C2616 1.349 . S
C2615 C2617 1.327 . S
C2615 H2638 0.950 . S
C2616 C2615 1.349 . S
C2616 C2628 1.349 . S
C2617 C2615 1.327 . S
C2617 C2633 1.429 . S
C2617 H2639 0.950 . S
C2618 H2614 0.949 . S
C2618 C2626 1.574 . S
C2618 C2634 1.368 . S
H2619 C2627 0.950 . S
H2620 C2625 0.950 . S
H2621 C2626 0.949 . S
H2622 C2628 0.950 . S
H2623 C2629 0.950 . S
H2624 C2630 0.949 . S
C2625 H2620 0.950 . S
C2625 C2627 1.327 . S
C2625 C2631 1.429 . S
C2626 C2618 1.574 . S
C2626 H2621 0.949 . S
C2626 C2632 1.368 . S
C2627 C2611 1.349 . S
C2627 H2619 0.950 . S
C2627 C2625 1.327 . S
C2628 C2616 1.349 . S
C2628 H2622 0.950 . S
C2628 C2629 1.327 . S
C2629 H2623 0.950 . S
C2629 C2628 1.327 . S
C2629 C2633 1.429 . S
C2630 C2613 1.574 . S
C2630 H2624 0.949 . S
C2630 C2634 1.368 . S
C2631 C2612 1.429 . S
C2631 C2625 1.429 . S
C2631 C2632 1.523 . S
C2632 C2613 1.368 . S
C2632 C2626 1.368 . S
C2632 C2631 1.523 . S
C2633 C2617 1.429 . S
C2633 C2629 1.429 . S
C2633 C2634 1.523 . S
C2634 C2618 1.368 . S
C2634 C2630 1.368 . S
C2634 C2633 1.523 . S
H2635 C2610 0.950 . S
H2636 C2612 0.950 . S
H2637 C2613 0.949 . S
H2638 C2615 0.950 . S
H2639 C2617 0.950 . S
C2640 C2641 1.349 . S
C2640 C2642 1.327 . S
C2640 H2665 0.950 . S
C2641 C2640 1.349 . S
C2641 C2657 1.349 . S
C2642 C2640 1.327 . S
C2642 C2661 1.429 . S
C2642 H2666 0.950 . S
C2643 C2660 1.574 . S
C2643 C2662 1.368 . S
C2643 H2667 0.949 . S
H2644 C2648 0.949 . S
C2645 C2646 1.349 . S
C2645 C2647 1.327 . S
C2645 H2668 0.950 . S
C2646 C2645 1.349 . S
C2646 C2658 1.349 . S
C2647 C2645 1.327 . S
C2647 C2663 1.429 . S
C2647 H2669 0.950 . S
C2648 H2644 0.949 . S
C2648 C2656 1.574 . S
C2648 C2664 1.368 . S
H2649 C2657 0.950 . S
H2650 C2655 0.950 . S
H2651 C2656 0.949 . S
H2652 C2658 0.950 . S
H2653 C2659 0.950 . S
H2654 C2660 0.949 . S
C2655 H2650 0.950 . S
C2655 C2657 1.327 . S
C2655 C2661 1.429 . S
C2656 C2648 1.574 . S
C2656 H2651 0.949 . S
C2656 C2662 1.368 . S
C2657 C2641 1.349 . S
C2657 H2649 0.950 . S
C2657 C2655 1.327 . S
C2658 C2646 1.349 . S
C2658 H2652 0.950 . S
C2658 C2659 1.327 . S
C2659 H2653 0.950 . S
C2659 C2658 1.327 . S
C2659 C2663 1.429 . S
C2660 C2643 1.574 . S
C2660 H2654 0.949 . S
C2660 C2664 1.368 . S
C2661 C2642 1.429 . S
C2661 C2655 1.429 . S
C2661 C2662 1.523 . S
C2662 C2643 1.368 . S
C2662 C2656 1.368 . S
C2662 C2661 1.523 . S
C2663 C2647 1.429 . S
C2663 C2659 1.429 . S
C2663 C2664 1.523 . S
C2664 C2648 1.368 . S
C2664 C2660 1.368 . S
C2664 C2663 1.523 . S
H2665 C2640 0.950 . S
H2666 C2642 0.950 . S
H2667 C2643 0.949 . S
H2668 C2645 0.950 . S
H2669 C2647 0.950 . S
C2670 C2671 1.349 . S
C2670 C2672 1.327 . S
C2670 H2695 0.950 . S
C2671 C2670 1.349 . S
C2671 C2687 1.349 . S
C2672 C2670 1.327 . S
C2672 C2691 1.429 . S
C2672 H2696 0.950 . S
C2673 C2690 1.574 . S
C2673 C2692 1.368 . S
C2673 H2697 0.949 . S
H2674 C2678 0.949 . S
C2675 C2676 1.349 . S
C2675 C2677 1.327 . S
C2675 H2698 0.950 . S
C2676 C2675 1.349 . S
C2676 C2688 1.349 . S
C2677 C2675 1.327 . S
C2677 C2693 1.429 . S
C2677 H2699 0.950 . S
C2678 H2674 0.949 . S
C2678 C2686 1.574 . S
C2678 C2694 1.368 . S
H2679 C2687 0.950 . S
H2680 C2685 0.950 . S
H2681 C2686 0.949 . S
H2682 C2688 0.950 . S
H2683 C2689 0.950 . S
H2684 C2690 0.949 . S
C2685 H2680 0.950 . S
C2685 C2687 1.327 . S
C2685 C2691 1.429 . S
C2686 C2678 1.574 . S
C2686 H2681 0.949 . S
C2686 C2692 1.368 . S
C2687 C2671 1.349 . S
C2687 H2679 0.950 . S
C2687 C2685 1.327 . S
C2688 C2676 1.349 . S
C2688 H2682 0.950 . S
C2688 C2689 1.327 . S
C2689 H2683 0.950 . S
C2689 C2688 1.327 . S
C2689 C2693 1.429 . S
C2690 C2673 1.574 . S
C2690 H2684 0.949 . S
C2690 C2694 1.368 . S
C2691 C2672 1.429 . S
C2691 C2685 1.429 . S
C2691 C2692 1.523 . S
C2692 C2673 1.368 . S
C2692 C2686 1.368 . S
C2692 C2691 1.523 . S
C2693 C2677 1.429 . S
C2693 C2689 1.429 . S
C2693 C2694 1.523 . S
C2694 C2678 1.368 . S
C2694 C2690 1.368 . S
C2694 C2693 1.523 . S
H2695 C2670 0.950 . S
H2696 C2672 0.950 . S
H2697 C2673 0.949 . S
H2698 C2675 0.950 . S
H2699 C2677 0.950 . S
C2700 C2701 1.349 1_565 S
C2700 C2702 1.327 . S
C2700 H2725 0.950 . S
C2701 C2700 1.349 1_545 S
C2701 C2717 1.349 . S
C2702 C2700 1.327 . S
C2702 C2721 1.429 1_565 S
C2702 H2726 0.950 . S
C2703 C2720 1.574 . S
C2703 C2722 1.368 . S
C2703 H2727 0.949 . S
H2704 C2708 0.949 1_565 S
C2705 C2706 1.349 . S
C2705 C2707 1.327 . S
C2705 H2728 0.950 . S
C2706 C2705 1.349 . S
C2706 C2718 1.349 . S
C2707 C2705 1.327 . S
C2707 C2723 1.429 . S
C2707 H2729 0.950 . S
C2708 H2704 0.949 1_545 S
C2708 C2716 1.570 . S
C2708 C2724 1.368 . S
H2709 C2717 0.950 . S
H2710 C2715 0.950 . S
H2711 C2716 0.930 1_565 S
H2712 C2718 0.950 1_565 S
H2713 C2719 0.950 1_565 S
H2714 C2720 0.949 . S
C2715 H2710 0.950 . S
C2715 C2717 1.327 . S
C2715 C2721 1.429 . S
C2716 C2708 1.570 . S
C2716 H2711 0.930 1_545 S
C2716 C2722 1.394 . S
C2717 C2701 1.349 . S
C2717 H2709 0.950 . S
C2717 C2715 1.327 . S
C2718 C2706 1.349 . S
C2718 H2712 0.950 1_545 S
C2718 C2719 1.327 . S
C2719 H2713 0.950 1_545 S
C2719 C2718 1.327 . S
C2719 C2723 1.429 . S
C2720 C2703 1.574 . S
C2720 H2714 0.949 . S
C2720 C2724 1.368 . S
C2721 C2702 1.429 1_545 S
C2721 C2715 1.429 . S
C2721 C2722 1.523 . S
C2722 C2703 1.368 . S
C2722 C2716 1.394 . S
C2722 C2721 1.523 . S
C2723 C2707 1.429 . S
C2723 C2719 1.429 . S
C2723 C2724 1.523 . S
C2724 C2708 1.368 . S
C2724 C2720 1.368 . S
C2724 C2723 1.523 . S
H2725 C2700 0.950 . S
H2726 C2702 0.950 . S
H2727 C2703 0.949 . S
H2728 C2705 0.950 . S
H2729 C2707 0.950 . S
C2730 C2731 1.349 . S
C2730 C2732 1.327 . S
C2730 H2755 0.950 . S
C2731 C2730 1.349 . S
C2731 C2747 1.349 . S
C2732 C2730 1.327 . S
C2732 C2751 1.429 . S
C2732 H2756 0.950 . S
C2733 C2750 1.574 . S
C2733 C2752 1.368 . S
C2733 H2757 0.949 . S
H2734 C2738 0.949 . S
C2735 C2736 1.349 . S
C2735 C2737 1.327 . S
C2735 H2758 0.950 . S
C2736 C2735 1.349 . S
C2736 C2748 1.349 . S
C2737 C2735 1.327 . S
C2737 C2753 1.429 . S
C2737 H2759 0.950 . S
C2738 H2734 0.949 . S
C2738 C2746 1.574 . S
C2738 C2754 1.368 . S
H2739 C2747 0.950 . S
H2740 C2745 0.950 . S
H2741 C2746 0.949 . S
H2742 C2748 0.950 . S
H2743 C2749 0.950 . S
H2744 C2750 0.949 . S
C2745 H2740 0.950 . S
C2745 C2747 1.327 . S
C2745 C2751 1.429 . S
C2746 C2738 1.574 . S
C2746 H2741 0.949 . S
C2746 C2752 1.368 . S
C2747 C2731 1.349 . S
C2747 H2739 0.950 . S
C2747 C2745 1.327 . S
C2748 C2736 1.349 . S
C2748 H2742 0.950 . S
C2748 C2749 1.327 . S
C2749 H2743 0.950 . S
C2749 C2748 1.327 . S
C2749 C2753 1.429 . S
C2750 C2733 1.574 . S
C2750 H2744 0.949 . S
C2750 C2754 1.368 . S
C2751 C2732 1.429 . S
C2751 C2745 1.429 . S
C2751 C2752 1.523 . S
C2752 C2733 1.368 . S
C2752 C2746 1.368 . S
C2752 C2751 1.523 . S
C2753 C2737 1.429 . S
C2753 C2749 1.429 . S
C2753 C2754 1.523 . S
C2754 C2738 1.368 . S
C2754 C2750 1.368 . S
C2754 C2753 1.523 . S
H2755 C2730 0.950 . S
H2756 C2732 0.950 . S
H2757 C2733 0.949 . S
H2758 C2735 0.950 . S
H2759 C2737 0.950 . S
C2760 C2761 1.349 . S
C2760 C2762 1.327 . S
C2760 H2785 0.950 . S
C2761 C2760 1.349 . S
C2761 C2777 1.349 . S
C2762 C2760 1.327 . S
C2762 C2781 1.429 . S
C2762 H2786 0.950 . S
C2763 C2780 1.574 . S
C2763 C2782 1.368 . S
C2763 H2787 0.949 . S
H2764 C2768 0.949 . S
C2765 C2766 1.349 . S
C2765 C2767 1.327 . S
C2765 H2788 0.950 . S
C2766 C2765 1.349 . S
C2766 C2778 1.349 . S
C2767 C2765 1.327 . S
C2767 C2783 1.429 . S
C2767 H2789 0.950 . S
C2768 H2764 0.949 . S
C2768 C2776 1.574 . S
C2768 C2784 1.368 . S
H2769 C2777 0.950 . S
H2770 C2775 0.950 . S
H2771 C2776 0.949 . S
H2772 C2778 0.950 . S
H2773 C2779 0.950 . S
H2774 C2780 0.949 . S
C2775 H2770 0.950 . S
C2775 C2777 1.327 . S
C2775 C2781 1.429 . S
C2776 C2768 1.574 . S
C2776 H2771 0.949 . S
C2776 C2782 1.368 . S
C2777 C2761 1.349 . S
C2777 H2769 0.950 . S
C2777 C2775 1.327 . S
C2778 C2766 1.349 . S
C2778 H2772 0.950 . S
C2778 C2779 1.327 . S
C2779 H2773 0.950 . S
C2779 C2778 1.327 . S
C2779 C2783 1.429 . S
C2780 C2763 1.574 . S
C2780 H2774 0.949 . S
C2780 C2784 1.368 . S
C2781 C2762 1.429 . S
C2781 C2775 1.429 . S
C2781 C2782 1.523 . S
C2782 C2763 1.368 . S
C2782 C2776 1.368 . S
C2782 C2781 1.523 . S
C2783 C2767 1.429 . S
C2783 C2779 1.429 . S
C2783 C2784 1.523 . S
C2784 C2768 1.368 . S
C2784 C2780 1.368 . S
C2784 C2783 1.523 . S
H2785 C2760 0.950 . S
H2786 C2762 0.950 . S
H2787 C2763 0.949 . S
H2788 C2765 0.950 . S
H2789 C2767 0.950 . S
C2790 C2791 1.349 . S
C2790 C2792 1.327 . S
C2790 H2815 0.950 . S
C2791 C2790 1.349 . S
C2791 C2807 1.349 . S
C2792 C2790 1.327 . S
C2792 C2811 1.429 . S
C2792 H2816 0.950 . S
C2793 C2810 1.574 . S
C2793 C2812 1.368 . S
C2793 H2817 0.949 . S
H2794 C2798 0.949 . S
C2795 C2796 1.349 . S
C2795 C2797 1.327 . S
C2795 H2818 0.950 . S
C2796 C2795 1.349 . S
C2796 C2808 1.349 . S
C2797 C2795 1.327 . S
C2797 C2813 1.429 . S
C2797 H2819 0.950 . S
C2798 H2794 0.949 . S
C2798 C2806 1.574 . S
C2798 C2814 1.368 . S
H2799 C2807 0.950 . S
H2800 C2805 0.950 . S
H2801 C2806 0.949 . S
H2802 C2808 0.950 . S
H2803 C2809 0.950 . S
H2804 C2810 0.949 . S
C2805 H2800 0.950 . S
C2805 C2807 1.327 . S
C2805 C2811 1.429 . S
C2806 C2798 1.574 . S
C2806 H2801 0.949 . S
C2806 C2812 1.368 . S
C2807 C2791 1.349 . S
C2807 H2799 0.950 . S
C2807 C2805 1.327 . S
C2808 C2796 1.349 . S
C2808 H2802 0.950 . S
C2808 C2809 1.327 . S
C2809 H2803 0.950 . S
C2809 C2808 1.327 . S
C2809 C2813 1.429 . S
C2810 C2793 1.574 . S
C2810 H2804 0.949 . S
C2810 C2814 1.368 . S
C2811 C2792 1.429 . S
C2811 C2805 1.429 . S
C2811 C2812 1.523 . S
C2812 C2793 1.368 . S
C2812 C2806 1.368 . S
C2812 C2811 1.523 . S
C2813 C2797 1.429 . S
C2813 C2809 1.429 . S
C2813 C2814 1.523 . S
C2814 C2798 1.368 . S
C2814 C2810 1.368 . S
C2814 C2813 1.523 . S
H2815 C2790 0.950 . S
H2816 C2792 0.950 . S
H2817 C2793 0.949 . S
H2818 C2795 0.950 . S
H2819 C2797 0.950 . S
C2820 C2821 1.349 1_565 S
C2820 C2822 1.327 . S
C2820 H2845 0.950 . S
C2821 C2820 1.349 1_545 S
C2821 C2837 1.349 . S
C2822 C2820 1.327 . S
C2822 C2841 1.429 1_565 S
C2822 H2846 0.950 . S
C2823 C2840 1.574 . S
C2823 C2842 1.368 . S
C2823 H2847 0.949 . S
H2824 C2828 0.949 . S
C2825 C2826 1.349 . S
C2825 C2827 1.327 . S
C2825 H2848 0.950 . S
C2826 C2825 1.349 . S
C2826 C2838 1.349 1_545 S
C2827 C2825 1.327 . S
C2827 C2843 1.429 . S
C2827 H2849 0.950 . S
C2828 H2824 0.949 . S
C2828 C2836 1.574 . S
C2828 C2844 1.368 1_565 S
H2829 C2837 0.950 . S
H2830 C2835 0.950 . S
H2831 C2836 0.949 . S
H2832 C2838 0.950 . S
H2833 C2839 0.950 . S
H2834 C2840 0.949 . S
C2835 H2830 0.950 . S
C2835 C2837 1.327 . S
C2835 C2841 1.429 . S
C2836 C2828 1.574 . S
C2836 H2831 0.949 . S
C2836 C2842 1.368 1_565 S
C2837 C2821 1.349 . S
C2837 H2829 0.950 . S
C2837 C2835 1.327 . S
C2838 C2826 1.349 1_565 S
C2838 H2832 0.950 . S
C2838 C2839 1.327 . S
C2839 H2833 0.950 . S
C2839 C2838 1.327 . S
C2839 C2843 1.429 1_565 S
C2840 C2823 1.574 . S
C2840 H2834 0.949 . S
C2840 C2844 1.368 . S
C2841 C2822 1.429 1_545 S
C2841 C2835 1.429 . S
C2841 C2842 1.523 . S
C2842 C2823 1.368 . S
C2842 C2836 1.368 1_545 S
C2842 C2841 1.523 . S
C2843 C2827 1.429 . S
C2843 C2839 1.429 1_545 S
C2843 C2844 1.523 . S
C2844 C2828 1.368 1_545 S
C2844 C2840 1.368 . S
C2844 C2843 1.523 . S
H2845 C2820 0.950 . S
H2846 C2822 0.950 . S
H2847 C2823 0.949 . S
H2848 C2825 0.950 . S
H2849 C2827 0.950 . S
C2850 C2851 1.349 . S
C2850 C2852 1.327 . S
C2850 H2875 0.950 . S
C2851 C2850 1.349 . S
C2851 C2867 1.349 . S
C2852 C2850 1.327 . S
C2852 C2871 1.429 . S
C2852 H2876 0.950 . S
C2853 C2870 1.574 . S
C2853 C2872 1.368 . S
C2853 H2877 0.949 . S
H2854 C2858 0.949 . S
C2855 C2856 1.349 . S
C2855 C2857 1.327 . S
C2855 H2878 0.950 . S
C2856 C2855 1.349 . S
C2856 C2868 1.349 . S
C2857 C2855 1.327 . S
C2857 C2873 1.429 . S
C2857 H2879 0.950 . S
C2858 H2854 0.949 . S
C2858 C2866 1.574 . S
C2858 C2874 1.368 . S
H2859 C2867 0.950 . S
H2860 C2865 0.950 . S
H2861 C2866 0.949 . S
H2862 C2868 0.950 . S
H2863 C2869 0.950 . S
H2864 C2870 0.949 . S
C2865 H2860 0.950 . S
C2865 C2867 1.327 . S
C2865 C2871 1.429 . S
C2866 C2858 1.574 . S
C2866 H2861 0.949 . S
C2866 C2872 1.368 . S
C2867 C2851 1.349 . S
C2867 H2859 0.950 . S
C2867 C2865 1.327 . S
C2868 C2856 1.349 . S
C2868 H2862 0.950 . S
C2868 C2869 1.327 . S
C2869 H2863 0.950 . S
C2869 C2868 1.327 . S
C2869 C2873 1.429 . S
C2870 C2853 1.574 . S
C2870 H2864 0.949 . S
C2870 C2874 1.368 . S
C2871 C2852 1.429 . S
C2871 C2865 1.429 . S
C2871 C2872 1.523 . S
C2872 C2853 1.368 . S
C2872 C2866 1.368 . S
C2872 C2871 1.523 . S
C2873 C2857 1.429 . S
C2873 C2869 1.429 . S
C2873 C2874 1.523 . S
C2874 C2858 1.368 . S
C2874 C2870 1.368 . S
C2874 C2873 1.523 . S
H2875 C2850 0.950 . S
H2876 C2852 0.950 . S
H2877 C2853 0.949 . S
H2878 C2855 0.950 . S
H2879 C2857 0.950 . S
C2880 C2881 1.349 . S
C2880 C2882 1.327 . S
C2880 H2905 0.950 . S
C2881 C2880 1.349 . S
C2881 C2897 1.349 . S
C2882 C2880 1.327 . S
C2882 C2901 1.429 . S
C2882 H2906 0.950 . S
C2883 C2900 1.574 . S
C2883 C2902 1.368 . S
C2883 H2907 0.949 . S
H2884 C2888 0.949 . S
C2885 C2886 1.349 . S
C2885 C2887 1.327 . S
C2885 H2908 0.950 . S
C2886 C2885 1.349 . S
C2886 C2898 1.349 . S
C2887 C2885 1.327 . S
C2887 C2903 1.429 . S
C2887 H2909 0.950 . S
C2888 H2884 0.949 . S
C2888 C2896 1.574 . S
C2888 C2904 1.368 . S
H2889 C2897 0.950 . S
H2890 C2895 0.950 . S
H2891 C2896 0.949 . S
H2892 C2898 0.950 . S
H2893 C2899 0.950 . S
H2894 C2900 0.949 . S
C2895 H2890 0.950 . S
C2895 C2897 1.327 . S
C2895 C2901 1.429 . S
C2896 C2888 1.574 . S
C2896 H2891 0.949 . S
C2896 C2902 1.368 . S
C2897 C2881 1.349 . S
C2897 H2889 0.950 . S
C2897 C2895 1.327 . S
C2898 C2886 1.349 . S
C2898 H2892 0.950 . S
C2898 C2899 1.327 . S
C2899 H2893 0.950 . S
C2899 C2898 1.327 . S
C2899 C2903 1.429 . S
C2900 C2883 1.574 . S
C2900 H2894 0.949 . S
C2900 C2904 1.368 . S
C2901 C2882 1.429 . S
C2901 C2895 1.429 . S
C2901 C2902 1.523 . S
C2902 C2883 1.368 . S
C2902 C2896 1.368 . S
C2902 C2901 1.523 . S
C2903 C2887 1.429 . S
C2903 C2899 1.429 . S
C2903 C2904 1.523 . S
C2904 C2888 1.368 . S
C2904 C2900 1.368 . S
C2904 C2903 1.523 . S
H2905 C2880 0.950 . S
H2906 C2882 0.950 . S
H2907 C2883 0.949 . S
H2908 C2885 0.950 . S
H2909 C2887 0.950 . S
C2910 C2911 1.349 . S
C2910 C2912 1.327 . S
C2910 H2935 0.950 . S
C2911 C2910 1.349 . S
C2911 C2927 1.349 . S
C2912 C2910 1.327 . S
C2912 C2931 1.429 . S
C2912 H2936 0.950 . S
C2913 C2930 1.574 . S
C2913 C2932 1.368 . S
C2913 H2937 0.949 . S
H2914 C2918 0.949 . S
C2915 C2916 1.349 . S
C2915 C2917 1.327 . S
C2915 H2938 0.950 . S
C2916 C2915 1.349 . S
C2916 C2928 1.349 . S
C2917 C2915 1.327 . S
C2917 C2933 1.429 . S
C2917 H2939 0.950 . S
C2918 H2914 0.949 . S
C2918 C2926 1.574 . S
C2918 C2934 1.368 . S
H2919 C2927 0.950 . S
H2920 C2925 0.950 . S
H2921 C2926 0.949 . S
H2922 C2928 0.950 . S
H2923 C2929 0.950 . S
H2924 C2930 0.949 . S
C2925 H2920 0.950 . S
C2925 C2927 1.327 . S
C2925 C2931 1.429 . S
C2926 C2918 1.574 . S
C2926 H2921 0.949 . S
C2926 C2932 1.368 . S
C2927 C2911 1.349 . S
C2927 H2919 0.950 . S
C2927 C2925 1.327 . S
C2928 C2916 1.349 . S
C2928 H2922 0.950 . S
C2928 C2929 1.327 . S
C2929 H2923 0.950 . S
C2929 C2928 1.327 . S
C2929 C2933 1.429 . S
C2930 C2913 1.574 . S
C2930 H2924 0.949 . S
C2930 C2934 1.368 . S
C2931 C2912 1.429 . S
C2931 C2925 1.429 . S
C2931 C2932 1.523 . S
C2932 C2913 1.368 . S
C2932 C2926 1.368 . S
C2932 C2931 1.523 . S
C2933 C2917 1.429 . S
C2933 C2929 1.429 . S
C2933 C2934 1.523 . S
C2934 C2918 1.368 . S
C2934 C2930 1.368 . S
C2934 C2933 1.523 . S
H2935 C2910 0.950 . S
H2936 C2912 0.950 . S
H2937 C2913 0.949 . S
H2938 C2915 0.950 . S
H2939 C2917 0.950 . S
C2940 C2941 1.349 . S
C2940 C2942 1.327 . S
C2940 H2965 0.950 . S
C2941 C2940 1.349 . S
C2941 C2957 1.349 . S
C2942 C2940 1.327 . S
C2942 C2961 1.429 . S
C2942 H2966 0.950 . S
C2943 C2960 1.574 . S
C2943 C2962 1.368 . S
C2943 H2967 0.949 . S
H2944 C2948 0.949 . S
C2945 C2946 1.349 . S
C2945 C2947 1.327 . S
C2945 H2968 0.950 . S
C2946 C2945 1.349 . S
C2946 C2958 1.349 . S
C2947 C2945 1.327 . S
C2947 C2963 1.429 . S
C2947 H2969 0.950 . S
C2948 H2944 0.949 . S
C2948 C2956 1.574 . S
C2948 C2964 1.368 . S
H2949 C2957 0.950 . S
H2950 C2955 0.950 . S
H2951 C2956 0.949 . S
H2952 C2958 0.950 . S
H2953 C2959 0.950 . S
H2954 C2960 0.949 . S
C2955 H2950 0.950 . S
C2955 C2957 1.327 . S
C2955 C2961 1.429 . S
C2956 C2948 1.574 . S
C2956 H2951 0.949 . S
C2956 C2962 1.368 . S
C2957 C2941 1.349 . S
C2957 H2949 0.950 . S
C2957 C2955 1.327 . S
C2958 C2946 1.349 . S
C2958 H2952 0.950 . S
C2958 C2959 1.327 . S
C2959 H2953 0.950 . S
C2959 C2958 1.327 . S
C2959 C2963 1.429 . S
C2960 C2943 1.574 . S
C2960 H2954 0.949 . S
C2960 C2964 1.368 . S
C2961 C2942 1.429 . S
C2961 C2955 1.429 . S
C2961 C2962 1.523 . S
C2962 C2943 1.368 . S
C2962 C2956 1.368 . S
C2962 C2961 1.523 . S
C2963 C2947 1.429 . S
C2963 C2959 1.429 . S
C2963 C2964 1.523 . S
C2964 C2948 1.368 . S
C2964 C2960 1.368 . S
C2964 C2963 1.523 . S
H2965 C2940 0.950 . S
H2966 C2942 0.950 . S
H2967 C2943 0.949 . S
H2968 C2945 0.950 . S
H2969 C2947 0.950 . S
C2970 C2971 1.349 . S
C2970 C2972 1.327 . S
C2970 H2995 0.950 . S
C2971 C2970 1.349 . S
C2971 C2987 1.349 . S
C2972 C2970 1.327 . S
C2972 C2991 1.429 . S
C2972 H2996 0.950 . S
C2973 C2990 1.574 . S
C2973 C2992 1.368 . S
C2973 H2997 0.949 . S
H2974 C2978 0.949 . S
C2975 C2976 1.349 . S
C2975 C2977 1.327 . S
C2975 H2998 0.950 . S
C2976 C2975 1.349 . S
C2976 C2988 1.349 . S
C2977 C2975 1.327 . S
C2977 C2993 1.429 . S
C2977 H2999 0.950 . S
C2978 H2974 0.949 . S
C2978 C2986 1.574 . S
C2978 C2994 1.368 . S
H2979 C2987 0.950 . S
H2980 C2985 0.950 . S
H2981 C2986 0.949 . S
H2982 C2988 0.950 . S
H2983 C2989 0.950 . S
H2984 C2990 0.949 . S
C2985 H2980 0.950 . S
C2985 C2987 1.327 . S
C2985 C2991 1.429 . S
C2986 C2978 1.574 . S
C2986 H2981 0.949 . S
C2986 C2992 1.368 . S
C2987 C2971 1.349 . S
C2987 H2979 0.950 . S
C2987 C2985 1.327 . S
C2988 C2976 1.349 . S
C2988 H2982 0.950 . S
C2988 C2989 1.327 . S
C2989 H2983 0.950 . S
C2989 C2988 1.327 . S
C2989 C2993 1.429 . S
C2990 C2973 1.574 . S
C2990 H2984 0.949 . S
C2990 C2994 1.368 . S
C2991 C2972 1.429 . S
C2991 C2985 1.429 . S
C2991 C2992 1.523 . S
C2992 C2973 1.368 . S
C2992 C2986 1.368 . S
C2992 C2991 1.523 . S
C2993 C2977 1.429 . S
C2993 C2989 1.429 . S
C2993 C2994 1.523 . S
C2994 C2978 1.368 . S
C2994 C2990 1.368 . S
C2994 C2993 1.523 . S
H2995 C2970 0.950 . S
H2996 C2972 0.950 . S
H2997 C2973 0.949 . S
H2998 C2975 0.950 . S
H2999 C2977 0.950 . S
C3000 C3001 1.349 . S
C3000 C3002 1.327 . S
C3000 H3025 0.950 . S
C3001 C3000 1.349 . S
C3001 C3017 1.349 . S
C3002 C3000 1.327 . S
C3002 C3021 1.429 . S
C3002 H3026 0.950 . S
C3003 C3020 1.574 . S
C3003 C3022 1.368 . S
C3003 H3027 0.949 . S
H3004 C3008 0.949 . S
C3005 C3006 1.349 . S
C3005 C3007 1.327 . S
C3005 H3028 0.950 . S
C3006 C3005 1.349 . S
C3006 C3018 1.349 . S
C3007 C3005 1.327 . S
C3007 C3023 1.429 . S
C3007 H3029 0.950 . S
C3008 H3004 0.949 . S
C3008 C3016 1.574 . S
C3008 C3024 1.368 . S
H3009 C3017 0.950 . S
H3010 C3015 0.950 . S
H3011 C3016 0.949 . S
H3012 C3018 0.950 . S
H3013 C3019 0.950 . S
H3014 C3020 0.949 . S
C3015 H3010 0.950 . S
C3015 C3017 1.327 . S
C3015 C3021 1.429 . S
C3016 C3008 1.574 . S
C3016 H3011 0.949 . S
C3016 C3022 1.368 . S
C3017 C3001 1.349 . S
C3017 H3009 0.950 . S
C3017 C3015 1.327 . S
C3018 C3006 1.349 . S
C3018 H3012 0.950 . S
C3018 C3019 1.327 . S
C3019 H3013 0.950 . S
C3019 C3018 1.327 . S
C3019 C3023 1.429 . S
C3020 C3003 1.574 . S
C3020 H3014 0.949 . S
C3020 C3024 1.368 . S
C3021 C3002 1.429 . S
C3021 C3015 1.429 . S
C3021 C3022 1.523 . S
C3022 C3003 1.368 . S
C3022 C3016 1.368 . S
C3022 C3021 1.523 . S
C3023 C3007 1.429 . S
C3023 C3019 1.429 . S
C3023 C3024 1.523 . S
C3024 C3008 1.368 . S
C3024 C3020 1.368 . S
C3024 C3023 1.523 . S
H3025 C3000 0.950 . S
H3026 C3002 0.950 . S
H3027 C3003 0.949 . S
H3028 C3005 0.950 . S
H3029 C3007 0.950 . S
C3030 C3031 1.349 . S
C3030 C3032 1.327 . S
C3030 H3055 0.950 . S
C3031 C3030 1.349 . S
C3031 C3047 1.349 . S
C3032 C3030 1.327 . S
C3032 C3051 1.429 . S
C3032 H3056 0.950 . S
C3033 C3050 1.574 . S
C3033 C3052 1.368 . S
C3033 H3057 0.949 . S
H3034 C3038 0.949 . S
C3035 C3036 1.349 . S
C3035 C3037 1.327 . S
C3035 H3058 0.950 . S
C3036 C3035 1.349 . S
C3036 C3048 1.349 . S
C3037 C3035 1.327 . S
C3037 C3053 1.429 . S
C3037 H3059 0.950 . S
C3038 H3034 0.949 . S
C3038 C3046 1.574 . S
C3038 C3054 1.368 . S
H3039 C3047 0.950 . S
H3040 C3045 0.950 . S
H3041 C3046 0.949 . S
H3042 C3048 0.950 . S
H3043 C3049 0.950 . S
H3044 C3050 0.949 . S
C3045 H3040 0.950 . S
C3045 C3047 1.327 . S
C3045 C3051 1.429 . S
C3046 C3038 1.574 . S
C3046 H3041 0.949 . S
C3046 C3052 1.368 . S
C3047 C3031 1.349 . S
C3047 H3039 0.950 . S
C3047 C3045 1.327 . S
C3048 C3036 1.349 . S
C3048 H3042 0.950 . S
C3048 C3049 1.327 . S
C3049 H3043 0.950 . S
C3049 C3048 1.327 . S
C3049 C3053 1.429 . S
C3050 C3033 1.574 . S
C3050 H3044 0.949 . S
C3050 C3054 1.368 . S
C3051 C3032 1.429 . S
C3051 C3045 1.429 . S
C3051 C3052 1.523 . S
C3052 C3033 1.368 . S
C3052 C3046 1.368 . S
C3052 C3051 1.523 . S
C3053 C3037 1.429 . S
C3053 C3049 1.429 . S
C3053 C3054 1.523 . S
C3054 C3038 1.368 . S
C3054 C3050 1.368 . S
C3054 C3053 1.523 . S
H3055 C3030 0.950 . S
H3056 C3032 0.950 . S
H3057 C3033 0.949 . S
H3058 C3035 0.950 . S
H3059 C3037 0.950 . S
C3060 C3061 1.349 . S
C3060 C3062 1.327 . S
C3060 H3085 0.950 . S
C3061 C3060 1.349 . S
C3061 C3077 1.349 . S
C3062 C3060 1.327 . S
C3062 C3081 1.429 . S
C3062 H3086 0.950 . S
C3063 C3080 1.574 . S
C3063 C3082 1.368 . S
C3063 H3087 0.949 . S
H3064 C3068 0.949 . S
C3065 C3066 1.349 . S
C3065 C3067 1.327 . S
C3065 H3088 0.950 . S
C3066 C3065 1.349 . S
C3066 C3078 1.349 . S
C3067 C3065 1.327 . S
C3067 C3083 1.429 . S
C3067 H3089 0.950 . S
C3068 H3064 0.949 . S
C3068 C3076 1.574 . S
C3068 C3084 1.368 . S
H3069 C3077 0.950 . S
H3070 C3075 0.950 . S
H3071 C3076 0.949 . S
H3072 C3078 0.950 . S
H3073 C3079 0.950 . S
H3074 C3080 0.949 . S
C3075 H3070 0.950 . S
C3075 C3077 1.327 . S
C3075 C3081 1.429 . S
C3076 C3068 1.574 . S
C3076 H3071 0.949 . S
C3076 C3082 1.368 . S
C3077 C3061 1.349 . S
C3077 H3069 0.950 . S
C3077 C3075 1.327 . S
C3078 C3066 1.349 . S
C3078 H3072 0.950 . S
C3078 C3079 1.327 . S
C3079 H3073 0.950 . S
C3079 C3078 1.327 . S
C3079 C3083 1.429 . S
C3080 C3063 1.574 . S
C3080 H3074 0.949 . S
C3080 C3084 1.368 . S
C3081 C3062 1.429 . S
C3081 C3075 1.429 . S
C3081 C3082 1.523 . S
C3082 C3063 1.368 . S
C3082 C3076 1.368 . S
C3082 C3081 1.523 . S
C3083 C3067 1.429 . S
C3083 C3079 1.429 . S
C3083 C3084 1.523 . S
C3084 C3068 1.368 . S
C3084 C3080 1.368 . S
C3084 C3083 1.523 . S
H3085 C3060 0.950 . S
H3086 C3062 0.950 . S
H3087 C3063 0.949 . S
H3088 C3065 0.950 . S
H3089 C3067 0.950 . S
C3090 C3091 1.349 . S
C3090 C3092 1.327 . S
C3090 H3115 0.950 . S
C3091 C3090 1.349 . S
C3091 C3107 1.349 . S
C3092 C3090 1.327 . S
C3092 C3111 1.429 . S
C3092 H3116 0.950 . S
C3093 C3110 1.574 . S
C3093 C3112 1.368 . S
C3093 H3117 0.949 . S
H3094 C3098 0.949 . S
C3095 C3096 1.349 . S
C3095 C3097 1.327 . S
C3095 H3118 0.950 . S
C3096 C3095 1.349 . S
C3096 C3108 1.349 . S
C3097 C3095 1.327 . S
C3097 C3113 1.429 . S
C3097 H3119 0.950 . S
C3098 H3094 0.949 . S
C3098 C3106 1.574 . S
C3098 C3114 1.368 . S
H3099 C3107 0.950 . S
H3100 C3105 0.950 . S
H3101 C3106 0.949 . S
H3102 C3108 0.950 . S
H3103 C3109 0.950 . S
H3104 C3110 0.949 . S
C3105 H3100 0.950 . S
C3105 C3107 1.327 . S
C3105 C3111 1.429 . S
C3106 C3098 1.574 . S
C3106 H3101 0.949 . S
C3106 C3112 1.368 . S
C3107 C3091 1.349 . S
C3107 H3099 0.950 . S
C3107 C3105 1.327 . S
C3108 C3096 1.349 . S
C3108 H3102 0.950 . S
C3108 C3109 1.327 . S
C3109 H3103 0.950 . S
C3109 C3108 1.327 . S
C3109 C3113 1.429 . S
C3110 C3093 1.574 . S
C3110 H3104 0.949 . S
C3110 C3114 1.368 . S
C3111 C3092 1.429 . S
C3111 C3105 1.429 . S
C3111 C3112 1.523 . S
C3112 C3093 1.368 . S
C3112 C3106 1.368 . S
C3112 C3111 1.523 . S
C3113 C3097 1.429 . S
C3113 C3109 1.429 . S
C3113 C3114 1.523 . S
C3114 C3098 1.368 . S
C3114 C3110 1.368 . S
C3114 C3113 1.523 . S
H3115 C3090 0.950 . S
H3116 C3092 0.950 . S
H3117 C3093 0.949 . S
H3118 C3095 0.950 . S
H3119 C3097 0.950 . S
C3120 C3121 1.349 . S
C3120 C3122 1.327 . S
C3120 H3145 0.950 . S
C3121 C3120 1.349 . S
C3121 C3137 1.349 . S
C3122 C3120 1.327 . S
C3122 C3141 1.429 . S
C3122 H3146 0.950 . S
C3123 C3140 1.574 . S
C3123 C3142 1.368 . S
C3123 H3147 0.949 . S
H3124 C3128 0.949 . S
C3125 C3126 1.349 . S
C3125 C3127 1.327 . S
C3125 H3148 0.950 . S
C3126 C3125 1.349 . S
C3126 C3138 1.349 . S
C3127 C3125 1.327 . S
C3127 C3143 1.429 . S
C3127 H3149 0.950 . S
C3128 H3124 0.949 . S
C3128 C3136 1.574 . S
C3128 C3144 1.368 . S
H3129 C3137 0.950 . S
H3130 C3135 0.950 . S
H3131 C3136 0.949 . S
H3132 C3138 0.950 . S
H3133 C3139 0.950 . S
H3134 C3140 0.949 . S
C3135 H3130 0.950 . S
C3135 C3137 1.327 . S
C3135 C3141 1.429 . S
C3136 C3128 1.574 . S
C3136 H3131 0.949 . S
C3136 C3142 1.368 . S
C3137 C3121 1.349 . S
C3137 H3129 0.950 . S
C3137 C3135 1.327 . S
C3138 C3126 1.349 . S
C3138 H3132 0.950 . S
C3138 C3139 1.327 . S
C3139 H3133 0.950 . S
C3139 C3138 1.327 . S
C3139 C3143 1.429 . S
C3140 C3123 1.574 . S
C3140 H3134 0.949 . S
C3140 C3144 1.368 . S
C3141 C3122 1.429 . S
C3141 C3135 1.429 . S
C3141 C3142 1.523 . S
C3142 C3123 1.368 . S
C3142 C3136 1.368 . S
C3142 C3141 1.523 . S
C3143 C3127 1.429 . S
C3143 C3139 1.429 . S
C3143 C3144 1.523 . S
C3144 C3128 1.368 . S
C3144 C3140 1.368 . S
C3144 C3143 1.523 . S
H3145 C3120 0.950 . S
H3146 C3122 0.950 . S
H3147 C3123 0.949 . S
H3148 C3125 0.950 . S
H3149 C3127 0.950 . S
C3150 C3151 1.349 . S
C3150 C3152 1.327 . S
C3150 H3175 0.950 . S
C3151 C3150 1.349 . S
C3151 C3167 1.349 . S
C3152 C3150 1.327 . S
C3152 C3171 1.429 . S
C3152 H3176 0.950 . S
C3153 C3170 1.574 . S
C3153 C3172 1.368 . S
C3153 H3177 0.949 . S
H3154 C3158 0.949 . S
C3155 C3156 1.349 . S
C3155 C3157 1.327 . S
C3155 H3178 0.950 . S
C3156 C3155 1.349 . S
C3156 C3168 1.349 . S
C3157 C3155 1.327 . S
C3157 C3173 1.429 . S
C3157 H3179 0.950 . S
C3158 H3154 0.949 . S
C3158 C3166 1.574 . S
C3158 C3174 1.368 . S
H3159 C3167 0.950 . S
H3160 C3165 0.950 . S
H3161 C3166 0.949 . S
H3162 C3168 0.950 . S
H3163 C3169 0.950 . S
H3164 C3170 0.949 . S
C3165 H3160 0.950 . S
C3165 C3167 1.327 . S
C3165 C3171 1.429 . S
C3166 C3158 1.574 . S
C3166 H3161 0.949 . S
C3166 C3172 1.368 . S
C3167 C3151 1.349 . S
C3167 H3159 0.950 . S
C3167 C3165 1.327 . S
C3168 C3156 1.349 . S
C3168 H3162 0.950 . S
C3168 C3169 1.327 . S
C3169 H3163 0.950 . S
C3169 C3168 1.327 . S
C3169 C3173 1.429 . S
C3170 C3153 1.574 . S
C3170 H3164 0.949 . S
C3170 C3174 1.368 . S
C3171 C3152 1.429 . S
C3171 C3165 1.429 . S
C3171 C3172 1.523 . S
C3172 C3153 1.368 . S
C3172 C3166 1.368 . S
C3172 C3171 1.523 . S
C3173 C3157 1.429 . S
C3173 C3169 1.429 . S
C3173 C3174 1.523 . S
C3174 C3158 1.368 . S
C3174 C3170 1.368 . S
C3174 C3173 1.523 . S
H3175 C3150 0.950 . S
H3176 C3152 0.950 . S
H3177 C3153 0.949 . S
H3178 C3155 0.950 . S
H3179 C3157 0.950 . S
C3180 C3181 1.349 . S
C3180 C3182 1.327 . S
C3180 H3205 0.950 . S
C3181 C3180 1.349 . S
C3181 C3197 1.349 1_455 S
C3182 C3180 1.327 . S
C3182 C3201 1.429 . S
C3182 H3206 0.950 1_556 S
C3183 C3200 1.566 . S
C3183 C3202 1.368 1_655 S
C3183 H3207 0.949 . S
H3184 C3188 0.949 . S
C3185 C3186 1.349 . S
C3185 C3187 1.327 . S
C3185 H3208 0.950 1_455 S
C3186 C3185 1.349 . S
C3186 C3198 1.349 . S
C3187 C3185 1.327 . S
C3187 C3203 1.429 . S
C3187 H3209 0.992 1_455 S
C3188 H3184 0.949 . S
C3188 C3196 1.574 . S
C3188 C3204 1.368 . S
H3189 C3197 0.950 . S
H3190 C3195 0.950 . S
H3191 C3196 0.949 . S
H3192 C3198 0.950 . S
H3193 C3199 0.950 . S
H3194 C3200 0.978 . S
C3195 H3190 0.950 . S
C3195 C3197 1.327 . S
C3195 C3201 1.429 1_655 S
C3196 C3188 1.574 . S
C3196 H3191 0.949 . S
C3196 C3202 1.368 1_554 S
C3197 C3181 1.349 1_655 S
C3197 H3189 0.950 . S
C3197 C3195 1.327 . S
C3198 C3186 1.349 . S
C3198 H3192 0.950 . S
C3198 C3199 1.327 . S
C3199 H3193 0.950 . S
C3199 C3198 1.327 . S
C3199 C3203 1.429 . S
C3200 C3183 1.566 . S
C3200 H3194 0.978 . S
C3200 C3204 1.346 1_656 S
C3201 C3182 1.429 . S
C3201 C3195 1.429 1_455 S
C3201 C3202 1.523 . S
C3202 C3183 1.368 1_455 S
C3202 C3196 1.368 1_556 S
C3202 C3201 1.523 . S
C3203 C3187 1.429 . S
C3203 C3199 1.429 . S
C3203 C3204 1.523 . S
C3204 C3188 1.368 . S
C3204 C3200 1.346 1_454 S
C3204 C3203 1.523 . S
H3205 C3180 0.950 . S
H3206 C3182 0.950 1_554 S
H3207 C3183 0.949 . S
H3208 C3185 0.950 1_655 S
H3209 C3187 0.992 1_655 S
C3210 C3211 1.349 . S
C3210 C3212 1.327 . S
C3210 H3235 0.950 . S
C3211 C3210 1.349 . S
C3211 C3227 1.349 . S
C3212 C3210 1.327 . S
C3212 C3231 1.429 . S
C3212 H3236 0.950 . S
C3213 C3230 1.574 . S
C3213 C3232 1.368 . S
C3213 H3237 0.949 . S
H3214 C3218 0.949 . S
C3215 C3216 1.349 . S
C3215 C3217 1.327 . S
C3215 H3238 0.950 . S
C3216 C3215 1.349 . S
C3216 C3228 1.349 . S
C3217 C3215 1.327 . S
C3217 C3233 1.429 . S
C3217 H3239 0.950 . S
C3218 H3214 0.949 . S
C3218 C3226 1.574 . S
C3218 C3234 1.368 . S
H3219 C3227 0.950 . S
H3220 C3225 0.950 . S
H3221 C3226 0.949 . S
H3222 C3228 0.950 . S
H3223 C3229 0.950 . S
H3224 C3230 0.949 . S
C3225 H3220 0.950 . S
C3225 C3227 1.327 . S
C3225 C3231 1.429 . S
C3226 C3218 1.574 . S
C3226 H3221 0.949 . S
C3226 C3232 1.368 . S
C3227 C3211 1.349 . S
C3227 H3219 0.950 . S
C3227 C3225 1.327 . S
C3228 C3216 1.349 . S
C3228 H3222 0.950 . S
C3228 C3229 1.327 . S
C3229 H3223 0.950 . S
C3229 C3228 1.327 . S
C3229 C3233 1.429 . S
C3230 C3213 1.574 . S
C3230 H3224 0.949 . S
C3230 C3234 1.368 . S
C3231 C3212 1.429 . S
C3231 C3225 1.429 . S
C3231 C3232 1.523 . S
C3232 C3213 1.368 . S
C3232 C3226 1.368 . S
C3232 C3231 1.523 . S
C3233 C3217 1.429 . S
C3233 C3229 1.429 . S
C3233 C3234 1.523 . S
C3234 C3218 1.368 . S
C3234 C3230 1.368 . S
C3234 C3233 1.523 . S
H3235 C3210 0.950 . S
H3236 C3212 0.950 . S
H3237 C3213 0.949 . S
H3238 C3215 0.950 . S
H3239 C3217 0.950 . S
C3240 C3241 1.349 . S
C3240 C3242 1.327 . S
C3240 H3265 0.950 . S
C3241 C3240 1.349 . S
C3241 C3257 1.349 . S
C3242 C3240 1.327 . S
C3242 C3261 1.429 . S
C3242 H3266 0.950 . S
C3243 C3260 1.574 . S
C3243 C3262 1.368 . S
C3243 H3267 0.949 . S
H3244 C3248 0.949 . S
C3245 C3246 1.349 . S
C3245 C3247 1.327 . S
C3245 H3268 0.950 . S
C3246 C3245 1.349 . S
C3246 C3258 1.349 . S
C3247 C3245 1.327 . S
C3247 C3263 1.429 . S
C3247 H3269 0.950 . S
C3248 H3244 0.949 . S
C3248 C3256 1.574 . S
C3248 C3264 1.368 . S
H3249 C3257 0.950 . S
H3250 C3255 0.950 . S
H3251 C3256 0.949 . S
H3252 C3258 0.950 . S
H3253 C3259 0.950 . S
H3254 C3260 0.949 . S
C3255 H3250 0.950 . S
C3255 C3257 1.327 . S
C3255 C3261 1.429 . S
C3256 C3248 1.574 . S
C3256 H3251 0.949 . S
C3256 C3262 1.368 . S
C3257 C3241 1.349 . S
C3257 H3249 0.950 . S
C3257 C3255 1.327 . S
C3258 C3246 1.349 . S
C3258 H3252 0.950 . S
C3258 C3259 1.327 . S
C3259 H3253 0.950 . S
C3259 C3258 1.327 . S
C3259 C3263 1.429 . S
C3260 C3243 1.574 . S
C3260 H3254 0.949 . S
C3260 C3264 1.368 . S
C3261 C3242 1.429 . S
C3261 C3255 1.429 . S
C3261 C3262 1.523 . S
C3262 C3243 1.368 . S
C3262 C3256 1.368 . S
C3262 C3261 1.523 . S
C3263 C3247 1.429 . S
C3263 C3259 1.429 . S
C3263 C3264 1.523 . S
C3264 C3248 1.368 . S
C3264 C3260 1.368 . S
C3264 C3263 1.523 . S
H3265 C3240 0.950 . S
H3266 C3242 0.950 . S
H3267 C3243 0.949 . S
H3268 C3245 0.950 . S
H3269 C3247 0.950 . S
C3270 C3271 1.349 . S
C3270 C3272 1.327 . S
C3270 H3295 0.950 . S
C3271 C3270 1.349 . S
C3271 C3287 1.349 . S
C3272 C3270 1.327 . S
C3272 C3291 1.429 . S
C3272 H3296 0.950 . S
C3273 C3290 1.574 . S
C3273 C3292 1.368 . S
C3273 H3297 0.949 . S
H3274 C3278 0.949 . S
C3275 C3276 1.349 . S
C3275 C3277 1.327 . S
C3275 H3298 0.950 . S
C3276 C3275 1.349 . S
C3276 C3288 1.349 . S
C3277 C3275 1.327 . S
C3277 C3293 1.429 . S
C3277 H3299 0.950 . S
C3278 H3274 0.949 . S
C3278 C3286 1.574 . S
C3278 C3294 1.368 . S
H3279 C3287 0.950 . S
H3280 C3285 0.950 . S
H3281 C3286 0.949 . S
H3282 C3288 0.950 . S
H3283 C3289 0.950 . S
H3284 C3290 0.949 . S
C3285 H3280 0.950 . S
C3285 C3287 1.327 . S
C3285 C3291 1.429 . S
C3286 C3278 1.574 . S
C3286 H3281 0.949 . S
C3286 C3292 1.368 . S
C3287 C3271 1.349 . S
C3287 H3279 0.950 . S
C3287 C3285 1.327 . S
C3288 C3276 1.349 . S
C3288 H3282 0.950 . S
C3288 C3289 1.327 . S
C3289 H3283 0.950 . S
C3289 C3288 1.327 . S
C3289 C3293 1.429 . S
C3290 C3273 1.574 . S
C3290 H3284 0.949 . S
C3290 C3294 1.368 . S
C3291 C3272 1.429 . S
C3291 C3285 1.429 . S
C3291 C3292 1.523 . S
C3292 C3273 1.368 . S
C3292 C3286 1.368 . S
C3292 C3291 1.523 . S
C3293 C3277 1.429 . S
C3293 C3289 1.429 . S
C3293 C3294 1.523 . S
C3294 C3278 1.368 . S
C3294 C3290 1.368 . S
C3294 C3293 1.523 . S
H3295 C3270 0.950 . S
H3296 C3272 0.950 . S
H3297 C3273 0.949 . S
H3298 C3275 0.950 . S
H3299 C3277 0.950 . S
C3300 C3301 1.354 . S
C3300 C3302 1.341 . S
C3300 H3325 0.933 1_455 S
C3301 C3300 1.354 . S
C3301 C3317 1.349 . S
C3302 C3300 1.341 . S
C3302 C3321 1.429 . S
C3302 H3326 0.950 1_455 S
C3303 C3320 1.574 . S
C3303 C3322 1.368 . S
C3303 H3327 0.949 . S
H3304 C3308 0.952 . S
C3305 C3306 1.349 . S
C3305 C3307 1.327 . S
C3305 H3328 0.950 . S
C3306 C3305 1.349 . S
C3306 C3318 1.349 . S
C3307 C3305 1.327 . S
C3307 C3323 1.429 . S
C3307 H3329 0.950 . S
C3308 H3304 0.952 . S
C3308 C3316 1.574 . S
C3308 C3324 1.368 . S
H3309 C3317 0.950 . S
H3310 C3315 0.950 . S
H3311 C3316 0.949 1_655 S
H3312 C3318 0.950 . S
H3313 C3319 0.950 . S
H3314 C3320 0.949 . S
C3315 H3310 0.950 . S
C3315 C3317 1.327 . S
C3315 C3321 1.429 . S
C3316 C3308 1.574 . S
C3316 H3311 0.949 1_455 S
C3316 C3322 1.368 . S
C3317 C3301 1.349 . S
C3317 H3309 0.950 . S
C3317 C3315 1.327 . S
C3318 C3306 1.349 . S
C3318 H3312 0.950 . S
C3318 C3319 1.327 . S
C3319 H3313 0.950 . S
C3319 C3318 1.327 . S
C3319 C3323 1.429 . S
C3320 C3303 1.574 . S
C3320 H3314 0.949 . S
C3320 C3324 1.368 . S
C3321 C3302 1.429 . S
C3321 C3315 1.429 . S
C3321 C3322 1.523 . S
C3322 C3303 1.368 . S
C3322 C3316 1.368 . S
C3322 C3321 1.523 . S
C3323 C3307 1.429 . S
C3323 C3319 1.429 . S
C3323 C3324 1.523 . S
C3324 C3308 1.368 . S
C3324 C3320 1.368 . S
C3324 C3323 1.523 . S
H3325 C3300 0.933 1_655 S
H3326 C3302 0.950 1_655 S
H3327 C3303 0.949 . S
H3328 C3305 0.950 . S
H3329 C3307 0.950 . S
C3330 C3331 1.349 . S
C3330 C3332 1.327 . S
C3330 H3355 0.950 . S
C3331 C3330 1.349 . S
C3331 C3347 1.349 . S
C3332 C3330 1.327 . S
C3332 C3351 1.429 . S
C3332 H3356 0.950 . S
C3333 C3350 1.574 . S
C3333 C3352 1.368 . S
C3333 H3357 0.949 . S
H3334 C3338 0.949 . S
C3335 C3336 1.349 . S
C3335 C3337 1.327 . S
C3335 H3358 0.950 . S
C3336 C3335 1.349 . S
C3336 C3348 1.349 . S
C3337 C3335 1.327 . S
C3337 C3353 1.429 . S
C3337 H3359 0.950 . S
C3338 H3334 0.949 . S
C3338 C3346 1.574 . S
C3338 C3354 1.368 . S
H3339 C3347 0.950 . S
H3340 C3345 0.950 . S
H3341 C3346 0.949 . S
H3342 C3348 0.950 . S
H3343 C3349 0.950 . S
H3344 C3350 0.949 . S
C3345 H3340 0.950 . S
C3345 C3347 1.327 . S
C3345 C3351 1.429 . S
C3346 C3338 1.574 . S
C3346 H3341 0.949 . S
C3346 C3352 1.368 . S
C3347 C3331 1.349 . S
C3347 H3339 0.950 . S
C3347 C3345 1.327 . S
C3348 C3336 1.349 . S
C3348 H3342 0.950 . S
C3348 C3349 1.327 . S
C3349 H3343 0.950 . S
C3349 C3348 1.327 . S
C3349 C3353 1.429 . S
C3350 C3333 1.574 . S
C3350 H3344 0.949 . S
C3350 C3354 1.368 . S
C3351 C3332 1.429 . S
C3351 C3345 1.429 . S
C3351 C3352 1.523 . S
C3352 C3333 1.368 . S
C3352 C3346 1.368 . S
C3352 C3351 1.523 . S
C3353 C3337 1.429 . S
C3353 C3349 1.429 . S
C3353 C3354 1.523 . S
C3354 C3338 1.368 . S
C3354 C3350 1.368 . S
C3354 C3353 1.523 . S
H3355 C3330 0.950 . S
H3356 C3332 0.950 . S
H3357 C3333 0.949 . S
H3358 C3335 0.950 . S
H3359 C3337 0.950 . S
C3360 C3361 1.349 . S
C3360 C3362 1.327 . S
C3360 H3385 0.950 . S
C3361 C3360 1.349 . S
C3361 C3377 1.349 . S
C3362 C3360 1.327 . S
C3362 C3381 1.429 . S
C3362 H3386 0.950 . S
C3363 C3380 1.574 . S
C3363 C3382 1.368 . S
C3363 H3387 0.949 . S
H3364 C3368 0.949 . S
C3365 C3366 1.349 . S
C3365 C3367 1.327 . S
C3365 H3388 0.950 . S
C3366 C3365 1.349 . S
C3366 C3378 1.349 . S
C3367 C3365 1.327 . S
C3367 C3383 1.429 . S
C3367 H3389 0.950 . S
C3368 H3364 0.949 . S
C3368 C3376 1.574 . S
C3368 C3384 1.368 . S
H3369 C3377 0.950 . S
H3370 C3375 0.950 . S
H3371 C3376 0.949 . S
H3372 C3378 0.950 . S
H3373 C3379 0.950 . S
H3374 C3380 0.949 . S
C3375 H3370 0.950 . S
C3375 C3377 1.327 . S
C3375 C3381 1.429 . S
C3376 C3368 1.574 . S
C3376 H3371 0.949 . S
C3376 C3382 1.368 . S
C3377 C3361 1.349 . S
C3377 H3369 0.950 . S
C3377 C3375 1.327 . S
C3378 C3366 1.349 . S
C3378 H3372 0.950 . S
C3378 C3379 1.327 . S
C3379 H3373 0.950 . S
C3379 C3378 1.327 . S
C3379 C3383 1.429 . S
C3380 C3363 1.574 . S
C3380 H3374 0.949 . S
C3380 C3384 1.368 . S
C3381 C3362 1.429 . S
C3381 C3375 1.429 . S
C3381 C3382 1.523 . S
C3382 C3363 1.368 . S
C3382 C3376 1.368 . S
C3382 C3381 1.523 . S
C3383 C3367 1.429 . S
C3383 C3379 1.429 . S
C3383 C3384 1.523 . S
C3384 C3368 1.368 . S
C3384 C3380 1.368 . S
C3384 C3383 1.523 . S
H3385 C3360 0.950 . S
H3386 C3362 0.950 . S
H3387 C3363 0.949 . S
H3388 C3365 0.950 . S
H3389 C3367 0.950 . S
C3390 C3391 1.349 . S
C3390 C3392 1.327 . S
C3390 H3415 0.950 . S
C3391 C3390 1.349 . S
C3391 C3407 1.349 . S
C3392 C3390 1.327 . S
C3392 C3411 1.429 . S
C3392 H3416 0.950 . S
C3393 C3410 1.574 . S
C3393 C3412 1.368 . S
C3393 H3417 0.949 . S
H3394 C3398 0.949 . S
C3395 C3396 1.349 . S
C3395 C3397 1.327 . S
C3395 H3418 0.950 . S
C3396 C3395 1.349 . S
C3396 C3408 1.349 . S
C3397 C3395 1.327 . S
C3397 C3413 1.429 . S
C3397 H3419 0.950 . S
C3398 H3394 0.949 . S
C3398 C3406 1.574 . S
C3398 C3414 1.368 . S
H3399 C3407 0.950 1_554 S
H3400 C3405 0.950 . S
H3401 C3406 0.949 . S
H3402 C3408 0.950 . S
H3403 C3409 0.950 . S
H3404 C3410 0.949 . S
C3405 H3400 0.950 . S
C3405 C3407 1.327 . S
C3405 C3411 1.429 . S
C3406 C3398 1.574 . S
C3406 H3401 0.949 . S
C3406 C3412 1.368 . S
C3407 C3391 1.349 . S
C3407 H3399 0.950 1_556 S
C3407 C3405 1.327 . S
C3408 C3396 1.349 . S
C3408 H3402 0.950 . S
C3408 C3409 1.327 . S
C3409 H3403 0.950 . S
C3409 C3408 1.327 . S
C3409 C3413 1.429 . S
C3410 C3393 1.574 . S
C3410 H3404 0.949 . S
C3410 C3414 1.368 . S
C3411 C3392 1.429 . S
C3411 C3405 1.429 . S
C3411 C3412 1.523 . S
C3412 C3393 1.368 . S
C3412 C3406 1.368 . S
C3412 C3411 1.523 . S
C3413 C3397 1.429 . S
C3413 C3409 1.429 . S
C3413 C3414 1.523 . S
C3414 C3398 1.368 . S
C3414 C3410 1.368 . S
C3414 C3413 1.523 . S
H3415 C3390 0.950 . S
H3416 C3392 0.950 . S
H3417 C3393 0.949 . S
H3418 C3395 0.950 . S
H3419 C3397 0.950 . S
C3420 C3421 1.349 . S
C3420 C3422 1.327 . S
C3420 H3445 0.950 . S
C3421 C3420 1.349 . S
C3421 C3437 1.349 . S
C3422 C3420 1.327 . S
C3422 C3441 1.429 . S
C3422 H3446 0.950 . S
C3423 C3440 1.574 . S
C3423 C3442 1.368 . S
C3423 H3447 0.949 . S
H3424 C3428 0.949 . S
C3425 C3426 1.349 . S
C3425 C3427 1.327 . S
C3425 H3448 0.950 . S
C3426 C3425 1.349 . S
C3426 C3438 1.349 . S
C3427 C3425 1.327 . S
C3427 C3443 1.429 . S
C3427 H3449 0.950 . S
C3428 H3424 0.949 . S
C3428 C3436 1.574 . S
C3428 C3444 1.368 . S
H3429 C3437 0.950 . S
H3430 C3435 0.950 . S
H3431 C3436 0.949 . S
H3432 C3438 0.950 . S
H3433 C3439 0.950 . S
H3434 C3440 0.949 . S
C3435 H3430 0.950 . S
C3435 C3437 1.327 . S
C3435 C3441 1.429 . S
C3436 C3428 1.574 . S
C3436 H3431 0.949 . S
C3436 C3442 1.368 . S
C3437 C3421 1.349 . S
C3437 H3429 0.950 . S
C3437 C3435 1.327 . S
C3438 C3426 1.349 . S
C3438 H3432 0.950 . S
C3438 C3439 1.327 . S
C3439 H3433 0.950 . S
C3439 C3438 1.327 . S
C3439 C3443 1.429 . S
C3440 C3423 1.574 . S
C3440 H3434 0.949 . S
C3440 C3444 1.368 . S
C3441 C3422 1.429 . S
C3441 C3435 1.429 . S
C3441 C3442 1.523 . S
C3442 C3423 1.368 . S
C3442 C3436 1.368 . S
C3442 C3441 1.523 . S
C3443 C3427 1.429 . S
C3443 C3439 1.429 . S
C3443 C3444 1.523 . S
C3444 C3428 1.368 . S
C3444 C3440 1.368 . S
C3444 C3443 1.523 . S
H3445 C3420 0.950 . S
H3446 C3422 0.950 . S
H3447 C3423 0.949 . S
H3448 C3425 0.950 . S
H3449 C3427 0.950 . S
C3450 C3451 1.349 . S
C3450 C3452 1.327 . S
C3450 H3475 0.950 . S
C3451 C3450 1.349 . S
C3451 C3467 1.349 . S
C3452 C3450 1.327 . S
C3452 C3471 1.429 . S
C3452 H3476 0.950 . S
C3453 C3470 1.574 . S
C3453 C3472 1.368 . S
C3453 H3477 0.949 . S
H3454 C3458 0.949 . S
C3455 C3456 1.349 . S
C3455 C3457 1.327 . S
C3455 H3478 0.950 . S
C3456 C3455 1.349 . S
C3456 C3468 1.349 . S
C3457 C3455 1.327 . S
C3457 C3473 1.429 . S
C3457 H3479 0.950 . S
C3458 H3454 0.949 . S
C3458 C3466 1.574 . S
C3458 C3474 1.368 . S
H3459 C3467 0.950 . S
H3460 C3465 0.950 . S
H3461 C3466 0.949 . S
H3462 C3468 0.950 . S
H3463 C3469 0.950 . S
H3464 C3470 0.949 . S
C3465 H3460 0.950 . S
C3465 C3467 1.327 . S
C3465 C3471 1.429 . S
C3466 C3458 1.574 . S
C3466 H3461 0.949 . S
C3466 C3472 1.368 . S
C3467 C3451 1.349 . S
C3467 H3459 0.950 . S
C3467 C3465 1.327 . S
C3468 C3456 1.349 . S
C3468 H3462 0.950 . S
C3468 C3469 1.327 . S
C3469 H3463 0.950 . S
C3469 C3468 1.327 . S
C3469 C3473 1.429 . S
C3470 C3453 1.574 . S
C3470 H3464 0.949 . S
C3470 C3474 1.368 . S
C3471 C3452 1.429 . S
C3471 C3465 1.429 . S
C3471 C3472 1.523 . S
C3472 C3453 1.368 . S
C3472 C3466 1.368 . S
C3472 C3471 1.523 . S
C3473 C3457 1.429 . S
C3473 C3469 1.429 . S
C3473 C3474 1.523 . S
C3474 C3458 1.368 . S
C3474 C3470 1.368 . S
C3474 C3473 1.523 . S
H3475 C3450 0.950 . S
H3476 C3452 0.950 . S
H3477 C3453 0.949 . S
H3478 C3455 0.950 . S
H3479 C3457 0.950 . S
C3480 C3481 1.349 . S
C3480 C3482 1.327 . S
C3480 H3505 0.950 . S
C3481 C3480 1.349 . S
C3481 C3497 1.349 . S
C3482 C3480 1.327 . S
C3482 C3501 1.429 . S
C3482 H3506 0.950 . S
C3483 C3500 1.574 . S
C3483 C3502 1.368 . S
C3483 H3507 0.949 . S
H3484 C3488 0.949 . S
C3485 C3486 1.349 . S
C3485 C3487 1.327 . S
C3485 H3508 0.950 . S
C3486 C3485 1.349 . S
C3486 C3498 1.349 . S
C3487 C3485 1.327 . S
C3487 C3503 1.429 . S
C3487 H3509 0.950 . S
C3488 H3484 0.949 . S
C3488 C3496 1.574 . S
C3488 C3504 1.368 . S
H3489 C3497 0.950 . S
H3490 C3495 0.950 . S
H3491 C3496 0.949 . S
H3492 C3498 0.950 . S
H3493 C3499 0.950 . S
H3494 C3500 0.949 . S
C3495 H3490 0.950 . S
C3495 C3497 1.327 . S
C3495 C3501 1.429 . S
C3496 C3488 1.574 . S
C3496 H3491 0.949 . S
C3496 C3502 1.368 . S
C3497 C3481 1.349 . S
C3497 H3489 0.950 . S
C3497 C3495 1.327 . S
C3498 C3486 1.349 . S
C3498 H3492 0.950 . S
C3498 C3499 1.327 . S
C3499 H3493 0.950 . S
C3499 C3498 1.327 . S
C3499 C3503 1.429 . S
C3500 C3483 1.574 . S
C3500 H3494 0.949 . S
C3500 C3504 1.368 . S
C3501 C3482 1.429 . S
C3501 C3495 1.429 . S
C3501 C3502 1.523 . S
C3502 C3483 1.368 . S
C3502 C3496 1.368 . S
C3502 C3501 1.523 . S
C3503 C3487 1.429 . S
C3503 C3499 1.429 . S
C3503 C3504 1.523 . S
C3504 C3488 1.368 . S
C3504 C3500 1.368 . S
C3504 C3503 1.523 . S
H3505 C3480 0.950 . S
H3506 C3482 0.950 . S
H3507 C3483 0.949 . S
H3508 C3485 0.950 . S
H3509 C3487 0.950 . S
C3510 C3511 1.349 . S
C3510 C3512 1.327 . S
C3510 H3535 0.950 . S
C3511 C3510 1.349 . S
C3511 C3527 1.349 . S
C3512 C3510 1.327 . S
C3512 C3531 1.429 . S
C3512 H3536 0.950 . S
C3513 C3530 1.574 . S
C3513 C3532 1.368 . S
C3513 H3537 0.949 . S
H3514 C3518 0.949 . S
C3515 C3516 1.349 . S
C3515 C3517 1.327 . S
C3515 H3538 0.950 . S
C3516 C3515 1.349 . S
C3516 C3528 1.349 . S
C3517 C3515 1.327 . S
C3517 C3533 1.429 . S
C3517 H3539 0.950 . S
C3518 H3514 0.949 . S
C3518 C3526 1.574 . S
C3518 C3534 1.368 . S
H3519 C3527 0.950 . S
H3520 C3525 0.950 . S
H3521 C3526 0.949 . S
H3522 C3528 0.950 . S
H3523 C3529 0.950 . S
H3524 C3530 0.949 . S
C3525 H3520 0.950 . S
C3525 C3527 1.327 . S
C3525 C3531 1.429 . S
C3526 C3518 1.574 . S
C3526 H3521 0.949 . S
C3526 C3532 1.368 . S
C3527 C3511 1.349 . S
C3527 H3519 0.950 . S
C3527 C3525 1.327 . S
C3528 C3516 1.349 . S
C3528 H3522 0.950 . S
C3528 C3529 1.327 . S
C3529 H3523 0.950 . S
C3529 C3528 1.327 . S
C3529 C3533 1.429 . S
C3530 C3513 1.574 . S
C3530 H3524 0.949 . S
C3530 C3534 1.368 . S
C3531 C3512 1.429 . S
C3531 C3525 1.429 . S
C3531 C3532 1.523 . S
C3532 C3513 1.368 . S
C3532 C3526 1.368 . S
C3532 C3531 1.523 . S
C3533 C3517 1.429 . S
C3533 C3529 1.429 . S
C3533 C3534 1.523 . S
C3534 C3518 1.368 . S
C3534 C3530 1.368 . S
C3534 C3533 1.523 . S
H3535 C3510 0.950 . S
H3536 C3512 0.950 . S
H3537 C3513 0.949 . S
H3538 C3515 0.950 . S
H3539 C3517 0.950 . S
C3540 C3541 1.349 . S
C3540 C3542 1.327 . S
C3540 H3565 0.950 . S
C3541 C3540 1.349 . S
C3541 C3557 1.349 . S
C3542 C3540 1.327 . S
C3542 C3561 1.429 . S
C3542 H3566 0.950 . S
C3543 C3560 1.574 . S
C3543 C3562 1.368 . S
C3543 H3567 0.949 . S
H3544 C3548 0.949 . S
C3545 C3546 1.349 . S
C3545 C3547 1.327 . S
C3545 H3568 0.950 . S
C3546 C3545 1.349 . S
C3546 C3558 1.349 . S
C3547 C3545 1.327 . S
C3547 C3563 1.429 . S
C3547 H3569 0.950 . S
C3548 H3544 0.949 . S
C3548 C3556 1.574 . S
C3548 C3564 1.368 . S
H3549 C3557 0.950 . S
H3550 C3555 0.950 . S
H3551 C3556 0.949 . S
H3552 C3558 0.950 . S
H3553 C3559 0.950 . S
H3554 C3560 0.949 . S
C3555 H3550 0.950 . S
C3555 C3557 1.327 . S
C3555 C3561 1.429 . S
C3556 C3548 1.574 . S
C3556 H3551 0.949 . S
C3556 C3562 1.368 . S
C3557 C3541 1.349 . S
C3557 H3549 0.950 . S
C3557 C3555 1.327 . S
C3558 C3546 1.349 . S
C3558 H3552 0.950 . S
C3558 C3559 1.327 . S
C3559 H3553 0.950 . S
C3559 C3558 1.327 . S
C3559 C3563 1.429 . S
C3560 C3543 1.574 . S
C3560 H3554 0.949 . S
C3560 C3564 1.368 . S
C3561 C3542 1.429 . S
C3561 C3555 1.429 . S
C3561 C3562 1.523 . S
C3562 C3543 1.368 . S
C3562 C3556 1.368 . S
C3562 C3561 1.523 . S
C3563 C3547 1.429 . S
C3563 C3559 1.429 . S
C3563 C3564 1.523 . S
C3564 C3548 1.368 . S
C3564 C3560 1.368 . S
C3564 C3563 1.523 . S
H3565 C3540 0.950 . S
H3566 C3542 0.950 . S
H3567 C3543 0.949 . S
H3568 C3545 0.950 . S
H3569 C3547 0.950 . S
C3570 C3571 1.349 . S
C3570 C3572 1.327 . S
C3570 H3595 0.950 . S
C3571 C3570 1.349 . S
C3571 C3587 1.349 . S
C3572 C3570 1.327 . S
C3572 C3591 1.429 . S
C3572 H3596 0.950 . S
C3573 C3590 1.574 . S
C3573 C3592 1.368 . S
C3573 H3597 0.949 . S
H3574 C3578 0.949 . S
C3575 C3576 1.349 . S
C3575 C3577 1.327 . S
C3575 H3598 0.950 . S
C3576 C3575 1.349 . S
C3576 C3588 1.349 . S
C3577 C3575 1.327 . S
C3577 C3593 1.429 . S
C3577 H3599 0.950 . S
C3578 H3574 0.949 . S
C3578 C3586 1.574 . S
C3578 C3594 1.368 . S
H3579 C3587 0.950 . S
H3580 C3585 0.950 . S
H3581 C3586 0.949 . S
H3582 C3588 0.950 . S
H3583 C3589 0.950 . S
H3584 C3590 0.949 . S
C3585 H3580 0.950 . S
C3585 C3587 1.327 . S
C3585 C3591 1.429 . S
C3586 C3578 1.574 . S
C3586 H3581 0.949 . S
C3586 C3592 1.368 . S
C3587 C3571 1.349 . S
C3587 H3579 0.950 . S
C3587 C3585 1.327 . S
C3588 C3576 1.349 . S
C3588 H3582 0.950 . S
C3588 C3589 1.327 . S
C3589 H3583 0.950 . S
C3589 C3588 1.327 . S
C3589 C3593 1.429 . S
C3590 C3573 1.574 . S
C3590 H3584 0.949 . S
C3590 C3594 1.368 . S
C3591 C3572 1.429 . S
C3591 C3585 1.429 . S
C3591 C3592 1.523 . S
C3592 C3573 1.368 . S
C3592 C3586 1.368 . S
C3592 C3591 1.523 . S
C3593 C3577 1.429 . S
C3593 C3589 1.429 . S
C3593 C3594 1.523 . S
C3594 C3578 1.368 . S
C3594 C3590 1.368 . S
C3594 C3593 1.523 . S
H3595 C3570 0.950 . S
H3596 C3572 0.950 . S
H3597 C3573 0.949 . S
H3598 C3575 0.950 . S
H3599 C3577 0.950 . S
C3600 C3601 1.349 . S
C3600 C3602 1.327 . S
C3600 H3625 0.950 . S
C3601 C3600 1.349 . S
C3601 C3617 1.349 . S
C3602 C3600 1.327 . S
C3602 C3621 1.429 . S
C3602 H3626 0.950 . S
C3603 C3620 1.574 . S
C3603 C3622 1.368 . S
C3603 H3627 0.949 . S
H3604 C3608 0.949 . S
C3605 C3606 1.349 . S
C3605 C3607 1.327 . S
C3605 H3628 0.950 . S
C3606 C3605 1.349 . S
C3606 C3618 1.349 . S
C3607 C3605 1.327 . S
C3607 C3623 1.429 . S
C3607 H3629 0.950 . S
C3608 H3604 0.949 . S
C3608 C3616 1.574 . S
C3608 C3624 1.368 . S
H3609 C3617 0.950 . S
H3610 C3615 0.950 . S
H3611 C3616 0.949 . S
H3612 C3618 0.950 . S
H3613 C3619 0.950 . S
H3614 C3620 0.949 . S
C3615 H3610 0.950 . S
C3615 C3617 1.327 . S
C3615 C3621 1.429 . S
C3616 C3608 1.574 . S
C3616 H3611 0.949 . S
C3616 C3622 1.368 . S
C3617 C3601 1.349 . S
C3617 H3609 0.950 . S
C3617 C3615 1.327 . S
C3618 C3606 1.349 . S
C3618 H3612 0.950 . S
C3618 C3619 1.327 . S
C3619 H3613 0.950 . S
C3619 C3618 1.327 . S
C3619 C3623 1.429 . S
C3620 C3603 1.574 . S
C3620 H3614 0.949 . S
C3620 C3624 1.368 . S
C3621 C3602 1.429 . S
C3621 C3615 1.429 . S
C3621 C3622 1.523 . S
C3622 C3603 1.368 . S
C3622 C3616 1.368 . S
C3622 C3621 1.523 . S
C3623 C3607 1.429 . S
C3623 C3619 1.429 . S
C3623 C3624 1.523 . S
C3624 C3608 1.368 . S
C3624 C3620 1.368 . S
C3624 C3623 1.523 . S
H3625 C3600 0.950 . S
H3626 C3602 0.950 . S
H3627 C3603 0.949 . S
H3628 C3605 0.950 . S
H3629 C3607 0.950 . S
C3630 C3631 1.349 . S
C3630 C3632 1.327 . S
C3630 H3655 0.950 . S
C3631 C3630 1.349 . S
C3631 C3647 1.349 . S
C3632 C3630 1.327 . S
C3632 C3651 1.429 . S
C3632 H3656 0.950 . S
C3633 C3650 1.574 . S
C3633 C3652 1.368 . S
C3633 H3657 0.949 . S
H3634 C3638 0.949 . S
C3635 C3636 1.349 . S
C3635 C3637 1.327 . S
C3635 H3658 0.950 . S
C3636 C3635 1.349 . S
C3636 C3648 1.349 . S
C3637 C3635 1.327 . S
C3637 C3653 1.429 . S
C3637 H3659 0.950 . S
C3638 H3634 0.949 . S
C3638 C3646 1.574 . S
C3638 C3654 1.368 . S
H3639 C3647 0.950 . S
H3640 C3645 0.950 . S
H3641 C3646 0.949 . S
H3642 C3648 0.950 . S
H3643 C3649 0.950 . S
H3644 C3650 0.949 . S
C3645 H3640 0.950 . S
C3645 C3647 1.327 . S
C3645 C3651 1.429 . S
C3646 C3638 1.574 . S
C3646 H3641 0.949 . S
C3646 C3652 1.368 . S
C3647 C3631 1.349 . S
C3647 H3639 0.950 . S
C3647 C3645 1.327 . S
C3648 C3636 1.349 . S
C3648 H3642 0.950 . S
C3648 C3649 1.327 . S
C3649 H3643 0.950 . S
C3649 C3648 1.327 . S
C3649 C3653 1.429 . S
C3650 C3633 1.574 . S
C3650 H3644 0.949 . S
C3650 C3654 1.368 . S
C3651 C3632 1.429 . S
C3651 C3645 1.429 . S
C3651 C3652 1.523 . S
C3652 C3633 1.368 . S
C3652 C3646 1.368 . S
C3652 C3651 1.523 . S
C3653 C3637 1.429 . S
C3653 C3649 1.429 . S
C3653 C3654 1.523 . S
C3654 C3638 1.368 . S
C3654 C3650 1.368 . S
C3654 C3653 1.523 . S
H3655 C3630 0.950 . S
H3656 C3632 0.950 . S
H3657 C3633 0.949 . S
H3658 C3635 0.950 . S
H3659 C3637 0.950 . S
C3660 C3661 1.349 . S
C3660 C3662 1.327 . S
C3660 H3685 0.950 . S
C3661 C3660 1.349 . S
C3661 C3677 1.349 . S
C3662 C3660 1.327 . S
C3662 C3681 1.429 . S
C3662 H3686 0.950 . S
C3663 C3680 1.574 . S
C3663 C3682 1.368 . S
C3663 H3687 0.949 . S
H3664 C3668 0.949 . S
C3665 C3666 1.349 . S
C3665 C3667 1.327 . S
C3665 H3688 0.950 . S
C3666 C3665 1.349 . S
C3666 C3678 1.349 . S
C3667 C3665 1.327 . S
C3667 C3683 1.429 . S
C3667 H3689 0.950 . S
C3668 H3664 0.949 . S
C3668 C3676 1.574 . S
C3668 C3684 1.368 . S
H3669 C3677 0.950 . S
H3670 C3675 0.950 . S
H3671 C3676 0.949 . S
H3672 C3678 0.950 . S
H3673 C3679 0.950 . S
H3674 C3680 0.949 . S
C3675 H3670 0.950 . S
C3675 C3677 1.327 . S
C3675 C3681 1.429 . S
C3676 C3668 1.574 . S
C3676 H3671 0.949 . S
C3676 C3682 1.368 . S
C3677 C3661 1.349 . S
C3677 H3669 0.950 . S
C3677 C3675 1.327 . S
C3678 C3666 1.349 . S
C3678 H3672 0.950 . S
C3678 C3679 1.327 . S
C3679 H3673 0.950 . S
C3679 C3678 1.327 . S
C3679 C3683 1.429 . S
C3680 C3663 1.574 . S
C3680 H3674 0.949 . S
C3680 C3684 1.368 . S
C3681 C3662 1.429 . S
C3681 C3675 1.429 . S
C3681 C3682 1.523 . S
C3682 C3663 1.368 . S
C3682 C3676 1.368 . S
C3682 C3681 1.523 . S
C3683 C3667 1.429 . S
C3683 C3679 1.429 . S
C3683 C3684 1.523 . S
C3684 C3668 1.368 . S
C3684 C3680 1.368 . S
C3684 C3683 1.523 . S
H3685 C3660 0.950 . S
H3686 C3662 0.950 . S
H3687 C3663 0.949 . S
H3688 C3665 0.950 . S
H3689 C3667 0.950 . S
C3690 C3691 1.349 1_556 S
C3690 C3692 1.327 . S
C3690 H3715 0.950 . S
C3691 C3690 1.349 1_554 S
C3691 C3707 1.349 . S
C3692 C3690 1.327 . S
C3692 C3711 1.429 1_556 S
C3692 H3716 0.950 . S
C3693 C3710 1.574 . S
C3693 C3712 1.368 . S
C3693 H3717 0.949 . S
H3694 C3698 0.923 1_556 S
C3695 C3696 1.349 1_565 S
C3695 C3697 1.327 . S
C3695 H3718 0.950 . S
C3696 C3695 1.349 1_545 S
C3696 C3708 1.349 . S
C3697 C3695 1.327 . S
C3697 C3713 1.429 . S
C3697 H3719 0.950 . S
C3698 H3694 0.923 1_554 S
C3698 C3706 1.574 . S
C3698 C3714 1.368 . S
H3699 C3707 0.950 . S
H3700 C3705 0.950 . S
H3701 C3706 0.949 1_556 S
H3702 C3708 0.950 . S
H3703 C3709 0.926 1_545 S
H3704 C3710 0.949 . S
C3705 H3700 0.950 . S
C3705 C3707 1.327 . S
C3705 C3711 1.429 . S
C3706 C3698 1.574 . S
C3706 H3701 0.949 1_554 S
C3706 C3712 1.368 . S
C3707 C3691 1.349 . S
C3707 H3699 0.950 . S
C3707 C3705 1.327 . S
C3708 C3696 1.349 . S
C3708 H3702 0.950 . S
C3708 C3709 1.314 1_545 S
C3709 H3703 0.926 1_565 S
C3709 C3708 1.314 1_565 S
C3709 C3713 1.469 . S
C3710 C3693 1.574 . S
C3710 H3704 0.949 . S
C3710 C3714 1.368 . S
C3711 C3692 1.429 1_554 S
C3711 C3705 1.429 . S
C3711 C3712 1.523 . S
C3712 C3693 1.368 . S
C3712 C3706 1.368 . S
C3712 C3711 1.523 . S
C3713 C3697 1.429 . S
C3713 C3709 1.469 . S
C3713 C3714 1.523 . S
C3714 C3698 1.368 . S
C3714 C3710 1.368 . S
C3714 C3713 1.523 . S
H3715 C3690 0.950 . S
H3716 C3692 0.950 . S
H3717 C3693 0.949 . S
H3718 C3695 0.950 . S
H3719 C3697 0.950 . S
C3720 C3721 1.349 . S
C3720 C3722 1.327 . S
C3720 H3745 0.950 . S
C3721 C3720 1.349 . S
C3721 C3737 1.349 . S
C3722 C3720 1.327 . S
C3722 C3741 1.429 . S
C3722 H3746 0.950 . S
C3723 C3740 1.574 . S
C3723 C3742 1.368 . S
C3723 H3747 0.949 . S
H3724 C3728 0.949 . S
C3725 C3726 1.349 . S
C3725 C3727 1.327 . S
C3725 H3748 0.950 . S
C3726 C3725 1.349 . S
C3726 C3738 1.349 . S
C3727 C3725 1.327 . S
C3727 C3743 1.429 . S
C3727 H3749 0.950 . S
C3728 H3724 0.949 . S
C3728 C3736 1.574 . S
C3728 C3744 1.368 . S
H3729 C3737 0.950 . S
H3730 C3735 0.950 . S
H3731 C3736 0.949 . S
H3732 C3738 0.950 . S
H3733 C3739 0.950 . S
H3734 C3740 0.949 . S
C3735 H3730 0.950 . S
C3735 C3737 1.327 . S
C3735 C3741 1.429 . S
C3736 C3728 1.574 . S
C3736 H3731 0.949 . S
C3736 C3742 1.368 . S
C3737 C3721 1.349 . S
C3737 H3729 0.950 . S
C3737 C3735 1.327 . S
C3738 C3726 1.349 . S
C3738 H3732 0.950 . S
C3738 C3739 1.327 . S
C3739 H3733 0.950 . S
C3739 C3738 1.327 . S
C3739 C3743 1.429 . S
C3740 C3723 1.574 . S
C3740 H3734 0.949 . S
C3740 C3744 1.368 . S
C3741 C3722 1.429 . S
C3741 C3735 1.429 . S
C3741 C3742 1.523 . S
C3742 C3723 1.368 . S
C3742 C3736 1.368 . S
C3742 C3741 1.523 . S
C3743 C3727 1.429 . S
C3743 C3739 1.429 . S
C3743 C3744 1.523 . S
C3744 C3728 1.368 . S
C3744 C3740 1.368 . S
C3744 C3743 1.523 . S
H3745 C3720 0.950 . S
H3746 C3722 0.950 . S
H3747 C3723 0.949 . S
H3748 C3725 0.950 . S
H3749 C3727 0.950 . S
C3750 C3751 1.349 . S
C3750 C3752 1.327 . S
C3750 H3775 0.950 . S
C3751 C3750 1.349 . S
C3751 C3767 1.349 . S
C3752 C3750 1.327 . S
C3752 C3771 1.429 . S
C3752 H3776 0.950 . S
C3753 C3770 1.574 . S
C3753 C3772 1.368 . S
C3753 H3777 0.949 . S
H3754 C3758 0.949 . S
C3755 C3756 1.349 . S
C3755 C3757 1.327 . S
C3755 H3778 0.950 . S
C3756 C3755 1.349 . S
C3756 C3768 1.349 . S
C3757 C3755 1.327 . S
C3757 C3773 1.429 . S
C3757 H3779 0.950 . S
C3758 H3754 0.949 . S
C3758 C3766 1.574 . S
C3758 C3774 1.368 . S
H3759 C3767 0.950 . S
H3760 C3765 0.950 . S
H3761 C3766 0.949 . S
H3762 C3768 0.950 . S
H3763 C3769 0.950 . S
H3764 C3770 0.949 . S
C3765 H3760 0.950 . S
C3765 C3767 1.327 . S
C3765 C3771 1.429 . S
C3766 C3758 1.574 . S
C3766 H3761 0.949 . S
C3766 C3772 1.368 . S
C3767 C3751 1.349 . S
C3767 H3759 0.950 . S
C3767 C3765 1.327 . S
C3768 C3756 1.349 . S
C3768 H3762 0.950 . S
C3768 C3769 1.327 . S
C3769 H3763 0.950 . S
C3769 C3768 1.327 . S
C3769 C3773 1.429 . S
C3770 C3753 1.574 . S
C3770 H3764 0.949 . S
C3770 C3774 1.368 . S
C3771 C3752 1.429 . S
C3771 C3765 1.429 . S
C3771 C3772 1.523 . S
C3772 C3753 1.368 . S
C3772 C3766 1.368 . S
C3772 C3771 1.523 . S
C3773 C3757 1.429 . S
C3773 C3769 1.429 . S
C3773 C3774 1.523 . S
C3774 C3758 1.368 . S
C3774 C3770 1.368 . S
C3774 C3773 1.523 . S
H3775 C3750 0.950 . S
H3776 C3752 0.950 . S
H3777 C3753 0.949 . S
H3778 C3755 0.950 . S
H3779 C3757 0.950 . S
C3780 C3781 1.349 . S
C3780 C3782 1.327 . S
C3780 H3805 0.950 . S
C3781 C3780 1.349 . S
C3781 C3797 1.349 . S
C3782 C3780 1.327 . S
C3782 C3801 1.429 . S
C3782 H3806 0.950 . S
C3783 C3800 1.574 . S
C3783 C3802 1.368 . S
C3783 H3807 0.949 . S
H3784 C3788 0.949 . S
C3785 C3786 1.349 . S
C3785 C3787 1.327 . S
C3785 H3808 0.950 . S
C3786 C3785 1.349 . S
C3786 C3798 1.349 . S
C3787 C3785 1.327 . S
C3787 C3803 1.429 . S
C3787 H3809 0.950 . S
C3788 H3784 0.949 . S
C3788 C3796 1.574 . S
C3788 C3804 1.368 . S
H3789 C3797 0.950 . S
H3790 C3795 0.950 . S
H3791 C3796 0.949 . S
H3792 C3798 0.950 . S
H3793 C3799 0.950 . S
H3794 C3800 0.949 . S
C3795 H3790 0.950 . S
C3795 C3797 1.327 . S
C3795 C3801 1.429 . S
C3796 C3788 1.574 . S
C3796 H3791 0.949 . S
C3796 C3802 1.368 . S
C3797 C3781 1.349 . S
C3797 H3789 0.950 . S
C3797 C3795 1.327 . S
C3798 C3786 1.349 . S
C3798 H3792 0.950 . S
C3798 C3799 1.327 . S
C3799 H3793 0.950 . S
C3799 C3798 1.327 . S
C3799 C3803 1.429 . S
C3800 C3783 1.574 . S
C3800 H3794 0.949 . S
C3800 C3804 1.368 . S
C3801 C3782 1.429 . S
C3801 C3795 1.429 . S
C3801 C3802 1.523 . S
C3802 C3783 1.368 . S
C3802 C3796 1.368 . S
C3802 C3801 1.523 . S
C3803 C3787 1.429 . S
C3803 C3799 1.429 . S
C3803 C3804 1.523 . S
C3804 C3788 1.368 . S
C3804 C3800 1.368 . S
C3804 C3803 1.523 . S
H3805 C3780 0.950 . S
H3806 C3782 0.950 . S
H3807 C3783 0.949 . S
H3808 C3785 0.950 . S
H3809 C3787 0.950 . S
C3810 C3811 1.349 . S
C3810 C3812 1.327 . S
C3810 H3835 0.950 . S
C3811 C3810 1.349 . S
C3811 C3827 1.349 . S
C3812 C3810 1.327 . S
C3812 C3831 1.429 . S
C3812 H3836 0.950 . S
C3813 C3830 1.574 . S
C3813 C3832 1.368 . S
C3813 H3837 0.949 . S
H3814 C3818 0.949 . S
C3815 C3816 1.349 . S
C3815 C3817 1.327 . S
C3815 H3838 0.950 . S
C3816 C3815 1.349 . S
C3816 C3828 1.349 . S
C3817 C3815 1.327 . S
C3817 C3833 1.429 . S
C3817 H3839 0.950 . S
C3818 H3814 0.949 . S
C3818 C3826 1.574 . S
C3818 C3834 1.368 . S
H3819 C3827 0.950 . S
H3820 C3825 0.950 . S
H3821 C3826 0.949 . S
H3822 C3828 0.950 . S
H3823 C3829 0.950 . S
H3824 C3830 0.949 . S
C3825 H3820 0.950 . S
C3825 C3827 1.327 . S
C3825 C3831 1.429 . S
C3826 C3818 1.574 . S
C3826 H3821 0.949 . S
C3826 C3832 1.368 . S
C3827 C3811 1.349 . S
C3827 H3819 0.950 . S
C3827 C3825 1.327 . S
C3828 C3816 1.349 . S
C3828 H3822 0.950 . S
C3828 C3829 1.327 . S
C3829 H3823 0.950 . S
C3829 C3828 1.327 . S
C3829 C3833 1.429 . S
C3830 C3813 1.574 . S
C3830 H3824 0.949 . S
C3830 C3834 1.368 . S
C3831 C3812 1.429 . S
C3831 C3825 1.429 . S
C3831 C3832 1.523 . S
C3832 C3813 1.368 . S
C3832 C3826 1.368 . S
C3832 C3831 1.523 . S
C3833 C3817 1.429 . S
C3833 C3829 1.429 . S
C3833 C3834 1.523 . S
C3834 C3818 1.368 . S
C3834 C3830 1.368 . S
C3834 C3833 1.523 . S
H3835 C3810 0.950 . S
H3836 C3812 0.950 . S
H3837 C3813 0.949 . S
H3838 C3815 0.950 . S
H3839 C3817 0.950 . S
C3840 C3841 1.349 . S
C3840 C3842 1.327 . S
C3840 H3865 0.950 . S
C3841 C3840 1.349 . S
C3841 C3857 1.349 . S
C3842 C3840 1.327 . S
C3842 C3861 1.429 . S
C3842 H3866 0.950 . S
C3843 C3860 1.574 . S
C3843 C3862 1.368 . S
C3843 H3867 0.949 . S
H3844 C3848 0.949 . S
C3845 C3846 1.349 . S
C3845 C3847 1.327 . S
C3845 H3868 0.950 . S
C3846 C3845 1.349 . S
C3846 C3858 1.349 . S
C3847 C3845 1.327 . S
C3847 C3863 1.429 . S
C3847 H3869 0.950 . S
C3848 H3844 0.949 . S
C3848 C3856 1.574 . S
C3848 C3864 1.368 . S
H3849 C3857 0.950 . S
H3850 C3855 0.950 . S
H3851 C3856 0.949 . S
H3852 C3858 0.950 . S
H3853 C3859 0.950 . S
H3854 C3860 0.949 . S
C3855 H3850 0.950 . S
C3855 C3857 1.327 . S
C3855 C3861 1.429 . S
C3856 C3848 1.574 . S
C3856 H3851 0.949 . S
C3856 C3862 1.368 . S
C3857 C3841 1.349 . S
C3857 H3849 0.950 . S
C3857 C3855 1.327 . S
C3858 C3846 1.349 . S
C3858 H3852 0.950 . S
C3858 C3859 1.327 . S
C3859 H3853 0.950 . S
C3859 C3858 1.327 . S
C3859 C3863 1.429 . S
C3860 C3843 1.574 . S
C3860 H3854 0.949 . S
C3860 C3864 1.368 . S
C3861 C3842 1.429 . S
C3861 C3855 1.429 . S
C3861 C3862 1.523 . S
C3862 C3843 1.368 . S
C3862 C3856 1.368 . S
C3862 C3861 1.523 . S
C3863 C3847 1.429 . S
C3863 C3859 1.429 . S
C3863 C3864 1.523 . S
C3864 C3848 1.368 . S
C3864 C3860 1.368 . S
C3864 C3863 1.523 . S
H3865 C3840 0.950 . S
H3866 C3842 0.950 . S
H3867 C3843 0.949 . S
H3868 C3845 0.950 . S
H3869 C3847 0.950 . S
C3870 C3871 1.349 . S
C3870 C3872 1.327 . S
C3870 H3895 0.950 . S
C3871 C3870 1.349 . S
C3871 C3887 1.349 . S
C3872 C3870 1.327 . S
C3872 C3891 1.429 . S
C3872 H3896 0.950 . S
C3873 C3890 1.574 . S
C3873 C3892 1.368 . S
C3873 H3897 0.949 . S
H3874 C3878 0.949 . S
C3875 C3876 1.349 . S
C3875 C3877 1.327 . S
C3875 H3898 0.950 . S
C3876 C3875 1.349 . S
C3876 C3888 1.349 . S
C3877 C3875 1.327 . S
C3877 C3893 1.429 . S
C3877 H3899 0.950 . S
C3878 H3874 0.949 . S
C3878 C3886 1.574 . S
C3878 C3894 1.368 . S
H3879 C3887 0.950 . S
H3880 C3885 0.950 . S
H3881 C3886 0.949 . S
H3882 C3888 0.950 . S
H3883 C3889 0.950 . S
H3884 C3890 0.949 . S
C3885 H3880 0.950 . S
C3885 C3887 1.327 . S
C3885 C3891 1.429 . S
C3886 C3878 1.574 . S
C3886 H3881 0.949 . S
C3886 C3892 1.368 . S
C3887 C3871 1.349 . S
C3887 H3879 0.950 . S
C3887 C3885 1.327 . S
C3888 C3876 1.349 . S
C3888 H3882 0.950 . S
C3888 C3889 1.327 . S
C3889 H3883 0.950 . S
C3889 C3888 1.327 . S
C3889 C3893 1.429 . S
C3890 C3873 1.574 . S
C3890 H3884 0.949 . S
C3890 C3894 1.368 . S
C3891 C3872 1.429 . S
C3891 C3885 1.429 . S
C3891 C3892 1.523 . S
C3892 C3873 1.368 . S
C3892 C3886 1.368 . S
C3892 C3891 1.523 . S
C3893 C3877 1.429 . S
C3893 C3889 1.429 . S
C3893 C3894 1.523 . S
C3894 C3878 1.368 . S
C3894 C3890 1.368 . S
C3894 C3893 1.523 . S
H3895 C3870 0.950 . S
H3896 C3872 0.950 . S
H3897 C3873 0.949 . S
H3898 C3875 0.950 . S
H3899 C3877 0.950 . S
C3900 C3901 1.349 . S
C3900 C3902 1.327 . S
C3900 H3925 0.950 . S
C3901 C3900 1.349 . S
C3901 C3917 1.349 . S
C3902 C3900 1.327 . S
C3902 C3921 1.429 . S
C3902 H3926 0.950 . S
C3903 C3920 1.574 . S
C3903 C3922 1.368 . S
C3903 H3927 0.949 . S
H3904 C3908 0.949 . S
C3905 C3906 1.349 . S
C3905 C3907 1.327 . S
C3905 H3928 0.950 . S
C3906 C3905 1.349 . S
C3906 C3918 1.349 . S
C3907 C3905 1.327 . S
C3907 C3923 1.429 . S
C3907 H3929 0.950 . S
C3908 H3904 0.949 . S
C3908 C3916 1.574 . S
C3908 C3924 1.368 . S
H3909 C3917 0.950 . S
H3910 C3915 0.950 . S
H3911 C3916 0.949 . S
H3912 C3918 0.950 . S
H3913 C3919 0.950 . S
H3914 C3920 0.949 . S
C3915 H3910 0.950 . S
C3915 C3917 1.327 . S
C3915 C3921 1.429 . S
C3916 C3908 1.574 . S
C3916 H3911 0.949 . S
C3916 C3922 1.368 . S
C3917 C3901 1.349 . S
C3917 H3909 0.950 . S
C3917 C3915 1.327 . S
C3918 C3906 1.349 . S
C3918 H3912 0.950 . S
C3918 C3919 1.327 . S
C3919 H3913 0.950 . S
C3919 C3918 1.327 . S
C3919 C3923 1.429 . S
C3920 C3903 1.574 . S
C3920 H3914 0.949 . S
C3920 C3924 1.368 . S
C3921 C3902 1.429 . S
C3921 C3915 1.429 . S
C3921 C3922 1.523 . S
C3922 C3903 1.368 . S
C3922 C3916 1.368 . S
C3922 C3921 1.523 . S
C3923 C3907 1.429 . S
C3923 C3919 1.429 . S
C3923 C3924 1.523 . S
C3924 C3908 1.368 . S
C3924 C3920 1.368 . S
C3924 C3923 1.523 . S
H3925 C3900 0.950 . S
H3926 C3902 0.950 . S
H3927 C3903 0.949 . S
H3928 C3905 0.950 . S
H3929 C3907 0.950 . S
C3930 C3931 1.349 . S
C3930 C3932 1.327 . S
C3930 H3955 0.950 . S
C3931 C3930 1.349 . S
C3931 C3947 1.349 . S
C3932 C3930 1.327 . S
C3932 C3951 1.429 . S
C3932 H3956 0.950 . S
C3933 C3950 1.574 . S
C3933 C3952 1.368 . S
C3933 H3957 0.949 . S
H3934 C3938 0.949 . S
C3935 C3936 1.349 . S
C3935 C3937 1.327 . S
C3935 H3958 0.950 . S
C3936 C3935 1.349 . S
C3936 C3948 1.349 . S
C3937 C3935 1.327 . S
C3937 C3953 1.429 . S
C3937 H3959 0.950 . S
C3938 H3934 0.949 . S
C3938 C3946 1.574 . S
C3938 C3954 1.368 . S
H3939 C3947 0.950 . S
H3940 C3945 0.950 . S
H3941 C3946 0.949 . S
H3942 C3948 0.950 . S
H3943 C3949 0.950 . S
H3944 C3950 0.949 . S
C3945 H3940 0.950 . S
C3945 C3947 1.327 . S
C3945 C3951 1.429 . S
C3946 C3938 1.574 . S
C3946 H3941 0.949 . S
C3946 C3952 1.368 . S
C3947 C3931 1.349 . S
C3947 H3939 0.950 . S
C3947 C3945 1.327 . S
C3948 C3936 1.349 . S
C3948 H3942 0.950 . S
C3948 C3949 1.327 . S
C3949 H3943 0.950 . S
C3949 C3948 1.327 . S
C3949 C3953 1.429 . S
C3950 C3933 1.574 . S
C3950 H3944 0.949 . S
C3950 C3954 1.368 . S
C3951 C3932 1.429 . S
C3951 C3945 1.429 . S
C3951 C3952 1.523 . S
C3952 C3933 1.368 . S
C3952 C3946 1.368 . S
C3952 C3951 1.523 . S
C3953 C3937 1.429 . S
C3953 C3949 1.429 . S
C3953 C3954 1.523 . S
C3954 C3938 1.368 . S
C3954 C3950 1.368 . S
C3954 C3953 1.523 . S
H3955 C3930 0.950 . S
H3956 C3932 0.950 . S
H3957 C3933 0.949 . S
H3958 C3935 0.950 . S
H3959 C3937 0.950 . S
C3960 C3961 1.349 . S
C3960 C3962 1.327 . S
C3960 H3985 0.950 . S
C3961 C3960 1.349 . S
C3961 C3977 1.349 . S
C3962 C3960 1.327 . S
C3962 C3981 1.429 . S
C3962 H3986 0.950 . S
C3963 C3980 1.574 . S
C3963 C3982 1.368 . S
C3963 H3987 0.949 . S
H3964 C3968 0.949 . S
C3965 C3966 1.349 . S
C3965 C3967 1.327 . S
C3965 H3988 0.950 1_556 S
C3966 C3965 1.349 . S
C3966 C3978 1.349 . S
C3967 C3965 1.327 . S
C3967 C3983 1.429 . S
C3967 H3989 0.950 . S
C3968 H3964 0.949 . S
C3968 C3976 1.574 . S
C3968 C3984 1.368 . S
H3969 C3977 0.950 . S
H3970 C3975 0.950 . S
H3971 C3976 0.949 . S
H3972 C3978 0.950 . S
H3973 C3979 0.950 . S
H3974 C3980 0.949 . S
C3975 H3970 0.950 . S
C3975 C3977 1.327 . S
C3975 C3981 1.429 . S
C3976 C3968 1.574 . S
C3976 H3971 0.949 . S
C3976 C3982 1.368 . S
C3977 C3961 1.349 . S
C3977 H3969 0.950 . S
C3977 C3975 1.327 . S
C3978 C3966 1.349 . S
C3978 H3972 0.950 . S
C3978 C3979 1.327 . S
C3979 H3973 0.950 . S
C3979 C3978 1.327 . S
C3979 C3983 1.429 . S
C3980 C3963 1.574 . S
C3980 H3974 0.949 . S
C3980 C3984 1.368 . S
C3981 C3962 1.429 . S
C3981 C3975 1.429 . S
C3981 C3982 1.523 . S
C3982 C3963 1.368 . S
C3982 C3976 1.368 . S
C3982 C3981 1.523 . S
C3983 C3967 1.429 . S
C3983 C3979 1.429 . S
C3983 C3984 1.523 . S
C3984 C3968 1.368 . S
C3984 C3980 1.368 . S
C3984 C3983 1.523 . S
H3985 C3960 0.950 . S
H3986 C3962 0.950 . S
H3987 C3963 0.949 . S
H3988 C3965 0.950 1_554 S
H3989 C3967 0.950 . S
C3990 C3991 1.349 . S
C3990 C3992 1.327 . S
C3990 H4015 0.950 . S
C3991 C3990 1.349 . S
C3991 C4007 1.349 . S
C3992 C3990 1.327 . S
C3992 C4011 1.429 . S
C3992 H4016 0.950 . S
C3993 C4010 1.574 . S
C3993 C4012 1.368 . S
C3993 H4017 0.949 . S
H3994 C3998 0.949 . S
C3995 C3996 1.349 . S
C3995 C3997 1.327 . S
C3995 H4018 0.950 . S
C3996 C3995 1.349 . S
C3996 C4008 1.349 . S
C3997 C3995 1.327 . S
C3997 C4013 1.429 . S
C3997 H4019 0.950 . S
C3998 H3994 0.949 . S
C3998 C4006 1.574 . S
C3998 C4014 1.368 . S
H3999 C4007 0.950 . S
H4000 C4005 0.950 . S
H4001 C4006 0.949 . S
H4002 C4008 0.950 . S
H4003 C4009 0.950 . S
H4004 C4010 0.949 . S
C4005 H4000 0.950 . S
C4005 C4007 1.327 . S
C4005 C4011 1.429 . S
C4006 C3998 1.574 . S
C4006 H4001 0.949 . S
C4006 C4012 1.368 . S
C4007 C3991 1.349 . S
C4007 H3999 0.950 . S
C4007 C4005 1.327 . S
C4008 C3996 1.349 . S
C4008 H4002 0.950 . S
C4008 C4009 1.327 . S
C4009 H4003 0.950 . S
C4009 C4008 1.327 . S
C4009 C4013 1.429 . S
C4010 C3993 1.574 . S
C4010 H4004 0.949 . S
C4010 C4014 1.368 . S
C4011 C3992 1.429 . S
C4011 C4005 1.429 . S
C4011 C4012 1.523 . S
C4012 C3993 1.368 . S
C4012 C4006 1.368 . S
C4012 C4011 1.523 . S
C4013 C3997 1.429 . S
C4013 C4009 1.429 . S
C4013 C4014 1.523 . S
C4014 C3998 1.368 . S
C4014 C4010 1.368 . S
C4014 C4013 1.523 . S
H4015 C3990 0.950 . S
H4016 C3992 0.950 . S
H4017 C3993 0.949 . S
H4018 C3995 0.950 . S
H4019 C3997 0.950 . S
C4020 C4021 1.349 . S
C4020 C4022 1.327 . S
C4020 H4045 0.950 . S
C4021 C4020 1.349 . S
C4021 C4037 1.349 . S
C4022 C4020 1.327 . S
C4022 C4041 1.429 . S
C4022 H4046 0.950 . S
C4023 C4040 1.574 . S
C4023 C4042 1.368 . S
C4023 H4047 0.949 . S
H4024 C4028 0.949 . S
C4025 C4026 1.349 . S
C4025 C4027 1.327 . S
C4025 H4048 0.950 . S
C4026 C4025 1.349 . S
C4026 C4038 1.349 . S
C4027 C4025 1.327 . S
C4027 C4043 1.429 . S
C4027 H4049 0.950 . S
C4028 H4024 0.949 . S
C4028 C4036 1.574 . S
C4028 C4044 1.368 . S
H4029 C4037 0.950 . S
H4030 C4035 0.950 . S
H4031 C4036 0.949 . S
H4032 C4038 0.950 . S
H4033 C4039 0.950 . S
H4034 C4040 0.949 . S
C4035 H4030 0.950 . S
C4035 C4037 1.327 . S
C4035 C4041 1.429 . S
C4036 C4028 1.574 . S
C4036 H4031 0.949 . S
C4036 C4042 1.368 . S
C4037 C4021 1.349 . S
C4037 H4029 0.950 . S
C4037 C4035 1.327 . S
C4038 C4026 1.349 . S
C4038 H4032 0.950 . S
C4038 C4039 1.327 . S
C4039 H4033 0.950 . S
C4039 C4038 1.327 . S
C4039 C4043 1.429 . S
C4040 C4023 1.574 . S
C4040 H4034 0.949 . S
C4040 C4044 1.368 . S
C4041 C4022 1.429 . S
C4041 C4035 1.429 . S
C4041 C4042 1.523 . S
C4042 C4023 1.368 . S
C4042 C4036 1.368 . S
C4042 C4041 1.523 . S
C4043 C4027 1.429 . S
C4043 C4039 1.429 . S
C4043 C4044 1.523 . S
C4044 C4028 1.368 . S
C4044 C4040 1.368 . S
C4044 C4043 1.523 . S
H4045 C4020 0.950 . S
H4046 C4022 0.950 . S
H4047 C4023 0.949 . S
H4048 C4025 0.950 . S
H4049 C4027 0.950 . S
C4050 C4051 1.349 . S
C4050 C4052 1.327 . S
C4050 H4075 0.950 . S
C4051 C4050 1.349 . S
C4051 C4067 1.349 . S
C4052 C4050 1.327 . S
C4052 C4071 1.429 . S
C4052 H4076 0.950 . S
C4053 C4070 1.574 . S
C4053 C4072 1.368 . S
C4053 H4077 0.949 . S
H4054 C4058 0.949 . S
C4055 C4056 1.349 . S
C4055 C4057 1.327 . S
C4055 H4078 0.950 . S
C4056 C4055 1.349 . S
C4056 C4068 1.349 . S
C4057 C4055 1.327 . S
C4057 C4073 1.429 . S
C4057 H4079 0.950 . S
C4058 H4054 0.949 . S
C4058 C4066 1.574 . S
C4058 C4074 1.368 . S
H4059 C4067 0.950 . S
H4060 C4065 0.950 . S
H4061 C4066 0.949 . S
H4062 C4068 0.950 . S
H4063 C4069 0.950 . S
H4064 C4070 0.949 . S
C4065 H4060 0.950 . S
C4065 C4067 1.327 . S
C4065 C4071 1.429 . S
C4066 C4058 1.574 . S
C4066 H4061 0.949 . S
C4066 C4072 1.368 . S
C4067 C4051 1.349 . S
C4067 H4059 0.950 . S
C4067 C4065 1.327 . S
C4068 C4056 1.349 . S
C4068 H4062 0.950 . S
C4068 C4069 1.327 . S
C4069 H4063 0.950 . S
C4069 C4068 1.327 . S
C4069 C4073 1.429 . S
C4070 C4053 1.574 . S
C4070 H4064 0.949 . S
C4070 C4074 1.368 . S
C4071 C4052 1.429 . S
C4071 C4065 1.429 . S
C4071 C4072 1.523 . S
C4072 C4053 1.368 . S
C4072 C4066 1.368 . S
C4072 C4071 1.523 . S
C4073 C4057 1.429 . S
C4073 C4069 1.429 . S
C4073 C4074 1.523 . S
C4074 C4058 1.368 . S
C4074 C4070 1.368 . S
C4074 C4073 1.523 . S
H4075 C4050 0.950 . S
H4076 C4052 0.950 . S
H4077 C4053 0.949 . S
H4078 C4055 0.950 . S
H4079 C4057 0.950 . S
C4080 C4081 1.349 . S
C4080 C4082 1.327 . S
C4080 H4105 0.950 . S
C4081 C4080 1.349 . S
C4081 C4097 1.349 . S
C4082 C4080 1.327 . S
C4082 C4101 1.429 . S
C4082 H4106 0.950 . S
C4083 C4100 1.574 . S
C4083 C4102 1.368 . S
C4083 H4107 0.949 . S
H4084 C4088 0.949 . S
C4085 C4086 1.349 . S
C4085 C4087 1.327 . S
C4085 H4108 0.950 . S
C4086 C4085 1.349 . S
C4086 C4098 1.349 . S
C4087 C4085 1.327 . S
C4087 C4103 1.429 . S
C4087 H4109 0.950 . S
C4088 H4084 0.949 . S
C4088 C4096 1.574 . S
C4088 C4104 1.368 . S
H4089 C4097 0.950 . S
H4090 C4095 0.950 . S
H4091 C4096 0.949 . S
H4092 C4098 0.950 . S
H4093 C4099 0.950 . S
H4094 C4100 0.949 . S
C4095 H4090 0.950 . S
C4095 C4097 1.327 . S
C4095 C4101 1.429 . S
C4096 C4088 1.574 . S
C4096 H4091 0.949 . S
C4096 C4102 1.368 . S
C4097 C4081 1.349 . S
C4097 H4089 0.950 . S
C4097 C4095 1.327 . S
C4098 C4086 1.349 . S
C4098 H4092 0.950 . S
C4098 C4099 1.327 . S
C4099 H4093 0.950 . S
C4099 C4098 1.327 . S
C4099 C4103 1.429 . S
C4100 C4083 1.574 . S
C4100 H4094 0.949 . S
C4100 C4104 1.368 . S
C4101 C4082 1.429 . S
C4101 C4095 1.429 . S
C4101 C4102 1.523 . S
C4102 C4083 1.368 . S
C4102 C4096 1.368 . S
C4102 C4101 1.523 . S
C4103 C4087 1.429 . S
C4103 C4099 1.429 . S
C4103 C4104 1.523 . S
C4104 C4088 1.368 . S
C4104 C4100 1.368 . S
C4104 C4103 1.523 . S
H4105 C4080 0.950 . S
H4106 C4082 0.950 . S
H4107 C4083 0.949 . S
H4108 C4085 0.950 . S
H4109 C4087 0.950 . S
C4110 C4111 1.349 . S
C4110 C4112 1.327 . S
C4110 H4135 0.950 . S
C4111 C4110 1.349 . S
C4111 C4127 1.349 . S
C4112 C4110 1.327 . S
C4112 C4131 1.429 . S
C4112 H4136 0.950 . S
C4113 C4130 1.574 . S
C4113 C4132 1.368 . S
C4113 H4137 0.949 . S
H4114 C4118 0.949 . S
C4115 C4116 1.349 . S
C4115 C4117 1.327 . S
C4115 H4138 0.950 . S
C4116 C4115 1.349 . S
C4116 C4128 1.349 . S
C4117 C4115 1.327 . S
C4117 C4133 1.429 . S
C4117 H4139 0.950 . S
C4118 H4114 0.949 . S
C4118 C4126 1.574 . S
C4118 C4134 1.368 . S
H4119 C4127 0.950 . S
H4120 C4125 0.950 . S
H4121 C4126 0.949 . S
H4122 C4128 0.950 . S
H4123 C4129 0.950 . S
H4124 C4130 0.949 . S
C4125 H4120 0.950 . S
C4125 C4127 1.327 . S
C4125 C4131 1.429 . S
C4126 C4118 1.574 . S
C4126 H4121 0.949 . S
C4126 C4132 1.368 . S
C4127 C4111 1.349 . S
C4127 H4119 0.950 . S
C4127 C4125 1.327 . S
C4128 C4116 1.349 . S
C4128 H4122 0.950 . S
C4128 C4129 1.327 . S
C4129 H4123 0.950 . S
C4129 C4128 1.327 . S
C4129 C4133 1.429 . S
C4130 C4113 1.574 . S
C4130 H4124 0.949 . S
C4130 C4134 1.368 . S
C4131 C4112 1.429 . S
C4131 C4125 1.429 . S
C4131 C4132 1.523 . S
C4132 C4113 1.368 . S
C4132 C4126 1.368 . S
C4132 C4131 1.523 . S
C4133 C4117 1.429 . S
C4133 C4129 1.429 . S
C4133 C4134 1.523 . S
C4134 C4118 1.368 . S
C4134 C4130 1.368 . S
C4134 C4133 1.523 . S
H4135 C4110 0.950 . S
H4136 C4112 0.950 . S
H4137 C4113 0.949 . S
H4138 C4115 0.950 . S
H4139 C4117 0.950 . S
C4140 C4141 1.349 . S
C4140 C4142 1.327 . S
C4140 H4165 0.950 . S
C4141 C4140 1.349 . S
C4141 C4157 1.349 . S
C4142 C4140 1.327 . S
C4142 C4161 1.429 . S
C4142 H4166 0.950 . S
C4143 C4160 1.574 . S
C4143 C4162 1.368 . S
C4143 H4167 0.949 . S
H4144 C4148 0.949 . S
C4145 C4146 1.349 . S
C4145 C4147 1.327 1_554 S
C4145 H4168 0.950 . S
C4146 C4145 1.349 . S
C4146 C4158 1.349 1_554 S
C4147 C4145 1.327 1_556 S
C4147 C4163 1.429 . S
C4147 H4169 0.950 . S
C4148 H4144 0.949 . S
C4148 C4156 1.574 . S
C4148 C4164 1.368 . S
H4149 C4157 0.950 . S
H4150 C4155 0.950 . S
H4151 C4156 0.949 . S
H4152 C4158 0.950 1_455 S
H4153 C4159 0.950 . S
H4154 C4160 0.949 . S
C4155 H4150 0.950 . S
C4155 C4157 1.327 . S
C4155 C4161 1.429 . S
C4156 C4148 1.574 . S
C4156 H4151 0.949 . S
C4156 C4162 1.368 . S
C4157 C4141 1.349 . S
C4157 H4149 0.950 . S
C4157 C4155 1.327 . S
C4158 C4146 1.349 1_556 S
C4158 H4152 0.950 1_655 S
C4158 C4159 1.327 . S
C4159 H4153 0.950 . S
C4159 C4158 1.327 . S
C4159 C4163 1.429 . S
C4160 C4143 1.574 . S
C4160 H4154 0.949 . S
C4160 C4164 1.368 . S
C4161 C4142 1.429 . S
C4161 C4155 1.429 . S
C4161 C4162 1.523 . S
C4162 C4143 1.368 . S
C4162 C4156 1.368 . S
C4162 C4161 1.523 . S
C4163 C4147 1.429 . S
C4163 C4159 1.429 . S
C4163 C4164 1.523 . S
C4164 C4148 1.368 . S
C4164 C4160 1.368 . S
C4164 C4163 1.523 . S
H4165 C4140 0.950 . S
H4166 C4142 0.950 . S
H4167 C4143 0.949 . S
H4168 C4145 0.950 . S
H4169 C4147 0.950 . S
C4170 C4171 1.349 . S
C4170 C4172 1.327 . S
C4170 H4195 0.950 . S
C4171 C4170 1.349 . S
C4171 C4187 1.349 . S
C4172 C4170 1.327 . S
C4172 C4191 1.429 . S
C4172 H4196 0.950 . S
C4173 C4190 1.574 . S
C4173 C4192 1.368 . S
C4173 H4197 0.949 . S
H4174 C4178 0.949 . S
C4175 C4176 1.349 . S
C4175 C4177 1.327 . S
C4175 H4198 0.950 . S
C4176 C4175 1.349 . S
C4176 C4188 1.349 . S
C4177 C4175 1.327 . S
C4177 C4193 1.429 . S
C4177 H4199 0.950 . S
C4178 H4174 0.949 . S
C4178 C4186 1.574 . S
C4178 C4194 1.368 . S
H4179 C4187 0.950 . S
H4180 C4185 0.950 . S
H4181 C4186 0.949 . S
H4182 C4188 0.950 . S
H4183 C4189 0.950 . S
H4184 C4190 0.949 . S
C4185 H4180 0.950 . S
C4185 C4187 1.327 . S
C4185 C4191 1.429 . S
C4186 C4178 1.574 . S
C4186 H4181 0.949 . S
C4186 C4192 1.368 . S
C4187 C4171 1.349 . S
C4187 H4179 0.950 . S
C4187 C4185 1.327 . S
C4188 C4176 1.349 . S
C4188 H4182 0.950 . S
C4188 C4189 1.327 . S
C4189 H4183 0.950 . S
C4189 C4188 1.327 . S
C4189 C4193 1.429 . S
C4190 C4173 1.574 . S
C4190 H4184 0.949 . S
C4190 C4194 1.368 . S
C4191 C4172 1.429 . S
C4191 C4185 1.429 . S
C4191 C4192 1.523 . S
C4192 C4173 1.368 . S
C4192 C4186 1.368 . S
C4192 C4191 1.523 . S
C4193 C4177 1.429 . S
C4193 C4189 1.429 . S
C4193 C4194 1.523 . S
C4194 C4178 1.368 . S
C4194 C4190 1.368 . S
C4194 C4193 1.523 . S
H4195 C4170 0.950 . S
H4196 C4172 0.950 . S
H4197 C4173 0.949 . S
H4198 C4175 0.950 . S
H4199 C4177 0.950 . S
C4200 C4201 1.349 . S
C4200 C4202 1.327 . S
C4200 H4225 0.950 . S
C4201 C4200 1.349 . S
C4201 C4217 1.349 . S
C4202 C4200 1.327 . S
C4202 C4221 1.429 . S
C4202 H4226 0.950 . S
C4203 C4220 1.574 . S
C4203 C4222 1.368 . S
C4203 H4227 0.949 . S
H4204 C4208 0.949 . S
C4205 C4206 1.349 . S
C4205 C4207 1.327 . S
C4205 H4228 0.950 . S
C4206 C4205 1.349 . S
C4206 C4218 1.349 . S
C4207 C4205 1.327 . S
C4207 C4223 1.429 . S
C4207 H4229 0.950 . S
C4208 H4204 0.949 . S
C4208 C4216 1.574 . S
C4208 C4224 1.368 . S
H4209 C4217 0.950 . S
H4210 C4215 0.950 . S
H4211 C4216 0.949 . S
H4212 C4218 0.950 . S
H4213 C4219 0.950 . S
H4214 C4220 0.949 . S
C4215 H4210 0.950 . S
C4215 C4217 1.327 . S
C4215 C4221 1.429 . S
C4216 C4208 1.574 . S
C4216 H4211 0.949 . S
C4216 C4222 1.368 . S
C4217 C4201 1.349 . S
C4217 H4209 0.950 . S
C4217 C4215 1.327 . S
C4218 C4206 1.349 . S
C4218 H4212 0.950 . S
C4218 C4219 1.327 . S
C4219 H4213 0.950 . S
C4219 C4218 1.327 . S
C4219 C4223 1.429 . S
C4220 C4203 1.574 . S
C4220 H4214 0.949 . S
C4220 C4224 1.368 . S
C4221 C4202 1.429 . S
C4221 C4215 1.429 . S
C4221 C4222 1.523 . S
C4222 C4203 1.368 . S
C4222 C4216 1.368 . S
C4222 C4221 1.523 . S
C4223 C4207 1.429 . S
C4223 C4219 1.429 . S
C4223 C4224 1.523 . S
C4224 C4208 1.368 . S
C4224 C4220 1.368 . S
C4224 C4223 1.523 . S
H4225 C4200 0.950 . S
H4226 C4202 0.950 . S
H4227 C4203 0.949 . S
H4228 C4205 0.950 . S
H4229 C4207 0.950 . S
C4230 C4231 1.349 . S
C4230 C4232 1.327 . S
C4230 H4255 0.950 . S
C4231 C4230 1.349 . S
C4231 C4247 1.349 . S
C4232 C4230 1.327 . S
C4232 C4251 1.429 . S
C4232 H4256 0.950 . S
C4233 C4250 1.574 . S
C4233 C4252 1.368 . S
C4233 H4257 0.949 . S
H4234 C4238 0.949 . S
C4235 C4236 1.349 . S
C4235 C4237 1.327 . S
C4235 H4258 0.950 . S
C4236 C4235 1.349 . S
C4236 C4248 1.349 . S
C4237 C4235 1.327 . S
C4237 C4253 1.429 . S
C4237 H4259 0.950 . S
C4238 H4234 0.949 . S
C4238 C4246 1.574 . S
C4238 C4254 1.368 . S
H4239 C4247 0.950 . S
H4240 C4245 0.950 . S
H4241 C4246 0.949 . S
H4242 C4248 0.950 . S
H4243 C4249 0.950 . S
H4244 C4250 0.949 . S
C4245 H4240 0.950 . S
C4245 C4247 1.327 . S
C4245 C4251 1.429 . S
C4246 C4238 1.574 . S
C4246 H4241 0.949 . S
C4246 C4252 1.368 . S
C4247 C4231 1.349 . S
C4247 H4239 0.950 . S
C4247 C4245 1.327 . S
C4248 C4236 1.349 . S
C4248 H4242 0.950 . S
C4248 C4249 1.327 . S
C4249 H4243 0.950 . S
C4249 C4248 1.327 . S
C4249 C4253 1.429 . S
C4250 C4233 1.574 . S
C4250 H4244 0.949 . S
C4250 C4254 1.368 . S
C4251 C4232 1.429 . S
C4251 C4245 1.429 . S
C4251 C4252 1.523 . S
C4252 C4233 1.368 . S
C4252 C4246 1.368 . S
C4252 C4251 1.523 . S
C4253 C4237 1.429 . S
C4253 C4249 1.429 . S
C4253 C4254 1.523 . S
C4254 C4238 1.368 . S
C4254 C4250 1.368 . S
C4254 C4253 1.523 . S
H4255 C4230 0.950 . S
H4256 C4232 0.950 . S
H4257 C4233 0.949 . S
H4258 C4235 0.950 . S
H4259 C4237 0.950 . S
C4260 C4261 1.349 . S
C4260 C4262 1.327 . S
C4260 H4285 0.950 . S
C4261 C4260 1.349 . S
C4261 C4277 1.349 . S
C4262 C4260 1.327 . S
C4262 C4281 1.429 . S
C4262 H4286 0.950 . S
C4263 C4280 1.574 . S
C4263 C4282 1.368 . S
C4263 H4287 0.949 . S
H4264 C4268 0.949 . S
C4265 C4266 1.349 . S
C4265 C4267 1.327 . S
C4265 H4288 0.950 . S
C4266 C4265 1.349 . S
C4266 C4278 1.349 . S
C4267 C4265 1.327 . S
C4267 C4283 1.429 . S
C4267 H4289 0.950 . S
C4268 H4264 0.949 . S
C4268 C4276 1.574 . S
C4268 C4284 1.368 . S
H4269 C4277 0.950 . S
H4270 C4275 0.950 . S
H4271 C4276 0.949 . S
H4272 C4278 0.950 . S
H4273 C4279 0.950 . S
H4274 C4280 0.949 . S
C4275 H4270 0.950 . S
C4275 C4277 1.327 . S
C4275 C4281 1.429 . S
C4276 C4268 1.574 . S
C4276 H4271 0.949 . S
C4276 C4282 1.368 . S
C4277 C4261 1.349 . S
C4277 H4269 0.950 . S
C4277 C4275 1.327 . S
C4278 C4266 1.349 . S
C4278 H4272 0.950 . S
C4278 C4279 1.327 . S
C4279 H4273 0.950 . S
C4279 C4278 1.327 . S
C4279 C4283 1.429 . S
C4280 C4263 1.574 . S
C4280 H4274 0.949 . S
C4280 C4284 1.368 . S
C4281 C4262 1.429 . S
C4281 C4275 1.429 . S
C4281 C4282 1.523 . S
C4282 C4263 1.368 . S
C4282 C4276 1.368 . S
C4282 C4281 1.523 . S
C4283 C4267 1.429 . S
C4283 C4279 1.429 . S
C4283 C4284 1.523 . S
C4284 C4268 1.368 . S
C4284 C4280 1.368 . S
C4284 C4283 1.523 . S
H4285 C4260 0.950 . S
H4286 C4262 0.950 . S
H4287 C4263 0.949 . S
H4288 C4265 0.950 . S
H4289 C4267 0.950 . S
C4290 C4291 1.349 . S
C4290 C4292 1.327 . S
C4290 H4315 0.950 . S
C4291 C4290 1.349 . S
C4291 C4307 1.349 . S
C4292 C4290 1.327 . S
C4292 C4311 1.429 . S
C4292 H4316 0.950 . S
C4293 C4310 1.574 . S
C4293 C4312 1.368 . S
C4293 H4317 0.949 . S
H4294 C4298 0.949 . S
C4295 C4296 1.349 . S
C4295 C4297 1.327 . S
C4295 H4318 0.950 . S
C4296 C4295 1.349 . S
C4296 C4308 1.349 . S
C4297 C4295 1.327 . S
C4297 C4313 1.429 . S
C4297 H4319 0.950 . S
C4298 H4294 0.949 . S
C4298 C4306 1.574 . S
C4298 C4314 1.368 . S
H4299 C4307 0.950 . S
H4300 C4305 0.950 . S
H4301 C4306 0.949 . S
H4302 C4308 0.950 . S
H4303 C4309 0.950 . S
H4304 C4310 0.949 . S
C4305 H4300 0.950 . S
C4305 C4307 1.327 . S
C4305 C4311 1.429 . S
C4306 C4298 1.574 . S
C4306 H4301 0.949 . S
C4306 C4312 1.368 . S
C4307 C4291 1.349 . S
C4307 H4299 0.950 . S
C4307 C4305 1.327 . S
C4308 C4296 1.349 . S
C4308 H4302 0.950 . S
C4308 C4309 1.327 . S
C4309 H4303 0.950 . S
C4309 C4308 1.327 . S
C4309 C4313 1.429 . S
C4310 C4293 1.574 . S
C4310 H4304 0.949 . S
C4310 C4314 1.368 . S
C4311 C4292 1.429 . S
C4311 C4305 1.429 . S
C4311 C4312 1.523 . S
C4312 C4293 1.368 . S
C4312 C4306 1.368 . S
C4312 C4311 1.523 . S
C4313 C4297 1.429 . S
C4313 C4309 1.429 . S
C4313 C4314 1.523 . S
C4314 C4298 1.368 . S
C4314 C4310 1.368 . S
C4314 C4313 1.523 . S
H4315 C4290 0.950 . S
H4316 C4292 0.950 . S
H4317 C4293 0.949 . S
H4318 C4295 0.950 . S
H4319 C4297 0.950 . S
C4320 C4321 1.349 . S
C4320 C4322 1.327 . S
C4320 H4345 0.950 . S
C4321 C4320 1.349 . S
C4321 C4337 1.349 . S
C4322 C4320 1.327 . S
C4322 C4341 1.429 . S
C4322 H4346 0.950 . S
C4323 C4340 1.574 . S
C4323 C4342 1.368 . S
C4323 H4347 0.949 . S
H4324 C4328 0.949 . S
C4325 C4326 1.349 . S
C4325 C4327 1.327 . S
C4325 H4348 0.950 . S
C4326 C4325 1.349 . S
C4326 C4338 1.349 . S
C4327 C4325 1.327 . S
C4327 C4343 1.429 . S
C4327 H4349 0.950 . S
C4328 H4324 0.949 . S
C4328 C4336 1.574 . S
C4328 C4344 1.368 . S
H4329 C4337 0.950 . S
H4330 C4335 0.950 . S
H4331 C4336 0.949 . S
H4332 C4338 0.950 . S
H4333 C4339 0.950 . S
H4334 C4340 0.949 . S
C4335 H4330 0.950 . S
C4335 C4337 1.327 . S
C4335 C4341 1.429 . S
C4336 C4328 1.574 . S
C4336 H4331 0.949 . S
C4336 C4342 1.368 . S
C4337 C4321 1.349 . S
C4337 H4329 0.950 . S
C4337 C4335 1.327 . S
C4338 C4326 1.349 . S
C4338 H4332 0.950 . S
C4338 C4339 1.327 . S
C4339 H4333 0.950 . S
C4339 C4338 1.327 . S
C4339 C4343 1.429 . S
C4340 C4323 1.574 . S
C4340 H4334 0.949 . S
C4340 C4344 1.368 . S
C4341 C4322 1.429 . S
C4341 C4335 1.429 . S
C4341 C4342 1.523 . S
C4342 C4323 1.368 . S
C4342 C4336 1.368 . S
C4342 C4341 1.523 . S
C4343 C4327 1.429 . S
C4343 C4339 1.429 . S
C4343 C4344 1.523 . S
C4344 C4328 1.368 . S
C4344 C4340 1.368 . S
C4344 C4343 1.523 . S
H4345 C4320 0.950 . S
H4346 C4322 0.950 . S
H4347 C4323 0.949 . S
H4348 C4325 0.950 . S
H4349 C4327 0.950 . S
C4350 C4351 1.349 . S
C4350 C4352 1.327 . S
C4350 H4375 0.950 . S
C4351 C4350 1.349 . S
C4351 C4367 1.349 . S
C4352 C4350 1.327 . S
C4352 C4371 1.429 . S
C4352 H4376 0.950 . S
C4353 C4370 1.574 . S
C4353 C4372 1.368 . S
C4353 H4377 0.949 . S
H4354 C4358 0.949 . S
C4355 C4356 1.349 . S
C4355 C4357 1.327 . S
C4355 H4378 0.950 1_565 S
C4356 C4355 1.349 . S
C4356 C4368 1.349 . S
C4357 C4355 1.327 . S
C4357 C4373 1.429 . S
C4357 H4379 0.950 . S
C4358 H4354 0.949 . S
C4358 C4366 1.574 . S
C4358 C4374 1.368 . S
H4359 C4367 0.950 . S
H4360 C4365 0.950 . S
H4361 C4366 0.949 . S
H4362 C4368 0.950 . S
H4363 C4369 0.950 . S
H4364 C4370 0.949 . S
C4365 H4360 0.950 . S
C4365 C4367 1.327 . S
C4365 C4371 1.429 . S
C4366 C4358 1.574 . S
C4366 H4361 0.949 . S
C4366 C4372 1.368 . S
C4367 C4351 1.349 . S
C4367 H4359 0.950 . S
C4367 C4365 1.327 . S
C4368 C4356 1.349 . S
C4368 H4362 0.950 . S
C4368 C4369 1.327 . S
C4369 H4363 0.950 . S
C4369 C4368 1.327 . S
C4369 C4373 1.429 . S
C4370 C4353 1.574 . S
C4370 H4364 0.949 . S
C4370 C4374 1.368 . S
C4371 C4352 1.429 . S
C4371 C4365 1.429 . S
C4371 C4372 1.523 . S
C4372 C4353 1.368 . S
C4372 C4366 1.368 . S
C4372 C4371 1.523 . S
C4373 C4357 1.429 . S
C4373 C4369 1.429 . S
C4373 C4374 1.523 . S
C4374 C4358 1.368 . S
C4374 C4370 1.368 . S
C4374 C4373 1.523 . S
H4375 C4350 0.950 . S
H4376 C4352 0.950 . S
H4377 C4353 0.949 . S
H4378 C4355 0.950 1_545 S
H4379 C4357 0.950 . S
C4380 C4381 1.349 . S
C4380 C4382 1.327 . S
C4380 H4405 0.950 . S
C4381 C4380 1.349 . S
C4381 C4397 1.349 . S
C4382 C4380 1.327 . S
C4382 C4401 1.429 . S
C4382 H4406 0.950 . S
C4383 C4400 1.574 . S
C4383 C4402 1.368 . S
C4383 H4407 0.949 . S
H4384 C4388 0.949 . S
C4385 C4386 1.349 . S
C4385 C4387 1.327 . S
C4385 H4408 0.950 . S
C4386 C4385 1.349 . S
C4386 C4398 1.349 . S
C4387 C4385 1.327 . S
C4387 C4403 1.429 . S
C4387 H4409 0.950 . S
C4388 H4384 0.949 . S
C4388 C4396 1.574 . S
C4388 C4404 1.368 . S
H4389 C4397 0.950 . S
H4390 C4395 0.950 . S
H4391 C4396 0.949 . S
H4392 C4398 0.950 . S
H4393 C4399 0.950 . S
H4394 C4400 0.949 . S
C4395 H4390 0.950 . S
C4395 C4397 1.327 . S
C4395 C4401 1.429 . S
C4396 C4388 1.574 . S
C4396 H4391 0.949 . S
C4396 C4402 1.368 . S
C4397 C4381 1.349 . S
C4397 H4389 0.950 . S
C4397 C4395 1.327 . S
C4398 C4386 1.349 . S
C4398 H4392 0.950 . S
C4398 C4399 1.327 . S
C4399 H4393 0.950 . S
C4399 C4398 1.327 . S
C4399 C4403 1.429 . S
C4400 C4383 1.574 . S
C4400 H4394 0.949 . S
C4400 C4404 1.368 . S
C4401 C4382 1.429 . S
C4401 C4395 1.429 . S
C4401 C4402 1.523 . S
C4402 C4383 1.368 . S
C4402 C4396 1.368 . S
C4402 C4401 1.523 . S
C4403 C4387 1.429 . S
C4403 C4399 1.429 . S
C4403 C4404 1.523 . S
C4404 C4388 1.368 . S
C4404 C4400 1.368 . S
C4404 C4403 1.523 . S
H4405 C4380 0.950 . S
H4406 C4382 0.950 . S
H4407 C4383 0.949 . S
H4408 C4385 0.950 . S
H4409 C4387 0.950 . S
C4410 C4411 1.349 . S
C4410 C4412 1.327 . S
C4410 H4435 0.950 . S
C4411 C4410 1.349 . S
C4411 C4427 1.349 . S
C4412 C4410 1.327 . S
C4412 C4431 1.429 . S
C4412 H4436 0.950 . S
C4413 C4430 1.574 . S
C4413 C4432 1.368 . S
C4413 H4437 0.949 . S
H4414 C4418 0.949 . S
C4415 C4416 1.349 . S
C4415 C4417 1.327 . S
C4415 H4438 0.950 . S
C4416 C4415 1.349 . S
C4416 C4428 1.349 . S
C4417 C4415 1.327 . S
C4417 C4433 1.429 . S
C4417 H4439 0.950 . S
C4418 H4414 0.949 . S
C4418 C4426 1.574 . S
C4418 C4434 1.368 . S
H4419 C4427 0.950 . S
H4420 C4425 0.950 . S
H4421 C4426 0.949 . S
H4422 C4428 0.950 . S
H4423 C4429 0.950 . S
H4424 C4430 0.949 . S
C4425 H4420 0.950 . S
C4425 C4427 1.327 . S
C4425 C4431 1.429 . S
C4426 C4418 1.574 . S
C4426 H4421 0.949 . S
C4426 C4432 1.368 . S
C4427 C4411 1.349 . S
C4427 H4419 0.950 . S
C4427 C4425 1.327 . S
C4428 C4416 1.349 . S
C4428 H4422 0.950 . S
C4428 C4429 1.327 . S
C4429 H4423 0.950 . S
C4429 C4428 1.327 . S
C4429 C4433 1.429 . S
C4430 C4413 1.574 . S
C4430 H4424 0.949 . S
C4430 C4434 1.368 . S
C4431 C4412 1.429 . S
C4431 C4425 1.429 . S
C4431 C4432 1.523 . S
C4432 C4413 1.368 . S
C4432 C4426 1.368 . S
C4432 C4431 1.523 . S
C4433 C4417 1.429 . S
C4433 C4429 1.429 . S
C4433 C4434 1.523 . S
C4434 C4418 1.368 . S
C4434 C4430 1.368 . S
C4434 C4433 1.523 . S
H4435 C4410 0.950 . S
H4436 C4412 0.950 . S
H4437 C4413 0.949 . S
H4438 C4415 0.950 . S
H4439 C4417 0.950 . S
C4440 C4441 1.349 . S
C4440 C4442 1.327 . S
C4440 H4465 0.950 . S
C4441 C4440 1.349 . S
C4441 C4457 1.349 . S
C4442 C4440 1.327 . S
C4442 C4461 1.429 . S
C4442 H4466 0.950 . S
C4443 C4460 1.574 . S
C4443 C4462 1.368 . S
C4443 H4467 0.949 . S
H4444 C4448 0.949 . S
C4445 C4446 1.349 . S
C4445 C4447 1.327 . S
C4445 H4468 0.950 . S
C4446 C4445 1.349 . S
C4446 C4458 1.349 . S
C4447 C4445 1.327 . S
C4447 C4463 1.429 . S
C4447 H4469 0.950 . S
C4448 H4444 0.949 . S
C4448 C4456 1.574 . S
C4448 C4464 1.368 . S
H4449 C4457 0.950 . S
H4450 C4455 0.950 . S
H4451 C4456 0.949 . S
H4452 C4458 0.950 . S
H4453 C4459 0.950 . S
H4454 C4460 0.949 . S
C4455 H4450 0.950 . S
C4455 C4457 1.327 . S
C4455 C4461 1.429 . S
C4456 C4448 1.574 . S
C4456 H4451 0.949 . S
C4456 C4462 1.368 . S
C4457 C4441 1.349 . S
C4457 H4449 0.950 . S
C4457 C4455 1.327 . S
C4458 C4446 1.349 . S
C4458 H4452 0.950 . S
C4458 C4459 1.327 . S
C4459 H4453 0.950 . S
C4459 C4458 1.327 . S
C4459 C4463 1.429 . S
C4460 C4443 1.574 . S
C4460 H4454 0.949 . S
C4460 C4464 1.368 . S
C4461 C4442 1.429 . S
C4461 C4455 1.429 . S
C4461 C4462 1.523 . S
C4462 C4443 1.368 . S
C4462 C4456 1.368 . S
C4462 C4461 1.523 . S
C4463 C4447 1.429 . S
C4463 C4459 1.429 . S
C4463 C4464 1.523 . S
C4464 C4448 1.368 . S
C4464 C4460 1.368 . S
C4464 C4463 1.523 . S
H4465 C4440 0.950 . S
H4466 C4442 0.950 . S
H4467 C4443 0.949 . S
H4468 C4445 0.950 . S
H4469 C4447 0.950 . S
C4470 C4471 1.349 . S
C4470 C4472 1.327 . S
C4470 H4495 0.950 . S
C4471 C4470 1.349 . S
C4471 C4487 1.349 . S
C4472 C4470 1.327 . S
C4472 C4491 1.429 . S
C4472 H4496 0.950 . S
C4473 C4490 1.574 . S
C4473 C4492 1.368 . S
C4473 H4497 0.949 . S
H4474 C4478 0.949 . S
C4475 C4476 1.349 . S
C4475 C4477 1.327 . S
C4475 H4498 0.950 . S
C4476 C4475 1.349 . S
C4476 C4488 1.349 . S
C4477 C4475 1.327 . S
C4477 C4493 1.429 . S
C4477 H4499 0.950 . S
C4478 H4474 0.949 . S
C4478 C4486 1.574 . S
C4478 C4494 1.368 . S
H4479 C4487 0.950 . S
H4480 C4485 0.950 . S
H4481 C4486 0.949 . S
H4482 C4488 0.950 . S
H4483 C4489 0.950 . S
H4484 C4490 0.949 . S
C4485 H4480 0.950 . S
C4485 C4487 1.327 . S
C4485 C4491 1.429 . S
C4486 C4478 1.574 . S
C4486 H4481 0.949 . S
C4486 C4492 1.368 . S
C4487 C4471 1.349 . S
C4487 H4479 0.950 . S
C4487 C4485 1.327 . S
C4488 C4476 1.349 . S
C4488 H4482 0.950 . S
C4488 C4489 1.327 . S
C4489 H4483 0.950 . S
C4489 C4488 1.327 . S
C4489 C4493 1.429 . S
C4490 C4473 1.574 . S
C4490 H4484 0.949 . S
C4490 C4494 1.368 . S
C4491 C4472 1.429 . S
C4491 C4485 1.429 . S
C4491 C4492 1.523 . S
C4492 C4473 1.368 . S
C4492 C4486 1.368 . S
C4492 C4491 1.523 . S
C4493 C4477 1.429 . S
C4493 C4489 1.429 . S
C4493 C4494 1.523 . S
C4494 C4478 1.368 . S
C4494 C4490 1.368 . S
C4494 C4493 1.523 . S
H4495 C4470 0.950 . S
H4496 C4472 0.950 . S
H4497 C4473 0.949 . S
H4498 C4475 0.950 . S
H4499 C4477 0.950 . S
C4500 C4501 1.349 . S
C4500 C4502 1.327 . S
C4500 H4525 0.950 . S
C4501 C4500 1.349 . S
C4501 C4517 1.349 . S
C4502 C4500 1.327 . S
C4502 C4521 1.429 . S
C4502 H4526 0.950 . S
C4503 C4520 1.574 . S
C4503 C4522 1.368 . S
C4503 H4527 0.949 . S
H4504 C4508 0.949 . S
C4505 C4506 1.349 . S
C4505 C4507 1.327 . S
C4505 H4528 0.950 . S
C4506 C4505 1.349 . S
C4506 C4518 1.349 . S
C4507 C4505 1.327 . S
C4507 C4523 1.429 . S
C4507 H4529 0.950 . S
C4508 H4504 0.949 . S
C4508 C4516 1.574 . S
C4508 C4524 1.368 . S
H4509 C4517 0.950 . S
H4510 C4515 0.950 . S
H4511 C4516 0.949 . S
H4512 C4518 0.950 . S
H4513 C4519 0.950 . S
H4514 C4520 0.949 . S
C4515 H4510 0.950 . S
C4515 C4517 1.327 . S
C4515 C4521 1.429 . S
C4516 C4508 1.574 . S
C4516 H4511 0.949 . S
C4516 C4522 1.368 . S
C4517 C4501 1.349 . S
C4517 H4509 0.950 . S
C4517 C4515 1.327 . S
C4518 C4506 1.349 . S
C4518 H4512 0.950 . S
C4518 C4519 1.327 . S
C4519 H4513 0.950 . S
C4519 C4518 1.327 . S
C4519 C4523 1.429 . S
C4520 C4503 1.574 . S
C4520 H4514 0.949 . S
C4520 C4524 1.368 . S
C4521 C4502 1.429 . S
C4521 C4515 1.429 . S
C4521 C4522 1.523 . S
C4522 C4503 1.368 . S
C4522 C4516 1.368 . S
C4522 C4521 1.523 . S
C4523 C4507 1.429 . S
C4523 C4519 1.429 . S
C4523 C4524 1.523 . S
C4524 C4508 1.368 . S
C4524 C4520 1.368 . S
C4524 C4523 1.523 . S
H4525 C4500 0.950 . S
H4526 C4502 0.950 . S
H4527 C4503 0.949 . S
H4528 C4505 0.950 . S
H4529 C4507 0.950 . S
C4530 C4531 1.349 . S
C4530 C4532 1.327 . S
C4530 H4555 0.950 . S
C4531 C4530 1.349 . S
C4531 C4547 1.349 . S
C4532 C4530 1.327 . S
C4532 C4551 1.429 . S
C4532 H4556 0.950 . S
C4533 C4550 1.574 . S
C4533 C4552 1.368 . S
C4533 H4557 0.949 . S
H4534 C4538 0.949 . S
C4535 C4536 1.349 . S
C4535 C4537 1.327 . S
C4535 H4558 0.950 . S
C4536 C4535 1.349 . S
C4536 C4548 1.349 . S
C4537 C4535 1.327 . S
C4537 C4553 1.429 . S
C4537 H4559 0.950 . S
C4538 H4534 0.949 . S
C4538 C4546 1.574 . S
C4538 C4554 1.368 . S
H4539 C4547 0.950 . S
H4540 C4545 0.950 . S
H4541 C4546 0.949 . S
H4542 C4548 0.950 . S
H4543 C4549 0.950 . S
H4544 C4550 0.949 . S
C4545 H4540 0.950 . S
C4545 C4547 1.327 . S
C4545 C4551 1.429 . S
C4546 C4538 1.574 . S
C4546 H4541 0.949 . S
C4546 C4552 1.368 . S
C4547 C4531 1.349 . S
C4547 H4539 0.950 . S
C4547 C4545 1.327 . S
C4548 C4536 1.349 . S
C4548 H4542 0.950 . S
C4548 C4549 1.327 . S
C4549 H4543 0.950 . S
C4549 C4548 1.327 . S
C4549 C4553 1.429 . S
C4550 C4533 1.574 . S
C4550 H4544 0.949 . S
C4550 C4554 1.368 . S
C4551 C4532 1.429 . S
C4551 C4545 1.429 . S
C4551 C4552 1.523 . S
C4552 C4533 1.368 . S
C4552 C4546 1.368 . S
C4552 C4551 1.523 . S
C4553 C4537 1.429 . S
C4553 C4549 1.429 . S
C4553 C4554 1.523 . S
C4554 C4538 1.368 . S
C4554 C4550 1.368 . S
C4554 C4553 1.523 . S
H4555 C4530 0.950 . S
H4556 C4532 0.950 . S
H4557 C4533 0.949 . S
H4558 C4535 0.950 . S
H4559 C4537 0.950 . S
C1681 C106 2.304 . S
C1686 C392 2.350 . S
C1711 C65 1.789 . S
C1716 C494 1.770 . S
C1741 C79 2.113 . S
C1746 C560 2.143 . S
C1776 C646 1.225 . S
C1771 C90 1.286 . S
C1801 C21 1.330 . S
C1806 C730 1.264 . S
C1836 C812 1.721 . S
C1831 C35 1.701 . S
C1866 C914 1.842 . S
C1861 C50 1.862 . S
C1891 C6 1.899 . S
C1896 C980 1.946 . S
C1926 C410 1.767 . S
C1921 C232 1.792 . S
C1951 C245 0.865 . S
C1956 C478 0.852 . S
C1986 C578 1.129 . S
C1981 C274 1.142 . S
C2016 C644 1.599 . S
C2011 C175 1.551 1_556 S
C2041 C231 1.396 . S
C2046 C728 1.422 . S
C2076 C830 1.032 . S
C2071 C246 1.042 . S
C2106 C898 0.761 . S
C2101 C273 0.764 . S
C2136 C998 1.672 . S
C2131 C176 1.695 . S
C2166 C394 0.914 . S
C2161 C160 0.918 . S
C2191 C289 1.662 . S
C2196 C1082 1.642 . S
C2226 C1150 1.321 . S
C2221 C328 1.343 . S
C2256 C1232 0.978 . S
C2251 C317 0.974 . S
C2281 C118 0.884 . S
C2286 C982 0.885 . S
C2311 C132 1.343 . S
C2316 C562 1.321 . S
C2341 C331 1.751 . S
C2346 C1334 1.728 . S
C2376 C1400 1.054 . S
C2371 C303 1.046 . S
C2406 C403 1.935 . S
C2401 C63 1.925 . S
C2436 C1407 2.242 . S
C2431 C107 2.213 . S
C2461 C92 1.967 . S
C2466 C571 2.006 . S
C2491 C78 1.933 . S
C2496 C1329 1.776 . S
C2526 C741 1.776 . S
C2521 C8 1.933 . S
C2551 C51 1.967 . S
C2556 C1159 2.006 . S
C2586 C903 2.241 . S
C2581 C37 2.213 . S
C2616 C1495 1.935 . S
C2611 C20 1.925 . S
C2646 C399 1.604 1_556 S
C2641 C147 1.606 . S
C2676 C1413 1.051 . S
C2671 C316 1.116 . S
C2701 C119 1.091 . S
C2706 C567 1.124 . S
C2731 C288 1.802 . S
C2736 C1327 1.816 . S
C2761 C148 1.802 . S
C2766 C739 1.817 . S
C2796 C1155 1.124 . S
C2791 C315 1.091 . S
C2821 C120 1.116 . S
C2826 C909 1.050 . S
C2851 C287 1.606 . S
C2856 C1491 1.604 . S
C2881 C188 0.785 . S
C2886 C405 0.779 . S
C2911 C177 2.024 . S
C2916 C1071 2.022 . S
C2941 C258 1.468 . S
C2946 C825 1.400 . S
C2971 C247 1.033 . S
C2976 C1243 1.040 . S
C3006 C1497 0.779 . S
C3001 C272 0.716 1_565 S
C3031 C216 1.216 . S
C3036 C573 1.174 . S
C3066 C651 2.022 . S
C3061 C261 2.024 . S
C3096 C487 1.040 . S
C3091 C205 1.033 . S
C3121 C76 1.899 . S
C3126 C1568 1.946 . S
C3156 C1418 1.842 . S
C3151 C93 1.862 . S
C3181 C105 1.705 1_455 S
C3186 C1652 1.721 . S
C3211 C62 1.330 1_655 S
C3216 C1318 1.264 . S
C3241 C49 1.286 . S
C3246 C1066 1.225 . S
C3276 C1148 2.143 . S
C3271 C9 2.113 1_655 S
C3306 C1250 1.769 . S
C3301 C22 1.789 . S
C3336 C1484 2.350 . S
C3331 C36 2.304 . S
C3366 C1586 1.672 . S
C3361 C260 1.695 . S
C3391 C189 0.764 1_556 S
C3396 C1402 0.761 . S
C3426 C1670 1.032 . S
C3421 C204 1.042 . S
C3456 C1316 1.422 . S
C3451 C217 1.396 . S
C3486 C1064 1.572 1_556 S
C3481 C259 1.563 . S
C3511 C190 1.142 . S
C3516 C1166 1.129 . S
C3546 C1234 0.852 . S
C3541 C203 0.865 . S
C3571 C218 1.792 . S
C3576 C1502 1.767 . S
C3606 C1570 0.885 . S
C3601 C314 0.883 . S
C3631 C135 1.751 . S
C3636 C746 1.728 . S
C3666 C814 1.282 . S
C3661 C146 1.288 . S
C3696 C896 1.053 . S
C3691 C163 1.045 . S
C3726 C1486 0.915 . S
C3721 C300 0.918 . S
C3751 C286 1.288 . S
C3756 C1654 1.282 . S
C3786 C662 1.642 . S
C3781 C149 1.661 . S
C3816 C476 0.978 . S
C3811 C121 0.973 . S
C3841 C91 1.912 . S
C3846 C1579 1.921 . S
C3876 C483 1.850 . S
C3871 C77 1.772 . S
C3901 C64 1.949 . S
C3906 C1663 1.991 . S
C3931 C104 1.545 . S
C3936 C657 1.460 . S
C3961 C34 1.545 . S
C3966 C1077 1.460 . S
C3996 C823 1.991 . S
C3991 C23 1.949 . S
C4021 C7 1.772 . S
C4026 C1239 1.850 . S
C4051 C48 1.912 . S
C4056 C991 1.921 . S
C4086 C1575 1.598 . S
C4081 C329 1.605 . S
C4111 C162 1.150 . S
C4116 C489 1.073 . S
C4146 C1659 1.131 1_655 S
C4141 C301 1.101 . S
C4171 C134 1.822 . S
C4176 C655 1.838 . S
C4201 C330 1.822 . S
C4206 C1075 1.838 . S
C4236 C819 1.131 . S
C4231 C161 1.108 . S
C4261 C302 1.151 . S
C4266 C1245 1.078 . S
C4296 C987 1.598 . S
C4291 C133 1.605 . S
C4326 C1581 0.959 . S
C4321 C244 0.999 . S
C4356 C735 1.972 1_565 S
C4351 C219 1.963 . S
C4381 C230 1.216 . S
C4386 C1161 1.174 . S
C4416 C907 1.004 . S
C4411 C191 0.997 . S
C4441 C202 0.999 . S
C4446 C993 0.959 . S
C4471 C174 1.468 . S
C4476 C1665 1.399 . S
C4506 C1323 1.972 . S
C4501 C233 1.963 . S
C4536 C1411 1.004 . S
C4531 C275 0.997 . S
