# Generated by pormake.
# Topology ocu, (6,8)-cn, num edge types: 1
# Building blocks:
#     Node 0, Type 0, BuildingBlock: NUHQIS_clean_sbu_0, # of connection points: 6
#     Node 1, Type 0, BuildingBlock: NUHQIS_clean_sbu_0, # of connection points: 6
#     Node 2, Type 0, BuildingBlock: NUHQIS_clean_sbu_0, # of connection points: 6
#     Node 3, Type 0, BuildingBlock: NUHQIS_clean_sbu_0, # of connection points: 6
#     Node 4, Type 0, BuildingBlock: NUHQIS_clean_sbu_0, # of connection points: 6
#     Node 5, Type 0, BuildingBlock: NUHQIS_clean_sbu_0, # of connection points: 6
#     Node 6, Type 0, BuildingBlock: NUHQIS_clean_sbu_0, # of connection points: 6
#     Node 7, Type 0, BuildingBlock: NUHQIS_clean_sbu_0, # of connection points: 6
#     Node 8, Type 1, BuildingBlock: AJUNOK_clean_sbu_0, # of connection points: 8
#     Node 9, Type 1, BuildingBlock: AJUNOK_clean_sbu_0, # of connection points: 8
#     Node 10, Type 1, BuildingBlock: AJUNOK_clean_sbu_0, # of connection points: 8
#     Node 11, Type 1, BuildingBlock: AJUNOK_clean_sbu_0, # of connection points: 8
#     Node 12, Type 1, BuildingBlock: AJUNOK_clean_sbu_0, # of connection points: 8
#     Node 13, Type 1, BuildingBlock: AJUNOK_clean_sbu_0, # of connection points: 8
#     Edge 14, Type (0, 1), BuildingBlock: UVAHIK_clean_linker_0, # of connection points: 2
#     Edge 15, Type (0, 1), BuildingBlock: UVAHIK_clean_linker_0, # of connection points: 2
#     Edge 16, Type (0, 1), BuildingBlock: UVAHIK_clean_linker_0, # of connection points: 2
#     Edge 17, Type (0, 1), BuildingBlock: UVAHIK_clean_linker_0, # of connection points: 2
#     Edge 18, Type (0, 1), BuildingBlock: UVAHIK_clean_linker_0, # of connection points: 2
#     Edge 19, Type (0, 1), BuildingBlock: UVAHIK_clean_linker_0, # of connection points: 2
#     Edge 20, Type (0, 1), BuildingBlock: UVAHIK_clean_linker_0, # of connection points: 2
#     Edge 21, Type (0, 1), BuildingBlock: UVAHIK_clean_linker_0, # of connection points: 2
#     Edge 22, Type (0, 1), BuildingBlock: UVAHIK_clean_linker_0, # of connection points: 2
#     Edge 23, Type (0, 1), BuildingBlock: UVAHIK_clean_linker_0, # of connection points: 2
#     Edge 24, Type (0, 1), BuildingBlock: UVAHIK_clean_linker_0, # of connection points: 2
#     Edge 25, Type (0, 1), BuildingBlock: UVAHIK_clean_linker_0, # of connection points: 2
#     Edge 26, Type (0, 1), BuildingBlock: UVAHIK_clean_linker_0, # of connection points: 2
#     Edge 27, Type (0, 1), BuildingBlock: UVAHIK_clean_linker_0, # of connection points: 2
#     Edge 28, Type (0, 1), BuildingBlock: UVAHIK_clean_linker_0, # of connection points: 2
#     Edge 29, Type (0, 1), BuildingBlock: UVAHIK_clean_linker_0, # of connection points: 2
#     Edge 30, Type (0, 1), BuildingBlock: UVAHIK_clean_linker_0, # of connection points: 2
#     Edge 31, Type (0, 1), BuildingBlock: UVAHIK_clean_linker_0, # of connection points: 2
#     Edge 32, Type (0, 1), BuildingBlock: UVAHIK_clean_linker_0, # of connection points: 2
#     Edge 33, Type (0, 1), BuildingBlock: UVAHIK_clean_linker_0, # of connection points: 2
#     Edge 34, Type (0, 1), BuildingBlock: UVAHIK_clean_linker_0, # of connection points: 2
#     Edge 35, Type (0, 1), BuildingBlock: UVAHIK_clean_linker_0, # of connection points: 2
#     Edge 36, Type (0, 1), BuildingBlock: UVAHIK_clean_linker_0, # of connection points: 2
#     Edge 37, Type (0, 1), BuildingBlock: UVAHIK_clean_linker_0, # of connection points: 2
#     Edge 38, Type (0, 1), BuildingBlock: UVAHIK_clean_linker_0, # of connection points: 2
#     Edge 39, Type (0, 1), BuildingBlock: UVAHIK_clean_linker_0, # of connection points: 2
#     Edge 40, Type (0, 1), BuildingBlock: UVAHIK_clean_linker_0, # of connection points: 2
#     Edge 41, Type (0, 1), BuildingBlock: UVAHIK_clean_linker_0, # of connection points: 2
#     Edge 42, Type (0, 1), BuildingBlock: UVAHIK_clean_linker_0, # of connection points: 2
#     Edge 43, Type (0, 1), BuildingBlock: UVAHIK_clean_linker_0, # of connection points: 2
#     Edge 44, Type (0, 1), BuildingBlock: UVAHIK_clean_linker_0, # of connection points: 2
#     Edge 45, Type (0, 1), BuildingBlock: UVAHIK_clean_linker_0, # of connection points: 2
#     Edge 46, Type (0, 1), BuildingBlock: UVAHIK_clean_linker_0, # of connection points: 2
#     Edge 47, Type (0, 1), BuildingBlock: UVAHIK_clean_linker_0, # of connection points: 2
#     Edge 48, Type (0, 1), BuildingBlock: UVAHIK_clean_linker_0, # of connection points: 2
#     Edge 49, Type (0, 1), BuildingBlock: UVAHIK_clean_linker_0, # of connection points: 2
#     Edge 50, Type (0, 1), BuildingBlock: UVAHIK_clean_linker_0, # of connection points: 2
#     Edge 51, Type (0, 1), BuildingBlock: UVAHIK_clean_linker_0, # of connection points: 2
#     Edge 52, Type (0, 1), BuildingBlock: UVAHIK_clean_linker_0, # of connection points: 2
#     Edge 53, Type (0, 1), BuildingBlock: UVAHIK_clean_linker_0, # of connection points: 2
#     Edge 54, Type (0, 1), BuildingBlock: UVAHIK_clean_linker_0, # of connection points: 2
#     Edge 55, Type (0, 1), BuildingBlock: UVAHIK_clean_linker_0, # of connection points: 2
#     Edge 56, Type (0, 1), BuildingBlock: UVAHIK_clean_linker_0, # of connection points: 2
#     Edge 57, Type (0, 1), BuildingBlock: UVAHIK_clean_linker_0, # of connection points: 2
#     Edge 58, Type (0, 1), BuildingBlock: UVAHIK_clean_linker_0, # of connection points: 2
#     Edge 59, Type (0, 1), BuildingBlock: UVAHIK_clean_linker_0, # of connection points: 2
#     Edge 60, Type (0, 1), BuildingBlock: UVAHIK_clean_linker_0, # of connection points: 2
#     Edge 61, Type (0, 1), BuildingBlock: UVAHIK_clean_linker_0, # of connection points: 2
# Relax obj value: 0.177
# Max RMSD: 0.271
# Mean RMSD: 0.174
data_MOF--net-ocu--node1-NUHQIS_clean_sbu_0--node2-AJUNOK_clean_sbu_0--edge1-UVAHIK_clean_linker_0
_symmetry_space_group_name_H-M    P1
_symmetry_Int_Tables_number       1
_symmetry_cell_setting            triclinic
loop_
_symmetry_equiv_pos_as_xyz
'x, y, z'
_cell_length_a     53.870986
_cell_length_b     56.530696
_cell_length_c     48.099163
_cell_angle_alpha  101.58506
_cell_angle_beta   93.723151
_cell_angle_gamma 111.67441
loop_
_atom_site_label
_atom_site_type_symbol
_atom_site_fract_x
_atom_site_fract_y
_atom_site_fract_z
_atom_type_partial_charge
Tb0 Tb 0.26063 0.25601 0.23775 0.0
Eu1 Eu 0.29684 0.27828 0.29976 0.0
C2 C 0.30987 0.23533 0.25123 0.0
C3 C 0.24563 0.22289 0.28421 0.0
C4 C 0.22403 0.25456 0.17067 0.0
C5 C 0.20224 0.25613 0.12595 0.0
C6 C 0.21285 0.243 0.14182 0.0
C7 C 0.22459 0.27931 0.18366 0.0
C8 C 0.2138 0.29233 0.16796 0.0
C9 C 0.20259 0.2809 0.13891 0.0
C10 C 0.23561 0.24119 0.18727 0.0
O11 O 0.24 0.28127 0.25912 0.0
O12 O 0.2674 0.3001 0.30273 0.0
O13 O 0.32148 0.30261 0.27254 0.0
O14 O 0.28604 0.29678 0.23984 0.0
C15 C 0.2462 0.29771 0.28494 0.0
O16 O 0.29759 0.28465 0.34604 0.0
O17 O 0.33488 0.30003 0.32892 0.0
O18 O 0.31552 0.24978 0.27798 0.0
O19 O 0.28993 0.23552 0.23336 0.0
O20 O 0.23732 0.22826 0.26098 0.0
O21 O 0.26935 0.23738 0.29955 0.0
C22 C 0.31149 0.30921 0.25136 0.0
O23 O 0.26185 0.25176 0.1936 0.0
O24 O 0.22413 0.23561 0.20943 0.0
C25 C 0.3352 0.28024 0.36678 0.0
C26 C 0.35711 0.25188 0.39448 0.0
C27 C 0.3604 0.27739 0.40856 0.0
C28 C 0.34951 0.29161 0.39465 0.0
C29 C 0.33142 0.25456 0.35306 0.0
C30 C 0.34229 0.24048 0.36678 0.0
C31 C 0.3239 0.29454 0.35142 0.0
H32 H 0.19407 0.24702 0.1035 0.0
H33 H 0.21249 0.22395 0.13155 0.0
H34 H 0.23332 0.28854 0.20596 0.0
H35 H 0.21397 0.31119 0.17868 0.0
H36 H 0.37184 0.28646 0.42995 0.0
H37 H 0.3524 0.31139 0.40546 0.0
H38 H 0.32008 0.24542 0.33165 0.0
H39 H 0.3391 0.22065 0.35574 0.0
Tb40 Tb 0.7993 0.24267 0.26366 0.0
Eu41 Eu 0.77414 0.2866 0.27519 0.0
C42 C 0.75521 0.24133 0.21679 0.0
C43 C 0.81876 0.29049 0.2353 0.0
C44 C 0.82864 0.19791 0.28062 0.0
C45 C 0.81941 0.16171 0.30354 0.0
C46 C 0.81287 0.1721 0.28156 0.0
C47 C 0.85132 0.21303 0.30177 0.0
C48 C 0.85795 0.20261 0.32353 0.0
C49 C 0.84195 0.17695 0.32477 0.0
C50 C 0.82039 0.20957 0.25889 0.0
O51 O 0.81196 0.26194 0.30918 0.0
O52 O 0.81326 0.30169 0.30499 0.0
O53 O 0.75987 0.26231 0.30677 0.0
O54 O 0.76137 0.22493 0.27983 0.0
C55 C 0.8201 0.28728 0.31961 0.0
O56 O 0.77976 0.3276 0.28218 0.0
O57 O 0.74081 0.29809 0.2849 0.0
O58 O 0.74739 0.25562 0.23654 0.0
O59 O 0.77715 0.23697 0.22198 0.0
O60 O 0.82645 0.27643 0.24989 0.0
O61 O 0.79588 0.29316 0.23772 0.0
C62 C 0.75267 0.23688 0.30094 0.0
O63 O 0.79446 0.20318 0.25264 0.0
O64 O 0.83406 0.2346 0.26201 0.0
C65 C 0.7412 0.33074 0.26153 0.0
C66 C 0.72039 0.34791 0.21837 0.0
C67 C 0.73705 0.36608 0.24325 0.0
C68 C 0.74735 0.3575 0.26474 0.0
C69 C 0.72482 0.31257 0.2366 0.0
C70 C 0.71432 0.32107 0.21526 0.0
C71 C 0.75406 0.32206 0.28275 0.0
H72 H 0.80663 0.14192 0.30413 0.0
H73 H 0.7952 0.16013 0.26559 0.0
H74 H 0.8639 0.23304 0.30176 0.0
H75 H 0.8758 0.21462 0.33924 0.0
H76 H 0.74243 0.38694 0.24594 0.0
H77 H 0.76049 0.37175 0.28358 0.0
H78 H 0.72026 0.29181 0.2335 0.0
H79 H 0.70126 0.3066 0.1965 0.0
Tb80 Tb 0.7561 0.75678 0.28909 0.0
Eu81 Eu 0.79524 0.76845 0.24207 0.0
C82 C 0.74175 0.71945 0.22897 0.0
C83 C 0.80254 0.73057 0.28336 0.0
C84 C 0.7176 0.76903 0.34428 0.0
C85 C 0.68534 0.77761 0.37306 0.0
C86 C 0.69647 0.76032 0.35995 0.0
C87 C 0.72775 0.79515 0.34199 0.0
C88 C 0.71687 0.81243 0.35522 0.0
C89 C 0.69537 0.80376 0.37061 0.0
C90 C 0.72866 0.75098 0.32927 0.0
O91 O 0.78498 0.79692 0.3032 0.0
O92 O 0.82088 0.7941 0.2833 0.0
O93 O 0.76834 0.79231 0.23709 0.0
O94 O 0.74105 0.78363 0.2716 0.0
C95 C 0.81099 0.80346 0.30482 0.0
O96 O 0.83348 0.78403 0.22591 0.0
O97 O 0.79576 0.76416 0.19625 0.0
O98 O 0.76765 0.72615 0.23041 0.0
O99 O 0.73232 0.7322 0.2482 0.0
O100 O 0.78136 0.73302 0.29477 0.0
O101 O 0.8112 0.74237 0.26262 0.0
C102 C 0.74831 0.79525 0.25031 0.0
O103 O 0.71832 0.74046 0.3023 0.0
O104 O 0.75497 0.75997 0.33307 0.0
C105 C 0.83296 0.75456 0.18373 0.0
C106 C 0.85543 0.71959 0.1582 0.0
C107 C 0.87062 0.74681 0.16501 0.0
C108 C 0.8594 0.76418 0.17762 0.0
C109 C 0.81773 0.72736 0.17692 0.0
C110 C 0.82878 0.71006 0.164 0.0
C111 C 0.82209 0.77269 0.19929 0.0
H112 H 0.66855 0.77038 0.38454 0.0
H113 H 0.68836 0.74014 0.36168 0.0
H114 H 0.74405 0.8022 0.32987 0.0
H115 H 0.7253 0.83256 0.35336 0.0
H116 H 0.89138 0.75469 0.16123 0.0
H117 H 0.87155 0.78506 0.18319 0.0
H118 H 0.79737 0.71938 0.18185 0.0
H119 H 0.81642 0.68922 0.15861 0.0
Tb120 Tb 0.30757 0.75593 0.28129 0.0
Eu121 Eu 0.26397 0.78142 0.27258 0.0
C122 C 0.31123 0.80639 0.32639 0.0
C123 C 0.25911 0.74363 0.31481 0.0
C124 C 0.35091 0.72257 0.26038 0.0
C125 C 0.38709 0.71429 0.23905 0.0
C126 C 0.37761 0.72457 0.26284 0.0
C127 C 0.33362 0.71017 0.23407 0.0
C128 C 0.34293 0.69959 0.21043 0.0
C129 C 0.36983 0.7018 0.21263 0.0
C130 C 0.34204 0.73633 0.28394 0.0
O131 O 0.27379 0.72577 0.25015 0.0
O132 O 0.25693 0.75176 0.23116 0.0
O133 O 0.30123 0.80432 0.25648 0.0
O134 O 0.31389 0.77022 0.24255 0.0
C135 C 0.25954 0.72938 0.2293 0.0
O136 O 0.22222 0.77811 0.26882 0.0
O137 O 0.25409 0.8136 0.26435 0.0
O138 O 0.28605 0.80198 0.31745 0.0
O139 O 0.32446 0.79417 0.31157 0.0
O140 O 0.28511 0.74947 0.31659 0.0
O141 O 0.24603 0.74882 0.29449 0.0
C142 C 0.31385 0.79282 0.24 0.0
O143 O 0.3482 0.761 0.28446 0.0
O144 O 0.31702 0.72444 0.2875 0.0
C145 C 0.22155 0.81799 0.29291 0.0
C146 C 0.20829 0.84147 0.34362 0.0
C147 C 0.18825 0.82023 0.32367 0.0
C148 C 0.19485 0.80861 0.29842 0.0
C149 C 0.24145 0.8396 0.31261 0.0
C150 C 0.23482 0.85135 0.3376 0.0
C151 C 0.22932 0.80287 0.26918 0.0
H152 H 0.40806 0.71667 0.24118 0.0
H153 H 0.39129 0.73473 0.28287 0.0
H154 H 0.31309 0.70911 0.23165 0.0
H155 H 0.32908 0.68978 0.19047 0.0
H156 H 0.16767 0.81211 0.32792 0.0
H157 H 0.17935 0.79166 0.28374 0.0
H158 H 0.26236 0.84706 0.30924 0.0
H159 H 0.25056 0.86807 0.35228 0.0
Tb160 Tb 0.2989 0.7487 0.76269 0.0
Eu161 Eu 0.26468 0.78453 0.77013 0.0
C162 C 0.24856 0.7347 0.71625 0.0
C163 C 0.30974 0.79337 0.73086 0.0
C164 C 0.33429 0.70873 0.78136 0.0
C165 C 0.3234 0.67494 0.80796 0.0
C166 C 0.31605 0.68532 0.78644 0.0
C167 C 0.36008 0.72133 0.7979 0.0
C168 C 0.36741 0.71095 0.8194 0.0
C169 C 0.34909 0.68775 0.82468 0.0
C170 C 0.32617 0.7209 0.76008 0.0
O171 O 0.31113 0.7712 0.80767 0.0
O172 O 0.30368 0.80683 0.80083 0.0
O173 O 0.2555 0.76275 0.80464 0.0
O174 O 0.26349 0.72788 0.78046 0.0
C175 C 0.31532 0.79615 0.81639 0.0
O176 O 0.26434 0.82346 0.77583 0.0
O177 O 0.22725 0.79006 0.77507 0.0
O178 O 0.23938 0.74829 0.7353 0.0
O179 O 0.27361 0.73643 0.72071 0.0
O180 O 0.32087 0.78297 0.74723 0.0
O181 O 0.28477 0.79104 0.73149 0.0
C182 C 0.25262 0.73828 0.80049 0.0
O183 O 0.30045 0.71164 0.75019 0.0
O184 O 0.33685 0.74645 0.76627 0.0
C185 C 0.22451 0.82241 0.7532 0.0
C186 C 0.19894 0.83781 0.71217 0.0
C187 C 0.20293 0.85034 0.74142 0.0
C188 C 0.21565 0.84262 0.76185 0.0
C189 C 0.2211 0.81013 0.72401 0.0
C190 C 0.2083 0.81778 0.70353 0.0
C191 C 0.23815 0.81476 0.77459 0.0
H192 H 0.30887 0.65709 0.81177 0.0
H193 H 0.29597 0.67518 0.77409 0.0
H194 H 0.37454 0.73937 0.79441 0.0
H195 H 0.38754 0.72094 0.83166 0.0
H196 H 0.19623 0.86612 0.74848 0.0
H197 H 0.21858 0.85241 0.78434 0.0
H198 H 0.2282 0.79459 0.71714 0.0
H199 H 0.20524 0.80773 0.68112 0.0
Tb200 Tb 0.27506 0.28438 0.73975 0.0
Eu201 Eu 0.29063 0.25639 0.7953 0.0
C202 C 0.31826 0.31394 0.79255 0.0
C203 C 0.30992 0.24843 0.73255 0.0
C204 C 0.24252 0.31745 0.69616 0.0
C205 C 0.23982 0.35893 0.69212 0.0
C206 C 0.25492 0.3447 0.69904 0.0
C207 C 0.21447 0.30492 0.68657 0.0
C208 C 0.19938 0.31913 0.67972 0.0
C209 C 0.21185 0.34631 0.68199 0.0
C210 C 0.25895 0.30177 0.70045 0.0
O211 O 0.24329 0.24785 0.74186 0.0
O212 O 0.26188 0.22295 0.76059 0.0
O213 O 0.26282 0.27614 0.81148 0.0
O214 O 0.25455 0.29459 0.77423 0.0
C215 C 0.24602 0.2256 0.74066 0.0
O216 O 0.28494 0.22947 0.82372 0.0
O217 O 0.32373 0.26172 0.82773 0.0
O218 O 0.32169 0.29197 0.78651 0.0
O219 O 0.30032 0.31663 0.77525 0.0
O220 O 0.30398 0.26727 0.7251 0.0
O221 O 0.3045 0.24036 0.75612 0.0
C222 C 0.25195 0.29014 0.79998 0.0
O223 O 0.28262 0.31374 0.71658 0.0
O224 O 0.24623 0.27852 0.7047 0.0
C225 C 0.32449 0.2232 0.84096 0.0
C226 C 0.35289 0.19298 0.85673 0.0
C227 C 0.32574 0.18701 0.86073 0.0
C228 C 0.31184 0.20198 0.8531 0.0
C229 C 0.35138 0.22883 0.8362 0.0
C230 C 0.36537 0.21395 0.844 0.0
C231 C 0.31024 0.24051 0.83599 0.0
H232 H 0.25032 0.37972 0.69387 0.0
H233 H 0.27649 0.35501 0.70599 0.0
H234 H 0.20416 0.28394 0.68381 0.0
H235 H 0.17786 0.30869 0.6725 0.0
H236 H 0.31511 0.17077 0.86988 0.0
H237 H 0.29124 0.19722 0.85722 0.0
H238 H 0.36192 0.24514 0.82709 0.0
H239 H 0.38629 0.2195 0.84082 0.0
Tb240 Tb 0.79603 0.26506 0.77559 0.0
Eu241 Eu 0.73898 0.2683 0.75517 0.0
C242 C 0.77745 0.3064 0.81382 0.0
C243 C 0.74435 0.2334 0.79942 0.0
C244 C 0.85621 0.25497 0.76429 0.0
C245 C 0.88518 0.23268 0.74865 0.0
C246 C 0.87426 0.24366 0.7707 0.0
C247 C 0.84996 0.25619 0.73597 0.0
C248 C 0.86096 0.24549 0.71406 0.0
C249 C 0.87805 0.233 0.72009 0.0
C250 C 0.84072 0.26201 0.78576 0.0
O251 O 0.77561 0.23105 0.73977 0.0
O252 O 0.7472 0.24494 0.71645 0.0
O253 O 0.77058 0.30184 0.74187 0.0
O254 O 0.803 0.28484 0.74028 0.0
C255 C 0.76083 0.22999 0.71642 0.0
O256 O 0.6953 0.25264 0.75437 0.0
O257 O 0.71365 0.28303 0.73237 0.0
O258 O 0.75348 0.29685 0.7983 0.0
O259 O 0.79675 0.29843 0.80713 0.0
O260 O 0.77039 0.24775 0.80549 0.0
O261 O 0.72982 0.23437 0.77692 0.0
C262 C 0.79316 0.30136 0.73348 0.0
O263 O 0.83813 0.28413 0.78628 0.0
O264 O 0.81772 0.24308 0.78574 0.0
C265 C 0.68356 0.28872 0.76383 0.0
C266 C 0.67512 0.31713 0.81455 0.0
C267 C 0.65586 0.29197 0.80104 0.0
C268 C 0.66011 0.27779 0.7758 0.0
C269 C 0.70165 0.31469 0.77627 0.0
C270 C 0.69743 0.32874 0.80136 0.0
C271 C 0.69281 0.27143 0.74414 0.0
H272 H 0.89802 0.22276 0.75375 0.0
H273 H 0.87885 0.24221 0.79241 0.0
H274 H 0.83569 0.2644 0.73047 0.0
H275 H 0.85534 0.2462 0.69229 0.0
H276 H 0.63848 0.28267 0.81093 0.0
H277 H 0.64623 0.25763 0.76691 0.0
H278 H 0.72019 0.32359 0.76792 0.0
H279 H 0.71229 0.34832 0.81114 0.0
Tb280 Tb 0.7608 0.76553 0.74497 0.0
Eu281 Eu 0.79914 0.76867 0.8035 0.0
C282 C 0.80111 0.73527 0.74132 0.0
C283 C 0.74178 0.71948 0.77655 0.0
C284 C 0.72302 0.78773 0.69616 0.0
C285 C 0.69947 0.80226 0.66293 0.0
C286 C 0.71111 0.78498 0.66836 0.0
C287 C 0.72348 0.80817 0.71855 0.0
C288 C 0.71163 0.82536 0.71321 0.0
C289 C 0.69931 0.8225 0.68532 0.0
C290 C 0.73438 0.76886 0.70163 0.0
O291 O 0.7437 0.78134 0.78069 0.0
O292 O 0.77852 0.79654 0.81858 0.0
O293 O 0.82474 0.7961 0.77901 0.0
O294 O 0.79023 0.80534 0.7617 0.0
C295 C 0.75519 0.79557 0.80689 0.0
O296 O 0.80451 0.75974 0.84515 0.0
O297 O 0.83939 0.78174 0.82777 0.0
O298 O 0.80278 0.73722 0.76912 0.0
O299 O 0.789 0.74773 0.72867 0.0
O300 O 0.73993 0.72694 0.75262 0.0
O301 O 0.76068 0.73341 0.79873 0.0
C302 C 0.81614 0.81103 0.76706 0.0
O303 O 0.76067 0.77755 0.70635 0.0
O304 O 0.72343 0.75537 0.7198 0.0
C305 C 0.84383 0.75145 0.85295 0.0
C306 C 0.86879 0.7177 0.86408 0.0
C307 C 0.86202 0.73312 0.88668 0.0
C308 C 0.84961 0.74981 0.88113 0.0
C309 C 0.85029 0.73592 0.83026 0.0
C310 C 0.86269 0.71922 0.83577 0.0
C311 C 0.83076 0.76911 0.84738 0.0
H312 H 0.69071 0.79979 0.64111 0.0
H313 H 0.71072 0.76939 0.65083 0.0
H314 H 0.73272 0.81061 0.74018 0.0
H315 H 0.71166 0.84053 0.73102 0.0
H316 H 0.86671 0.73263 0.90875 0.0
H317 H 0.84464 0.76155 0.89887 0.0
H318 H 0.84578 0.73673 0.80828 0.0
H319 H 0.86725 0.70731 0.81784 0.0
Cd320 Cd 1.0098 0.99704 0.56225 0.0
Cd321 Cd 0.04841 0.03415 0.48556 0.0
C322 C 0.04956 0.97059 0.54839 0.0
N323 N 0.02271 0.96328 0.54882 0.0
C324 C 0.01656 0.91881 0.54485 0.0
C325 C 0.04458 0.92617 0.54621 0.0
C326 C 0.06105 0.95227 0.54724 0.0
C327 C 1.00602 0.93801 0.54686 0.0
H328 H 0.06227 0.991 0.5511 0.0
H329 H 0.9849 0.93303 0.54864 0.0
C330 C 1.00394 0.97949 0.48559 0.0
C331 C 0.99236 0.03867 0.48959 0.0
C332 C 0.97331 0.04947 0.48719 0.0
C333 C 0.98191 0.07626 0.48799 0.0
C334 C 1.00968 0.09208 0.49397 0.0
C335 C 0.02809 0.08046 0.49681 0.0
N336 N 0.01906 0.05412 0.49358 0.0
H337 H 0.9857 0.01777 0.48661 0.0
H338 H 0.04952 0.09214 0.49957 0.0
C339 C 0.0756 0.99576 0.49485 0.0
N340 N 0.08268 0.02153 0.49565 0.0
C341 C 0.12945 0.02997 0.50566 0.0
C342 C 0.12254 0.00348 0.50533 0.0
C343 C 0.0953 0.98625 0.49968 0.0
C344 C 0.10894 0.0387 0.50073 0.0
H345 H 0.05471 0.98245 0.49002 0.0
H346 H 0.11403 0.0591 0.50105 0.0
C347 C 0.06403 0.04279 0.56088 0.0
C348 C 0.97972 0.97419 0.60297 0.0
N349 N 0.9862 0.02124 0.55456 0.0
C350 C 0.99937 0.0476 0.56397 0.0
C351 C 0.98532 0.06365 0.56359 0.0
C352 C 0.95743 0.05227 0.55372 0.0
C353 C 0.94448 0.02503 0.54319 0.0
C354 C 0.95943 0.00969 0.54389 0.0
C355 C 0.07555 0.06382 0.44765 0.0
O356 O 1.01164 0.99398 0.51082 0.0
O357 O 0.01417 0.98914 0.46521 0.0
O358 O 0.04883 0.03579 0.53702 0.0
O359 O 0.05441 0.03263 0.58114 0.0
O360 O 0.96923 0.96861 0.57681 0.0
O361 O 1.00403 0.99083 0.61017 0.0
O362 O 0.08179 0.0726 0.47475 0.0
O363 O 0.05627 0.04146 0.43828 0.0
H364 H 0.02047 0.05606 0.57312 0.0
H365 H 0.94945 0.9886 0.53716 0.0
H366 H 1.00329 0.8989 0.54444 0.0
H367 H 0.0828 0.959 0.54972 0.0
H368 H 0.95207 0.03671 0.48329 0.0
H369 H 0.01718 0.11277 0.49439 0.0
H370 H 0.15036 0.04364 0.5095 0.0
H371 H 0.08932 0.96542 0.49793 0.0
H372 H 0.99587 0.08455 0.57261 0.0
H373 H 0.92296 0.0157 0.53555 0.0
Cd374 Cd 0.53552 0.0083 0.11891 0.0
Cd375 Cd 0.57089 0.01641 0.99905 0.0
C376 C 0.59351 0.99298 0.13936 0.0
N377 N 0.56667 0.98669 0.14192 0.0
C378 C 0.56911 0.95101 0.16304 0.0
C379 C 0.59684 0.95673 0.16049 0.0
C380 C 0.60859 0.97869 0.14839 0.0
C381 C 0.55479 0.96579 0.15383 0.0
H382 H 0.60357 0.00893 0.12958 0.0
H383 H 0.53355 0.95977 0.1557 0.0
C384 C 0.51581 0.98269 0.03649 0.0
C385 C 0.53051 0.0237 0.94876 0.0
C386 C 0.51392 0.03485 0.93752 0.0
C387 C 0.50317 0.04994 0.95611 0.0
C388 C 0.50897 0.05251 0.98582 0.0
C389 C 0.52556 0.04101 0.99609 0.0
N390 N 0.53627 0.02718 0.97767 0.0
H391 H 0.53956 0.01307 0.93438 0.0
H392 H 0.53084 0.04407 0.01898 0.0
C393 C 0.57434 0.96306 0.95481 0.0
N394 N 0.58752 0.98276 0.97873 0.0
C395 C 0.62618 0.97086 0.97731 0.0
C396 C 0.61332 0.95039 0.95245 0.0
C397 C 0.58675 0.94659 0.94152 0.0
C398 C 0.61299 0.98667 0.99001 0.0
H399 H 0.55439 0.96044 0.94551 0.0
H400 H 0.62359 0.00281 0.00846 0.0
C401 C 0.58053 0.04325 0.07344 0.0
C402 C 0.48646 0.96497 0.11478 0.0
N403 N 0.51131 0.04206 0.13934 0.0
C404 C 0.50715 0.04817 0.16741 0.0
C405 C 0.49171 0.06368 0.17676 0.0
C406 C 0.47929 0.07392 0.1577 0.0
C407 C 0.48423 0.06735 0.12893 0.0
C408 C 0.49977 0.05181 0.12044 0.0
C409 C 0.60774 0.05697 0.97504 0.0
O410 O 0.52725 0.99453 0.06262 0.0
O411 O 0.52805 0.98821 0.01507 0.0
O412 O 0.57344 0.0229 0.05291 0.0
O413 O 0.57109 0.04221 0.09734 0.0
O414 O 0.50072 0.96604 0.09471 0.0
O415 O 0.49527 0.98403 0.13693 0.0
O416 O 0.60625 0.06197 0.00191 0.0
O417 O 0.59315 0.03382 0.96072 0.0
H418 H 0.51533 0.04059 0.18306 0.0
H419 H 0.50206 0.04722 0.09806 0.0
H420 H 0.55781 0.93468 0.17165 0.0
H421 H 0.62956 0.9851 0.14546 0.0
H422 H 0.50987 0.03189 0.91447 0.0
H423 H 0.50173 0.06423 0.00122 0.0
H424 H 0.64674 0.97542 0.98655 0.0
H425 H 0.57549 0.93109 0.92273 0.0
H426 H 0.48935 0.06712 0.19916 0.0
H427 H 0.47606 0.074 0.11238 0.0
Cd428 Cd 0.01199 0.47182 0.02274 0.0
Cd429 Cd 0.06145 0.50347 0.95074 0.0
C430 C 0.05522 0.45497 0.04723 0.0
N431 N 0.04118 0.45153 0.02128 0.0
C432 C 0.06065 0.42276 0.99841 0.0
C433 C 0.07539 0.42602 0.02502 0.0
C434 C 0.07274 0.44249 0.04959 0.0
C435 C 0.04345 0.43593 0.99699 0.0
H436 H 0.05236 0.46705 0.0662 0.0
H437 H 0.03158 0.43333 0.97678 0.0
C438 C 1.00072 0.46714 0.94734 0.0
C439 C 0.03046 0.52702 0.91147 0.0
C440 C 0.01585 0.5415 0.9047 0.0
C441 C 1.00601 0.55454 0.92654 0.0
C442 C 1.01079 0.55216 0.95474 0.0
C443 C 0.02538 0.53737 0.96048 0.0
N444 N 0.03486 0.52525 0.93897 0.0
H445 H 0.03844 0.51727 0.89485 0.0
H446 H 0.02969 0.53591 0.98216 0.0
C447 C 0.07014 0.45404 0.91196 0.0
N448 N 0.07647 0.46978 0.93894 0.0
C449 C 0.10775 0.4517 0.95238 0.0
C450 C 0.10234 0.43574 0.92443 0.0
C451 C 0.08287 0.4367 0.90421 0.0
C452 C 0.09462 0.46876 0.95915 0.0
H453 H 0.05604 0.45573 0.89618 0.0
H454 H 0.09947 0.48183 0.98031 0.0
C455 C 0.06925 0.51575 0.02757 0.0
C456 C 0.9774 0.43771 0.05261 0.0
N457 N 0.99334 0.50226 0.02729 0.0
C458 C 1.00865 0.52841 0.034 0.0
C459 C 0.99649 0.54623 0.04028 0.0
C460 C 0.96843 0.53686 0.03975 0.0
C461 C 0.95302 0.50977 0.03162 0.0
C462 C 0.96604 0.49267 0.02547 0.0
C463 C 0.10536 0.5437 0.93841 0.0
O464 O 0.01314 0.47053 0.97198 0.0
O465 O 0.01484 0.47435 0.92812 0.0
O466 O 0.05886 0.5059 0.00141 0.0
O467 O 0.05518 0.50744 0.04641 0.0
O468 O 0.97202 0.43319 0.02541 0.0
O469 O 0.998 0.45806 0.06521 0.0
O470 O 0.0998 0.54524 0.96384 0.0
O471 O 0.09116 0.52287 0.91942 0.0
H472 H 0.03031 0.53557 0.03538 0.0
H473 H 0.95451 0.47172 0.02013 0.0
H474 H 0.06221 0.41001 0.97912 0.0
H475 H 0.08326 0.44489 0.07059 0.0
H476 H 0.01231 0.54242 0.8826 0.0
H477 H 1.00399 0.56218 0.97235 0.0
H478 H 0.12231 0.45135 0.96875 0.0
H479 H 0.07838 0.42505 0.88231 0.0
H480 H 1.00904 0.56702 0.04678 0.0
H481 H 0.93126 0.50191 0.03072 0.0
Cd482 Cd 0.51262 0.4914 0.0464 0.0
Cd483 Cd 0.54408 0.52127 0.96476 0.0
C484 C 0.5619 0.48161 0.0697 0.0
N485 N 0.54064 0.47022 0.04813 0.0
C486 C 0.54946 0.43142 0.03646 0.0
C487 C 0.57102 0.44258 0.05929 0.0
C488 C 0.57794 0.46839 0.0751 0.0
C489 C 0.53432 0.44585 0.03118 0.0
H490 H 0.56565 0.50036 0.08383 0.0
H491 H 0.51681 0.43723 0.01461 0.0
C492 C 0.4947 0.47057 0.9688 0.0
C493 C 0.49139 0.53236 0.97048 0.0
C494 C 0.47387 0.54498 0.96893 0.0
C495 C 0.48422 0.57155 0.96864 0.0
C496 C 0.51224 0.58516 0.97117 0.0
C497 C 0.52904 0.57167 0.97252 0.0
N498 N 0.51832 0.54565 0.97175 0.0
H499 H 0.48325 0.51171 0.96942 0.0
H500 H 0.5504 0.58176 0.97264 0.0
C501 C 0.56787 0.48221 0.98182 0.0
N502 N 0.57595 0.50742 0.97973 0.0
C503 C 0.62222 0.51506 0.99199 0.0
C504 C 0.61448 0.48876 0.99305 0.0
C505 C 0.58693 0.47241 0.98867 0.0
C506 C 0.6024 0.52405 0.98515 0.0
H507 H 0.54676 0.46938 0.9769 0.0
H508 H 0.60818 0.54406 0.98338 0.0
C509 C 0.56242 0.53799 0.0395 0.0
C510 C 0.47852 0.46557 0.08286 0.0
N511 N 0.49191 0.51876 0.04186 0.0
C512 C 0.50456 0.54447 0.05555 0.0
C513 C 0.49203 0.56153 0.05366 0.0
C514 C 0.46596 0.55187 0.03808 0.0
C515 C 0.45294 0.52502 0.02485 0.0
C516 C 0.46655 0.50866 0.02692 0.0
C517 C 0.57381 0.54765 0.92588 0.0
O518 O 0.50792 0.4819 0.99378 0.0
O519 O 0.50494 0.47902 0.94777 0.0
O520 O 0.54651 0.52598 0.01615 0.0
O521 O 0.5553 0.53056 0.06197 0.0
O522 O 0.47518 0.45536 0.0561 0.0
O523 O 0.49763 0.48795 0.09254 0.0
O524 O 0.57822 0.55793 0.95267 0.0
O525 O 0.5556 0.52458 0.91702 0.0
H526 H 0.52403 0.55176 0.06869 0.0
H527 H 0.45687 0.48792 0.01697 0.0
H528 H 0.54362 0.41149 0.02393 0.0
H529 H 0.59478 0.47783 0.09252 0.0
H530 H 0.45237 0.53384 0.96723 0.0
H531 H 0.52098 0.60556 0.97034 0.0
H532 H 0.64332 0.5281 0.9951 0.0
H533 H 0.58022 0.45179 0.98849 0.0
H534 H 0.50225 0.58188 0.06532 0.0
H535 H 0.43268 0.51689 0.01296 0.0
Cd536 Cd 0.986 0.51679 0.54511 0.0
Cd537 Cd 0.01814 0.52109 0.41667 0.0
C538 C 0.02824 0.513 0.59779 0.0
N539 N 0.02268 0.51014 0.56894 0.0
C540 C 0.05151 0.48645 0.56019 0.0
C541 C 0.05678 0.488 0.58966 0.0
C542 C 0.04546 0.50221 0.60864 0.0
C543 C 0.03447 0.49765 0.55034 0.0
H544 H 0.01813 0.52227 0.61227 0.0
H545 H 0.02948 0.49514 0.5275 0.0
C546 C 0.97591 0.48929 0.4683 0.0
C547 C 0.98297 0.5448 0.36821 0.0
C548 C 0.96803 0.55906 0.35887 0.0
C549 C 0.95447 0.5714 0.37758 0.0
C550 C 0.95706 0.56766 0.40591 0.0
C551 C 0.97216 0.55328 0.41439 0.0
N552 N 0.98517 0.54182 0.39584 0.0
H553 H 0.99339 0.53664 0.35303 0.0
H554 H 0.97385 0.55189 0.43649 0.0
C555 C 0.03925 0.47448 0.36738 0.0
N556 N 0.04244 0.48808 0.39545 0.0
C557 C 0.07737 0.47104 0.4059 0.0
C558 C 0.07481 0.45676 0.3771 0.0
C559 C 0.05478 0.45907 0.35805 0.0
C560 C 0.0615 0.48616 0.41434 0.0
H561 H 0.02479 0.47565 0.35158 0.0
H562 H 0.06498 0.49678 0.43655 0.0
C563 C 0.03594 0.55026 0.4983 0.0
C564 C 0.94642 0.46997 0.5583 0.0
N565 N 0.97163 0.55077 0.57019 0.0
C566 C 0.97768 0.56116 0.59916 0.0
C567 C 0.96524 0.57741 0.61296 0.0
C568 C 0.94592 0.58299 0.59711 0.0
C569 C 0.94047 0.57215 0.56718 0.0
C570 C 0.95347 0.55622 0.55428 0.0
C571 C 0.06442 0.56684 0.41924 0.0
O572 O 0.98633 0.50832 0.49048 0.0
O573 O 0.98362 0.49108 0.44361 0.0
O574 O 0.02997 0.5405 0.47105 0.0
O575 O 0.02004 0.53993 0.51517 0.0
O576 O 0.9385 0.48247 0.54281 0.0
O577 O 0.97178 0.47756 0.56457 0.0
O578 O 0.06109 0.55568 0.43992 0.0
O579 O 0.04645 0.55625 0.39701 0.0
H580 H 0.99163 0.55632 0.61183 0.0
H581 H 0.94822 0.54733 0.53146 0.0
H582 H 0.06 0.47612 0.54468 0.0
H583 H 0.04868 0.50378 0.6315 0.0
H584 H 0.96772 0.56055 0.33683 0.0
H585 H 0.94772 0.576 0.42216 0.0
H586 H 0.09178 0.47093 0.42249 0.0
H587 H 0.05095 0.44924 0.33556 0.0
H588 H 0.97071 0.58533 0.63594 0.0
H589 H 0.92549 0.57505 0.55371 0.0
Cd590 Cd 0.51193 0.04102 0.5986 0.0
Cd591 Cd 0.54953 0.05909 0.51241 0.0
C592 C 0.55055 0.02347 0.63681 0.0
N593 N 0.53975 0.01995 0.60921 0.0
C594 C 0.55768 0.98774 0.59271 0.0
C595 C 0.56868 0.99054 0.62107 0.0
C596 C 0.56521 0.00892 0.64326 0.0
C597 C 0.5431 0.00264 0.58727 0.0
H598 H 0.54724 0.03718 0.65386 0.0
H599 H 0.53404 1.00014 0.56559 0.0
C600 C 0.49369 0.01817 0.52171 0.0
C601 C 0.50453 0.06808 0.47738 0.0
C602 C 0.48655 0.07915 0.47088 0.0
C603 C 0.48368 0.09857 0.49213 0.0
C604 C 0.49797 0.10547 0.51995 0.0
C605 C 0.51545 0.09351 0.52561 0.0
N606 N 0.51843 0.07549 0.5043 0.0
H607 H 0.50776 0.0538 0.46096 0.0
H608 H 0.52724 0.09904 0.54667 0.0
C609 C 0.55388 0.01017 0.47363 0.0
N610 N 0.56017 0.0234 0.50164 0.0
C611 C 0.58324 0.99719 0.51317 0.0
C612 C 0.57832 0.98414 0.48402 0.0
C613 C 0.56271 0.99022 0.46428 0.0
C614 C 0.57374 0.0169 0.5216 0.0
H615 H 0.54264 0.01567 0.45844 0.0
H616 H 0.57793 0.02754 0.54382 0.0
C617 C 0.57076 0.07383 0.58788 0.0
C618 C 0.47142 0.00228 0.61706 0.0
N619 N 0.49723 0.07496 0.61174 0.0
C620 C 0.49816 0.08601 0.63983 0.0
C621 C 0.48484 0.10287 0.64736 0.0
C622 C 0.47042 0.10835 0.62575 0.0
C623 C 0.47065 0.09723 0.59689 0.0
C624 C 0.48402 0.08033 0.59038 0.0
C625 C 0.58601 0.09026 0.48071 0.0
O626 O 0.50689 0.03151 0.54627 0.0
O627 O 0.50435 0.02353 0.49978 0.0
O628 O 0.55501 0.067 0.56443 0.0
O629 O 0.56008 0.07099 0.61044 0.0
O630 O 0.47136 0.00212 0.59059 0.0
O631 O 0.48975 0.02143 0.63506 0.0
O632 O 0.58767 0.09863 0.50766 0.0
O633 O 0.56777 0.06783 0.4691 0.0
H634 H 0.50822 0.0808 0.65639 0.0
H635 H 0.48302 0.07066 0.56828 0.0
H636 H 0.56015 0.97408 0.57491 0.0
H637 H 0.57301 0.01146 0.66545 0.0
H638 H 0.47549 0.07299 0.44932 0.0
H639 H 0.49652 0.12061 0.53677 0.0
H640 H 0.59519 0.99301 0.52902 0.0
H641 H 0.5579 0.98009 0.44175 0.0
H642 H 0.48486 0.11055 0.66988 0.0
H643 H 0.46018 0.1011 0.57946 0.0
C644 C 0.236 0.19589 0.32039 0.0
C645 C 0.22718 0.20108 0.29501 0.0
C646 C 0.21814 0.17764 0.33285 0.0
C647 C 0.14532 0.14519 0.33578 0.0
H648 H 0.17126 0.10676 0.3806 0.0
C649 C 0.07977 0.0727 0.39891 0.0
C650 C 0.09083 0.07843 0.42792 0.0
C651 C 0.09481 0.08579 0.37998 0.0
C652 C 0.16377 0.11738 0.36813 0.0
H653 H 0.19276 0.19012 0.26205 0.0
H654 H 0.16156 0.15759 0.28355 0.0
H655 H 0.2003 0.13087 0.35038 0.0
H656 H 0.12615 0.1023 0.45996 0.0
H657 H 0.15263 0.12469 0.42668 0.0
H658 H 0.10856 0.13119 0.35357 0.0
C659 C 0.18227 0.16818 0.29413 0.0
C660 C 0.1804 0.13128 0.3509 0.0
C661 C 0.20022 0.18666 0.28167 0.0
C662 C 0.11709 0.09757 0.43773 0.0
C663 C 0.13228 0.11025 0.41871 0.0
C664 C 0.12849 0.13087 0.35272 0.0
C665 C 0.19094 0.16378 0.32016 0.0
C666 C 0.17173 0.14601 0.33514 0.0
C667 C 0.12133 0.10437 0.38966 0.0
C668 C 0.13789 0.11743 0.36959 0.0
H669 H 0.2566 0.20657 0.33131 0.0
H670 H 0.22553 0.17521 0.35312 0.0
H671 H 0.13802 0.15648 0.3242 0.0
H672 H 0.05954 0.05807 0.39083 0.0
H673 H 0.08599 0.08096 0.35765 0.0
C674 C 0.8595 0.18199 0.3758 0.0
C675 C 0.84941 0.16607 0.34781 0.0
C676 C 0.86927 0.17266 0.39684 0.0
C677 C 0.86935 0.11345 0.41605 0.0
H678 H 0.94393 0.15681 0.44962 0.0
C679 C 0.94109 0.07139 0.45646 0.0
C680 C 0.96225 0.08678 0.47915 0.0
C681 C 0.92372 0.0817 0.44617 0.0
C682 C 0.92288 0.14476 0.44117 0.0
H683 H 0.84067 0.12765 0.32012 0.0
H684 H 0.85735 0.11119 0.35718 0.0
H685 H 0.91892 0.17362 0.42068 0.0
H686 H 0.98165 0.125 0.50902 0.0
H687 H 0.95061 0.14278 0.4916 0.0
H688 H 0.87338 0.08439 0.43611 0.0
C689 C 0.85754 0.13081 0.36274 0.0
C690 C 0.90864 0.15435 0.4245 0.0
C691 C 0.84801 0.14022 0.34159 0.0
C692 C 0.96542 0.11259 0.49164 0.0
C693 C 0.94772 0.1228 0.48161 0.0
C694 C 0.88345 0.10398 0.43309 0.0
C695 C 0.86874 0.14718 0.39028 0.0
C696 C 0.88208 0.13846 0.41121 0.0
C697 C 0.92702 0.10758 0.45844 0.0
C698 C 0.91061 0.11923 0.445 0.0
H699 H 0.86032 0.20183 0.38131 0.0
H700 H 0.8777 0.18547 0.41808 0.0
H701 H 0.84876 0.10102 0.40608 0.0
H702 H 0.93863 0.05175 0.44562 0.0
H703 H 0.90852 0.06973 0.42769 0.0
C704 C 0.81612 0.81839 0.35801 0.0
C705 C 0.82808 0.8159 0.33303 0.0
C706 C 0.83161 0.82595 0.38505 0.0
C707 C 0.87367 0.86293 0.43553 0.0
H708 H 0.94009 0.85129 0.44327 0.0
C709 C 0.98386 0.93354 0.45604 0.0
C710 C 0.98464 0.95224 0.48042 0.0
C711 C 0.9643 0.9081 0.45035 0.0
C712 C 0.92134 0.85427 0.44195 0.0
H713 H 0.86566 0.81986 0.31675 0.0
H714 H 0.89294 0.83439 0.36383 0.0
H715 H 0.90207 0.82055 0.40692 0.0
H716 H 0.96713 0.95885 0.51894 0.0
H717 H 0.93222 0.91452 0.50859 0.0
H718 H 0.8935 0.89769 0.46881 0.0
C719 C 0.87139 0.82944 0.3626 0.0
C720 C 0.89969 0.83684 0.42105 0.0
C721 C 0.85589 0.82169 0.3356 0.0
C722 C 0.96651 0.94482 0.49975 0.0
C723 C 0.94682 0.91942 0.49404 0.0
C724 C 0.89521 0.88021 0.45654 0.0
C725 C 0.85939 0.83141 0.38762 0.0
C726 C 0.87673 0.8425 0.41597 0.0
C727 C 0.94498 0.90107 0.46878 0.0
C728 C 0.92004 0.87734 0.45795 0.0
H729 H 0.79463 0.81374 0.35675 0.0
H730 H 0.82184 0.82746 0.40394 0.0
H731 H 0.85609 0.86763 0.43246 0.0
H732 H 0.99787 0.93875 0.44099 0.0
H733 H 0.96311 0.89454 0.43039 0.0
C734 C 0.17771 0.85801 0.37063 0.0
C735 C 0.20172 0.85366 0.37059 0.0
C736 C 0.17282 0.87187 0.39549 0.0
C737 C 0.20959 0.9244 0.45643 0.0
H738 H 0.13854 0.90873 0.47896 0.0
C739 C 0.14023 0.97337 0.52242 0.0
C740 C 0.14326 0.99267 0.50709 0.0
C741 C 0.15416 0.95704 0.51686 0.0
C742 C 0.15875 0.91312 0.47364 0.0
H743 H 0.23857 0.85876 0.39685 0.0
H744 H 0.23025 0.8838 0.44015 0.0
H745 H 0.14719 0.87483 0.44614 0.0
H746 H 0.16537 0.01235 0.47667 0.0
H747 H 0.19002 0.98406 0.46714 0.0
H748 H 0.2206 0.96322 0.48248 0.0
C749 C 0.21537 0.87645 0.42092 0.0
C750 C 0.16353 0.89384 0.45464 0.0
C751 C 0.22016 0.86236 0.39614 0.0
C752 C 0.16288 0.99769 0.48889 0.0
C753 C 0.17697 0.98148 0.48347 0.0
C754 C 0.20478 0.94373 0.4754 0.0
C755 C 0.19192 0.88166 0.42057 0.0
C756 C 0.18864 0.89971 0.4451 0.0
C757 C 0.17148 0.96012 0.49616 0.0
C758 C 0.17903 0.93849 0.4832 0.0
H759 H 0.16332 0.8518 0.35118 0.0
H760 H 0.15477 0.8761 0.39467 0.0
H761 H 0.22904 0.92938 0.44905 0.0
H762 H 0.12554 0.96959 0.53696 0.0
H763 H 0.14982 0.94077 0.527 0.0
C764 C 0.16049 0.84865 0.69689 0.0
C765 C 0.18416 0.84509 0.69095 0.0
C766 C 0.14658 0.85607 0.67735 0.0
C767 C 0.136 0.85724 0.60213 0.0
H768 H 0.10805 0.90937 0.63393 0.0
C769 C 0.08123 0.90923 0.54217 0.0
C770 C 0.05736 0.90866 0.55281 0.0
C771 C 0.09742 0.89872 0.55475 0.0
C772 C 0.11581 0.89482 0.62487 0.0
H773 H 0.21179 0.84597 0.65992 0.0
H774 H 0.18727 0.85919 0.62547 0.0
H775 H 0.13693 0.89821 0.66541 0.0
H776 H 0.03065 0.89494 0.5833 0.0
H777 H 0.0586 0.87609 0.60456 0.0
H778 H 0.11467 0.85418 0.56141 0.0
C779 C 0.17952 0.85605 0.64523 0.0
C780 C 0.13219 0.8884 0.64278 0.0
C781 C 0.19347 0.84854 0.66485 0.0
C782 C 0.04867 0.89532 0.57429 0.0
C783 C 0.06477 0.88482 0.58672 0.0
C784 C 0.11974 0.86392 0.58406 0.0
C785 C 0.15617 0.86016 0.65157 0.0
C786 C 0.14171 0.869 0.63173 0.0
C787 C 0.08973 0.88757 0.5779 0.0
C788 C 0.10898 0.88213 0.59562 0.0
H789 H 0.15259 0.84552 0.71659 0.0
H790 H 0.12822 0.8585 0.68239 0.0
H791 H 0.14317 0.84221 0.5932 0.0
H792 H 0.08823 0.91935 0.52553 0.0
H793 H 0.11674 0.90098 0.54783 0.0
C794 C 0.22519 0.17926 0.71271 0.0
C795 C 0.23725 0.2059 0.71336 0.0
C796 C 0.21847 0.16061 0.68667 0.0
C797 C 0.2047 0.15453 0.60855 0.0
H798 H 0.18481 0.08241 0.61246 0.0
C799 C 0.10198 0.0834 0.55881 0.0
C800 C 0.09288 0.05822 0.5635 0.0
C801 C 0.12954 0.09915 0.56442 0.0
C802 C 0.19032 0.10218 0.61001 0.0
H803 H 0.25401 0.23423 0.68824 0.0
H804 H 0.24342 0.20179 0.64292 0.0
H805 H 0.21811 0.11645 0.64895 0.0
H806 H 0.10474 0.02787 0.57333 0.0
H807 H 0.15272 0.05394 0.5802 0.0
H808 H 0.1786 0.14033 0.56853 0.0
C809 C 0.23778 0.19506 0.66201 0.0
C810 C 0.20939 0.12198 0.63165 0.0
C811 C 0.24368 0.21371 0.68795 0.0
C812 C 0.11152 0.04779 0.57081 0.0
C813 C 0.13914 0.06301 0.57499 0.0
C814 C 0.18657 0.13463 0.58612 0.0
C815 C 0.22461 0.16821 0.66087 0.0
C816 C 0.21426 0.14834 0.63291 0.0
C817 C 0.14863 0.08964 0.57402 0.0
C818 C 0.17645 0.10841 0.5885 0.0
H819 H 0.22049 0.17293 0.73225 0.0
H820 H 0.20765 0.14028 0.68687 0.0
H821 H 0.20888 0.17461 0.6078 0.0
H822 H 0.0877 0.09146 0.5525 0.0
H823 H 0.1352 0.11924 0.56304 0.0
C824 C 0.86733 0.20232 0.67196 0.0
C825 C 0.88631 0.21825 0.69641 0.0
C826 C 0.87412 0.18607 0.65091 0.0
C827 C 0.90005 0.16135 0.60504 0.0
H828 H 0.92584 0.11568 0.63776 0.0
C829 C 0.95221 0.09406 0.55406 0.0
C830 C 0.94172 0.0686 0.55829 0.0
C831 C 0.94099 0.11184 0.5648 0.0
C832 C 0.91841 0.12823 0.62848 0.0
H833 H 0.9275 0.23088 0.7174 0.0
H834 H 0.93915 0.20173 0.68072 0.0
H835 H 0.91824 0.15094 0.66955 0.0
H836 H 0.91057 0.04114 0.5758 0.0
H837 H 0.89131 0.07259 0.59522 0.0
H838 H 0.90074 0.13858 0.56386 0.0
C839 C 0.91916 0.20205 0.67798 0.0
C840 C 0.91449 0.14849 0.64653 0.0
C841 C 0.91247 0.21849 0.69892 0.0
C842 C 0.91867 0.06051 0.57169 0.0
C843 C 0.90772 0.07841 0.58288 0.0
C844 C 0.90438 0.14121 0.58691 0.0
C845 C 0.89981 0.18538 0.65427 0.0
C846 C 0.90529 0.16513 0.6349 0.0
C847 C 0.91954 0.10433 0.58037 0.0
C848 C 0.91332 0.12452 0.59867 0.0
H849 H 0.84684 0.20143 0.66974 0.0
H850 H 0.85886 0.17299 0.63289 0.0
H851 H 0.89283 0.17406 0.59586 0.0
H852 H 0.97036 0.10076 0.54447 0.0
H853 H 0.95056 0.13198 0.56321 0.0
C854 C 0.82525 0.84469 0.7384 0.0
C855 C 0.83523 0.83286 0.75691 0.0
C856 C 0.84283 0.86319 0.72596 0.0
C857 C 0.91204 0.88487 0.70743 0.0
H858 H 0.89318 0.93964 0.68667 0.0
C859 C 0.9784 0.96074 0.64943 0.0
C860 C 0.9646 0.96121 0.62386 0.0
C861 C 0.96419 0.94734 0.66859 0.0
C862 C 0.89866 0.92444 0.6924 0.0
H863 H 0.87166 0.83208 0.77796 0.0
H864 H 0.90257 0.86519 0.75695 0.0
H865 H 0.8663 0.91336 0.71678 0.0
H866 H 0.92517 0.9485 0.59848 0.0
H867 H 0.90027 0.92569 0.63245 0.0
H868 H 0.94468 0.89642 0.68319 0.0
C869 C 0.88103 0.85958 0.75142 0.0
C870 C 0.88323 0.90927 0.70951 0.0
C871 C 0.86334 0.84075 0.76365 0.0
C872 C 0.93631 0.94847 0.61804 0.0
C873 C 0.92207 0.93553 0.63748 0.0
C874 C 0.92775 0.90038 0.69072 0.0
C875 C 0.87095 0.87068 0.73198 0.0
C876 C 0.88931 0.88885 0.71669 0.0
C877 C 0.93592 0.93467 0.66278 0.0
C878 C 0.92083 0.9199 0.68258 0.0
H879 H 0.8037 0.83896 0.73257 0.0
H880 H 0.83419 0.87083 0.71072 0.0
H881 H 0.91715 0.86913 0.71211 0.0
H882 H 1.00023 0.97026 0.65434 0.0
H883 H 0.97527 0.94695 0.688 0.0
C884 C 0.34738 0.21729 0.26008 0.0
C885 C 0.32672 0.21846 0.24113 0.0
C886 C 0.36314 0.20219 0.25124 0.0
C887 C 0.37697 0.15849 0.18377 0.0
H888 H 0.42331 0.14848 0.24102 0.0
C889 C 0.44693 0.09838 0.14761 0.0
C890 C 0.46163 0.09064 0.16733 0.0
C891 C 0.43099 0.11343 0.15623 0.0
C892 C 0.41061 0.15054 0.22414 0.0
H893 H 0.30764 0.20315 0.19673 0.0
H894 H 0.33416 0.17721 0.18154 0.0
H895 H 0.3962 0.17327 0.25554 0.0
H896 H 0.46911 0.09476 0.21337 0.0
H897 H 0.442 0.11969 0.22781 0.0
H898 H 0.39098 0.13529 0.1524 0.0
C899 C 0.33875 0.18818 0.20367 0.0
C900 C 0.39465 0.16553 0.23277 0.0
C901 C 0.32297 0.20334 0.21257 0.0
C902 C 0.45881 0.09937 0.19651 0.0
C903 C 0.4428 0.11438 0.20513 0.0
C904 C 0.39288 0.14342 0.17513 0.0
C905 C 0.35957 0.18693 0.22264 0.0
C906 C 0.37712 0.17024 0.21299 0.0
C907 C 0.42816 0.12212 0.18539 0.0
C908 C 0.41048 0.13876 0.19492 0.0
H909 H 0.3516 0.22827 0.28225 0.0
H910 H 0.3785 0.20295 0.26737 0.0
H911 H 0.36456 0.16094 0.1669 0.0
H912 H 0.44741 0.09277 0.12489 0.0
H913 H 0.42095 0.11829 0.1394 0.0
C914 C 0.86365 0.30982 0.21908 0.0
C915 C 0.83561 0.30307 0.21523 0.0
C916 C 0.87941 0.32267 0.20044 0.0
C917 C 0.87731 0.33383 0.12831 0.0
H918 H 0.93675 0.40031 0.16225 0.0
C919 C 0.93376 0.4041 0.05955 0.0
C920 C 0.96117 0.42003 0.06927 0.0
C921 C 0.9185 0.38849 0.07654 0.0
C922 C 0.92063 0.38154 0.15228 0.0
H923 H 0.80188 0.30343 0.18832 0.0
H924 H 0.82937 0.32534 0.15549 0.0
H925 H 0.91089 0.3746 0.19316 0.0
H926 H 0.9945 0.43119 0.1035 0.0
H927 H 0.96857 0.40316 0.13224 0.0
H928 H 0.88731 0.34026 0.08742 0.0
C929 C 0.83916 0.32099 0.17305 0.0
C930 C 0.90575 0.36689 0.1701 0.0
C931 C 0.82351 0.30865 0.19197 0.0
C932 C 0.97327 0.41941 0.09569 0.0
C933 C 0.95827 0.40344 0.11231 0.0
C934 C 0.89254 0.34823 0.11042 0.0
C935 C 0.86726 0.32839 0.17731 0.0
C936 C 0.88387 0.34302 0.15829 0.0
C937 C 0.93054 0.38812 0.1033 0.0
C938 C 0.91437 0.37238 0.12215 0.0
H939 H 0.87345 0.3057 0.23683 0.0
H940 H 0.90108 0.32815 0.20405 0.0
H941 H 0.86053 0.31538 0.11874 0.0
H942 H 0.92396 0.40429 0.03925 0.0
H943 H 0.89716 0.37725 0.06896 0.0
C944 C 0.73923 0.82432 0.21777 0.0
C945 C 0.73332 0.81212 0.24101 0.0
C946 C 0.72508 0.83946 0.2092 0.0
C947 C 0.66387 0.86009 0.22394 0.0
H948 H 0.69128 0.90373 0.17152 0.0
C949 C 0.60174 0.91995 0.18458 0.0
C950 C 0.61279 0.94014 0.16984 0.0
C951 C 0.61604 0.90481 0.19285 0.0
C952 C 0.68288 0.892 0.18639 0.0
H953 H 0.70662 0.8075 0.27302 0.0
H954 H 0.68287 0.83346 0.25899 0.0
H955 H 0.7156 0.87871 0.18613 0.0
H956 H 0.64981 0.95852 0.153 0.0
H957 H 0.67407 0.93345 0.16748 0.0
H958 H 0.63155 0.87384 0.22482 0.0
C959 C 0.69825 0.83132 0.2466 0.0
C960 C 0.69717 0.87692 0.19481 0.0
C961 C 0.71233 0.81614 0.25506 0.0
C962 C 0.63949 0.94384 0.1642 0.0
C963 C 0.65383 0.92877 0.17258 0.0
C964 C 0.64967 0.87526 0.21564 0.0
C965 C 0.70397 0.84362 0.22327 0.0
C966 C 0.68827 0.86029 0.21394 0.0
C967 C 0.64273 0.90856 0.18725 0.0
C968 C 0.65851 0.89187 0.19647 0.0
H969 H 0.75491 0.82208 0.20584 0.0
H970 H 0.73082 0.84767 0.19104 0.0
H971 H 0.65514 0.84793 0.23831 0.0
H972 H 0.58168 0.91548 0.19012 0.0
H973 H 0.60555 0.88981 0.20361 0.0
C974 C 0.24973 0.68405 0.19993 0.0
C975 C 0.24617 0.7078 0.20322 0.0
C976 C 0.23652 0.66343 0.17574 0.0
C977 C 0.19795 0.64562 0.10234 0.0
H978 H 0.16128 0.57897 0.12109 0.0
C979 C 0.10159 0.56194 0.03414 0.0
C980 C 0.09646 0.5363 0.03645 0.0
C981 C 0.12545 0.58265 0.04891 0.0
C982 C 0.17183 0.59718 0.11512 0.0
H983 H 0.22658 0.72879 0.18304 0.0
H984 H 0.20311 0.69259 0.14117 0.0
H985 H 0.1925 0.61576 0.15792 0.0
H986 H 0.11263 0.51137 0.05324 0.0
H987 H 0.15479 0.54719 0.07801 0.0
H988 H 0.17643 0.62694 0.05954 0.0
C989 C 0.21643 0.69005 0.15712 0.0
C990 C 0.18976 0.61839 0.1364 0.0
C991 C 0.2297 0.71071 0.18131 0.0
C992 C 0.11627 0.53116 0.05145 0.0
C993 C 0.14025 0.55169 0.06577 0.0
C994 C 0.17997 0.62424 0.08088 0.0
C995 C 0.21934 0.666 0.15429 0.0
C996 C 0.20267 0.643 0.13048 0.0
C997 C 0.14448 0.57786 0.06603 0.0
C998 C 0.16632 0.59986 0.08718 0.0
H999 H 0.26248 0.68119 0.21619 0.0
H1000 H 0.23948 0.64528 0.17403 0.0
H1001 H 0.20785 0.66428 0.09702 0.0
H1002 H 0.08635 0.5662 0.02271 0.0
H1003 H 0.12795 0.6025 0.04862 0.0
C1004 C 0.33585 0.83882 0.85413 0.0
C1005 C 0.33252 0.81245 0.84444 0.0
C1006 C 0.35191 0.85436 0.88037 0.0
C1007 C 0.40867 0.86029 0.93255 0.0
H1008 H 0.389 0.91271 0.98007 0.0
C1009 C 0.48423 0.93601 0.02919 0.0
C1010 C 0.48825 0.96202 0.02928 0.0
C1011 C 0.46119 0.91508 0.01285 0.0
C1012 C 0.39484 0.89819 0.96708 0.0
H1013 H 0.34348 0.78182 0.85529 0.0
H1014 H 0.37163 0.809 0.90108 0.0
H1015 H 0.3571 0.88122 0.9386 0.0
H1016 H 0.47099 0.98666 0.01354 0.0
H1017 H 0.4308 0.95049 0.98542 0.0
H1018 H 0.44672 0.87774 0.9604 0.0
C1019 C 0.36186 0.81768 0.88819 0.0
C1020 C 0.37655 0.88014 0.9432 0.0
C1021 C 0.34564 0.80204 0.86193 0.0
C1022 C 0.468 0.9668 0.01443 0.0
C1023 C 0.44499 0.94596 0.99817 0.0
C1024 C 0.42698 0.87836 0.95641 0.0
C1025 C 0.36527 0.8441 0.89779 0.0
C1026 C 0.38346 0.86135 0.92514 0.0
C1027 C 0.44185 0.91977 0.99603 0.0
C1028 C 0.42062 0.89801 0.97362 0.0
H1029 H 0.32614 0.84763 0.84136 0.0
H1030 H 0.35434 0.87469 0.88669 0.0
H1031 H 0.41487 0.8463 0.91911 0.0
H1032 H 0.49986 0.93179 0.03991 0.0
H1033 H 0.45927 0.89521 0.01214 0.0
C1034 C 0.23371 0.32484 0.80843 0.0
C1035 C 0.23747 0.30396 0.81721 0.0
C1036 C 0.22025 0.33847 0.82375 0.0
C1037 C 0.17036 0.33325 0.87175 0.0
H1038 H 0.19861 0.40884 0.88229 0.0
C1039 C 0.10557 0.39433 0.89719 0.0
C1040 C 0.11802 0.41937 0.91599 0.0
C1041 C 0.12073 0.37958 0.88825 0.0
C1042 C 0.19058 0.38781 0.87994 0.0
H1043 H 0.23036 0.28132 0.84945 0.0
H1044 H 0.20618 0.30539 0.87651 0.0
H1045 H 0.22505 0.38456 0.86272 0.0
H1046 H 0.15625 0.44849 0.94012 0.0
H1047 H 0.18243 0.42248 0.92526 0.0
H1048 H 0.1358 0.33659 0.88899 0.0
C1049 C 0.21378 0.31088 0.85746 0.0
C1050 C 0.20563 0.37388 0.8685 0.0
C1051 C 0.22763 0.29721 0.84209 0.0
C1052 C 0.14589 0.42913 0.92598 0.0
C1053 C 0.161 0.41436 0.91716 0.0
C1054 C 0.15526 0.34724 0.88332 0.0
C1055 C 0.21012 0.3317 0.84838 0.0
C1056 C 0.19549 0.34644 0.86384 0.0
C1057 C 0.14865 0.38953 0.89798 0.0
C1058 C 0.1651 0.37464 0.88721 0.0
H1059 H 0.24133 0.33097 0.78964 0.0
H1060 H 0.21743 0.35416 0.81599 0.0
H1061 H 0.16198 0.31208 0.86809 0.0
H1062 H 0.08411 0.38615 0.88928 0.0
H1063 H 0.11069 0.36066 0.87318 0.0
C1064 C 0.70309 0.20693 0.81892 0.0
C1065 C 0.73117 0.21591 0.8185 0.0
C1066 C 0.69093 0.19112 0.83745 0.0
C1067 C 0.69996 0.1444 0.87717 0.0
H1068 H 0.64697 0.15802 0.92152 0.0
C1069 C 0.62943 0.06817 0.93207 0.0
C1070 C 0.62476 0.07674 0.96011 0.0
C1071 C 0.64373 0.08607 0.91664 0.0
C1072 C 0.66185 0.15401 0.90944 0.0
H1073 H 0.76827 0.21482 0.83734 0.0
H1074 H 0.74702 0.18675 0.86891 0.0
H1075 H 0.66863 0.18698 0.89072 0.0
H1076 H 0.63188 0.11134 0.99379 0.0
H1077 H 0.6566 0.14281 0.96653 0.0
H1078 H 0.69283 0.11116 0.89532 0.0
C1079 C 0.7344 0.19214 0.85508 0.0
C1080 C 0.67411 0.17051 0.89154 0.0
C1081 C 0.74663 0.20836 0.83699 0.0
C1082 C 0.63513 0.10396 0.97234 0.0
C1083 C 0.64915 0.12201 0.95661 0.0
C1084 C 0.68737 0.12767 0.89463 0.0
C1085 C 0.70638 0.18336 0.85573 0.0
C1086 C 0.69335 0.16594 0.87509 0.0
C1087 C 0.65362 0.11329 0.92845 0.0
C1088 C 0.66806 0.13214 0.91102 0.0
H1089 H 0.6905 0.2124 0.80515 0.0
H1090 H 0.6693 0.18462 0.83714 0.0
H1091 H 0.71452 0.14011 0.86476 0.0
H1092 H 0.62178 0.04743 0.92179 0.0
H1093 H 0.64645 0.07852 0.89502 0.0
C1094 C 0.90327 0.69808 0.85513 0.0
C1095 C 0.88235 0.7003 0.87009 0.0
C1096 C 0.91636 0.68209 0.86116 0.0
C1097 C 0.92834 0.64948 0.91715 0.0
H1098 H 0.94945 0.60905 0.85515 0.0
C1099 C 0.96962 0.57194 0.93415 0.0
C1100 C 0.9914 0.57097 0.92002 0.0
C1101 C 0.95605 0.58753 0.92807 0.0
C1102 C 0.94392 0.62042 0.87273 0.0
H1103 H 0.85838 0.68694 0.90265 0.0
H1104 H 0.88104 0.65892 0.91301 0.0
H1105 H 0.92624 0.63653 0.84441 0.0
H1106 H 0.01635 0.58623 0.88888 0.0
H1107 H 0.99254 0.61315 0.87814 0.0
H1108 H 0.94595 0.63325 0.94544 0.0
C1109 C 0.88773 0.66996 0.89703 0.0
C1110 C 0.93065 0.63621 0.86659 0.0
C1111 C 0.87471 0.68601 0.89106 0.0
C1112 C 0.99931 0.58602 0.89972 0.0
C1113 C 0.98568 0.60152 0.89358 0.0
C1114 C 0.94155 0.63363 0.92328 0.0
C1115 C 0.90876 0.66787 0.88221 0.0
C1116 C 0.92275 0.65097 0.88873 0.0
C1117 C 0.96391 0.60244 0.90767 0.0
C1118 C 0.94954 0.61899 0.90114 0.0
H1119 H 0.90994 0.70913 0.83915 0.0
H1120 H 0.93277 0.68128 0.84967 0.0
H1121 H 0.92295 0.66093 0.93478 0.0
H1122 H 0.96275 0.56034 0.94962 0.0
H1123 H 0.93912 0.58757 0.93903 0.0
C1124 C 0.16709 0.28078 0.10278 0.0
C1125 C 0.1911 0.29474 0.12235 0.0
C1126 C 0.15582 0.29394 0.08779 0.0
C1127 C 0.17135 0.35711 0.06798 0.0
H1128 H 0.09361 0.3362 0.06084 0.0
C1129 C 0.11701 0.4227 0.04568 0.0
C1130 C 0.09173 0.41073 0.02811 0.0
C1131 C 0.13044 0.40749 0.05283 0.0
C1132 C 0.11528 0.34194 0.06221 0.0
H1133 H 0.2225 0.33331 0.14109 0.0
H1134 H 0.20205 0.35643 0.11608 0.0
H1135 H 0.11452 0.31152 0.08251 0.0
H1136 H 0.06106 0.3739 0.00316 0.0
H1137 H 0.08502 0.34724 0.01507 0.0
H1138 H 0.17206 0.38815 0.04856 0.0
C1139 C 0.19229 0.33526 0.11178 0.0
C1140 C 0.12726 0.32783 0.07461 0.0
C1141 C 0.20376 0.32207 0.12646 0.0
C1142 C 0.08073 0.38354 0.01647 0.0
C1143 C 0.09421 0.36832 0.02355 0.0
C1144 C 0.15937 0.37131 0.05572 0.0
C1145 C 0.16816 0.32132 0.0924 0.0
C1146 C 0.15542 0.33543 0.07783 0.0
C1147 C 0.11881 0.38014 0.04236 0.0
C1148 C 0.13129 0.36393 0.05297 0.0
H1149 H 0.1567 0.25975 0.09942 0.0
H1150 H 0.13738 0.28266 0.0727 0.0
H1151 H 0.19307 0.36318 0.06983 0.0
H1152 H 0.12585 0.4437 0.0548 0.0
H1153 H 0.14925 0.41701 0.06765 0.0
C1154 C 0.23167 0.73298 0.84498 0.0
C1155 C 0.23652 0.72178 0.81811 0.0
C1156 C 0.217 0.7169 0.86182 0.0
C1157 C 0.1667 0.65127 0.85586 0.0
H1158 H 0.19899 0.65552 0.93219 0.0
C1159 C 0.13203 0.56285 0.90249 0.0
C1160 C 0.1252 0.56616 0.93023 0.0
C1161 C 0.14653 0.58455 0.89241 0.0
C1162 C 0.18959 0.6544 0.91109 0.0
H1163 H 0.22955 0.68524 0.7875 0.0
H1164 H 0.20371 0.65734 0.8166 0.0
H1165 H 0.22108 0.68992 0.90731 0.0
H1166 H 0.12982 0.59456 0.97003 0.0
H1167 H 0.15534 0.6328 0.95215 0.0
H1168 H 0.13566 0.61565 0.85905 0.0
C1169 C 0.21128 0.67845 0.82471 0.0
C1170 C 0.20213 0.67403 0.89697 0.0
C1171 C 0.2262 0.6944 0.80816 0.0
C1172 C 0.1348 0.59149 0.94849 0.0
C1173 C 0.14934 0.61334 0.93831 0.0
C1174 C 0.15422 0.63183 0.86991 0.0
C1175 C 0.2066 0.68952 0.85165 0.0
C1176 C 0.1912 0.67202 0.86886 0.0
C1177 C 0.15437 0.61001 0.90981 0.0
C1178 C 0.16607 0.63267 0.89716 0.0
H1179 H 0.23955 0.75408 0.85315 0.0
H1180 H 0.21359 0.72577 0.88258 0.0
H1181 H 0.15772 0.6496 0.83436 0.0
H1182 H 0.12518 0.54354 0.88807 0.0
H1183 H 0.15082 0.58146 0.87058 0.0
C1184 C 0.3632 0.16809 0.89115 0.0
C1185 C 0.36819 0.17782 0.86641 0.0
C1186 C 0.37745 0.15402 0.90032 0.0
C1187 C 0.42124 0.11802 0.87563 0.0
H1188 H 0.43846 0.12524 0.95718 0.0
C1189 C 0.49259 0.07386 0.92051 0.0
C1190 C 0.48688 0.06364 0.94487 0.0
C1191 C 0.47798 0.08737 0.91062 0.0
C1192 C 0.43357 0.12266 0.93429 0.0
H1193 H 0.39243 0.17991 0.83195 0.0
H1194 H 0.41798 0.1565 0.84857 0.0
H1195 H 0.41387 0.14953 0.94085 0.0
H1196 H 0.4604 0.05939 0.97731 0.0
H1197 H 0.43517 0.08287 0.96022 0.0
H1198 H 0.44117 0.09128 0.86916 0.0
C1199 C 0.40255 0.15923 0.86061 0.0
C1200 C 0.41936 0.13667 0.92485 0.0
C1201 C 0.38809 0.1731 0.85126 0.0
C1202 C 0.46589 0.06727 0.95883 0.0
C1203 C 0.45132 0.08083 0.94898 0.0
C1204 C 0.43554 0.10407 0.88509 0.0
C1205 C 0.39745 0.14942 0.88529 0.0
C1206 C 0.41288 0.13455 0.89536 0.0
C1207 C 0.45719 0.0912 0.92478 0.0
C1208 C 0.4419 0.10612 0.91458 0.0
H1209 H 0.34844 0.17158 0.9038 0.0
H1210 H 0.37252 0.14654 0.91915 0.0
H1211 H 0.41632 0.1154 0.85275 0.0
H1212 H 0.50886 0.07203 0.90937 0.0
H1213 H 0.48347 0.09537 0.8922 0.0
C1214 C 0.79984 0.32876 0.86379 0.0
C1215 C 0.78428 0.32834 0.83905 0.0
C1216 C 0.8127 0.35199 0.88492 0.0
C1217 C 0.84071 0.40533 0.92652 0.0
H1218 H 0.88946 0.44196 0.87929 0.0
C1219 C 0.95416 0.442 0.95582 0.0
C1220 C 0.97144 0.46025 0.94271 0.0
C1221 C 0.92625 0.43497 0.95048 0.0
C1222 C 0.876 0.4329 0.8933 0.0
H1223 H 0.7677 0.35078 0.81786 0.0
H1224 H 0.79148 0.39207 0.85437 0.0
H1225 H 0.84408 0.41237 0.85797 0.0
H1226 H 0.97381 0.48755 0.91618 0.0
H1227 H 0.92536 0.47627 0.9078 0.0
H1228 H 0.87314 0.42508 0.96167 0.0
C1229 C 0.79311 0.3743 0.85776 0.0
C1230 C 0.84973 0.41582 0.88091 0.0
C1231 C 0.77961 0.35077 0.83691 0.0
C1232 C 0.96071 0.47275 0.92579 0.0
C1233 C 0.93292 0.4663 0.92107 0.0
C1234 C 0.8669 0.42289 0.93913 0.0
C1235 C 0.81084 0.37533 0.88119 0.0
C1236 C 0.83258 0.40044 0.89689 0.0
C1237 C 0.91516 0.44657 0.93242 0.0
C1238 C 0.88551 0.4353 0.92212 0.0
H1239 H 0.8036 0.31158 0.86582 0.0
H1240 H 0.82645 0.35223 0.90255 0.0
H1241 H 0.82769 0.39389 0.93936 0.0
H1242 H 0.96212 0.43235 0.96917 0.0
H1243 H 0.91343 0.41944 0.95935 0.0
C1244 C 0.75011 0.82472 0.85222 0.0
C1245 C 0.74121 0.81136 0.82306 0.0
C1246 C 0.73672 0.83961 0.86674 0.0
C1247 C 0.6887 0.8718 0.85288 0.0
H1248 H 0.68011 0.87381 0.93249 0.0
C1249 C 0.62171 0.92232 0.90807 0.0
C1250 C 0.62776 0.9338 0.9379 0.0
C1251 C 0.63544 0.90735 0.8946 0.0
C1252 C 0.68256 0.87395 0.91037 0.0
H1253 H 0.71092 0.80345 0.78662 0.0
H1254 H 0.68784 0.82886 0.81162 0.0
H1255 H 0.70442 0.84883 0.90884 0.0
H1256 H 0.65347 0.93742 0.97658 0.0
H1257 H 0.67808 0.91298 0.95316 0.0
H1258 H 0.66733 0.89714 0.85429 0.0
C1259 C 0.70532 0.82826 0.8234 0.0
C1260 C 0.6966 0.85942 0.89669 0.0
C1261 C 0.71855 0.81336 0.809 0.0
C1262 C 0.64819 0.92956 0.95359 0.0
C1263 C 0.66219 0.91493 0.94005 0.0
C1264 C 0.67486 0.88647 0.86658 0.0
C1265 C 0.71414 0.84176 0.85252 0.0
C1266 C 0.69979 0.85792 0.86762 0.0
C1267 C 0.65614 0.90347 0.91024 0.0
C1268 C 0.67132 0.88779 0.8956 0.0
H1269 H 0.76744 0.82372 0.86387 0.0
H1270 H 0.74442 0.8498 0.88904 0.0
H1271 H 0.69106 0.87174 0.83069 0.0
H1272 H 0.60655 0.92513 0.89477 0.0
H1273 H 0.62951 0.89867 0.87177 0.0
C1274 C 0.88447 0.7068 0.12484 0.0
C1275 C 0.86741 0.7011 0.14556 0.0
C1276 C 0.89575 0.68931 0.11299 0.0
C1277 C 0.91056 0.63364 0.1261 0.0
H1278 H 0.91544 0.62079 0.04472 0.0
C1279 C 0.93667 0.54934 0.06864 0.0
C1280 C 0.95564 0.55521 0.04977 0.0
C1281 C 0.92575 0.56732 0.07969 0.0
C1282 C 0.91439 0.62441 0.06751 0.0
H1283 H 0.84901 0.67277 0.17039 0.0
H1284 H 0.86746 0.64162 0.14854 0.0
H1285 H 0.89659 0.65217 0.06553 0.0
H1286 H 0.97786 0.58406 0.02722 0.0
H1287 H 0.95914 0.61591 0.04718 0.0
H1288 H 0.92804 0.60562 0.12797 0.0
C1289 C 0.87266 0.65988 0.14196 0.0
C1290 C 0.90369 0.64236 0.07943 0.0
C1291 C 0.86174 0.67754 0.15413 0.0
C1292 C 0.96334 0.5792 0.04186 0.0
C1293 C 0.95249 0.59726 0.05305 0.0
C1294 C 0.92109 0.6156 0.11416 0.0
C1295 C 0.88985 0.66567 0.1214 0.0
C1296 C 0.9016 0.64705 0.10881 0.0
C1297 C 0.9338 0.59149 0.0722 0.0
C1298 C 0.92298 0.6108 0.08478 0.0
H1299 H 0.88895 0.72466 0.11758 0.0
H1300 H 0.90922 0.69439 0.09743 0.0
H1301 H 0.90967 0.63725 0.14893 0.0
H1302 H 0.93074 0.53113 0.07543 0.0
H1303 H 0.91112 0.56236 0.0942 0.0
C1304 C 0.32658 0.8289 0.21456 0.0
C1305 C 0.32583 0.80426 0.21667 0.0
C1306 C 0.33747 0.83969 0.19234 0.0
C1307 C 0.38722 0.83866 0.14512 0.0
H1308 H 0.36221 0.88664 0.11637 0.0
C1309 C 0.45691 0.91751 0.09549 0.0
C1310 C 0.46122 0.94219 0.11303 0.0
C1311 C 0.4345 0.89533 0.09675 0.0
C1312 C 0.36916 0.87293 0.12373 0.0
H1313 H 0.33521 0.77119 0.19669 0.0
H1314 H 0.35439 0.79019 0.15775 0.0
H1315 H 0.33279 0.85563 0.14071 0.0
H1316 H 0.44465 0.96354 0.14381 0.0
H1317 H 0.40545 0.92498 0.14577 0.0
H1318 H 0.42409 0.85688 0.12943 0.0
C1319 C 0.34667 0.80119 0.17345 0.0
C1320 C 0.35246 0.85534 0.13782 0.0
C1321 C 0.3358 0.79038 0.1958 0.0
C1322 C 0.4419 0.94468 0.13029 0.0
C1323 C 0.41932 0.92266 0.13114 0.0
C1324 C 0.4038 0.85607 0.13078 0.0
C1325 C 0.34778 0.82605 0.17162 0.0
C1326 C 0.36198 0.83915 0.15013 0.0
C1327 C 0.41587 0.89769 0.1151 0.0
C1328 C 0.39547 0.87433 0.12144 0.0
H1329 H 0.31903 0.84009 0.23027 0.0
H1330 H 0.33861 0.85916 0.19199 0.0
H1331 H 0.39518 0.82648 0.15438 0.0
H1332 H 0.47155 0.9151 0.08199 0.0
H1333 H 0.43227 0.87624 0.08427 0.0
C1334 C 0.74382 0.2112 0.16791 0.0
C1335 C 0.73995 0.23118 0.18737 0.0
C1336 C 0.72834 0.2005 0.14066 0.0
C1337 C 0.66034 0.18745 0.11004 0.0
H1338 H 0.67922 0.14413 0.0489 0.0
C1339 C 0.58485 0.08599 0.06363 0.0
C1340 C 0.59677 0.06862 0.06827 0.0
C1341 C 0.60099 0.11114 0.0613 0.0
C1342 C 0.67354 0.15638 0.06546 0.0
H1343 H 0.71887 0.25749 0.19252 0.0
H1344 H 0.69186 0.23887 0.14487 0.0
H1345 H 0.71448 0.18396 0.07921 0.0
H1346 H 0.63392 0.0623 0.07154 0.0
H1347 H 0.66241 0.10652 0.06918 0.0
H1348 H 0.62007 0.15902 0.09831 0.0
C1349 C 0.70642 0.23105 0.15089 0.0
C1350 C 0.69374 0.17916 0.08285 0.0
C1351 C 0.72171 0.24156 0.1783 0.0
C1352 C 0.62455 0.07575 0.06843 0.0
C1353 C 0.64073 0.10095 0.06651 0.0
C1354 C 0.64025 0.16477 0.09272 0.0
C1355 C 0.70876 0.20968 0.13216 0.0
C1356 C 0.68761 0.1935 0.10696 0.0
C1357 C 0.62929 0.11937 0.06426 0.0
C1358 C 0.64709 0.14772 0.07209 0.0
H1359 H 0.75797 0.20299 0.17412 0.0
H1360 H 0.73051 0.18382 0.1271 0.0
H1361 H 0.65469 0.19814 0.1281 0.0
H1362 H 0.56324 0.0804 0.06277 0.0
H1363 H 0.59151 0.12468 0.05907 0.0
C1364 C 0.73089 0.67728 0.79016 0.0
C1365 C 0.7218 0.69446 0.77955 0.0
C1366 C 0.71298 0.65654 0.7995 0.0
C1367 C 0.6408 0.62038 0.80596 0.0
H1368 H 0.67351 0.61893 0.87953 0.0
C1369 C 0.5844 0.55092 0.87643 0.0
C1370 C 0.58921 0.56216 0.90611 0.0
C1371 C 0.59933 0.56483 0.85797 0.0
C1372 C 0.66399 0.61914 0.8591 0.0
H1373 H 0.68676 0.70267 0.7684 0.0
H1374 H 0.65531 0.66682 0.78586 0.0
H1375 H 0.70102 0.64575 0.85083 0.0
H1376 H 0.61295 0.59697 0.93967 0.0
H1377 H 0.63867 0.6212 0.90761 0.0
H1378 H 0.60337 0.59444 0.81523 0.0
C1379 C 0.67616 0.66896 0.78638 0.0
C1380 C 0.67988 0.63422 0.84233 0.0
C1381 C 0.69412 0.6895 0.77642 0.0
C1382 C 0.60891 0.58765 0.91693 0.0
C1383 C 0.62376 0.6015 0.89855 0.0
C1384 C 0.62478 0.60522 0.82289 0.0
C1385 C 0.6857 0.65301 0.79924 0.0
C1386 C 0.66854 0.6352 0.81562 0.0
C1387 C 0.61936 0.59018 0.8689 0.0
C1388 C 0.6362 0.60479 0.84984 0.0
H1389 H 0.75216 0.68066 0.79246 0.0
H1390 H 0.72084 0.64412 0.80841 0.0
H1391 H 0.63145 0.62062 0.78546 0.0
H1392 H 0.56926 0.53133 0.86748 0.0
H1393 H 0.59558 0.55554 0.83525 0.0
C1394 C 0.35114 0.64961 0.84162 0.0
C1395 C 0.35717 0.67663 0.84708 0.0
C1396 C 0.3608 0.63942 0.86186 0.0
C1397 C 0.41764 0.65928 0.91729 0.0
H1398 H 0.37794 0.59161 0.9326 0.0
C1399 C 0.47222 0.61073 0.9762 0.0
C1400 C 0.46574 0.58427 0.96299 0.0
C1401 C 0.45553 0.62307 0.96917 0.0
C1402 C 0.38922 0.61058 0.92857 0.0
H1403 H 0.37662 0.71401 0.8784 0.0
H1404 H 0.39383 0.69613 0.91371 0.0
H1405 H 0.35413 0.61138 0.90603 0.0
H1406 H 0.43705 0.55007 0.93157 0.0
H1407 H 0.40858 0.57177 0.9186 0.0
H1408 H 0.453 0.65787 0.93799 0.0
C1409 C 0.38181 0.68297 0.89371 0.0
C1410 C 0.37562 0.62184 0.91348 0.0
C1411 C 0.3721 0.69315 0.87352 0.0
C1412 C 0.44218 0.57028 0.9428 0.0
C1413 C 0.42576 0.5827 0.93542 0.0
C1414 C 0.43128 0.64793 0.93211 0.0
C1415 C 0.37663 0.65614 0.88778 0.0
C1416 C 0.38988 0.64596 0.90719 0.0
C1417 C 0.43252 0.6093 0.94823 0.0
C1418 C 0.41729 0.62317 0.9372 0.0
H1419 H 0.33996 0.63652 0.82125 0.0
H1420 H 0.35697 0.61871 0.85664 0.0
H1421 H 0.42913 0.67775 0.91228 0.0
H1422 H 0.49028 0.62199 0.99183 0.0
H1423 H 0.46104 0.64355 0.97956 0.0
C1424 C 0.34353 0.32574 0.84157 0.0
C1425 C 0.32428 0.32843 0.82287 0.0
C1426 C 0.34754 0.33694 0.87084 0.0
C1427 C 0.3545 0.3597 0.9328 0.0
H1428 H 0.36578 0.43258 0.94146 0.0
C1429 C 0.45596 0.43868 0.98533 0.0
C1430 C 0.46606 0.45318 0.96513 0.0
C1431 C 0.42818 0.42423 0.98309 0.0
C1432 C 0.36238 0.41219 0.93987 0.0
H1433 H 0.29386 0.34484 0.82013 0.0
H1434 H 0.30026 0.36384 0.87146 0.0
H1435 H 0.33122 0.39955 0.90428 0.0
H1436 H 0.45532 0.46436 0.92701 0.0
H1437 H 0.40757 0.43857 0.92217 0.0
H1438 H 0.38895 0.37308 0.96512 0.0
C1439 C 0.31254 0.35329 0.86354 0.0
C1440 C 0.3423 0.39305 0.91852 0.0
C1441 C 0.30895 0.34251 0.83405 0.0
C1442 C 0.44813 0.45311 0.94271 0.0
C1443 C 0.42058 0.43884 0.94047 0.0
C1444 C 0.37535 0.379 0.95335 0.0
C1445 C 0.33221 0.35101 0.88234 0.0
C1446 C 0.34066 0.36707 0.91248 0.0
C1447 C 0.41017 0.42416 0.96055 0.0
C1448 C 0.3815 0.40556 0.95422 0.0
H1449 H 0.35571 0.31509 0.83353 0.0
H1450 H 0.36361 0.33542 0.88414 0.0
H1451 H 0.35223 0.33948 0.93004 0.0
H1452 H 0.46961 0.43834 0.00258 0.0
H1453 H 0.42088 0.41281 0.99861 0.0
C1454 C 0.69594 0.3429 0.86445 0.0
C1455 C 0.67304 0.33087 0.84311 0.0
C1456 C 0.6948 0.3577 0.8908 0.0
C1457 C 0.64771 0.37457 0.93595 0.0
H1458 H 0.70618 0.44346 0.9573 0.0
C1459 C 0.65277 0.48101 0.97336 0.0
C1460 C 0.63448 0.47685 0.99307 0.0
C1461 C 0.66544 0.46376 0.96598 0.0
C1462 C 0.68994 0.42417 0.95194 0.0
H1463 H 0.63079 0.32375 0.83274 0.0
H1464 H 0.62884 0.35024 0.87859 0.0
H1465 H 0.71005 0.40903 0.92078 0.0
H1466 H 0.61788 0.45415 0.02349 0.0
H1467 H 0.64004 0.42356 0.01046 0.0
H1468 H 0.62642 0.39053 0.96493 0.0
C1469 C 0.64755 0.34783 0.87525 0.0
C1470 C 0.69219 0.40437 0.93116 0.0
C1471 C 0.64865 0.33283 0.84894 0.0
C1472 C 0.63159 0.45723 0.00787 0.0
C1473 C 0.64421 0.43987 0.00044 0.0
C1474 C 0.64533 0.39447 0.95649 0.0
C1475 C 0.67078 0.36083 0.89619 0.0
C1476 C 0.67062 0.37973 0.92214 0.0
C1477 C 0.65997 0.44214 0.97824 0.0
C1478 C 0.66594 0.41977 0.96367 0.0
H1479 H 0.71487 0.34116 0.86061 0.0
H1480 H 0.71287 0.36719 0.9067 0.0
H1481 H 0.631 0.35559 0.92974 0.0
H1482 H 0.65514 0.49584 0.9614 0.0
H1483 H 0.67722 0.4659 0.94856 0.0
C1484 C 0.70677 0.34519 0.16678 0.0
C1485 C 0.70886 0.35686 0.19602 0.0
C1486 C 0.69494 0.35315 0.14581 0.0
C1487 C 0.67869 0.4079 0.13446 0.0
H1488 H 0.61689 0.35561 0.08051 0.0
C1489 C 0.59178 0.43004 0.09809 0.0
C1490 C 0.58529 0.42724 0.06856 0.0
C1491 C 0.60895 0.41935 0.10772 0.0
C1492 C 0.63458 0.37025 0.0949 0.0
H1493 H 0.69994 0.38564 0.22629 0.0
H1494 H 0.6798 0.39985 0.18967 0.0
H1495 H 0.64531 0.34153 0.10965 0.0
H1496 H 0.58883 0.40855 0.02582 0.0
H1497 H 0.61906 0.38917 0.04309 0.0
H1498 H 0.66691 0.43655 0.12123 0.0
C1499 C 0.68762 0.38482 0.18301 0.0
C1500 C 0.65072 0.3623 0.11152 0.0
C1501 C 0.69917 0.37673 0.20393 0.0
C1502 C 0.59407 0.41135 0.0487 0.0
C1503 C 0.61128 0.4004 0.05845 0.0
C1504 C 0.66262 0.41579 0.11795 0.0
C1505 C 0.68543 0.37307 0.15386 0.0
C1506 C 0.67212 0.38113 0.13223 0.0
C1507 C 0.61953 0.40534 0.08799 0.0
C1508 C 0.63986 0.39698 0.09908 0.0
H1509 H 0.71436 0.33 0.1601 0.0
H1510 H 0.69336 0.3439 0.12337 0.0
H1511 H 0.69536 0.42268 0.15008 0.0
H1512 H 0.58431 0.44128 0.11384 0.0
H1513 H 0.61455 0.42261 0.13065 0.0
C1514 C 0.70995 0.71518 0.1871 0.0
C1515 C 0.72532 0.70452 0.20115 0.0
C1516 C 0.69902 0.70426 0.15815 0.0
C1517 C 0.66293 0.66708 0.10438 0.0
H1518 H 0.69147 0.62133 0.05834 0.0
C1519 C 0.61139 0.56105 0.0579 0.0
C1520 C 0.58854 0.55912 0.04051 0.0
C1521 C 0.63524 0.58326 0.06234 0.0
C1522 C 0.68365 0.63469 0.07037 0.0
H1523 H 0.74126 0.67427 0.19672 0.0
H1524 H 0.7201 0.65351 0.14707 0.0
H1525 H 0.72064 0.65574 0.09946 0.0
H1526 H 0.57286 0.57727 0.01238 0.0
H1527 H 0.6143 0.6171 0.02133 0.0
H1528 H 0.62573 0.64542 0.076 0.0
C1529 C 0.71753 0.67109 0.15759 0.0
C1530 C 0.70009 0.65402 0.09426 0.0
C1531 C 0.72907 0.68247 0.18626 0.0
C1532 C 0.59038 0.57858 0.02579 0.0
C1533 C 0.61406 0.60114 0.03072 0.0
C1534 C 0.64679 0.64829 0.0801 0.0
C1535 C 0.70271 0.68207 0.14297 0.0
C1536 C 0.68909 0.66874 0.11296 0.0
C1537 C 0.63622 0.60414 0.05013 0.0
C1538 C 0.65631 0.63046 0.06451 0.0
H1539 H 0.70763 0.7328 0.19805 0.0
H1540 H 0.68805 0.71349 0.14764 0.0
H1541 H 0.65369 0.67814 0.11792 0.0
H1542 H 0.61041 0.54596 0.06909 0.0
H1543 H 0.65193 0.58522 0.0777 0.0
C1544 C 0.37175 0.69342 0.16001 0.0
C1545 C 0.37985 0.69115 0.18741 0.0
C1546 C 0.38076 0.68272 0.13611 0.0
C1547 C 0.43445 0.66194 0.11525 0.0
H1548 H 0.38064 0.60984 0.05299 0.0
C1549 C 0.42532 0.56194 0.04429 0.0
C1550 C 0.45189 0.56965 0.03835 0.0
C1551 C 0.41457 0.5807 0.0524 0.0
C1552 C 0.39587 0.6247 0.06996 0.0
H1553 H 0.40347 0.67583 0.21132 0.0
H1554 H 0.41973 0.65774 0.16961 0.0
H1555 H 0.36677 0.63644 0.09041 0.0
H1556 H 0.4869 0.60203 0.0327 0.0
H1557 H 0.4679 0.6348 0.0464 0.0
H1558 H 0.46322 0.64895 0.09649 0.0
C1559 C 0.4066 0.66797 0.16676 0.0
C1560 C 0.388 0.63991 0.09119 0.0
C1561 C 0.39735 0.67833 0.19056 0.0
C1562 C 0.46643 0.59575 0.03751 0.0
C1563 C 0.4556 0.61444 0.0453 0.0
C1564 C 0.44231 0.64678 0.09413 0.0
C1565 C 0.3983 0.67006 0.13944 0.0
C1566 C 0.40714 0.65786 0.11445 0.0
C1567 C 0.43028 0.60728 0.05447 0.0
C1568 C 0.42291 0.62739 0.07189 0.0
H1569 H 0.35858 0.70356 0.15703 0.0
H1570 H 0.37422 0.68446 0.11511 0.0
H1571 H 0.44946 0.67588 0.13303 0.0
H1572 H 0.41382 0.54198 0.04543 0.0
H1573 H 0.39511 0.57469 0.05975 0.0
C1574 C 0.31887 0.34058 0.21962 0.0
C1575 C 0.32956 0.3301 0.23919 0.0
C1576 C 0.33601 0.35829 0.20586 0.0
C1577 C 0.39998 0.37281 0.17974 0.0
H1578 H 0.3945 0.43752 0.1709 0.0
C1579 C 0.44491 0.42488 0.09245 0.0
C1580 C 0.46135 0.45173 0.10198 0.0
C1581 C 0.42949 0.41149 0.11088 0.0
C1582 C 0.39628 0.41954 0.17334 0.0
H1583 H 0.36668 0.33072 0.2605 0.0
H1584 H 0.39648 0.36124 0.23599 0.0
H1585 H 0.36646 0.41232 0.20155 0.0
H1586 H 0.47409 0.48577 0.13799 0.0
H1587 H 0.44655 0.46235 0.17003 0.0
H1588 H 0.42919 0.37957 0.15097 0.0
C1589 C 0.37486 0.35578 0.23143 0.0
C1590 C 0.38022 0.40513 0.19071 0.0
C1591 C 0.35778 0.3384 0.24551 0.0
C1592 C 0.46165 0.46505 0.1301 0.0
C1593 C 0.44586 0.45173 0.14839 0.0
C1594 C 0.41565 0.38695 0.16201 0.0
C1595 C 0.3641 0.36552 0.21113 0.0
C1596 C 0.38191 0.38161 0.19399 0.0
C1597 C 0.42988 0.42478 0.13901 0.0
C1598 C 0.41384 0.41036 0.15854 0.0
H1599 H 0.29723 0.33465 0.2144 0.0
H1600 H 0.32724 0.36545 0.19019 0.0
H1601 H 0.40148 0.35461 0.18173 0.0
H1602 H 0.44428 0.41409 0.0709 0.0
H1603 H 0.41713 0.39074 0.1031 0.0
C1604 C 0.82492 0.70416 0.73801 0.0
C1605 C 0.81431 0.71904 0.72447 0.0
C1606 C 0.83857 0.68981 0.72351 0.0
C1607 C 0.85203 0.66331 0.65014 0.0
H1608 H 0.90956 0.65558 0.69528 0.0
C1609 C 0.92144 0.61417 0.59674 0.0
C1610 C 0.93112 0.59929 0.6115 0.0
C1611 C 0.90726 0.62884 0.60984 0.0
C1612 C 0.89335 0.65711 0.68221 0.0
H1613 H 0.8097 0.72987 0.6843 0.0
H1614 H 0.83396 0.70517 0.65901 0.0
H1615 H 0.88532 0.68065 0.71834 0.0
H1616 H 0.93238 0.58844 0.65224 0.0
H1617 H 0.90816 0.61388 0.67484 0.0
H1618 H 0.86039 0.63989 0.61392 0.0
C1619 C 0.8314 0.70434 0.68097 0.0
C1620 C 0.87924 0.67163 0.69558 0.0
C1621 C 0.8175 0.71869 0.69555 0.0
C1622 C 0.92601 0.59986 0.64001 0.0
C1623 C 0.91191 0.61459 0.65313 0.0
C1624 C 0.86625 0.64882 0.63671 0.0
C1625 C 0.84247 0.68982 0.69482 0.0
C1626 C 0.85811 0.67487 0.67992 0.0
C1627 C 0.90221 0.62939 0.63832 0.0
C1628 C 0.8871 0.64527 0.65252 0.0
H1629 H 0.82274 0.70352 0.7601 0.0
H1630 H 0.84589 0.67849 0.735 0.0
H1631 H 0.83582 0.66489 0.63714 0.0
H1632 H 0.92513 0.61495 0.57504 0.0
H1633 H 0.9007 0.64018 0.59764 0.0
C1634 C 0.35406 0.82338 0.72222 0.0
C1635 C 0.32613 0.80984 0.71346 0.0
C1636 C 0.36919 0.84135 0.7076 0.0
C1637 C 0.3601 0.88239 0.66013 0.0
H1638 H 0.4366 0.89947 0.65885 0.0
C1639 C 0.42991 0.96106 0.60704 0.0
C1640 C 0.45251 0.97996 0.62625 0.0
C1641 C 0.4134 0.93864 0.61498 0.0
C1642 C 0.41522 0.89477 0.65904 0.0
H1643 H 0.29229 0.8028 0.68157 0.0
H1644 H 0.31892 0.83324 0.65505 0.0
H1645 H 0.40988 0.86108 0.6754 0.0
H1646 H 0.47558 0.99043 0.66873 0.0
H1647 H 0.44691 0.95095 0.68232 0.0
H1648 H 0.36565 0.91602 0.64324 0.0
C1649 C 0.32902 0.83091 0.6739 0.0
C1650 C 0.39993 0.87293 0.66863 0.0
C1651 C 0.31378 0.81337 0.68893 0.0
C1652 C 0.45816 0.97627 0.6536 0.0
C1653 C 0.44196 0.95366 0.66129 0.0
C1654 C 0.37531 0.90393 0.65 0.0
C1655 C 0.35677 0.84568 0.68353 0.0
C1656 C 0.37231 0.86685 0.66999 0.0
C1657 C 0.41963 0.93464 0.64196 0.0
C1658 C 0.40306 0.91057 0.65005 0.0
H1659 H 0.364 0.82106 0.7412 0.0
H1660 H 0.39038 0.85262 0.71599 0.0
H1661 H 0.33903 0.87864 0.66129 0.0
H1662 H 0.42521 0.9634 0.58577 0.0
H1663 H 0.39621 0.92412 0.59981 0.0
C1664 C 0.17489 0.34958 0.64958 0.0
C1665 C 0.19589 0.36121 0.67318 0.0
C1666 C 0.16007 0.36345 0.64113 0.0
C1667 C 0.16142 0.43162 0.65043 0.0
H1668 H 0.08612 0.39371 0.61661 0.0
C1669 C 0.09142 0.48496 0.62572 0.0
C1670 C 0.07284 0.4738 0.60006 0.0
C1671 C 0.10644 0.47154 0.63509 0.0
C1672 C 0.1072 0.40465 0.62575 0.0
H1673 H 0.21731 0.39685 0.7065 0.0
H1674 H 0.19139 0.42082 0.69214 0.0
H1675 H 0.11183 0.37008 0.63216 0.0
H1676 H 0.05522 0.4392 0.56463 0.0
H1677 H 0.08154 0.41618 0.58062 0.0
H1678 H 0.15648 0.46627 0.64435 0.0
C1679 C 0.18665 0.40108 0.67966 0.0
C1680 C 0.12209 0.39101 0.63466 0.0
C1681 C 0.20158 0.38723 0.68801 0.0
C1682 C 0.06958 0.44871 0.58425 0.0
C1683 C 0.08449 0.43528 0.59365 0.0
C1684 C 0.14643 0.44529 0.64174 0.0
C1685 C 0.1656 0.38944 0.65606 0.0
C1686 C 0.14953 0.40421 0.64701 0.0
C1687 C 0.10319 0.44647 0.6192 0.0
C1688 C 0.11912 0.432 0.62911 0.0
H1689 H 0.17016 0.32982 0.63715 0.0
H1690 H 0.14456 0.35382 0.62246 0.0
H1691 H 0.18254 0.44261 0.65931 0.0
H1692 H 0.09462 0.50424 0.63844 0.0
H1693 H 0.1204 0.48072 0.65503 0.0
C1694 C 0.74271 0.20977 0.66458 0.0
C1695 C 0.7586 0.21093 0.68949 0.0
C1696 C 0.73772 0.18992 0.64001 0.0
C1697 C 0.72296 0.1444 0.59096 0.0
H1698 H 0.69336 0.08547 0.62515 0.0
C1699 C 0.61153 0.08057 0.56308 0.0
C1700 C 0.60009 0.08097 0.58854 0.0
C1701 C 0.63918 0.08644 0.5638 0.0
C1702 C 0.70169 0.10149 0.61488 0.0
H1703 H 0.78461 0.19426 0.70708 0.0
H1704 H 0.77555 0.15915 0.66403 0.0
H1705 H 0.7354 0.12113 0.64817 0.0
H1706 H 0.60847 0.08665 0.63462 0.0
H1707 H 0.65644 0.09787 0.63625 0.0
H1708 H 0.68689 0.12667 0.56034 0.0
C1709 C 0.76659 0.17339 0.66368 0.0
C1710 C 0.72614 0.12194 0.62792 0.0
C1711 C 0.77159 0.19337 0.68842 0.0
C1712 C 0.61666 0.08651 0.61464 0.0
C1713 C 0.64419 0.09239 0.61543 0.0
C1714 C 0.69805 0.1243 0.5784 0.0
C1715 C 0.74842 0.1706 0.63969 0.0
C1716 C 0.73504 0.14509 0.61811 0.0
C1717 C 0.65594 0.09281 0.59009 0.0
C1718 C 0.68583 0.10438 0.59246 0.0
H1719 H 0.73289 0.22336 0.66439 0.0
H1720 H 0.72343 0.18856 0.62225 0.0
H1721 H 0.73029 0.16135 0.58191 0.0
H1722 H 0.59908 0.07548 0.54256 0.0
H1723 H 0.64752 0.0865 0.54391 0.0
C1724 C 0.84234 0.32664 0.36018 0.0
C1725 C 0.83452 0.29955 0.3493 0.0
C1726 C 0.85411 0.33837 0.38863 0.0
C1727 C 0.90045 0.34371 0.44197 0.0
H1728 H 0.86936 0.3906 0.48086 0.0
C1729 C 0.96319 0.45287 0.49334 0.0
C1730 C 0.9569 0.46401 0.47162 0.0
C1731 C 0.94613 0.4277 0.49489 0.0
C1732 C 0.87823 0.37713 0.47137 0.0
H1733 H 0.83342 0.26356 0.35972 0.0
H1734 H 0.85517 0.28473 0.40996 0.0
H1735 H 0.83987 0.34835 0.44955 0.0
H1736 H 0.92774 0.45854 0.43538 0.0
H1737 H 0.89752 0.4149 0.43842 0.0
H1738 H 0.93901 0.3741 0.46073 0.0
C1739 C 0.85145 0.29645 0.39622 0.0
C1740 C 0.86137 0.35293 0.45347 0.0
C1741 C 0.83928 0.28451 0.36753 0.0
C1742 C 0.93288 0.45029 0.45229 0.0
C1743 C 0.91554 0.42555 0.4543 0.0
C1744 C 0.91734 0.36785 0.46012 0.0
C1745 C 0.8585 0.32342 0.40696 0.0
C1746 C 0.87261 0.33753 0.43631 0.0
C1747 C 0.92225 0.41385 0.47522 0.0
C1748 C 0.90633 0.38575 0.47234 0.0
H1749 H 0.83921 0.33889 0.34681 0.0
H1750 H 0.86016 0.35938 0.39632 0.0
H1751 H 0.90952 0.33205 0.42902 0.0
H1752 H 0.98183 0.46318 0.5083 0.0
H1753 H 0.95187 0.41882 0.51082 0.0
C1754 C 0.67915 0.83931 0.36826 0.0
C1755 C 0.68313 0.82189 0.38342 0.0
C1756 C 0.66784 0.85663 0.38028 0.0
C1757 C 0.65407 0.88749 0.44892 0.0
H1758 H 0.60279 0.8996 0.39903 0.0
C1759 C 0.5917 0.94733 0.48973 0.0
C1760 C 0.5905 0.96526 0.47383 0.0
C1761 C 0.60304 0.92938 0.47964 0.0
C1762 C 0.6172 0.89648 0.41312 0.0
H1763 H 0.67858 0.80896 0.42301 0.0
H1764 H 0.65753 0.83852 0.44354 0.0
H1765 H 0.62244 0.86865 0.37949 0.0
H1766 H 0.60128 0.9794 0.4357 0.0
H1767 H 0.62065 0.94781 0.41794 0.0
H1768 H 0.64857 0.91533 0.48259 0.0
C1769 C 0.66376 0.83912 0.42264 0.0
C1770 C 0.62848 0.87887 0.40197 0.0
C1771 C 0.67543 0.82199 0.41075 0.0
C1772 C 0.60126 0.96531 0.448 0.0
C1773 C 0.61242 0.94734 0.43788 0.0
C1774 C 0.64263 0.90503 0.46013 0.0
C1775 C 0.65985 0.85654 0.40746 0.0
C1776 C 0.64723 0.87445 0.41969 0.0
C1777 C 0.61318 0.92914 0.4535 0.0
C1778 C 0.62436 0.90981 0.4422 0.0
H1779 H 0.68455 0.83942 0.34697 0.0
H1780 H 0.66543 0.87016 0.36831 0.0
H1781 H 0.66871 0.88462 0.46295 0.0
H1782 H 0.58344 0.94683 0.50964 0.0
H1783 H 0.60336 0.91537 0.49191 0.0
C1784 C 0.25725 0.72473 0.35792 0.0
C1785 C 0.24429 0.73169 0.33647 0.0
C1786 C 0.24281 0.7131 0.37808 0.0
C1787 C 0.17793 0.70015 0.40693 0.0
H1788 H 0.18162 0.63375 0.41126 0.0
C1789 C 0.08701 0.60768 0.40312 0.0
C1790 C 0.08802 0.5912 0.42101 0.0
C1791 C 0.10959 0.63022 0.40374 0.0
C1792 C 0.18081 0.65257 0.41099 0.0
H1793 H 0.20631 0.73262 0.31985 0.0
H1794 H 0.18119 0.71205 0.35443 0.0
H1795 H 0.21659 0.66451 0.39154 0.0
H1796 H 0.11302 0.58566 0.45429 0.0
H1797 H 0.15316 0.6248 0.45442 0.0
H1798 H 0.14083 0.68709 0.42405 0.0
C1799 C 0.20255 0.71591 0.35611 0.0
C1800 C 0.20083 0.67021 0.39972 0.0
C1801 C 0.21688 0.7274 0.33599 0.0
C1802 C 0.1118 0.59803 0.44018 0.0
C1803 C 0.13467 0.62037 0.44034 0.0
C1804 C 0.1578 0.68243 0.41791 0.0
C1805 C 0.21525 0.70843 0.37723 0.0
C1806 C 0.19874 0.69351 0.39615 0.0
C1807 C 0.13375 0.63647 0.4219 0.0
C1808 C 0.1584 0.65796 0.41865 0.0
H1809 H 0.27844 0.72797 0.35894 0.0
H1810 H 0.25309 0.70754 0.39414 0.0
H1811 H 0.1762 0.71829 0.40508 0.0
H1812 H 0.06884 0.60302 0.38839 0.0
H1813 H 0.10851 0.64216 0.38903 0.0
C1814 C 0.3835 0.22402 0.39207 0.0
C1815 C 0.36946 0.23705 0.40803 0.0
C1816 C 0.39342 0.20817 0.40371 0.0
C1817 C 0.41271 0.19469 0.4709 0.0
H1818 H 0.40425 0.12872 0.41984 0.0
C1819 C 0.45147 0.12019 0.50384 0.0
C1820 C 0.46733 0.11279 0.48459 0.0
C1821 C 0.4365 0.13411 0.49653 0.0
C1822 C 0.40657 0.14703 0.43431 0.0
H1823 H 0.35534 0.24461 0.44877 0.0
H1824 H 0.37278 0.21652 0.46933 0.0
H1825 H 0.38385 0.15632 0.4034 0.0
H1826 H 0.48082 0.11491 0.44319 0.0
H1827 H 0.45419 0.13854 0.43025 0.0
H1828 H 0.43597 0.18543 0.50158 0.0
C1829 C 0.37613 0.21874 0.44787 0.0
C1830 C 0.39508 0.16282 0.42493 0.0
C1831 C 0.36624 0.23476 0.4362 0.0
C1832 C 0.46814 0.11964 0.45808 0.0
C1833 C 0.45301 0.13322 0.4507 0.0
C1834 C 0.42413 0.17876 0.48036 0.0
C1835 C 0.38934 0.205 0.43145 0.0
C1836 C 0.39875 0.18711 0.44284 0.0
C1837 C 0.43706 0.14045 0.46981 0.0
C1838 C 0.42173 0.15524 0.46177 0.0
H1839 H 0.38661 0.22593 0.37046 0.0
H1840 H 0.40421 0.19831 0.39093 0.0
H1841 H 0.41586 0.21341 0.485 0.0
H1842 H 0.45046 0.11505 0.52437 0.0
H1843 H 0.42428 0.13965 0.51151 0.0
C1844 C 0.69721 0.86709 0.6935 0.0
C1845 C 0.68607 0.84026 0.67951 0.0
C1846 C 0.6849 0.88373 0.68752 0.0
C1847 C 0.63743 0.88864 0.63214 0.0
H1848 H 0.63236 0.94208 0.69343 0.0
C1849 C 0.57316 0.94717 0.6131 0.0
C1850 C 0.5829 0.97381 0.62759 0.0
C1851 C 0.5861 0.93122 0.61961 0.0
C1852 C 0.63392 0.92751 0.67599 0.0
H1853 H 0.65264 0.80982 0.64893 0.0
H1854 H 0.63141 0.8388 0.63839 0.0
H1855 H 0.65438 0.91376 0.70459 0.0
H1856 H 0.61417 0.00465 0.66001 0.0
H1857 H 0.63694 0.97691 0.67115 0.0
H1858 H 0.61717 0.9024 0.60349 0.0
C1859 C 0.64994 0.84708 0.65361 0.0
C1860 C 0.64652 0.91125 0.68241 0.0
C1861 C 0.66217 0.83046 0.65964 0.0
C1862 C 0.60595 0.98413 0.64869 0.0
C1863 C 0.61897 0.9682 0.65513 0.0
C1864 C 0.62493 0.90494 0.6257 0.0
C1865 C 0.66121 0.87392 0.66737 0.0
C1866 C 0.64829 0.89155 0.66057 0.0
C1867 C 0.60918 0.94154 0.64068 0.0
C1868 C 0.6229 0.9245 0.64755 0.0
H1869 H 0.71577 0.8754 0.70865 0.0
H1870 H 0.69425 0.90438 0.69825 0.0
H1871 H 0.63888 0.87396 0.61474 0.0
H1872 H 0.55515 0.93845 0.59711 0.0
H1873 H 0.57766 0.91067 0.60844 0.0
C1874 C 0.72304 0.19427 0.31099 0.0
C1875 C 0.73528 0.2218 0.31918 0.0
C1876 C 0.70687 0.18027 0.32862 0.0
C1877 C 0.69494 0.18495 0.40347 0.0
H1878 H 0.62516 0.12938 0.37049 0.0
C1879 C 0.62006 0.13252 0.47415 0.0
C1880 C 0.60408 0.10571 0.46326 0.0
C1881 C 0.63621 0.14708 0.45689 0.0
C1882 C 0.64477 0.14454 0.38007 0.0
H1883 H 0.74033 0.2562 0.35242 0.0
H1884 H 0.71237 0.23175 0.38314 0.0
H1885 H 0.65319 0.15347 0.3396 0.0
H1886 H 0.59304 0.07295 0.42605 0.0
H1887 H 0.62178 0.09789 0.39647 0.0
H1888 H 0.68694 0.17574 0.44383 0.0
C1889 C 0.71525 0.22101 0.36312 0.0
C1890 C 0.66077 0.1584 0.36231 0.0
C1891 C 0.73111 0.235 0.34539 0.0
C1892 C 0.60495 0.09365 0.43501 0.0
C1893 C 0.6213 0.10806 0.41793 0.0
C1894 C 0.67909 0.17087 0.42122 0.0
C1895 C 0.70293 0.19351 0.35493 0.0
C1896 C 0.68602 0.17873 0.37381 0.0
C1897 C 0.63695 0.13504 0.42847 0.0
C1898 C 0.65379 0.15042 0.40975 0.0
H1899 H 0.72587 0.18353 0.29096 0.0
H1900 H 0.69777 0.15905 0.32187 0.0
H1901 H 0.71445 0.20039 0.41289 0.0
H1902 H 0.6197 0.14237 0.49581 0.0
H1903 H 0.64769 0.16786 0.46569 0.0
C1904 C 0.83853 0.70989 0.28017 0.0
C1905 C 0.81725 0.71387 0.29364 0.0
C1906 C 0.85262 0.69501 0.28924 0.0
C1907 C 0.86118 0.65931 0.34916 0.0
H1908 H 0.90559 0.63687 0.29894 0.0
C1909 C 0.92602 0.60114 0.38723 0.0
C1910 C 0.93841 0.58781 0.36802 0.0
C1911 C 0.91159 0.61604 0.37863 0.0
C1912 C 0.89332 0.64248 0.31369 0.0
H1913 H 0.79509 0.70414 0.32851 0.0
H1914 H 0.81886 0.67838 0.34398 0.0
H1915 H 0.88081 0.66121 0.28396 0.0
H1916 H 0.94346 0.58145 0.32297 0.0
H1917 H 0.91897 0.60623 0.30849 0.0
H1918 H 0.87311 0.63987 0.37855 0.0
C1919 C 0.82517 0.68696 0.32616 0.0
C1920 C 0.87887 0.65725 0.30494 0.0
C1921 C 0.81103 0.70193 0.31702 0.0
C1922 C 0.93503 0.59076 0.33941 0.0
C1923 C 0.92055 0.60562 0.33081 0.0
C1924 C 0.87555 0.64439 0.35787 0.0
C1925 C 0.84655 0.68285 0.31257 0.0
C1926 C 0.86224 0.66637 0.32231 0.0
C1927 C 0.90821 0.61893 0.35004 0.0
C1928 C 0.89228 0.63535 0.34051 0.0
H1929 H 0.84459 0.71846 0.26224 0.0
H1930 H 0.86874 0.69351 0.27774 0.0
H1931 H 0.84931 0.66545 0.36407 0.0
H1932 H 0.92738 0.60042 0.40951 0.0
H1933 H 0.9033 0.62557 0.39506 0.0
C1934 C 0.34387 0.81976 0.37146 0.0
C1935 C 0.32488 0.82457 0.35451 0.0
C1936 C 0.35704 0.83689 0.39804 0.0
C1937 C 0.3583 0.89617 0.45161 0.0
H1938 H 0.43428 0.90921 0.46751 0.0
C1939 C 0.4455 0.99512 0.5001 0.0
C1940 C 0.4676 0.99599 0.51794 0.0
C1941 C 0.42287 0.97166 0.49007 0.0
C1942 C 0.41295 0.90542 0.46387 0.0
H1943 H 0.3043 0.85069 0.35221 0.0
H1944 H 0.32851 0.88163 0.39763 0.0
H1945 H 0.40534 0.87259 0.42898 0.0
H1946 H 0.48309 0.97388 0.54087 0.0
H1947 H 0.44367 0.93243 0.52263 0.0
H1948 H 0.36704 0.93084 0.48518 0.0
C1949 C 0.33263 0.86414 0.39113 0.0
C1950 C 0.3962 0.88431 0.44166 0.0
C1951 C 0.31893 0.84659 0.36486 0.0
C1952 C 0.46606 0.97363 0.52736 0.0
C1953 C 0.4436 0.94998 0.51688 0.0
C1954 C 0.37528 0.91768 0.47351 0.0
C1955 C 0.35214 0.85972 0.40801 0.0
C1956 C 0.36878 0.87981 0.43454 0.0
C1957 C 0.42235 0.94855 0.49712 0.0
C1958 C 0.40293 0.9229 0.47927 0.0
H1959 H 0.34839 0.80256 0.36427 0.0
H1960 H 0.37126 0.83227 0.41061 0.0
H1961 H 0.33717 0.89296 0.44744 0.0
H1962 H 0.44646 0.01217 0.49247 0.0
H1963 H 0.40693 0.97109 0.47468 0.0
C1964 C 0.2065 0.31299 0.27592 0.0
C1965 C 0.22881 0.31409 0.29433 0.0
C1966 C 0.19047 0.32785 0.28452 0.0
C1967 C 0.18119 0.37708 0.35022 0.0
H1968 H 0.12521 0.37606 0.29511 0.0
C1969 C 0.11338 0.43915 0.38648 0.0
C1970 C 0.09257 0.44024 0.36742 0.0
C1971 C 0.12944 0.42428 0.37784 0.0
C1972 C 0.14058 0.37708 0.3114 0.0
H1973 H 0.25062 0.33314 0.33739 0.0
H1974 H 0.22373 0.35856 0.35213 0.0
H1975 H 0.15227 0.35135 0.28067 0.0
H1976 H 0.07418 0.42434 0.32258 0.0
H1977 H 0.10121 0.39948 0.30803 0.0
H1978 H 0.16969 0.403 0.38089 0.0
C1979 C 0.21796 0.34608 0.33065 0.0
C1980 C 0.15667 0.36225 0.3028 0.0
C1981 C 0.23396 0.33118 0.32201 0.0
C1982 C 0.08937 0.42505 0.33888 0.0
C1983 C 0.10546 0.41018 0.33023 0.0
C1984 C 0.16514 0.39196 0.3588 0.0
C1985 C 0.19546 0.34509 0.3123 0.0
C1986 C 0.17771 0.36155 0.32182 0.0
C1987 C 0.12625 0.4091 0.34931 0.0
C1988 C 0.14406 0.39265 0.3398 0.0
H1989 H 0.20122 0.30041 0.25442 0.0
H1990 H 0.17389 0.32541 0.26887 0.0
H1991 H 0.19645 0.37795 0.36655 0.0
H1992 H 0.11775 0.44994 0.40865 0.0
H1993 H 0.14455 0.42498 0.39422 0.0
C1994 C 0.34383 0.24771 0.69927 0.0
C1995 C 0.32334 0.23463 0.71388 0.0
C1996 C 0.3592 0.2348 0.68579 0.0
C1997 C 0.36006 0.16819 0.66157 0.0
H1998 H 0.43768 0.20631 0.67203 0.0
C1999 C 0.42905 0.11795 0.61654 0.0
C2000 C 0.45413 0.12438 0.6332 0.0
C2001 C 0.41336 0.13245 0.62384 0.0
C2002 C 0.41605 0.19532 0.66915 0.0
H2003 H 0.30155 0.19759 0.72441 0.0
H2004 H 0.32837 0.1755 0.70178 0.0
H2005 H 0.40909 0.2294 0.68853 0.0
H2006 H 0.48238 0.15149 0.67058 0.0
H2007 H 0.45441 0.17595 0.68412 0.0
H2008 H 0.36695 0.13383 0.64397 0.0
C2009 C 0.33271 0.19544 0.70024 0.0
C2010 C 0.39962 0.20868 0.67815 0.0
C2011 C 0.31746 0.20822 0.7135 0.0
C2012 C 0.46307 0.14576 0.65739 0.0
C2013 C 0.44719 0.16008 0.66492 0.0
C2014 C 0.37646 0.1548 0.65299 0.0
C2015 C 0.35407 0.20864 0.68662 0.0
C2016 C 0.37144 0.19519 0.6747 0.0
C2017 C 0.42208 0.15355 0.64828 0.0
C2018 C 0.40469 0.16814 0.65677 0.0
H2019 H 0.34876 0.26813 0.69941 0.0
H2020 H 0.37535 0.24539 0.67516 0.0
H2021 H 0.33841 0.15722 0.65824 0.0
H2022 H 0.4212 0.10136 0.59805 0.0
H2023 H 0.39433 0.12704 0.61026 0.0
C2024 C 0.79526 0.33253 0.70127 0.0
C2025 C 0.80752 0.31877 0.71475 0.0
C2026 C 0.8088 0.34822 0.68317 0.0
C2027 C 0.87795 0.38356 0.66703 0.0
H2028 H 0.84066 0.38365 0.59539 0.0
C2029 C 0.93835 0.4354 0.58633 0.0
C2030 C 0.92777 0.44929 0.57112 0.0
C2031 C 0.92251 0.41882 0.60219 0.0
C2032 C 0.85142 0.38417 0.61545 0.0
H2033 H 0.84395 0.31106 0.71943 0.0
H2034 H 0.86739 0.33835 0.68843 0.0
H2035 H 0.81564 0.35702 0.62654 0.0
H2036 H 0.89147 0.45558 0.56007 0.0
H2037 H 0.86372 0.42669 0.58787 0.0
H2038 H 0.91357 0.41085 0.65645 0.0
C2039 C 0.84734 0.33718 0.69185 0.0
C2040 C 0.83699 0.36881 0.6334 0.0
C2041 C 0.83374 0.32132 0.70962 0.0
C2042 C 0.90034 0.44516 0.57134 0.0
C2043 C 0.8844 0.42852 0.58739 0.0
C2044 C 0.89229 0.39897 0.64925 0.0
C2045 C 0.83515 0.35093 0.67827 0.0
C2046 C 0.85009 0.36804 0.65937 0.0
C2047 C 0.89543 0.41554 0.60369 0.0
C2048 C 0.87943 0.39938 0.62293 0.0
H2049 H 0.77507 0.33101 0.7045 0.0
H2050 H 0.79872 0.35857 0.67333 0.0
H2051 H 0.88876 0.38406 0.68706 0.0
H2052 H 0.95929 0.43784 0.58664 0.0
H2053 H 0.93175 0.40874 0.61358 0.0
C2054 C 0.23744 0.69936 0.67023 0.0
C2055 C 0.2304 0.71765 0.68897 0.0
C2056 C 0.2199 0.68301 0.64495 0.0
C2057 C 0.16031 0.67588 0.59454 0.0
H2058 H 0.1465 0.60174 0.57656 0.0
C2059 C 0.06099 0.59514 0.52961 0.0
C2060 C 0.0616 0.57285 0.51109 0.0
C2061 C 0.08483 0.61485 0.54577 0.0
C2062 C 0.15046 0.62246 0.58087 0.0
H2063 H 0.19938 0.73322 0.69524 0.0
H2064 H 0.16905 0.70494 0.65148 0.0
H2065 H 0.18193 0.63192 0.61595 0.0
H2066 H 0.08759 0.55384 0.49424 0.0
H2067 H 0.12945 0.5881 0.52312 0.0
H2068 H 0.12818 0.66623 0.56006 0.0
C2069 C 0.18818 0.70325 0.65614 0.0
C2070 C 0.1708 0.63982 0.60356 0.0
C2071 C 0.20554 0.71938 0.68147 0.0
C2072 C 0.08666 0.57102 0.50819 0.0
C2073 C 0.11054 0.59051 0.52489 0.0
C2074 C 0.13994 0.65852 0.57193 0.0
C2075 C 0.19497 0.6847 0.63754 0.0
C2076 C 0.17555 0.66669 0.61123 0.0
C2077 C 0.10984 0.61243 0.54439 0.0
C2078 C 0.13425 0.63146 0.56526 0.0
H2079 H 0.2564 0.69744 0.67523 0.0
H2080 H 0.22595 0.66911 0.63112 0.0
H2081 H 0.16378 0.6965 0.59929 0.0
H2082 H 0.04189 0.59691 0.5323 0.0
H2083 H 0.08341 0.63129 0.56062 0.0
loop_
_geom_bond_atom_site_label_1
_geom_bond_atom_site_label_2
_geom_bond_distance
_geom_bond_site_symmetry_2
_ccdc_geom_bond_type
Tb0 C10 2.825 . S
Tb0 O11 2.347 . S
Tb0 O14 2.366 . S
Tb0 O19 2.418 . S
Tb0 O20 2.384 . S
Tb0 O23 2.479 . S
Tb0 O24 2.471 . S
Eu1 O12 2.418 . S
Eu1 O13 2.384 . S
Eu1 O16 2.479 . S
Eu1 O17 2.471 . S
Eu1 O18 2.347 . S
Eu1 O21 2.366 . S
Eu1 C31 2.825 . S
C2 O18 1.259 . S
C2 O19 1.265 . S
C3 O20 1.255 . S
C3 O21 1.265 . S
C4 C6 1.380 . S
C4 C7 1.374 . S
C4 C10 1.507 . S
C5 C6 1.384 . S
C5 C9 1.387 . S
C5 H32 0.930 . S
C6 C4 1.380 . S
C6 C5 1.384 . S
C6 H33 0.931 . S
C7 C4 1.374 . S
C7 C8 1.390 . S
C7 H34 0.930 . S
C8 C7 1.390 . S
C8 C9 1.391 . S
C8 H35 0.930 . S
C9 C5 1.387 . S
C9 C8 1.391 . S
C10 Tb0 2.825 . S
C10 C4 1.507 . S
C10 O23 1.238 . S
C10 O24 1.247 . S
O11 Tb0 2.347 . S
O11 C15 1.259 . S
O12 Eu1 2.418 . S
O12 C15 1.265 . S
O13 Eu1 2.384 . S
O13 C22 1.255 . S
O14 Tb0 2.366 . S
O14 C22 1.265 . S
C15 O11 1.259 . S
C15 O12 1.265 . S
O16 Eu1 2.479 . S
O16 C31 1.238 . S
O17 Eu1 2.471 . S
O17 C31 1.247 . S
O18 Eu1 2.347 . S
O18 C2 1.259 . S
O19 Tb0 2.418 . S
O19 C2 1.265 . S
O20 Tb0 2.384 . S
O20 C3 1.255 . S
O21 Eu1 2.366 . S
O21 C3 1.265 . S
C22 O13 1.255 . S
C22 O14 1.265 . S
O23 Tb0 2.479 . S
O23 C10 1.238 . S
O24 Tb0 2.471 . S
O24 C10 1.247 . S
C25 C28 1.380 . S
C25 C29 1.374 . S
C25 C31 1.507 . S
C26 C27 1.387 . S
C26 C30 1.391 . S
C27 C26 1.387 . S
C27 C28 1.384 . S
C27 H36 0.930 . S
C28 C25 1.380 . S
C28 C27 1.384 . S
C28 H37 0.931 . S
C29 C25 1.374 . S
C29 C30 1.390 . S
C29 H38 0.930 . S
C30 C26 1.391 . S
C30 C29 1.390 . S
C30 H39 0.930 . S
C31 Eu1 2.825 . S
C31 O16 1.238 . S
C31 O17 1.247 . S
C31 C25 1.507 . S
H32 C5 0.930 . S
H33 C6 0.931 . S
H34 C7 0.930 . S
H35 C8 0.930 . S
H36 C27 0.930 . S
H37 C28 0.931 . S
H38 C29 0.930 . S
H39 C30 0.930 . S
Tb40 C50 2.825 . S
Tb40 O51 2.347 . S
Tb40 O54 2.366 . S
Tb40 O59 2.418 . S
Tb40 O60 2.384 . S
Tb40 O63 2.479 . S
Tb40 O64 2.471 . S
Eu41 O52 2.418 . S
Eu41 O53 2.384 . S
Eu41 O56 2.479 . S
Eu41 O57 2.471 . S
Eu41 O58 2.347 . S
Eu41 O61 2.366 . S
Eu41 C71 2.825 . S
C42 O58 1.259 . S
C42 O59 1.265 . S
C43 O60 1.255 . S
C43 O61 1.265 . S
C44 C46 1.380 . S
C44 C47 1.374 . S
C44 C50 1.507 . S
C45 C46 1.384 . S
C45 C49 1.387 . S
C45 H72 0.930 . S
C46 C44 1.380 . S
C46 C45 1.384 . S
C46 H73 0.931 . S
C47 C44 1.374 . S
C47 C48 1.390 . S
C47 H74 0.930 . S
C48 C47 1.390 . S
C48 C49 1.391 . S
C48 H75 0.930 . S
C49 C45 1.387 . S
C49 C48 1.391 . S
C50 Tb40 2.825 . S
C50 C44 1.507 . S
C50 O63 1.238 . S
C50 O64 1.247 . S
O51 Tb40 2.347 . S
O51 C55 1.259 . S
O52 Eu41 2.418 . S
O52 C55 1.265 . S
O53 Eu41 2.384 . S
O53 C62 1.255 . S
O54 Tb40 2.366 . S
O54 C62 1.265 . S
C55 O51 1.259 . S
C55 O52 1.265 . S
O56 Eu41 2.479 . S
O56 C71 1.238 . S
O57 Eu41 2.471 . S
O57 C71 1.247 . S
O58 Eu41 2.347 . S
O58 C42 1.259 . S
O59 Tb40 2.418 . S
O59 C42 1.265 . S
O60 Tb40 2.384 . S
O60 C43 1.255 . S
O61 Eu41 2.366 . S
O61 C43 1.265 . S
C62 O53 1.255 . S
C62 O54 1.265 . S
O63 Tb40 2.479 . S
O63 C50 1.238 . S
O64 Tb40 2.471 . S
O64 C50 1.247 . S
C65 C68 1.380 . S
C65 C69 1.374 . S
C65 C71 1.507 . S
C66 C67 1.387 . S
C66 C70 1.391 . S
C67 C66 1.387 . S
C67 C68 1.384 . S
C67 H76 0.930 . S
C68 C65 1.380 . S
C68 C67 1.384 . S
C68 H77 0.931 . S
C69 C65 1.374 . S
C69 C70 1.390 . S
C69 H78 0.930 . S
C70 C66 1.391 . S
C70 C69 1.390 . S
C70 H79 0.930 . S
C71 Eu41 2.825 . S
C71 O56 1.238 . S
C71 O57 1.247 . S
C71 C65 1.507 . S
H72 C45 0.930 . S
H73 C46 0.931 . S
H74 C47 0.930 . S
H75 C48 0.930 . S
H76 C67 0.930 . S
H77 C68 0.931 . S
H78 C69 0.930 . S
H79 C70 0.930 . S
Tb80 C90 2.825 . S
Tb80 O91 2.347 . S
Tb80 O94 2.366 . S
Tb80 O99 2.418 . S
Tb80 O100 2.384 . S
Tb80 O103 2.479 . S
Tb80 O104 2.471 . S
Eu81 O92 2.418 . S
Eu81 O93 2.384 . S
Eu81 O96 2.479 . S
Eu81 O97 2.471 . S
Eu81 O98 2.347 . S
Eu81 O101 2.366 . S
Eu81 C111 2.825 . S
C82 O98 1.259 . S
C82 O99 1.265 . S
C83 O100 1.255 . S
C83 O101 1.265 . S
C84 C86 1.380 . S
C84 C87 1.374 . S
C84 C90 1.507 . S
C85 C86 1.384 . S
C85 C89 1.387 . S
C85 H112 0.930 . S
C86 C84 1.380 . S
C86 C85 1.384 . S
C86 H113 0.931 . S
C87 C84 1.374 . S
C87 C88 1.390 . S
C87 H114 0.930 . S
C88 C87 1.390 . S
C88 C89 1.391 . S
C88 H115 0.930 . S
C89 C85 1.387 . S
C89 C88 1.391 . S
C90 Tb80 2.825 . S
C90 C84 1.507 . S
C90 O103 1.238 . S
C90 O104 1.247 . S
O91 Tb80 2.347 . S
O91 C95 1.259 . S
O92 Eu81 2.418 . S
O92 C95 1.265 . S
O93 Eu81 2.384 . S
O93 C102 1.255 . S
O94 Tb80 2.366 . S
O94 C102 1.265 . S
C95 O91 1.259 . S
C95 O92 1.265 . S
O96 Eu81 2.479 . S
O96 C111 1.238 . S
O97 Eu81 2.471 . S
O97 C111 1.247 . S
O98 Eu81 2.347 . S
O98 C82 1.259 . S
O99 Tb80 2.418 . S
O99 C82 1.265 . S
O100 Tb80 2.384 . S
O100 C83 1.255 . S
O101 Eu81 2.366 . S
O101 C83 1.265 . S
C102 O93 1.255 . S
C102 O94 1.265 . S
O103 Tb80 2.479 . S
O103 C90 1.238 . S
O104 Tb80 2.471 . S
O104 C90 1.247 . S
C105 C108 1.380 . S
C105 C109 1.374 . S
C105 C111 1.507 . S
C106 C107 1.387 . S
C106 C110 1.391 . S
C107 C106 1.387 . S
C107 C108 1.384 . S
C107 H116 0.930 . S
C108 C105 1.380 . S
C108 C107 1.384 . S
C108 H117 0.931 . S
C109 C105 1.374 . S
C109 C110 1.390 . S
C109 H118 0.930 . S
C110 C106 1.391 . S
C110 C109 1.390 . S
C110 H119 0.930 . S
C111 Eu81 2.825 . S
C111 O96 1.238 . S
C111 O97 1.247 . S
C111 C105 1.507 . S
H112 C85 0.930 . S
H113 C86 0.931 . S
H114 C87 0.930 . S
H115 C88 0.930 . S
H116 C107 0.930 . S
H117 C108 0.931 . S
H118 C109 0.930 . S
H119 C110 0.930 . S
Tb120 C130 2.825 . S
Tb120 O131 2.347 . S
Tb120 O134 2.366 . S
Tb120 O139 2.418 . S
Tb120 O140 2.384 . S
Tb120 O143 2.479 . S
Tb120 O144 2.471 . S
Eu121 O132 2.418 . S
Eu121 O133 2.384 . S
Eu121 O136 2.479 . S
Eu121 O137 2.471 . S
Eu121 O138 2.347 . S
Eu121 O141 2.366 . S
Eu121 C151 2.825 . S
C122 O138 1.259 . S
C122 O139 1.265 . S
C123 O140 1.255 . S
C123 O141 1.265 . S
C124 C126 1.380 . S
C124 C127 1.374 . S
C124 C130 1.507 . S
C125 C126 1.384 . S
C125 C129 1.387 . S
C125 H152 0.930 . S
C126 C124 1.380 . S
C126 C125 1.384 . S
C126 H153 0.931 . S
C127 C124 1.374 . S
C127 C128 1.390 . S
C127 H154 0.930 . S
C128 C127 1.390 . S
C128 C129 1.391 . S
C128 H155 0.930 . S
C129 C125 1.387 . S
C129 C128 1.391 . S
C130 Tb120 2.825 . S
C130 C124 1.507 . S
C130 O143 1.238 . S
C130 O144 1.247 . S
O131 Tb120 2.347 . S
O131 C135 1.259 . S
O132 Eu121 2.418 . S
O132 C135 1.265 . S
O133 Eu121 2.384 . S
O133 C142 1.255 . S
O134 Tb120 2.366 . S
O134 C142 1.265 . S
C135 O131 1.259 . S
C135 O132 1.265 . S
O136 Eu121 2.479 . S
O136 C151 1.238 . S
O137 Eu121 2.471 . S
O137 C151 1.247 . S
O138 Eu121 2.347 . S
O138 C122 1.259 . S
O139 Tb120 2.418 . S
O139 C122 1.265 . S
O140 Tb120 2.384 . S
O140 C123 1.255 . S
O141 Eu121 2.366 . S
O141 C123 1.265 . S
C142 O133 1.255 . S
C142 O134 1.265 . S
O143 Tb120 2.479 . S
O143 C130 1.238 . S
O144 Tb120 2.471 . S
O144 C130 1.247 . S
C145 C148 1.380 . S
C145 C149 1.374 . S
C145 C151 1.507 . S
C146 C147 1.387 . S
C146 C150 1.391 . S
C147 C146 1.387 . S
C147 C148 1.384 . S
C147 H156 0.930 . S
C148 C145 1.380 . S
C148 C147 1.384 . S
C148 H157 0.931 . S
C149 C145 1.374 . S
C149 C150 1.390 . S
C149 H158 0.930 . S
C150 C146 1.391 . S
C150 C149 1.390 . S
C150 H159 0.930 . S
C151 Eu121 2.825 . S
C151 O136 1.238 . S
C151 O137 1.247 . S
C151 C145 1.507 . S
H152 C125 0.930 . S
H153 C126 0.931 . S
H154 C127 0.930 . S
H155 C128 0.930 . S
H156 C147 0.930 . S
H157 C148 0.931 . S
H158 C149 0.930 . S
H159 C150 0.930 . S
Tb160 C170 2.825 . S
Tb160 O171 2.347 . S
Tb160 O174 2.366 . S
Tb160 O179 2.418 . S
Tb160 O180 2.384 . S
Tb160 O183 2.479 . S
Tb160 O184 2.471 . S
Eu161 O172 2.418 . S
Eu161 O173 2.384 . S
Eu161 O176 2.479 . S
Eu161 O177 2.471 . S
Eu161 O178 2.347 . S
Eu161 O181 2.366 . S
Eu161 C191 2.825 . S
C162 O178 1.259 . S
C162 O179 1.265 . S
C163 O180 1.255 . S
C163 O181 1.265 . S
C164 C166 1.380 . S
C164 C167 1.374 . S
C164 C170 1.507 . S
C165 C166 1.384 . S
C165 C169 1.387 . S
C165 H192 0.930 . S
C166 C164 1.380 . S
C166 C165 1.384 . S
C166 H193 0.931 . S
C167 C164 1.374 . S
C167 C168 1.390 . S
C167 H194 0.930 . S
C168 C167 1.390 . S
C168 C169 1.391 . S
C168 H195 0.930 . S
C169 C165 1.387 . S
C169 C168 1.391 . S
C170 Tb160 2.825 . S
C170 C164 1.507 . S
C170 O183 1.238 . S
C170 O184 1.247 . S
O171 Tb160 2.347 . S
O171 C175 1.259 . S
O172 Eu161 2.418 . S
O172 C175 1.265 . S
O173 Eu161 2.384 . S
O173 C182 1.255 . S
O174 Tb160 2.366 . S
O174 C182 1.265 . S
C175 O171 1.259 . S
C175 O172 1.265 . S
O176 Eu161 2.479 . S
O176 C191 1.238 . S
O177 Eu161 2.471 . S
O177 C191 1.247 . S
O178 Eu161 2.347 . S
O178 C162 1.259 . S
O179 Tb160 2.418 . S
O179 C162 1.265 . S
O180 Tb160 2.384 . S
O180 C163 1.255 . S
O181 Eu161 2.366 . S
O181 C163 1.265 . S
C182 O173 1.255 . S
C182 O174 1.265 . S
O183 Tb160 2.479 . S
O183 C170 1.238 . S
O184 Tb160 2.471 . S
O184 C170 1.247 . S
C185 C188 1.380 . S
C185 C189 1.374 . S
C185 C191 1.507 . S
C186 C187 1.387 . S
C186 C190 1.391 . S
C187 C186 1.387 . S
C187 C188 1.384 . S
C187 H196 0.930 . S
C188 C185 1.380 . S
C188 C187 1.384 . S
C188 H197 0.931 . S
C189 C185 1.374 . S
C189 C190 1.390 . S
C189 H198 0.930 . S
C190 C186 1.391 . S
C190 C189 1.390 . S
C190 H199 0.930 . S
C191 Eu161 2.825 . S
C191 O176 1.238 . S
C191 O177 1.247 . S
C191 C185 1.507 . S
H192 C165 0.930 . S
H193 C166 0.931 . S
H194 C167 0.930 . S
H195 C168 0.930 . S
H196 C187 0.930 . S
H197 C188 0.931 . S
H198 C189 0.930 . S
H199 C190 0.930 . S
Tb200 C210 2.825 . S
Tb200 O211 2.347 . S
Tb200 O214 2.366 . S
Tb200 O219 2.418 . S
Tb200 O220 2.384 . S
Tb200 O223 2.479 . S
Tb200 O224 2.471 . S
Eu201 O212 2.418 . S
Eu201 O213 2.384 . S
Eu201 O216 2.479 . S
Eu201 O217 2.471 . S
Eu201 O218 2.347 . S
Eu201 O221 2.366 . S
Eu201 C231 2.825 . S
C202 O218 1.259 . S
C202 O219 1.265 . S
C203 O220 1.255 . S
C203 O221 1.265 . S
C204 C206 1.380 . S
C204 C207 1.374 . S
C204 C210 1.507 . S
C205 C206 1.384 . S
C205 C209 1.387 . S
C205 H232 0.930 . S
C206 C204 1.380 . S
C206 C205 1.384 . S
C206 H233 0.931 . S
C207 C204 1.374 . S
C207 C208 1.390 . S
C207 H234 0.930 . S
C208 C207 1.390 . S
C208 C209 1.391 . S
C208 H235 0.930 . S
C209 C205 1.387 . S
C209 C208 1.391 . S
C210 Tb200 2.825 . S
C210 C204 1.507 . S
C210 O223 1.238 . S
C210 O224 1.247 . S
O211 Tb200 2.347 . S
O211 C215 1.259 . S
O212 Eu201 2.418 . S
O212 C215 1.265 . S
O213 Eu201 2.384 . S
O213 C222 1.255 . S
O214 Tb200 2.366 . S
O214 C222 1.265 . S
C215 O211 1.259 . S
C215 O212 1.265 . S
O216 Eu201 2.479 . S
O216 C231 1.238 . S
O217 Eu201 2.471 . S
O217 C231 1.247 . S
O218 Eu201 2.347 . S
O218 C202 1.259 . S
O219 Tb200 2.418 . S
O219 C202 1.265 . S
O220 Tb200 2.384 . S
O220 C203 1.255 . S
O221 Eu201 2.366 . S
O221 C203 1.265 . S
C222 O213 1.255 . S
C222 O214 1.265 . S
O223 Tb200 2.479 . S
O223 C210 1.238 . S
O224 Tb200 2.471 . S
O224 C210 1.247 . S
C225 C228 1.380 . S
C225 C229 1.374 . S
C225 C231 1.507 . S
C226 C227 1.387 . S
C226 C230 1.391 . S
C227 C226 1.387 . S
C227 C228 1.384 . S
C227 H236 0.930 . S
C228 C225 1.380 . S
C228 C227 1.384 . S
C228 H237 0.931 . S
C229 C225 1.374 . S
C229 C230 1.390 . S
C229 H238 0.930 . S
C230 C226 1.391 . S
C230 C229 1.390 . S
C230 H239 0.930 . S
C231 Eu201 2.825 . S
C231 O216 1.238 . S
C231 O217 1.247 . S
C231 C225 1.507 . S
H232 C205 0.930 . S
H233 C206 0.931 . S
H234 C207 0.930 . S
H235 C208 0.930 . S
H236 C227 0.930 . S
H237 C228 0.931 . S
H238 C229 0.930 . S
H239 C230 0.930 . S
Tb240 C250 2.825 . S
Tb240 O251 2.347 . S
Tb240 O254 2.366 . S
Tb240 O259 2.418 . S
Tb240 O260 2.384 . S
Tb240 O263 2.479 . S
Tb240 O264 2.471 . S
Eu241 O252 2.418 . S
Eu241 O253 2.384 . S
Eu241 O256 2.479 . S
Eu241 O257 2.471 . S
Eu241 O258 2.347 . S
Eu241 O261 2.366 . S
Eu241 C271 2.825 . S
C242 O258 1.259 . S
C242 O259 1.265 . S
C243 O260 1.255 . S
C243 O261 1.265 . S
C244 C246 1.380 . S
C244 C247 1.374 . S
C244 C250 1.507 . S
C245 C246 1.384 . S
C245 C249 1.387 . S
C245 H272 0.930 . S
C246 C244 1.380 . S
C246 C245 1.384 . S
C246 H273 0.931 . S
C247 C244 1.374 . S
C247 C248 1.390 . S
C247 H274 0.930 . S
C248 C247 1.390 . S
C248 C249 1.391 . S
C248 H275 0.930 . S
C249 C245 1.387 . S
C249 C248 1.391 . S
C250 Tb240 2.825 . S
C250 C244 1.507 . S
C250 O263 1.238 . S
C250 O264 1.247 . S
O251 Tb240 2.347 . S
O251 C255 1.259 . S
O252 Eu241 2.418 . S
O252 C255 1.265 . S
O253 Eu241 2.384 . S
O253 C262 1.255 . S
O254 Tb240 2.366 . S
O254 C262 1.265 . S
C255 O251 1.259 . S
C255 O252 1.265 . S
O256 Eu241 2.479 . S
O256 C271 1.238 . S
O257 Eu241 2.471 . S
O257 C271 1.247 . S
O258 Eu241 2.347 . S
O258 C242 1.259 . S
O259 Tb240 2.418 . S
O259 C242 1.265 . S
O260 Tb240 2.384 . S
O260 C243 1.255 . S
O261 Eu241 2.366 . S
O261 C243 1.265 . S
C262 O253 1.255 . S
C262 O254 1.265 . S
O263 Tb240 2.479 . S
O263 C250 1.238 . S
O264 Tb240 2.471 . S
O264 C250 1.247 . S
C265 C268 1.380 . S
C265 C269 1.374 . S
C265 C271 1.507 . S
C266 C267 1.387 . S
C266 C270 1.391 . S
C267 C266 1.387 . S
C267 C268 1.384 . S
C267 H276 0.930 . S
C268 C265 1.380 . S
C268 C267 1.384 . S
C268 H277 0.931 . S
C269 C265 1.374 . S
C269 C270 1.390 . S
C269 H278 0.930 . S
C270 C266 1.391 . S
C270 C269 1.390 . S
C270 H279 0.930 . S
C271 Eu241 2.825 . S
C271 O256 1.238 . S
C271 O257 1.247 . S
C271 C265 1.507 . S
H272 C245 0.930 . S
H273 C246 0.931 . S
H274 C247 0.930 . S
H275 C248 0.930 . S
H276 C267 0.930 . S
H277 C268 0.931 . S
H278 C269 0.930 . S
H279 C270 0.930 . S
Tb280 C290 2.825 . S
Tb280 O291 2.347 . S
Tb280 O294 2.366 . S
Tb280 O299 2.418 . S
Tb280 O300 2.384 . S
Tb280 O303 2.479 . S
Tb280 O304 2.471 . S
Eu281 O292 2.418 . S
Eu281 O293 2.384 . S
Eu281 O296 2.479 . S
Eu281 O297 2.471 . S
Eu281 O298 2.347 . S
Eu281 O301 2.366 . S
Eu281 C311 2.825 . S
C282 O298 1.259 . S
C282 O299 1.265 . S
C283 O300 1.255 . S
C283 O301 1.265 . S
C284 C286 1.380 . S
C284 C287 1.374 . S
C284 C290 1.507 . S
C285 C286 1.384 . S
C285 C289 1.387 . S
C285 H312 0.930 . S
C286 C284 1.380 . S
C286 C285 1.384 . S
C286 H313 0.931 . S
C287 C284 1.374 . S
C287 C288 1.390 . S
C287 H314 0.930 . S
C288 C287 1.390 . S
C288 C289 1.391 . S
C288 H315 0.930 . S
C289 C285 1.387 . S
C289 C288 1.391 . S
C290 Tb280 2.825 . S
C290 C284 1.507 . S
C290 O303 1.238 . S
C290 O304 1.247 . S
O291 Tb280 2.347 . S
O291 C295 1.259 . S
O292 Eu281 2.418 . S
O292 C295 1.265 . S
O293 Eu281 2.384 . S
O293 C302 1.255 . S
O294 Tb280 2.366 . S
O294 C302 1.265 . S
C295 O291 1.259 . S
C295 O292 1.265 . S
O296 Eu281 2.479 . S
O296 C311 1.238 . S
O297 Eu281 2.471 . S
O297 C311 1.247 . S
O298 Eu281 2.347 . S
O298 C282 1.259 . S
O299 Tb280 2.418 . S
O299 C282 1.265 . S
O300 Tb280 2.384 . S
O300 C283 1.255 . S
O301 Eu281 2.366 . S
O301 C283 1.265 . S
C302 O293 1.255 . S
C302 O294 1.265 . S
O303 Tb280 2.479 . S
O303 C290 1.238 . S
O304 Tb280 2.471 . S
O304 C290 1.247 . S
C305 C308 1.380 . S
C305 C309 1.374 . S
C305 C311 1.507 . S
C306 C307 1.387 . S
C306 C310 1.391 . S
C307 C306 1.387 . S
C307 C308 1.384 . S
C307 H316 0.930 . S
C308 C305 1.380 . S
C308 C307 1.384 . S
C308 H317 0.931 . S
C309 C305 1.374 . S
C309 C310 1.390 . S
C309 H318 0.930 . S
C310 C306 1.391 . S
C310 C309 1.390 . S
C310 H319 0.930 . S
C311 Eu281 2.825 . S
C311 O296 1.238 . S
C311 O297 1.247 . S
C311 C305 1.507 . S
H312 C285 0.930 . S
H313 C286 0.931 . S
H314 C287 0.930 . S
H315 C288 0.930 . S
H316 C307 0.930 . S
H317 C308 0.931 . S
H318 C309 0.930 . S
H319 C310 0.930 . S
Cd320 N323 2.339 1_645 S
Cd320 N349 2.300 . S
Cd320 O356 2.267 1_545 S
Cd320 O359 2.275 1_655 S
Cd320 O360 2.414 1_545 S
Cd320 O361 2.329 1_545 S
Cd321 N336 2.304 . S
Cd321 N340 2.334 . S
Cd321 O357 2.273 1_445 S
Cd321 O358 2.268 . S
Cd321 O362 2.417 . S
Cd321 O363 2.330 . S
C322 N323 1.332 . S
C322 C326 1.381 . S
C322 H328 0.915 1_565 S
N323 Cd320 2.339 1_465 S
N323 C322 1.332 . S
N323 C327 1.328 . S
C324 C325 1.396 . S
C324 C327 1.378 . S
C324 H366 0.931 . S
C325 C324 1.396 . S
C325 C326 1.382 . S
C326 C322 1.381 . S
C326 C325 1.382 . S
C326 H367 0.930 . S
C327 N323 1.328 . S
C327 C324 1.378 . S
C327 H329 0.930 . S
H328 C322 0.915 1_545 S
H329 C327 0.930 . S
C330 O356 1.238 . S
C330 O357 1.253 . S
C331 C332 1.379 . S
C331 N336 1.337 1_655 S
C331 H337 0.929 . S
C332 C331 1.379 . S
C332 C333 1.380 . S
C332 H368 0.929 . S
C333 C332 1.380 . S
C333 C334 1.399 . S
C334 C333 1.399 . S
C334 C335 1.376 1_655 S
C334 H369 0.931 1_655 S
C335 C334 1.376 1_455 S
C335 N336 1.338 . S
C335 H338 0.930 . S
N336 Cd321 2.304 . S
N336 C331 1.337 1_455 S
N336 C335 1.338 . S
H337 C331 0.929 . S
H338 C335 0.930 . S
C339 N340 1.332 1_565 S
C339 C343 1.381 . S
C339 H345 0.931 . S
N340 Cd321 2.334 . S
N340 C339 1.332 1_545 S
N340 C344 1.328 . S
C341 C342 1.396 . S
C341 C344 1.378 1_565 S
C341 H370 0.942 1_565 S
C342 C341 1.396 . S
C342 C343 1.382 . S
C343 C339 1.381 . S
C343 C342 1.382 . S
C343 H371 0.930 . S
C344 N340 1.328 . S
C344 C341 1.378 1_545 S
C344 H346 0.930 . S
H345 C339 0.931 . S
H346 C344 0.930 . S
C347 O358 1.238 . S
C347 O359 1.253 . S
C348 O360 1.239 . S
C348 O361 1.230 . S
N349 Cd320 2.300 . S
N349 C350 1.337 . S
N349 C354 1.338 . S
C350 N349 1.337 . S
C350 C351 1.379 . S
C350 H364 0.929 . S
C351 C350 1.379 . S
C351 C352 1.380 . S
C351 H372 0.929 . S
C352 C351 1.380 . S
C352 C353 1.399 . S
C353 C352 1.399 . S
C353 C354 1.376 . S
C353 H373 0.931 . S
C354 N349 1.338 . S
C354 C353 1.376 . S
C354 H365 0.930 . S
C355 O362 1.239 . S
C355 O363 1.230 . S
O356 Cd320 2.267 1_565 S
O356 C330 1.238 . S
O357 Cd321 2.273 1_665 S
O357 C330 1.253 . S
O358 Cd321 2.268 . S
O358 C347 1.238 . S
O359 Cd320 2.275 1_455 S
O359 C347 1.253 . S
O360 Cd320 2.414 1_565 S
O360 C348 1.239 . S
O361 Cd320 2.329 1_565 S
O361 C348 1.230 . S
O362 Cd321 2.417 . S
O362 C355 1.239 . S
O363 Cd321 2.330 . S
O363 C355 1.230 . S
H364 C350 0.929 . S
H365 C354 0.930 . S
H366 C324 0.931 . S
H367 C326 0.930 . S
H368 C332 0.929 . S
H369 C334 0.931 1_455 S
H370 C341 0.942 1_545 S
H371 C343 0.930 . S
H372 C351 0.929 . S
H373 C353 0.931 . S
Cd374 N377 2.334 . S
Cd374 N403 2.304 1_565 S
Cd374 O410 2.268 . S
Cd374 O413 2.273 1_565 S
Cd374 O414 2.417 . S
Cd374 O415 2.330 . S
Cd375 N390 2.304 . S
Cd375 N394 2.334 1_545 S
Cd375 O411 2.273 1_544 S
Cd375 O412 2.268 . S
Cd375 O416 2.417 1_554 S
Cd375 O417 2.330 1_554 S
C376 N377 1.332 . S
C376 C380 1.381 . S
C376 H382 0.931 . S
N377 Cd374 2.334 . S
N377 C376 1.332 . S
N377 C381 1.328 . S
C378 C379 1.396 . S
C378 C381 1.378 . S
C378 H420 0.931 . S
C379 C378 1.396 . S
C379 C380 1.382 . S
C380 C376 1.381 . S
C380 C379 1.382 . S
C380 H421 0.930 . S
C381 N377 1.328 . S
C381 C378 1.378 . S
C381 H383 0.930 . S
H382 C376 0.931 . S
H383 C381 0.930 . S
C384 O410 1.238 1_556 S
C384 O411 1.253 . S
C385 C386 1.379 . S
C385 N390 1.337 1_556 S
C385 H391 0.929 . S
C386 C385 1.379 . S
C386 C387 1.380 1_556 S
C386 H422 0.929 . S
C387 C386 1.380 1_554 S
C387 C388 1.399 . S
C388 C387 1.399 . S
C388 C389 1.376 . S
C388 H423 0.931 . S
C389 C388 1.376 . S
C389 N390 1.338 . S
C389 H392 0.930 . S
N390 Cd375 2.304 . S
N390 C385 1.337 1_554 S
N390 C389 1.338 . S
H391 C385 0.929 . S
H392 C389 0.930 . S
C393 N394 1.332 1_556 S
C393 C397 1.381 . S
C393 H399 0.931 . S
N394 Cd375 2.334 1_565 S
N394 C393 1.332 1_554 S
N394 C398 1.328 1_565 S
C395 C396 1.375 1_554 S
C395 C398 1.378 1_565 S
C395 H424 0.931 . S
C396 C395 1.375 1_556 S
C396 C397 1.405 . S
C397 C393 1.381 . S
C397 C396 1.405 . S
C397 H425 0.930 . S
C398 N394 1.328 1_545 S
C398 C395 1.378 1_545 S
C398 H400 0.930 . S
H399 C393 0.931 . S
H400 C398 0.930 . S
C401 O412 1.238 . S
C401 O413 1.253 . S
C402 O414 1.239 . S
C402 O415 1.230 . S
N403 Cd374 2.304 1_545 S
N403 C404 1.337 . S
N403 C408 1.338 . S
C404 N403 1.337 . S
C404 C405 1.379 . S
C404 H418 0.929 . S
C405 C404 1.379 . S
C405 C406 1.380 . S
C405 H426 0.929 . S
C406 C405 1.380 . S
C406 C407 1.399 . S
C407 C406 1.399 . S
C407 C408 1.376 . S
C407 H427 0.931 . S
C408 N403 1.338 . S
C408 C407 1.376 . S
C408 H419 0.930 1_545 S
C409 O416 1.239 . S
C409 O417 1.230 . S
O410 Cd374 2.268 . S
O410 C384 1.238 1_554 S
O411 Cd375 2.273 1_566 S
O411 C384 1.253 . S
O412 Cd375 2.268 . S
O412 C401 1.238 . S
O413 Cd374 2.273 1_545 S
O413 C401 1.253 . S
O414 Cd374 2.417 . S
O414 C402 1.239 . S
O415 Cd374 2.330 . S
O415 C402 1.230 . S
O416 Cd375 2.417 1_556 S
O416 C409 1.239 . S
O417 Cd375 2.330 1_556 S
O417 C409 1.230 . S
H418 C404 0.929 . S
H419 C408 0.930 1_565 S
H420 C378 0.931 . S
H421 C380 0.930 . S
H422 C386 0.929 . S
H423 C388 0.931 . S
H424 C395 0.931 . S
H425 C397 0.930 . S
H426 C405 0.929 . S
H427 C407 0.931 . S
Cd428 N431 2.334 . S
Cd428 N457 2.304 1_455 S
Cd428 O464 2.268 1_454 S
Cd428 O467 2.273 . S
Cd428 O468 2.417 1_455 S
Cd428 O469 2.337 . S
Cd429 N444 2.304 . S
Cd429 N448 2.334 . S
Cd429 O465 2.273 . S
Cd429 O466 2.268 1_556 S
Cd429 O470 2.417 . S
Cd429 O471 2.330 . S
C430 N431 1.332 . S
C430 C434 1.381 . S
C430 H436 0.931 . S
N431 Cd428 2.334 . S
N431 C430 1.332 . S
N431 C435 1.328 . S
C432 C433 1.396 . S
C432 C435 1.378 . S
C432 H474 0.931 1_554 S
C433 C432 1.396 . S
C433 C434 1.382 . S
C434 C430 1.381 . S
C434 C433 1.382 . S
C434 H475 0.930 . S
C435 N431 1.328 . S
C435 C432 1.378 . S
C435 H437 0.930 1_554 S
H436 C430 0.931 . S
H437 C435 0.930 1_556 S
C438 O464 1.238 . S
C438 O465 1.253 1_655 S
C439 C440 1.379 . S
C439 N444 1.337 1_655 S
C439 H445 0.929 . S
C440 C439 1.379 . S
C440 C441 1.380 . S
C440 H476 0.929 . S
C441 C440 1.380 . S
C441 C442 1.399 1_655 S
C442 C441 1.399 1_455 S
C442 C443 1.376 . S
C442 H477 0.931 1_556 S
C443 C442 1.376 . S
C443 N444 1.338 . S
C443 H446 0.930 1_556 S
N444 Cd429 2.304 . S
N444 C439 1.337 1_455 S
N444 C443 1.338 . S
H445 C439 0.929 . S
H446 C443 0.930 1_554 S
C447 N448 1.332 . S
C447 C451 1.381 . S
C447 H453 0.931 . S
N448 Cd429 2.334 . S
N448 C447 1.332 . S
N448 C452 1.328 . S
C449 C450 1.396 . S
C449 C452 1.378 . S
C449 H478 0.931 1_556 S
C450 C449 1.396 . S
C450 C451 1.382 . S
C451 C447 1.381 . S
C451 C450 1.382 . S
C451 H479 0.930 . S
C452 N448 1.328 . S
C452 C449 1.378 . S
C452 H454 0.930 1_556 S
H453 C447 0.931 . S
H454 C452 0.930 1_554 S
C455 O466 1.238 . S
C455 O467 1.253 . S
C456 O468 1.239 . S
C456 O469 1.218 1_655 S
N457 Cd428 2.304 1_655 S
N457 C458 1.337 . S
N457 C462 1.338 . S
C458 N457 1.337 . S
C458 C459 1.379 . S
C458 H472 0.929 1_655 S
C459 C458 1.379 . S
C459 C460 1.380 . S
C459 H480 0.929 . S
C460 C459 1.380 . S
C460 C461 1.399 . S
C461 C460 1.399 . S
C461 C462 1.376 . S
C461 H481 0.931 1_554 S
C462 N457 1.338 . S
C462 C461 1.376 . S
C462 H473 0.930 1_554 S
C463 O470 1.239 . S
C463 O471 1.230 . S
O464 Cd428 2.268 1_656 S
O464 C438 1.238 . S
O465 Cd429 2.273 . S
O465 C438 1.253 1_455 S
O466 Cd429 2.268 1_554 S
O466 C455 1.238 . S
O467 Cd428 2.273 . S
O467 C455 1.253 . S
O468 Cd428 2.417 1_655 S
O468 C456 1.239 . S
O469 Cd428 2.337 . S
O469 C456 1.218 1_455 S
O470 Cd429 2.417 . S
O470 C463 1.239 . S
O471 Cd429 2.330 . S
O471 C463 1.230 . S
H472 C458 0.929 1_455 S
H473 C462 0.930 1_556 S
H474 C432 0.931 1_556 S
H475 C434 0.930 . S
H476 C440 0.929 . S
H477 C442 0.931 1_554 S
H478 C449 0.931 1_554 S
H479 C451 0.930 . S
H480 C459 0.929 . S
H481 C461 0.931 1_556 S
Cd482 N485 2.334 . S
Cd482 N511 2.304 . S
Cd482 O518 2.268 . S
Cd482 O521 2.273 . S
Cd482 O522 2.417 . S
Cd482 O523 2.330 . S
Cd483 N498 2.304 . S
Cd483 N502 2.334 . S
Cd483 O519 2.273 . S
Cd483 O520 2.268 1_556 S
Cd483 O524 2.417 . S
Cd483 O525 2.330 . S
C484 N485 1.332 . S
C484 C488 1.381 . S
C484 H490 0.931 . S
N485 Cd482 2.334 . S
N485 C484 1.332 . S
N485 C489 1.328 . S
C486 C487 1.396 . S
C486 C489 1.378 . S
C486 H528 0.931 . S
C487 C486 1.396 . S
C487 C488 1.382 . S
C488 C484 1.381 . S
C488 C487 1.382 . S
C488 H529 0.930 . S
C489 N485 1.328 . S
C489 C486 1.378 . S
C489 H491 0.930 . S
H490 C484 0.931 . S
H491 C489 0.930 . S
C492 O518 1.238 1_556 S
C492 O519 1.253 . S
C493 C494 1.379 . S
C493 N498 1.337 . S
C493 H499 0.929 . S
C494 C493 1.379 . S
C494 C495 1.380 . S
C494 H530 0.929 . S
C495 C494 1.380 . S
C495 C496 1.399 1_556 S
C496 C495 1.399 1_554 S
C496 C497 1.376 . S
C496 H531 0.931 . S
C497 C496 1.376 . S
C497 N498 1.338 1_554 S
C497 H500 0.930 . S
N498 Cd483 2.304 . S
N498 C493 1.337 . S
N498 C497 1.338 1_556 S
H499 C493 0.929 . S
H500 C497 0.930 . S
C501 N502 1.332 . S
C501 C505 1.381 . S
C501 H507 0.931 . S
N502 Cd483 2.334 . S
N502 C501 1.332 . S
N502 C506 1.328 1_556 S
C503 C504 1.396 1_554 S
C503 C506 1.378 . S
C503 H532 0.931 . S
C504 C503 1.396 1_556 S
C504 C505 1.382 . S
C505 C501 1.381 . S
C505 C504 1.382 . S
C505 H533 0.930 . S
C506 N502 1.328 1_554 S
C506 C503 1.378 . S
C506 H508 0.930 . S
H507 C501 0.931 . S
H508 C506 0.930 . S
C509 O520 1.238 . S
C509 O521 1.253 . S
C510 O522 1.239 . S
C510 O523 1.230 . S
N511 Cd482 2.304 . S
N511 C512 1.337 . S
N511 C516 1.338 . S
C512 N511 1.337 . S
C512 C513 1.379 . S
C512 H526 0.929 . S
C513 C512 1.379 . S
C513 C514 1.380 . S
C513 H534 0.929 . S
C514 C513 1.380 . S
C514 C515 1.399 . S
C515 C514 1.399 . S
C515 C516 1.376 . S
C515 H535 0.931 . S
C516 N511 1.338 . S
C516 C515 1.376 . S
C516 H527 0.930 . S
C517 O524 1.239 . S
C517 O525 1.230 . S
O518 Cd482 2.268 . S
O518 C492 1.238 1_554 S
O519 Cd483 2.273 . S
O519 C492 1.253 . S
O520 Cd483 2.268 1_554 S
O520 C509 1.238 . S
O521 Cd482 2.273 . S
O521 C509 1.253 . S
O522 Cd482 2.417 . S
O522 C510 1.239 . S
O523 Cd482 2.330 . S
O523 C510 1.230 . S
O524 Cd483 2.417 . S
O524 C517 1.239 . S
O525 Cd483 2.330 . S
O525 C517 1.230 . S
H526 C512 0.929 . S
H527 C516 0.930 . S
H528 C486 0.931 . S
H529 C488 0.930 . S
H530 C494 0.929 . S
H531 C496 0.931 . S
H532 C503 0.931 . S
H533 C505 0.930 . S
H534 C513 0.929 . S
H535 C515 0.931 . S
Cd536 N539 2.334 1_655 S
Cd536 N565 2.304 . S
Cd536 O572 2.268 . S
Cd536 O575 2.273 1_655 S
Cd536 O576 2.417 . S
Cd536 O577 2.330 . S
Cd537 N552 2.304 1_455 S
Cd537 N556 2.334 . S
Cd537 O573 2.273 1_455 S
Cd537 O574 2.268 . S
Cd537 O578 2.417 . S
Cd537 O579 2.330 . S
C538 N539 1.332 . S
C538 C542 1.381 . S
C538 H544 0.931 . S
N539 Cd536 2.334 1_455 S
N539 C538 1.332 . S
N539 C543 1.328 . S
C540 C541 1.396 . S
C540 C543 1.378 . S
C540 H582 0.931 . S
C541 C540 1.396 . S
C541 C542 1.382 . S
C542 C538 1.381 . S
C542 C541 1.382 . S
C542 H583 0.930 . S
C543 N539 1.328 . S
C543 C540 1.378 . S
C543 H545 0.930 1_455 S
H544 C538 0.931 . S
H545 C543 0.930 1_655 S
C546 O572 1.238 . S
C546 O573 1.253 . S
C547 C548 1.379 . S
C547 N552 1.337 . S
C547 H553 0.929 . S
C548 C547 1.379 . S
C548 C549 1.380 . S
C548 H584 0.929 . S
C549 C548 1.380 . S
C549 C550 1.399 . S
C550 C549 1.399 . S
C550 C551 1.359 1_655 S
C550 H585 0.931 . S
C551 C550 1.359 1_455 S
C551 N552 1.343 1_455 S
C551 H554 0.943 . S
N552 Cd537 2.304 1_655 S
N552 C547 1.337 . S
N552 C551 1.343 1_655 S
H553 C547 0.929 . S
H554 C551 0.943 . S
C555 N556 1.332 . S
C555 C559 1.381 . S
C555 H561 0.931 . S
N556 Cd537 2.334 . S
N556 C555 1.332 . S
N556 C560 1.328 . S
C557 C558 1.396 . S
C557 C560 1.378 . S
C557 H586 0.931 . S
C558 C557 1.396 . S
C558 C559 1.382 . S
C559 C555 1.381 . S
C559 C558 1.382 . S
C559 H587 0.930 . S
C560 N556 1.328 . S
C560 C557 1.378 . S
C560 H562 0.930 . S
H561 C555 0.931 . S
H562 C560 0.930 . S
C563 O574 1.238 . S
C563 O575 1.253 . S
C564 O576 1.239 . S
C564 O577 1.230 . S
N565 Cd536 2.304 . S
N565 C566 1.337 . S
N565 C570 1.338 . S
C566 N565 1.337 . S
C566 C567 1.379 . S
C566 H580 0.929 . S
C567 C566 1.379 . S
C567 C568 1.380 . S
C567 H588 0.929 . S
C568 C567 1.380 . S
C568 C569 1.399 . S
C569 C568 1.399 . S
C569 C570 1.376 . S
C569 H589 0.931 . S
C570 N565 1.338 . S
C570 C569 1.376 . S
C570 H581 0.930 . S
C571 O578 1.239 . S
C571 O579 1.230 . S
O572 Cd536 2.268 . S
O572 C546 1.238 . S
O573 Cd537 2.273 1_655 S
O573 C546 1.253 . S
O574 Cd537 2.268 . S
O574 C563 1.238 . S
O575 Cd536 2.273 1_455 S
O575 C563 1.253 . S
O576 Cd536 2.417 . S
O576 C564 1.239 . S
O577 Cd536 2.330 . S
O577 C564 1.230 . S
O578 Cd537 2.417 . S
O578 C571 1.239 . S
O579 Cd537 2.330 . S
O579 C571 1.230 . S
H580 C566 0.929 . S
H581 C570 0.930 . S
H582 C540 0.931 . S
H583 C542 0.930 . S
H584 C548 0.929 . S
H585 C550 0.931 . S
H586 C557 0.931 . S
H587 C559 0.930 . S
H588 C567 0.929 . S
H589 C569 0.931 . S
Cd590 N593 2.334 1_545 S
Cd590 N619 2.304 . S
Cd590 O626 2.267 1_545 S
Cd590 O629 2.273 . S
Cd590 O630 2.417 1_545 S
Cd590 O631 2.330 . S
Cd591 N606 2.304 . S
Cd591 N610 2.334 . S
Cd591 O627 2.273 . S
Cd591 O628 2.268 . S
Cd591 O632 2.417 . S
Cd591 O633 2.330 . S
C592 N593 1.328 . S
C592 C596 1.397 . S
C592 H598 0.918 1_565 S
N593 Cd590 2.334 1_565 S
N593 C592 1.328 . S
N593 C597 1.328 . S
C594 C595 1.396 . S
C594 C597 1.378 . S
C594 H636 0.931 . S
C595 C594 1.396 . S
C595 C596 1.382 . S
C596 C592 1.397 . S
C596 C595 1.382 . S
C596 H637 0.930 . S
C597 N593 1.328 . S
C597 C594 1.378 . S
C597 H599 0.930 . S
H598 C592 0.918 1_545 S
H599 C597 0.930 . S
C600 O626 1.238 . S
C600 O627 1.253 1_565 S
C601 C602 1.379 . S
C601 N606 1.337 . S
C601 H607 0.929 . S
C602 C601 1.379 . S
C602 C603 1.380 . S
C602 H638 0.929 . S
C603 C602 1.380 . S
C603 C604 1.399 . S
C604 C603 1.399 . S
C604 C605 1.376 . S
C604 H639 0.931 . S
C605 C604 1.376 . S
C605 N606 1.338 . S
C605 H608 0.930 . S
N606 Cd591 2.304 . S
N606 C601 1.337 . S
N606 C605 1.338 . S
H607 C601 0.929 . S
H608 C605 0.930 . S
C609 N610 1.332 1_565 S
C609 C613 1.381 . S
C609 H615 0.931 . S
N610 Cd591 2.334 . S
N610 C609 1.332 1_545 S
N610 C614 1.328 . S
C611 C612 1.396 1_545 S
C611 C614 1.378 . S
C611 H640 0.931 . S
C612 C611 1.396 1_565 S
C612 C613 1.382 . S
C613 C609 1.381 . S
C613 C612 1.382 . S
C613 H641 0.930 . S
C614 N610 1.328 . S
C614 C611 1.378 . S
C614 H616 0.930 . S
H615 C609 0.931 . S
H616 C614 0.930 . S
C617 O628 1.238 . S
C617 O629 1.253 . S
C618 O630 1.239 . S
C618 O631 1.230 1_565 S
N619 Cd590 2.304 . S
N619 C620 1.337 . S
N619 C624 1.338 . S
C620 N619 1.337 . S
C620 C621 1.379 . S
C620 H634 0.929 . S
C621 C620 1.379 . S
C621 C622 1.380 . S
C621 H642 0.929 . S
C622 C621 1.380 . S
C622 C623 1.399 . S
C623 C622 1.399 . S
C623 C624 1.376 . S
C623 H643 0.931 . S
C624 N619 1.338 . S
C624 C623 1.376 . S
C624 H635 0.930 . S
C625 O632 1.239 . S
C625 O633 1.230 . S
O626 Cd590 2.267 1_565 S
O626 C600 1.238 . S
O627 Cd591 2.273 . S
O627 C600 1.253 1_545 S
O628 Cd591 2.268 . S
O628 C617 1.238 . S
O629 Cd590 2.273 . S
O629 C617 1.253 . S
O630 Cd590 2.417 1_565 S
O630 C618 1.239 . S
O631 Cd590 2.330 . S
O631 C618 1.230 1_545 S
O632 Cd591 2.417 . S
O632 C625 1.239 . S
O633 Cd591 2.330 . S
O633 C625 1.230 . S
H634 C620 0.929 . S
H635 C624 0.930 . S
H636 C594 0.931 . S
H637 C596 0.930 . S
H638 C602 0.929 . S
H639 C604 0.931 . S
H640 C611 0.931 . S
H641 C613 0.930 . S
H642 C621 0.929 . S
H643 C623 0.931 . S
C644 C645 1.349 . S
C644 C646 1.327 . S
C644 H669 0.950 . S
C645 C644 1.349 . S
C645 C661 1.349 . S
C646 C644 1.327 . S
C646 C665 1.429 . S
C646 H670 0.950 . S
C647 C664 1.574 . S
C647 C666 1.368 . S
C647 H671 0.949 . S
H648 C652 0.949 . S
C649 C650 1.349 . S
C649 C651 1.327 . S
C649 H672 0.950 . S
C650 C649 1.349 . S
C650 C662 1.349 . S
C651 C649 1.327 . S
C651 C667 1.429 . S
C651 H673 0.950 . S
C652 H648 0.949 . S
C652 C660 1.574 . S
C652 C668 1.368 . S
H653 C661 0.950 . S
H654 C659 0.950 . S
H655 C660 0.949 . S
H656 C662 0.950 . S
H657 C663 0.950 . S
H658 C664 0.949 . S
C659 H654 0.950 . S
C659 C661 1.327 . S
C659 C665 1.429 . S
C660 C652 1.574 . S
C660 H655 0.949 . S
C660 C666 1.368 . S
C661 C645 1.349 . S
C661 H653 0.950 . S
C661 C659 1.327 . S
C662 C650 1.349 . S
C662 H656 0.950 . S
C662 C663 1.327 . S
C663 H657 0.950 . S
C663 C662 1.327 . S
C663 C667 1.429 . S
C664 C647 1.574 . S
C664 H658 0.949 . S
C664 C668 1.368 . S
C665 C646 1.429 . S
C665 C659 1.429 . S
C665 C666 1.523 . S
C666 C647 1.368 . S
C666 C660 1.368 . S
C666 C665 1.523 . S
C667 C651 1.429 . S
C667 C663 1.429 . S
C667 C668 1.523 . S
C668 C652 1.368 . S
C668 C664 1.368 . S
C668 C667 1.523 . S
H669 C644 0.950 . S
H670 C646 0.950 . S
H671 C647 0.949 . S
H672 C649 0.950 . S
H673 C651 0.950 . S
C674 C675 1.349 . S
C674 C676 1.327 . S
C674 H699 0.950 . S
C675 C674 1.349 . S
C675 C691 1.349 . S
C676 C674 1.327 . S
C676 C695 1.429 . S
C676 H700 0.950 . S
C677 C694 1.574 . S
C677 C696 1.368 . S
C677 H701 0.949 . S
H678 C682 0.949 . S
C679 C680 1.349 . S
C679 C681 1.327 . S
C679 H702 0.950 . S
C680 C679 1.349 . S
C680 C692 1.349 . S
C681 C679 1.327 . S
C681 C697 1.429 . S
C681 H703 0.950 . S
C682 H678 0.949 . S
C682 C690 1.574 . S
C682 C698 1.368 . S
H683 C691 0.950 . S
H684 C689 0.950 . S
H685 C690 0.949 . S
H686 C692 0.950 . S
H687 C693 0.950 . S
H688 C694 0.949 . S
C689 H684 0.950 . S
C689 C691 1.327 . S
C689 C695 1.429 . S
C690 C682 1.574 . S
C690 H685 0.949 . S
C690 C696 1.368 . S
C691 C675 1.349 . S
C691 H683 0.950 . S
C691 C689 1.327 . S
C692 C680 1.349 . S
C692 H686 0.950 . S
C692 C693 1.327 . S
C693 H687 0.950 . S
C693 C692 1.327 . S
C693 C697 1.429 . S
C694 C677 1.574 . S
C694 H688 0.949 . S
C694 C698 1.368 . S
C695 C676 1.429 . S
C695 C689 1.429 . S
C695 C696 1.523 . S
C696 C677 1.368 . S
C696 C690 1.368 . S
C696 C695 1.523 . S
C697 C681 1.429 . S
C697 C693 1.429 . S
C697 C698 1.523 . S
C698 C682 1.368 . S
C698 C694 1.368 . S
C698 C697 1.523 . S
H699 C674 0.950 . S
H700 C676 0.950 . S
H701 C677 0.949 . S
H702 C679 0.950 . S
H703 C681 0.950 . S
C704 C705 1.349 . S
C704 C706 1.327 . S
C704 H729 0.950 . S
C705 C704 1.349 . S
C705 C721 1.349 . S
C706 C704 1.327 . S
C706 C725 1.429 . S
C706 H730 0.950 . S
C707 C724 1.574 . S
C707 C726 1.368 . S
C707 H731 0.949 . S
H708 C712 0.949 . S
C709 C710 1.349 . S
C709 C711 1.327 . S
C709 H732 0.969 . S
C710 C709 1.349 . S
C710 C722 1.349 . S
C711 C709 1.327 . S
C711 C727 1.429 . S
C711 H733 0.950 . S
C712 H708 0.949 . S
C712 C720 1.574 . S
C712 C728 1.368 . S
H713 C721 0.950 . S
H714 C719 0.950 . S
H715 C720 0.949 . S
H716 C722 0.950 . S
H717 C723 0.950 . S
H718 C724 0.949 . S
C719 H714 0.950 . S
C719 C721 1.327 . S
C719 C725 1.429 . S
C720 C712 1.574 . S
C720 H715 0.949 . S
C720 C726 1.368 . S
C721 C705 1.349 . S
C721 H713 0.950 . S
C721 C719 1.327 . S
C722 C710 1.349 . S
C722 H716 0.950 . S
C722 C723 1.327 . S
C723 H717 0.950 . S
C723 C722 1.327 . S
C723 C727 1.429 . S
C724 C707 1.574 . S
C724 H718 0.949 . S
C724 C728 1.368 . S
C725 C706 1.429 . S
C725 C719 1.429 . S
C725 C726 1.523 . S
C726 C707 1.368 . S
C726 C720 1.368 . S
C726 C725 1.523 . S
C727 C711 1.429 . S
C727 C723 1.429 . S
C727 C728 1.523 . S
C728 C712 1.368 . S
C728 C724 1.368 . S
C728 C727 1.523 . S
H729 C704 0.950 . S
H730 C706 0.950 . S
H731 C707 0.949 . S
H732 C709 0.969 . S
H733 C711 0.950 . S
C734 C735 1.349 . S
C734 C736 1.327 . S
C734 H759 0.950 . S
C735 C734 1.349 . S
C735 C751 1.349 . S
C736 C734 1.327 . S
C736 C755 1.429 . S
C736 H760 0.950 . S
C737 C754 1.574 . S
C737 C756 1.368 . S
C737 H761 0.949 . S
H738 C742 0.949 . S
C739 C740 1.349 . S
C739 C741 1.327 . S
C739 H762 0.950 . S
C740 C739 1.349 . S
C740 C752 1.349 . S
C741 C739 1.327 . S
C741 C757 1.429 . S
C741 H763 0.950 . S
C742 H738 0.949 . S
C742 C750 1.574 . S
C742 C758 1.368 . S
H743 C751 0.950 . S
H744 C749 0.950 . S
H745 C750 0.949 . S
H746 C752 0.950 . S
H747 C753 0.950 . S
H748 C754 0.949 . S
C749 H744 0.950 . S
C749 C751 1.327 . S
C749 C755 1.429 . S
C750 C742 1.574 . S
C750 H745 0.949 . S
C750 C756 1.368 . S
C751 C735 1.349 . S
C751 H743 0.950 . S
C751 C749 1.327 . S
C752 C740 1.349 . S
C752 H746 0.950 . S
C752 C753 1.327 . S
C753 H747 0.950 . S
C753 C752 1.327 . S
C753 C757 1.429 . S
C754 C737 1.574 . S
C754 H748 0.949 . S
C754 C758 1.368 . S
C755 C736 1.429 . S
C755 C749 1.429 . S
C755 C756 1.523 . S
C756 C737 1.368 . S
C756 C750 1.368 . S
C756 C755 1.523 . S
C757 C741 1.429 . S
C757 C753 1.429 . S
C757 C758 1.523 . S
C758 C742 1.368 . S
C758 C754 1.368 . S
C758 C757 1.523 . S
H759 C734 0.950 . S
H760 C736 0.950 . S
H761 C737 0.949 . S
H762 C739 0.950 . S
H763 C741 0.950 . S
C764 C765 1.349 . S
C764 C766 1.327 . S
C764 H789 0.950 . S
C765 C764 1.349 . S
C765 C781 1.349 . S
C766 C764 1.327 . S
C766 C785 1.429 . S
C766 H790 0.950 . S
C767 C784 1.574 . S
C767 C786 1.368 . S
C767 H791 0.949 . S
H768 C772 0.949 . S
C769 C770 1.349 . S
C769 C771 1.327 . S
C769 H792 0.950 . S
C770 C769 1.349 . S
C770 C782 1.349 . S
C771 C769 1.327 . S
C771 C787 1.429 . S
C771 H793 0.950 . S
C772 H768 0.949 . S
C772 C780 1.574 . S
C772 C788 1.368 . S
H773 C781 0.950 . S
H774 C779 0.950 . S
H775 C780 0.949 . S
H776 C782 0.950 . S
H777 C783 0.950 . S
H778 C784 0.949 . S
C779 H774 0.950 . S
C779 C781 1.327 . S
C779 C785 1.429 . S
C780 C772 1.574 . S
C780 H775 0.949 . S
C780 C786 1.368 . S
C781 C765 1.349 . S
C781 H773 0.950 . S
C781 C779 1.327 . S
C782 C770 1.349 . S
C782 H776 0.950 . S
C782 C783 1.327 . S
C783 H777 0.950 . S
C783 C782 1.327 . S
C783 C787 1.429 . S
C784 C767 1.574 . S
C784 H778 0.949 . S
C784 C788 1.368 . S
C785 C766 1.429 . S
C785 C779 1.429 . S
C785 C786 1.523 . S
C786 C767 1.368 . S
C786 C780 1.368 . S
C786 C785 1.523 . S
C787 C771 1.429 . S
C787 C783 1.429 . S
C787 C788 1.523 . S
C788 C772 1.368 . S
C788 C784 1.368 . S
C788 C787 1.523 . S
H789 C764 0.950 . S
H790 C766 0.950 . S
H791 C767 0.949 . S
H792 C769 0.950 . S
H793 C771 0.950 . S
C794 C795 1.349 . S
C794 C796 1.327 . S
C794 H819 0.950 . S
C795 C794 1.349 . S
C795 C811 1.349 . S
C796 C794 1.327 . S
C796 C815 1.429 . S
C796 H820 0.950 . S
C797 C814 1.574 . S
C797 C816 1.368 . S
C797 H821 0.949 . S
H798 C802 0.949 . S
C799 C800 1.349 . S
C799 C801 1.327 . S
C799 H822 0.950 . S
C800 C799 1.349 . S
C800 C812 1.349 . S
C801 C799 1.327 . S
C801 C817 1.429 . S
C801 H823 0.950 . S
C802 H798 0.949 . S
C802 C810 1.574 . S
C802 C818 1.368 . S
H803 C811 0.950 . S
H804 C809 0.950 . S
H805 C810 0.949 . S
H806 C812 0.950 . S
H807 C813 0.950 . S
H808 C814 0.949 . S
C809 H804 0.950 . S
C809 C811 1.327 . S
C809 C815 1.429 . S
C810 C802 1.574 . S
C810 H805 0.949 . S
C810 C816 1.368 . S
C811 C795 1.349 . S
C811 H803 0.950 . S
C811 C809 1.327 . S
C812 C800 1.349 . S
C812 H806 0.950 . S
C812 C813 1.327 . S
C813 H807 0.950 . S
C813 C812 1.327 . S
C813 C817 1.429 . S
C814 C797 1.574 . S
C814 H808 0.949 . S
C814 C818 1.368 . S
C815 C796 1.429 . S
C815 C809 1.429 . S
C815 C816 1.523 . S
C816 C797 1.368 . S
C816 C810 1.368 . S
C816 C815 1.523 . S
C817 C801 1.429 . S
C817 C813 1.429 . S
C817 C818 1.523 . S
C818 C802 1.368 . S
C818 C814 1.368 . S
C818 C817 1.523 . S
H819 C794 0.950 . S
H820 C796 0.950 . S
H821 C797 0.949 . S
H822 C799 0.950 . S
H823 C801 0.950 . S
C824 C825 1.349 . S
C824 C826 1.327 . S
C824 H849 0.950 . S
C825 C824 1.349 . S
C825 C841 1.349 . S
C826 C824 1.327 . S
C826 C845 1.429 . S
C826 H850 0.950 . S
C827 C844 1.574 . S
C827 C846 1.368 . S
C827 H851 0.949 . S
H828 C832 0.949 . S
C829 C830 1.349 . S
C829 C831 1.327 . S
C829 H852 0.950 . S
C830 C829 1.349 . S
C830 C842 1.349 . S
C831 C829 1.327 . S
C831 C847 1.429 . S
C831 H853 0.950 . S
C832 H828 0.949 . S
C832 C840 1.574 . S
C832 C848 1.368 . S
H833 C841 0.950 . S
H834 C839 0.950 . S
H835 C840 0.949 . S
H836 C842 0.950 . S
H837 C843 0.950 . S
H838 C844 0.949 . S
C839 H834 0.950 . S
C839 C841 1.327 . S
C839 C845 1.429 . S
C840 C832 1.574 . S
C840 H835 0.949 . S
C840 C846 1.368 . S
C841 C825 1.349 . S
C841 H833 0.950 . S
C841 C839 1.327 . S
C842 C830 1.349 . S
C842 H836 0.950 . S
C842 C843 1.327 . S
C843 H837 0.950 . S
C843 C842 1.327 . S
C843 C847 1.429 . S
C844 C827 1.574 . S
C844 H838 0.949 . S
C844 C848 1.368 . S
C845 C826 1.429 . S
C845 C839 1.429 . S
C845 C846 1.523 . S
C846 C827 1.368 . S
C846 C840 1.368 . S
C846 C845 1.523 . S
C847 C831 1.429 . S
C847 C843 1.429 . S
C847 C848 1.523 . S
C848 C832 1.368 . S
C848 C844 1.368 . S
C848 C847 1.523 . S
H849 C824 0.950 . S
H850 C826 0.950 . S
H851 C827 0.949 . S
H852 C829 0.950 . S
H853 C831 0.950 . S
C854 C855 1.349 . S
C854 C856 1.327 . S
C854 H879 0.950 . S
C855 C854 1.349 . S
C855 C871 1.349 . S
C856 C854 1.327 . S
C856 C875 1.429 . S
C856 H880 0.950 . S
C857 C874 1.574 . S
C857 C876 1.368 . S
C857 H881 0.949 . S
H858 C862 0.949 . S
C859 C860 1.349 . S
C859 C861 1.327 . S
C859 H882 0.950 . S
C860 C859 1.349 . S
C860 C872 1.349 . S
C861 C859 1.327 . S
C861 C877 1.429 . S
C861 H883 0.950 . S
C862 H858 0.949 . S
C862 C870 1.574 . S
C862 C878 1.368 . S
H863 C871 0.950 . S
H864 C869 0.950 . S
H865 C870 0.949 . S
H866 C872 0.950 . S
H867 C873 0.950 . S
H868 C874 0.949 . S
C869 H864 0.950 . S
C869 C871 1.327 . S
C869 C875 1.429 . S
C870 C862 1.574 . S
C870 H865 0.949 . S
C870 C876 1.368 . S
C871 C855 1.349 . S
C871 H863 0.950 . S
C871 C869 1.327 . S
C872 C860 1.349 . S
C872 H866 0.950 . S
C872 C873 1.327 . S
C873 H867 0.950 . S
C873 C872 1.327 . S
C873 C877 1.429 . S
C874 C857 1.574 . S
C874 H868 0.949 . S
C874 C878 1.368 . S
C875 C856 1.429 . S
C875 C869 1.429 . S
C875 C876 1.523 . S
C876 C857 1.368 . S
C876 C870 1.368 . S
C876 C875 1.523 . S
C877 C861 1.429 . S
C877 C873 1.429 . S
C877 C878 1.523 . S
C878 C862 1.368 . S
C878 C874 1.368 . S
C878 C877 1.523 . S
H879 C854 0.950 . S
H880 C856 0.950 . S
H881 C857 0.949 . S
H882 C859 0.950 . S
H883 C861 0.950 . S
C884 C885 1.349 . S
C884 C886 1.327 . S
C884 H909 0.950 . S
C885 C884 1.349 . S
C885 C901 1.349 . S
C886 C884 1.327 . S
C886 C905 1.429 . S
C886 H910 0.950 . S
C887 C904 1.574 . S
C887 C906 1.368 . S
C887 H911 0.949 . S
H888 C892 0.949 . S
C889 C890 1.349 . S
C889 C891 1.327 . S
C889 H912 0.950 . S
C890 C889 1.349 . S
C890 C902 1.349 . S
C891 C889 1.327 . S
C891 C907 1.429 . S
C891 H913 0.950 . S
C892 H888 0.949 . S
C892 C900 1.574 . S
C892 C908 1.368 . S
H893 C901 0.950 . S
H894 C899 0.950 . S
H895 C900 0.949 . S
H896 C902 0.950 . S
H897 C903 0.950 . S
H898 C904 0.949 . S
C899 H894 0.950 . S
C899 C901 1.327 . S
C899 C905 1.429 . S
C900 C892 1.574 . S
C900 H895 0.949 . S
C900 C906 1.368 . S
C901 C885 1.349 . S
C901 H893 0.950 . S
C901 C899 1.327 . S
C902 C890 1.349 . S
C902 H896 0.950 . S
C902 C903 1.327 . S
C903 H897 0.950 . S
C903 C902 1.327 . S
C903 C907 1.429 . S
C904 C887 1.574 . S
C904 H898 0.949 . S
C904 C908 1.368 . S
C905 C886 1.429 . S
C905 C899 1.429 . S
C905 C906 1.523 . S
C906 C887 1.368 . S
C906 C900 1.368 . S
C906 C905 1.523 . S
C907 C891 1.429 . S
C907 C903 1.429 . S
C907 C908 1.523 . S
C908 C892 1.368 . S
C908 C904 1.368 . S
C908 C907 1.523 . S
H909 C884 0.950 . S
H910 C886 0.950 . S
H911 C887 0.949 . S
H912 C889 0.950 . S
H913 C891 0.950 . S
C914 C915 1.349 . S
C914 C916 1.327 . S
C914 H939 0.950 . S
C915 C914 1.349 . S
C915 C931 1.349 . S
C916 C914 1.327 . S
C916 C935 1.429 . S
C916 H940 0.950 . S
C917 C934 1.574 . S
C917 C936 1.368 . S
C917 H941 0.949 . S
H918 C922 0.949 . S
C919 C920 1.349 . S
C919 C921 1.327 . S
C919 H942 0.950 . S
C920 C919 1.349 . S
C920 C932 1.349 . S
C921 C919 1.327 . S
C921 C937 1.429 . S
C921 H943 0.950 . S
C922 H918 0.949 . S
C922 C930 1.574 . S
C922 C938 1.368 . S
H923 C931 0.950 . S
H924 C929 0.950 . S
H925 C930 0.949 . S
H926 C932 0.950 . S
H927 C933 0.950 . S
H928 C934 0.949 . S
C929 H924 0.950 . S
C929 C931 1.327 . S
C929 C935 1.429 . S
C930 C922 1.574 . S
C930 H925 0.949 . S
C930 C936 1.368 . S
C931 C915 1.349 . S
C931 H923 0.950 . S
C931 C929 1.327 . S
C932 C920 1.349 . S
C932 H926 0.950 . S
C932 C933 1.327 . S
C933 H927 0.950 . S
C933 C932 1.327 . S
C933 C937 1.429 . S
C934 C917 1.574 . S
C934 H928 0.949 . S
C934 C938 1.368 . S
C935 C916 1.429 . S
C935 C929 1.429 . S
C935 C936 1.523 . S
C936 C917 1.368 . S
C936 C930 1.368 . S
C936 C935 1.523 . S
C937 C921 1.429 . S
C937 C933 1.429 . S
C937 C938 1.523 . S
C938 C922 1.368 . S
C938 C934 1.368 . S
C938 C937 1.523 . S
H939 C914 0.950 . S
H940 C916 0.950 . S
H941 C917 0.949 . S
H942 C919 0.950 . S
H943 C921 0.950 . S
C944 C945 1.349 . S
C944 C946 1.327 . S
C944 H969 0.950 . S
C945 C944 1.349 . S
C945 C961 1.349 . S
C946 C944 1.327 . S
C946 C965 1.429 . S
C946 H970 0.950 . S
C947 C964 1.574 . S
C947 C966 1.368 . S
C947 H971 0.949 . S
H948 C952 0.949 . S
C949 C950 1.349 . S
C949 C951 1.327 . S
C949 H972 0.950 . S
C950 C949 1.349 . S
C950 C962 1.349 . S
C951 C949 1.327 . S
C951 C967 1.429 . S
C951 H973 0.950 . S
C952 H948 0.949 . S
C952 C960 1.574 . S
C952 C968 1.368 . S
H953 C961 0.950 . S
H954 C959 0.950 . S
H955 C960 0.949 . S
H956 C962 0.950 . S
H957 C963 0.950 . S
H958 C964 0.949 . S
C959 H954 0.950 . S
C959 C961 1.327 . S
C959 C965 1.429 . S
C960 C952 1.574 . S
C960 H955 0.949 . S
C960 C966 1.368 . S
C961 C945 1.349 . S
C961 H953 0.950 . S
C961 C959 1.327 . S
C962 C950 1.349 . S
C962 H956 0.950 . S
C962 C963 1.327 . S
C963 H957 0.950 . S
C963 C962 1.327 . S
C963 C967 1.429 . S
C964 C947 1.574 . S
C964 H958 0.949 . S
C964 C968 1.368 . S
C965 C946 1.429 . S
C965 C959 1.429 . S
C965 C966 1.523 . S
C966 C947 1.368 . S
C966 C960 1.368 . S
C966 C965 1.523 . S
C967 C951 1.429 . S
C967 C963 1.429 . S
C967 C968 1.523 . S
C968 C952 1.368 . S
C968 C964 1.368 . S
C968 C967 1.523 . S
H969 C944 0.950 . S
H970 C946 0.950 . S
H971 C947 0.949 . S
H972 C949 0.950 . S
H973 C951 0.950 . S
C974 C975 1.349 . S
C974 C976 1.327 . S
C974 H999 0.950 . S
C975 C974 1.349 . S
C975 C991 1.349 . S
C976 C974 1.327 . S
C976 C995 1.429 . S
C976 H1000 0.950 . S
C977 C994 1.574 . S
C977 C996 1.368 . S
C977 H1001 0.949 . S
H978 C982 0.949 . S
C979 C980 1.349 . S
C979 C981 1.327 . S
C979 H1002 0.950 . S
C980 C979 1.349 . S
C980 C992 1.349 . S
C981 C979 1.327 . S
C981 C997 1.429 . S
C981 H1003 0.950 . S
C982 H978 0.949 . S
C982 C990 1.574 . S
C982 C998 1.368 . S
H983 C991 0.950 . S
H984 C989 0.950 . S
H985 C990 0.949 . S
H986 C992 0.950 . S
H987 C993 0.950 . S
H988 C994 0.949 . S
C989 H984 0.950 . S
C989 C991 1.327 . S
C989 C995 1.429 . S
C990 C982 1.574 . S
C990 H985 0.949 . S
C990 C996 1.368 . S
C991 C975 1.349 . S
C991 H983 0.950 . S
C991 C989 1.327 . S
C992 C980 1.349 . S
C992 H986 0.950 . S
C992 C993 1.327 . S
C993 H987 0.950 . S
C993 C992 1.327 . S
C993 C997 1.429 . S
C994 C977 1.574 . S
C994 H988 0.949 . S
C994 C998 1.368 . S
C995 C976 1.429 . S
C995 C989 1.429 . S
C995 C996 1.523 . S
C996 C977 1.368 . S
C996 C990 1.368 . S
C996 C995 1.523 . S
C997 C981 1.429 . S
C997 C993 1.429 . S
C997 C998 1.523 . S
C998 C982 1.368 . S
C998 C994 1.368 . S
C998 C997 1.523 . S
H999 C974 0.950 . S
H1000 C976 0.950 . S
H1001 C977 0.949 . S
H1002 C979 0.950 . S
H1003 C981 0.950 . S
C1004 C1005 1.349 . S
C1004 C1006 1.327 . S
C1004 H1029 0.950 . S
C1005 C1004 1.349 . S
C1005 C1021 1.349 . S
C1006 C1004 1.327 . S
C1006 C1025 1.429 . S
C1006 H1030 0.950 . S
C1007 C1024 1.574 . S
C1007 C1026 1.368 . S
C1007 H1031 0.949 . S
H1008 C1012 0.949 . S
C1009 C1010 1.349 . S
C1009 C1011 1.327 . S
C1009 H1032 0.950 . S
C1010 C1009 1.349 . S
C1010 C1022 1.349 . S
C1011 C1009 1.327 . S
C1011 C1027 1.429 . S
C1011 H1033 0.950 . S
C1012 H1008 0.949 . S
C1012 C1020 1.574 . S
C1012 C1028 1.368 . S
H1013 C1021 0.950 . S
H1014 C1019 0.950 . S
H1015 C1020 0.949 . S
H1016 C1022 0.950 . S
H1017 C1023 0.950 . S
H1018 C1024 0.949 . S
C1019 H1014 0.950 . S
C1019 C1021 1.327 . S
C1019 C1025 1.429 . S
C1020 C1012 1.574 . S
C1020 H1015 0.949 . S
C1020 C1026 1.368 . S
C1021 C1005 1.349 . S
C1021 H1013 0.950 . S
C1021 C1019 1.327 . S
C1022 C1010 1.349 . S
C1022 H1016 0.950 . S
C1022 C1023 1.327 . S
C1023 H1017 0.950 . S
C1023 C1022 1.327 . S
C1023 C1027 1.429 . S
C1024 C1007 1.574 . S
C1024 H1018 0.949 . S
C1024 C1028 1.368 . S
C1025 C1006 1.429 . S
C1025 C1019 1.429 . S
C1025 C1026 1.523 . S
C1026 C1007 1.368 . S
C1026 C1020 1.368 . S
C1026 C1025 1.523 . S
C1027 C1011 1.429 . S
C1027 C1023 1.429 . S
C1027 C1028 1.523 . S
C1028 C1012 1.368 . S
C1028 C1024 1.368 . S
C1028 C1027 1.523 . S
H1029 C1004 0.950 . S
H1030 C1006 0.950 . S
H1031 C1007 0.949 . S
H1032 C1009 0.950 . S
H1033 C1011 0.950 . S
C1034 C1035 1.349 . S
C1034 C1036 1.327 . S
C1034 H1059 0.950 . S
C1035 C1034 1.349 . S
C1035 C1051 1.349 . S
C1036 C1034 1.327 . S
C1036 C1055 1.429 . S
C1036 H1060 0.950 . S
C1037 C1054 1.574 . S
C1037 C1056 1.368 . S
C1037 H1061 0.949 . S
H1038 C1042 0.949 . S
C1039 C1040 1.349 . S
C1039 C1041 1.327 . S
C1039 H1062 0.950 . S
C1040 C1039 1.349 . S
C1040 C1052 1.349 . S
C1041 C1039 1.327 . S
C1041 C1057 1.429 . S
C1041 H1063 0.950 . S
C1042 H1038 0.949 . S
C1042 C1050 1.574 . S
C1042 C1058 1.368 . S
H1043 C1051 0.950 . S
H1044 C1049 0.950 . S
H1045 C1050 0.949 . S
H1046 C1052 0.950 . S
H1047 C1053 0.950 . S
H1048 C1054 0.949 . S
C1049 H1044 0.950 . S
C1049 C1051 1.327 . S
C1049 C1055 1.429 . S
C1050 C1042 1.574 . S
C1050 H1045 0.949 . S
C1050 C1056 1.368 . S
C1051 C1035 1.349 . S
C1051 H1043 0.950 . S
C1051 C1049 1.327 . S
C1052 C1040 1.349 . S
C1052 H1046 0.950 . S
C1052 C1053 1.327 . S
C1053 H1047 0.950 . S
C1053 C1052 1.327 . S
C1053 C1057 1.429 . S
C1054 C1037 1.574 . S
C1054 H1048 0.949 . S
C1054 C1058 1.368 . S
C1055 C1036 1.429 . S
C1055 C1049 1.429 . S
C1055 C1056 1.523 . S
C1056 C1037 1.368 . S
C1056 C1050 1.368 . S
C1056 C1055 1.523 . S
C1057 C1041 1.429 . S
C1057 C1053 1.429 . S
C1057 C1058 1.523 . S
C1058 C1042 1.368 . S
C1058 C1054 1.368 . S
C1058 C1057 1.523 . S
H1059 C1034 0.950 . S
H1060 C1036 0.950 . S
H1061 C1037 0.949 . S
H1062 C1039 0.950 . S
H1063 C1041 0.950 . S
C1064 C1065 1.349 . S
C1064 C1066 1.327 . S
C1064 H1089 0.950 . S
C1065 C1064 1.349 . S
C1065 C1081 1.349 . S
C1066 C1064 1.327 . S
C1066 C1085 1.429 . S
C1066 H1090 0.950 . S
C1067 C1084 1.574 . S
C1067 C1086 1.368 . S
C1067 H1091 0.949 . S
H1068 C1072 0.949 . S
C1069 C1070 1.349 . S
C1069 C1071 1.327 . S
C1069 H1092 0.950 . S
C1070 C1069 1.349 . S
C1070 C1082 1.349 . S
C1071 C1069 1.327 . S
C1071 C1087 1.429 . S
C1071 H1093 0.950 . S
C1072 H1068 0.949 . S
C1072 C1080 1.574 . S
C1072 C1088 1.368 . S
H1073 C1081 0.950 . S
H1074 C1079 0.950 . S
H1075 C1080 0.949 . S
H1076 C1082 0.950 . S
H1077 C1083 0.950 . S
H1078 C1084 0.949 . S
C1079 H1074 0.950 . S
C1079 C1081 1.327 . S
C1079 C1085 1.429 . S
C1080 C1072 1.574 . S
C1080 H1075 0.949 . S
C1080 C1086 1.368 . S
C1081 C1065 1.349 . S
C1081 H1073 0.950 . S
C1081 C1079 1.327 . S
C1082 C1070 1.349 . S
C1082 H1076 0.950 . S
C1082 C1083 1.327 . S
C1083 H1077 0.950 . S
C1083 C1082 1.327 . S
C1083 C1087 1.429 . S
C1084 C1067 1.574 . S
C1084 H1078 0.949 . S
C1084 C1088 1.368 . S
C1085 C1066 1.429 . S
C1085 C1079 1.429 . S
C1085 C1086 1.523 . S
C1086 C1067 1.368 . S
C1086 C1080 1.368 . S
C1086 C1085 1.523 . S
C1087 C1071 1.429 . S
C1087 C1083 1.429 . S
C1087 C1088 1.523 . S
C1088 C1072 1.368 . S
C1088 C1084 1.368 . S
C1088 C1087 1.523 . S
H1089 C1064 0.950 . S
H1090 C1066 0.950 . S
H1091 C1067 0.949 . S
H1092 C1069 0.950 . S
H1093 C1071 0.950 . S
C1094 C1095 1.349 . S
C1094 C1096 1.327 . S
C1094 H1119 0.950 . S
C1095 C1094 1.349 . S
C1095 C1111 1.349 . S
C1096 C1094 1.327 . S
C1096 C1115 1.429 . S
C1096 H1120 0.950 . S
C1097 C1114 1.574 . S
C1097 C1116 1.368 . S
C1097 H1121 0.949 . S
H1098 C1102 0.949 . S
C1099 C1100 1.349 . S
C1099 C1101 1.327 . S
C1099 H1122 0.950 1_556 S
C1100 C1099 1.349 . S
C1100 C1112 1.349 . S
C1101 C1099 1.327 . S
C1101 C1117 1.429 . S
C1101 H1123 0.950 . S
C1102 H1098 0.949 . S
C1102 C1110 1.574 . S
C1102 C1118 1.368 . S
H1103 C1111 0.950 . S
H1104 C1109 0.950 . S
H1105 C1110 0.949 . S
H1106 C1112 0.950 . S
H1107 C1113 0.950 . S
H1108 C1114 0.949 . S
C1109 H1104 0.950 . S
C1109 C1111 1.327 . S
C1109 C1115 1.429 . S
C1110 C1102 1.574 . S
C1110 H1105 0.949 . S
C1110 C1116 1.368 . S
C1111 C1095 1.349 . S
C1111 H1103 0.950 . S
C1111 C1109 1.327 . S
C1112 C1100 1.349 . S
C1112 H1106 0.950 . S
C1112 C1113 1.327 . S
C1113 H1107 0.950 . S
C1113 C1112 1.327 . S
C1113 C1117 1.429 . S
C1114 C1097 1.574 . S
C1114 H1108 0.949 . S
C1114 C1118 1.368 . S
C1115 C1096 1.429 . S
C1115 C1109 1.429 . S
C1115 C1116 1.523 . S
C1116 C1097 1.368 . S
C1116 C1110 1.368 . S
C1116 C1115 1.523 . S
C1117 C1101 1.429 . S
C1117 C1113 1.429 . S
C1117 C1118 1.523 . S
C1118 C1102 1.368 . S
C1118 C1114 1.368 . S
C1118 C1117 1.523 . S
H1119 C1094 0.950 . S
H1120 C1096 0.950 . S
H1121 C1097 0.949 . S
H1122 C1099 0.950 1_554 S
H1123 C1101 0.950 . S
C1124 C1125 1.349 . S
C1124 C1126 1.327 . S
C1124 H1149 0.950 . S
C1125 C1124 1.349 . S
C1125 C1141 1.349 . S
C1126 C1124 1.327 . S
C1126 C1145 1.429 . S
C1126 H1150 0.950 . S
C1127 C1144 1.574 . S
C1127 C1146 1.368 . S
C1127 H1151 0.949 . S
H1128 C1132 0.949 . S
C1129 C1130 1.349 . S
C1129 C1131 1.327 . S
C1129 H1152 0.950 . S
C1130 C1129 1.349 . S
C1130 C1142 1.349 . S
C1131 C1129 1.327 . S
C1131 C1147 1.429 . S
C1131 H1153 0.950 . S
C1132 H1128 0.949 . S
C1132 C1140 1.574 . S
C1132 C1148 1.368 . S
H1133 C1141 0.950 . S
H1134 C1139 0.950 . S
H1135 C1140 0.949 . S
H1136 C1142 0.950 . S
H1137 C1143 0.950 . S
H1138 C1144 0.949 . S
C1139 H1134 0.950 . S
C1139 C1141 1.327 . S
C1139 C1145 1.429 . S
C1140 C1132 1.574 . S
C1140 H1135 0.949 . S
C1140 C1146 1.368 . S
C1141 C1125 1.349 . S
C1141 H1133 0.950 . S
C1141 C1139 1.327 . S
C1142 C1130 1.349 . S
C1142 H1136 0.950 . S
C1142 C1143 1.327 . S
C1143 H1137 0.950 . S
C1143 C1142 1.327 . S
C1143 C1147 1.429 . S
C1144 C1127 1.574 . S
C1144 H1138 0.949 . S
C1144 C1148 1.368 . S
C1145 C1126 1.429 . S
C1145 C1139 1.429 . S
C1145 C1146 1.523 . S
C1146 C1127 1.368 . S
C1146 C1140 1.368 . S
C1146 C1145 1.523 . S
C1147 C1131 1.429 . S
C1147 C1143 1.429 . S
C1147 C1148 1.523 . S
C1148 C1132 1.368 . S
C1148 C1144 1.368 . S
C1148 C1147 1.523 . S
H1149 C1124 0.950 . S
H1150 C1126 0.950 . S
H1151 C1127 0.949 . S
H1152 C1129 0.950 . S
H1153 C1131 0.950 . S
C1154 C1155 1.349 . S
C1154 C1156 1.327 . S
C1154 H1179 0.950 . S
C1155 C1154 1.349 . S
C1155 C1171 1.349 . S
C1156 C1154 1.327 . S
C1156 C1175 1.429 . S
C1156 H1180 0.950 . S
C1157 C1174 1.574 . S
C1157 C1176 1.368 . S
C1157 H1181 0.949 . S
H1158 C1162 0.949 . S
C1159 C1160 1.349 . S
C1159 C1161 1.327 . S
C1159 H1182 0.950 . S
C1160 C1159 1.349 . S
C1160 C1172 1.349 . S
C1161 C1159 1.327 . S
C1161 C1177 1.429 . S
C1161 H1183 0.950 . S
C1162 H1158 0.949 . S
C1162 C1170 1.574 . S
C1162 C1178 1.368 . S
H1163 C1171 0.950 . S
H1164 C1169 0.950 . S
H1165 C1170 0.949 . S
H1166 C1172 0.950 . S
H1167 C1173 0.950 . S
H1168 C1174 0.949 . S
C1169 H1164 0.950 . S
C1169 C1171 1.327 . S
C1169 C1175 1.429 . S
C1170 C1162 1.574 . S
C1170 H1165 0.949 . S
C1170 C1176 1.368 . S
C1171 C1155 1.349 . S
C1171 H1163 0.950 . S
C1171 C1169 1.327 . S
C1172 C1160 1.349 . S
C1172 H1166 0.950 . S
C1172 C1173 1.327 . S
C1173 H1167 0.950 . S
C1173 C1172 1.327 . S
C1173 C1177 1.429 . S
C1174 C1157 1.574 . S
C1174 H1168 0.949 . S
C1174 C1178 1.368 . S
C1175 C1156 1.429 . S
C1175 C1169 1.429 . S
C1175 C1176 1.523 . S
C1176 C1157 1.368 . S
C1176 C1170 1.368 . S
C1176 C1175 1.523 . S
C1177 C1161 1.429 . S
C1177 C1173 1.429 . S
C1177 C1178 1.523 . S
C1178 C1162 1.368 . S
C1178 C1174 1.368 . S
C1178 C1177 1.523 . S
H1179 C1154 0.950 . S
H1180 C1156 0.950 . S
H1181 C1157 0.949 . S
H1182 C1159 0.950 . S
H1183 C1161 0.950 . S
C1184 C1185 1.349 . S
C1184 C1186 1.327 . S
C1184 H1209 0.950 . S
C1185 C1184 1.349 . S
C1185 C1201 1.349 . S
C1186 C1184 1.327 . S
C1186 C1205 1.429 . S
C1186 H1210 0.950 . S
C1187 C1204 1.574 . S
C1187 C1206 1.368 . S
C1187 H1211 0.949 . S
H1188 C1192 0.949 . S
C1189 C1190 1.349 . S
C1189 C1191 1.327 . S
C1189 H1212 0.950 . S
C1190 C1189 1.349 . S
C1190 C1202 1.349 1_556 S
C1191 C1189 1.327 . S
C1191 C1207 1.429 . S
C1191 H1213 0.950 . S
C1192 H1188 0.949 . S
C1192 C1200 1.574 . S
C1192 C1208 1.368 . S
H1193 C1201 0.950 . S
H1194 C1199 0.950 . S
H1195 C1200 0.949 . S
H1196 C1202 0.950 . S
H1197 C1203 0.950 1_554 S
H1198 C1204 0.949 . S
C1199 H1194 0.950 . S
C1199 C1201 1.327 . S
C1199 C1205 1.429 . S
C1200 C1192 1.574 . S
C1200 H1195 0.949 . S
C1200 C1206 1.368 . S
C1201 C1185 1.349 . S
C1201 H1193 0.950 . S
C1201 C1199 1.327 . S
C1202 C1190 1.349 1_554 S
C1202 H1196 0.950 . S
C1202 C1203 1.327 1_554 S
C1203 H1197 0.950 1_556 S
C1203 C1202 1.327 1_556 S
C1203 C1207 1.429 . S
C1204 C1187 1.574 . S
C1204 H1198 0.949 . S
C1204 C1208 1.368 . S
C1205 C1186 1.429 . S
C1205 C1199 1.429 . S
C1205 C1206 1.523 . S
C1206 C1187 1.368 . S
C1206 C1200 1.368 . S
C1206 C1205 1.523 . S
C1207 C1191 1.429 . S
C1207 C1203 1.429 . S
C1207 C1208 1.523 . S
C1208 C1192 1.368 . S
C1208 C1204 1.368 . S
C1208 C1207 1.523 . S
H1209 C1184 0.950 . S
H1210 C1186 0.950 . S
H1211 C1187 0.949 . S
H1212 C1189 0.950 . S
H1213 C1191 0.950 . S
C1214 C1215 1.349 . S
C1214 C1216 1.327 . S
C1214 H1239 0.950 . S
C1215 C1214 1.349 . S
C1215 C1231 1.349 . S
C1216 C1214 1.327 . S
C1216 C1235 1.429 . S
C1216 H1240 0.950 . S
C1217 C1234 1.574 . S
C1217 C1236 1.368 . S
C1217 H1241 0.949 . S
H1218 C1222 0.949 . S
C1219 C1220 1.349 . S
C1219 C1221 1.327 . S
C1219 H1242 0.950 . S
C1220 C1219 1.349 . S
C1220 C1232 1.349 . S
C1221 C1219 1.327 . S
C1221 C1237 1.429 . S
C1221 H1243 0.950 . S
C1222 H1218 0.949 . S
C1222 C1230 1.574 . S
C1222 C1238 1.368 . S
H1223 C1231 0.950 . S
H1224 C1229 0.950 . S
H1225 C1230 0.949 . S
H1226 C1232 0.950 . S
H1227 C1233 0.950 . S
H1228 C1234 0.949 . S
C1229 H1224 0.950 . S
C1229 C1231 1.327 . S
C1229 C1235 1.429 . S
C1230 C1222 1.574 . S
C1230 H1225 0.949 . S
C1230 C1236 1.368 . S
C1231 C1215 1.349 . S
C1231 H1223 0.950 . S
C1231 C1229 1.327 . S
C1232 C1220 1.349 . S
C1232 H1226 0.950 . S
C1232 C1233 1.327 . S
C1233 H1227 0.950 . S
C1233 C1232 1.327 . S
C1233 C1237 1.429 . S
C1234 C1217 1.574 . S
C1234 H1228 0.949 . S
C1234 C1238 1.368 . S
C1235 C1216 1.429 . S
C1235 C1229 1.429 . S
C1235 C1236 1.523 . S
C1236 C1217 1.368 . S
C1236 C1230 1.368 . S
C1236 C1235 1.523 . S
C1237 C1221 1.429 . S
C1237 C1233 1.429 . S
C1237 C1238 1.523 . S
C1238 C1222 1.368 . S
C1238 C1234 1.368 . S
C1238 C1237 1.523 . S
H1239 C1214 0.950 . S
H1240 C1216 0.950 . S
H1241 C1217 0.949 . S
H1242 C1219 0.950 . S
H1243 C1221 0.950 . S
C1244 C1245 1.349 . S
C1244 C1246 1.327 . S
C1244 H1269 0.950 . S
C1245 C1244 1.349 . S
C1245 C1261 1.349 . S
C1246 C1244 1.327 . S
C1246 C1265 1.429 . S
C1246 H1270 0.950 . S
C1247 C1264 1.574 . S
C1247 C1266 1.368 . S
C1247 H1271 0.949 . S
H1248 C1252 0.949 . S
C1249 C1250 1.349 . S
C1249 C1251 1.327 . S
C1249 H1272 0.950 . S
C1250 C1249 1.349 . S
C1250 C1262 1.349 . S
C1251 C1249 1.327 . S
C1251 C1267 1.429 . S
C1251 H1273 0.950 . S
C1252 H1248 0.949 . S
C1252 C1260 1.574 . S
C1252 C1268 1.368 . S
H1253 C1261 0.950 . S
H1254 C1259 0.950 . S
H1255 C1260 0.949 . S
H1256 C1262 0.950 1_554 S
H1257 C1263 0.950 . S
H1258 C1264 0.949 . S
C1259 H1254 0.950 . S
C1259 C1261 1.327 . S
C1259 C1265 1.429 . S
C1260 C1252 1.574 . S
C1260 H1255 0.949 . S
C1260 C1266 1.368 . S
C1261 C1245 1.349 . S
C1261 H1253 0.950 . S
C1261 C1259 1.327 . S
C1262 C1250 1.349 . S
C1262 H1256 0.950 1_556 S
C1262 C1263 1.327 . S
C1263 H1257 0.950 . S
C1263 C1262 1.327 . S
C1263 C1267 1.429 . S
C1264 C1247 1.574 . S
C1264 H1258 0.949 . S
C1264 C1268 1.368 . S
C1265 C1246 1.429 . S
C1265 C1259 1.429 . S
C1265 C1266 1.523 . S
C1266 C1247 1.368 . S
C1266 C1260 1.368 . S
C1266 C1265 1.523 . S
C1267 C1251 1.429 . S
C1267 C1263 1.429 . S
C1267 C1268 1.523 . S
C1268 C1252 1.368 . S
C1268 C1264 1.368 . S
C1268 C1267 1.523 . S
H1269 C1244 0.950 . S
H1270 C1246 0.950 . S
H1271 C1247 0.949 . S
H1272 C1249 0.950 . S
H1273 C1251 0.950 . S
C1274 C1275 1.349 . S
C1274 C1276 1.327 . S
C1274 H1299 0.950 . S
C1275 C1274 1.349 . S
C1275 C1291 1.349 . S
C1276 C1274 1.327 . S
C1276 C1295 1.429 . S
C1276 H1300 0.950 . S
C1277 C1294 1.574 . S
C1277 C1296 1.368 . S
C1277 H1301 0.949 . S
H1278 C1282 0.949 . S
C1279 C1280 1.349 . S
C1279 C1281 1.327 . S
C1279 H1302 0.950 . S
C1280 C1279 1.349 . S
C1280 C1292 1.349 . S
C1281 C1279 1.327 . S
C1281 C1297 1.429 . S
C1281 H1303 0.950 . S
C1282 H1278 0.949 . S
C1282 C1290 1.574 . S
C1282 C1298 1.368 . S
H1283 C1291 0.950 . S
H1284 C1289 0.950 . S
H1285 C1290 0.949 . S
H1286 C1292 0.950 . S
H1287 C1293 0.950 . S
H1288 C1294 0.949 . S
C1289 H1284 0.950 . S
C1289 C1291 1.327 . S
C1289 C1295 1.429 . S
C1290 C1282 1.574 . S
C1290 H1285 0.949 . S
C1290 C1296 1.368 . S
C1291 C1275 1.349 . S
C1291 H1283 0.950 . S
C1291 C1289 1.327 . S
C1292 C1280 1.349 . S
C1292 H1286 0.950 . S
C1292 C1293 1.327 . S
C1293 H1287 0.950 . S
C1293 C1292 1.327 . S
C1293 C1297 1.429 . S
C1294 C1277 1.574 . S
C1294 H1288 0.949 . S
C1294 C1298 1.368 . S
C1295 C1276 1.429 . S
C1295 C1289 1.429 . S
C1295 C1296 1.523 . S
C1296 C1277 1.368 . S
C1296 C1290 1.368 . S
C1296 C1295 1.523 . S
C1297 C1281 1.429 . S
C1297 C1293 1.429 . S
C1297 C1298 1.523 . S
C1298 C1282 1.368 . S
C1298 C1294 1.368 . S
C1298 C1297 1.523 . S
H1299 C1274 0.950 . S
H1300 C1276 0.950 . S
H1301 C1277 0.949 . S
H1302 C1279 0.950 . S
H1303 C1281 0.950 . S
C1304 C1305 1.349 . S
C1304 C1306 1.327 . S
C1304 H1329 0.950 . S
C1305 C1304 1.349 . S
C1305 C1321 1.349 . S
C1306 C1304 1.327 . S
C1306 C1325 1.429 . S
C1306 H1330 0.950 . S
C1307 C1324 1.574 . S
C1307 C1326 1.368 . S
C1307 H1331 0.949 . S
H1308 C1312 0.949 . S
C1309 C1310 1.349 . S
C1309 C1311 1.327 . S
C1309 H1332 0.950 . S
C1310 C1309 1.349 . S
C1310 C1322 1.349 . S
C1311 C1309 1.327 . S
C1311 C1327 1.429 . S
C1311 H1333 0.950 . S
C1312 H1308 0.949 . S
C1312 C1320 1.574 . S
C1312 C1328 1.368 . S
H1313 C1321 0.950 . S
H1314 C1319 0.950 . S
H1315 C1320 0.949 . S
H1316 C1322 0.950 . S
H1317 C1323 0.950 . S
H1318 C1324 0.949 . S
C1319 H1314 0.950 . S
C1319 C1321 1.327 . S
C1319 C1325 1.429 . S
C1320 C1312 1.574 . S
C1320 H1315 0.949 . S
C1320 C1326 1.368 . S
C1321 C1305 1.349 . S
C1321 H1313 0.950 . S
C1321 C1319 1.327 . S
C1322 C1310 1.349 . S
C1322 H1316 0.950 . S
C1322 C1323 1.327 . S
C1323 H1317 0.950 . S
C1323 C1322 1.327 . S
C1323 C1327 1.429 . S
C1324 C1307 1.574 . S
C1324 H1318 0.949 . S
C1324 C1328 1.368 . S
C1325 C1306 1.429 . S
C1325 C1319 1.429 . S
C1325 C1326 1.523 . S
C1326 C1307 1.368 . S
C1326 C1320 1.368 . S
C1326 C1325 1.523 . S
C1327 C1311 1.429 . S
C1327 C1323 1.429 . S
C1327 C1328 1.523 . S
C1328 C1312 1.368 . S
C1328 C1324 1.368 . S
C1328 C1327 1.523 . S
H1329 C1304 0.950 . S
H1330 C1306 0.950 . S
H1331 C1307 0.949 . S
H1332 C1309 0.950 . S
H1333 C1311 0.950 . S
C1334 C1335 1.349 . S
C1334 C1336 1.327 . S
C1334 H1359 0.950 . S
C1335 C1334 1.349 . S
C1335 C1351 1.349 . S
C1336 C1334 1.327 . S
C1336 C1355 1.429 . S
C1336 H1360 0.950 . S
C1337 C1354 1.574 . S
C1337 C1356 1.368 . S
C1337 H1361 0.949 . S
H1338 C1342 0.949 . S
C1339 C1340 1.349 . S
C1339 C1341 1.327 . S
C1339 H1362 0.950 . S
C1340 C1339 1.349 . S
C1340 C1352 1.349 . S
C1341 C1339 1.327 . S
C1341 C1357 1.429 . S
C1341 H1363 0.950 . S
C1342 H1338 0.949 . S
C1342 C1350 1.574 . S
C1342 C1358 1.368 . S
H1343 C1351 0.950 . S
H1344 C1349 0.950 . S
H1345 C1350 0.949 . S
H1346 C1352 0.950 . S
H1347 C1353 0.950 . S
H1348 C1354 0.949 . S
C1349 H1344 0.950 . S
C1349 C1351 1.327 . S
C1349 C1355 1.429 . S
C1350 C1342 1.574 . S
C1350 H1345 0.949 . S
C1350 C1356 1.368 . S
C1351 C1335 1.349 . S
C1351 H1343 0.950 . S
C1351 C1349 1.327 . S
C1352 C1340 1.349 . S
C1352 H1346 0.950 . S
C1352 C1353 1.327 . S
C1353 H1347 0.950 . S
C1353 C1352 1.327 . S
C1353 C1357 1.429 . S
C1354 C1337 1.574 . S
C1354 H1348 0.949 . S
C1354 C1358 1.368 . S
C1355 C1336 1.429 . S
C1355 C1349 1.429 . S
C1355 C1356 1.523 . S
C1356 C1337 1.368 . S
C1356 C1350 1.368 . S
C1356 C1355 1.523 . S
C1357 C1341 1.429 . S
C1357 C1353 1.429 . S
C1357 C1358 1.523 . S
C1358 C1342 1.368 . S
C1358 C1354 1.368 . S
C1358 C1357 1.523 . S
H1359 C1334 0.950 . S
H1360 C1336 0.950 . S
H1361 C1337 0.949 . S
H1362 C1339 0.950 . S
H1363 C1341 0.950 . S
C1364 C1365 1.349 . S
C1364 C1366 1.327 . S
C1364 H1389 0.950 . S
C1365 C1364 1.349 . S
C1365 C1381 1.349 . S
C1366 C1364 1.327 . S
C1366 C1385 1.429 . S
C1366 H1390 0.950 . S
C1367 C1384 1.574 . S
C1367 C1386 1.368 . S
C1367 H1391 0.949 . S
H1368 C1372 0.949 . S
C1369 C1370 1.349 . S
C1369 C1371 1.327 . S
C1369 H1392 0.950 . S
C1370 C1369 1.349 . S
C1370 C1382 1.349 . S
C1371 C1369 1.327 . S
C1371 C1387 1.429 . S
C1371 H1393 0.950 . S
C1372 H1368 0.949 . S
C1372 C1380 1.574 . S
C1372 C1388 1.368 . S
H1373 C1381 0.950 . S
H1374 C1379 0.950 . S
H1375 C1380 0.949 . S
H1376 C1382 0.950 . S
H1377 C1383 0.950 . S
H1378 C1384 0.949 . S
C1379 H1374 0.950 . S
C1379 C1381 1.327 . S
C1379 C1385 1.429 . S
C1380 C1372 1.574 . S
C1380 H1375 0.949 . S
C1380 C1386 1.368 . S
C1381 C1365 1.349 . S
C1381 H1373 0.950 . S
C1381 C1379 1.327 . S
C1382 C1370 1.349 . S
C1382 H1376 0.950 . S
C1382 C1383 1.327 . S
C1383 H1377 0.950 . S
C1383 C1382 1.327 . S
C1383 C1387 1.429 . S
C1384 C1367 1.574 . S
C1384 H1378 0.949 . S
C1384 C1388 1.368 . S
C1385 C1366 1.429 . S
C1385 C1379 1.429 . S
C1385 C1386 1.523 . S
C1386 C1367 1.368 . S
C1386 C1380 1.368 . S
C1386 C1385 1.523 . S
C1387 C1371 1.429 . S
C1387 C1383 1.429 . S
C1387 C1388 1.523 . S
C1388 C1372 1.368 . S
C1388 C1384 1.368 . S
C1388 C1387 1.523 . S
H1389 C1364 0.950 . S
H1390 C1366 0.950 . S
H1391 C1367 0.949 . S
H1392 C1369 0.950 . S
H1393 C1371 0.950 . S
C1394 C1395 1.349 . S
C1394 C1396 1.327 . S
C1394 H1419 0.950 . S
C1395 C1394 1.349 . S
C1395 C1411 1.349 . S
C1396 C1394 1.327 . S
C1396 C1415 1.429 . S
C1396 H1420 0.950 . S
C1397 C1414 1.574 . S
C1397 C1416 1.368 . S
C1397 H1421 0.949 . S
H1398 C1402 0.949 . S
C1399 C1400 1.349 . S
C1399 C1401 1.327 . S
C1399 H1422 0.950 1_556 S
C1400 C1399 1.349 . S
C1400 C1412 1.349 . S
C1401 C1399 1.327 . S
C1401 C1417 1.429 . S
C1401 H1423 0.950 . S
C1402 H1398 0.949 . S
C1402 C1410 1.574 . S
C1402 C1418 1.368 . S
H1403 C1411 0.950 . S
H1404 C1409 0.950 . S
H1405 C1410 0.949 . S
H1406 C1412 0.950 . S
H1407 C1413 0.950 . S
H1408 C1414 0.949 . S
C1409 H1404 0.950 . S
C1409 C1411 1.327 . S
C1409 C1415 1.429 . S
C1410 C1402 1.574 . S
C1410 H1405 0.949 . S
C1410 C1416 1.368 . S
C1411 C1395 1.349 . S
C1411 H1403 0.950 . S
C1411 C1409 1.327 . S
C1412 C1400 1.349 . S
C1412 H1406 0.950 . S
C1412 C1413 1.327 . S
C1413 H1407 0.950 . S
C1413 C1412 1.327 . S
C1413 C1417 1.429 . S
C1414 C1397 1.574 . S
C1414 H1408 0.949 . S
C1414 C1418 1.368 . S
C1415 C1396 1.429 . S
C1415 C1409 1.429 . S
C1415 C1416 1.523 . S
C1416 C1397 1.368 . S
C1416 C1410 1.368 . S
C1416 C1415 1.523 . S
C1417 C1401 1.429 . S
C1417 C1413 1.429 . S
C1417 C1418 1.523 . S
C1418 C1402 1.368 . S
C1418 C1414 1.368 . S
C1418 C1417 1.523 . S
H1419 C1394 0.950 . S
H1420 C1396 0.950 . S
H1421 C1397 0.949 . S
H1422 C1399 0.950 1_554 S
H1423 C1401 0.950 . S
C1424 C1425 1.349 . S
C1424 C1426 1.327 . S
C1424 H1449 0.950 . S
C1425 C1424 1.349 . S
C1425 C1441 1.349 . S
C1426 C1424 1.327 . S
C1426 C1445 1.429 . S
C1426 H1450 0.950 . S
C1427 C1444 1.574 . S
C1427 C1446 1.368 . S
C1427 H1451 0.949 . S
H1428 C1432 0.949 . S
C1429 C1430 1.349 . S
C1429 C1431 1.327 . S
C1429 H1452 0.950 . S
C1430 C1429 1.349 . S
C1430 C1442 1.349 . S
C1431 C1429 1.327 . S
C1431 C1447 1.429 . S
C1431 H1453 0.950 . S
C1432 H1428 0.949 . S
C1432 C1440 1.574 . S
C1432 C1448 1.368 . S
H1433 C1441 0.950 . S
H1434 C1439 0.950 . S
H1435 C1440 0.949 . S
H1436 C1442 0.950 . S
H1437 C1443 0.950 . S
H1438 C1444 0.949 . S
C1439 H1434 0.950 . S
C1439 C1441 1.327 . S
C1439 C1445 1.429 . S
C1440 C1432 1.574 . S
C1440 H1435 0.949 . S
C1440 C1446 1.368 . S
C1441 C1425 1.349 . S
C1441 H1433 0.950 . S
C1441 C1439 1.327 . S
C1442 C1430 1.349 . S
C1442 H1436 0.950 . S
C1442 C1443 1.327 . S
C1443 H1437 0.950 . S
C1443 C1442 1.327 . S
C1443 C1447 1.429 . S
C1444 C1427 1.574 . S
C1444 H1438 0.949 . S
C1444 C1448 1.368 . S
C1445 C1426 1.429 . S
C1445 C1439 1.429 . S
C1445 C1446 1.523 . S
C1446 C1427 1.368 . S
C1446 C1440 1.368 . S
C1446 C1445 1.523 . S
C1447 C1431 1.429 . S
C1447 C1443 1.429 . S
C1447 C1448 1.523 . S
C1448 C1432 1.368 . S
C1448 C1444 1.368 . S
C1448 C1447 1.523 . S
H1449 C1424 0.950 . S
H1450 C1426 0.950 . S
H1451 C1427 0.949 . S
H1452 C1429 0.950 . S
H1453 C1431 0.950 . S
C1454 C1455 1.349 . S
C1454 C1456 1.327 . S
C1454 H1479 0.950 . S
C1455 C1454 1.349 . S
C1455 C1471 1.349 . S
C1456 C1454 1.327 . S
C1456 C1475 1.429 . S
C1456 H1480 0.950 . S
C1457 C1474 1.574 . S
C1457 C1476 1.368 . S
C1457 H1481 0.949 . S
H1458 C1462 0.949 . S
C1459 C1460 1.349 . S
C1459 C1461 1.327 . S
C1459 H1482 0.950 . S
C1460 C1459 1.349 . S
C1460 C1472 1.349 1_556 S
C1461 C1459 1.327 . S
C1461 C1477 1.429 . S
C1461 H1483 0.950 . S
C1462 H1458 0.949 . S
C1462 C1470 1.574 . S
C1462 C1478 1.368 . S
H1463 C1471 0.950 . S
H1464 C1469 0.950 . S
H1465 C1470 0.949 . S
H1466 C1472 0.950 . S
H1467 C1473 0.950 . S
H1468 C1474 0.949 . S
C1469 H1464 0.950 . S
C1469 C1471 1.327 . S
C1469 C1475 1.429 . S
C1470 C1462 1.574 . S
C1470 H1465 0.949 . S
C1470 C1476 1.368 . S
C1471 C1455 1.349 . S
C1471 H1463 0.950 . S
C1471 C1469 1.327 . S
C1472 C1460 1.349 1_554 S
C1472 H1466 0.950 . S
C1472 C1473 1.327 1_554 S
C1473 H1467 0.950 . S
C1473 C1472 1.327 1_556 S
C1473 C1477 1.429 . S
C1474 C1457 1.574 . S
C1474 H1468 0.949 . S
C1474 C1478 1.368 . S
C1475 C1456 1.429 . S
C1475 C1469 1.429 . S
C1475 C1476 1.523 . S
C1476 C1457 1.368 . S
C1476 C1470 1.368 . S
C1476 C1475 1.523 . S
C1477 C1461 1.429 . S
C1477 C1473 1.429 . S
C1477 C1478 1.523 . S
C1478 C1462 1.368 . S
C1478 C1474 1.368 . S
C1478 C1477 1.523 . S
H1479 C1454 0.950 . S
H1480 C1456 0.950 . S
H1481 C1457 0.949 . S
H1482 C1459 0.950 . S
H1483 C1461 0.950 . S
C1484 C1485 1.349 . S
C1484 C1486 1.327 . S
C1484 H1509 0.950 . S
C1485 C1484 1.349 . S
C1485 C1501 1.349 . S
C1486 C1484 1.327 . S
C1486 C1505 1.429 . S
C1486 H1510 0.950 . S
C1487 C1504 1.574 . S
C1487 C1506 1.368 . S
C1487 H1511 0.949 . S
H1488 C1492 0.949 . S
C1489 C1490 1.349 . S
C1489 C1491 1.327 . S
C1489 H1512 0.950 . S
C1490 C1489 1.349 . S
C1490 C1502 1.349 . S
C1491 C1489 1.327 . S
C1491 C1507 1.429 . S
C1491 H1513 0.950 . S
C1492 H1488 0.949 . S
C1492 C1500 1.574 . S
C1492 C1508 1.368 . S
H1493 C1501 0.950 . S
H1494 C1499 0.950 . S
H1495 C1500 0.949 . S
H1496 C1502 0.950 . S
H1497 C1503 0.950 . S
H1498 C1504 0.949 . S
C1499 H1494 0.950 . S
C1499 C1501 1.327 . S
C1499 C1505 1.429 . S
C1500 C1492 1.574 . S
C1500 H1495 0.949 . S
C1500 C1506 1.368 . S
C1501 C1485 1.349 . S
C1501 H1493 0.950 . S
C1501 C1499 1.327 . S
C1502 C1490 1.349 . S
C1502 H1496 0.950 . S
C1502 C1503 1.327 . S
C1503 H1497 0.950 . S
C1503 C1502 1.327 . S
C1503 C1507 1.429 . S
C1504 C1487 1.574 . S
C1504 H1498 0.949 . S
C1504 C1508 1.368 . S
C1505 C1486 1.429 . S
C1505 C1499 1.429 . S
C1505 C1506 1.523 . S
C1506 C1487 1.368 . S
C1506 C1500 1.368 . S
C1506 C1505 1.523 . S
C1507 C1491 1.429 . S
C1507 C1503 1.429 . S
C1507 C1508 1.523 . S
C1508 C1492 1.368 . S
C1508 C1504 1.368 . S
C1508 C1507 1.523 . S
H1509 C1484 0.950 . S
H1510 C1486 0.950 . S
H1511 C1487 0.949 . S
H1512 C1489 0.950 . S
H1513 C1491 0.950 . S
C1514 C1515 1.349 . S
C1514 C1516 1.327 . S
C1514 H1539 0.950 . S
C1515 C1514 1.349 . S
C1515 C1531 1.349 . S
C1516 C1514 1.327 . S
C1516 C1535 1.429 . S
C1516 H1540 0.950 . S
C1517 C1534 1.574 . S
C1517 C1536 1.368 . S
C1517 H1541 0.949 . S
H1518 C1522 0.949 . S
C1519 C1520 1.349 . S
C1519 C1521 1.327 . S
C1519 H1542 0.950 . S
C1520 C1519 1.349 . S
C1520 C1532 1.349 . S
C1521 C1519 1.327 . S
C1521 C1537 1.429 . S
C1521 H1543 0.950 . S
C1522 H1518 0.949 . S
C1522 C1530 1.574 . S
C1522 C1538 1.368 . S
H1523 C1531 0.950 . S
H1524 C1529 0.950 . S
H1525 C1530 0.949 . S
H1526 C1532 0.950 . S
H1527 C1533 0.950 . S
H1528 C1534 0.949 . S
C1529 H1524 0.950 . S
C1529 C1531 1.327 . S
C1529 C1535 1.429 . S
C1530 C1522 1.574 . S
C1530 H1525 0.949 . S
C1530 C1536 1.368 . S
C1531 C1515 1.349 . S
C1531 H1523 0.950 . S
C1531 C1529 1.327 . S
C1532 C1520 1.349 . S
C1532 H1526 0.950 . S
C1532 C1533 1.327 . S
C1533 H1527 0.950 . S
C1533 C1532 1.327 . S
C1533 C1537 1.429 . S
C1534 C1517 1.574 . S
C1534 H1528 0.949 . S
C1534 C1538 1.368 . S
C1535 C1516 1.429 . S
C1535 C1529 1.429 . S
C1535 C1536 1.523 . S
C1536 C1517 1.368 . S
C1536 C1530 1.368 . S
C1536 C1535 1.523 . S
C1537 C1521 1.429 . S
C1537 C1533 1.429 . S
C1537 C1538 1.523 . S
C1538 C1522 1.368 . S
C1538 C1534 1.368 . S
C1538 C1537 1.523 . S
H1539 C1514 0.950 . S
H1540 C1516 0.950 . S
H1541 C1517 0.949 . S
H1542 C1519 0.950 . S
H1543 C1521 0.950 . S
C1544 C1545 1.349 . S
C1544 C1546 1.327 . S
C1544 H1569 0.950 . S
C1545 C1544 1.349 . S
C1545 C1561 1.349 . S
C1546 C1544 1.327 . S
C1546 C1565 1.429 . S
C1546 H1570 0.950 . S
C1547 C1564 1.574 . S
C1547 C1566 1.368 . S
C1547 H1571 0.949 . S
H1548 C1552 0.949 . S
C1549 C1550 1.349 . S
C1549 C1551 1.327 . S
C1549 H1572 0.950 . S
C1550 C1549 1.349 . S
C1550 C1562 1.349 . S
C1551 C1549 1.327 . S
C1551 C1567 1.429 . S
C1551 H1573 0.950 . S
C1552 H1548 0.949 . S
C1552 C1560 1.574 . S
C1552 C1568 1.368 . S
H1553 C1561 0.950 . S
H1554 C1559 0.950 . S
H1555 C1560 0.949 . S
H1556 C1562 0.950 . S
H1557 C1563 0.950 . S
H1558 C1564 0.949 . S
C1559 H1554 0.950 . S
C1559 C1561 1.327 . S
C1559 C1565 1.429 . S
C1560 C1552 1.574 . S
C1560 H1555 0.949 . S
C1560 C1566 1.368 . S
C1561 C1545 1.349 . S
C1561 H1553 0.950 . S
C1561 C1559 1.327 . S
C1562 C1550 1.349 . S
C1562 H1556 0.950 . S
C1562 C1563 1.327 . S
C1563 H1557 0.950 . S
C1563 C1562 1.327 . S
C1563 C1567 1.429 . S
C1564 C1547 1.574 . S
C1564 H1558 0.949 . S
C1564 C1568 1.368 . S
C1565 C1546 1.429 . S
C1565 C1559 1.429 . S
C1565 C1566 1.523 . S
C1566 C1547 1.368 . S
C1566 C1560 1.368 . S
C1566 C1565 1.523 . S
C1567 C1551 1.429 . S
C1567 C1563 1.429 . S
C1567 C1568 1.523 . S
C1568 C1552 1.368 . S
C1568 C1564 1.368 . S
C1568 C1567 1.523 . S
H1569 C1544 0.950 . S
H1570 C1546 0.950 . S
H1571 C1547 0.949 . S
H1572 C1549 0.950 . S
H1573 C1551 0.950 . S
C1574 C1575 1.349 . S
C1574 C1576 1.327 . S
C1574 H1599 0.950 . S
C1575 C1574 1.349 . S
C1575 C1591 1.349 . S
C1576 C1574 1.327 . S
C1576 C1595 1.429 . S
C1576 H1600 0.950 . S
C1577 C1594 1.574 . S
C1577 C1596 1.368 . S
C1577 H1601 0.949 . S
H1578 C1582 0.949 . S
C1579 C1580 1.349 . S
C1579 C1581 1.327 . S
C1579 H1602 0.950 . S
C1580 C1579 1.349 . S
C1580 C1592 1.349 . S
C1581 C1579 1.327 . S
C1581 C1597 1.429 . S
C1581 H1603 0.950 . S
C1582 H1578 0.949 . S
C1582 C1590 1.574 . S
C1582 C1598 1.368 . S
H1583 C1591 0.950 . S
H1584 C1589 0.950 . S
H1585 C1590 0.949 . S
H1586 C1592 0.950 . S
H1587 C1593 0.950 . S
H1588 C1594 0.949 . S
C1589 H1584 0.950 . S
C1589 C1591 1.327 . S
C1589 C1595 1.429 . S
C1590 C1582 1.574 . S
C1590 H1585 0.949 . S
C1590 C1596 1.368 . S
C1591 C1575 1.349 . S
C1591 H1583 0.950 . S
C1591 C1589 1.327 . S
C1592 C1580 1.349 . S
C1592 H1586 0.950 . S
C1592 C1593 1.327 . S
C1593 H1587 0.950 . S
C1593 C1592 1.327 . S
C1593 C1597 1.429 . S
C1594 C1577 1.574 . S
C1594 H1588 0.949 . S
C1594 C1598 1.368 . S
C1595 C1576 1.429 . S
C1595 C1589 1.429 . S
C1595 C1596 1.523 . S
C1596 C1577 1.368 . S
C1596 C1590 1.368 . S
C1596 C1595 1.523 . S
C1597 C1581 1.429 . S
C1597 C1593 1.429 . S
C1597 C1598 1.523 . S
C1598 C1582 1.368 . S
C1598 C1594 1.368 . S
C1598 C1597 1.523 . S
H1599 C1574 0.950 . S
H1600 C1576 0.950 . S
H1601 C1577 0.949 . S
H1602 C1579 0.950 . S
H1603 C1581 0.950 . S
C1604 C1605 1.349 . S
C1604 C1606 1.327 . S
C1604 H1629 0.950 . S
C1605 C1604 1.349 . S
C1605 C1621 1.349 . S
C1606 C1604 1.327 . S
C1606 C1625 1.429 . S
C1606 H1630 0.950 . S
C1607 C1624 1.574 . S
C1607 C1626 1.368 . S
C1607 H1631 0.949 . S
H1608 C1612 0.949 . S
C1609 C1610 1.349 . S
C1609 C1611 1.327 . S
C1609 H1632 0.950 . S
C1610 C1609 1.349 . S
C1610 C1622 1.349 . S
C1611 C1609 1.327 . S
C1611 C1627 1.429 . S
C1611 H1633 0.950 . S
C1612 H1608 0.949 . S
C1612 C1620 1.574 . S
C1612 C1628 1.368 . S
H1613 C1621 0.950 . S
H1614 C1619 0.950 . S
H1615 C1620 0.949 . S
H1616 C1622 0.950 . S
H1617 C1623 0.950 . S
H1618 C1624 0.949 . S
C1619 H1614 0.950 . S
C1619 C1621 1.327 . S
C1619 C1625 1.429 . S
C1620 C1612 1.574 . S
C1620 H1615 0.949 . S
C1620 C1626 1.368 . S
C1621 C1605 1.349 . S
C1621 H1613 0.950 . S
C1621 C1619 1.327 . S
C1622 C1610 1.349 . S
C1622 H1616 0.950 . S
C1622 C1623 1.327 . S
C1623 H1617 0.950 . S
C1623 C1622 1.327 . S
C1623 C1627 1.429 . S
C1624 C1607 1.574 . S
C1624 H1618 0.949 . S
C1624 C1628 1.368 . S
C1625 C1606 1.429 . S
C1625 C1619 1.429 . S
C1625 C1626 1.523 . S
C1626 C1607 1.368 . S
C1626 C1620 1.368 . S
C1626 C1625 1.523 . S
C1627 C1611 1.429 . S
C1627 C1623 1.429 . S
C1627 C1628 1.523 . S
C1628 C1612 1.368 . S
C1628 C1624 1.368 . S
C1628 C1627 1.523 . S
H1629 C1604 0.950 . S
H1630 C1606 0.950 . S
H1631 C1607 0.949 . S
H1632 C1609 0.950 . S
H1633 C1611 0.950 . S
C1634 C1635 1.349 . S
C1634 C1636 1.327 . S
C1634 H1659 0.950 . S
C1635 C1634 1.349 . S
C1635 C1651 1.349 . S
C1636 C1634 1.327 . S
C1636 C1655 1.429 . S
C1636 H1660 0.950 . S
C1637 C1654 1.574 . S
C1637 C1656 1.368 . S
C1637 H1661 0.949 . S
H1638 C1642 0.949 . S
C1639 C1640 1.349 . S
C1639 C1641 1.327 . S
C1639 H1662 0.950 . S
C1640 C1639 1.349 . S
C1640 C1652 1.349 . S
C1641 C1639 1.327 . S
C1641 C1657 1.429 . S
C1641 H1663 0.950 . S
C1642 H1638 0.949 . S
C1642 C1650 1.574 . S
C1642 C1658 1.368 . S
H1643 C1651 0.950 . S
H1644 C1649 0.950 . S
H1645 C1650 0.949 . S
H1646 C1652 0.950 . S
H1647 C1653 0.950 . S
H1648 C1654 0.949 . S
C1649 H1644 0.950 . S
C1649 C1651 1.327 . S
C1649 C1655 1.429 . S
C1650 C1642 1.574 . S
C1650 H1645 0.949 . S
C1650 C1656 1.368 . S
C1651 C1635 1.349 . S
C1651 H1643 0.950 . S
C1651 C1649 1.327 . S
C1652 C1640 1.349 . S
C1652 H1646 0.950 . S
C1652 C1653 1.327 . S
C1653 H1647 0.950 . S
C1653 C1652 1.327 . S
C1653 C1657 1.429 . S
C1654 C1637 1.574 . S
C1654 H1648 0.949 . S
C1654 C1658 1.368 . S
C1655 C1636 1.429 . S
C1655 C1649 1.429 . S
C1655 C1656 1.523 . S
C1656 C1637 1.368 . S
C1656 C1650 1.368 . S
C1656 C1655 1.523 . S
C1657 C1641 1.429 . S
C1657 C1653 1.429 . S
C1657 C1658 1.523 . S
C1658 C1642 1.368 . S
C1658 C1654 1.368 . S
C1658 C1657 1.523 . S
H1659 C1634 0.950 . S
H1660 C1636 0.950 . S
H1661 C1637 0.949 . S
H1662 C1639 0.950 . S
H1663 C1641 0.950 . S
C1664 C1665 1.349 . S
C1664 C1666 1.327 . S
C1664 H1689 0.950 . S
C1665 C1664 1.349 . S
C1665 C1681 1.349 . S
C1666 C1664 1.327 . S
C1666 C1685 1.429 . S
C1666 H1690 0.950 . S
C1667 C1684 1.574 . S
C1667 C1686 1.368 . S
C1667 H1691 0.949 . S
H1668 C1672 0.949 . S
C1669 C1670 1.349 . S
C1669 C1671 1.327 . S
C1669 H1692 0.950 . S
C1670 C1669 1.349 . S
C1670 C1682 1.349 . S
C1671 C1669 1.327 . S
C1671 C1687 1.429 . S
C1671 H1693 0.950 . S
C1672 H1668 0.949 . S
C1672 C1680 1.574 . S
C1672 C1688 1.368 . S
H1673 C1681 0.950 . S
H1674 C1679 0.950 . S
H1675 C1680 0.949 . S
H1676 C1682 0.950 . S
H1677 C1683 0.950 . S
H1678 C1684 0.949 . S
C1679 H1674 0.950 . S
C1679 C1681 1.327 . S
C1679 C1685 1.429 . S
C1680 C1672 1.574 . S
C1680 H1675 0.949 . S
C1680 C1686 1.368 . S
C1681 C1665 1.349 . S
C1681 H1673 0.950 . S
C1681 C1679 1.327 . S
C1682 C1670 1.349 . S
C1682 H1676 0.950 . S
C1682 C1683 1.327 . S
C1683 H1677 0.950 . S
C1683 C1682 1.327 . S
C1683 C1687 1.429 . S
C1684 C1667 1.574 . S
C1684 H1678 0.949 . S
C1684 C1688 1.368 . S
C1685 C1666 1.429 . S
C1685 C1679 1.429 . S
C1685 C1686 1.523 . S
C1686 C1667 1.368 . S
C1686 C1680 1.368 . S
C1686 C1685 1.523 . S
C1687 C1671 1.429 . S
C1687 C1683 1.429 . S
C1687 C1688 1.523 . S
C1688 C1672 1.368 . S
C1688 C1684 1.368 . S
C1688 C1687 1.523 . S
H1689 C1664 0.950 . S
H1690 C1666 0.950 . S
H1691 C1667 0.949 . S
H1692 C1669 0.950 . S
H1693 C1671 0.950 . S
C1694 C1695 1.349 . S
C1694 C1696 1.327 . S
C1694 H1719 0.950 . S
C1695 C1694 1.349 . S
C1695 C1711 1.349 . S
C1696 C1694 1.327 . S
C1696 C1715 1.429 . S
C1696 H1720 0.950 . S
C1697 C1714 1.574 . S
C1697 C1716 1.368 . S
C1697 H1721 0.949 . S
H1698 C1702 0.949 . S
C1699 C1700 1.349 . S
C1699 C1701 1.327 . S
C1699 H1722 0.950 . S
C1700 C1699 1.349 . S
C1700 C1712 1.349 . S
C1701 C1699 1.327 . S
C1701 C1717 1.429 . S
C1701 H1723 0.950 . S
C1702 H1698 0.949 . S
C1702 C1710 1.574 . S
C1702 C1718 1.368 . S
H1703 C1711 0.950 . S
H1704 C1709 0.950 . S
H1705 C1710 0.949 . S
H1706 C1712 0.950 . S
H1707 C1713 0.950 . S
H1708 C1714 0.949 . S
C1709 H1704 0.950 . S
C1709 C1711 1.327 . S
C1709 C1715 1.429 . S
C1710 C1702 1.574 . S
C1710 H1705 0.949 . S
C1710 C1716 1.368 . S
C1711 C1695 1.349 . S
C1711 H1703 0.950 . S
C1711 C1709 1.327 . S
C1712 C1700 1.349 . S
C1712 H1706 0.950 . S
C1712 C1713 1.327 . S
C1713 H1707 0.950 . S
C1713 C1712 1.327 . S
C1713 C1717 1.429 . S
C1714 C1697 1.574 . S
C1714 H1708 0.949 . S
C1714 C1718 1.368 . S
C1715 C1696 1.429 . S
C1715 C1709 1.429 . S
C1715 C1716 1.523 . S
C1716 C1697 1.368 . S
C1716 C1710 1.368 . S
C1716 C1715 1.523 . S
C1717 C1701 1.429 . S
C1717 C1713 1.429 . S
C1717 C1718 1.523 . S
C1718 C1702 1.368 . S
C1718 C1714 1.368 . S
C1718 C1717 1.523 . S
H1719 C1694 0.950 . S
H1720 C1696 0.950 . S
H1721 C1697 0.949 . S
H1722 C1699 0.950 . S
H1723 C1701 0.950 . S
C1724 C1725 1.349 . S
C1724 C1726 1.327 . S
C1724 H1749 0.950 . S
C1725 C1724 1.349 . S
C1725 C1741 1.349 . S
C1726 C1724 1.327 . S
C1726 C1745 1.429 . S
C1726 H1750 0.950 . S
C1727 C1744 1.574 . S
C1727 C1746 1.368 . S
C1727 H1751 0.949 . S
H1728 C1732 0.949 . S
C1729 C1730 1.349 . S
C1729 C1731 1.327 . S
C1729 H1752 0.950 . S
C1730 C1729 1.349 . S
C1730 C1742 1.349 . S
C1731 C1729 1.327 . S
C1731 C1747 1.429 . S
C1731 H1753 0.950 . S
C1732 H1728 0.949 . S
C1732 C1740 1.574 . S
C1732 C1748 1.368 . S
H1733 C1741 0.950 . S
H1734 C1739 0.950 . S
H1735 C1740 0.949 . S
H1736 C1742 0.950 . S
H1737 C1743 0.950 . S
H1738 C1744 0.949 . S
C1739 H1734 0.950 . S
C1739 C1741 1.327 . S
C1739 C1745 1.429 . S
C1740 C1732 1.574 . S
C1740 H1735 0.949 . S
C1740 C1746 1.368 . S
C1741 C1725 1.349 . S
C1741 H1733 0.950 . S
C1741 C1739 1.327 . S
C1742 C1730 1.349 . S
C1742 H1736 0.950 . S
C1742 C1743 1.327 . S
C1743 H1737 0.950 . S
C1743 C1742 1.327 . S
C1743 C1747 1.429 . S
C1744 C1727 1.574 . S
C1744 H1738 0.949 . S
C1744 C1748 1.368 . S
C1745 C1726 1.429 . S
C1745 C1739 1.429 . S
C1745 C1746 1.523 . S
C1746 C1727 1.368 . S
C1746 C1740 1.368 . S
C1746 C1745 1.523 . S
C1747 C1731 1.429 . S
C1747 C1743 1.429 . S
C1747 C1748 1.523 . S
C1748 C1732 1.368 . S
C1748 C1744 1.368 . S
C1748 C1747 1.523 . S
H1749 C1724 0.950 . S
H1750 C1726 0.950 . S
H1751 C1727 0.949 . S
H1752 C1729 0.950 . S
H1753 C1731 0.950 . S
C1754 C1755 1.349 . S
C1754 C1756 1.327 . S
C1754 H1779 0.950 . S
C1755 C1754 1.349 . S
C1755 C1771 1.349 . S
C1756 C1754 1.327 . S
C1756 C1775 1.429 . S
C1756 H1780 0.950 . S
C1757 C1774 1.574 . S
C1757 C1776 1.368 . S
C1757 H1781 0.949 . S
H1758 C1762 0.949 . S
C1759 C1760 1.349 . S
C1759 C1761 1.327 . S
C1759 H1782 0.950 . S
C1760 C1759 1.349 . S
C1760 C1772 1.349 . S
C1761 C1759 1.327 . S
C1761 C1777 1.429 . S
C1761 H1783 0.950 . S
C1762 H1758 0.949 . S
C1762 C1770 1.574 . S
C1762 C1778 1.368 . S
H1763 C1771 0.950 . S
H1764 C1769 0.950 . S
H1765 C1770 0.949 . S
H1766 C1772 0.950 . S
H1767 C1773 0.950 . S
H1768 C1774 0.949 . S
C1769 H1764 0.950 . S
C1769 C1771 1.327 . S
C1769 C1775 1.429 . S
C1770 C1762 1.574 . S
C1770 H1765 0.949 . S
C1770 C1776 1.368 . S
C1771 C1755 1.349 . S
C1771 H1763 0.950 . S
C1771 C1769 1.327 . S
C1772 C1760 1.349 . S
C1772 H1766 0.950 . S
C1772 C1773 1.327 . S
C1773 H1767 0.950 . S
C1773 C1772 1.327 . S
C1773 C1777 1.429 . S
C1774 C1757 1.574 . S
C1774 H1768 0.949 . S
C1774 C1778 1.368 . S
C1775 C1756 1.429 . S
C1775 C1769 1.429 . S
C1775 C1776 1.523 . S
C1776 C1757 1.368 . S
C1776 C1770 1.368 . S
C1776 C1775 1.523 . S
C1777 C1761 1.429 . S
C1777 C1773 1.429 . S
C1777 C1778 1.523 . S
C1778 C1762 1.368 . S
C1778 C1774 1.368 . S
C1778 C1777 1.523 . S
H1779 C1754 0.950 . S
H1780 C1756 0.950 . S
H1781 C1757 0.949 . S
H1782 C1759 0.950 . S
H1783 C1761 0.950 . S
C1784 C1785 1.349 . S
C1784 C1786 1.327 . S
C1784 H1809 0.950 . S
C1785 C1784 1.349 . S
C1785 C1801 1.349 . S
C1786 C1784 1.327 . S
C1786 C1805 1.429 . S
C1786 H1810 0.950 . S
C1787 C1804 1.574 . S
C1787 C1806 1.368 . S
C1787 H1811 0.949 . S
H1788 C1792 0.949 . S
C1789 C1790 1.349 . S
C1789 C1791 1.327 . S
C1789 H1812 0.950 . S
C1790 C1789 1.349 . S
C1790 C1802 1.349 . S
C1791 C1789 1.327 . S
C1791 C1807 1.429 . S
C1791 H1813 0.950 . S
C1792 H1788 0.949 . S
C1792 C1800 1.574 . S
C1792 C1808 1.368 . S
H1793 C1801 0.950 . S
H1794 C1799 0.950 . S
H1795 C1800 0.949 . S
H1796 C1802 0.950 . S
H1797 C1803 0.950 . S
H1798 C1804 0.949 . S
C1799 H1794 0.950 . S
C1799 C1801 1.327 . S
C1799 C1805 1.429 . S
C1800 C1792 1.574 . S
C1800 H1795 0.949 . S
C1800 C1806 1.368 . S
C1801 C1785 1.349 . S
C1801 H1793 0.950 . S
C1801 C1799 1.327 . S
C1802 C1790 1.349 . S
C1802 H1796 0.950 . S
C1802 C1803 1.327 . S
C1803 H1797 0.950 . S
C1803 C1802 1.327 . S
C1803 C1807 1.429 . S
C1804 C1787 1.574 . S
C1804 H1798 0.949 . S
C1804 C1808 1.368 . S
C1805 C1786 1.429 . S
C1805 C1799 1.429 . S
C1805 C1806 1.523 . S
C1806 C1787 1.368 . S
C1806 C1800 1.368 . S
C1806 C1805 1.523 . S
C1807 C1791 1.429 . S
C1807 C1803 1.429 . S
C1807 C1808 1.523 . S
C1808 C1792 1.368 . S
C1808 C1804 1.368 . S
C1808 C1807 1.523 . S
H1809 C1784 0.950 . S
H1810 C1786 0.950 . S
H1811 C1787 0.949 . S
H1812 C1789 0.950 . S
H1813 C1791 0.950 . S
C1814 C1815 1.349 . S
C1814 C1816 1.327 . S
C1814 H1839 0.950 . S
C1815 C1814 1.349 . S
C1815 C1831 1.349 . S
C1816 C1814 1.327 . S
C1816 C1835 1.429 . S
C1816 H1840 0.950 . S
C1817 C1834 1.574 . S
C1817 C1836 1.368 . S
C1817 H1841 0.949 . S
H1818 C1822 0.949 . S
C1819 C1820 1.349 . S
C1819 C1821 1.327 . S
C1819 H1842 0.950 . S
C1820 C1819 1.349 . S
C1820 C1832 1.349 . S
C1821 C1819 1.327 . S
C1821 C1837 1.429 . S
C1821 H1843 0.950 . S
C1822 H1818 0.949 . S
C1822 C1830 1.574 . S
C1822 C1838 1.368 . S
H1823 C1831 0.950 . S
H1824 C1829 0.950 . S
H1825 C1830 0.949 . S
H1826 C1832 0.950 . S
H1827 C1833 0.950 . S
H1828 C1834 0.949 . S
C1829 H1824 0.950 . S
C1829 C1831 1.327 . S
C1829 C1835 1.429 . S
C1830 C1822 1.574 . S
C1830 H1825 0.949 . S
C1830 C1836 1.368 . S
C1831 C1815 1.349 . S
C1831 H1823 0.950 . S
C1831 C1829 1.327 . S
C1832 C1820 1.349 . S
C1832 H1826 0.950 . S
C1832 C1833 1.327 . S
C1833 H1827 0.950 . S
C1833 C1832 1.327 . S
C1833 C1837 1.429 . S
C1834 C1817 1.574 . S
C1834 H1828 0.949 . S
C1834 C1838 1.368 . S
C1835 C1816 1.429 . S
C1835 C1829 1.429 . S
C1835 C1836 1.523 . S
C1836 C1817 1.368 . S
C1836 C1830 1.368 . S
C1836 C1835 1.523 . S
C1837 C1821 1.429 . S
C1837 C1833 1.429 . S
C1837 C1838 1.523 . S
C1838 C1822 1.368 . S
C1838 C1834 1.368 . S
C1838 C1837 1.523 . S
H1839 C1814 0.950 . S
H1840 C1816 0.950 . S
H1841 C1817 0.949 . S
H1842 C1819 0.950 . S
H1843 C1821 0.950 . S
C1844 C1845 1.349 . S
C1844 C1846 1.327 . S
C1844 H1869 0.950 . S
C1845 C1844 1.349 . S
C1845 C1861 1.349 . S
C1846 C1844 1.327 . S
C1846 C1865 1.429 . S
C1846 H1870 0.950 . S
C1847 C1864 1.574 . S
C1847 C1866 1.368 . S
C1847 H1871 0.949 . S
H1848 C1852 0.949 . S
C1849 C1850 1.349 . S
C1849 C1851 1.327 . S
C1849 H1872 0.950 . S
C1850 C1849 1.349 . S
C1850 C1862 1.349 . S
C1851 C1849 1.327 . S
C1851 C1867 1.429 . S
C1851 H1873 0.950 . S
C1852 H1848 0.949 . S
C1852 C1860 1.574 . S
C1852 C1868 1.368 . S
H1853 C1861 0.950 . S
H1854 C1859 0.950 . S
H1855 C1860 0.949 . S
H1856 C1862 0.950 . S
H1857 C1863 0.950 . S
H1858 C1864 0.949 . S
C1859 H1854 0.950 . S
C1859 C1861 1.327 . S
C1859 C1865 1.429 . S
C1860 C1852 1.574 . S
C1860 H1855 0.949 . S
C1860 C1866 1.368 . S
C1861 C1845 1.349 . S
C1861 H1853 0.950 . S
C1861 C1859 1.327 . S
C1862 C1850 1.349 . S
C1862 H1856 0.950 . S
C1862 C1863 1.327 . S
C1863 H1857 0.950 . S
C1863 C1862 1.327 . S
C1863 C1867 1.429 . S
C1864 C1847 1.574 . S
C1864 H1858 0.949 . S
C1864 C1868 1.368 . S
C1865 C1846 1.429 . S
C1865 C1859 1.429 . S
C1865 C1866 1.523 . S
C1866 C1847 1.368 . S
C1866 C1860 1.368 . S
C1866 C1865 1.523 . S
C1867 C1851 1.429 . S
C1867 C1863 1.429 . S
C1867 C1868 1.523 . S
C1868 C1852 1.368 . S
C1868 C1864 1.368 . S
C1868 C1867 1.523 . S
H1869 C1844 0.950 . S
H1870 C1846 0.950 . S
H1871 C1847 0.949 . S
H1872 C1849 0.950 . S
H1873 C1851 0.950 . S
C1874 C1875 1.349 . S
C1874 C1876 1.327 . S
C1874 H1899 0.950 . S
C1875 C1874 1.349 . S
C1875 C1891 1.349 . S
C1876 C1874 1.327 . S
C1876 C1895 1.429 . S
C1876 H1900 0.950 . S
C1877 C1894 1.574 . S
C1877 C1896 1.368 . S
C1877 H1901 0.949 . S
H1878 C1882 0.949 . S
C1879 C1880 1.349 . S
C1879 C1881 1.327 . S
C1879 H1902 0.950 . S
C1880 C1879 1.349 . S
C1880 C1892 1.349 . S
C1881 C1879 1.327 . S
C1881 C1897 1.429 . S
C1881 H1903 0.950 . S
C1882 H1878 0.949 . S
C1882 C1890 1.574 . S
C1882 C1898 1.368 . S
H1883 C1891 0.950 . S
H1884 C1889 0.950 . S
H1885 C1890 0.949 . S
H1886 C1892 0.950 . S
H1887 C1893 0.950 . S
H1888 C1894 0.949 . S
C1889 H1884 0.950 . S
C1889 C1891 1.327 . S
C1889 C1895 1.429 . S
C1890 C1882 1.574 . S
C1890 H1885 0.949 . S
C1890 C1896 1.368 . S
C1891 C1875 1.349 . S
C1891 H1883 0.950 . S
C1891 C1889 1.327 . S
C1892 C1880 1.349 . S
C1892 H1886 0.950 . S
C1892 C1893 1.327 . S
C1893 H1887 0.950 . S
C1893 C1892 1.327 . S
C1893 C1897 1.429 . S
C1894 C1877 1.574 . S
C1894 H1888 0.949 . S
C1894 C1898 1.368 . S
C1895 C1876 1.429 . S
C1895 C1889 1.429 . S
C1895 C1896 1.523 . S
C1896 C1877 1.368 . S
C1896 C1890 1.368 . S
C1896 C1895 1.523 . S
C1897 C1881 1.429 . S
C1897 C1893 1.429 . S
C1897 C1898 1.523 . S
C1898 C1882 1.368 . S
C1898 C1894 1.368 . S
C1898 C1897 1.523 . S
H1899 C1874 0.950 . S
H1900 C1876 0.950 . S
H1901 C1877 0.949 . S
H1902 C1879 0.950 . S
H1903 C1881 0.950 . S
C1904 C1905 1.349 . S
C1904 C1906 1.327 . S
C1904 H1929 0.950 . S
C1905 C1904 1.349 . S
C1905 C1921 1.349 . S
C1906 C1904 1.327 . S
C1906 C1925 1.429 . S
C1906 H1930 0.950 . S
C1907 C1924 1.574 . S
C1907 C1926 1.368 . S
C1907 H1931 0.949 . S
H1908 C1912 0.949 . S
C1909 C1910 1.349 . S
C1909 C1911 1.327 . S
C1909 H1932 0.950 . S
C1910 C1909 1.349 . S
C1910 C1922 1.349 . S
C1911 C1909 1.327 . S
C1911 C1927 1.429 . S
C1911 H1933 0.950 . S
C1912 H1908 0.949 . S
C1912 C1920 1.574 . S
C1912 C1928 1.368 . S
H1913 C1921 0.950 . S
H1914 C1919 0.950 . S
H1915 C1920 0.949 . S
H1916 C1922 0.950 . S
H1917 C1923 0.950 . S
H1918 C1924 0.949 . S
C1919 H1914 0.950 . S
C1919 C1921 1.327 . S
C1919 C1925 1.429 . S
C1920 C1912 1.574 . S
C1920 H1915 0.949 . S
C1920 C1926 1.368 . S
C1921 C1905 1.349 . S
C1921 H1913 0.950 . S
C1921 C1919 1.327 . S
C1922 C1910 1.349 . S
C1922 H1916 0.950 . S
C1922 C1923 1.327 . S
C1923 H1917 0.950 . S
C1923 C1922 1.327 . S
C1923 C1927 1.429 . S
C1924 C1907 1.574 . S
C1924 H1918 0.949 . S
C1924 C1928 1.368 . S
C1925 C1906 1.429 . S
C1925 C1919 1.429 . S
C1925 C1926 1.523 . S
C1926 C1907 1.368 . S
C1926 C1920 1.368 . S
C1926 C1925 1.523 . S
C1927 C1911 1.429 . S
C1927 C1923 1.429 . S
C1927 C1928 1.523 . S
C1928 C1912 1.368 . S
C1928 C1924 1.368 . S
C1928 C1927 1.523 . S
H1929 C1904 0.950 . S
H1930 C1906 0.950 . S
H1931 C1907 0.949 . S
H1932 C1909 0.950 . S
H1933 C1911 0.950 . S
C1934 C1935 1.349 . S
C1934 C1936 1.327 . S
C1934 H1959 0.950 . S
C1935 C1934 1.349 . S
C1935 C1951 1.349 . S
C1936 C1934 1.327 . S
C1936 C1955 1.429 . S
C1936 H1960 0.950 . S
C1937 C1954 1.574 . S
C1937 C1956 1.368 . S
C1937 H1961 0.949 . S
H1938 C1942 0.949 . S
C1939 C1940 1.349 . S
C1939 C1941 1.327 . S
C1939 H1962 0.950 1_565 S
C1940 C1939 1.349 . S
C1940 C1952 1.349 . S
C1941 C1939 1.327 . S
C1941 C1957 1.429 . S
C1941 H1963 0.950 . S
C1942 H1938 0.949 . S
C1942 C1950 1.574 . S
C1942 C1958 1.368 . S
H1943 C1951 0.950 . S
H1944 C1949 0.950 . S
H1945 C1950 0.949 . S
H1946 C1952 0.950 . S
H1947 C1953 0.950 . S
H1948 C1954 0.949 . S
C1949 H1944 0.950 . S
C1949 C1951 1.327 . S
C1949 C1955 1.429 . S
C1950 C1942 1.574 . S
C1950 H1945 0.949 . S
C1950 C1956 1.368 . S
C1951 C1935 1.349 . S
C1951 H1943 0.950 . S
C1951 C1949 1.327 . S
C1952 C1940 1.349 . S
C1952 H1946 0.950 . S
C1952 C1953 1.327 . S
C1953 H1947 0.950 . S
C1953 C1952 1.327 . S
C1953 C1957 1.429 . S
C1954 C1937 1.574 . S
C1954 H1948 0.949 . S
C1954 C1958 1.368 . S
C1955 C1936 1.429 . S
C1955 C1949 1.429 . S
C1955 C1956 1.523 . S
C1956 C1937 1.368 . S
C1956 C1950 1.368 . S
C1956 C1955 1.523 . S
C1957 C1941 1.429 . S
C1957 C1953 1.429 . S
C1957 C1958 1.523 . S
C1958 C1942 1.368 . S
C1958 C1954 1.368 . S
C1958 C1957 1.523 . S
H1959 C1934 0.950 . S
H1960 C1936 0.950 . S
H1961 C1937 0.949 . S
H1962 C1939 0.950 1_545 S
H1963 C1941 0.950 . S
C1964 C1965 1.349 . S
C1964 C1966 1.327 . S
C1964 H1989 0.950 . S
C1965 C1964 1.349 . S
C1965 C1981 1.349 . S
C1966 C1964 1.327 . S
C1966 C1985 1.429 . S
C1966 H1990 0.950 . S
C1967 C1984 1.574 . S
C1967 C1986 1.368 . S
C1967 H1991 0.949 . S
H1968 C1972 0.949 . S
C1969 C1970 1.349 . S
C1969 C1971 1.327 . S
C1969 H1992 0.950 . S
C1970 C1969 1.349 . S
C1970 C1982 1.349 . S
C1971 C1969 1.327 . S
C1971 C1987 1.429 . S
C1971 H1993 0.950 . S
C1972 H1968 0.949 . S
C1972 C1980 1.574 . S
C1972 C1988 1.368 . S
H1973 C1981 0.950 . S
H1974 C1979 0.950 . S
H1975 C1980 0.949 . S
H1976 C1982 0.950 . S
H1977 C1983 0.950 . S
H1978 C1984 0.949 . S
C1979 H1974 0.950 . S
C1979 C1981 1.327 . S
C1979 C1985 1.429 . S
C1980 C1972 1.574 . S
C1980 H1975 0.949 . S
C1980 C1986 1.368 . S
C1981 C1965 1.349 . S
C1981 H1973 0.950 . S
C1981 C1979 1.327 . S
C1982 C1970 1.349 . S
C1982 H1976 0.950 . S
C1982 C1983 1.327 . S
C1983 H1977 0.950 . S
C1983 C1982 1.327 . S
C1983 C1987 1.429 . S
C1984 C1967 1.574 . S
C1984 H1978 0.949 . S
C1984 C1988 1.368 . S
C1985 C1966 1.429 . S
C1985 C1979 1.429 . S
C1985 C1986 1.523 . S
C1986 C1967 1.368 . S
C1986 C1980 1.368 . S
C1986 C1985 1.523 . S
C1987 C1971 1.429 . S
C1987 C1983 1.429 . S
C1987 C1988 1.523 . S
C1988 C1972 1.368 . S
C1988 C1984 1.368 . S
C1988 C1987 1.523 . S
H1989 C1964 0.950 . S
H1990 C1966 0.950 . S
H1991 C1967 0.949 . S
H1992 C1969 0.950 . S
H1993 C1971 0.950 . S
C1994 C1995 1.349 . S
C1994 C1996 1.327 . S
C1994 H2019 0.950 . S
C1995 C1994 1.349 . S
C1995 C2011 1.349 . S
C1996 C1994 1.327 . S
C1996 C2015 1.429 . S
C1996 H2020 0.950 . S
C1997 C2014 1.574 . S
C1997 C2016 1.368 . S
C1997 H2021 0.949 . S
H1998 C2002 0.949 . S
C1999 C2000 1.349 . S
C1999 C2001 1.327 . S
C1999 H2022 0.950 . S
C2000 C1999 1.349 . S
C2000 C2012 1.349 . S
C2001 C1999 1.327 . S
C2001 C2017 1.429 . S
C2001 H2023 0.950 . S
C2002 H1998 0.949 . S
C2002 C2010 1.574 . S
C2002 C2018 1.368 . S
H2003 C2011 0.950 . S
H2004 C2009 0.950 . S
H2005 C2010 0.949 . S
H2006 C2012 0.950 . S
H2007 C2013 0.950 . S
H2008 C2014 0.949 . S
C2009 H2004 0.950 . S
C2009 C2011 1.327 . S
C2009 C2015 1.429 . S
C2010 C2002 1.574 . S
C2010 H2005 0.949 . S
C2010 C2016 1.368 . S
C2011 C1995 1.349 . S
C2011 H2003 0.950 . S
C2011 C2009 1.327 . S
C2012 C2000 1.349 . S
C2012 H2006 0.950 . S
C2012 C2013 1.327 . S
C2013 H2007 0.950 . S
C2013 C2012 1.327 . S
C2013 C2017 1.429 . S
C2014 C1997 1.574 . S
C2014 H2008 0.949 . S
C2014 C2018 1.368 . S
C2015 C1996 1.429 . S
C2015 C2009 1.429 . S
C2015 C2016 1.523 . S
C2016 C1997 1.368 . S
C2016 C2010 1.368 . S
C2016 C2015 1.523 . S
C2017 C2001 1.429 . S
C2017 C2013 1.429 . S
C2017 C2018 1.523 . S
C2018 C2002 1.368 . S
C2018 C2014 1.368 . S
C2018 C2017 1.523 . S
H2019 C1994 0.950 . S
H2020 C1996 0.950 . S
H2021 C1997 0.949 . S
H2022 C1999 0.950 . S
H2023 C2001 0.950 . S
C2024 C2025 1.349 . S
C2024 C2026 1.327 . S
C2024 H2049 0.950 . S
C2025 C2024 1.349 . S
C2025 C2041 1.349 . S
C2026 C2024 1.327 . S
C2026 C2045 1.429 . S
C2026 H2050 0.950 . S
C2027 C2044 1.574 . S
C2027 C2046 1.368 . S
C2027 H2051 0.949 . S
H2028 C2032 0.949 . S
C2029 C2030 1.349 . S
C2029 C2031 1.327 . S
C2029 H2052 0.950 . S
C2030 C2029 1.349 . S
C2030 C2042 1.349 . S
C2031 C2029 1.327 . S
C2031 C2047 1.429 . S
C2031 H2053 0.950 . S
C2032 H2028 0.949 . S
C2032 C2040 1.574 . S
C2032 C2048 1.368 . S
H2033 C2041 0.950 . S
H2034 C2039 0.950 . S
H2035 C2040 0.949 . S
H2036 C2042 0.950 . S
H2037 C2043 0.950 . S
H2038 C2044 0.949 . S
C2039 H2034 0.950 . S
C2039 C2041 1.327 . S
C2039 C2045 1.429 . S
C2040 C2032 1.574 . S
C2040 H2035 0.949 . S
C2040 C2046 1.368 . S
C2041 C2025 1.349 . S
C2041 H2033 0.950 . S
C2041 C2039 1.327 . S
C2042 C2030 1.349 . S
C2042 H2036 0.950 . S
C2042 C2043 1.327 . S
C2043 H2037 0.950 . S
C2043 C2042 1.327 . S
C2043 C2047 1.429 . S
C2044 C2027 1.574 . S
C2044 H2038 0.949 . S
C2044 C2048 1.368 . S
C2045 C2026 1.429 . S
C2045 C2039 1.429 . S
C2045 C2046 1.523 . S
C2046 C2027 1.368 . S
C2046 C2040 1.368 . S
C2046 C2045 1.523 . S
C2047 C2031 1.429 . S
C2047 C2043 1.429 . S
C2047 C2048 1.523 . S
C2048 C2032 1.368 . S
C2048 C2044 1.368 . S
C2048 C2047 1.523 . S
H2049 C2024 0.950 . S
H2050 C2026 0.950 . S
H2051 C2027 0.949 . S
H2052 C2029 0.950 . S
H2053 C2031 0.950 . S
C2054 C2055 1.349 . S
C2054 C2056 1.327 . S
C2054 H2079 0.950 . S
C2055 C2054 1.349 . S
C2055 C2071 1.349 . S
C2056 C2054 1.327 . S
C2056 C2075 1.429 . S
C2056 H2080 0.950 . S
C2057 C2074 1.574 . S
C2057 C2076 1.368 . S
C2057 H2081 0.949 . S
H2058 C2062 0.949 . S
C2059 C2060 1.349 . S
C2059 C2061 1.327 . S
C2059 H2082 0.950 . S
C2060 C2059 1.349 . S
C2060 C2072 1.349 . S
C2061 C2059 1.327 . S
C2061 C2077 1.429 . S
C2061 H2083 0.950 . S
C2062 H2058 0.949 . S
C2062 C2070 1.574 . S
C2062 C2078 1.368 . S
H2063 C2071 0.950 . S
H2064 C2069 0.950 . S
H2065 C2070 0.949 . S
H2066 C2072 0.950 . S
H2067 C2073 0.950 . S
H2068 C2074 0.949 . S
C2069 H2064 0.950 . S
C2069 C2071 1.327 . S
C2069 C2075 1.429 . S
C2070 C2062 1.574 . S
C2070 H2065 0.949 . S
C2070 C2076 1.368 . S
C2071 C2055 1.349 . S
C2071 H2063 0.950 . S
C2071 C2069 1.327 . S
C2072 C2060 1.349 . S
C2072 H2066 0.950 . S
C2072 C2073 1.327 . S
C2073 H2067 0.950 . S
C2073 C2072 1.327 . S
C2073 C2077 1.429 . S
C2074 C2057 1.574 . S
C2074 H2068 0.949 . S
C2074 C2078 1.368 . S
C2075 C2056 1.429 . S
C2075 C2069 1.429 . S
C2075 C2076 1.523 . S
C2076 C2057 1.368 . S
C2076 C2070 1.368 . S
C2076 C2075 1.523 . S
C2077 C2061 1.429 . S
C2077 C2073 1.429 . S
C2077 C2078 1.523 . S
C2078 C2062 1.368 . S
C2078 C2074 1.368 . S
C2078 C2077 1.523 . S
H2079 C2054 0.950 . S
H2080 C2056 0.950 . S
H2081 C2057 0.949 . S
H2082 C2059 0.950 . S
H2083 C2061 0.950 . S
C650 C355 1.638 . S
C645 C3 1.629 . S
C680 C333 1.165 . S
C675 C49 1.193 . S
C710 C330 0.402 . S
C705 C95 0.410 . S
C735 C146 0.593 . S
C740 C342 0.604 . S
C765 C186 1.374 . S
C770 C325 1.326 . S
C800 C347 0.387 . S
C795 C215 0.396 . S
C825 C249 0.444 . S
C830 C352 0.440 . S
C855 C302 1.616 . S
C860 C348 1.627 . S
C890 C406 3.623 . S
C885 C2 3.666 . S
C915 C43 1.832 . S
C920 C456 1.841 . S
C950 C379 3.471 . S
C945 C102 3.554 . S
C980 C455 0.668 . S
C975 C135 0.666 . S
C1005 C175 0.635 . S
C1010 C384 0.635 . S
C1040 C450 2.503 . S
C1035 C222 2.564 . S
C1065 C243 1.858 . S
C1070 C409 1.879 . S
C1095 C306 1.724 . S
C1100 C441 1.750 . S
C1125 C9 1.159 . S
C1130 C433 1.153 . S
C1155 C182 1.482 . S
C1160 C463 1.486 . S
C1190 C387 1.815 1_556 S
C1185 C226 1.879 . S
C1220 C438 0.188 . S
C1215 C242 0.332 . S
C1245 C295 3.118 . S
C1250 C396 3.060 . S
C1275 C106 1.091 . S
C1280 C460 1.061 . S
C1310 C402 1.480 . S
C1305 C142 1.470 . S
C1335 C42 0.319 . S
C1340 C401 0.201 . S
C1365 C283 1.619 . S
C1370 C517 1.630 . S
C1395 C169 1.375 . S
C1400 C495 1.330 . S
C1430 C492 0.385 . S
C1425 C202 0.394 . S
C1460 C504 0.443 . S
C1455 C266 0.441 . S
C1485 C66 1.191 . S
C1490 C487 1.161 . S
C1520 C509 0.398 . S
C1515 C82 0.406 . S
C1545 C129 0.596 . S
C1550 C514 0.605 . S
C1575 C22 1.627 . S
C1580 C510 1.637 . S
C1605 C282 3.114 . S
C1610 C568 3.046 . S
C1640 C618 1.469 . S
C1635 C163 1.469 . S
C1665 C209 1.867 . S
C1670 C541 1.799 . S
C1695 C255 0.329 . S
C1700 C617 0.180 . S
C1730 C546 0.193 . S
C1725 C55 0.317 . S
C1755 C89 1.076 . S
C1760 C612 1.046 . S
C1790 C571 1.472 . S
C1785 C123 1.462 . S
C1820 C603 1.148 . S
C1815 C26 1.152 . S
C1850 C595 1.757 . S
C1845 C289 1.733 . S
C1875 C62 1.841 . S
C1880 C625 1.854 . S
C1905 C83 3.566 . S
C1910 C549 3.488 . S
C1940 C600 0.683 . S
C1935 C122 0.683 . S
C1965 C15 3.673 . S
C1970 C558 3.627 . S
C1995 C203 2.576 . S
C2000 C622 2.521 . S
C2030 C564 1.882 . S
C2025 C262 1.863 . S
C2060 C563 0.650 . S
C2055 C162 0.650 . S
