# Generated by pormake.
# Topology gar, (4,6)-cn, num edge types: 1
# Building blocks:
#     Node 0, Type 0, BuildingBlock: QUQFOY_clean_sbu_1, # of connection points: 4
#     Node 1, Type 0, BuildingBlock: QUQFOY_clean_sbu_1, # of connection points: 4
#     Node 2, Type 0, BuildingBlock: QUQFOY_clean_sbu_1, # of connection points: 4
#     Node 3, Type 0, BuildingBlock: QUQFOY_clean_sbu_1, # of connection points: 4
#     Node 4, Type 0, BuildingBlock: QUQFOY_clean_sbu_1, # of connection points: 4
#     Node 5, Type 0, BuildingBlock: QUQFOY_clean_sbu_1, # of connection points: 4
#     Node 6, Type 0, BuildingBlock: QUQFOY_clean_sbu_1, # of connection points: 4
#     Node 7, Type 0, BuildingBlock: QUQFOY_clean_sbu_1, # of connection points: 4
#     Node 8, Type 0, BuildingBlock: QUQFOY_clean_sbu_1, # of connection points: 4
#     Node 9, Type 0, BuildingBlock: QUQFOY_clean_sbu_1, # of connection points: 4
#     Node 10, Type 0, BuildingBlock: QUQFOY_clean_sbu_1, # of connection points: 4
#     Node 11, Type 0, BuildingBlock: QUQFOY_clean_sbu_1, # of connection points: 4
#     Node 12, Type 0, BuildingBlock: QUQFOY_clean_sbu_1, # of connection points: 4
#     Node 13, Type 0, BuildingBlock: QUQFOY_clean_sbu_1, # of connection points: 4
#     Node 14, Type 0, BuildingBlock: QUQFOY_clean_sbu_1, # of connection points: 4
#     Node 15, Type 0, BuildingBlock: QUQFOY_clean_sbu_1, # of connection points: 4
#     Node 16, Type 0, BuildingBlock: QUQFOY_clean_sbu_1, # of connection points: 4
#     Node 17, Type 0, BuildingBlock: QUQFOY_clean_sbu_1, # of connection points: 4
#     Node 18, Type 0, BuildingBlock: QUQFOY_clean_sbu_1, # of connection points: 4
#     Node 19, Type 0, BuildingBlock: QUQFOY_clean_sbu_1, # of connection points: 4
#     Node 20, Type 0, BuildingBlock: QUQFOY_clean_sbu_1, # of connection points: 4
#     Node 21, Type 0, BuildingBlock: QUQFOY_clean_sbu_1, # of connection points: 4
#     Node 22, Type 0, BuildingBlock: QUQFOY_clean_sbu_1, # of connection points: 4
#     Node 23, Type 0, BuildingBlock: QUQFOY_clean_sbu_1, # of connection points: 4
#     Node 24, Type 1, BuildingBlock: MIFKUJ_clean_sbu_0, # of connection points: 6
#     Node 25, Type 1, BuildingBlock: MIFKUJ_clean_sbu_0, # of connection points: 6
#     Node 26, Type 1, BuildingBlock: MIFKUJ_clean_sbu_0, # of connection points: 6
#     Node 27, Type 1, BuildingBlock: MIFKUJ_clean_sbu_0, # of connection points: 6
#     Node 28, Type 1, BuildingBlock: MIFKUJ_clean_sbu_0, # of connection points: 6
#     Node 29, Type 1, BuildingBlock: MIFKUJ_clean_sbu_0, # of connection points: 6
#     Node 30, Type 1, BuildingBlock: MIFKUJ_clean_sbu_0, # of connection points: 6
#     Node 31, Type 1, BuildingBlock: MIFKUJ_clean_sbu_0, # of connection points: 6
#     Node 32, Type 1, BuildingBlock: MIFKUJ_clean_sbu_0, # of connection points: 6
#     Node 33, Type 1, BuildingBlock: MIFKUJ_clean_sbu_0, # of connection points: 6
#     Node 34, Type 1, BuildingBlock: MIFKUJ_clean_sbu_0, # of connection points: 6
#     Node 35, Type 1, BuildingBlock: MIFKUJ_clean_sbu_0, # of connection points: 6
#     Node 36, Type 1, BuildingBlock: MIFKUJ_clean_sbu_0, # of connection points: 6
#     Node 37, Type 1, BuildingBlock: MIFKUJ_clean_sbu_0, # of connection points: 6
#     Node 38, Type 1, BuildingBlock: MIFKUJ_clean_sbu_0, # of connection points: 6
#     Node 39, Type 1, BuildingBlock: MIFKUJ_clean_sbu_0, # of connection points: 6
#     Edge 40, Type (0, 1), BuildingBlock: OJICUG_clean_linker_0, # of connection points: 2
#     Edge 41, Type (0, 1), BuildingBlock: OJICUG_clean_linker_0, # of connection points: 2
#     Edge 42, Type (0, 1), BuildingBlock: OJICUG_clean_linker_0, # of connection points: 2
#     Edge 43, Type (0, 1), BuildingBlock: OJICUG_clean_linker_0, # of connection points: 2
#     Edge 44, Type (0, 1), BuildingBlock: OJICUG_clean_linker_0, # of connection points: 2
#     Edge 45, Type (0, 1), BuildingBlock: OJICUG_clean_linker_0, # of connection points: 2
#     Edge 46, Type (0, 1), BuildingBlock: OJICUG_clean_linker_0, # of connection points: 2
#     Edge 47, Type (0, 1), BuildingBlock: OJICUG_clean_linker_0, # of connection points: 2
#     Edge 48, Type (0, 1), BuildingBlock: OJICUG_clean_linker_0, # of connection points: 2
#     Edge 49, Type (0, 1), BuildingBlock: OJICUG_clean_linker_0, # of connection points: 2
#     Edge 50, Type (0, 1), BuildingBlock: OJICUG_clean_linker_0, # of connection points: 2
#     Edge 51, Type (0, 1), BuildingBlock: OJICUG_clean_linker_0, # of connection points: 2
#     Edge 52, Type (0, 1), BuildingBlock: OJICUG_clean_linker_0, # of connection points: 2
#     Edge 53, Type (0, 1), BuildingBlock: OJICUG_clean_linker_0, # of connection points: 2
#     Edge 54, Type (0, 1), BuildingBlock: OJICUG_clean_linker_0, # of connection points: 2
#     Edge 55, Type (0, 1), BuildingBlock: OJICUG_clean_linker_0, # of connection points: 2
#     Edge 56, Type (0, 1), BuildingBlock: OJICUG_clean_linker_0, # of connection points: 2
#     Edge 57, Type (0, 1), BuildingBlock: OJICUG_clean_linker_0, # of connection points: 2
#     Edge 58, Type (0, 1), BuildingBlock: OJICUG_clean_linker_0, # of connection points: 2
#     Edge 59, Type (0, 1), BuildingBlock: OJICUG_clean_linker_0, # of connection points: 2
#     Edge 60, Type (0, 1), BuildingBlock: OJICUG_clean_linker_0, # of connection points: 2
#     Edge 61, Type (0, 1), BuildingBlock: OJICUG_clean_linker_0, # of connection points: 2
#     Edge 62, Type (0, 1), BuildingBlock: OJICUG_clean_linker_0, # of connection points: 2
#     Edge 63, Type (0, 1), BuildingBlock: OJICUG_clean_linker_0, # of connection points: 2
#     Edge 64, Type (0, 1), BuildingBlock: OJICUG_clean_linker_0, # of connection points: 2
#     Edge 65, Type (0, 1), BuildingBlock: OJICUG_clean_linker_0, # of connection points: 2
#     Edge 66, Type (0, 1), BuildingBlock: OJICUG_clean_linker_0, # of connection points: 2
#     Edge 67, Type (0, 1), BuildingBlock: OJICUG_clean_linker_0, # of connection points: 2
#     Edge 68, Type (0, 1), BuildingBlock: OJICUG_clean_linker_0, # of connection points: 2
#     Edge 69, Type (0, 1), BuildingBlock: OJICUG_clean_linker_0, # of connection points: 2
#     Edge 70, Type (0, 1), BuildingBlock: OJICUG_clean_linker_0, # of connection points: 2
#     Edge 71, Type (0, 1), BuildingBlock: OJICUG_clean_linker_0, # of connection points: 2
#     Edge 72, Type (0, 1), BuildingBlock: OJICUG_clean_linker_0, # of connection points: 2
#     Edge 73, Type (0, 1), BuildingBlock: OJICUG_clean_linker_0, # of connection points: 2
#     Edge 74, Type (0, 1), BuildingBlock: OJICUG_clean_linker_0, # of connection points: 2
#     Edge 75, Type (0, 1), BuildingBlock: OJICUG_clean_linker_0, # of connection points: 2
#     Edge 76, Type (0, 1), BuildingBlock: OJICUG_clean_linker_0, # of connection points: 2
#     Edge 77, Type (0, 1), BuildingBlock: OJICUG_clean_linker_0, # of connection points: 2
#     Edge 78, Type (0, 1), BuildingBlock: OJICUG_clean_linker_0, # of connection points: 2
#     Edge 79, Type (0, 1), BuildingBlock: OJICUG_clean_linker_0, # of connection points: 2
#     Edge 80, Type (0, 1), BuildingBlock: OJICUG_clean_linker_0, # of connection points: 2
#     Edge 81, Type (0, 1), BuildingBlock: OJICUG_clean_linker_0, # of connection points: 2
#     Edge 82, Type (0, 1), BuildingBlock: OJICUG_clean_linker_0, # of connection points: 2
#     Edge 83, Type (0, 1), BuildingBlock: OJICUG_clean_linker_0, # of connection points: 2
#     Edge 84, Type (0, 1), BuildingBlock: OJICUG_clean_linker_0, # of connection points: 2
#     Edge 85, Type (0, 1), BuildingBlock: OJICUG_clean_linker_0, # of connection points: 2
#     Edge 86, Type (0, 1), BuildingBlock: OJICUG_clean_linker_0, # of connection points: 2
#     Edge 87, Type (0, 1), BuildingBlock: OJICUG_clean_linker_0, # of connection points: 2
#     Edge 88, Type (0, 1), BuildingBlock: OJICUG_clean_linker_0, # of connection points: 2
#     Edge 89, Type (0, 1), BuildingBlock: OJICUG_clean_linker_0, # of connection points: 2
#     Edge 90, Type (0, 1), BuildingBlock: OJICUG_clean_linker_0, # of connection points: 2
#     Edge 91, Type (0, 1), BuildingBlock: OJICUG_clean_linker_0, # of connection points: 2
#     Edge 92, Type (0, 1), BuildingBlock: OJICUG_clean_linker_0, # of connection points: 2
#     Edge 93, Type (0, 1), BuildingBlock: OJICUG_clean_linker_0, # of connection points: 2
#     Edge 94, Type (0, 1), BuildingBlock: OJICUG_clean_linker_0, # of connection points: 2
#     Edge 95, Type (0, 1), BuildingBlock: OJICUG_clean_linker_0, # of connection points: 2
#     Edge 96, Type (0, 1), BuildingBlock: OJICUG_clean_linker_0, # of connection points: 2
#     Edge 97, Type (0, 1), BuildingBlock: OJICUG_clean_linker_0, # of connection points: 2
#     Edge 98, Type (0, 1), BuildingBlock: OJICUG_clean_linker_0, # of connection points: 2
#     Edge 99, Type (0, 1), BuildingBlock: OJICUG_clean_linker_0, # of connection points: 2
#     Edge 100, Type (0, 1), BuildingBlock: OJICUG_clean_linker_0, # of connection points: 2
#     Edge 101, Type (0, 1), BuildingBlock: OJICUG_clean_linker_0, # of connection points: 2
#     Edge 102, Type (0, 1), BuildingBlock: OJICUG_clean_linker_0, # of connection points: 2
#     Edge 103, Type (0, 1), BuildingBlock: OJICUG_clean_linker_0, # of connection points: 2
#     Edge 104, Type (0, 1), BuildingBlock: OJICUG_clean_linker_0, # of connection points: 2
#     Edge 105, Type (0, 1), BuildingBlock: OJICUG_clean_linker_0, # of connection points: 2
#     Edge 106, Type (0, 1), BuildingBlock: OJICUG_clean_linker_0, # of connection points: 2
#     Edge 107, Type (0, 1), BuildingBlock: OJICUG_clean_linker_0, # of connection points: 2
#     Edge 108, Type (0, 1), BuildingBlock: OJICUG_clean_linker_0, # of connection points: 2
#     Edge 109, Type (0, 1), BuildingBlock: OJICUG_clean_linker_0, # of connection points: 2
#     Edge 110, Type (0, 1), BuildingBlock: OJICUG_clean_linker_0, # of connection points: 2
#     Edge 111, Type (0, 1), BuildingBlock: OJICUG_clean_linker_0, # of connection points: 2
#     Edge 112, Type (0, 1), BuildingBlock: OJICUG_clean_linker_0, # of connection points: 2
#     Edge 113, Type (0, 1), BuildingBlock: OJICUG_clean_linker_0, # of connection points: 2
#     Edge 114, Type (0, 1), BuildingBlock: OJICUG_clean_linker_0, # of connection points: 2
#     Edge 115, Type (0, 1), BuildingBlock: OJICUG_clean_linker_0, # of connection points: 2
#     Edge 116, Type (0, 1), BuildingBlock: OJICUG_clean_linker_0, # of connection points: 2
#     Edge 117, Type (0, 1), BuildingBlock: OJICUG_clean_linker_0, # of connection points: 2
#     Edge 118, Type (0, 1), BuildingBlock: OJICUG_clean_linker_0, # of connection points: 2
#     Edge 119, Type (0, 1), BuildingBlock: OJICUG_clean_linker_0, # of connection points: 2
#     Edge 120, Type (0, 1), BuildingBlock: OJICUG_clean_linker_0, # of connection points: 2
#     Edge 121, Type (0, 1), BuildingBlock: OJICUG_clean_linker_0, # of connection points: 2
#     Edge 122, Type (0, 1), BuildingBlock: OJICUG_clean_linker_0, # of connection points: 2
#     Edge 123, Type (0, 1), BuildingBlock: OJICUG_clean_linker_0, # of connection points: 2
#     Edge 124, Type (0, 1), BuildingBlock: OJICUG_clean_linker_0, # of connection points: 2
#     Edge 125, Type (0, 1), BuildingBlock: OJICUG_clean_linker_0, # of connection points: 2
#     Edge 126, Type (0, 1), BuildingBlock: OJICUG_clean_linker_0, # of connection points: 2
#     Edge 127, Type (0, 1), BuildingBlock: OJICUG_clean_linker_0, # of connection points: 2
#     Edge 128, Type (0, 1), BuildingBlock: OJICUG_clean_linker_0, # of connection points: 2
#     Edge 129, Type (0, 1), BuildingBlock: OJICUG_clean_linker_0, # of connection points: 2
#     Edge 130, Type (0, 1), BuildingBlock: OJICUG_clean_linker_0, # of connection points: 2
#     Edge 131, Type (0, 1), BuildingBlock: OJICUG_clean_linker_0, # of connection points: 2
#     Edge 132, Type (0, 1), BuildingBlock: OJICUG_clean_linker_0, # of connection points: 2
#     Edge 133, Type (0, 1), BuildingBlock: OJICUG_clean_linker_0, # of connection points: 2
#     Edge 134, Type (0, 1), BuildingBlock: OJICUG_clean_linker_0, # of connection points: 2
#     Edge 135, Type (0, 1), BuildingBlock: OJICUG_clean_linker_0, # of connection points: 2
# Relax obj value: 0.125
# Max RMSD: 0.320
# Mean RMSD: 0.170
data_MOF--net-gar--node1-QUQFOY_clean_sbu_1--node2-MIFKUJ_clean_sbu_0--edge1-OJICUG_clean_linker_0
_symmetry_space_group_name_H-M    P1
_symmetry_Int_Tables_number       1
_symmetry_cell_setting            triclinic
loop_
_symmetry_equiv_pos_as_xyz
'x, y, z'
_cell_length_a     43.364811
_cell_length_b     43.304804
_cell_length_c     41.092591
_cell_angle_alpha  95.37335
_cell_angle_beta   95.360851
_cell_angle_gamma 102.61854
loop_
_atom_site_label
_atom_site_type_symbol
_atom_site_fract_x
_atom_site_fract_y
_atom_site_fract_z
_atom_type_partial_charge
O0 O 0.03601 0.21652 0.41466 0.0
Cd1 Cd 0.03319 0.24978 0.38262 0.0
Cd2 Cd 0.01507 0.27923 0.43918 0.0
O3 O 0.02553 0.24137 0.46035 0.0
O4 O 0.05822 0.23913 0.3465 0.0
O5 O 0.07216 0.28366 0.381 0.0
C6 C 0.07845 0.26561 0.35677 0.0
C7 C 0.03066 0.32996 0.46735 0.0
C8 C 0.03289 0.21766 0.44517 0.0
C9 C 0.96806 0.26221 0.37725 0.0
O10 O 0.97379 0.2718 0.40786 0.0
O11 O 0.98912 0.25318 0.36167 0.0
O12 O 0.00904 0.30855 0.47706 0.0
O13 O 0.04453 0.32218 0.44235 0.0
O14 O 0.99307 0.68381 0.63066 0.0
Cd15 Cd 0.99877 0.72611 0.66085 0.0
Cd16 Cd 0.01635 0.75003 0.60631 0.0
O17 O 0.00053 0.70415 0.58391 0.0
O18 O 0.97046 0.72102 0.6966 0.0
O19 O 0.96606 0.75216 0.65738 0.0
C20 C 0.95613 0.74083 0.6835 0.0
C21 C 0.00455 0.79258 0.5812 0.0
C22 C 0.99437 0.68016 0.59973 0.0
C23 C 0.06653 0.7574 0.66482 0.0
O24 O 0.05989 0.76032 0.63464 0.0
O25 O 0.04471 0.74563 0.68165 0.0
O26 O 0.02439 0.77717 0.57013 0.0
O27 O 0.99025 0.78281 0.60578 0.0
O28 O 0.58594 0.76906 0.90074 0.0
Cd29 Cd 0.55319 0.77318 0.93328 0.0
Cd30 Cd 0.52526 0.79171 0.87841 0.0
O31 O 0.5623 0.78102 0.85537 0.0
O32 O 0.56676 0.75025 0.96948 0.0
O33 O 0.52029 0.73397 0.93854 0.0
C34 C 0.54032 0.72934 0.96186 0.0
C35 C 0.47332 0.77041 0.85557 0.0
C36 C 0.58521 0.77208 0.87023 0.0
C37 C 0.54064 0.83806 0.94064 0.0
O38 O 0.53145 0.83288 0.90993 0.0
O39 O 0.55028 0.81696 0.95556 0.0
O40 O 0.49096 0.79375 0.84378 0.0
O41 O 0.48579 0.75836 0.87976 0.0
O42 O 0.49378 0.18123 0.12904 0.0
Cd43 Cd 0.49888 0.22297 0.15999 0.0
Cd44 Cd 0.5174 0.24739 0.10599 0.0
O45 O 0.49997 0.20205 0.08235 0.0
O46 O 0.46937 0.2171 0.19468 0.0
O47 O 0.46625 0.24903 0.15597 0.0
C48 C 0.45536 0.23705 0.18139 0.0
C49 C 0.50789 0.29232 0.08344 0.0
C50 C 0.49448 0.17787 0.09801 0.0
C51 C 0.56694 0.25181 0.16465 0.0
O52 O 0.56061 0.25447 0.13435 0.0
O53 O 0.54466 0.24187 0.18174 0.0
O54 O 0.52679 0.27633 0.07129 0.0
O55 O 0.49317 0.28184 0.10751 0.0
O56 O 0.0198 0.72865 0.16655 0.0
Cd57 Cd 0.03083 0.77308 0.19322 0.0
Cd58 Cd 0.05423 0.78854 0.13804 0.0
O59 O 0.0321 0.74291 0.11847 0.0
O60 O 0.00455 0.766 0.22998 0.0
O61 O 0.99792 0.79907 0.1934 0.0
C62 C 0.98864 0.78523 0.21844 0.0
C63 C 0.04186 0.8315 0.11365 0.0
C64 C 0.0211 0.72147 0.13612 0.0
C65 C 0.10028 0.79156 0.19899 0.0
O66 O 0.09636 0.79165 0.16788 0.0
O67 O 0.07666 0.78829 0.21539 0.0
O68 O 0.0608 0.8156 0.10121 0.0
O69 O 0.03035 0.82315 0.14026 0.0
O70 O 0.55504 0.73763 0.37426 0.0
Cd71 Cd 0.52625 0.74157 0.41026 0.0
Cd72 Cd 0.49519 0.7681 0.35811 0.0
O73 O 0.53506 0.76313 0.33636 0.0
O74 O 0.54132 0.71643 0.44421 0.0
O75 O 0.49286 0.7038 0.41711 0.0
C76 C 0.51371 0.69716 0.43831 0.0
C77 C 0.44811 0.7603 0.32274 0.0
C78 C 0.55586 0.74869 0.34675 0.0
C79 C 0.51597 0.80718 0.42489 0.0
O80 O 0.50012 0.8035 0.39668 0.0
O81 O 0.52962 0.78596 0.43443 0.0
O82 O 0.47083 0.78513 0.3235 0.0
O83 O 0.45226 0.7391 0.34178 0.0
O84 O 0.5271 0.227 0.66357 0.0
Cd85 Cd 0.53386 0.27092 0.69023 0.0
Cd86 Cd 0.55684 0.28849 0.63555 0.0
O87 O 0.53637 0.24256 0.6152 0.0
O88 O 0.50576 0.26182 0.72534 0.0
O89 O 0.49854 0.29378 0.68773 0.0
C90 C 0.48875 0.27942 0.7123 0.0
C91 C 0.54396 0.3315 0.61169 0.0
C92 C 0.52782 0.22043 0.63294 0.0
C93 C 0.60265 0.29371 0.69731 0.0
O94 O 0.59882 0.29313 0.66611 0.0
O95 O 0.57883 0.28963 0.71346 0.0
O96 O 0.56343 0.31625 0.59931 0.0
O97 O 0.53195 0.32228 0.63776 0.0
O98 O 0.00324 0.1889 0.87889 0.0
Cd99 Cd 0.00346 0.22566 0.85073 0.0
Cd100 Cd 0.98696 0.25215 0.90714 0.0
O101 O 0.9949 0.21195 0.92634 0.0
O102 O 0.02823 0.21532 0.81488 0.0
O103 O 0.04404 0.25849 0.85119 0.0
C104 C 0.04954 0.24069 0.82637 0.0
C105 C 0.01047 0.30227 0.93438 0.0
C106 C 0.00062 0.18824 0.90935 0.0
C107 C 0.94116 0.24253 0.84447 0.0
O108 O 0.94663 0.25016 0.87546 0.0
O109 O 0.96136 0.23224 0.82872 0.0
O110 O 0.98611 0.28457 0.94451 0.0
O111 O 0.02217 0.29083 0.90936 0.0
O112 O 0.41406 0.0343 0.2273 0.0
Cd113 Cd 0.37477 0.02404 0.25191 0.0
Cd114 Cd 0.41673 -0.00099 0.29229 0.0
O115 O 0.44189 0.00487 0.2527 0.0
O116 O 0.34468 0.04681 0.23025 0.0
O117 O 0.36438 0.05785 0.28275 0.0
C118 C 0.3467 0.06386 0.25812 0.0
C119 C 0.45014 0.01066 0.34173 0.0
C120 C 0.43811 0.02208 0.23007 0.0
C121 C 0.35411 0.95603 0.2658 0.0
O122 O 0.3779 0.96122 0.28772 0.0
O123 O 0.34986 0.97732 0.24771 0.0
O124 O 0.44842 0.98529 0.32207 0.0
O125 O 0.43172 0.02924 0.334 0.0
O126 O 0.2754 0.1379 0.55738 0.0
Cd127 Cd 0.26774 0.10888 0.51308 0.0
Cd128 Cd 0.24553 0.16181 0.49441 0.0
O129 O 0.26371 0.18193 0.54208 0.0
O130 O 0.29125 0.07507 0.52294 0.0
O131 O 0.3042 0.10795 0.486 0.0
C132 C 0.31015 0.08513 0.50187 0.0
C133 C 0.25784 0.1903 0.44916 0.0
C134 C 0.27304 0.16648 0.56444 0.0
C135 C 0.19782 0.09806 0.49372 0.0
O136 O 0.20281 0.12793 0.49163 0.0
O137 O 0.22098 0.0848 0.49893 0.0
O138 O 0.2384 0.19772 0.46883 0.0
O139 O 0.27045 0.16668 0.45516 0.0
O140 O 0.13629 0.0033 0.73653 0.0
Cd141 Cd 0.16882 0.01223 0.77824 0.0
Cd142 Cd 0.1159 0.03585 0.80017 0.0
O143 O 0.0942 0.01891 0.75245 0.0
O144 O 0.20198 0.98951 0.76401 0.0
O145 O 0.17365 0.97592 0.8044 0.0
C146 C 0.19474 0.97045 0.78577 0.0
C147 C 0.08809 0.02461 0.84638 0.0
C148 C 0.10816 0.00709 0.73008 0.0
C149 C 0.18061 0.08254 0.79837 0.0
O150 O 0.15132 0.07767 0.80297 0.0
O151 O 0.19314 0.05928 0.79073 0.0
O152 O 0.0834 0.04668 0.8288 0.0
O153 O 0.10839 0.00847 0.83774 0.0
O154 O 0.23877 0.86718 0.06266 0.0
Cd155 Cd 0.25167 0.90443 0.03577 0.0
Cd156 Cd 0.26966 0.85648 0.99513 0.0
O157 O 0.2558 0.83075 0.03274 0.0
O158 O 0.23246 0.93803 0.05655 0.0
O159 O 0.21863 0.91607 0.00494 0.0
C160 C 0.21465 0.93563 0.02911 0.0
C161 C 0.25685 0.82777 0.9432 0.0
C162 C 0.24325 0.83921 0.0577 0.0
C163 C 0.32001 0.91526 0.02234 0.0
O164 O 0.31264 0.88932 0.00319 0.0
O165 O 0.29939 0.92504 0.038 0.0
O166 O 0.27772 0.82173 0.96448 0.0
O167 O 0.24312 0.85056 0.95111 0.0
O168 O 0.27013 0.37751 0.11037 0.0
Cd169 Cd 0.2743 0.41113 0.07699 0.0
Cd170 Cd 0.28718 0.35877 0.03914 0.0
O171 O 0.27354 0.3344 0.07881 0.0
O172 O 0.25457 0.44593 0.09512 0.0
O173 O 0.23617 0.41625 0.04768 0.0
C174 C 0.23409 0.43929 0.06917 0.0
C175 C 0.26898 0.33903 0.98403 0.0
C176 C 0.26951 0.3478 0.10653 0.0
C177 C 0.33917 0.41972 0.05466 0.0
O178 O 0.33123 0.39018 0.0441 0.0
O179 O 0.31941 0.43336 0.06766 0.0
O180 O 0.289 0.32701 0.00102 0.0
O181 O 0.25756 0.36085 0.99907 0.0
O182 O 0.79434 0.1461 0.10165 0.0
Cd183 Cd 0.78284 0.11365 0.05947 0.0
Cd184 Cd 0.77252 0.16539 0.03122 0.0
O185 O 0.78937 0.18831 0.07731 0.0
O186 O 0.80585 0.07875 0.06298 0.0
O187 O 0.8136 0.11301 0.02606 0.0
C188 C 0.82027 0.08853 0.03844 0.0
C189 C 0.78498 0.19446 0.9876 0.0
C190 C 0.79584 0.1759 0.10308 0.0
C191 C 0.71677 0.10845 0.0306 0.0
O192 O 0.7274 0.13643 0.02352 0.0
O193 O 0.73525 0.0938 0.04528 0.0
O194 O 0.76543 0.20135 0.00723 0.0
O195 O 0.79838 0.17134 0.99329 0.0
O196 O 0.12887 0.48531 0.18657 0.0
Cd197 Cd 0.16512 0.49772 0.22546 0.0
Cd198 Cd 0.11763 0.50901 0.26112 0.0
O199 O 0.09129 0.49455 0.21609 0.0
O200 O 0.19839 0.47398 0.21703 0.0
O201 O 0.16977 0.46763 0.25894 0.0
C202 C 0.19195 0.46022 0.24294 0.0
C203 C 0.09029 0.49859 0.30633 0.0
C204 C 0.09993 0.48599 0.18867 0.0
C205 C 0.17576 0.56298 0.25866 0.0
O206 O 0.14966 0.5523 0.26974 0.0
O207 O 0.18679 0.54525 0.23863 0.0
O208 O 0.08442 0.5192 0.28753 0.0
O209 O 0.11119 0.4828 0.29879 0.0
O210 O 0.77444 0.88333 0.61722 0.0
Cd211 Cd 0.77669 0.91375 0.5808 0.0
Cd212 Cd 0.78893 0.86165 0.54538 0.0
O213 O 0.77672 0.83921 0.58671 0.0
O214 O 0.75141 0.94661 0.59015 0.0
O215 O 0.73809 0.90837 0.54821 0.0
C216 C 0.732 0.93288 0.56456 0.0
C217 C 0.76868 0.84053 0.49107 0.0
C218 C 0.77364 0.85357 0.61433 0.0
C219 C 0.84042 0.92299 0.55696 0.0
O220 O 0.83268 0.89314 0.5479 0.0
O221 O 0.82082 0.93689 0.56985 0.0
O222 O 0.78933 0.8289 0.5076 0.0
O223 O 0.75778 0.86264 0.50624 0.0
O224 O 0.90615 0.01075 0.18887 0.0
Cd225 Cd 0.87291 0.00459 0.22267 0.0
Cd226 Cd 0.92443 0.98944 0.25863 0.0
O227 O 0.94831 0.00311 0.21876 0.0
O228 O 0.83976 0.02874 0.21039 0.0
O229 O 0.87309 0.04152 0.25623 0.0
C230 C 0.84989 0.04734 0.23747 0.0
C231 C 0.94525 0.00818 0.3133 0.0
C232 C 0.93553 0.01004 0.19206 0.0
C233 C 0.86228 0.93889 0.24353 0.0
O234 O 0.89175 0.94622 0.25425 0.0
O235 O 0.84937 0.95905 0.2303 0.0
O236 O 0.95631 0.98727 0.29644 0.0
O237 O 0.92364 0.01993 0.29839 0.0
O238 O 0.29623 0.65299 0.59717 0.0
Cd239 Cd 0.28676 0.62073 0.55493 0.0
Cd240 Cd 0.27626 0.67259 0.52798 0.0
O241 O 0.29327 0.69618 0.57375 0.0
O242 O 0.3073 0.58527 0.56457 0.0
O243 O 0.31966 0.61517 0.52472 0.0
C244 C 0.32399 0.59182 0.54067 0.0
C245 C 0.28959 0.69962 0.48319 0.0
C246 C 0.29815 0.68288 0.59931 0.0
C247 C 0.22038 0.61619 0.52773 0.0
O248 O 0.23061 0.64468 0.52185 0.0
O249 O 0.23943 0.60079 0.5401 0.0
O250 O 0.27037 0.70793 0.50249 0.0
O251 O 0.30212 0.67615 0.48984 0.0
O252 O 0.40555 0.51264 0.6884 0.0
Cd253 Cd 0.37228 0.50854 0.7222 0.0
Cd254 Cd 0.42347 0.49414 0.75828 0.0
O255 O 0.44843 0.50805 0.71929 0.0
O256 O 0.33952 0.53129 0.7054 0.0
O257 O 0.36901 0.54628 0.75349 0.0
C258 C 0.34709 0.55078 0.73211 0.0
C259 C 0.44312 0.51209 0.81331 0.0
C260 C 0.43512 0.51278 0.69187 0.0
C261 C 0.36205 0.44278 0.742 0.0
O262 O 0.3916 0.45027 0.75238 0.0
O263 O 0.34863 0.46319 0.72993 0.0
O264 O 0.45477 0.4917 0.7964 0.0
O265 O 0.42153 0.5238 0.79829 0.0
O266 O 0.62811 0.99145 0.68839 0.0
Cd267 Cd 0.65984 0.0012 0.73105 0.0
Cd268 Cd 0.60885 0.01298 0.75754 0.0
O269 O 0.58541 0.99657 0.71154 0.0
O270 O 0.69324 0.97714 0.72433 0.0
O271 O 0.66106 0.96899 0.76311 0.0
C272 C 0.68418 0.96185 0.74856 0.0
C273 C 0.58206 -0.00077 0.80213 0.0
C274 C 0.59839 0.99025 0.68614 0.0
C275 C 0.6671 0.06751 0.76005 0.0
O276 O 0.63848 0.05783 0.76565 0.0
O277 O 0.68155 0.04829 0.74626 0.0
O278 O 0.57397 0.01909 0.78348 0.0
O279 O 0.60494 0.98614 0.7947 0.0
O280 O 0.77785 0.64388 0.0646 0.0
Cd281 Cd 0.76914 0.61381 0.02096 0.0
Cd282 Cd 0.74614 0.66721 0.00163 0.0
O283 O 0.76396 0.68706 0.04951 0.0
O284 O 0.79246 0.57992 0.03144 0.0
O285 O 0.8054 0.61193 0.99375 0.0
C286 C 0.81133 0.58942 0.01015 0.0
C287 C 0.75921 0.69672 0.95708 0.0
C288 C 0.77473 0.6722 0.07164 0.0
C289 C 0.69875 0.60301 0.00111 0.0
O290 O 0.70363 0.63272 0.99808 0.0
O291 O 0.72198 0.59007 0.00746 0.0
O292 O 0.73898 0.7033 0.97621 0.0
O293 O 0.77203 0.67324 0.96309 0.0
O294 O 0.9139 0.54163 0.73234 0.0
Cd295 Cd 0.877 0.53144 0.76006 0.0
Cd296 Cd 0.92255 0.50869 0.79888 0.0
O297 O 0.94665 0.51761 0.75892 0.0
O298 O 0.84519 0.55326 0.74015 0.0
O299 O 0.86796 0.56551 0.7916 0.0
C300 C 0.84876 0.57087 0.7679 0.0
C301 C 0.95585 0.51886 0.84848 0.0
C302 C 0.93974 0.53238 0.73507 0.0
C303 C 0.86022 0.46326 0.77367 0.0
O304 O 0.88557 0.46895 0.79355 0.0
O305 O 0.85322 0.48459 0.75709 0.0
O306 O 0.95572 0.49525 0.82701 0.0
O307 O 0.93641 0.53682 0.84215 0.0
O308 O 0.74154 0.36762 0.56407 0.0
Cd309 Cd 0.75254 0.40518 0.53705 0.0
Cd310 Cd 0.77185 0.35766 0.49609 0.0
O311 O 0.76121 0.33262 0.53499 0.0
O312 O 0.73278 0.4381 0.5587 0.0
O313 O 0.71848 0.41636 0.50711 0.0
C314 C 0.71456 0.43567 0.53152 0.0
C315 C 0.75823 0.32734 0.44498 0.0
C316 C 0.74819 0.3405 0.55982 0.0
C317 C 0.82059 0.41806 0.52145 0.0
O318 O 0.81359 0.39217 0.5022 0.0
O319 O 0.8 0.42685 0.53798 0.0
O320 O 0.78056 0.32303 0.46569 0.0
O321 O 0.74354 0.34934 0.45293 0.0
O322 O 0.63883 0.5022 0.23804 0.0
Cd323 Cd 0.67189 0.50988 0.27904 0.0
Cd324 Cd 0.62104 0.53628 0.30294 0.0
O325 O 0.59923 0.52178 0.25482 0.0
O326 O 0.70353 0.48555 0.2643 0.0
O327 O 0.67542 0.47325 0.3052 0.0
C328 C 0.69591 0.46683 0.28626 0.0
C329 C 0.59124 0.52574 0.34779 0.0
C330 C 0.61164 0.50839 0.23213 0.0
C331 C 0.68767 0.57991 0.30214 0.0
O332 O 0.65893 0.57616 0.30854 0.0
O333 O 0.69813 0.55618 0.29125 0.0
O334 O 0.58877 0.5488 0.33075 0.0
O335 O 0.61048 0.50827 0.33933 0.0
Zn336 Zn 0.0494 0.00492 0.03776 0.0
Zn337 Zn 0.98245 0.02157 0.0011 0.0
C338 C 0.03304 0.95009 0.06718 0.0
O339 O 0.04533 0.97268 0.0914 0.0
C340 C 0.99533 0.06986 0.96293 0.0
O341 O 0.97984 0.04491 0.94258 0.0
O342 O 0.09597 0.00449 0.04656 0.0
O343 O 0.04748 0.022 0.99296 0.0
O344 O 0.00137 0.99347 0.96913 0.0
C345 C 0.10336 0.98761 0.02267 0.0
O346 O 0.0815 0.97525 0.99779 0.0
O347 O 0.02998 0.95756 0.03793 0.0
C348 C 0.92882 0.0432 0.00747 0.0
O349 O 0.95162 0.06306 0.02719 0.0
O350 O 0.93526 0.01974 0.99039 0.0
O351 O 0.98424 0.01732 0.0496 0.0
O352 O 0.03272 0.02736 0.07607 0.0
O353 O 0.00195 0.06648 0.99299 0.0
C354 C 0.03037 0.00657 0.96728 0.0
C355 C 0.00274 0.02306 0.07637 0.0
Zn356 Zn 0.26859 0.75874 0.29819 0.0
Zn357 Zn 0.26696 0.75854 0.22852 0.0
C358 C 0.23429 0.69587 0.29829 0.0
O359 O 0.22203 0.71142 0.32085 0.0
C360 C 0.29707 0.82405 0.22888 0.0
O361 O 0.30626 0.8122 0.20182 0.0
O362 O 0.27515 0.76133 0.34731 0.0
O363 O 0.31189 0.77622 0.285 0.0
O364 O 0.30429 0.73967 0.24234 0.0
C365 C 0.29599 0.74681 0.35763 0.0
O366 O 0.31211 0.73464 0.33627 0.0
O367 O 0.25618 0.71133 0.28371 0.0
C368 C 0.23964 0.77552 0.17251 0.0
O369 O 0.2282 0.78952 0.19677 0.0
O370 O 0.25888 0.75803 0.17932 0.0
O371 O 0.22425 0.73988 0.24193 0.0
O372 O 0.2314 0.77765 0.28274 0.0
O373 O 0.27979 0.80562 0.24565 0.0
C374 C 0.32288 0.75811 0.26535 0.0
C375 C 0.2132 0.76006 0.25887 0.0
Zn376 Zn 0.48725 0.03487 0.53086 0.0
Zn377 Zn 0.56222 0.99665 0.51228 0.0
C378 C 0.49815 0.08842 0.5782 0.0
O379 O 0.48381 0.06641 0.59515 0.0
C380 C 0.54937 0.9376 0.47898 0.0
O381 O 0.57329 0.95419 0.466 0.0
O382 O 0.43945 0.02998 0.51942 0.0
O383 O 0.51037 0.028 0.49052 0.0
O384 O 0.55145 0.01394 0.47011 0.0
C385 C 0.43193 0.05162 0.50342 0.0
O386 O 0.45482 0.07301 0.49413 0.0
O387 O 0.50335 0.08044 0.54908 0.0
C388 C 0.61362 0.97048 0.53661 0.0
O389 O 0.58899 0.94982 0.54387 0.0
O390 O 0.60922 0.99516 0.52379 0.0
O391 O 0.54341 0.02055 0.54588 0.0
O392 O 0.49924 0.00937 0.56743 0.0
O393 O 0.53769 0.95116 0.50203 0.0
C394 C 0.52564 0.02348 0.46611 0.0
C395 C 0.52793 0.00711 0.5673 0.0
Zn396 Zn 0.30169 0.25443 0.76253 0.0
Zn397 Zn 0.23743 0.27415 0.7783 0.0
C398 C 0.29071 0.21583 0.70294 0.0
O399 O 0.30327 0.19964 0.72398 0.0
C400 C 0.24617 0.3092 0.84194 0.0
O401 O 0.23055 0.32618 0.8247 0.0
O402 O 0.34805 0.25409 0.7627 0.0
O403 O 0.30461 0.30057 0.77884 0.0
O404 O 0.26104 0.30699 0.75178 0.0
C405 C 0.36104 0.27317 0.74352 0.0
O406 O 0.34349 0.28913 0.72722 0.0
O407 O 0.28499 0.2423 0.71382 0.0
C408 C 0.1769 0.25863 0.79458 0.0
O409 O 0.19194 0.24055 0.81082 0.0
O410 O 0.19195 0.27783 0.77687 0.0
O411 O 0.23314 0.2268 0.76474 0.0
O412 O 0.27867 0.22012 0.78794 0.0
O413 O 0.25417 0.28553 0.82702 0.0
C414 C 0.29024 0.31763 0.76236 0.0
C415 C 0.24898 0.20955 0.77933 0.0
Zn416 Zn 0.02497 0.97788 0.52958 0.0
Zn417 Zn 0.01179 0.04279 0.51873 0.0
C418 C 0.05991 0.98413 0.59134 0.0
O419 O 0.07512 0.9687 0.57164 0.0
C420 C 0.97781 0.03441 0.45488 0.0
O421 O 0.96214 0.05178 0.47185 0.0
O422 O 0.02318 0.93099 0.52754 0.0
O423 O 0.97981 0.97841 0.5132 0.0
O424 O 0.9767 0.02139 0.54398 0.0
C425 C 0.00291 0.91712 0.54506 0.0
O426 O 0.98614 0.93405 0.56096 0.0
O427 O 0.03594 0.99329 0.5788 0.0
C428 C 0.03248 0.10016 0.49812 0.0
O429 O 0.04738 0.08071 0.48308 0.0
O430 O 0.01307 0.08932 0.51795 0.0
O431 O 0.05744 0.04349 0.53501 0.0
O432 O 0.06075 -1e-05 0.50526 0.0
O433 O 0.00055 0.02514 0.47003 0.0
C434 C 0.96401 0.9931 0.53106 0.0
C435 C 0.07326 0.02856 0.51738 0.0
Zn436 Zn 0.25544 0.79696 0.75606 0.0
Zn437 Zn 0.28079 0.72017 0.77412 0.0
C438 C 0.19921 0.78647 0.71708 0.0
O439 O 0.21969 0.80599 0.70251 0.0
C440 C 0.33922 0.73049 0.81025 0.0
O441 O 0.32093 0.70907 0.82497 0.0
O442 O 0.25612 0.84462 0.76389 0.0
O443 O 0.27472 0.78117 0.79664 0.0
O444 O 0.25961 0.7339 0.8127 0.0
C445 C 0.23389 0.85094 0.77979 0.0
O446 O 0.21444 0.82741 0.7906 0.0
O447 O 0.20918 0.77619 0.74312 0.0
C448 C 0.30171 0.66576 0.74978 0.0
O449 O 0.32114 0.6887 0.73817 0.0
O450 O 0.27991 0.67248 0.76608 0.0
O451 O 0.26088 0.73845 0.73662 0.0
O452 O 0.27805 0.78357 0.71774 0.0
O453 O 0.32688 0.74132 0.78577 0.0
C454 C 0.25999 0.76359 0.81607 0.0
C455 C 0.27672 0.75381 0.71649 0.0
Zn456 Zn 0.52195 0.01313 0.98878 0.0
Zn457 Zn 0.51782 0.00136 0.05731 0.0
C458 C 0.58253 0.05259 0.99603 0.0
O459 O 0.56548 0.06737 0.97752 0.0
C460 C 0.45362 0.96727 0.05483 0.0
O461 O 0.46651 0.9557 0.07975 0.0
O462 O 0.52177 0.0117 0.93996 0.0
O463 O 0.50402 0.9679 0.99526 0.0
O464 O 0.53866 0.96747 0.03734 0.0
C465 C 0.53913 0.9936 0.92953 0.0
O466 O 0.55349 0.97893 0.95072 0.0
O467 O 0.5688 0.02661 0.00573 0.0
C468 C 0.50116 0.0222 0.11525 0.0
O469 O 0.48708 0.03534 0.09244 0.0
O470 O 0.51837 0.00323 0.10661 0.0
O471 O 0.53442 0.04743 0.05081 0.0
O472 O 0.50059 0.04671 0.00762 0.0
O473 O 0.47088 0.98779 0.04007 0.0
C474 C 0.52239 0.95358 0.01052 0.0
C475 C 0.51586 0.06104 0.03468 0.0
Zn476 Zn 0.28226 0.23278 0.25655 0.0
Zn477 Zn 0.25965 0.30062 0.29136 0.0
C478 C 0.33524 0.25031 0.22173 0.0
O479 O 0.31206 0.24158 0.19745 0.0
C480 C 0.20395 0.2925 0.31578 0.0
O481 O 0.22578 0.31142 0.33744 0.0
O482 O 0.28041 0.18582 0.24596 0.0
O483 O 0.27525 0.23625 0.30521 0.0
O484 O 0.27825 0.28408 0.33146 0.0
C485 C 0.30027 0.17841 0.267 0.0
O486 O 0.31682 0.20067 0.2898 0.0
O487 O 0.32847 0.2511 0.25123 0.0
C488 C 0.24241 0.35314 0.27189 0.0
O489 O 0.22942 0.32955 0.24889 0.0
O490 O 0.25936 0.34779 0.29684 0.0
O491 O 0.28045 0.29639 0.24942 0.0
O492 O 0.25565 0.25057 0.22229 0.0
O493 O 0.21248 0.28069 0.28938 0.0
C494 C 0.27628 0.25432 0.33178 0.0
C495 C 0.2655 0.28053 0.22292 0.0
Zn496 Zn 0.52611 0.47949 0.03309 0.0
Zn497 Zn 0.50794 0.54462 0.01876 0.0
C498 C 0.56141 0.48774 0.09411 0.0
O499 O 0.57729 0.47376 0.07387 0.0
C500 C 0.47385 0.53597 0.95511 0.0
O501 O 0.45682 0.55151 0.97236 0.0
O502 O 0.52659 0.4328 0.03208 0.0
O503 O 0.48048 0.47741 0.01584 0.0
O504 O 0.47444 0.52061 0.04417 0.0
C505 C 0.50702 0.41855 0.05011 0.0
O506 O 0.48958 0.4349 0.06576 0.0
O507 O 0.53644 0.49559 0.08214 0.0
C508 C 0.52477 0.60507 0.00248 0.0
O509 O 0.54328 0.5896 0.98749 0.0
O510 O 0.50466 0.59036 0.01957 0.0
O511 O 0.55473 0.54836 0.03388 0.0
O512 O 0.56146 0.50341 0.00927 0.0
O513 O 0.49748 0.52795 0.97003 0.0
C514 C 0.46353 0.4916 0.03267 0.0
C515 C 0.5721 0.53295 0.01894 0.0
Zn516 Zn 0.75499 0.29207 0.25789 0.0
Zn517 Zn 0.78247 0.21747 0.27811 0.0
C518 C 0.69928 0.27788 0.21763 0.0
O519 O 0.71991 0.29586 0.20182 0.0
C520 C 0.83858 0.24061 0.32002 0.0
O521 O 0.81892 0.22763 0.33999 0.0
O522 O 0.7547 0.33947 0.26462 0.0
O523 O 0.7745 0.27819 0.2993 0.0
O524 O 0.7593 0.23101 0.31547 0.0
C525 C 0.73222 0.34588 0.28007 0.0
O526 O 0.71261 0.32247 0.29087 0.0
O527 O 0.70894 0.27011 0.24519 0.0
C528 C 0.80851 0.16384 0.26176 0.0
O529 O 0.83121 0.18728 0.25565 0.0
O530 O 0.78295 0.16987 0.27111 0.0
O531 O 0.76235 0.23365 0.23949 0.0
O532 O 0.77868 0.2788 0.22041 0.0
O533 O 0.82831 0.24085 0.2901 0.0
C534 C 0.75965 0.26069 0.31869 0.0
C535 C 0.77842 0.24929 0.21973 0.0
Zn536 Zn 0.02675 0.51754 0.49164 0.0
Zn537 Zn 0.01765 0.50532 0.5602 0.0
C538 C 0.08553 0.56071 0.50087 0.0
O539 O 0.06749 0.57534 0.48334 0.0
C540 C 0.95417 0.47019 0.55339 0.0
O541 O 0.9664 0.45909 0.57903 0.0
O542 O 0.02783 0.51663 0.44297 0.0
O543 O 0.0124 0.47111 0.49701 0.0
O544 O 0.04009 0.47162 0.54477 0.0
C545 C 0.04745 0.50045 0.43402 0.0
O546 O 0.06329 0.48837 0.45646 0.0
O547 O 0.07304 0.53382 0.50953 0.0
C548 C 0.9963 0.52664 0.61591 0.0
O549 O 0.98172 0.53782 0.59181 0.0
O550 O 0.01509 0.50878 0.60902 0.0
O551 O 0.03563 0.55066 0.55349 0.0
O552 O 0.0026 0.54936 0.50964 0.0
O553 O 0.97188 0.49085 0.53917 0.0
C554 C 0.02809 0.45744 0.51644 0.0
C555 C 0.01695 0.56383 0.53705 0.0
Zn556 Zn 0.80344 0.75715 0.27087 0.0
Zn557 Zn 0.73631 0.77285 0.28559 0.0
C558 C 0.796 0.72132 0.21018 0.0
O559 O 0.81116 0.70639 0.23043 0.0
C560 C 0.74173 0.80948 0.34935 0.0
O561 O 0.72265 0.82367 0.33268 0.0
O562 O 0.85046 0.76105 0.27183 0.0
O563 O 0.80147 0.80128 0.28932 0.0
O564 O 0.75958 0.80484 0.25756 0.0
C565 C 0.86295 0.78101 0.25324 0.0
O566 O 0.84464 0.79587 0.23645 0.0
O567 O 0.78735 0.74594 0.22199 0.0
C568 C 0.67697 0.75564 0.30215 0.0
O569 O 0.69537 0.74339 0.32185 0.0
O570 O 0.68962 0.77321 0.28164 0.0
O571 O 0.73485 0.72512 0.27776 0.0
O572 O 0.78337 0.72019 0.29429 0.0
O573 O 0.75244 0.7878 0.33412 0.0
C574 C 0.78797 0.817 0.2703 0.0
C575 C 0.75354 0.70862 0.28892 0.0
Zn576 Zn 0.76594 0.26118 0.80507 0.0
Zn577 Zn 0.77428 0.26566 0.73522 0.0
C578 C 0.72695 0.20052 0.79858 0.0
O579 O 0.713 0.21756 0.81807 0.0
C580 C 0.80604 0.33068 0.73728 0.0
O581 O 0.81658 0.31874 0.71111 0.0
O582 O 0.76934 0.26095 0.85401 0.0
O583 O 0.81032 0.27986 0.79644 0.0
O584 O 0.8096 0.24583 0.75334 0.0
C585 C 0.78852 0.24419 0.8633 0.0
O586 O 0.80328 0.23117 0.84118 0.0
O587 O 0.75248 0.21424 0.78805 0.0
C588 C 0.75079 0.28227 0.67787 0.0
O589 O 0.73884 0.29683 0.70135 0.0
O590 O 0.76992 0.26498 0.68579 0.0
O591 O 0.72946 0.24802 0.74437 0.0
O592 O 0.73154 0.28229 0.78757 0.0
O593 O 0.78714 0.31249 0.75284 0.0
C594 C 0.82436 0.26219 0.77978 0.0
C595 C 0.71651 0.26697 0.7608 0.0
Zn596 Zn 0.78741 0.74111 0.76641 0.0
Zn597 Zn 0.75863 0.80545 0.79947 0.0
C598 C 0.83887 0.75672 0.7293 0.0
O599 O 0.81477 0.74792 0.70602 0.0
C600 C 0.70338 0.78225 0.82141 0.0
O601 O 0.72178 0.80172 0.8454 0.0
O602 O 0.78427 0.69386 0.75671 0.0
O603 O 0.78158 0.74583 0.8154 0.0
O604 O 0.77942 0.79247 0.84081 0.0
C605 C 0.80439 0.68643 0.77746 0.0
O606 O 0.82193 0.7089 0.79944 0.0
O607 O 0.8334 0.75822 0.75925 0.0
C608 C 0.73316 0.85336 0.77863 0.0
O609 O 0.72424 0.82944 0.75512 0.0
O610 O 0.75001 0.84989 0.80457 0.0
O611 O 0.78229 0.80581 0.75926 0.0
O612 O 0.76067 0.75891 0.73224 0.0
O613 O 0.71389 0.77785 0.79384 0.0
C614 C 0.78064 0.76344 0.84172 0.0
C615 C 0.7696 0.78894 0.73245 0.0
Zn616 Zn 0.54947 0.50598 0.53734 0.0
Zn617 Zn 0.48298 0.51675 0.5056 0.0
C618 C 0.53502 0.45108 0.56741 0.0
O619 O 0.54703 0.47379 0.59162 0.0
C620 C 0.49192 0.57226 0.47993 0.0
O621 O 0.47342 0.55046 0.45792 0.0
O622 O 0.59633 0.50648 0.54746 0.0
O623 O 0.54747 0.52117 0.49143 0.0
O624 O 0.50012 0.49484 0.46761 0.0
C625 C 0.60416 0.48941 0.52399 0.0
O626 O 0.58272 0.477 0.49876 0.0
O627 O 0.53137 0.45848 0.5382 0.0
C628 C 0.42998 0.5362 0.52132 0.0
O629 O 0.45277 0.5498 0.5449 0.0
O630 O 0.43603 0.5178 0.49786 0.0
O631 O 0.4855 0.49934 0.54936 0.0
O632 O 0.53069 0.52874 0.57424 0.0
O633 O 0.50344 0.56371 0.50639 0.0
C634 C 0.52911 0.50781 0.46563 0.0
C635 C 0.50155 0.51548 0.5752 0.0
Zn636 Zn 0.98706 0.53488 0.03895 0.0
Zn637 Zn 0.06303 0.49381 0.02001 0.0
C638 C 0.99234 0.58875 0.08417 0.0
O639 O 0.97252 0.56752 0.0976 0.0
C640 C 0.0549 0.43449 0.98716 0.0
O641 O 0.07668 0.45277 0.97288 0.0
O642 O 0.93942 0.53147 0.02676 0.0
O643 O 0.01061 0.52725 0.99923 0.0
O644 O 0.05027 0.51098 0.97819 0.0
C645 C 0.93261 0.5544 0.01237 0.0
O646 O 0.95599 0.57635 0.00476 0.0
O647 O 0.0037 0.57999 0.05842 0.0
C648 C 0.13119 0.50463 0.05318 0.0
O649 O 0.12453 0.52207 0.07832 0.0
O650 O 0.11039 0.49475 0.02832 0.0
O651 O 0.04243 0.51504 0.05431 0.0
O652 O 0.99718 0.50756 0.07432 0.0
O653 O 0.04304 0.44708 0.01076 0.0
C654 C 0.02555 0.5224 0.97466 0.0
C655 C 0.0245 0.50138 0.07391 0.0
C656 C 0.00171 0.1576 0.95834 0.0
C657 C 0.00308 0.15908 0.92443 0.0
H658 H 0.9988 0.12792 0.9975 0.0
C659 C 0.00556 0.13179 0.90441 0.0
H660 H 0.0001 0.17832 0.97445 0.0
C661 C 0.00468 0.10318 0.91753 0.0
C662 C 0.00174 0.1013 0.951 0.0
H663 H 0.00703 0.13212 0.87827 0.0
H664 H 0.00538 0.08224 0.90121 0.0
C665 C 0.00124 0.1289 0.97159 0.0
C666 C 0.14365 0.79995 0.24631 0.0
C667 C 0.13021 0.78595 0.21445 0.0
H668 H 0.18114 0.80314 0.28554 0.0
C669 C 0.14291 0.76233 0.19863 0.0
H670 H 0.13362 0.81765 0.25928 0.0
C671 C 0.16845 0.75271 0.2142 0.0
C672 C 0.18313 0.76759 0.24543 0.0
H673 H 0.13233 0.75041 0.17451 0.0
H674 H 0.17737 0.73424 0.20107 0.0
C675 C 0.17041 0.7913 0.26146 0.0
C676 C 0.49939 0.85555 0.44826 0.0
C677 C 0.52324 0.8387 0.44397 0.0
H678 H 0.48907 0.90057 0.46421 0.0
C679 C 0.55517 0.85385 0.45392 0.0
H680 H 0.47463 0.8442 0.4404 0.0
C681 C 0.56337 0.886 0.46603 0.0
C682 C 0.53973 0.90314 0.46964 0.0
H683 H 0.57394 0.84141 0.45028 0.0
H684 H 0.5883 0.89772 0.47175 0.0
C685 C 0.50759 0.88757 0.46174 0.0
C686 C 0.44503 0.26096 0.74652 0.0
C687 C 0.45754 0.28059 0.72324 0.0
H688 H 0.40457 0.24304 0.77118 0.0
C689 C 0.43875 0.29913 0.70835 0.0
H690 H 0.45894 0.24631 0.75836 0.0
C691 C 0.40769 0.29723 0.7157 0.0
C692 C 0.39471 0.27666 0.73799 0.0
H693 H 0.44769 0.31448 0.69033 0.0
H694 H 0.39363 0.31139 0.70325 0.0
C695 C 0.41386 0.25896 0.75379 0.0
C696 C 0.02044 0.83539 0.54522 0.0
C697 C 0.00072 0.82227 0.56812 0.0
H698 H 0.03664 0.87581 0.51986 0.0
C699 C 0.97956 0.83931 0.58074 0.0
H700 H 0.03696 0.82277 0.53499 0.0
C701 C 0.97934 0.86962 0.572 0.0
C702 C 0.0004 0.88355 0.55062 0.0
H703 H 0.96395 0.82975 0.59828 0.0
H704 H 0.96343 0.88256 0.58299 0.0
C705 C 0.02032 0.8658 0.53659 0.0
C706 C 0.42602 0.77298 0.81702 0.0
C707 C 0.43935 0.75907 0.84281 0.0
H708 H 0.38383 0.77497 0.78652 0.0
C709 C 0.41959 0.73543 0.8574 0.0
H710 H 0.44064 0.79132 0.8053 0.0
C711 C 0.38706 0.72622 0.84675 0.0
C712 C 0.37364 0.74041 0.82126 0.0
H713 H 0.42913 0.72431 0.87736 0.0
H714 H 0.37244 0.70803 0.85865 0.0
C715 C 0.39347 0.76372 0.80631 0.0
C716 C 0.51347 0.12821 0.0992 0.0
C717 C 0.49655 0.14672 0.0817 0.0
H718 H 0.53442 0.08817 0.09771 0.0
C719 C 0.48598 0.13715 0.04812 0.0
H720 H 0.52261 0.13539 0.12489 0.0
C721 C 0.49192 0.10913 0.03251 0.0
C722 C 0.50956 0.09106 0.05002 0.0
H723 H 0.47332 0.15139 0.034 0.0
H724 H 0.48322 0.10192 0.00674 0.0
C725 C 0.52052 0.10123 0.08342 0.0
C726 C 0.11714 0.25313 0.31832 0.0
C727 C 0.10905 0.27392 0.34291 0.0
H728 H 0.15373 0.2427 0.29005 0.0
C729 C 0.13154 0.30177 0.35608 0.0
H730 H 0.10024 0.23145 0.30765 0.0
C731 C 0.16189 0.30798 0.34619 0.0
C732 C 0.17054 0.28661 0.32276 0.0
H733 H 0.12608 0.31839 0.37485 0.0
H734 H 0.17886 0.32938 0.35752 0.0
C735 C 0.14768 0.25951 0.3082 0.0
C736 C 0.98649 0.01407 0.16523 0.0
C737 C 0.9544 0.01627 0.16381 0.0
H738 H 0.02735 0.01498 0.13896 0.0
C739 C 0.93981 0.02342 0.13436 0.0
H740 H 0.99859 0.00873 0.18755 0.0
C741 C 0.95618 0.02691 0.10677 0.0
C742 C 0.98781 0.02354 0.10761 0.0
H743 H 0.91531 0.02561 0.13224 0.0
H744 H 0.94361 0.03156 0.08439 0.0
C745 C 0.00308 0.01779 0.13743 0.0
C746 C 0.27772 0.73779 0.44463 0.0
C747 C 0.29495 0.71514 0.45314 0.0
H748 H 0.26466 0.76579 0.40775 0.0
C749 C 0.31525 0.7058 0.43145 0.0
H750 H 0.26198 0.74561 0.46093 0.0
C751 C 0.31694 0.71758 0.40103 0.0
C752 C 0.29818 0.73871 0.3917 0.0
H753 H 0.32897 0.68856 0.43744 0.0
H754 H 0.33192 0.70901 0.38431 0.0
C755 C 0.27925 0.7494 0.41416 0.0
C756 C 0.54634 0.97961 0.65013 0.0
C757 C 0.57984 0.98697 0.6535 0.0
H758 H 0.50331 0.97928 0.61958 0.0
C759 C 0.59553 0.99648 0.62654 0.0
H760 H 0.53362 0.97223 0.6706 0.0
C761 C 0.5783 0.00147 0.59797 0.0
C762 C 0.54493 0.99574 0.595 0.0
H763 H 0.62128 0.00276 0.62846 0.0
H764 H 0.59142 0.01207 0.57917 0.0
C765 C 0.529 0.98369 0.62097 0.0
C766 C 0.27394 0.30591 0.93193 0.0
C767 C 0.26153 0.32991 0.94791 0.0
H768 H 0.27901 0.28056 0.88602 0.0
C769 C 0.24392 0.34673 0.92873 0.0
H770 H 0.28775 0.29257 0.94595 0.0
C771 C 0.23925 0.34009 0.89442 0.0
C772 C 0.2519 0.31633 0.87837 0.0
H773 H 0.2342 0.36549 0.94015 0.0
H774 H 0.22568 0.35369 0.88048 0.0
C775 C 0.2691 0.29912 0.89755 0.0
C776 C 0.94033 0.03633 0.36807 0.0
C777 C 0.95524 0.01646 0.3492 0.0
H778 H 0.9355 0.05726 0.41599 0.0
C779 C 0.97815 0.00281 0.36536 0.0
H780 H 0.9225 0.04714 0.35651 0.0
C781 C 0.98563 0.00857 0.39965 0.0
C782 C 0.97022 0.02797 0.41854 0.0
H783 H 0.99004 0.98729 0.35157 0.0
H784 H 0.00324 0.9976 0.41135 0.0
C785 C 0.94766 0.04195 0.40229 0.0
C786 C 0.28455 0.6853 0.65649 0.0
C787 C 0.29917 0.70102 0.63173 0.0
H788 H 0.26463 0.6897 0.70157 0.0
C789 C 0.30916 0.73447 0.63633 0.0
H790 H 0.27579 0.65966 0.65327 0.0
C791 C 0.3035 0.75189 0.66477 0.0
C792 C 0.28719 0.7361 0.68866 0.0
H793 H 0.32018 0.74718 0.61737 0.0
H794 H 0.3106 0.77766 0.66735 0.0
C795 C 0.27809 0.70264 0.68424 0.0
C796 C 0.57736 0.97382 0.85401 0.0
C797 C 0.56736 0.99403 0.83262 0.0
H798 H 0.57587 0.95756 0.90141 0.0
C799 C 0.54526 0.01159 0.84203 0.0
H800 H 0.59421 0.95986 0.84735 0.0
C801 C 0.53486 0.01046 0.8731 0.0
C802 C 0.54634 0.99167 0.89521 0.0
H803 H 0.53697 0.02728 0.82596 0.0
H804 H 0.51884 0.02522 0.88021 0.0
C805 C 0.56688 0.97259 0.88501 0.0
C806 C 0.2762 0.34627 0.16727 0.0
C807 C 0.26685 0.3297 0.13564 0.0
H808 H 0.28408 0.34391 0.21878 0.0
C809 C 0.25649 0.29623 0.13259 0.0
H810 H 0.28476 0.37194 0.17063 0.0
C811 C 0.25526 0.27991 0.16075 0.0
C812 C 0.26507 0.29671 0.19239 0.0
H813 H 0.24925 0.28273 0.10851 0.0
H814 H 0.24715 0.25421 0.1577 0.0
C815 C 0.27577 0.33006 0.19504 0.0
C816 C 0.16863 0.94902 0.99688 0.0
C817 C 0.18884 0.95293 0.02638 0.0
H818 H 0.12609 0.95737 0.97256 0.0
C819 C 0.18257 0.97141 0.05398 0.0
H820 H 0.17291 0.93514 0.97513 0.0
C821 C 0.15554 0.98419 0.05258 0.0
C822 C 0.13438 0.97866 0.02355 0.0
H823 H 0.19784 0.97499 0.07707 0.0
H824 H 0.15056 0.99719 0.07455 0.0
C825 C 0.14173 0.96176 0.99547 0.0
C826 C 0.64264 0.60061 0.01205 0.0
C827 C 0.66569 0.58454 0.00228 0.0
H828 H 0.59614 0.59718 0.02637 0.0
C829 C 0.65758 0.55098 0.9973 0.0
H830 H 0.64814 0.62638 0.01672 0.0
C831 C 0.62706 0.53398 0.00204 0.0
C832 C 0.60435 0.5502 0.01275 0.0
H833 H 0.67492 0.53786 0.99006 0.0
H834 H 0.62151 0.50819 0.99806 0.0
C835 C 0.61268 0.58373 0.01772 0.0
C836 C 0.73093 0.43128 0.26694 0.0
C837 C 0.70847 0.43766 0.28775 0.0
H838 H 0.75641 0.39741 0.24835 0.0
C839 C 0.69627 0.41469 0.30803 0.0
H840 H 0.7409 0.44852 0.25107 0.0
C841 C 0.70504 0.38542 0.3063 0.0
C842 C 0.72638 0.37844 0.28442 0.0
H843 H 0.67904 0.41883 0.3244 0.0
H844 H 0.69441 0.3679 0.3216 0.0
C845 C 0.7399 0.40202 0.26539 0.0
C846 C 0.87466 0.43548 0.50345 0.0
C847 C 0.85406 0.43578 0.52789 0.0
H848 H 0.92303 0.44725 0.49232 0.0
C849 C 0.86645 0.45011 0.55988 0.0
H850 H 0.8656 0.42453 0.47861 0.0
C851 C 0.89913 0.46205 0.56782 0.0
C852 C 0.91976 0.4608 0.54368 0.0
H853 H 0.85115 0.45044 0.57923 0.0
H854 H 0.90838 0.47168 0.59301 0.0
C855 C 0.90734 0.44842 0.5112 0.0
C856 C 0.31339 0.09846 0.23359 0.0
C857 C 0.3308 0.09071 0.26114 0.0
H858 H 0.28957 0.13239 0.21381 0.0
C859 C 0.33472 0.11018 0.29115 0.0
H860 H 0.30982 0.08377 0.21012 0.0
C861 C 0.32317 0.13781 0.29317 0.0
C862 C 0.30735 0.14655 0.26528 0.0
H863 H 0.34773 0.10475 0.31288 0.0
H864 H 0.32757 0.15289 0.31647 0.0
C865 C 0.30165 0.12617 0.23567 0.0
C866 C 0.36164 0.08641 0.47822 0.0
C867 C 0.33918 0.07274 0.49833 0.0
H868 H 0.40831 0.09009 0.46378 0.0
C869 C 0.34612 0.04912 0.51731 0.0
H870 H 0.35703 0.10449 0.46314 0.0
C871 C 0.3756 0.04075 0.51763 0.0
C872 C 0.39881 0.05596 0.49911 0.0
H873 H 0.32927 0.03796 0.53297 0.0
H874 H 0.38074 0.02353 0.53361 0.0
C875 C 0.3911 0.07815 0.47865 0.0
C876 C 0.69541 0.63894 0.3143 0.0
C877 C 0.7076 0.61281 0.30344 0.0
H878 H 0.70026 0.68905 0.31818 0.0
C879 C 0.7371 0.61876 0.29052 0.0
H880 H 0.673 0.6355 0.32467 0.0
C881 C 0.75307 0.65007 0.28709 0.0
C882 C 0.73958 0.67585 0.29608 0.0
H883 H 0.74722 0.5992 0.2818 0.0
H884 H 0.77506 0.65394 0.27595 0.0
C885 C 0.71103 0.66988 0.3104 0.0
C886 C 0.82875 0.41883 0.7333 0.0
C887 C 0.84157 0.43025 0.76597 0.0
H888 H 0.80804 0.37781 0.69857 0.0
C889 C 0.83991 0.40893 0.78985 0.0
H890 H 0.83001 0.43473 0.71436 0.0
C891 C 0.82655 0.37646 0.78089 0.0
C892 C 0.81578 0.36495 0.74781 0.0
H893 H 0.84973 0.41724 0.81517 0.0
H894 H 0.82625 0.36017 0.7994 0.0
C895 C 0.81644 0.38634 0.7242 0.0
C896 C 0.0204 0.88066 0.11643 0.0
C897 C 0.03472 0.85939 0.09872 0.0
H898 H 0.00831 0.92612 0.11978 0.0
C899 C 0.04379 0.86615 0.06764 0.0
H900 H 0.01293 0.8761 0.1403 0.0
C901 C 0.04039 0.89459 0.0555 0.0
C902 C 0.02831 0.91683 0.07451 0.0
H903 H 0.05462 0.85006 0.05326 0.0
H904 H 0.04932 0.90017 0.03248 0.0
C905 C 0.01754 0.90921 0.10459 0.0
C906 C 0.89575 0.26875 0.8418 0.0
C907 C 0.91183 0.24759 0.82676 0.0
H908 H 0.85644 0.29058 0.83844 0.0
C909 C 0.89995 0.23223 0.79491 0.0
H910 H 0.90451 0.28132 0.86609 0.0
C911 C 0.87177 0.23729 0.77889 0.0
C912 C 0.8555 0.25817 0.79436 0.0
H913 H 0.91206 0.21591 0.78268 0.0
H914 H 0.86255 0.2246 0.75476 0.0
C915 C 0.8682 0.27422 0.82572 0.0
C916 C 0.52194 0.17837 0.58507 0.0
C917 C 0.51994 0.18673 0.61855 0.0
H918 H 0.51681 0.14059 0.54605 0.0
C919 C 0.51128 0.16245 0.63866 0.0
H920 H 0.52869 0.1965 0.56898 0.0
C921 C 0.50452 0.13052 0.62557 0.0
C922 C 0.5064 0.12217 0.59213 0.0
H923 H 0.50974 0.16804 0.66462 0.0
H924 H 0.49787 0.1124 0.64172 0.0
C925 C 0.5153 0.14635 0.572 0.0
C926 C 0.59518 0.77074 0.30903 0.0
C927 C 0.58318 0.74692 0.32858 0.0
H928 H 0.635 0.79238 0.28502 0.0
C929 C 0.60001 0.72341 0.33439 0.0
H930 H 0.58253 0.78911 0.30417 0.0
C931 C 0.62962 0.72523 0.32348 0.0
C932 C 0.6431 0.75069 0.30668 0.0
H933 H 0.59101 0.70445 0.34886 0.0
H934 H 0.64268 0.70752 0.32975 0.0
C935 C 0.62512 0.77265 0.29813 0.0
C936 C 0.01811 0.18196 0.48831 0.0
C937 C 0.03612 0.19016 0.46239 0.0
H938 H 0.00251 0.1465 0.52003 0.0
C939 C 0.05538 0.17035 0.4511 0.0
H940 H 0.00307 0.19697 0.49742 0.0
C941 C 0.05541 0.14193 0.46422 0.0
C942 C 0.03571 0.13248 0.4885 0.0
H943 H 0.06983 0.17642 0.43147 0.0
H944 H 0.06996 0.12679 0.45427 0.0
C945 C 0.01773 0.15312 0.50116 0.0
C946 C 0.62476 0.2683 0.15911 0.0
C947 C 0.60063 0.25855 0.17901 0.0
H948 H 0.67456 0.28142 0.15558 0.0
C949 C 0.60921 0.25406 0.21182 0.0
H950 H 0.61911 0.2717 0.13365 0.0
C951 C 0.64135 0.25947 0.22442 0.0
C952 C 0.66532 0.26959 0.20442 0.0
H953 H 0.59117 0.24636 0.22773 0.0
H954 H 0.6474 0.25632 0.24988 0.0
C955 C 0.65665 0.27376 0.17165 0.0
C956 C 0.55189 0.87799 0.99159 0.0
C957 C 0.5371 0.86775 0.95921 0.0
H958 H 0.55908 0.91357 0.03353 0.0
C959 C 0.51716 0.88539 0.94472 0.0
H960 H 0.56726 0.86469 0.00344 0.0
C961 C 0.51192 0.9125 0.962 0.0
C962 C 0.52701 0.9233 0.99412 0.0
H963 H 0.50505 0.87802 0.92002 0.0
H964 H 0.49628 0.92529 0.94973 0.0
C965 C 0.5471 0.9058 0.00885 0.0
C966 C 0.92171 0.74271 0.72907 0.0
C967 C 0.92824 0.74915 0.69718 0.0
H968 H 0.88848 0.74102 0.76476 0.0
C969 C 0.90686 0.76194 0.67773 0.0
H970 H 0.9379 0.73309 0.74472 0.0
C971 C 0.8785 0.76614 0.68907 0.0
C972 C 0.87129 0.75831 0.72033 0.0
H973 H 0.91129 0.76727 0.65312 0.0
H974 H 0.86165 0.77446 0.6729 0.0
C975 C 0.8936 0.74755 0.74068 0.0
C976 C 0.06922 0.04563 0.89785 0.0
C977 C 0.07184 0.01935 0.87641 0.0
H978 H 0.05518 0.06206 0.94379 0.0
C979 C 0.05929 0.98849 0.88432 0.0
H980 H 0.07885 0.06967 0.89257 0.0
C981 C 0.04419 0.98413 0.91302 0.0
C982 C 0.04248 0.01053 0.93489 0.0
H983 H 0.06097 0.9678 0.86822 0.0
H984 H 0.03492 0.96018 0.91872 0.0
C985 C 0.05546 0.04127 0.92709 0.0
C986 C 0.72244 0.32324 0.60855 0.0
C987 C 0.74414 0.31967 0.58609 0.0
H988 H 0.7069 0.31309 0.65484 0.0
C989 C 0.76468 0.29913 0.59145 0.0
H990 H 0.70602 0.33852 0.60469 0.0
C991 C 0.76557 0.28482 0.62054 0.0
C992 C 0.7457 0.29074 0.64429 0.0
H993 H 0.78161 0.29594 0.57437 0.0
H994 H 0.7831 0.27091 0.62528 0.0
C995 C 0.72304 0.30869 0.63726 0.0
C996 C 0.49589 -6e-05 0.37661 0.0
C997 C 0.47243 0.01754 0.37224 0.0
H998 H 0.53177 0.98868 0.40973 0.0
C999 C 0.46989 0.04053 0.39766 0.0
H1000 H 0.49878 0.98239 0.35724 0.0
C1001 C 0.48895 0.04415 0.42775 0.0
C1002 C 0.51092 0.02505 0.43275 0.0
H1003 H 0.45235 0.05476 0.39481 0.0
H1004 H 0.48588 0.06116 0.44743 0.0
C1005 C 0.51509 0.0038 0.40653 0.0
C1006 C 0.77193 0.71438 0.11757 0.0
C1007 C 0.78178 0.68666 0.10657 0.0
H1008 H 0.76833 0.74708 0.15906 0.0
C1009 C 0.79671 0.67122 0.12984 0.0
H1010 H 0.7602 0.72677 0.10031 0.0
C1011 C 0.80117 0.68267 0.16319 0.0
C1012 C 0.79082 0.70993 0.17443 0.0
H1013 H 0.80471 0.6499 0.12239 0.0
H1014 H 0.81261 0.66984 0.18022 0.0
C1015 C 0.77637 0.72589 0.15122 0.0
C1016 C 0.10666 0.98115 0.67297 0.0
C1017 C 0.0931 -0.00075 0.69538 0.0
H1018 H 0.107 0.96241 0.62324 0.0
C1019 C 0.06725 0.01153 0.68349 0.0
H1020 H 0.12641 0.97108 0.68114 0.0
C1021 C 0.05602 0.0066 0.6497 0.0
C1022 C 0.07042 0.98925 0.62731 0.0
H1023 H 0.05636 0.02571 0.70007 0.0
H1024 H 0.03647 0.01675 0.64109 0.0
C1025 C 0.09552 0.97624 0.63955 0.0
C1026 C 0.74933 0.27614 0.40873 0.0
C1027 C 0.75206 0.30922 0.41221 0.0
H1028 H 0.74825 0.23431 0.37593 0.0
C1029 C 0.75392 0.32554 0.38444 0.0
H1030 H 0.74817 0.26323 0.43011 0.0
C1031 C 0.75537 0.30938 0.35388 0.0
C1032 C 0.75354 0.27636 0.35021 0.0
H1033 H 0.75676 0.35118 0.38678 0.0
H1034 H 0.75974 0.32315 0.33353 0.0
C1035 C 0.74945 0.25967 0.37781 0.0
C1036 C 0.46114 0.05041 0.18511 0.0
C1037 C 0.46013 0.02563 0.20487 0.0
H1038 H 0.47617 0.06922 0.14165 0.0
C1039 C 0.47773 0.00256 0.19806 0.0
H1040 H 0.44831 0.06883 0.19021 0.0
C1041 C 0.49358 0.0026 0.16995 0.0
C1042 C 0.49208 0.02584 0.14866 0.0
H1043 H 0.47747 0.98328 0.21311 0.0
H1044 H 0.50502 0.9833 0.16377 0.0
C1045 C 0.47714 0.05061 0.15737 0.0
C1046 C 0.75841 0.74457 0.92651 0.0
C1047 C 0.7669 0.71517 0.92881 0.0
H1048 H 0.75687 0.78335 0.89785 0.0
C1049 C 0.78205 0.70315 0.90334 0.0
H1050 H 0.74681 0.75462 0.94575 0.0
C1051 C 0.78746 0.71944 0.87574 0.0
C1052 C 0.77846 0.74855 0.87304 0.0
H1053 H 0.78892 0.68062 0.90422 0.0
H1054 H 0.79823 0.70881 0.85619 0.0
C1055 C 0.76439 0.7612 0.89912 0.0
C1056 C 0.86216 0.08501 0.0009 0.0
C1057 C 0.84469 0.07286 0.0259 0.0
H1058 H 0.90266 0.0842 0.97477 0.0
C1059 C 0.85221 0.04679 0.04031 0.0
H1060 H 0.85694 0.105 0.98923 0.0
C1061 C 0.87796 0.03458 0.0315 0.0
C1062 C 0.89647 0.04804 0.00799 0.0
H1063 H 0.83921 0.03682 0.0596 0.0
H1064 H 0.88478 0.01614 0.04473 0.0
C1065 C 0.88802 0.07286 0.99224 0.0
C1066 C 0.39192 0.42363 0.03337 0.0
C1067 C 0.37126 0.43841 0.05019 0.0
H1068 H 0.43667 0.4287 0.01445 0.0
C1069 C 0.38125 0.47116 0.06147 0.0
H1070 H 0.38511 0.39851 0.02423 0.0
C1071 C 0.41119 0.48865 0.05589 0.0
C1072 C 0.43164 0.47378 0.03877 0.0
H1073 H 0.3659 0.48333 0.07446 0.0
H1074 H 0.41823 0.5138 0.06485 0.0
C1075 C 0.42158 0.44106 0.02764 0.0
C1076 C 0.33107 0.59292 0.76898 0.0
C1077 C 0.33201 0.5782 0.73719 0.0
H1078 H 0.3193 0.63185 0.79792 0.0
C1079 C 0.31954 0.59078 0.70989 0.0
H1080 H 0.34044 0.5837 0.79046 0.0
C1081 C 0.30804 0.61847 0.71419 0.0
C1082 C 0.30769 0.6335 0.74586 0.0
H1083 H 0.32004 0.58008 0.68509 0.0
H1084 H 0.30029 0.62871 0.69271 0.0
C1085 C 0.31866 0.62017 0.77329 0.0
C1086 C 0.17335 0.57063 0.52849 0.0
C1087 C 0.18592 0.60156 0.52094 0.0
H1088 H 0.13158 0.53343 0.5283 0.0
C1089 C 0.16508 0.61896 0.50742 0.0
H1090 H 0.18875 0.55664 0.53905 0.0
C1091 C 0.1325 0.60574 0.50136 0.0
C1092 C 0.11992 0.57481 0.50872 0.0
H1093 H 0.17389 0.64291 0.50145 0.0
H1094 H 0.11719 0.61982 0.49081 0.0
C1095 C 0.14061 0.55739 0.52249 0.0
C1096 C 0.71318 0.91982 0.73447 0.0
C1097 C 0.69901 0.93586 0.75799 0.0
H1098 H 0.73472 0.88096 0.72275 0.0
C1099 C 0.69841 0.92611 0.78971 0.0
H1100 H 0.71392 0.92668 0.70981 0.0
C1101 C 0.71137 0.90032 0.79747 0.0
C1102 C 0.7242 0.88353 0.77329 0.0
H1103 H 0.6877 0.9382 0.80834 0.0
H1104 H 0.71 0.89259 0.82173 0.0
C1105 C 0.72519 0.89367 0.74189 0.0
C1106 C 0.67615 0.92229 0.5378 0.0
C1107 C 0.70278 0.94391 0.55512 0.0
H1108 H 0.62699 0.91389 0.51915 0.0
C1109 C 0.70061 0.97544 0.56446 0.0
H1110 H 0.67702 0.89785 0.53039 0.0
C1111 C 0.67205 0.98496 0.55695 0.0
C1112 C 0.64512 0.96278 0.5409 0.0
H1113 H 0.72085 0.99262 0.57781 0.0
H1114 H 0.67062 0.00911 0.56493 0.0
C1115 C 0.64752 0.93149 0.5313 0.0
C1116 C 0.31023 0.40112 0.73583 0.0
C1117 C 0.34326 0.41041 0.74559 0.0
H1118 H 0.26739 0.3645 0.73339 0.0
C1119 C 0.35839 0.38872 0.7602 0.0
H1120 H 0.29779 0.41725 0.72453 0.0
C1121 C 0.34105 0.35885 0.76549 0.0
C1122 C 0.30801 0.34956 0.75613 0.0
H1123 H 0.38375 0.39488 0.76801 0.0
H1124 H 0.35371 0.34304 0.77707 0.0
C1125 C 0.29278 0.37093 0.74097 0.0
C1126 C 0.1839 0.61287 0.29696 0.0
C1127 C 0.19275 0.59638 0.26954 0.0
H1128 H 0.19026 0.65684 0.3276 0.0
C1129 C 0.21689 0.61245 0.25256 0.0
H1130 H 0.16572 0.60111 0.31092 0.0
C1131 C 0.23103 0.64475 0.26219 0.0
C1132 C 0.22133 0.66135 0.28903 0.0
H1133 H 0.22425 0.60033 0.2314 0.0
H1134 H 0.24903 0.65682 0.24824 0.0
C1135 C 0.19803 0.64489 0.30659 0.0
C1136 C 0.53082 0.65836 0.47394 0.0
C1137 C 0.50704 0.66708 0.45334 0.0
H1138 H 0.54463 0.62114 0.49898 0.0
C1139 C 0.47753 0.64553 0.44486 0.0
H1140 H 0.55381 0.67457 0.481 0.0
C1141 C 0.47253 0.6152 0.45489 0.0
C1142 C 0.49677 0.60581 0.47388 0.0
H1143 H 0.45864 0.65159 0.42937 0.0
H1144 H 0.44981 0.59873 0.44702 0.0
C1145 C 0.52563 0.6279 0.48431 0.0
C1146 C 0.64396 0.30221 0.74653 0.0
C1147 C 0.63331 0.29034 0.71341 0.0
H1148 H 0.67925 0.3046 0.78768 0.0
C1149 C 0.64965 0.27048 0.69666 0.0
H1150 H 0.63126 0.31705 0.76012 0.0
C1151 C 0.6756 0.26194 0.71275 0.0
C1152 C 0.68702 0.27431 0.7456 0.0
H1153 H 0.64147 0.26023 0.67142 0.0
H1154 H 0.68706 0.24595 0.69903 0.0
C1155 C 0.67106 0.29474 0.76236 0.0
C1156 C 0.00946 0.34816 0.97595 0.0
C1157 C 0.02332 0.33539 0.94975 0.0
H1158 H 0.00853 0.3896 0.00844 0.0
C1159 C 0.04835 0.35515 0.93702 0.0
H1160 H 0.99009 0.33351 0.9863 0.0
C1161 C 0.05877 0.38718 0.9496 0.0
C1162 C 0.04444 0.40019 0.97522 0.0
H1163 H 0.05952 0.34607 0.91685 0.0
H1164 H 0.07785 0.40182 0.93884 0.0
C1165 C 0.01995 0.38028 0.9886 0.0
C1166 C 0.93994 0.80721 0.21698 0.0
C1167 C 0.95871 0.78832 0.23129 0.0
H1168 H 0.89495 0.81988 0.21297 0.0
C1169 C 0.94692 0.76951 0.25548 0.0
H1170 H 0.94843 0.82204 0.19837 0.0
C1171 C 0.91617 0.76804 0.26368 0.0
C1172 C 0.89671 0.78545 0.24791 0.0
H1173 H 0.96089 0.75476 0.26707 0.0
H1174 H 0.90728 0.75238 0.28145 0.0
C1175 C 0.90924 0.80584 0.22527 0.0
C1176 C 0.48436 0.34013 0.08517 0.0
C1177 C 0.50518 0.32304 0.0719 0.0
H1178 H 0.46845 0.3835 0.08844 0.0
C1179 C 0.52517 0.33675 0.04948 0.0
H1180 H 0.4686 0.33022 0.10244 0.0
C1181 C 0.52527 0.36749 0.04156 0.0
C1182 C 0.50528 0.38503 0.05583 0.0
H1183 H 0.54152 0.32416 0.03884 0.0
H1184 H 0.54156 0.37779 0.02495 0.0
C1185 C 0.48435 0.37074 0.07717 0.0
C1186 C 0.92687 0.24596 0.32774 0.0
C1187 C 0.93596 0.26036 0.36038 0.0
H1188 H 0.88845 0.22886 0.28892 0.0
C1189 C 0.91337 0.27152 0.37779 0.0
H1190 H 0.94371 0.23713 0.31368 0.0
C1191 C 0.88195 0.26652 0.36376 0.0
C1192 C 0.87258 0.25087 0.33185 0.0
H1193 H 0.91963 0.28312 0.40279 0.0
H1194 H 0.86469 0.27405 0.37826 0.0
C1195 C 0.89536 0.2414 0.31349 0.0
C1196 C 0.98655 0.63964 0.54986 0.0
C1197 C 0.99606 0.6488 0.5837 0.0
H1198 H 0.98508 0.60491 0.50836 0.0
C1199 C 0.01193 0.62982 0.60169 0.0
H1200 H 0.9747 0.65424 0.53538 0.0
C1201 C 0.01928 0.60293 0.58609 0.0
C1202 C 0.00962 0.59332 0.55235 0.0
H1203 H 0.02022 0.63665 0.62762 0.0
H1204 H 0.03253 0.58958 0.60075 0.0
C1205 C 0.99275 0.61169 0.53438 0.0
C1206 C 0.63637 0.75499 0.86913 0.0
C1207 C 0.61245 0.76717 0.85291 0.0
H1208 H 0.68426 0.74947 0.87076 0.0
C1209 C 0.61655 0.77733 0.8217 0.0
H1210 H 0.63376 0.74639 0.89287 0.0
C1211 C 0.64549 0.77848 0.80873 0.0
C1212 C 0.67042 0.76945 0.82688 0.0
H1213 H 0.5984 0.78655 0.80846 0.0
H1214 H 0.64938 0.78926 0.78627 0.0
C1215 C 0.66514 0.7563 0.8563 0.0
C1216 C 0.48657 0.52486 0.66564 0.0
C1217 C 0.45306 0.51556 0.66271 0.0
H1218 H 0.5285 0.53294 0.64031 0.0
C1219 C 0.43627 0.50717 0.63111 0.0
H1220 H 0.50022 0.53137 0.6897 0.0
C1221 C 0.45232 0.50721 0.60328 0.0
C1222 C 0.48573 0.51664 0.60585 0.0
H1223 H 0.41055 0.49954 0.62781 0.0
H1224 H 0.43827 0.49955 0.57956 0.0
C1225 C 0.50276 0.5258 0.63741 0.0
C1226 C 0.77135 0.23298 0.95027 0.0
C1227 C 0.7896 0.21093 0.95804 0.0
H1228 H 0.75673 0.261 0.91409 0.0
C1229 C 0.8101 0.20284 0.93594 0.0
H1230 H 0.75544 0.23985 0.96694 0.0
C1231 C 0.81093 0.21511 0.90577 0.0
C1232 C 0.79113 0.23553 0.89709 0.0
H1233 H 0.82462 0.18613 0.94138 0.0
H1234 H 0.82619 0.20753 0.88874 0.0
C1235 C 0.77207 0.24514 0.92001 0.0
C1236 C 0.04671 0.48786 0.16084 0.0
C1237 C 0.07681 0.48107 0.15867 0.0
H1238 H 0.00612 0.49921 0.13533 0.0
C1239 C 0.08569 0.4736 0.12738 0.0
H1240 H 0.03874 0.49313 0.18452 0.0
C1241 C 0.06645 0.4765 0.09905 0.0
C1242 C 0.03852 0.4875 0.10158 0.0
H1243 H 0.10833 0.46749 0.12478 0.0
H1244 H 0.07443 0.47216 0.07527 0.0
C1245 C 0.02777 0.4911 0.13256 0.0
C1246 C 0.77381 0.80835 0.43849 0.0
C1247 C 0.76003 0.83086 0.45515 0.0
H1248 H 0.77912 0.78411 0.39212 0.0
C1249 C 0.73991 0.84588 0.43672 0.0
H1250 H 0.78954 0.79642 0.45189 0.0
C1251 C 0.73416 0.83901 0.40244 0.0
C1252 C 0.74834 0.8169 0.3857 0.0
H1253 H 0.729 0.86343 0.44869 0.0
H1254 H 0.71865 0.8512 0.38906 0.0
C1255 C 0.76801 0.80143 0.40417 0.0
C1256 C 0.47619 0.50701 0.86529 0.0
C1257 C 0.45252 0.51982 0.84932 0.0
H1258 H 0.50151 0.50192 0.91118 0.0
C1259 C 0.43636 0.53822 0.86842 0.0
H1260 H 0.48904 0.49262 0.85132 0.0
C1261 C 0.44327 0.54323 0.90268 0.0
C1262 C 0.46664 0.53012 0.91874 0.0
H1263 H 0.41791 0.54831 0.85698 0.0
H1264 H 0.43016 0.5574 0.91658 0.0
C1265 C 0.48326 0.51219 0.89962 0.0
C1266 C 0.79103 0.18064 0.16306 0.0
C1267 C 0.7994 0.19544 0.13523 0.0
H1268 H 0.77653 0.18603 0.21085 0.0
C1269 C 0.80553 0.22891 0.13719 0.0
H1270 H 0.78587 0.15493 0.16231 0.0
C1271 C 0.801 0.24699 0.16567 0.0
C1272 C 0.78979 0.2318 0.19239 0.0
H1273 H 0.81212 0.24099 0.11608 0.0
H1274 H 0.80433 0.27255 0.16591 0.0
C1275 C 0.78581 0.19858 0.19108 0.0
C1276 C 0.05474 0.51495 0.34571 0.0
C1277 C 0.07551 0.49551 0.33705 0.0
H1278 H 0.02939 0.53175 0.38335 0.0
C1279 C 0.08422 0.47545 0.35933 0.0
H1280 H 0.04747 0.53059 0.32894 0.0
C1281 C 0.07387 0.47617 0.39043 0.0
C1282 C 0.05463 0.49696 0.39978 0.0
H1283 H 0.10001 0.46008 0.35328 0.0
H1284 H 0.0818 0.46111 0.4075 0.0
C1285 C 0.04434 0.51564 0.37684 0.0
C1286 C 0.76361 0.80267 0.64162 0.0
C1287 C 0.77094 0.83623 0.644 0.0
H1288 H 0.75679 0.76116 0.66754 0.0
C1289 C 0.77688 0.85357 0.67545 0.0
H1290 H 0.7589 0.78855 0.61775 0.0
C1291 C 0.77628 0.838 0.70371 0.0
C1292 C 0.76901 0.80452 0.70159 0.0
H1293 H 0.78277 0.87938 0.67839 0.0
H1294 H 0.7817 0.85244 0.7274 0.0
C1295 C 0.76236 0.78696 0.67013 0.0
C1296 C 0.66975 0.45089 0.49906 0.0
C1297 C 0.6888 0.4531 0.52907 0.0
H1298 H 0.62859 0.46123 0.47394 0.0
C1299 C 0.68167 0.4704 0.55706 0.0
H1300 H 0.67473 0.43801 0.47701 0.0
C1301 C 0.65499 0.4838 0.55536 0.0
C1302 C 0.63506 0.48008 0.52563 0.0
H1303 H 0.696 0.47262 0.58057 0.0
H1304 H 0.64925 0.49581 0.57754 0.0
C1305 C 0.64326 0.46425 0.49736 0.0
C1306 C 0.14333 0.09595 0.50918 0.0
C1307 C 0.16502 0.07989 0.49606 0.0
H1308 H 0.09853 0.09244 0.52758 0.0
C1309 C 0.15616 0.04644 0.48929 0.0
H1310 H 0.14955 0.1216 0.51529 0.0
C1311 C 0.12614 0.02952 0.49557 0.0
C1312 C 0.10491 0.04568 0.50971 0.0
H1313 H 0.17253 0.03338 0.47948 0.0
H1314 H 0.11989 0.00382 0.4901 0.0
C1315 C 0.11402 0.07909 0.51645 0.0
C1316 C 0.19721 0.91904 0.80818 0.0
C1317 C 0.20829 0.94186 0.78731 0.0
H1318 H 0.1969 0.87272 0.82233 0.0
C1319 C 0.23047 0.93576 0.76599 0.0
H1320 H 0.18024 0.92296 0.82496 0.0
C1321 C 0.24018 0.90684 0.76453 0.0
C1322 C 0.22771 0.88338 0.78419 0.0
H1323 H 0.23955 0.95287 0.74962 0.0
H1324 H 0.25633 0.90236 0.74703 0.0
C1325 C 0.20674 0.89016 0.80657 0.0
C1326 C 0.37423 0.93251 0.00483 0.0
C1327 C 0.35363 0.93224 0.0293 0.0
H1328 H 0.42255 0.94499 0.99375 0.0
C1329 C 0.36598 0.94575 0.06156 0.0
H1330 H 0.36517 0.92217 0.97981 0.0
C1331 C 0.39863 0.95771 0.06963 0.0
C1332 C 0.41923 0.95736 0.04536 0.0
H1333 H 0.35061 0.94558 0.0809 0.0
H1334 H 0.40788 0.96685 0.09494 0.0
C1335 C 0.40685 0.94553 0.01273 0.0
C1336 C 0.81438 0.6051 0.74469 0.0
C1337 C 0.83308 0.59783 0.77156 0.0
H1338 H 0.79017 0.63897 0.72547 0.0
C1339 C 0.83878 0.61805 0.80124 0.0
H1340 H 0.80942 0.58981 0.72151 0.0
C1341 C 0.82778 0.646 0.80342 0.0
C1342 C 0.81078 0.65431 0.77601 0.0
H1343 H 0.85281 0.613 0.82245 0.0
H1344 H 0.83359 0.66169 0.82635 0.0
C1345 C 0.80323 0.63313 0.74693 0.0
C1346 C 0.84673 0.5528 0.02562 0.0
C1347 C 0.84032 0.57682 0.00691 0.0
H1348 H 0.88076 0.52645 0.04177 0.0
C1349 C 0.86325 0.59064 0.98735 0.0
H1350 H 0.82955 0.54156 0.04091 0.0
C1351 C 0.89257 0.58206 0.98797 0.0
C1352 C 0.89967 0.55928 0.008 0.0
H1353 H 0.85911 0.60909 0.97255 0.0
H1354 H 0.91013 0.5941 0.97352 0.0
C1355 C 0.87606 0.54403 0.02606 0.0
C1356 C 0.18235 0.139 0.7889 0.0
C1357 C 0.19881 0.11568 0.79695 0.0
H1358 H 0.18497 0.18585 0.77567 0.0
C1359 C 0.23232 0.12367 0.8 0.0
H1360 H 0.15657 0.13361 0.78575 0.0
C1361 C 0.24887 0.15431 0.79502 0.0
C1362 C 0.23221 0.17727 0.78598 0.0
H1363 H 0.24572 0.10614 0.8059 0.0
H1364 H 0.27463 0.15974 0.79743 0.0
C1365 C 0.19874 0.1691 0.78299 0.0
C1366 C 0.33119 0.90215 0.28178 0.0
C1367 C 0.33437 0.92342 0.25784 0.0
H1368 H 0.31592 0.85356 0.2913 0.0
C1369 C 0.3221 0.91215 0.22499 0.0
H1370 H 0.34047 0.91032 0.30727 0.0
C1371 C 0.30905 0.87979 0.21582 0.0
C1372 C 0.30717 0.85836 0.23947 0.0
H1373 H 0.3244 0.92798 0.206 0.0
H1374 H 0.30115 0.87137 0.19007 0.0
C1375 C 0.3172 0.86982 0.2727 0.0
C1376 C 0.52282 0.38083 0.61571 0.0
C1377 C 0.53694 0.35976 0.59746 0.0
H1378 H 0.51096 0.42641 0.62008 0.0
C1379 C 0.54607 0.3671 0.56656 0.0
H1380 H 0.51538 0.37584 0.63949 0.0
C1381 C 0.54277 0.39583 0.55507 0.0
C1382 C 0.5308 0.41781 0.57457 0.0
H1383 H 0.55681 0.3512 0.55181 0.0
H1384 H 0.55162 0.40179 0.5321 0.0
C1385 C 0.52013 0.40971 0.60455 0.0
C1386 C 0.39441 0.72906 0.29619 0.0
C1387 C 0.41743 0.75797 0.30274 0.0
H1388 H 0.34597 0.70627 0.27761 0.0
C1389 C 0.41005 0.78574 0.29221 0.0
H1390 H 0.39953 0.70731 0.30396 0.0
C1391 C 0.37956 0.78517 0.27773 0.0
C1392 C 0.35619 0.75667 0.27258 0.0
H1393 H 0.42724 0.80839 0.29694 0.0
H1394 H 0.37377 0.80731 0.27193 0.0
C1395 C 0.36399 0.72837 0.28083 0.0
C1396 C 0.99744 0.66418 0.14062 0.0
C1397 C 0.01209 0.68768 0.12202 0.0
H1398 H 0.97982 0.61443 0.14327 0.0
C1399 C 0.01991 0.67836 0.09075 0.0
H1400 H 0.99116 0.67059 0.16483 0.0
C1401 C 0.01377 0.64616 0.07861 0.0
C1402 C -0.0006 0.62269 0.09735 0.0
H1403 H 0.03134 0.69586 0.07588 0.0
H1404 H 0.02019 0.63969 0.05447 0.0
C1405 C 0.99103 0.632 0.12833 0.0
C1406 C 0.10109 0.2775 0.81902 0.0
C1407 C 0.08064 0.24701 0.81362 0.0
H1408 H 0.14808 0.30536 0.81594 0.0
C1409 C 0.09125 0.22143 0.7985 0.0
H1410 H 0.09341 0.29757 0.83067 0.0
C1411 C 0.1224 0.22576 0.79091 0.0
C1412 C 0.1431 0.2559 0.79729 0.0
H1413 H 0.07609 0.19763 0.79425 0.0
H1414 H 0.13065 0.20532 0.781 0.0
C1415 C 0.13213 0.28201 0.81047 0.0
C1416 C 0.5044 0.67945 0.97518 0.0
C1417 C 0.53494 0.69947 0.97715 0.0
H1418 H 0.47704 0.63352 0.98298 0.0
C1419 C 0.56127 0.68939 0.99129 0.0
H1420 H 0.48374 0.68672 0.9644 0.0
C1421 C 0.5575 0.65903 0.00112 0.0
C1422 C 0.52725 0.6386 0.99798 0.0
H1423 H 0.58511 0.70421 0.99301 0.0
H1424 H 0.5784 0.65108 0.01015 0.0
C1425 C 0.50053 0.64924 0.98597 0.0
C1426 C 0.12355 0.7824 0.66185 0.0
C1427 C 0.10018 0.76596 0.6794 0.0
H1428 H 0.17292 0.80147 0.65986 0.0
C1429 C 0.1096 0.75626 0.70978 0.0
H1430 H 0.11715 0.79024 0.63839 0.0
C1431 C 0.14185 0.76251 0.72205 0.0
C1432 C 0.16514 0.77875 0.70424 0.0
H1433 H 0.09214 0.74337 0.72379 0.0
H1434 H 0.1485 0.75472 0.74545 0.0
C1435 C 0.1556 0.78877 0.67414 0.0
C1436 C 0.03387 0.38614 0.45935 0.0
C1437 C 0.0353 0.36336 0.48107 0.0
H1438 H 0.02855 0.433 0.45343 0.0
C1439 C 0.03622 0.37198 0.51504 0.0
H1440 H 0.03235 0.37979 0.43301 0.0
C1441 C 0.03548 0.40316 0.52707 0.0
C1442 C 0.03234 0.4255 0.50505 0.0
H1443 H 0.03684 0.35447 0.53212 0.0
H1444 H 0.0358 0.40932 0.55328 0.0
C1445 C 0.03164 0.41664 0.47113 0.0
C1446 C 0.40606 0.25792 0.17395 0.0
C1447 C 0.42667 0.2447 0.19391 0.0
H1448 H 0.36077 0.27014 0.16733 0.0
C1449 C 0.41857 0.23709 0.22502 0.0
H1450 H 0.41167 0.26413 0.14991 0.0
C1451 C 0.38972 0.24125 0.2353 0.0
C1452 C 0.36824 0.2525 0.21436 0.0
H1453 H 0.4341 0.22707 0.24103 0.0
H1454 H 0.38342 0.23385 0.25874 0.0
C1455 C 0.37696 0.26144 0.18393 0.0
C1456 C 0.56473 0.48987 0.38711 0.0
C1457 C 0.57326 0.52034 0.37669 0.0
H1458 H 0.54287 0.4618 0.42298 0.0
C1459 C 0.56504 0.54604 0.39465 0.0
H1460 H 0.57068 0.4696 0.37376 0.0
C1461 C 0.54969 0.54163 0.42297 0.0
C1462 C 0.54125 0.51125 0.43338 0.0
H1463 H 0.57147 0.56984 0.38747 0.0
H1464 H 0.5449 0.56211 0.43712 0.0
C1465 C 0.54856 0.48532 0.41502 0.0
C1466 C 0.25426 0.79395 0.08671 0.0
C1467 C 0.2371 0.81773 0.08319 0.0
H1468 H 0.2686 0.76159 0.11818 0.0
C1469 C 0.21688 0.82337 0.10662 0.0
H1470 H 0.26995 0.78904 0.06886 0.0
C1471 C 0.2158 0.80742 0.13447 0.0
C1472 C 0.23533 0.78593 0.13966 0.0
H1473 H 0.20302 0.84122 0.10422 0.0
H1474 H 0.20104 0.81344 0.15285 0.0
C1475 C 0.25351 0.77823 0.11491 0.0
C1476 C 0.00089 0.50686 0.88337 0.0
C1477 C 0.97692 0.52393 0.87974 0.0
H1478 H 0.03554 0.49349 0.91625 0.0
C1479 C 0.97218 0.54401 0.90673 0.0
H1480 H 0.00543 0.49152 0.86285 0.0
C1481 C 0.98953 0.54509 0.9374 0.0
C1482 C 0.01196 0.52634 0.94149 0.0
H1483 H 0.95414 0.55773 0.90456 0.0
H1484 H 0.98471 0.5598 0.95813 0.0
C1485 C 0.01836 0.50817 0.91391 0.0
C1486 C 0.28853 0.16265 0.62383 0.0
C1487 C 0.27886 0.18049 0.59956 0.0
H1488 H 0.29933 0.15951 0.67493 0.0
C1489 C 0.27294 0.21046 0.60958 0.0
H1490 H 0.29321 0.13944 0.61722 0.0
C1491 C 0.27637 0.22208 0.64315 0.0
C1492 C 0.28581 0.20393 0.6673 0.0
H1493 H 0.26528 0.22478 0.59156 0.0
H1494 H 0.27172 0.24521 0.65016 0.0
C1495 C 0.29191 0.17416 0.65712 0.0
C1496 C 0.571 0.51519 0.18638 0.0
C1497 C 0.59587 0.50126 0.19769 0.0
H1498 H 0.5405 0.52212 0.14452 0.0
C1499 C 0.60775 0.48191 0.17493 0.0
H1500 H 0.56137 0.5303 0.20327 0.0
C1501 C 0.59613 0.47752 0.14168 0.0
C1502 C 0.57212 0.49221 0.12998 0.0
H1503 H 0.62662 0.47048 0.18265 0.0
H1504 H 0.60634 0.46269 0.12507 0.0
C1505 C 0.55918 0.51067 0.15275 0.0
C1506 C 0.2476 0.77738 0.90568 0.0
C1507 C 0.25125 0.81057 0.91001 0.0
H1508 H 0.24618 0.73606 0.87207 0.0
C1509 C 0.2545 0.82769 0.88285 0.0
H1510 H 0.24533 0.76385 0.92656 0.0
C1511 C 0.25641 0.81212 0.85211 0.0
C1512 C 0.25367 0.77896 0.84765 0.0
H1513 H 0.25802 0.8534 0.88588 0.0
H1514 H 0.26181 0.82638 0.8323 0.0
C1515 C 0.24819 0.76157 0.87457 0.0
C1516 C 0.9804 0.51491 0.70305 0.0
C1517 C 0.95981 0.53546 0.7081 0.0
H1518 H 0.00832 0.49582 0.6694 0.0
C1519 C 0.95552 0.55628 0.68482 0.0
H1520 H 0.98423 0.49869 0.72073 0.0
C1521 C 0.96937 0.55473 0.65573 0.0
C1522 C 0.98755 0.53217 0.64927 0.0
H1523 H 0.94022 0.57273 0.68834 0.0
H1524 H 0.96448 0.5702 0.63761 0.0
C1525 C 0.99416 0.51321 0.6737 0.0
C1526 C 0.27605 0.19357 0.39306 0.0
C1527 C 0.26465 0.2078 0.42016 0.0
H1528 H 0.28833 0.19679 0.34413 0.0
C1529 C 0.25881 0.23842 0.41873 0.0
H1530 H 0.28066 0.16998 0.39324 0.0
C1531 C 0.26387 0.25424 0.39067 0.0
C1532 C 0.27428 0.23952 0.36312 0.0
H1533 H 0.2501 0.25011 0.43925 0.0
H1534 H 0.2586 0.27753 0.39015 0.0
C1535 C 0.28046 0.20904 0.36483 0.0
C1536 C 0.36179 0.57523 0.50323 0.0
C1537 C 0.34835 0.57389 0.53311 0.0
H1538 H 0.39795 0.56294 0.47541 0.0
C1539 C 0.35947 0.5563 0.5568 0.0
H1540 H 0.35358 0.58851 0.48447 0.0
C1541 C 0.38478 0.54206 0.55169 0.0
C1542 C 0.39893 0.54432 0.52244 0.0
H1543 H 0.3497 0.55482 0.58007 0.0
H1544 H 0.39418 0.53037 0.57125 0.0
C1545 C 0.3868 0.56028 0.49782 0.0
C1546 C 0.89091 0.92691 0.53136 0.0
C1547 C 0.87202 0.94152 0.55091 0.0
H1548 H 0.93403 0.93171 0.50941 0.0
C1549 C 0.88335 0.97381 0.56361 0.0
H1550 H 0.88293 0.90219 0.52093 0.0
C1551 C 0.91313 0.99093 0.5571 0.0
C1552 C 0.93194 0.97613 0.53752 0.0
H1553 H 0.86932 0.9858 0.5787 0.0
H1554 H 0.92143 0.01564 0.56744 0.0
C1555 C 0.9203 0.94398 0.52461 0.0
C1556 C 0.81023 0.08086 0.22603 0.0
C1557 C 0.8362 0.07523 0.24604 0.0
H1558 H 0.78043 0.11341 0.21587 0.0
C1559 C 0.85014 0.0975 0.2734 0.0
H1560 H 0.79896 0.06419 0.20474 0.0
C1561 C 0.83953 0.12551 0.27959 0.0
C1562 C 0.81436 0.13154 0.25902 0.0
H1563 H 0.87012 0.09397 0.28933 0.0
H1564 H 0.8518 0.14308 0.29981 0.0
C1565 C 0.79935 0.10879 0.23253 0.0
C1566 C 0.66859 0.06428 0.03254 0.0
C1567 C 0.68256 0.09341 0.02169 0.0
H1568 H 0.62581 0.02847 0.03313 0.0
C1569 C 0.66336 0.10864 0.00235 0.0
H1570 H 0.68274 0.05199 0.04755 0.0
C1571 C 0.631 0.09524 0.99413 0.0
C1572 C 0.61692 0.06628 0.00507 0.0
H1573 H 0.67329 0.13104 0.99345 0.0
H1574 H 0.61704 0.10775 0.97918 0.0
C1575 C 0.63601 0.05085 0.02435 0.0
C1576 C 0.22574 0.42198 0.23038 0.0
C1577 C 0.20867 0.43566 0.25288 0.0
H1578 H 0.24998 0.38505 0.21919 0.0
C1579 C 0.20664 0.42455 0.28392 0.0
H1580 H 0.22781 0.42998 0.20631 0.0
C1581 C 0.22026 0.39918 0.29162 0.0
C1582 C 0.23555 0.38442 0.26815 0.0
H1583 H 0.19378 0.43479 0.30182 0.0
H1584 H 0.21705 0.38983 0.31493 0.0
C1585 C 0.23866 0.39638 0.2378 0.0
C1586 C 0.18887 0.45251 0.03463 0.0
C1587 C 0.209 0.45752 0.06439 0.0
H1588 H 0.1491 0.46387 0.00749 0.0
C1589 C 0.20475 0.47994 0.08968 0.0
H1590 H 0.1916 0.43561 0.01456 0.0
C1591 C 0.18031 0.49626 0.08566 0.0
C1592 C 0.15964 0.49066 0.05617 0.0
H1593 H 0.21989 0.48444 0.11292 0.0
H1594 H 0.17712 0.51261 0.10601 0.0
C1595 C 0.16457 0.46892 0.03054 0.0
C1596 C 0.81071 0.89658 0.23548 0.0
C1597 C 0.84285 0.90731 0.24886 0.0
H1598 H 0.76798 0.85949 0.23152 0.0
C1599 C 0.85633 0.88808 0.26903 0.0
H1600 H 0.79955 0.91085 0.21992 0.0
C1601 C 0.83826 0.8592 0.27603 0.0
C1602 C 0.8062 0.84826 0.26271 0.0
H1603 H 0.88088 0.89552 0.28 0.0
H1604 H 0.84968 0.84536 0.29193 0.0
C1605 C 0.79259 0.86722 0.24221 0.0
C1606 C 0.71285 0.11471 0.75986 0.0
C1607 C 0.68322 0.10136 0.76998 0.0
H1608 H 0.75001 0.15678 0.76078 0.0
C1609 C 0.66858 0.1208 0.78975 0.0
H1610 H 0.72472 0.10034 0.7446 0.0
C1611 C 0.68301 0.15282 0.79906 0.0
C1612 C 0.71242 0.16636 0.78874 0.0
H1613 H 0.64585 0.11131 0.79817 0.0
H1614 H 0.6709 0.167 0.81426 0.0
C1615 C 0.72729 0.147 0.76907 0.0
loop_
_geom_bond_atom_site_label_1
_geom_bond_atom_site_label_2
_geom_bond_distance
_geom_bond_site_symmetry_2
_ccdc_geom_bond_type
O0 Cd1 2.223 . S
O0 C8 1.315 . S
Cd1 O0 2.223 . S
Cd1 O4 2.297 . S
Cd1 O5 2.439 . S
Cd1 O11 2.240 1_455 S
Cd2 O3 2.240 . S
Cd2 O10 2.223 1_455 S
Cd2 O12 2.297 . S
Cd2 O13 2.439 . S
O3 Cd2 2.240 . S
O3 C8 1.279 . S
O4 Cd1 2.297 . S
O4 C6 1.247 . S
O5 Cd1 2.439 . S
O5 C6 1.208 . S
C6 O4 1.247 . S
C6 O5 1.208 . S
C7 O12 1.247 . S
C7 O13 1.208 . S
C8 O0 1.315 . S
C8 O3 1.279 . S
C9 O10 1.315 . S
C9 O11 1.279 . S
O10 Cd2 2.223 1_655 S
O10 C9 1.315 . S
O11 Cd1 2.240 1_655 S
O11 C9 1.279 . S
O12 Cd2 2.297 . S
O12 C7 1.247 . S
O13 Cd2 2.439 . S
O13 C7 1.208 . S
O14 Cd15 2.223 1_455 S
O14 C22 1.315 1_455 S
Cd15 O14 2.223 1_655 S
Cd15 O18 2.297 . S
Cd15 O19 2.439 . S
Cd15 O25 2.240 1_655 S
Cd16 O17 2.240 1_455 S
Cd16 O24 2.223 . S
Cd16 O26 2.297 . S
Cd16 O27 2.439 . S
O17 Cd16 2.240 1_655 S
O17 C22 1.279 . S
O18 Cd15 2.297 . S
O18 C20 1.247 . S
O19 Cd15 2.439 . S
O19 C20 1.208 . S
C20 O18 1.247 . S
C20 O19 1.208 . S
C21 O26 1.247 . S
C21 O27 1.208 . S
C22 O14 1.315 1_655 S
C22 O17 1.279 . S
C23 O24 1.315 . S
C23 O25 1.279 . S
O24 Cd16 2.223 . S
O24 C23 1.315 . S
O25 Cd15 2.240 1_455 S
O25 C23 1.279 . S
O26 Cd16 2.297 . S
O26 C21 1.247 . S
O27 Cd16 2.439 . S
O27 C21 1.208 . S
O28 Cd29 2.223 . S
O28 C36 1.315 . S
Cd29 O28 2.223 . S
Cd29 O32 2.297 . S
Cd29 O33 2.439 . S
Cd29 O39 2.240 . S
Cd30 O31 2.240 . S
Cd30 O38 2.223 . S
Cd30 O40 2.297 . S
Cd30 O41 2.439 . S
O31 Cd30 2.240 . S
O31 C36 1.279 . S
O32 Cd29 2.297 . S
O32 C34 1.247 . S
O33 Cd29 2.439 . S
O33 C34 1.208 . S
C34 O32 1.247 . S
C34 O33 1.208 . S
C35 O40 1.247 . S
C35 O41 1.208 . S
C36 O28 1.315 . S
C36 O31 1.279 . S
C37 O38 1.315 . S
C37 O39 1.279 . S
O38 Cd30 2.223 . S
O38 C37 1.315 . S
O39 Cd29 2.240 . S
O39 C37 1.279 . S
O40 Cd30 2.297 . S
O40 C35 1.247 . S
O41 Cd30 2.439 . S
O41 C35 1.208 . S
O42 Cd43 2.223 . S
O42 C50 1.315 . S
Cd43 O42 2.223 . S
Cd43 O46 2.297 . S
Cd43 O47 2.439 . S
Cd43 O53 2.240 . S
Cd44 O45 2.240 . S
Cd44 O52 2.223 . S
Cd44 O54 2.297 . S
Cd44 O55 2.439 . S
O45 Cd44 2.240 . S
O45 C50 1.279 . S
O46 Cd43 2.297 . S
O46 C48 1.247 . S
O47 Cd43 2.439 . S
O47 C48 1.208 . S
C48 O46 1.247 . S
C48 O47 1.208 . S
C49 O54 1.247 . S
C49 O55 1.208 . S
C50 O42 1.315 . S
C50 O45 1.279 . S
C51 O52 1.315 . S
C51 O53 1.279 . S
O52 Cd44 2.223 . S
O52 C51 1.315 . S
O53 Cd43 2.240 . S
O53 C51 1.279 . S
O54 Cd44 2.297 . S
O54 C49 1.247 . S
O55 Cd44 2.439 . S
O55 C49 1.208 . S
O56 Cd57 2.223 . S
O56 C64 1.315 . S
Cd57 O56 2.223 . S
Cd57 O60 2.297 1_455 S
Cd57 O61 2.439 1_455 S
Cd57 O67 2.240 . S
Cd58 O59 2.240 . S
Cd58 O66 2.223 . S
Cd58 O68 2.297 . S
Cd58 O69 2.439 . S
O59 Cd58 2.240 . S
O59 C64 1.279 . S
O60 Cd57 2.297 1_655 S
O60 C62 1.247 . S
O61 Cd57 2.439 1_655 S
O61 C62 1.208 . S
C62 O60 1.247 . S
C62 O61 1.208 . S
C63 O68 1.247 . S
C63 O69 1.208 . S
C64 O56 1.315 . S
C64 O59 1.279 . S
C65 O66 1.315 . S
C65 O67 1.279 . S
O66 Cd58 2.223 . S
O66 C65 1.315 . S
O67 Cd57 2.240 . S
O67 C65 1.279 . S
O68 Cd58 2.297 . S
O68 C63 1.247 . S
O69 Cd58 2.439 . S
O69 C63 1.208 . S
O70 Cd71 2.223 . S
O70 C78 1.315 . S
Cd71 O70 2.223 . S
Cd71 O74 2.297 . S
Cd71 O75 2.439 . S
Cd71 O81 2.240 . S
Cd72 O73 2.240 . S
Cd72 O80 2.223 . S
Cd72 O82 2.297 . S
Cd72 O83 2.439 . S
O73 Cd72 2.240 . S
O73 C78 1.279 . S
O74 Cd71 2.297 . S
O74 C76 1.247 . S
O75 Cd71 2.439 . S
O75 C76 1.208 . S
C76 O74 1.247 . S
C76 O75 1.208 . S
C77 O82 1.247 . S
C77 O83 1.208 . S
C78 O70 1.315 . S
C78 O73 1.279 . S
C79 O80 1.315 . S
C79 O81 1.279 . S
O80 Cd72 2.223 . S
O80 C79 1.315 . S
O81 Cd71 2.240 . S
O81 C79 1.279 . S
O82 Cd72 2.297 . S
O82 C77 1.247 . S
O83 Cd72 2.439 . S
O83 C77 1.208 . S
O84 Cd85 2.223 . S
O84 C92 1.315 . S
Cd85 O84 2.223 . S
Cd85 O88 2.297 . S
Cd85 O89 2.439 . S
Cd85 O95 2.240 . S
Cd86 O87 2.240 . S
Cd86 O94 2.223 . S
Cd86 O96 2.297 . S
Cd86 O97 2.439 . S
O87 Cd86 2.240 . S
O87 C92 1.279 . S
O88 Cd85 2.297 . S
O88 C90 1.247 . S
O89 Cd85 2.439 . S
O89 C90 1.208 . S
C90 O88 1.247 . S
C90 O89 1.208 . S
C91 O96 1.247 . S
C91 O97 1.208 . S
C92 O84 1.315 . S
C92 O87 1.279 . S
C93 O94 1.315 . S
C93 O95 1.279 . S
O94 Cd86 2.223 . S
O94 C93 1.315 . S
O95 Cd85 2.240 . S
O95 C93 1.279 . S
O96 Cd86 2.297 . S
O96 C91 1.247 . S
O97 Cd86 2.439 . S
O97 C91 1.208 . S
O98 Cd99 2.223 1_655 S
O98 C106 1.315 . S
Cd99 O98 2.223 1_455 S
Cd99 O102 2.297 . S
Cd99 O103 2.439 . S
Cd99 O109 2.240 1_455 S
Cd100 O101 2.240 1_655 S
Cd100 O108 2.223 . S
Cd100 O110 2.297 . S
Cd100 O111 2.439 1_655 S
O101 Cd100 2.240 1_455 S
O101 C106 1.279 1_455 S
O102 Cd99 2.297 . S
O102 C104 1.247 . S
O103 Cd99 2.439 . S
O103 C104 1.208 . S
C104 O102 1.247 . S
C104 O103 1.208 . S
C105 O110 1.247 . S
C105 O111 1.208 1_655 S
C106 O98 1.315 . S
C106 O101 1.279 1_655 S
C107 O108 1.315 . S
C107 O109 1.279 . S
O108 Cd100 2.223 . S
O108 C107 1.315 . S
O109 Cd99 2.240 1_655 S
O109 C107 1.279 . S
O110 Cd100 2.297 . S
O110 C105 1.247 . S
O111 Cd100 2.439 1_455 S
O111 C105 1.208 1_455 S
O112 Cd113 2.223 . S
O112 C120 1.315 . S
Cd113 O112 2.223 . S
Cd113 O116 2.297 . S
Cd113 O117 2.439 . S
Cd113 O123 2.240 1_545 S
Cd114 O115 2.240 . S
Cd114 O122 2.223 1_545 S
Cd114 O124 2.297 . S
Cd114 O125 2.439 . S
O115 Cd114 2.240 . S
O115 C120 1.279 . S
O116 Cd113 2.297 . S
O116 C118 1.247 . S
O117 Cd113 2.439 . S
O117 C118 1.208 . S
C118 O116 1.247 . S
C118 O117 1.208 . S
C119 O124 1.247 . S
C119 O125 1.208 . S
C120 O112 1.315 . S
C120 O115 1.279 . S
C121 O122 1.315 . S
C121 O123 1.279 . S
O122 Cd114 2.223 1_565 S
O122 C121 1.315 . S
O123 Cd113 2.240 1_565 S
O123 C121 1.279 . S
O124 Cd114 2.297 . S
O124 C119 1.247 . S
O125 Cd114 2.439 . S
O125 C119 1.208 . S
O126 Cd127 2.223 . S
O126 C134 1.315 . S
Cd127 O126 2.223 . S
Cd127 O130 2.297 . S
Cd127 O131 2.439 . S
Cd127 O137 2.240 . S
Cd128 O129 2.240 . S
Cd128 O136 2.223 . S
Cd128 O138 2.297 . S
Cd128 O139 2.439 . S
O129 Cd128 2.240 . S
O129 C134 1.279 . S
O130 Cd127 2.297 . S
O130 C132 1.247 . S
O131 Cd127 2.439 . S
O131 C132 1.208 . S
C132 O130 1.247 . S
C132 O131 1.208 . S
C133 O138 1.247 . S
C133 O139 1.208 . S
C134 O126 1.315 . S
C134 O129 1.279 . S
C135 O136 1.315 . S
C135 O137 1.279 . S
O136 Cd128 2.223 . S
O136 C135 1.315 . S
O137 Cd127 2.240 . S
O137 C135 1.279 . S
O138 Cd128 2.297 . S
O138 C133 1.247 . S
O139 Cd128 2.439 . S
O139 C133 1.208 . S
O140 Cd141 2.223 . S
O140 C148 1.315 . S
Cd141 O140 2.223 . S
Cd141 O144 2.297 1_545 S
Cd141 O145 2.439 1_545 S
Cd141 O151 2.240 . S
Cd142 O143 2.240 . S
Cd142 O150 2.223 . S
Cd142 O152 2.297 . S
Cd142 O153 2.439 . S
O143 Cd142 2.240 . S
O143 C148 1.279 . S
O144 Cd141 2.297 1_565 S
O144 C146 1.247 . S
O145 Cd141 2.439 1_565 S
O145 C146 1.208 . S
C146 O144 1.247 . S
C146 O145 1.208 . S
C147 O152 1.247 . S
C147 O153 1.208 . S
C148 O140 1.315 . S
C148 O143 1.279 . S
C149 O150 1.315 . S
C149 O151 1.279 . S
O150 Cd142 2.223 . S
O150 C149 1.315 . S
O151 Cd141 2.240 . S
O151 C149 1.279 . S
O152 Cd142 2.297 . S
O152 C147 1.247 . S
O153 Cd142 2.439 . S
O153 C147 1.208 . S
O154 Cd155 2.223 . S
O154 C162 1.315 . S
Cd155 O154 2.223 . S
Cd155 O158 2.297 . S
Cd155 O159 2.439 1_554 S
Cd155 O165 2.240 1_554 S
Cd156 O157 2.240 1_556 S
Cd156 O164 2.223 1_556 S
Cd156 O166 2.297 . S
Cd156 O167 2.439 . S
O157 Cd156 2.240 1_554 S
O157 C162 1.279 . S
O158 Cd155 2.297 . S
O158 C160 1.247 . S
O159 Cd155 2.439 1_556 S
O159 C160 1.208 1_556 S
C160 O158 1.247 . S
C160 O159 1.208 1_554 S
C161 O166 1.247 . S
C161 O167 1.208 . S
C162 O154 1.315 . S
C162 O157 1.279 . S
C163 O164 1.315 . S
C163 O165 1.279 1_554 S
O164 Cd156 2.223 1_554 S
O164 C163 1.315 . S
O165 Cd155 2.240 1_556 S
O165 C163 1.279 1_556 S
O166 Cd156 2.297 . S
O166 C161 1.247 . S
O167 Cd156 2.439 . S
O167 C161 1.208 . S
O168 Cd169 2.223 . S
O168 C176 1.315 . S
Cd169 O168 2.223 . S
Cd169 O172 2.297 . S
Cd169 O173 2.439 . S
Cd169 O179 2.240 . S
Cd170 O171 2.240 . S
Cd170 O178 2.223 . S
Cd170 O180 2.297 1_554 S
Cd170 O181 2.439 1_554 S
O171 Cd170 2.240 . S
O171 C176 1.279 . S
O172 Cd169 2.297 . S
O172 C174 1.247 . S
O173 Cd169 2.439 . S
O173 C174 1.208 . S
C174 O172 1.247 . S
C174 O173 1.208 . S
C175 O180 1.247 . S
C175 O181 1.208 . S
C176 O168 1.315 . S
C176 O171 1.279 . S
C177 O178 1.315 . S
C177 O179 1.279 . S
O178 Cd170 2.223 . S
O178 C177 1.315 . S
O179 Cd169 2.240 . S
O179 C177 1.279 . S
O180 Cd170 2.297 1_556 S
O180 C175 1.247 . S
O181 Cd170 2.439 1_556 S
O181 C175 1.208 . S
O182 Cd183 2.223 . S
O182 C190 1.315 . S
Cd183 O182 2.223 . S
Cd183 O186 2.297 . S
Cd183 O187 2.439 . S
Cd183 O193 2.240 . S
Cd184 O185 2.240 . S
Cd184 O192 2.223 . S
Cd184 O194 2.297 1_554 S
Cd184 O195 2.439 1_554 S
O185 Cd184 2.240 . S
O185 C190 1.279 . S
O186 Cd183 2.297 . S
O186 C188 1.247 . S
O187 Cd183 2.439 . S
O187 C188 1.208 . S
C188 O186 1.247 . S
C188 O187 1.208 . S
C189 O194 1.247 . S
C189 O195 1.208 . S
C190 O182 1.315 . S
C190 O185 1.279 . S
C191 O192 1.315 . S
C191 O193 1.279 . S
O192 Cd184 2.223 . S
O192 C191 1.315 . S
O193 Cd183 2.240 . S
O193 C191 1.279 . S
O194 Cd184 2.297 1_556 S
O194 C189 1.247 . S
O195 Cd184 2.439 1_556 S
O195 C189 1.208 . S
O196 Cd197 2.223 . S
O196 C204 1.315 . S
Cd197 O196 2.223 . S
Cd197 O200 2.297 . S
Cd197 O201 2.439 . S
Cd197 O207 2.240 . S
Cd198 O199 2.240 . S
Cd198 O206 2.223 . S
Cd198 O208 2.297 . S
Cd198 O209 2.439 . S
O199 Cd198 2.240 . S
O199 C204 1.279 . S
O200 Cd197 2.297 . S
O200 C202 1.247 . S
O201 Cd197 2.439 . S
O201 C202 1.208 . S
C202 O200 1.247 . S
C202 O201 1.208 . S
C203 O208 1.247 . S
C203 O209 1.208 . S
C204 O196 1.315 . S
C204 O199 1.279 . S
C205 O206 1.315 . S
C205 O207 1.279 . S
O206 Cd198 2.223 . S
O206 C205 1.315 . S
O207 Cd197 2.240 . S
O207 C205 1.279 . S
O208 Cd198 2.297 . S
O208 C203 1.247 . S
O209 Cd198 2.439 . S
O209 C203 1.208 . S
O210 Cd211 2.223 . S
O210 C218 1.315 . S
Cd211 O210 2.223 . S
Cd211 O214 2.297 . S
Cd211 O215 2.439 . S
Cd211 O221 2.240 . S
Cd212 O213 2.240 . S
Cd212 O220 2.223 . S
Cd212 O222 2.297 . S
Cd212 O223 2.439 . S
O213 Cd212 2.240 . S
O213 C218 1.279 . S
O214 Cd211 2.297 . S
O214 C216 1.247 . S
O215 Cd211 2.439 . S
O215 C216 1.208 . S
C216 O214 1.247 . S
C216 O215 1.208 . S
C217 O222 1.247 . S
C217 O223 1.208 . S
C218 O210 1.315 . S
C218 O213 1.279 . S
C219 O220 1.315 . S
C219 O221 1.279 . S
O220 Cd212 2.223 . S
O220 C219 1.315 . S
O221 Cd211 2.240 . S
O221 C219 1.279 . S
O222 Cd212 2.297 . S
O222 C217 1.247 . S
O223 Cd212 2.439 . S
O223 C217 1.208 . S
O224 Cd225 2.223 1_565 S
O224 C232 1.315 . S
Cd225 O224 2.223 1_545 S
Cd225 O228 2.297 . S
Cd225 O229 2.439 . S
Cd225 O235 2.240 1_545 S
Cd226 O227 2.240 1_565 S
Cd226 O234 2.223 . S
Cd226 O236 2.297 . S
Cd226 O237 2.439 1_565 S
O227 Cd226 2.240 1_545 S
O227 C232 1.277 1_545 S
O228 Cd225 2.297 . S
O228 C230 1.247 . S
O229 Cd225 2.439 . S
O229 C230 1.208 . S
C230 O228 1.247 . S
C230 O229 1.208 . S
C231 O236 1.225 1_545 S
C231 O237 1.230 . S
C232 O224 1.315 . S
C232 O227 1.277 1_565 S
C233 O234 1.315 . S
C233 O235 1.279 . S
O234 Cd226 2.223 . S
O234 C233 1.315 . S
O235 Cd225 2.240 1_565 S
O235 C233 1.279 . S
O236 Cd226 2.297 . S
O236 C231 1.225 1_565 S
O237 Cd226 2.439 1_545 S
O237 C231 1.230 . S
O238 Cd239 2.223 . S
O238 C246 1.315 . S
Cd239 O238 2.223 . S
Cd239 O242 2.297 . S
Cd239 O243 2.439 . S
Cd239 O249 2.240 . S
Cd240 O241 2.240 . S
Cd240 O248 2.223 . S
Cd240 O250 2.297 . S
Cd240 O251 2.439 . S
O241 Cd240 2.240 . S
O241 C246 1.279 . S
O242 Cd239 2.297 . S
O242 C244 1.247 . S
O243 Cd239 2.439 . S
O243 C244 1.208 . S
C244 O242 1.247 . S
C244 O243 1.208 . S
C245 O250 1.247 . S
C245 O251 1.208 . S
C246 O238 1.315 . S
C246 O241 1.279 . S
C247 O248 1.315 . S
C247 O249 1.279 . S
O248 Cd240 2.223 . S
O248 C247 1.315 . S
O249 Cd239 2.240 . S
O249 C247 1.279 . S
O250 Cd240 2.297 . S
O250 C245 1.247 . S
O251 Cd240 2.439 . S
O251 C245 1.208 . S
O252 Cd253 2.223 . S
O252 C260 1.315 . S
Cd253 O252 2.223 . S
Cd253 O256 2.297 . S
Cd253 O257 2.439 . S
Cd253 O263 2.240 . S
Cd254 O255 2.240 . S
Cd254 O262 2.223 . S
Cd254 O264 2.297 . S
Cd254 O265 2.439 . S
O255 Cd254 2.240 . S
O255 C260 1.279 . S
O256 Cd253 2.297 . S
O256 C258 1.247 . S
O257 Cd253 2.439 . S
O257 C258 1.208 . S
C258 O256 1.247 . S
C258 O257 1.208 . S
C259 O264 1.247 . S
C259 O265 1.208 . S
C260 O252 1.315 . S
C260 O255 1.279 . S
C261 O262 1.315 . S
C261 O263 1.279 . S
O262 Cd254 2.223 . S
O262 C261 1.315 . S
O263 Cd253 2.240 . S
O263 C261 1.279 . S
O264 Cd254 2.297 . S
O264 C259 1.247 . S
O265 Cd254 2.439 . S
O265 C259 1.208 . S
O266 Cd267 2.225 . S
O266 C274 1.315 . S
Cd267 O266 2.225 . S
Cd267 O270 2.294 1_545 S
Cd267 O271 2.435 1_545 S
Cd267 O277 2.243 . S
Cd268 O269 2.240 1_545 S
Cd268 O276 2.223 . S
Cd268 O278 2.297 . S
Cd268 O279 2.439 1_545 S
O269 Cd268 2.240 1_565 S
O269 C274 1.279 1_565 S
O270 Cd267 2.294 1_565 S
O270 C272 1.247 . S
O271 Cd267 2.435 1_565 S
O271 C272 1.208 . S
C272 O270 1.247 . S
C272 O271 1.208 . S
C273 O278 1.247 . S
C273 O279 1.208 1_545 S
C274 O266 1.315 . S
C274 O269 1.279 1_545 S
C275 O276 1.315 . S
C275 O277 1.279 . S
O276 Cd268 2.223 . S
O276 C275 1.315 . S
O277 Cd267 2.243 . S
O277 C275 1.279 . S
O278 Cd268 2.297 . S
O278 C273 1.247 . S
O279 Cd268 2.439 1_565 S
O279 C273 1.208 1_565 S
O280 Cd281 2.223 . S
O280 C288 1.315 . S
Cd281 O280 2.223 . S
Cd281 O284 2.297 . S
Cd281 O285 2.439 1_554 S
Cd281 O291 2.240 1_554 S
Cd282 O283 2.240 1_556 S
Cd282 O290 2.223 1_556 S
Cd282 O292 2.297 . S
Cd282 O293 2.439 . S
O283 Cd282 2.240 1_554 S
O283 C288 1.279 . S
O284 Cd281 2.297 . S
O284 C286 1.247 . S
O285 Cd281 2.439 1_556 S
O285 C286 1.208 1_556 S
C286 O284 1.247 . S
C286 O285 1.208 1_554 S
C287 O292 1.247 . S
C287 O293 1.208 . S
C288 O280 1.315 . S
C288 O283 1.279 . S
C289 O290 1.315 1_556 S
C289 O291 1.279 . S
O290 Cd282 2.223 1_554 S
O290 C289 1.315 1_554 S
O291 Cd281 2.240 1_556 S
O291 C289 1.279 . S
O292 Cd282 2.297 . S
O292 C287 1.247 . S
O293 Cd282 2.439 . S
O293 C287 1.208 . S
O294 Cd295 2.223 . S
O294 C302 1.315 . S
Cd295 O294 2.223 . S
Cd295 O298 2.297 . S
Cd295 O299 2.439 . S
Cd295 O305 2.240 . S
Cd296 O297 2.240 . S
Cd296 O304 2.223 . S
Cd296 O306 2.297 . S
Cd296 O307 2.439 . S
O297 Cd296 2.240 . S
O297 C302 1.279 . S
O298 Cd295 2.297 . S
O298 C300 1.247 . S
O299 Cd295 2.439 . S
O299 C300 1.208 . S
C300 O298 1.247 . S
C300 O299 1.208 . S
C301 O306 1.247 . S
C301 O307 1.208 . S
C302 O294 1.315 . S
C302 O297 1.279 . S
C303 O304 1.315 . S
C303 O305 1.279 . S
O304 Cd296 2.223 . S
O304 C303 1.315 . S
O305 Cd295 2.240 . S
O305 C303 1.279 . S
O306 Cd296 2.297 . S
O306 C301 1.247 . S
O307 Cd296 2.439 . S
O307 C301 1.208 . S
O308 Cd309 2.223 . S
O308 C316 1.315 . S
Cd309 O308 2.223 . S
Cd309 O312 2.297 . S
Cd309 O313 2.439 . S
Cd309 O319 2.240 . S
Cd310 O311 2.240 . S
Cd310 O318 2.223 . S
Cd310 O320 2.297 . S
Cd310 O321 2.439 . S
O311 Cd310 2.240 . S
O311 C316 1.279 . S
O312 Cd309 2.297 . S
O312 C314 1.247 . S
O313 Cd309 2.439 . S
O313 C314 1.208 . S
C314 O312 1.247 . S
C314 O313 1.208 . S
C315 O320 1.247 . S
C315 O321 1.208 . S
C316 O308 1.315 . S
C316 O311 1.279 . S
C317 O318 1.315 . S
C317 O319 1.279 . S
O318 Cd310 2.223 . S
O318 C317 1.315 . S
O319 Cd309 2.240 . S
O319 C317 1.279 . S
O320 Cd310 2.297 . S
O320 C315 1.247 . S
O321 Cd310 2.439 . S
O321 C315 1.208 . S
O322 Cd323 2.223 . S
O322 C330 1.315 . S
Cd323 O322 2.223 . S
Cd323 O326 2.297 . S
Cd323 O327 2.439 . S
Cd323 O333 2.240 . S
Cd324 O325 2.240 . S
Cd324 O332 2.223 . S
Cd324 O334 2.297 . S
Cd324 O335 2.439 . S
O325 Cd324 2.240 . S
O325 C330 1.279 . S
O326 Cd323 2.297 . S
O326 C328 1.247 . S
O327 Cd323 2.439 . S
O327 C328 1.208 . S
C328 O326 1.247 . S
C328 O327 1.208 . S
C329 O334 1.247 . S
C329 O335 1.208 . S
C330 O322 1.315 . S
C330 O325 1.279 . S
C331 O332 1.315 . S
C331 O333 1.279 . S
O332 Cd324 2.223 . S
O332 C331 1.315 . S
O333 Cd323 2.240 . S
O333 C331 1.279 . S
O334 Cd324 2.297 . S
O334 C329 1.247 . S
O335 Cd324 2.439 . S
O335 C329 1.208 . S
Zn336 O342 1.969 1_565 S
Zn336 O343 1.965 1_565 S
Zn336 O347 2.024 . S
Zn336 O352 1.969 1_565 S
Zn337 O344 1.969 1_654 S
Zn337 O350 1.969 1_554 S
Zn337 O351 1.965 . S
Zn337 O353 2.024 1_655 S
C338 O339 1.229 . S
C338 O347 1.058 . S
O339 C338 1.229 . S
C340 O341 1.229 1_554 S
C340 O353 1.058 . S
O341 C340 1.229 1_556 S
O342 Zn336 1.969 1_545 S
O342 C345 1.267 1_545 S
O343 Zn336 1.965 1_545 S
O343 C354 1.260 1_554 S
O344 Zn337 1.969 1_456 S
O344 C354 1.258 . S
C345 O342 1.267 1_565 S
C345 O346 1.228 . S
O346 C345 1.228 . S
O347 Zn336 2.024 . S
O347 C338 1.058 . S
C348 O349 1.228 . S
C348 O350 1.267 1_554 S
O349 C348 1.228 . S
O350 Zn337 1.969 1_556 S
O350 C348 1.267 1_556 S
O351 Zn337 1.965 . S
O351 C355 1.260 1_655 S
O352 Zn336 1.969 1_545 S
O352 C355 1.258 . S
O353 Zn337 2.024 1_455 S
O353 C340 1.058 . S
C354 O343 1.260 1_556 S
C354 O344 1.258 . S
C355 O351 1.260 1_455 S
C355 O352 1.258 . S
Zn356 O362 1.969 . S
Zn356 O363 1.965 . S
Zn356 O367 2.024 . S
Zn356 O372 1.969 . S
Zn357 O364 1.969 . S
Zn357 O370 1.969 . S
Zn357 O371 1.965 . S
Zn357 O373 2.024 . S
C358 O359 1.229 . S
C358 O367 1.058 . S
O359 C358 1.229 . S
C360 O361 1.229 . S
C360 O373 1.058 . S
O361 C360 1.229 . S
O362 Zn356 1.969 . S
O362 C365 1.267 . S
O363 Zn356 1.965 . S
O363 C374 1.260 . S
O364 Zn357 1.969 . S
O364 C374 1.258 . S
C365 O362 1.267 . S
C365 O366 1.228 . S
O366 C365 1.228 . S
O367 Zn356 2.024 . S
O367 C358 1.058 . S
C368 O369 1.228 . S
C368 O370 1.267 . S
O369 C368 1.228 . S
O370 Zn357 1.969 . S
O370 C368 1.267 . S
O371 Zn357 1.965 . S
O371 C375 1.260 . S
O372 Zn356 1.969 . S
O372 C375 1.258 . S
O373 Zn357 2.024 . S
O373 C360 1.058 . S
C374 O363 1.260 . S
C374 O364 1.258 . S
C375 O371 1.260 . S
C375 O372 1.258 . S
Zn376 O382 1.969 . S
Zn376 O383 1.965 . S
Zn376 O387 2.024 . S
Zn376 O392 1.969 . S
Zn377 O384 1.969 . S
Zn377 O390 1.969 . S
Zn377 O391 1.965 1_565 S
Zn377 O393 2.024 . S
C378 O379 1.229 . S
C378 O387 1.058 . S
O379 C378 1.229 . S
C380 O381 1.229 . S
C380 O393 1.058 . S
O381 C380 1.229 . S
O382 Zn376 1.969 . S
O382 C385 1.267 . S
O383 Zn376 1.965 . S
O383 C394 1.260 . S
O384 Zn377 1.969 . S
O384 C394 1.258 1_565 S
C385 O382 1.267 . S
C385 O386 1.228 . S
O386 C385 1.228 . S
O387 Zn376 2.024 . S
O387 C378 1.058 . S
C388 O389 1.228 . S
C388 O390 1.267 . S
O389 C388 1.228 . S
O390 Zn377 1.969 . S
O390 C388 1.267 . S
O391 Zn377 1.965 1_545 S
O391 C395 1.260 . S
O392 Zn376 1.969 . S
O392 C395 1.258 . S
O393 Zn377 2.024 . S
O393 C380 1.058 . S
C394 O383 1.260 . S
C394 O384 1.258 1_545 S
C395 O391 1.260 . S
C395 O392 1.258 . S
Zn396 O402 1.969 . S
Zn396 O403 1.965 . S
Zn396 O407 2.024 . S
Zn396 O412 1.969 . S
Zn397 O404 1.969 . S
Zn397 O410 1.969 . S
Zn397 O411 1.965 . S
Zn397 O413 2.024 . S
C398 O399 1.229 . S
C398 O407 1.058 . S
O399 C398 1.229 . S
C400 O401 1.229 . S
C400 O413 1.058 . S
O401 C400 1.229 . S
O402 Zn396 1.969 . S
O402 C405 1.267 . S
O403 Zn396 1.965 . S
O403 C414 1.260 . S
O404 Zn397 1.969 . S
O404 C414 1.258 . S
C405 O402 1.267 . S
C405 O406 1.228 . S
O406 C405 1.228 . S
O407 Zn396 2.024 . S
O407 C398 1.058 . S
C408 O409 1.228 . S
C408 O410 1.267 . S
O409 C408 1.228 . S
O410 Zn397 1.969 . S
O410 C408 1.267 . S
O411 Zn397 1.965 . S
O411 C415 1.260 . S
O412 Zn396 1.969 . S
O412 C415 1.258 . S
O413 Zn397 2.024 . S
O413 C400 1.058 . S
C414 O403 1.260 . S
C414 O404 1.258 . S
C415 O411 1.260 . S
C415 O412 1.258 . S
Zn416 O422 1.969 . S
Zn416 O423 1.965 . S
Zn416 O427 2.024 1_565 S
Zn416 O432 1.969 1_565 S
Zn417 O424 1.969 1_455 S
Zn417 O430 1.969 . S
Zn417 O431 1.965 . S
Zn417 O433 2.024 . S
C418 O419 1.229 1_545 S
C418 O427 1.058 . S
O419 C418 1.229 1_565 S
C420 O421 1.229 . S
C420 O433 1.058 1_655 S
O421 C420 1.229 . S
O422 Zn416 1.969 . S
O422 C425 1.267 . S
O423 Zn416 1.965 . S
O423 C434 1.260 1_455 S
O424 Zn417 1.969 1_655 S
O424 C434 1.258 1_545 S
C425 O422 1.267 . S
C425 O426 1.228 . S
O426 C425 1.228 . S
O427 Zn416 2.024 1_545 S
O427 C418 1.058 . S
C428 O429 1.228 . S
C428 O430 1.267 . S
O429 C428 1.228 . S
O430 Zn417 1.969 . S
O430 C428 1.267 . S
O431 Zn417 1.965 . S
O431 C435 1.260 . S
O432 Zn416 1.969 1_545 S
O432 C435 1.258 . S
O433 Zn417 2.024 . S
O433 C420 1.058 1_455 S
C434 O423 1.260 1_655 S
C434 O424 1.258 1_565 S
C435 O431 1.260 . S
C435 O432 1.258 . S
Zn436 O442 1.969 . S
Zn436 O443 1.965 . S
Zn436 O447 2.024 . S
Zn436 O452 1.969 . S
Zn437 O444 1.969 . S
Zn437 O450 1.969 . S
Zn437 O451 1.965 . S
Zn437 O453 2.024 . S
C438 O439 1.229 . S
C438 O447 1.058 . S
O439 C438 1.229 . S
C440 O441 1.229 . S
C440 O453 1.058 . S
O441 C440 1.229 . S
O442 Zn436 1.969 . S
O442 C445 1.267 . S
O443 Zn436 1.965 . S
O443 C454 1.260 . S
O444 Zn437 1.969 . S
O444 C454 1.258 . S
C445 O442 1.267 . S
C445 O446 1.228 . S
O446 C445 1.228 . S
O447 Zn436 2.024 . S
O447 C438 1.058 . S
C448 O449 1.228 . S
C448 O450 1.267 . S
O449 C448 1.228 . S
O450 Zn437 1.969 . S
O450 C448 1.267 . S
O451 Zn437 1.965 . S
O451 C455 1.260 . S
O452 Zn436 1.969 . S
O452 C455 1.258 . S
O453 Zn437 2.024 . S
O453 C440 1.058 . S
C454 O443 1.260 . S
C454 O444 1.258 . S
C455 O451 1.260 . S
C455 O452 1.258 . S
Zn456 O462 1.965 . S
Zn456 O463 1.968 1_545 S
Zn456 O467 2.026 1_556 S
Zn456 O472 1.971 1_556 S
Zn457 O464 1.969 . S
Zn457 O470 1.969 . S
Zn457 O471 1.965 1_565 S
Zn457 O473 2.024 . S
C458 O459 1.229 . S
C458 O467 1.058 . S
O459 C458 1.229 . S
C460 O461 1.229 . S
C460 O473 1.058 . S
O461 C460 1.229 . S
O462 Zn456 1.965 . S
O462 C465 1.267 . S
O463 Zn456 1.968 1_565 S
O463 C474 1.250 1_556 S
O464 Zn457 1.969 . S
O464 C474 1.258 . S
C465 O462 1.267 . S
C465 O466 1.228 . S
O466 C465 1.228 . S
O467 Zn456 2.026 1_554 S
O467 C458 1.058 . S
C468 O469 1.228 1_565 S
C468 O470 1.267 . S
O469 C468 1.228 1_545 S
O470 Zn457 1.969 . S
O470 C468 1.267 . S
O471 Zn457 1.965 1_545 S
O471 C475 1.260 . S
O472 Zn456 1.971 1_554 S
O472 C475 1.258 . S
O473 Zn457 2.024 . S
O473 C460 1.058 . S
C474 O463 1.250 1_554 S
C474 O464 1.258 . S
C475 O471 1.260 . S
C475 O472 1.258 . S
Zn476 O482 1.969 . S
Zn476 O483 1.965 . S
Zn476 O487 2.024 . S
Zn476 O492 1.969 . S
Zn477 O484 1.969 . S
Zn477 O490 1.969 . S
Zn477 O491 1.965 . S
Zn477 O493 2.024 . S
C478 O479 1.229 . S
C478 O487 1.058 . S
O479 C478 1.229 . S
C480 O481 1.229 . S
C480 O493 1.058 . S
O481 C480 1.229 . S
O482 Zn476 1.969 . S
O482 C485 1.267 . S
O483 Zn476 1.965 . S
O483 C494 1.260 . S
O484 Zn477 1.969 . S
O484 C494 1.258 . S
C485 O482 1.267 . S
C485 O486 1.228 . S
O486 C485 1.228 . S
O487 Zn476 2.024 . S
O487 C478 1.058 . S
C488 O489 1.228 . S
C488 O490 1.267 . S
O489 C488 1.228 . S
O490 Zn477 1.969 . S
O490 C488 1.267 . S
O491 Zn477 1.965 . S
O491 C495 1.260 . S
O492 Zn476 1.969 . S
O492 C495 1.258 . S
O493 Zn477 2.024 . S
O493 C480 1.058 . S
C494 O483 1.260 . S
C494 O484 1.258 . S
C495 O491 1.260 . S
C495 O492 1.258 . S
Zn496 O502 1.969 . S
Zn496 O503 1.965 . S
Zn496 O507 2.024 . S
Zn496 O512 1.969 . S
Zn497 O504 1.969 1_556 S
Zn497 O510 1.969 1_556 S
Zn497 O511 1.965 1_556 S
Zn497 O513 2.024 . S
C498 O499 1.229 . S
C498 O507 1.058 . S
O499 C498 1.229 . S
C500 O501 1.229 . S
C500 O513 1.058 . S
O501 C500 1.229 . S
O502 Zn496 1.969 . S
O502 C505 1.267 . S
O503 Zn496 1.965 . S
O503 C514 1.260 . S
O504 Zn497 1.969 1_554 S
O504 C514 1.258 . S
C505 O502 1.267 . S
C505 O506 1.228 . S
O506 C505 1.228 . S
O507 Zn496 2.024 . S
O507 C498 1.058 . S
C508 O509 1.228 . S
C508 O510 1.267 1_556 S
O509 C508 1.228 . S
O510 Zn497 1.969 1_554 S
O510 C508 1.267 1_554 S
O511 Zn497 1.965 1_554 S
O511 C515 1.260 . S
O512 Zn496 1.969 . S
O512 C515 1.258 . S
O513 Zn497 2.024 . S
O513 C500 1.058 . S
C514 O503 1.260 . S
C514 O504 1.258 . S
C515 O511 1.260 . S
C515 O512 1.258 . S
Zn516 O522 1.969 . S
Zn516 O523 1.965 . S
Zn516 O527 2.024 . S
Zn516 O532 1.969 . S
Zn517 O524 1.969 . S
Zn517 O530 1.969 . S
Zn517 O531 1.965 . S
Zn517 O533 2.024 . S
C518 O519 1.229 . S
C518 O527 1.058 . S
O519 C518 1.229 . S
C520 O521 1.229 . S
C520 O533 1.058 . S
O521 C520 1.229 . S
O522 Zn516 1.969 . S
O522 C525 1.267 . S
O523 Zn516 1.965 . S
O523 C534 1.260 . S
O524 Zn517 1.969 . S
O524 C534 1.258 . S
C525 O522 1.267 . S
C525 O526 1.228 . S
O526 C525 1.228 . S
O527 Zn516 2.024 . S
O527 C518 1.058 . S
C528 O529 1.228 . S
C528 O530 1.267 . S
O529 C528 1.228 . S
O530 Zn517 1.969 . S
O530 C528 1.267 . S
O531 Zn517 1.965 . S
O531 C535 1.260 . S
O532 Zn516 1.969 . S
O532 C535 1.258 . S
O533 Zn517 2.024 . S
O533 C520 1.058 . S
C534 O523 1.260 . S
C534 O524 1.258 . S
C535 O531 1.260 . S
C535 O532 1.258 . S
Zn536 O542 1.969 . S
Zn536 O543 1.965 . S
Zn536 O547 2.024 . S
Zn536 O552 1.969 . S
Zn537 O544 1.969 . S
Zn537 O550 1.969 . S
Zn537 O551 1.965 1_655 S
Zn537 O553 2.024 . S
C538 O539 1.229 . S
C538 O547 1.058 . S
O539 C538 1.229 . S
C540 O541 1.229 . S
C540 O553 1.058 . S
O541 C540 1.229 . S
O542 Zn536 1.969 . S
O542 C545 1.267 . S
O543 Zn536 1.965 . S
O543 C554 1.260 . S
O544 Zn537 1.969 . S
O544 C554 1.258 1_655 S
C545 O542 1.267 . S
C545 O546 1.228 . S
O546 C545 1.228 . S
O547 Zn536 2.024 . S
O547 C538 1.058 . S
C548 O549 1.228 . S
C548 O550 1.267 . S
O549 C548 1.228 . S
O550 Zn537 1.969 . S
O550 C548 1.267 . S
O551 Zn537 1.965 1_455 S
O551 C555 1.260 . S
O552 Zn536 1.969 . S
O552 C555 1.258 . S
O553 Zn537 2.024 . S
O553 C540 1.058 . S
C554 O543 1.260 . S
C554 O544 1.258 1_455 S
C555 O551 1.260 . S
C555 O552 1.258 . S
Zn556 O562 1.969 . S
Zn556 O563 1.965 . S
Zn556 O567 2.024 . S
Zn556 O572 1.969 . S
Zn557 O564 1.969 . S
Zn557 O570 1.969 . S
Zn557 O571 1.965 . S
Zn557 O573 2.024 . S
C558 O559 1.229 . S
C558 O567 1.058 . S
O559 C558 1.229 . S
C560 O561 1.229 . S
C560 O573 1.058 . S
O561 C560 1.229 . S
O562 Zn556 1.969 . S
O562 C565 1.267 . S
O563 Zn556 1.965 . S
O563 C574 1.260 . S
O564 Zn557 1.969 . S
O564 C574 1.258 . S
C565 O562 1.267 . S
C565 O566 1.228 . S
O566 C565 1.228 . S
O567 Zn556 2.024 . S
O567 C558 1.058 . S
C568 O569 1.228 . S
C568 O570 1.267 . S
O569 C568 1.228 . S
O570 Zn557 1.969 . S
O570 C568 1.267 . S
O571 Zn557 1.965 . S
O571 C575 1.260 . S
O572 Zn556 1.969 . S
O572 C575 1.258 . S
O573 Zn557 2.024 . S
O573 C560 1.058 . S
C574 O563 1.260 . S
C574 O564 1.258 . S
C575 O571 1.260 . S
C575 O572 1.258 . S
Zn576 O582 1.969 . S
Zn576 O583 1.965 . S
Zn576 O587 2.024 . S
Zn576 O592 1.969 . S
Zn577 O584 1.969 . S
Zn577 O590 1.969 . S
Zn577 O591 1.965 . S
Zn577 O593 2.024 . S
C578 O579 1.229 . S
C578 O587 1.058 . S
O579 C578 1.229 . S
C580 O581 1.229 . S
C580 O593 1.058 . S
O581 C580 1.229 . S
O582 Zn576 1.969 . S
O582 C585 1.267 . S
O583 Zn576 1.965 . S
O583 C594 1.260 . S
O584 Zn577 1.969 . S
O584 C594 1.258 . S
C585 O582 1.267 . S
C585 O586 1.228 . S
O586 C585 1.228 . S
O587 Zn576 2.024 . S
O587 C578 1.058 . S
C588 O589 1.228 . S
C588 O590 1.267 . S
O589 C588 1.228 . S
O590 Zn577 1.969 . S
O590 C588 1.267 . S
O591 Zn577 1.965 . S
O591 C595 1.260 . S
O592 Zn576 1.969 . S
O592 C595 1.258 . S
O593 Zn577 2.024 . S
O593 C580 1.058 . S
C594 O583 1.260 . S
C594 O584 1.258 . S
C595 O591 1.260 . S
C595 O592 1.258 . S
Zn596 O602 1.969 . S
Zn596 O603 1.965 . S
Zn596 O607 2.024 . S
Zn596 O612 1.969 . S
Zn597 O604 1.969 . S
Zn597 O610 1.969 . S
Zn597 O611 1.965 . S
Zn597 O613 2.024 . S
C598 O599 1.229 . S
C598 O607 1.058 . S
O599 C598 1.229 . S
C600 O601 1.229 . S
C600 O613 1.058 . S
O601 C600 1.229 . S
O602 Zn596 1.969 . S
O602 C605 1.267 . S
O603 Zn596 1.965 . S
O603 C614 1.260 . S
O604 Zn597 1.969 . S
O604 C614 1.258 . S
C605 O602 1.267 . S
C605 O606 1.228 . S
O606 C605 1.228 . S
O607 Zn596 2.024 . S
O607 C598 1.058 . S
C608 O609 1.228 . S
C608 O610 1.267 . S
O609 C608 1.228 . S
O610 Zn597 1.969 . S
O610 C608 1.267 . S
O611 Zn597 1.965 . S
O611 C615 1.260 . S
O612 Zn596 1.969 . S
O612 C615 1.258 . S
O613 Zn597 2.024 . S
O613 C600 1.058 . S
C614 O603 1.260 . S
C614 O604 1.258 . S
C615 O611 1.260 . S
C615 O612 1.258 . S
Zn616 O622 1.969 . S
Zn616 O623 1.965 . S
Zn616 O627 2.024 . S
Zn616 O632 1.969 . S
Zn617 O624 1.969 . S
Zn617 O630 1.969 . S
Zn617 O631 1.965 . S
Zn617 O633 2.024 . S
C618 O619 1.229 . S
C618 O627 1.058 . S
O619 C618 1.229 . S
C620 O621 1.229 . S
C620 O633 1.058 . S
O621 C620 1.229 . S
O622 Zn616 1.969 . S
O622 C625 1.267 . S
O623 Zn616 1.965 . S
O623 C634 1.260 . S
O624 Zn617 1.969 . S
O624 C634 1.258 . S
C625 O622 1.267 . S
C625 O626 1.228 . S
O626 C625 1.228 . S
O627 Zn616 2.024 . S
O627 C618 1.058 . S
C628 O629 1.228 . S
C628 O630 1.267 . S
O629 C628 1.228 . S
O630 Zn617 1.969 . S
O630 C628 1.267 . S
O631 Zn617 1.965 . S
O631 C635 1.260 . S
O632 Zn616 1.969 . S
O632 C635 1.258 . S
O633 Zn617 2.024 . S
O633 C620 1.058 . S
C634 O623 1.260 . S
C634 O624 1.258 . S
C635 O631 1.260 . S
C635 O632 1.258 . S
Zn636 O642 1.969 . S
Zn636 O643 1.965 . S
Zn636 O647 2.024 1_655 S
Zn636 O652 1.969 1_655 S
Zn637 O644 1.969 1_554 S
Zn637 O650 1.969 . S
Zn637 O651 1.965 . S
Zn637 O653 2.024 . S
C638 O639 1.229 . S
C638 O647 1.058 . S
O639 C638 1.229 . S
C640 O641 1.229 1_554 S
C640 O653 1.058 . S
O641 C640 1.229 1_556 S
O642 Zn636 1.969 . S
O642 C645 1.267 . S
O643 Zn636 1.965 . S
O643 C654 1.260 1_654 S
O644 Zn637 1.969 1_556 S
O644 C654 1.258 . S
C645 O642 1.267 . S
C645 O646 1.228 . S
O646 C645 1.228 . S
O647 Zn636 2.024 1_455 S
O647 C638 1.058 . S
C648 O649 1.228 . S
C648 O650 1.267 . S
O649 C648 1.228 . S
O650 Zn637 1.969 . S
O650 C648 1.267 . S
O651 Zn637 1.965 . S
O651 C655 1.260 . S
O652 Zn636 1.969 1_455 S
O652 C655 1.258 . S
O653 Zn637 2.024 . S
O653 C640 1.058 . S
C654 O643 1.260 1_456 S
C654 O644 1.258 . S
C655 O651 1.260 . S
C655 O652 1.258 . S
C656 C657 1.387 . S
C656 H660 0.950 . S
C656 C665 1.390 . S
C657 C656 1.387 . S
C657 C659 1.387 1_655 S
H658 C665 0.950 1_554 S
C659 C657 1.387 1_455 S
C659 C661 1.390 . S
C659 H663 0.950 . S
H660 C656 0.950 . S
C661 C659 1.390 . S
C661 C662 1.387 . S
C661 H664 0.950 . S
C662 C661 1.387 . S
C662 C665 1.387 1_455 S
H663 C659 0.950 . S
H664 C661 0.950 . S
C665 C656 1.390 . S
C665 H658 0.950 1_556 S
C665 C662 1.387 1_655 S
C666 C667 1.387 . S
C666 H670 0.950 . S
C666 C675 1.390 . S
C667 C666 1.387 . S
C667 C669 1.387 . S
H668 C675 0.950 . S
C669 C667 1.387 . S
C669 C671 1.390 . S
C669 H673 0.950 . S
H670 C666 0.950 . S
C671 C669 1.390 . S
C671 C672 1.387 . S
C671 H674 0.950 . S
C672 C671 1.387 . S
C672 C675 1.387 . S
H673 C669 0.950 . S
H674 C671 0.950 . S
C675 C666 1.390 . S
C675 H668 0.950 . S
C675 C672 1.387 . S
C676 C677 1.387 . S
C676 H680 0.950 . S
C676 C685 1.390 . S
C677 C676 1.387 . S
C677 C679 1.387 . S
H678 C685 0.950 . S
C679 C677 1.387 . S
C679 C681 1.390 . S
C679 H683 0.950 . S
H680 C676 0.950 . S
C681 C679 1.390 . S
C681 C682 1.387 . S
C681 H684 0.950 . S
C682 C681 1.387 . S
C682 C685 1.387 . S
H683 C679 0.950 . S
H684 C681 0.950 . S
C685 C676 1.390 . S
C685 H678 0.950 . S
C685 C682 1.387 . S
C686 C687 1.387 . S
C686 H690 0.950 . S
C686 C695 1.390 . S
C687 C686 1.387 . S
C687 C689 1.387 . S
H688 C695 0.950 . S
C689 C687 1.387 . S
C689 C691 1.390 . S
C689 H693 0.950 . S
H690 C686 0.950 . S
C691 C689 1.390 . S
C691 C692 1.387 . S
C691 H694 0.950 . S
C692 C691 1.387 . S
C692 C695 1.387 . S
H693 C689 0.950 . S
H694 C691 0.950 . S
C695 C686 1.390 . S
C695 H688 0.950 . S
C695 C692 1.387 . S
C696 C697 1.387 . S
C696 H700 0.950 . S
C696 C705 1.390 . S
C697 C696 1.387 . S
C697 C699 1.390 1_455 S
H698 C705 0.950 . S
C699 C697 1.390 1_655 S
C699 C701 1.390 1_655 S
C699 H703 0.947 . S
H700 C696 0.950 . S
C701 C699 1.390 1_455 S
C701 C702 1.387 . S
C701 H704 0.950 1_455 S
C702 C701 1.387 . S
C702 C705 1.387 . S
H703 C699 0.947 . S
H704 C701 0.950 1_655 S
C705 C696 1.390 . S
C705 H698 0.950 . S
C705 C702 1.387 . S
C706 C707 1.387 . S
C706 H710 0.950 . S
C706 C715 1.390 . S
C707 C706 1.387 . S
C707 C709 1.387 . S
H708 C715 0.950 . S
C709 C707 1.387 . S
C709 C711 1.390 . S
C709 H713 0.950 . S
H710 C706 0.950 . S
C711 C709 1.390 . S
C711 C712 1.387 . S
C711 H714 0.950 . S
C712 C711 1.387 . S
C712 C715 1.387 . S
H713 C709 0.950 . S
H714 C711 0.950 . S
C715 C706 1.390 . S
C715 H708 0.950 . S
C715 C712 1.387 . S
C716 C717 1.387 . S
C716 H720 0.950 . S
C716 C725 1.390 . S
C717 C716 1.387 . S
C717 C719 1.387 . S
H718 C725 0.950 . S
C719 C717 1.387 . S
C719 C721 1.390 . S
C719 H723 0.950 . S
H720 C716 0.950 . S
C721 C719 1.390 . S
C721 C722 1.387 . S
C721 H724 0.950 . S
C722 C721 1.387 . S
C722 C725 1.387 . S
H723 C719 0.950 . S
H724 C721 0.950 . S
C725 C716 1.390 . S
C725 H718 0.950 . S
C725 C722 1.387 . S
C726 C727 1.387 . S
C726 H730 0.950 . S
C726 C735 1.390 . S
C727 C726 1.387 . S
C727 C729 1.387 . S
H728 C735 0.950 . S
C729 C727 1.387 . S
C729 C731 1.390 . S
C729 H733 0.950 . S
H730 C726 0.950 . S
C731 C729 1.390 . S
C731 C732 1.387 . S
C731 H734 0.950 . S
C732 C731 1.387 . S
C732 C735 1.387 . S
H733 C729 0.950 . S
H734 C731 0.950 . S
C735 C726 1.390 . S
C735 H728 0.950 . S
C735 C732 1.387 . S
C736 C737 1.387 1_565 S
C736 H740 0.950 . S
C736 C745 1.390 . S
C737 C736 1.387 1_545 S
C737 C739 1.387 . S
H738 C745 0.950 . S
C739 C737 1.387 . S
C739 C741 1.390 . S
C739 H743 0.950 . S
H740 C736 0.950 . S
C741 C739 1.390 . S
C741 C742 1.387 . S
C741 H744 0.950 . S
C742 C741 1.387 . S
C742 C745 1.387 1_545 S
H743 C739 0.950 . S
H744 C741 0.950 . S
C745 C736 1.390 . S
C745 H738 0.950 . S
C745 C742 1.387 1_565 S
C746 C747 1.387 . S
C746 H750 0.950 . S
C746 C755 1.390 . S
C747 C746 1.387 . S
C747 C749 1.387 . S
H748 C755 0.950 . S
C749 C747 1.387 . S
C749 C751 1.390 . S
C749 H753 0.950 . S
H750 C746 0.950 . S
C751 C749 1.390 . S
C751 C752 1.387 . S
C751 H754 0.950 . S
C752 C751 1.387 . S
C752 C755 1.387 . S
H753 C749 0.950 . S
H754 C751 0.950 . S
C755 C746 1.390 . S
C755 H748 0.950 . S
C755 C752 1.387 . S
C756 C757 1.387 1_565 S
C756 H760 0.950 . S
C756 C765 1.390 . S
C757 C756 1.387 1_545 S
C757 C759 1.387 . S
H758 C765 0.950 . S
C759 C757 1.387 . S
C759 C761 1.390 . S
C759 H763 0.950 . S
H760 C756 0.950 . S
C761 C759 1.390 . S
C761 C762 1.387 . S
C761 H764 0.950 . S
C762 C761 1.387 . S
C762 C765 1.387 1_545 S
H763 C759 0.950 . S
H764 C761 0.950 . S
C765 C756 1.390 . S
C765 H758 0.950 . S
C765 C762 1.387 1_565 S
C766 C767 1.387 . S
C766 H770 0.950 . S
C766 C775 1.390 . S
C767 C766 1.387 . S
C767 C769 1.387 . S
H768 C775 0.950 . S
C769 C767 1.387 . S
C769 C771 1.390 . S
C769 H773 0.950 . S
H770 C766 0.950 . S
C771 C769 1.390 . S
C771 C772 1.387 . S
C771 H774 0.950 . S
C772 C771 1.387 . S
C772 C775 1.387 . S
H773 C769 0.950 . S
H774 C771 0.950 . S
C775 C766 1.390 . S
C775 H768 0.950 . S
C775 C772 1.387 . S
C776 C777 1.387 . S
C776 H780 0.950 . S
C776 C785 1.390 . S
C777 C776 1.387 . S
C777 C779 1.387 1_545 S
H778 C785 0.950 . S
C779 C777 1.387 1_565 S
C779 C781 1.390 . S
C779 H783 0.950 . S
H780 C776 0.950 . S
C781 C779 1.390 . S
C781 C782 1.387 1_565 S
C781 H784 0.950 . S
C782 C781 1.387 1_545 S
C782 C785 1.387 . S
H783 C779 0.950 . S
H784 C781 0.950 . S
C785 C776 1.390 . S
C785 H778 0.950 . S
C785 C782 1.387 . S
C786 C787 1.387 . S
C786 H790 0.950 . S
C786 C795 1.390 . S
C787 C786 1.387 . S
C787 C789 1.387 . S
H788 C795 0.950 . S
C789 C787 1.387 . S
C789 C791 1.390 . S
C789 H793 0.950 . S
H790 C786 0.950 . S
C791 C789 1.390 . S
C791 C792 1.387 . S
C791 H794 0.950 . S
C792 C791 1.387 . S
C792 C795 1.387 . S
H793 C789 0.950 . S
H794 C791 0.950 . S
C795 C786 1.390 . S
C795 H788 0.950 . S
C795 C792 1.387 . S
C796 C797 1.403 . S
C796 H800 0.930 1_545 S
C796 C805 1.395 . S
C797 C796 1.403 . S
C797 C799 1.387 . S
H798 C805 0.950 1_565 S
C799 C797 1.387 . S
C799 C801 1.390 . S
C799 H803 0.950 . S
H800 C796 0.930 1_565 S
C801 C799 1.390 . S
C801 C802 1.387 . S
C801 H804 0.950 . S
C802 C801 1.387 . S
C802 C805 1.387 . S
H803 C799 0.950 . S
H804 C801 0.950 . S
C805 C796 1.395 . S
C805 H798 0.950 1_545 S
C805 C802 1.387 . S
C806 C807 1.387 . S
C806 H810 0.950 . S
C806 C815 1.390 . S
C807 C806 1.387 . S
C807 C809 1.387 . S
H808 C815 0.950 . S
C809 C807 1.387 . S
C809 C811 1.390 . S
C809 H813 0.950 . S
H810 C806 0.950 . S
C811 C809 1.390 . S
C811 C812 1.387 . S
C811 H814 0.950 . S
C812 C811 1.387 . S
C812 C815 1.387 . S
H813 C809 0.950 . S
H814 C811 0.950 . S
C815 C806 1.390 . S
C815 H808 0.950 . S
C815 C812 1.387 . S
C816 C817 1.387 . S
C816 H820 0.950 1_554 S
C816 C825 1.390 . S
C817 C816 1.387 . S
C817 C819 1.387 . S
H818 C825 0.950 . S
C819 C817 1.387 . S
C819 C821 1.390 . S
C819 H823 0.950 . S
H820 C816 0.950 1_556 S
C821 C819 1.390 . S
C821 C822 1.387 . S
C821 H824 0.950 . S
C822 C821 1.387 . S
C822 C825 1.387 . S
H823 C819 0.950 . S
H824 C821 0.950 . S
C825 C816 1.390 . S
C825 H818 0.950 . S
C825 C822 1.387 . S
C826 C827 1.387 . S
C826 H830 0.950 . S
C826 C835 1.390 . S
C827 C826 1.387 . S
C827 C829 1.387 1_554 S
H828 C835 0.950 . S
C829 C827 1.387 1_556 S
C829 C831 1.390 . S
C829 H833 0.950 . S
H830 C826 0.950 . S
C831 C829 1.390 . S
C831 C832 1.387 1_556 S
C831 H834 0.950 . S
C832 C831 1.387 1_554 S
C832 C835 1.387 . S
H833 C829 0.950 . S
H834 C831 0.950 . S
C835 C826 1.390 . S
C835 H828 0.950 . S
C835 C832 1.387 . S
C836 C837 1.387 . S
C836 H840 0.950 . S
C836 C845 1.390 . S
C837 C836 1.387 . S
C837 C839 1.387 . S
H838 C845 0.950 . S
C839 C837 1.387 . S
C839 C841 1.390 . S
C839 H843 0.950 . S
H840 C836 0.950 . S
C841 C839 1.390 . S
C841 C842 1.387 . S
C841 H844 0.950 . S
C842 C841 1.387 . S
C842 C845 1.387 . S
H843 C839 0.950 . S
H844 C841 0.950 . S
C845 C836 1.390 . S
C845 H838 0.950 . S
C845 C842 1.387 . S
C846 C847 1.387 . S
C846 H850 0.950 . S
C846 C855 1.390 . S
C847 C846 1.387 . S
C847 C849 1.387 . S
H848 C855 0.950 . S
C849 C847 1.387 . S
C849 C851 1.390 . S
C849 H853 0.950 . S
H850 C846 0.950 . S
C851 C849 1.390 . S
C851 C852 1.387 . S
C851 H854 0.950 . S
C852 C851 1.387 . S
C852 C855 1.387 . S
H853 C849 0.950 . S
H854 C851 0.950 . S
C855 C846 1.390 . S
C855 H848 0.950 . S
C855 C852 1.387 . S
C856 C857 1.387 . S
C856 H860 0.950 . S
C856 C865 1.390 . S
C857 C856 1.387 . S
C857 C859 1.387 . S
H858 C865 0.950 . S
C859 C857 1.387 . S
C859 C861 1.390 . S
C859 H863 0.950 . S
H860 C856 0.950 . S
C861 C859 1.390 . S
C861 C862 1.387 . S
C861 H864 0.950 . S
C862 C861 1.387 . S
C862 C865 1.387 . S
H863 C859 0.950 . S
H864 C861 0.950 . S
C865 C856 1.390 . S
C865 H858 0.950 . S
C865 C862 1.387 . S
C866 C867 1.387 . S
C866 H870 0.950 . S
C866 C875 1.390 . S
C867 C866 1.387 . S
C867 C869 1.387 . S
H868 C875 0.950 . S
C869 C867 1.387 . S
C869 C871 1.390 . S
C869 H873 0.950 . S
H870 C866 0.950 . S
C871 C869 1.390 . S
C871 C872 1.387 . S
C871 H874 0.950 . S
C872 C871 1.387 . S
C872 C875 1.387 . S
H873 C869 0.950 . S
H874 C871 0.950 . S
C875 C866 1.390 . S
C875 H868 0.950 . S
C875 C872 1.387 . S
C876 C877 1.387 . S
C876 H880 0.950 . S
C876 C885 1.390 . S
C877 C876 1.387 . S
C877 C879 1.387 . S
H878 C885 0.950 . S
C879 C877 1.387 . S
C879 C881 1.390 . S
C879 H883 0.950 . S
H880 C876 0.950 . S
C881 C879 1.390 . S
C881 C882 1.387 . S
C881 H884 0.950 . S
C882 C881 1.387 . S
C882 C885 1.387 . S
H883 C879 0.950 . S
H884 C881 0.950 . S
C885 C876 1.390 . S
C885 H878 0.950 . S
C885 C882 1.387 . S
C886 C887 1.387 . S
C886 H890 0.950 . S
C886 C895 1.390 . S
C887 C886 1.387 . S
C887 C889 1.387 . S
H888 C895 0.950 . S
C889 C887 1.387 . S
C889 C891 1.390 . S
C889 H893 0.950 . S
H890 C886 0.950 . S
C891 C889 1.390 . S
C891 C892 1.387 . S
C891 H894 0.950 . S
C892 C891 1.387 . S
C892 C895 1.387 . S
H893 C889 0.950 . S
H894 C891 0.950 . S
C895 C886 1.390 . S
C895 H888 0.950 . S
C895 C892 1.387 . S
C896 C897 1.387 . S
C896 H900 0.950 . S
C896 C905 1.390 . S
C897 C896 1.387 . S
C897 C899 1.387 . S
H898 C905 0.950 . S
C899 C897 1.387 . S
C899 C901 1.390 . S
C899 H903 0.950 . S
H900 C896 0.950 . S
C901 C899 1.390 . S
C901 C902 1.387 . S
C901 H904 0.950 . S
C902 C901 1.387 . S
C902 C905 1.387 . S
H903 C899 0.950 . S
H904 C901 0.950 . S
C905 C896 1.390 . S
C905 H898 0.950 . S
C905 C902 1.387 . S
C906 C907 1.387 . S
C906 H910 0.950 . S
C906 C915 1.390 . S
C907 C906 1.387 . S
C907 C909 1.387 . S
H908 C915 0.950 . S
C909 C907 1.387 . S
C909 C911 1.390 . S
C909 H913 0.950 . S
H910 C906 0.950 . S
C911 C909 1.390 . S
C911 C912 1.387 . S
C911 H914 0.950 . S
C912 C911 1.387 . S
C912 C915 1.387 . S
H913 C909 0.950 . S
H914 C911 0.950 . S
C915 C906 1.390 . S
C915 H908 0.950 . S
C915 C912 1.387 . S
C916 C917 1.387 . S
C916 H920 0.950 . S
C916 C925 1.390 . S
C917 C916 1.387 . S
C917 C919 1.387 . S
H918 C925 0.950 . S
C919 C917 1.387 . S
C919 C921 1.390 . S
C919 H923 0.950 . S
H920 C916 0.950 . S
C921 C919 1.390 . S
C921 C922 1.387 . S
C921 H924 0.950 . S
C922 C921 1.387 . S
C922 C925 1.387 . S
H923 C919 0.950 . S
H924 C921 0.950 . S
C925 C916 1.390 . S
C925 H918 0.950 . S
C925 C922 1.387 . S
C926 C927 1.387 . S
C926 H930 0.950 . S
C926 C935 1.390 . S
C927 C926 1.387 . S
C927 C929 1.387 . S
H928 C935 0.950 . S
C929 C927 1.387 . S
C929 C931 1.390 . S
C929 H933 0.950 . S
H930 C926 0.950 . S
C931 C929 1.390 . S
C931 C932 1.387 . S
C931 H934 0.950 . S
C932 C931 1.387 . S
C932 C935 1.387 . S
H933 C929 0.950 . S
H934 C931 0.950 . S
C935 C926 1.390 . S
C935 H928 0.950 . S
C935 C932 1.387 . S
C936 C937 1.387 1_655 S
C936 H940 0.950 . S
C936 C945 1.390 . S
C937 C936 1.387 1_455 S
C937 C939 1.387 . S
H938 C945 0.950 . S
C939 C937 1.387 . S
C939 C941 1.390 . S
C939 H943 0.950 . S
H940 C936 0.950 . S
C941 C939 1.390 . S
C941 C942 1.387 . S
C941 H944 0.950 . S
C942 C941 1.387 . S
C942 C945 1.387 1_455 S
H943 C939 0.950 . S
H944 C941 0.950 . S
C945 C936 1.390 . S
C945 H938 0.950 . S
C945 C942 1.387 1_655 S
C946 C947 1.387 . S
C946 H950 0.950 . S
C946 C955 1.390 . S
C947 C946 1.387 . S
C947 C949 1.387 . S
H948 C955 0.950 . S
C949 C947 1.387 . S
C949 C951 1.390 . S
C949 H953 0.950 . S
H950 C946 0.950 . S
C951 C949 1.390 . S
C951 C952 1.387 . S
C951 H954 0.950 . S
C952 C951 1.387 . S
C952 C955 1.387 . S
H953 C949 0.950 . S
H954 C951 0.950 . S
C955 C946 1.390 . S
C955 H948 0.950 . S
C955 C952 1.387 . S
C956 C957 1.387 . S
C956 H960 0.950 . S
C956 C965 1.390 1_556 S
C957 C956 1.387 . S
C957 C959 1.387 . S
H958 C965 0.950 . S
C959 C957 1.387 . S
C959 C961 1.390 . S
C959 H963 0.950 . S
H960 C956 0.950 . S
C961 C959 1.390 . S
C961 C962 1.387 . S
C961 H964 0.950 . S
C962 C961 1.387 . S
C962 C965 1.387 1_556 S
H963 C959 0.950 . S
H964 C961 0.950 . S
C965 C956 1.390 1_554 S
C965 H958 0.950 . S
C965 C962 1.387 1_554 S
C966 C967 1.387 . S
C966 H970 0.950 . S
C966 C975 1.390 . S
C967 C966 1.387 . S
C967 C969 1.387 . S
H968 C975 0.950 . S
C969 C967 1.387 . S
C969 C971 1.390 . S
C969 H973 0.950 . S
H970 C966 0.950 . S
C971 C969 1.390 . S
C971 C972 1.387 . S
C971 H974 0.950 . S
C972 C971 1.387 . S
C972 C975 1.387 . S
H973 C969 0.950 . S
H974 C971 0.950 . S
C975 C966 1.390 . S
C975 H968 0.950 . S
C975 C972 1.387 . S
C976 C977 1.387 . S
C976 H980 0.950 . S
C976 C985 1.390 . S
C977 C976 1.387 . S
C977 C979 1.387 1_545 S
H978 C985 0.950 . S
C979 C977 1.387 1_565 S
C979 C981 1.390 . S
C979 H983 0.950 . S
H980 C976 0.950 . S
C981 C979 1.390 . S
C981 C982 1.387 1_565 S
C981 H984 0.950 . S
C982 C981 1.387 1_545 S
C982 C985 1.387 . S
H983 C979 0.950 . S
H984 C981 0.950 . S
C985 C976 1.390 . S
C985 H978 0.950 . S
C985 C982 1.387 . S
C986 C987 1.387 . S
C986 H990 0.950 . S
C986 C995 1.390 . S
C987 C986 1.387 . S
C987 C989 1.387 . S
H988 C995 0.950 . S
C989 C987 1.387 . S
C989 C991 1.390 . S
C989 H993 0.950 . S
H990 C986 0.950 . S
C991 C989 1.390 . S
C991 C992 1.387 . S
C991 H994 0.950 . S
C992 C991 1.387 . S
C992 C995 1.387 . S
H993 C989 0.950 . S
H994 C991 0.950 . S
C995 C986 1.390 . S
C995 H988 0.950 . S
C995 C992 1.387 . S
C996 C997 1.353 1_565 S
C996 H1000 0.975 . S
C996 C1005 1.400 . S
C997 C996 1.353 1_545 S
C997 C999 1.387 . S
H998 C1005 0.950 . S
C999 C997 1.387 . S
C999 C1001 1.390 . S
C999 H1003 0.950 . S
H1000 C996 0.975 . S
C1001 C999 1.390 . S
C1001 C1002 1.387 . S
C1001 H1004 0.950 . S
C1002 C1001 1.387 . S
C1002 C1005 1.387 1_545 S
H1003 C999 0.950 . S
H1004 C1001 0.950 . S
C1005 C996 1.400 . S
C1005 H998 0.950 . S
C1005 C1002 1.387 1_565 S
C1006 C1007 1.387 . S
C1006 H1010 0.950 . S
C1006 C1015 1.390 . S
C1007 C1006 1.387 . S
C1007 C1009 1.387 . S
H1008 C1015 0.950 . S
C1009 C1007 1.387 . S
C1009 C1011 1.390 . S
C1009 H1013 0.950 . S
H1010 C1006 0.950 . S
C1011 C1009 1.390 . S
C1011 C1012 1.387 . S
C1011 H1014 0.950 . S
C1012 C1011 1.387 . S
C1012 C1015 1.387 . S
H1013 C1009 0.950 . S
H1014 C1011 0.950 . S
C1015 C1006 1.390 . S
C1015 H1008 0.950 . S
C1015 C1012 1.387 . S
C1016 C1017 1.387 1_565 S
C1016 H1020 0.950 . S
C1016 C1025 1.390 . S
C1017 C1016 1.387 1_545 S
C1017 C1019 1.387 . S
H1018 C1025 0.950 . S
C1019 C1017 1.387 . S
C1019 C1021 1.390 . S
C1019 H1023 0.950 . S
H1020 C1016 0.950 . S
C1021 C1019 1.390 . S
C1021 C1022 1.387 . S
C1021 H1024 0.950 . S
C1022 C1021 1.387 . S
C1022 C1025 1.387 1_545 S
H1023 C1019 0.950 . S
H1024 C1021 0.950 . S
C1025 C1016 1.390 . S
C1025 H1018 0.950 . S
C1025 C1022 1.387 1_565 S
C1026 C1027 1.387 . S
C1026 H1030 0.950 . S
C1026 C1035 1.390 . S
C1027 C1026 1.387 . S
C1027 C1029 1.387 . S
H1028 C1035 0.950 . S
C1029 C1027 1.387 . S
C1029 C1031 1.390 . S
C1029 H1033 0.950 . S
H1030 C1026 0.950 . S
C1031 C1029 1.390 . S
C1031 C1032 1.387 . S
C1031 H1034 0.950 . S
C1032 C1031 1.387 . S
C1032 C1035 1.387 . S
H1033 C1029 0.950 . S
H1034 C1031 0.950 . S
C1035 C1026 1.390 . S
C1035 H1028 0.950 . S
C1035 C1032 1.387 . S
C1036 C1037 1.387 . S
C1036 H1040 0.950 . S
C1036 C1045 1.390 . S
C1037 C1036 1.387 . S
C1037 C1039 1.387 1_545 S
H1038 C1045 0.950 . S
C1039 C1037 1.387 1_565 S
C1039 C1041 1.390 . S
C1039 H1043 0.950 . S
H1040 C1036 0.950 . S
C1041 C1039 1.390 . S
C1041 C1042 1.394 . S
C1041 H1044 0.950 . S
C1042 C1041 1.394 . S
C1042 C1045 1.378 1_565 S
H1043 C1039 0.950 . S
H1044 C1041 0.950 . S
C1045 C1036 1.390 . S
C1045 H1038 0.950 . S
C1045 C1042 1.378 1_545 S
C1046 C1047 1.387 . S
C1046 H1050 0.950 . S
C1046 C1055 1.390 . S
C1047 C1046 1.387 . S
C1047 C1049 1.387 . S
H1048 C1055 0.950 . S
C1049 C1047 1.387 . S
C1049 C1051 1.390 . S
C1049 H1053 0.950 . S
H1050 C1046 0.950 . S
C1051 C1049 1.390 . S
C1051 C1052 1.387 . S
C1051 H1054 0.950 . S
C1052 C1051 1.387 . S
C1052 C1055 1.387 . S
H1053 C1049 0.950 . S
H1054 C1051 0.950 . S
C1055 C1046 1.390 . S
C1055 H1048 0.950 . S
C1055 C1052 1.387 . S
C1056 C1057 1.387 . S
C1056 H1060 0.950 1_554 S
C1056 C1065 1.390 1_554 S
C1057 C1056 1.387 . S
C1057 C1059 1.387 . S
H1058 C1065 0.950 . S
C1059 C1057 1.387 . S
C1059 C1061 1.390 . S
C1059 H1063 0.950 . S
H1060 C1056 0.950 1_556 S
C1061 C1059 1.390 . S
C1061 C1062 1.387 . S
C1061 H1064 0.950 . S
C1062 C1061 1.387 . S
C1062 C1065 1.387 1_554 S
H1063 C1059 0.950 . S
H1064 C1061 0.950 . S
C1065 C1056 1.390 1_556 S
C1065 H1058 0.950 . S
C1065 C1062 1.387 1_556 S
C1066 C1067 1.387 . S
C1066 H1070 0.950 . S
C1066 C1075 1.390 . S
C1067 C1066 1.387 . S
C1067 C1069 1.387 . S
H1068 C1075 0.950 . S
C1069 C1067 1.387 . S
C1069 C1071 1.390 . S
C1069 H1073 0.950 . S
H1070 C1066 0.950 . S
C1071 C1069 1.390 . S
C1071 C1072 1.387 . S
C1071 H1074 0.950 . S
C1072 C1071 1.387 . S
C1072 C1075 1.387 . S
H1073 C1069 0.950 . S
H1074 C1071 0.950 . S
C1075 C1066 1.390 . S
C1075 H1068 0.950 . S
C1075 C1072 1.387 . S
C1076 C1077 1.387 . S
C1076 H1080 0.950 . S
C1076 C1085 1.390 . S
C1077 C1076 1.387 . S
C1077 C1079 1.387 . S
H1078 C1085 0.950 . S
C1079 C1077 1.387 . S
C1079 C1081 1.390 . S
C1079 H1083 0.950 . S
H1080 C1076 0.950 . S
C1081 C1079 1.390 . S
C1081 C1082 1.387 . S
C1081 H1084 0.950 . S
C1082 C1081 1.387 . S
C1082 C1085 1.387 . S
H1083 C1079 0.950 . S
H1084 C1081 0.950 . S
C1085 C1076 1.390 . S
C1085 H1078 0.950 . S
C1085 C1082 1.387 . S
C1086 C1087 1.387 . S
C1086 H1090 0.950 . S
C1086 C1095 1.390 . S
C1087 C1086 1.387 . S
C1087 C1089 1.387 . S
H1088 C1095 0.950 . S
C1089 C1087 1.387 . S
C1089 C1091 1.390 . S
C1089 H1093 0.950 . S
H1090 C1086 0.950 . S
C1091 C1089 1.390 . S
C1091 C1092 1.387 . S
C1091 H1094 0.950 . S
C1092 C1091 1.387 . S
C1092 C1095 1.387 . S
H1093 C1089 0.950 . S
H1094 C1091 0.950 . S
C1095 C1086 1.390 . S
C1095 H1088 0.950 . S
C1095 C1092 1.387 . S
C1096 C1097 1.387 . S
C1096 H1100 0.950 . S
C1096 C1105 1.390 . S
C1097 C1096 1.387 . S
C1097 C1099 1.387 . S
H1098 C1105 0.950 . S
C1099 C1097 1.387 . S
C1099 C1101 1.390 . S
C1099 H1103 0.950 . S
H1100 C1096 0.950 . S
C1101 C1099 1.390 . S
C1101 C1102 1.387 . S
C1101 H1104 0.950 . S
C1102 C1101 1.387 . S
C1102 C1105 1.387 . S
H1103 C1099 0.950 . S
H1104 C1101 0.950 . S
C1105 C1096 1.390 . S
C1105 H1098 0.950 . S
C1105 C1102 1.387 . S
C1106 C1107 1.387 . S
C1106 H1110 0.950 . S
C1106 C1115 1.390 . S
C1107 C1106 1.387 . S
C1107 C1109 1.387 . S
H1108 C1115 0.950 . S
C1109 C1107 1.387 . S
C1109 C1111 1.390 . S
C1109 H1113 0.950 . S
H1110 C1106 0.950 . S
C1111 C1109 1.390 . S
C1111 C1112 1.387 . S
C1111 H1114 0.950 . S
C1112 C1111 1.387 . S
C1112 C1115 1.387 . S
H1113 C1109 0.950 . S
H1114 C1111 0.950 . S
C1115 C1106 1.390 . S
C1115 H1108 0.950 . S
C1115 C1112 1.387 . S
C1116 C1117 1.387 . S
C1116 H1120 0.950 . S
C1116 C1125 1.390 . S
C1117 C1116 1.387 . S
C1117 C1119 1.387 . S
H1118 C1125 0.950 . S
C1119 C1117 1.387 . S
C1119 C1121 1.390 . S
C1119 H1123 0.950 . S
H1120 C1116 0.950 . S
C1121 C1119 1.390 . S
C1121 C1122 1.387 . S
C1121 H1124 0.950 . S
C1122 C1121 1.387 . S
C1122 C1125 1.387 . S
H1123 C1119 0.950 . S
H1124 C1121 0.950 . S
C1125 C1116 1.390 . S
C1125 H1118 0.950 . S
C1125 C1122 1.387 . S
C1126 C1127 1.387 . S
C1126 H1130 0.950 . S
C1126 C1135 1.390 . S
C1127 C1126 1.387 . S
C1127 C1129 1.387 . S
H1128 C1135 0.950 . S
C1129 C1127 1.387 . S
C1129 C1131 1.390 . S
C1129 H1133 0.950 . S
H1130 C1126 0.950 . S
C1131 C1129 1.390 . S
C1131 C1132 1.387 . S
C1131 H1134 0.950 . S
C1132 C1131 1.387 . S
C1132 C1135 1.387 . S
H1133 C1129 0.950 . S
H1134 C1131 0.950 . S
C1135 C1126 1.390 . S
C1135 H1128 0.950 . S
C1135 C1132 1.387 . S
C1136 C1137 1.387 . S
C1136 H1140 0.950 . S
C1136 C1145 1.390 . S
C1137 C1136 1.387 . S
C1137 C1139 1.387 . S
H1138 C1145 0.950 . S
C1139 C1137 1.387 . S
C1139 C1141 1.390 . S
C1139 H1143 0.950 . S
H1140 C1136 0.950 . S
C1141 C1139 1.390 . S
C1141 C1142 1.387 . S
C1141 H1144 0.950 . S
C1142 C1141 1.387 . S
C1142 C1145 1.387 . S
H1143 C1139 0.950 . S
H1144 C1141 0.950 . S
C1145 C1136 1.390 . S
C1145 H1138 0.950 . S
C1145 C1142 1.387 . S
C1146 C1147 1.387 . S
C1146 H1150 0.950 . S
C1146 C1155 1.390 . S
C1147 C1146 1.387 . S
C1147 C1149 1.387 . S
H1148 C1155 0.950 . S
C1149 C1147 1.387 . S
C1149 C1151 1.390 . S
C1149 H1153 0.950 . S
H1150 C1146 0.950 . S
C1151 C1149 1.390 . S
C1151 C1152 1.387 . S
C1151 H1154 0.950 . S
C1152 C1151 1.387 . S
C1152 C1155 1.387 . S
H1153 C1149 0.950 . S
H1154 C1151 0.950 . S
C1155 C1146 1.390 . S
C1155 H1148 0.950 . S
C1155 C1152 1.387 . S
C1156 C1157 1.387 1_655 S
C1156 H1160 0.950 . S
C1156 C1165 1.390 . S
C1157 C1156 1.387 1_455 S
C1157 C1159 1.387 . S
H1158 C1165 0.950 . S
C1159 C1157 1.387 . S
C1159 C1161 1.390 . S
C1159 H1163 0.950 . S
H1160 C1156 0.950 . S
C1161 C1159 1.390 . S
C1161 C1162 1.387 . S
C1161 H1164 0.949 . S
C1162 C1161 1.387 . S
C1162 C1165 1.387 1_455 S
H1163 C1159 0.950 . S
H1164 C1161 0.949 . S
C1165 C1156 1.390 . S
C1165 H1158 0.950 . S
C1165 C1162 1.387 1_655 S
C1166 C1167 1.387 . S
C1166 H1170 0.950 . S
C1166 C1175 1.390 . S
C1167 C1166 1.387 . S
C1167 C1169 1.387 . S
H1168 C1175 0.950 . S
C1169 C1167 1.387 . S
C1169 C1171 1.390 . S
C1169 H1173 0.950 . S
H1170 C1166 0.950 . S
C1171 C1169 1.390 . S
C1171 C1172 1.387 . S
C1171 H1174 0.950 . S
C1172 C1171 1.387 . S
C1172 C1175 1.387 . S
H1173 C1169 0.950 . S
H1174 C1171 0.950 . S
C1175 C1166 1.390 . S
C1175 H1168 0.950 . S
C1175 C1172 1.387 . S
C1176 C1177 1.387 . S
C1176 H1180 0.950 . S
C1176 C1185 1.390 . S
C1177 C1176 1.387 . S
C1177 C1179 1.387 . S
H1178 C1185 0.950 . S
C1179 C1177 1.387 . S
C1179 C1181 1.390 . S
C1179 H1183 0.950 . S
H1180 C1176 0.950 . S
C1181 C1179 1.390 . S
C1181 C1182 1.387 . S
C1181 H1184 0.950 . S
C1182 C1181 1.387 . S
C1182 C1185 1.387 . S
H1183 C1179 0.950 . S
H1184 C1181 0.950 . S
C1185 C1176 1.390 . S
C1185 H1178 0.950 . S
C1185 C1182 1.387 . S
C1186 C1187 1.387 . S
C1186 H1190 0.950 . S
C1186 C1195 1.390 . S
C1187 C1186 1.387 . S
C1187 C1189 1.387 . S
H1188 C1195 0.950 . S
C1189 C1187 1.387 . S
C1189 C1191 1.390 . S
C1189 H1193 0.950 . S
H1190 C1186 0.950 . S
C1191 C1189 1.390 . S
C1191 C1192 1.387 . S
C1191 H1194 0.950 . S
C1192 C1191 1.387 . S
C1192 C1195 1.387 . S
H1193 C1189 0.950 . S
H1194 C1191 0.950 . S
C1195 C1186 1.390 . S
C1195 H1188 0.950 . S
C1195 C1192 1.387 . S
C1196 C1197 1.373 1_655 S
C1196 H1200 0.950 . S
C1196 C1205 1.390 . S
C1197 C1196 1.373 1_455 S
C1197 C1199 1.411 . S
H1198 C1205 0.950 . S
C1199 C1197 1.411 . S
C1199 C1201 1.390 . S
C1199 H1203 0.950 . S
H1200 C1196 0.950 . S
C1201 C1199 1.390 . S
C1201 C1202 1.387 . S
C1201 H1204 0.950 . S
C1202 C1201 1.387 . S
C1202 C1205 1.387 1_455 S
H1203 C1199 0.950 . S
H1204 C1201 0.950 . S
C1205 C1196 1.390 . S
C1205 H1198 0.950 . S
C1205 C1202 1.387 1_655 S
C1206 C1207 1.387 . S
C1206 H1210 0.950 . S
C1206 C1215 1.390 . S
C1207 C1206 1.387 . S
C1207 C1209 1.387 . S
H1208 C1215 0.950 . S
C1209 C1207 1.387 . S
C1209 C1211 1.390 . S
C1209 H1213 0.950 . S
H1210 C1206 0.950 . S
C1211 C1209 1.390 . S
C1211 C1212 1.387 . S
C1211 H1214 0.950 . S
C1212 C1211 1.387 . S
C1212 C1215 1.387 . S
H1213 C1209 0.950 . S
H1214 C1211 0.950 . S
C1215 C1206 1.390 . S
C1215 H1208 0.950 . S
C1215 C1212 1.387 . S
C1216 C1217 1.387 . S
C1216 H1220 0.950 . S
C1216 C1225 1.390 . S
C1217 C1216 1.387 . S
C1217 C1219 1.387 . S
H1218 C1225 0.950 . S
C1219 C1217 1.387 . S
C1219 C1221 1.390 . S
C1219 H1223 0.950 . S
H1220 C1216 0.950 . S
C1221 C1219 1.390 . S
C1221 C1222 1.387 . S
C1221 H1224 0.950 . S
C1222 C1221 1.387 . S
C1222 C1225 1.387 . S
H1223 C1219 0.950 . S
H1224 C1221 0.950 . S
C1225 C1216 1.390 . S
C1225 H1218 0.950 . S
C1225 C1222 1.387 . S
C1226 C1227 1.387 . S
C1226 H1230 0.950 . S
C1226 C1235 1.390 . S
C1227 C1226 1.387 . S
C1227 C1229 1.387 . S
H1228 C1235 0.950 . S
C1229 C1227 1.387 . S
C1229 C1231 1.390 . S
C1229 H1233 0.950 . S
H1230 C1226 0.950 . S
C1231 C1229 1.390 . S
C1231 C1232 1.387 . S
C1231 H1234 0.950 . S
C1232 C1231 1.387 . S
C1232 C1235 1.387 . S
H1233 C1229 0.950 . S
H1234 C1231 0.950 . S
C1235 C1226 1.390 . S
C1235 H1228 0.950 . S
C1235 C1232 1.387 . S
C1236 C1237 1.387 . S
C1236 H1240 0.950 . S
C1236 C1245 1.390 . S
C1237 C1236 1.387 . S
C1237 C1239 1.387 . S
H1238 C1245 0.950 . S
C1239 C1237 1.387 . S
C1239 C1241 1.390 . S
C1239 H1243 0.950 . S
H1240 C1236 0.950 . S
C1241 C1239 1.390 . S
C1241 C1242 1.387 . S
C1241 H1244 0.950 . S
C1242 C1241 1.387 . S
C1242 C1245 1.387 . S
H1243 C1239 0.950 . S
H1244 C1241 0.950 . S
C1245 C1236 1.390 . S
C1245 H1238 0.950 . S
C1245 C1242 1.387 . S
C1246 C1247 1.387 . S
C1246 H1250 0.950 . S
C1246 C1255 1.390 . S
C1247 C1246 1.387 . S
C1247 C1249 1.387 . S
H1248 C1255 0.950 . S
C1249 C1247 1.387 . S
C1249 C1251 1.390 . S
C1249 H1253 0.950 . S
H1250 C1246 0.950 . S
C1251 C1249 1.390 . S
C1251 C1252 1.387 . S
C1251 H1254 0.950 . S
C1252 C1251 1.387 . S
C1252 C1255 1.387 . S
H1253 C1249 0.950 . S
H1254 C1251 0.950 . S
C1255 C1246 1.390 . S
C1255 H1248 0.950 . S
C1255 C1252 1.387 . S
C1256 C1257 1.387 . S
C1256 H1260 0.950 . S
C1256 C1265 1.390 . S
C1257 C1256 1.387 . S
C1257 C1259 1.387 . S
H1258 C1265 0.950 . S
C1259 C1257 1.387 . S
C1259 C1261 1.390 . S
C1259 H1263 0.950 . S
H1260 C1256 0.950 . S
C1261 C1259 1.390 . S
C1261 C1262 1.387 . S
C1261 H1264 0.950 . S
C1262 C1261 1.387 . S
C1262 C1265 1.387 . S
H1263 C1259 0.950 . S
H1264 C1261 0.950 . S
C1265 C1256 1.390 . S
C1265 H1258 0.950 . S
C1265 C1262 1.387 . S
C1266 C1267 1.387 . S
C1266 H1270 0.950 . S
C1266 C1275 1.390 . S
C1267 C1266 1.387 . S
C1267 C1269 1.387 . S
H1268 C1275 0.950 . S
C1269 C1267 1.387 . S
C1269 C1271 1.390 . S
C1269 H1273 0.950 . S
H1270 C1266 0.950 . S
C1271 C1269 1.390 . S
C1271 C1272 1.387 . S
C1271 H1274 0.950 . S
C1272 C1271 1.387 . S
C1272 C1275 1.387 . S
H1273 C1269 0.950 . S
H1274 C1271 0.950 . S
C1275 C1266 1.390 . S
C1275 H1268 0.950 . S
C1275 C1272 1.387 . S
C1276 C1277 1.387 . S
C1276 H1280 0.950 . S
C1276 C1285 1.390 . S
C1277 C1276 1.387 . S
C1277 C1279 1.387 . S
H1278 C1285 0.950 . S
C1279 C1277 1.387 . S
C1279 C1281 1.390 . S
C1279 H1283 0.950 . S
H1280 C1276 0.950 . S
C1281 C1279 1.390 . S
C1281 C1282 1.387 . S
C1281 H1284 0.950 . S
C1282 C1281 1.387 . S
C1282 C1285 1.387 . S
H1283 C1279 0.950 . S
H1284 C1281 0.950 . S
C1285 C1276 1.390 . S
C1285 H1278 0.950 . S
C1285 C1282 1.387 . S
C1286 C1287 1.387 . S
C1286 H1290 0.950 . S
C1286 C1295 1.390 . S
C1287 C1286 1.387 . S
C1287 C1289 1.387 . S
H1288 C1295 0.950 . S
C1289 C1287 1.387 . S
C1289 C1291 1.390 . S
C1289 H1293 0.950 . S
H1290 C1286 0.950 . S
C1291 C1289 1.390 . S
C1291 C1292 1.387 . S
C1291 H1294 0.950 . S
C1292 C1291 1.387 . S
C1292 C1295 1.387 . S
H1293 C1289 0.950 . S
H1294 C1291 0.950 . S
C1295 C1286 1.390 . S
C1295 H1288 0.950 . S
C1295 C1292 1.387 . S
C1296 C1297 1.387 . S
C1296 H1300 0.950 . S
C1296 C1305 1.390 . S
C1297 C1296 1.387 . S
C1297 C1299 1.387 . S
H1298 C1305 0.950 . S
C1299 C1297 1.387 . S
C1299 C1301 1.390 . S
C1299 H1303 0.950 . S
H1300 C1296 0.950 . S
C1301 C1299 1.390 . S
C1301 C1302 1.387 . S
C1301 H1304 0.950 . S
C1302 C1301 1.387 . S
C1302 C1305 1.387 . S
H1303 C1299 0.950 . S
H1304 C1301 0.950 . S
C1305 C1296 1.390 . S
C1305 H1298 0.950 . S
C1305 C1302 1.387 . S
C1306 C1307 1.387 . S
C1306 H1310 0.950 . S
C1306 C1315 1.390 . S
C1307 C1306 1.387 . S
C1307 C1309 1.387 . S
H1308 C1315 0.950 . S
C1309 C1307 1.387 . S
C1309 C1311 1.390 . S
C1309 H1313 0.950 . S
H1310 C1306 0.950 . S
C1311 C1309 1.390 . S
C1311 C1312 1.387 . S
C1311 H1314 0.950 . S
C1312 C1311 1.387 . S
C1312 C1315 1.387 . S
H1313 C1309 0.950 . S
H1314 C1311 0.950 . S
C1315 C1306 1.390 . S
C1315 H1308 0.950 . S
C1315 C1312 1.387 . S
C1316 C1317 1.387 . S
C1316 H1320 0.950 . S
C1316 C1325 1.390 . S
C1317 C1316 1.387 . S
C1317 C1319 1.387 . S
H1318 C1325 0.950 . S
C1319 C1317 1.387 . S
C1319 C1321 1.390 . S
C1319 H1323 0.950 . S
H1320 C1316 0.950 . S
C1321 C1319 1.390 . S
C1321 C1322 1.387 . S
C1321 H1324 0.950 . S
C1322 C1321 1.387 . S
C1322 C1325 1.387 . S
H1323 C1319 0.950 . S
H1324 C1321 0.950 . S
C1325 C1316 1.390 . S
C1325 H1318 0.950 . S
C1325 C1322 1.387 . S
C1326 C1327 1.387 1_556 S
C1326 H1330 0.950 . S
C1326 C1335 1.390 . S
C1327 C1326 1.387 1_554 S
C1327 C1329 1.387 . S
H1328 C1335 0.950 . S
C1329 C1327 1.387 . S
C1329 C1331 1.390 . S
C1329 H1333 0.950 . S
H1330 C1326 0.950 . S
C1331 C1329 1.390 . S
C1331 C1332 1.387 . S
C1331 H1334 0.950 . S
C1332 C1331 1.387 . S
C1332 C1335 1.387 1_554 S
H1333 C1329 0.950 . S
H1334 C1331 0.950 . S
C1335 C1326 1.390 . S
C1335 H1328 0.950 . S
C1335 C1332 1.387 1_556 S
C1336 C1337 1.387 . S
C1336 H1340 0.950 . S
C1336 C1345 1.390 . S
C1337 C1336 1.387 . S
C1337 C1339 1.387 . S
H1338 C1345 0.950 . S
C1339 C1337 1.387 . S
C1339 C1341 1.390 . S
C1339 H1343 0.950 . S
H1340 C1336 0.950 . S
C1341 C1339 1.390 . S
C1341 C1342 1.387 . S
C1341 H1344 0.950 . S
C1342 C1341 1.387 . S
C1342 C1345 1.387 . S
H1343 C1339 0.950 . S
H1344 C1341 0.950 . S
C1345 C1336 1.390 . S
C1345 H1338 0.950 . S
C1345 C1342 1.387 . S
C1346 C1347 1.387 . S
C1346 H1350 0.950 . S
C1346 C1355 1.390 . S
C1347 C1346 1.387 . S
C1347 C1349 1.387 . S
H1348 C1355 0.950 . S
C1349 C1347 1.387 . S
C1349 C1351 1.390 . S
C1349 H1353 0.950 . S
H1350 C1346 0.950 . S
C1351 C1349 1.390 . S
C1351 C1352 1.387 . S
C1351 H1354 0.950 . S
C1352 C1351 1.387 . S
C1352 C1355 1.387 . S
H1353 C1349 0.950 . S
H1354 C1351 0.950 . S
C1355 C1346 1.390 . S
C1355 H1348 0.950 . S
C1355 C1352 1.387 . S
C1356 C1357 1.387 . S
C1356 H1360 0.950 . S
C1356 C1365 1.390 . S
C1357 C1356 1.387 . S
C1357 C1359 1.387 . S
H1358 C1365 0.950 . S
C1359 C1357 1.387 . S
C1359 C1361 1.390 . S
C1359 H1363 0.950 . S
H1360 C1356 0.950 . S
C1361 C1359 1.390 . S
C1361 C1362 1.387 . S
C1361 H1364 0.950 . S
C1362 C1361 1.387 . S
C1362 C1365 1.387 . S
H1363 C1359 0.950 . S
H1364 C1361 0.950 . S
C1365 C1356 1.390 . S
C1365 H1358 0.950 . S
C1365 C1362 1.387 . S
C1366 C1367 1.387 . S
C1366 H1370 0.950 . S
C1366 C1375 1.390 . S
C1367 C1366 1.387 . S
C1367 C1369 1.387 . S
H1368 C1375 0.950 . S
C1369 C1367 1.387 . S
C1369 C1371 1.390 . S
C1369 H1373 0.950 . S
H1370 C1366 0.950 . S
C1371 C1369 1.390 . S
C1371 C1372 1.387 . S
C1371 H1374 0.950 . S
C1372 C1371 1.387 . S
C1372 C1375 1.387 . S
H1373 C1369 0.950 . S
H1374 C1371 0.950 . S
C1375 C1366 1.390 . S
C1375 H1368 0.950 . S
C1375 C1372 1.387 . S
C1376 C1377 1.387 . S
C1376 H1380 0.950 . S
C1376 C1385 1.390 . S
C1377 C1376 1.387 . S
C1377 C1379 1.387 . S
H1378 C1385 0.950 . S
C1379 C1377 1.387 . S
C1379 C1381 1.390 . S
C1379 H1383 0.950 . S
H1380 C1376 0.950 . S
C1381 C1379 1.390 . S
C1381 C1382 1.387 . S
C1381 H1384 0.950 . S
C1382 C1381 1.387 . S
C1382 C1385 1.387 . S
H1383 C1379 0.950 . S
H1384 C1381 0.950 . S
C1385 C1376 1.390 . S
C1385 H1378 0.950 . S
C1385 C1382 1.387 . S
C1386 C1387 1.387 . S
C1386 H1390 0.950 . S
C1386 C1395 1.390 . S
C1387 C1386 1.387 . S
C1387 C1389 1.387 . S
H1388 C1395 0.950 . S
C1389 C1387 1.387 . S
C1389 C1391 1.390 . S
C1389 H1393 0.950 . S
H1390 C1386 0.950 . S
C1391 C1389 1.390 . S
C1391 C1392 1.387 . S
C1391 H1394 0.950 . S
C1392 C1391 1.387 . S
C1392 C1395 1.387 . S
H1393 C1389 0.950 . S
H1394 C1391 0.950 . S
C1395 C1386 1.390 . S
C1395 H1388 0.950 . S
C1395 C1392 1.387 . S
C1396 C1397 1.387 . S
C1396 H1400 0.950 . S
C1396 C1405 1.390 . S
C1397 C1396 1.387 . S
C1397 C1399 1.387 . S
H1398 C1405 0.950 . S
C1399 C1397 1.387 . S
C1399 C1401 1.390 . S
C1399 H1403 0.950 1_455 S
H1400 C1396 0.950 . S
C1401 C1399 1.390 . S
C1401 C1402 1.387 . S
C1401 H1404 0.950 1_455 S
C1402 C1401 1.387 . S
C1402 C1405 1.387 . S
H1403 C1399 0.950 1_655 S
H1404 C1401 0.950 1_655 S
C1405 C1396 1.390 . S
C1405 H1398 0.950 . S
C1405 C1402 1.387 . S
C1406 C1407 1.387 . S
C1406 H1410 0.950 . S
C1406 C1415 1.390 . S
C1407 C1406 1.387 . S
C1407 C1409 1.387 . S
H1408 C1415 0.950 . S
C1409 C1407 1.387 . S
C1409 C1411 1.390 . S
C1409 H1413 0.950 . S
H1410 C1406 0.950 . S
C1411 C1409 1.390 . S
C1411 C1412 1.387 . S
C1411 H1414 0.950 . S
C1412 C1411 1.387 . S
C1412 C1415 1.387 . S
H1413 C1409 0.950 . S
H1414 C1411 0.950 . S
C1415 C1406 1.390 . S
C1415 H1408 0.950 . S
C1415 C1412 1.387 . S
C1416 C1417 1.387 . S
C1416 H1420 0.950 . S
C1416 C1425 1.390 . S
C1417 C1416 1.387 . S
C1417 C1419 1.387 . S
H1418 C1425 0.950 . S
C1419 C1417 1.387 . S
C1419 C1421 1.390 . S
C1419 H1423 0.950 . S
H1420 C1416 0.950 . S
C1421 C1419 1.390 . S
C1421 C1422 1.387 . S
C1421 H1424 0.950 . S
C1422 C1421 1.387 . S
C1422 C1425 1.387 . S
H1423 C1419 0.950 . S
H1424 C1421 0.950 . S
C1425 C1416 1.390 . S
C1425 H1418 0.950 . S
C1425 C1422 1.387 . S
C1426 C1427 1.387 . S
C1426 H1430 0.950 . S
C1426 C1435 1.390 . S
C1427 C1426 1.387 . S
C1427 C1429 1.387 . S
H1428 C1435 0.950 . S
C1429 C1427 1.387 . S
C1429 C1431 1.390 . S
C1429 H1433 0.950 . S
H1430 C1426 0.950 . S
C1431 C1429 1.390 . S
C1431 C1432 1.387 . S
C1431 H1434 0.950 . S
C1432 C1431 1.387 . S
C1432 C1435 1.387 . S
H1433 C1429 0.950 . S
H1434 C1431 0.950 . S
C1435 C1426 1.390 . S
C1435 H1428 0.950 . S
C1435 C1432 1.387 . S
C1436 C1437 1.387 . S
C1436 H1440 0.950 . S
C1436 C1445 1.390 . S
C1437 C1436 1.387 . S
C1437 C1439 1.387 . S
H1438 C1445 0.950 . S
C1439 C1437 1.387 . S
C1439 C1441 1.390 . S
C1439 H1443 0.950 . S
H1440 C1436 0.950 . S
C1441 C1439 1.390 . S
C1441 C1442 1.387 . S
C1441 H1444 0.950 . S
C1442 C1441 1.387 . S
C1442 C1445 1.387 . S
H1443 C1439 0.950 . S
H1444 C1441 0.950 . S
C1445 C1436 1.390 . S
C1445 H1438 0.950 . S
C1445 C1442 1.387 . S
C1446 C1447 1.387 . S
C1446 H1450 0.950 . S
C1446 C1455 1.390 . S
C1447 C1446 1.387 . S
C1447 C1449 1.387 . S
H1448 C1455 0.950 . S
C1449 C1447 1.387 . S
C1449 C1451 1.390 . S
C1449 H1453 0.950 . S
H1450 C1446 0.950 . S
C1451 C1449 1.390 . S
C1451 C1452 1.387 . S
C1451 H1454 0.950 . S
C1452 C1451 1.387 . S
C1452 C1455 1.387 . S
H1453 C1449 0.950 . S
H1454 C1451 0.950 . S
C1455 C1446 1.390 . S
C1455 H1448 0.950 . S
C1455 C1452 1.387 . S
C1456 C1457 1.387 . S
C1456 H1460 0.950 . S
C1456 C1465 1.390 . S
C1457 C1456 1.387 . S
C1457 C1459 1.387 . S
H1458 C1465 0.950 . S
C1459 C1457 1.387 . S
C1459 C1461 1.390 . S
C1459 H1463 0.950 . S
H1460 C1456 0.950 . S
C1461 C1459 1.390 . S
C1461 C1462 1.387 . S
C1461 H1464 0.950 . S
C1462 C1461 1.387 . S
C1462 C1465 1.387 . S
H1463 C1459 0.950 . S
H1464 C1461 0.950 . S
C1465 C1456 1.390 . S
C1465 H1458 0.950 . S
C1465 C1462 1.387 . S
C1466 C1467 1.387 . S
C1466 H1470 0.950 . S
C1466 C1475 1.390 . S
C1467 C1466 1.387 . S
C1467 C1469 1.387 . S
H1468 C1475 0.950 . S
C1469 C1467 1.387 . S
C1469 C1471 1.390 . S
C1469 H1473 0.950 . S
H1470 C1466 0.950 . S
C1471 C1469 1.390 . S
C1471 C1472 1.387 . S
C1471 H1474 0.950 . S
C1472 C1471 1.387 . S
C1472 C1475 1.387 . S
H1473 C1469 0.950 . S
H1474 C1471 0.950 . S
C1475 C1466 1.390 . S
C1475 H1468 0.950 . S
C1475 C1472 1.387 . S
C1476 C1477 1.387 . S
C1476 H1480 0.950 . S
C1476 C1485 1.390 . S
C1477 C1476 1.387 . S
C1477 C1479 1.387 . S
H1478 C1485 0.950 1_455 S
C1479 C1477 1.387 . S
C1479 C1481 1.390 . S
C1479 H1483 0.950 . S
H1480 C1476 0.950 . S
C1481 C1479 1.390 . S
C1481 C1482 1.387 . S
C1481 H1484 0.950 . S
C1482 C1481 1.387 . S
C1482 C1485 1.387 . S
H1483 C1479 0.950 . S
H1484 C1481 0.950 . S
C1485 C1476 1.390 . S
C1485 H1478 0.950 1_655 S
C1485 C1482 1.387 . S
C1486 C1487 1.387 . S
C1486 H1490 0.950 . S
C1486 C1495 1.390 . S
C1487 C1486 1.387 . S
C1487 C1489 1.387 . S
H1488 C1495 0.950 . S
C1489 C1487 1.387 . S
C1489 C1491 1.390 . S
C1489 H1493 0.950 . S
H1490 C1486 0.950 . S
C1491 C1489 1.390 . S
C1491 C1492 1.387 . S
C1491 H1494 0.950 . S
C1492 C1491 1.387 . S
C1492 C1495 1.387 . S
H1493 C1489 0.950 . S
H1494 C1491 0.950 . S
C1495 C1486 1.390 . S
C1495 H1488 0.950 . S
C1495 C1492 1.387 . S
C1496 C1497 1.387 . S
C1496 H1500 0.950 . S
C1496 C1505 1.390 . S
C1497 C1496 1.387 . S
C1497 C1499 1.387 . S
H1498 C1505 0.950 . S
C1499 C1497 1.387 . S
C1499 C1501 1.390 . S
C1499 H1503 0.950 . S
H1500 C1496 0.950 . S
C1501 C1499 1.390 . S
C1501 C1502 1.387 . S
C1501 H1504 0.950 . S
C1502 C1501 1.387 . S
C1502 C1505 1.387 . S
H1503 C1499 0.950 . S
H1504 C1501 0.950 . S
C1505 C1496 1.390 . S
C1505 H1498 0.950 . S
C1505 C1502 1.387 . S
C1506 C1507 1.387 . S
C1506 H1510 0.950 . S
C1506 C1515 1.390 . S
C1507 C1506 1.387 . S
C1507 C1509 1.387 . S
H1508 C1515 0.950 . S
C1509 C1507 1.387 . S
C1509 C1511 1.390 . S
C1509 H1513 0.950 . S
H1510 C1506 0.950 . S
C1511 C1509 1.390 . S
C1511 C1512 1.387 . S
C1511 H1514 0.950 . S
C1512 C1511 1.387 . S
C1512 C1515 1.387 . S
H1513 C1509 0.950 . S
H1514 C1511 0.950 . S
C1515 C1506 1.390 . S
C1515 H1508 0.950 . S
C1515 C1512 1.387 . S
C1516 C1517 1.387 . S
C1516 H1520 0.950 . S
C1516 C1525 1.390 . S
C1517 C1516 1.387 . S
C1517 C1519 1.387 . S
H1518 C1525 0.950 . S
C1519 C1517 1.387 . S
C1519 C1521 1.390 . S
C1519 H1523 0.950 . S
H1520 C1516 0.950 . S
C1521 C1519 1.390 . S
C1521 C1522 1.387 . S
C1521 H1524 0.950 . S
C1522 C1521 1.387 . S
C1522 C1525 1.387 . S
H1523 C1519 0.950 . S
H1524 C1521 0.950 . S
C1525 C1516 1.390 . S
C1525 H1518 0.950 . S
C1525 C1522 1.387 . S
C1526 C1527 1.387 . S
C1526 H1530 0.950 . S
C1526 C1535 1.390 . S
C1527 C1526 1.387 . S
C1527 C1529 1.387 . S
H1528 C1535 0.950 . S
C1529 C1527 1.387 . S
C1529 C1531 1.390 . S
C1529 H1533 0.950 . S
H1530 C1526 0.950 . S
C1531 C1529 1.390 . S
C1531 C1532 1.387 . S
C1531 H1534 0.950 . S
C1532 C1531 1.387 . S
C1532 C1535 1.387 . S
H1533 C1529 0.950 . S
H1534 C1531 0.950 . S
C1535 C1526 1.390 . S
C1535 H1528 0.950 . S
C1535 C1532 1.387 . S
C1536 C1537 1.387 . S
C1536 H1540 0.950 . S
C1536 C1545 1.390 . S
C1537 C1536 1.387 . S
C1537 C1539 1.387 . S
H1538 C1545 0.950 . S
C1539 C1537 1.387 . S
C1539 C1541 1.390 . S
C1539 H1543 0.950 . S
H1540 C1536 0.950 . S
C1541 C1539 1.390 . S
C1541 C1542 1.387 . S
C1541 H1544 0.950 . S
C1542 C1541 1.387 . S
C1542 C1545 1.387 . S
H1543 C1539 0.950 . S
H1544 C1541 0.950 . S
C1545 C1536 1.390 . S
C1545 H1538 0.950 . S
C1545 C1542 1.387 . S
C1546 C1547 1.387 . S
C1546 H1550 0.950 . S
C1546 C1555 1.390 . S
C1547 C1546 1.387 . S
C1547 C1549 1.387 . S
H1548 C1555 0.950 . S
C1549 C1547 1.387 . S
C1549 C1551 1.390 . S
C1549 H1553 0.950 . S
H1550 C1546 0.950 . S
C1551 C1549 1.390 . S
C1551 C1552 1.387 . S
C1551 H1554 0.950 1_565 S
C1552 C1551 1.387 . S
C1552 C1555 1.387 . S
H1553 C1549 0.950 . S
H1554 C1551 0.950 1_545 S
C1555 C1546 1.390 . S
C1555 H1548 0.950 . S
C1555 C1552 1.387 . S
C1556 C1557 1.387 . S
C1556 H1560 0.950 . S
C1556 C1565 1.390 . S
C1557 C1556 1.387 . S
C1557 C1559 1.387 . S
H1558 C1565 0.950 . S
C1559 C1557 1.387 . S
C1559 C1561 1.390 . S
C1559 H1563 0.950 . S
H1560 C1556 0.950 . S
C1561 C1559 1.390 . S
C1561 C1562 1.387 . S
C1561 H1564 0.950 . S
C1562 C1561 1.387 . S
C1562 C1565 1.387 . S
H1563 C1559 0.950 . S
H1564 C1561 0.950 . S
C1565 C1556 1.390 . S
C1565 H1558 0.950 . S
C1565 C1562 1.387 . S
C1566 C1567 1.387 . S
C1566 H1570 0.950 . S
C1566 C1575 1.390 . S
C1567 C1566 1.387 . S
C1567 C1569 1.387 . S
H1568 C1575 0.950 . S
C1569 C1567 1.387 . S
C1569 C1571 1.390 . S
C1569 H1573 0.950 1_554 S
H1570 C1566 0.950 . S
C1571 C1569 1.390 . S
C1571 C1572 1.387 . S
C1571 H1574 0.950 1_554 S
C1572 C1571 1.387 . S
C1572 C1575 1.387 . S
H1573 C1569 0.950 1_556 S
H1574 C1571 0.950 1_556 S
C1575 C1566 1.390 . S
C1575 H1568 0.950 . S
C1575 C1572 1.387 . S
C1576 C1577 1.387 . S
C1576 H1580 0.950 . S
C1576 C1585 1.390 . S
C1577 C1576 1.387 . S
C1577 C1579 1.387 . S
H1578 C1585 0.950 . S
C1579 C1577 1.387 . S
C1579 C1581 1.390 . S
C1579 H1583 0.950 . S
H1580 C1576 0.950 . S
C1581 C1579 1.390 . S
C1581 C1582 1.387 . S
C1581 H1584 0.950 . S
C1582 C1581 1.387 . S
C1582 C1585 1.387 . S
H1583 C1579 0.950 . S
H1584 C1581 0.950 . S
C1585 C1576 1.390 . S
C1585 H1578 0.950 . S
C1585 C1582 1.387 . S
C1586 C1587 1.387 . S
C1586 H1590 0.950 . S
C1586 C1595 1.390 . S
C1587 C1586 1.387 . S
C1587 C1589 1.387 . S
H1588 C1595 0.950 1_556 S
C1589 C1587 1.387 . S
C1589 C1591 1.390 . S
C1589 H1593 0.950 . S
H1590 C1586 0.950 . S
C1591 C1589 1.390 . S
C1591 C1592 1.387 . S
C1591 H1594 0.950 . S
C1592 C1591 1.387 . S
C1592 C1595 1.387 . S
H1593 C1589 0.950 . S
H1594 C1591 0.950 . S
C1595 C1586 1.390 . S
C1595 H1588 0.950 1_554 S
C1595 C1592 1.387 . S
C1596 C1597 1.387 . S
C1596 H1600 0.950 . S
C1596 C1605 1.390 . S
C1597 C1596 1.387 . S
C1597 C1599 1.387 . S
H1598 C1605 0.950 . S
C1599 C1597 1.387 . S
C1599 C1601 1.390 . S
C1599 H1603 0.950 . S
H1600 C1596 0.950 . S
C1601 C1599 1.390 . S
C1601 C1602 1.387 . S
C1601 H1604 0.950 . S
C1602 C1601 1.387 . S
C1602 C1605 1.387 . S
H1603 C1599 0.950 . S
H1604 C1601 0.950 . S
C1605 C1596 1.390 . S
C1605 H1598 0.950 . S
C1605 C1602 1.387 . S
C1606 C1607 1.387 . S
C1606 H1610 0.950 . S
C1606 C1615 1.390 . S
C1607 C1606 1.387 . S
C1607 C1609 1.387 . S
H1608 C1615 0.950 . S
C1609 C1607 1.387 . S
C1609 C1611 1.390 . S
C1609 H1613 0.950 . S
H1610 C1606 0.950 . S
C1611 C1609 1.390 . S
C1611 C1612 1.387 . S
C1611 H1614 0.950 . S
C1612 C1611 1.387 . S
C1612 C1615 1.387 . S
H1613 C1609 0.950 . S
H1614 C1611 0.950 . S
C1615 C1606 1.390 . S
C1615 H1608 0.950 . S
C1615 C1612 1.387 . S
C657 C106 1.968 . S
C662 C340 1.616 1_556 S
C667 C65 1.551 . S
C672 C375 1.512 . S
C677 C79 1.603 . S
C682 C380 1.402 . S
C692 C405 1.212 . S
C687 C90 1.255 . S
C697 C21 1.283 . S
C702 C425 1.237 . S
C712 C440 1.156 . S
C707 C35 1.230 . S
C722 C475 1.567 . S
C717 C50 1.616 . S
C727 C6 1.552 . S
C732 C480 1.356 . S
C742 C355 1.876 1_655 S
C737 C232 2.029 1_545 S
C747 C245 1.116 . S
C752 C365 1.075 . S
C762 C395 1.463 . S
C757 C274 1.524 . S
C772 C400 1.214 . S
C767 C175 1.281 . S
C777 C231 1.153 . S
C782 C420 1.106 . S
C792 C455 1.409 . S
C787 C246 1.471 . S
C802 C465 0.969 . S
C797 C273 0.999 . S
C812 C495 1.827 . S
C807 C176 1.982 . S
C822 C345 1.417 . S
C817 C160 1.573 . S
C827 C289 1.778 1_554 S
C832 C515 1.732 . S
C842 C525 1.483 . S
C837 C328 1.553 . S
C852 C540 1.236 . S
C847 C317 1.368 . S
C857 C118 1.566 . S
C862 C485 1.404 . S
C867 C132 1.549 . S
C872 C385 1.478 . S
C877 C331 1.839 . S
C882 C575 1.805 . S
C892 C580 1.255 . S
C887 C303 1.376 . S
C902 C338 1.254 . S
C897 C63 1.493 . S
C912 C594 1.888 . S
C907 C107 1.877 . S
C917 C92 1.341 . S
C922 C378 1.209 . S
C927 C78 1.704 . S
C932 C568 1.618 . S
C942 C428 1.618 . S
C937 C8 1.704 . S
C947 C51 1.342 . S
C952 C518 1.205 . S
C962 C474 1.888 1_556 S
C957 C37 1.871 . S
C972 C598 1.260 . S
C967 C20 1.496 . S
C982 C354 1.626 . S
C977 C147 1.656 . S
C992 C588 1.203 . S
C987 C316 1.319 . S
C997 C119 1.403 . S
C1002 C394 1.415 . S
C1007 C288 1.410 . S
C1012 C558 1.275 . S
C1017 C148 1.410 . S
C1022 C418 1.281 . S
C1032 C534 1.414 . S
C1027 C315 1.399 . S
C1037 C120 1.319 . S
C1042 C468 1.205 . S
C1047 C287 1.657 . S
C1052 C614 1.630 . S
C1057 C188 1.476 . S
C1062 C348 1.327 . S
C1067 C177 2.010 . S
C1072 C514 2.041 . S
C1077 C258 1.659 . S
C1082 C448 1.555 . S
C1087 C247 1.348 . S
C1092 C538 1.200 . S
C1102 C608 1.330 . S
C1097 C272 1.479 . S
C1107 C216 1.535 . S
C1112 C388 1.427 . S
C1122 C414 2.043 . S
C1117 C261 2.008 . S
C1132 C358 1.199 . S
C1127 C205 1.348 . S
C1137 C76 1.553 . S
C1142 C620 1.358 . S
C1152 C595 1.567 . S
C1147 C93 1.616 . S
C1157 C105 1.230 1_455 S
C1162 C640 1.154 1_556 S
C1167 C62 1.281 . S
C1172 C565 1.232 . S
C1177 C49 1.252 . S
C1182 C505 1.208 . S
C1192 C520 1.400 . S
C1187 C9 1.603 . S
C1202 C555 1.512 . S
C1197 C22 1.543 1_455 S
C1212 C600 1.622 . S
C1207 C36 1.970 . S
C1222 C635 1.827 . S
C1217 C260 1.982 . S
C1227 C189 1.000 . S
C1232 C585 0.970 . S
C1242 C655 1.408 . S
C1237 C204 1.471 . S
C1252 C560 1.110 . S
C1247 C217 1.158 . S
C1262 C500 1.217 . S
C1257 C259 1.283 . S
C1267 C190 1.524 . S
C1272 C535 1.465 . S
C1282 C545 1.075 . S
C1277 C203 1.116 . S
C1287 C218 2.029 . S
C1292 C615 1.875 . S
C1302 C625 1.400 . S
C1297 C314 1.562 . S
C1307 C135 1.840 . S
C1312 C435 1.804 . S
C1322 C445 1.438 . S
C1317 C146 1.513 . S
C1332 C460 1.259 . S
C1327 C163 1.376 . S
C1342 C605 1.420 . S
C1337 C300 1.576 . S
C1347 C286 1.514 . S
C1352 C645 1.439 . S
C1362 C415 1.735 . S
C1357 C149 1.777 . S
C1372 C360 1.236 . S
C1367 C121 1.368 . S
C1377 C91 1.454 . S
C1382 C618 1.231 . S
C1392 C374 1.501 . S
C1387 C77 1.478 . S
C1397 C64 1.301 . S
C1402 C638 1.179 . S
C1407 C104 1.424 . S
C1412 C408 1.352 . S
C1417 C34 1.424 . S
C1422 C508 1.357 . S
C1432 C438 1.182 . S
C1427 C23 1.300 . S
C1437 C7 1.481 . S
C1442 C554 1.501 . S
C1447 C48 1.453 . S
C1452 C478 1.230 . S
C1462 C634 1.599 . S
C1457 C329 1.627 . S
C1467 C162 1.307 . S
C1472 C368 1.205 . S
C1482 C654 1.413 1_655 S
C1477 C301 1.402 . S
C1487 C134 1.407 . S
C1492 C398 1.284 . S
C1497 C330 1.407 . S
C1502 C498 1.285 . S
C1512 C454 1.413 . S
C1507 C161 1.400 . S
C1517 C302 1.307 . S
C1522 C548 1.202 . S
C1532 C494 1.599 . S
C1527 C133 1.629 . S
C1542 C628 1.440 . S
C1537 C244 1.582 . S
C1552 C434 2.035 . S
C1547 C219 1.990 . S
C1557 C230 1.538 . S
C1562 C528 1.431 . S
C1572 C458 1.205 . S
C1567 C191 1.360 . S
C1577 C202 1.585 . S
C1582 C488 1.443 . S
C1587 C174 1.660 . S
C1592 C648 1.555 . S
C1602 C574 2.035 . S
C1597 C233 1.990 . S
C1612 C578 1.205 . S
C1607 C275 1.360 . S
