# Generated by pormake.
# Topology pth, (4,4)-cn, num edge types: 1
# Building blocks:
#     Node 0, Type 0, BuildingBlock: QUQFOY_clean_sbu_1, # of connection points: 4
#     Node 1, Type 0, BuildingBlock: QUQFOY_clean_sbu_1, # of connection points: 4
#     Node 2, Type 0, BuildingBlock: QUQFOY_clean_sbu_1, # of connection points: 4
#     Node 3, Type 1, BuildingBlock: MUDLON_clean_sbu_0, # of connection points: 4
#     Node 4, Type 1, BuildingBlock: MUDLON_clean_sbu_0, # of connection points: 4
#     Node 5, Type 1, BuildingBlock: MUDLON_clean_sbu_0, # of connection points: 4
#     Edge 6, Type (0, 1), BuildingBlock: KIFKEQ_clean_linker_1, # of connection points: 2
#     Edge 7, Type (0, 1), BuildingBlock: KIFKEQ_clean_linker_1, # of connection points: 2
#     Edge 8, Type (0, 1), BuildingBlock: KIFKEQ_clean_linker_1, # of connection points: 2
#     Edge 9, Type (0, 1), BuildingBlock: KIFKEQ_clean_linker_1, # of connection points: 2
#     Edge 10, Type (0, 1), BuildingBlock: KIFKEQ_clean_linker_1, # of connection points: 2
#     Edge 11, Type (0, 1), BuildingBlock: KIFKEQ_clean_linker_1, # of connection points: 2
#     Edge 12, Type (0, 1), BuildingBlock: KIFKEQ_clean_linker_1, # of connection points: 2
#     Edge 13, Type (0, 1), BuildingBlock: KIFKEQ_clean_linker_1, # of connection points: 2
#     Edge 14, Type (0, 1), BuildingBlock: KIFKEQ_clean_linker_1, # of connection points: 2
#     Edge 15, Type (0, 1), BuildingBlock: KIFKEQ_clean_linker_1, # of connection points: 2
#     Edge 16, Type (0, 1), BuildingBlock: KIFKEQ_clean_linker_1, # of connection points: 2
#     Edge 17, Type (0, 1), BuildingBlock: KIFKEQ_clean_linker_1, # of connection points: 2
# Relax obj value: 0.037
# Max RMSD: 0.129
# Mean RMSD: 0.076
data_MOF--net-pth--node1-QUQFOY_clean_sbu_1--node2-MUDLON_clean_sbu_0--edge1-KIFKEQ_clean_linker_1
_symmetry_space_group_name_H-M    P1
_symmetry_Int_Tables_number       1
_symmetry_cell_setting            triclinic
loop_
_symmetry_equiv_pos_as_xyz
'x, y, z'
_cell_length_a     22.280703
_cell_length_b     23.676908
_cell_length_c     62.576693
_cell_angle_alpha  90.043182
_cell_angle_beta   89.984376
_cell_angle_gamma 120.0476
loop_
_atom_site_label
_atom_site_type_symbol
_atom_site_fract_x
_atom_site_fract_y
_atom_site_fract_z
_atom_type_partial_charge
O0 O 0.08759 0.14102 0.06277 0.0
Cd1 Cd 0.99808 0.08364 0.08001 0.0
Cd2 Cd 0.05741 1.00808 0.08553 0.0
O3 O 0.14131 0.08722 0.0714 0.0
O4 O 0.95931 0.13881 0.09025 0.0
O5 O 1.00101 0.09264 0.1119 0.0
C6 C 0.97353 0.12908 0.10943 0.0
C7 C 0.07659 0.95781 0.11492 0.0
C8 C 0.14102 0.13473 0.06204 0.0
C9 C 0.92365 0.95282 0.05977 0.0
O10 O 0.97463 0.94701 0.06608 0.0
O11 O 0.92039 1.00336 0.06457 0.0
O12 O 0.09514 0.95214 0.09591 0.0
O13 O 0.04831 0.99352 0.11741 0.0
O14 O 0.9442 0.05578 0.44143 0.0
Cd15 Cd 0.03616 0.09351 0.42463 0.0
Cd16 Cd 1.00288 0.96503 0.42341 0.0
O17 O 0.92132 0.95371 0.44226 0.0
O18 O 0.06006 0.18318 0.41553 0.0
O19 O 0.03702 0.10351 0.39268 0.0
C20 C 0.05336 0.16343 0.39601 0.0
C21 C 0.9762 0.89366 0.39444 0.0
C22 C 0.90618 0.997 0.44747 0.0
C23 C 0.13834 0.06065 0.44418 0.0
O24 O 0.099 1.00236 0.43781 0.0
O25 O 0.12205 0.10423 0.44079 0.0
O26 O 0.97523 0.87475 0.41381 0.0
O27 O 0.993 0.95381 0.39141 0.0
O28 O 0.9054 1.00958 0.73755 0.0
Cd29 Cd 0.96194 0.96817 0.74866 0.0
Cd30 Cd 0.06569 0.09604 0.74599 0.0
O31 O 0.99203 0.10758 0.72963 0.0
O32 O 0.88798 0.87649 0.75461 0.0
O33 O 0.95905 0.94139 0.77957 0.0
C34 C 0.90782 0.88506 0.77425 0.0
C35 C 0.11783 0.16061 0.77607 0.0
C36 C 0.92777 0.06557 0.72923 0.0
C37 C 0.08749 0.99921 0.72171 0.0
O38 O 0.11581 0.05717 0.72893 0.0
O39 O 0.0257 0.95746 0.72694 0.0
O40 O 0.13694 0.18338 0.75701 0.0
O41 O 0.069 0.10052 0.77805 0.0
Mg42 Mg 1.00435 0.52874 0.2534 0.0
C43 C 1.01169 0.44569 0.28482 0.0
O44 O 0.94628 0.42375 0.27994 0.0
C45 C 0.02226 0.612 0.21747 0.0
O46 O 0.96039 0.56011 0.21564 0.0
C47 C 0.97967 0.41154 0.22889 0.0
O48 O 0.0377 0.42819 0.23906 0.0
O49 O 0.94974 0.44482 0.23179 0.0
O50 O 0.05757 0.49794 0.27584 0.0
O51 O 0.94487 0.55419 0.2753 0.0
C52 C 0.9327 0.60059 0.27198 0.0
O53 O 0.94485 0.62761 0.253 0.0
O54 O 0.06121 0.61365 0.23265 0.0
Mg55 Mg 0.50492 1.02204 0.58335 0.0
C56 C 0.50272 0.09581 0.5447 0.0
O57 O 0.54693 0.078 0.53827 0.0
C58 C 0.58087 0.02674 0.62137 0.0
O59 O 0.52767 0.96717 0.62009 0.0
C60 C 0.35725 0.96558 0.60021 0.0
O61 O 0.34942 0.99234 0.58283 0.0
O62 O 0.41344 0.965 0.60295 0.0
O63 O 0.48289 0.08596 0.56409 0.0
O64 O 0.53022 0.96795 0.56032 0.0
C65 C 0.57966 0.9565 0.56316 0.0
O66 O 0.61031 0.96887 0.58187 0.0
O67 O 0.58828 0.06736 0.60683 0.0
Mg68 Mg 0.53685 0.51751 0.92259 0.0
C69 C 0.41399 0.41941 0.89963 0.0
O70 O 0.43929 0.38659 0.90925 0.0
C71 C 0.63444 0.63079 0.94656 0.0
O72 O 0.66907 0.60471 0.93823 0.0
C73 C 0.52039 0.4464 0.96502 0.0
O74 O 0.55631 0.5059 0.97265 0.0
O75 O 0.5129 0.43805 0.9449 0.0
O76 O 0.44377 0.48088 0.90263 0.0
O77 O 0.6232 0.54778 0.90037 0.0
C78 C 0.61565 0.53652 0.8804 0.0
O79 O 0.55402 0.49472 0.87289 0.0
O80 O 0.56986 0.60429 0.94249 0.0
H81 H 0.03192 0.15045 0.149 0.0
H82 H 0.88792 0.18066 0.11148 0.0
H83 H 0.02027 0.21144 0.17829 0.0
H84 H 0.87258 0.23862 0.14129 0.0
H85 H 0.93822 0.41242 0.18792 0.0
H86 H 0.92717 0.33735 0.1594 0.0
H87 H 0.95472 0.21644 0.2057 0.0
H88 H 0.97063 0.29426 0.23365 0.0
C89 C 0.99657 0.16902 0.1472 0.0
C90 C 0.96118 0.16104 0.1279 0.0
C91 C 0.98927 0.2037 0.16411 0.0
C92 C 0.94518 0.23024 0.16237 0.0
C93 C 0.90797 0.22018 0.14321 0.0
C94 C 0.91637 0.18652 0.12613 0.0
C95 C 0.94021 0.36888 0.19194 0.0
C96 C 0.9555 0.35904 0.21287 0.0
C97 C 0.93391 0.32564 0.17562 0.0
C98 C 0.94147 0.27106 0.18003 0.0
C99 C 0.95101 0.25888 0.20143 0.0
C100 C 0.9591 0.30292 0.21756 0.0
H101 H 0.84336 0.06855 0.45582 0.0
H102 H 0.8343 0.88682 0.47172 0.0
H103 H 0.75276 0.04526 0.48202 0.0
H104 H 0.74379 0.86388 0.49804 0.0
H105 H 0.67761 0.91935 0.5635 0.0
H106 H 0.74669 0.91866 0.53334 0.0
H107 H 0.62615 0.96587 0.49059 0.0
H108 H 0.55659 0.96619 0.52069 0.0
C109 C 0.8215 0.02329 0.46472 0.0
C110 C 0.8464 0.97978 0.46177 0.0
C111 C 0.76925 1.00975 0.47962 0.0
C112 C 0.74131 0.95278 0.49209 0.0
C113 C 0.76469 0.90831 0.48872 0.0
C114 C 0.81631 0.92141 0.4736 0.0
C115 C 0.66479 0.92814 0.54761 0.0
C116 C 0.61205 0.94344 0.54455 0.0
C117 C 0.70424 0.92753 0.53032 0.0
C118 C 0.69223 0.9429 0.50966 0.0
C119 C 0.63699 0.95457 0.50639 0.0
C120 C 0.59692 0.95433 0.52364 0.0
H121 H 0.78111 0.77655 0.77004 0.0
H122 H 0.95282 0.87286 0.81391 0.0
H123 H 0.71903 0.68984 0.7957 0.0
H124 H 0.89224 0.78377 0.83941 0.0
H125 H 0.72511 0.65758 0.88909 0.0
H126 H 0.80084 0.73948 0.86355 0.0
H127 H 0.70856 0.59845 0.81245 0.0
H128 H 0.62978 0.51771 0.83801 0.0
C129 C 0.80607 0.77867 0.78511 0.0
C130 C 0.87177 0.83173 0.78997 0.0
C131 C 0.77068 0.72836 0.79982 0.0
C132 C 0.80046 0.72896 0.81972 0.0
C133 C 0.86695 0.78177 0.82443 0.0
C134 C 0.90195 0.83284 0.80979 0.0
C135 C 0.72179 0.64367 0.87244 0.0
C136 C 0.67086 0.58126 0.86553 0.0
C137 C 0.76557 0.6908 0.85772 0.0
C138 C 0.7604 0.67639 0.83574 0.0
C139 C 0.71278 0.61228 0.82911 0.0
C140 C 0.66804 0.56556 0.84379 0.0
H141 H 1.01376 0.93333 0.15403 0.0
H142 H 0.15311 0.89677 0.11623 0.0
H143 H 1.01008 0.85754 0.18122 0.0
H144 H 0.14982 0.82154 0.14359 0.0
H145 H 0.151 0.71669 0.20752 0.0
H146 H 0.17508 0.81098 0.18488 0.0
H147 H 0.9553 0.73221 0.17594 0.0
H148 H 0.9314 0.63871 0.19783 0.0
C149 C 0.04478 0.91028 0.15173 0.0
C150 C 0.08303 0.92041 0.13287 0.0
C151 C 0.04258 0.86686 0.16728 0.0
C152 C 0.0794 0.8335 0.16442 0.0
C153 C 0.12133 0.84692 0.14625 0.0
C154 C 0.12276 0.88964 0.13054 0.0
C155 C 0.10811 0.71987 0.2007 0.0
C156 C 0.03941 0.67008 0.2043 0.0
C157 C 0.12182 0.77362 0.1878 0.0
C158 C 0.06694 0.77904 0.17886 0.0
C159 C 0.99854 0.72978 0.18285 0.0
C160 C 0.98499 0.67584 0.19524 0.0
H161 H 0.20441 0.99006 0.44747 0.0
H162 H 0.21458 0.16778 0.46941 0.0
H163 H 0.30252 1.01237 0.47034 0.0
H164 H 0.31261 0.18968 0.49244 0.0
H165 H 0.40398 0.13051 0.55185 0.0
H166 H 0.32374 0.13233 0.52565 0.0
H167 H 0.43087 0.09431 0.47517 0.0
H168 H 0.51139 0.09282 0.50122 0.0
C169 C 0.22798 0.03419 0.45701 0.0
C170 C 0.2015 0.07699 0.45666 0.0
C171 C 0.28447 0.04718 0.47001 0.0
C172 C 0.3152 0.10282 0.48316 0.0
C173 C 0.28971 0.14634 0.48253 0.0
C174 C 0.2338 0.13386 0.46927 0.0
C175 C 0.41152 0.12414 0.53511 0.0
C176 C 0.46368 0.11081 0.52869 0.0
C177 C 0.36559 0.12528 0.5201 0.0
C178 C 0.37056 0.11256 0.49842 0.0
C179 C 0.42531 0.10337 0.49183 0.0
C180 C 0.47167 0.10294 0.50677 0.0
H181 H 0.08347 0.13114 0.81823 0.0
H182 H 0.22935 0.28434 0.77677 0.0
H183 H 0.14363 0.19756 0.84936 0.0
H184 H 0.29074 0.34985 0.80782 0.0
H185 H 0.37204 0.47177 0.86753 0.0
H186 H 0.29079 0.41201 0.8385 0.0
H187 H 0.25107 0.22977 0.8666 0.0
H188 H 0.32982 0.28882 0.89556 0.0
C189 C 0.1283 0.17902 0.81575 0.0
C190 C 0.152 0.20211 0.79502 0.0
C191 C 0.16295 0.21711 0.8336 0.0
C192 C 0.22245 0.27903 0.83116 0.0
C193 C 0.24468 0.30288 0.81037 0.0
C194 C 0.2098 0.26496 0.79252 0.0
C195 C 0.34466 0.41893 0.86769 0.0
C196 C 0.35778 0.38509 0.88375 0.0
C197 C 0.29862 0.38466 0.85097 0.0
C198 C 0.26465 0.31596 0.85008 0.0
C199 C 0.27543 0.28245 0.8668 0.0
C200 C 0.32123 0.31651 0.88338 0.0
H201 H 0.78993 1.01505 0.73638 0.0
H202 H 0.95556 0.14319 0.69407 0.0
H203 H 0.70563 1.01826 0.71244 0.0
H204 H 0.87093 0.14372 0.6694 0.0
H205 H 0.69751 0.14505 0.63063 0.0
H206 H 0.78148 0.16774 0.65942 0.0
H207 H 0.66306 0.96627 0.67947 0.0
H208 H 0.57945 0.94464 0.65168 0.0
C209 C 0.8083 0.04457 0.72205 0.0
C210 C 0.87909 0.07814 0.71693 0.0
C211 C 0.76002 0.04606 0.70822 0.0
C212 C 0.7812 0.07974 0.68865 0.0
C213 C 0.85264 0.11735 0.68431 0.0
C214 C 0.9012 0.11692 0.69842 0.0
C215 C 0.68939 0.10602 0.64139 0.0
C216 C 0.63176 0.0431 0.63886 0.0
C217 C 0.73752 0.1189 0.65782 0.0
C218 C 0.7288 0.06905 0.67197 0.0
C219 C 0.67079 1.00647 0.66936 0.0
C220 C 0.62293 0.99383 0.65316 0.0
H221 H 0.91631 0.84009 0.04617 0.0
H222 H 0.81189 0.95182 0.0406 0.0
H223 H 0.83978 0.76458 0.01916 0.0
H224 H 0.73503 0.87553 1.01331 0.0
H225 H 0.57784 0.67406 0.97741 0.0
H226 H 0.64125 0.75198 1.00638 0.0
H227 H 0.83482 0.78503 0.97964 0.0
H228 H 0.77268 0.70857 0.95109 0.0
C229 C 0.87661 0.84828 0.03937 0.0
C230 C 0.871 0.90264 0.04537 0.0
C231 C 0.83287 0.80505 0.02382 0.0
C232 C 0.78225 0.81486 1.0139 0.0
C233 C 0.77369 0.86692 0.0207 0.0
C234 C 0.81786 0.91062 0.03626 0.0
C235 C 0.63396 0.69901 0.97759 0.0
C236 C 0.67022 0.68455 0.96215 0.0
C237 C 0.67013 0.74332 0.99415 0.0
C238 C 0.7428 0.77328 0.99548 0.0
C239 C 0.77875 0.76141 0.97933 0.0
C240 C 0.74301 0.71776 0.9629 0.0
H241 H 1.00024 0.92176 0.35178 0.0
H242 H 0.91337 0.76103 0.39633 0.0
H243 H 0.97864 0.84589 0.32251 0.0
H244 H 0.88881 0.68477 0.36707 0.0
H245 H 0.94421 0.5823 0.31462 0.0
H246 H 0.94717 0.65066 0.344 0.0
H247 H 0.89646 0.76216 0.30039 0.0
H248 H 0.89646 0.69518 0.27079 0.0
C249 C 0.97561 0.8701 0.35527 0.0
C250 C 0.95915 0.84751 0.37639 0.0
C251 C 0.96264 0.82636 0.33846 0.0
C252 C 0.93206 0.75886 0.34233 0.0
C253 C 0.91367 0.73634 0.36345 0.0
C254 C 0.92746 0.78012 0.38026 0.0
C255 C 0.93242 0.62062 0.31133 0.0
C256 C 0.92067 0.63354 0.2903 0.0
C257 C 0.93395 0.65994 0.32825 0.0
C258 C 0.92292 0.71277 0.32464 0.0
C259 C 0.90695 0.72308 0.30375 0.0
C260 C 0.90617 0.68416 0.28678 0.0
H261 H 0.22697 0.06104 0.71419 0.0
H262 H 0.03208 0.89859 0.69303 0.0
H263 H 0.28698 0.0387 0.68562 0.0
H264 H 0.09229 0.8771 0.66422 0.0
H265 H 0.22718 0.95047 0.59977 0.0
H266 H 0.15834 0.94709 0.6307 0.0
H267 H 0.31157 0.94731 0.67291 0.0
H268 H 0.38001 0.94967 0.64211 0.0
C269 C 0.19707 1.02017 0.7036 0.0
C270 C 0.12479 0.98172 0.70584 0.0
C271 C 0.23146 1.00719 0.68732 0.0
C272 C 0.19416 0.95621 0.67273 0.0
C273 C 0.12215 0.91678 0.67524 0.0
C274 C 0.08786 0.92898 0.69177 0.0
C275 C 0.24536 0.94821 0.61562 0.0
C276 C 0.30928 0.95081 0.61846 0.0
C277 C 0.20589 0.94615 0.63332 0.0
C278 C 0.23011 0.94761 0.65416 0.0
C279 C 0.29211 0.94672 0.65699 0.0
C280 C 0.331 0.94767 0.63933 0.0
H281 H 0.27504 0.16009 0.06502 0.0
H282 H 0.14341 0.21157 0.02929 0.0
H283 H 0.37309 0.23112 0.04185 0.0
H284 H 0.24077 0.28094 1.00599 0.0
H285 H 0.40515 0.33111 0.95445 0.0
H286 H 0.31657 0.25368 0.97877 0.0
H287 H 0.44166 0.36188 0.0328 0.0
H288 H 0.53028 0.44069 1.00849 0.0
C289 C 0.26709 0.18661 0.05228 0.0
C290 C 0.20153 0.18034 0.04899 0.0
C291 C 0.32312 0.22713 0.03908 0.0
C292 C 0.31405 0.26076 0.02207 0.0
C293 C 0.24877 0.25486 0.01888 0.0
C294 C 0.19327 0.21559 0.03232 0.0
C295 C 0.41473 0.33778 0.97149 0.0
C296 C 0.47464 0.39241 0.97955 0.0
C297 C 0.36371 0.29365 0.98539 0.0
C298 C 0.37213 0.30244 1.00759 0.0
C299 C 0.43408 0.3542 0.01571 0.0
C300 C 0.48468 0.39917 1.00181 0.0
H301 H 0.02706 0.13342 0.35354 0.0
H302 H 0.09791 0.29387 0.39807 0.0
H303 H 0.02916 0.20425 0.32483 0.0
H304 H 0.09954 0.36438 0.36939 0.0
H305 H 0.13088 0.48484 0.30839 0.0
H306 H 0.15292 0.41829 0.33393 0.0
H307 H 0.95343 0.25178 0.31874 0.0
H308 H 0.93163 0.31731 0.29361 0.0
C309 C 0.04387 0.18394 0.35716 0.0
C310 C 0.06145 0.20775 0.37814 0.0
C311 C 0.04497 0.22448 0.34073 0.0
C312 C 0.06409 0.28979 0.34489 0.0
C313 C 0.08511 0.31448 0.36564 0.0
C314 C 0.08357 0.27385 0.3821 0.0
C315 C 0.0923 0.43386 0.31042 0.0
C316 C 0.02933 0.40648 0.29916 0.0
C317 C 0.10473 0.39589 0.32505 0.0
C318 C 0.05495 0.32973 0.32829 0.0
C319 C 0.99321 0.30225 0.31644 0.0
C320 C 0.98047 0.34013 0.30217 0.0
loop_
_geom_bond_atom_site_label_1
_geom_bond_atom_site_label_2
_geom_bond_distance
_geom_bond_site_symmetry_2
_ccdc_geom_bond_type
O0 Cd1 2.223 1_455 S
O0 C8 1.315 . S
Cd1 O0 2.223 1_655 S
Cd1 O4 2.297 . S
Cd1 O5 2.439 . S
Cd1 O11 2.240 1_545 S
Cd2 O3 2.240 1_565 S
Cd2 O10 2.223 1_455 S
Cd2 O12 2.297 . S
Cd2 O13 2.439 . S
O3 Cd2 2.240 1_545 S
O3 C8 1.279 . S
O4 Cd1 2.297 . S
O4 C6 1.247 . S
O5 Cd1 2.439 . S
O5 C6 1.208 . S
C6 O4 1.247 . S
C6 O5 1.208 . S
C7 O12 1.247 . S
C7 O13 1.208 . S
C8 O0 1.315 . S
C8 O3 1.279 . S
C9 O10 1.315 . S
C9 O11 1.279 . S
O10 Cd2 2.223 1_655 S
O10 C9 1.315 . S
O11 Cd1 2.240 1_565 S
O11 C9 1.279 . S
O12 Cd2 2.297 . S
O12 C7 1.247 . S
O13 Cd2 2.439 . S
O13 C7 1.208 . S
O14 Cd15 2.223 1_655 S
O14 C22 1.315 . S
Cd15 O14 2.223 1_455 S
Cd15 O18 2.297 . S
Cd15 O19 2.439 . S
Cd15 O25 2.240 . S
Cd16 O17 2.240 . S
Cd16 O24 2.223 1_655 S
Cd16 O26 2.297 . S
Cd16 O27 2.439 . S
O17 Cd16 2.240 . S
O17 C22 1.279 1_565 S
O18 Cd15 2.297 . S
O18 C20 1.247 . S
O19 Cd15 2.439 . S
O19 C20 1.208 . S
C20 O18 1.247 . S
C20 O19 1.208 . S
C21 O26 1.247 . S
C21 O27 1.208 . S
C22 O14 1.315 . S
C22 O17 1.279 1_545 S
C23 O24 1.315 . S
C23 O25 1.279 1_565 S
O24 Cd16 2.223 1_455 S
O24 C23 1.315 . S
O25 Cd15 2.240 . S
O25 C23 1.279 1_545 S
O26 Cd16 2.297 . S
O26 C21 1.247 . S
O27 Cd16 2.439 . S
O27 C21 1.208 . S
O28 Cd29 2.223 . S
O28 C36 1.315 . S
Cd29 O28 2.223 . S
Cd29 O32 2.297 . S
Cd29 O33 2.439 . S
Cd29 O39 2.240 1_655 S
Cd30 O31 2.240 1_455 S
Cd30 O38 2.223 . S
Cd30 O40 2.297 . S
Cd30 O41 2.439 . S
O31 Cd30 2.240 1_655 S
O31 C36 1.279 1_545 S
O32 Cd29 2.297 . S
O32 C34 1.247 . S
O33 Cd29 2.439 . S
O33 C34 1.208 . S
C34 O32 1.247 . S
C34 O33 1.208 . S
C35 O40 1.247 . S
C35 O41 1.208 . S
C36 O28 1.315 . S
C36 O31 1.279 1_565 S
C37 O38 1.315 . S
C37 O39 1.279 1_545 S
O38 Cd30 2.223 . S
O38 C37 1.315 . S
O39 Cd29 2.240 1_455 S
O39 C37 1.279 1_565 S
O40 Cd30 2.297 . S
O40 C35 1.247 . S
O41 Cd30 2.439 . S
O41 C35 1.208 . S
Mg42 O49 2.141 . S
Mg42 O50 2.048 . S
Mg42 O51 2.048 . S
Mg42 O54 2.141 . S
C43 O44 1.313 . S
C43 O50 1.195 1_655 S
O44 C43 1.313 . S
C45 O46 1.245 . S
C45 O54 1.289 1_655 S
O46 C45 1.245 . S
C47 O48 1.245 . S
C47 O49 1.289 1_655 S
O48 C47 1.245 . S
O49 Mg42 2.141 . S
O49 C47 1.289 1_455 S
O50 Mg42 2.048 . S
O50 C43 1.195 1_455 S
O51 Mg42 2.048 . S
O51 C52 1.195 1_455 S
C52 O51 1.195 1_655 S
C52 O53 1.313 . S
O53 C52 1.313 . S
O54 Mg42 2.141 . S
O54 C45 1.289 1_455 S
Mg55 O62 2.141 . S
Mg55 O63 2.048 . S
Mg55 O64 2.048 . S
Mg55 O67 2.141 . S
C56 O57 1.313 . S
C56 O63 1.195 1_565 S
O57 C56 1.313 . S
C58 O59 1.245 . S
C58 O67 1.289 1_565 S
O59 C58 1.245 . S
C60 O61 1.245 . S
C60 O62 1.289 1_565 S
O61 C60 1.245 . S
O62 Mg55 2.141 . S
O62 C60 1.289 1_545 S
O63 Mg55 2.048 . S
O63 C56 1.195 1_545 S
O64 Mg55 2.048 . S
O64 C65 1.195 1_545 S
C65 O64 1.195 1_565 S
C65 O66 1.313 . S
O66 C65 1.313 . S
O67 Mg55 2.141 . S
O67 C58 1.289 1_545 S
Mg68 O75 2.141 . S
Mg68 O76 2.048 . S
Mg68 O77 2.048 . S
Mg68 O80 2.141 . S
C69 O70 1.313 . S
C69 O76 1.195 . S
O70 C69 1.313 . S
C71 O72 1.245 . S
C71 O80 1.289 . S
O72 C71 1.245 . S
C73 O74 1.245 . S
C73 O75 1.289 . S
O74 C73 1.245 . S
O75 Mg68 2.141 . S
O75 C73 1.289 . S
O76 Mg68 2.048 . S
O76 C69 1.195 . S
O77 Mg68 2.048 . S
O77 C78 1.195 . S
C78 O77 1.195 . S
C78 O79 1.313 . S
O79 C78 1.313 . S
O80 Mg68 2.141 . S
O80 C71 1.289 . S
H81 C89 0.950 . S
H82 C94 0.950 . S
H83 C91 0.950 . S
H84 C93 0.950 . S
H85 C95 0.950 . S
H86 C97 0.950 . S
H87 C99 0.950 . S
H88 C100 0.950 . S
C89 H81 0.950 . S
C89 C90 1.386 1_655 S
C89 C91 1.391 . S
C90 C89 1.386 1_455 S
C90 C94 1.393 . S
C91 H83 0.950 . S
C91 C89 1.391 . S
C91 C92 1.400 1_655 S
C92 C91 1.400 1_455 S
C92 C93 1.398 . S
C92 C98 1.491 1_455 S
C93 H84 0.950 . S
C93 C92 1.398 . S
C93 C94 1.391 . S
C94 H82 0.950 . S
C94 C90 1.393 . S
C94 C93 1.391 . S
C95 H85 0.950 . S
C95 C96 1.386 1_455 S
C95 C97 1.391 . S
C96 C95 1.386 1_655 S
C96 C100 1.393 . S
C97 H86 0.950 . S
C97 C95 1.391 . S
C97 C98 1.400 1_455 S
C98 C92 1.491 1_655 S
C98 C97 1.400 1_655 S
C98 C99 1.398 . S
C99 H87 0.950 . S
C99 C98 1.398 . S
C99 C100 1.391 . S
C100 H88 0.950 . S
C100 C96 1.393 . S
C100 C99 1.391 . S
H101 C109 0.950 . S
H102 C114 0.950 . S
H103 C111 0.950 . S
H104 C113 0.950 . S
H105 C115 0.950 . S
H106 C117 0.950 . S
H107 C119 0.950 . S
H108 C120 0.950 . S
C109 H101 0.950 . S
C109 C110 1.386 . S
C109 C111 1.391 . S
C110 C109 1.386 . S
C110 C114 1.393 1_545 S
C111 H103 0.950 . S
C111 C109 1.391 . S
C111 C112 1.400 . S
C112 C111 1.400 . S
C112 C113 1.398 1_545 S
C112 C118 1.491 . S
C113 H104 0.950 . S
C113 C112 1.398 1_565 S
C113 C114 1.391 . S
C114 H102 0.950 . S
C114 C110 1.393 1_565 S
C114 C113 1.391 . S
C115 H105 0.950 . S
C115 C116 1.388 . S
C115 C117 1.391 . S
C116 C115 1.388 . S
C116 C120 1.392 1_565 S
C117 H106 0.950 . S
C117 C115 1.391 . S
C117 C118 1.400 1_565 S
C118 C112 1.491 . S
C118 C117 1.400 1_545 S
C118 C119 1.398 . S
C119 H107 0.950 . S
C119 C118 1.398 . S
C119 C120 1.391 . S
C120 H108 0.950 . S
C120 C116 1.392 1_545 S
C120 C119 1.391 . S
H121 C129 0.950 . S
H122 C134 0.950 . S
H123 C131 0.950 . S
H124 C133 0.950 . S
H125 C135 0.950 . S
H126 C137 0.950 . S
H127 C139 0.950 . S
H128 C140 0.950 . S
C129 H121 0.950 . S
C129 C130 1.386 . S
C129 C131 1.391 . S
C130 C129 1.386 . S
C130 C134 1.393 . S
C131 H123 0.950 . S
C131 C129 1.391 . S
C131 C132 1.400 . S
C132 C131 1.400 . S
C132 C133 1.398 . S
C132 C138 1.491 . S
C133 H124 0.950 . S
C133 C132 1.398 . S
C133 C134 1.391 . S
C134 H122 0.950 . S
C134 C130 1.393 . S
C134 C133 1.391 . S
C135 H125 0.950 . S
C135 C136 1.386 . S
C135 C137 1.391 . S
C136 C135 1.386 . S
C136 C140 1.393 . S
C137 H126 0.950 . S
C137 C135 1.391 . S
C137 C138 1.400 . S
C138 C132 1.491 . S
C138 C137 1.400 . S
C138 C139 1.398 . S
C139 H127 0.950 . S
C139 C138 1.398 . S
C139 C140 1.391 . S
C140 H128 0.950 . S
C140 C136 1.393 . S
C140 C139 1.391 . S
H141 C149 0.950 . S
H142 C154 0.950 . S
H143 C151 0.950 . S
H144 C153 0.950 . S
H145 C155 0.950 . S
H146 C157 0.950 . S
H147 C159 0.950 . S
H148 C160 0.950 . S
C149 H141 0.950 . S
C149 C150 1.395 . S
C149 C151 1.391 . S
C150 C149 1.395 . S
C150 C154 1.378 1_655 S
C151 H143 0.950 . S
C151 C149 1.391 . S
C151 C152 1.406 . S
C152 C151 1.406 . S
C152 C153 1.395 1_655 S
C152 C158 1.484 1_655 S
C153 H144 0.950 . S
C153 C152 1.395 1_455 S
C153 C154 1.391 . S
C154 H142 0.950 . S
C154 C150 1.378 1_455 S
C154 C153 1.391 . S
C155 H145 0.950 . S
C155 C156 1.386 . S
C155 C157 1.391 . S
C156 C155 1.386 . S
C156 C160 1.393 1_455 S
C157 H146 0.950 . S
C157 C155 1.391 . S
C157 C158 1.412 . S
C158 C152 1.484 1_455 S
C158 C157 1.412 . S
C158 C159 1.391 1_455 S
C159 H147 0.950 . S
C159 C158 1.391 1_655 S
C159 C160 1.391 . S
C160 H148 0.950 . S
C160 C156 1.393 1_655 S
C160 C159 1.391 . S
H161 C169 0.950 . S
H162 C174 0.950 . S
H163 C171 0.950 . S
H164 C173 0.950 . S
H165 C175 0.950 . S
H166 C177 0.950 . S
H167 C179 0.950 . S
H168 C180 0.950 . S
C169 H161 0.950 . S
C169 C170 1.386 . S
C169 C171 1.391 . S
C170 C169 1.386 . S
C170 C174 1.393 1_565 S
C171 H163 0.950 . S
C171 C169 1.391 . S
C171 C172 1.400 . S
C172 C171 1.400 . S
C172 C173 1.398 1_565 S
C172 C178 1.491 . S
C173 H164 0.950 . S
C173 C172 1.398 1_545 S
C173 C174 1.391 . S
C174 H162 0.950 . S
C174 C170 1.393 1_545 S
C174 C173 1.391 . S
C175 H165 0.950 . S
C175 C176 1.396 . S
C175 C177 1.391 . S
C176 C175 1.396 . S
C176 C180 1.389 1_545 S
C177 H166 0.950 . S
C177 C175 1.391 . S
C177 C178 1.400 1_545 S
C178 C172 1.491 . S
C178 C177 1.400 1_565 S
C178 C179 1.398 . S
C179 H167 0.950 . S
C179 C178 1.398 . S
C179 C180 1.391 . S
C180 H168 0.950 . S
C180 C176 1.389 1_565 S
C180 C179 1.391 . S
H181 C189 0.950 . S
H182 C194 0.950 . S
H183 C191 0.950 . S
H184 C193 0.950 . S
H185 C195 0.950 . S
H186 C197 0.950 . S
H187 C199 0.950 . S
H188 C200 0.950 . S
C189 H181 0.950 . S
C189 C190 1.386 . S
C189 C191 1.391 . S
C190 C189 1.386 . S
C190 C194 1.393 . S
C191 H183 0.950 . S
C191 C189 1.391 . S
C191 C192 1.400 . S
C192 C191 1.400 . S
C192 C193 1.398 . S
C192 C198 1.491 . S
C193 H184 0.950 . S
C193 C192 1.398 . S
C193 C194 1.391 . S
C194 H182 0.950 . S
C194 C190 1.393 . S
C194 C193 1.391 . S
C195 H185 0.950 . S
C195 C196 1.386 . S
C195 C197 1.391 . S
C196 C195 1.386 . S
C196 C200 1.393 . S
C197 H186 0.950 . S
C197 C195 1.391 . S
C197 C198 1.400 . S
C198 C192 1.491 . S
C198 C197 1.400 . S
C198 C199 1.398 . S
C199 H187 0.950 . S
C199 C198 1.398 . S
C199 C200 1.391 . S
C200 H188 0.950 . S
C200 C196 1.393 . S
C200 C199 1.391 . S
H201 C209 0.950 . S
H202 C214 0.950 . S
H203 C211 0.950 . S
H204 C213 0.950 . S
H205 C215 0.950 . S
H206 C217 0.950 . S
H207 C219 0.950 . S
H208 C220 0.950 . S
C209 H201 0.950 . S
C209 C210 1.386 . S
C209 C211 1.391 . S
C210 C209 1.386 . S
C210 C214 1.393 1_565 S
C211 H203 0.950 . S
C211 C209 1.391 . S
C211 C212 1.400 . S
C212 C211 1.400 . S
C212 C213 1.398 1_565 S
C212 C218 1.491 . S
C213 H204 0.950 . S
C213 C212 1.398 1_545 S
C213 C214 1.391 . S
C214 H202 0.950 . S
C214 C210 1.393 1_545 S
C214 C213 1.391 . S
C215 H205 0.950 . S
C215 C216 1.386 1_545 S
C215 C217 1.391 . S
C216 C215 1.386 1_565 S
C216 C220 1.393 . S
C217 H206 0.950 . S
C217 C215 1.391 . S
C217 C218 1.400 1_545 S
C218 C212 1.491 . S
C218 C217 1.400 1_565 S
C218 C219 1.398 . S
C219 H207 0.950 . S
C219 C218 1.398 . S
C219 C220 1.391 . S
C220 H208 0.950 . S
C220 C216 1.393 . S
C220 C219 1.391 . S
H221 C229 0.950 . S
H222 C234 0.950 . S
H223 C231 0.950 . S
H224 C233 0.950 . S
H225 C235 0.950 . S
H226 C237 0.950 . S
H227 C239 0.950 . S
H228 C240 0.950 . S
C229 H221 0.950 . S
C229 C230 1.386 . S
C229 C231 1.391 . S
C230 C229 1.386 . S
C230 C234 1.393 . S
C231 H223 0.950 . S
C231 C229 1.391 . S
C231 C232 1.400 1_554 S
C232 C231 1.400 1_556 S
C232 C233 1.398 . S
C232 C238 1.491 . S
C233 H224 0.950 . S
C233 C232 1.398 . S
C233 C234 1.391 1_556 S
C234 H222 0.950 . S
C234 C230 1.393 . S
C234 C233 1.391 1_554 S
C235 H225 0.950 . S
C235 C236 1.386 . S
C235 C237 1.391 . S
C236 C235 1.386 . S
C236 C240 1.393 . S
C237 H226 0.950 . S
C237 C235 1.391 . S
C237 C238 1.400 . S
C238 C232 1.491 . S
C238 C237 1.400 . S
C238 C239 1.398 . S
C239 H227 0.950 . S
C239 C238 1.398 . S
C239 C240 1.391 . S
C240 H228 0.950 . S
C240 C236 1.393 . S
C240 C239 1.391 . S
H241 C249 0.950 . S
H242 C254 0.950 . S
H243 C251 0.950 . S
H244 C253 0.950 . S
H245 C255 0.950 . S
H246 C257 0.950 . S
H247 C259 0.950 . S
H248 C260 0.950 . S
C249 H241 0.950 . S
C249 C250 1.386 1_655 S
C249 C251 1.391 . S
C250 C249 1.386 1_455 S
C250 C254 1.393 . S
C251 H243 0.950 . S
C251 C249 1.391 . S
C251 C252 1.400 1_655 S
C252 C251 1.400 1_455 S
C252 C253 1.398 . S
C252 C258 1.491 . S
C253 H244 0.950 . S
C253 C252 1.398 . S
C253 C254 1.391 . S
C254 H242 0.950 . S
C254 C250 1.393 . S
C254 C253 1.391 . S
C255 H245 0.950 . S
C255 C256 1.386 1_455 S
C255 C257 1.391 . S
C256 C255 1.386 1_655 S
C256 C260 1.393 . S
C257 H246 0.950 . S
C257 C255 1.391 . S
C257 C258 1.400 . S
C258 C252 1.491 . S
C258 C257 1.400 . S
C258 C259 1.398 1_455 S
C259 H247 0.950 . S
C259 C258 1.398 1_655 S
C259 C260 1.391 . S
C260 H248 0.950 . S
C260 C256 1.393 . S
C260 C259 1.391 . S
H261 C269 0.950 . S
H262 C274 0.950 . S
H263 C271 0.950 . S
H264 C273 0.950 . S
H265 C275 0.950 . S
H266 C277 0.950 . S
H267 C279 0.950 . S
H268 C280 0.950 . S
C269 H261 0.950 . S
C269 C270 1.386 . S
C269 C271 1.391 . S
C270 C269 1.386 . S
C270 C274 1.393 1_545 S
C271 H263 0.950 . S
C271 C269 1.391 . S
C271 C272 1.400 . S
C272 C271 1.400 . S
C272 C273 1.398 1_545 S
C272 C278 1.491 . S
C273 H264 0.950 . S
C273 C272 1.398 1_565 S
C273 C274 1.391 . S
C274 H262 0.950 . S
C274 C270 1.393 1_565 S
C274 C273 1.391 . S
C275 H265 0.950 . S
C275 C276 1.389 . S
C275 C277 1.391 . S
C276 C275 1.389 . S
C276 C280 1.387 1_565 S
C277 H266 0.950 . S
C277 C275 1.391 . S
C277 C278 1.400 1_565 S
C278 C272 1.491 . S
C278 C277 1.400 1_545 S
C278 C279 1.398 . S
C279 H267 0.950 . S
C279 C278 1.398 . S
C279 C280 1.391 . S
C280 H268 0.950 . S
C280 C276 1.387 1_545 S
C280 C279 1.391 . S
H281 C289 0.950 . S
H282 C294 0.950 . S
H283 C291 0.950 . S
H284 C293 0.950 . S
H285 C295 0.950 . S
H286 C297 0.950 . S
H287 C299 0.924 1_554 S
H288 C300 0.950 . S
C289 H281 0.950 . S
C289 C290 1.386 . S
C289 C291 1.391 . S
C290 C289 1.386 . S
C290 C294 1.393 . S
C291 H283 0.950 . S
C291 C289 1.391 . S
C291 C292 1.400 1_554 S
C292 C291 1.400 1_556 S
C292 C293 1.398 . S
C292 C298 1.491 . S
C293 H284 0.950 . S
C293 C292 1.398 . S
C293 C294 1.391 1_556 S
C294 H282 0.950 . S
C294 C290 1.393 . S
C294 C293 1.391 1_554 S
C295 H285 0.950 . S
C295 C296 1.386 . S
C295 C297 1.391 . S
C296 C295 1.386 . S
C296 C300 1.393 . S
C297 H286 0.950 . S
C297 C295 1.391 . S
C297 C298 1.400 . S
C298 C292 1.491 . S
C298 C297 1.400 . S
C298 C299 1.398 . S
C299 H287 0.924 1_556 S
C299 C298 1.398 . S
C299 C300 1.391 . S
C300 H288 0.950 . S
C300 C296 1.393 . S
C300 C299 1.391 . S
H301 C309 0.950 . S
H302 C314 0.950 . S
H303 C311 0.950 . S
H304 C313 0.950 . S
H305 C315 0.950 . S
H306 C317 0.950 . S
H307 C319 0.950 . S
H308 C320 0.950 . S
C309 H301 0.950 . S
C309 C310 1.386 . S
C309 C311 1.391 . S
C310 C309 1.386 . S
C310 C314 1.393 1_655 S
C311 H303 0.950 . S
C311 C309 1.391 . S
C311 C312 1.400 . S
C312 C311 1.400 . S
C312 C313 1.398 1_655 S
C312 C318 1.491 . S
C313 H304 0.950 . S
C313 C312 1.398 1_455 S
C313 C314 1.391 . S
C314 H302 0.950 . S
C314 C310 1.393 1_455 S
C314 C313 1.391 . S
C315 H305 0.950 . S
C315 C316 1.386 1_455 S
C315 C317 1.391 . S
C316 C315 1.386 1_655 S
C316 C320 1.392 . S
C317 H306 0.950 . S
C317 C315 1.391 . S
C317 C318 1.400 1_455 S
C318 C312 1.491 . S
C318 C317 1.400 1_655 S
C318 C319 1.398 . S
C319 H307 0.950 . S
C319 C318 1.398 . S
C319 C320 1.391 . S
C320 H308 0.950 . S
C320 C316 1.392 . S
C320 C319 1.391 . S
C96 C47 1.415 . S
C90 C6 1.423 1_455 S
C110 C22 1.537 . S
C116 C65 1.557 . S
C130 C34 1.293 . S
C136 C78 1.317 . S
C150 C7 1.420 1_655 S
C156 C45 1.425 1_455 S
C176 C56 1.551 1_545 S
C170 C23 1.534 . S
C190 C35 1.293 . S
C196 C69 1.307 . S
C216 C58 1.480 . S
C210 C36 1.491 . S
C230 C9 1.677 . S
C236 C71 1.691 . S
C256 C52 1.487 . S
C250 C21 1.487 1_455 S
C276 C60 1.491 . S
C270 C37 1.477 . S
C296 C73 1.697 . S
C290 C8 1.679 . S
C310 C20 1.475 1_655 S
C316 C43 1.488 . S
