# Generated by pormake.
# Topology ctn, (3,4)-cn, num edge types: 1
# Building blocks:
#     Node 0, Type 0, BuildingBlock: OLANEW_clean_sbu_2, # of connection points: 3
#     Node 1, Type 0, BuildingBlock: OLANEW_clean_sbu_2, # of connection points: 3
#     Node 2, Type 0, BuildingBlock: OLANEW_clean_sbu_2, # of connection points: 3
#     Node 3, Type 0, BuildingBlock: OLANEW_clean_sbu_2, # of connection points: 3
#     Node 4, Type 0, BuildingBlock: OLANEW_clean_sbu_2, # of connection points: 3
#     Node 5, Type 0, BuildingBlock: OLANEW_clean_sbu_2, # of connection points: 3
#     Node 6, Type 0, BuildingBlock: OLANEW_clean_sbu_2, # of connection points: 3
#     Node 7, Type 0, BuildingBlock: OLANEW_clean_sbu_2, # of connection points: 3
#     Node 8, Type 0, BuildingBlock: OLANEW_clean_sbu_2, # of connection points: 3
#     Node 9, Type 0, BuildingBlock: OLANEW_clean_sbu_2, # of connection points: 3
#     Node 10, Type 0, BuildingBlock: OLANEW_clean_sbu_2, # of connection points: 3
#     Node 11, Type 0, BuildingBlock: OLANEW_clean_sbu_2, # of connection points: 3
#     Node 12, Type 0, BuildingBlock: OLANEW_clean_sbu_2, # of connection points: 3
#     Node 13, Type 0, BuildingBlock: OLANEW_clean_sbu_2, # of connection points: 3
#     Node 14, Type 0, BuildingBlock: OLANEW_clean_sbu_2, # of connection points: 3
#     Node 15, Type 0, BuildingBlock: OLANEW_clean_sbu_2, # of connection points: 3
#     Node 16, Type 1, BuildingBlock: NAHDIM_clean_sbu_0, # of connection points: 4
#     Node 17, Type 1, BuildingBlock: NAHDIM_clean_sbu_0, # of connection points: 4
#     Node 18, Type 1, BuildingBlock: NAHDIM_clean_sbu_0, # of connection points: 4
#     Node 19, Type 1, BuildingBlock: NAHDIM_clean_sbu_0, # of connection points: 4
#     Node 20, Type 1, BuildingBlock: NAHDIM_clean_sbu_0, # of connection points: 4
#     Node 21, Type 1, BuildingBlock: NAHDIM_clean_sbu_0, # of connection points: 4
#     Node 22, Type 1, BuildingBlock: NAHDIM_clean_sbu_0, # of connection points: 4
#     Node 23, Type 1, BuildingBlock: NAHDIM_clean_sbu_0, # of connection points: 4
#     Node 24, Type 1, BuildingBlock: NAHDIM_clean_sbu_0, # of connection points: 4
#     Node 25, Type 1, BuildingBlock: NAHDIM_clean_sbu_0, # of connection points: 4
#     Node 26, Type 1, BuildingBlock: NAHDIM_clean_sbu_0, # of connection points: 4
#     Node 27, Type 1, BuildingBlock: NAHDIM_clean_sbu_0, # of connection points: 4
#     Edge 28, Type (0, 1), BuildingBlock: CIFDUS_clean_linker_0, # of connection points: 2
#     Edge 29, Type (0, 1), BuildingBlock: CIFDUS_clean_linker_0, # of connection points: 2
#     Edge 30, Type (0, 1), BuildingBlock: CIFDUS_clean_linker_0, # of connection points: 2
#     Edge 31, Type (0, 1), BuildingBlock: CIFDUS_clean_linker_0, # of connection points: 2
#     Edge 32, Type (0, 1), BuildingBlock: CIFDUS_clean_linker_0, # of connection points: 2
#     Edge 33, Type (0, 1), BuildingBlock: CIFDUS_clean_linker_0, # of connection points: 2
#     Edge 34, Type (0, 1), BuildingBlock: CIFDUS_clean_linker_0, # of connection points: 2
#     Edge 35, Type (0, 1), BuildingBlock: CIFDUS_clean_linker_0, # of connection points: 2
#     Edge 36, Type (0, 1), BuildingBlock: CIFDUS_clean_linker_0, # of connection points: 2
#     Edge 37, Type (0, 1), BuildingBlock: CIFDUS_clean_linker_0, # of connection points: 2
#     Edge 38, Type (0, 1), BuildingBlock: CIFDUS_clean_linker_0, # of connection points: 2
#     Edge 39, Type (0, 1), BuildingBlock: CIFDUS_clean_linker_0, # of connection points: 2
#     Edge 40, Type (0, 1), BuildingBlock: CIFDUS_clean_linker_0, # of connection points: 2
#     Edge 41, Type (0, 1), BuildingBlock: CIFDUS_clean_linker_0, # of connection points: 2
#     Edge 42, Type (0, 1), BuildingBlock: CIFDUS_clean_linker_0, # of connection points: 2
#     Edge 43, Type (0, 1), BuildingBlock: CIFDUS_clean_linker_0, # of connection points: 2
#     Edge 44, Type (0, 1), BuildingBlock: CIFDUS_clean_linker_0, # of connection points: 2
#     Edge 45, Type (0, 1), BuildingBlock: CIFDUS_clean_linker_0, # of connection points: 2
#     Edge 46, Type (0, 1), BuildingBlock: CIFDUS_clean_linker_0, # of connection points: 2
#     Edge 47, Type (0, 1), BuildingBlock: CIFDUS_clean_linker_0, # of connection points: 2
#     Edge 48, Type (0, 1), BuildingBlock: CIFDUS_clean_linker_0, # of connection points: 2
#     Edge 49, Type (0, 1), BuildingBlock: CIFDUS_clean_linker_0, # of connection points: 2
#     Edge 50, Type (0, 1), BuildingBlock: CIFDUS_clean_linker_0, # of connection points: 2
#     Edge 51, Type (0, 1), BuildingBlock: CIFDUS_clean_linker_0, # of connection points: 2
#     Edge 52, Type (0, 1), BuildingBlock: CIFDUS_clean_linker_0, # of connection points: 2
#     Edge 53, Type (0, 1), BuildingBlock: CIFDUS_clean_linker_0, # of connection points: 2
#     Edge 54, Type (0, 1), BuildingBlock: CIFDUS_clean_linker_0, # of connection points: 2
#     Edge 55, Type (0, 1), BuildingBlock: CIFDUS_clean_linker_0, # of connection points: 2
#     Edge 56, Type (0, 1), BuildingBlock: CIFDUS_clean_linker_0, # of connection points: 2
#     Edge 57, Type (0, 1), BuildingBlock: CIFDUS_clean_linker_0, # of connection points: 2
#     Edge 58, Type (0, 1), BuildingBlock: CIFDUS_clean_linker_0, # of connection points: 2
#     Edge 59, Type (0, 1), BuildingBlock: CIFDUS_clean_linker_0, # of connection points: 2
#     Edge 60, Type (0, 1), BuildingBlock: CIFDUS_clean_linker_0, # of connection points: 2
#     Edge 61, Type (0, 1), BuildingBlock: CIFDUS_clean_linker_0, # of connection points: 2
#     Edge 62, Type (0, 1), BuildingBlock: CIFDUS_clean_linker_0, # of connection points: 2
#     Edge 63, Type (0, 1), BuildingBlock: CIFDUS_clean_linker_0, # of connection points: 2
#     Edge 64, Type (0, 1), BuildingBlock: CIFDUS_clean_linker_0, # of connection points: 2
#     Edge 65, Type (0, 1), BuildingBlock: CIFDUS_clean_linker_0, # of connection points: 2
#     Edge 66, Type (0, 1), BuildingBlock: CIFDUS_clean_linker_0, # of connection points: 2
#     Edge 67, Type (0, 1), BuildingBlock: CIFDUS_clean_linker_0, # of connection points: 2
#     Edge 68, Type (0, 1), BuildingBlock: CIFDUS_clean_linker_0, # of connection points: 2
#     Edge 69, Type (0, 1), BuildingBlock: CIFDUS_clean_linker_0, # of connection points: 2
#     Edge 70, Type (0, 1), BuildingBlock: CIFDUS_clean_linker_0, # of connection points: 2
#     Edge 71, Type (0, 1), BuildingBlock: CIFDUS_clean_linker_0, # of connection points: 2
#     Edge 72, Type (0, 1), BuildingBlock: CIFDUS_clean_linker_0, # of connection points: 2
#     Edge 73, Type (0, 1), BuildingBlock: CIFDUS_clean_linker_0, # of connection points: 2
#     Edge 74, Type (0, 1), BuildingBlock: CIFDUS_clean_linker_0, # of connection points: 2
#     Edge 75, Type (0, 1), BuildingBlock: CIFDUS_clean_linker_0, # of connection points: 2
# Relax obj value: 0.052
# Max RMSD: 0.167
# Mean RMSD: 0.094
data_MOF--net-ctn--node1-OLANEW_clean_sbu_2--node2-NAHDIM_clean_sbu_0--edge1-CIFDUS_clean_linker_0
_symmetry_space_group_name_H-M    P1
_symmetry_Int_Tables_number       1
_symmetry_cell_setting            triclinic
loop_
_symmetry_equiv_pos_as_xyz
'x, y, z'
_cell_length_a     51.26196
_cell_length_b     53.35261
_cell_length_c     49.615776
_cell_angle_alpha  92.738269
_cell_angle_beta   94.81492
_cell_angle_gamma 98.413374
loop_
_atom_site_label
_atom_site_type_symbol
_atom_site_fract_x
_atom_site_fract_y
_atom_site_fract_z
_atom_type_partial_charge
O0 O 0.03202 0.03908 0.95468 0.0
Cd1 Cd 0.03186 -0.00669 0.95729 0.0
O2 O 0.01997 0.04055 -0.00407 0.0
Cd3 Cd 0.00879 0.05806 0.03316 0.0
O4 O 0.9942 0.06837 0.0716 0.0
C5 C 0.97083 0.05866 0.0757 0.0
O6 O 0.95658 0.04351 0.05655 0.0
C7 C 0.02496 0.05172 0.97445 0.0
C8 C 0.08116 0.97735 0.96626 0.0
O9 O 0.07164 0.98111 0.94232 0.0
O10 O 0.06767 0.98179 0.9861 0.0
O11 O 0.31823 0.73359 0.26145 0.0
Cd12 Cd 0.275 0.72445 0.2352 0.0
O13 O 0.32409 0.69352 0.25967 0.0
Cd14 Cd 0.28523 0.67809 0.23959 0.0
O15 O 0.25136 0.64782 0.23576 0.0
C16 C 0.24626 0.63761 0.25772 0.0
O17 O 0.26064 0.6466 0.28022 0.0
C18 C 0.33252 0.71662 0.26709 0.0
C19 C 0.27342 0.75218 0.18891 0.0
O20 O 0.26653 0.76096 0.21131 0.0
O21 O 0.28099 0.73032 0.18846 0.0
O22 O 0.98097 0.48182 0.10552 0.0
Cd23 Cd 0.95737 0.47374 0.06031 0.0
O24 O 0.99465 0.44455 0.10618 0.0
Cd25 Cd 0.97978 0.42951 0.06525 0.0
O26 O 0.98196 0.40117 0.03256 0.0
C27 C 0.9755 0.37787 0.03687 0.0
O28 O 0.96617 0.37192 0.05997 0.0
C29 C 0.99326 0.46602 0.11779 0.0
C30 C 0.92607 0.51135 0.04883 0.0
O31 O 0.91733 0.49189 0.06143 0.0
O32 O 0.94961 0.51302 0.04148 0.0
O33 O 0.76214 0.84044 0.22432 0.0
Cd34 Cd 0.73404 0.79921 0.22476 0.0
O35 O 0.73249 0.86152 0.24056 0.0
Cd36 Cd 0.70371 0.8281 0.24563 0.0
O37 O 0.67256 0.80378 0.26345 0.0
C38 C 0.67484 0.80301 0.28909 0.0
O39 O 0.69596 0.81588 0.30293 0.0
C40 C 0.7551 0.86139 0.23186 0.0
C41 C 0.74397 0.76421 0.18457 0.0
O42 O 0.72676 0.77904 0.17996 0.0
O43 O 0.7566 0.76602 0.20817 0.0
O44 O 0.07617 -0.00503 0.49574 0.0
Cd45 Cd 0.03176 0.97116 0.48386 0.0
O46 O 0.06274 0.03184 0.49006 0.0
Cd47 Cd 0.02229 0.01619 0.47444 0.0
O48 O 0.98677 0.01302 0.4462 0.0
C49 C 0.98962 0.0248 0.42471 0.0
O50 O 0.01307 0.03723 0.42122 0.0
C51 C 0.08117 0.01908 0.4965 0.0
C52 C 0.01783 0.93437 0.52047 0.0
O53 O 0.01235 0.95693 0.5239 0.0
O54 O 0.02994 0.92927 0.49977 0.0
O55 O 0.26247 0.7514 0.85408 0.0
Cd56 Cd 0.26 0.72717 0.81063 0.0
O57 O 0.22154 0.75555 0.84173 0.0
Cd58 Cd 0.18372 0.76991 0.84142 0.0
O59 O 0.14474 0.77754 0.82593 0.0
C60 C 0.14188 0.7816 0.8009 0.0
O61 O 0.16237 0.78174 0.78663 0.0
C62 C 0.24163 0.76036 0.85905 0.0
C63 C 0.27988 0.68138 0.81332 0.0
O64 O 0.29479 0.70192 0.80873 0.0
O65 O 0.25565 0.68262 0.81708 0.0
O66 O -0.00264 0.55084 0.46967 0.0
Cd67 Cd 0.96397 0.56706 0.49508 0.0
O68 O 0.03073 0.56084 0.50097 0.0
Cd69 Cd 0.00711 0.58033 0.52748 0.0
O70 O 0.99167 0.60839 0.55281 0.0
C71 C 0.98129 0.62596 0.54163 0.0
O72 O 0.97913 0.62606 0.51505 0.0
C73 C 0.02155 0.55079 0.47771 0.0
C74 C 0.92311 0.52737 0.49976 0.0
O75 O 0.92434 0.53962 0.4782 0.0
O76 O 0.94091 0.5342 0.51949 0.0
O77 O 0.78576 0.76128 0.86416 0.0
Cd78 Cd 0.78128 0.79301 0.83061 0.0
O79 O 0.74449 0.74276 0.85494 0.0
Cd80 Cd 0.73297 0.77279 0.83002 0.0
O81 O 0.71338 0.80482 0.81779 0.0
C82 C 0.72153 0.82668 0.82935 0.0
O83 O 0.74222 0.82953 0.84736 0.0
C84 C 0.7672 0.74346 0.8677 0.0
C85 C 0.81308 0.78757 0.78824 0.0
O86 O 0.82159 0.80234 0.80925 0.0
O87 O 0.7895 0.77538 0.78724 0.0
O88 O 0.28664 0.2459 0.35578 0.0
Cd89 Cd 0.29026 0.28233 0.32733 0.0
O90 O 0.24507 0.23261 0.34073 0.0
Cd91 Cd 0.24105 0.26621 0.31806 0.0
O92 O 0.22787 0.3014 0.30538 0.0
C93 C 0.21562 0.31301 0.32208 0.0
O94 O 0.21204 0.30354 0.34569 0.0
C95 C 0.26581 0.22962 0.35543 0.0
C96 C 0.32128 0.27629 0.28444 0.0
O97 O 0.33164 0.28646 0.30754 0.0
O98 O 0.29621 0.2689 0.28163 0.0
O99 O 0.49116 0.97238 0.60604 0.0
Cd100 Cd 0.46808 0.96984 0.56052 0.0
O101 O 0.51321 0.94125 0.59599 0.0
Cd102 Cd 0.4971 0.93227 0.55401 0.0
O103 O 0.49645 0.9073 0.51772 0.0
C104 C 0.49582 0.88385 0.52164 0.0
O105 O 0.49423 0.87642 0.5464 0.0
C106 C 0.50792 0.95795 0.61299 0.0
C107 C 0.43644 0.00794 0.55335 0.0
O108 O 0.42717 0.98652 0.56211 0.0
O109 O 0.46073 0.01139 0.54811 0.0
O110 O 0.26774 0.32342 0.72952 0.0
Cd111 Cd 0.23389 0.28571 0.72362 0.0
O112 O 0.23924 0.34905 0.73857 0.0
Cd113 Cd 0.2056 0.31909 0.73977 0.0
O114 O 0.17203 0.29991 0.75884 0.0
C115 C 0.15322 0.28405 0.74689 0.0
O116 O 0.15349 0.27783 0.72098 0.0
C117 C 0.26276 0.3457 0.73488 0.0
C118 C 0.24482 0.25129 0.68344 0.0
O119 O 0.2315 0.26917 0.6776 0.0
O120 O 0.25295 0.24964 0.70834 0.0
O121 O 0.81138 0.25146 0.78163 0.0
Cd122 Cd 0.76741 0.24331 0.75693 0.0
O123 O 0.81717 0.21144 0.77744 0.0
Cd124 Cd 0.77745 0.19653 0.75914 0.0
O125 O 0.74368 0.16615 0.7532 0.0
C126 C 0.73906 0.15351 0.77381 0.0
O127 O 0.75383 0.16027 0.79668 0.0
C128 C 0.82591 0.23434 0.78547 0.0
C129 C 0.76491 0.27536 0.71426 0.0
O130 O 0.75737 0.2815 0.73734 0.0
O131 O 0.77328 0.25399 0.71135 0.0
O132 O 0.53927 0.53205 0.4768 0.0
Cd133 Cd 0.54078 0.48853 0.48985 0.0
O134 O 0.52347 0.53783 0.51575 0.0
Cd135 Cd 0.50754 0.55691 0.54932 0.0
O136 O 0.48847 0.56535 0.58569 0.0
C137 C 0.48911 0.54985 0.60432 0.0
O138 O 0.50155 0.53023 0.60095 0.0
C139 C 0.52957 0.54637 0.49323 0.0
C140 C 0.59073 0.47468 0.5016 0.0
O141 O 0.5795 0.4724 0.47733 0.0
O142 O 0.57865 0.48426 0.52024 0.0
O143 O 0.5748 0.49451 0.01751 0.0
Cd144 Cd 0.53363 0.46612 0.00223 0.0
O145 O 0.5566 0.51819 0.04587 0.0
Cd146 Cd 0.51736 0.50148 0.02769 0.0
O147 O 0.49005 0.49823 0.99105 0.0
C148 C 0.50101 0.50454 0.96982 0.0
O149 O 0.5268 0.51157 0.97178 0.0
C150 C 0.57711 0.51256 0.03569 0.0
C151 C 0.52286 0.42598 0.03577 0.0
O152 O 0.53675 0.42401 0.01567 0.0
O153 O 0.51417 0.44701 0.04011 0.0
O154 O 0.74281 0.28197 0.3321 0.0
Cd155 Cd 0.72774 0.25306 0.29216 0.0
O156 O 0.71438 0.26173 0.35739 0.0
Cd157 Cd 0.6918 0.23999 0.32264 0.0
O158 O 0.65879 0.23565 0.29124 0.0
C159 C 0.65882 0.25195 0.27337 0.0
O160 O 0.67945 0.26976 0.27343 0.0
C161 C 0.73367 0.27915 0.355 0.0
C162 C 0.75001 0.20828 0.29233 0.0
O163 O 0.72864 0.20993 0.30352 0.0
O164 O 0.76098 0.22787 0.2813 0.0
O165 O 0.47345 0.03734 0.95232 0.0
Cd166 Cd 0.44732 0.05746 0.98379 0.0
O167 O 0.50577 0.03425 0.98348 0.0
Cd168 Cd 0.48773 0.05493 0.01416 0.0
O169 O 0.47575 0.08561 0.03871 0.0
C170 C 0.47726 0.10716 0.02859 0.0
O171 O 0.48515 0.10943 0.00418 0.0
C172 C 0.49563 0.03029 0.95908 0.0
C173 C 0.40449 0.02346 -0.00252 0.0
O174 O 0.40228 0.0372 0.97714 0.0
O175 O 0.427 0.02589 0.01146 0.0
C176 C 0.20724 0.91118 0.00921 0.0
O177 O 0.22346 0.9117 0.99002 0.0
O178 O 0.24514 0.85977 0.00042 0.0
Zn179 Zn 0.24597 0.88406 0.03327 0.0
O180 O 0.27673 0.91222 0.03235 0.0
C181 C 0.25924 0.84523 0.06861 0.0
O182 O 0.26882 0.83679 0.04679 0.0
O183 O 0.21256 0.8999 0.03054 0.0
C184 C 0.29833 0.91473 0.0475 0.0
O185 O 0.3014 0.89842 0.0661 0.0
C186 C 0.26629 0.85755 0.98941 0.0
O187 O 0.28872 0.87091 -0.00011 0.0
O188 O 0.24867 0.86536 0.0678 0.0
C189 C 0.14398 0.43543 0.3043 0.0
O190 O 0.14684 0.44483 0.28054 0.0
O191 O 0.08757 0.48336 0.33716 0.0
Zn192 Zn 0.11178 0.47491 0.3093 0.0
O193 O 0.13908 0.50573 0.30636 0.0
C194 C 0.07517 0.48039 0.26339 0.0
O195 O 0.07366 0.50195 0.2767 0.0
O196 O 0.1298 0.44539 0.32039 0.0
C197 C 0.1459 0.51381 0.28391 0.0
O198 O 0.13535 0.50139 0.26118 0.0
C199 C 0.09691 0.49249 0.3607 0.0
O200 O 0.12265 0.49568 0.36693 0.0
O201 O 0.0902 0.46564 0.27353 0.0
C202 C 0.81893 0.60555 0.02959 0.0
O203 O 0.82352 0.62055 0.00972 0.0
O204 O 0.77372 0.64417 -0.00325 0.0
Zn205 Zn 0.7689 0.62651 0.03177 0.0
O206 O 0.73463 0.602 0.0277 0.0
C207 C 0.7505 0.6686 0.05694 0.0
O208 O 0.73608 0.66631 0.03352 0.0
O209 O 0.79797 0.60588 0.04151 0.0
C210 C 0.71931 0.59819 0.04644 0.0
O211 O 0.72549 0.61091 0.06999 0.0
C212 C 0.7586 0.63683 0.97531 0.0
O213 O 0.74083 0.61645 0.9755 0.0
O214 O 0.76696 0.65328 0.06144 0.0
C215 C 0.82427 0.0881 0.27037 0.0
O216 O 0.81466 0.06876 0.28385 0.0
O217 O 0.88777 0.05249 0.27972 0.0
Zn218 Zn 0.85832 0.0534 0.2504 0.0
O219 O 0.83095 0.02224 0.25083 0.0
C220 C 0.89543 0.06436 0.20986 0.0
O221 O 0.90987 0.07827 0.22983 0.0
O222 O 0.84261 0.08562 0.25517 0.0
C223 C 0.83779 0.0012 0.24337 0.0
O224 O 0.8619 0.00104 0.23626 0.0
C225 C 0.88393 0.04147 0.30152 0.0
O226 O 0.85994 0.0306 0.30534 0.0
O227 O 0.87295 0.05249 0.21409 0.0
C228 C 0.32647 0.09932 0.53437 0.0
O229 O 0.33582 0.12102 0.52476 0.0
O230 O 0.28496 0.13875 0.49701 0.0
Zn231 Zn 0.27613 0.11903 0.52979 0.0
O232 O 0.2393 0.09915 0.52362 0.0
C233 C 0.28061 0.14011 0.58589 0.0
O234 O 0.28718 0.11807 0.59215 0.0
O235 O 0.30205 0.09477 0.53815 0.0
C236 C 0.21965 0.1112 0.523 0.0
O237 O 0.22405 0.13611 0.52588 0.0
C238 C 0.27164 0.13433 0.47403 0.0
O239 O 0.25209 0.11526 0.47068 0.0
O240 O 0.27597 0.14445 0.56112 0.0
C241 C 0.35273 0.55954 0.79922 0.0
O242 O 0.3378 0.53875 0.80522 0.0
O243 O 0.40929 0.51831 0.82122 0.0
Zn244 Zn 0.38892 0.52466 0.78642 0.0
O245 O 0.35868 0.49619 0.77725 0.0
C246 C 0.4134 0.54221 0.73861 0.0
O247 O 0.398 0.55976 0.74023 0.0
O248 O 0.37525 0.55801 0.79087 0.0
C249 C 0.36338 0.47461 0.76871 0.0
O250 O 0.388 0.47141 0.76609 0.0
C251 C 0.39756 0.51011 0.84135 0.0
O252 O 0.37156 0.50549 0.83925 0.0
O253 O 0.41298 0.52566 0.75623 0.0
C254 C 0.71978 0.42007 0.55991 0.0
O255 O 0.73139 0.42154 0.5847 0.0
O256 O 0.75763 0.3638 0.51454 0.0
Zn257 Zn 0.76082 0.38981 0.54601 0.0
O258 O 0.79389 0.41586 0.54663 0.0
C259 C 0.77607 0.3536 0.58122 0.0
O260 O 0.79011 0.34999 0.56079 0.0
O261 O 0.72888 0.40766 0.54129 0.0
C262 C 0.81188 0.41439 0.53073 0.0
O263 O 0.81002 0.39463 0.5135 0.0
C264 C 0.75645 0.36942 0.48992 0.0
O265 O 0.75803 0.39335 0.48413 0.0
O266 O 0.76142 0.37088 0.58024 0.0
C267 C 0.65662 0.95404 0.8231 0.0
O268 O 0.66704 0.97713 0.83233 0.0
O269 O 0.58852 0.98193 0.83735 0.0
Zn270 Zn 0.612 0.97928 0.80704 0.0
O271 O 0.63682 0.01241 0.80759 0.0
C272 C 0.57184 0.98786 0.76581 0.0
O273 O 0.56822 0.00568 0.78372 0.0
O274 O 0.63312 0.95023 0.81162 0.0
C275 C 0.64229 0.02382 0.78639 0.0
O276 O 0.63166 0.01374 0.7626 0.0
C277 C 0.59817 0.98477 0.86194 0.0
O278 O 0.62367 0.98477 0.86757 0.0
O279 O 0.58936 0.97387 0.77151 0.0
C280 C 0.01328 0.19158 0.9297 0.0
O281 O 0.99268 0.20008 0.93882 0.0
O282 O 0.98136 0.2274 0.87406 0.0
Zn283 Zn 0.01612 0.23592 0.89703 0.0
O284 O 0.01203 0.2625 0.9263 0.0
C285 C 0.04523 0.24138 0.84944 0.0
O286 O 0.02642 0.22346 0.83864 0.0
O287 O 0.02608 0.20402 0.91255 0.0
C288 C 0.02006 0.28583 0.92326 0.0
O289 O 0.03217 0.2921 0.90171 0.0
C290 C 0.96957 0.24504 0.86496 0.0
O291 O 0.98058 0.26876 0.87038 0.0
O292 O 0.04469 0.24953 0.87384 0.0
C293 C 0.51353 0.67769 0.42739 0.0
O294 O 0.49419 0.68809 0.43688 0.0
O295 O 0.48168 0.71153 0.36867 0.0
Zn296 Zn 0.51598 0.71994 0.39269 0.0
O297 O 0.51132 0.74534 0.42275 0.0
C298 C 0.54454 0.73114 0.34538 0.0
O299 O 0.52356 0.71747 0.33214 0.0
O300 O 0.52564 0.68803 0.4085 0.0
C301 C 0.51676 0.76911 0.42031 0.0
O302 O 0.52631 0.7773 0.39804 0.0
C303 C 0.47009 0.72897 0.35876 0.0
O304 O 0.48072 0.75277 0.36426 0.0
O305 O 0.54547 0.73459 0.371 0.0
C306 C 0.99201 0.81567 0.61237 0.0
O307 O 0.00258 0.79468 0.61129 0.0
O308 O 0.9452 0.79806 0.68347 0.0
Zn309 Zn 0.97308 0.79222 0.65832 0.0
O310 O 0.96503 0.75789 0.63797 0.0
C311 C 0.01077 0.79169 0.70568 0.0
O312 O 0.9895 0.78859 0.71892 0.0
O313 O 0.97744 0.81929 0.63128 0.0
C314 C 0.96853 0.73782 0.64971 0.0
O315 O 0.97556 0.73944 0.67589 0.0
C316 C 0.92248 0.78463 0.6827 0.0
O317 O 0.91568 0.76615 0.66384 0.0
O318 O 0.00829 0.79379 0.68021 0.0
C319 C 0.50309 0.29841 0.11503 0.0
O320 O 0.51381 0.27776 0.11121 0.0
O321 O 0.45468 0.2735 0.18299 0.0
Zn322 Zn 0.48127 0.26882 0.15607 0.0
O323 O 0.47046 0.23743 0.13096 0.0
C324 C 0.51545 0.25005 0.19642 0.0
O325 O 0.49267 0.23818 0.20268 0.0
O326 O 0.48765 0.29938 0.1337 0.0
C327 C 0.45946 0.21613 0.13805 0.0
O328 O 0.45263 0.21421 0.16288 0.0
C329 C 0.42965 0.26828 0.17854 0.0
O330 O 0.41912 0.25926 0.15433 0.0
O331 O 0.51567 0.26481 0.17705 0.0
H332 H 0.28373 0.7897 0.8867 0.0
H333 H 0.19948 0.76754 0.88757 0.0
H334 H 0.19953 0.79595 0.92766 0.0
H335 H 0.22363 0.82718 0.96255 0.0
H336 H 0.30814 0.84857 0.96189 0.0
H337 H 0.30787 0.82019 0.92187 0.0
C338 C 0.26538 0.79105 0.8957 0.0
C339 C 0.24153 0.77698 0.88377 0.0
C340 C 0.26562 0.80723 0.91889 0.0
C341 C 0.21794 0.77884 0.89573 0.0
C342 C 0.21802 0.79488 0.91888 0.0
C343 C 0.24199 0.82563 0.95367 0.0
C344 C 0.26585 0.84005 0.96523 0.0
C345 C 0.24173 0.80927 0.93056 0.0
C346 C 0.28947 0.83775 0.95345 0.0
C347 C 0.28936 0.82151 0.93053 0.0
H348 H 0.00771 0.52678 0.42789 0.0
H349 H 0.07481 0.54976 0.48692 0.0
H350 H 0.10386 0.53301 0.45629 0.0
H351 H 0.11046 0.51311 0.41217 0.0
H352 H 0.04322 0.49039 0.35321 0.0
H353 H 0.01403 0.50572 0.3845 0.0
C354 C 0.02867 0.52808 0.43415 0.0
C355 C 0.03903 0.53964 0.45966 0.0
C356 C 0.04528 0.51849 0.41643 0.0
C357 C 0.06626 0.54101 0.46741 0.0
C358 C 0.08292 0.53146 0.44988 0.0
C359 C 0.0894 0.5114 0.40619 0.0
C360 C 0.07911 0.50069 0.38031 0.0
C361 C 0.07268 0.52035 0.42425 0.0
C362 C 0.05174 0.49858 0.37296 0.0
C363 C 0.03499 0.50737 0.39084 0.0
H364 H 0.73627 0.69833 0.8727 0.0
H365 H 0.80761 0.74576 0.90788 0.0
H366 H 0.81215 0.71625 0.94358 0.0
H367 H 0.79417 0.67836 0.9665 0.0
H368 H 0.72317 0.63078 0.93051 0.0
H369 H 0.72037 0.65886 0.89342 0.0
C370 C 0.75292 0.70215 0.88807 0.0
C371 C 0.77141 0.72437 0.88775 0.0
C372 C 0.75544 0.6851 0.90849 0.0
C373 C 0.79305 0.72883 0.90764 0.0
C374 C 0.79562 0.712 0.92814 0.0
C375 C 0.77821 0.67402 0.95042 0.0
C376 C 0.75878 0.6526 0.95149 0.0
C377 C 0.77668 0.69028 0.92903 0.0
C378 C 0.73838 0.64715 0.93033 0.0
C379 C 0.73669 0.66325 0.90909 0.0
H380 H 0.99011 0.04818 0.37737 0.0
H381 H 0.93824 0.00205 0.42584 0.0
H382 H 0.90094 0.0032 0.39204 0.0
H383 H 0.88307 0.01753 0.34882 0.0
H384 H 0.93531 0.06356 0.30055 0.0
H385 H 0.97244 0.06222 0.33427 0.0
C386 C 0.97067 0.03834 0.38058 0.0
C387 C 0.967 0.02507 0.40414 0.0
C388 C 0.94935 0.03909 0.36112 0.0
C389 C 0.94164 0.01241 0.4079 0.0
C390 C 0.92029 0.01308 0.38859 0.0
C391 C 0.90256 0.0273 0.34567 0.0
C392 C 0.90634 0.04066 0.32218 0.0
C393 C 0.92391 0.02641 0.36515 0.0
C394 C 0.93179 0.05314 0.31843 0.0
C395 C 0.95306 0.05238 0.33771 0.0
H396 H 0.2684 0.20911 0.68986 0.0
H397 H 0.23402 0.25258 0.62878 0.0
H398 H 0.2429 0.22253 0.59332 0.0
H399 H 0.25963 0.18361 0.57963 0.0
H400 H 0.29308 0.13938 0.64054 0.0
H401 H 0.28543 0.17011 0.67606 0.0
C402 C 0.26291 0.21205 0.66879 0.0
C403 C 0.25054 0.23308 0.66202 0.0
C404 C 0.2679 0.19458 0.64845 0.0
C405 C 0.2435 0.23655 0.6346 0.0
C406 C 0.24859 0.21938 0.61428 0.0
C407 C 0.26541 0.18072 0.60066 0.0
C408 C 0.27695 0.15921 0.60738 0.0
C409 C 0.26069 0.19829 0.62098 0.0
C410 C 0.28414 0.15574 0.63477 0.0
C411 C 0.27976 0.17331 0.65511 0.0
H412 H 0.48559 0.51915 0.64639 0.0
H413 H 0.46089 0.58777 0.61732 0.0
H414 H 0.43596 0.59188 0.65674 0.0
H415 H 0.41998 0.57519 0.69865 0.0
H416 H 0.44457 0.50639 0.72738 0.0
H417 H 0.47078 0.50323 0.68889 0.0
C418 C 0.47486 0.53508 0.64869 0.0
C419 C 0.47503 0.55305 0.62883 0.0
C420 C 0.46047 0.53727 0.67131 0.0
C421 C 0.46105 0.57361 0.63224 0.0
C422 C 0.44676 0.57597 0.65477 0.0
C423 C 0.43114 0.55955 0.69656 0.0
C424 C 0.43019 0.54101 0.71585 0.0
C425 C 0.44613 0.55778 0.67431 0.0
C426 C 0.44488 0.52092 0.71285 0.0
C427 C 0.45988 0.51907 0.69081 0.0
H428 H 0.78729 0.27135 0.66693 0.0
H429 H 0.74145 0.31814 0.71113 0.0
H430 H 0.7408 0.34657 0.67393 0.0
H431 H 0.75325 0.35808 0.6287 0.0
H432 H 0.8001 0.31155 0.5854 0.0
H433 H 0.80039 0.2832 0.62243 0.0
C434 C 0.77708 0.28772 0.66842 0.0
C435 C 0.76434 0.29254 0.69172 0.0
C436 C 0.77702 0.30411 0.64713 0.0
C437 C 0.75141 0.31398 0.69341 0.0
C438 C 0.75102 0.33026 0.67214 0.0
C439 C 0.76354 0.34176 0.62739 0.0
C440 C 0.77659 0.33697 0.60425 0.0
C441 C 0.76377 0.32551 0.64889 0.0
C442 C 0.78992 0.31576 0.60295 0.0
C443 C 0.79007 0.29947 0.62411 0.0
H444 H 0.50154 0.99065 0.6553 0.0
H445 H 0.54508 0.93046 0.63318 0.0
H446 H 0.56808 0.93411 0.67843 0.0
H447 H 0.57643 0.95452 0.72405 0.0
H448 H 0.5334 0.01482 0.74672 0.0
H449 H 0.50961 0.01087 0.70156 0.0
C450 C 0.51603 0.97832 0.66038 0.0
C451 C 0.52154 0.96035 0.64076 0.0
C452 C 0.52931 0.98048 0.68656 0.0
C453 C 0.54039 0.9445 0.64778 0.0
C454 C 0.55361 0.94654 0.6737 0.0
C455 C 0.56179 0.96677 0.71919 0.0
C456 C 0.55675 0.98495 0.73877 0.0
C457 C 0.54828 0.96448 0.69321 0.0
C458 C 0.5377 0.00066 0.73206 0.0
C459 C 0.52409 -0.00157 0.70621 0.0
H460 H 0.85971 0.20173 0.80052 0.0
H461 H 0.85265 0.28146 0.80251 0.0
H462 H 0.89674 0.29179 0.8267 0.0
H463 H 0.93693 0.27812 0.84793 0.0
H464 H 0.9434 0.19828 0.84656 0.0
H465 H 0.89984 0.18812 0.82139 0.0
C466 C 0.86779 0.22141 0.80614 0.0
C467 C 0.85284 0.24078 0.79968 0.0
C468 C 0.89304 0.2272 0.82019 0.0
C469 C 0.86367 0.26615 0.80724 0.0
C470 C 0.8889 0.27208 0.82108 0.0
C471 C 0.92887 0.25849 0.84205 0.0
C472 C 0.94343 0.239 0.84914 0.0
C473 C 0.90371 0.25275 0.82775 0.0
C474 C 0.93262 0.21366 0.84143 0.0
C475 C 0.9077 0.20782 0.82702 0.0
H476 H 0.49318 0.83278 0.52354 0.0
H477 H 0.50544 0.89356 0.46941 0.0
H478 H 0.51309 0.8634 0.43337 0.0
H479 H 0.51733 0.81996 0.41758 0.0
H480 H 0.50443 0.75917 0.4716 0.0
H481 H 0.49608 0.78923 0.50737 0.0
C482 C 0.49742 0.83946 0.50383 0.0
C483 C 0.49882 0.86542 0.49924 0.0
C484 C 0.50183 0.82204 0.48322 0.0
C485 C 0.50422 0.87368 0.47352 0.0
C486 C 0.50868 0.85646 0.45291 0.0
C487 C 0.51275 0.81328 0.43719 0.0
C488 C 0.51167 0.78737 0.44194 0.0
C489 C 0.50775 0.83063 0.45761 0.0
C490 C 0.50543 0.77901 0.4674 0.0
C491 C 0.50065 0.79619 0.48787 0.0
H492 H 0.14604 0.29553 0.79932 0.0
H493 H 0.11042 0.24844 0.72879 0.0
H494 H 0.07377 0.23108 0.75425 0.0
H495 H 0.05191 0.22934 0.79664 0.0
H496 H 0.08784 0.27698 0.86675 0.0
H497 H 0.12428 0.29405 0.84123 0.0
C498 C 0.13031 0.28144 0.78945 0.0
C499 C 0.13104 0.27327 0.76218 0.0
C500 C 0.10932 0.27164 0.80413 0.0
C501 C 0.11039 0.25506 0.74976 0.0
C502 C 0.08941 0.24513 0.76431 0.0
C503 C 0.06771 0.24346 0.80634 0.0
C504 C 0.06711 0.25181 0.8336 0.0
C505 C 0.08867 0.25329 0.79152 0.0
C506 C 0.08774 0.27017 0.84581 0.0
C507 C 0.10864 0.27996 0.83125 0.0
H508 H 0.55549 0.57614 0.45815 0.0
H509 H 0.49135 0.57314 0.50942 0.0
H510 H 0.48188 0.61408 0.49492 0.0
H511 H 0.49033 0.64987 0.46595 0.0
H512 H 0.55312 0.65202 0.41291 0.0
H513 H 0.56434 0.61226 0.42954 0.0
C514 C 0.53958 0.58456 0.46631 0.0
C515 C 0.52469 0.57189 0.4855 0.0
C516 C 0.53376 0.60787 0.45728 0.0
C517 C 0.50394 0.58292 0.49563 0.0
C518 C 0.49819 0.6062 0.48695 0.0
C519 C 0.50654 0.64172 0.45809 0.0
C520 C 0.52078 0.65393 0.43814 0.0
C521 C 0.51283 0.61875 0.46763 0.0
C522 C 0.54175 0.64304 0.42821 0.0
C523 C 0.5482 0.62028 0.43772 0.0
H524 H 0.86209 0.81331 0.78295 0.0
H525 H 0.80214 0.75491 0.74321 0.0
H526 H 0.83039 0.74921 0.70682 0.0
H527 H 0.87247 0.76024 0.68666 0.0
H528 H 0.93224 0.81884 0.72642 0.0
H529 H 0.90364 0.82504 0.76227 0.0
C530 C 0.85517 0.79934 0.76632 0.0
C531 C 0.83005 0.78451 0.7659 0.0
C532 C 0.87148 0.79619 0.74541 0.0
C533 C 0.82138 0.76659 0.74409 0.0
C534 C 0.83754 0.76329 0.72326 0.0
C535 C 0.87922 0.77443 0.70311 0.0
C536 C 0.90452 0.789 0.7038 0.0
C537 C 0.86267 0.77791 0.72375 0.0
C538 C 0.91288 0.80735 0.72529 0.0
C539 C 0.89655 0.81089 0.74588 0.0
H540 H 0.02878 0.88601 0.51964 0.0
H541 H 0.99016 0.93874 0.56482 0.0
H542 H 0.97812 0.90655 0.59683 0.0
H543 H 0.97907 0.86353 0.61238 0.0
H544 H 0.0184 0.81123 0.56737 0.0
H545 H 0.02952 0.84312 0.53495 0.0
C546 C 0.0177 0.89049 0.53646 0.0
C547 C 0.01042 0.91478 0.5398 0.0
C548 C 0.01093 0.87194 0.55486 0.0
C549 C -0.00393 0.92022 0.56176 0.0
C550 C 0.98915 0.90181 0.58009 0.0
C551 C 0.98998 0.85907 0.59542 0.0
C552 C -0.00213 0.835 0.59237 0.0
C553 C -0.00347 0.87761 0.57688 0.0
C554 C 0.01209 0.8296 0.5703 0.0
C555 C 0.01849 0.84784 0.5517 0.0
H556 H 0.12987 0.78973 0.74805 0.0
H557 H 0.09496 0.78026 0.82382 0.0
H558 H 0.0514 0.78322 0.80118 0.0
H559 H 0.02305 0.78714 0.75956 0.0
H560 H 0.05825 0.79628 0.68386 0.0
H561 H 0.10187 0.79483 0.70687 0.0
C562 C 0.11278 0.78842 0.75968 0.0
C563 C 0.11569 0.78469 0.78758 0.0
C564 C 0.08781 0.78999 0.74653 0.0
C565 C 0.0933 0.78309 0.80231 0.0
C566 C 0.06836 0.78475 0.78937 0.0
C567 C 0.04026 0.78891 0.74809 0.0
C568 C 0.03731 0.79172 0.71999 0.0
C569 C 0.06535 0.78798 0.76144 0.0
C570 C 0.05988 0.79404 0.70549 0.0
C571 C 0.08487 0.7932 0.71862 0.0
H572 H 0.98372 0.63178 0.59671 0.0
H573 H 0.96282 0.66832 0.52387 0.0
H574 H 0.95508 0.70541 0.55099 0.0
H575 H 0.95738 0.72874 0.59517 0.0
H576 H 0.97878 0.69244 0.66801 0.0
H577 H 0.98292 0.65397 0.64109 0.0
C578 C 0.97725 0.64776 0.58675 0.0
C579 C 0.97413 0.64732 0.55826 0.0
C580 C 0.97301 0.66915 0.60246 0.0
C581 C 0.96554 0.66815 0.54574 0.0
C582 C 0.96114 0.68943 0.56124 0.0
C583 C 0.96267 0.71233 0.60521 0.0
C584 C 0.96798 0.7136 0.63358 0.0
C585 C 0.96529 0.69033 0.58959 0.0
C586 C 0.97469 0.69208 0.64621 0.0
C587 C 0.97714 0.67006 0.63082 0.0
H588 H 0.74643 0.90875 0.24774 0.0
H589 H 0.80501 0.86845 0.21497 0.0
H590 H 0.83559 0.90816 0.21559 0.0
H591 H 0.84595 0.95414 0.22601 0.0
H592 H 0.7874 -0.00561 0.25884 0.0
H593 H 0.75657 0.95476 0.25763 0.0
C594 C 0.76585 0.9086 0.24064 0.0
C595 C 0.77337 0.88558 0.23135 0.0
C596 C 0.78338 0.93147 0.24114 0.0
C597 C 0.79865 0.88585 0.22224 0.0
C598 C 0.81619 0.90856 0.22262 0.0
C599 C 0.82645 0.95428 0.23291 0.0
C600 C 0.81903 0.97722 0.24255 0.0
C601 C 0.80881 0.93145 0.23214 0.0
C602 C 0.79364 0.97702 0.25134 0.0
C603 C 0.77599 0.95437 0.25065 0.0
H604 H 0.79243 0.19793 0.26673 0.0
H605 H 0.73299 0.1646 0.31646 0.0
H606 H 0.75095 0.12467 0.31448 0.0
H607 H 0.78308 0.09894 0.29797 0.0
H608 H 0.84203 0.13227 0.24764 0.0
H609 H 0.82469 0.1724 0.25056 0.0
C610 C 0.78344 0.18198 0.27722 0.0
C611 C 0.76139 0.18429 0.2917 0.0
C612 C 0.79374 0.159 0.27585 0.0
C613 C 0.74997 0.16336 0.30512 0.0
C614 C 0.76022 0.14049 0.304 0.0
C615 C 0.79218 0.11499 0.28768 0.0
C616 C 0.81381 0.11252 0.27258 0.0
C617 C 0.78203 0.13805 0.28931 0.0
C618 C 0.82532 0.13355 0.25936 0.0
C619 C 0.81543 0.15656 0.26102 0.0
H620 H 0.40328 0.99114 0.03843 0.0
H621 H 0.35456 0.01454 0.97179 0.0
H622 H 0.31732 0.98361 0.98201 0.0
H623 H 0.29887 0.94927 0.00899 0.0
H624 H 0.34744 0.92531 0.07539 0.0
H625 H 0.38439 0.95723 0.06617 0.0
C626 C 0.3845 0.98954 0.02619 0.0
C627 C 0.38178 0.00511 0.00432 0.0
C628 C 0.36312 0.97161 0.03211 0.0
C629 C 0.35727 0.00278 0.9887 0.0
C630 C 0.33592 0.98508 0.99452 0.0
C631 C 0.31748 0.95107 0.02157 0.0
C632 C 0.32036 0.93485 0.04282 0.0
C633 C 0.33868 0.96931 0.01606 0.0
C634 C 0.34465 0.9375 0.05887 0.0
C635 C 0.36583 0.95574 0.0536 0.0
H636 H 0.18762 0.34084 0.3529 0.0
H637 H 0.21921 0.33767 0.27505 0.0
H638 H 0.20026 0.37551 0.26291 0.0
H639 H 0.17401 0.40901 0.27408 0.0
H640 H 0.14223 0.41177 0.35189 0.0
H641 H 0.16203 0.37458 0.36431 0.0
C642 C 0.19045 0.34842 0.33329 0.0
C643 C 0.20479 0.33636 0.31491 0.0
C644 C 0.17942 0.37011 0.32639 0.0
C645 C 0.20824 0.34653 0.28959 0.0
C646 C 0.19739 0.36817 0.28262 0.0
C647 C 0.17145 0.40153 0.29379 0.0
C648 C 0.15658 0.41318 0.31198 0.0
C649 C 0.18283 0.38004 0.30081 0.0
C650 C 0.15352 0.4032 0.33744 0.0
C651 C 0.16484 0.3819 0.34459 0.0
H652 H 0.09756 0.06998 0.50185 0.0
H653 H 0.12646 -0.00188 0.50684 0.0
H654 H 0.17184 0.02025 0.51569 0.0
H655 H 0.20343 0.06003 0.52074 0.0
H656 H 0.17407 0.13169 0.51585 0.0
H657 H 0.12877 0.10952 0.50818 0.0
C658 C 0.11373 0.05909 0.50498 0.0
C659 C 0.10855 0.03239 0.50357 0.0
C660 C 0.13975 0.0719 0.50996 0.0
C661 C 0.12982 0.01867 0.5078 0.0
C662 C 0.15581 0.03132 0.5128 0.0
C663 C 0.18712 0.0708 0.51801 0.0
C664 C 0.1922 0.0975 0.51875 0.0
C665 C 0.16103 0.05793 0.51368 0.0
C666 C 0.1708 0.11114 0.51534 0.0
C667 C 0.14485 0.09848 0.51095 0.0
H668 H 0.72487 0.12334 0.81425 0.0
H669 H 0.70767 0.132 0.72881 0.0
H670 H 0.676 0.09275 0.72524 0.0
H671 H 0.65413 0.05538 0.74615 0.0
H672 H 0.67149 0.04703 0.83166 0.0
H673 H 0.7022 0.08678 0.83535 0.0
C674 C 0.71414 0.11673 0.79484 0.0
C675 C 0.71873 0.13056 0.77182 0.0
C676 C 0.69606 0.09414 0.7929 0.0
C677 C 0.70454 0.12173 0.74687 0.0
C678 C 0.68646 0.09925 0.74478 0.0
C679 C 0.66462 0.06225 0.7656 0.0
C680 C 0.66058 0.04816 0.78855 0.0
C681 C 0.68224 0.08519 0.76762 0.0
C682 C 0.67422 0.05745 0.81364 0.0
C683 C 0.69181 0.08019 0.81579 0.0
H684 H 0.38461 0.00603 0.56254 0.0
H685 H 0.45029 0.05492 0.5345 0.0
H686 H 0.42226 0.08761 0.52659 0.0
H687 H 0.37891 0.1021 0.52695 0.0
H688 H 0.31328 0.05301 0.55485 0.0
H689 H 0.34152 0.02072 0.56351 0.0
C690 C 0.39284 0.02384 0.55474 0.0
C691 C 0.41952 0.02795 0.54909 0.0
C692 C 0.37661 0.04256 0.55018 0.0
C693 C 0.42982 0.0512 0.53902 0.0
C694 C 0.4138 0.06993 0.53447 0.0
C695 C 0.37078 0.08438 0.53498 0.0
C696 C 0.34396 0.08003 0.54017 0.0
C697 C 0.38713 0.06579 0.53987 0.0
C698 C 0.33381 0.05691 0.5506 0.0
C699 C 0.34996 0.03838 0.55557 0.0
H700 H 0.61794 0.47431 0.5512 0.0
H701 H 0.62072 0.4537 0.46637 0.0
H702 H 0.66104 0.43548 0.47696 0.0
H703 H 0.69458 0.42404 0.51027 0.0
H704 H 0.69207 0.4444 0.59517 0.0
H705 H 0.65258 0.46407 0.58453 0.0
C706 C 0.62746 0.466 0.535 0.0
C707 C 0.61623 0.46532 0.50803 0.0
C708 C 0.65061 0.45537 0.54124 0.0
C709 C 0.62886 0.45446 0.48731 0.0
C710 C 0.65192 0.44398 0.49334 0.0
C711 C 0.68545 0.4328 0.52649 0.0
C712 C 0.69622 0.43259 0.55351 0.0
C713 C 0.66279 0.44408 0.52024 0.0
C714 C 0.68419 0.44421 0.57421 0.0
C715 C 0.66158 0.45547 0.56814 0.0
H716 H 0.72676 0.27349 0.40815 0.0
H717 H 0.76224 0.32641 0.35371 0.0
H718 H 0.77298 0.359 0.39086 0.0
H719 H 0.76952 0.37333 0.43818 0.0
H720 H 0.73549 0.31985 0.49285 0.0
H721 H 0.72694 0.28663 0.45624 0.0
C722 C 0.73708 0.29208 0.40447 0.0
C723 C 0.74346 0.29758 0.37816 0.0
C724 C 0.74323 0.3107 0.42591 0.0
C725 C 0.75712 0.32166 0.37378 0.0
C726 C 0.76312 0.34037 0.39498 0.0
C727 C 0.7603 0.35437 0.44205 0.0
C728 C 0.75283 0.34912 0.46805 0.0
C729 C 0.75579 0.33526 0.421 0.0
C730 C 0.74135 0.32438 0.47296 0.0
C731 C 0.73641 0.30539 0.45204 0.0
H732 H 0.54505 0.01718 0.96567 0.0
H733 H 0.47914 0.01786 0.90563 0.0
H734 H 0.50448 0.00229 0.87061 0.0
H735 H 0.54622 0.99094 0.85652 0.0
H736 H 0.61247 0.99124 0.91639 0.0
H737 H 0.58603 0.00381 0.95195 0.0
C738 C 0.53611 0.01372 0.94498 0.0
C739 C 0.51026 0.01885 0.93832 0.0
C740 C 0.5509 0.00504 0.92484 0.0
C741 C 0.49903 0.01421 0.91136 0.0
C742 C 0.51352 0.00532 0.89128 0.0
C743 C 0.55483 -0.00647 0.87737 0.0
C744 C 0.58136 0.99029 0.88371 0.0
C745 C 0.53961 0.00105 0.89771 0.0
C746 C 0.59215 -0.00629 0.91087 0.0
C747 C 0.57705 0.00093 0.93125 0.0
H748 H 0.30163 0.22312 0.39736 0.0
H749 H 0.22797 0.18773 0.35383 0.0
H750 H 0.22441 0.15408 0.38552 0.0
H751 H 0.24056 0.13624 0.42724 0.0
H752 H 0.31315 0.17256 0.47204 0.0
H753 H 0.31883 0.20414 0.43811 0.0
C754 C 0.28494 0.20789 0.39461 0.0
C755 C 0.26505 0.20805 0.37328 0.0
C756 C 0.28273 0.18881 0.41323 0.0
C757 C 0.24351 0.1882 0.37013 0.0
C758 C 0.24143 0.16893 0.38826 0.0
C759 C 0.25779 0.15089 0.42946 0.0
C760 C 0.27633 0.15206 0.45223 0.0
C761 C 0.26068 0.16927 0.41015 0.0
C762 C 0.29849 0.17126 0.45479 0.0
C763 C 0.30175 0.18936 0.4354 0.0
H764 H 0.44726 0.49418 0.95909 0.0
H765 H 0.51935 0.5164 0.92138 0.0
H766 H 0.49377 0.51945 0.87835 0.0
H767 H 0.45108 0.51707 0.85164 0.0
H768 H 0.37876 0.49514 0.88897 0.0
H769 H 0.40431 0.49068 0.93183 0.0
C770 C 0.45737 0.49958 0.94143 0.0
C771 C 0.48519 0.50514 0.94354 0.0
C772 C 0.44252 0.50143 0.91666 0.0
C773 C 0.49797 0.51208 0.92042 0.0
C774 C 0.48336 0.51385 0.89575 0.0
C775 C 0.44086 0.51125 0.86911 0.0
C776 C 0.41303 0.50656 0.86708 0.0
C777 C 0.45565 0.50878 0.89369 0.0
C778 C 0.40017 0.49893 0.88994 0.0
C779 C 0.41477 0.49638 0.91449 0.0
H780 H 0.72032 0.75607 0.13312 0.0
H781 H 0.77863 0.72987 0.18843 0.0
H782 H 0.78611 0.69824 0.15381 0.0
H783 H 0.77565 0.67759 0.10797 0.0
H784 H 0.71717 0.70392 0.05291 0.0
H785 H 0.71029 0.73588 0.08728 0.0
C786 C 0.73471 0.74349 0.13762 0.0
C787 C 0.74885 0.74535 0.16337 0.0
C788 C 0.73889 0.72531 0.11765 0.0
C789 C 0.76744 0.72887 0.1688 0.0
C790 C 0.77173 0.71075 0.149 0.0
C791 C 0.76144 0.69035 0.10346 0.0
C792 C 0.74694 0.68828 0.07787 0.0
C793 C 0.75751 0.70873 0.12338 0.0
C794 C 0.72861 0.70501 0.07241 0.0
C795 C 0.72463 0.72333 0.09207 0.0
H796 H 0.92251 0.03967 0.09072 0.0
H797 H 0.99524 0.08835 0.11982 0.0
H798 H 0.97813 0.09489 0.1637 0.0
H799 H 0.94289 0.08592 0.19417 0.0
H800 H 0.87041 0.03688 0.16483 0.0
H801 H 0.8871 0.03142 0.12071 0.0
C802 C 0.93462 0.05179 0.1066 0.0
C803 C 0.96015 0.06343 0.10197 0.0
C804 C 0.92473 0.05537 0.1318 0.0
C805 C 0.97553 0.07911 0.12282 0.0
C806 C 0.96577 0.08285 0.14795 0.0
C807 C 0.93071 0.07411 0.17811 0.0
C808 C 0.90546 0.0618 0.18288 0.0
C809 C 0.94046 0.07094 0.15272 0.0
C810 C 0.88993 0.04657 0.16179 0.0
C811 C 0.89945 0.04341 0.13651 0.0
H812 H 0.25608 0.7977 0.18284 0.0
H813 H 0.28908 0.73946 0.13952 0.0
H814 H 0.28787 0.76325 0.09878 0.0
H815 H 0.27727 0.80034 0.07532 0.0
H816 H 0.24381 0.8585 0.1182 0.0
H817 H 0.24542 0.83496 0.15923 0.0
C818 C 0.26303 0.79021 0.1645 0.0
C819 C 0.27265 0.76681 0.16428 0.0
C820 C 0.2622 0.80396 0.14105 0.0
C821 C 0.28154 0.7574 0.1403 0.0
C822 C 0.28088 0.771 0.11696 0.0
C823 C 0.27036 0.80794 0.09363 0.0
C824 C 0.26044 0.83118 0.09364 0.0
C825 C 0.27123 0.79427 0.11709 0.0
C826 C 0.25152 0.84065 0.11758 0.0
C827 C 0.25244 0.8272 0.14107 0.0
H828 H 0.022 0.43704 0.14825 0.0
H829 H 0.99414 0.50962 0.14974 0.0
H830 H 0.01658 0.52027 0.19517 0.0
H831 H 0.0447 0.50917 0.23416 0.0
H832 H 0.07273 0.43665 0.23192 0.0
H833 H 0.04952 0.42583 0.18705 0.0
C834 C 0.02073 0.4552 0.15846 0.0
C835 C 0.00639 0.4725 0.14552 0.0
C836 C 0.03374 0.46123 0.18446 0.0
C837 C 0.00504 0.49593 0.15917 0.0
C838 C 0.01788 0.50205 0.18516 0.0
C839 C 0.04567 0.49096 0.2239 0.0
C840 C 0.06046 0.47377 0.23643 0.0
C841 C 0.03237 0.48487 0.19796 0.0
C842 C 0.06153 0.45028 0.22279 0.0
C843 C 0.04827 0.44405 0.1971 0.0
H844 H 0.36511 0.68441 0.28621 0.0
H845 H 0.35831 0.76405 0.28437 0.0
H846 H 0.40046 0.77487 0.31226 0.0
H847 H 0.43879 0.76164 0.33781 0.0
H848 H 0.44493 0.68188 0.34014 0.0
H849 H 0.40339 0.67124 0.31138 0.0
C850 C 0.37285 0.70418 0.29177 0.0
C851 C 0.35853 0.72339 0.28315 0.0
C852 C 0.39693 0.71024 0.30798 0.0
C853 C 0.36889 0.74887 0.2907 0.0
C854 C 0.39298 0.75507 0.30667 0.0
C855 C 0.43109 0.74192 0.33199 0.0
C856 C 0.44497 0.72259 0.34116 0.0
C857 C 0.4071 0.7359 0.31554 0.0
C858 C 0.43464 0.69714 0.33345 0.0
C859 C 0.41089 0.69103 0.31697 0.0
H860 H 0.00264 0.38354 0.99218 0.0
H861 H 0.95998 0.32675 0.03779 0.0
H862 H 0.97025 0.29323 0.00698 0.0
H863 H 0.99184 0.27997 0.96738 0.0
H864 H 0.03492 0.33694 0.92224 0.0
H865 H 0.02412 0.37035 0.95268 0.0
C866 C -0.00457 0.36385 -0.0047 0.0
C867 C 0.98052 0.3577 0.01725 0.0
C868 C 0.00165 0.34464 0.9777 0.0
C869 C 0.9715 0.33205 0.02106 0.0
C870 C 0.97741 0.31283 0.00348 0.0
C871 C -0.00105 0.29968 0.96425 0.0
C872 C 0.01422 0.30588 0.94255 0.0
C873 C 0.99261 0.31889 0.98182 0.0
C874 C 0.02317 0.33156 0.93877 0.0
C875 C 0.01696 0.35074 0.95615 0.0
H876 H 0.62766 0.77676 0.26692 0.0
H877 H 0.67379 0.79856 0.34351 0.0
H878 H 0.63772 0.77804 0.36755 0.0
H879 H 0.59272 0.75498 0.36702 0.0
H880 H 0.54645 0.7329 0.2906 0.0
H881 H 0.58295 0.7525 0.26636 0.0
C882 C 0.62989 0.77692 0.28886 0.0
C883 C 0.65339 0.78928 0.30336 0.0
C884 C 0.609 0.76515 0.30262 0.0
C885 C 0.65592 0.78925 0.3318 0.0
C886 C 0.63528 0.77755 0.3456 0.0
C887 C 0.5906 0.75442 0.34505 0.0
C888 C 0.56684 0.74257 0.33067 0.0
C889 C 0.61166 0.76564 0.33124 0.0
C890 C 0.56452 0.74189 0.3022 0.0
C891 C 0.58538 0.75312 0.2883 0.0
H892 H 0.05252 0.08588 0.94483 0.0
H893 H 0.9885 0.07724 -0.00367 0.0
H894 H 0.98054 0.12042 0.98872 0.0
H895 H 0.98982 0.1597 0.96497 0.0
H896 H 0.05302 0.16778 0.91224 0.0
H897 H 0.0631 0.12586 0.92267 0.0
C898 C 0.03701 0.09358 0.9546 0.0
C899 C 0.02155 0.07856 0.97164 0.0
C900 C 0.03218 0.11828 0.94966 0.0
C901 C 0.00139 0.08869 0.984 0.0
C902 C -0.00346 0.11329 0.9793 0.0
C903 C 0.00592 0.15239 0.95591 0.0
C904 C 0.02049 0.16687 0.9377 0.0
C905 C 0.01159 0.12815 0.96189 0.0
C906 C 0.04137 0.15707 0.92624 0.0
C907 C 0.04717 0.13305 0.93217 0.0
H908 H 0.37466 0.28898 0.28493 0.0
H909 H 0.305 0.25674 0.23279 0.0
H910 H 0.33222 0.25172 0.19534 0.0
H911 H 0.37591 0.25625 0.17743 0.0
H912 H 0.44546 0.28821 0.22998 0.0
H913 H 0.41814 0.29357 0.26711 0.0
C914 C 0.36539 0.28086 0.26538 0.0
C915 C 0.33781 0.27325 0.26172 0.0
C916 C 0.38115 0.27798 0.24394 0.0
C917 C 0.32618 0.26275 0.23621 0.0
C918 C 0.34174 0.25988 0.21475 0.0
C919 C 0.3851 0.26444 0.19697 0.0
C920 C 0.41273 0.27182 0.20082 0.0
C921 C 0.36926 0.2674 0.21839 0.0
C922 C 0.42426 0.28235 0.22637 0.0
C923 C 0.40865 0.28543 0.24767 0.0
H924 H 0.53931 0.37983 0.0321 0.0
H925 H 0.49283 0.42389 0.07886 0.0
H926 H 0.4825 0.38839 0.10743 0.0
H927 H 0.48655 0.34471 0.11908 0.0
H928 H 0.53331 0.30093 0.07229 0.0
H929 H 0.54357 0.33643 0.04386 0.0
C930 C 0.52693 0.38171 0.04854 0.0
C931 C 0.51687 0.40451 0.05328 0.0
C932 C 0.52107 0.36123 0.06491 0.0
C933 C 0.50087 0.40657 0.07473 0.0
C934 C 0.49493 0.38626 0.09109 0.0
C935 C 0.49896 0.34292 0.10265 0.0
C936 C 0.5091 0.32014 0.09786 0.0
C937 C 0.50489 0.36348 0.08635 0.0
C938 C 0.52522 0.31821 0.0765 0.0
C939 C 0.53112 0.33852 0.06018 0.0
H940 H 0.61006 0.22423 0.27462 0.0
H941 H 0.65372 0.28157 0.23042 0.0
H942 H 0.61338 0.28546 0.20208 0.0
H943 H 0.56533 0.27403 0.19125 0.0
H944 H 0.52161 0.21752 0.23643 0.0
H945 H 0.56236 0.21192 0.26294 0.0
C946 C 0.61083 0.23741 0.25862 0.0
C947 C 0.63487 0.25263 0.25471 0.0
C948 C 0.5875 0.23986 0.24268 0.0
C949 C 0.63546 0.26968 0.23394 0.0
C950 C 0.61239 0.27196 0.21774 0.0
C951 C 0.56472 0.26042 0.20682 0.0
C952 C 0.5404 0.24633 0.21191 0.0
C953 C 0.58823 0.2574 0.22218 0.0
C954 C 0.54 0.22874 0.23216 0.0
C955 C 0.56332 0.22548 0.24733 0.0
H956 H 0.45821 0.10888 0.07827 0.0
H957 H 0.48489 0.1564 0.01491 0.0
H958 H 0.47992 0.19417 0.04246 0.0
H959 H 0.47079 0.21391 0.08553 0.0
H960 H 0.44419 0.16667 0.14911 0.0
H961 H 0.44606 0.12866 0.12033 0.0
C962 C 0.46278 0.12749 0.07042 0.0
C963 C 0.47216 0.12977 0.04466 0.0
C964 C 0.45993 0.14922 0.0864 0.0
C965 C 0.47775 0.15404 0.03471 0.0
C966 C 0.47495 0.1757 0.05046 0.0
C967 C 0.46515 0.19531 0.09304 0.0
C968 C 0.45759 0.19318 0.11955 0.0
C969 C 0.46646 0.17353 0.07649 0.0
C970 C 0.45016 0.1689 0.12883 0.0
C971 C 0.45132 0.14712 0.11242 0.0
H972 H 0.25908 0.39468 0.74961 0.0
H973 H 0.31521 0.34599 0.72771 0.0
H974 H 0.35116 0.38175 0.73565 0.0
H975 H 0.36683 0.42646 0.75021 0.0
H976 H 0.31059 0.47482 0.77266 0.0
H977 H 0.27452 0.43946 0.76307 0.0
C978 C 0.27913 0.39186 0.74641 0.0
C979 C 0.28439 0.36763 0.73814 0.0
C980 C 0.29973 0.41241 0.75123 0.0
C981 C 0.31055 0.36441 0.73411 0.0
C982 C 0.33116 0.38483 0.73869 0.0
C983 C 0.34669 0.42931 0.75295 0.0
C984 C 0.34147 0.45326 0.76224 0.0
C985 C 0.326 0.40886 0.7475 0.0
C986 C 0.31521 0.45659 0.7656 0.0
C987 C 0.29454 0.43638 0.76012 0.0
H988 H 0.32856 0.67223 0.80142 0.0
H989 H 0.25407 0.6353 0.82524 0.0
H990 H 0.27024 0.59447 0.82356 0.0
H991 H 0.3051 0.56908 0.81423 0.0
H992 H 0.37929 0.60602 0.78965 0.0
H993 H 0.36361 0.64698 0.79276 0.0
C994 C 0.31589 0.65528 0.80638 0.0
C995 C 0.29013 0.65684 0.81342 0.0
C996 C 0.32521 0.63183 0.80515 0.0
C997 C 0.27397 0.63466 0.81972 0.0
C998 C 0.28319 0.61128 0.81875 0.0
C999 C 0.31788 0.58609 0.80962 0.0
C1000 C 0.34331 0.58442 0.80168 0.0
C1001 C 0.30871 0.60961 0.8113 0.0
C1002 C 0.3596 0.60669 0.79578 0.0
C1003 C 0.35066 0.63016 0.79755 0.0
H1004 H 0.90184 0.50972 0.54485 0.0
H1005 H 0.89759 0.49602 0.45809 0.0
H1006 H 0.86383 0.45895 0.46028 0.0
H1007 H 0.83527 0.43064 0.48675 0.0
H1008 H 0.83622 0.44636 0.57288 0.0
H1009 H 0.87157 0.48241 0.57118 0.0
C1010 C 0.8935 0.49856 0.52648 0.0
C1011 C 0.90221 0.50546 0.50137 0.0
C1012 C 0.87358 0.47765 0.52781 0.0
C1013 C 0.89107 0.4911 0.47764 0.0
C1014 C 0.87186 0.46987 0.47888 0.0
C1015 C 0.84339 0.44187 0.50515 0.0
C1016 C 0.83348 0.43578 0.52994 0.0
C1017 C 0.86298 0.46298 0.50384 0.0
C1018 C 0.84367 0.45074 0.55359 0.0
C1019 C 0.86384 0.47131 0.55261 0.0
H1020 H 0.73487 0.87561 0.84941 0.0
H1021 H 0.67512 0.82614 0.79752 0.0
H1022 H 0.6498 0.86111 0.79093 0.0
H1023 H 0.64406 0.90554 0.80081 0.0
H1024 H 0.70423 0.95491 0.85233 0.0
H1025 H 0.72984 0.92015 0.85815 0.0
C1026 C 0.71636 0.87246 0.83656 0.0
C1027 C 0.7069 0.84823 0.82408 0.0
C1028 C 0.70187 0.89263 0.83288 0.0
C1029 C 0.68291 0.84458 0.80741 0.0
C1030 C 0.66835 0.86456 0.80367 0.0
C1031 C 0.66277 0.9087 0.81332 0.0
C1032 C 0.67211 0.9328 0.82621 0.0
C1033 C 0.67754 0.88862 0.81648 0.0
C1034 C 0.69651 0.93658 0.84218 0.0
C1035 C 0.7112 0.9167 0.84554 0.0
H1036 H 0.62061 0.51548 0.0078 0.0
H1037 H 0.59198 0.54547 0.08015 0.0
H1038 H 0.63393 0.57395 0.09047 0.0
H1039 H 0.678 0.59163 0.07782 0.0
H1040 H 0.70538 0.56295 0.0041 0.0
H1041 H 0.66463 0.53271 -0.00455 0.0
C1042 C 0.62364 0.52803 0.02601 0.0
C1043 C 0.60322 0.52828 0.04323 0.0
C1044 C 0.64751 0.54475 0.03145 0.0
C1045 C 0.60737 0.5449 0.06655 0.0
C1046 C 0.63133 0.56122 0.07244 0.0
C1047 C 0.6751 0.57868 0.05993 0.0
C1048 C 0.69472 0.57959 0.04163 0.0
C1049 C 0.65142 0.56154 0.05485 0.0
C1050 C 0.69058 0.56276 0.01847 0.0
C1051 C 0.66729 0.5454 0.01352 0.0
H1052 H 0.23066 0.61283 0.30145 0.0
H1053 H 0.21574 0.61159 0.21442 0.0
H1054 H 0.18341 0.57312 0.21485 0.0
H1055 H 0.16002 0.5394 0.2399 0.0
H1056 H 0.17497 0.54111 0.32699 0.0
H1057 H 0.20673 0.57983 0.32649 0.0
C1058 C 0.2203 0.60422 0.28255 0.0
C1059 C 0.22569 0.61506 0.25794 0.0
C1060 C 0.20182 0.58212 0.28293 0.0
C1061 C 0.21198 0.60366 0.23367 0.0
C1062 C 0.19353 0.58162 0.23388 0.0
C1063 C 0.17025 0.54821 0.25878 0.0
C1064 C 0.16518 0.53728 0.28343 0.0
C1065 C 0.18843 0.57059 0.25839 0.0
C1066 C 0.17849 0.54907 0.30771 0.0
C1067 C 0.19667 0.57124 0.30747 0.0
H1068 H 0.87951 0.51714 0.06898 0.0
H1069 H 0.93534 0.55045 0.01551 0.0
H1070 H 0.90745 0.58284 0.00518 0.0
H1071 H 0.86672 0.60124 0.0107 0.0
H1072 H 0.81156 0.56816 0.06504 0.0
H1073 H 0.83976 0.53631 0.0757 0.0
C1074 C 0.8856 0.53147 0.05505 0.0
C1075 C 0.90941 0.53126 0.04293 0.0
C1076 C 0.86959 0.55015 0.04936 0.0
C1077 C 0.91709 0.55014 0.02512 0.0
C1078 C 0.90114 0.56867 0.01917 0.0
C1079 C 0.8609 0.58713 0.02495 0.0
C1080 C 0.83697 0.5871 0.03694 0.0
C1081 C 0.87729 0.5688 0.0311 0.0
C1082 C 0.82984 0.5687 0.05547 0.0
C1083 C 0.84594 0.55039 0.06156 0.0
H1084 H 0.10148 0.95869 0.01228 0.0
H1085 H 0.11753 0.97289 0.9299 0.0
H1086 H 0.15815 0.95418 0.93616 0.0
H1087 H 0.18847 0.93278 0.96453 0.0
H1088 H 0.17191 0.91736 0.04651 0.0
H1089 H 0.13212 0.93751 0.04085 0.0
C1090 C 0.11396 0.95786 -0.00424 0.0
C1091 C 0.10647 0.96721 0.97067 0.0
C1092 C 0.13713 0.94672 -0.00064 0.0
C1093 C 0.12279 0.96581 0.94941 0.0
C1094 C 0.14602 0.95508 0.95296 0.0
C1095 C 0.17621 0.93386 0.98121 0.0
C1096 C 0.18318 0.92353 0.00589 0.0
C1097 C 0.15327 0.9453 0.97776 0.0
C1098 C 0.167 0.92508 0.02725 0.0
C1099 C 0.14424 0.93663 0.02405 0.0
loop_
_geom_bond_atom_site_label_1
_geom_bond_atom_site_label_2
_geom_bond_distance
_geom_bond_site_symmetry_2
_ccdc_geom_bond_type
O0 Cd1 2.300 . S
O0 C7 1.275 . S
Cd1 O0 2.300 . S
Cd1 O9 2.381 . S
Cd1 O10 2.378 . S
O2 Cd3 2.385 . S
O2 C7 1.255 . S
Cd3 O2 2.385 . S
Cd3 O4 2.317 . S
O4 Cd3 2.317 . S
O4 C5 1.232 1_455 S
C5 O4 1.232 1_655 S
C5 O6 1.218 . S
O6 C5 1.218 . S
C7 O0 1.275 . S
C7 O2 1.255 . S
C8 O9 1.258 . S
C8 O10 1.256 . S
O9 Cd1 2.381 . S
O9 C8 1.258 . S
O10 Cd1 2.378 . S
O10 C8 1.256 . S
O11 Cd12 2.300 . S
O11 C18 1.275 . S
Cd12 O11 2.300 . S
Cd12 O20 2.381 . S
Cd12 O21 2.378 . S
O13 Cd14 2.385 . S
O13 C18 1.255 . S
Cd14 O13 2.385 . S
Cd14 O15 2.317 . S
O15 Cd14 2.317 . S
O15 C16 1.232 . S
C16 O15 1.232 . S
C16 O17 1.218 . S
O17 C16 1.218 . S
C18 O11 1.275 . S
C18 O13 1.255 . S
C19 O20 1.258 . S
C19 O21 1.256 . S
O20 Cd12 2.381 . S
O20 C19 1.258 . S
O21 Cd12 2.378 . S
O21 C19 1.256 . S
O22 Cd23 2.300 . S
O22 C29 1.275 . S
Cd23 O22 2.300 . S
Cd23 O31 2.381 . S
Cd23 O32 2.378 . S
O24 Cd25 2.385 1_655 S
O24 C29 1.255 . S
Cd25 O24 2.385 1_455 S
Cd25 O26 2.317 1_455 S
O26 Cd25 2.317 1_655 S
O26 C27 1.232 . S
C27 O26 1.232 . S
C27 O28 1.218 1_655 S
O28 C27 1.218 1_455 S
C29 O22 1.275 . S
C29 O24 1.255 . S
C30 O31 1.258 . S
C30 O32 1.256 . S
O31 Cd23 2.381 . S
O31 C30 1.258 . S
O32 Cd23 2.378 . S
O32 C30 1.256 . S
O33 Cd34 2.300 . S
O33 C40 1.275 . S
Cd34 O33 2.300 . S
Cd34 O42 2.381 . S
Cd34 O43 2.378 . S
O35 Cd36 2.385 . S
O35 C40 1.255 . S
Cd36 O35 2.385 . S
Cd36 O37 2.317 . S
O37 Cd36 2.317 . S
O37 C38 1.232 . S
C38 O37 1.232 . S
C38 O39 1.218 . S
O39 C38 1.218 . S
C40 O33 1.275 . S
C40 O35 1.255 . S
C41 O42 1.258 . S
C41 O43 1.256 . S
O42 Cd34 2.381 . S
O42 C41 1.258 . S
O43 Cd34 2.378 . S
O43 C41 1.256 . S
O44 Cd45 2.300 . S
O44 C51 1.275 1_565 S
Cd45 O44 2.300 . S
Cd45 O53 2.381 . S
Cd45 O54 2.378 . S
O46 Cd47 2.385 . S
O46 C51 1.255 . S
Cd47 O46 2.385 . S
Cd47 O48 2.324 . S
O48 Cd47 2.324 . S
O48 C49 1.237 . S
C49 O48 1.237 . S
C49 O50 1.218 . S
O50 C49 1.218 . S
C51 O44 1.275 1_545 S
C51 O46 1.255 . S
C52 O53 1.258 . S
C52 O54 1.256 . S
O53 Cd45 2.381 . S
O53 C52 1.258 . S
O54 Cd45 2.378 . S
O54 C52 1.256 . S
O55 Cd56 2.300 . S
O55 C62 1.275 . S
Cd56 O55 2.300 . S
Cd56 O64 2.381 . S
Cd56 O65 2.378 . S
O57 Cd58 2.385 . S
O57 C62 1.255 . S
Cd58 O57 2.385 . S
Cd58 O59 2.317 . S
O59 Cd58 2.317 . S
O59 C60 1.232 . S
C60 O59 1.232 . S
C60 O61 1.218 . S
O61 C60 1.218 . S
C62 O55 1.275 . S
C62 O57 1.255 . S
C63 O64 1.258 . S
C63 O65 1.256 . S
O64 Cd56 2.381 . S
O64 C63 1.258 . S
O65 Cd56 2.378 . S
O65 C63 1.256 . S
O66 Cd67 2.300 . S
O66 C73 1.275 1_655 S
Cd67 O66 2.300 . S
Cd67 O75 2.381 . S
Cd67 O76 2.378 . S
O68 Cd69 2.385 . S
O68 C73 1.255 . S
Cd69 O68 2.385 . S
Cd69 O70 2.317 1_455 S
O70 Cd69 2.317 1_655 S
O70 C71 1.232 1_655 S
C71 O70 1.232 1_455 S
C71 O72 1.218 . S
O72 C71 1.218 . S
C73 O66 1.275 1_455 S
C73 O68 1.255 . S
C74 O75 1.258 . S
C74 O76 1.256 . S
O75 Cd67 2.381 . S
O75 C74 1.258 . S
O76 Cd67 2.378 . S
O76 C74 1.256 . S
O77 Cd78 2.300 . S
O77 C84 1.275 . S
Cd78 O77 2.300 . S
Cd78 O86 2.381 . S
Cd78 O87 2.378 . S
O79 Cd80 2.385 . S
O79 C84 1.255 . S
Cd80 O79 2.385 . S
Cd80 O81 2.317 . S
O81 Cd80 2.317 . S
O81 C82 1.232 . S
C82 O81 1.232 . S
C82 O83 1.218 . S
O83 C82 1.218 . S
C84 O77 1.275 . S
C84 O79 1.255 . S
C85 O86 1.258 . S
C85 O87 1.256 . S
O86 Cd78 2.381 . S
O86 C85 1.258 . S
O87 Cd78 2.378 . S
O87 C85 1.256 . S
O88 Cd89 2.300 . S
O88 C95 1.275 . S
Cd89 O88 2.300 . S
Cd89 O97 2.381 . S
Cd89 O98 2.378 . S
O90 Cd91 2.385 . S
O90 C95 1.255 . S
Cd91 O90 2.385 . S
Cd91 O92 2.317 . S
O92 Cd91 2.317 . S
O92 C93 1.232 . S
C93 O92 1.232 . S
C93 O94 1.218 . S
O94 C93 1.218 . S
C95 O88 1.275 . S
C95 O90 1.255 . S
C96 O97 1.258 . S
C96 O98 1.256 . S
O97 Cd89 2.381 . S
O97 C96 1.258 . S
O98 Cd89 2.378 . S
O98 C96 1.256 . S
O99 Cd100 2.300 1_565 S
O99 C106 1.275 . S
Cd100 O99 2.300 1_545 S
Cd100 O108 2.381 . S
Cd100 O109 2.378 . S
O101 Cd102 2.385 . S
O101 C106 1.255 . S
Cd102 O101 2.385 . S
Cd102 O103 2.317 . S
O103 Cd102 2.317 . S
O103 C104 1.232 . S
C104 O103 1.232 . S
C104 O105 1.218 . S
O105 C104 1.218 . S
C106 O99 1.275 . S
C106 O101 1.255 . S
C107 O108 1.258 . S
C107 O109 1.256 . S
O108 Cd100 2.381 . S
O108 C107 1.258 . S
O109 Cd100 2.378 . S
O109 C107 1.256 . S
O110 Cd111 2.300 . S
O110 C117 1.275 . S
Cd111 O110 2.300 . S
Cd111 O119 2.381 . S
Cd111 O120 2.378 . S
O112 Cd113 2.385 . S
O112 C117 1.255 . S
Cd113 O112 2.385 . S
Cd113 O114 2.317 . S
O114 Cd113 2.317 . S
O114 C115 1.232 . S
C115 O114 1.232 . S
C115 O116 1.218 . S
O116 C115 1.218 . S
C117 O110 1.275 . S
C117 O112 1.255 . S
C118 O119 1.258 . S
C118 O120 1.256 . S
O119 Cd111 2.381 . S
O119 C118 1.258 . S
O120 Cd111 2.378 . S
O120 C118 1.256 . S
O121 Cd122 2.300 . S
O121 C128 1.275 . S
Cd122 O121 2.300 . S
Cd122 O130 2.381 . S
Cd122 O131 2.378 . S
O123 Cd124 2.385 . S
O123 C128 1.255 . S
Cd124 O123 2.385 . S
Cd124 O125 2.317 . S
O125 Cd124 2.317 . S
O125 C126 1.232 . S
C126 O125 1.232 . S
C126 O127 1.218 . S
O127 C126 1.218 . S
C128 O121 1.275 . S
C128 O123 1.255 . S
C129 O130 1.258 . S
C129 O131 1.256 . S
O130 Cd122 2.381 . S
O130 C129 1.258 . S
O131 Cd122 2.378 . S
O131 C129 1.256 . S
O132 Cd133 2.300 . S
O132 C139 1.275 . S
Cd133 O132 2.300 . S
Cd133 O141 2.381 . S
Cd133 O142 2.378 . S
O134 Cd135 2.385 . S
O134 C139 1.255 . S
Cd135 O134 2.385 . S
Cd135 O136 2.317 . S
O136 Cd135 2.317 . S
O136 C137 1.232 . S
C137 O136 1.232 . S
C137 O138 1.218 . S
O138 C137 1.218 . S
C139 O132 1.275 . S
C139 O134 1.255 . S
C140 O141 1.258 . S
C140 O142 1.256 . S
O141 Cd133 2.381 . S
O141 C140 1.258 . S
O142 Cd133 2.378 . S
O142 C140 1.256 . S
O143 Cd144 2.300 1_556 S
O143 C150 1.275 . S
Cd144 O143 2.300 1_554 S
Cd144 O152 2.381 . S
Cd144 O153 2.378 . S
O145 Cd146 2.385 . S
O145 C150 1.255 . S
Cd146 O145 2.385 . S
Cd146 O147 2.317 . S
O147 Cd146 2.317 . S
O147 C148 1.232 . S
C148 O147 1.232 . S
C148 O149 1.218 . S
O149 C148 1.218 . S
C150 O143 1.275 . S
C150 O145 1.255 . S
C151 O152 1.258 . S
C151 O153 1.256 . S
O152 Cd144 2.381 . S
O152 C151 1.258 . S
O153 Cd144 2.378 . S
O153 C151 1.256 . S
O154 Cd155 2.300 . S
O154 C161 1.275 . S
Cd155 O154 2.300 . S
Cd155 O163 2.381 . S
Cd155 O164 2.378 . S
O156 Cd157 2.385 . S
O156 C161 1.255 . S
Cd157 O156 2.385 . S
Cd157 O158 2.317 . S
O158 Cd157 2.317 . S
O158 C159 1.232 . S
C159 O158 1.232 . S
C159 O160 1.218 . S
O160 C159 1.218 . S
C161 O154 1.275 . S
C161 O156 1.255 . S
C162 O163 1.258 . S
C162 O164 1.256 . S
O163 Cd155 2.381 . S
O163 C162 1.258 . S
O164 Cd155 2.378 . S
O164 C162 1.256 . S
O165 Cd166 2.300 1_556 S
O165 C172 1.275 . S
Cd166 O165 2.300 1_554 S
Cd166 O174 2.381 1_544 S
Cd166 O175 2.378 1_545 S
O167 Cd168 2.385 1_556 S
O167 C172 1.255 . S
Cd168 O167 2.385 1_554 S
Cd168 O169 2.317 . S
O169 Cd168 2.317 . S
O169 C170 1.232 . S
C170 O169 1.232 . S
C170 O171 1.218 . S
O171 C170 1.218 . S
C172 O165 1.275 . S
C172 O167 1.255 . S
C173 O174 1.258 1_554 S
C173 O175 1.256 . S
O174 Cd166 2.381 1_566 S
O174 C173 1.258 1_556 S
O175 Cd166 2.378 1_565 S
O175 C173 1.256 . S
C176 O177 1.160 1_554 S
C176 O183 1.185 . S
O177 C176 1.160 1_556 S
O178 Zn179 1.899 1_556 S
O178 C186 1.284 . S
Zn179 O178 1.899 1_554 S
Zn179 O180 2.032 . S
Zn179 O183 2.086 . S
Zn179 O188 1.977 . S
O180 Zn179 2.032 . S
O180 C184 1.278 . S
C181 O182 1.203 . S
C181 O188 1.267 . S
O182 C181 1.203 . S
O183 C176 1.185 . S
O183 Zn179 2.086 . S
C184 O180 1.278 . S
C184 O185 1.211 . S
O185 C184 1.211 . S
C186 O178 1.284 . S
C186 O187 1.273 . S
O187 C186 1.273 . S
O188 Zn179 1.977 . S
O188 C181 1.267 . S
C189 O190 1.160 . S
C189 O196 1.185 . S
O190 C189 1.160 . S
O191 Zn192 1.899 . S
O191 C199 1.284 . S
Zn192 O191 1.899 . S
Zn192 O193 2.032 . S
Zn192 O196 2.086 . S
Zn192 O201 1.977 . S
O193 Zn192 2.032 . S
O193 C197 1.278 . S
C194 O195 1.203 . S
C194 O201 1.267 . S
O195 C194 1.203 . S
O196 C189 1.185 . S
O196 Zn192 2.086 . S
C197 O193 1.278 . S
C197 O198 1.211 . S
O198 C197 1.211 . S
C199 O191 1.284 . S
C199 O200 1.273 . S
O200 C199 1.273 . S
O201 Zn192 1.977 . S
O201 C194 1.267 . S
C202 O203 1.160 1_554 S
C202 O209 1.185 . S
O203 C202 1.160 1_556 S
O204 Zn205 1.899 1_556 S
O204 C212 1.284 . S
Zn205 O204 1.899 1_554 S
Zn205 O206 2.032 . S
Zn205 O209 2.086 . S
Zn205 O214 1.977 . S
O206 Zn205 2.032 . S
O206 C210 1.278 . S
C207 O208 1.203 . S
C207 O214 1.267 . S
O208 C207 1.203 . S
O209 C202 1.185 . S
O209 Zn205 2.086 . S
C210 O206 1.278 . S
C210 O211 1.211 . S
O211 C210 1.211 . S
C212 O204 1.284 . S
C212 O213 1.273 . S
O213 C212 1.273 . S
O214 Zn205 1.977 . S
O214 C207 1.267 . S
C215 O216 1.160 . S
C215 O222 1.185 . S
O216 C215 1.160 . S
O217 Zn218 1.899 . S
O217 C225 1.284 . S
Zn218 O217 1.899 . S
Zn218 O219 2.032 . S
Zn218 O222 2.086 . S
Zn218 O227 1.977 . S
O219 Zn218 2.032 . S
O219 C223 1.278 1_545 S
C220 O221 1.203 . S
C220 O227 1.267 . S
O221 C220 1.203 . S
O222 C215 1.185 . S
O222 Zn218 2.086 . S
C223 O219 1.278 1_565 S
C223 O224 1.211 . S
O224 C223 1.211 . S
C225 O217 1.284 . S
C225 O226 1.273 1_545 S
O226 C225 1.273 1_565 S
O227 Zn218 1.977 . S
O227 C220 1.267 . S
C228 O229 1.160 . S
C228 O235 1.185 . S
O229 C228 1.160 . S
O230 Zn231 1.899 . S
O230 C238 1.284 . S
Zn231 O230 1.899 . S
Zn231 O232 2.032 . S
Zn231 O235 2.086 . S
Zn231 O240 1.977 . S
O232 Zn231 2.032 . S
O232 C236 1.278 . S
C233 O234 1.203 . S
C233 O240 1.267 . S
O234 C233 1.203 . S
O235 C228 1.185 . S
O235 Zn231 2.086 . S
C236 O232 1.278 . S
C236 O237 1.211 . S
O237 C236 1.211 . S
C238 O230 1.284 . S
C238 O239 1.273 . S
O239 C238 1.273 . S
O240 Zn231 1.977 . S
O240 C233 1.267 . S
C241 O242 1.160 . S
C241 O248 1.185 . S
O242 C241 1.160 . S
O243 Zn244 1.899 . S
O243 C251 1.284 . S
Zn244 O243 1.899 . S
Zn244 O245 2.032 . S
Zn244 O248 2.086 . S
Zn244 O253 1.977 . S
O245 Zn244 2.032 . S
O245 C249 1.278 . S
C246 O247 1.203 . S
C246 O253 1.267 . S
O247 C246 1.203 . S
O248 C241 1.185 . S
O248 Zn244 2.086 . S
C249 O245 1.278 . S
C249 O250 1.211 . S
O250 C249 1.211 . S
C251 O243 1.284 . S
C251 O252 1.273 . S
O252 C251 1.273 . S
O253 Zn244 1.977 . S
O253 C246 1.267 . S
C254 O255 1.160 . S
C254 O261 1.185 . S
O255 C254 1.160 . S
O256 Zn257 1.899 . S
O256 C264 1.284 . S
Zn257 O256 1.899 . S
Zn257 O258 2.032 . S
Zn257 O261 2.086 . S
Zn257 O266 1.977 . S
O258 Zn257 2.032 . S
O258 C262 1.278 . S
C259 O260 1.203 . S
C259 O266 1.267 . S
O260 C259 1.203 . S
O261 C254 1.185 . S
O261 Zn257 2.086 . S
C262 O258 1.278 . S
C262 O263 1.211 . S
O263 C262 1.211 . S
C264 O256 1.284 . S
C264 O265 1.273 . S
O265 C264 1.273 . S
O266 Zn257 1.977 . S
O266 C259 1.267 . S
C267 O268 1.160 . S
C267 O274 1.185 . S
O268 C267 1.160 . S
O269 Zn270 1.899 . S
O269 C277 1.284 1_565 S
Zn270 O269 1.899 . S
Zn270 O271 2.032 1_565 S
Zn270 O274 2.086 . S
Zn270 O279 1.977 . S
O271 Zn270 2.032 1_545 S
O271 C275 1.278 . S
C272 O273 1.203 1_565 S
C272 O279 1.267 . S
O273 C272 1.203 1_545 S
O274 C267 1.185 . S
O274 Zn270 2.086 . S
C275 O271 1.278 . S
C275 O276 1.211 . S
O276 C275 1.211 . S
C277 O269 1.284 1_545 S
C277 O278 1.273 . S
O278 C277 1.273 . S
O279 Zn270 1.977 . S
O279 C272 1.267 . S
C280 O281 1.160 1_455 S
C280 O287 1.185 . S
O281 C280 1.160 1_655 S
O282 Zn283 1.899 1_655 S
O282 C290 1.284 . S
Zn283 O282 1.899 1_455 S
Zn283 O284 2.032 . S
Zn283 O287 2.086 . S
Zn283 O292 1.977 . S
O284 Zn283 2.032 . S
O284 C288 1.278 . S
C285 O286 1.203 . S
C285 O292 1.267 . S
O286 C285 1.203 . S
O287 C280 1.185 . S
O287 Zn283 2.086 . S
C288 O284 1.278 . S
C288 O289 1.211 . S
O289 C288 1.211 . S
C290 O282 1.284 . S
C290 O291 1.273 . S
O291 C290 1.273 . S
O292 Zn283 1.977 . S
O292 C285 1.267 . S
C293 O294 1.160 . S
C293 O300 1.185 . S
O294 C293 1.160 . S
O295 Zn296 1.899 . S
O295 C303 1.284 . S
Zn296 O295 1.899 . S
Zn296 O297 2.032 . S
Zn296 O300 2.086 . S
Zn296 O305 1.977 . S
O297 Zn296 2.032 . S
O297 C301 1.278 . S
C298 O299 1.203 . S
C298 O305 1.267 . S
O299 C298 1.203 . S
O300 C293 1.185 . S
O300 Zn296 2.086 . S
C301 O297 1.278 . S
C301 O302 1.211 . S
O302 C301 1.211 . S
C303 O295 1.284 . S
C303 O304 1.273 . S
O304 C303 1.273 . S
O305 Zn296 1.977 . S
O305 C298 1.267 . S
C306 O307 1.160 . S
C306 O313 1.185 . S
O307 C306 1.160 . S
O308 Zn309 1.899 . S
O308 C316 1.284 1_455 S
Zn309 O308 1.899 . S
Zn309 O310 2.032 . S
Zn309 O313 2.086 . S
Zn309 O318 1.977 . S
O310 Zn309 2.032 . S
O310 C314 1.278 . S
C311 O312 1.203 . S
C311 O318 1.267 . S
O312 C311 1.203 . S
O313 C306 1.185 . S
O313 Zn309 2.086 . S
C314 O310 1.278 . S
C314 O315 1.211 . S
O315 C314 1.211 . S
C316 O308 1.284 1_655 S
C316 O317 1.273 . S
O317 C316 1.273 . S
O318 Zn309 1.977 . S
O318 C311 1.267 . S
C319 O320 1.160 . S
C319 O326 1.185 . S
O320 C319 1.160 . S
O321 Zn322 1.899 . S
O321 C329 1.284 . S
Zn322 O321 1.899 . S
Zn322 O323 2.032 . S
Zn322 O326 2.086 . S
Zn322 O331 1.977 . S
O323 Zn322 2.032 . S
O323 C327 1.278 . S
C324 O325 1.203 . S
C324 O331 1.267 . S
O325 C324 1.203 . S
O326 C319 1.185 . S
O326 Zn322 2.086 . S
C327 O323 1.278 . S
C327 O328 1.211 . S
O328 C327 1.211 . S
C329 O321 1.284 . S
C329 O330 1.273 . S
O330 C329 1.273 . S
O331 Zn322 1.977 . S
O331 C324 1.267 . S
H332 C338 0.930 . S
H333 C341 0.930 . S
H334 C342 0.930 . S
H335 C343 0.930 . S
H336 C346 0.930 . S
H337 C347 0.930 . S
C338 H332 0.930 . S
C338 C339 1.355 . S
C338 C340 1.415 . S
C339 C338 1.355 . S
C339 C341 1.419 . S
C340 C338 1.415 . S
C340 C345 1.425 . S
C340 C347 1.409 . S
C341 H333 0.930 . S
C341 C339 1.419 . S
C341 C342 1.362 . S
C342 H334 0.930 . S
C342 C341 1.362 . S
C342 C345 1.409 . S
C343 H335 0.930 . S
C343 C344 1.355 . S
C343 C345 1.415 . S
C344 C343 1.355 . S
C344 C346 1.419 . S
C345 C340 1.425 . S
C345 C342 1.409 . S
C345 C343 1.415 . S
C346 H336 0.930 . S
C346 C344 1.419 . S
C346 C347 1.362 . S
C347 H337 0.930 . S
C347 C340 1.409 . S
C347 C346 1.362 . S
H348 C354 0.930 . S
H349 C357 0.930 . S
H350 C358 0.930 . S
H351 C359 0.930 . S
H352 C362 0.930 . S
H353 C363 0.930 . S
C354 H348 0.930 . S
C354 C355 1.355 . S
C354 C356 1.415 . S
C355 C354 1.355 . S
C355 C357 1.419 . S
C356 C354 1.415 . S
C356 C361 1.425 . S
C356 C363 1.409 . S
C357 H349 0.930 . S
C357 C355 1.419 . S
C357 C358 1.362 . S
C358 H350 0.930 . S
C358 C357 1.362 . S
C358 C361 1.409 . S
C359 H351 0.930 . S
C359 C360 1.355 . S
C359 C361 1.415 . S
C360 C359 1.355 . S
C360 C362 1.419 . S
C361 C356 1.425 . S
C361 C358 1.409 . S
C361 C359 1.415 . S
C362 H352 0.930 . S
C362 C360 1.419 . S
C362 C363 1.362 . S
C363 H353 0.930 . S
C363 C356 1.409 . S
C363 C362 1.362 . S
H364 C370 0.930 . S
H365 C373 0.930 . S
H366 C374 0.930 . S
H367 C375 0.930 . S
H368 C378 0.930 . S
H369 C379 0.930 . S
C370 H364 0.930 . S
C370 C371 1.355 . S
C370 C372 1.415 . S
C371 C370 1.355 . S
C371 C373 1.419 . S
C372 C370 1.415 . S
C372 C377 1.425 . S
C372 C379 1.409 . S
C373 H365 0.930 . S
C373 C371 1.419 . S
C373 C374 1.362 . S
C374 H366 0.930 . S
C374 C373 1.362 . S
C374 C377 1.409 . S
C375 H367 0.930 . S
C375 C376 1.355 . S
C375 C377 1.415 . S
C376 C375 1.355 . S
C376 C378 1.419 . S
C377 C372 1.425 . S
C377 C374 1.409 . S
C377 C375 1.415 . S
C378 H368 0.930 . S
C378 C376 1.419 . S
C378 C379 1.362 . S
C379 H369 0.930 . S
C379 C372 1.409 . S
C379 C378 1.362 . S
H380 C386 0.930 1_455 S
H381 C389 0.930 . S
H382 C390 0.930 . S
H383 C391 0.930 1_565 S
H384 C394 0.930 . S
H385 C395 0.930 . S
C386 H380 0.930 1_655 S
C386 C387 1.355 . S
C386 C388 1.415 . S
C387 C386 1.355 . S
C387 C389 1.419 1_545 S
C388 C386 1.415 . S
C388 C393 1.425 . S
C388 C395 1.409 . S
C389 H381 0.930 . S
C389 C387 1.419 1_565 S
C389 C390 1.362 . S
C390 H382 0.930 . S
C390 C389 1.362 . S
C390 C393 1.409 1_565 S
C391 H383 0.930 1_545 S
C391 C392 1.355 . S
C391 C393 1.415 . S
C392 C391 1.355 . S
C392 C394 1.419 . S
C393 C388 1.425 . S
C393 C390 1.409 1_545 S
C393 C391 1.415 . S
C394 H384 0.930 . S
C394 C392 1.419 . S
C394 C395 1.362 . S
C395 H385 0.930 . S
C395 C388 1.409 . S
C395 C394 1.362 . S
H396 C402 0.930 . S
H397 C405 0.930 . S
H398 C406 0.930 . S
H399 C407 0.930 . S
H400 C410 0.930 . S
H401 C411 0.930 . S
C402 H396 0.930 . S
C402 C403 1.355 . S
C402 C404 1.415 . S
C403 C402 1.355 . S
C403 C405 1.419 . S
C404 C402 1.415 . S
C404 C409 1.425 . S
C404 C411 1.409 . S
C405 H397 0.930 . S
C405 C403 1.419 . S
C405 C406 1.362 . S
C406 H398 0.930 . S
C406 C405 1.362 . S
C406 C409 1.409 . S
C407 H399 0.930 . S
C407 C408 1.355 . S
C407 C409 1.415 . S
C408 C407 1.355 . S
C408 C410 1.419 . S
C409 C404 1.425 . S
C409 C406 1.409 . S
C409 C407 1.415 . S
C410 H400 0.930 . S
C410 C408 1.419 . S
C410 C411 1.362 . S
C411 H401 0.930 . S
C411 C404 1.409 . S
C411 C410 1.362 . S
H412 C418 0.930 . S
H413 C421 0.930 . S
H414 C422 0.930 . S
H415 C423 0.930 . S
H416 C426 0.930 . S
H417 C427 0.930 . S
C418 H412 0.930 . S
C418 C419 1.355 . S
C418 C420 1.415 . S
C419 C418 1.355 . S
C419 C421 1.419 . S
C420 C418 1.415 . S
C420 C425 1.425 . S
C420 C427 1.409 . S
C421 H413 0.930 . S
C421 C419 1.419 . S
C421 C422 1.362 . S
C422 H414 0.930 . S
C422 C421 1.362 . S
C422 C425 1.409 . S
C423 H415 0.930 . S
C423 C424 1.355 . S
C423 C425 1.415 . S
C424 C423 1.355 . S
C424 C426 1.419 . S
C425 C420 1.425 . S
C425 C422 1.409 . S
C425 C423 1.415 . S
C426 H416 0.930 . S
C426 C424 1.419 . S
C426 C427 1.362 . S
C427 H417 0.930 . S
C427 C420 1.409 . S
C427 C426 1.362 . S
H428 C434 0.930 . S
H429 C437 0.930 . S
H430 C438 0.930 . S
H431 C439 0.930 . S
H432 C442 0.930 . S
H433 C443 0.930 . S
C434 H428 0.930 . S
C434 C435 1.355 . S
C434 C436 1.415 . S
C435 C434 1.355 . S
C435 C437 1.419 . S
C436 C434 1.415 . S
C436 C441 1.425 . S
C436 C443 1.409 . S
C437 H429 0.930 . S
C437 C435 1.419 . S
C437 C438 1.362 . S
C438 H430 0.930 . S
C438 C437 1.362 . S
C438 C441 1.409 . S
C439 H431 0.930 . S
C439 C440 1.355 . S
C439 C441 1.415 . S
C440 C439 1.355 . S
C440 C442 1.419 . S
C441 C436 1.425 . S
C441 C438 1.409 . S
C441 C439 1.415 . S
C442 H432 0.930 . S
C442 C440 1.419 . S
C442 C443 1.362 . S
C443 H433 0.930 . S
C443 C436 1.409 . S
C443 C442 1.362 . S
H444 C450 0.954 . S
H445 C453 0.930 . S
H446 C454 0.930 . S
H447 C455 0.930 . S
H448 C458 0.930 . S
H449 C459 0.930 . S
C450 H444 0.954 . S
C450 C451 1.336 1_545 S
C450 C452 1.410 1_545 S
C451 C450 1.336 1_565 S
C451 C453 1.419 . S
C452 C450 1.410 1_565 S
C452 C457 1.425 . S
C452 C459 1.409 1_565 S
C453 H445 0.930 . S
C453 C451 1.419 . S
C453 C454 1.362 . S
C454 H446 0.930 . S
C454 C453 1.362 . S
C454 C457 1.409 . S
C455 H447 0.930 . S
C455 C456 1.355 . S
C455 C457 1.415 . S
C456 C455 1.355 . S
C456 C458 1.419 1_565 S
C457 C452 1.425 . S
C457 C454 1.409 . S
C457 C455 1.415 . S
C458 H448 0.930 . S
C458 C456 1.419 1_545 S
C458 C459 1.362 . S
C459 H449 0.930 . S
C459 C452 1.409 1_545 S
C459 C458 1.362 . S
H460 C466 0.930 . S
H461 C469 0.930 . S
H462 C470 0.930 . S
H463 C471 0.930 . S
H464 C474 0.930 . S
H465 C475 0.930 . S
C466 H460 0.930 . S
C466 C467 1.355 . S
C466 C468 1.415 . S
C467 C466 1.355 . S
C467 C469 1.419 . S
C468 C466 1.415 . S
C468 C473 1.425 . S
C468 C475 1.409 . S
C469 H461 0.930 . S
C469 C467 1.419 . S
C469 C470 1.362 . S
C470 H462 0.930 . S
C470 C469 1.362 . S
C470 C473 1.409 . S
C471 H463 0.930 . S
C471 C472 1.355 . S
C471 C473 1.415 . S
C472 C471 1.355 . S
C472 C474 1.419 . S
C473 C468 1.425 . S
C473 C470 1.409 . S
C473 C471 1.415 . S
C474 H464 0.930 . S
C474 C472 1.419 . S
C474 C475 1.362 . S
C475 H465 0.930 . S
C475 C468 1.409 . S
C475 C474 1.362 . S
H476 C482 0.930 . S
H477 C485 0.930 . S
H478 C486 0.930 . S
H479 C487 0.930 . S
H480 C490 0.930 . S
H481 C491 0.930 . S
C482 H476 0.930 . S
C482 C483 1.355 . S
C482 C484 1.415 . S
C483 C482 1.355 . S
C483 C485 1.419 . S
C484 C482 1.415 . S
C484 C489 1.425 . S
C484 C491 1.409 . S
C485 H477 0.930 . S
C485 C483 1.419 . S
C485 C486 1.362 . S
C486 H478 0.930 . S
C486 C485 1.362 . S
C486 C489 1.409 . S
C487 H479 0.930 . S
C487 C488 1.355 . S
C487 C489 1.415 . S
C488 C487 1.355 . S
C488 C490 1.419 . S
C489 C484 1.425 . S
C489 C486 1.409 . S
C489 C487 1.415 . S
C490 H480 0.930 . S
C490 C488 1.419 . S
C490 C491 1.362 . S
C491 H481 0.930 . S
C491 C484 1.409 . S
C491 C490 1.362 . S
H492 C498 0.930 . S
H493 C501 0.930 . S
H494 C502 0.930 . S
H495 C503 0.930 . S
H496 C506 0.930 . S
H497 C507 0.930 . S
C498 H492 0.930 . S
C498 C499 1.355 . S
C498 C500 1.415 . S
C499 C498 1.355 . S
C499 C501 1.419 . S
C500 C498 1.415 . S
C500 C505 1.425 . S
C500 C507 1.409 . S
C501 H493 0.930 . S
C501 C499 1.419 . S
C501 C502 1.362 . S
C502 H494 0.930 . S
C502 C501 1.362 . S
C502 C505 1.409 . S
C503 H495 0.930 . S
C503 C504 1.355 . S
C503 C505 1.415 . S
C504 C503 1.355 . S
C504 C506 1.419 . S
C505 C500 1.425 . S
C505 C502 1.409 . S
C505 C503 1.415 . S
C506 H496 0.930 . S
C506 C504 1.419 . S
C506 C507 1.362 . S
C507 H497 0.930 . S
C507 C500 1.409 . S
C507 C506 1.362 . S
H508 C514 0.930 . S
H509 C517 0.930 . S
H510 C518 0.930 . S
H511 C519 0.930 . S
H512 C522 0.930 . S
H513 C523 0.930 . S
C514 H508 0.930 . S
C514 C515 1.355 . S
C514 C516 1.415 . S
C515 C514 1.355 . S
C515 C517 1.419 . S
C516 C514 1.415 . S
C516 C521 1.425 . S
C516 C523 1.409 . S
C517 H509 0.930 . S
C517 C515 1.419 . S
C517 C518 1.362 . S
C518 H510 0.930 . S
C518 C517 1.362 . S
C518 C521 1.409 . S
C519 H511 0.930 . S
C519 C520 1.355 . S
C519 C521 1.415 . S
C520 C519 1.355 . S
C520 C522 1.419 . S
C521 C516 1.425 . S
C521 C518 1.409 . S
C521 C519 1.415 . S
C522 H512 0.930 . S
C522 C520 1.419 . S
C522 C523 1.362 . S
C523 H513 0.930 . S
C523 C516 1.409 . S
C523 C522 1.362 . S
H524 C530 0.930 . S
H525 C533 0.930 . S
H526 C534 0.930 . S
H527 C535 0.930 . S
H528 C538 0.930 . S
H529 C539 0.930 . S
C530 H524 0.930 . S
C530 C531 1.355 . S
C530 C532 1.415 . S
C531 C530 1.355 . S
C531 C533 1.419 . S
C532 C530 1.415 . S
C532 C537 1.425 . S
C532 C539 1.409 . S
C533 H525 0.930 . S
C533 C531 1.419 . S
C533 C534 1.362 . S
C534 H526 0.930 . S
C534 C533 1.362 . S
C534 C537 1.409 . S
C535 H527 0.930 . S
C535 C536 1.355 . S
C535 C537 1.415 . S
C536 C535 1.355 . S
C536 C538 1.419 . S
C537 C532 1.425 . S
C537 C534 1.409 . S
C537 C535 1.415 . S
C538 H528 0.930 . S
C538 C536 1.419 . S
C538 C539 1.362 . S
C539 H529 0.930 . S
C539 C532 1.409 . S
C539 C538 1.362 . S
H540 C546 0.930 . S
H541 C549 0.930 . S
H542 C550 0.930 . S
H543 C551 0.930 . S
H544 C554 0.930 1_655 S
H545 C555 0.930 1_655 S
C546 H540 0.930 . S
C546 C547 1.355 . S
C546 C548 1.415 . S
C547 C546 1.355 . S
C547 C549 1.419 . S
C548 C546 1.415 . S
C548 C553 1.425 . S
C548 C555 1.409 . S
C549 H541 0.930 . S
C549 C547 1.419 . S
C549 C550 1.362 . S
C550 H542 0.930 . S
C550 C549 1.362 . S
C550 C553 1.409 . S
C551 H543 0.930 . S
C551 C552 1.355 . S
C551 C553 1.415 . S
C552 C551 1.355 . S
C552 C554 1.419 . S
C553 C548 1.425 . S
C553 C550 1.409 . S
C553 C551 1.415 . S
C554 H544 0.930 1_455 S
C554 C552 1.419 . S
C554 C555 1.362 . S
C555 H545 0.930 1_455 S
C555 C548 1.409 . S
C555 C554 1.362 . S
H556 C562 0.930 . S
H557 C565 0.930 . S
H558 C566 0.930 . S
H559 C567 0.930 . S
H560 C570 0.930 . S
H561 C571 0.930 . S
C562 H556 0.930 . S
C562 C563 1.355 . S
C562 C564 1.415 . S
C563 C562 1.355 . S
C563 C565 1.419 . S
C564 C562 1.415 . S
C564 C569 1.425 . S
C564 C571 1.409 . S
C565 H557 0.930 . S
C565 C563 1.419 . S
C565 C566 1.362 . S
C566 H558 0.930 . S
C566 C565 1.362 . S
C566 C569 1.409 . S
C567 H559 0.930 . S
C567 C568 1.355 . S
C567 C569 1.415 . S
C568 C567 1.355 . S
C568 C570 1.419 . S
C569 C564 1.425 . S
C569 C566 1.409 . S
C569 C567 1.415 . S
C570 H560 0.930 . S
C570 C568 1.419 . S
C570 C571 1.362 . S
C571 H561 0.930 . S
C571 C564 1.409 . S
C571 C570 1.362 . S
H572 C578 0.930 . S
H573 C581 0.930 . S
H574 C582 0.930 . S
H575 C583 0.930 1_655 S
H576 C586 0.930 . S
H577 C587 0.930 . S
C578 H572 0.930 . S
C578 C579 1.355 . S
C578 C580 1.415 . S
C579 C578 1.355 . S
C579 C581 1.419 1_455 S
C580 C578 1.415 . S
C580 C585 1.425 . S
C580 C587 1.409 . S
C581 H573 0.930 . S
C581 C579 1.419 1_655 S
C581 C582 1.362 . S
C582 H574 0.930 . S
C582 C581 1.362 . S
C582 C585 1.409 1_655 S
C583 H575 0.930 1_455 S
C583 C584 1.355 . S
C583 C585 1.415 . S
C584 C583 1.355 . S
C584 C586 1.419 . S
C585 C580 1.425 . S
C585 C582 1.409 1_455 S
C585 C583 1.415 . S
C586 H576 0.930 . S
C586 C584 1.419 . S
C586 C587 1.362 . S
C587 H577 0.930 . S
C587 C580 1.409 . S
C587 C586 1.362 . S
H588 C594 0.930 . S
H589 C597 0.930 . S
H590 C598 0.930 . S
H591 C599 0.930 . S
H592 C602 0.930 . S
H593 C603 0.930 . S
C594 H588 0.930 . S
C594 C595 1.355 . S
C594 C596 1.415 . S
C595 C594 1.355 . S
C595 C597 1.419 . S
C596 C594 1.415 . S
C596 C601 1.425 . S
C596 C603 1.409 . S
C597 H589 0.930 . S
C597 C595 1.419 . S
C597 C598 1.362 . S
C598 H590 0.930 . S
C598 C597 1.362 . S
C598 C601 1.409 . S
C599 H591 0.930 . S
C599 C600 1.355 . S
C599 C601 1.415 . S
C600 C599 1.355 . S
C600 C602 1.419 . S
C601 C596 1.425 . S
C601 C598 1.409 . S
C601 C599 1.415 . S
C602 H592 0.930 . S
C602 C600 1.419 . S
C602 C603 1.362 . S
C603 H593 0.930 . S
C603 C596 1.409 . S
C603 C602 1.362 . S
H604 C610 0.930 . S
H605 C613 0.930 . S
H606 C614 0.930 . S
H607 C615 0.930 . S
H608 C618 0.930 . S
H609 C619 0.930 . S
C610 H604 0.930 . S
C610 C611 1.355 . S
C610 C612 1.415 . S
C611 C610 1.355 . S
C611 C613 1.419 . S
C612 C610 1.415 . S
C612 C617 1.425 . S
C612 C619 1.409 . S
C613 H605 0.930 . S
C613 C611 1.419 . S
C613 C614 1.362 . S
C614 H606 0.930 . S
C614 C613 1.362 . S
C614 C617 1.409 . S
C615 H607 0.930 . S
C615 C616 1.355 . S
C615 C617 1.415 . S
C616 C615 1.355 . S
C616 C618 1.419 . S
C617 C612 1.425 . S
C617 C614 1.409 . S
C617 C615 1.415 . S
C618 H608 0.930 . S
C618 C616 1.419 . S
C618 C619 1.362 . S
C619 H609 0.930 . S
C619 C612 1.409 . S
C619 C618 1.362 . S
H620 C626 0.930 . S
H621 C629 0.931 1_545 S
H622 C630 0.932 . S
H623 C631 0.930 . S
H624 C634 0.930 . S
H625 C635 0.930 . S
C626 H620 0.930 . S
C626 C627 1.355 . S
C626 C628 1.415 . S
C627 C626 1.355 . S
C627 C629 1.419 1_554 S
C628 C626 1.415 . S
C628 C633 1.425 . S
C628 C635 1.409 . S
C629 H621 0.931 1_565 S
C629 C627 1.419 1_556 S
C629 C630 1.361 1_556 S
C630 H622 0.932 . S
C630 C629 1.361 1_554 S
C630 C633 1.409 . S
C631 H623 0.930 . S
C631 C632 1.355 . S
C631 C633 1.415 . S
C632 C631 1.355 . S
C632 C634 1.419 . S
C633 C628 1.425 . S
C633 C630 1.409 . S
C633 C631 1.415 . S
C634 H624 0.930 . S
C634 C632 1.419 . S
C634 C635 1.362 . S
C635 H625 0.930 . S
C635 C628 1.409 . S
C635 C634 1.362 . S
H636 C642 0.930 . S
H637 C645 0.930 . S
H638 C646 0.930 . S
H639 C647 0.930 . S
H640 C650 0.930 . S
H641 C651 0.930 . S
C642 H636 0.930 . S
C642 C643 1.355 . S
C642 C644 1.415 . S
C643 C642 1.355 . S
C643 C645 1.419 . S
C644 C642 1.415 . S
C644 C649 1.425 . S
C644 C651 1.409 . S
C645 H637 0.930 . S
C645 C643 1.419 . S
C645 C646 1.362 . S
C646 H638 0.930 . S
C646 C645 1.362 . S
C646 C649 1.409 . S
C647 H639 0.930 . S
C647 C648 1.355 . S
C647 C649 1.415 . S
C648 C647 1.355 . S
C648 C650 1.419 . S
C649 C644 1.425 . S
C649 C646 1.409 . S
C649 C647 1.415 . S
C650 H640 0.930 . S
C650 C648 1.419 . S
C650 C651 1.362 . S
C651 H641 0.930 . S
C651 C644 1.409 . S
C651 C650 1.362 . S
H652 C658 0.930 . S
H653 C661 0.930 . S
H654 C662 0.930 . S
H655 C663 0.930 . S
H656 C666 0.930 . S
H657 C667 0.930 . S
C658 H652 0.930 . S
C658 C659 1.355 . S
C658 C660 1.415 . S
C659 C658 1.355 . S
C659 C661 1.419 . S
C660 C658 1.415 . S
C660 C665 1.425 . S
C660 C667 1.409 . S
C661 H653 0.930 . S
C661 C659 1.419 . S
C661 C662 1.362 . S
C662 H654 0.930 . S
C662 C661 1.362 . S
C662 C665 1.409 . S
C663 H655 0.930 . S
C663 C664 1.355 . S
C663 C665 1.415 . S
C664 C663 1.355 . S
C664 C666 1.419 . S
C665 C660 1.425 . S
C665 C662 1.409 . S
C665 C663 1.415 . S
C666 H656 0.930 . S
C666 C664 1.419 . S
C666 C667 1.362 . S
C667 H657 0.930 . S
C667 C660 1.409 . S
C667 C666 1.362 . S
H668 C674 0.930 . S
H669 C677 0.930 . S
H670 C678 0.930 . S
H671 C679 0.930 . S
H672 C682 0.930 . S
H673 C683 0.930 . S
C674 H668 0.930 . S
C674 C675 1.355 . S
C674 C676 1.415 . S
C675 C674 1.355 . S
C675 C677 1.419 . S
C676 C674 1.415 . S
C676 C681 1.425 . S
C676 C683 1.409 . S
C677 H669 0.930 . S
C677 C675 1.419 . S
C677 C678 1.362 . S
C678 H670 0.930 . S
C678 C677 1.362 . S
C678 C681 1.409 . S
C679 H671 0.930 . S
C679 C680 1.355 . S
C679 C681 1.415 . S
C680 C679 1.355 . S
C680 C682 1.419 . S
C681 C676 1.425 . S
C681 C678 1.409 . S
C681 C679 1.415 . S
C682 H672 0.930 . S
C682 C680 1.419 . S
C682 C683 1.362 . S
C683 H673 0.930 . S
C683 C676 1.409 . S
C683 C682 1.362 . S
H684 C690 0.930 . S
H685 C693 0.930 . S
H686 C694 0.930 . S
H687 C695 0.930 . S
H688 C698 0.930 . S
H689 C699 0.930 . S
C690 H684 0.930 . S
C690 C691 1.355 . S
C690 C692 1.415 . S
C691 C690 1.355 . S
C691 C693 1.419 . S
C692 C690 1.415 . S
C692 C697 1.425 . S
C692 C699 1.409 . S
C693 H685 0.930 . S
C693 C691 1.419 . S
C693 C694 1.362 . S
C694 H686 0.930 . S
C694 C693 1.362 . S
C694 C697 1.409 . S
C695 H687 0.930 . S
C695 C696 1.355 . S
C695 C697 1.415 . S
C696 C695 1.355 . S
C696 C698 1.419 . S
C697 C692 1.425 . S
C697 C694 1.409 . S
C697 C695 1.415 . S
C698 H688 0.930 . S
C698 C696 1.419 . S
C698 C699 1.362 . S
C699 H689 0.930 . S
C699 C692 1.409 . S
C699 C698 1.362 . S
H700 C706 0.930 . S
H701 C709 0.930 . S
H702 C710 0.930 . S
H703 C711 0.930 . S
H704 C714 0.930 . S
H705 C715 0.930 . S
C706 H700 0.930 . S
C706 C707 1.355 . S
C706 C708 1.415 . S
C707 C706 1.355 . S
C707 C709 1.419 . S
C708 C706 1.415 . S
C708 C713 1.425 . S
C708 C715 1.409 . S
C709 H701 0.930 . S
C709 C707 1.419 . S
C709 C710 1.362 . S
C710 H702 0.930 . S
C710 C709 1.362 . S
C710 C713 1.409 . S
C711 H703 0.930 . S
C711 C712 1.355 . S
C711 C713 1.415 . S
C712 C711 1.355 . S
C712 C714 1.419 . S
C713 C708 1.425 . S
C713 C710 1.409 . S
C713 C711 1.415 . S
C714 H704 0.930 . S
C714 C712 1.419 . S
C714 C715 1.362 . S
C715 H705 0.930 . S
C715 C708 1.409 . S
C715 C714 1.362 . S
H716 C722 0.930 . S
H717 C725 0.930 . S
H718 C726 0.930 . S
H719 C727 0.930 . S
H720 C730 0.930 . S
H721 C731 0.930 . S
C722 H716 0.930 . S
C722 C723 1.355 . S
C722 C724 1.415 . S
C723 C722 1.355 . S
C723 C725 1.419 . S
C724 C722 1.415 . S
C724 C729 1.425 . S
C724 C731 1.409 . S
C725 H717 0.930 . S
C725 C723 1.419 . S
C725 C726 1.362 . S
C726 H718 0.930 . S
C726 C725 1.362 . S
C726 C729 1.409 . S
C727 H719 0.930 . S
C727 C728 1.355 . S
C727 C729 1.415 . S
C728 C727 1.355 . S
C728 C730 1.419 . S
C729 C724 1.425 . S
C729 C726 1.409 . S
C729 C727 1.415 . S
C730 H720 0.930 . S
C730 C728 1.419 . S
C730 C731 1.362 . S
C731 H721 0.930 . S
C731 C724 1.409 . S
C731 C730 1.362 . S
H732 C738 0.930 . S
H733 C741 0.930 . S
H734 C742 0.930 1_565 S
H735 C743 0.930 1_565 S
H736 C746 0.930 . S
H737 C747 0.930 . S
C738 H732 0.930 . S
C738 C739 1.355 . S
C738 C740 1.415 . S
C739 C738 1.355 . S
C739 C741 1.419 . S
C740 C738 1.415 . S
C740 C745 1.425 . S
C740 C747 1.409 . S
C741 H733 0.930 . S
C741 C739 1.419 . S
C741 C742 1.362 . S
C742 H734 0.930 1_545 S
C742 C741 1.362 . S
C742 C745 1.409 . S
C743 H735 0.930 1_545 S
C743 C744 1.355 . S
C743 C745 1.415 . S
C744 C743 1.355 . S
C744 C746 1.419 . S
C745 C740 1.425 . S
C745 C742 1.409 . S
C745 C743 1.415 . S
C746 H736 0.930 . S
C746 C744 1.419 . S
C746 C747 1.362 . S
C747 H737 0.930 . S
C747 C740 1.409 . S
C747 C746 1.362 . S
H748 C754 0.930 . S
H749 C757 0.930 . S
H750 C758 0.930 . S
H751 C759 0.930 . S
H752 C762 0.930 . S
H753 C763 0.930 . S
C754 H748 0.930 . S
C754 C755 1.355 . S
C754 C756 1.415 . S
C755 C754 1.355 . S
C755 C757 1.419 . S
C756 C754 1.415 . S
C756 C761 1.425 . S
C756 C763 1.409 . S
C757 H749 0.930 . S
C757 C755 1.419 . S
C757 C758 1.362 . S
C758 H750 0.930 . S
C758 C757 1.362 . S
C758 C761 1.409 . S
C759 H751 0.930 . S
C759 C760 1.355 . S
C759 C761 1.415 . S
C760 C759 1.355 . S
C760 C762 1.419 . S
C761 C756 1.425 . S
C761 C758 1.409 . S
C761 C759 1.415 . S
C762 H752 0.930 . S
C762 C760 1.419 . S
C762 C763 1.362 . S
C763 H753 0.930 . S
C763 C756 1.409 . S
C763 C762 1.362 . S
H764 C770 0.930 . S
H765 C773 0.930 . S
H766 C774 0.930 . S
H767 C775 0.930 . S
H768 C778 0.930 . S
H769 C779 0.930 . S
C770 H764 0.930 . S
C770 C771 1.355 . S
C770 C772 1.415 . S
C771 C770 1.355 . S
C771 C773 1.419 . S
C772 C770 1.415 . S
C772 C777 1.425 . S
C772 C779 1.409 . S
C773 H765 0.930 . S
C773 C771 1.419 . S
C773 C774 1.362 . S
C774 H766 0.930 . S
C774 C773 1.362 . S
C774 C777 1.409 . S
C775 H767 0.930 . S
C775 C776 1.355 . S
C775 C777 1.415 . S
C776 C775 1.355 . S
C776 C778 1.419 . S
C777 C772 1.425 . S
C777 C774 1.409 . S
C777 C775 1.415 . S
C778 H768 0.930 . S
C778 C776 1.419 . S
C778 C779 1.362 . S
C779 H769 0.930 . S
C779 C772 1.409 . S
C779 C778 1.362 . S
H780 C786 0.930 . S
H781 C789 0.930 . S
H782 C790 0.930 . S
H783 C791 0.930 . S
H784 C794 0.930 . S
H785 C795 0.930 . S
C786 H780 0.930 . S
C786 C787 1.355 . S
C786 C788 1.415 . S
C787 C786 1.355 . S
C787 C789 1.419 . S
C788 C786 1.415 . S
C788 C793 1.425 . S
C788 C795 1.409 . S
C789 H781 0.930 . S
C789 C787 1.419 . S
C789 C790 1.362 . S
C790 H782 0.930 . S
C790 C789 1.362 . S
C790 C793 1.409 . S
C791 H783 0.930 . S
C791 C792 1.355 . S
C791 C793 1.415 . S
C792 C791 1.355 . S
C792 C794 1.419 . S
C793 C788 1.425 . S
C793 C790 1.409 . S
C793 C791 1.415 . S
C794 H784 0.930 . S
C794 C792 1.419 . S
C794 C795 1.362 . S
C795 H785 0.930 . S
C795 C788 1.409 . S
C795 C794 1.362 . S
H796 C802 0.930 . S
H797 C805 0.889 1_455 S
H798 C806 0.930 . S
H799 C807 0.930 . S
H800 C810 0.930 . S
H801 C811 0.930 . S
C802 H796 0.930 . S
C802 C803 1.355 . S
C802 C804 1.415 . S
C803 C802 1.355 . S
C803 C805 1.419 . S
C804 C802 1.415 . S
C804 C809 1.425 . S
C804 C811 1.409 . S
C805 H797 0.889 1_655 S
C805 C803 1.419 . S
C805 C806 1.362 . S
C806 H798 0.930 . S
C806 C805 1.362 . S
C806 C809 1.409 . S
C807 H799 0.930 . S
C807 C808 1.355 . S
C807 C809 1.415 . S
C808 C807 1.355 . S
C808 C810 1.419 . S
C809 C804 1.425 . S
C809 C806 1.409 . S
C809 C807 1.415 . S
C810 H800 0.930 . S
C810 C808 1.419 . S
C810 C811 1.362 . S
C811 H801 0.930 . S
C811 C804 1.409 . S
C811 C810 1.362 . S
H812 C818 0.930 . S
H813 C821 0.930 . S
H814 C822 0.930 . S
H815 C823 0.930 . S
H816 C826 0.930 . S
H817 C827 0.930 . S
C818 H812 0.930 . S
C818 C819 1.355 . S
C818 C820 1.415 . S
C819 C818 1.355 . S
C819 C821 1.419 . S
C820 C818 1.415 . S
C820 C825 1.425 . S
C820 C827 1.409 . S
C821 H813 0.930 . S
C821 C819 1.419 . S
C821 C822 1.362 . S
C822 H814 0.930 . S
C822 C821 1.362 . S
C822 C825 1.409 . S
C823 H815 0.930 . S
C823 C824 1.355 . S
C823 C825 1.415 . S
C824 C823 1.355 . S
C824 C826 1.419 . S
C825 C820 1.425 . S
C825 C822 1.409 . S
C825 C823 1.415 . S
C826 H816 0.930 . S
C826 C824 1.419 . S
C826 C827 1.362 . S
C827 H817 0.930 . S
C827 C820 1.409 . S
C827 C826 1.362 . S
H828 C834 0.930 . S
H829 C837 0.930 . S
H830 C838 0.930 1_655 S
H831 C839 0.930 . S
H832 C842 0.930 . S
H833 C843 0.930 . S
C834 H828 0.930 . S
C834 C835 1.355 . S
C834 C836 1.415 . S
C835 C834 1.355 . S
C835 C837 1.419 1_455 S
C836 C834 1.415 . S
C836 C841 1.425 . S
C836 C843 1.409 . S
C837 H829 0.930 . S
C837 C835 1.419 1_655 S
C837 C838 1.362 1_655 S
C838 H830 0.930 1_455 S
C838 C837 1.362 1_455 S
C838 C841 1.409 . S
C839 H831 0.930 . S
C839 C840 1.355 . S
C839 C841 1.415 . S
C840 C839 1.355 . S
C840 C842 1.419 . S
C841 C836 1.425 . S
C841 C838 1.409 . S
C841 C839 1.415 . S
C842 H832 0.930 . S
C842 C840 1.419 . S
C842 C843 1.362 . S
C843 H833 0.930 . S
C843 C836 1.409 . S
C843 C842 1.362 . S
H844 C850 0.930 . S
H845 C853 0.930 . S
H846 C854 0.930 . S
H847 C855 0.930 . S
H848 C858 0.930 . S
H849 C859 0.930 . S
C850 H844 0.930 . S
C850 C851 1.355 . S
C850 C852 1.415 . S
C851 C850 1.355 . S
C851 C853 1.419 . S
C852 C850 1.415 . S
C852 C857 1.425 . S
C852 C859 1.409 . S
C853 H845 0.930 . S
C853 C851 1.419 . S
C853 C854 1.362 . S
C854 H846 0.930 . S
C854 C853 1.362 . S
C854 C857 1.409 . S
C855 H847 0.930 . S
C855 C856 1.355 . S
C855 C857 1.415 . S
C856 C855 1.355 . S
C856 C858 1.419 . S
C857 C852 1.425 . S
C857 C854 1.409 . S
C857 C855 1.415 . S
C858 H848 0.930 . S
C858 C856 1.419 . S
C858 C859 1.362 . S
C859 H849 0.930 . S
C859 C852 1.409 . S
C859 C858 1.362 . S
H860 C866 0.930 1_455 S
H861 C869 0.930 . S
H862 C870 0.930 . S
H863 C871 0.930 . S
H864 C874 0.930 . S
H865 C875 0.930 . S
C866 H860 0.930 1_655 S
C866 C867 1.355 . S
C866 C868 1.415 . S
C867 C866 1.355 . S
C867 C869 1.419 . S
C868 C866 1.415 . S
C868 C873 1.425 . S
C868 C875 1.409 1_654 S
C869 H861 0.930 . S
C869 C867 1.419 . S
C869 C870 1.362 . S
C870 H862 0.930 . S
C870 C869 1.362 . S
C870 C873 1.409 . S
C871 H863 0.930 . S
C871 C872 1.355 1_654 S
C871 C873 1.415 . S
C872 C871 1.355 1_456 S
C872 C874 1.419 . S
C873 C868 1.425 . S
C873 C870 1.409 . S
C873 C871 1.415 . S
C874 H864 0.930 . S
C874 C872 1.419 . S
C874 C875 1.362 . S
C875 H865 0.930 . S
C875 C868 1.409 1_456 S
C875 C874 1.362 . S
H876 C882 0.930 . S
H877 C885 0.930 . S
H878 C886 0.930 . S
H879 C887 0.930 . S
H880 C890 0.930 . S
H881 C891 0.930 . S
C882 H876 0.930 . S
C882 C883 1.355 . S
C882 C884 1.415 . S
C883 C882 1.355 . S
C883 C885 1.419 . S
C884 C882 1.415 . S
C884 C889 1.425 . S
C884 C891 1.409 . S
C885 H877 0.930 . S
C885 C883 1.419 . S
C885 C886 1.362 . S
C886 H878 0.930 . S
C886 C885 1.362 . S
C886 C889 1.409 . S
C887 H879 0.930 . S
C887 C888 1.355 . S
C887 C889 1.415 . S
C888 C887 1.355 . S
C888 C890 1.419 . S
C889 C884 1.425 . S
C889 C886 1.409 . S
C889 C887 1.415 . S
C890 H880 0.930 . S
C890 C888 1.419 . S
C890 C891 1.362 . S
C891 H881 0.930 . S
C891 C884 1.409 . S
C891 C890 1.362 . S
H892 C898 0.930 . S
H893 C901 0.930 . S
H894 C902 0.930 . S
H895 C903 0.929 . S
H896 C906 0.930 . S
H897 C907 0.930 . S
C898 H892 0.930 . S
C898 C899 1.355 . S
C898 C900 1.427 . S
C899 C898 1.355 . S
C899 C901 1.419 1_455 S
C900 C898 1.427 . S
C900 C905 1.424 . S
C900 C907 1.395 1_554 S
C901 H893 0.930 . S
C901 C899 1.419 1_655 S
C901 C902 1.362 . S
C902 H894 0.930 . S
C902 C901 1.362 . S
C902 C905 1.430 1_655 S
C903 H895 0.929 . S
C903 C904 1.355 1_655 S
C903 C905 1.398 1_656 S
C904 C903 1.355 1_455 S
C904 C906 1.419 . S
C905 C900 1.424 . S
C905 C902 1.430 1_455 S
C905 C903 1.398 1_454 S
C906 H896 0.930 . S
C906 C904 1.419 . S
C906 C907 1.362 . S
C907 H897 0.930 . S
C907 C900 1.395 1_556 S
C907 C906 1.362 . S
H908 C914 0.930 . S
H909 C917 0.930 . S
H910 C918 0.930 . S
H911 C919 0.930 . S
H912 C922 0.930 . S
H913 C923 0.930 . S
C914 H908 0.930 . S
C914 C915 1.355 . S
C914 C916 1.415 . S
C915 C914 1.355 . S
C915 C917 1.419 . S
C916 C914 1.415 . S
C916 C921 1.425 . S
C916 C923 1.409 . S
C917 H909 0.930 . S
C917 C915 1.419 . S
C917 C918 1.362 . S
C918 H910 0.930 . S
C918 C917 1.362 . S
C918 C921 1.409 . S
C919 H911 0.930 . S
C919 C920 1.355 . S
C919 C921 1.415 . S
C920 C919 1.355 . S
C920 C922 1.419 . S
C921 C916 1.425 . S
C921 C918 1.409 . S
C921 C919 1.415 . S
C922 H912 0.930 . S
C922 C920 1.419 . S
C922 C923 1.362 . S
C923 H913 0.930 . S
C923 C916 1.409 . S
C923 C922 1.362 . S
H924 C930 0.930 . S
H925 C933 0.930 . S
H926 C934 0.930 . S
H927 C935 0.930 . S
H928 C938 0.930 . S
H929 C939 0.930 . S
C930 H924 0.930 . S
C930 C931 1.355 . S
C930 C932 1.415 . S
C931 C930 1.355 . S
C931 C933 1.419 . S
C932 C930 1.415 . S
C932 C937 1.425 . S
C932 C939 1.409 . S
C933 H925 0.930 . S
C933 C931 1.419 . S
C933 C934 1.362 . S
C934 H926 0.930 . S
C934 C933 1.362 . S
C934 C937 1.409 . S
C935 H927 0.930 . S
C935 C936 1.355 . S
C935 C937 1.415 . S
C936 C935 1.355 . S
C936 C938 1.419 . S
C937 C932 1.425 . S
C937 C934 1.409 . S
C937 C935 1.415 . S
C938 H928 0.930 . S
C938 C936 1.419 . S
C938 C939 1.362 . S
C939 H929 0.930 . S
C939 C932 1.409 . S
C939 C938 1.362 . S
H940 C946 0.930 . S
H941 C949 0.930 . S
H942 C950 0.930 . S
H943 C951 0.930 . S
H944 C954 0.930 . S
H945 C955 0.930 . S
C946 H940 0.930 . S
C946 C947 1.355 . S
C946 C948 1.415 . S
C947 C946 1.355 . S
C947 C949 1.419 . S
C948 C946 1.415 . S
C948 C953 1.425 . S
C948 C955 1.409 . S
C949 H941 0.930 . S
C949 C947 1.419 . S
C949 C950 1.362 . S
C950 H942 0.930 . S
C950 C949 1.362 . S
C950 C953 1.409 . S
C951 H943 0.930 . S
C951 C952 1.355 . S
C951 C953 1.415 . S
C952 C951 1.355 . S
C952 C954 1.419 . S
C953 C948 1.425 . S
C953 C950 1.409 . S
C953 C951 1.415 . S
C954 H944 0.930 . S
C954 C952 1.419 . S
C954 C955 1.362 . S
C955 H945 0.930 . S
C955 C948 1.409 . S
C955 C954 1.362 . S
H956 C962 0.930 . S
H957 C965 0.930 . S
H958 C966 0.930 . S
H959 C967 0.930 . S
H960 C970 0.930 . S
H961 C971 0.930 . S
C962 H956 0.930 . S
C962 C963 1.355 . S
C962 C964 1.415 . S
C963 C962 1.355 . S
C963 C965 1.419 . S
C964 C962 1.415 . S
C964 C969 1.425 . S
C964 C971 1.409 . S
C965 H957 0.930 . S
C965 C963 1.419 . S
C965 C966 1.362 . S
C966 H958 0.930 . S
C966 C965 1.362 . S
C966 C969 1.409 . S
C967 H959 0.930 . S
C967 C968 1.355 . S
C967 C969 1.415 . S
C968 C967 1.355 . S
C968 C970 1.419 . S
C969 C964 1.425 . S
C969 C966 1.409 . S
C969 C967 1.415 . S
C970 H960 0.930 . S
C970 C968 1.419 . S
C970 C971 1.362 . S
C971 H961 0.930 . S
C971 C964 1.409 . S
C971 C970 1.362 . S
H972 C978 0.930 . S
H973 C981 0.930 . S
H974 C982 0.930 . S
H975 C983 0.930 . S
H976 C986 0.930 . S
H977 C987 0.930 . S
C978 H972 0.930 . S
C978 C979 1.355 . S
C978 C980 1.415 . S
C979 C978 1.355 . S
C979 C981 1.419 . S
C980 C978 1.415 . S
C980 C985 1.425 . S
C980 C987 1.409 . S
C981 H973 0.930 . S
C981 C979 1.419 . S
C981 C982 1.362 . S
C982 H974 0.930 . S
C982 C981 1.362 . S
C982 C985 1.409 . S
C983 H975 0.930 . S
C983 C984 1.355 . S
C983 C985 1.415 . S
C984 C983 1.355 . S
C984 C986 1.419 . S
C985 C980 1.425 . S
C985 C982 1.409 . S
C985 C983 1.415 . S
C986 H976 0.930 . S
C986 C984 1.419 . S
C986 C987 1.362 . S
C987 H977 0.930 . S
C987 C980 1.409 . S
C987 C986 1.362 . S
H988 C994 0.930 . S
H989 C997 0.930 . S
H990 C998 0.930 . S
H991 C999 0.930 . S
H992 C1002 0.930 . S
H993 C1003 0.930 . S
C994 H988 0.930 . S
C994 C995 1.355 . S
C994 C996 1.415 . S
C995 C994 1.355 . S
C995 C997 1.419 . S
C996 C994 1.415 . S
C996 C1001 1.425 . S
C996 C1003 1.409 . S
C997 H989 0.930 . S
C997 C995 1.419 . S
C997 C998 1.362 . S
C998 H990 0.930 . S
C998 C997 1.362 . S
C998 C1001 1.409 . S
C999 H991 0.930 . S
C999 C1000 1.355 . S
C999 C1001 1.415 . S
C1000 C999 1.355 . S
C1000 C1002 1.419 . S
C1001 C996 1.425 . S
C1001 C998 1.409 . S
C1001 C999 1.415 . S
C1002 H992 0.930 . S
C1002 C1000 1.419 . S
C1002 C1003 1.362 . S
C1003 H993 0.930 . S
C1003 C996 1.409 . S
C1003 C1002 1.362 . S
H1004 C1010 0.930 . S
H1005 C1013 0.930 . S
H1006 C1014 0.930 . S
H1007 C1015 0.930 . S
H1008 C1018 0.930 . S
H1009 C1019 0.930 . S
C1010 H1004 0.930 . S
C1010 C1011 1.355 . S
C1010 C1012 1.415 . S
C1011 C1010 1.355 . S
C1011 C1013 1.419 . S
C1012 C1010 1.415 . S
C1012 C1017 1.425 . S
C1012 C1019 1.409 . S
C1013 H1005 0.930 . S
C1013 C1011 1.419 . S
C1013 C1014 1.362 . S
C1014 H1006 0.930 . S
C1014 C1013 1.362 . S
C1014 C1017 1.409 . S
C1015 H1007 0.930 . S
C1015 C1016 1.355 . S
C1015 C1017 1.415 . S
C1016 C1015 1.355 . S
C1016 C1018 1.419 . S
C1017 C1012 1.425 . S
C1017 C1014 1.409 . S
C1017 C1015 1.415 . S
C1018 H1008 0.930 . S
C1018 C1016 1.419 . S
C1018 C1019 1.362 . S
C1019 H1009 0.930 . S
C1019 C1012 1.409 . S
C1019 C1018 1.362 . S
H1020 C1026 0.930 . S
H1021 C1029 0.930 . S
H1022 C1030 0.930 . S
H1023 C1031 0.930 . S
H1024 C1034 0.930 . S
H1025 C1035 0.930 . S
C1026 H1020 0.930 . S
C1026 C1027 1.355 . S
C1026 C1028 1.415 . S
C1027 C1026 1.355 . S
C1027 C1029 1.419 . S
C1028 C1026 1.415 . S
C1028 C1033 1.425 . S
C1028 C1035 1.409 . S
C1029 H1021 0.930 . S
C1029 C1027 1.419 . S
C1029 C1030 1.362 . S
C1030 H1022 0.930 . S
C1030 C1029 1.362 . S
C1030 C1033 1.409 . S
C1031 H1023 0.930 . S
C1031 C1032 1.355 . S
C1031 C1033 1.415 . S
C1032 C1031 1.355 . S
C1032 C1034 1.419 . S
C1033 C1028 1.425 . S
C1033 C1030 1.409 . S
C1033 C1031 1.415 . S
C1034 H1024 0.930 . S
C1034 C1032 1.419 . S
C1034 C1035 1.362 . S
C1035 H1025 0.930 . S
C1035 C1028 1.409 . S
C1035 C1034 1.362 . S
H1036 C1042 0.930 . S
H1037 C1045 0.930 . S
H1038 C1046 0.930 . S
H1039 C1047 0.930 . S
H1040 C1050 0.930 1_554 S
H1041 C1051 0.930 . S
C1042 H1036 0.930 . S
C1042 C1043 1.355 . S
C1042 C1044 1.415 . S
C1043 C1042 1.355 . S
C1043 C1045 1.419 . S
C1044 C1042 1.415 . S
C1044 C1049 1.425 . S
C1044 C1051 1.409 . S
C1045 H1037 0.930 . S
C1045 C1043 1.419 . S
C1045 C1046 1.362 . S
C1046 H1038 0.930 . S
C1046 C1045 1.362 . S
C1046 C1049 1.409 . S
C1047 H1039 0.930 . S
C1047 C1048 1.355 . S
C1047 C1049 1.415 . S
C1048 C1047 1.355 . S
C1048 C1050 1.419 . S
C1049 C1044 1.425 . S
C1049 C1046 1.409 . S
C1049 C1047 1.415 . S
C1050 H1040 0.930 1_556 S
C1050 C1048 1.419 . S
C1050 C1051 1.362 . S
C1051 H1041 0.930 . S
C1051 C1044 1.409 . S
C1051 C1050 1.362 . S
H1052 C1058 0.930 . S
H1053 C1061 0.930 . S
H1054 C1062 0.930 . S
H1055 C1063 0.930 . S
H1056 C1066 0.930 . S
H1057 C1067 0.930 . S
C1058 H1052 0.930 . S
C1058 C1059 1.355 . S
C1058 C1060 1.415 . S
C1059 C1058 1.355 . S
C1059 C1061 1.419 . S
C1060 C1058 1.415 . S
C1060 C1065 1.425 . S
C1060 C1067 1.409 . S
C1061 H1053 0.930 . S
C1061 C1059 1.419 . S
C1061 C1062 1.362 . S
C1062 H1054 0.930 . S
C1062 C1061 1.362 . S
C1062 C1065 1.409 . S
C1063 H1055 0.930 . S
C1063 C1064 1.355 . S
C1063 C1065 1.415 . S
C1064 C1063 1.355 . S
C1064 C1066 1.419 . S
C1065 C1060 1.425 . S
C1065 C1062 1.409 . S
C1065 C1063 1.415 . S
C1066 H1056 0.930 . S
C1066 C1064 1.419 . S
C1066 C1067 1.362 . S
C1067 H1057 0.930 . S
C1067 C1060 1.409 . S
C1067 C1066 1.362 . S
H1068 C1074 0.930 . S
H1069 C1077 0.930 . S
H1070 C1078 0.930 . S
H1071 C1079 0.930 . S
H1072 C1082 0.930 . S
H1073 C1083 0.930 . S
C1074 H1068 0.930 . S
C1074 C1075 1.355 . S
C1074 C1076 1.415 . S
C1075 C1074 1.355 . S
C1075 C1077 1.419 . S
C1076 C1074 1.415 . S
C1076 C1081 1.425 . S
C1076 C1083 1.409 . S
C1077 H1069 0.930 . S
C1077 C1075 1.419 . S
C1077 C1078 1.362 . S
C1078 H1070 0.930 . S
C1078 C1077 1.362 . S
C1078 C1081 1.409 . S
C1079 H1071 0.930 . S
C1079 C1080 1.355 . S
C1079 C1081 1.415 . S
C1080 C1079 1.355 . S
C1080 C1082 1.419 . S
C1081 C1076 1.425 . S
C1081 C1078 1.409 . S
C1081 C1079 1.415 . S
C1082 H1072 0.930 . S
C1082 C1080 1.419 . S
C1082 C1083 1.362 . S
C1083 H1073 0.930 . S
C1083 C1076 1.409 . S
C1083 C1082 1.362 . S
H1084 C1090 0.930 1_545 S
H1085 C1093 0.930 . S
H1086 C1094 0.930 . S
H1087 C1095 0.930 . S
H1088 C1098 0.930 . S
H1089 C1099 0.930 . S
C1090 H1084 0.930 1_565 S
C1090 C1091 1.355 . S
C1090 C1092 1.415 . S
C1091 C1090 1.355 . S
C1091 C1093 1.419 . S
C1092 C1090 1.415 . S
C1092 C1097 1.425 . S
C1092 C1099 1.409 . S
C1093 H1085 0.930 . S
C1093 C1091 1.419 . S
C1093 C1094 1.362 . S
C1094 H1086 0.930 . S
C1094 C1093 1.362 . S
C1094 C1097 1.409 . S
C1095 H1087 0.930 . S
C1095 C1096 1.355 . S
C1095 C1097 1.415 . S
C1096 C1095 1.355 . S
C1096 C1098 1.419 . S
C1097 C1092 1.425 . S
C1097 C1094 1.409 . S
C1097 C1095 1.415 . S
C1098 H1088 0.930 . S
C1098 C1096 1.419 . S
C1098 C1099 1.362 . S
C1099 H1089 0.930 . S
C1099 C1092 1.409 . S
C1099 C1098 1.362 . S
C344 C186 1.134 . S
C339 C62 1.082 . S
C360 C199 1.646 . S
C355 C73 1.609 . S
C371 C84 1.438 . S
C376 C212 1.507 . S
C392 C225 1.321 . S
C387 C49 1.121 1_655 S
C408 C233 1.381 . S
C403 C118 1.394 . S
C424 C246 1.541 . S
C419 C137 1.266 . S
C435 C129 1.557 . S
C440 C259 1.551 . S
C456 C272 1.804 . S
C451 C106 1.816 . S
C467 C128 1.682 . S
C472 C290 1.751 . S
C488 C301 1.625 . S
C483 C104 1.414 . S
C499 C115 1.570 . S
C504 C285 1.742 . S
C520 C293 1.652 . S
C515 C139 1.662 . S
C531 C85 1.554 . S
C536 C316 1.567 . S
C547 C52 1.226 . S
C552 C306 1.215 . S
C563 C60 0.935 . S
C568 C311 1.093 . S
C579 C71 1.530 . S
C584 C314 1.544 . S
C595 C40 1.575 . S
C600 C223 1.706 . S
C611 C162 1.115 . S
C616 C215 1.130 . S
C632 C184 1.162 . S
C627 C173 1.231 . S
C648 C189 1.718 . S
C643 C93 1.595 . S
C659 C51 1.464 . S
C664 C236 1.437 . S
C680 C275 1.539 . S
C675 C126 1.355 . S
C696 C228 1.724 . S
C691 C107 1.723 . S
C712 C254 1.562 . S
C707 C140 1.565 . S
C728 C264 1.155 . S
C723 C161 1.130 . S
C739 C172 1.553 . S
C744 C277 1.607 . S
C755 C95 1.492 . S
C760 C238 1.530 . S
C776 C251 1.306 . S
C771 C148 1.149 . S
C787 C41 1.365 . S
C792 C207 1.348 . S
C808 C220 1.551 . S
C803 C5 1.299 . S
C824 C181 1.561 . S
C819 C19 1.539 . S
C840 C194 1.831 . S
C835 C29 1.797 1_455 S
C851 C18 1.731 . S
C856 C303 1.741 . S
C867 C27 1.516 . S
C872 C288 1.597 . S
C883 C38 1.482 . S
C888 C298 1.703 . S
C899 C7 1.686 . S
C904 C280 1.676 . S
C920 C329 1.560 . S
C915 C96 1.558 . S
C936 C319 1.226 . S
C931 C151 1.221 . S
C952 C324 1.019 . S
C947 C159 1.067 . S
C963 C170 1.484 . S
C968 C327 1.583 . S
C979 C117 1.564 . S
C984 C249 1.703 . S
C1000 C241 1.090 . S
C995 C63 1.095 . S
C1016 C262 1.207 . S
C1011 C74 1.230 . S
C1032 C267 1.726 . S
C1027 C82 1.508 . S
C1043 C150 1.437 . S
C1048 C210 1.485 1_556 S
C1064 C197 1.538 . S
C1059 C16 1.408 . S
C1075 C30 1.711 . S
C1080 C202 1.740 . S
C1096 C176 1.566 . S
C1091 C8 1.569 1_565 S
