# Generated by pormake.
# Topology ocu, (6,8)-cn, num edge types: 1
# Building blocks:
#     Node 0, Type 0, BuildingBlock: KUMBUR_clean_sbu_0, # of connection points: 6
#     Node 1, Type 0, BuildingBlock: KUMBUR_clean_sbu_0, # of connection points: 6
#     Node 2, Type 0, BuildingBlock: KUMBUR_clean_sbu_0, # of connection points: 6
#     Node 3, Type 0, BuildingBlock: KUMBUR_clean_sbu_0, # of connection points: 6
#     Node 4, Type 0, BuildingBlock: KUMBUR_clean_sbu_0, # of connection points: 6
#     Node 5, Type 0, BuildingBlock: KUMBUR_clean_sbu_0, # of connection points: 6
#     Node 6, Type 0, BuildingBlock: KUMBUR_clean_sbu_0, # of connection points: 6
#     Node 7, Type 0, BuildingBlock: KUMBUR_clean_sbu_0, # of connection points: 6
#     Node 8, Type 1, BuildingBlock: GIZVER_clean_sbu_0, # of connection points: 8
#     Node 9, Type 1, BuildingBlock: GIZVER_clean_sbu_0, # of connection points: 8
#     Node 10, Type 1, BuildingBlock: GIZVER_clean_sbu_0, # of connection points: 8
#     Node 11, Type 1, BuildingBlock: GIZVER_clean_sbu_0, # of connection points: 8
#     Node 12, Type 1, BuildingBlock: GIZVER_clean_sbu_0, # of connection points: 8
#     Node 13, Type 1, BuildingBlock: GIZVER_clean_sbu_0, # of connection points: 8
#     Edge 14, Type (0, 1), BuildingBlock: MIFKUJ_clean_linker_0, # of connection points: 2
#     Edge 15, Type (0, 1), BuildingBlock: MIFKUJ_clean_linker_0, # of connection points: 2
#     Edge 16, Type (0, 1), BuildingBlock: MIFKUJ_clean_linker_0, # of connection points: 2
#     Edge 17, Type (0, 1), BuildingBlock: MIFKUJ_clean_linker_0, # of connection points: 2
#     Edge 18, Type (0, 1), BuildingBlock: MIFKUJ_clean_linker_0, # of connection points: 2
#     Edge 19, Type (0, 1), BuildingBlock: MIFKUJ_clean_linker_0, # of connection points: 2
#     Edge 20, Type (0, 1), BuildingBlock: MIFKUJ_clean_linker_0, # of connection points: 2
#     Edge 21, Type (0, 1), BuildingBlock: MIFKUJ_clean_linker_0, # of connection points: 2
#     Edge 22, Type (0, 1), BuildingBlock: MIFKUJ_clean_linker_0, # of connection points: 2
#     Edge 23, Type (0, 1), BuildingBlock: MIFKUJ_clean_linker_0, # of connection points: 2
#     Edge 24, Type (0, 1), BuildingBlock: MIFKUJ_clean_linker_0, # of connection points: 2
#     Edge 25, Type (0, 1), BuildingBlock: MIFKUJ_clean_linker_0, # of connection points: 2
#     Edge 26, Type (0, 1), BuildingBlock: MIFKUJ_clean_linker_0, # of connection points: 2
#     Edge 27, Type (0, 1), BuildingBlock: MIFKUJ_clean_linker_0, # of connection points: 2
#     Edge 28, Type (0, 1), BuildingBlock: MIFKUJ_clean_linker_0, # of connection points: 2
#     Edge 29, Type (0, 1), BuildingBlock: MIFKUJ_clean_linker_0, # of connection points: 2
#     Edge 30, Type (0, 1), BuildingBlock: MIFKUJ_clean_linker_0, # of connection points: 2
#     Edge 31, Type (0, 1), BuildingBlock: MIFKUJ_clean_linker_0, # of connection points: 2
#     Edge 32, Type (0, 1), BuildingBlock: MIFKUJ_clean_linker_0, # of connection points: 2
#     Edge 33, Type (0, 1), BuildingBlock: MIFKUJ_clean_linker_0, # of connection points: 2
#     Edge 34, Type (0, 1), BuildingBlock: MIFKUJ_clean_linker_0, # of connection points: 2
#     Edge 35, Type (0, 1), BuildingBlock: MIFKUJ_clean_linker_0, # of connection points: 2
#     Edge 36, Type (0, 1), BuildingBlock: MIFKUJ_clean_linker_0, # of connection points: 2
#     Edge 37, Type (0, 1), BuildingBlock: MIFKUJ_clean_linker_0, # of connection points: 2
#     Edge 38, Type (0, 1), BuildingBlock: MIFKUJ_clean_linker_0, # of connection points: 2
#     Edge 39, Type (0, 1), BuildingBlock: MIFKUJ_clean_linker_0, # of connection points: 2
#     Edge 40, Type (0, 1), BuildingBlock: MIFKUJ_clean_linker_0, # of connection points: 2
#     Edge 41, Type (0, 1), BuildingBlock: MIFKUJ_clean_linker_0, # of connection points: 2
#     Edge 42, Type (0, 1), BuildingBlock: MIFKUJ_clean_linker_0, # of connection points: 2
#     Edge 43, Type (0, 1), BuildingBlock: MIFKUJ_clean_linker_0, # of connection points: 2
#     Edge 44, Type (0, 1), BuildingBlock: MIFKUJ_clean_linker_0, # of connection points: 2
#     Edge 45, Type (0, 1), BuildingBlock: MIFKUJ_clean_linker_0, # of connection points: 2
#     Edge 46, Type (0, 1), BuildingBlock: MIFKUJ_clean_linker_0, # of connection points: 2
#     Edge 47, Type (0, 1), BuildingBlock: MIFKUJ_clean_linker_0, # of connection points: 2
#     Edge 48, Type (0, 1), BuildingBlock: MIFKUJ_clean_linker_0, # of connection points: 2
#     Edge 49, Type (0, 1), BuildingBlock: MIFKUJ_clean_linker_0, # of connection points: 2
#     Edge 50, Type (0, 1), BuildingBlock: MIFKUJ_clean_linker_0, # of connection points: 2
#     Edge 51, Type (0, 1), BuildingBlock: MIFKUJ_clean_linker_0, # of connection points: 2
#     Edge 52, Type (0, 1), BuildingBlock: MIFKUJ_clean_linker_0, # of connection points: 2
#     Edge 53, Type (0, 1), BuildingBlock: MIFKUJ_clean_linker_0, # of connection points: 2
#     Edge 54, Type (0, 1), BuildingBlock: MIFKUJ_clean_linker_0, # of connection points: 2
#     Edge 55, Type (0, 1), BuildingBlock: MIFKUJ_clean_linker_0, # of connection points: 2
#     Edge 56, Type (0, 1), BuildingBlock: MIFKUJ_clean_linker_0, # of connection points: 2
#     Edge 57, Type (0, 1), BuildingBlock: MIFKUJ_clean_linker_0, # of connection points: 2
#     Edge 58, Type (0, 1), BuildingBlock: MIFKUJ_clean_linker_0, # of connection points: 2
#     Edge 59, Type (0, 1), BuildingBlock: MIFKUJ_clean_linker_0, # of connection points: 2
#     Edge 60, Type (0, 1), BuildingBlock: MIFKUJ_clean_linker_0, # of connection points: 2
#     Edge 61, Type (0, 1), BuildingBlock: MIFKUJ_clean_linker_0, # of connection points: 2
# Relax obj value: 0.163
# Max RMSD: 0.304
# Mean RMSD: 0.215
data_MOF--net-ocu--node1-KUMBUR_clean_sbu_0--node2-GIZVER_clean_sbu_0--edge1-MIFKUJ_clean_linker_0
_symmetry_space_group_name_H-M    P1
_symmetry_Int_Tables_number       1
_symmetry_cell_setting            triclinic
loop_
_symmetry_equiv_pos_as_xyz
'x, y, z'
_cell_length_a     54.109081
_cell_length_b     56.491851
_cell_length_c     43.390401
_cell_angle_alpha  80.412995
_cell_angle_beta   99.293328
_cell_angle_gamma 109.54161
loop_
_atom_site_label
_atom_site_type_symbol
_atom_site_fract_x
_atom_site_fract_y
_atom_site_fract_z
_atom_type_partial_charge
Tb0 Tb 0.25882 0.24211 0.21589 0.0
C1 C 0.32817 0.30021 0.32029 0.0
C2 C 0.33376 0.26778 0.36223 0.0
C3 C 0.36822 0.30848 0.35702 0.0
C4 C 0.3189 0.27606 0.33538 0.0
C5 C 0.35271 0.31693 0.3312 0.0
C6 C 0.35874 0.28392 0.37253 0.0
C7 C 0.3437 0.34958 0.29191 0.0
N8 N 0.31246 0.30766 0.29567 0.0
C9 C 0.31951 0.33229 0.28202 0.0
C10 C 0.36053 0.34181 0.31639 0.0
Tb11 Tb 0.27347 0.27777 0.28046 0.0
N12 N 0.2945 0.2613 0.32495 0.0
C13 C 0.28313 0.23851 0.34181 0.0
C14 C 0.32269 0.24392 0.37851 0.0
C15 C 0.2971 0.2294 0.36846 0.0
H16 H 0.30681 0.33859 0.26298 0.0
H17 H 0.28801 0.21112 0.38111 0.0
H18 H 0.37057 0.27782 0.39293 0.0
H19 H 0.34924 0.3689 0.28068 0.0
H20 H 0.26353 0.22676 0.33454 0.0
H21 H 0.2403 0.30872 0.11697 0.0
H22 H 0.33341 0.23689 0.39929 0.0
H23 H 0.22869 0.18012 0.23031 0.0
H24 H 0.26678 0.29294 0.16184 0.0
H25 H 0.18668 0.14894 0.2129 0.0
H26 H 0.38723 0.32097 0.36563 0.0
H27 H 0.1947 0.28249 0.10076 0.0
H28 H 0.15862 0.24075 0.10742 0.0
H29 H 0.37917 0.35529 0.32418 0.0
H30 H 0.14404 0.19697 0.13342 0.0
N31 N 0.23634 0.25823 0.17243 0.0
C32 C 0.24697 0.28115 0.15539 0.0
C33 C 0.20623 0.27545 0.12072 0.0
C34 C 0.19609 0.25131 0.13681 0.0
C35 C 0.23198 0.29025 0.12972 0.0
C36 C 0.2119 0.24314 0.16272 0.0
H37 H 0.15466 0.16234 0.17233 0.0
N38 N 0.22048 0.21137 0.20062 0.0
C39 C 0.19115 0.16855 0.20279 0.0
C40 C 0.20369 0.2187 0.17725 0.0
C41 C 0.21501 0.18637 0.2126 0.0
C42 C 0.17309 0.1762 0.17996 0.0
C43 C 0.17945 0.20147 0.16647 0.0
O44 O 0.27493 0.21447 0.20846 0.0
O45 O 0.2829 0.24856 0.26163 0.0
O46 O 0.30966 0.28773 0.25851 0.0
O47 O 0.29046 0.27852 0.20837 0.0
O48 O 0.26634 0.21233 0.25239 0.0
O49 O 0.27966 0.24827 0.17646 0.0
O50 O 0.26097 0.30744 0.28926 0.0
O51 O 0.24905 0.2712 0.23495 0.0
O52 O 0.22292 0.22944 0.23908 0.0
O53 O 0.24139 0.24209 0.28822 0.0
O54 O 0.26628 0.30748 0.24378 0.0
O55 O 0.24997 0.27137 0.3173 0.0
C56 C 0.28179 0.22578 0.27315 0.0
C57 C 0.27776 0.2111 0.15566 0.0
C58 C 0.28992 0.18514 0.12376 0.0
C59 C 0.29626 0.20047 0.14863 0.0
C60 C 0.26449 0.18032 0.10697 0.0
C61 C 0.2531 0.20642 0.13759 0.0
C62 C 0.24648 0.19101 0.11367 0.0
C63 C 0.31048 0.29041 0.22791 0.0
C64 C 0.28377 0.22645 0.18226 0.0
C65 C 0.16289 0.20982 0.14184 0.0
C66 C 0.17119 0.23475 0.12705 0.0
C67 C 0.25018 0.29401 0.22349 0.0
C68 C 0.25311 0.30729 0.34148 0.0
C69 C 0.23451 0.31818 0.34749 0.0
C70 C 0.23834 0.32986 0.37515 0.0
C71 C 0.26134 0.33088 0.39609 0.0
C72 C 0.27569 0.30862 0.36298 0.0
C73 C 0.27979 0.32042 0.38998 0.0
C74 C 0.22193 0.22849 0.26949 0.0
C75 C 0.24875 0.29436 0.31305 0.0
H76 H 0.31551 0.20439 0.16223 0.0
H77 H 0.25821 0.16799 0.08865 0.0
H78 H 0.23883 0.21457 0.14203 0.0
H79 H 0.22716 0.18722 0.10027 0.0
H80 H 0.21691 0.31708 0.33106 0.0
H81 H 0.26522 0.34 0.41722 0.0
H82 H 0.29014 0.30045 0.35901 0.0
H83 H 0.29736 0.32139 0.40637 0.0
Tb84 Tb 0.78314 0.24146 0.26759 0.0
C85 C 0.72074 0.30696 0.27851 0.0
C86 C 0.67686 0.27722 0.28299 0.0
C87 C 0.69099 0.31521 0.3089 0.0
C88 C 0.70168 0.28452 0.27145 0.0
C89 C 0.71508 0.32307 0.29612 0.0
C90 C 0.67199 0.29224 0.30253 0.0
C91 C 0.75598 0.35499 0.28414 0.0
N92 N 0.744 0.31394 0.26615 0.0
C93 C 0.76106 0.33827 0.26752 0.0
C94 C 0.73321 0.34715 0.29917 0.0
Tb95 Tb 0.74903 0.28522 0.23727 0.0
N96 N 0.7067 0.27075 0.25168 0.0
C97 C 0.68682 0.25028 0.24121 0.0
C98 C 0.65724 0.25553 0.27367 0.0
C99 C 0.66216 0.2423 0.25231 0.0
H100 H 0.77948 0.34447 0.25734 0.0
H101 H 0.64697 0.22583 0.24433 0.0
H102 H 0.65317 0.28673 0.31181 0.0
H103 H 0.76994 0.37374 0.28588 0.0
H104 H 0.68945 0.23906 0.22514 0.0
H105 H 0.88203 0.30858 0.29005 0.0
H106 H 0.63802 0.24927 0.28209 0.0
H107 H 0.76882 0.18872 0.23259 0.0
H108 H 0.8371 0.28632 0.29985 0.0
H109 H 0.78413 0.17507 0.19053 0.0
H110 H 0.68652 0.32714 0.3229 0.0
H111 H 0.89995 0.29992 0.24589 0.0
H112 H 0.8936 0.27436 0.20215 0.0
H113 H 0.72944 0.36007 0.31229 0.0
H114 H 0.86596 0.23911 0.17292 0.0
N115 N 0.82726 0.26396 0.26167 0.0
C116 C 0.84357 0.28147 0.28062 0.0
C117 C 0.87972 0.28967 0.25018 0.0
C118 C 0.86368 0.27121 0.23154 0.0
C119 C 0.8697 0.29453 0.27512 0.0
C120 C 0.83739 0.25836 0.2381 0.0
H121 H 0.825 0.20206 0.16817 0.0
N122 N 0.79771 0.22541 0.23062 0.0
C123 C 0.79466 0.19339 0.19837 0.0
C124 C 0.82186 0.23876 0.22158 0.0
C125 C 0.78569 0.20157 0.22182 0.0
C126 C 0.8177 0.20863 0.18587 0.0
C127 C 0.8323 0.23102 0.19854 0.0
O128 O 0.76883 0.20258 0.28198 0.0
O129 O 0.74522 0.24808 0.26207 0.0
O130 O 0.77233 0.2962 0.28267 0.0
O131 O 0.79374 0.26646 0.30388 0.0
O132 O 0.75893 0.23555 0.30567 0.0
O133 O 0.80622 0.22534 0.30315 0.0
O134 O 0.76607 0.32098 0.21373 0.0
O135 O 0.78747 0.27899 0.24295 0.0
O136 O 0.75404 0.22653 0.22686 0.0
O137 O 0.73006 0.25456 0.20883 0.0
O138 O 0.76968 0.28465 0.19862 0.0
O139 O 0.72588 0.29923 0.19927 0.0
C140 C 0.73896 0.24087 0.28976 0.0
C141 C 0.77973 0.1918 0.33633 0.0
C142 C 0.79227 0.1803 0.39227 0.0
C143 C 0.7989 0.19343 0.36255 0.0
C144 C 0.76547 0.16687 0.39549 0.0
C145 C 0.75321 0.17821 0.34032 0.0
C146 C 0.74616 0.16624 0.36983 0.0
C147 C 0.78754 0.28693 0.30524 0.0
C148 C 0.78778 0.20341 0.30481 0.0
C149 C 0.85776 0.24471 0.19066 0.0
C150 C 0.87349 0.26471 0.20728 0.0
C151 C 0.7913 0.28319 0.21424 0.0
C152 C 0.75237 0.32537 0.1593 0.0
C153 C 0.73262 0.31895 0.13391 0.0
C154 C 0.7385 0.32679 0.10245 0.0
C155 C 0.765 0.33986 0.09721 0.0
C156 C 0.77847 0.33873 0.15304 0.0
C157 C 0.78473 0.34543 0.12228 0.0
C158 C 0.7354 0.23365 0.20732 0.0
C159 C 0.74593 0.3192 0.1923 0.0
H160 H 0.81909 0.20458 0.35932 0.0
H161 H 0.75926 0.15592 0.41742 0.0
H162 H 0.73789 0.17656 0.32064 0.0
H163 H 0.7257 0.15571 0.37261 0.0
H164 H 0.71267 0.3084 0.13889 0.0
H165 H 0.77064 0.34702 0.07381 0.0
H166 H 0.79418 0.34423 0.17192 0.0
H167 H 0.80489 0.35576 0.11783 0.0
Tb168 Tb 0.74766 0.75428 0.27988 0.0
C169 C 0.80992 0.81859 0.17383 0.0
C170 C 0.77569 0.82585 0.1339 0.0
C171 C 0.81956 0.85678 0.13648 0.0
C172 C 0.78418 0.81104 0.16029 0.0
C173 C 0.82821 0.84113 0.16153 0.0
C174 C 0.79328 0.84916 0.12271 0.0
C175 C 0.8626 0.8294 0.19698 0.0
N176 N 0.81747 0.8027 0.1976 0.0
C177 C 0.84366 0.80728 0.20843 0.0
C178 C 0.85477 0.84665 0.17384 0.0
Tb179 Tb 0.78504 0.7671 0.2153 0.0
N180 N 0.76816 0.78809 0.17129 0.0
C181 C 0.74404 0.77782 0.15495 0.0
C182 C 0.75022 0.81623 0.11869 0.0
C183 C 0.73454 0.79188 0.12888 0.0
H184 H 0.85007 0.79421 0.22635 0.0
H185 H 0.71509 0.7839 0.11673 0.0
H186 H 0.78706 0.86095 0.10269 0.0
H187 H 0.88319 0.83316 0.20611 0.0
H188 H 0.73154 0.75905 0.16235 0.0
H189 H 0.81902 0.74183 0.37922 0.0
H190 H 0.74289 0.82701 0.09838 0.0
H191 H 0.68368 0.72337 0.26669 0.0
H192 H 0.80196 0.76472 0.3323 0.0
H193 H 0.65202 0.68319 0.28679 0.0
H194 H 0.83322 0.87433 0.12691 0.0
H195 H 0.79205 0.69904 0.39981 0.0
H196 H 0.74883 0.6638 0.39632 0.0
H197 H 0.86948 0.86372 0.16497 0.0
H198 H 0.70325 0.64774 0.37108 0.0
N199 N 0.76548 0.73504 0.32487 0.0
C200 C 0.78969 0.74612 0.34059 0.0
C201 C 0.78434 0.70901 0.37897 0.0
C202 C 0.75903 0.69834 0.36395 0.0
C203 C 0.79958 0.73317 0.36747 0.0
C204 C 0.75004 0.71209 0.3368 0.0
H205 H 0.66682 0.655 0.33042 0.0
N206 N 0.71651 0.71775 0.29785 0.0
C207 C 0.67243 0.68849 0.29703 0.0
C208 C 0.72459 0.70308 0.32274 0.0
C209 C 0.69047 0.7113 0.28573 0.0
C210 C 0.68087 0.67259 0.3216 0.0
C211 C 0.70714 0.68003 0.33518 0.0
O212 O 0.71768 0.76799 0.28807 0.0
O213 O 0.75464 0.7769 0.23383 0.0
O214 O 0.79927 0.80206 0.23719 0.0
O215 O 0.78481 0.78513 0.28618 0.0
O216 O 0.71667 0.76062 0.24297 0.0
O217 O 0.75522 0.7776 0.31583 0.0
O218 O 0.81289 0.75009 0.20882 0.0
O219 O 0.77817 0.74454 0.26157 0.0
O220 O 0.7352 0.71915 0.25849 0.0
O221 O 0.74766 0.73656 0.20873 0.0
O222 O 0.81598 0.76087 0.25207 0.0
O223 O 0.77772 0.74608 0.17693 0.0
C224 C 0.73086 0.77569 0.22233 0.0
C225 C 0.71858 0.77735 0.33963 0.0
C226 C 0.69971 0.79535 0.37459 0.0
C227 C 0.71198 0.79782 0.34716 0.0
C228 C 0.69382 0.77186 0.39371 0.0
C229 C 0.71266 0.75444 0.35949 0.0
C230 C 0.70028 0.75172 0.38623 0.0
C231 C 0.79921 0.80359 0.26724 0.0
C232 C 0.73178 0.78001 0.31126 0.0
C233 C 0.71627 0.66562 0.36132 0.0
C234 C 0.74221 0.67477 0.37569 0.0
C235 C 0.80202 0.7458 0.27295 0.0
C236 C 0.81524 0.7439 0.15696 0.0
C237 C 0.8222 0.72338 0.15025 0.0
C238 C 0.83751 0.72642 0.12534 0.0
C239 C 0.84595 0.75056 0.10794 0.0
C240 C 0.82355 0.76738 0.13861 0.0
C241 C 0.83889 0.77067 0.11441 0.0
C242 C 0.73494 0.71761 0.22841 0.0
C243 C 0.79977 0.74083 0.18342 0.0
H244 H 0.71675 0.81565 0.33199 0.0
H245 H 0.68385 0.76886 0.41443 0.0
H246 H 0.71759 0.73861 0.35436 0.0
H247 H 0.69562 0.73385 0.40127 0.0
H248 H 0.81545 0.70513 0.16418 0.0
H249 H 0.8584 0.75413 0.08939 0.0
H250 H 0.81829 0.78323 0.14305 0.0
H251 H 0.84549 0.789 0.10065 0.0
Tb252 Tb 0.29073 0.73489 0.26561 0.0
C253 C 0.23151 0.79557 0.16795 0.0
C254 C 0.26288 0.83631 0.1536 0.0
C255 C 0.22654 0.81744 0.11526 0.0
C256 C 0.25416 0.81467 0.17547 0.0
C257 C 0.21688 0.79698 0.13811 0.0
C258 C 0.24956 0.83715 0.12303 0.0
C259 C 0.18276 0.75984 0.15721 0.0
N260 N 0.22262 0.77664 0.19102 0.0
C261 C 0.19798 0.75938 0.1865 0.0
C262 C 0.19243 0.77845 0.13272 0.0
Tb263 Tb 0.24924 0.77648 0.23798 0.0
N264 N 0.2658 0.81332 0.2055 0.0
C265 C 0.28441 0.83437 0.21608 0.0
C266 C 0.28361 0.85702 0.16371 0.0
C267 C 0.29394 0.85628 0.19533 0.0
H268 H 0.19042 0.74466 0.20509 0.0
H269 H 0.30932 0.87253 0.20375 0.0
H270 H 0.25619 0.85342 0.10572 0.0
H271 H 0.16371 0.74575 0.15345 0.0
H272 H 0.2927 0.83429 0.24035 0.0
H273 H 0.23334 0.64071 0.30944 0.0
H274 H 0.29093 0.87403 0.14771 0.0
H275 H 0.35063 0.76999 0.2924 0.0
H276 H 0.2465 0.67803 0.27016 0.0
H277 H 0.38135 0.77096 0.3409 0.0
H278 H 0.21579 0.81874 0.09204 0.0
H279 H 0.25787 0.64047 0.36256 0.0
H280 H 0.29588 0.66272 0.4003 0.0
H281 H 0.18054 0.7788 0.11012 0.0
H282 H 0.33635 0.69846 0.40896 0.0
N283 N 0.27631 0.70006 0.3016 0.0
C284 C 0.25666 0.67871 0.29367 0.0
C285 C 0.26298 0.6574 0.34591 0.0
C286 C 0.28426 0.67864 0.35336 0.0
C287 C 0.24927 0.65736 0.31582 0.0
C288 C 0.29063 0.69979 0.33026 0.0
H289 H 0.36885 0.73862 0.38656 0.0
N290 N 0.32037 0.73768 0.31032 0.0
C291 C 0.36233 0.75636 0.33954 0.0
C292 C 0.31366 0.71939 0.33479 0.0
C293 C 0.3448 0.75566 0.31196 0.0
C294 C 0.35515 0.73818 0.36533 0.0
C295 C 0.33077 0.71907 0.36294 0.0
O296 O 0.32398 0.73314 0.24762 0.0
O297 O 0.28422 0.76724 0.23552 0.0
O298 O 0.24625 0.75257 0.20153 0.0
O299 O 0.25616 0.71813 0.2325 0.0
O300 O 0.3219 0.76614 0.24381 0.0
O301 O 0.28703 0.70345 0.24285 0.0
O302 O 0.21425 0.77834 0.2516 0.0
O303 O 0.25533 0.7439 0.26826 0.0
O304 O 0.2945 0.7589 0.30244 0.0
O305 O 0.28373 0.79279 0.27119 0.0
O306 O 0.2174 0.74437 0.25719 0.0
O307 O 0.25191 0.80443 0.26596 0.0
C308 C 0.3073 0.77896 0.22869 0.0
C309 C 0.32574 0.69189 0.24744 0.0
C310 C 0.34668 0.66335 0.23338 0.0
C311 C 0.3341 0.68215 0.22442 0.0
C312 C 0.35104 0.65488 0.26555 0.0
C313 C 0.33057 0.68312 0.27927 0.0
C314 C 0.34312 0.66476 0.28823 0.0
C315 C 0.24535 0.72844 0.20627 0.0
C316 C 0.31182 0.71096 0.23835 0.0
C317 C 0.32357 0.69902 0.38706 0.0
C318 C 0.30042 0.67871 0.38218 0.0
C319 C 0.2318 0.73167 0.27324 0.0
C320 C 0.2154 0.81929 0.25894 0.0
C321 C 0.20445 0.82579 0.28239 0.0
C322 C 0.19544 0.847 0.2764 0.0
C323 C 0.19732 0.86143 0.24667 0.0
C324 C 0.21658 0.83369 0.22926 0.0
C325 C 0.20764 0.85467 0.22323 0.0
C326 C 0.29424 0.78271 0.29781 0.0
C327 C 0.22652 0.79821 0.26603 0.0
H328 H 0.33044 0.68881 0.19975 0.0
H329 H 0.36092 0.64075 0.27324 0.0
H330 H 0.32467 0.69045 0.29725 0.0
H331 H 0.34674 0.65816 0.31291 0.0
H332 H 0.2034 0.8147 0.30535 0.0
H333 H 0.19036 0.87771 0.24141 0.0
H334 H 0.22452 0.82885 0.21081 0.0
H335 H 0.20876 0.86575 0.20031 0.0
Tb336 Tb 0.28758 0.73185 0.76249 0.0
C337 C 0.21811 0.79093 0.7659 0.0
C338 C 0.17465 0.7597 0.76156 0.0
C339 C 0.18291 0.7947 0.79154 0.0
C340 C 0.20109 0.76908 0.75443 0.0
C341 C 0.20881 0.8045 0.78351 0.0
C342 C 0.1659 0.77228 0.7807 0.0
C343 C 0.25006 0.83823 0.78048 0.0
N344 N 0.24315 0.79989 0.758 0.0
C345 C 0.25844 0.82413 0.76322 0.0
C346 C 0.22538 0.82811 0.79136 0.0
Tb347 Tb 0.25437 0.77545 0.72829 0.0
N348 N 0.21009 0.75743 0.73566 0.0
C349 C 0.19304 0.73631 0.72315 0.0
C350 C 0.15759 0.73807 0.74902 0.0
C351 C 0.16683 0.72648 0.72959 0.0
H352 H 0.27793 0.83223 0.75564 0.0
H353 H 0.15386 0.7097 0.71975 0.0
H354 H 0.14578 0.76516 0.7866 0.0
H355 H 0.26276 0.85685 0.78555 0.0
H356 H 0.19915 0.72573 0.70935 0.0
H357 H 0.38909 0.77739 0.73977 0.0
H358 H 0.13725 0.73024 0.75406 0.0
H359 H 0.24987 0.67177 0.7589 0.0
H360 H 0.34936 0.7719 0.76352 0.0
H361 H 0.2501 0.63488 0.73564 0.0
H362 H 0.17561 0.80468 0.80539 0.0
H363 H 0.39019 0.74602 0.70688 0.0
H364 H 0.36776 0.70389 0.68671 0.0
H365 H 0.21892 0.83908 0.80474 0.0
H366 H 0.33003 0.66465 0.68626 0.0
N367 N 0.32657 0.73836 0.74283 0.0
C368 C 0.34895 0.75811 0.74889 0.0
C369 C 0.37231 0.74358 0.71695 0.0
C370 C 0.35016 0.72222 0.71313 0.0
C371 C 0.37183 0.76132 0.73549 0.0
C372 C 0.32737 0.72006 0.7267 0.0
H373 H 0.28641 0.63846 0.70526 0.0
N374 N 0.28515 0.69646 0.74084 0.0
C375 C 0.26586 0.65263 0.73253 0.0
C376 C 0.30613 0.69814 0.72616 0.0
C377 C 0.26577 0.6736 0.74565 0.0
C378 C 0.28638 0.65473 0.71537 0.0
C379 C 0.30709 0.67755 0.71245 0.0
O380 O 0.27732 0.7016 0.79848 0.0
O381 O 0.24917 0.73833 0.75322 0.0
O382 O 0.27572 0.78552 0.77546 0.0
O383 O 0.3089 0.76779 0.78035 0.0
O384 O 0.26173 0.72868 0.79763 0.0
O385 O 0.31682 0.72794 0.79965 0.0
O386 O 0.27265 0.81251 0.7089 0.0
O387 O 0.29251 0.76872 0.73597 0.0
O388 O 0.26479 0.7184 0.71772 0.0
O389 O 0.24059 0.74613 0.69703 0.0
O390 O 0.27788 0.77743 0.69103 0.0
O391 O 0.23301 0.7916 0.69058 0.0
C392 C 0.24197 0.73277 0.78037 0.0
C393 C 0.29977 0.71187 0.84872 0.0
C394 C 0.3241 0.71921 0.90072 0.0
C395 C 0.32357 0.7172 0.86865 0.0
C396 C 0.30057 0.71742 0.91212 0.0
C397 C 0.27618 0.70823 0.8614 0.0
C398 C 0.27678 0.71183 0.89256 0.0
C399 C 0.29832 0.78274 0.78998 0.0
C400 C 0.30007 0.7094 0.81526 0.0
C401 C 0.32908 0.68012 0.69732 0.0
C402 C 0.35055 0.70247 0.69756 0.0
C403 C 0.29807 0.77346 0.70792 0.0
C404 C 0.26066 0.82086 0.65416 0.0
C405 C 0.24094 0.8204 0.62868 0.0
C406 C 0.24744 0.8316 0.59818 0.0
C407 C 0.27436 0.84197 0.59354 0.0
C408 C 0.28731 0.83139 0.6487 0.0
C409 C 0.294 0.8415 0.61852 0.0
C410 C 0.24756 0.7259 0.69612 0.0
C411 C 0.25327 0.81204 0.68655 0.0
H412 H 0.34139 0.71827 0.85937 0.0
H413 H 0.30032 0.71925 0.9365 0.0
H414 H 0.25714 0.70243 0.8476 0.0
H415 H 0.25861 0.70951 0.90186 0.0
H416 H 0.22051 0.81182 0.63304 0.0
H417 H 0.28053 0.85146 0.57096 0.0
H418 H 0.30306 0.83225 0.66777 0.0
H419 H 0.31454 0.84985 0.61468 0.0
Tb420 Tb 0.25104 0.24971 0.78022 0.0
C421 C 0.31008 0.31237 0.67438 0.0
C422 C 0.27418 0.3183 0.63596 0.0
C423 C 0.31694 0.35095 0.63765 0.0
C424 C 0.2839 0.30379 0.66179 0.0
C425 C 0.32712 0.33559 0.66161 0.0
C426 C 0.2905 0.34232 0.62486 0.0
C427 C 0.36366 0.32506 0.69376 0.0
N428 N 0.31941 0.29685 0.69714 0.0
C429 C 0.34605 0.30218 0.70557 0.0
C430 C 0.35409 0.3421 0.6722 0.0
Tb431 Tb 0.28827 0.26093 0.71634 0.0
N432 N 0.2688 0.28023 0.67274 0.0
C433 C 0.24506 0.269 0.65606 0.0
C434 C 0.24883 0.30772 0.621 0.0
C435 C 0.23451 0.28275 0.6306 0.0
H436 H 0.35368 0.28948 0.72273 0.0
H437 H 0.21532 0.27402 0.61835 0.0
H438 H 0.2832 0.35388 0.60544 0.0
H439 H 0.38459 0.32959 0.70144 0.0
H440 H 0.2335 0.24966 0.66226 0.0
H441 H 0.32173 0.23864 0.88067 0.0
H442 H 0.24064 0.31826 0.60117 0.0
H443 H 0.18707 0.2186 0.76676 0.0
H444 H 0.30459 0.26116 0.83324 0.0
H445 H 0.1553 0.1789 0.78779 0.0
H446 H 0.32963 0.36903 0.62792 0.0
H447 H 0.29531 0.19549 0.90087 0.0
H448 H 0.25233 0.15992 0.89728 0.0
H449 H 0.36781 0.35977 0.66297 0.0
H450 H 0.20671 0.14375 0.87222 0.0
N451 N 0.2688 0.23086 0.8254 0.0
C452 C 0.29263 0.24238 0.8415 0.0
C453 C 0.28763 0.20527 0.87984 0.0
C454 C 0.2625 0.19427 0.86458 0.0
C455 C 0.30254 0.22965 0.86858 0.0
C456 C 0.25351 0.20782 0.83725 0.0
H457 H 0.17012 0.15101 0.83182 0.0
N458 N 0.21989 0.21327 0.79825 0.0
C459 C 0.17574 0.18419 0.79791 0.0
C460 C 0.22801 0.19875 0.82329 0.0
C461 C 0.19387 0.20675 0.78608 0.0
C462 C 0.1842 0.16845 0.82268 0.0
C463 C 0.21054 0.17583 0.83602 0.0
O464 O 0.22036 0.26284 0.78738 0.0
O465 O 0.25829 0.27244 0.73388 0.0
O466 O 0.30798 0.29374 0.74168 0.0
O467 O 0.2865 0.28195 0.78698 0.0
O468 O 0.22022 0.25535 0.74302 0.0
O469 O 0.25751 0.27278 0.81618 0.0
O470 O 0.29324 0.22593 0.71238 0.0
O471 O 0.28251 0.24041 0.7633 0.0
O472 O 0.23973 0.21419 0.75966 0.0
O473 O 0.2495 0.23281 0.70975 0.0
O474 O 0.32033 0.25625 0.7529 0.0
O475 O 0.30201 0.25611 0.6755 0.0
C476 C 0.23433 0.27101 0.7227 0.0
C477 C 0.22003 0.27266 0.83829 0.0
C478 C 0.19672 0.28991 0.86871 0.0
C479 C 0.2104 0.2922 0.84258 0.0
C480 C 0.19328 0.26789 0.89047 0.0
C481 C 0.21618 0.25103 0.86041 0.0
C482 C 0.20292 0.24872 0.88632 0.0
C483 C 0.30469 0.2975 0.76976 0.0
C484 C 0.23395 0.275 0.81069 0.0
C485 C 0.21973 0.16154 0.86225 0.0
C486 C 0.24571 0.17074 0.87649 0.0
C487 C 0.30649 0.24223 0.77474 0.0
C488 C 0.32672 0.22764 0.68211 0.0
C489 C 0.32699 0.21241 0.6593 0.0
C490 C 0.3507 0.20816 0.65559 0.0
C491 C 0.37375 0.21913 0.67517 0.0
C492 C 0.35005 0.23776 0.70154 0.0
C493 C 0.37335 0.23369 0.69791 0.0
C494 C 0.23864 0.21289 0.72934 0.0
C495 C 0.30242 0.2333 0.68542 0.0
H496 H 0.21318 0.3089 0.8254 0.0
H497 H 0.18332 0.26556 0.91104 0.0
H498 H 0.22348 0.23595 0.85771 0.0
H499 H 0.20013 0.23197 0.90334 0.0
H500 H 0.30907 0.20431 0.64426 0.0
H501 H 0.39216 0.21612 0.67317 0.0
H502 H 0.35036 0.24886 0.71959 0.0
H503 H 0.39127 0.24194 0.71276 0.0
Tb504 Tb 0.7904 0.23283 0.75592 0.0
C505 C 0.77208 0.32417 0.70732 0.0
C506 C 0.78422 0.35814 0.73972 0.0
C507 C 0.79 0.36784 0.68417 0.0
C508 C 0.77504 0.33209 0.73642 0.0
C509 C 0.77922 0.34198 0.6807 0.0
C510 C 0.7924 0.37593 0.71364 0.0
C511 C 0.76348 0.30748 0.64904 0.0
N512 N 0.76166 0.29901 0.70497 0.0
C513 C 0.75682 0.29055 0.67613 0.0
C514 C 0.77499 0.33329 0.65136 0.0
Tb515 Tb 0.75071 0.27295 0.75074 0.0
N516 N 0.767 0.31436 0.76102 0.0
C517 C 0.76416 0.32173 0.78847 0.0
C518 C 0.78367 0.36557 0.76871 0.0
C519 C 0.77316 0.34727 0.79305 0.0
H520 H 0.74815 0.2708 0.67361 0.0
H521 H 0.77157 0.35284 0.81516 0.0
H522 H 0.79992 0.39599 0.71583 0.0
H523 H 0.75988 0.30056 0.6264 0.0
H524 H 0.75518 0.30772 0.80702 0.0
H525 H 0.7174 0.14087 0.77553 0.0
H526 H 0.79015 0.38539 0.77205 0.0
H527 H 0.85361 0.25218 0.7861 0.0
H528 H 0.73711 0.18221 0.74614 0.0
H529 H 0.88125 0.2403 0.83296 0.0
H530 H 0.79593 0.38177 0.66409 0.0
H531 H 0.73935 0.12858 0.82703 0.0
H532 H 0.77825 0.1383 0.86849 0.0
H533 H 0.78025 0.34634 0.63037 0.0
H534 H 0.82286 0.16573 0.88463 0.0
N535 N 0.76948 0.19417 0.78148 0.0
C536 C 0.74691 0.17745 0.76876 0.0
C537 C 0.74788 0.14698 0.81462 0.0
C538 C 0.77183 0.1634 0.82663 0.0
C539 C 0.73558 0.15381 0.78535 0.0
C540 C 0.78245 0.18705 0.80907 0.0
H541 H 0.86174 0.20359 0.87117 0.0
N542 N 0.81823 0.22355 0.79843 0.0
C543 C 0.86052 0.22957 0.8292 0.0
C544 C 0.80769 0.20231 0.81792 0.0
C545 C 0.84475 0.23622 0.80257 0.0
C546 C 0.8494 0.20893 0.85077 0.0
C547 C 0.82288 0.19453 0.84479 0.0
O548 O 0.811 0.23849 0.71652 0.0
O549 O 0.78314 0.26735 0.73274 0.0
O550 O 0.7288 0.24386 0.71951 0.0
O551 O 0.75824 0.22194 0.71832 0.0
O552 O 0.82168 0.26857 0.7495 0.0
O553 O 0.79949 0.2023 0.74344 0.0
O554 O 0.71583 0.27728 0.72446 0.0
O555 O 0.75338 0.23511 0.76601 0.0
O556 O 0.80379 0.25335 0.79796 0.0
O557 O 0.78414 0.28568 0.78664 0.0
O558 O 0.74285 0.25244 0.79724 0.0
O559 O 0.72044 0.27468 0.77469 0.0
C560 C 0.80702 0.28184 0.73521 0.0
C561 C 0.83874 0.21326 0.71988 0.0
C562 C 0.86525 0.18842 0.70974 0.0
C563 C 0.84049 0.19159 0.70953 0.0
C564 C 0.8882 0.20713 0.72043 0.0
C565 C 0.86201 0.2321 0.72948 0.0
C566 C 0.88654 0.22886 0.73006 0.0
C567 C 0.73602 0.22708 0.70815 0.0
C568 C 0.81259 0.21582 0.72068 0.0
C569 C 0.81161 0.17192 0.86372 0.0
C570 C 0.78615 0.15631 0.85457 0.0
C571 C 0.74647 0.23182 0.79338 0.0
C572 C 0.70093 0.30497 0.7473 0.0
C573 C 0.69073 0.31019 0.77258 0.0
C574 C 0.6876 0.33411 0.77232 0.0
C575 C 0.69442 0.35247 0.74628 0.0
C576 C 0.70721 0.32374 0.7215 0.0
C577 C 0.70401 0.34725 0.72111 0.0
C578 C 0.80063 0.27448 0.8039 0.0
C579 C 0.707 0.28093 0.74891 0.0
H580 H 0.82264 0.17711 0.70169 0.0
H581 H 0.90748 0.20515 0.72073 0.0
H582 H 0.86128 0.24934 0.73642 0.0
H583 H 0.90437 0.24336 0.73777 0.0
H584 H 0.68597 0.29598 0.79272 0.0
H585 H 0.69197 0.37087 0.74515 0.0
H586 H 0.71508 0.32051 0.70174 0.0
H587 H 0.70912 0.36158 0.70121 0.0
Tb588 Tb 0.76306 0.73857 0.71707 0.0
C589 C 0.83013 0.79513 0.82438 0.0
C590 C 0.8352 0.76168 0.8651 0.0
C591 C 0.86926 0.80273 0.86256 0.0
C592 C 0.82077 0.77055 0.83825 0.0
C593 C 0.85419 0.81174 0.83672 0.0
C594 C 0.85979 0.77771 0.87671 0.0
C595 C 0.84546 0.84533 0.79888 0.0
N596 N 0.81487 0.80311 0.79966 0.0
C597 C 0.82172 0.82814 0.78752 0.0
C598 C 0.86195 0.83704 0.82332 0.0
Tb599 Tb 0.77653 0.77348 0.7823 0.0
N600 N 0.79674 0.75587 0.8266 0.0
C601 C 0.7852 0.73256 0.84228 0.0
C602 C 0.82409 0.73729 0.88003 0.0
C603 C 0.79881 0.72283 0.86882 0.0
H604 H 0.80926 0.8348 0.7685 0.0
H605 H 0.78976 0.70413 0.88053 0.0
H606 H 0.87128 0.77117 0.89712 0.0
H607 H 0.85101 0.86496 0.78877 0.0
H608 H 0.76576 0.72089 0.83418 0.0
H609 H 0.74744 0.80786 0.61987 0.0
H610 H 0.83454 0.7297 0.90064 0.0
H611 H 0.73265 0.67651 0.72602 0.0
H612 H 0.77299 0.79034 0.66421 0.0
H613 H 0.68961 0.64665 0.7082 0.0
H614 H 0.88793 0.81511 0.87224 0.0
H615 H 0.7012 0.78344 0.60337 0.0
H616 H 0.66372 0.74261 0.60916 0.0
H617 H 0.88029 0.85041 0.83212 0.0
H618 H 0.6478 0.69839 0.63345 0.0
N619 N 0.74146 0.7563 0.67404 0.0
C620 C 0.75293 0.77924 0.6575 0.0
C621 C 0.71234 0.77559 0.62301 0.0
C622 C 0.70132 0.75138 0.63848 0.0
C623 C 0.73846 0.78936 0.63218 0.0
C624 C 0.71669 0.74213 0.66399 0.0
H625 H 0.65761 0.6622 0.66998 0.0
N626 N 0.72445 0.70898 0.69982 0.0
C627 C 0.69439 0.66657 0.69953 0.0
C628 C 0.70779 0.71747 0.67745 0.0
C629 C 0.71876 0.68358 0.70959 0.0
C630 C 0.67632 0.67543 0.67808 0.0
C631 C 0.6832 0.70107 0.66612 0.0
O632 O 0.77846 0.71073 0.7085 0.0
O633 O 0.78677 0.74468 0.76314 0.0
O634 O 0.81321 0.78512 0.76091 0.0
O635 O 0.79542 0.77447 0.71085 0.0
O636 O 0.77054 0.70858 0.75284 0.0
O637 O 0.7846 0.74546 0.67816 0.0
O638 O 0.76282 0.80283 0.78958 0.0
O639 O 0.75242 0.76697 0.73653 0.0
O640 O 0.72776 0.72314 0.7412 0.0
O641 O 0.74373 0.73841 0.78975 0.0
O642 O 0.77011 0.80331 0.74549 0.0
O643 O 0.75382 0.76776 0.81979 0.0
C644 C 0.7858 0.72175 0.774 0.0
C645 C 0.78183 0.70904 0.65531 0.0
C646 C 0.79402 0.68479 0.62116 0.0
C647 C 0.80031 0.69893 0.64718 0.0
C648 C 0.76869 0.68062 0.60428 0.0
C649 C 0.75723 0.70505 0.6372 0.0
C650 C 0.75067 0.6908 0.6121 0.0
C651 C 0.8149 0.78695 0.73054 0.0
C652 C 0.78794 0.72333 0.68289 0.0
C653 C 0.66693 0.71057 0.64223 0.0
C654 C 0.676 0.73574 0.62841 0.0
C655 C 0.75387 0.78989 0.72522 0.0
C656 C 0.75652 0.80469 0.84177 0.0
C657 C 0.73937 0.81804 0.84557 0.0
C658 C 0.74446 0.83216 0.87137 0.0
C659 C 0.76677 0.83231 0.89323 0.0
C660 C 0.77847 0.80533 0.86413 0.0
C661 C 0.78351 0.81903 0.88961 0.0
C662 C 0.72592 0.72326 0.77111 0.0
C663 C 0.75168 0.79044 0.81436 0.0
H664 H 0.81953 0.70237 0.66081 0.0
H665 H 0.76251 0.66921 0.585 0.0
H666 H 0.74299 0.71288 0.64247 0.0
H667 H 0.73141 0.68755 0.59863 0.0
H668 H 0.72241 0.81773 0.82831 0.0
H669 H 0.77113 0.84246 0.91356 0.0
H670 H 0.7917 0.79515 0.86201 0.0
H671 H 0.80049 0.8193 0.90676 0.0
Co672 Co 0.03676 0.96216 0.47224 0.0
Co673 Co 0.0594 0.97516 0.52758 0.0
Co674 Co 1.01789 1.00483 0.50253 0.0
O675 O 0.04561 0.99223 0.49248 0.0
H676 H 0.05979 1.00579 0.48343 0.0
O677 O 0.98979 0.01779 0.51106 0.0
Co678 Co 0.98623 0.02739 0.55081 0.0
Co679 Co 1.00167 0.05165 0.50216 0.0
H680 H 0.97299 0.01065 0.49904 0.0
O681 O 0.09302 0.97323 0.52888 0.0
O682 O 0.05445 0.94631 0.50967 0.0
O683 O 0.0405 0.96593 0.56396 0.0
O684 O 1.00654 0.97824 0.53926 0.0
O685 O 0.04586 0.02622 0.53113 0.0
O686 O 0.98032 0.03447 0.58644 0.0
O687 O 0.95043 0.02064 0.5455 0.0
O688 O 0.02264 0.03589 0.56224 0.0
O689 O 0.02856 0.0316 0.46574 0.0
O690 O 0.03542 0.06699 0.48623 0.0
O691 O 0.99075 0.06381 0.53196 0.0
O692 O 0.97709 0.06364 0.47953 0.0
C693 C 0.05428 0.94886 0.44312 0.0
C694 C 0.98667 0.95923 0.47539 0.0
C695 C 1.01715 0.96662 0.56273 0.0
C696 C 0.08003 0.95273 0.51609 0.0
C697 C 0.95601 0.02799 0.57359 0.0
C698 C 0.04437 0.03587 0.55493 0.0
C699 C 0.03991 0.0554 0.46614 0.0
C700 C 0.97714 0.07102 0.50639 0.0
O701 O 0.03137 0.93542 0.45213 0.0
O702 O 0.06607 0.97114 0.4525 0.0
O703 O 0.9909 0.98291 0.4738 0.0
O704 O 1.00424 0.9496 0.48933 0.0
Co705 Co 0.54953 0.96275 0.99222 0.0
Co706 Co 0.55254 0.97218 0.04693 0.0
Co707 Co 0.51606 0.00678 0.99929 0.0
O708 O 0.54856 0.99304 0.00905 0.0
H709 H 0.56481 0.00679 0.00657 0.0
O710 O 0.4837 0.02065 0.98891 0.0
Co711 Co 0.48245 0.05064 0.00595 0.0
Co712 Co 0.48029 0.04188 0.95088 0.0
H713 H 0.46739 0.00691 0.99098 0.0
O714 O 0.58539 0.97027 0.0691 0.0
O715 O 0.55901 0.94373 0.03568 0.0
O716 O 0.52067 0.96105 0.06628 0.0
O717 O 0.49663 0.98362 0.03534 0.0
O718 O 0.53513 0.03375 0.02731 0.0
O719 O 0.4793 0.07551 0.02413 0.0
O720 O 0.4472 0.04023 0.01083 0.0
O721 O 0.51945 0.0652 0.00432 0.0
O722 O 0.53541 0.02995 0.96346 0.0
O723 O 0.51198 0.05208 0.93063 0.0
O724 O 0.47432 0.07046 0.96269 0.0
O725 O 0.44767 0.04466 0.92873 0.0
C726 C 0.57693 0.95144 0.97432 0.0
C727 C 0.49448 0.95599 0.97794 0.0
C728 C 0.49954 0.96693 0.05857 0.0
C729 C 0.57985 0.94928 0.05704 0.0
C730 C 0.45469 0.06152 0.02318 0.0
C731 C 0.53702 0.05727 0.02208 0.0
C732 C 0.53297 0.04606 0.93935 0.0
C733 C 0.45354 0.06549 0.94124 0.0
O734 O 0.55237 0.93749 0.97469 0.0
O735 O 0.58461 0.97321 0.98565 0.0
O736 O 0.49697 0.97962 0.97155 0.0
O737 O 0.51245 0.94803 0.99487 0.0
Co738 Co 0.04843 0.46138 0.99379 0.0
Co739 Co 0.05572 0.47521 0.04766 0.0
Co740 Co 1.01832 0.50801 0.99849 0.0
O741 O 0.05031 0.49363 0.0076 0.0
H742 H 0.06652 0.50677 0.00277 0.0
O743 O 0.98652 0.52257 0.99013 0.0
Co744 Co 0.98892 0.55489 0.00465 0.0
Co745 Co 0.98053 0.54119 0.95098 0.0
H746 H 0.97037 0.5095 0.99514 0.0
O747 O 0.08917 0.47205 0.0672 0.0
O748 O 0.05882 0.44452 0.03813 0.0
O749 O 0.02542 0.46683 0.07056 0.0
O750 O 0.99989 0.48542 0.03554 0.0
O751 O 0.03857 0.53526 0.02531 0.0
O752 O 0.98921 0.58216 0.02035 0.0
O753 O 0.95491 0.5468 0.01422 0.0
O754 O 0.02563 0.56735 0.99883 0.0
O755 O 0.03667 0.53069 0.96093 0.0
O756 O 1.00988 0.54896 0.92759 0.0
O757 O 0.97773 0.57198 0.96055 0.0
O758 O 0.94716 0.54407 0.93196 0.0
C759 C 0.07303 0.44661 0.97597 0.0
C760 C 0.99515 0.45669 0.97994 0.0
C761 C 1.0036 0.4712 0.06118 0.0
C762 C 0.08111 0.45004 0.05709 0.0
C763 C 0.96465 0.56939 0.02347 0.0
C764 C 0.04238 0.559 0.01785 0.0
C765 C 0.03192 0.54481 0.93549 0.0
C766 C 0.9553 0.56623 0.9417 0.0
O767 O 0.04841 0.43388 0.97883 0.0
O768 O 0.0826 0.46937 0.98471 0.0
O769 O 0.99786 0.48027 0.97196 0.0
O770 O 1.01217 0.4493 0.99954 0.0
Co771 Co 0.54306 0.45874 0.9762 0.0
Co772 Co 0.56454 0.47269 0.03208 0.0
Co773 Co 0.52412 0.50277 0.00413 0.0
O774 O 0.55202 0.48962 0.99527 0.0
H775 H 0.56655 0.50287 0.98645 0.0
O776 O 0.496 0.51583 0.01249 0.0
Co777 Co 0.50278 0.54406 0.0354 0.0
Co778 Co 0.48437 0.53517 0.97791 0.0
H779 H 0.48092 0.50204 0.01923 0.0
O780 O 0.59778 0.46903 0.03526 0.0
O781 O 0.55892 0.4432 0.01529 0.0
O782 O 0.54422 0.46392 0.06743 0.0
O783 O 0.51091 0.47531 0.0392 0.0
O784 O 0.55075 0.52303 0.03503 0.0
O785 O 0.50544 0.56867 0.05833 0.0
O786 O 0.47007 0.535 0.04761 0.0
O787 O 0.53815 0.55725 0.02582 0.0
O788 O 0.53735 0.5304 0.96898 0.0
O789 O 0.50449 0.54391 0.94301 0.0
O790 O 0.49242 0.56421 0.99693 0.0
O791 O 0.45271 0.54271 0.97413 0.0
C792 C 0.56091 0.44342 0.94945 0.0
C793 C 0.49305 0.45805 0.97576 0.0
C794 C 0.5205 0.46401 0.06382 0.0
C795 C 0.58432 0.44857 0.02265 0.0
C796 C 0.48086 0.55556 0.06128 0.0
C797 C 0.55554 0.54651 0.03627 0.0
C798 C 0.52772 0.54273 0.9454 0.0
C799 C 0.46816 0.56267 0.98653 0.0
O800 O 0.53756 0.43111 0.95788 0.0
O801 O 0.57322 0.46595 0.95802 0.0
O802 O 0.49784 0.48188 0.97368 0.0
O803 O 0.50974 0.44783 0.99112 0.0
Co804 Co 0.06654 0.47295 0.5288 0.0
Co805 Co 0.04607 0.47458 0.47081 0.0
Co806 Co 1.01638 0.50625 0.5 0.0
O807 O 0.0311 0.47555 0.50624 0.0
H808 H 1.01721 0.45975 0.51033 0.0
O809 O 1.00187 0.53727 0.49382 0.0
Co810 Co 0.96778 0.5416 0.4687 0.0
Co811 Co 0.98473 0.5376 0.52745 0.0
H812 H 1.01617 0.55297 0.49128 0.0
O813 O 0.04455 0.44448 0.45896 0.0
O814 O 0.07827 0.47004 0.4881 0.0
O815 O 0.05318 0.50415 0.44038 0.0
O816 O 0.03895 0.52729 0.46592 0.0
O817 O 0.9868 0.4893 0.46877 0.0
O818 O 0.93826 0.54766 0.44481 0.0
O819 O 0.97487 0.57765 0.46025 0.0
O820 O 0.9542 0.5053 0.47163 0.0
O821 O 0.99383 0.48521 0.53431 0.0
O822 O 0.97776 0.50829 0.5577 0.0
O823 O 0.95306 0.54236 0.50828 0.0
O824 O 0.98541 0.56699 0.54018 0.0
C825 C 0.08524 0.44415 0.55271 0.0
C826 C 0.07074 0.526 0.53092 0.0
C827 C 0.05108 0.52515 0.44407 0.0
C828 C 0.069 0.4508 0.47155 0.0
C829 C 0.95086 0.57169 0.44503 0.0
C830 C 0.96227 0.48744 0.46676 0.0
C831 C 0.98106 0.48753 0.55544 0.0
C832 C 0.96131 0.56063 0.52639 0.0
O833 O 0.09764 0.46837 0.54994 0.0
O834 O 0.06029 0.43723 0.54054 0.0
O835 O 0.04609 0.52289 0.53113 0.0
O836 O 0.07918 0.50949 0.52268 0.0
Co837 Co 0.56794 0.97478 0.52908 0.0
Co838 Co 0.55017 0.97795 0.46997 0.0
Co839 Co 0.51667 0.00661 0.49794 0.0
O840 O 0.53311 0.97722 0.50425 0.0
H841 H 0.51951 0.96103 0.50704 0.0
O842 O 0.50045 0.0363 0.4916 0.0
Co843 Co 0.4663 0.03961 0.46572 0.0
Co844 Co 0.48226 0.0352 0.52506 0.0
H845 H 0.51426 0.05241 0.4896 0.0
O846 O 0.55022 0.94826 0.4583 0.0
O847 O 0.58217 0.97421 0.48911 0.0
O848 O 0.55702 0.00791 0.44015 0.0
O849 O 0.53938 0.02919 0.4643 0.0
O850 O 0.48822 0.98937 0.46595 0.0
O851 O 0.4364 0.04504 0.44203 0.0
O852 O 0.47272 0.07555 0.45684 0.0
O853 O 0.45384 1.00301 0.46876 0.0
O854 O 0.49415 0.98412 0.53167 0.0
O855 O 0.47353 1.00443 0.55306 0.0
O856 O 0.45107 0.03993 0.50483 0.0
O857 O 0.48216 0.06474 0.53749 0.0
C858 C 0.58641 0.94556 0.55262 0.0
C859 C 0.56967 0.02744 0.53281 0.0
C860 C 0.55289 0.02818 0.4431 0.0
C861 C 0.57404 0.95488 0.47275 0.0
C862 C 0.44852 0.0692 0.44221 0.0
C863 C 0.46334 0.98594 0.46435 0.0
C864 C 0.47905 0.98462 0.55131 0.0
C865 C 0.45883 0.05891 0.52168 0.0
O866 O 0.59838 0.96981 0.55215 0.0
O867 O 0.5621 0.93891 0.53835 0.0
O868 O 0.54469 0.02347 0.53023 0.0
O869 O 0.57999 0.01176 0.52585 0.0
H870 H 0.21657 0.21659 0.33209 0.0
H871 H 0.18203 0.18293 0.35712 0.0
H872 H 0.14101 0.16413 0.26624 0.0
H873 H 0.17553 0.19851 0.24063 0.0
H874 H 0.10762 0.16316 0.30995 0.0
H875 H 0.17529 0.12851 0.30362 0.0
H876 H 0.22152 0.12911 0.30859 0.0
H877 H 0.22789 0.12916 0.40849 0.0
H878 H 0.18195 0.12921 0.40407 0.0
H879 H 0.05919 0.03746 0.42335 0.0
H880 H 0.08632 0.06233 0.38173 0.0
H881 H 0.08538 0.13122 0.41122 0.0
H882 H 0.05849 0.10675 0.45268 0.0
H883 H 0.13593 0.09896 0.38685 0.0
H884 H 0.07965 0.1724 0.34668 0.0
H885 H 0.03399 0.17358 0.34128 0.0
H886 H 1.00417 0.09425 0.33162 0.0
H887 H 0.04963 0.09265 0.33647 0.0
C888 C 0.20029 0.20544 0.31721 0.0
C889 C 0.19934 0.20973 0.28424 0.0
C890 C 0.18053 0.18613 0.33166 0.0
C891 C 0.1594 0.17064 0.31352 0.0
C892 C 0.15745 0.17568 0.2806 0.0
C893 C 0.17729 0.19515 0.26604 0.0
C894 C 0.13986 0.149 0.3295 0.0
C895 C 0.11366 0.14892 0.32649 0.0
C896 C 0.14776 0.13013 0.3505 0.0
C897 C 0.17512 0.12894 0.35348 0.0
C898 C 0.18656 0.12873 0.32665 0.0
C899 C 0.21276 0.12901 0.32936 0.0
C900 C 0.22768 0.12922 0.35883 0.0
C901 C 0.21636 0.12903 0.38567 0.0
C902 C 0.19021 0.12888 0.38308 0.0
C903 C 0.06473 0.05791 0.4209 0.0
C904 C 0.05661 0.07013 0.44126 0.0
C905 C 0.08023 0.07204 0.39717 0.0
C906 C 0.08749 0.09855 0.39318 0.0
C907 C 0.0796 0.11075 0.41361 0.0
C908 C 0.06436 0.09671 0.43743 0.0
C909 C 0.10398 0.11384 0.36834 0.0
C910 C 0.12966 0.11276 0.36974 0.0
C911 C 0.09553 0.13149 0.34566 0.0
C912 C 0.06809 0.13239 0.34211 0.0
C913 C 0.06336 0.15524 0.34318 0.0
C914 C 0.03751 0.15597 0.34027 0.0
C915 C 1.0162 0.134 0.33617 0.0
C916 C 0.0207 0.11124 0.33488 0.0
C917 C 0.04651 0.11041 0.33776 0.0
H918 H 0.9962 0.1346 0.33395 0.0
H919 H 0.24798 0.12953 0.36084 0.0
H920 H 0.78917 0.17118 0.45683 0.0
H921 H 0.82014 0.15718 0.49706 0.0
H922 H 0.87531 0.17336 0.42924 0.0
H923 H 0.84398 0.18424 0.38829 0.0
H924 H 0.84004 0.1158 0.46769 0.0
H925 H 0.93481 0.2 0.49027 0.0
H926 H 0.94693 0.24428 0.50076 0.0
H927 H 0.87445 0.22727 0.54073 0.0
H928 H 0.86207 0.1828 0.53095 0.0
H929 H 0.95417 0.09433 0.45593 0.0
H930 H 0.92279 0.11657 0.45513 0.0
H931 H 0.93139 0.10785 0.55635 0.0
H932 H 0.9641 0.08578 0.55771 0.0
H933 H 0.92741 0.15705 0.52442 0.0
H934 H 0.88006 0.0674 0.52337 0.0
H935 H 0.87032 0.02591 0.50483 0.0
H936 H 0.84956 0.05727 0.41097 0.0
H937 H 0.85962 0.09894 0.42911 0.0
C938 C 0.80784 0.17182 0.45024 0.0
C939 C 0.81336 0.17828 0.41861 0.0
C940 C 0.82577 0.16437 0.47361 0.0
C941 C 0.85002 0.16457 0.46607 0.0
C942 C 0.85681 0.17358 0.43555 0.0
C943 C 0.83861 0.17995 0.41199 0.0
C944 C 0.86546 0.14973 0.48641 0.0
C945 C 0.85884 0.12451 0.48097 0.0
C946 C 0.88992 0.16139 0.5034 0.0
C947 C 0.89743 0.18806 0.50968 0.0
C948 C 0.92152 0.20565 0.50147 0.0
C949 C 0.92843 0.23081 0.50725 0.0
C950 C 0.91145 0.2386 0.52133 0.0
C951 C 0.88754 0.22123 0.52971 0.0
C952 C 0.88054 0.19606 0.52397 0.0
C953 C 0.94976 0.09722 0.47823 0.0
C954 C 0.96106 0.08755 0.50697 0.0
C955 C 0.93175 0.10998 0.47765 0.0
C956 C 0.92434 0.11314 0.50573 0.0
C957 C 0.93684 0.10521 0.53457 0.0
C958 C 0.95531 0.09257 0.53523 0.0
C959 C 0.90247 0.12359 0.50405 0.0
C960 C 0.90808 0.1479 0.51263 0.0
C961 C 0.87726 0.11146 0.48875 0.0
C962 C 0.87061 0.08625 0.4778 0.0
C963 C 0.87352 0.06539 0.49888 0.0
C964 C 0.86794 0.04187 0.48839 0.0
C965 C 0.85931 0.03894 0.45672 0.0
C966 C 0.8562 0.05954 0.43552 0.0
C967 C 0.8618 0.0831 0.44596 0.0
H968 H 0.85502 0.02072 0.4486 0.0
H969 H 0.91683 0.25808 0.52579 0.0
H970 H 0.79986 0.81493 0.32593 0.0
H971 H 0.83235 0.8482 0.353 0.0
H972 H 0.8729 0.87601 0.27009 0.0
H973 H 0.83942 0.84308 0.24194 0.0
H974 H 0.90377 0.86283 0.331 0.0
H975 H 0.84813 0.91311 0.28657 0.0
H976 H 0.80544 0.92118 0.27205 0.0
H977 H 0.79342 0.90994 0.36953 0.0
H978 H 0.83585 0.9014 0.38463 0.0
H979 H 0.99555 0.95857 0.41643 0.0
H980 H 0.96397 0.9374 0.37454 0.0
H981 H 0.90366 0.9098 0.43768 0.0
H982 H 0.93542 0.93118 0.47965 0.0
H983 H 0.8851 0.92796 0.37912 0.0
H984 H 0.93355 0.87114 0.4239 0.0
H985 H 0.9733 0.85834 0.44225 0.0
H986 H 0.99589 0.87703 0.34871 0.0
H987 H 0.9565 0.8904 0.32978 0.0
C988 C 0.8154 0.82818 0.31307 0.0
C989 C 0.81742 0.8258 0.28187 0.0
C990 C 0.83393 0.84729 0.32867 0.0
C991 C 0.85499 0.86436 0.31355 0.0
C992 C 0.85674 0.86281 0.2821 0.0
C993 C 0.83775 0.84388 0.26615 0.0
C994 C 0.87595 0.88237 0.332 0.0
C995 C 0.90011 0.87765 0.34081 0.0
C996 C 0.87047 0.90085 0.34563 0.0
C997 C 0.84516 0.9065 0.33672 0.0
C998 C 0.83632 0.91221 0.30491 0.0
C999 C 0.81217 0.91689 0.29657 0.0
C1000 C 0.79671 0.91604 0.31985 0.0
C1001 C 0.80542 0.9106 0.35152 0.0
C1002 C 0.82955 0.90589 0.35999 0.0
C1003 C 0.97556 0.9478 0.42126 0.0
C1004 C 0.96773 0.946 0.45104 0.0
C1005 C 0.95759 0.93585 0.39742 0.0
C1006 C 0.93158 0.92194 0.40314 0.0
C1007 C 0.92366 0.92051 0.43287 0.0
C1008 C 0.94171 0.93248 0.45678 0.0
C1009 C 0.91288 0.90828 0.37834 0.0
C1010 C 0.88912 0.91369 0.36862 0.0
C1011 C 0.91847 0.89003 0.36431 0.0
C1012 C 0.94223 0.88206 0.3755 0.0
C1013 C 0.94713 0.87277 0.40727 0.0
C1014 C 0.96958 0.86537 0.41776 0.0
C1015 C 0.98714 0.86693 0.39662 0.0
C1016 C 0.98229 0.8759 0.36499 0.0
C1017 C 0.95991 0.88339 0.35437 0.0
H1018 H 1.00447 0.86112 0.40472 0.0
H1019 H 0.778 0.91962 0.31334 0.0
H1020 H 0.21001 0.89272 0.29846 0.0
H1021 H 0.18682 0.90639 0.33273 0.0
H1022 H 0.13009 0.83158 0.34168 0.0
H1023 H 0.15364 0.81768 0.30788 0.0
H1024 H 0.10814 0.87135 0.31991 0.0
H1025 H 0.16829 0.84966 0.40288 0.0
H1026 H 0.21124 0.84915 0.43169 0.0
H1027 H 0.23342 0.92888 0.43703 0.0
H1028 H 0.19092 0.9301 0.40732 0.0
H1029 H 0.03841 0.90051 0.42821 0.0
H1030 H 0.06249 0.8809 0.40285 0.0
H1031 H 0.12538 0.95181 0.39306 0.0
H1032 H 0.10114 0.97175 0.41791 0.0
H1033 H 0.14314 0.91053 0.41871 0.0
H1034 H 0.08595 0.9332 0.33108 0.0
H1035 H 0.04417 0.93478 0.29972 0.0
H1036 H 1.01718 0.85387 0.30293 0.0
H1037 H 0.05861 0.85174 0.33493 0.0
C1038 C 0.1929 0.87908 0.3083 0.0
C1039 C 0.18357 0.85416 0.30055 0.0
C1040 C 0.17974 0.88687 0.32794 0.0
C1041 C 0.15676 0.86999 0.33981 0.0
C1042 C 0.14785 0.84487 0.33288 0.0
C1043 C 0.16134 0.83693 0.3137 0.0
C1044 C 0.14066 0.8794 0.35655 0.0
C1045 C 0.11557 0.87943 0.34188 0.0
C1046 C 0.15071 0.8906 0.38476 0.0
C1047 C 0.17651 0.89004 0.40231 0.0
C1048 C 0.18247 0.8672 0.40967 0.0
C1049 C 0.20675 0.86678 0.42623 0.0
C1050 C 0.2251 0.88899 0.43606 0.0
C1051 C 0.21922 0.9117 0.4293 0.0
C1052 C 0.19505 0.91227 0.41252 0.0
C1053 C 0.05715 0.91208 0.4202 0.0
C1054 C 0.06782 0.93773 0.42507 0.0
C1055 C 0.07095 0.90078 0.40583 0.0
C1056 C 0.09575 0.91488 0.39612 0.0
C1057 C 0.1063 0.94058 0.40047 0.0
C1058 C 0.09235 0.95197 0.41452 0.0
C1059 C 0.11084 0.90271 0.38181 0.0
C1060 C 0.13567 0.90218 0.39693 0.0
C1061 C 0.10064 0.89114 0.35393 0.0
C1062 C 0.07527 0.89229 0.33576 0.0
C1063 C 0.07096 0.9157 0.32552 0.0
C1064 C 0.04738 0.91671 0.3075 0.0
C1065 C 0.02806 0.89445 0.29927 0.0
C1066 C 0.0322 0.87111 0.30924 0.0
C1067 C 0.0557 0.86998 0.3274 0.0
H1068 H 1.00984 0.89527 0.28527 0.0
H1069 H 0.24382 0.88859 0.44906 0.0
H1070 H 0.19886 0.83559 0.60336 0.0
H1071 H 0.16864 0.8484 0.56226 0.0
H1072 H 0.21861 0.85171 0.49283 0.0
H1073 H 0.24805 0.83601 0.53349 0.0
H1074 H 0.20862 0.90047 0.51243 0.0
H1075 H 0.16999 0.82582 0.46567 0.0
H1076 H 0.1505 0.78008 0.46244 0.0
H1077 H 0.08509 0.77802 0.50833 0.0
H1078 H 0.10433 0.82371 0.51225 0.0
H1079 H 0.12104 0.97036 0.48117 0.0
H1080 H 0.1462 0.9463 0.46585 0.0
H1081 H 0.09848 0.87845 0.51707 0.0
H1082 H 0.07111 0.902 0.52835 0.0
H1083 H 0.11366 0.86356 0.47596 0.0
H1084 H 0.16497 0.92671 0.54888 0.0
H1085 H 0.18542 0.97037 0.56247 0.0
H1086 H 0.22679 0.99093 0.48055 0.0
H1087 H 0.20639 0.94744 0.46644 0.0
C1088 C 0.20308 0.83754 0.57939 0.0
C1089 C 0.22653 0.83502 0.57228 0.0
C1090 C 0.1856 0.84505 0.55575 0.0
C1091 C 0.19139 0.85097 0.52455 0.0
C1092 C 0.21375 0.8471 0.51677 0.0
C1093 C 0.23084 0.83859 0.54033 0.0
C1094 C 0.17722 0.86641 0.50288 0.0
C1095 C 0.18803 0.89258 0.50334 0.0
C1096 C 0.15047 0.85591 0.49134 0.0
C1097 C 0.13866 0.82833 0.48917 0.0
C1098 C 0.15152 0.81565 0.47522 0.0
C1099 C 0.14049 0.78969 0.47324 0.0
C1100 C 0.11656 0.77615 0.48515 0.0
C1101 C 0.1036 0.78855 0.49904 0.0
C1102 C 0.11454 0.81452 0.50106 0.0
C1103 C 0.11584 0.9502 0.48872 0.0
C1104 C 0.09462 0.93798 0.50646 0.0
C1105 C 0.1303 0.93647 0.48014 0.0
C1106 C 0.12519 0.91067 0.49141 0.0
C1107 C 0.1031 0.89832 0.50803 0.0
C1108 C 0.08764 0.91179 0.51494 0.0
C1109 C 0.14427 0.89715 0.48965 0.0
C1110 C 0.13442 0.87165 0.484 0.0
C1111 C 0.17182 0.90795 0.49807 0.0
C1112 C 0.18396 0.93403 0.50643 0.0
C1113 C 0.17837 0.94062 0.53376 0.0
C1114 C 0.18993 0.9653 0.54154 0.0
C1115 C 0.20732 0.98343 0.52233 0.0
C1116 C 0.21326 0.97689 0.49536 0.0
C1117 C 0.20172 0.95224 0.48745 0.0
H1118 H 0.21625 1.00253 0.52838 0.0
H1119 H 0.10805 0.75605 0.48362 0.0
H1120 H 0.24366 0.20109 0.67326 0.0
H1121 H 0.21617 0.16498 0.64682 0.0
H1122 H 0.17276 0.13494 0.72735 0.0
H1123 H 0.20154 0.17056 0.75496 0.0
H1124 H 0.17648 0.09719 0.69772 0.0
H1125 H 0.15122 0.17215 0.66885 0.0
H1126 H 0.1591 0.21767 0.65167 0.0
H1127 H 0.18145 0.20975 0.56432 0.0
H1128 H 0.17423 0.16425 0.58126 0.0
H1129 H 0.04936 0.04075 0.6169 0.0
H1130 H 0.08823 0.0651 0.64855 0.0
H1131 H 0.13276 0.08401 0.56897 0.0
H1132 H 0.09387 0.05921 0.5371 0.0
H1133 H 0.1305 0.12589 0.59725 0.0
H1134 H 0.15063 0.04822 0.62657 0.0
H1135 H 0.14113 1.00285 0.6458 0.0
H1136 H 0.12467 0.01571 0.73403 0.0
H1137 H 0.13367 0.06112 0.71514 0.0
C1138 C 0.22851 0.18668 0.68564 0.0
C1139 C 0.22398 0.1892 0.71576 0.0
C1140 C 0.21288 0.166 0.67048 0.0
C1141 C 0.19192 0.14779 0.68473 0.0
C1142 C 0.18865 0.14905 0.71581 0.0
C1143 C 0.20483 0.16957 0.73139 0.0
C1144 C 0.1719 0.12935 0.66574 0.0
C1145 C 0.16625 0.10339 0.67588 0.0
C1146 C 0.1588 0.13759 0.6371 0.0
C1147 C 0.16241 0.16482 0.62644 0.0
C1148 C 0.15794 0.18013 0.64604 0.0
C1149 C 0.16231 0.20594 0.63636 0.0
C1150 C 0.17081 0.2166 0.60695 0.0
C1151 C 0.17489 0.20146 0.58712 0.0
C1152 C 0.17067 0.17566 0.59674 0.0
C1153 C 0.06755 0.0498 0.60626 0.0
C1154 C 0.06864 0.04832 0.57452 0.0
C1155 C 0.08973 0.06351 0.62443 0.0
C1156 C 0.11326 0.07617 0.61106 0.0
C1157 C 0.11471 0.07416 0.57964 0.0
C1158 C 0.09258 0.06003 0.56154 0.0
C1159 C 0.13521 0.09369 0.62904 0.0
C1160 C 0.14101 0.11962 0.61884 0.0
C1161 C 0.14796 0.08537 0.65783 0.0
C1162 C 0.14262 0.05807 0.66932 0.0
C1163 C 0.14476 0.04135 0.64997 0.0
C1164 C 0.13951 0.01562 0.66083 0.0
C1165 C 0.13225 0.00639 0.69109 0.0
C1166 C 0.13028 0.02288 0.71058 0.0
C1167 C 0.13549 0.04863 0.69982 0.0
H1168 H 0.12819 0.98646 0.69946 0.0
H1169 H 0.17416 0.23657 0.59948 0.0
H1170 H 0.84642 0.17135 0.65249 0.0
H1171 H 0.85524 0.13748 0.63184 0.0
H1172 H 0.89777 0.12074 0.72144 0.0
H1173 H 0.89002 0.15537 0.74143 0.0
H1174 H 0.92558 0.12347 0.67853 0.0
H1175 H 0.83384 0.08045 0.69063 0.0
H1176 H 0.78625 0.07534 0.68312 0.0
H1177 H 0.78592 0.08202 0.58303 0.0
H1178 H 0.83359 0.0875 0.58991 0.0
H1179 H 0.95527 0.02402 0.6366 0.0
H1180 H 0.93197 0.04322 0.66359 0.0
H1181 H 0.89038 0.06306 0.5752 0.0
H1182 H 0.91275 0.04255 0.5479 0.0
H1183 H 0.86076 0.05692 0.61899 0.0
H1184 H 0.95235 0.10306 0.60671 0.0
H1185 H 1.00006 0.10908 0.61304 0.0
H1186 H 1.00081 0.09777 0.7135 0.0
H1187 H 0.95293 0.0913 0.7076 0.0
C1188 C 0.85727 0.16011 0.66784 0.0
C1189 C 0.86756 0.16592 0.69851 0.0
C1190 C 0.86222 0.14066 0.6561 0.0
C1191 C 0.87698 0.12623 0.67513 0.0
C1192 C 0.88641 0.13155 0.70619 0.0
C1193 C 0.88193 0.15128 0.71767 0.0
C1194 C 0.88447 0.107 0.66216 0.0
C1195 C 0.91124 0.10861 0.66611 0.0
C1196 C 0.86603 0.08804 0.64495 0.0
C1197 C 0.83733 0.08457 0.64079 0.0
C1198 C 0.82366 0.08099 0.66701 0.0
C1199 C 0.79666 0.078 0.66287 0.0
C1200 C 0.78309 0.07841 0.63262 0.0
C1201 C 0.79646 0.08173 0.60644 0.0
C1202 C 0.82346 0.08474 0.61045 0.0
C1203 C 0.94048 0.03171 0.62295 0.0
C1204 C 0.93622 0.03229 0.59002 0.0
C1205 C 0.92734 0.04291 0.6384 0.0
C1206 C 0.91032 0.05566 0.62109 0.0
C1207 C 0.90379 0.05371 0.58873 0.0
C1208 C 0.91648 0.04191 0.57326 0.0
C1209 C 0.90175 0.07325 0.63585 0.0
C1210 C 0.87494 0.07155 0.6319 0.0
C1211 C 0.92015 0.09227 0.65304 0.0
C1212 C 0.949 0.09643 0.65664 0.0
C1213 C 0.96266 0.10173 0.63008 0.0
C1214 C 0.98973 0.10522 0.63361 0.0
C1215 C 1.00347 0.10375 0.66367 0.0
C1216 C 0.99014 0.09886 0.69023 0.0
C1217 C 0.96303 0.09527 0.68679 0.0
H1218 H 0.02444 0.10646 0.66638 0.0
H1219 H 0.76219 0.0761 0.62946 0.0
H1220 H 0.86148 0.81342 0.76251 0.0
H1221 H 0.89967 0.84484 0.74003 0.0
H1222 H 0.86108 0.83141 0.64659 0.0
H1223 H 0.82286 0.8004 0.66866 0.0
H1224 H 0.91257 0.83431 0.65197 0.0
H1225 H 0.86028 0.88125 0.67738 0.0
H1226 H 0.83731 0.89453 0.71272 0.0
H1227 H 0.91056 0.92333 0.77028 0.0
H1228 H 0.93391 0.90982 0.73554 0.0
H1229 H 0.9689 0.9678 0.5723 0.0
H1230 H 0.93877 0.93849 0.60803 0.0
H1231 H 0.99747 0.90189 0.64527 0.0
H1232 H 0.02776 0.93099 0.6094 0.0
H1233 H 0.93861 0.92389 0.67195 0.0
H1234 H 0.96495 0.83782 0.65047 0.0
H1235 H 0.98467 0.82498 0.61114 0.0
H1236 H 0.95762 0.87548 0.53887 0.0
H1237 H 0.93742 0.88829 0.57766 0.0
C1238 C 0.86103 0.81729 0.73719 0.0
C1239 C 0.83884 0.80476 0.71742 0.0
C1240 C 0.88293 0.83515 0.7244 0.0
C1241 C 0.88307 0.84059 0.69165 0.0
C1242 C 0.86136 0.82748 0.67193 0.0
C1243 C 0.83946 0.80979 0.68465 0.0
C1244 C 0.90536 0.86046 0.67756 0.0
C1245 C 0.91846 0.85383 0.65663 0.0
C1246 C 0.91276 0.88599 0.6833 0.0
C1247 C 0.8988 0.8943 0.70405 0.0
C1248 C 0.87146 0.89024 0.69771 0.0
C1249 C 0.85838 0.89785 0.71759 0.0
C1250 C 0.87247 0.90978 0.74372 0.0
C1251 C 0.89968 0.9141 0.75002 0.0
C1252 C 0.91285 0.90648 0.73025 0.0
C1253 C 0.97558 0.95374 0.58837 0.0
C1254 C 1.00058 0.95145 0.5876 0.0
C1255 C 0.95838 0.93713 0.60894 0.0
C1256 C 0.96578 0.91784 0.62897 0.0
C1257 C 0.99132 0.91651 0.62974 0.0
C1258 C 1.0086 0.93318 0.60923 0.0
C1259 C 0.94583 0.89768 0.64647 0.0
C1260 C 0.93311 0.90426 0.6679 0.0
C1261 C 0.93835 0.87214 0.64071 0.0
C1262 C 0.94999 0.86423 0.61706 0.0
C1263 C 0.96316 0.8461 0.62616 0.0
C1264 C 0.97441 0.83883 0.60397 0.0
C1265 C 0.97249 0.84948 0.57255 0.0
C1266 C 0.95919 0.86732 0.56323 0.0
C1267 C 0.94785 0.8746 0.58532 0.0
H1268 H 0.98126 0.84386 0.55542 0.0
H1269 H 0.86231 0.91565 0.75909 0.0
H1270 H 0.32818 0.16747 0.16198 0.0
H1271 H 0.35645 0.14621 0.14671 0.0
H1272 H 0.32261 0.15478 0.05028 0.0
H1273 H 0.29558 0.17711 0.06472 0.0
H1274 H 0.32347 0.10401 0.07386 0.0
H1275 H 0.38113 0.19067 0.06735 0.0
H1276 H 0.40568 0.23115 0.08817 0.0
H1277 H 0.44835 0.19333 0.16034 0.0
H1278 H 0.42376 0.15252 0.14018 0.0
H1279 H 0.40686 0.06554 0.99445 0.0
H1280 H 0.37946 0.08638 0.01229 0.0
H1281 H 0.4327 0.09893 0.09779 0.0
H1282 H 0.46099 0.07993 0.07879 0.0
H1283 H 0.42112 0.13814 0.08192 0.0
H1284 H 0.36564 0.05183 0.09022 0.0
H1285 H 0.34107 0.01027 0.07212 0.0
H1286 H 0.29383 0.04463 0.00181 0.0
H1287 H 0.3184 0.08646 0.01915 0.0
C1288 C 0.32703 0.16527 0.13743 0.0
C1289 C 0.30903 0.17381 0.11482 0.0
C1290 C 0.34311 0.15288 0.12876 0.0
C1291 C 0.34145 0.14852 0.09734 0.0
C1292 C 0.32401 0.15748 0.07472 0.0
C1293 C 0.30836 0.17019 0.0832 0.0
C1294 C 0.35768 0.13462 0.08772 0.0
C1295 C 0.34483 0.11153 0.07541 0.0
C1296 C 0.38558 0.144 0.09041 0.0
C1297 C 0.40039 0.16851 0.10249 0.0
C1298 C 0.39557 0.19094 0.08784 0.0
C1299 C 0.40953 0.21396 0.09948 0.0
C1300 C 0.4285 0.2148 0.12562 0.0
C1301 C 0.43361 0.19264 0.14013 0.0
C1302 C 0.41968 0.16957 0.12859 0.0
C1303 C 0.41239 0.07236 0.01728 0.0
C1304 C 0.43585 0.07071 0.03547 0.0
C1305 C 0.39664 0.08425 0.0276 0.0
C1306 C 0.40344 0.09396 0.05688 0.0
C1307 C 0.42675 0.09179 0.07516 0.0
C1308 C 0.44286 0.08066 0.06442 0.0
C1309 C 0.38703 0.10714 0.06808 0.0
C1310 C 0.3998 0.13027 0.08059 0.0
C1311 C 0.35903 0.09749 0.06612 0.0
C1312 C 0.34403 0.07232 0.05582 0.0
C1313 C 0.35012 0.05054 0.07078 0.0
C1314 C 0.33618 0.02694 0.06066 0.0
C1315 C 0.31594 0.02482 0.03579 0.0
C1316 C 0.30951 0.04629 0.02108 0.0
C1317 C 0.32343 0.06996 0.03105 0.0
H1318 H 0.3052 0.00654 0.02796 0.0
H1319 H 0.4393 0.23264 0.1346 0.0
H1320 H 0.80344 0.28669 0.1556 0.0
H1321 H 0.83754 0.31978 0.12927 0.0
H1322 H 0.86942 0.35103 0.21704 0.0
H1323 H 0.83199 0.32051 0.24163 0.0
H1324 H 0.87488 0.38714 0.18005 0.0
H1325 H 0.90703 0.3165 0.16506 0.0
H1326 H 0.90247 0.2755 0.14775 0.0
H1327 H 0.86215 0.29611 0.05908 0.0
H1328 H 0.86749 0.33757 0.07535 0.0
H1329 H 1.00314 0.45458 0.12423 0.0
H1330 H 0.96627 0.42431 0.15075 0.0
H1331 H 0.91569 0.42154 0.06296 0.0
H1332 H 0.95217 0.45242 0.03651 0.0
H1333 H 0.92037 0.37248 0.09814 0.0
H1334 H 0.90132 0.44747 0.11063 0.0
H1335 H 0.91177 0.4898 0.12703 0.0
H1336 H 0.92969 0.4605 0.22283 0.0
H1337 H 0.91977 0.41805 0.2069 0.0
C1338 C 0.81814 0.30032 0.16941 0.0
C1339 C 0.81582 0.30008 0.20122 0.0
C1340 C 0.83816 0.31917 0.15437 0.0
C1341 C 0.85745 0.33769 0.17106 0.0
C1342 C 0.85528 0.33708 0.20321 0.0
C1343 C 0.83427 0.31906 0.21777 0.0
C1344 C 0.8784 0.35874 0.1547 0.0
C1345 C 0.88506 0.38353 0.16265 0.0
C1346 C 0.89144 0.35502 0.1308 0.0
C1347 C 0.88728 0.32982 0.12159 0.0
C1348 C 0.89702 0.31213 0.142 0.0
C1349 C 0.89444 0.28892 0.13231 0.0
C1350 C 0.88168 0.28306 0.10257 0.0
C1351 C 0.87183 0.30056 0.08222 0.0
C1352 C 0.87489 0.32401 0.09151 0.0
C1353 C 0.98399 0.44799 0.11075 0.0
C1354 C 0.98054 0.45612 0.07833 0.0
C1355 C 0.96295 0.43066 0.12592 0.0
C1356 C 0.93822 0.42067 0.10885 0.0
C1357 C 0.93456 0.4291 0.07662 0.0
C1358 C 0.95539 0.44691 0.0616 0.0
C1359 C 0.91681 0.40013 0.12414 0.0
C1360 C 0.91013 0.37567 0.1158 0.0
C1361 C 0.90411 0.40412 0.1479 0.0
C1362 C 0.91011 0.42964 0.15749 0.0
C1363 C 0.90778 0.4501 0.13513 0.0
C1364 C 0.91354 0.47411 0.14436 0.0
C1365 C 0.92147 0.47785 0.17594 0.0
C1366 C 0.92359 0.45758 0.19837 0.0
C1367 C 0.91789 0.43354 0.18925 0.0
H1368 H 0.92591 0.49645 0.18304 0.0
H1369 H 0.8796 0.26504 0.09521 0.0
H1370 H 0.75167 0.82933 0.20866 0.0
H1371 H 0.72836 0.85876 0.17957 0.0
H1372 H 0.65992 0.79546 0.15802 0.0
H1373 H 0.68277 0.76642 0.18738 0.0
H1374 H 0.66554 0.83087 0.10648 0.0
H1375 H 0.66353 0.83268 0.2165 0.0
H1376 H 0.68342 0.83896 0.27104 0.0
H1377 H 0.72605 0.91621 0.2406 0.0
H1378 H 0.70665 0.91028 0.18578 0.0
H1379 H 0.56921 0.89716 0.05282 0.0
H1380 H 0.59464 0.86895 0.07847 0.0
H1381 H 0.65405 0.93183 0.11828 0.0
H1382 H 0.6281 0.95949 0.0941 0.0
H1383 H 0.6547 0.897 0.16011 0.0
H1384 H 0.65634 0.89696 0.05084 0.0
H1385 H 0.63747 0.89164 0.99602 0.0
H1386 H 0.59953 0.81257 0.02246 0.0
H1387 H 0.61708 0.81761 0.07795 0.0
C1388 C 0.73183 0.8216 0.19732 0.0
C1389 C 0.71953 0.79504 0.20043 0.0
C1390 C 0.71819 0.83862 0.18072 0.0
C1391 C 0.69173 0.8299 0.16617 0.0
C1392 C 0.68003 0.80336 0.16851 0.0
C1393 C 0.69335 0.78653 0.1855 0.0
C1394 C 0.67583 0.84782 0.14951 0.0
C1395 C 0.66307 0.84514 0.11851 0.0
C1396 C 0.67247 0.86724 0.16404 0.0
C1397 C 0.68384 0.87097 0.197 0.0
C1398 C 0.67727 0.85096 0.22141 0.0
C1399 C 0.68843 0.85446 0.25238 0.0
C1400 C 0.70603 0.87795 0.25927 0.0
C1401 C 0.71243 0.89801 0.23521 0.0
C1402 C 0.70134 0.8946 0.2042 0.0
C1403 C 0.58776 0.90514 0.06684 0.0
C1404 C 0.59615 0.93116 0.07077 0.0
C1405 C 0.60271 0.88878 0.08166 0.0
C1406 C 0.62729 0.8976 0.10062 0.0
C1407 C 0.63554 0.92365 0.10431 0.0
C1408 C 0.62046 0.93982 0.08999 0.0
C1409 C 0.64423 0.88024 0.11671 0.0
C1410 C 0.65716 0.88291 0.14777 0.0
C1411 C 0.64804 0.861 0.10202 0.0
C1412 C 0.63779 0.85774 0.06866 0.0
C1413 C 0.64382 0.87846 0.04505 0.0
C1414 C 0.63336 0.87549 0.01381 0.0
C1415 C 0.61746 0.85178 0.00563 0.0
C1416 C 0.61185 0.83095 0.0288 0.0
C1417 C 0.62194 0.83387 0.06021 0.0
H1418 H 0.60946 0.84957 0.98137 0.0
H1419 H 0.71467 0.88062 0.28325 0.0
H1420 H 0.2241 0.74129 0.1465 0.0
H1421 H 0.19102 0.71298 0.11216 0.0
H1422 H 0.19729 0.64851 0.17796 0.0
H1423 H 0.22905 0.67663 0.21326 0.0
H1424 H 0.19658 0.64366 0.11213 0.0
H1425 H 0.14965 0.66409 0.18201 0.0
H1426 H 0.13406 0.68998 0.20992 0.0
H1427 H 0.10257 0.72206 0.12188 0.0
H1428 H 0.1187 0.69689 0.09332 0.0
H1429 H 0.07913 0.54794 0.06392 0.0
H1430 H 0.11596 0.57731 0.0924 0.0
H1431 H 0.09605 0.64033 0.03613 0.0
H1432 H 0.05869 0.61097 0.00779 0.0
H1433 H 0.10483 0.64689 0.09586 0.0
H1434 H 0.14923 0.62106 0.0272 0.0
H1435 H 0.16236 0.59154 0.00252 0.0
H1436 H 0.19653 0.56538 0.09257 0.0
H1437 H 0.18332 0.59465 0.11772 0.0
C1438 C 0.21818 0.72113 0.15388 0.0
C1439 C 0.22854 0.71136 0.18319 0.0
C1440 C 0.19948 0.70497 0.13409 0.0
C1441 C 0.19149 0.67871 0.14279 0.0
C1442 C 0.20312 0.66876 0.17095 0.0
C1443 C 0.22131 0.68492 0.19109 0.0
C1444 C 0.1703 0.66163 0.12309 0.0
C1445 C 0.17644 0.64418 0.10866 0.0
C1446 C 0.14416 0.66259 0.11848 0.0
C1447 C 0.13579 0.67888 0.13546 0.0
C1448 C 0.13989 0.67704 0.16852 0.0
C1449 C 0.13081 0.69147 0.18449 0.0
C1450 C 0.11724 0.70759 0.1677 0.0
C1451 C 0.113 0.7095 0.13487 0.0
C1452 C 0.12222 0.69524 0.11877 0.0
C1453 C 0.08266 0.56805 0.05732 0.0
C1454 C 0.06585 0.57706 0.03353 0.0
C1455 C 0.10388 0.58486 0.07358 0.0
C1456 C 0.1091 0.61108 0.06614 0.0
C1457 C 0.09253 0.62017 0.04219 0.0
C1458 C 0.07118 0.60335 0.02597 0.0
C1459 C 0.13102 0.62896 0.08436 0.0
C1460 C 0.12501 0.64653 0.0988 0.0
C1461 C 0.15718 0.62778 0.08935 0.0
C1462 C 0.16515 0.61006 0.0743 0.0
C1463 C 0.15946 0.60899 0.0417 0.0
C1464 C 0.16692 0.59228 0.02764 0.0
C1465 C 0.18026 0.57656 0.04597 0.0
C1466 C 0.18619 0.57757 0.07838 0.0
C1467 C 0.17874 0.59426 0.09253 0.0
H1468 H 0.18603 0.56361 0.03507 0.0
H1469 H 0.11013 0.71868 0.18011 0.0
H1470 H 0.34752 0.78467 0.81898 0.0
H1471 H 0.37511 0.81254 0.85702 0.0
H1472 H 0.31325 0.84492 0.85592 0.0
H1473 H 0.28471 0.81579 0.81924 0.0
H1474 H 0.36637 0.88061 0.84303 0.0
H1475 H 0.32349 0.81398 0.91798 0.0
H1476 H 0.30716 0.77096 0.94576 0.0
H1477 H 0.38635 0.76774 0.9665 0.0
H1478 H 0.40317 0.81057 0.93825 0.0
H1479 H 0.44664 0.96212 0.95396 0.0
H1480 H 0.40856 0.93194 0.92772 0.0
H1481 H 0.45108 0.87785 0.942 0.0
H1482 H 0.4887 0.9075 0.96931 0.0
H1483 H 0.40249 0.85386 0.9507 0.0
H1484 H 0.44486 0.91718 0.86978 0.0
H1485 H 0.46245 0.96055 0.84327 0.0
H1486 H 0.38563 0.9694 0.83285 0.0
H1487 H 0.36765 0.92617 0.85965 0.0
C1488 C 0.33953 0.79754 0.82686 0.0
C1489 C 0.31409 0.79868 0.81484 0.0
C1490 C 0.3554 0.81342 0.84877 0.0
C1491 C 0.34633 0.83097 0.85901 0.0
C1492 C 0.32071 0.83169 0.84796 0.0
C1493 C 0.30455 0.81532 0.82656 0.0
C1494 C 0.36444 0.84949 0.87966 0.0
C1495 C 0.3739 0.8749 0.86683 0.0
C1496 C 0.37473 0.84183 0.91034 0.0
C1497 C 0.36458 0.81549 0.9258 0.0
C1498 C 0.33741 0.80398 0.92801 0.0
C1499 C 0.32807 0.77966 0.94399 0.0
C1500 C 0.34574 0.76673 0.95807 0.0
C1501 C 0.37273 0.77788 0.95575 0.0
C1502 C 0.38216 0.80215 0.93971 0.0
C1503 C 0.4478 0.94374 0.95164 0.0
C1504 C 0.47081 0.93731 0.9635 0.0
C1505 C 0.42604 0.92651 0.93651 0.0
C1506 C 0.42705 0.90273 0.93223 0.0
C1507 C 0.44974 0.89605 0.9449 0.0
C1508 C 0.47131 0.91308 0.96048 0.0
C1509 C 0.40494 0.88499 0.91387 0.0
C1510 C 0.39479 0.85969 0.92704 0.0
C1511 C 0.39425 0.89266 0.88329 0.0
C1512 C 0.40499 0.91857 0.86702 0.0
C1513 C 0.43176 0.92845 0.86201 0.0
C1514 C 0.44179 0.95299 0.84692 0.0
C1515 C 0.42518 0.96775 0.83648 0.0
C1516 C 0.39848 0.95797 0.84101 0.0
C1517 C 0.38836 0.93344 0.85613 0.0
H1518 H 0.43299 0.98675 0.8248 0.0
H1519 H 0.3385 0.74807 0.97082 0.0
H1520 H 0.14845 0.28329 0.8867 0.0
H1521 H 0.13173 0.31481 0.90027 0.0
H1522 H 0.20289 0.37378 0.87607 0.0
H1523 H 0.22011 0.34192 0.86293 0.0
H1524 H 0.18938 0.38058 0.9309 0.0
H1525 H 0.14525 0.36982 0.82838 0.0
H1526 H 0.11967 0.34713 0.78382 0.0
H1527 H 0.05443 0.31112 0.83811 0.0
H1528 H 0.07961 0.33369 0.88304 0.0
H1529 H 0.12295 0.46808 0.95593 0.0
H1530 H 0.14773 0.44701 0.93321 0.0
H1531 H 0.08496 0.37628 0.94599 0.0
H1532 H 0.06023 0.39705 0.96777 0.0
H1533 H 0.09892 0.38224 0.8898 0.0
H1534 H 0.14692 0.39477 0.99371 0.0
H1535 H 0.17408 0.41997 0.03554 0.0
H1536 H 0.23464 0.45631 0.97459 0.0
H1537 H 0.20759 0.43152 0.9323 0.0
C1538 C 0.16062 0.30295 0.88417 0.0
C1539 C 0.18575 0.30994 0.87383 0.0
C1540 C 0.15091 0.32108 0.89176 0.0
C1541 C 0.16588 0.34687 0.8891 0.0
C1542 C 0.19088 0.35406 0.87838 0.0
C1543 C 0.20062 0.33583 0.87058 0.0
C1544 C 0.15526 0.36583 0.8982 0.0
C1545 C 0.16978 0.38131 0.92149 0.0
C1546 C 0.12971 0.36697 0.88605 0.0
C1547 C 0.1144 0.35332 0.85915 0.0
C1548 C 0.12551 0.35694 0.8309 0.0
C1549 C 0.11107 0.34412 0.80555 0.0
C1550 C 0.08551 0.32756 0.80819 0.0
C1551 C 0.07426 0.32392 0.83612 0.0
C1552 C 0.08856 0.33681 0.86149 0.0
C1553 C 0.11454 0.44803 0.95398 0.0
C1554 C 0.08945 0.4344 0.96356 0.0
C1555 C 0.12877 0.43593 0.94104 0.0
C1556 C 0.11836 0.40987 0.9378 0.0
C1557 C 0.09351 0.39635 0.94785 0.0
C1558 C 0.07933 0.40836 0.96046 0.0
C1559 C 0.13253 0.39628 0.92355 0.0
C1560 C 0.11864 0.38181 0.89907 0.0
C1561 C 0.15883 0.3965 0.9343 0.0
C1562 C 0.17506 0.41142 0.95976 0.0
C1563 C 0.16593 0.40821 0.9892 0.0
C1564 C 0.18132 0.42242 0.01299 0.0
C1565 C 0.20606 0.43976 0.00771 0.0
C1566 C 0.21545 0.44289 0.97864 0.0
C1567 C 0.20008 0.42876 0.95476 0.0
H1568 H 0.21796 0.45075 0.02615 0.0
H1569 H 0.0744 0.3176 0.78855 0.0
H1570 H 0.75201 0.2096 0.85376 0.0
H1571 H 0.71927 0.1735 0.88005 0.0
H1572 H 0.66814 0.16524 0.79269 0.0
H1573 H 0.70057 0.20145 0.76663 0.0
H1574 H 0.64867 0.17466 0.84924 0.0
H1575 H 0.67088 0.0904 0.82754 0.0
H1576 H 0.70378 0.06803 0.83243 0.0
H1577 H 0.74751 0.10816 0.91 0.0
H1578 H 0.71473 0.13052 0.90563 0.0
H1579 H 0.53443 0.07303 0.8807 0.0
H1580 H 0.57325 0.1014 0.85672 0.0
H1581 H 0.62367 0.08165 0.9375 0.0
H1582 H 0.58494 0.05259 0.96117 0.0
H1583 H 0.64609 0.0863 0.88803 0.0
H1584 H 0.60721 0.13774 0.92694 0.0
H1585 H 0.57187 0.15405 0.93424 0.0
H1586 H 0.5628 0.17912 0.83529 0.0
H1587 H 0.59785 0.16261 0.82731 0.0
C1588 C 0.73408 0.19954 0.8401 0.0
C1589 C 0.72908 0.20777 0.80803 0.0
C1590 C 0.71551 0.17878 0.85502 0.0
C1591 C 0.69154 0.16612 0.83815 0.0
C1592 C 0.68673 0.17428 0.80601 0.0
C1593 C 0.70522 0.19498 0.79114 0.0
C1594 C 0.6696 0.14757 0.85465 0.0
C1595 C 0.64804 0.15528 0.85759 0.0
C1596 C 0.66901 0.12252 0.86646 0.0
C1597 C 0.69095 0.11277 0.86551 0.0
C1598 C 0.68789 0.09486 0.84511 0.0
C1599 C 0.70629 0.08192 0.84807 0.0
C1600 C 0.72779 0.08673 0.87145 0.0
C1601 C 0.73098 0.10459 0.89176 0.0
C1602 C 0.71262 0.11756 0.88887 0.0
C1603 C 0.5538 0.07446 0.8932 0.0
C1604 C 0.55653 0.06058 0.92293 0.0
C1605 C 0.57601 0.09088 0.87956 0.0
C1606 C 0.60144 0.09422 0.89561 0.0
C1607 C 0.60429 0.07955 0.92468 0.0
C1608 C 0.58209 0.06285 0.93816 0.0
C1609 C 0.62497 0.11326 0.88232 0.0
C1610 C 0.64666 0.10568 0.87976 0.0
C1611 C 0.62603 0.13868 0.87181 0.0
C1612 C 0.60499 0.14872 0.87649 0.0
C1613 C 0.59755 0.14657 0.9067 0.0
C1614 C 0.57759 0.15587 0.91096 0.0
C1615 C 0.56505 0.16756 0.88523 0.0
C1616 C 0.5725 0.17002 0.85519 0.0
C1617 C 0.59243 0.16072 0.85078 0.0
H1618 H 0.5496 0.17475 0.88858 0.0
H1619 H 0.74198 0.07666 0.8738 0.0
H1620 H 0.77703 0.67257 0.79764 0.0
H1621 H 0.80646 0.65017 0.82624 0.0
H1622 H 0.86972 0.72069 0.83076 0.0
H1623 H 0.84005 0.74328 0.79939 0.0
H1624 H 0.89352 0.68979 0.82786 0.0
H1625 H 0.83225 0.67779 0.89947 0.0
H1626 H 0.78996 0.66699 0.92134 0.0
H1627 H 0.76879 0.59084 0.89949 0.0
H1628 H 0.81092 0.60115 0.87746 0.0
H1629 H 0.96968 0.61966 0.94039 0.0
H1630 H 0.94438 0.64836 0.91518 0.0
H1631 H 0.87959 0.58452 0.88622 0.0
H1632 H 0.90464 0.55614 0.91087 0.0
H1633 H 0.85881 0.61482 0.90434 0.0
H1634 H 0.92446 0.63069 0.83417 0.0
H1635 H 0.96973 0.64343 0.81963 0.0
H1636 H 0.9862 0.7166 0.84907 0.0
H1637 H 0.94111 0.70417 0.86417 0.0
C1638 C 0.79712 0.68368 0.80493 0.0
C1639 C 0.80537 0.71022 0.7963 0.0
C1640 C 0.81426 0.67057 0.82198 0.0
C1641 C 0.84093 0.68309 0.83247 0.0
C1642 C 0.84949 0.70984 0.82383 0.0
C1643 C 0.83221 0.72308 0.80601 0.0
C1644 C 0.85927 0.66793 0.85118 0.0
C1645 C 0.88581 0.6738 0.84512 0.0
C1646 C 0.85036 0.64648 0.87411 0.0
C1647 C 0.82464 0.64034 0.88646 0.0
C1648 C 0.81847 0.65881 0.89905 0.0
C1649 C 0.79455 0.65276 0.91154 0.0
C1650 C 0.77664 0.6283 0.91162 0.0
C1651 C 0.78265 0.6098 0.89933 0.0
C1652 C 0.80657 0.61572 0.8869 0.0
C1653 C 0.95004 0.6116 0.92874 0.0
C1654 C 0.93973 0.58503 0.92806 0.0
C1655 C 0.93541 0.62827 0.91385 0.0
C1656 C 0.90959 0.61928 0.89774 0.0
C1657 C 0.8992 0.59271 0.89788 0.0
C1658 C 0.91384 0.5762 0.91227 0.0
C1659 C 0.89303 0.6368 0.88146 0.0
C1660 C 0.86668 0.63116 0.88768 0.0
C1661 C 0.9025 0.65891 0.85976 0.0
C1662 C 0.92952 0.66641 0.85061 0.0
C1663 C 0.93781 0.64943 0.83776 0.0
C1664 C 0.96342 0.65661 0.82938 0.0
C1665 C 0.98085 0.68078 0.83351 0.0
C1666 C 0.97269 0.69786 0.84594 0.0
C1667 C 0.9471 0.69077 0.85439 0.0
H1668 H 1.00067 0.6863 0.827 0.0
H1669 H 0.75813 0.62367 0.92131 0.0
H1670 H 0.2596 0.34197 0.19413 0.0
H1671 H 0.22965 0.36418 0.1654 0.0
H1672 H 0.16422 0.29549 0.17505 0.0
H1673 H 0.19473 0.27289 0.20429 0.0
H1674 H 0.15488 0.32217 0.11774 0.0
H1675 H 0.1763 0.34552 0.221 0.0
H1676 H 0.2049 0.36035 0.26884 0.0
H1677 H 0.2424 0.4313 0.21599 0.0
H1678 H 0.21426 0.41675 0.1677 0.0
H1679 H 0.06401 0.39643 0.06496 0.0
H1680 H 0.08836 0.36749 0.09133 0.0
H1681 H 0.1584 0.43125 0.10548 0.0
H1682 H 0.13361 0.45991 0.08124 0.0
H1683 H 0.16227 0.40342 0.15325 0.0
H1684 H 0.13881 0.37729 0.04823 0.0
H1685 H 0.10816 0.3602 0.0025 0.0
H1686 H 0.07171 0.29239 0.06132 0.0
H1687 H 0.10176 0.30917 0.10737 0.0
C1688 C 0.23887 0.33125 0.19002 0.0
C1689 C 0.23017 0.30524 0.2018 0.0
C1690 C 0.22143 0.34427 0.17352 0.0
C1691 C 0.19392 0.33223 0.16795 0.0
C1692 C 0.18507 0.30586 0.17869 0.0
C1693 C 0.20273 0.29269 0.19549 0.0
C1694 C 0.17513 0.34763 0.15203 0.0
C1695 C 0.15643 0.33981 0.12587 0.0
C1696 C 0.17645 0.37103 0.16167 0.0
C1697 C 0.19332 0.37995 0.19065 0.0
C1698 C 0.19077 0.36423 0.21952 0.0
C1699 C 0.20688 0.37258 0.24673 0.0
C1700 C 0.22549 0.39673 0.24544 0.0
C1701 C 0.22798 0.41259 0.21694 0.0
C1702 C 0.21194 0.4043 0.18964 0.0
C1703 C 0.08467 0.40438 0.0734 0.0
C1704 C 0.09642 0.43103 0.07041 0.0
C1705 C 0.09899 0.38754 0.08857 0.0
C1706 C 0.12615 0.39633 0.10072 0.0
C1707 C 0.13778 0.42302 0.09708 0.0
C1708 C 0.12337 0.43976 0.0827 0.0
C1709 C 0.14239 0.37862 0.11793 0.0
C1710 C 0.1607 0.38596 0.14467 0.0
C1711 C 0.14039 0.35465 0.10894 0.0
C1712 C 0.12239 0.34462 0.08124 0.0
C1713 C 0.12418 0.3588 0.05135 0.0
C1714 C 0.10693 0.34919 0.02542 0.0
C1715 C 0.08803 0.32529 0.02903 0.0
C1716 C 0.08634 0.31092 0.05856 0.0
C1717 C 0.10346 0.32048 0.08458 0.0
H1718 H 0.07472 0.31789 0.00892 0.0
H1719 H 0.23795 0.40317 0.26652 0.0
H1720 H 0.21615 0.68678 0.76093 0.0
H1721 H 0.18053 0.65341 0.78486 0.0
H1722 H 0.17148 0.70683 0.83948 0.0
H1723 H 0.21024 0.73888 0.81908 0.0
H1724 H 0.16605 0.67043 0.87543 0.0
H1725 H 0.12165 0.67351 0.77035 0.0
H1726 H 0.11524 0.67347 0.71269 0.0
H1727 H 0.12794 0.60135 0.72402 0.0
H1728 H 0.13381 0.60062 0.78179 0.0
H1729 H 0.02698 0.56879 0.87591 0.0
H1730 H 0.06128 0.59961 0.84719 0.0
H1731 H 0.12063 0.5863 0.92094 0.0
H1732 H 0.08595 0.55573 0.95062 0.0
H1733 H 0.09973 0.60205 0.82043 0.0
H1734 H 0.17278 0.64326 0.92828 0.0
H1735 H 0.17189 0.65211 0.98175 0.0
H1736 H 0.09003 0.64663 0.96006 0.0
H1737 H 0.09065 0.63865 0.9061 0.0
C1738 C 0.20638 0.69131 0.77792 0.0
C1739 C 0.21581 0.71541 0.78799 0.0
C1740 C 0.18551 0.67226 0.79132 0.0
C1741 C 0.17245 0.6772 0.81393 0.0
C1742 C 0.18108 0.70198 0.82251 0.0
C1743 C 0.20298 0.72058 0.81042 0.0
C1744 C 0.15151 0.65633 0.8305 0.0
C1745 C 0.15151 0.65566 0.86311 0.0
C1746 C 0.132 0.63682 0.81499 0.0
C1747 C 0.12845 0.63715 0.78034 0.0
C1748 C 0.12316 0.65768 0.76054 0.0
C1749 C 0.11958 0.65777 0.72788 0.0
C1750 C 0.12155 0.6376 0.71476 0.0
C1751 C 0.12658 0.61702 0.73426 0.0
C1752 C 0.12984 0.61667 0.76695 0.0
C1753 C 0.04733 0.57209 0.88602 0.0
C1754 C 0.05356 0.55977 0.91583 0.0
C1755 C 0.06705 0.58979 0.86939 0.0
C1756 C 0.0937 0.59577 0.88191 0.0
C1757 C 0.10022 0.58247 0.9109 0.0
C1758 C 0.08036 0.56471 0.92773 0.0
C1759 C 0.11418 0.61659 0.86502 0.0
C1760 C 0.11425 0.61701 0.83252 0.0
C1761 C 0.13269 0.63673 0.88024 0.0
C1762 C 0.13169 0.63995 0.91324 0.0
C1763 C 0.15456 0.64386 0.93493 0.0
C1764 C 0.15414 0.64888 0.96527 0.0
C1765 C 0.13091 0.64992 0.97428 0.0
C1766 C 0.108 0.64578 0.95304 0.0
C1767 C 0.10838 0.64102 0.92256 0.0
H1768 H 0.13072 0.65408 0.99767 0.0
H1769 H 0.11912 0.63793 0.6895 0.0
H1770 H 0.35169 0.25253 0.81577 0.0
H1771 H 0.37421 0.22439 0.84758 0.0
H1772 H 0.31262 0.16005 0.81371 0.0
H1773 H 0.28863 0.18859 0.78428 0.0
H1774 H 0.32852 0.14139 0.86481 0.0
H1775 H 0.38744 0.19511 0.78937 0.0
H1776 H 0.41428 0.23579 0.76338 0.0
H1777 H 0.45736 0.25582 0.85238 0.0
H1778 H 0.43082 0.21528 0.87895 0.0
H1779 H 0.40758 0.05767 0.89996 0.0
H1780 H 0.38278 0.08642 0.8761 0.0
H1781 H 0.43771 0.1454 0.92695 0.0
H1782 H 0.46286 0.11635 0.95112 0.0
H1783 H 0.42587 0.16694 0.86943 0.0
H1784 H 0.37067 0.11166 0.94381 0.0
H1785 H 0.34489 0.07083 0.97032 0.0
H1786 H 0.29493 0.05374 0.88416 0.0
H1787 H 0.32082 0.09418 0.8568 0.0
C1788 C 0.34253 0.23232 0.81551 0.0
C1789 C 0.31779 0.22328 0.79749 0.0
C1790 C 0.356 0.2159 0.83337 0.0
C1791 C 0.34653 0.1893 0.83273 0.0
C1792 C 0.32131 0.18014 0.81517 0.0
C1793 C 0.30725 0.19667 0.79814 0.0
C1794 C 0.36266 0.17147 0.84993 0.0
C1795 C 0.34976 0.14713 0.86507 0.0
C1796 C 0.39087 0.17813 0.85218 0.0
C1797 C 0.407 0.20229 0.83615 0.0
C1798 C 0.4026 0.20823 0.80338 0.0
C1799 C 0.41774 0.23125 0.78856 0.0
C1800 C 0.43739 0.24842 0.80621 0.0
C1801 C 0.44212 0.24251 0.83873 0.0
C1802 C 0.42708 0.2195 0.85368 0.0
C1803 C 0.41457 0.07669 0.9065 0.0
C1804 C 0.43771 0.0841 0.92801 0.0
C1805 C 0.4 0.09339 0.89266 0.0
C1806 C 0.40757 0.11869 0.89936 0.0
C1807 C 0.43079 0.12627 0.92082 0.0
C1808 C 0.44534 0.10939 0.93497 0.0
C1809 C 0.39165 0.1369 0.88365 0.0
C1810 C 0.4046 0.16124 0.86892 0.0
C1811 C 0.36354 0.1302 0.88174 0.0
C1812 C 0.34787 0.1059 0.89815 0.0
C1813 C 0.35433 0.09913 0.93041 0.0
C1814 C 0.33967 0.07606 0.94562 0.0
C1815 C 0.31829 0.05972 0.92898 0.0
C1816 C 0.31151 0.06641 0.89703 0.0
C1817 C 0.32619 0.0894 0.88164 0.0
H1818 H 0.30695 0.04189 0.94084 0.0
H1819 H 0.44901 0.26626 0.79469 0.0
H1820 H 0.78756 0.29883 0.8448 0.0
H1821 H 0.81786 0.32843 0.87984 0.0
H1822 H 0.88331 0.31 0.85695 0.0
H1823 H 0.85341 0.28195 0.82015 0.0
H1824 H 0.87049 0.31758 0.93238 0.0
H1825 H 0.89616 0.35378 0.82276 0.0
H1826 H 0.88297 0.3651 0.76671 0.0
H1827 H 0.8367 0.40627 0.79166 0.0
H1828 H 0.84932 0.39466 0.84801 0.0
H1829 H 0.9904 0.40738 0.97849 0.0
H1830 H 0.95405 0.37541 0.9534 0.0
H1831 H 0.91163 0.42936 0.92399 0.0
H1832 H 0.94869 0.46201 0.94824 0.0
H1833 H 0.90771 0.4041 0.87769 0.0
H1834 H 0.89389 0.38054 0.98498 0.0
H1835 H 0.90778 0.37209 0.04145 0.0
H1836 H 0.92767 0.30825 0.02457 0.0
H1837 H 0.91441 0.31665 0.96774 0.0
C1838 C 0.80839 0.30106 0.84726 0.0
C1839 C 0.81809 0.28809 0.82957 0.0
C1840 C 0.82559 0.31772 0.86756 0.0
C1841 C 0.85274 0.32133 0.87087 0.0
C1842 C 0.86234 0.30726 0.85479 0.0
C1843 C 0.84517 0.29095 0.83406 0.0
C1844 C 0.87133 0.3417 0.88836 0.0
C1845 C 0.87884 0.33647 0.92055 0.0
C1846 C 0.88128 0.36648 0.8731 0.0
C1847 C 0.87334 0.37307 0.83942 0.0
C1848 C 0.88287 0.36493 0.81624 0.0
C1849 C 0.87548 0.3714 0.78442 0.0
C1850 C 0.85868 0.38615 0.77554 0.0
C1851 C 0.84941 0.39458 0.79853 0.0
C1852 C 0.85667 0.38806 0.83041 0.0
C1853 C 0.9733 0.4125 0.96688 0.0
C1854 C 0.97241 0.43726 0.96545 0.0
C1855 C 0.95241 0.39409 0.95266 0.0
C1856 C 0.92981 0.39977 0.93732 0.0
C1857 C 0.92881 0.42449 0.93583 0.0
C1858 C 0.94997 0.44311 0.9497 0.0
C1859 C 0.90785 0.38003 0.92186 0.0
C1860 C 0.89939 0.38535 0.88993 0.0
C1861 C 0.89677 0.35545 0.93766 0.0
C1862 C 0.90337 0.34939 0.97201 0.0
C1863 C 0.9013 0.36474 0.99327 0.0
C1864 C 0.90914 0.36 0.02536 0.0
C1865 C 0.91883 0.33977 0.03659 0.0
C1866 C 0.92031 0.324 0.01579 0.0
C1867 C 0.9126 0.32873 0.98362 0.0
H1868 H 0.9251 0.33624 0.06142 0.0
H1869 H 0.85299 0.39121 0.7509 0.0
H1870 H 0.75933 0.87997 0.88841 0.0
H1871 H 0.73184 0.90189 0.90307 0.0
H1872 H 0.66231 0.83943 0.88124 0.0
H1873 H 0.68993 0.81738 0.86616 0.0
H1874 H 0.6514 0.88207 0.86305 0.0
H1875 H 0.69066 0.84834 0.959 0.0
H1876 H 0.72616 0.83996 0.99812 0.0
H1877 H 0.76154 0.91957 0.00423 0.0
H1878 H 0.72642 0.92846 0.96483 0.0
H1879 H 0.5652 0.90677 0.95029 0.0
H1880 H 0.59426 0.88969 0.93017 0.0
H1881 H 0.66004 0.95606 0.94935 0.0
H1882 H 0.63079 0.97335 0.97021 0.0
H1883 H 0.67434 0.91417 0.96706 0.0
H1884 H 0.6308 0.94594 0.8728 0.0
H1885 H 0.59296 0.95196 0.83608 0.0
H1886 H 0.56238 0.8721 0.82973 0.0
H1887 H 0.59986 0.86555 0.86677 0.0
C1888 C 0.73817 0.87084 0.88663 0.0
C1889 C 0.72696 0.84667 0.87643 0.0
C1890 C 0.72241 0.88342 0.89519 0.0
C1891 C 0.69489 0.87218 0.89417 0.0
C1892 C 0.68346 0.84856 0.88255 0.0
C1893 C 0.69928 0.83596 0.87378 0.0
C1894 C 0.67832 0.88498 0.90561 0.0
C1895 C 0.6562 0.88866 0.88604 0.0
C1896 C 0.6847 0.89428 0.93533 0.0
C1897 C 0.70609 0.88909 0.95867 0.0
C1898 C 0.70616 0.86408 0.96845 0.0
C1899 C 0.72618 0.85923 0.99073 0.0
C1900 C 0.74614 0.87923 0.00358 0.0
C1901 C 0.7461 0.90411 0.99421 0.0
C1902 C 0.72614 0.90906 0.97191 0.0
C1903 C 0.58581 0.91797 0.95016 0.0
C1904 C 0.59547 0.94168 0.96175 0.0
C1905 C 0.60247 0.90815 0.93835 0.0
C1906 C 0.62939 0.92171 0.93741 0.0
C1907 C 0.63932 0.94524 0.94943 0.0
C1908 C 0.62255 0.95517 0.96133 0.0
C1909 C 0.64699 0.91068 0.92488 0.0
C1910 C 0.66943 0.90746 0.94414 0.0
C1911 C 0.64056 0.90135 0.89518 0.0
C1912 C 0.61805 0.90524 0.87276 0.0
C1913 C 0.61591 0.92964 0.86375 0.0
C1914 C 0.59454 0.93315 0.84285 0.0
C1915 C 0.57525 0.91242 0.83063 0.0
C1916 C 0.57733 0.88814 0.83923 0.0
C1917 C 0.59865 0.88452 0.86014 0.0
H1918 H 0.55871 0.91518 0.81445 0.0
H1919 H 0.76159 0.87543 0.02087 0.0
H1920 H 0.85001 0.68709 0.16507 0.0
H1921 H 0.86618 0.65498 0.15137 0.0
H1922 H 0.86027 0.68616 0.05375 0.0
H1923 H 0.84231 0.7168 0.06684 0.0
H1924 H 0.84864 0.63946 0.05385 0.0
H1925 H 0.92094 0.6997 0.10834 0.0
H1926 H 0.94438 0.72378 0.15266 0.0
H1927 H 0.94006 0.6544 0.21302 0.0
H1928 H 0.91631 0.62991 0.1691 0.0
H1929 H 0.98027 0.61679 0.04099 0.0
H1930 H 0.95488 0.63775 0.06125 0.0
H1931 H 0.8868 0.5708 0.0571 0.0
H1932 H 0.9123 0.54962 0.03588 0.0
H1933 H 0.93281 0.63121 0.11152 0.0
H1934 H 0.82943 0.59125 0.04218 0.0
H1935 H 0.81025 0.57248 0.9928 0.0
H1936 H 0.88371 0.60969 0.95403 0.0
H1937 H 0.90274 0.62969 0.00218 0.0
C1938 C 0.85162 0.68683 0.14059 0.0
C1939 C 0.84525 0.7051 0.11725 0.0
C1940 C 0.86127 0.66857 0.13278 0.0
C1941 C 0.86526 0.66834 0.10151 0.0
C1942 C 0.85772 0.68581 0.07809 0.0
C1943 C 0.84773 0.70372 0.08577 0.0
C1944 C 0.87817 0.65082 0.09296 0.0
C1945 C 0.86693 0.63753 0.06672 0.0
C1946 C 0.90231 0.64833 0.10919 0.0
C1947 C 0.91659 0.66299 0.13557 0.0
C1948 C 0.92484 0.68959 0.13112 0.0
C1949 C 0.9382 0.70331 0.15616 0.0
C1950 C 0.94363 0.69063 0.18566 0.0
C1951 C 0.93578 0.6642 0.19017 0.0
C1952 C 0.92239 0.65039 0.16523 0.0
C1953 C 0.9599 0.60632 0.04435 0.0
C1954 C 0.94841 0.5814 0.0366 0.0
C1955 C 0.94536 0.61841 0.05622 0.0
C1956 C 0.91877 0.60607 0.0608 0.0
C1957 C 0.9072 0.58096 0.05356 0.0
C1958 C 0.92182 0.5688 0.04145 0.0
C1959 C 0.90346 0.62013 0.07221 0.0
C1960 C 0.91425 0.63276 0.09901 0.0
C1961 C 0.8794 0.6227 0.05582 0.0
C1962 C 0.86768 0.61156 0.02611 0.0
C1963 C 0.84138 0.59559 0.02296 0.0
C1964 C 0.83047 0.58484 0.99507 0.0
C1965 C 0.8457 0.58987 0.9702 0.0
C1966 C 0.87178 0.60588 0.97308 0.0
C1967 C 0.88263 0.617 0.00065 0.0
H1968 H 0.8373 0.58136 0.94873 0.0
H1969 H 0.95397 0.70128 0.20501 0.0
H1970 H 0.3003 0.79197 0.16535 0.0
H1971 H 0.32879 0.82919 0.13541 0.0
H1972 H 0.36847 0.85821 0.22241 0.0
H1973 H 0.3413 0.82038 0.25206 0.0
H1974 H 0.34444 0.87986 0.12633 0.0
H1975 H 0.43273 0.87975 0.2211 0.0
H1976 H 0.44629 0.85024 0.26374 0.0
H1977 H 0.39861 0.78727 0.21472 0.0
H1978 H 0.38512 0.81643 0.1716 0.0
H1979 H 0.45937 0.98073 0.07497 0.0
H1980 H 0.42232 0.95327 0.10379 0.0
H1981 H 0.44998 0.88968 0.10493 0.0
H1982 H 0.48731 0.91707 0.07829 0.0
H1983 H 0.43887 0.88792 0.15845 0.0
H1984 H 0.39318 0.90104 0.05501 0.0
H1985 H 0.3791 0.92673 0.00809 0.0
H1986 H 0.34145 0.95668 0.06504 0.0
H1987 H 0.35557 0.93135 0.11238 0.0
C1988 C 0.31463 0.80674 0.17787 0.0
C1989 C 0.31837 0.80373 0.21087 0.0
C1990 C 0.3309 0.82796 0.16082 0.0
C1991 C 0.35112 0.84634 0.17664 0.0
C1992 C 0.35338 0.84412 0.20965 0.0
C1993 C 0.33775 0.82263 0.22659 0.0
C1994 C 0.37205 0.86572 0.15926 0.0
C1995 C 0.36511 0.88171 0.13332 0.0
C1996 C 0.39903 0.8679 0.16798 0.0
C1997 C 0.40773 0.85027 0.19332 0.0
C1998 C 0.42528 0.85962 0.21936 0.0
C1999 C 0.43293 0.84295 0.24361 0.0
C2000 C 0.42325 0.81689 0.24199 0.0
C2001 C 0.40604 0.80745 0.21599 0.0
C2002 C 0.3984 0.82404 0.19164 0.0
C2003 C 0.45743 0.96089 0.08158 0.0
C2004 C 0.47645 0.95113 0.07493 0.0
C2005 C 0.43617 0.94515 0.09781 0.0
C2006 C 0.43319 0.91925 0.10665 0.0
C2007 C 0.45188 0.90957 0.09896 0.0
C2008 C 0.4733 0.9253 0.08367 0.0
C2009 C 0.41148 0.90196 0.12485 0.0
C2010 C 0.41827 0.88634 0.15131 0.0
C2011 C 0.38445 0.89956 0.11572 0.0
C2012 C 0.37567 0.91452 0.08726 0.0
C2013 C 0.38203 0.91322 0.05754 0.0
C2014 C 0.37402 0.92769 0.03088 0.0
C2015 C 0.35945 0.94338 0.0336 0.0
C2016 C 0.35277 0.94454 0.06298 0.0
C2017 C 0.36075 0.93012 0.08973 0.0
H2018 H 0.35329 0.95459 0.01294 0.0
H2019 H 0.42912 0.80402 0.26084 0.0
H2020 H 0.73326 0.18528 0.19987 0.0
H2021 H 0.70195 0.15672 0.16516 0.0
H2022 H 0.66329 0.21295 0.13088 0.0
H2023 H 0.69547 0.24233 0.16434 0.0
H2024 H 0.62985 0.16203 0.15449 0.0
H2025 H 0.69433 0.20465 0.08279 0.0
H2026 H 0.73904 0.22077 0.06614 0.0
H2027 H 0.74293 0.14505 0.07803 0.0
H2028 H 0.69836 0.1285 0.09527 0.0
H2029 H 0.5412 0.10568 0.02903 0.0
H2030 H 0.57647 0.13542 0.05914 0.0
H2031 H 0.61858 0.08098 0.08307 0.0
H2032 H 0.58317 0.05085 0.05305 0.0
H2033 H 0.65109 0.13051 0.0651 0.0
H2034 H 0.58686 0.08761 0.13606 0.0
H2035 H 0.54295 0.07107 0.1549 0.0
H2036 H 0.53922 0.14663 0.14671 0.0
H2037 H 0.58293 0.16361 0.12725 0.0
C2038 C 0.7188 0.19204 0.18448 0.0
C2039 C 0.71743 0.2164 0.18492 0.0
C2040 C 0.70065 0.1755 0.16474 0.0
C2041 C 0.6804 0.18279 0.14547 0.0
C2042 C 0.67885 0.20702 0.14561 0.0
C2043 C 0.69735 0.22377 0.16483 0.0
C2044 C 0.66011 0.16465 0.12627 0.0
C2045 C 0.63433 0.15541 0.13462 0.0
C2046 C 0.66635 0.1555 0.10109 0.0
C2047 C 0.69313 0.16536 0.0907 0.0
C2048 C 0.70482 0.19145 0.08219 0.0
C2049 C 0.73012 0.20067 0.07257 0.0
C2050 C 0.74385 0.18395 0.07113 0.0
C2051 C 0.73228 0.15798 0.07922 0.0
C2052 C 0.70699 0.14867 0.0889 0.0
C2053 C 0.55801 0.10001 0.04048 0.0
C2054 C 0.55929 0.0758 0.03875 0.0
C2055 C 0.5781 0.11703 0.0578 0.0
C2056 C 0.59997 0.1103 0.07358 0.0
C2057 C 0.60179 0.08649 0.07112 0.0
C2058 C 0.58152 0.06928 0.05406 0.0
C2059 C 0.62063 0.12806 0.09305 0.0
C2060 C 0.64653 0.13716 0.08489 0.0
C2061 C 0.61454 0.13703 0.11855 0.0
C2062 C 0.58803 0.12686 0.12975 0.0
C2063 C 0.57654 0.10069 0.13787 0.0
C2064 C 0.55171 0.09123 0.14875 0.0
C2065 C 0.53826 0.10778 0.15188 0.0
C2066 C 0.54963 0.13383 0.14418 0.0
C2067 C 0.57443 0.14337 0.1332 0.0
H2068 H 0.51905 0.10043 0.16036 0.0
H2069 H 0.76343 0.19112 0.06366 0.0
H2070 H 0.71303 0.67245 0.77449 0.0
H2071 H 0.67793 0.64043 0.80147 0.0
H2072 H 0.65445 0.6994 0.82825 0.0
H2073 H 0.6904 0.73148 0.80203 0.0
H2074 H 0.65402 0.66533 0.87577 0.0
H2075 H 0.6192 0.66249 0.76732 0.0
H2076 H 0.61995 0.65935 0.7115 0.0
H2077 H 0.62707 0.5849 0.73619 0.0
H2078 H 0.62682 0.58776 0.79226 0.0
H2079 H 0.52554 0.58705 0.91107 0.0
H2080 H 0.5581 0.61603 0.87766 0.0
H2081 H 0.60189 0.56305 0.89315 0.0
H2082 H 0.56983 0.53421 0.92757 0.0
H2083 H 0.59084 0.59308 0.82386 0.0
H2084 H 0.62742 0.5986 0.93407 0.0
H2085 H 0.62271 0.60211 0.98855 0.0
H2086 H 0.60957 0.67369 0.95838 0.0
H2087 H 0.61312 0.67009 0.90344 0.0
C2088 C 0.69993 0.67847 0.78547 0.0
C2089 C 0.7037 0.70424 0.78547 0.0
C2090 C 0.67998 0.66021 0.80105 0.0
C2091 C 0.66311 0.66745 0.81633 0.0
C2092 C 0.66709 0.69333 0.81648 0.0
C2093 C 0.68743 0.71161 0.80139 0.0
C2094 C 0.64174 0.64802 0.8327 0.0
C2095 C 0.6401 0.64973 0.86422 0.0
C2096 C 0.62364 0.62742 0.81784 0.0
C2097 C 0.62319 0.62542 0.78404 0.0
C2098 C 0.62105 0.64549 0.76087 0.0
C2099 C 0.62139 0.64376 0.72919 0.0
C2100 C 0.62358 0.62194 0.72031 0.0
C2101 C 0.62538 0.60179 0.74311 0.0
C2102 C 0.62512 0.60344 0.77484 0.0
C2103 C 0.54184 0.58136 0.90693 0.0
C2104 C 0.54529 0.55847 0.922 0.0
C2105 C 0.56037 0.59792 0.88788 0.0
C2106 C 0.58227 0.59158 0.88313 0.0
C2107 C 0.58499 0.56812 0.8966 0.0
C2108 C 0.5668 0.55179 0.9163 0.0
C2109 C 0.6035 0.61053 0.86658 0.0
C2110 C 0.60495 0.60873 0.83517 0.0
C2111 C 0.62121 0.6312 0.88135 0.0
C2112 C 0.62011 0.63387 0.91454 0.0
C2113 C 0.62315 0.61492 0.93896 0.0
C2114 C 0.62066 0.61691 0.96992 0.0
C2115 C 0.61571 0.63805 0.9769 0.0
C2116 C 0.6133 0.65727 0.95292 0.0
C2117 C 0.61547 0.65522 0.92184 0.0
H2118 H 0.61393 0.63961 0.00091 0.0
H2119 H 0.62385 0.62064 0.69578 0.0
H2120 H 0.37633 0.74315 0.89166 0.0
H2121 H 0.41291 0.72855 0.9184 0.0
H2122 H 0.36284 0.68018 0.98676 0.0
H2123 H 0.32608 0.69349 0.95975 0.0
H2124 H 0.42959 0.70172 0.00103 0.0
H2125 H 0.34693 0.64188 0.93901 0.0
H2126 H 0.31334 0.64125 0.89292 0.0
H2127 H 0.37387 0.68648 0.83521 0.0
H2128 H 0.40773 0.6874 0.88108 0.0
H2129 H 0.41729 0.56146 0.98518 0.0
H2130 H 0.40125 0.59743 0.98228 0.0
H2131 H 0.48139 0.64808 0.98675 0.0
H2132 H 0.49756 0.61193 0.99125 0.0
H2133 H 0.40612 0.632 0.93471 0.0
H2134 H 0.48223 0.70661 0.00555 0.0
H2135 H 0.51403 0.71089 0.05353 0.0
H2136 H 0.46778 0.63876 0.09554 0.0
H2137 H 0.4362 0.63352 0.04729 0.0
C2138 C 0.37335 0.73004 0.91301 0.0
C2139 C 0.34799 0.71869 0.92277 0.0
C2140 C 0.39443 0.72214 0.92861 0.0
C2141 C 0.39036 0.70315 0.95429 0.0
C2142 C 0.36636 0.69505 0.96714 0.0
C2143 C 0.34521 0.70261 0.95137 0.0
C2144 C 0.40611 0.68578 0.96013 0.0
C2145 C 0.42501 0.68667 0.98638 0.0
C2146 C 0.39972 0.66615 0.9411 0.0
C2147 C 0.37973 0.66454 0.91324 0.0
C2148 C 0.35301 0.65146 0.91638 0.0
C2149 C 0.33395 0.65113 0.89037 0.0
C2150 C 0.34148 0.66371 0.86112 0.0
C2151 C 0.36809 0.67664 0.85784 0.0
C2152 C 0.38721 0.67706 0.8838 0.0
C2153 C 0.43148 0.58022 0.98603 0.0
C2154 C 0.4586 0.58398 0.98792 0.0
C2155 C 0.42234 0.60076 0.98448 0.0
C2156 C 0.4401 0.62552 0.98412 0.0
C2157 C 0.46731 0.6292 0.98741 0.0
C2158 C 0.4765 0.60853 0.98969 0.0
C2159 C 0.4297 0.64723 0.97638 0.0
C2160 C 0.41148 0.64717 0.94936 0.0
C2161 C 0.43723 0.66772 0.99461 0.0
C2162 C 0.45691 0.66963 0.02284 0.0
C2163 C 0.47899 0.69151 0.02493 0.0
C2164 C 0.49704 0.69403 0.05208 0.0
C2165 C 0.49303 0.67493 0.07746 0.0
C2166 C 0.47105 0.65322 0.07563 0.0
C2167 C 0.45316 0.65041 0.04834 0.0
H2168 H 0.50685 0.677 0.09862 0.0
H2169 H 0.32669 0.66355 0.84105 0.0
H2170 H 0.35649 0.32184 0.76067 0.0
H2171 H 0.38847 0.35373 0.79116 0.0
H2172 H 0.32722 0.35312 0.84411 0.0
H2173 H 0.29502 0.32189 0.81299 0.0
H2174 H 0.36188 0.40054 0.83332 0.0
H2175 H 0.3643 0.3165 0.87224 0.0
H2176 H 0.36758 0.27482 0.86739 0.0
H2177 H 0.44526 0.31042 0.83886 0.0
H2178 H 0.4423 0.35242 0.84318 0.0
H2179 H 0.43994 0.43962 0.97703 0.0
H2180 H 0.40723 0.41522 0.93808 0.0
H2181 H 0.46967 0.42126 0.88369 0.0
H2182 H 0.50204 0.446 0.92205 0.0
H2183 H 0.43501 0.37205 0.89391 0.0
H2184 H 0.43235 0.45672 0.85852 0.0
H2185 H 0.42758 0.49755 0.86461 0.0
H2186 H 0.34885 0.4595 0.88882 0.0
H2187 H 0.3533 0.41837 0.88334 0.0
C2188 C 0.34965 0.3291 0.77799 0.0
C2189 C 0.3233 0.31931 0.78448 0.0
C2190 C 0.36799 0.34713 0.79565 0.0
C2191 C 0.36021 0.35543 0.82016 0.0
C2192 C 0.3336 0.34688 0.82534 0.0
C2193 C 0.3153 0.32891 0.8077 0.0
C2194 C 0.38007 0.3711 0.84233 0.0
C2195 C 0.37778 0.39429 0.84674 0.0
C2196 C 0.40082 0.36286 0.85964 0.0
C2197 C 0.40296 0.33763 0.85771 0.0
C2198 C 0.38202 0.31546 0.86476 0.0
C2199 C 0.38382 0.29178 0.86212 0.0
C2200 C 0.40656 0.28998 0.85269 0.0
C2201 C 0.42763 0.31186 0.84608 0.0
C2202 C 0.42591 0.33562 0.84866 0.0
C2203 C 0.44646 0.43573 0.95663 0.0
C2204 C 0.47331 0.44409 0.95255 0.0
C2205 C 0.42792 0.42189 0.9345 0.0
C2206 C 0.43616 0.41646 0.90813 0.0
C2207 C 0.46303 0.42509 0.90405 0.0
C2208 C 0.48146 0.439 0.92599 0.0
C2209 C 0.41689 0.40157 0.88482 0.0
C2210 C 0.41923 0.37842 0.88033 0.0
C2211 C 0.39605 0.40972 0.86773 0.0
C2212 C 0.39326 0.43445 0.87082 0.0
C2213 C 0.4141 0.45704 0.8654 0.0
C2214 C 0.41144 0.48024 0.8687 0.0
C2215 C 0.38795 0.48111 0.87718 0.0
C2216 C 0.36704 0.45879 0.88229 0.0
C2217 C 0.36962 0.43553 0.87907 0.0
H2218 H 0.38593 0.49909 0.87972 0.0
H2219 H 0.40787 0.27163 0.85059 0.0
H2220 H 0.70757 0.37662 0.80215 0.0
H2221 H 0.68674 0.3905 0.83859 0.0
H2222 H 0.62266 0.32014 0.83819 0.0
H2223 H 0.64343 0.30629 0.80122 0.0
H2224 H 0.60356 0.35797 0.82698 0.0
H2225 H 0.66565 0.33551 0.9043 0.0
H2226 H 0.70795 0.33231 0.93244 0.0
H2227 H 0.73579 0.41234 0.93756 0.0
H2228 H 0.69393 0.41619 0.90868 0.0
H2229 H 0.54488 0.39358 0.94073 0.0
H2230 H 0.56697 0.37171 0.916 0.0
H2231 H 0.62893 0.44188 0.89649 0.0
H2232 H 0.60682 0.46409 0.92132 0.0
H2233 H 0.64718 0.39989 0.92215 0.0
H2234 H 0.58293 0.41978 0.83863 0.0
H2235 H 0.53778 0.41911 0.81647 0.0
H2236 H 0.5114 0.33787 0.83051 0.0
H2237 H 0.55635 0.33807 0.85311 0.0
C2238 C 0.68923 0.36393 0.81019 0.0
C2239 C 0.67705 0.34042 0.79857 0.0
C2240 C 0.6774 0.37182 0.83127 0.0
C2241 C 0.65307 0.35642 0.84132 0.0
C2242 C 0.64142 0.33242 0.83083 0.0
C2243 C 0.65338 0.32442 0.80985 0.0
C2244 C 0.63875 0.36653 0.86004 0.0
C2245 C 0.61304 0.36669 0.84813 0.0
C2246 C 0.65098 0.37817 0.88761 0.0
C2247 C 0.67671 0.37619 0.90382 0.0
C2248 C 0.68095 0.35253 0.91087 0.0
C2249 C 0.70485 0.35059 0.92704 0.0
C2250 C 0.72461 0.37213 0.93661 0.0
C2251 C 0.72052 0.39568 0.93 0.0
C2252 C 0.69671 0.39775 0.91367 0.0
C2253 C 0.56306 0.40451 0.93091 0.0
C2254 C 0.57396 0.4307 0.93281 0.0
C2255 C 0.57572 0.3919 0.91687 0.0
C2256 C 0.59951 0.40515 0.90419 0.0
C2257 C 0.61055 0.43128 0.90609 0.0
C2258 C 0.59782 0.44397 0.92009 0.0
C2259 C 0.61258 0.39177 0.88852 0.0
C2260 C 0.6379 0.391 0.90108 0.0
C2261 C 0.59981 0.37905 0.86201 0.0
C2262 C 0.57294 0.37895 0.8478 0.0
C2263 C 0.56746 0.40178 0.83714 0.0
C2264 C 0.54192 0.40149 0.82448 0.0
C2265 C 0.52172 0.37847 0.82216 0.0
C2266 C 0.52706 0.35569 0.83235 0.0
C2267 C 0.55257 0.35588 0.84505 0.0
H2268 H 0.50194 0.37828 0.81241 0.0
H2269 H 0.74303 0.37055 0.94932 0.0
H2270 H 0.68656 0.32394 0.10327 0.0
H2271 H 0.65675 0.33327 0.05916 0.0
H2272 H 0.71166 0.33728 0.99542 0.0
H2273 H 0.74078 0.3248 0.0393 0.0
H2274 H 0.70458 0.38521 0.0106 0.0
H2275 H 0.65924 0.31291 0.96445 0.0
H2276 H 0.63552 0.26807 0.95867 0.0
H2277 H 0.57136 0.27159 0.00249 0.0
H2278 H 0.59478 0.31636 0.00897 0.0
H2279 H 0.62642 0.46477 0.98947 0.0
H2280 H 0.64852 0.43904 0.97184 0.0
H2281 H 0.59682 0.37197 0.01998 0.0
H2282 H 0.57243 0.39749 0.03341 0.0
H2283 H 0.60843 0.35693 0.97685 0.0
H2284 H 0.6686 0.41612 0.05132 0.0
H2285 H 0.69427 0.45877 0.06566 0.0
H2286 H 0.73121 0.47632 0.98055 0.0
H2287 H 0.70559 0.43381 0.96571 0.0
C2288 C 0.69201 0.32514 0.08004 0.0
C2289 C 0.71704 0.32469 0.07545 0.0
C2290 C 0.67464 0.3305 0.05455 0.0
C2291 C 0.68217 0.33634 0.02406 0.0
C2292 C 0.70553 0.33294 0.01878 0.0
C2293 C 0.72249 0.32644 0.04421 0.0
C2294 C 0.67021 0.35329 0.00173 0.0
C2295 C 0.68367 0.37915 0.00216 0.0
C2296 C 0.64315 0.34527 0.99051 0.0
C2297 C 0.62882 0.31819 0.98704 0.0
C2298 C 0.64013 0.30415 0.97299 0.0
C2299 C 0.62671 0.27871 0.96957 0.0
C2300 C 0.60193 0.267 0.98016 0.0
C2301 C 0.59052 0.28072 0.9942 0.0
C2302 C 0.60385 0.30618 0.99765 0.0
C2303 C 0.61985 0.44447 0.99612 0.0
C2304 C 0.59821 0.43302 0.01338 0.0
C2305 C 0.63259 0.42975 0.98621 0.0
C2306 C 0.62529 0.40352 0.99559 0.0
C2307 C 0.60308 0.39211 0.01225 0.0
C2308 C 0.58934 0.40668 0.02046 0.0
C2309 C 0.64194 0.38814 0.99135 0.0
C2310 C 0.62942 0.36306 0.98457 0.0
C2311 C 0.66984 0.39654 0.99848 0.0
C2312 C 0.68497 0.42206 0.00722 0.0
C2313 C 0.68213 0.42917 0.03565 0.0
C2314 C 0.69665 0.45328 0.04385 0.0
C2315 C 0.71427 0.47028 0.02396 0.0
C2316 C 0.71748 0.46317 0.99587 0.0
C2317 C 0.70297 0.43909 0.98755 0.0
H2318 H 0.72551 0.48894 0.03035 0.0
H2319 H 0.59157 0.24729 0.9775 0.0
H2320 H 0.68272 0.6905 0.22907 0.0
H2321 H 0.65798 0.65524 0.19888 0.0
H2322 H 0.73032 0.65666 0.1675 0.0
H2323 H 0.7548 0.69228 0.19703 0.0
H2324 H 0.69602 0.65762 0.11967 0.0
H2325 H 0.6952 0.60628 0.21825 0.0
H2326 H 0.68903 0.59376 0.2744 0.0
H2327 H 0.60648 0.58539 0.25279 0.0
H2328 H 0.61221 0.59824 0.19655 0.0
H2329 H 0.59121 0.52824 0.07659 0.0
H2330 H 0.62897 0.55236 0.11024 0.0
H2331 H 0.61344 0.62154 0.06835 0.0
H2332 H 0.57597 0.59773 0.03463 0.0
H2333 H 0.62611 0.57923 0.15434 0.0
H2334 H 0.669 0.67025 0.06878 0.0
H2335 H 0.67822 0.68193 0.01347 0.0
H2336 H 0.68179 0.6076 0.01034 0.0
H2337 H 0.67287 0.59553 0.06571 0.0
C2338 C 0.69333 0.6827 0.21654 0.0
C2339 C 0.72055 0.69383 0.2154 0.0
C2340 C 0.67924 0.66261 0.19923 0.0
C2341 C 0.69233 0.65319 0.18102 0.0
C2342 C 0.71979 0.66363 0.18125 0.0
C2343 C 0.73375 0.68389 0.19815 0.0
C2344 C 0.67714 0.63431 0.15933 0.0
C2345 C 0.68091 0.64035 0.12733 0.0
C2346 C 0.65784 0.61151 0.1694 0.0
C2347 C 0.65418 0.60335 0.20316 0.0
C2348 C 0.67575 0.6019 0.22548 0.0
C2349 C 0.67233 0.59473 0.25733 0.0
C2350 C 0.64739 0.58882 0.26716 0.0
C2351 C 0.62579 0.58997 0.24514 0.0
C2352 C 0.62911 0.59716 0.21326 0.0
C2353 C 0.59619 0.54865 0.07412 0.0
C2354 C 0.58048 0.56109 0.05321 0.0
C2355 C 0.61768 0.56236 0.09344 0.0
C2356 C 0.62398 0.5887 0.09177 0.0
C2357 C 0.60909 0.60125 0.06981 0.0
C2358 C 0.58757 0.58758 0.05068 0.0
C2359 C 0.64451 0.60303 0.11468 0.0
C2360 C 0.64163 0.59623 0.14686 0.0
C2361 C 0.665 0.62489 0.10488 0.0
C2362 C 0.67017 0.63196 0.07142 0.0
C2363 C 0.67189 0.65643 0.05636 0.0
C2364 C 0.67708 0.66312 0.02499 0.0
C2365 C 0.68071 0.64555 0.00845 0.0
C2366 C 0.67904 0.62121 0.02321 0.0
C2367 C 0.67382 0.6144 0.05455 0.0
H2368 H 0.68465 0.65075 0.98415 0.0
H2369 H 0.64479 0.5833 0.29184 0.0
H2370 H 0.37638 0.68793 0.18473 0.0
H2371 H 0.39632 0.66914 0.15215 0.0
H2372 H 0.35691 0.59477 0.19703 0.0
H2373 H 0.33746 0.61344 0.22971 0.0
H2374 H 0.40661 0.60013 0.19847 0.0
H2375 H 0.33984 0.61832 0.11798 0.0
H2376 H 0.31652 0.64491 0.08254 0.0
H2377 H 0.38836 0.68834 0.043 0.0
H2378 H 0.41218 0.66229 0.07851 0.0
H2379 H 0.42752 0.5474 0.05201 0.0
H2380 H 0.40192 0.56468 0.07882 0.0
H2381 H 0.47284 0.60164 0.13637 0.0
H2382 H 0.49853 0.58513 0.10899 0.0
H2383 H 0.40513 0.61306 0.08251 0.0
H2384 H 0.45776 0.60345 0.20871 0.0
H2385 H 0.48067 0.57565 0.24236 0.0
H2386 H 0.43623 0.51429 0.18909 0.0
H2387 H 0.41282 0.54161 0.15541 0.0
C2388 C 0.37158 0.66754 0.18711 0.0
C2389 C 0.35549 0.65219 0.20996 0.0
C2390 C 0.383 0.65679 0.16849 0.0
C2391 C 0.37825 0.63044 0.1721 0.0
C2392 C 0.36116 0.61511 0.1939 0.0
C2393 C 0.34998 0.62582 0.21257 0.0
C2394 C 0.39233 0.61872 0.15513 0.0
C2395 C 0.40636 0.60317 0.17308 0.0
C2396 C 0.39214 0.62247 0.12196 0.0
C2397 C 0.37785 0.6385 0.10119 0.0
C2398 C 0.35073 0.63372 0.10199 0.0
C2399 C 0.3374 0.64867 0.08182 0.0
C2400 C 0.35095 0.66834 0.06057 0.0
C2401 C 0.37787 0.67312 0.05947 0.0
C2402 C 0.39129 0.65827 0.07962 0.0
C2403 C 0.43759 0.55911 0.0705 0.0
C2404 C 0.46503 0.56485 0.07847 0.0
C2405 C 0.42297 0.56909 0.0857 0.0
C2406 C 0.43536 0.5844 0.10977 0.0
C2407 C 0.46271 0.58971 0.11811 0.0
C2408 C 0.47743 0.58034 0.10235 0.0
C2409 C 0.41991 0.59519 0.1259 0.0
C2410 C 0.40566 0.61044 0.10788 0.0
C2411 C 0.42004 0.59138 0.15898 0.0
C2412 C 0.43372 0.57466 0.17938 0.0
C2413 C 0.4528 0.58399 0.20427 0.0
C2414 C 0.46589 0.56833 0.22333 0.0
C2415 C 0.45996 0.54324 0.2178 0.0
C2416 C 0.44087 0.53375 0.19327 0.0
C2417 C 0.42771 0.54933 0.17417 0.0
H2418 H 0.47013 0.53115 0.23257 0.0
H2419 H 0.34059 0.67983 0.04491 0.0
H2420 H 0.36209 0.29805 0.25081 0.0
H2421 H 0.40086 0.32721 0.22705 0.0
H2422 H 0.34969 0.35474 0.1533 0.0
H2423 H 0.31121 0.32416 0.17566 0.0
H2424 H 0.38443 0.34982 0.12735 0.0
H2425 H 0.39147 0.39113 0.22008 0.0
H2426 H 0.39518 0.39442 0.27678 0.0
H2427 H 0.46317 0.36909 0.29337 0.0
H2428 H 0.46027 0.36629 0.23664 0.0
H2429 H 0.47055 0.46388 0.06676 0.0
H2430 H 0.43822 0.43463 0.09971 0.0
H2431 H 0.49616 0.39955 0.14603 0.0
H2432 H 0.52899 0.42896 0.11303 0.0
H2433 H 0.46183 0.40592 0.18691 0.0
H2434 H 0.45656 0.3722 0.08992 0.0
H2435 H 0.45375 0.37543 0.03214 0.0
H2436 H 0.37982 0.39005 0.02299 0.0
H2437 H 0.3824 0.38733 0.08071 0.0
C2438 C 0.35931 0.31038 0.22949 0.0
C2439 C 0.33384 0.30876 0.21474 0.0
C2440 C 0.38144 0.32727 0.21609 0.0
C2441 C 0.3784 0.34358 0.18848 0.0
C2442 C 0.35274 0.34229 0.17438 0.0
C2443 C 0.33072 0.32483 0.18714 0.0
C2444 C 0.40163 0.36122 0.17321 0.0
C2445 C 0.40111 0.36225 0.1405 0.0
C2446 C 0.42401 0.37701 0.19018 0.0
C2447 C 0.42548 0.37824 0.22426 0.0
C2448 C 0.4071 0.38613 0.23588 0.0
C2449 C 0.40911 0.38798 0.26798 0.0
C2450 C 0.4292 0.3817 0.2887 0.0
C2451 C 0.44755 0.37385 0.27732 0.0
C2452 C 0.44585 0.3723 0.24518 0.0
C2453 C 0.47664 0.45018 0.08416 0.0
C2454 C 0.50229 0.44852 0.08692 0.0
C2455 C 0.45809 0.43349 0.103 0.0
C2456 C 0.46473 0.41472 0.12486 0.0
C2457 C 0.4907 0.4139 0.12914 0.0
C2458 C 0.50939 0.43067 0.11024 0.0
C2459 C 0.44386 0.39494 0.14134 0.0
C2460 C 0.44503 0.39335 0.17407 0.0
C2461 C 0.4218 0.37897 0.12435 0.0
C2462 C 0.41976 0.37969 0.08966 0.0
C2463 C 0.43975 0.3762 0.07559 0.0
C2464 C 0.43821 0.37795 0.04285 0.0
C2465 C 0.41664 0.38297 0.02391 0.0
C2466 C 0.39651 0.38616 0.03769 0.0
C2467 C 0.39799 0.38448 0.07042 0.0
H2468 H 0.41549 0.38435 0.99857 0.0
H2469 H 0.43064 0.38305 0.31356 0.0
H2470 H 0.83154 0.66549 0.65809 0.0
H2471 H 0.86006 0.64545 0.64103 0.0
H2472 H 0.8278 0.65872 0.54472 0.0
H2473 H 0.80036 0.67976 0.56111 0.0
H2474 H 0.82864 0.60825 0.56257 0.0
H2475 H 0.88702 0.6937 0.56596 0.0
H2476 H 0.91091 0.73252 0.59079 0.0
H2477 H 0.95067 0.69087 0.66157 0.0
H2478 H 0.92672 0.65171 0.63739 0.0
H2479 H 0.91618 0.56802 0.49156 0.0
H2480 H 0.88867 0.59072 0.50499 0.0
H2481 H 0.93588 0.60076 0.59502 0.0
H2482 H 0.96468 0.58056 0.58027 0.0
H2483 H 0.92638 0.6404 0.57874 0.0
H2484 H 0.86696 0.55427 0.57863 0.0
H2485 H 0.84283 0.5148 0.55511 0.0
H2486 H 0.80485 0.55574 0.48123 0.0
H2487 H 0.82884 0.59546 0.50419 0.0
C2488 C 0.83078 0.66458 0.63322 0.0
C2489 C 0.81315 0.67408 0.61118 0.0
C2490 C 0.84701 0.6529 0.6235 0.0
C2491 C 0.84592 0.65027 0.59154 0.0
C2492 C 0.82878 0.66012 0.56951 0.0
C2493 C 0.81292 0.67209 0.57909 0.0
C2494 C 0.8625 0.63727 0.58088 0.0
C2495 C 0.85003 0.61534 0.56593 0.0
C2496 C 0.8904 0.6462 0.58556 0.0
C2497 C 0.90486 0.66973 0.60006 0.0
C2498 C 0.90068 0.69278 0.58698 0.0
C2499 C 0.91427 0.71485 0.60091 0.0
C2500 C 0.93224 0.71415 0.6278 0.0
C2501 C 0.93671 0.69138 0.64077 0.0
C2502 C 0.92315 0.66924 0.62695 0.0
C2503 C 0.92077 0.57529 0.51405 0.0
C2504 C 0.94293 0.57275 0.53455 0.0
C2505 C 0.90475 0.58802 0.52203 0.0
C2506 C 0.90964 0.59733 0.55146 0.0
C2507 C 0.9315 0.59417 0.57209 0.0
C2508 C 0.94801 0.5824 0.56363 0.0
C2509 C 0.89265 0.6107 0.56101 0.0
C2510 C 0.905 0.63294 0.57559 0.0
C2511 C 0.86461 0.60178 0.55642 0.0
C2512 C 0.84982 0.57784 0.54299 0.0
C2513 C 0.8535 0.55484 0.55734 0.0
C2514 C 0.83985 0.53244 0.54412 0.0
C2515 C 0.82237 0.53278 0.51669 0.0
C2516 C 0.8184 0.5555 0.50248 0.0
C2517 C 0.83196 0.57795 0.51561 0.0
H2518 H 0.81188 0.51542 0.50647 0.0
H2519 H 0.94275 0.73126 0.63854 0.0
H2520 H 0.31753 0.76997 0.656 0.0
H2521 H 0.35478 0.80112 0.63129 0.0
H2522 H 0.37284 0.84401 0.7101 0.0
H2523 H 0.33569 0.81268 0.73485 0.0
H2524 H 0.35759 0.84729 0.61052 0.0
H2525 H 0.43409 0.88091 0.71684 0.0
H2526 H 0.45438 0.86315 0.76642 0.0
H2527 H 0.43789 0.79326 0.72842 0.0
H2528 H 0.41705 0.81044 0.67888 0.0
H2529 H 0.43569 0.97508 0.58178 0.0
H2530 H 0.41058 0.93517 0.60948 0.0
H2531 H 0.46577 0.89989 0.59286 0.0
H2532 H 0.49092 0.93986 0.56419 0.0
H2533 H 0.44868 0.8886 0.65792 0.0
H2534 H 0.41568 0.88632 0.5494 0.0
H2535 H 0.39882 0.90284 0.49706 0.0
H2536 H 0.33133 0.90572 0.53463 0.0
H2537 H 0.34826 0.89 0.58754 0.0
C2538 C 0.33009 0.78559 0.6685 0.0
C2539 C 0.32413 0.78861 0.69762 0.0
C2540 C 0.35126 0.8035 0.65429 0.0
C2541 C 0.36685 0.82499 0.66877 0.0
C2542 C 0.36158 0.82742 0.69863 0.0
C2543 C 0.34036 0.80946 0.71286 0.0
C2544 C 0.38623 0.84622 0.65107 0.0
C2545 C 0.37748 0.85621 0.62101 0.0
C2546 C 0.41251 0.85772 0.66412 0.0
C2547 C 0.42388 0.84691 0.6943 0.0
C2548 C 0.43469 0.86171 0.71916 0.0
C2549 C 0.4462 0.85172 0.74727 0.0
C2550 C 0.44733 0.82706 0.75061 0.0
C2551 C 0.43688 0.81232 0.72587 0.0
C2552 C 0.42499 0.82208 0.69788 0.0
C2553 C 0.44278 0.95899 0.58423 0.0
C2554 C 0.46542 0.96078 0.57069 0.0
C2555 C 0.4283 0.93613 0.60005 0.0
C2556 C 0.43625 0.91455 0.60319 0.0
C2557 C 0.45933 0.91636 0.59077 0.0
C2558 C 0.47364 0.93919 0.57433 0.0
C2559 C 0.41953 0.88998 0.61818 0.0
C2560 C 0.42875 0.87953 0.64762 0.0
C2561 C 0.39376 0.8778 0.60437 0.0
C2562 C 0.38342 0.88723 0.57256 0.0
C2563 C 0.39742 0.89077 0.54662 0.0
C2564 C 0.38782 0.89995 0.5168 0.0
C2565 C 0.36402 0.90534 0.51247 0.0
C2566 C 0.34978 0.90157 0.53801 0.0
C2567 C 0.3594 0.89256 0.56795 0.0
H2568 H 0.3566 0.91239 0.48932 0.0
H2569 H 0.45637 0.81939 0.77232 0.0
H2570 H 0.25725 0.32347 0.70029 0.0
H2571 H 0.23417 0.35304 0.67079 0.0
H2572 H 0.16031 0.29264 0.67081 0.0
H2573 H 0.18313 0.26322 0.69847 0.0
H2574 H 0.19822 0.35296 0.6096 0.0
H2575 H 0.11283 0.31827 0.68796 0.0
H2576 H 0.10556 0.30024 0.74286 0.0
H2577 H 0.18762 0.33507 0.77293 0.0
H2578 H 0.19529 0.35372 0.71839 0.0
H2579 H 0.06664 0.39307 0.58 0.0
H2580 H 0.09234 0.3653 0.60745 0.0
H2581 H 0.1645 0.42499 0.58975 0.0
H2582 H 0.13913 0.45266 0.5631 0.0
H2583 H 0.12869 0.3658 0.66049 0.0
H2584 H 0.21369 0.40037 0.58065 0.0
H2585 H 0.22017 0.41597 0.52495 0.0
H2586 H 0.13795 0.37925 0.49763 0.0
H2587 H 0.13115 0.36313 0.55269 0.0
C2588 C 0.23623 0.31627 0.69331 0.0
C2589 C 0.22248 0.29037 0.70168 0.0
C2590 C 0.22281 0.3334 0.67647 0.0
C2591 C 0.19497 0.3256 0.66823 0.0
C2592 C 0.18151 0.29977 0.67655 0.0
C2593 C 0.19485 0.28273 0.69256 0.0
C2594 C 0.17955 0.3439 0.65202 0.0
C2595 C 0.18346 0.35609 0.62118 0.0
C2596 C 0.15927 0.34785 0.66594 0.0
C2597 C 0.15468 0.33711 0.69894 0.0
C2598 C 0.1293 0.32216 0.70629 0.0
C2599 C 0.12512 0.31182 0.73736 0.0
C2600 C 0.14616 0.31635 0.76132 0.0
C2601 C 0.17138 0.33143 0.75431 0.0
C2602 C 0.17565 0.34187 0.72332 0.0
C2603 C 0.08798 0.40037 0.58179 0.0
C2604 C 0.10036 0.42559 0.56886 0.0
C2605 C 0.1029 0.38433 0.59786 0.0
C2606 C 0.13094 0.39243 0.60114 0.0
C2607 C 0.14317 0.41753 0.58788 0.0
C2608 C 0.12837 0.43362 0.57245 0.0
C2609 C 0.14743 0.37509 0.61799 0.0
C2610 C 0.14362 0.36293 0.64895 0.0
C2611 C 0.16777 0.37111 0.60416 0.0
C2612 C 0.17185 0.38085 0.57089 0.0
C2613 C 0.19703 0.39562 0.56268 0.0
C2614 C 0.20077 0.40453 0.53116 0.0
C2615 C 0.1795 0.39868 0.50765 0.0
C2616 C 0.15447 0.38388 0.51565 0.0
C2617 C 0.15064 0.37488 0.54704 0.0
H2618 H 0.18246 0.40558 0.4833 0.0
H2619 H 0.14288 0.30832 0.78534 0.0
H2620 H 0.7491 0.20358 0.66648 0.0
H2621 H 0.71951 0.17369 0.6318 0.0
H2622 H 0.65233 0.18487 0.66158 0.0
H2623 H 0.68206 0.21503 0.69662 0.0
H2624 H 0.64827 0.13489 0.6664 0.0
H2625 H 0.66825 0.20636 0.58853 0.0
H2626 H 0.69568 0.24345 0.55714 0.0
H2627 H 0.73004 0.19602 0.52269 0.0
H2628 H 0.70322 0.15868 0.55437 0.0
H2629 H 0.55453 0.06024 0.55926 0.0
H2630 H 0.58235 0.09686 0.58474 0.0
H2631 H 0.65187 0.08434 0.56377 0.0
H2632 H 0.62404 0.04726 0.53798 0.0
H2633 H 0.65298 0.13638 0.55282 0.0
H2634 H 0.6363 0.06589 0.63429 0.0
H2635 H 0.60859 0.02854 0.66509 0.0
H2636 H 0.56816 0.07432 0.69195 0.0
H2637 H 0.59539 0.1119 0.66089 0.0
C2638 C 0.72803 0.19998 0.66538 0.0
C2639 C 0.71788 0.2116 0.68439 0.0
C2640 C 0.71114 0.18298 0.64536 0.0
C2641 C 0.68371 0.17712 0.64394 0.0
C2642 C 0.67347 0.1892 0.66224 0.0
C2643 C 0.69044 0.2065 0.68211 0.0
C2644 C 0.66594 0.15682 0.62538 0.0
C2645 C 0.64899 0.13545 0.64143 0.0
C2646 C 0.66745 0.1572 0.59297 0.0
C2647 C 0.68394 0.17972 0.57422 0.0
C2648 C 0.6819 0.20386 0.57461 0.0
C2649 C 0.6973 0.22493 0.55668 0.0
C2650 C 0.71466 0.22211 0.53802 0.0
C2651 C 0.71664 0.19819 0.53722 0.0
C2652 C 0.70134 0.17706 0.55518 0.0
C2653 C 0.57573 0.0652 0.55981 0.0
C2654 C 0.58702 0.05052 0.54678 0.0
C2655 C 0.5916 0.0862 0.57448 0.0
C2656 C 0.61914 0.09315 0.57643 0.0
C2657 C 0.63061 0.0792 0.56256 0.0
C2658 C 0.61469 0.05796 0.54798 0.0
C2659 C 0.63575 0.11448 0.59398 0.0
C2660 C 0.65237 0.13595 0.57776 0.0
C2661 C 0.63408 0.11421 0.62626 0.0
C2662 C 0.61769 0.09165 0.64498 0.0
C2663 C 0.62134 0.06795 0.64652 0.0
C2664 C 0.60575 0.04675 0.66407 0.0
C2665 C 0.58657 0.04904 0.68039 0.0
C2666 C 0.583 0.07256 0.67925 0.0
C2667 C 0.59851 0.09382 0.66169 0.0
H2668 H 0.57453 0.0326 0.69398 0.0
H2669 H 0.72653 0.23845 0.52411 0.0
H2670 H 0.77172 0.32155 0.32756 0.0
H2671 H 0.79858 0.35292 0.36219 0.0
H2672 H 0.8558 0.31302 0.38451 0.0
H2673 H 0.82909 0.28199 0.34948 0.0
H2674 H 0.85049 0.33618 0.43545 0.0
H2675 H 0.86593 0.35783 0.32637 0.0
H2676 H 0.85096 0.36301 0.26962 0.0
H2677 H 0.81833 0.41964 0.28318 0.0
H2678 H 0.83273 0.41446 0.34017 0.0
H2679 H 0.96772 0.44089 0.46652 0.0
H2680 H 0.93457 0.40342 0.44659 0.0
H2681 H 0.87833 0.44437 0.42215 0.0
H2682 H 0.91109 0.48173 0.44215 0.0
H2683 H 0.88259 0.42041 0.3732 0.0
H2684 H 0.86961 0.40054 0.4822 0.0
H2685 H 0.88177 0.39314 0.53941 0.0
H2686 H 0.9092 0.33279 0.52645 0.0
H2687 H 0.89749 0.34002 0.46907 0.0
C2688 C 0.79035 0.31997 0.33901 0.0
C2689 C 0.79976 0.30116 0.33273 0.0
C2690 C 0.80535 0.33744 0.35953 0.0
C2691 C 0.82979 0.33592 0.37478 0.0
C2692 C 0.83735 0.31496 0.37224 0.0
C2693 C 0.82225 0.29749 0.35165 0.0
C2694 C 0.84875 0.3577 0.38977 0.0
C2695 C 0.85775 0.35455 0.42188 0.0
C2696 C 0.85793 0.38169 0.372 0.0
C2697 C 0.85024 0.38563 0.33756 0.0
C2698 C 0.85549 0.37133 0.31726 0.0
C2699 C 0.84708 0.37424 0.28506 0.0
C2700 C 0.83365 0.39161 0.27281 0.0
C2701 C 0.82874 0.40619 0.29272 0.0
C2702 C 0.83702 0.40329 0.32497 0.0
C2703 C 0.94826 0.44189 0.457 0.0
C2704 C 0.94213 0.46437 0.45578 0.0
C2705 C 0.92931 0.42042 0.44581 0.0
C2706 C 0.90398 0.42112 0.43297 0.0
C2707 C 0.89775 0.44344 0.43198 0.0
C2708 C 0.91652 0.46476 0.4435 0.0
C2709 C 0.88435 0.39905 0.41911 0.0
C2710 C 0.87533 0.40211 0.38696 0.0
C2711 C 0.8753 0.37503 0.43688 0.0
C2712 C 0.88293 0.371 0.47129 0.0
C2713 C 0.87851 0.38588 0.49149 0.0
C2714 C 0.88521 0.38165 0.52396 0.0
C2715 C 0.89625 0.36252 0.53651 0.0
C2716 C 0.90064 0.3476 0.51666 0.0
C2717 C 0.89395 0.35174 0.48417 0.0
H2718 H 0.90142 0.35929 0.56163 0.0
H2719 H 0.82708 0.39378 0.24789 0.0
H2720 H 0.70404 0.80875 0.43371 0.0
H2721 H 0.68677 0.83884 0.44999 0.0
H2722 H 0.6628 0.86143 0.35296 0.0
H2723 H 0.67912 0.83039 0.33651 0.0
H2724 H 0.69475 0.8874 0.44305 0.0
H2725 H 0.60599 0.8755 0.34722 0.0
H2726 H 0.57787 0.84404 0.31245 0.0
H2727 H 0.5935 0.78408 0.37924 0.0
H2728 H 0.62144 0.81516 0.41454 0.0
H2729 H 0.62513 0.97392 0.45789 0.0
H2730 H 0.6505 0.9505 0.44085 0.0
H2731 H 0.58815 0.88057 0.46089 0.0
H2732 H 0.56241 0.90409 0.47606 0.0
H2733 H 0.60092 0.8799 0.40794 0.0
H2734 H 0.65072 0.90456 0.50515 0.0
H2735 H 0.6783 0.9323 0.54408 0.0
H2736 H 0.73886 0.96318 0.48227 0.0
H2737 H 0.71154 0.93559 0.44283 0.0
C2738 C 0.69503 0.82002 0.4157 0.0
C2739 C 0.69253 0.81658 0.38373 0.0
C2740 C 0.68537 0.83752 0.42511 0.0
C2741 C 0.67293 0.85225 0.40291 0.0
C2742 C 0.6718 0.85 0.37076 0.0
C2743 C 0.6814 0.83236 0.36129 0.0
C2744 C 0.65992 0.86867 0.41374 0.0
C2745 C 0.67428 0.88595 0.43519 0.0
C2746 C 0.63304 0.86655 0.40413 0.0
C2747 C 0.61602 0.84768 0.3833 0.0
C2748 C 0.60334 0.85559 0.3545 0.0
C2749 C 0.58746 0.83783 0.3347 0.0
C2750 C 0.58398 0.81208 0.34358 0.0
C2751 C 0.59629 0.80403 0.37234 0.0
C2752 C 0.61217 0.82171 0.39223 0.0
C2753 C 0.61716 0.9535 0.4592 0.0
C2754 C 0.59183 0.94082 0.46843 0.0
C2755 C 0.63163 0.94007 0.44934 0.0
C2756 C 0.62139 0.91357 0.44942 0.0
C2757 C 0.59654 0.90094 0.4601 0.0
C2758 C 0.58189 0.91438 0.46912 0.0
C2759 C 0.63569 0.89885 0.43739 0.0
C2760 C 0.62151 0.88177 0.41566 0.0
C2761 C 0.66262 0.90095 0.44728 0.0
C2762 C 0.67896 0.91786 0.47093 0.0
C2763 C 0.6699 0.91716 0.49981 0.0
C2764 C 0.68549 0.93294 0.52198 0.0
C2765 C 0.71033 0.94951 0.51567 0.0
C2766 C 0.71961 0.95032 0.48715 0.0
C2767 C 0.70407 0.93457 0.46488 0.0
H2768 H 0.72239 0.96172 0.53286 0.0
H2769 H 0.5717 0.79837 0.32821 0.0
H2770 H 0.23432 0.72672 0.33683 0.0
H2771 H 0.20362 0.69406 0.36886 0.0
H2772 H 0.17307 0.65169 0.28904 0.0
H2773 H 0.20074 0.68651 0.25629 0.0
H2774 H 0.13504 0.64945 0.30901 0.0
H2775 H 0.21217 0.62953 0.37997 0.0
H2776 H 0.25305 0.63958 0.41712 0.0
H2777 H 0.22109 0.68036 0.46653 0.0
H2778 H 0.17968 0.66965 0.43053 0.0
H2779 H 0.06954 0.52889 0.38772 0.0
H2780 H 0.10001 0.56605 0.36076 0.0
H2781 H 0.09904 0.61088 0.43156 0.0
H2782 H 0.06832 0.57383 0.45858 0.0
H2783 H 0.14988 0.61541 0.42072 0.0
H2784 H 0.07006 0.62212 0.3612 0.0
H2785 H 0.02687 0.60744 0.3296 0.0
H2786 H 0.06375 0.59088 0.25896 0.0
H2787 H 0.10714 0.6051 0.29036 0.0
C2788 C 0.22157 0.70996 0.32659 0.0
C2789 C 0.22061 0.70861 0.29441 0.0
C2790 C 0.20398 0.69098 0.34507 0.0
C2791 C 0.18578 0.66965 0.33202 0.0
C2792 C 0.1863 0.66784 0.3001 0.0
C2793 C 0.20256 0.68753 0.28132 0.0
C2794 C 0.16425 0.65067 0.34972 0.0
C2795 C 0.13886 0.64166 0.3332 0.0
C2796 C 0.1678 0.64143 0.38214 0.0
C2797 C 0.19324 0.64934 0.40216 0.0
C2798 C 0.21411 0.64097 0.39847 0.0
C2799 C 0.23726 0.64665 0.4194 0.0
C2800 C 0.23988 0.66103 0.44372 0.0
C2801 C 0.21916 0.66944 0.4475 0.0
C2802 C 0.19579 0.66341 0.42701 0.0
C2803 C 0.07541 0.54675 0.39727 0.0
C2804 C 0.06636 0.54837 0.42524 0.0
C2805 C 0.09284 0.56799 0.38182 0.0
C2806 C 0.10181 0.59126 0.39413 0.0
C2807 C 0.09237 0.59312 0.42164 0.0
C2808 C 0.07462 0.57196 0.43689 0.0
C2809 C 0.12206 0.61317 0.37905 0.0
C2810 C 0.1467 0.62301 0.39627 0.0
C2811 C 0.11793 0.62304 0.34726 0.0
C2812 C 0.09184 0.61448 0.32829 0.0
C2813 C 0.06894 0.61514 0.33906 0.0
C2814 C 0.04442 0.60694 0.32116 0.0
C2815 C 0.04256 0.59818 0.29233 0.0
C2816 C 0.06522 0.59765 0.28131 0.0
C2817 C 0.08979 0.6058 0.29914 0.0
H2818 H 0.02355 0.59185 0.27849 0.0
H2819 H 0.25784 0.66542 0.45983 0.0
H2820 H 0.27119 0.17856 0.30529 0.0
H2821 H 0.3005 0.15619 0.33532 0.0
H2822 H 0.36704 0.2236 0.32263 0.0
H2823 H 0.3372 0.24618 0.29173 0.0
H2824 H 0.38385 0.18633 0.31723 0.0
H2825 H 0.3422 0.19431 0.40176 0.0
H2826 H 0.30686 0.19229 0.43261 0.0
H2827 H 0.27208 0.11283 0.42534 0.0
H2828 H 0.30729 0.11434 0.39457 0.0
H2829 H 0.4675 0.12247 0.42638 0.0
H2830 H 0.44272 0.15149 0.40074 0.0
H2831 H 0.37075 0.08872 0.3975 0.0
H2832 H 0.39528 0.05992 0.42249 0.0
H2833 H 0.35964 0.12706 0.41347 0.0
H2834 H 0.40526 0.12081 0.33005 0.0
H2835 H 0.44422 0.12457 0.3046 0.0
H2836 H 0.47477 0.20395 0.314 0.0
H2837 H 0.43612 0.20058 0.33988 0.0
C2838 C 0.29202 0.18901 0.30927 0.0
C2839 C 0.30124 0.21466 0.29609 0.0
C2840 C 0.30908 0.17598 0.32688 0.0
C2841 C 0.33668 0.18767 0.33241 0.0
C2842 C 0.3461 0.21352 0.31938 0.0
C2843 C 0.32881 0.22674 0.30175 0.0
C2844 C 0.35511 0.17249 0.35039 0.0
C2845 C 0.37854 0.17377 0.33858 0.0
C2846 C 0.34904 0.15536 0.3784 0.0
C2847 C 0.32716 0.15452 0.39553 0.0
C2848 C 0.32683 0.17648 0.40644 0.0
C2849 C 0.30693 0.17539 0.42406 0.0
C2850 C 0.28719 0.15249 0.4308 0.0
C2851 C 0.28737 0.13057 0.42006 0.0
C2852 C 0.30732 0.13151 0.4026 0.0
C2853 C 0.44641 0.11472 0.4202 0.0
C2854 C 0.43386 0.08831 0.42678 0.0
C2855 C 0.43203 0.13152 0.40517 0.0
C2856 C 0.4043 0.12286 0.39632 0.0
C2857 C 0.39186 0.09658 0.40354 0.0
C2858 C 0.40619 0.07984 0.41801 0.0
C2859 C 0.38807 0.14061 0.38007 0.0
C2860 C 0.36498 0.1397 0.39218 0.0
C2861 C 0.39475 0.15833 0.35271 0.0
C2862 C 0.41796 0.16038 0.33722 0.0
C2863 C 0.4204 0.13902 0.32692 0.0
C2864 C 0.4424 0.14109 0.31237 0.0
C2865 C 0.462 0.16447 0.30777 0.0
C2866 C 0.4596 0.18584 0.31764 0.0
C2867 C 0.43764 0.18387 0.33223 0.0
H2868 H 0.47902 0.16604 0.2965 0.0
H2869 H 0.2718 0.15171 0.44444 0.0
H2870 H 0.76325 0.83808 0.69659 0.0
H2871 H 0.73332 0.86028 0.66771 0.0
H2872 H 0.66801 0.79141 0.67647 0.0
H2873 H 0.69844 0.76888 0.70608 0.0
H2874 H 0.66038 0.81882 0.61778 0.0
H2875 H 0.67855 0.84023 0.72232 0.0
H2876 H 0.70618 0.85449 0.77096 0.0
H2877 H 0.74393 0.92632 0.7201 0.0
H2878 H 0.7168 0.91235 0.67102 0.0
H2879 H 0.56893 0.89189 0.56317 0.0
H2880 H 0.59326 0.86313 0.5905 0.0
H2881 H 0.66275 0.92712 0.60575 0.0
H2882 H 0.63835 0.9556 0.57959 0.0
H2883 H 0.66502 0.89872 0.65481 0.0
H2884 H 0.6514 0.87483 0.54966 0.0
H2885 H 0.62511 0.86008 0.50018 0.0
H2886 H 0.57906 0.7929 0.55267 0.0
H2887 H 0.60503 0.80737 0.6022 0.0
C2888 C 0.74255 0.82734 0.69229 0.0
C2889 C 0.73385 0.80128 0.70384 0.0
C2890 C 0.72514 0.84033 0.67567 0.0
C2891 C 0.6977 0.82819 0.6697 0.0
C2892 C 0.68882 0.80182 0.68037 0.0
C2893 C 0.70644 0.7887 0.69738 0.0
C2894 C 0.67896 0.84348 0.65342 0.0
C2895 C 0.66124 0.83607 0.62636 0.0
C2896 C 0.67961 0.86655 0.66342 0.0
C2897 C 0.69578 0.87516 0.69292 0.0
C2898 C 0.69286 0.85901 0.72146 0.0
C2899 C 0.70842 0.86704 0.74912 0.0
C2900 C 0.72684 0.89128 0.7486 0.0
C2901 C 0.72967 0.90755 0.72045 0.0
C2902 C 0.71419 0.89959 0.6927 0.0
C2903 C 0.58941 0.89995 0.57225 0.0
C2904 C 0.60115 0.92662 0.56878 0.0
C2905 C 0.60371 0.88322 0.5879 0.0
C2906 C 0.63068 0.89218 0.60064 0.0
C2907 C 0.64225 0.91885 0.59689 0.0
C2908 C 0.62801 0.93546 0.5815 0.0
C2909 C 0.64674 0.87456 0.61847 0.0
C2910 C 0.66403 0.88151 0.64605 0.0
C2911 C 0.64563 0.85109 0.60894 0.0
C2912 C 0.6298 0.84241 0.57946 0.0
C2913 C 0.63544 0.8571 0.55047 0.0
C2914 C 0.62069 0.84876 0.52251 0.0
C2915 C 0.60032 0.82568 0.52333 0.0
C2916 C 0.59477 0.81083 0.55208 0.0
C2917 C 0.60953 0.81906 0.58008 0.0
H2918 H 0.58892 0.81926 0.50168 0.0
H2919 H 0.73887 0.89746 0.77004 0.0
H2920 H 0.7095 0.1978 0.26468 0.0
H2921 H 0.67295 0.16406 0.28686 0.0
H2922 H 0.67313 0.21115 0.35581 0.0
H2923 H 0.71108 0.24422 0.33473 0.0
H2924 H 0.67191 0.16932 0.38498 0.0
H2925 H 0.61657 0.18849 0.29054 0.0
H2926 H 0.60278 0.19559 0.23357 0.0
H2927 H 0.60761 0.1234 0.22176 0.0
H2928 H 0.62082 0.11558 0.27876 0.0
H2929 H 0.56102 0.07764 0.45144 0.0
H2930 H 0.58765 0.11615 0.42198 0.0
H2931 H 0.60262 0.07094 0.36071 0.0
H2932 H 0.57609 0.03249 0.38987 0.0
H2933 H 0.59352 0.11288 0.32749 0.0
H2934 H 0.64732 0.09334 0.42104 0.0
H2935 H 0.65961 0.08475 0.47803 0.0
H2936 H 0.65886 0.15816 0.49118 0.0
H2937 H 0.64596 0.16699 0.43428 0.0
C2938 C 0.70111 0.20122 0.2839 0.0
C2939 C 0.71273 0.22382 0.2976 0.0
C2940 C 0.68004 0.18188 0.29661 0.0
C2941 C 0.66966 0.18487 0.32296 0.0
C2942 C 0.68058 0.20811 0.33559 0.0
C2943 C 0.70211 0.22718 0.32336 0.0
C2944 C 0.6497 0.16303 0.33943 0.0
C2945 C 0.65442 0.15747 0.37232 0.0
C2946 C 0.62724 0.14663 0.3232 0.0
C2947 C 0.61989 0.15156 0.28886 0.0
C2948 C 0.61482 0.17419 0.27577 0.0
C2949 C 0.607 0.17829 0.24351 0.0
C2950 C 0.60455 0.16006 0.22405 0.0
C2951 C 0.6096 0.13754 0.23686 0.0
C2952 C 0.61706 0.13318 0.26915 0.0
C2953 C 0.56964 0.07588 0.43141 0.0
C2954 C 0.5664 0.05184 0.42317 0.0
C2955 C 0.58504 0.09795 0.41468 0.0
C2956 C 0.59748 0.09653 0.38926 0.0
C2957 C 0.59333 0.07263 0.38021 0.0
C2958 C 0.57815 0.05059 0.39702 0.0
C2959 C 0.61562 0.11969 0.3728 0.0
C2960 C 0.61073 0.12521 0.34003 0.0
C2961 C 0.6379 0.13608 0.38911 0.0
C2962 C 0.64532 0.13069 0.42341 0.0
C2963 C 0.64944 0.10754 0.4361 0.0
C2964 C 0.65656 0.10264 0.46839 0.0
C2965 C 0.65995 0.12088 0.4882 0.0
C2966 C 0.65616 0.14403 0.47579 0.0
C2967 C 0.64891 0.14898 0.44353 0.0
H2968 H 0.66568 0.1171 0.51312 0.0
H2969 H 0.59863 0.16335 0.19908 0.0
H2970 H 0.77884 0.69458 0.30118 0.0
H2971 H 0.80179 0.66612 0.33352 0.0
H2972 H 0.87647 0.72373 0.32058 0.0
H2973 H 0.85377 0.75248 0.29237 0.0
H2974 H 0.82945 0.64029 0.33473 0.0
H2975 H 0.92955 0.71875 0.36661 0.0
H2976 H 0.94446 0.7621 0.38133 0.0
H2977 H 0.86849 0.74999 0.41023 0.0
H2978 H 0.85321 0.70649 0.39608 0.0
H2979 H 0.91963 0.57076 0.38802 0.0
H2980 H 0.89494 0.59893 0.36184 0.0
H2981 H 0.9222 0.64363 0.43933 0.0
H2982 H 0.94923 0.61662 0.46387 0.0
H2983 H 0.91446 0.67478 0.3996 0.0
H2984 H 0.85061 0.59555 0.4156 0.0
H2985 H 0.82798 0.54976 0.41522 0.0
H2986 H 0.81968 0.55951 0.3142 0.0
H2987 H 0.84251 0.60536 0.31399 0.0
C2988 C 0.80008 0.70157 0.30639 0.0
C2989 C 0.81396 0.72673 0.29474 0.0
C2990 C 0.81356 0.68491 0.32468 0.0
C2991 C 0.84163 0.69228 0.3314 0.0
C2992 C 0.85515 0.71705 0.3183 0.0
C2993 C 0.84181 0.73376 0.30129 0.0
C2994 C 0.857 0.67451 0.35074 0.0
C2995 C 0.84806 0.64816 0.34873 0.0
C2996 C 0.88099 0.68335 0.3711 0.0
C2997 C 0.89018 0.70942 0.37999 0.0
C2998 C 0.91607 0.72529 0.37625 0.0
C2999 C 0.92457 0.7499 0.38446 0.0
C3000 C 0.90741 0.75881 0.39661 0.0
C3001 C 0.88173 0.74309 0.40071 0.0
C3002 C 0.87314 0.71846 0.39259 0.0
C3003 C 0.92073 0.58677 0.39948 0.0
C3004 C 0.93699 0.59104 0.42835 0.0
C3005 C 0.90585 0.60294 0.38456 0.0
C3006 C 0.90502 0.62372 0.39835 0.0
C3007 C 0.92166 0.62817 0.42722 0.0
C3008 C 0.93744 0.61248 0.4416 0.0
C3009 C 0.88749 0.64065 0.38262 0.0
C3010 C 0.89597 0.66688 0.38542 0.0
C3011 C 0.86214 0.63136 0.36492 0.0
C3012 C 0.84852 0.60383 0.36479 0.0
C3013 C 0.84411 0.5879 0.39331 0.0
C3014 C 0.83122 0.56194 0.3932 0.0
C3015 C 0.82247 0.55172 0.3647 0.0
C3016 C 0.82651 0.56745 0.33625 0.0
C3017 C 0.8394 0.59343 0.33623 0.0
H3018 H 0.8125 0.53161 0.36466 0.0
H3019 H 0.91402 0.77788 0.40289 0.0
H3020 H 0.32216 0.77286 0.35523 0.0
H3021 H 0.35096 0.80392 0.38948 0.0
H3022 H 0.32503 0.86256 0.33046 0.0
H3023 H 0.29808 0.83238 0.29545 0.0
H3024 H 0.37498 0.87857 0.33955 0.0
H3025 H 0.30667 0.83682 0.4069 0.0
H3026 H 0.27742 0.8009 0.43808 0.0
H3027 H 0.34487 0.78718 0.49548 0.0
H3028 H 0.37455 0.82284 0.46436 0.0
H3029 H 0.4123 0.97693 0.43706 0.0
H3030 H 0.38308 0.93835 0.41586 0.0
H3031 H 0.44243 0.90174 0.44783 0.0
H3032 H 0.47213 0.94046 0.46862 0.0
H3033 H 0.37925 0.87276 0.45552 0.0
H3034 H 0.4468 0.91569 0.38374 0.0
H3035 H 0.47346 0.95393 0.35317 0.0
H3036 H 0.40273 0.96706 0.30433 0.0
H3037 H 0.37568 0.92909 0.33503 0.0
C3038 C 0.32299 0.79243 0.34928 0.0
C3039 C 0.30874 0.80018 0.32161 0.0
C3040 C 0.33911 0.81014 0.36923 0.0
C3041 C 0.34048 0.83576 0.36241 0.0
C3042 C 0.32482 0.84306 0.33599 0.0
C3043 C 0.30928 0.8256 0.31587 0.0
C3044 C 0.35918 0.85556 0.38123 0.0
C3045 C 0.37566 0.87718 0.3649 0.0
C3046 C 0.36064 0.85381 0.41443 0.0
C3047 C 0.34284 0.83228 0.43303 0.0
C3048 C 0.31528 0.82599 0.42597 0.0
C3049 C 0.29862 0.80571 0.44368 0.0
C3050 C 0.30928 0.7917 0.46867 0.0
C3051 C 0.33664 0.798 0.47606 0.0
C3052 C 0.35339 0.81825 0.45841 0.0
C3053 C 0.41906 0.96061 0.43996 0.0
C3054 C 0.44469 0.96189 0.45413 0.0
C3055 C 0.4023 0.93857 0.42792 0.0
C3056 C 0.41067 0.9173 0.43032 0.0
C3057 C 0.43566 0.91799 0.44588 0.0
C3058 C 0.45264 0.94018 0.45748 0.0
C3059 C 0.39434 0.89549 0.41358 0.0
C3060 C 0.37851 0.87372 0.43023 0.0
C3061 C 0.39303 0.89713 0.3806 0.0
C3062 C 0.40926 0.91976 0.36191 0.0
C3063 C 0.43696 0.92688 0.36671 0.0
C3064 C 0.45213 0.94847 0.34931 0.0
C3065 C 0.4398 0.96296 0.32689 0.0
C3066 C 0.41226 0.95584 0.32174 0.0
C3067 C 0.397 0.93429 0.33912 0.0
H3068 H 0.45158 0.97966 0.31344 0.0
H3069 H 0.29635 0.77602 0.48235 0.0
H3070 H 0.21986 0.32433 0.43189 0.0
H3071 H 0.19109 0.34486 0.44671 0.0
H3072 H 0.1835 0.38118 0.35169 0.0
H3073 H 0.21273 0.36074 0.33668 0.0
H3074 H 0.19264 0.41471 0.39609 0.0
H3075 H 0.13306 0.332 0.37764 0.0
H3076 H 0.11791 0.28533 0.38421 0.0
H3077 H 0.11762 0.2842 0.48336 0.0
H3078 H 0.13312 0.33089 0.47743 0.0
H3079 H 0.05529 0.41265 0.43464 0.0
H3080 H 0.08341 0.39298 0.41727 0.0
H3081 H 0.15081 0.43838 0.47251 0.0
H3082 H 0.12257 0.4588 0.48964 0.0
H3083 H 0.11088 0.3645 0.44422 0.0
H3084 H 0.2068 0.44878 0.43838 0.0
H3085 H 0.22104 0.49547 0.43032 0.0
H3086 H 0.14658 0.49355 0.37655 0.0
H3087 H 0.13206 0.44688 0.38396 0.0
C3088 C 0.21208 0.33666 0.41403 0.0
C3089 C 0.21874 0.34087 0.38304 0.0
C3090 C 0.19549 0.34835 0.42257 0.0
C3091 C 0.18497 0.36462 0.4004 0.0
C3092 C 0.19137 0.36878 0.36931 0.0
C3093 C 0.20788 0.35687 0.36065 0.0
C3094 C 0.16735 0.37714 0.40991 0.0
C3095 C 0.17477 0.40371 0.40665 0.0
C3096 C 0.14388 0.36298 0.42355 0.0
C3097 C 0.13444 0.33492 0.42711 0.0
C3098 C 0.12994 0.32179 0.40087 0.0
C3099 C 0.12126 0.29534 0.40448 0.0
C3100 C 0.11685 0.28181 0.43419 0.0
C3101 C 0.12106 0.29471 0.46036 0.0
C3102 C 0.12976 0.32116 0.45688 0.0
C3103 C 0.07608 0.41856 0.4433 0.0
C3104 C 0.08657 0.43761 0.46345 0.0
C3105 C 0.09222 0.40715 0.43327 0.0
C3106 C 0.11946 0.41432 0.44299 0.0
C3107 C 0.12999 0.43281 0.46395 0.0
C3108 C 0.11376 0.44438 0.47398 0.0
C3109 C 0.13639 0.40216 0.43113 0.0
C3110 C 0.12876 0.37559 0.43376 0.0
C3111 C 0.15964 0.41635 0.41696 0.0
C3112 C 0.1683 0.44437 0.41194 0.0
C3113 C 0.19354 0.45834 0.42471 0.0
C3114 C 0.20164 0.48479 0.42029 0.0
C3115 C 0.1847 0.49747 0.403 0.0
C3116 C 0.15965 0.48371 0.39001 0.0
C3117 C 0.15147 0.45727 0.39434 0.0
H3118 H 0.191 0.51794 0.39963 0.0
H3119 H 0.11013 0.26133 0.43694 0.0
H3120 H 0.38591 0.22097 0.61251 0.0
H3121 H 0.39481 0.19331 0.58115 0.0
H3122 H 0.32904 0.13147 0.61434 0.0
H3123 H 0.32025 0.15935 0.64625 0.0
H3124 H 0.37023 0.11605 0.62093 0.0
H3125 H 0.32903 0.15698 0.53543 0.0
H3126 H 0.31742 0.19084 0.4986 0.0
H3127 H 0.39642 0.22016 0.47305 0.0
H3128 H 0.4087 0.18674 0.51016 0.0
H3129 H 0.40519 0.04115 0.52505 0.0
H3130 H 0.37803 0.06401 0.53976 0.0
H3131 H 0.4452 0.13182 0.54072 0.0
H3132 H 0.47242 0.10898 0.5271 0.0
H3133 H 0.39428 0.13896 0.51182 0.0
H3134 H 0.43443 0.09918 0.60653 0.0
H3135 H 0.44243 0.06217 0.64028 0.0
H3136 H 0.35908 0.02744 0.64432 0.0
H3137 H 0.35059 0.06414 0.61018 0.0
C3138 C 0.37296 0.20162 0.61263 0.0
C3139 C 0.35236 0.1924 0.63193 0.0
C3140 C 0.37799 0.18576 0.59449 0.0
C3141 C 0.36258 0.16015 0.59504 0.0
C3142 C 0.34126 0.15111 0.61334 0.0
C3143 C 0.33607 0.16711 0.6314 0.0
C3144 C 0.37055 0.14264 0.57899 0.0
C3145 C 0.37484 0.12087 0.59681 0.0
C3146 C 0.3768 0.14867 0.54746 0.0
C3147 C 0.36986 0.16944 0.52589 0.0
C3148 C 0.34406 0.17083 0.5223 0.0
C3149 C 0.33733 0.18993 0.5013 0.0
C3150 C 0.35619 0.20769 0.48357 0.0
C3151 C 0.38184 0.20641 0.48684 0.0
C3152 C 0.38869 0.18739 0.50787 0.0
C3153 C 0.41397 0.06105 0.52781 0.0
C3154 C 0.44097 0.07324 0.52505 0.0
C3155 C 0.39848 0.07407 0.53635 0.0
C3156 C 0.40959 0.09966 0.54152 0.0
C3157 C 0.43614 0.11215 0.53686 0.0
C3158 C 0.4517 0.09904 0.52913 0.0
C3159 C 0.39452 0.11311 0.55412 0.0
C3160 C 0.38909 0.13409 0.53571 0.0
C3161 C 0.38672 0.10613 0.58482 0.0
C3162 C 0.39186 0.08422 0.60551 0.0
C3163 C 0.41781 0.08355 0.61439 0.0
C3164 C 0.42243 0.06266 0.63363 0.0
C3165 C 0.40127 0.04243 0.64435 0.0
C3166 C 0.37545 0.0431 0.63594 0.0
C3167 C 0.37072 0.06393 0.61666 0.0
H3168 H 0.40489 0.02627 0.65925 0.0
H3169 H 0.3509 0.22238 0.4672 0.0
H3170 H 0.81034 0.28302 0.67339 0.0
H3171 H 0.83795 0.31773 0.63951 0.0
H3172 H 0.85998 0.36467 0.71451 0.0
H3173 H 0.83282 0.32967 0.74881 0.0
H3174 H 0.85118 0.39114 0.65485 0.0
H3175 H 0.89964 0.33386 0.70549 0.0
H3176 H 0.90525 0.29163 0.71872 0.0
H3177 H 0.90071 0.28537 0.62054 0.0
H3178 H 0.89461 0.32737 0.60675 0.0
H3179 H 0.96605 0.48532 0.6132 0.0
H3180 H 0.93566 0.44945 0.64189 0.0
H3181 H 0.93132 0.4027 0.57084 0.0
H3182 H 0.96242 0.43837 0.54248 0.0
H3183 H 0.92788 0.37476 0.62395 0.0
H3184 H 0.8831 0.43302 0.57244 0.0
H3185 H 0.87629 0.4747 0.55804 0.0
H3186 H 0.87127 0.47841 0.65477 0.0
H3187 H 0.87842 0.43692 0.66984 0.0
C3188 C 0.82053 0.30102 0.68229 0.0
C3189 C 0.81887 0.3041 0.71325 0.0
C3190 C 0.83642 0.32072 0.66305 0.0
C3191 C 0.85115 0.34371 0.67467 0.0
C3192 C 0.84875 0.34707 0.70525 0.0
C3193 C 0.83321 0.32722 0.72467 0.0
C3194 C 0.87077 0.36351 0.6561 0.0
C3195 C 0.86807 0.38768 0.64825 0.0
C3196 C 0.89237 0.35874 0.64676 0.0
C3197 C 0.89656 0.3337 0.65507 0.0
C3198 C 0.89972 0.32342 0.68673 0.0
C3199 C 0.90297 0.29952 0.69433 0.0
C3200 C 0.90332 0.28582 0.67048 0.0
C3201 C 0.90045 0.29601 0.63899 0.0
C3202 C 0.89712 0.31987 0.63126 0.0
C3203 C 0.95892 0.46728 0.60391 0.0
C3204 C 0.96647 0.46476 0.57541 0.0
C3205 C 0.94129 0.44681 0.62018 0.0
C3206 C 0.93017 0.42353 0.60789 0.0
C3207 C 0.93907 0.42052 0.58052 0.0
C3208 C 0.95706 0.44092 0.56442 0.0
C3209 C 0.9087 0.4028 0.62303 0.0
C3210 C 0.91095 0.37835 0.63021 0.0
C3211 C 0.88646 0.40725 0.63142 0.0
C3212 C 0.88153 0.43195 0.6223 0.0
C3213 C 0.88066 0.44277 0.59066 0.0
C3214 C 0.87674 0.46637 0.58238 0.0
C3215 C 0.87345 0.47923 0.6055 0.0
C3216 C 0.87387 0.46844 0.63691 0.0
C3217 C 0.87783 0.44488 0.64533 0.0
H3218 H 0.87056 0.49754 0.5991 0.0
H3219 H 0.90588 0.26734 0.67636 0.0
H3220 H 0.25976 0.68738 0.67714 0.0
H3221 H 0.23194 0.65674 0.64181 0.0
H3222 H 0.17597 0.69804 0.62147 0.0
H3223 H 0.20365 0.72874 0.65613 0.0
H3224 H 0.15546 0.64539 0.6466 0.0
H3225 H 0.20528 0.69899 0.56594 0.0
H3226 H 0.24435 0.72326 0.53873 0.0
H3227 H 0.26291 0.65509 0.53863 0.0
H3228 H 0.22425 0.63044 0.56649 0.0
H3229 H 0.06206 0.56886 0.54153 0.0
H3230 H 0.09412 0.6059 0.56308 0.0
H3231 H 0.15594 0.57264 0.56788 0.0
H3232 H 0.12413 0.53575 0.54567 0.0
H3233 H 0.17363 0.6224 0.54901 0.0
H3234 H 0.12729 0.56995 0.63509 0.0
H3235 H 0.088 0.54527 0.66189 0.0
H3236 H 0.06328 0.61122 0.65112 0.0
H3237 H 0.10231 0.63621 0.624 0.0
C3238 C 0.24155 0.68988 0.66526 0.0
C3239 C 0.23337 0.70976 0.67091 0.0
C3240 C 0.22584 0.67258 0.64471 0.0
C3241 C 0.20173 0.67499 0.62941 0.0
C3242 C 0.19439 0.69574 0.63333 0.0
C3243 C 0.21024 0.71318 0.65342 0.0
C3244 C 0.18282 0.65456 0.61214 0.0
C3245 C 0.15928 0.6406 0.625 0.0
C3246 C 0.18817 0.64798 0.58443 0.0
C3247 C 0.21205 0.6629 0.56879 0.0
C3248 C 0.21793 0.68921 0.56064 0.0
C3249 C 0.23996 0.70303 0.54496 0.0
C3250 C 0.25616 0.69074 0.53707 0.0
C3251 C 0.25039 0.6646 0.54486 0.0
C3252 C 0.22843 0.6507 0.56062 0.0
C3253 C 0.08248 0.56943 0.54704 0.0
C3254 C 0.09043 0.54915 0.54224 0.0
C3255 C 0.1008 0.59062 0.55942 0.0
C3256 C 0.12735 0.59184 0.56767 0.0
C3257 C 0.13554 0.57208 0.5618 0.0
C3258 C 0.11728 0.55095 0.54918 0.0
C3259 C 0.14633 0.61321 0.58355 0.0
C3260 C 0.16986 0.62726 0.57057 0.0
C3261 C 0.14114 0.61988 0.6113 0.0
C3262 C 0.11759 0.60488 0.62738 0.0
C3263 C 0.11337 0.57912 0.63829 0.0
C3264 C 0.09118 0.56509 0.65356 0.0
C3265 C 0.07313 0.57666 0.65816 0.0
C3266 C 0.07724 0.60227 0.64748 0.0
C3267 C 0.0994 0.61638 0.63218 0.0
H3268 H 0.05599 0.56577 0.67003 0.0
H3269 H 0.27313 0.70146 0.5248 0.0
loop_
_geom_bond_atom_site_label_1
_geom_bond_atom_site_label_2
_geom_bond_distance
_geom_bond_site_symmetry_2
_ccdc_geom_bond_type
Tb0 N31 2.660 . S
Tb0 N38 2.600 . S
Tb0 O44 2.546 . S
Tb0 O45 2.610 . S
Tb0 O47 2.320 . S
Tb0 O48 2.552 . S
Tb0 O49 2.413 . S
Tb0 O51 2.362 . S
Tb0 O52 2.421 . S
Tb0 C64 2.833 . S
C1 C4 1.432 . S
C1 C5 1.414 . S
C1 N8 1.359 . S
C2 C4 1.417 . S
C2 C6 1.432 . S
C2 C14 1.410 . S
C3 C5 1.444 . S
C3 C6 1.317 . S
C3 H26 0.929 . S
C4 C1 1.432 . S
C4 C2 1.417 . S
C4 N12 1.360 . S
C5 C1 1.414 . S
C5 C3 1.444 . S
C5 C10 1.385 . S
C6 C2 1.432 . S
C6 C3 1.317 . S
C6 H18 0.930 . S
C7 C9 1.392 . S
C7 C10 1.370 . S
C7 H19 0.931 . S
N8 C1 1.359 . S
N8 C9 1.327 . S
N8 Tb11 2.600 . S
C9 C7 1.392 . S
C9 N8 1.327 . S
C9 H16 0.930 . S
C10 C5 1.385 . S
C10 C7 1.370 . S
C10 H29 0.930 . S
Tb11 N8 2.600 . S
Tb11 N12 2.660 . S
Tb11 O45 2.362 . S
Tb11 O46 2.421 . S
Tb11 O50 2.546 . S
Tb11 O51 2.610 . S
Tb11 O53 2.320 . S
Tb11 O54 2.552 . S
Tb11 O55 2.413 . S
Tb11 C75 2.833 . S
N12 C4 1.360 . S
N12 Tb11 2.660 . S
N12 C13 1.305 . S
C13 N12 1.305 . S
C13 C15 1.407 . S
C13 H20 0.930 . S
C14 C2 1.410 . S
C14 C15 1.345 . S
C14 H22 0.930 . S
C15 C13 1.407 . S
C15 C14 1.345 . S
C15 H17 0.930 . S
H16 C9 0.930 . S
H17 C15 0.930 . S
H18 C6 0.930 . S
H19 C7 0.931 . S
H20 C13 0.930 . S
H21 C35 0.930 . S
H22 C14 0.930 . S
H23 C41 0.930 . S
H24 C32 0.930 . S
H25 C39 0.931 . S
H26 C3 0.929 . S
H27 C33 0.930 . S
H28 C66 0.930 . S
H29 C10 0.930 . S
H30 C65 0.929 . S
N31 Tb0 2.660 . S
N31 C32 1.305 . S
N31 C36 1.360 . S
C32 H24 0.930 . S
C32 N31 1.305 . S
C32 C35 1.407 . S
C33 H27 0.930 . S
C33 C34 1.410 . S
C33 C35 1.345 . S
C34 C33 1.410 . S
C34 C36 1.417 . S
C34 C66 1.432 . S
C35 H21 0.930 . S
C35 C32 1.407 . S
C35 C33 1.345 . S
C36 N31 1.360 . S
C36 C34 1.417 . S
C36 C40 1.432 . S
H37 C42 0.930 . S
N38 Tb0 2.600 . S
N38 C40 1.359 . S
N38 C41 1.327 . S
C39 H25 0.931 . S
C39 C41 1.392 . S
C39 C42 1.370 . S
C40 C36 1.432 . S
C40 N38 1.359 . S
C40 C43 1.414 . S
C41 H23 0.930 . S
C41 N38 1.327 . S
C41 C39 1.392 . S
C42 H37 0.930 . S
C42 C39 1.370 . S
C42 C43 1.385 . S
C43 C40 1.414 . S
C43 C42 1.385 . S
C43 C65 1.444 . S
O44 Tb0 2.546 . S
O44 C64 1.251 . S
O45 Tb0 2.610 . S
O45 Tb11 2.362 . S
O45 C56 1.283 . S
O46 Tb11 2.421 . S
O46 C63 1.262 . S
O47 Tb0 2.320 . S
O47 C63 1.260 . S
O48 Tb0 2.552 . S
O48 C56 1.243 . S
O49 Tb0 2.413 . S
O49 C64 1.256 . S
O50 Tb11 2.546 . S
O50 C75 1.251 . S
O51 Tb0 2.362 . S
O51 Tb11 2.610 . S
O51 C67 1.283 . S
O52 Tb0 2.421 . S
O52 C74 1.262 . S
O53 Tb11 2.320 . S
O53 C74 1.260 . S
O54 Tb11 2.552 . S
O54 C67 1.243 . S
O55 Tb11 2.413 . S
O55 C75 1.256 . S
C56 O45 1.283 . S
C56 O48 1.243 . S
C57 C59 1.382 . S
C57 C61 1.393 . S
C57 C64 1.500 . S
C58 C59 1.400 . S
C58 C60 1.384 . S
C59 C57 1.382 . S
C59 C58 1.400 . S
C59 H76 0.930 . S
C60 C58 1.384 . S
C60 C62 1.392 . S
C60 H77 0.931 . S
C61 C57 1.393 . S
C61 C62 1.401 . S
C61 H78 0.930 . S
C62 C60 1.392 . S
C62 C61 1.401 . S
C62 H79 0.930 . S
C63 O46 1.262 . S
C63 O47 1.260 . S
C64 Tb0 2.833 . S
C64 O44 1.251 . S
C64 O49 1.256 . S
C64 C57 1.500 . S
C65 H30 0.929 . S
C65 C43 1.444 . S
C65 C66 1.317 . S
C66 H28 0.930 . S
C66 C34 1.432 . S
C66 C65 1.317 . S
C67 O51 1.283 . S
C67 O54 1.243 . S
C68 C69 1.382 . S
C68 C72 1.393 . S
C68 C75 1.500 . S
C69 C68 1.382 . S
C69 C70 1.400 . S
C69 H80 0.930 . S
C70 C69 1.400 . S
C70 C71 1.384 . S
C71 C70 1.384 . S
C71 C73 1.392 . S
C71 H81 0.931 . S
C72 C68 1.393 . S
C72 C73 1.401 . S
C72 H82 0.930 . S
C73 C71 1.392 . S
C73 C72 1.401 . S
C73 H83 0.930 . S
C74 O52 1.262 . S
C74 O53 1.260 . S
C75 Tb11 2.833 . S
C75 O50 1.251 . S
C75 O55 1.256 . S
C75 C68 1.500 . S
H76 C59 0.930 . S
H77 C60 0.931 . S
H78 C61 0.930 . S
H79 C62 0.930 . S
H80 C69 0.930 . S
H81 C71 0.931 . S
H82 C72 0.930 . S
H83 C73 0.930 . S
Tb84 N115 2.660 . S
Tb84 N122 2.600 . S
Tb84 O128 2.546 . S
Tb84 O129 2.610 . S
Tb84 O131 2.320 . S
Tb84 O132 2.552 . S
Tb84 O133 2.413 . S
Tb84 O135 2.362 . S
Tb84 O136 2.421 . S
Tb84 C148 2.833 . S
C85 C88 1.432 . S
C85 C89 1.414 . S
C85 N92 1.359 . S
C86 C88 1.417 . S
C86 C90 1.432 . S
C86 C98 1.410 . S
C87 C89 1.444 . S
C87 C90 1.317 . S
C87 H110 0.929 . S
C88 C85 1.432 . S
C88 C86 1.417 . S
C88 N96 1.360 . S
C89 C85 1.414 . S
C89 C87 1.444 . S
C89 C94 1.385 . S
C90 C86 1.432 . S
C90 C87 1.317 . S
C90 H102 0.930 . S
C91 C93 1.392 . S
C91 C94 1.370 . S
C91 H103 0.931 . S
N92 C85 1.359 . S
N92 C93 1.327 . S
N92 Tb95 2.600 . S
C93 C91 1.392 . S
C93 N92 1.327 . S
C93 H100 0.930 . S
C94 C89 1.385 . S
C94 C91 1.370 . S
C94 H113 0.930 . S
Tb95 N92 2.600 . S
Tb95 N96 2.660 . S
Tb95 O129 2.362 . S
Tb95 O130 2.421 . S
Tb95 O134 2.546 . S
Tb95 O135 2.610 . S
Tb95 O137 2.320 . S
Tb95 O138 2.552 . S
Tb95 O139 2.413 . S
Tb95 C159 2.833 . S
N96 C88 1.360 . S
N96 Tb95 2.660 . S
N96 C97 1.305 . S
C97 N96 1.305 . S
C97 C99 1.407 . S
C97 H104 0.930 . S
C98 C86 1.410 . S
C98 C99 1.345 . S
C98 H106 0.930 . S
C99 C97 1.407 . S
C99 C98 1.345 . S
C99 H101 0.930 . S
H100 C93 0.930 . S
H101 C99 0.930 . S
H102 C90 0.930 . S
H103 C91 0.931 . S
H104 C97 0.930 . S
H105 C119 0.930 . S
H106 C98 0.930 . S
H107 C125 0.930 . S
H108 C116 0.930 . S
H109 C123 0.931 . S
H110 C87 0.929 . S
H111 C117 0.930 . S
H112 C150 0.930 . S
H113 C94 0.930 . S
H114 C149 0.929 . S
N115 Tb84 2.660 . S
N115 C116 1.305 . S
N115 C120 1.360 . S
C116 H108 0.930 . S
C116 N115 1.305 . S
C116 C119 1.407 . S
C117 H111 0.930 . S
C117 C118 1.410 . S
C117 C119 1.345 . S
C118 C117 1.410 . S
C118 C120 1.417 . S
C118 C150 1.432 . S
C119 H105 0.930 . S
C119 C116 1.407 . S
C119 C117 1.345 . S
C120 N115 1.360 . S
C120 C118 1.417 . S
C120 C124 1.432 . S
H121 C126 0.930 . S
N122 Tb84 2.600 . S
N122 C124 1.359 . S
N122 C125 1.327 . S
C123 H109 0.931 . S
C123 C125 1.392 . S
C123 C126 1.370 . S
C124 C120 1.432 . S
C124 N122 1.359 . S
C124 C127 1.414 . S
C125 H107 0.930 . S
C125 N122 1.327 . S
C125 C123 1.392 . S
C126 H121 0.930 . S
C126 C123 1.370 . S
C126 C127 1.385 . S
C127 C124 1.414 . S
C127 C126 1.385 . S
C127 C149 1.444 . S
O128 Tb84 2.546 . S
O128 C148 1.251 . S
O129 Tb84 2.610 . S
O129 Tb95 2.362 . S
O129 C140 1.283 . S
O130 Tb95 2.421 . S
O130 C147 1.262 . S
O131 Tb84 2.320 . S
O131 C147 1.260 . S
O132 Tb84 2.552 . S
O132 C140 1.243 . S
O133 Tb84 2.413 . S
O133 C148 1.256 . S
O134 Tb95 2.546 . S
O134 C159 1.251 . S
O135 Tb84 2.362 . S
O135 Tb95 2.610 . S
O135 C151 1.283 . S
O136 Tb84 2.421 . S
O136 C158 1.262 . S
O137 Tb95 2.320 . S
O137 C158 1.260 . S
O138 Tb95 2.552 . S
O138 C151 1.243 . S
O139 Tb95 2.413 . S
O139 C159 1.256 . S
C140 O129 1.283 . S
C140 O132 1.243 . S
C141 C143 1.382 . S
C141 C145 1.393 . S
C141 C148 1.500 . S
C142 C143 1.400 . S
C142 C144 1.384 . S
C143 C141 1.382 . S
C143 C142 1.400 . S
C143 H160 0.930 . S
C144 C142 1.384 . S
C144 C146 1.392 . S
C144 H161 0.931 . S
C145 C141 1.393 . S
C145 C146 1.401 . S
C145 H162 0.930 . S
C146 C144 1.392 . S
C146 C145 1.401 . S
C146 H163 0.930 . S
C147 O130 1.262 . S
C147 O131 1.260 . S
C148 Tb84 2.833 . S
C148 O128 1.251 . S
C148 O133 1.256 . S
C148 C141 1.500 . S
C149 H114 0.929 . S
C149 C127 1.444 . S
C149 C150 1.317 . S
C150 H112 0.930 . S
C150 C118 1.432 . S
C150 C149 1.317 . S
C151 O135 1.283 . S
C151 O138 1.243 . S
C152 C153 1.382 . S
C152 C156 1.393 . S
C152 C159 1.500 . S
C153 C152 1.382 . S
C153 C154 1.400 . S
C153 H164 0.930 . S
C154 C153 1.400 . S
C154 C155 1.384 . S
C155 C154 1.384 . S
C155 C157 1.392 . S
C155 H165 0.931 . S
C156 C152 1.393 . S
C156 C157 1.401 . S
C156 H166 0.930 . S
C157 C155 1.392 . S
C157 C156 1.401 . S
C157 H167 0.930 . S
C158 O136 1.262 . S
C158 O137 1.260 . S
C159 Tb95 2.833 . S
C159 O134 1.251 . S
C159 O139 1.256 . S
C159 C152 1.500 . S
H160 C143 0.930 . S
H161 C144 0.931 . S
H162 C145 0.930 . S
H163 C146 0.930 . S
H164 C153 0.930 . S
H165 C155 0.931 . S
H166 C156 0.930 . S
H167 C157 0.930 . S
Tb168 N199 2.660 . S
Tb168 N206 2.600 . S
Tb168 O212 2.546 . S
Tb168 O213 2.610 . S
Tb168 O215 2.320 . S
Tb168 O216 2.552 . S
Tb168 O217 2.413 . S
Tb168 O219 2.362 . S
Tb168 O220 2.421 . S
Tb168 C232 2.833 . S
C169 C172 1.432 . S
C169 C173 1.414 . S
C169 N176 1.359 . S
C170 C172 1.417 . S
C170 C174 1.432 . S
C170 C182 1.410 . S
C171 C173 1.444 . S
C171 C174 1.317 . S
C171 H194 0.929 . S
C172 C169 1.432 . S
C172 C170 1.417 . S
C172 N180 1.360 . S
C173 C169 1.414 . S
C173 C171 1.444 . S
C173 C178 1.385 . S
C174 C170 1.432 . S
C174 C171 1.317 . S
C174 H186 0.930 . S
C175 C177 1.392 . S
C175 C178 1.370 . S
C175 H187 0.931 . S
N176 C169 1.359 . S
N176 C177 1.327 . S
N176 Tb179 2.600 . S
C177 C175 1.392 . S
C177 N176 1.327 . S
C177 H184 0.930 . S
C178 C173 1.385 . S
C178 C175 1.370 . S
C178 H197 0.930 . S
Tb179 N176 2.600 . S
Tb179 N180 2.660 . S
Tb179 O213 2.362 . S
Tb179 O214 2.421 . S
Tb179 O218 2.546 . S
Tb179 O219 2.610 . S
Tb179 O221 2.320 . S
Tb179 O222 2.552 . S
Tb179 O223 2.413 . S
Tb179 C243 2.833 . S
N180 C172 1.360 . S
N180 Tb179 2.660 . S
N180 C181 1.305 . S
C181 N180 1.305 . S
C181 C183 1.407 . S
C181 H188 0.930 . S
C182 C170 1.410 . S
C182 C183 1.345 . S
C182 H190 0.930 . S
C183 C181 1.407 . S
C183 C182 1.345 . S
C183 H185 0.930 . S
H184 C177 0.930 . S
H185 C183 0.930 . S
H186 C174 0.930 . S
H187 C175 0.931 . S
H188 C181 0.930 . S
H189 C203 0.930 . S
H190 C182 0.930 . S
H191 C209 0.930 . S
H192 C200 0.930 . S
H193 C207 0.931 . S
H194 C171 0.929 . S
H195 C201 0.930 . S
H196 C234 0.930 . S
H197 C178 0.930 . S
H198 C233 0.929 . S
N199 Tb168 2.660 . S
N199 C200 1.305 . S
N199 C204 1.360 . S
C200 H192 0.930 . S
C200 N199 1.305 . S
C200 C203 1.407 . S
C201 H195 0.930 . S
C201 C202 1.410 . S
C201 C203 1.345 . S
C202 C201 1.410 . S
C202 C204 1.417 . S
C202 C234 1.432 . S
C203 H189 0.930 . S
C203 C200 1.407 . S
C203 C201 1.345 . S
C204 N199 1.360 . S
C204 C202 1.417 . S
C204 C208 1.432 . S
H205 C210 0.930 . S
N206 Tb168 2.600 . S
N206 C208 1.359 . S
N206 C209 1.327 . S
C207 H193 0.931 . S
C207 C209 1.392 . S
C207 C210 1.370 . S
C208 C204 1.432 . S
C208 N206 1.359 . S
C208 C211 1.414 . S
C209 H191 0.930 . S
C209 N206 1.327 . S
C209 C207 1.392 . S
C210 H205 0.930 . S
C210 C207 1.370 . S
C210 C211 1.385 . S
C211 C208 1.414 . S
C211 C210 1.385 . S
C211 C233 1.444 . S
O212 Tb168 2.546 . S
O212 C232 1.251 . S
O213 Tb168 2.610 . S
O213 Tb179 2.362 . S
O213 C224 1.283 . S
O214 Tb179 2.421 . S
O214 C231 1.262 . S
O215 Tb168 2.320 . S
O215 C231 1.260 . S
O216 Tb168 2.552 . S
O216 C224 1.243 . S
O217 Tb168 2.413 . S
O217 C232 1.256 . S
O218 Tb179 2.546 . S
O218 C243 1.251 . S
O219 Tb168 2.362 . S
O219 Tb179 2.610 . S
O219 C235 1.283 . S
O220 Tb168 2.421 . S
O220 C242 1.262 . S
O221 Tb179 2.320 . S
O221 C242 1.260 . S
O222 Tb179 2.552 . S
O222 C235 1.243 . S
O223 Tb179 2.413 . S
O223 C243 1.256 . S
C224 O213 1.283 . S
C224 O216 1.243 . S
C225 C227 1.382 . S
C225 C229 1.393 . S
C225 C232 1.500 . S
C226 C227 1.400 . S
C226 C228 1.384 . S
C227 C225 1.382 . S
C227 C226 1.400 . S
C227 H244 0.930 . S
C228 C226 1.384 . S
C228 C230 1.392 . S
C228 H245 0.931 . S
C229 C225 1.393 . S
C229 C230 1.401 . S
C229 H246 0.930 . S
C230 C228 1.392 . S
C230 C229 1.401 . S
C230 H247 0.930 . S
C231 O214 1.262 . S
C231 O215 1.260 . S
C232 Tb168 2.833 . S
C232 O212 1.251 . S
C232 O217 1.256 . S
C232 C225 1.500 . S
C233 H198 0.929 . S
C233 C211 1.444 . S
C233 C234 1.317 . S
C234 H196 0.930 . S
C234 C202 1.432 . S
C234 C233 1.317 . S
C235 O219 1.283 . S
C235 O222 1.243 . S
C236 C237 1.382 . S
C236 C240 1.393 . S
C236 C243 1.500 . S
C237 C236 1.382 . S
C237 C238 1.400 . S
C237 H248 0.930 . S
C238 C237 1.400 . S
C238 C239 1.384 . S
C239 C238 1.384 . S
C239 C241 1.392 . S
C239 H249 0.931 . S
C240 C236 1.393 . S
C240 C241 1.401 . S
C240 H250 0.930 . S
C241 C239 1.392 . S
C241 C240 1.401 . S
C241 H251 0.930 . S
C242 O220 1.262 . S
C242 O221 1.260 . S
C243 Tb179 2.833 . S
C243 O218 1.251 . S
C243 O223 1.256 . S
C243 C236 1.500 . S
H244 C227 0.930 . S
H245 C228 0.931 . S
H246 C229 0.930 . S
H247 C230 0.930 . S
H248 C237 0.930 . S
H249 C239 0.931 . S
H250 C240 0.930 . S
H251 C241 0.930 . S
Tb252 N283 2.660 . S
Tb252 N290 2.600 . S
Tb252 O296 2.546 . S
Tb252 O297 2.610 . S
Tb252 O299 2.320 . S
Tb252 O300 2.552 . S
Tb252 O301 2.413 . S
Tb252 O303 2.362 . S
Tb252 O304 2.421 . S
Tb252 C316 2.833 . S
C253 C256 1.432 . S
C253 C257 1.414 . S
C253 N260 1.359 . S
C254 C256 1.417 . S
C254 C258 1.432 . S
C254 C266 1.410 . S
C255 C257 1.444 . S
C255 C258 1.317 . S
C255 H278 0.929 . S
C256 C253 1.432 . S
C256 C254 1.417 . S
C256 N264 1.360 . S
C257 C253 1.414 . S
C257 C255 1.444 . S
C257 C262 1.385 . S
C258 C254 1.432 . S
C258 C255 1.317 . S
C258 H270 0.930 . S
C259 C261 1.392 . S
C259 C262 1.370 . S
C259 H271 0.931 . S
N260 C253 1.359 . S
N260 C261 1.327 . S
N260 Tb263 2.600 . S
C261 C259 1.392 . S
C261 N260 1.327 . S
C261 H268 0.930 . S
C262 C257 1.385 . S
C262 C259 1.370 . S
C262 H281 0.930 . S
Tb263 N260 2.600 . S
Tb263 N264 2.660 . S
Tb263 O297 2.362 . S
Tb263 O298 2.421 . S
Tb263 O302 2.546 . S
Tb263 O303 2.610 . S
Tb263 O305 2.320 . S
Tb263 O306 2.552 . S
Tb263 O307 2.413 . S
Tb263 C327 2.833 . S
N264 C256 1.360 . S
N264 Tb263 2.660 . S
N264 C265 1.305 . S
C265 N264 1.305 . S
C265 C267 1.407 . S
C265 H272 0.930 . S
C266 C254 1.410 . S
C266 C267 1.345 . S
C266 H274 0.930 . S
C267 C265 1.407 . S
C267 C266 1.345 . S
C267 H269 0.930 . S
H268 C261 0.930 . S
H269 C267 0.930 . S
H270 C258 0.930 . S
H271 C259 0.931 . S
H272 C265 0.930 . S
H273 C287 0.930 . S
H274 C266 0.930 . S
H275 C293 0.930 . S
H276 C284 0.930 . S
H277 C291 0.931 . S
H278 C255 0.929 . S
H279 C285 0.930 . S
H280 C318 0.930 . S
H281 C262 0.930 . S
H282 C317 0.929 . S
N283 Tb252 2.660 . S
N283 C284 1.305 . S
N283 C288 1.360 . S
C284 H276 0.930 . S
C284 N283 1.305 . S
C284 C287 1.407 . S
C285 H279 0.930 . S
C285 C286 1.410 . S
C285 C287 1.345 . S
C286 C285 1.410 . S
C286 C288 1.417 . S
C286 C318 1.432 . S
C287 H273 0.930 . S
C287 C284 1.407 . S
C287 C285 1.345 . S
C288 N283 1.360 . S
C288 C286 1.417 . S
C288 C292 1.432 . S
H289 C294 0.930 . S
N290 Tb252 2.600 . S
N290 C292 1.359 . S
N290 C293 1.327 . S
C291 H277 0.931 . S
C291 C293 1.392 . S
C291 C294 1.370 . S
C292 C288 1.432 . S
C292 N290 1.359 . S
C292 C295 1.414 . S
C293 H275 0.930 . S
C293 N290 1.327 . S
C293 C291 1.392 . S
C294 H289 0.930 . S
C294 C291 1.370 . S
C294 C295 1.385 . S
C295 C292 1.414 . S
C295 C294 1.385 . S
C295 C317 1.444 . S
O296 Tb252 2.546 . S
O296 C316 1.251 . S
O297 Tb252 2.610 . S
O297 Tb263 2.362 . S
O297 C308 1.283 . S
O298 Tb263 2.421 . S
O298 C315 1.262 . S
O299 Tb252 2.320 . S
O299 C315 1.260 . S
O300 Tb252 2.552 . S
O300 C308 1.243 . S
O301 Tb252 2.413 . S
O301 C316 1.256 . S
O302 Tb263 2.546 . S
O302 C327 1.251 . S
O303 Tb252 2.362 . S
O303 Tb263 2.610 . S
O303 C319 1.283 . S
O304 Tb252 2.421 . S
O304 C326 1.262 . S
O305 Tb263 2.320 . S
O305 C326 1.260 . S
O306 Tb263 2.552 . S
O306 C319 1.243 . S
O307 Tb263 2.413 . S
O307 C327 1.256 . S
C308 O297 1.283 . S
C308 O300 1.243 . S
C309 C311 1.382 . S
C309 C313 1.393 . S
C309 C316 1.500 . S
C310 C311 1.400 . S
C310 C312 1.384 . S
C311 C309 1.382 . S
C311 C310 1.400 . S
C311 H328 0.930 . S
C312 C310 1.384 . S
C312 C314 1.392 . S
C312 H329 0.931 . S
C313 C309 1.393 . S
C313 C314 1.401 . S
C313 H330 0.930 . S
C314 C312 1.392 . S
C314 C313 1.401 . S
C314 H331 0.930 . S
C315 O298 1.262 . S
C315 O299 1.260 . S
C316 Tb252 2.833 . S
C316 O296 1.251 . S
C316 O301 1.256 . S
C316 C309 1.500 . S
C317 H282 0.929 . S
C317 C295 1.444 . S
C317 C318 1.317 . S
C318 H280 0.930 . S
C318 C286 1.432 . S
C318 C317 1.317 . S
C319 O303 1.283 . S
C319 O306 1.243 . S
C320 C321 1.382 . S
C320 C324 1.393 . S
C320 C327 1.500 . S
C321 C320 1.382 . S
C321 C322 1.400 . S
C321 H332 0.930 . S
C322 C321 1.400 . S
C322 C323 1.384 . S
C323 C322 1.384 . S
C323 C325 1.392 . S
C323 H333 0.931 . S
C324 C320 1.393 . S
C324 C325 1.401 . S
C324 H334 0.930 . S
C325 C323 1.392 . S
C325 C324 1.401 . S
C325 H335 0.930 . S
C326 O304 1.262 . S
C326 O305 1.260 . S
C327 Tb263 2.833 . S
C327 O302 1.251 . S
C327 O307 1.256 . S
C327 C320 1.500 . S
H328 C311 0.930 . S
H329 C312 0.931 . S
H330 C313 0.930 . S
H331 C314 0.930 . S
H332 C321 0.930 . S
H333 C323 0.931 . S
H334 C324 0.930 . S
H335 C325 0.930 . S
Tb336 N367 2.660 . S
Tb336 N374 2.600 . S
Tb336 O380 2.546 . S
Tb336 O381 2.610 . S
Tb336 O383 2.320 . S
Tb336 O384 2.552 . S
Tb336 O385 2.413 . S
Tb336 O387 2.362 . S
Tb336 O388 2.421 . S
Tb336 C400 2.833 . S
C337 C340 1.432 . S
C337 C341 1.414 . S
C337 N344 1.359 . S
C338 C340 1.417 . S
C338 C342 1.432 . S
C338 C350 1.410 . S
C339 C341 1.444 . S
C339 C342 1.317 . S
C339 H362 0.929 . S
C340 C337 1.432 . S
C340 C338 1.417 . S
C340 N348 1.360 . S
C341 C337 1.414 . S
C341 C339 1.444 . S
C341 C346 1.385 . S
C342 C338 1.432 . S
C342 C339 1.317 . S
C342 H354 0.930 . S
C343 C345 1.392 . S
C343 C346 1.370 . S
C343 H355 0.931 . S
N344 C337 1.359 . S
N344 C345 1.327 . S
N344 Tb347 2.600 . S
C345 C343 1.392 . S
C345 N344 1.327 . S
C345 H352 0.930 . S
C346 C341 1.385 . S
C346 C343 1.370 . S
C346 H365 0.930 . S
Tb347 N344 2.600 . S
Tb347 N348 2.660 . S
Tb347 O381 2.362 . S
Tb347 O382 2.421 . S
Tb347 O386 2.546 . S
Tb347 O387 2.610 . S
Tb347 O389 2.320 . S
Tb347 O390 2.552 . S
Tb347 O391 2.413 . S
Tb347 C411 2.833 . S
N348 C340 1.360 . S
N348 Tb347 2.660 . S
N348 C349 1.305 . S
C349 N348 1.305 . S
C349 C351 1.407 . S
C349 H356 0.930 . S
C350 C338 1.410 . S
C350 C351 1.345 . S
C350 H358 0.930 . S
C351 C349 1.407 . S
C351 C350 1.345 . S
C351 H353 0.930 . S
H352 C345 0.930 . S
H353 C351 0.930 . S
H354 C342 0.930 . S
H355 C343 0.931 . S
H356 C349 0.930 . S
H357 C371 0.930 . S
H358 C350 0.930 . S
H359 C377 0.930 . S
H360 C368 0.930 . S
H361 C375 0.931 . S
H362 C339 0.929 . S
H363 C369 0.930 . S
H364 C402 0.930 . S
H365 C346 0.930 . S
H366 C401 0.929 . S
N367 Tb336 2.660 . S
N367 C368 1.305 . S
N367 C372 1.360 . S
C368 H360 0.930 . S
C368 N367 1.305 . S
C368 C371 1.407 . S
C369 H363 0.930 . S
C369 C370 1.410 . S
C369 C371 1.345 . S
C370 C369 1.410 . S
C370 C372 1.417 . S
C370 C402 1.432 . S
C371 H357 0.930 . S
C371 C368 1.407 . S
C371 C369 1.345 . S
C372 N367 1.360 . S
C372 C370 1.417 . S
C372 C376 1.432 . S
H373 C378 0.930 . S
N374 Tb336 2.600 . S
N374 C376 1.359 . S
N374 C377 1.327 . S
C375 H361 0.931 . S
C375 C377 1.392 . S
C375 C378 1.370 . S
C376 C372 1.432 . S
C376 N374 1.359 . S
C376 C379 1.414 . S
C377 H359 0.930 . S
C377 N374 1.327 . S
C377 C375 1.392 . S
C378 H373 0.930 . S
C378 C375 1.370 . S
C378 C379 1.385 . S
C379 C376 1.414 . S
C379 C378 1.385 . S
C379 C401 1.444 . S
O380 Tb336 2.546 . S
O380 C400 1.251 . S
O381 Tb336 2.610 . S
O381 Tb347 2.362 . S
O381 C392 1.283 . S
O382 Tb347 2.421 . S
O382 C399 1.262 . S
O383 Tb336 2.320 . S
O383 C399 1.260 . S
O384 Tb336 2.552 . S
O384 C392 1.243 . S
O385 Tb336 2.413 . S
O385 C400 1.256 . S
O386 Tb347 2.546 . S
O386 C411 1.251 . S
O387 Tb336 2.362 . S
O387 Tb347 2.610 . S
O387 C403 1.283 . S
O388 Tb336 2.421 . S
O388 C410 1.262 . S
O389 Tb347 2.320 . S
O389 C410 1.260 . S
O390 Tb347 2.552 . S
O390 C403 1.243 . S
O391 Tb347 2.413 . S
O391 C411 1.256 . S
C392 O381 1.283 . S
C392 O384 1.243 . S
C393 C395 1.382 . S
C393 C397 1.393 . S
C393 C400 1.500 . S
C394 C395 1.400 . S
C394 C396 1.384 . S
C395 C393 1.382 . S
C395 C394 1.400 . S
C395 H412 0.930 . S
C396 C394 1.384 . S
C396 C398 1.392 . S
C396 H413 0.931 . S
C397 C393 1.393 . S
C397 C398 1.401 . S
C397 H414 0.930 . S
C398 C396 1.392 . S
C398 C397 1.401 . S
C398 H415 0.930 . S
C399 O382 1.262 . S
C399 O383 1.260 . S
C400 Tb336 2.833 . S
C400 O380 1.251 . S
C400 O385 1.256 . S
C400 C393 1.500 . S
C401 H366 0.929 . S
C401 C379 1.444 . S
C401 C402 1.317 . S
C402 H364 0.930 . S
C402 C370 1.432 . S
C402 C401 1.317 . S
C403 O387 1.283 . S
C403 O390 1.243 . S
C404 C405 1.382 . S
C404 C408 1.393 . S
C404 C411 1.500 . S
C405 C404 1.382 . S
C405 C406 1.400 . S
C405 H416 0.930 . S
C406 C405 1.400 . S
C406 C407 1.384 . S
C407 C406 1.384 . S
C407 C409 1.392 . S
C407 H417 0.931 . S
C408 C404 1.393 . S
C408 C409 1.401 . S
C408 H418 0.930 . S
C409 C407 1.392 . S
C409 C408 1.401 . S
C409 H419 0.930 . S
C410 O388 1.262 . S
C410 O389 1.260 . S
C411 Tb347 2.833 . S
C411 O386 1.251 . S
C411 O391 1.256 . S
C411 C404 1.500 . S
H412 C395 0.930 . S
H413 C396 0.931 . S
H414 C397 0.930 . S
H415 C398 0.930 . S
H416 C405 0.930 . S
H417 C407 0.931 . S
H418 C408 0.930 . S
H419 C409 0.930 . S
Tb420 N451 2.660 . S
Tb420 N458 2.600 . S
Tb420 O464 2.546 . S
Tb420 O465 2.610 . S
Tb420 O467 2.320 . S
Tb420 O468 2.552 . S
Tb420 O469 2.413 . S
Tb420 O471 2.362 . S
Tb420 O472 2.421 . S
Tb420 C484 2.833 . S
C421 C424 1.432 . S
C421 C425 1.414 . S
C421 N428 1.359 . S
C422 C424 1.417 . S
C422 C426 1.432 . S
C422 C434 1.410 . S
C423 C425 1.444 . S
C423 C426 1.317 . S
C423 H446 0.929 . S
C424 C421 1.432 . S
C424 C422 1.417 . S
C424 N432 1.360 . S
C425 C421 1.414 . S
C425 C423 1.444 . S
C425 C430 1.385 . S
C426 C422 1.432 . S
C426 C423 1.317 . S
C426 H438 0.930 . S
C427 C429 1.392 . S
C427 C430 1.370 . S
C427 H439 0.931 . S
N428 C421 1.359 . S
N428 C429 1.327 . S
N428 Tb431 2.600 . S
C429 C427 1.392 . S
C429 N428 1.327 . S
C429 H436 0.930 . S
C430 C425 1.385 . S
C430 C427 1.370 . S
C430 H449 0.930 . S
Tb431 N428 2.600 . S
Tb431 N432 2.660 . S
Tb431 O465 2.362 . S
Tb431 O466 2.421 . S
Tb431 O470 2.546 . S
Tb431 O471 2.610 . S
Tb431 O473 2.320 . S
Tb431 O474 2.552 . S
Tb431 O475 2.413 . S
Tb431 C495 2.833 . S
N432 C424 1.360 . S
N432 Tb431 2.660 . S
N432 C433 1.305 . S
C433 N432 1.305 . S
C433 C435 1.407 . S
C433 H440 0.930 . S
C434 C422 1.410 . S
C434 C435 1.345 . S
C434 H442 0.930 . S
C435 C433 1.407 . S
C435 C434 1.345 . S
C435 H437 0.930 . S
H436 C429 0.930 . S
H437 C435 0.930 . S
H438 C426 0.930 . S
H439 C427 0.931 . S
H440 C433 0.930 . S
H441 C455 0.930 . S
H442 C434 0.930 . S
H443 C461 0.930 . S
H444 C452 0.930 . S
H445 C459 0.931 . S
H446 C423 0.929 . S
H447 C453 0.930 . S
H448 C486 0.930 . S
H449 C430 0.930 . S
H450 C485 0.929 . S
N451 Tb420 2.660 . S
N451 C452 1.305 . S
N451 C456 1.360 . S
C452 H444 0.930 . S
C452 N451 1.305 . S
C452 C455 1.407 . S
C453 H447 0.930 . S
C453 C454 1.410 . S
C453 C455 1.345 . S
C454 C453 1.410 . S
C454 C456 1.417 . S
C454 C486 1.432 . S
C455 H441 0.930 . S
C455 C452 1.407 . S
C455 C453 1.345 . S
C456 N451 1.360 . S
C456 C454 1.417 . S
C456 C460 1.432 . S
H457 C462 0.930 . S
N458 Tb420 2.600 . S
N458 C460 1.359 . S
N458 C461 1.327 . S
C459 H445 0.931 . S
C459 C461 1.392 . S
C459 C462 1.370 . S
C460 C456 1.432 . S
C460 N458 1.359 . S
C460 C463 1.414 . S
C461 H443 0.930 . S
C461 N458 1.327 . S
C461 C459 1.392 . S
C462 H457 0.930 . S
C462 C459 1.370 . S
C462 C463 1.385 . S
C463 C460 1.414 . S
C463 C462 1.385 . S
C463 C485 1.444 . S
O464 Tb420 2.546 . S
O464 C484 1.251 . S
O465 Tb420 2.610 . S
O465 Tb431 2.362 . S
O465 C476 1.283 . S
O466 Tb431 2.421 . S
O466 C483 1.262 . S
O467 Tb420 2.320 . S
O467 C483 1.260 . S
O468 Tb420 2.552 . S
O468 C476 1.243 . S
O469 Tb420 2.413 . S
O469 C484 1.256 . S
O470 Tb431 2.546 . S
O470 C495 1.251 . S
O471 Tb420 2.362 . S
O471 Tb431 2.610 . S
O471 C487 1.283 . S
O472 Tb420 2.421 . S
O472 C494 1.262 . S
O473 Tb431 2.320 . S
O473 C494 1.260 . S
O474 Tb431 2.552 . S
O474 C487 1.243 . S
O475 Tb431 2.413 . S
O475 C495 1.256 . S
C476 O465 1.283 . S
C476 O468 1.243 . S
C477 C479 1.382 . S
C477 C481 1.393 . S
C477 C484 1.500 . S
C478 C479 1.400 . S
C478 C480 1.384 . S
C479 C477 1.382 . S
C479 C478 1.400 . S
C479 H496 0.930 . S
C480 C478 1.384 . S
C480 C482 1.392 . S
C480 H497 0.931 . S
C481 C477 1.393 . S
C481 C482 1.401 . S
C481 H498 0.930 . S
C482 C480 1.392 . S
C482 C481 1.401 . S
C482 H499 0.930 . S
C483 O466 1.262 . S
C483 O467 1.260 . S
C484 Tb420 2.833 . S
C484 O464 1.251 . S
C484 O469 1.256 . S
C484 C477 1.500 . S
C485 H450 0.929 . S
C485 C463 1.444 . S
C485 C486 1.317 . S
C486 H448 0.930 . S
C486 C454 1.432 . S
C486 C485 1.317 . S
C487 O471 1.283 . S
C487 O474 1.243 . S
C488 C489 1.382 . S
C488 C492 1.393 . S
C488 C495 1.500 . S
C489 C488 1.382 . S
C489 C490 1.400 . S
C489 H500 0.930 . S
C490 C489 1.400 . S
C490 C491 1.384 . S
C491 C490 1.384 . S
C491 C493 1.392 . S
C491 H501 0.931 . S
C492 C488 1.393 . S
C492 C493 1.401 . S
C492 H502 0.930 . S
C493 C491 1.392 . S
C493 C492 1.401 . S
C493 H503 0.930 . S
C494 O472 1.262 . S
C494 O473 1.260 . S
C495 Tb431 2.833 . S
C495 O470 1.251 . S
C495 O475 1.256 . S
C495 C488 1.500 . S
H496 C479 0.930 . S
H497 C480 0.931 . S
H498 C481 0.930 . S
H499 C482 0.930 . S
H500 C489 0.930 . S
H501 C491 0.931 . S
H502 C492 0.930 . S
H503 C493 0.930 . S
Tb504 N535 2.660 . S
Tb504 N542 2.600 . S
Tb504 O548 2.546 . S
Tb504 O549 2.610 . S
Tb504 O551 2.320 . S
Tb504 O552 2.552 . S
Tb504 O553 2.413 . S
Tb504 O555 2.362 . S
Tb504 O556 2.421 . S
Tb504 C568 2.833 . S
C505 C508 1.432 . S
C505 C509 1.414 . S
C505 N512 1.359 . S
C506 C508 1.417 . S
C506 C510 1.432 . S
C506 C518 1.410 . S
C507 C509 1.444 . S
C507 C510 1.317 . S
C507 H530 0.929 . S
C508 C505 1.432 . S
C508 C506 1.417 . S
C508 N516 1.360 . S
C509 C505 1.414 . S
C509 C507 1.444 . S
C509 C514 1.385 . S
C510 C506 1.432 . S
C510 C507 1.317 . S
C510 H522 0.930 . S
C511 C513 1.392 . S
C511 C514 1.370 . S
C511 H523 0.931 . S
N512 C505 1.359 . S
N512 C513 1.327 . S
N512 Tb515 2.600 . S
C513 C511 1.392 . S
C513 N512 1.327 . S
C513 H520 0.930 . S
C514 C509 1.385 . S
C514 C511 1.370 . S
C514 H533 0.930 . S
Tb515 N512 2.600 . S
Tb515 N516 2.660 . S
Tb515 O549 2.362 . S
Tb515 O550 2.421 . S
Tb515 O554 2.546 . S
Tb515 O555 2.610 . S
Tb515 O557 2.320 . S
Tb515 O558 2.552 . S
Tb515 O559 2.413 . S
Tb515 C579 2.833 . S
N516 C508 1.360 . S
N516 Tb515 2.660 . S
N516 C517 1.305 . S
C517 N516 1.305 . S
C517 C519 1.407 . S
C517 H524 0.930 . S
C518 C506 1.410 . S
C518 C519 1.345 . S
C518 H526 0.930 . S
C519 C517 1.407 . S
C519 C518 1.345 . S
C519 H521 0.930 . S
H520 C513 0.930 . S
H521 C519 0.930 . S
H522 C510 0.930 . S
H523 C511 0.931 . S
H524 C517 0.930 . S
H525 C539 0.930 . S
H526 C518 0.930 . S
H527 C545 0.930 . S
H528 C536 0.930 . S
H529 C543 0.931 . S
H530 C507 0.929 . S
H531 C537 0.930 . S
H532 C570 0.930 . S
H533 C514 0.930 . S
H534 C569 0.929 . S
N535 Tb504 2.660 . S
N535 C536 1.305 . S
N535 C540 1.360 . S
C536 H528 0.930 . S
C536 N535 1.305 . S
C536 C539 1.407 . S
C537 H531 0.930 . S
C537 C538 1.410 . S
C537 C539 1.345 . S
C538 C537 1.410 . S
C538 C540 1.417 . S
C538 C570 1.432 . S
C539 H525 0.930 . S
C539 C536 1.407 . S
C539 C537 1.345 . S
C540 N535 1.360 . S
C540 C538 1.417 . S
C540 C544 1.432 . S
H541 C546 0.930 . S
N542 Tb504 2.600 . S
N542 C544 1.359 . S
N542 C545 1.327 . S
C543 H529 0.931 . S
C543 C545 1.392 . S
C543 C546 1.370 . S
C544 C540 1.432 . S
C544 N542 1.359 . S
C544 C547 1.414 . S
C545 H527 0.930 . S
C545 N542 1.327 . S
C545 C543 1.392 . S
C546 H541 0.930 . S
C546 C543 1.370 . S
C546 C547 1.385 . S
C547 C544 1.414 . S
C547 C546 1.385 . S
C547 C569 1.444 . S
O548 Tb504 2.546 . S
O548 C568 1.251 . S
O549 Tb504 2.610 . S
O549 Tb515 2.362 . S
O549 C560 1.283 . S
O550 Tb515 2.421 . S
O550 C567 1.262 . S
O551 Tb504 2.320 . S
O551 C567 1.260 . S
O552 Tb504 2.552 . S
O552 C560 1.243 . S
O553 Tb504 2.413 . S
O553 C568 1.256 . S
O554 Tb515 2.546 . S
O554 C579 1.251 . S
O555 Tb504 2.362 . S
O555 Tb515 2.610 . S
O555 C571 1.283 . S
O556 Tb504 2.421 . S
O556 C578 1.262 . S
O557 Tb515 2.320 . S
O557 C578 1.260 . S
O558 Tb515 2.552 . S
O558 C571 1.243 . S
O559 Tb515 2.413 . S
O559 C579 1.256 . S
C560 O549 1.283 . S
C560 O552 1.243 . S
C561 C563 1.382 . S
C561 C565 1.393 . S
C561 C568 1.500 . S
C562 C563 1.400 . S
C562 C564 1.384 . S
C563 C561 1.382 . S
C563 C562 1.400 . S
C563 H580 0.930 . S
C564 C562 1.384 . S
C564 C566 1.392 . S
C564 H581 0.931 . S
C565 C561 1.393 . S
C565 C566 1.401 . S
C565 H582 0.930 . S
C566 C564 1.392 . S
C566 C565 1.401 . S
C566 H583 0.930 . S
C567 O550 1.262 . S
C567 O551 1.260 . S
C568 Tb504 2.833 . S
C568 O548 1.251 . S
C568 O553 1.256 . S
C568 C561 1.500 . S
C569 H534 0.929 . S
C569 C547 1.444 . S
C569 C570 1.317 . S
C570 H532 0.930 . S
C570 C538 1.432 . S
C570 C569 1.317 . S
C571 O555 1.283 . S
C571 O558 1.243 . S
C572 C573 1.382 . S
C572 C576 1.393 . S
C572 C579 1.500 . S
C573 C572 1.382 . S
C573 C574 1.400 . S
C573 H584 0.930 . S
C574 C573 1.400 . S
C574 C575 1.384 . S
C575 C574 1.384 . S
C575 C577 1.392 . S
C575 H585 0.931 . S
C576 C572 1.393 . S
C576 C577 1.401 . S
C576 H586 0.930 . S
C577 C575 1.392 . S
C577 C576 1.401 . S
C577 H587 0.930 . S
C578 O556 1.262 . S
C578 O557 1.260 . S
C579 Tb515 2.833 . S
C579 O554 1.251 . S
C579 O559 1.256 . S
C579 C572 1.500 . S
H580 C563 0.930 . S
H581 C564 0.931 . S
H582 C565 0.930 . S
H583 C566 0.930 . S
H584 C573 0.930 . S
H585 C575 0.931 . S
H586 C576 0.930 . S
H587 C577 0.930 . S
Tb588 N619 2.660 . S
Tb588 N626 2.600 . S
Tb588 O632 2.546 . S
Tb588 O633 2.610 . S
Tb588 O635 2.320 . S
Tb588 O636 2.552 . S
Tb588 O637 2.413 . S
Tb588 O639 2.362 . S
Tb588 O640 2.421 . S
Tb588 C652 2.833 . S
C589 C592 1.432 . S
C589 C593 1.414 . S
C589 N596 1.359 . S
C590 C592 1.417 . S
C590 C594 1.432 . S
C590 C602 1.410 . S
C591 C593 1.444 . S
C591 C594 1.317 . S
C591 H614 0.929 . S
C592 C589 1.432 . S
C592 C590 1.417 . S
C592 N600 1.360 . S
C593 C589 1.414 . S
C593 C591 1.444 . S
C593 C598 1.385 . S
C594 C590 1.432 . S
C594 C591 1.317 . S
C594 H606 0.930 . S
C595 C597 1.392 . S
C595 C598 1.370 . S
C595 H607 0.931 . S
N596 C589 1.359 . S
N596 C597 1.327 . S
N596 Tb599 2.600 . S
C597 C595 1.392 . S
C597 N596 1.327 . S
C597 H604 0.930 . S
C598 C593 1.385 . S
C598 C595 1.370 . S
C598 H617 0.930 . S
Tb599 N596 2.600 . S
Tb599 N600 2.660 . S
Tb599 O633 2.362 . S
Tb599 O634 2.421 . S
Tb599 O638 2.546 . S
Tb599 O639 2.610 . S
Tb599 O641 2.320 . S
Tb599 O642 2.552 . S
Tb599 O643 2.413 . S
Tb599 C663 2.833 . S
N600 C592 1.360 . S
N600 Tb599 2.660 . S
N600 C601 1.305 . S
C601 N600 1.305 . S
C601 C603 1.407 . S
C601 H608 0.930 . S
C602 C590 1.410 . S
C602 C603 1.345 . S
C602 H610 0.930 . S
C603 C601 1.407 . S
C603 C602 1.345 . S
C603 H605 0.930 . S
H604 C597 0.930 . S
H605 C603 0.930 . S
H606 C594 0.930 . S
H607 C595 0.931 . S
H608 C601 0.930 . S
H609 C623 0.930 . S
H610 C602 0.930 . S
H611 C629 0.930 . S
H612 C620 0.930 . S
H613 C627 0.931 . S
H614 C591 0.929 . S
H615 C621 0.930 . S
H616 C654 0.930 . S
H617 C598 0.930 . S
H618 C653 0.929 . S
N619 Tb588 2.660 . S
N619 C620 1.305 . S
N619 C624 1.360 . S
C620 H612 0.930 . S
C620 N619 1.305 . S
C620 C623 1.407 . S
C621 H615 0.930 . S
C621 C622 1.410 . S
C621 C623 1.345 . S
C622 C621 1.410 . S
C622 C624 1.417 . S
C622 C654 1.432 . S
C623 H609 0.930 . S
C623 C620 1.407 . S
C623 C621 1.345 . S
C624 N619 1.360 . S
C624 C622 1.417 . S
C624 C628 1.432 . S
H625 C630 0.930 . S
N626 Tb588 2.600 . S
N626 C628 1.359 . S
N626 C629 1.327 . S
C627 H613 0.931 . S
C627 C629 1.392 . S
C627 C630 1.370 . S
C628 C624 1.432 . S
C628 N626 1.359 . S
C628 C631 1.414 . S
C629 H611 0.930 . S
C629 N626 1.327 . S
C629 C627 1.392 . S
C630 H625 0.930 . S
C630 C627 1.370 . S
C630 C631 1.385 . S
C631 C628 1.414 . S
C631 C630 1.385 . S
C631 C653 1.444 . S
O632 Tb588 2.546 . S
O632 C652 1.251 . S
O633 Tb588 2.610 . S
O633 Tb599 2.362 . S
O633 C644 1.283 . S
O634 Tb599 2.421 . S
O634 C651 1.262 . S
O635 Tb588 2.320 . S
O635 C651 1.260 . S
O636 Tb588 2.552 . S
O636 C644 1.243 . S
O637 Tb588 2.413 . S
O637 C652 1.256 . S
O638 Tb599 2.546 . S
O638 C663 1.251 . S
O639 Tb588 2.362 . S
O639 Tb599 2.610 . S
O639 C655 1.283 . S
O640 Tb588 2.421 . S
O640 C662 1.262 . S
O641 Tb599 2.320 . S
O641 C662 1.260 . S
O642 Tb599 2.552 . S
O642 C655 1.243 . S
O643 Tb599 2.413 . S
O643 C663 1.256 . S
C644 O633 1.283 . S
C644 O636 1.243 . S
C645 C647 1.382 . S
C645 C649 1.393 . S
C645 C652 1.500 . S
C646 C647 1.400 . S
C646 C648 1.384 . S
C647 C645 1.382 . S
C647 C646 1.400 . S
C647 H664 0.930 . S
C648 C646 1.384 . S
C648 C650 1.392 . S
C648 H665 0.931 . S
C649 C645 1.393 . S
C649 C650 1.401 . S
C649 H666 0.930 . S
C650 C648 1.392 . S
C650 C649 1.401 . S
C650 H667 0.930 . S
C651 O634 1.262 . S
C651 O635 1.260 . S
C652 Tb588 2.833 . S
C652 O632 1.251 . S
C652 O637 1.256 . S
C652 C645 1.500 . S
C653 H618 0.929 . S
C653 C631 1.444 . S
C653 C654 1.317 . S
C654 H616 0.930 . S
C654 C622 1.432 . S
C654 C653 1.317 . S
C655 O639 1.283 . S
C655 O642 1.243 . S
C656 C657 1.382 . S
C656 C660 1.393 . S
C656 C663 1.500 . S
C657 C656 1.382 . S
C657 C658 1.400 . S
C657 H668 0.930 . S
C658 C657 1.400 . S
C658 C659 1.384 . S
C659 C658 1.384 . S
C659 C661 1.392 . S
C659 H669 0.931 . S
C660 C656 1.393 . S
C660 C661 1.401 . S
C660 H670 0.930 . S
C661 C659 1.392 . S
C661 C660 1.401 . S
C661 H671 0.930 . S
C662 O640 1.262 . S
C662 O641 1.260 . S
C663 Tb599 2.833 . S
C663 O638 1.251 . S
C663 O643 1.256 . S
C663 C656 1.500 . S
H664 C647 0.930 . S
H665 C648 0.931 . S
H666 C649 0.930 . S
H667 C650 0.930 . S
H668 C657 0.930 . S
H669 C659 0.931 . S
H670 C660 0.930 . S
H671 C661 0.930 . S
Co672 O675 2.042 . S
Co672 O682 2.264 . S
Co672 O701 2.286 . S
Co672 O702 2.069 . S
Co672 O704 2.015 1_455 S
Co673 O675 2.122 . S
Co673 O681 2.073 . S
Co673 O682 2.327 . S
Co673 O683 1.976 1_455 S
Co674 O675 2.082 1_545 S
Co674 O677 2.092 1_455 S
Co674 O684 2.109 1_445 S
Co674 O685 2.147 . S
Co674 O689 2.114 . S
Co674 O703 2.139 1_445 S
O675 Co672 2.042 . S
O675 Co673 2.122 . S
O675 Co674 2.082 1_565 S
O675 H676 0.980 . S
H676 O675 0.980 . S
O677 Co674 2.092 1_655 S
O677 Co678 2.042 . S
O677 Co679 2.122 . S
O677 H680 0.980 . S
Co678 O677 2.042 . S
Co678 O686 2.286 . S
Co678 O687 2.069 . S
Co678 O688 2.015 1_655 S
Co678 O691 2.264 . S
Co679 O677 2.122 . S
Co679 O690 1.976 1_655 S
Co679 O691 2.327 . S
Co679 O692 2.073 . S
H680 O677 0.980 . S
O681 Co673 2.073 . S
O681 C696 1.245 . S
O682 Co672 2.264 . S
O682 Co673 2.327 . S
O682 C696 1.257 . S
O683 Co673 1.976 1_655 S
O683 C695 1.251 . S
O684 Co674 2.109 1_665 S
O684 C695 1.274 . S
O685 Co674 2.147 . S
O685 C698 1.246 . S
O686 Co678 2.286 . S
O686 C697 1.259 . S
O687 Co678 2.069 . S
O687 C697 1.289 . S
O688 Co678 2.015 1_455 S
O688 C698 1.257 . S
O689 Co674 2.114 . S
O689 C699 1.274 . S
O690 Co679 1.976 1_455 S
O690 C699 1.251 . S
O691 Co678 2.264 . S
O691 Co679 2.327 . S
O691 C700 1.257 . S
O692 Co679 2.073 . S
O692 C700 1.245 . S
C693 O701 1.259 . S
C693 O702 1.289 . S
C694 O703 1.246 . S
C694 O704 1.257 . S
C695 O683 1.251 . S
C695 O684 1.274 . S
C696 O681 1.245 . S
C696 O682 1.257 . S
C697 O686 1.259 . S
C697 O687 1.289 . S
C698 O685 1.246 . S
C698 O688 1.257 . S
C699 O689 1.274 . S
C699 O690 1.251 . S
C700 O691 1.257 . S
C700 O692 1.245 . S
O701 Co672 2.286 . S
O701 C693 1.259 . S
O702 Co672 2.069 . S
O702 C693 1.289 . S
O703 Co674 2.139 1_665 S
O703 C694 1.246 . S
O704 Co672 2.015 1_655 S
O704 C694 1.257 . S
Co705 O708 2.042 1_556 S
Co705 O715 2.264 1_556 S
Co705 O734 2.286 . S
Co705 O735 2.069 . S
Co705 O737 2.015 . S
Co706 O708 2.122 . S
Co706 O714 2.073 . S
Co706 O715 2.327 . S
Co706 O716 1.976 . S
Co707 O708 2.081 1_545 S
Co707 O710 2.093 1_554 S
Co707 O717 2.110 1_545 S
Co707 O718 2.148 . S
Co707 O722 2.113 1_554 S
Co707 O736 2.139 1_544 S
O708 Co705 2.042 1_554 S
O708 Co706 2.122 . S
O708 Co707 2.081 1_565 S
O708 H709 0.980 . S
H709 O708 0.980 . S
O710 Co707 2.093 1_556 S
O710 Co711 2.042 1_556 S
O710 Co712 2.122 . S
O710 H713 0.980 . S
Co711 O710 2.042 1_554 S
Co711 O719 2.286 . S
Co711 O720 2.069 . S
Co711 O721 2.015 . S
Co711 O724 2.264 1_554 S
Co712 O710 2.122 . S
Co712 O723 1.976 . S
Co712 O724 2.327 . S
Co712 O725 2.073 . S
H713 O710 0.980 . S
O714 Co706 2.073 . S
O714 C729 1.245 . S
O715 Co705 2.264 1_554 S
O715 Co706 2.327 . S
O715 C729 1.257 . S
O716 Co706 1.976 . S
O716 C728 1.251 . S
O717 Co707 2.110 1_565 S
O717 C728 1.274 . S
O718 Co707 2.148 . S
O718 C731 1.246 . S
O719 Co711 2.286 . S
O719 C730 1.259 . S
O720 Co711 2.069 . S
O720 C730 1.289 . S
O721 Co711 2.015 . S
O721 C731 1.257 . S
O722 Co707 2.113 1_556 S
O722 C732 1.274 . S
O723 Co712 1.976 . S
O723 C732 1.251 . S
O724 Co711 2.264 1_556 S
O724 Co712 2.327 . S
O724 C733 1.257 . S
O725 Co712 2.073 . S
O725 C733 1.245 . S
C726 O734 1.259 . S
C726 O735 1.289 . S
C727 O736 1.246 . S
C727 O737 1.257 . S
C728 O716 1.251 . S
C728 O717 1.274 . S
C729 O714 1.245 . S
C729 O715 1.257 . S
C730 O719 1.259 . S
C730 O720 1.289 . S
C731 O718 1.246 . S
C731 O721 1.257 . S
C732 O722 1.274 . S
C732 O723 1.251 . S
C733 O724 1.257 . S
C733 O725 1.245 . S
O734 Co705 2.286 . S
O734 C726 1.259 . S
O735 Co705 2.069 . S
O735 C726 1.289 . S
O736 Co707 2.139 1_566 S
O736 C727 1.246 . S
O737 Co705 2.015 . S
O737 C727 1.257 . S
Co738 O741 2.042 1_556 S
Co738 O748 2.264 1_556 S
Co738 O767 2.286 . S
Co738 O768 2.069 . S
Co738 O770 2.015 1_455 S
Co739 O741 2.122 . S
Co739 O747 2.073 . S
Co739 O748 2.327 . S
Co739 O749 1.976 1_455 S
Co740 O741 2.088 . S
Co740 O743 2.086 1_454 S
Co740 O750 2.111 1_455 S
Co740 O751 2.144 . S
Co740 O755 2.112 1_554 S
Co740 O769 2.143 1_454 S
O741 Co738 2.042 1_554 S
O741 Co739 2.122 . S
O741 Co740 2.088 . S
O741 H742 0.980 . S
H742 O741 0.980 . S
O743 Co740 2.086 1_656 S
O743 Co744 2.042 1_556 S
O743 Co745 2.122 . S
O743 H746 0.980 . S
Co744 O743 2.042 1_554 S
Co744 O752 2.286 . S
Co744 O753 2.069 . S
Co744 O754 2.015 1_655 S
Co744 O757 2.264 1_554 S
Co745 O743 2.122 . S
Co745 O756 1.976 1_655 S
Co745 O757 2.327 . S
Co745 O758 2.073 . S
H746 O743 0.980 . S
O747 Co739 2.073 . S
O747 C762 1.245 . S
O748 Co738 2.264 1_554 S
O748 Co739 2.327 . S
O748 C762 1.257 . S
O749 Co739 1.976 1_655 S
O749 C761 1.251 . S
O750 Co740 2.111 1_655 S
O750 C761 1.274 . S
O751 Co740 2.144 . S
O751 C764 1.246 . S
O752 Co744 2.286 . S
O752 C763 1.259 . S
O753 Co744 2.069 . S
O753 C763 1.289 . S
O754 Co744 2.015 1_455 S
O754 C764 1.257 . S
O755 Co740 2.112 1_556 S
O755 C765 1.274 . S
O756 Co745 1.976 1_455 S
O756 C765 1.251 . S
O757 Co744 2.264 1_556 S
O757 Co745 2.327 . S
O757 C766 1.257 . S
O758 Co745 2.073 . S
O758 C766 1.245 . S
C759 O767 1.259 . S
C759 O768 1.289 . S
C760 O769 1.246 . S
C760 O770 1.257 . S
C761 O749 1.251 . S
C761 O750 1.274 . S
C762 O747 1.245 . S
C762 O748 1.257 . S
C763 O752 1.259 . S
C763 O753 1.289 . S
C764 O751 1.246 . S
C764 O754 1.257 . S
C765 O755 1.274 . S
C765 O756 1.251 . S
C766 O757 1.257 . S
C766 O758 1.245 . S
O767 Co738 2.286 . S
O767 C759 1.259 . S
O768 Co738 2.069 . S
O768 C759 1.289 . S
O769 Co740 2.143 1_656 S
O769 C760 1.246 . S
O770 Co738 2.015 1_655 S
O770 C760 1.257 . S
Co771 O774 2.042 1_556 S
Co771 O781 2.264 1_556 S
Co771 O800 2.286 . S
Co771 O801 2.069 . S
Co771 O803 2.015 . S
Co772 O774 2.122 . S
Co772 O780 2.073 . S
Co772 O781 2.327 . S
Co772 O782 1.976 . S
Co773 O774 2.087 . S
Co773 O776 2.087 1_554 S
Co773 O783 2.111 . S
Co773 O784 2.143 . S
Co773 O788 2.111 1_554 S
Co773 O802 2.143 1_554 S
O774 Co771 2.042 1_554 S
O774 Co772 2.122 . S
O774 Co773 2.087 . S
O774 H775 0.980 . S
H775 O774 0.980 . S
O776 Co773 2.087 1_556 S
O776 Co777 2.042 1_556 S
O776 Co778 2.122 . S
O776 H779 0.980 . S
Co777 O776 2.042 1_554 S
Co777 O785 2.286 . S
Co777 O786 2.069 . S
Co777 O787 2.015 . S
Co777 O790 2.264 1_554 S
Co778 O776 2.122 . S
Co778 O789 1.976 . S
Co778 O790 2.327 . S
Co778 O791 2.073 . S
H779 O776 0.980 . S
O780 Co772 2.073 . S
O780 C795 1.245 . S
O781 Co771 2.264 1_554 S
O781 Co772 2.327 . S
O781 C795 1.257 . S
O782 Co772 1.976 . S
O782 C794 1.251 . S
O783 Co773 2.111 . S
O783 C794 1.274 . S
O784 Co773 2.143 . S
O784 C797 1.246 . S
O785 Co777 2.286 . S
O785 C796 1.259 . S
O786 Co777 2.069 . S
O786 C796 1.289 . S
O787 Co777 2.015 . S
O787 C797 1.257 . S
O788 Co773 2.111 1_556 S
O788 C798 1.274 . S
O789 Co778 1.976 . S
O789 C798 1.251 . S
O790 Co777 2.264 1_556 S
O790 Co778 2.327 . S
O790 C799 1.257 . S
O791 Co778 2.073 . S
O791 C799 1.245 . S
C792 O800 1.259 . S
C792 O801 1.289 . S
C793 O802 1.246 . S
C793 O803 1.257 . S
C794 O782 1.251 . S
C794 O783 1.274 . S
C795 O780 1.245 . S
C795 O781 1.257 . S
C796 O785 1.259 . S
C796 O786 1.289 . S
C797 O784 1.246 . S
C797 O787 1.257 . S
C798 O788 1.274 . S
C798 O789 1.251 . S
C799 O790 1.257 . S
C799 O791 1.245 . S
O800 Co771 2.286 . S
O800 C792 1.259 . S
O801 Co771 2.069 . S
O801 C792 1.289 . S
O802 Co773 2.143 1_556 S
O802 C793 1.246 . S
O803 Co771 2.015 . S
O803 C793 1.257 . S
Co804 O807 2.042 . S
Co804 O814 2.264 . S
Co804 O833 2.286 . S
Co804 O834 2.069 . S
Co804 O836 2.015 . S
Co805 O807 2.122 . S
Co805 O813 2.073 . S
Co805 O814 2.327 . S
Co805 O815 1.976 . S
Co806 O807 2.088 . S
Co806 O809 2.086 1_455 S
Co806 O816 2.112 . S
Co806 O817 2.143 1_455 S
Co806 O821 2.111 1_455 S
Co806 O835 2.144 . S
O807 Co804 2.042 . S
O807 Co805 2.122 . S
O807 Co806 2.088 . S
O807 H808 0.980 . S
H808 O807 0.980 . S
O809 Co806 2.086 1_655 S
O809 Co810 2.042 . S
O809 Co811 2.122 . S
O809 H812 0.980 . S
Co810 O809 2.042 . S
Co810 O818 2.286 . S
Co810 O819 2.069 . S
Co810 O820 2.015 . S
Co810 O823 2.264 . S
Co811 O809 2.122 . S
Co811 O822 1.976 . S
Co811 O823 2.327 . S
Co811 O824 2.073 . S
H812 O809 0.980 . S
O813 Co805 2.073 . S
O813 C828 1.245 . S
O814 Co804 2.264 . S
O814 Co805 2.327 . S
O814 C828 1.257 . S
O815 Co805 1.976 . S
O815 C827 1.251 . S
O816 Co806 2.112 . S
O816 C827 1.274 . S
O817 Co806 2.143 1_655 S
O817 C830 1.246 . S
O818 Co810 2.286 . S
O818 C829 1.259 . S
O819 Co810 2.069 . S
O819 C829 1.289 . S
O820 Co810 2.015 . S
O820 C830 1.257 . S
O821 Co806 2.111 1_655 S
O821 C831 1.274 . S
O822 Co811 1.976 . S
O822 C831 1.251 . S
O823 Co810 2.264 . S
O823 Co811 2.327 . S
O823 C832 1.257 . S
O824 Co811 2.073 . S
O824 C832 1.245 . S
C825 O833 1.259 . S
C825 O834 1.289 . S
C826 O835 1.246 . S
C826 O836 1.257 . S
C827 O815 1.251 . S
C827 O816 1.274 . S
C828 O813 1.245 . S
C828 O814 1.257 . S
C829 O818 1.259 . S
C829 O819 1.289 . S
C830 O817 1.246 . S
C830 O820 1.257 . S
C831 O821 1.274 . S
C831 O822 1.251 . S
C832 O823 1.257 . S
C832 O824 1.245 . S
O833 Co804 2.286 . S
O833 C825 1.259 . S
O834 Co804 2.069 . S
O834 C825 1.289 . S
O835 Co806 2.144 . S
O835 C826 1.246 . S
O836 Co804 2.015 . S
O836 C826 1.257 . S
Co837 O840 2.042 . S
Co837 O847 2.264 . S
Co837 O866 2.286 . S
Co837 O867 2.069 . S
Co837 O869 2.015 1_565 S
Co838 O840 2.122 . S
Co838 O846 2.073 . S
Co838 O847 2.327 . S
Co838 O848 1.976 1_565 S
Co839 O840 2.081 1_545 S
Co839 O842 2.093 . S
Co839 O849 2.115 . S
Co839 O850 2.141 1_545 S
Co839 O854 2.107 1_545 S
Co839 O868 2.146 . S
O840 Co837 2.042 . S
O840 Co838 2.122 . S
O840 Co839 2.081 1_565 S
O840 H841 0.980 . S
H841 O840 0.980 . S
O842 Co839 2.093 . S
O842 Co843 2.042 . S
O842 Co844 2.122 . S
O842 H845 0.980 . S
Co843 O842 2.042 . S
Co843 O851 2.286 . S
Co843 O852 2.069 . S
Co843 O853 2.015 1_545 S
Co843 O856 2.264 . S
Co844 O842 2.122 . S
Co844 O855 1.976 1_545 S
Co844 O856 2.327 . S
Co844 O857 2.073 . S
H845 O842 0.980 . S
O846 Co838 2.073 . S
O846 C861 1.245 . S
O847 Co837 2.264 . S
O847 Co838 2.327 . S
O847 C861 1.257 . S
O848 Co838 1.976 1_545 S
O848 C860 1.251 . S
O849 Co839 2.115 . S
O849 C860 1.274 . S
O850 Co839 2.141 1_565 S
O850 C863 1.246 . S
O851 Co843 2.286 . S
O851 C862 1.259 . S
O852 Co843 2.069 . S
O852 C862 1.289 . S
O853 Co843 2.015 1_565 S
O853 C863 1.257 . S
O854 Co839 2.107 1_565 S
O854 C864 1.274 . S
O855 Co844 1.976 1_565 S
O855 C864 1.251 . S
O856 Co843 2.264 . S
O856 Co844 2.327 . S
O856 C865 1.257 . S
O857 Co844 2.073 . S
O857 C865 1.245 . S
C858 O866 1.259 . S
C858 O867 1.289 . S
C859 O868 1.246 . S
C859 O869 1.257 . S
C860 O848 1.251 . S
C860 O849 1.274 . S
C861 O846 1.245 . S
C861 O847 1.257 . S
C862 O851 1.259 . S
C862 O852 1.289 . S
C863 O850 1.246 . S
C863 O853 1.257 . S
C864 O854 1.274 . S
C864 O855 1.251 . S
C865 O856 1.257 . S
C865 O857 1.245 . S
O866 Co837 2.286 . S
O866 C858 1.259 . S
O867 Co837 2.069 . S
O867 C858 1.289 . S
O868 Co839 2.146 . S
O868 C859 1.246 . S
O869 Co837 2.015 1_545 S
O869 C859 1.257 . S
H870 C888 0.951 . S
H871 C890 0.951 . S
H872 C892 0.950 . S
H873 C893 0.950 . S
H874 C895 0.950 . S
H875 C898 0.950 . S
H876 C899 0.950 . S
H877 C901 0.950 . S
H878 C902 0.950 . S
H879 C903 0.951 . S
H880 C905 0.951 . S
H881 C907 0.950 . S
H882 C908 0.950 . S
H883 C910 0.950 . S
H884 C913 0.950 . S
H885 C914 0.950 . S
H886 C916 0.950 . S
H887 C917 0.950 . S
C888 H870 0.951 . S
C888 C889 1.366 . S
C888 C890 1.388 . S
C889 C888 1.366 . S
C889 C893 1.385 . S
C890 H871 0.951 . S
C890 C888 1.388 . S
C890 C891 1.366 . S
C891 C890 1.366 . S
C891 C892 1.414 . S
C891 C894 1.499 . S
C892 H872 0.950 . S
C892 C891 1.414 . S
C892 C893 1.374 . S
C893 H873 0.950 . S
C893 C889 1.385 . S
C893 C892 1.374 . S
C894 C891 1.499 . S
C894 C895 1.373 . S
C894 C896 1.389 . S
C895 H874 0.950 . S
C895 C894 1.373 . S
C895 C911 1.377 . S
C896 C894 1.389 . S
C896 C897 1.524 . S
C896 C910 1.377 . S
C897 C896 1.524 . S
C897 C898 1.397 . S
C897 C902 1.363 . S
C898 H875 0.950 . S
C898 C897 1.397 . S
C898 C899 1.334 . S
C899 H876 0.950 . S
C899 C898 1.334 . S
C899 C900 1.287 . S
C900 C899 1.287 . S
C900 C901 1.524 . S
C900 H919 0.913 . S
C901 H877 0.950 . S
C901 C900 1.524 . S
C901 C902 1.415 . S
C902 H878 0.950 . S
C902 C897 1.363 . S
C902 C901 1.415 . S
C903 H879 0.951 . S
C903 C904 1.366 . S
C903 C905 1.388 . S
C904 C903 1.366 . S
C904 C908 1.385 . S
C905 H880 0.951 . S
C905 C903 1.388 . S
C905 C906 1.366 . S
C906 C905 1.366 . S
C906 C907 1.414 . S
C906 C909 1.499 . S
C907 H881 0.950 . S
C907 C906 1.414 . S
C907 C908 1.374 . S
C908 H882 0.950 . S
C908 C904 1.385 . S
C908 C907 1.374 . S
C909 C906 1.499 . S
C909 C910 1.373 . S
C909 C911 1.389 . S
C910 H883 0.950 . S
C910 C896 1.377 . S
C910 C909 1.373 . S
C911 C895 1.377 . S
C911 C909 1.389 . S
C911 C912 1.524 . S
C912 C911 1.524 . S
C912 C913 1.397 . S
C912 C917 1.363 . S
C913 H884 0.950 . S
C913 C912 1.397 . S
C913 C914 1.334 . S
C914 H885 0.950 . S
C914 C913 1.334 . S
C914 C915 1.287 . S
C915 C914 1.287 . S
C915 C916 1.524 . S
C915 H918 0.999 . S
C916 H886 0.950 . S
C916 C915 1.524 . S
C916 C917 1.415 . S
C917 H887 0.950 . S
C917 C912 1.363 . S
C917 C916 1.415 . S
H918 C915 0.999 . S
H919 C900 0.913 . S
H920 C938 0.951 . S
H921 C940 0.951 . S
H922 C942 0.950 . S
H923 C943 0.950 . S
H924 C945 0.950 . S
H925 C948 0.950 . S
H926 C949 0.950 . S
H927 C951 0.950 . S
H928 C952 0.950 . S
H929 C953 0.951 . S
H930 C955 0.951 . S
H931 C957 0.950 . S
H932 C958 0.950 . S
H933 C960 0.950 . S
H934 C963 0.950 . S
H935 C964 0.950 . S
H936 C966 0.950 . S
H937 C967 0.950 . S
C938 H920 0.951 . S
C938 C939 1.366 . S
C938 C940 1.388 . S
C939 C938 1.366 . S
C939 C943 1.385 . S
C940 H921 0.951 . S
C940 C938 1.388 . S
C940 C941 1.366 . S
C941 C940 1.366 . S
C941 C942 1.414 . S
C941 C944 1.499 . S
C942 H922 0.950 . S
C942 C941 1.414 . S
C942 C943 1.374 . S
C943 H923 0.950 . S
C943 C939 1.385 . S
C943 C942 1.374 . S
C944 C941 1.499 . S
C944 C945 1.373 . S
C944 C946 1.389 . S
C945 H924 0.950 . S
C945 C944 1.373 . S
C945 C961 1.377 . S
C946 C944 1.389 . S
C946 C947 1.524 . S
C946 C960 1.377 . S
C947 C946 1.524 . S
C947 C948 1.397 . S
C947 C952 1.363 . S
C948 H925 0.950 . S
C948 C947 1.397 . S
C948 C949 1.334 . S
C949 H926 0.950 . S
C949 C948 1.334 . S
C949 C950 1.287 . S
C950 C949 1.287 . S
C950 C951 1.524 . S
C950 H969 0.913 . S
C951 H927 0.950 . S
C951 C950 1.524 . S
C951 C952 1.415 . S
C952 H928 0.950 . S
C952 C947 1.363 . S
C952 C951 1.415 . S
C953 H929 0.951 . S
C953 C954 1.366 . S
C953 C955 1.388 . S
C954 C953 1.366 . S
C954 C958 1.385 . S
C955 H930 0.951 . S
C955 C953 1.388 . S
C955 C956 1.366 . S
C956 C955 1.366 . S
C956 C957 1.414 . S
C956 C959 1.499 . S
C957 H931 0.950 . S
C957 C956 1.414 . S
C957 C958 1.374 . S
C958 H932 0.950 . S
C958 C954 1.385 . S
C958 C957 1.374 . S
C959 C956 1.499 . S
C959 C960 1.373 . S
C959 C961 1.389 . S
C960 H933 0.950 . S
C960 C946 1.377 . S
C960 C959 1.373 . S
C961 C945 1.377 . S
C961 C959 1.389 . S
C961 C962 1.524 . S
C962 C961 1.524 . S
C962 C963 1.397 . S
C962 C967 1.363 . S
C963 H934 0.950 . S
C963 C962 1.397 . S
C963 C964 1.334 . S
C964 H935 0.950 . S
C964 C963 1.334 . S
C964 C965 1.287 . S
C965 C964 1.287 . S
C965 C966 1.524 . S
C965 H968 0.999 . S
C966 H936 0.950 . S
C966 C965 1.524 . S
C966 C967 1.415 . S
C967 H937 0.950 . S
C967 C962 1.363 . S
C967 C966 1.415 . S
H968 C965 0.999 . S
H969 C950 0.913 . S
H970 C988 0.951 . S
H971 C990 0.951 . S
H972 C992 0.950 . S
H973 C993 0.950 . S
H974 C995 0.950 . S
H975 C998 0.950 . S
H976 C999 0.950 . S
H977 C1001 0.950 . S
H978 C1002 0.950 . S
H979 C1003 0.951 . S
H980 C1005 0.951 . S
H981 C1007 0.950 . S
H982 C1008 0.950 . S
H983 C1010 0.950 . S
H984 C1013 0.950 . S
H985 C1014 0.950 . S
H986 C1016 0.950 . S
H987 C1017 0.950 . S
C988 H970 0.951 . S
C988 C989 1.366 . S
C988 C990 1.388 . S
C989 C988 1.366 . S
C989 C993 1.385 . S
C990 H971 0.951 . S
C990 C988 1.388 . S
C990 C991 1.366 . S
C991 C990 1.366 . S
C991 C992 1.414 . S
C991 C994 1.499 . S
C992 H972 0.950 . S
C992 C991 1.414 . S
C992 C993 1.374 . S
C993 H973 0.950 . S
C993 C989 1.385 . S
C993 C992 1.374 . S
C994 C991 1.499 . S
C994 C995 1.373 . S
C994 C996 1.389 . S
C995 H974 0.950 . S
C995 C994 1.373 . S
C995 C1011 1.377 . S
C996 C994 1.389 . S
C996 C997 1.524 . S
C996 C1010 1.377 . S
C997 C996 1.524 . S
C997 C998 1.397 . S
C997 C1002 1.363 . S
C998 H975 0.950 . S
C998 C997 1.397 . S
C998 C999 1.334 . S
C999 H976 0.950 . S
C999 C998 1.334 . S
C999 C1000 1.287 . S
C1000 C999 1.287 . S
C1000 C1001 1.524 . S
C1000 H1019 0.913 . S
C1001 H977 0.950 . S
C1001 C1000 1.524 . S
C1001 C1002 1.415 . S
C1002 H978 0.950 . S
C1002 C997 1.363 . S
C1002 C1001 1.415 . S
C1003 H979 0.951 . S
C1003 C1004 1.366 . S
C1003 C1005 1.388 . S
C1004 C1003 1.366 . S
C1004 C1008 1.385 . S
C1005 H980 0.951 . S
C1005 C1003 1.388 . S
C1005 C1006 1.366 . S
C1006 C1005 1.366 . S
C1006 C1007 1.414 . S
C1006 C1009 1.499 . S
C1007 H981 0.950 . S
C1007 C1006 1.414 . S
C1007 C1008 1.374 . S
C1008 H982 0.950 . S
C1008 C1004 1.385 . S
C1008 C1007 1.374 . S
C1009 C1006 1.499 . S
C1009 C1010 1.373 . S
C1009 C1011 1.389 . S
C1010 H983 0.950 . S
C1010 C996 1.377 . S
C1010 C1009 1.373 . S
C1011 C995 1.377 . S
C1011 C1009 1.389 . S
C1011 C1012 1.524 . S
C1012 C1011 1.524 . S
C1012 C1013 1.397 . S
C1012 C1017 1.363 . S
C1013 H984 0.950 . S
C1013 C1012 1.397 . S
C1013 C1014 1.334 . S
C1014 H985 0.950 . S
C1014 C1013 1.334 . S
C1014 C1015 1.287 . S
C1015 C1014 1.287 . S
C1015 C1016 1.524 . S
C1015 H1018 0.999 . S
C1016 H986 0.950 . S
C1016 C1015 1.524 . S
C1016 C1017 1.415 . S
C1017 H987 0.950 . S
C1017 C1012 1.363 . S
C1017 C1016 1.415 . S
H1018 C1015 0.999 . S
H1019 C1000 0.913 . S
H1020 C1038 0.951 . S
H1021 C1040 0.951 . S
H1022 C1042 0.950 . S
H1023 C1043 0.950 . S
H1024 C1045 0.950 . S
H1025 C1048 0.950 . S
H1026 C1049 0.950 . S
H1027 C1051 0.950 . S
H1028 C1052 0.950 . S
H1029 C1053 0.951 . S
H1030 C1055 0.951 . S
H1031 C1057 0.950 . S
H1032 C1058 0.950 . S
H1033 C1060 0.950 . S
H1034 C1063 0.950 . S
H1035 C1064 0.950 . S
H1036 C1066 0.950 1_655 S
H1037 C1067 0.950 . S
C1038 H1020 0.951 . S
C1038 C1039 1.366 . S
C1038 C1040 1.388 . S
C1039 C1038 1.366 . S
C1039 C1043 1.385 . S
C1040 H1021 0.951 . S
C1040 C1038 1.388 . S
C1040 C1041 1.366 . S
C1041 C1040 1.366 . S
C1041 C1042 1.414 . S
C1041 C1044 1.499 . S
C1042 H1022 0.950 . S
C1042 C1041 1.414 . S
C1042 C1043 1.374 . S
C1043 H1023 0.950 . S
C1043 C1039 1.385 . S
C1043 C1042 1.374 . S
C1044 C1041 1.499 . S
C1044 C1045 1.373 . S
C1044 C1046 1.389 . S
C1045 H1024 0.950 . S
C1045 C1044 1.373 . S
C1045 C1061 1.377 . S
C1046 C1044 1.389 . S
C1046 C1047 1.524 . S
C1046 C1060 1.377 . S
C1047 C1046 1.524 . S
C1047 C1048 1.397 . S
C1047 C1052 1.363 . S
C1048 H1025 0.950 . S
C1048 C1047 1.397 . S
C1048 C1049 1.334 . S
C1049 H1026 0.950 . S
C1049 C1048 1.334 . S
C1049 C1050 1.287 . S
C1050 C1049 1.287 . S
C1050 C1051 1.524 . S
C1050 H1069 0.913 . S
C1051 H1027 0.950 . S
C1051 C1050 1.524 . S
C1051 C1052 1.415 . S
C1052 H1028 0.950 . S
C1052 C1047 1.363 . S
C1052 C1051 1.415 . S
C1053 H1029 0.951 . S
C1053 C1054 1.366 . S
C1053 C1055 1.388 . S
C1054 C1053 1.366 . S
C1054 C1058 1.385 . S
C1055 H1030 0.951 . S
C1055 C1053 1.388 . S
C1055 C1056 1.366 . S
C1056 C1055 1.366 . S
C1056 C1057 1.414 . S
C1056 C1059 1.499 . S
C1057 H1031 0.950 . S
C1057 C1056 1.414 . S
C1057 C1058 1.374 . S
C1058 H1032 0.950 . S
C1058 C1054 1.385 . S
C1058 C1057 1.374 . S
C1059 C1056 1.499 . S
C1059 C1060 1.373 . S
C1059 C1061 1.389 . S
C1060 H1033 0.950 . S
C1060 C1046 1.377 . S
C1060 C1059 1.373 . S
C1061 C1045 1.377 . S
C1061 C1059 1.389 . S
C1061 C1062 1.524 . S
C1062 C1061 1.524 . S
C1062 C1063 1.397 . S
C1062 C1067 1.363 . S
C1063 H1034 0.950 . S
C1063 C1062 1.397 . S
C1063 C1064 1.334 . S
C1064 H1035 0.950 . S
C1064 C1063 1.334 . S
C1064 C1065 1.287 . S
C1065 C1064 1.287 . S
C1065 C1066 1.524 . S
C1065 H1068 0.999 1_455 S
C1066 H1036 0.950 1_455 S
C1066 C1065 1.524 . S
C1066 C1067 1.415 . S
C1067 H1037 0.950 . S
C1067 C1062 1.363 . S
C1067 C1066 1.415 . S
H1068 C1065 0.999 1_655 S
H1069 C1050 0.913 . S
H1070 C1088 0.951 . S
H1071 C1090 0.951 . S
H1072 C1092 0.950 . S
H1073 C1093 0.950 . S
H1074 C1095 0.950 . S
H1075 C1098 0.950 . S
H1076 C1099 0.950 . S
H1077 C1101 0.950 . S
H1078 C1102 0.950 . S
H1079 C1103 0.951 . S
H1080 C1105 0.951 . S
H1081 C1107 0.950 . S
H1082 C1108 0.950 . S
H1083 C1110 0.950 . S
H1084 C1113 0.950 . S
H1085 C1114 0.950 . S
H1086 C1116 0.950 . S
H1087 C1117 0.950 . S
C1088 H1070 0.951 . S
C1088 C1089 1.366 . S
C1088 C1090 1.388 . S
C1089 C1088 1.366 . S
C1089 C1093 1.385 . S
C1090 H1071 0.951 . S
C1090 C1088 1.388 . S
C1090 C1091 1.366 . S
C1091 C1090 1.366 . S
C1091 C1092 1.414 . S
C1091 C1094 1.499 . S
C1092 H1072 0.950 . S
C1092 C1091 1.414 . S
C1092 C1093 1.374 . S
C1093 H1073 0.950 . S
C1093 C1089 1.385 . S
C1093 C1092 1.374 . S
C1094 C1091 1.499 . S
C1094 C1095 1.373 . S
C1094 C1096 1.389 . S
C1095 H1074 0.950 . S
C1095 C1094 1.373 . S
C1095 C1111 1.377 . S
C1096 C1094 1.389 . S
C1096 C1097 1.524 . S
C1096 C1110 1.377 . S
C1097 C1096 1.524 . S
C1097 C1098 1.397 . S
C1097 C1102 1.363 . S
C1098 H1075 0.950 . S
C1098 C1097 1.397 . S
C1098 C1099 1.334 . S
C1099 H1076 0.950 . S
C1099 C1098 1.334 . S
C1099 C1100 1.287 . S
C1100 C1099 1.287 . S
C1100 C1101 1.524 . S
C1100 H1119 0.913 . S
C1101 H1077 0.950 . S
C1101 C1100 1.524 . S
C1101 C1102 1.415 . S
C1102 H1078 0.950 . S
C1102 C1097 1.363 . S
C1102 C1101 1.415 . S
C1103 H1079 0.951 . S
C1103 C1104 1.366 . S
C1103 C1105 1.388 . S
C1104 C1103 1.366 . S
C1104 C1108 1.385 . S
C1105 H1080 0.951 . S
C1105 C1103 1.388 . S
C1105 C1106 1.366 . S
C1106 C1105 1.366 . S
C1106 C1107 1.414 . S
C1106 C1109 1.499 . S
C1107 H1081 0.950 . S
C1107 C1106 1.414 . S
C1107 C1108 1.374 . S
C1108 H1082 0.950 . S
C1108 C1104 1.385 . S
C1108 C1107 1.374 . S
C1109 C1106 1.499 . S
C1109 C1110 1.373 . S
C1109 C1111 1.389 . S
C1110 H1083 0.950 . S
C1110 C1096 1.377 . S
C1110 C1109 1.373 . S
C1111 C1095 1.377 . S
C1111 C1109 1.389 . S
C1111 C1112 1.524 . S
C1112 C1111 1.524 . S
C1112 C1113 1.397 . S
C1112 C1117 1.363 . S
C1113 H1084 0.950 . S
C1113 C1112 1.397 . S
C1113 C1114 1.334 . S
C1114 H1085 0.950 . S
C1114 C1113 1.334 . S
C1114 C1115 1.287 . S
C1115 C1114 1.287 . S
C1115 C1116 1.524 . S
C1115 H1118 0.999 . S
C1116 H1086 0.950 . S
C1116 C1115 1.524 . S
C1116 C1117 1.415 . S
C1117 H1087 0.950 . S
C1117 C1112 1.363 . S
C1117 C1116 1.415 . S
H1118 C1115 0.999 . S
H1119 C1100 0.913 . S
H1120 C1138 0.951 . S
H1121 C1140 0.951 . S
H1122 C1142 0.950 . S
H1123 C1143 0.950 . S
H1124 C1145 0.950 . S
H1125 C1148 0.950 . S
H1126 C1149 0.950 . S
H1127 C1151 0.950 . S
H1128 C1152 0.950 . S
H1129 C1153 0.951 . S
H1130 C1155 0.951 . S
H1131 C1157 0.950 . S
H1132 C1158 0.950 . S
H1133 C1160 0.950 . S
H1134 C1163 0.950 . S
H1135 C1164 0.950 . S
H1136 C1166 0.950 . S
H1137 C1167 0.950 . S
C1138 H1120 0.951 . S
C1138 C1139 1.366 . S
C1138 C1140 1.388 . S
C1139 C1138 1.366 . S
C1139 C1143 1.385 . S
C1140 H1121 0.951 . S
C1140 C1138 1.388 . S
C1140 C1141 1.366 . S
C1141 C1140 1.366 . S
C1141 C1142 1.414 . S
C1141 C1144 1.499 . S
C1142 H1122 0.950 . S
C1142 C1141 1.414 . S
C1142 C1143 1.374 . S
C1143 H1123 0.950 . S
C1143 C1139 1.385 . S
C1143 C1142 1.374 . S
C1144 C1141 1.499 . S
C1144 C1145 1.373 . S
C1144 C1146 1.389 . S
C1145 H1124 0.950 . S
C1145 C1144 1.373 . S
C1145 C1161 1.377 . S
C1146 C1144 1.389 . S
C1146 C1147 1.524 . S
C1146 C1160 1.377 . S
C1147 C1146 1.524 . S
C1147 C1148 1.397 . S
C1147 C1152 1.363 . S
C1148 H1125 0.950 . S
C1148 C1147 1.397 . S
C1148 C1149 1.334 . S
C1149 H1126 0.950 . S
C1149 C1148 1.334 . S
C1149 C1150 1.287 . S
C1150 C1149 1.287 . S
C1150 C1151 1.524 . S
C1150 H1169 0.913 . S
C1151 H1127 0.950 . S
C1151 C1150 1.524 . S
C1151 C1152 1.415 . S
C1152 H1128 0.950 . S
C1152 C1147 1.363 . S
C1152 C1151 1.415 . S
C1153 H1129 0.951 . S
C1153 C1154 1.366 . S
C1153 C1155 1.388 . S
C1154 C1153 1.366 . S
C1154 C1158 1.385 . S
C1155 H1130 0.951 . S
C1155 C1153 1.388 . S
C1155 C1156 1.366 . S
C1156 C1155 1.366 . S
C1156 C1157 1.414 . S
C1156 C1159 1.499 . S
C1157 H1131 0.950 . S
C1157 C1156 1.414 . S
C1157 C1158 1.374 . S
C1158 H1132 0.950 . S
C1158 C1154 1.385 . S
C1158 C1157 1.374 . S
C1159 C1156 1.499 . S
C1159 C1160 1.373 . S
C1159 C1161 1.389 . S
C1160 H1133 0.950 . S
C1160 C1146 1.377 . S
C1160 C1159 1.373 . S
C1161 C1145 1.377 . S
C1161 C1159 1.389 . S
C1161 C1162 1.524 . S
C1162 C1161 1.524 . S
C1162 C1163 1.397 . S
C1162 C1167 1.363 . S
C1163 H1134 0.950 . S
C1163 C1162 1.397 . S
C1163 C1164 1.334 . S
C1164 H1135 0.950 . S
C1164 C1163 1.334 . S
C1164 C1165 1.287 . S
C1165 C1164 1.287 . S
C1165 C1166 1.524 . S
C1165 H1168 0.999 . S
C1166 H1136 0.950 . S
C1166 C1165 1.524 . S
C1166 C1167 1.415 . S
C1167 H1137 0.950 . S
C1167 C1162 1.363 . S
C1167 C1166 1.415 . S
H1168 C1165 0.999 . S
H1169 C1150 0.913 . S
H1170 C1188 0.951 . S
H1171 C1190 0.951 . S
H1172 C1192 0.950 . S
H1173 C1193 0.950 . S
H1174 C1195 0.950 . S
H1175 C1198 0.950 . S
H1176 C1199 0.950 . S
H1177 C1201 0.950 . S
H1178 C1202 0.950 . S
H1179 C1203 0.951 . S
H1180 C1205 0.951 . S
H1181 C1207 0.950 . S
H1182 C1208 0.950 . S
H1183 C1210 0.950 . S
H1184 C1213 0.950 . S
H1185 C1214 0.950 1_455 S
H1186 C1216 0.950 . S
H1187 C1217 0.950 . S
C1188 H1170 0.951 . S
C1188 C1189 1.366 . S
C1188 C1190 1.388 . S
C1189 C1188 1.366 . S
C1189 C1193 1.385 . S
C1190 H1171 0.951 . S
C1190 C1188 1.388 . S
C1190 C1191 1.366 . S
C1191 C1190 1.366 . S
C1191 C1192 1.414 . S
C1191 C1194 1.499 . S
C1192 H1172 0.950 . S
C1192 C1191 1.414 . S
C1192 C1193 1.374 . S
C1193 H1173 0.950 . S
C1193 C1189 1.385 . S
C1193 C1192 1.374 . S
C1194 C1191 1.499 . S
C1194 C1195 1.373 . S
C1194 C1196 1.389 . S
C1195 H1174 0.950 . S
C1195 C1194 1.373 . S
C1195 C1211 1.377 . S
C1196 C1194 1.389 . S
C1196 C1197 1.524 . S
C1196 C1210 1.377 . S
C1197 C1196 1.524 . S
C1197 C1198 1.397 . S
C1197 C1202 1.363 . S
C1198 H1175 0.950 . S
C1198 C1197 1.397 . S
C1198 C1199 1.334 . S
C1199 H1176 0.950 . S
C1199 C1198 1.334 . S
C1199 C1200 1.287 . S
C1200 C1199 1.287 . S
C1200 C1201 1.524 . S
C1200 H1219 0.913 . S
C1201 H1177 0.950 . S
C1201 C1200 1.524 . S
C1201 C1202 1.415 . S
C1202 H1178 0.950 . S
C1202 C1197 1.363 . S
C1202 C1201 1.415 . S
C1203 H1179 0.951 . S
C1203 C1204 1.366 . S
C1203 C1205 1.388 . S
C1204 C1203 1.366 . S
C1204 C1208 1.385 . S
C1205 H1180 0.951 . S
C1205 C1203 1.388 . S
C1205 C1206 1.366 . S
C1206 C1205 1.366 . S
C1206 C1207 1.414 . S
C1206 C1209 1.499 . S
C1207 H1181 0.950 . S
C1207 C1206 1.414 . S
C1207 C1208 1.374 . S
C1208 H1182 0.950 . S
C1208 C1204 1.385 . S
C1208 C1207 1.374 . S
C1209 C1206 1.499 . S
C1209 C1210 1.373 . S
C1209 C1211 1.389 . S
C1210 H1183 0.950 . S
C1210 C1196 1.377 . S
C1210 C1209 1.373 . S
C1211 C1195 1.377 . S
C1211 C1209 1.389 . S
C1211 C1212 1.524 . S
C1212 C1211 1.524 . S
C1212 C1213 1.397 . S
C1212 C1217 1.363 . S
C1213 H1184 0.950 . S
C1213 C1212 1.397 . S
C1213 C1214 1.334 . S
C1214 H1185 0.950 1_655 S
C1214 C1213 1.334 . S
C1214 C1215 1.286 . S
C1215 C1214 1.286 . S
C1215 C1216 1.524 . S
C1215 H1218 1.000 1_655 S
C1216 H1186 0.950 . S
C1216 C1215 1.524 . S
C1216 C1217 1.415 . S
C1217 H1187 0.950 . S
C1217 C1212 1.363 . S
C1217 C1216 1.415 . S
H1218 C1215 1.000 1_455 S
H1219 C1200 0.913 . S
H1220 C1238 0.951 . S
H1221 C1240 0.951 . S
H1222 C1242 0.950 . S
H1223 C1243 0.950 . S
H1224 C1245 0.950 . S
H1225 C1248 0.950 . S
H1226 C1249 0.950 . S
H1227 C1251 0.950 . S
H1228 C1252 0.950 . S
H1229 C1253 0.951 . S
H1230 C1255 0.951 . S
H1231 C1257 0.950 . S
H1232 C1258 0.950 . S
H1233 C1260 0.950 . S
H1234 C1263 0.950 . S
H1235 C1264 0.950 . S
H1236 C1266 0.950 . S
H1237 C1267 0.950 . S
C1238 H1220 0.951 . S
C1238 C1239 1.366 . S
C1238 C1240 1.388 . S
C1239 C1238 1.366 . S
C1239 C1243 1.385 . S
C1240 H1221 0.951 . S
C1240 C1238 1.388 . S
C1240 C1241 1.366 . S
C1241 C1240 1.366 . S
C1241 C1242 1.414 . S
C1241 C1244 1.499 . S
C1242 H1222 0.950 . S
C1242 C1241 1.414 . S
C1242 C1243 1.374 . S
C1243 H1223 0.950 . S
C1243 C1239 1.385 . S
C1243 C1242 1.374 . S
C1244 C1241 1.499 . S
C1244 C1245 1.373 . S
C1244 C1246 1.389 . S
C1245 H1224 0.950 . S
C1245 C1244 1.373 . S
C1245 C1261 1.377 . S
C1246 C1244 1.389 . S
C1246 C1247 1.524 . S
C1246 C1260 1.377 . S
C1247 C1246 1.524 . S
C1247 C1248 1.397 . S
C1247 C1252 1.363 . S
C1248 H1225 0.950 . S
C1248 C1247 1.397 . S
C1248 C1249 1.334 . S
C1249 H1226 0.950 . S
C1249 C1248 1.334 . S
C1249 C1250 1.287 . S
C1250 C1249 1.287 . S
C1250 C1251 1.524 . S
C1250 H1269 0.913 . S
C1251 H1227 0.950 . S
C1251 C1250 1.524 . S
C1251 C1252 1.415 . S
C1252 H1228 0.950 . S
C1252 C1247 1.363 . S
C1252 C1251 1.415 . S
C1253 H1229 0.951 . S
C1253 C1254 1.366 . S
C1253 C1255 1.388 . S
C1254 C1253 1.366 . S
C1254 C1258 1.385 . S
C1255 H1230 0.951 . S
C1255 C1253 1.388 . S
C1255 C1256 1.366 . S
C1256 C1255 1.366 . S
C1256 C1257 1.414 . S
C1256 C1259 1.499 . S
C1257 H1231 0.950 . S
C1257 C1256 1.414 . S
C1257 C1258 1.374 . S
C1258 H1232 0.950 . S
C1258 C1254 1.385 . S
C1258 C1257 1.374 . S
C1259 C1256 1.499 . S
C1259 C1260 1.373 . S
C1259 C1261 1.389 . S
C1260 H1233 0.950 . S
C1260 C1246 1.377 . S
C1260 C1259 1.373 . S
C1261 C1245 1.377 . S
C1261 C1259 1.389 . S
C1261 C1262 1.524 . S
C1262 C1261 1.524 . S
C1262 C1263 1.397 . S
C1262 C1267 1.363 . S
C1263 H1234 0.950 . S
C1263 C1262 1.397 . S
C1263 C1264 1.334 . S
C1264 H1235 0.950 . S
C1264 C1263 1.334 . S
C1264 C1265 1.287 . S
C1265 C1264 1.287 . S
C1265 C1266 1.524 . S
C1265 H1268 0.999 . S
C1266 H1236 0.950 . S
C1266 C1265 1.524 . S
C1266 C1267 1.415 . S
C1267 H1237 0.950 . S
C1267 C1262 1.363 . S
C1267 C1266 1.415 . S
H1268 C1265 0.999 . S
H1269 C1250 0.913 . S
H1270 C1288 0.951 . S
H1271 C1290 0.951 . S
H1272 C1292 0.950 . S
H1273 C1293 0.950 . S
H1274 C1295 0.950 . S
H1275 C1298 0.950 . S
H1276 C1299 0.950 . S
H1277 C1301 0.950 . S
H1278 C1302 0.950 . S
H1279 C1303 0.951 . S
H1280 C1305 0.951 . S
H1281 C1307 0.950 . S
H1282 C1308 0.950 . S
H1283 C1310 0.950 . S
H1284 C1313 0.950 . S
H1285 C1314 0.950 . S
H1286 C1316 0.950 . S
H1287 C1317 0.950 . S
C1288 H1270 0.951 . S
C1288 C1289 1.366 . S
C1288 C1290 1.388 . S
C1289 C1288 1.366 . S
C1289 C1293 1.385 . S
C1290 H1271 0.951 . S
C1290 C1288 1.388 . S
C1290 C1291 1.366 . S
C1291 C1290 1.366 . S
C1291 C1292 1.414 . S
C1291 C1294 1.499 . S
C1292 H1272 0.950 . S
C1292 C1291 1.414 . S
C1292 C1293 1.374 . S
C1293 H1273 0.950 . S
C1293 C1289 1.385 . S
C1293 C1292 1.374 . S
C1294 C1291 1.499 . S
C1294 C1295 1.373 . S
C1294 C1296 1.389 . S
C1295 H1274 0.950 . S
C1295 C1294 1.373 . S
C1295 C1311 1.377 . S
C1296 C1294 1.389 . S
C1296 C1297 1.524 . S
C1296 C1310 1.377 . S
C1297 C1296 1.524 . S
C1297 C1298 1.397 . S
C1297 C1302 1.363 . S
C1298 H1275 0.950 . S
C1298 C1297 1.397 . S
C1298 C1299 1.334 . S
C1299 H1276 0.950 . S
C1299 C1298 1.334 . S
C1299 C1300 1.287 . S
C1300 C1299 1.287 . S
C1300 C1301 1.524 . S
C1300 H1319 0.913 . S
C1301 H1277 0.950 . S
C1301 C1300 1.524 . S
C1301 C1302 1.415 . S
C1302 H1278 0.950 . S
C1302 C1297 1.363 . S
C1302 C1301 1.415 . S
C1303 H1279 0.951 . S
C1303 C1304 1.366 . S
C1303 C1305 1.388 . S
C1304 C1303 1.366 . S
C1304 C1308 1.385 . S
C1305 H1280 0.951 . S
C1305 C1303 1.388 . S
C1305 C1306 1.366 . S
C1306 C1305 1.366 . S
C1306 C1307 1.414 . S
C1306 C1309 1.499 . S
C1307 H1281 0.950 . S
C1307 C1306 1.414 . S
C1307 C1308 1.374 . S
C1308 H1282 0.950 . S
C1308 C1304 1.385 . S
C1308 C1307 1.374 . S
C1309 C1306 1.499 . S
C1309 C1310 1.373 . S
C1309 C1311 1.389 . S
C1310 H1283 0.950 . S
C1310 C1296 1.377 . S
C1310 C1309 1.373 . S
C1311 C1295 1.377 . S
C1311 C1309 1.389 . S
C1311 C1312 1.524 . S
C1312 C1311 1.524 . S
C1312 C1313 1.397 . S
C1312 C1317 1.363 . S
C1313 H1284 0.950 . S
C1313 C1312 1.397 . S
C1313 C1314 1.334 . S
C1314 H1285 0.950 . S
C1314 C1313 1.334 . S
C1314 C1315 1.287 . S
C1315 C1314 1.287 . S
C1315 C1316 1.524 . S
C1315 H1318 0.999 . S
C1316 H1286 0.950 . S
C1316 C1315 1.524 . S
C1316 C1317 1.415 . S
C1317 H1287 0.950 . S
C1317 C1312 1.363 . S
C1317 C1316 1.415 . S
H1318 C1315 0.999 . S
H1319 C1300 0.913 . S
H1320 C1338 0.951 . S
H1321 C1340 0.951 . S
H1322 C1342 0.950 . S
H1323 C1343 0.950 . S
H1324 C1345 0.950 . S
H1325 C1348 0.950 . S
H1326 C1349 0.950 . S
H1327 C1351 0.950 . S
H1328 C1352 0.950 . S
H1329 C1353 0.951 . S
H1330 C1355 0.951 . S
H1331 C1357 0.950 . S
H1332 C1358 0.950 . S
H1333 C1360 0.950 . S
H1334 C1363 0.950 . S
H1335 C1364 0.950 . S
H1336 C1366 0.950 . S
H1337 C1367 0.950 . S
C1338 H1320 0.951 . S
C1338 C1339 1.366 . S
C1338 C1340 1.388 . S
C1339 C1338 1.366 . S
C1339 C1343 1.385 . S
C1340 H1321 0.951 . S
C1340 C1338 1.388 . S
C1340 C1341 1.366 . S
C1341 C1340 1.366 . S
C1341 C1342 1.414 . S
C1341 C1344 1.499 . S
C1342 H1322 0.950 . S
C1342 C1341 1.414 . S
C1342 C1343 1.374 . S
C1343 H1323 0.950 . S
C1343 C1339 1.385 . S
C1343 C1342 1.374 . S
C1344 C1341 1.499 . S
C1344 C1345 1.373 . S
C1344 C1346 1.389 . S
C1345 H1324 0.950 . S
C1345 C1344 1.373 . S
C1345 C1361 1.377 . S
C1346 C1344 1.389 . S
C1346 C1347 1.524 . S
C1346 C1360 1.377 . S
C1347 C1346 1.524 . S
C1347 C1348 1.397 . S
C1347 C1352 1.363 . S
C1348 H1325 0.950 . S
C1348 C1347 1.397 . S
C1348 C1349 1.334 . S
C1349 H1326 0.950 . S
C1349 C1348 1.334 . S
C1349 C1350 1.287 . S
C1350 C1349 1.287 . S
C1350 C1351 1.524 . S
C1350 H1369 0.913 . S
C1351 H1327 0.950 . S
C1351 C1350 1.524 . S
C1351 C1352 1.415 . S
C1352 H1328 0.950 . S
C1352 C1347 1.363 . S
C1352 C1351 1.415 . S
C1353 H1329 0.951 . S
C1353 C1354 1.366 . S
C1353 C1355 1.388 . S
C1354 C1353 1.366 . S
C1354 C1358 1.385 . S
C1355 H1330 0.951 . S
C1355 C1353 1.388 . S
C1355 C1356 1.366 . S
C1356 C1355 1.366 . S
C1356 C1357 1.414 . S
C1356 C1359 1.499 . S
C1357 H1331 0.950 . S
C1357 C1356 1.414 . S
C1357 C1358 1.374 . S
C1358 H1332 0.950 . S
C1358 C1354 1.385 . S
C1358 C1357 1.374 . S
C1359 C1356 1.499 . S
C1359 C1360 1.373 . S
C1359 C1361 1.389 . S
C1360 H1333 0.950 . S
C1360 C1346 1.377 . S
C1360 C1359 1.373 . S
C1361 C1345 1.377 . S
C1361 C1359 1.389 . S
C1361 C1362 1.524 . S
C1362 C1361 1.524 . S
C1362 C1363 1.397 . S
C1362 C1367 1.363 . S
C1363 H1334 0.950 . S
C1363 C1362 1.397 . S
C1363 C1364 1.334 . S
C1364 H1335 0.950 . S
C1364 C1363 1.334 . S
C1364 C1365 1.287 . S
C1365 C1364 1.287 . S
C1365 C1366 1.524 . S
C1365 H1368 0.999 . S
C1366 H1336 0.950 . S
C1366 C1365 1.524 . S
C1366 C1367 1.415 . S
C1367 H1337 0.950 . S
C1367 C1362 1.363 . S
C1367 C1366 1.415 . S
H1368 C1365 0.999 . S
H1369 C1350 0.913 . S
H1370 C1388 0.951 . S
H1371 C1390 0.951 . S
H1372 C1392 0.950 . S
H1373 C1393 0.950 . S
H1374 C1395 0.950 . S
H1375 C1398 0.950 . S
H1376 C1399 0.950 . S
H1377 C1401 0.950 . S
H1378 C1402 0.950 . S
H1379 C1403 0.951 . S
H1380 C1405 0.951 . S
H1381 C1407 0.950 . S
H1382 C1408 0.950 . S
H1383 C1410 0.950 . S
H1384 C1413 0.950 . S
H1385 C1414 0.950 . S
H1386 C1416 0.950 . S
H1387 C1417 0.950 . S
C1388 H1370 0.951 . S
C1388 C1389 1.366 . S
C1388 C1390 1.388 . S
C1389 C1388 1.366 . S
C1389 C1393 1.385 . S
C1390 H1371 0.951 . S
C1390 C1388 1.388 . S
C1390 C1391 1.366 . S
C1391 C1390 1.366 . S
C1391 C1392 1.414 . S
C1391 C1394 1.499 . S
C1392 H1372 0.950 . S
C1392 C1391 1.414 . S
C1392 C1393 1.374 . S
C1393 H1373 0.950 . S
C1393 C1389 1.385 . S
C1393 C1392 1.374 . S
C1394 C1391 1.499 . S
C1394 C1395 1.373 . S
C1394 C1396 1.389 . S
C1395 H1374 0.950 . S
C1395 C1394 1.373 . S
C1395 C1411 1.377 . S
C1396 C1394 1.389 . S
C1396 C1397 1.524 . S
C1396 C1410 1.377 . S
C1397 C1396 1.524 . S
C1397 C1398 1.397 . S
C1397 C1402 1.363 . S
C1398 H1375 0.950 . S
C1398 C1397 1.397 . S
C1398 C1399 1.334 . S
C1399 H1376 0.950 . S
C1399 C1398 1.334 . S
C1399 C1400 1.287 . S
C1400 C1399 1.287 . S
C1400 C1401 1.524 . S
C1400 H1419 0.913 . S
C1401 H1377 0.950 . S
C1401 C1400 1.524 . S
C1401 C1402 1.415 . S
C1402 H1378 0.950 . S
C1402 C1397 1.363 . S
C1402 C1401 1.415 . S
C1403 H1379 0.951 . S
C1403 C1404 1.366 . S
C1403 C1405 1.388 . S
C1404 C1403 1.366 . S
C1404 C1408 1.385 . S
C1405 H1380 0.951 . S
C1405 C1403 1.388 . S
C1405 C1406 1.366 . S
C1406 C1405 1.366 . S
C1406 C1407 1.414 . S
C1406 C1409 1.499 . S
C1407 H1381 0.950 . S
C1407 C1406 1.414 . S
C1407 C1408 1.374 . S
C1408 H1382 0.950 . S
C1408 C1404 1.385 . S
C1408 C1407 1.374 . S
C1409 C1406 1.499 . S
C1409 C1410 1.373 . S
C1409 C1411 1.389 . S
C1410 H1383 0.950 . S
C1410 C1396 1.377 . S
C1410 C1409 1.373 . S
C1411 C1395 1.377 . S
C1411 C1409 1.389 . S
C1411 C1412 1.524 . S
C1412 C1411 1.524 . S
C1412 C1413 1.397 . S
C1412 C1417 1.363 . S
C1413 H1384 0.950 . S
C1413 C1412 1.397 . S
C1413 C1414 1.334 . S
C1414 H1385 0.950 . S
C1414 C1413 1.334 . S
C1414 C1415 1.287 . S
C1415 C1414 1.287 . S
C1415 C1416 1.524 . S
C1415 H1418 0.999 . S
C1416 H1386 0.950 . S
C1416 C1415 1.524 . S
C1416 C1417 1.415 . S
C1417 H1387 0.950 . S
C1417 C1412 1.363 . S
C1417 C1416 1.415 . S
H1418 C1415 0.999 . S
H1419 C1400 0.913 . S
H1420 C1438 0.951 . S
H1421 C1440 0.951 . S
H1422 C1442 0.950 . S
H1423 C1443 0.950 . S
H1424 C1445 0.950 . S
H1425 C1448 0.950 . S
H1426 C1449 0.950 . S
H1427 C1451 0.950 . S
H1428 C1452 0.950 . S
H1429 C1453 0.951 . S
H1430 C1455 0.951 . S
H1431 C1457 0.950 . S
H1432 C1458 0.950 . S
H1433 C1460 0.950 . S
H1434 C1463 0.950 . S
H1435 C1464 0.950 . S
H1436 C1466 0.950 . S
H1437 C1467 0.950 . S
C1438 H1420 0.951 . S
C1438 C1439 1.366 . S
C1438 C1440 1.388 . S
C1439 C1438 1.366 . S
C1439 C1443 1.385 . S
C1440 H1421 0.951 . S
C1440 C1438 1.388 . S
C1440 C1441 1.366 . S
C1441 C1440 1.366 . S
C1441 C1442 1.414 . S
C1441 C1444 1.499 . S
C1442 H1422 0.950 . S
C1442 C1441 1.414 . S
C1442 C1443 1.374 . S
C1443 H1423 0.950 . S
C1443 C1439 1.385 . S
C1443 C1442 1.374 . S
C1444 C1441 1.499 . S
C1444 C1445 1.373 . S
C1444 C1446 1.389 . S
C1445 H1424 0.950 . S
C1445 C1444 1.373 . S
C1445 C1461 1.377 . S
C1446 C1444 1.389 . S
C1446 C1447 1.524 . S
C1446 C1460 1.377 . S
C1447 C1446 1.524 . S
C1447 C1448 1.397 . S
C1447 C1452 1.363 . S
C1448 H1425 0.950 . S
C1448 C1447 1.397 . S
C1448 C1449 1.334 . S
C1449 H1426 0.950 . S
C1449 C1448 1.334 . S
C1449 C1450 1.287 . S
C1450 C1449 1.287 . S
C1450 C1451 1.524 . S
C1450 H1469 0.913 . S
C1451 H1427 0.950 . S
C1451 C1450 1.524 . S
C1451 C1452 1.415 . S
C1452 H1428 0.950 . S
C1452 C1447 1.363 . S
C1452 C1451 1.415 . S
C1453 H1429 0.951 . S
C1453 C1454 1.366 . S
C1453 C1455 1.388 . S
C1454 C1453 1.366 . S
C1454 C1458 1.385 . S
C1455 H1430 0.951 . S
C1455 C1453 1.388 . S
C1455 C1456 1.366 . S
C1456 C1455 1.366 . S
C1456 C1457 1.414 . S
C1456 C1459 1.499 . S
C1457 H1431 0.950 . S
C1457 C1456 1.414 . S
C1457 C1458 1.374 . S
C1458 H1432 0.950 . S
C1458 C1454 1.385 . S
C1458 C1457 1.374 . S
C1459 C1456 1.499 . S
C1459 C1460 1.373 . S
C1459 C1461 1.389 . S
C1460 H1433 0.950 . S
C1460 C1446 1.377 . S
C1460 C1459 1.373 . S
C1461 C1445 1.377 . S
C1461 C1459 1.389 . S
C1461 C1462 1.524 . S
C1462 C1461 1.524 . S
C1462 C1463 1.397 . S
C1462 C1467 1.363 . S
C1463 H1434 0.950 . S
C1463 C1462 1.397 . S
C1463 C1464 1.334 1_554 S
C1464 H1435 0.950 . S
C1464 C1463 1.334 1_556 S
C1464 C1465 1.287 . S
C1465 C1464 1.287 . S
C1465 C1466 1.524 1_556 S
C1465 H1468 0.999 . S
C1466 H1436 0.950 . S
C1466 C1465 1.524 1_554 S
C1466 C1467 1.415 . S
C1467 H1437 0.950 . S
C1467 C1462 1.363 . S
C1467 C1466 1.415 . S
H1468 C1465 0.999 . S
H1469 C1450 0.913 . S
H1470 C1488 0.951 . S
H1471 C1490 0.951 . S
H1472 C1492 0.950 . S
H1473 C1493 0.950 . S
H1474 C1495 0.950 . S
H1475 C1498 0.950 . S
H1476 C1499 0.950 . S
H1477 C1501 0.950 . S
H1478 C1502 0.950 . S
H1479 C1503 0.951 . S
H1480 C1505 0.951 . S
H1481 C1507 0.950 . S
H1482 C1508 0.950 . S
H1483 C1510 0.950 . S
H1484 C1513 0.950 . S
H1485 C1514 0.950 . S
H1486 C1516 0.950 . S
H1487 C1517 0.950 . S
C1488 H1470 0.951 . S
C1488 C1489 1.366 . S
C1488 C1490 1.388 . S
C1489 C1488 1.366 . S
C1489 C1493 1.385 . S
C1490 H1471 0.951 . S
C1490 C1488 1.388 . S
C1490 C1491 1.366 . S
C1491 C1490 1.366 . S
C1491 C1492 1.414 . S
C1491 C1494 1.499 . S
C1492 H1472 0.950 . S
C1492 C1491 1.414 . S
C1492 C1493 1.374 . S
C1493 H1473 0.950 . S
C1493 C1489 1.385 . S
C1493 C1492 1.374 . S
C1494 C1491 1.499 . S
C1494 C1495 1.373 . S
C1494 C1496 1.389 . S
C1495 H1474 0.950 . S
C1495 C1494 1.373 . S
C1495 C1511 1.377 . S
C1496 C1494 1.389 . S
C1496 C1497 1.524 . S
C1496 C1510 1.377 . S
C1497 C1496 1.524 . S
C1497 C1498 1.397 . S
C1497 C1502 1.363 . S
C1498 H1475 0.950 . S
C1498 C1497 1.397 . S
C1498 C1499 1.334 . S
C1499 H1476 0.950 . S
C1499 C1498 1.334 . S
C1499 C1500 1.287 . S
C1500 C1499 1.287 . S
C1500 C1501 1.524 . S
C1500 H1519 0.913 . S
C1501 H1477 0.950 . S
C1501 C1500 1.524 . S
C1501 C1502 1.415 . S
C1502 H1478 0.950 . S
C1502 C1497 1.363 . S
C1502 C1501 1.415 . S
C1503 H1479 0.951 . S
C1503 C1504 1.366 . S
C1503 C1505 1.388 . S
C1504 C1503 1.366 . S
C1504 C1508 1.385 . S
C1505 H1480 0.951 . S
C1505 C1503 1.388 . S
C1505 C1506 1.366 . S
C1506 C1505 1.366 . S
C1506 C1507 1.414 . S
C1506 C1509 1.499 . S
C1507 H1481 0.950 . S
C1507 C1506 1.414 . S
C1507 C1508 1.374 . S
C1508 H1482 0.950 . S
C1508 C1504 1.385 . S
C1508 C1507 1.374 . S
C1509 C1506 1.499 . S
C1509 C1510 1.373 . S
C1509 C1511 1.389 . S
C1510 H1483 0.950 . S
C1510 C1496 1.377 . S
C1510 C1509 1.373 . S
C1511 C1495 1.377 . S
C1511 C1509 1.389 . S
C1511 C1512 1.524 . S
C1512 C1511 1.524 . S
C1512 C1513 1.397 . S
C1512 C1517 1.363 . S
C1513 H1484 0.950 . S
C1513 C1512 1.397 . S
C1513 C1514 1.334 . S
C1514 H1485 0.950 . S
C1514 C1513 1.334 . S
C1514 C1515 1.287 . S
C1515 C1514 1.287 . S
C1515 C1516 1.524 . S
C1515 H1518 0.999 . S
C1516 H1486 0.950 . S
C1516 C1515 1.524 . S
C1516 C1517 1.415 . S
C1517 H1487 0.950 . S
C1517 C1512 1.363 . S
C1517 C1516 1.415 . S
H1518 C1515 0.999 . S
H1519 C1500 0.913 . S
H1520 C1538 0.951 . S
H1521 C1540 0.951 . S
H1522 C1542 0.950 . S
H1523 C1543 0.950 . S
H1524 C1545 0.950 . S
H1525 C1548 0.950 . S
H1526 C1549 0.950 . S
H1527 C1551 0.950 . S
H1528 C1552 0.950 . S
H1529 C1553 0.951 . S
H1530 C1555 0.951 . S
H1531 C1557 0.950 . S
H1532 C1558 0.950 . S
H1533 C1560 0.950 . S
H1534 C1563 0.950 . S
H1535 C1564 0.950 . S
H1536 C1566 0.947 1_554 S
H1537 C1567 0.950 . S
C1538 H1520 0.951 . S
C1538 C1539 1.366 . S
C1538 C1540 1.388 . S
C1539 C1538 1.366 . S
C1539 C1543 1.385 . S
C1540 H1521 0.951 . S
C1540 C1538 1.388 . S
C1540 C1541 1.366 . S
C1541 C1540 1.366 . S
C1541 C1542 1.414 . S
C1541 C1544 1.499 . S
C1542 H1522 0.950 . S
C1542 C1541 1.414 . S
C1542 C1543 1.374 . S
C1543 H1523 0.950 . S
C1543 C1539 1.385 . S
C1543 C1542 1.374 . S
C1544 C1541 1.499 . S
C1544 C1545 1.373 . S
C1544 C1546 1.389 . S
C1545 H1524 0.950 . S
C1545 C1544 1.373 . S
C1545 C1561 1.377 . S
C1546 C1544 1.389 . S
C1546 C1547 1.524 . S
C1546 C1560 1.377 . S
C1547 C1546 1.524 . S
C1547 C1548 1.397 . S
C1547 C1552 1.363 . S
C1548 H1525 0.950 . S
C1548 C1547 1.397 . S
C1548 C1549 1.334 . S
C1549 H1526 0.950 . S
C1549 C1548 1.334 . S
C1549 C1550 1.287 . S
C1550 C1549 1.287 . S
C1550 C1551 1.524 . S
C1550 H1569 0.913 . S
C1551 H1527 0.950 . S
C1551 C1550 1.524 . S
C1551 C1552 1.415 . S
C1552 H1528 0.950 . S
C1552 C1547 1.363 . S
C1552 C1551 1.415 . S
C1553 H1529 0.951 . S
C1553 C1554 1.366 . S
C1553 C1555 1.388 . S
C1554 C1553 1.366 . S
C1554 C1558 1.385 . S
C1555 H1530 0.951 . S
C1555 C1553 1.388 . S
C1555 C1556 1.366 . S
C1556 C1555 1.366 . S
C1556 C1557 1.414 . S
C1556 C1559 1.499 . S
C1557 H1531 0.950 . S
C1557 C1556 1.414 . S
C1557 C1558 1.374 . S
C1558 H1532 0.950 . S
C1558 C1554 1.385 . S
C1558 C1557 1.374 . S
C1559 C1556 1.499 . S
C1559 C1560 1.373 . S
C1559 C1561 1.389 . S
C1560 H1533 0.950 . S
C1560 C1546 1.377 . S
C1560 C1559 1.373 . S
C1561 C1545 1.377 . S
C1561 C1559 1.389 . S
C1561 C1562 1.524 . S
C1562 C1561 1.524 . S
C1562 C1563 1.397 . S
C1562 C1567 1.363 . S
C1563 H1534 0.950 . S
C1563 C1562 1.397 . S
C1563 C1564 1.334 1_556 S
C1564 H1535 0.950 . S
C1564 C1563 1.334 1_554 S
C1564 C1565 1.287 . S
C1565 C1564 1.287 . S
C1565 C1566 1.508 1_554 S
C1565 H1568 0.999 . S
C1566 H1536 0.947 1_556 S
C1566 C1565 1.508 1_556 S
C1566 C1567 1.434 . S
C1567 H1537 0.950 . S
C1567 C1562 1.363 . S
C1567 C1566 1.434 . S
H1568 C1565 0.999 . S
H1569 C1550 0.913 . S
H1570 C1588 0.951 . S
H1571 C1590 0.951 . S
H1572 C1592 0.950 . S
H1573 C1593 0.950 . S
H1574 C1595 0.950 . S
H1575 C1598 0.950 . S
H1576 C1599 0.950 . S
H1577 C1601 0.950 . S
H1578 C1602 0.950 . S
H1579 C1603 0.951 . S
H1580 C1605 0.951 . S
H1581 C1607 0.950 . S
H1582 C1608 0.950 . S
H1583 C1610 0.950 . S
H1584 C1613 0.950 . S
H1585 C1614 0.950 . S
H1586 C1616 0.950 . S
H1587 C1617 0.950 . S
C1588 H1570 0.951 . S
C1588 C1589 1.366 . S
C1588 C1590 1.388 . S
C1589 C1588 1.366 . S
C1589 C1593 1.385 . S
C1590 H1571 0.951 . S
C1590 C1588 1.388 . S
C1590 C1591 1.366 . S
C1591 C1590 1.366 . S
C1591 C1592 1.414 . S
C1591 C1594 1.499 . S
C1592 H1572 0.950 . S
C1592 C1591 1.414 . S
C1592 C1593 1.374 . S
C1593 H1573 0.950 . S
C1593 C1589 1.385 . S
C1593 C1592 1.374 . S
C1594 C1591 1.499 . S
C1594 C1595 1.373 . S
C1594 C1596 1.389 . S
C1595 H1574 0.950 . S
C1595 C1594 1.373 . S
C1595 C1611 1.377 . S
C1596 C1594 1.389 . S
C1596 C1597 1.524 . S
C1596 C1610 1.377 . S
C1597 C1596 1.524 . S
C1597 C1598 1.397 . S
C1597 C1602 1.363 . S
C1598 H1575 0.950 . S
C1598 C1597 1.397 . S
C1598 C1599 1.334 . S
C1599 H1576 0.950 . S
C1599 C1598 1.334 . S
C1599 C1600 1.287 . S
C1600 C1599 1.287 . S
C1600 C1601 1.524 . S
C1600 H1619 0.913 . S
C1601 H1577 0.950 . S
C1601 C1600 1.524 . S
C1601 C1602 1.415 . S
C1602 H1578 0.950 . S
C1602 C1597 1.363 . S
C1602 C1601 1.415 . S
C1603 H1579 0.951 . S
C1603 C1604 1.366 . S
C1603 C1605 1.388 . S
C1604 C1603 1.366 . S
C1604 C1608 1.385 . S
C1605 H1580 0.951 . S
C1605 C1603 1.388 . S
C1605 C1606 1.366 . S
C1606 C1605 1.366 . S
C1606 C1607 1.414 . S
C1606 C1609 1.499 . S
C1607 H1581 0.950 . S
C1607 C1606 1.414 . S
C1607 C1608 1.374 . S
C1608 H1582 0.950 . S
C1608 C1604 1.385 . S
C1608 C1607 1.374 . S
C1609 C1606 1.499 . S
C1609 C1610 1.373 . S
C1609 C1611 1.389 . S
C1610 H1583 0.950 . S
C1610 C1596 1.377 . S
C1610 C1609 1.373 . S
C1611 C1595 1.377 . S
C1611 C1609 1.389 . S
C1611 C1612 1.524 . S
C1612 C1611 1.524 . S
C1612 C1613 1.397 . S
C1612 C1617 1.363 . S
C1613 H1584 0.950 . S
C1613 C1612 1.397 . S
C1613 C1614 1.334 . S
C1614 H1585 0.950 . S
C1614 C1613 1.334 . S
C1614 C1615 1.287 . S
C1615 C1614 1.287 . S
C1615 C1616 1.524 . S
C1615 H1618 0.999 . S
C1616 H1586 0.950 . S
C1616 C1615 1.524 . S
C1616 C1617 1.415 . S
C1617 H1587 0.950 . S
C1617 C1612 1.363 . S
C1617 C1616 1.415 . S
H1618 C1615 0.999 . S
H1619 C1600 0.913 . S
H1620 C1638 0.951 . S
H1621 C1640 0.951 . S
H1622 C1642 0.950 . S
H1623 C1643 0.950 . S
H1624 C1645 0.950 . S
H1625 C1648 0.950 . S
H1626 C1649 0.950 . S
H1627 C1651 0.950 . S
H1628 C1652 0.950 . S
H1629 C1653 0.951 . S
H1630 C1655 0.951 . S
H1631 C1657 0.950 . S
H1632 C1658 0.950 . S
H1633 C1660 0.950 . S
H1634 C1663 0.950 . S
H1635 C1664 0.950 . S
H1636 C1666 0.950 . S
H1637 C1667 0.950 . S
C1638 H1620 0.951 . S
C1638 C1639 1.366 . S
C1638 C1640 1.388 . S
C1639 C1638 1.366 . S
C1639 C1643 1.385 . S
C1640 H1621 0.951 . S
C1640 C1638 1.388 . S
C1640 C1641 1.366 . S
C1641 C1640 1.366 . S
C1641 C1642 1.414 . S
C1641 C1644 1.499 . S
C1642 H1622 0.950 . S
C1642 C1641 1.414 . S
C1642 C1643 1.374 . S
C1643 H1623 0.950 . S
C1643 C1639 1.385 . S
C1643 C1642 1.374 . S
C1644 C1641 1.499 . S
C1644 C1645 1.373 . S
C1644 C1646 1.389 . S
C1645 H1624 0.950 . S
C1645 C1644 1.373 . S
C1645 C1661 1.377 . S
C1646 C1644 1.389 . S
C1646 C1647 1.524 . S
C1646 C1660 1.377 . S
C1647 C1646 1.524 . S
C1647 C1648 1.397 . S
C1647 C1652 1.363 . S
C1648 H1625 0.950 . S
C1648 C1647 1.397 . S
C1648 C1649 1.334 . S
C1649 H1626 0.950 . S
C1649 C1648 1.334 . S
C1649 C1650 1.287 . S
C1650 C1649 1.287 . S
C1650 C1651 1.524 . S
C1650 H1669 0.913 . S
C1651 H1627 0.950 . S
C1651 C1650 1.524 . S
C1651 C1652 1.415 . S
C1652 H1628 0.950 . S
C1652 C1647 1.363 . S
C1652 C1651 1.415 . S
C1653 H1629 0.951 . S
C1653 C1654 1.366 . S
C1653 C1655 1.388 . S
C1654 C1653 1.366 . S
C1654 C1658 1.385 . S
C1655 H1630 0.951 . S
C1655 C1653 1.388 . S
C1655 C1656 1.366 . S
C1656 C1655 1.366 . S
C1656 C1657 1.414 . S
C1656 C1659 1.499 . S
C1657 H1631 0.950 . S
C1657 C1656 1.414 . S
C1657 C1658 1.374 . S
C1658 H1632 0.950 . S
C1658 C1654 1.385 . S
C1658 C1657 1.374 . S
C1659 C1656 1.499 . S
C1659 C1660 1.373 . S
C1659 C1661 1.389 . S
C1660 H1633 0.950 . S
C1660 C1646 1.377 . S
C1660 C1659 1.373 . S
C1661 C1645 1.377 . S
C1661 C1659 1.389 . S
C1661 C1662 1.524 . S
C1662 C1661 1.524 . S
C1662 C1663 1.397 . S
C1662 C1667 1.363 . S
C1663 H1634 0.950 . S
C1663 C1662 1.397 . S
C1663 C1664 1.334 . S
C1664 H1635 0.950 . S
C1664 C1663 1.334 . S
C1664 C1665 1.287 . S
C1665 C1664 1.287 . S
C1665 C1666 1.524 . S
C1665 H1668 0.999 . S
C1666 H1636 0.950 . S
C1666 C1665 1.524 . S
C1666 C1667 1.415 . S
C1667 H1637 0.950 . S
C1667 C1662 1.363 . S
C1667 C1666 1.415 . S
H1668 C1665 0.999 . S
H1669 C1650 0.913 . S
H1670 C1688 0.951 . S
H1671 C1690 0.951 . S
H1672 C1692 0.950 . S
H1673 C1693 0.950 . S
H1674 C1695 0.950 . S
H1675 C1698 0.950 . S
H1676 C1699 0.950 . S
H1677 C1701 0.950 . S
H1678 C1702 0.950 . S
H1679 C1703 0.951 . S
H1680 C1705 0.951 . S
H1681 C1707 0.950 . S
H1682 C1708 0.950 . S
H1683 C1710 0.950 . S
H1684 C1713 0.950 . S
H1685 C1714 0.950 . S
H1686 C1716 0.950 . S
H1687 C1717 0.950 . S
C1688 H1670 0.951 . S
C1688 C1689 1.366 . S
C1688 C1690 1.388 . S
C1689 C1688 1.366 . S
C1689 C1693 1.385 . S
C1690 H1671 0.951 . S
C1690 C1688 1.388 . S
C1690 C1691 1.366 . S
C1691 C1690 1.366 . S
C1691 C1692 1.414 . S
C1691 C1694 1.499 . S
C1692 H1672 0.950 . S
C1692 C1691 1.414 . S
C1692 C1693 1.374 . S
C1693 H1673 0.950 . S
C1693 C1689 1.385 . S
C1693 C1692 1.374 . S
C1694 C1691 1.499 . S
C1694 C1695 1.373 . S
C1694 C1696 1.389 . S
C1695 H1674 0.950 . S
C1695 C1694 1.373 . S
C1695 C1711 1.377 . S
C1696 C1694 1.389 . S
C1696 C1697 1.524 . S
C1696 C1710 1.377 . S
C1697 C1696 1.524 . S
C1697 C1698 1.397 . S
C1697 C1702 1.363 . S
C1698 H1675 0.950 . S
C1698 C1697 1.397 . S
C1698 C1699 1.334 . S
C1699 H1676 0.950 . S
C1699 C1698 1.334 . S
C1699 C1700 1.287 . S
C1700 C1699 1.287 . S
C1700 C1701 1.524 . S
C1700 H1719 0.913 . S
C1701 H1677 0.950 . S
C1701 C1700 1.524 . S
C1701 C1702 1.415 . S
C1702 H1678 0.950 . S
C1702 C1697 1.363 . S
C1702 C1701 1.415 . S
C1703 H1679 0.951 . S
C1703 C1704 1.366 . S
C1703 C1705 1.388 . S
C1704 C1703 1.366 . S
C1704 C1708 1.385 . S
C1705 H1680 0.951 . S
C1705 C1703 1.388 . S
C1705 C1706 1.366 . S
C1706 C1705 1.366 . S
C1706 C1707 1.414 . S
C1706 C1709 1.499 . S
C1707 H1681 0.950 . S
C1707 C1706 1.414 . S
C1707 C1708 1.374 . S
C1708 H1682 0.950 . S
C1708 C1704 1.385 . S
C1708 C1707 1.374 . S
C1709 C1706 1.499 . S
C1709 C1710 1.373 . S
C1709 C1711 1.389 . S
C1710 H1683 0.950 . S
C1710 C1696 1.377 . S
C1710 C1709 1.373 . S
C1711 C1695 1.377 . S
C1711 C1709 1.389 . S
C1711 C1712 1.524 . S
C1712 C1711 1.524 . S
C1712 C1713 1.397 . S
C1712 C1717 1.363 . S
C1713 H1684 0.950 . S
C1713 C1712 1.397 . S
C1713 C1714 1.334 . S
C1714 H1685 0.950 . S
C1714 C1713 1.334 . S
C1714 C1715 1.287 . S
C1715 C1714 1.287 . S
C1715 C1716 1.524 . S
C1715 H1718 1.008 . S
C1716 H1686 0.950 . S
C1716 C1715 1.524 . S
C1716 C1717 1.415 . S
C1717 H1687 0.950 . S
C1717 C1712 1.363 . S
C1717 C1716 1.415 . S
H1718 C1715 1.008 . S
H1719 C1700 0.913 . S
H1720 C1738 0.951 . S
H1721 C1740 0.951 . S
H1722 C1742 0.950 . S
H1723 C1743 0.950 . S
H1724 C1745 0.950 . S
H1725 C1748 0.950 . S
H1726 C1749 0.950 . S
H1727 C1751 0.950 . S
H1728 C1752 0.950 . S
H1729 C1753 0.951 . S
H1730 C1755 0.951 . S
H1731 C1757 0.950 . S
H1732 C1758 0.950 . S
H1733 C1760 0.950 . S
H1734 C1763 0.950 . S
H1735 C1764 0.950 . S
H1736 C1766 0.950 . S
H1737 C1767 0.950 . S
C1738 H1720 0.951 . S
C1738 C1739 1.366 . S
C1738 C1740 1.388 . S
C1739 C1738 1.366 . S
C1739 C1743 1.385 . S
C1740 H1721 0.951 . S
C1740 C1738 1.388 . S
C1740 C1741 1.366 . S
C1741 C1740 1.366 . S
C1741 C1742 1.414 . S
C1741 C1744 1.499 . S
C1742 H1722 0.950 . S
C1742 C1741 1.414 . S
C1742 C1743 1.374 . S
C1743 H1723 0.950 . S
C1743 C1739 1.385 . S
C1743 C1742 1.374 . S
C1744 C1741 1.499 . S
C1744 C1745 1.373 . S
C1744 C1746 1.389 . S
C1745 H1724 0.950 . S
C1745 C1744 1.373 . S
C1745 C1761 1.377 . S
C1746 C1744 1.389 . S
C1746 C1747 1.524 . S
C1746 C1760 1.377 . S
C1747 C1746 1.524 . S
C1747 C1748 1.397 . S
C1747 C1752 1.363 . S
C1748 H1725 0.950 . S
C1748 C1747 1.397 . S
C1748 C1749 1.334 . S
C1749 H1726 0.950 . S
C1749 C1748 1.334 . S
C1749 C1750 1.287 . S
C1750 C1749 1.287 . S
C1750 C1751 1.524 . S
C1750 H1769 0.913 . S
C1751 H1727 0.950 . S
C1751 C1750 1.524 . S
C1751 C1752 1.415 . S
C1752 H1728 0.950 . S
C1752 C1747 1.363 . S
C1752 C1751 1.415 . S
C1753 H1729 0.951 . S
C1753 C1754 1.366 . S
C1753 C1755 1.388 . S
C1754 C1753 1.366 . S
C1754 C1758 1.385 . S
C1755 H1730 0.951 . S
C1755 C1753 1.388 . S
C1755 C1756 1.366 . S
C1756 C1755 1.366 . S
C1756 C1757 1.414 . S
C1756 C1759 1.499 . S
C1757 H1731 0.950 . S
C1757 C1756 1.414 . S
C1757 C1758 1.374 . S
C1758 H1732 0.950 . S
C1758 C1754 1.385 . S
C1758 C1757 1.374 . S
C1759 C1756 1.499 . S
C1759 C1760 1.373 . S
C1759 C1761 1.389 . S
C1760 H1733 0.950 . S
C1760 C1746 1.377 . S
C1760 C1759 1.373 . S
C1761 C1745 1.377 . S
C1761 C1759 1.389 . S
C1761 C1762 1.524 . S
C1762 C1761 1.524 . S
C1762 C1763 1.397 . S
C1762 C1767 1.363 . S
C1763 H1734 0.950 . S
C1763 C1762 1.397 . S
C1763 C1764 1.334 . S
C1764 H1735 0.950 . S
C1764 C1763 1.334 . S
C1764 C1765 1.287 . S
C1765 C1764 1.287 . S
C1765 C1766 1.524 . S
C1765 H1768 0.999 . S
C1766 H1736 0.950 . S
C1766 C1765 1.524 . S
C1766 C1767 1.415 . S
C1767 H1737 0.950 . S
C1767 C1762 1.363 . S
C1767 C1766 1.415 . S
H1768 C1765 0.999 . S
H1769 C1750 0.913 . S
H1770 C1788 0.951 . S
H1771 C1790 0.951 . S
H1772 C1792 0.950 . S
H1773 C1793 0.950 . S
H1774 C1795 0.950 . S
H1775 C1798 0.950 . S
H1776 C1799 0.950 . S
H1777 C1801 0.950 . S
H1778 C1802 0.950 . S
H1779 C1803 0.951 . S
H1780 C1805 0.951 . S
H1781 C1807 0.950 . S
H1782 C1808 0.950 . S
H1783 C1810 0.950 . S
H1784 C1813 0.950 . S
H1785 C1814 0.950 . S
H1786 C1816 0.950 . S
H1787 C1817 0.950 . S
C1788 H1770 0.951 . S
C1788 C1789 1.366 . S
C1788 C1790 1.388 . S
C1789 C1788 1.366 . S
C1789 C1793 1.385 . S
C1790 H1771 0.951 . S
C1790 C1788 1.388 . S
C1790 C1791 1.366 . S
C1791 C1790 1.366 . S
C1791 C1792 1.414 . S
C1791 C1794 1.499 . S
C1792 H1772 0.950 . S
C1792 C1791 1.414 . S
C1792 C1793 1.374 . S
C1793 H1773 0.950 . S
C1793 C1789 1.385 . S
C1793 C1792 1.374 . S
C1794 C1791 1.499 . S
C1794 C1795 1.373 . S
C1794 C1796 1.389 . S
C1795 H1774 0.950 . S
C1795 C1794 1.373 . S
C1795 C1811 1.377 . S
C1796 C1794 1.389 . S
C1796 C1797 1.524 . S
C1796 C1810 1.377 . S
C1797 C1796 1.524 . S
C1797 C1798 1.397 . S
C1797 C1802 1.363 . S
C1798 H1775 0.950 . S
C1798 C1797 1.397 . S
C1798 C1799 1.334 . S
C1799 H1776 0.950 . S
C1799 C1798 1.334 . S
C1799 C1800 1.287 . S
C1800 C1799 1.287 . S
C1800 C1801 1.524 . S
C1800 H1819 0.913 . S
C1801 H1777 0.950 . S
C1801 C1800 1.524 . S
C1801 C1802 1.415 . S
C1802 H1778 0.950 . S
C1802 C1797 1.363 . S
C1802 C1801 1.415 . S
C1803 H1779 0.951 . S
C1803 C1804 1.366 . S
C1803 C1805 1.388 . S
C1804 C1803 1.366 . S
C1804 C1808 1.385 . S
C1805 H1780 0.951 . S
C1805 C1803 1.388 . S
C1805 C1806 1.366 . S
C1806 C1805 1.366 . S
C1806 C1807 1.414 . S
C1806 C1809 1.499 . S
C1807 H1781 0.950 . S
C1807 C1806 1.414 . S
C1807 C1808 1.374 . S
C1808 H1782 0.950 . S
C1808 C1804 1.385 . S
C1808 C1807 1.374 . S
C1809 C1806 1.499 . S
C1809 C1810 1.373 . S
C1809 C1811 1.389 . S
C1810 H1783 0.950 . S
C1810 C1796 1.377 . S
C1810 C1809 1.373 . S
C1811 C1795 1.377 . S
C1811 C1809 1.389 . S
C1811 C1812 1.524 . S
C1812 C1811 1.524 . S
C1812 C1813 1.397 . S
C1812 C1817 1.363 . S
C1813 H1784 0.950 . S
C1813 C1812 1.397 . S
C1813 C1814 1.334 . S
C1814 H1785 0.950 . S
C1814 C1813 1.334 . S
C1814 C1815 1.287 . S
C1815 C1814 1.287 . S
C1815 C1816 1.524 . S
C1815 H1818 0.999 . S
C1816 H1786 0.950 . S
C1816 C1815 1.524 . S
C1816 C1817 1.415 . S
C1817 H1787 0.950 . S
C1817 C1812 1.363 . S
C1817 C1816 1.415 . S
H1818 C1815 0.999 . S
H1819 C1800 0.913 . S
H1820 C1838 0.951 . S
H1821 C1840 0.951 . S
H1822 C1842 0.950 . S
H1823 C1843 0.950 . S
H1824 C1845 0.950 . S
H1825 C1848 0.950 . S
H1826 C1849 0.950 . S
H1827 C1851 0.950 . S
H1828 C1852 0.950 . S
H1829 C1853 0.951 . S
H1830 C1855 0.951 . S
H1831 C1857 0.950 . S
H1832 C1858 0.950 . S
H1833 C1860 0.950 . S
H1834 C1863 0.950 . S
H1835 C1864 0.950 . S
H1836 C1866 0.950 . S
H1837 C1867 0.950 . S
C1838 H1820 0.951 . S
C1838 C1839 1.366 . S
C1838 C1840 1.388 . S
C1839 C1838 1.366 . S
C1839 C1843 1.385 . S
C1840 H1821 0.951 . S
C1840 C1838 1.388 . S
C1840 C1841 1.366 . S
C1841 C1840 1.366 . S
C1841 C1842 1.414 . S
C1841 C1844 1.499 . S
C1842 H1822 0.950 . S
C1842 C1841 1.414 . S
C1842 C1843 1.374 . S
C1843 H1823 0.950 . S
C1843 C1839 1.385 . S
C1843 C1842 1.374 . S
C1844 C1841 1.499 . S
C1844 C1845 1.373 . S
C1844 C1846 1.389 . S
C1845 H1824 0.950 . S
C1845 C1844 1.373 . S
C1845 C1861 1.377 . S
C1846 C1844 1.389 . S
C1846 C1847 1.524 . S
C1846 C1860 1.377 . S
C1847 C1846 1.524 . S
C1847 C1848 1.397 . S
C1847 C1852 1.363 . S
C1848 H1825 0.950 . S
C1848 C1847 1.397 . S
C1848 C1849 1.334 . S
C1849 H1826 0.950 . S
C1849 C1848 1.334 . S
C1849 C1850 1.287 . S
C1850 C1849 1.287 . S
C1850 C1851 1.524 . S
C1850 H1869 0.913 . S
C1851 H1827 0.950 . S
C1851 C1850 1.524 . S
C1851 C1852 1.415 . S
C1852 H1828 0.950 . S
C1852 C1847 1.363 . S
C1852 C1851 1.415 . S
C1853 H1829 0.951 . S
C1853 C1854 1.366 . S
C1853 C1855 1.388 . S
C1854 C1853 1.366 . S
C1854 C1858 1.385 . S
C1855 H1830 0.951 . S
C1855 C1853 1.388 . S
C1855 C1856 1.366 . S
C1856 C1855 1.366 . S
C1856 C1857 1.414 . S
C1856 C1859 1.499 . S
C1857 H1831 0.950 . S
C1857 C1856 1.414 . S
C1857 C1858 1.374 . S
C1858 H1832 0.950 . S
C1858 C1854 1.385 . S
C1858 C1857 1.374 . S
C1859 C1856 1.499 . S
C1859 C1860 1.373 . S
C1859 C1861 1.389 . S
C1860 H1833 0.950 . S
C1860 C1846 1.377 . S
C1860 C1859 1.373 . S
C1861 C1845 1.377 . S
C1861 C1859 1.389 . S
C1861 C1862 1.524 . S
C1862 C1861 1.524 . S
C1862 C1863 1.397 . S
C1862 C1867 1.363 . S
C1863 H1834 0.950 . S
C1863 C1862 1.397 . S
C1863 C1864 1.334 1_556 S
C1864 H1835 0.950 . S
C1864 C1863 1.334 1_554 S
C1864 C1865 1.287 . S
C1865 C1864 1.287 . S
C1865 C1866 1.524 . S
C1865 H1868 0.999 . S
C1866 H1836 0.950 . S
C1866 C1865 1.524 . S
C1866 C1867 1.415 1_554 S
C1867 H1837 0.950 . S
C1867 C1862 1.363 . S
C1867 C1866 1.415 1_556 S
H1868 C1865 0.999 . S
H1869 C1850 0.913 . S
H1870 C1888 0.951 . S
H1871 C1890 0.951 . S
H1872 C1892 0.950 . S
H1873 C1893 0.950 . S
H1874 C1895 0.950 . S
H1875 C1898 0.950 . S
H1876 C1899 0.950 . S
H1877 C1901 0.950 . S
H1878 C1902 0.950 . S
H1879 C1903 0.951 . S
H1880 C1905 0.951 . S
H1881 C1907 0.950 . S
H1882 C1908 0.950 . S
H1883 C1910 0.950 . S
H1884 C1913 0.950 . S
H1885 C1914 0.950 . S
H1886 C1916 0.950 . S
H1887 C1917 0.950 . S
C1888 H1870 0.951 . S
C1888 C1889 1.366 . S
C1888 C1890 1.388 . S
C1889 C1888 1.366 . S
C1889 C1893 1.385 . S
C1890 H1871 0.951 . S
C1890 C1888 1.388 . S
C1890 C1891 1.366 . S
C1891 C1890 1.366 . S
C1891 C1892 1.414 . S
C1891 C1894 1.499 . S
C1892 H1872 0.950 . S
C1892 C1891 1.414 . S
C1892 C1893 1.374 . S
C1893 H1873 0.950 . S
C1893 C1889 1.385 . S
C1893 C1892 1.374 . S
C1894 C1891 1.499 . S
C1894 C1895 1.373 . S
C1894 C1896 1.389 . S
C1895 H1874 0.950 . S
C1895 C1894 1.373 . S
C1895 C1911 1.377 . S
C1896 C1894 1.389 . S
C1896 C1897 1.524 . S
C1896 C1910 1.377 . S
C1897 C1896 1.524 . S
C1897 C1898 1.397 . S
C1897 C1902 1.363 . S
C1898 H1875 0.950 . S
C1898 C1897 1.397 . S
C1898 C1899 1.334 . S
C1899 H1876 0.950 . S
C1899 C1898 1.334 . S
C1899 C1900 1.287 . S
C1900 C1899 1.287 . S
C1900 C1901 1.524 . S
C1900 H1919 0.922 . S
C1901 H1877 0.950 . S
C1901 C1900 1.524 . S
C1901 C1902 1.415 . S
C1902 H1878 0.950 . S
C1902 C1897 1.363 . S
C1902 C1901 1.415 . S
C1903 H1879 0.951 . S
C1903 C1904 1.366 . S
C1903 C1905 1.388 . S
C1904 C1903 1.366 . S
C1904 C1908 1.385 . S
C1905 H1880 0.951 . S
C1905 C1903 1.388 . S
C1905 C1906 1.366 . S
C1906 C1905 1.366 . S
C1906 C1907 1.414 . S
C1906 C1909 1.499 . S
C1907 H1881 0.950 . S
C1907 C1906 1.414 . S
C1907 C1908 1.374 . S
C1908 H1882 0.950 . S
C1908 C1904 1.385 . S
C1908 C1907 1.374 . S
C1909 C1906 1.499 . S
C1909 C1910 1.373 . S
C1909 C1911 1.389 . S
C1910 H1883 0.950 . S
C1910 C1896 1.377 . S
C1910 C1909 1.373 . S
C1911 C1895 1.377 . S
C1911 C1909 1.389 . S
C1911 C1912 1.524 . S
C1912 C1911 1.524 . S
C1912 C1913 1.397 . S
C1912 C1917 1.363 . S
C1913 H1884 0.950 . S
C1913 C1912 1.397 . S
C1913 C1914 1.334 . S
C1914 H1885 0.950 . S
C1914 C1913 1.334 . S
C1914 C1915 1.287 . S
C1915 C1914 1.287 . S
C1915 C1916 1.524 . S
C1915 H1918 0.999 . S
C1916 H1886 0.950 . S
C1916 C1915 1.524 . S
C1916 C1917 1.415 . S
C1917 H1887 0.950 . S
C1917 C1912 1.363 . S
C1917 C1916 1.415 . S
H1918 C1915 0.999 . S
H1919 C1900 0.922 . S
H1920 C1938 0.951 . S
H1921 C1940 0.951 . S
H1922 C1942 0.950 . S
H1923 C1943 0.950 . S
H1924 C1945 0.950 . S
H1925 C1948 0.950 . S
H1926 C1949 0.950 . S
H1927 C1951 0.950 . S
H1928 C1952 0.950 . S
H1929 C1953 0.951 . S
H1930 C1955 0.951 . S
H1931 C1957 0.950 . S
H1932 C1958 0.950 . S
H1933 C1960 0.950 . S
H1934 C1963 0.950 . S
H1935 C1964 0.950 . S
H1936 C1966 0.950 . S
H1937 C1967 0.950 . S
C1938 H1920 0.951 . S
C1938 C1939 1.366 . S
C1938 C1940 1.388 . S
C1939 C1938 1.366 . S
C1939 C1943 1.385 . S
C1940 H1921 0.951 . S
C1940 C1938 1.388 . S
C1940 C1941 1.366 . S
C1941 C1940 1.366 . S
C1941 C1942 1.414 . S
C1941 C1944 1.499 . S
C1942 H1922 0.950 . S
C1942 C1941 1.414 . S
C1942 C1943 1.374 . S
C1943 H1923 0.950 . S
C1943 C1939 1.385 . S
C1943 C1942 1.374 . S
C1944 C1941 1.499 . S
C1944 C1945 1.373 . S
C1944 C1946 1.389 . S
C1945 H1924 0.950 . S
C1945 C1944 1.373 . S
C1945 C1961 1.377 . S
C1946 C1944 1.389 . S
C1946 C1947 1.524 . S
C1946 C1960 1.377 . S
C1947 C1946 1.524 . S
C1947 C1948 1.397 . S
C1947 C1952 1.363 . S
C1948 H1925 0.950 . S
C1948 C1947 1.397 . S
C1948 C1949 1.334 . S
C1949 H1926 0.950 . S
C1949 C1948 1.334 . S
C1949 C1950 1.287 . S
C1950 C1949 1.287 . S
C1950 C1951 1.524 . S
C1950 H1969 0.913 . S
C1951 H1927 0.950 . S
C1951 C1950 1.524 . S
C1951 C1952 1.415 . S
C1952 H1928 0.950 . S
C1952 C1947 1.363 . S
C1952 C1951 1.415 . S
C1953 H1929 0.951 . S
C1953 C1954 1.366 . S
C1953 C1955 1.388 . S
C1954 C1953 1.366 . S
C1954 C1958 1.385 . S
C1955 H1930 0.951 . S
C1955 C1953 1.388 . S
C1955 C1956 1.366 . S
C1956 C1955 1.366 . S
C1956 C1957 1.414 . S
C1956 C1959 1.499 . S
C1957 H1931 0.950 . S
C1957 C1956 1.414 . S
C1957 C1958 1.374 . S
C1958 H1932 0.950 . S
C1958 C1954 1.385 . S
C1958 C1957 1.374 . S
C1959 C1956 1.499 . S
C1959 C1960 1.373 . S
C1959 C1961 1.389 . S
C1960 H1933 0.950 . S
C1960 C1946 1.377 . S
C1960 C1959 1.373 . S
C1961 C1945 1.377 . S
C1961 C1959 1.389 . S
C1961 C1962 1.524 . S
C1962 C1961 1.524 . S
C1962 C1963 1.397 . S
C1962 C1967 1.363 . S
C1963 H1934 0.950 . S
C1963 C1962 1.397 . S
C1963 C1964 1.334 1_554 S
C1964 H1935 0.950 . S
C1964 C1963 1.334 1_556 S
C1964 C1965 1.287 . S
C1965 C1964 1.287 . S
C1965 C1966 1.524 . S
C1965 H1968 0.999 . S
C1966 H1936 0.950 . S
C1966 C1965 1.524 . S
C1966 C1967 1.415 1_556 S
C1967 H1937 0.950 . S
C1967 C1962 1.363 . S
C1967 C1966 1.415 1_554 S
H1968 C1965 0.999 . S
H1969 C1950 0.913 . S
H1970 C1988 0.951 . S
H1971 C1990 0.951 . S
H1972 C1992 0.950 . S
H1973 C1993 0.950 . S
H1974 C1995 0.950 . S
H1975 C1998 0.950 . S
H1976 C1999 0.950 . S
H1977 C2001 0.950 . S
H1978 C2002 0.950 . S
H1979 C2003 0.951 . S
H1980 C2005 0.951 . S
H1981 C2007 0.950 . S
H1982 C2008 0.950 . S
H1983 C2010 0.950 . S
H1984 C2013 0.950 . S
H1985 C2014 0.950 . S
H1986 C2016 0.950 . S
H1987 C2017 0.950 . S
C1988 H1970 0.951 . S
C1988 C1989 1.366 . S
C1988 C1990 1.388 . S
C1989 C1988 1.366 . S
C1989 C1993 1.385 . S
C1990 H1971 0.951 . S
C1990 C1988 1.388 . S
C1990 C1991 1.366 . S
C1991 C1990 1.366 . S
C1991 C1992 1.414 . S
C1991 C1994 1.499 . S
C1992 H1972 0.950 . S
C1992 C1991 1.414 . S
C1992 C1993 1.374 . S
C1993 H1973 0.950 . S
C1993 C1989 1.385 . S
C1993 C1992 1.374 . S
C1994 C1991 1.499 . S
C1994 C1995 1.373 . S
C1994 C1996 1.389 . S
C1995 H1974 0.950 . S
C1995 C1994 1.373 . S
C1995 C2011 1.377 . S
C1996 C1994 1.389 . S
C1996 C1997 1.524 . S
C1996 C2010 1.377 . S
C1997 C1996 1.524 . S
C1997 C1998 1.397 . S
C1997 C2002 1.363 . S
C1998 H1975 0.950 . S
C1998 C1997 1.397 . S
C1998 C1999 1.334 . S
C1999 H1976 0.950 . S
C1999 C1998 1.334 . S
C1999 C2000 1.287 . S
C2000 C1999 1.287 . S
C2000 C2001 1.524 . S
C2000 H2019 0.913 . S
C2001 H1977 0.950 . S
C2001 C2000 1.524 . S
C2001 C2002 1.415 . S
C2002 H1978 0.950 . S
C2002 C1997 1.363 . S
C2002 C2001 1.415 . S
C2003 H1979 0.951 . S
C2003 C2004 1.366 . S
C2003 C2005 1.388 . S
C2004 C2003 1.366 . S
C2004 C2008 1.385 . S
C2005 H1980 0.951 . S
C2005 C2003 1.388 . S
C2005 C2006 1.366 . S
C2006 C2005 1.366 . S
C2006 C2007 1.414 . S
C2006 C2009 1.499 . S
C2007 H1981 0.950 . S
C2007 C2006 1.414 . S
C2007 C2008 1.374 . S
C2008 H1982 0.950 . S
C2008 C2004 1.385 . S
C2008 C2007 1.374 . S
C2009 C2006 1.499 . S
C2009 C2010 1.373 . S
C2009 C2011 1.389 . S
C2010 H1983 0.950 . S
C2010 C1996 1.377 . S
C2010 C2009 1.373 . S
C2011 C1995 1.377 . S
C2011 C2009 1.389 . S
C2011 C2012 1.524 . S
C2012 C2011 1.524 . S
C2012 C2013 1.397 . S
C2012 C2017 1.363 . S
C2013 H1984 0.950 . S
C2013 C2012 1.397 . S
C2013 C2014 1.334 . S
C2014 H1985 0.950 . S
C2014 C2013 1.334 . S
C2014 C2015 1.287 . S
C2015 C2014 1.287 . S
C2015 C2016 1.524 . S
C2015 H2018 0.999 . S
C2016 H1986 0.950 . S
C2016 C2015 1.524 . S
C2016 C2017 1.415 . S
C2017 H1987 0.950 . S
C2017 C2012 1.363 . S
C2017 C2016 1.415 . S
H2018 C2015 0.999 . S
H2019 C2000 0.913 . S
H2020 C2038 0.951 . S
H2021 C2040 0.951 . S
H2022 C2042 0.950 . S
H2023 C2043 0.950 . S
H2024 C2045 0.950 . S
H2025 C2048 0.950 . S
H2026 C2049 0.950 . S
H2027 C2051 0.950 . S
H2028 C2052 0.950 . S
H2029 C2053 0.951 . S
H2030 C2055 0.951 . S
H2031 C2057 0.950 . S
H2032 C2058 0.950 . S
H2033 C2060 0.950 . S
H2034 C2063 0.950 . S
H2035 C2064 0.950 . S
H2036 C2066 0.950 . S
H2037 C2067 0.950 . S
C2038 H2020 0.951 . S
C2038 C2039 1.366 . S
C2038 C2040 1.388 . S
C2039 C2038 1.366 . S
C2039 C2043 1.385 . S
C2040 H2021 0.951 . S
C2040 C2038 1.388 . S
C2040 C2041 1.366 . S
C2041 C2040 1.366 . S
C2041 C2042 1.414 . S
C2041 C2044 1.499 . S
C2042 H2022 0.950 . S
C2042 C2041 1.414 . S
C2042 C2043 1.374 . S
C2043 H2023 0.950 . S
C2043 C2039 1.385 . S
C2043 C2042 1.374 . S
C2044 C2041 1.499 . S
C2044 C2045 1.373 . S
C2044 C2046 1.389 . S
C2045 H2024 0.950 . S
C2045 C2044 1.373 . S
C2045 C2061 1.377 . S
C2046 C2044 1.389 . S
C2046 C2047 1.524 . S
C2046 C2060 1.377 . S
C2047 C2046 1.524 . S
C2047 C2048 1.397 . S
C2047 C2052 1.363 . S
C2048 H2025 0.950 . S
C2048 C2047 1.397 . S
C2048 C2049 1.334 . S
C2049 H2026 0.950 . S
C2049 C2048 1.334 . S
C2049 C2050 1.287 . S
C2050 C2049 1.287 . S
C2050 C2051 1.524 . S
C2050 H2069 0.913 . S
C2051 H2027 0.950 . S
C2051 C2050 1.524 . S
C2051 C2052 1.415 . S
C2052 H2028 0.950 . S
C2052 C2047 1.363 . S
C2052 C2051 1.415 . S
C2053 H2029 0.951 . S
C2053 C2054 1.366 . S
C2053 C2055 1.388 . S
C2054 C2053 1.366 . S
C2054 C2058 1.385 . S
C2055 H2030 0.951 . S
C2055 C2053 1.388 . S
C2055 C2056 1.366 . S
C2056 C2055 1.366 . S
C2056 C2057 1.414 . S
C2056 C2059 1.499 . S
C2057 H2031 0.950 . S
C2057 C2056 1.414 . S
C2057 C2058 1.374 . S
C2058 H2032 0.950 . S
C2058 C2054 1.385 . S
C2058 C2057 1.374 . S
C2059 C2056 1.499 . S
C2059 C2060 1.373 . S
C2059 C2061 1.389 . S
C2060 H2033 0.950 . S
C2060 C2046 1.377 . S
C2060 C2059 1.373 . S
C2061 C2045 1.377 . S
C2061 C2059 1.389 . S
C2061 C2062 1.524 . S
C2062 C2061 1.524 . S
C2062 C2063 1.397 . S
C2062 C2067 1.363 . S
C2063 H2034 0.950 . S
C2063 C2062 1.397 . S
C2063 C2064 1.334 . S
C2064 H2035 0.950 . S
C2064 C2063 1.334 . S
C2064 C2065 1.287 . S
C2065 C2064 1.287 . S
C2065 C2066 1.524 . S
C2065 H2068 0.999 . S
C2066 H2036 0.950 . S
C2066 C2065 1.524 . S
C2066 C2067 1.415 . S
C2067 H2037 0.950 . S
C2067 C2062 1.363 . S
C2067 C2066 1.415 . S
H2068 C2065 0.999 . S
H2069 C2050 0.913 . S
H2070 C2088 0.951 . S
H2071 C2090 0.951 . S
H2072 C2092 0.950 . S
H2073 C2093 0.950 . S
H2074 C2095 0.950 . S
H2075 C2098 0.950 . S
H2076 C2099 0.950 . S
H2077 C2101 0.950 . S
H2078 C2102 0.950 . S
H2079 C2103 0.951 . S
H2080 C2105 0.951 . S
H2081 C2107 0.950 . S
H2082 C2108 0.950 . S
H2083 C2110 0.950 . S
H2084 C2113 0.950 . S
H2085 C2114 0.950 1_554 S
H2086 C2116 0.950 . S
H2087 C2117 0.950 . S
C2088 H2070 0.951 . S
C2088 C2089 1.366 . S
C2088 C2090 1.388 . S
C2089 C2088 1.366 . S
C2089 C2093 1.385 . S
C2090 H2071 0.951 . S
C2090 C2088 1.388 . S
C2090 C2091 1.366 . S
C2091 C2090 1.366 . S
C2091 C2092 1.414 . S
C2091 C2094 1.499 . S
C2092 H2072 0.950 . S
C2092 C2091 1.414 . S
C2092 C2093 1.374 . S
C2093 H2073 0.950 . S
C2093 C2089 1.385 . S
C2093 C2092 1.374 . S
C2094 C2091 1.499 . S
C2094 C2095 1.373 . S
C2094 C2096 1.389 . S
C2095 H2074 0.950 . S
C2095 C2094 1.373 . S
C2095 C2111 1.377 . S
C2096 C2094 1.389 . S
C2096 C2097 1.524 . S
C2096 C2110 1.377 . S
C2097 C2096 1.524 . S
C2097 C2098 1.397 . S
C2097 C2102 1.363 . S
C2098 H2075 0.950 . S
C2098 C2097 1.397 . S
C2098 C2099 1.334 . S
C2099 H2076 0.950 . S
C2099 C2098 1.334 . S
C2099 C2100 1.287 . S
C2100 C2099 1.287 . S
C2100 C2101 1.524 . S
C2100 H2119 0.913 . S
C2101 H2077 0.950 . S
C2101 C2100 1.524 . S
C2101 C2102 1.415 . S
C2102 H2078 0.950 . S
C2102 C2097 1.363 . S
C2102 C2101 1.415 . S
C2103 H2079 0.951 . S
C2103 C2104 1.366 . S
C2103 C2105 1.388 . S
C2104 C2103 1.366 . S
C2104 C2108 1.385 . S
C2105 H2080 0.951 . S
C2105 C2103 1.388 . S
C2105 C2106 1.366 . S
C2106 C2105 1.366 . S
C2106 C2107 1.414 . S
C2106 C2109 1.499 . S
C2107 H2081 0.950 . S
C2107 C2106 1.414 . S
C2107 C2108 1.374 . S
C2108 H2082 0.950 . S
C2108 C2104 1.385 . S
C2108 C2107 1.374 . S
C2109 C2106 1.499 . S
C2109 C2110 1.373 . S
C2109 C2111 1.389 . S
C2110 H2083 0.950 . S
C2110 C2096 1.377 . S
C2110 C2109 1.373 . S
C2111 C2095 1.377 . S
C2111 C2109 1.389 . S
C2111 C2112 1.524 . S
C2112 C2111 1.524 . S
C2112 C2113 1.397 . S
C2112 C2117 1.363 . S
C2113 H2084 0.950 . S
C2113 C2112 1.397 . S
C2113 C2114 1.334 . S
C2114 H2085 0.950 1_556 S
C2114 C2113 1.334 . S
C2114 C2115 1.287 . S
C2115 C2114 1.287 . S
C2115 C2116 1.524 . S
C2115 H2118 0.999 1_556 S
C2116 H2086 0.950 . S
C2116 C2115 1.524 . S
C2116 C2117 1.415 . S
C2117 H2087 0.950 . S
C2117 C2112 1.363 . S
C2117 C2116 1.415 . S
H2118 C2115 0.999 1_554 S
H2119 C2100 0.913 . S
H2120 C2138 0.951 . S
H2121 C2140 0.951 . S
H2122 C2142 0.950 . S
H2123 C2143 0.950 . S
H2124 C2145 0.950 . S
H2125 C2148 0.950 . S
H2126 C2149 0.950 . S
H2127 C2151 0.950 . S
H2128 C2152 0.950 . S
H2129 C2153 0.951 . S
H2130 C2155 0.951 . S
H2131 C2157 0.950 . S
H2132 C2158 0.950 . S
H2133 C2160 0.950 . S
H2134 C2163 0.950 . S
H2135 C2164 0.950 . S
H2136 C2166 0.950 . S
H2137 C2167 0.950 . S
C2138 H2120 0.951 . S
C2138 C2139 1.366 . S
C2138 C2140 1.388 . S
C2139 C2138 1.366 . S
C2139 C2143 1.385 . S
C2140 H2121 0.951 . S
C2140 C2138 1.388 . S
C2140 C2141 1.366 . S
C2141 C2140 1.366 . S
C2141 C2142 1.414 . S
C2141 C2144 1.499 . S
C2142 H2122 0.950 . S
C2142 C2141 1.414 . S
C2142 C2143 1.374 . S
C2143 H2123 0.950 . S
C2143 C2139 1.385 . S
C2143 C2142 1.374 . S
C2144 C2141 1.499 . S
C2144 C2145 1.373 . S
C2144 C2146 1.389 . S
C2145 H2124 0.950 . S
C2145 C2144 1.373 . S
C2145 C2161 1.377 . S
C2146 C2144 1.389 . S
C2146 C2147 1.524 . S
C2146 C2160 1.377 . S
C2147 C2146 1.524 . S
C2147 C2148 1.397 . S
C2147 C2152 1.363 . S
C2148 H2125 0.950 . S
C2148 C2147 1.397 . S
C2148 C2149 1.334 . S
C2149 H2126 0.950 . S
C2149 C2148 1.334 . S
C2149 C2150 1.287 . S
C2150 C2149 1.287 . S
C2150 C2151 1.524 . S
C2150 H2169 0.913 . S
C2151 H2127 0.950 . S
C2151 C2150 1.524 . S
C2151 C2152 1.415 . S
C2152 H2128 0.950 . S
C2152 C2147 1.363 . S
C2152 C2151 1.415 . S
C2153 H2129 0.951 . S
C2153 C2154 1.366 . S
C2153 C2155 1.388 . S
C2154 C2153 1.366 . S
C2154 C2158 1.385 . S
C2155 H2130 0.951 . S
C2155 C2153 1.388 . S
C2155 C2156 1.366 . S
C2156 C2155 1.366 . S
C2156 C2157 1.414 . S
C2156 C2159 1.499 . S
C2157 H2131 0.950 . S
C2157 C2156 1.414 . S
C2157 C2158 1.374 . S
C2158 H2132 0.950 . S
C2158 C2154 1.385 . S
C2158 C2157 1.374 . S
C2159 C2156 1.499 . S
C2159 C2160 1.373 . S
C2159 C2161 1.389 . S
C2160 H2133 0.950 . S
C2160 C2146 1.377 . S
C2160 C2159 1.373 . S
C2161 C2145 1.377 . S
C2161 C2159 1.389 . S
C2161 C2162 1.524 . S
C2162 C2161 1.524 . S
C2162 C2163 1.397 . S
C2162 C2167 1.363 . S
C2163 H2134 0.950 . S
C2163 C2162 1.397 . S
C2163 C2164 1.334 1_556 S
C2164 H2135 0.950 . S
C2164 C2163 1.334 1_554 S
C2164 C2165 1.287 . S
C2165 C2164 1.287 . S
C2165 C2166 1.524 . S
C2165 H2168 0.999 . S
C2166 H2136 0.950 . S
C2166 C2165 1.524 . S
C2166 C2167 1.415 1_554 S
C2167 H2137 0.950 . S
C2167 C2162 1.363 . S
C2167 C2166 1.415 1_556 S
H2168 C2165 0.999 . S
H2169 C2150 0.913 . S
H2170 C2188 0.951 . S
H2171 C2190 0.951 . S
H2172 C2192 0.950 . S
H2173 C2193 0.950 . S
H2174 C2195 0.950 . S
H2175 C2198 0.950 . S
H2176 C2199 0.950 . S
H2177 C2201 0.950 . S
H2178 C2202 0.950 . S
H2179 C2203 0.951 . S
H2180 C2205 0.951 . S
H2181 C2207 0.950 . S
H2182 C2208 0.950 . S
H2183 C2210 0.950 . S
H2184 C2213 0.950 . S
H2185 C2214 0.950 . S
H2186 C2216 0.950 . S
H2187 C2217 0.950 . S
C2188 H2170 0.951 . S
C2188 C2189 1.366 . S
C2188 C2190 1.388 . S
C2189 C2188 1.366 . S
C2189 C2193 1.385 . S
C2190 H2171 0.951 . S
C2190 C2188 1.388 . S
C2190 C2191 1.366 . S
C2191 C2190 1.366 . S
C2191 C2192 1.414 . S
C2191 C2194 1.499 . S
C2192 H2172 0.950 . S
C2192 C2191 1.414 . S
C2192 C2193 1.374 . S
C2193 H2173 0.950 . S
C2193 C2189 1.385 . S
C2193 C2192 1.374 . S
C2194 C2191 1.499 . S
C2194 C2195 1.373 . S
C2194 C2196 1.389 . S
C2195 H2174 0.950 . S
C2195 C2194 1.373 . S
C2195 C2211 1.377 . S
C2196 C2194 1.389 . S
C2196 C2197 1.524 . S
C2196 C2210 1.377 . S
C2197 C2196 1.524 . S
C2197 C2198 1.397 . S
C2197 C2202 1.363 . S
C2198 H2175 0.950 . S
C2198 C2197 1.397 . S
C2198 C2199 1.334 . S
C2199 H2176 0.950 . S
C2199 C2198 1.334 . S
C2199 C2200 1.287 . S
C2200 C2199 1.287 . S
C2200 C2201 1.524 . S
C2200 H2219 0.913 . S
C2201 H2177 0.950 . S
C2201 C2200 1.524 . S
C2201 C2202 1.415 . S
C2202 H2178 0.950 . S
C2202 C2197 1.363 . S
C2202 C2201 1.415 . S
C2203 H2179 0.951 . S
C2203 C2204 1.366 . S
C2203 C2205 1.388 . S
C2204 C2203 1.366 . S
C2204 C2208 1.385 . S
C2205 H2180 0.951 . S
C2205 C2203 1.388 . S
C2205 C2206 1.366 . S
C2206 C2205 1.366 . S
C2206 C2207 1.414 . S
C2206 C2209 1.499 . S
C2207 H2181 0.950 . S
C2207 C2206 1.414 . S
C2207 C2208 1.374 . S
C2208 H2182 0.950 . S
C2208 C2204 1.385 . S
C2208 C2207 1.374 . S
C2209 C2206 1.499 . S
C2209 C2210 1.373 . S
C2209 C2211 1.389 . S
C2210 H2183 0.950 . S
C2210 C2196 1.377 . S
C2210 C2209 1.373 . S
C2211 C2195 1.377 . S
C2211 C2209 1.389 . S
C2211 C2212 1.524 . S
C2212 C2211 1.524 . S
C2212 C2213 1.397 . S
C2212 C2217 1.363 . S
C2213 H2184 0.950 . S
C2213 C2212 1.397 . S
C2213 C2214 1.334 . S
C2214 H2185 0.950 . S
C2214 C2213 1.334 . S
C2214 C2215 1.287 . S
C2215 C2214 1.287 . S
C2215 C2216 1.524 . S
C2215 H2218 0.999 . S
C2216 H2186 0.950 . S
C2216 C2215 1.524 . S
C2216 C2217 1.415 . S
C2217 H2187 0.950 . S
C2217 C2212 1.363 . S
C2217 C2216 1.415 . S
H2218 C2215 0.999 . S
H2219 C2200 0.913 . S
H2220 C2238 0.951 . S
H2221 C2240 0.951 . S
H2222 C2242 0.950 . S
H2223 C2243 0.950 . S
H2224 C2245 0.950 . S
H2225 C2248 0.950 . S
H2226 C2249 0.950 . S
H2227 C2251 0.950 . S
H2228 C2252 0.950 . S
H2229 C2253 0.951 . S
H2230 C2255 0.951 . S
H2231 C2257 0.950 . S
H2232 C2258 0.950 . S
H2233 C2260 0.950 . S
H2234 C2263 0.950 . S
H2235 C2264 0.950 . S
H2236 C2266 0.950 . S
H2237 C2267 0.950 . S
C2238 H2220 0.951 . S
C2238 C2239 1.366 . S
C2238 C2240 1.388 . S
C2239 C2238 1.366 . S
C2239 C2243 1.385 . S
C2240 H2221 0.951 . S
C2240 C2238 1.388 . S
C2240 C2241 1.366 . S
C2241 C2240 1.366 . S
C2241 C2242 1.414 . S
C2241 C2244 1.499 . S
C2242 H2222 0.950 . S
C2242 C2241 1.414 . S
C2242 C2243 1.374 . S
C2243 H2223 0.950 . S
C2243 C2239 1.385 . S
C2243 C2242 1.374 . S
C2244 C2241 1.499 . S
C2244 C2245 1.373 . S
C2244 C2246 1.389 . S
C2245 H2224 0.950 . S
C2245 C2244 1.373 . S
C2245 C2261 1.377 . S
C2246 C2244 1.389 . S
C2246 C2247 1.524 . S
C2246 C2260 1.377 . S
C2247 C2246 1.524 . S
C2247 C2248 1.397 . S
C2247 C2252 1.363 . S
C2248 H2225 0.950 . S
C2248 C2247 1.397 . S
C2248 C2249 1.334 . S
C2249 H2226 0.950 . S
C2249 C2248 1.334 . S
C2249 C2250 1.287 . S
C2250 C2249 1.287 . S
C2250 C2251 1.524 . S
C2250 H2269 0.913 . S
C2251 H2227 0.950 . S
C2251 C2250 1.524 . S
C2251 C2252 1.415 . S
C2252 H2228 0.950 . S
C2252 C2247 1.363 . S
C2252 C2251 1.415 . S
C2253 H2229 0.951 . S
C2253 C2254 1.366 . S
C2253 C2255 1.388 . S
C2254 C2253 1.366 . S
C2254 C2258 1.385 . S
C2255 H2230 0.951 . S
C2255 C2253 1.388 . S
C2255 C2256 1.366 . S
C2256 C2255 1.366 . S
C2256 C2257 1.414 . S
C2256 C2259 1.499 . S
C2257 H2231 0.950 . S
C2257 C2256 1.414 . S
C2257 C2258 1.374 . S
C2258 H2232 0.950 . S
C2258 C2254 1.385 . S
C2258 C2257 1.374 . S
C2259 C2256 1.499 . S
C2259 C2260 1.373 . S
C2259 C2261 1.389 . S
C2260 H2233 0.950 . S
C2260 C2246 1.377 . S
C2260 C2259 1.373 . S
C2261 C2245 1.377 . S
C2261 C2259 1.389 . S
C2261 C2262 1.524 . S
C2262 C2261 1.524 . S
C2262 C2263 1.397 . S
C2262 C2267 1.363 . S
C2263 H2234 0.950 . S
C2263 C2262 1.397 . S
C2263 C2264 1.334 . S
C2264 H2235 0.950 . S
C2264 C2263 1.334 . S
C2264 C2265 1.287 . S
C2265 C2264 1.287 . S
C2265 C2266 1.524 . S
C2265 H2268 0.999 . S
C2266 H2236 0.950 . S
C2266 C2265 1.524 . S
C2266 C2267 1.415 . S
C2267 H2237 0.950 . S
C2267 C2262 1.363 . S
C2267 C2266 1.415 . S
H2268 C2265 0.999 . S
H2269 C2250 0.913 . S
H2270 C2288 0.951 . S
H2271 C2290 0.951 . S
H2272 C2292 0.950 . S
H2273 C2293 0.950 . S
H2274 C2295 0.950 . S
H2275 C2298 0.950 . S
H2276 C2299 0.950 . S
H2277 C2301 0.950 . S
H2278 C2302 0.950 . S
H2279 C2303 0.951 . S
H2280 C2305 0.951 . S
H2281 C2307 0.950 . S
H2282 C2308 0.950 . S
H2283 C2310 0.950 . S
H2284 C2313 0.950 . S
H2285 C2314 0.950 . S
H2286 C2316 0.950 . S
H2287 C2317 0.950 . S
C2288 H2270 0.951 . S
C2288 C2289 1.366 . S
C2288 C2290 1.388 . S
C2289 C2288 1.366 . S
C2289 C2293 1.385 . S
C2290 H2271 0.951 . S
C2290 C2288 1.388 . S
C2290 C2291 1.366 . S
C2291 C2290 1.366 . S
C2291 C2292 1.414 . S
C2291 C2294 1.499 . S
C2292 H2272 0.950 . S
C2292 C2291 1.414 . S
C2292 C2293 1.374 . S
C2293 H2273 0.950 . S
C2293 C2289 1.385 . S
C2293 C2292 1.374 . S
C2294 C2291 1.499 . S
C2294 C2295 1.373 . S
C2294 C2296 1.389 . S
C2295 H2274 0.950 . S
C2295 C2294 1.373 . S
C2295 C2311 1.377 . S
C2296 C2294 1.389 . S
C2296 C2297 1.524 . S
C2296 C2310 1.377 . S
C2297 C2296 1.524 . S
C2297 C2298 1.397 . S
C2297 C2302 1.363 . S
C2298 H2275 0.950 . S
C2298 C2297 1.397 . S
C2298 C2299 1.334 . S
C2299 H2276 0.950 . S
C2299 C2298 1.334 . S
C2299 C2300 1.287 . S
C2300 C2299 1.287 . S
C2300 C2301 1.524 . S
C2300 H2319 0.913 . S
C2301 H2277 0.950 . S
C2301 C2300 1.524 . S
C2301 C2302 1.415 . S
C2302 H2278 0.950 . S
C2302 C2297 1.363 . S
C2302 C2301 1.415 . S
C2303 H2279 0.951 . S
C2303 C2304 1.366 . S
C2303 C2305 1.388 . S
C2304 C2303 1.366 . S
C2304 C2308 1.385 . S
C2305 H2280 0.951 . S
C2305 C2303 1.388 . S
C2305 C2306 1.366 . S
C2306 C2305 1.366 . S
C2306 C2307 1.414 . S
C2306 C2309 1.499 . S
C2307 H2281 0.950 . S
C2307 C2306 1.414 . S
C2307 C2308 1.374 . S
C2308 H2282 0.950 . S
C2308 C2304 1.385 . S
C2308 C2307 1.374 . S
C2309 C2306 1.499 . S
C2309 C2310 1.373 . S
C2309 C2311 1.389 . S
C2310 H2283 0.950 . S
C2310 C2296 1.377 . S
C2310 C2309 1.373 . S
C2311 C2295 1.377 . S
C2311 C2309 1.389 . S
C2311 C2312 1.524 . S
C2312 C2311 1.524 . S
C2312 C2313 1.397 . S
C2312 C2317 1.363 . S
C2313 H2284 0.950 . S
C2313 C2312 1.397 . S
C2313 C2314 1.334 . S
C2314 H2285 0.950 . S
C2314 C2313 1.334 . S
C2314 C2315 1.287 . S
C2315 C2314 1.287 . S
C2315 C2316 1.524 . S
C2315 H2318 0.999 . S
C2316 H2286 0.950 . S
C2316 C2315 1.524 . S
C2316 C2317 1.415 . S
C2317 H2287 0.950 . S
C2317 C2312 1.363 . S
C2317 C2316 1.415 . S
H2318 C2315 0.999 . S
H2319 C2300 0.913 . S
H2320 C2338 0.951 . S
H2321 C2340 0.951 . S
H2322 C2342 0.950 . S
H2323 C2343 0.950 . S
H2324 C2345 0.950 . S
H2325 C2348 0.950 . S
H2326 C2349 0.950 . S
H2327 C2351 0.950 . S
H2328 C2352 0.950 . S
H2329 C2353 0.951 . S
H2330 C2355 0.951 . S
H2331 C2357 0.950 . S
H2332 C2358 0.950 . S
H2333 C2360 0.950 . S
H2334 C2363 0.950 . S
H2335 C2364 0.950 1_556 S
H2336 C2366 0.950 . S
H2337 C2367 0.950 . S
C2338 H2320 0.951 . S
C2338 C2339 1.366 . S
C2338 C2340 1.388 . S
C2339 C2338 1.366 . S
C2339 C2343 1.385 . S
C2340 H2321 0.951 . S
C2340 C2338 1.388 . S
C2340 C2341 1.366 . S
C2341 C2340 1.366 . S
C2341 C2342 1.414 . S
C2341 C2344 1.499 . S
C2342 H2322 0.950 . S
C2342 C2341 1.414 . S
C2342 C2343 1.374 . S
C2343 H2323 0.950 . S
C2343 C2339 1.385 . S
C2343 C2342 1.374 . S
C2344 C2341 1.499 . S
C2344 C2345 1.373 . S
C2344 C2346 1.389 . S
C2345 H2324 0.950 . S
C2345 C2344 1.373 . S
C2345 C2361 1.377 . S
C2346 C2344 1.389 . S
C2346 C2347 1.524 . S
C2346 C2360 1.377 . S
C2347 C2346 1.524 . S
C2347 C2348 1.397 . S
C2347 C2352 1.363 . S
C2348 H2325 0.950 . S
C2348 C2347 1.397 . S
C2348 C2349 1.334 . S
C2349 H2326 0.950 . S
C2349 C2348 1.334 . S
C2349 C2350 1.287 . S
C2350 C2349 1.287 . S
C2350 C2351 1.524 . S
C2350 H2369 0.913 . S
C2351 H2327 0.950 . S
C2351 C2350 1.524 . S
C2351 C2352 1.415 . S
C2352 H2328 0.950 . S
C2352 C2347 1.363 . S
C2352 C2351 1.415 . S
C2353 H2329 0.951 . S
C2353 C2354 1.366 . S
C2353 C2355 1.388 . S
C2354 C2353 1.366 . S
C2354 C2358 1.385 . S
C2355 H2330 0.951 . S
C2355 C2353 1.388 . S
C2355 C2356 1.366 . S
C2356 C2355 1.366 . S
C2356 C2357 1.414 . S
C2356 C2359 1.499 . S
C2357 H2331 0.950 . S
C2357 C2356 1.414 . S
C2357 C2358 1.374 . S
C2358 H2332 0.950 . S
C2358 C2354 1.385 . S
C2358 C2357 1.374 . S
C2359 C2356 1.499 . S
C2359 C2360 1.373 . S
C2359 C2361 1.389 . S
C2360 H2333 0.950 . S
C2360 C2346 1.377 . S
C2360 C2359 1.373 . S
C2361 C2345 1.377 . S
C2361 C2359 1.389 . S
C2361 C2362 1.524 . S
C2362 C2361 1.524 . S
C2362 C2363 1.397 . S
C2362 C2367 1.363 . S
C2363 H2334 0.950 . S
C2363 C2362 1.397 . S
C2363 C2364 1.334 . S
C2364 H2335 0.950 1_554 S
C2364 C2363 1.334 . S
C2364 C2365 1.287 . S
C2365 C2364 1.287 . S
C2365 C2366 1.524 . S
C2365 H2368 0.999 1_554 S
C2366 H2336 0.950 . S
C2366 C2365 1.524 . S
C2366 C2367 1.415 . S
C2367 H2337 0.950 . S
C2367 C2362 1.363 . S
C2367 C2366 1.415 . S
H2368 C2365 0.999 1_556 S
H2369 C2350 0.913 . S
H2370 C2388 0.951 . S
H2371 C2390 0.951 . S
H2372 C2392 0.950 . S
H2373 C2393 0.950 . S
H2374 C2395 0.950 . S
H2375 C2398 0.950 . S
H2376 C2399 0.950 . S
H2377 C2401 0.950 . S
H2378 C2402 0.950 . S
H2379 C2403 0.951 . S
H2380 C2405 0.951 . S
H2381 C2407 0.950 . S
H2382 C2408 0.950 . S
H2383 C2410 0.950 . S
H2384 C2413 0.950 . S
H2385 C2414 0.950 . S
H2386 C2416 0.950 . S
H2387 C2417 0.950 . S
C2388 H2370 0.951 . S
C2388 C2389 1.366 . S
C2388 C2390 1.388 . S
C2389 C2388 1.366 . S
C2389 C2393 1.385 . S
C2390 H2371 0.951 . S
C2390 C2388 1.388 . S
C2390 C2391 1.366 . S
C2391 C2390 1.366 . S
C2391 C2392 1.414 . S
C2391 C2394 1.499 . S
C2392 H2372 0.950 . S
C2392 C2391 1.414 . S
C2392 C2393 1.374 . S
C2393 H2373 0.950 . S
C2393 C2389 1.385 . S
C2393 C2392 1.374 . S
C2394 C2391 1.499 . S
C2394 C2395 1.373 . S
C2394 C2396 1.389 . S
C2395 H2374 0.950 . S
C2395 C2394 1.373 . S
C2395 C2411 1.377 . S
C2396 C2394 1.389 . S
C2396 C2397 1.524 . S
C2396 C2410 1.377 . S
C2397 C2396 1.524 . S
C2397 C2398 1.397 . S
C2397 C2402 1.363 . S
C2398 H2375 0.950 . S
C2398 C2397 1.397 . S
C2398 C2399 1.334 . S
C2399 H2376 0.950 . S
C2399 C2398 1.334 . S
C2399 C2400 1.287 . S
C2400 C2399 1.287 . S
C2400 C2401 1.524 1_554 S
C2400 H2419 0.913 1_554 S
C2401 H2377 0.950 . S
C2401 C2400 1.524 1_556 S
C2401 C2402 1.415 1_556 S
C2402 H2378 0.950 . S
C2402 C2397 1.363 . S
C2402 C2401 1.415 1_554 S
C2403 H2379 0.951 . S
C2403 C2404 1.366 . S
C2403 C2405 1.388 . S
C2404 C2403 1.366 . S
C2404 C2408 1.385 . S
C2405 H2380 0.951 . S
C2405 C2403 1.388 . S
C2405 C2406 1.366 . S
C2406 C2405 1.366 . S
C2406 C2407 1.414 . S
C2406 C2409 1.499 . S
C2407 H2381 0.950 . S
C2407 C2406 1.414 . S
C2407 C2408 1.374 . S
C2408 H2382 0.950 . S
C2408 C2404 1.385 . S
C2408 C2407 1.374 . S
C2409 C2406 1.499 . S
C2409 C2410 1.373 . S
C2409 C2411 1.389 . S
C2410 H2383 0.950 . S
C2410 C2396 1.377 . S
C2410 C2409 1.373 . S
C2411 C2395 1.377 . S
C2411 C2409 1.389 . S
C2411 C2412 1.524 . S
C2412 C2411 1.524 . S
C2412 C2413 1.397 . S
C2412 C2417 1.363 . S
C2413 H2384 0.950 . S
C2413 C2412 1.397 . S
C2413 C2414 1.334 . S
C2414 H2385 0.950 . S
C2414 C2413 1.334 . S
C2414 C2415 1.287 . S
C2415 C2414 1.287 . S
C2415 C2416 1.524 . S
C2415 H2418 0.999 . S
C2416 H2386 0.950 . S
C2416 C2415 1.524 . S
C2416 C2417 1.415 . S
C2417 H2387 0.950 . S
C2417 C2412 1.363 . S
C2417 C2416 1.415 . S
H2418 C2415 0.999 . S
H2419 C2400 0.913 1_556 S
H2420 C2438 0.951 . S
H2421 C2440 0.951 . S
H2422 C2442 0.950 . S
H2423 C2443 0.950 . S
H2424 C2445 0.950 . S
H2425 C2448 0.950 . S
H2426 C2449 0.950 . S
H2427 C2451 0.950 . S
H2428 C2452 0.950 . S
H2429 C2453 0.951 . S
H2430 C2455 0.951 . S
H2431 C2457 0.950 . S
H2432 C2458 0.950 . S
H2433 C2460 0.950 . S
H2434 C2463 0.950 . S
H2435 C2464 0.950 1_556 S
H2436 C2466 0.950 . S
H2437 C2467 0.950 . S
C2438 H2420 0.951 . S
C2438 C2439 1.366 . S
C2438 C2440 1.388 . S
C2439 C2438 1.366 . S
C2439 C2443 1.385 . S
C2440 H2421 0.951 . S
C2440 C2438 1.388 . S
C2440 C2441 1.366 . S
C2441 C2440 1.366 . S
C2441 C2442 1.414 . S
C2441 C2444 1.499 . S
C2442 H2422 0.950 . S
C2442 C2441 1.414 . S
C2442 C2443 1.374 . S
C2443 H2423 0.950 . S
C2443 C2439 1.385 . S
C2443 C2442 1.374 . S
C2444 C2441 1.499 . S
C2444 C2445 1.373 . S
C2444 C2446 1.389 . S
C2445 H2424 0.950 . S
C2445 C2444 1.373 . S
C2445 C2461 1.377 . S
C2446 C2444 1.389 . S
C2446 C2447 1.524 . S
C2446 C2460 1.377 . S
C2447 C2446 1.524 . S
C2447 C2448 1.397 . S
C2447 C2452 1.363 . S
C2448 H2425 0.950 . S
C2448 C2447 1.397 . S
C2448 C2449 1.334 . S
C2449 H2426 0.950 . S
C2449 C2448 1.334 . S
C2449 C2450 1.287 . S
C2450 C2449 1.287 . S
C2450 C2451 1.524 . S
C2450 H2469 0.913 . S
C2451 H2427 0.950 . S
C2451 C2450 1.524 . S
C2451 C2452 1.415 . S
C2452 H2428 0.950 . S
C2452 C2447 1.363 . S
C2452 C2451 1.415 . S
C2453 H2429 0.951 . S
C2453 C2454 1.366 . S
C2453 C2455 1.388 . S
C2454 C2453 1.366 . S
C2454 C2458 1.385 . S
C2455 H2430 0.951 . S
C2455 C2453 1.388 . S
C2455 C2456 1.366 . S
C2456 C2455 1.366 . S
C2456 C2457 1.414 . S
C2456 C2459 1.499 . S
C2457 H2431 0.950 . S
C2457 C2456 1.414 . S
C2457 C2458 1.374 . S
C2458 H2432 0.950 . S
C2458 C2454 1.385 . S
C2458 C2457 1.374 . S
C2459 C2456 1.499 . S
C2459 C2460 1.373 . S
C2459 C2461 1.389 . S
C2460 H2433 0.950 . S
C2460 C2446 1.377 . S
C2460 C2459 1.373 . S
C2461 C2445 1.377 . S
C2461 C2459 1.389 . S
C2461 C2462 1.524 . S
C2462 C2461 1.524 . S
C2462 C2463 1.397 . S
C2462 C2467 1.363 . S
C2463 H2434 0.950 . S
C2463 C2462 1.397 . S
C2463 C2464 1.334 . S
C2464 H2435 0.950 1_554 S
C2464 C2463 1.334 . S
C2464 C2465 1.287 . S
C2465 C2464 1.287 . S
C2465 C2466 1.524 . S
C2465 H2468 0.999 1_554 S
C2466 H2436 0.950 . S
C2466 C2465 1.524 . S
C2466 C2467 1.415 . S
C2467 H2437 0.950 . S
C2467 C2462 1.363 . S
C2467 C2466 1.415 . S
H2468 C2465 0.999 1_556 S
H2469 C2450 0.913 . S
H2470 C2488 0.951 . S
H2471 C2490 0.951 . S
H2472 C2492 0.950 . S
H2473 C2493 0.950 . S
H2474 C2495 0.950 . S
H2475 C2498 0.950 . S
H2476 C2499 0.950 . S
H2477 C2501 0.950 . S
H2478 C2502 0.950 . S
H2479 C2503 0.951 . S
H2480 C2505 0.951 . S
H2481 C2507 0.950 . S
H2482 C2508 0.950 . S
H2483 C2510 0.950 . S
H2484 C2513 0.950 . S
H2485 C2514 0.950 . S
H2486 C2516 0.950 . S
H2487 C2517 0.950 . S
C2488 H2470 0.951 . S
C2488 C2489 1.366 . S
C2488 C2490 1.388 . S
C2489 C2488 1.366 . S
C2489 C2493 1.385 . S
C2490 H2471 0.951 . S
C2490 C2488 1.388 . S
C2490 C2491 1.366 . S
C2491 C2490 1.366 . S
C2491 C2492 1.414 . S
C2491 C2494 1.499 . S
C2492 H2472 0.950 . S
C2492 C2491 1.414 . S
C2492 C2493 1.374 . S
C2493 H2473 0.950 . S
C2493 C2489 1.385 . S
C2493 C2492 1.374 . S
C2494 C2491 1.499 . S
C2494 C2495 1.373 . S
C2494 C2496 1.389 . S
C2495 H2474 0.950 . S
C2495 C2494 1.373 . S
C2495 C2511 1.377 . S
C2496 C2494 1.389 . S
C2496 C2497 1.524 . S
C2496 C2510 1.377 . S
C2497 C2496 1.524 . S
C2497 C2498 1.397 . S
C2497 C2502 1.363 . S
C2498 H2475 0.950 . S
C2498 C2497 1.397 . S
C2498 C2499 1.334 . S
C2499 H2476 0.950 . S
C2499 C2498 1.334 . S
C2499 C2500 1.287 . S
C2500 C2499 1.287 . S
C2500 C2501 1.524 . S
C2500 H2519 0.913 . S
C2501 H2477 0.950 . S
C2501 C2500 1.524 . S
C2501 C2502 1.415 . S
C2502 H2478 0.950 . S
C2502 C2497 1.363 . S
C2502 C2501 1.415 . S
C2503 H2479 0.951 . S
C2503 C2504 1.366 . S
C2503 C2505 1.388 . S
C2504 C2503 1.366 . S
C2504 C2508 1.385 . S
C2505 H2480 0.951 . S
C2505 C2503 1.388 . S
C2505 C2506 1.366 . S
C2506 C2505 1.366 . S
C2506 C2507 1.414 . S
C2506 C2509 1.499 . S
C2507 H2481 0.950 . S
C2507 C2506 1.414 . S
C2507 C2508 1.374 . S
C2508 H2482 0.950 . S
C2508 C2504 1.385 . S
C2508 C2507 1.374 . S
C2509 C2506 1.499 . S
C2509 C2510 1.373 . S
C2509 C2511 1.389 . S
C2510 H2483 0.950 . S
C2510 C2496 1.377 . S
C2510 C2509 1.373 . S
C2511 C2495 1.377 . S
C2511 C2509 1.389 . S
C2511 C2512 1.524 . S
C2512 C2511 1.524 . S
C2512 C2513 1.397 . S
C2512 C2517 1.363 . S
C2513 H2484 0.950 . S
C2513 C2512 1.397 . S
C2513 C2514 1.334 . S
C2514 H2485 0.950 . S
C2514 C2513 1.334 . S
C2514 C2515 1.287 . S
C2515 C2514 1.287 . S
C2515 C2516 1.524 . S
C2515 H2518 0.999 . S
C2516 H2486 0.950 . S
C2516 C2515 1.524 . S
C2516 C2517 1.415 . S
C2517 H2487 0.950 . S
C2517 C2512 1.363 . S
C2517 C2516 1.415 . S
H2518 C2515 0.999 . S
H2519 C2500 0.913 . S
H2520 C2538 0.951 . S
H2521 C2540 0.951 . S
H2522 C2542 0.950 . S
H2523 C2543 0.950 . S
H2524 C2545 0.950 . S
H2525 C2548 0.950 . S
H2526 C2549 0.950 . S
H2527 C2551 0.950 . S
H2528 C2552 0.950 . S
H2529 C2553 0.951 . S
H2530 C2555 0.951 . S
H2531 C2557 0.950 . S
H2532 C2558 0.950 . S
H2533 C2560 0.950 . S
H2534 C2563 0.950 . S
H2535 C2564 0.950 . S
H2536 C2566 0.950 . S
H2537 C2567 0.950 . S
C2538 H2520 0.951 . S
C2538 C2539 1.366 . S
C2538 C2540 1.388 . S
C2539 C2538 1.366 . S
C2539 C2543 1.385 . S
C2540 H2521 0.951 . S
C2540 C2538 1.388 . S
C2540 C2541 1.366 . S
C2541 C2540 1.366 . S
C2541 C2542 1.414 . S
C2541 C2544 1.499 . S
C2542 H2522 0.950 . S
C2542 C2541 1.414 . S
C2542 C2543 1.374 . S
C2543 H2523 0.950 . S
C2543 C2539 1.385 . S
C2543 C2542 1.374 . S
C2544 C2541 1.499 . S
C2544 C2545 1.373 . S
C2544 C2546 1.389 . S
C2545 H2524 0.950 . S
C2545 C2544 1.373 . S
C2545 C2561 1.377 . S
C2546 C2544 1.389 . S
C2546 C2547 1.524 . S
C2546 C2560 1.377 . S
C2547 C2546 1.524 . S
C2547 C2548 1.397 . S
C2547 C2552 1.363 . S
C2548 H2525 0.950 . S
C2548 C2547 1.397 . S
C2548 C2549 1.334 . S
C2549 H2526 0.950 . S
C2549 C2548 1.334 . S
C2549 C2550 1.287 . S
C2550 C2549 1.287 . S
C2550 C2551 1.524 . S
C2550 H2569 0.913 . S
C2551 H2527 0.950 . S
C2551 C2550 1.524 . S
C2551 C2552 1.415 . S
C2552 H2528 0.950 . S
C2552 C2547 1.363 . S
C2552 C2551 1.415 . S
C2553 H2529 0.951 . S
C2553 C2554 1.366 . S
C2553 C2555 1.388 . S
C2554 C2553 1.366 . S
C2554 C2558 1.385 . S
C2555 H2530 0.951 . S
C2555 C2553 1.388 . S
C2555 C2556 1.366 . S
C2556 C2555 1.366 . S
C2556 C2557 1.414 . S
C2556 C2559 1.499 . S
C2557 H2531 0.950 . S
C2557 C2556 1.414 . S
C2557 C2558 1.374 . S
C2558 H2532 0.950 . S
C2558 C2554 1.385 . S
C2558 C2557 1.374 . S
C2559 C2556 1.499 . S
C2559 C2560 1.373 . S
C2559 C2561 1.389 . S
C2560 H2533 0.950 . S
C2560 C2546 1.377 . S
C2560 C2559 1.373 . S
C2561 C2545 1.377 . S
C2561 C2559 1.389 . S
C2561 C2562 1.524 . S
C2562 C2561 1.524 . S
C2562 C2563 1.397 . S
C2562 C2567 1.363 . S
C2563 H2534 0.950 . S
C2563 C2562 1.397 . S
C2563 C2564 1.334 . S
C2564 H2535 0.950 . S
C2564 C2563 1.334 . S
C2564 C2565 1.287 . S
C2565 C2564 1.287 . S
C2565 C2566 1.524 . S
C2565 H2568 0.999 . S
C2566 H2536 0.950 . S
C2566 C2565 1.524 . S
C2566 C2567 1.415 . S
C2567 H2537 0.950 . S
C2567 C2562 1.363 . S
C2567 C2566 1.415 . S
H2568 C2565 0.999 . S
H2569 C2550 0.913 . S
H2570 C2588 0.951 . S
H2571 C2590 0.951 . S
H2572 C2592 0.950 . S
H2573 C2593 0.950 . S
H2574 C2595 0.950 . S
H2575 C2598 0.950 . S
H2576 C2599 0.950 . S
H2577 C2601 0.950 . S
H2578 C2602 0.950 . S
H2579 C2603 0.951 . S
H2580 C2605 0.951 . S
H2581 C2607 0.950 . S
H2582 C2608 0.950 . S
H2583 C2610 0.950 . S
H2584 C2613 0.950 . S
H2585 C2614 0.950 . S
H2586 C2616 0.950 . S
H2587 C2617 0.950 . S
C2588 H2570 0.951 . S
C2588 C2589 1.366 . S
C2588 C2590 1.388 . S
C2589 C2588 1.366 . S
C2589 C2593 1.385 . S
C2590 H2571 0.951 . S
C2590 C2588 1.388 . S
C2590 C2591 1.366 . S
C2591 C2590 1.366 . S
C2591 C2592 1.414 . S
C2591 C2594 1.499 . S
C2592 H2572 0.950 . S
C2592 C2591 1.414 . S
C2592 C2593 1.374 . S
C2593 H2573 0.950 . S
C2593 C2589 1.385 . S
C2593 C2592 1.374 . S
C2594 C2591 1.499 . S
C2594 C2595 1.373 . S
C2594 C2596 1.389 . S
C2595 H2574 0.950 . S
C2595 C2594 1.373 . S
C2595 C2611 1.377 . S
C2596 C2594 1.389 . S
C2596 C2597 1.524 . S
C2596 C2610 1.377 . S
C2597 C2596 1.524 . S
C2597 C2598 1.397 . S
C2597 C2602 1.363 . S
C2598 H2575 0.950 . S
C2598 C2597 1.397 . S
C2598 C2599 1.334 . S
C2599 H2576 0.950 . S
C2599 C2598 1.334 . S
C2599 C2600 1.287 . S
C2600 C2599 1.287 . S
C2600 C2601 1.524 . S
C2600 H2619 0.913 . S
C2601 H2577 0.950 . S
C2601 C2600 1.524 . S
C2601 C2602 1.415 . S
C2602 H2578 0.950 . S
C2602 C2597 1.363 . S
C2602 C2601 1.415 . S
C2603 H2579 0.951 . S
C2603 C2604 1.366 . S
C2603 C2605 1.388 . S
C2604 C2603 1.366 . S
C2604 C2608 1.385 . S
C2605 H2580 0.951 . S
C2605 C2603 1.388 . S
C2605 C2606 1.366 . S
C2606 C2605 1.366 . S
C2606 C2607 1.414 . S
C2606 C2609 1.499 . S
C2607 H2581 0.950 . S
C2607 C2606 1.414 . S
C2607 C2608 1.374 . S
C2608 H2582 0.950 . S
C2608 C2604 1.385 . S
C2608 C2607 1.374 . S
C2609 C2606 1.499 . S
C2609 C2610 1.373 . S
C2609 C2611 1.389 . S
C2610 H2583 0.950 . S
C2610 C2596 1.377 . S
C2610 C2609 1.373 . S
C2611 C2595 1.377 . S
C2611 C2609 1.389 . S
C2611 C2612 1.524 . S
C2612 C2611 1.524 . S
C2612 C2613 1.397 . S
C2612 C2617 1.363 . S
C2613 H2584 0.950 . S
C2613 C2612 1.397 . S
C2613 C2614 1.334 . S
C2614 H2585 0.950 . S
C2614 C2613 1.334 . S
C2614 C2615 1.287 . S
C2615 C2614 1.287 . S
C2615 C2616 1.524 . S
C2615 H2618 0.999 . S
C2616 H2586 0.950 . S
C2616 C2615 1.524 . S
C2616 C2617 1.415 . S
C2617 H2587 0.950 . S
C2617 C2612 1.363 . S
C2617 C2616 1.415 . S
H2618 C2615 0.999 . S
H2619 C2600 0.913 . S
H2620 C2638 0.951 . S
H2621 C2640 0.951 . S
H2622 C2642 0.950 . S
H2623 C2643 0.950 . S
H2624 C2645 0.950 . S
H2625 C2648 0.950 . S
H2626 C2649 0.950 . S
H2627 C2651 0.950 . S
H2628 C2652 0.950 . S
H2629 C2653 0.951 . S
H2630 C2655 0.951 . S
H2631 C2657 0.950 . S
H2632 C2658 0.950 . S
H2633 C2660 0.950 . S
H2634 C2663 0.950 . S
H2635 C2664 0.950 . S
H2636 C2666 0.950 . S
H2637 C2667 0.950 . S
C2638 H2620 0.951 . S
C2638 C2639 1.366 . S
C2638 C2640 1.388 . S
C2639 C2638 1.366 . S
C2639 C2643 1.385 . S
C2640 H2621 0.951 . S
C2640 C2638 1.388 . S
C2640 C2641 1.366 . S
C2641 C2640 1.366 . S
C2641 C2642 1.414 . S
C2641 C2644 1.499 . S
C2642 H2622 0.950 . S
C2642 C2641 1.414 . S
C2642 C2643 1.374 . S
C2643 H2623 0.950 . S
C2643 C2639 1.385 . S
C2643 C2642 1.374 . S
C2644 C2641 1.499 . S
C2644 C2645 1.373 . S
C2644 C2646 1.389 . S
C2645 H2624 0.950 . S
C2645 C2644 1.373 . S
C2645 C2661 1.377 . S
C2646 C2644 1.389 . S
C2646 C2647 1.524 . S
C2646 C2660 1.377 . S
C2647 C2646 1.524 . S
C2647 C2648 1.397 . S
C2647 C2652 1.363 . S
C2648 H2625 0.950 . S
C2648 C2647 1.397 . S
C2648 C2649 1.334 . S
C2649 H2626 0.950 . S
C2649 C2648 1.334 . S
C2649 C2650 1.287 . S
C2650 C2649 1.287 . S
C2650 C2651 1.524 . S
C2650 H2669 0.913 . S
C2651 H2627 0.950 . S
C2651 C2650 1.524 . S
C2651 C2652 1.415 . S
C2652 H2628 0.950 . S
C2652 C2647 1.363 . S
C2652 C2651 1.415 . S
C2653 H2629 0.951 . S
C2653 C2654 1.366 . S
C2653 C2655 1.388 . S
C2654 C2653 1.366 . S
C2654 C2658 1.385 . S
C2655 H2630 0.951 . S
C2655 C2653 1.388 . S
C2655 C2656 1.366 . S
C2656 C2655 1.366 . S
C2656 C2657 1.414 . S
C2656 C2659 1.499 . S
C2657 H2631 0.950 . S
C2657 C2656 1.414 . S
C2657 C2658 1.374 . S
C2658 H2632 0.950 . S
C2658 C2654 1.385 . S
C2658 C2657 1.374 . S
C2659 C2656 1.499 . S
C2659 C2660 1.373 . S
C2659 C2661 1.389 . S
C2660 H2633 0.950 . S
C2660 C2646 1.377 . S
C2660 C2659 1.373 . S
C2661 C2645 1.377 . S
C2661 C2659 1.389 . S
C2661 C2662 1.524 . S
C2662 C2661 1.524 . S
C2662 C2663 1.397 . S
C2662 C2667 1.363 . S
C2663 H2634 0.950 . S
C2663 C2662 1.397 . S
C2663 C2664 1.334 . S
C2664 H2635 0.950 . S
C2664 C2663 1.334 . S
C2664 C2665 1.287 . S
C2665 C2664 1.287 . S
C2665 C2666 1.524 . S
C2665 H2668 0.999 . S
C2666 H2636 0.950 . S
C2666 C2665 1.524 . S
C2666 C2667 1.415 . S
C2667 H2637 0.950 . S
C2667 C2662 1.363 . S
C2667 C2666 1.415 . S
H2668 C2665 0.999 . S
H2669 C2650 0.913 . S
H2670 C2688 0.951 . S
H2671 C2690 0.951 . S
H2672 C2692 0.950 . S
H2673 C2693 0.950 . S
H2674 C2695 0.950 . S
H2675 C2698 0.950 . S
H2676 C2699 0.950 . S
H2677 C2701 0.950 . S
H2678 C2702 0.950 . S
H2679 C2703 0.951 . S
H2680 C2705 0.951 . S
H2681 C2707 0.950 . S
H2682 C2708 0.950 . S
H2683 C2710 0.950 . S
H2684 C2713 0.950 . S
H2685 C2714 0.950 . S
H2686 C2716 0.950 . S
H2687 C2717 0.950 . S
C2688 H2670 0.951 . S
C2688 C2689 1.366 . S
C2688 C2690 1.388 . S
C2689 C2688 1.366 . S
C2689 C2693 1.385 . S
C2690 H2671 0.951 . S
C2690 C2688 1.388 . S
C2690 C2691 1.366 . S
C2691 C2690 1.366 . S
C2691 C2692 1.414 . S
C2691 C2694 1.499 . S
C2692 H2672 0.950 . S
C2692 C2691 1.414 . S
C2692 C2693 1.374 . S
C2693 H2673 0.950 . S
C2693 C2689 1.385 . S
C2693 C2692 1.374 . S
C2694 C2691 1.499 . S
C2694 C2695 1.373 . S
C2694 C2696 1.389 . S
C2695 H2674 0.950 . S
C2695 C2694 1.373 . S
C2695 C2711 1.377 . S
C2696 C2694 1.389 . S
C2696 C2697 1.524 . S
C2696 C2710 1.377 . S
C2697 C2696 1.524 . S
C2697 C2698 1.397 . S
C2697 C2702 1.363 . S
C2698 H2675 0.950 . S
C2698 C2697 1.397 . S
C2698 C2699 1.334 . S
C2699 H2676 0.950 . S
C2699 C2698 1.334 . S
C2699 C2700 1.287 . S
C2700 C2699 1.287 . S
C2700 C2701 1.524 . S
C2700 H2719 0.913 . S
C2701 H2677 0.950 . S
C2701 C2700 1.524 . S
C2701 C2702 1.415 . S
C2702 H2678 0.950 . S
C2702 C2697 1.363 . S
C2702 C2701 1.415 . S
C2703 H2679 0.951 . S
C2703 C2704 1.366 . S
C2703 C2705 1.388 . S
C2704 C2703 1.366 . S
C2704 C2708 1.385 . S
C2705 H2680 0.951 . S
C2705 C2703 1.388 . S
C2705 C2706 1.366 . S
C2706 C2705 1.366 . S
C2706 C2707 1.414 . S
C2706 C2709 1.499 . S
C2707 H2681 0.950 . S
C2707 C2706 1.414 . S
C2707 C2708 1.374 . S
C2708 H2682 0.950 . S
C2708 C2704 1.385 . S
C2708 C2707 1.374 . S
C2709 C2706 1.499 . S
C2709 C2710 1.373 . S
C2709 C2711 1.389 . S
C2710 H2683 0.950 . S
C2710 C2696 1.377 . S
C2710 C2709 1.373 . S
C2711 C2695 1.377 . S
C2711 C2709 1.389 . S
C2711 C2712 1.524 . S
C2712 C2711 1.524 . S
C2712 C2713 1.397 . S
C2712 C2717 1.363 . S
C2713 H2684 0.950 . S
C2713 C2712 1.397 . S
C2713 C2714 1.334 . S
C2714 H2685 0.950 . S
C2714 C2713 1.334 . S
C2714 C2715 1.287 . S
C2715 C2714 1.287 . S
C2715 C2716 1.524 . S
C2715 H2718 0.999 . S
C2716 H2686 0.950 . S
C2716 C2715 1.524 . S
C2716 C2717 1.415 . S
C2717 H2687 0.950 . S
C2717 C2712 1.363 . S
C2717 C2716 1.415 . S
H2718 C2715 0.999 . S
H2719 C2700 0.913 . S
H2720 C2738 0.951 . S
H2721 C2740 0.951 . S
H2722 C2742 0.950 . S
H2723 C2743 0.950 . S
H2724 C2745 0.950 . S
H2725 C2748 0.950 . S
H2726 C2749 0.950 . S
H2727 C2751 0.950 . S
H2728 C2752 0.950 . S
H2729 C2753 0.951 . S
H2730 C2755 0.951 . S
H2731 C2757 0.950 . S
H2732 C2758 0.950 . S
H2733 C2760 0.950 . S
H2734 C2763 0.950 . S
H2735 C2764 0.950 . S
H2736 C2766 0.950 . S
H2737 C2767 0.950 . S
C2738 H2720 0.951 . S
C2738 C2739 1.366 . S
C2738 C2740 1.388 . S
C2739 C2738 1.366 . S
C2739 C2743 1.385 . S
C2740 H2721 0.951 . S
C2740 C2738 1.388 . S
C2740 C2741 1.366 . S
C2741 C2740 1.366 . S
C2741 C2742 1.414 . S
C2741 C2744 1.499 . S
C2742 H2722 0.950 . S
C2742 C2741 1.414 . S
C2742 C2743 1.374 . S
C2743 H2723 0.950 . S
C2743 C2739 1.385 . S
C2743 C2742 1.374 . S
C2744 C2741 1.499 . S
C2744 C2745 1.373 . S
C2744 C2746 1.389 . S
C2745 H2724 0.950 . S
C2745 C2744 1.373 . S
C2745 C2761 1.377 . S
C2746 C2744 1.389 . S
C2746 C2747 1.524 . S
C2746 C2760 1.377 . S
C2747 C2746 1.524 . S
C2747 C2748 1.397 . S
C2747 C2752 1.363 . S
C2748 H2725 0.950 . S
C2748 C2747 1.397 . S
C2748 C2749 1.334 . S
C2749 H2726 0.950 . S
C2749 C2748 1.334 . S
C2749 C2750 1.287 . S
C2750 C2749 1.287 . S
C2750 C2751 1.524 . S
C2750 H2769 0.913 . S
C2751 H2727 0.950 . S
C2751 C2750 1.524 . S
C2751 C2752 1.415 . S
C2752 H2728 0.950 . S
C2752 C2747 1.363 . S
C2752 C2751 1.415 . S
C2753 H2729 0.951 . S
C2753 C2754 1.366 . S
C2753 C2755 1.388 . S
C2754 C2753 1.366 . S
C2754 C2758 1.385 . S
C2755 H2730 0.951 . S
C2755 C2753 1.388 . S
C2755 C2756 1.366 . S
C2756 C2755 1.366 . S
C2756 C2757 1.414 . S
C2756 C2759 1.499 . S
C2757 H2731 0.950 . S
C2757 C2756 1.414 . S
C2757 C2758 1.374 . S
C2758 H2732 0.950 . S
C2758 C2754 1.385 . S
C2758 C2757 1.374 . S
C2759 C2756 1.499 . S
C2759 C2760 1.373 . S
C2759 C2761 1.389 . S
C2760 H2733 0.950 . S
C2760 C2746 1.377 . S
C2760 C2759 1.373 . S
C2761 C2745 1.377 . S
C2761 C2759 1.389 . S
C2761 C2762 1.524 . S
C2762 C2761 1.524 . S
C2762 C2763 1.397 . S
C2762 C2767 1.363 . S
C2763 H2734 0.950 . S
C2763 C2762 1.397 . S
C2763 C2764 1.334 . S
C2764 H2735 0.950 . S
C2764 C2763 1.334 . S
C2764 C2765 1.287 . S
C2765 C2764 1.287 . S
C2765 C2766 1.524 . S
C2765 H2768 0.999 . S
C2766 H2736 0.950 . S
C2766 C2765 1.524 . S
C2766 C2767 1.415 . S
C2767 H2737 0.950 . S
C2767 C2762 1.363 . S
C2767 C2766 1.415 . S
H2768 C2765 0.999 . S
H2769 C2750 0.913 . S
H2770 C2788 0.951 . S
H2771 C2790 0.951 . S
H2772 C2792 0.950 . S
H2773 C2793 0.950 . S
H2774 C2795 0.950 . S
H2775 C2798 0.950 . S
H2776 C2799 0.950 . S
H2777 C2801 0.950 . S
H2778 C2802 0.950 . S
H2779 C2803 0.951 . S
H2780 C2805 0.951 . S
H2781 C2807 0.950 . S
H2782 C2808 0.950 . S
H2783 C2810 0.950 . S
H2784 C2813 0.950 . S
H2785 C2814 0.950 . S
H2786 C2816 0.950 . S
H2787 C2817 0.950 . S
C2788 H2770 0.951 . S
C2788 C2789 1.366 . S
C2788 C2790 1.388 . S
C2789 C2788 1.366 . S
C2789 C2793 1.385 . S
C2790 H2771 0.951 . S
C2790 C2788 1.388 . S
C2790 C2791 1.366 . S
C2791 C2790 1.366 . S
C2791 C2792 1.414 . S
C2791 C2794 1.499 . S
C2792 H2772 0.950 . S
C2792 C2791 1.414 . S
C2792 C2793 1.374 . S
C2793 H2773 0.950 . S
C2793 C2789 1.385 . S
C2793 C2792 1.374 . S
C2794 C2791 1.499 . S
C2794 C2795 1.373 . S
C2794 C2796 1.389 . S
C2795 H2774 0.950 . S
C2795 C2794 1.373 . S
C2795 C2811 1.377 . S
C2796 C2794 1.389 . S
C2796 C2797 1.524 . S
C2796 C2810 1.377 . S
C2797 C2796 1.524 . S
C2797 C2798 1.397 . S
C2797 C2802 1.363 . S
C2798 H2775 0.950 . S
C2798 C2797 1.397 . S
C2798 C2799 1.334 . S
C2799 H2776 0.950 . S
C2799 C2798 1.334 . S
C2799 C2800 1.287 . S
C2800 C2799 1.287 . S
C2800 C2801 1.524 . S
C2800 H2819 0.913 . S
C2801 H2777 0.950 . S
C2801 C2800 1.524 . S
C2801 C2802 1.415 . S
C2802 H2778 0.950 . S
C2802 C2797 1.363 . S
C2802 C2801 1.415 . S
C2803 H2779 0.951 . S
C2803 C2804 1.366 . S
C2803 C2805 1.388 . S
C2804 C2803 1.366 . S
C2804 C2808 1.385 . S
C2805 H2780 0.951 . S
C2805 C2803 1.388 . S
C2805 C2806 1.366 . S
C2806 C2805 1.366 . S
C2806 C2807 1.414 . S
C2806 C2809 1.499 . S
C2807 H2781 0.950 . S
C2807 C2806 1.414 . S
C2807 C2808 1.374 . S
C2808 H2782 0.950 . S
C2808 C2804 1.385 . S
C2808 C2807 1.374 . S
C2809 C2806 1.499 . S
C2809 C2810 1.373 . S
C2809 C2811 1.389 . S
C2810 H2783 0.950 . S
C2810 C2796 1.377 . S
C2810 C2809 1.373 . S
C2811 C2795 1.377 . S
C2811 C2809 1.389 . S
C2811 C2812 1.524 . S
C2812 C2811 1.524 . S
C2812 C2813 1.397 . S
C2812 C2817 1.363 . S
C2813 H2784 0.950 . S
C2813 C2812 1.397 . S
C2813 C2814 1.334 . S
C2814 H2785 0.950 . S
C2814 C2813 1.334 . S
C2814 C2815 1.287 . S
C2815 C2814 1.287 . S
C2815 C2816 1.524 . S
C2815 H2818 0.999 . S
C2816 H2786 0.950 . S
C2816 C2815 1.524 . S
C2816 C2817 1.415 . S
C2817 H2787 0.950 . S
C2817 C2812 1.363 . S
C2817 C2816 1.415 . S
H2818 C2815 0.999 . S
H2819 C2800 0.913 . S
H2820 C2838 0.951 . S
H2821 C2840 0.951 . S
H2822 C2842 0.950 . S
H2823 C2843 0.950 . S
H2824 C2845 0.950 . S
H2825 C2848 0.950 . S
H2826 C2849 0.950 . S
H2827 C2851 0.950 . S
H2828 C2852 0.950 . S
H2829 C2853 0.951 . S
H2830 C2855 0.951 . S
H2831 C2857 0.950 . S
H2832 C2858 0.950 . S
H2833 C2860 0.950 . S
H2834 C2863 0.950 . S
H2835 C2864 0.950 . S
H2836 C2866 0.950 . S
H2837 C2867 0.950 . S
C2838 H2820 0.951 . S
C2838 C2839 1.366 . S
C2838 C2840 1.388 . S
C2839 C2838 1.366 . S
C2839 C2843 1.385 . S
C2840 H2821 0.951 . S
C2840 C2838 1.388 . S
C2840 C2841 1.366 . S
C2841 C2840 1.366 . S
C2841 C2842 1.414 . S
C2841 C2844 1.499 . S
C2842 H2822 0.950 . S
C2842 C2841 1.414 . S
C2842 C2843 1.374 . S
C2843 H2823 0.950 . S
C2843 C2839 1.385 . S
C2843 C2842 1.374 . S
C2844 C2841 1.499 . S
C2844 C2845 1.373 . S
C2844 C2846 1.389 . S
C2845 H2824 0.950 . S
C2845 C2844 1.373 . S
C2845 C2861 1.377 . S
C2846 C2844 1.389 . S
C2846 C2847 1.524 . S
C2846 C2860 1.377 . S
C2847 C2846 1.524 . S
C2847 C2848 1.397 . S
C2847 C2852 1.363 . S
C2848 H2825 0.950 . S
C2848 C2847 1.397 . S
C2848 C2849 1.334 . S
C2849 H2826 0.950 . S
C2849 C2848 1.334 . S
C2849 C2850 1.287 . S
C2850 C2849 1.287 . S
C2850 C2851 1.524 . S
C2850 H2869 0.913 . S
C2851 H2827 0.950 . S
C2851 C2850 1.524 . S
C2851 C2852 1.415 . S
C2852 H2828 0.950 . S
C2852 C2847 1.363 . S
C2852 C2851 1.415 . S
C2853 H2829 0.951 . S
C2853 C2854 1.366 . S
C2853 C2855 1.388 . S
C2854 C2853 1.366 . S
C2854 C2858 1.385 . S
C2855 H2830 0.951 . S
C2855 C2853 1.388 . S
C2855 C2856 1.366 . S
C2856 C2855 1.366 . S
C2856 C2857 1.414 . S
C2856 C2859 1.499 . S
C2857 H2831 0.950 . S
C2857 C2856 1.414 . S
C2857 C2858 1.374 . S
C2858 H2832 0.950 . S
C2858 C2854 1.385 . S
C2858 C2857 1.374 . S
C2859 C2856 1.499 . S
C2859 C2860 1.373 . S
C2859 C2861 1.389 . S
C2860 H2833 0.950 . S
C2860 C2846 1.377 . S
C2860 C2859 1.373 . S
C2861 C2845 1.377 . S
C2861 C2859 1.389 . S
C2861 C2862 1.524 . S
C2862 C2861 1.524 . S
C2862 C2863 1.397 . S
C2862 C2867 1.363 . S
C2863 H2834 0.950 . S
C2863 C2862 1.397 . S
C2863 C2864 1.334 . S
C2864 H2835 0.950 . S
C2864 C2863 1.334 . S
C2864 C2865 1.287 . S
C2865 C2864 1.287 . S
C2865 C2866 1.524 . S
C2865 H2868 0.999 . S
C2866 H2836 0.950 . S
C2866 C2865 1.524 . S
C2866 C2867 1.415 . S
C2867 H2837 0.950 . S
C2867 C2862 1.363 . S
C2867 C2866 1.415 . S
H2868 C2865 0.999 . S
H2869 C2850 0.913 . S
H2870 C2888 0.951 . S
H2871 C2890 0.951 . S
H2872 C2892 0.950 . S
H2873 C2893 0.950 . S
H2874 C2895 0.950 . S
H2875 C2898 0.950 . S
H2876 C2899 0.950 . S
H2877 C2901 0.950 . S
H2878 C2902 0.950 . S
H2879 C2903 0.951 . S
H2880 C2905 0.951 . S
H2881 C2907 0.950 . S
H2882 C2908 0.950 . S
H2883 C2910 0.950 . S
H2884 C2913 0.950 . S
H2885 C2914 0.950 . S
H2886 C2916 0.950 . S
H2887 C2917 0.950 . S
C2888 H2870 0.951 . S
C2888 C2889 1.366 . S
C2888 C2890 1.388 . S
C2889 C2888 1.366 . S
C2889 C2893 1.385 . S
C2890 H2871 0.951 . S
C2890 C2888 1.388 . S
C2890 C2891 1.366 . S
C2891 C2890 1.366 . S
C2891 C2892 1.414 . S
C2891 C2894 1.499 . S
C2892 H2872 0.950 . S
C2892 C2891 1.414 . S
C2892 C2893 1.374 . S
C2893 H2873 0.950 . S
C2893 C2889 1.385 . S
C2893 C2892 1.374 . S
C2894 C2891 1.499 . S
C2894 C2895 1.373 . S
C2894 C2896 1.389 . S
C2895 H2874 0.950 . S
C2895 C2894 1.373 . S
C2895 C2911 1.377 . S
C2896 C2894 1.389 . S
C2896 C2897 1.524 . S
C2896 C2910 1.377 . S
C2897 C2896 1.524 . S
C2897 C2898 1.397 . S
C2897 C2902 1.363 . S
C2898 H2875 0.950 . S
C2898 C2897 1.397 . S
C2898 C2899 1.334 . S
C2899 H2876 0.950 . S
C2899 C2898 1.334 . S
C2899 C2900 1.287 . S
C2900 C2899 1.287 . S
C2900 C2901 1.524 . S
C2900 H2919 0.913 . S
C2901 H2877 0.950 . S
C2901 C2900 1.524 . S
C2901 C2902 1.415 . S
C2902 H2878 0.950 . S
C2902 C2897 1.363 . S
C2902 C2901 1.415 . S
C2903 H2879 0.951 . S
C2903 C2904 1.366 . S
C2903 C2905 1.388 . S
C2904 C2903 1.366 . S
C2904 C2908 1.385 . S
C2905 H2880 0.951 . S
C2905 C2903 1.388 . S
C2905 C2906 1.366 . S
C2906 C2905 1.366 . S
C2906 C2907 1.414 . S
C2906 C2909 1.499 . S
C2907 H2881 0.950 . S
C2907 C2906 1.414 . S
C2907 C2908 1.374 . S
C2908 H2882 0.950 . S
C2908 C2904 1.385 . S
C2908 C2907 1.374 . S
C2909 C2906 1.499 . S
C2909 C2910 1.373 . S
C2909 C2911 1.389 . S
C2910 H2883 0.950 . S
C2910 C2896 1.377 . S
C2910 C2909 1.373 . S
C2911 C2895 1.377 . S
C2911 C2909 1.389 . S
C2911 C2912 1.524 . S
C2912 C2911 1.524 . S
C2912 C2913 1.397 . S
C2912 C2917 1.363 . S
C2913 H2884 0.950 . S
C2913 C2912 1.397 . S
C2913 C2914 1.334 . S
C2914 H2885 0.950 . S
C2914 C2913 1.334 . S
C2914 C2915 1.287 . S
C2915 C2914 1.287 . S
C2915 C2916 1.524 . S
C2915 H2918 0.999 . S
C2916 H2886 0.950 . S
C2916 C2915 1.524 . S
C2916 C2917 1.415 . S
C2917 H2887 0.950 . S
C2917 C2912 1.363 . S
C2917 C2916 1.415 . S
H2918 C2915 0.999 . S
H2919 C2900 0.913 . S
H2920 C2938 0.951 . S
H2921 C2940 0.951 . S
H2922 C2942 0.950 . S
H2923 C2943 0.950 . S
H2924 C2945 0.950 . S
H2925 C2948 0.950 . S
H2926 C2949 0.950 . S
H2927 C2951 0.950 . S
H2928 C2952 0.950 . S
H2929 C2953 0.951 . S
H2930 C2955 0.951 . S
H2931 C2957 0.950 . S
H2932 C2958 0.950 . S
H2933 C2960 0.950 . S
H2934 C2963 0.950 . S
H2935 C2964 0.950 . S
H2936 C2966 0.950 . S
H2937 C2967 0.950 . S
C2938 H2920 0.951 . S
C2938 C2939 1.366 . S
C2938 C2940 1.388 . S
C2939 C2938 1.366 . S
C2939 C2943 1.385 . S
C2940 H2921 0.951 . S
C2940 C2938 1.388 . S
C2940 C2941 1.366 . S
C2941 C2940 1.366 . S
C2941 C2942 1.414 . S
C2941 C2944 1.499 . S
C2942 H2922 0.950 . S
C2942 C2941 1.414 . S
C2942 C2943 1.374 . S
C2943 H2923 0.950 . S
C2943 C2939 1.385 . S
C2943 C2942 1.374 . S
C2944 C2941 1.499 . S
C2944 C2945 1.373 . S
C2944 C2946 1.389 . S
C2945 H2924 0.950 . S
C2945 C2944 1.373 . S
C2945 C2961 1.377 . S
C2946 C2944 1.389 . S
C2946 C2947 1.524 . S
C2946 C2960 1.377 . S
C2947 C2946 1.524 . S
C2947 C2948 1.397 . S
C2947 C2952 1.363 . S
C2948 H2925 0.950 . S
C2948 C2947 1.397 . S
C2948 C2949 1.334 . S
C2949 H2926 0.950 . S
C2949 C2948 1.334 . S
C2949 C2950 1.287 . S
C2950 C2949 1.287 . S
C2950 C2951 1.524 . S
C2950 H2969 0.913 . S
C2951 H2927 0.950 . S
C2951 C2950 1.524 . S
C2951 C2952 1.415 . S
C2952 H2928 0.950 . S
C2952 C2947 1.363 . S
C2952 C2951 1.415 . S
C2953 H2929 0.951 . S
C2953 C2954 1.366 . S
C2953 C2955 1.388 . S
C2954 C2953 1.366 . S
C2954 C2958 1.385 . S
C2955 H2930 0.951 . S
C2955 C2953 1.388 . S
C2955 C2956 1.366 . S
C2956 C2955 1.366 . S
C2956 C2957 1.414 . S
C2956 C2959 1.499 . S
C2957 H2931 0.950 . S
C2957 C2956 1.414 . S
C2957 C2958 1.374 . S
C2958 H2932 0.950 . S
C2958 C2954 1.385 . S
C2958 C2957 1.374 . S
C2959 C2956 1.499 . S
C2959 C2960 1.373 . S
C2959 C2961 1.389 . S
C2960 H2933 0.950 . S
C2960 C2946 1.377 . S
C2960 C2959 1.373 . S
C2961 C2945 1.377 . S
C2961 C2959 1.389 . S
C2961 C2962 1.524 . S
C2962 C2961 1.524 . S
C2962 C2963 1.397 . S
C2962 C2967 1.363 . S
C2963 H2934 0.950 . S
C2963 C2962 1.397 . S
C2963 C2964 1.334 . S
C2964 H2935 0.950 . S
C2964 C2963 1.334 . S
C2964 C2965 1.287 . S
C2965 C2964 1.287 . S
C2965 C2966 1.524 . S
C2965 H2968 0.999 . S
C2966 H2936 0.950 . S
C2966 C2965 1.524 . S
C2966 C2967 1.415 . S
C2967 H2937 0.950 . S
C2967 C2962 1.363 . S
C2967 C2966 1.415 . S
H2968 C2965 0.999 . S
H2969 C2950 0.913 . S
H2970 C2988 0.951 . S
H2971 C2990 0.951 . S
H2972 C2992 0.950 . S
H2973 C2993 0.950 . S
H2974 C2995 0.950 . S
H2975 C2998 0.950 . S
H2976 C2999 0.950 . S
H2977 C3001 0.950 . S
H2978 C3002 0.950 . S
H2979 C3003 0.951 . S
H2980 C3005 0.951 . S
H2981 C3007 0.950 . S
H2982 C3008 0.950 . S
H2983 C3010 0.950 . S
H2984 C3013 0.950 . S
H2985 C3014 0.950 . S
H2986 C3016 0.950 . S
H2987 C3017 0.950 . S
C2988 H2970 0.951 . S
C2988 C2989 1.366 . S
C2988 C2990 1.388 . S
C2989 C2988 1.366 . S
C2989 C2993 1.385 . S
C2990 H2971 0.951 . S
C2990 C2988 1.388 . S
C2990 C2991 1.366 . S
C2991 C2990 1.366 . S
C2991 C2992 1.414 . S
C2991 C2994 1.499 . S
C2992 H2972 0.950 . S
C2992 C2991 1.414 . S
C2992 C2993 1.374 . S
C2993 H2973 0.950 . S
C2993 C2989 1.385 . S
C2993 C2992 1.374 . S
C2994 C2991 1.499 . S
C2994 C2995 1.373 . S
C2994 C2996 1.389 . S
C2995 H2974 0.950 . S
C2995 C2994 1.373 . S
C2995 C3011 1.377 . S
C2996 C2994 1.389 . S
C2996 C2997 1.524 . S
C2996 C3010 1.377 . S
C2997 C2996 1.524 . S
C2997 C2998 1.397 . S
C2997 C3002 1.363 . S
C2998 H2975 0.950 . S
C2998 C2997 1.397 . S
C2998 C2999 1.334 . S
C2999 H2976 0.950 . S
C2999 C2998 1.334 . S
C2999 C3000 1.287 . S
C3000 C2999 1.287 . S
C3000 C3001 1.524 . S
C3000 H3019 0.913 . S
C3001 H2977 0.950 . S
C3001 C3000 1.524 . S
C3001 C3002 1.415 . S
C3002 H2978 0.950 . S
C3002 C2997 1.363 . S
C3002 C3001 1.415 . S
C3003 H2979 0.951 . S
C3003 C3004 1.366 . S
C3003 C3005 1.388 . S
C3004 C3003 1.366 . S
C3004 C3008 1.385 . S
C3005 H2980 0.951 . S
C3005 C3003 1.388 . S
C3005 C3006 1.366 . S
C3006 C3005 1.366 . S
C3006 C3007 1.414 . S
C3006 C3009 1.499 . S
C3007 H2981 0.950 . S
C3007 C3006 1.414 . S
C3007 C3008 1.374 . S
C3008 H2982 0.950 . S
C3008 C3004 1.385 . S
C3008 C3007 1.374 . S
C3009 C3006 1.499 . S
C3009 C3010 1.373 . S
C3009 C3011 1.389 . S
C3010 H2983 0.950 . S
C3010 C2996 1.377 . S
C3010 C3009 1.373 . S
C3011 C2995 1.377 . S
C3011 C3009 1.389 . S
C3011 C3012 1.524 . S
C3012 C3011 1.524 . S
C3012 C3013 1.397 . S
C3012 C3017 1.363 . S
C3013 H2984 0.950 . S
C3013 C3012 1.397 . S
C3013 C3014 1.334 . S
C3014 H2985 0.950 . S
C3014 C3013 1.334 . S
C3014 C3015 1.287 . S
C3015 C3014 1.287 . S
C3015 C3016 1.524 . S
C3015 H3018 0.999 . S
C3016 H2986 0.950 . S
C3016 C3015 1.524 . S
C3016 C3017 1.415 . S
C3017 H2987 0.950 . S
C3017 C3012 1.363 . S
C3017 C3016 1.415 . S
H3018 C3015 0.999 . S
H3019 C3000 0.913 . S
H3020 C3038 0.951 . S
H3021 C3040 0.951 . S
H3022 C3042 0.950 . S
H3023 C3043 0.950 . S
H3024 C3045 0.950 . S
H3025 C3048 0.950 . S
H3026 C3049 0.950 . S
H3027 C3051 0.950 . S
H3028 C3052 0.950 . S
H3029 C3053 0.951 . S
H3030 C3055 0.951 . S
H3031 C3057 0.950 . S
H3032 C3058 0.950 . S
H3033 C3060 0.950 . S
H3034 C3063 0.950 . S
H3035 C3064 0.950 . S
H3036 C3066 0.950 . S
H3037 C3067 0.950 . S
C3038 H3020 0.951 . S
C3038 C3039 1.366 . S
C3038 C3040 1.388 . S
C3039 C3038 1.366 . S
C3039 C3043 1.385 . S
C3040 H3021 0.951 . S
C3040 C3038 1.388 . S
C3040 C3041 1.366 . S
C3041 C3040 1.366 . S
C3041 C3042 1.414 . S
C3041 C3044 1.499 . S
C3042 H3022 0.950 . S
C3042 C3041 1.414 . S
C3042 C3043 1.374 . S
C3043 H3023 0.950 . S
C3043 C3039 1.385 . S
C3043 C3042 1.374 . S
C3044 C3041 1.499 . S
C3044 C3045 1.373 . S
C3044 C3046 1.389 . S
C3045 H3024 0.950 . S
C3045 C3044 1.373 . S
C3045 C3061 1.377 . S
C3046 C3044 1.389 . S
C3046 C3047 1.524 . S
C3046 C3060 1.377 . S
C3047 C3046 1.524 . S
C3047 C3048 1.397 . S
C3047 C3052 1.363 . S
C3048 H3025 0.950 . S
C3048 C3047 1.397 . S
C3048 C3049 1.334 . S
C3049 H3026 0.950 . S
C3049 C3048 1.334 . S
C3049 C3050 1.287 . S
C3050 C3049 1.287 . S
C3050 C3051 1.524 . S
C3050 H3069 0.913 . S
C3051 H3027 0.950 . S
C3051 C3050 1.524 . S
C3051 C3052 1.415 . S
C3052 H3028 0.950 . S
C3052 C3047 1.363 . S
C3052 C3051 1.415 . S
C3053 H3029 0.951 . S
C3053 C3054 1.366 . S
C3053 C3055 1.388 . S
C3054 C3053 1.366 . S
C3054 C3058 1.385 . S
C3055 H3030 0.951 . S
C3055 C3053 1.388 . S
C3055 C3056 1.366 . S
C3056 C3055 1.366 . S
C3056 C3057 1.414 . S
C3056 C3059 1.499 . S
C3057 H3031 0.950 . S
C3057 C3056 1.414 . S
C3057 C3058 1.374 . S
C3058 H3032 0.950 . S
C3058 C3054 1.385 . S
C3058 C3057 1.374 . S
C3059 C3056 1.499 . S
C3059 C3060 1.373 . S
C3059 C3061 1.389 . S
C3060 H3033 0.950 . S
C3060 C3046 1.377 . S
C3060 C3059 1.373 . S
C3061 C3045 1.377 . S
C3061 C3059 1.389 . S
C3061 C3062 1.524 . S
C3062 C3061 1.524 . S
C3062 C3063 1.397 . S
C3062 C3067 1.363 . S
C3063 H3034 0.950 . S
C3063 C3062 1.397 . S
C3063 C3064 1.334 . S
C3064 H3035 0.950 . S
C3064 C3063 1.334 . S
C3064 C3065 1.287 . S
C3065 C3064 1.287 . S
C3065 C3066 1.524 . S
C3065 H3068 0.999 . S
C3066 H3036 0.950 . S
C3066 C3065 1.524 . S
C3066 C3067 1.415 . S
C3067 H3037 0.950 . S
C3067 C3062 1.363 . S
C3067 C3066 1.415 . S
H3068 C3065 0.999 . S
H3069 C3050 0.913 . S
H3070 C3088 0.951 . S
H3071 C3090 0.951 . S
H3072 C3092 0.950 . S
H3073 C3093 0.950 . S
H3074 C3095 0.950 . S
H3075 C3098 0.950 . S
H3076 C3099 0.950 . S
H3077 C3101 0.950 . S
H3078 C3102 0.950 . S
H3079 C3103 0.951 . S
H3080 C3105 0.951 . S
H3081 C3107 0.950 . S
H3082 C3108 0.950 . S
H3083 C3110 0.950 . S
H3084 C3113 0.950 . S
H3085 C3114 0.950 . S
H3086 C3116 0.950 . S
H3087 C3117 0.950 . S
C3088 H3070 0.951 . S
C3088 C3089 1.366 . S
C3088 C3090 1.388 . S
C3089 C3088 1.366 . S
C3089 C3093 1.385 . S
C3090 H3071 0.951 . S
C3090 C3088 1.388 . S
C3090 C3091 1.366 . S
C3091 C3090 1.366 . S
C3091 C3092 1.414 . S
C3091 C3094 1.499 . S
C3092 H3072 0.950 . S
C3092 C3091 1.414 . S
C3092 C3093 1.374 . S
C3093 H3073 0.950 . S
C3093 C3089 1.385 . S
C3093 C3092 1.374 . S
C3094 C3091 1.499 . S
C3094 C3095 1.373 . S
C3094 C3096 1.389 . S
C3095 H3074 0.950 . S
C3095 C3094 1.373 . S
C3095 C3111 1.377 . S
C3096 C3094 1.389 . S
C3096 C3097 1.524 . S
C3096 C3110 1.377 . S
C3097 C3096 1.524 . S
C3097 C3098 1.397 . S
C3097 C3102 1.363 . S
C3098 H3075 0.950 . S
C3098 C3097 1.397 . S
C3098 C3099 1.334 . S
C3099 H3076 0.950 . S
C3099 C3098 1.334 . S
C3099 C3100 1.287 . S
C3100 C3099 1.287 . S
C3100 C3101 1.524 . S
C3100 H3119 0.913 . S
C3101 H3077 0.950 . S
C3101 C3100 1.524 . S
C3101 C3102 1.415 . S
C3102 H3078 0.950 . S
C3102 C3097 1.363 . S
C3102 C3101 1.415 . S
C3103 H3079 0.951 . S
C3103 C3104 1.366 . S
C3103 C3105 1.388 . S
C3104 C3103 1.366 . S
C3104 C3108 1.385 . S
C3105 H3080 0.951 . S
C3105 C3103 1.388 . S
C3105 C3106 1.366 . S
C3106 C3105 1.366 . S
C3106 C3107 1.414 . S
C3106 C3109 1.499 . S
C3107 H3081 0.950 . S
C3107 C3106 1.414 . S
C3107 C3108 1.374 . S
C3108 H3082 0.950 . S
C3108 C3104 1.385 . S
C3108 C3107 1.374 . S
C3109 C3106 1.499 . S
C3109 C3110 1.373 . S
C3109 C3111 1.389 . S
C3110 H3083 0.950 . S
C3110 C3096 1.377 . S
C3110 C3109 1.373 . S
C3111 C3095 1.377 . S
C3111 C3109 1.389 . S
C3111 C3112 1.524 . S
C3112 C3111 1.524 . S
C3112 C3113 1.397 . S
C3112 C3117 1.363 . S
C3113 H3084 0.950 . S
C3113 C3112 1.397 . S
C3113 C3114 1.334 . S
C3114 H3085 0.950 . S
C3114 C3113 1.334 . S
C3114 C3115 1.287 . S
C3115 C3114 1.287 . S
C3115 C3116 1.524 . S
C3115 H3118 0.999 . S
C3116 H3086 0.950 . S
C3116 C3115 1.524 . S
C3116 C3117 1.415 . S
C3117 H3087 0.950 . S
C3117 C3112 1.363 . S
C3117 C3116 1.415 . S
H3118 C3115 0.999 . S
H3119 C3100 0.913 . S
H3120 C3138 0.951 . S
H3121 C3140 0.951 . S
H3122 C3142 0.950 . S
H3123 C3143 0.950 . S
H3124 C3145 0.950 . S
H3125 C3148 0.950 . S
H3126 C3149 0.950 . S
H3127 C3151 0.950 . S
H3128 C3152 0.950 . S
H3129 C3153 0.951 . S
H3130 C3155 0.951 . S
H3131 C3157 0.950 . S
H3132 C3158 0.950 . S
H3133 C3160 0.950 . S
H3134 C3163 0.950 . S
H3135 C3164 0.950 . S
H3136 C3166 0.950 . S
H3137 C3167 0.950 . S
C3138 H3120 0.951 . S
C3138 C3139 1.366 . S
C3138 C3140 1.388 . S
C3139 C3138 1.366 . S
C3139 C3143 1.385 . S
C3140 H3121 0.951 . S
C3140 C3138 1.388 . S
C3140 C3141 1.366 . S
C3141 C3140 1.366 . S
C3141 C3142 1.414 . S
C3141 C3144 1.499 . S
C3142 H3122 0.950 . S
C3142 C3141 1.414 . S
C3142 C3143 1.374 . S
C3143 H3123 0.950 . S
C3143 C3139 1.385 . S
C3143 C3142 1.374 . S
C3144 C3141 1.499 . S
C3144 C3145 1.373 . S
C3144 C3146 1.389 . S
C3145 H3124 0.950 . S
C3145 C3144 1.373 . S
C3145 C3161 1.377 . S
C3146 C3144 1.389 . S
C3146 C3147 1.524 . S
C3146 C3160 1.377 . S
C3147 C3146 1.524 . S
C3147 C3148 1.397 . S
C3147 C3152 1.363 . S
C3148 H3125 0.950 . S
C3148 C3147 1.397 . S
C3148 C3149 1.334 . S
C3149 H3126 0.950 . S
C3149 C3148 1.334 . S
C3149 C3150 1.287 . S
C3150 C3149 1.287 . S
C3150 C3151 1.524 . S
C3150 H3169 0.913 . S
C3151 H3127 0.950 . S
C3151 C3150 1.524 . S
C3151 C3152 1.415 . S
C3152 H3128 0.950 . S
C3152 C3147 1.363 . S
C3152 C3151 1.415 . S
C3153 H3129 0.951 . S
C3153 C3154 1.366 . S
C3153 C3155 1.388 . S
C3154 C3153 1.366 . S
C3154 C3158 1.385 . S
C3155 H3130 0.951 . S
C3155 C3153 1.388 . S
C3155 C3156 1.366 . S
C3156 C3155 1.366 . S
C3156 C3157 1.414 . S
C3156 C3159 1.499 . S
C3157 H3131 0.950 . S
C3157 C3156 1.414 . S
C3157 C3158 1.374 . S
C3158 H3132 0.950 . S
C3158 C3154 1.385 . S
C3158 C3157 1.374 . S
C3159 C3156 1.499 . S
C3159 C3160 1.373 . S
C3159 C3161 1.389 . S
C3160 H3133 0.950 . S
C3160 C3146 1.377 . S
C3160 C3159 1.373 . S
C3161 C3145 1.377 . S
C3161 C3159 1.389 . S
C3161 C3162 1.524 . S
C3162 C3161 1.524 . S
C3162 C3163 1.397 . S
C3162 C3167 1.363 . S
C3163 H3134 0.950 . S
C3163 C3162 1.397 . S
C3163 C3164 1.334 . S
C3164 H3135 0.950 . S
C3164 C3163 1.334 . S
C3164 C3165 1.287 . S
C3165 C3164 1.287 . S
C3165 C3166 1.524 . S
C3165 H3168 0.999 . S
C3166 H3136 0.950 . S
C3166 C3165 1.524 . S
C3166 C3167 1.415 . S
C3167 H3137 0.950 . S
C3167 C3162 1.363 . S
C3167 C3166 1.415 . S
H3168 C3165 0.999 . S
H3169 C3150 0.913 . S
H3170 C3188 0.951 . S
H3171 C3190 0.951 . S
H3172 C3192 0.950 . S
H3173 C3193 0.950 . S
H3174 C3195 0.950 . S
H3175 C3198 0.950 . S
H3176 C3199 0.950 . S
H3177 C3201 0.950 . S
H3178 C3202 0.950 . S
H3179 C3203 0.951 . S
H3180 C3205 0.951 . S
H3181 C3207 0.950 . S
H3182 C3208 0.950 . S
H3183 C3210 0.950 . S
H3184 C3213 0.950 . S
H3185 C3214 0.950 . S
H3186 C3216 0.950 . S
H3187 C3217 0.950 . S
C3188 H3170 0.951 . S
C3188 C3189 1.366 . S
C3188 C3190 1.388 . S
C3189 C3188 1.366 . S
C3189 C3193 1.385 . S
C3190 H3171 0.951 . S
C3190 C3188 1.388 . S
C3190 C3191 1.366 . S
C3191 C3190 1.366 . S
C3191 C3192 1.414 . S
C3191 C3194 1.499 . S
C3192 H3172 0.950 . S
C3192 C3191 1.414 . S
C3192 C3193 1.374 . S
C3193 H3173 0.950 . S
C3193 C3189 1.385 . S
C3193 C3192 1.374 . S
C3194 C3191 1.499 . S
C3194 C3195 1.373 . S
C3194 C3196 1.389 . S
C3195 H3174 0.950 . S
C3195 C3194 1.373 . S
C3195 C3211 1.377 . S
C3196 C3194 1.389 . S
C3196 C3197 1.524 . S
C3196 C3210 1.377 . S
C3197 C3196 1.524 . S
C3197 C3198 1.397 . S
C3197 C3202 1.363 . S
C3198 H3175 0.950 . S
C3198 C3197 1.397 . S
C3198 C3199 1.334 . S
C3199 H3176 0.950 . S
C3199 C3198 1.334 . S
C3199 C3200 1.287 . S
C3200 C3199 1.287 . S
C3200 C3201 1.524 . S
C3200 H3219 0.913 . S
C3201 H3177 0.950 . S
C3201 C3200 1.524 . S
C3201 C3202 1.415 . S
C3202 H3178 0.950 . S
C3202 C3197 1.363 . S
C3202 C3201 1.415 . S
C3203 H3179 0.951 . S
C3203 C3204 1.366 . S
C3203 C3205 1.388 . S
C3204 C3203 1.366 . S
C3204 C3208 1.385 . S
C3205 H3180 0.951 . S
C3205 C3203 1.388 . S
C3205 C3206 1.366 . S
C3206 C3205 1.366 . S
C3206 C3207 1.414 . S
C3206 C3209 1.499 . S
C3207 H3181 0.950 . S
C3207 C3206 1.414 . S
C3207 C3208 1.374 . S
C3208 H3182 0.950 . S
C3208 C3204 1.385 . S
C3208 C3207 1.374 . S
C3209 C3206 1.499 . S
C3209 C3210 1.373 . S
C3209 C3211 1.389 . S
C3210 H3183 0.950 . S
C3210 C3196 1.377 . S
C3210 C3209 1.373 . S
C3211 C3195 1.377 . S
C3211 C3209 1.389 . S
C3211 C3212 1.524 . S
C3212 C3211 1.524 . S
C3212 C3213 1.397 . S
C3212 C3217 1.363 . S
C3213 H3184 0.950 . S
C3213 C3212 1.397 . S
C3213 C3214 1.334 . S
C3214 H3185 0.950 . S
C3214 C3213 1.334 . S
C3214 C3215 1.287 . S
C3215 C3214 1.287 . S
C3215 C3216 1.524 . S
C3215 H3218 0.999 . S
C3216 H3186 0.950 . S
C3216 C3215 1.524 . S
C3216 C3217 1.415 . S
C3217 H3187 0.950 . S
C3217 C3212 1.363 . S
C3217 C3216 1.415 . S
H3218 C3215 0.999 . S
H3219 C3200 0.913 . S
H3220 C3238 0.951 . S
H3221 C3240 0.951 . S
H3222 C3242 0.950 . S
H3223 C3243 0.950 . S
H3224 C3245 0.950 . S
H3225 C3248 0.950 . S
H3226 C3249 0.950 . S
H3227 C3251 0.950 . S
H3228 C3252 0.950 . S
H3229 C3253 0.951 . S
H3230 C3255 0.951 . S
H3231 C3257 0.950 . S
H3232 C3258 0.950 . S
H3233 C3260 0.950 . S
H3234 C3263 0.950 . S
H3235 C3264 0.950 . S
H3236 C3266 0.950 . S
H3237 C3267 0.950 . S
C3238 H3220 0.951 . S
C3238 C3239 1.366 . S
C3238 C3240 1.388 . S
C3239 C3238 1.366 . S
C3239 C3243 1.385 . S
C3240 H3221 0.951 . S
C3240 C3238 1.388 . S
C3240 C3241 1.366 . S
C3241 C3240 1.366 . S
C3241 C3242 1.414 . S
C3241 C3244 1.499 . S
C3242 H3222 0.950 . S
C3242 C3241 1.414 . S
C3242 C3243 1.374 . S
C3243 H3223 0.950 . S
C3243 C3239 1.385 . S
C3243 C3242 1.374 . S
C3244 C3241 1.499 . S
C3244 C3245 1.373 . S
C3244 C3246 1.389 . S
C3245 H3224 0.950 . S
C3245 C3244 1.373 . S
C3245 C3261 1.377 . S
C3246 C3244 1.389 . S
C3246 C3247 1.524 . S
C3246 C3260 1.377 . S
C3247 C3246 1.524 . S
C3247 C3248 1.397 . S
C3247 C3252 1.363 . S
C3248 H3225 0.950 . S
C3248 C3247 1.397 . S
C3248 C3249 1.334 . S
C3249 H3226 0.950 . S
C3249 C3248 1.334 . S
C3249 C3250 1.287 . S
C3250 C3249 1.287 . S
C3250 C3251 1.524 . S
C3250 H3269 0.913 . S
C3251 H3227 0.950 . S
C3251 C3250 1.524 . S
C3251 C3252 1.415 . S
C3252 H3228 0.950 . S
C3252 C3247 1.363 . S
C3252 C3251 1.415 . S
C3253 H3229 0.951 . S
C3253 C3254 1.366 . S
C3253 C3255 1.388 . S
C3254 C3253 1.366 . S
C3254 C3258 1.385 . S
C3255 H3230 0.951 . S
C3255 C3253 1.388 . S
C3255 C3256 1.366 . S
C3256 C3255 1.366 . S
C3256 C3257 1.414 . S
C3256 C3259 1.499 . S
C3257 H3231 0.950 . S
C3257 C3256 1.414 . S
C3257 C3258 1.374 . S
C3258 H3232 0.950 . S
C3258 C3254 1.385 . S
C3258 C3257 1.374 . S
C3259 C3256 1.499 . S
C3259 C3260 1.373 . S
C3259 C3261 1.389 . S
C3260 H3233 0.950 . S
C3260 C3246 1.377 . S
C3260 C3259 1.373 . S
C3261 C3245 1.377 . S
C3261 C3259 1.389 . S
C3261 C3262 1.524 . S
C3262 C3261 1.524 . S
C3262 C3263 1.397 . S
C3262 C3267 1.363 . S
C3263 H3234 0.950 . S
C3263 C3262 1.397 . S
C3263 C3264 1.334 . S
C3264 H3235 0.950 . S
C3264 C3263 1.334 . S
C3264 C3265 1.287 . S
C3265 C3264 1.287 . S
C3265 C3266 1.524 . S
C3265 H3268 0.999 . S
C3266 H3236 0.950 . S
C3266 C3265 1.524 . S
C3266 C3267 1.415 . S
C3267 H3237 0.950 . S
C3267 C3262 1.363 . S
C3267 C3266 1.415 . S
H3268 C3265 0.999 . S
H3269 C3250 0.913 . S
C904 C699 1.171 . S
C889 C74 1.193 . S
C954 C700 0.456 . S
C939 C142 0.722 . S
C1004 C694 1.106 . S
C989 C231 1.077 . S
C1039 C322 1.167 . S
C1054 C693 1.267 . S
C1089 C406 0.722 . S
C1104 C696 0.456 . S
C1154 C698 1.105 . S
C1139 C494 1.079 . S
C1189 C562 1.167 . S
C1204 C697 1.267 . S
C1239 C651 1.194 . S
C1254 C695 1.172 . S
C1304 C730 1.694 . S
C1289 C58 1.546 . S
C1339 C151 1.535 . S
C1354 C761 1.511 . S
C1404 C729 2.520 . S
C1389 C224 2.429 . S
C1454 C764 1.070 . S
C1439 C315 1.040 . S
C1489 C399 1.368 . S
C1504 C727 1.407 . S
C1554 C759 1.654 . S
C1539 C478 1.517 . S
C1589 C571 1.140 . S
C1604 C732 1.171 . S
C1639 C644 2.475 . S
C1654 C766 2.535 . S
C1689 C67 2.475 . S
C1704 C762 2.534 . S
C1739 C392 1.536 . S
C1754 C765 1.512 . S
C1804 C733 2.519 . S
C1789 C487 2.431 . S
C1854 C760 1.071 . S
C1839 C578 1.043 . S
C1889 C658 1.549 . S
C1904 C726 1.695 . S
C1939 C238 1.516 . S
C1954 C763 1.653 . S
C2004 C728 1.169 . S
C1989 C308 1.141 . S
C2039 C158 1.367 . S
C2054 C731 1.406 . S
C2089 C662 1.138 . S
C2104 C798 1.110 . S
C2139 C394 0.933 . S
C2154 C799 0.502 . S
C2204 C793 1.273 . S
C2189 C483 1.248 . S
C2254 C792 1.730 . S
C2239 C574 1.540 . S
C2289 C154 0.930 . S
C2304 C795 0.506 . S
C2354 C797 1.272 . S
C2339 C242 1.245 . S
C2389 C310 1.539 . S
C2404 C796 1.730 . S
C2439 C63 1.137 . S
C2454 C794 1.109 . S
C2489 C646 1.616 . S
C2504 C832 1.722 . S
C2554 C864 1.096 . S
C2539 C403 1.105 . S
C2589 C476 2.323 . S
C2604 C825 2.455 . S
C2639 C567 1.378 . S
C2654 C859 1.442 . S
C2704 C830 1.146 . S
C2689 C147 1.071 . S
C2739 C226 1.708 . S
C2754 C861 1.779 . S
C2804 C827 1.430 . S
C2789 C319 1.454 . S
C2854 C862 2.462 . S
C2839 C56 2.270 . S
C2904 C858 2.462 . S
C2889 C655 2.271 . S
C2939 C140 1.104 . S
C2954 C860 1.097 . S
C2989 C235 2.323 . S
C3004 C829 2.455 . S
C3054 C863 1.442 . S
C3039 C326 1.378 . S
C3089 C70 1.616 . S
C3104 C828 1.722 . S
C3139 C490 1.707 . S
C3154 C865 1.779 . S
C3204 C831 1.431 . S
C3189 C560 1.455 . S
C3254 C826 1.147 . S
C3239 C410 1.068 . S
