# Generated by pormake.
# Topology zzz, (3,6)-cn, num edge types: 1
# Building blocks:
#     Node 0, Type 0, BuildingBlock: WUSLED_clean_sbu_0, # of connection points: 3
#     Node 1, Type 0, BuildingBlock: WUSLED_clean_sbu_0, # of connection points: 3
#     Node 2, Type 0, BuildingBlock: WUSLED_clean_sbu_0, # of connection points: 3
#     Node 3, Type 0, BuildingBlock: WUSLED_clean_sbu_0, # of connection points: 3
#     Node 4, Type 0, BuildingBlock: WUSLED_clean_sbu_0, # of connection points: 3
#     Node 5, Type 0, BuildingBlock: WUSLED_clean_sbu_0, # of connection points: 3
#     Node 6, Type 0, BuildingBlock: WUSLED_clean_sbu_0, # of connection points: 3
#     Node 7, Type 0, BuildingBlock: WUSLED_clean_sbu_0, # of connection points: 3
#     Node 8, Type 1, BuildingBlock: GEDQOX_clean_sbu_0, # of connection points: 6
#     Node 9, Type 1, BuildingBlock: GEDQOX_clean_sbu_0, # of connection points: 6
#     Node 10, Type 1, BuildingBlock: GEDQOX_clean_sbu_0, # of connection points: 6
#     Node 11, Type 1, BuildingBlock: GEDQOX_clean_sbu_0, # of connection points: 6
#     Edge 12, Type (0, 1), BuildingBlock: CIFDUS_clean_linker_0, # of connection points: 2
#     Edge 13, Type (0, 1), BuildingBlock: CIFDUS_clean_linker_0, # of connection points: 2
#     Edge 14, Type (0, 1), BuildingBlock: CIFDUS_clean_linker_0, # of connection points: 2
#     Edge 15, Type (0, 1), BuildingBlock: CIFDUS_clean_linker_0, # of connection points: 2
#     Edge 16, Type (0, 1), BuildingBlock: CIFDUS_clean_linker_0, # of connection points: 2
#     Edge 17, Type (0, 1), BuildingBlock: CIFDUS_clean_linker_0, # of connection points: 2
#     Edge 18, Type (0, 1), BuildingBlock: CIFDUS_clean_linker_0, # of connection points: 2
#     Edge 19, Type (0, 1), BuildingBlock: CIFDUS_clean_linker_0, # of connection points: 2
#     Edge 20, Type (0, 1), BuildingBlock: CIFDUS_clean_linker_0, # of connection points: 2
#     Edge 21, Type (0, 1), BuildingBlock: CIFDUS_clean_linker_0, # of connection points: 2
#     Edge 22, Type (0, 1), BuildingBlock: CIFDUS_clean_linker_0, # of connection points: 2
#     Edge 23, Type (0, 1), BuildingBlock: CIFDUS_clean_linker_0, # of connection points: 2
#     Edge 24, Type (0, 1), BuildingBlock: CIFDUS_clean_linker_0, # of connection points: 2
#     Edge 25, Type (0, 1), BuildingBlock: CIFDUS_clean_linker_0, # of connection points: 2
#     Edge 26, Type (0, 1), BuildingBlock: CIFDUS_clean_linker_0, # of connection points: 2
#     Edge 27, Type (0, 1), BuildingBlock: CIFDUS_clean_linker_0, # of connection points: 2
#     Edge 28, Type (0, 1), BuildingBlock: CIFDUS_clean_linker_0, # of connection points: 2
#     Edge 29, Type (0, 1), BuildingBlock: CIFDUS_clean_linker_0, # of connection points: 2
#     Edge 30, Type (0, 1), BuildingBlock: CIFDUS_clean_linker_0, # of connection points: 2
#     Edge 31, Type (0, 1), BuildingBlock: CIFDUS_clean_linker_0, # of connection points: 2
#     Edge 32, Type (0, 1), BuildingBlock: CIFDUS_clean_linker_0, # of connection points: 2
#     Edge 33, Type (0, 1), BuildingBlock: CIFDUS_clean_linker_0, # of connection points: 2
#     Edge 34, Type (0, 1), BuildingBlock: CIFDUS_clean_linker_0, # of connection points: 2
#     Edge 35, Type (0, 1), BuildingBlock: CIFDUS_clean_linker_0, # of connection points: 2
# Relax obj value: 0.294
# Max RMSD: 0.263
# Mean RMSD: 0.191
data_MOF--net-zzz--node1-WUSLED_clean_sbu_0--node2-GEDQOX_clean_sbu_0--edge1-CIFDUS_clean_linker_0
_symmetry_space_group_name_H-M    P1
_symmetry_Int_Tables_number       1
_symmetry_cell_setting            triclinic
loop_
_symmetry_equiv_pos_as_xyz
'x, y, z'
_cell_length_a     60.88143
_cell_length_b     56.575152
_cell_length_c     21.223216
_cell_angle_alpha  81.948173
_cell_angle_beta   90.909306
_cell_angle_gamma 102.08673
loop_
_atom_site_label
_atom_site_type_symbol
_atom_site_fract_x
_atom_site_fract_y
_atom_site_fract_z
_atom_type_partial_charge
C0 C 0.81864 0.48133 0.28152 0.0
C1 C 0.8377 0.49664 0.25032 0.0
C2 C 0.85832 0.49487 0.34951 0.0
C3 C 0.85748 0.50329 0.28413 0.0
C4 C 0.83984 0.47799 0.37895 0.0
C5 C 0.82021 0.47127 0.3452 0.0
U6 U 0.77107 0.4753 0.15315 0.0
O7 O 0.73523 0.45781 0.17014 0.0
O8 O 0.74571 0.49771 0.14963 0.0
C9 C 0.72884 0.47879 0.15803 0.0
C10 C 0.79605 0.47948 0.25436 0.0
C11 C 0.70955 0.47984 0.11535 0.0
C12 C 0.66981 0.46582 0.09591 0.0
C13 C 0.68926 0.46292 0.12932 0.0
C14 C 0.6908 0.50219 0.03236 0.0
C15 C 0.67019 0.48593 0.04833 0.0
C16 C 0.71027 0.49915 0.06533 0.0
C17 C 0.8097 0.46811 0.01741 0.0
C18 C 0.83117 0.46586 0.92394 0.0
C19 C 0.84958 0.46828 0.02567 0.0
C20 C 0.82911 0.46878 0.05424 0.0
C21 C 0.85086 0.46726 0.95994 0.0
C22 C 0.81079 0.46627 0.95248 0.0
C23 C 0.78825 0.47003 0.04458 0.0
O24 O 0.7928 0.49817 0.21377 0.0
O25 O 0.78524 0.45822 0.24037 0.0
O26 O 0.7874 0.4914 0.06093 0.0
O27 O 0.77853 0.45153 0.08632 0.0
H28 H 0.83686 0.50468 0.20114 0.0
H29 H 0.87151 0.5163 0.26033 0.0
H30 H 0.84019 0.47094 0.42905 0.0
H31 H 0.8057 0.45951 0.37021 0.0
H32 H 0.65434 0.45265 0.10855 0.0
H33 H 0.68826 0.44791 0.16768 0.0
H34 H 0.69174 0.518 0.99648 0.0
H35 H 0.72564 0.51256 0.05329 0.0
H36 H 0.8316 0.46483 0.8734 0.0
H37 H 0.86453 0.46962 0.05443 0.0
H38 H 0.82851 0.47021 0.10454 0.0
H39 H 0.79591 0.4656 0.9235 0.0
C40 C 0.97653 0.76081 0.39514 0.0
C41 C 0.98447 0.78297 0.35578 0.0
C42 C 0.97746 0.80551 0.44075 0.0
C43 C 0.98494 0.80517 0.37843 0.0
C44 C 0.96909 0.78316 0.47922 0.0
C45 C 0.96863 0.76106 0.45657 0.0
U46 U 0.98628 0.72022 0.27132 0.0
O47 O 1.00389 0.68977 0.2864 0.0
O48 O 0.96818 0.68294 0.26185 0.0
C49 C 0.98645 0.67401 0.26983 0.0
C50 C 0.97742 0.73726 0.37482 0.0
C51 C 0.99099 0.6598 0.22058 0.0
C52 C 0.99247 0.62065 0.18888 0.0
C53 C 0.98802 0.63444 0.23497 0.0
C54 C 1.00298 0.65754 0.11322 0.0
C55 C 0.99994 0.63201 0.1274 0.0
C56 C 0.99847 0.67133 0.15947 0.0
C57 C 0.99781 0.77665 0.14212 0.0
C58 C 0.9835 0.814 0.13168 0.0
C59 C 0.01676 0.81255 0.07229 0.0
C60 C 0.01524 0.7883 0.09916 0.0
C61 C 1.00077 0.82556 0.08768 0.0
C62 C 0.98207 0.78973 0.15897 0.0
C63 C 0.99585 0.75058 0.16558 0.0
O64 O 0.96183 0.72896 0.33518 0.0
O65 O 0.99753 0.73453 0.35996 0.0
O66 O 0.01127 0.74508 0.20577 0.0
O67 O 0.97551 0.73788 0.18085 0.0
H68 H 0.99064 0.78307 0.30812 0.0
H69 H 0.99127 0.82205 0.34736 0.0
H70 H 0.96353 0.7827 0.52769 0.0
H71 H 0.96257 0.7441 0.48767 0.0
H72 H 0.99035 0.60109 0.20172 0.0
H73 H 0.98237 0.62529 0.282 0.0
H74 H 0.00858 0.66678 0.06627 0.0
H75 H 1.00082 0.69097 0.14766 0.0
H76 H 0.9711 0.82371 0.14486 0.0
H77 H 0.03011 0.82092 0.03807 0.0
H78 H 0.02746 0.77847 0.0854 0.0
H79 H 0.96853 0.78112 0.19238 0.0
C80 C 0.76327 0.98898 0.35621 0.0
C81 C 0.74393 0.97101 0.34876 0.0
C82 C 0.72713 0.97875 0.44522 0.0
C83 C 0.72615 0.96595 0.39271 0.0
C84 C 0.74672 0.99621 0.4538 0.0
C85 C 0.76463 1.00121 0.40986 0.0
U86 U 0.77764 0.01551 0.18693 0.0
O87 O 0.80662 0.04127 0.13792 0.0
O88 O 0.79567 1.00454 0.11086 0.0
C89 C 0.81057 0.02526 0.1025 0.0
C90 C 0.7809 0.99655 0.30551 0.0
C91 C 0.83423 0.02354 0.09507 0.0
C92 C 0.86464 1.00157 0.11257 0.0
C93 C 0.84271 1.00374 0.12574 0.0
C94 C 0.87002 0.03924 0.03932 0.0
C95 C 0.87848 0.01914 0.06849 0.0
C96 C 0.84815 0.04137 0.05244 0.0
C97 C 0.72515 0.03204 0.09769 0.0
C98 C 0.70204 0.02286 1.00618 0.0
C99 C 0.70155 0.05966 0.05169 0.0
C100 C 0.7173 0.05374 0.0966 0.0
C101 C 0.69313 0.04384 1.00735 0.0
C102 C 0.71786 0.01704 0.05076 0.0
C103 C 0.73789 0.02356 0.15318 0.0
O104 O 0.77849 0.98354 0.25816 0.0
O105 O 0.78663 0.02018 0.28628 0.0
O106 O 0.74358 1.00235 0.15383 0.0
O107 O 0.75353 0.03993 0.17552 0.0
H108 H 0.74211 0.96131 0.30785 0.0
H109 H 0.71123 0.95263 0.38408 0.0
H110 H 0.74811 1.00621 0.49414 0.0
H111 H 0.77929 0.01514 0.41684 0.0
H112 H 0.87053 0.98577 0.13561 0.0
H113 H 0.83225 0.9897 0.15874 0.0
H114 H 0.88031 0.05336 1.00613 0.0
H115 H 0.84193 0.05679 0.02824 0.0
H116 H 0.69578 1.01004 0.97341 0.0
H117 H 0.69533 0.07615 0.05333 0.0
H118 H 0.72252 0.06557 0.13245 0.0
H119 H 0.72343 1.00008 0.05039 0.0
C120 C 0.56793 0.74745 0.56895 0.0
C121 C 0.58599 0.73977 0.60177 0.0
C122 C 0.56133 0.70146 0.64601 0.0
C123 C 0.58275 0.71691 0.63972 0.0
C124 C 0.54333 0.70918 0.61295 0.0
C125 C 0.5466 0.73182 0.57461 0.0
U126 U 0.55963 0.78482 0.41143 0.0
O127 O 0.58139 0.816 0.35298 0.0
O128 O 0.5497 0.82026 0.39346 0.0
C129 C 0.56696 0.83026 0.35533 0.0
C130 C 0.57149 0.77144 0.52814 0.0
C131 C 0.56186 0.84477 0.29517 0.0
C132 C 0.54228 0.8752 0.24207 0.0
C133 C 0.54626 0.85981 0.29648 0.0
C134 C 0.56947 0.86098 0.18316 0.0
C135 C 0.55393 0.87615 0.18479 0.0
C136 C 0.57339 0.84542 0.23778 0.0
C137 C 0.5281 0.74415 0.2885 0.0
C138 C 0.4943 0.7284 0.23186 0.0
C139 C 0.53067 0.72552 0.19301 0.0
C140 C 0.54103 0.73752 0.24223 0.0
C141 C 0.50711 0.7198 0.18896 0.0
C142 C 0.50468 0.74032 0.28137 0.0
C143 C 0.53832 0.74998 0.34969 0.0
O144 O 0.58503 0.77413 0.4788 0.0
O145 O 0.55333 0.78016 0.51445 0.0
O146 O 0.52795 0.76165 0.3852 0.0
O147 O 0.56033 0.75664 0.35084 0.0
H148 H 0.6026 0.75144 0.59791 0.0
H149 H 0.59692 0.71143 0.66475 0.0
H150 H 0.52671 0.69752 0.61595 0.0
H151 H 0.53238 0.73701 0.54921 0.0
H152 H 0.53056 0.88698 0.24553 0.0
H153 H 0.53741 0.86008 0.34019 0.0
H154 H 0.57866 0.8612 0.13972 0.0
H155 H 0.58569 0.83425 0.23522 0.0
H156 H 0.47615 0.72465 0.22945 0.0
H157 H 0.54111 0.71899 0.16138 0.0
H158 H 0.55909 0.73993 0.24652 0.0
H159 H 0.49421 0.74506 0.3164 0.0
C160 C 0.22773 0.51578 0.43714 0.0
C161 C 0.21713 0.4927 0.42279 0.0
C162 C 0.18709 0.50967 0.36949 0.0
C163 C 0.19705 0.48964 0.38944 0.0
C164 C 0.19693 0.5325 0.38763 0.0
C165 C 0.21713 0.53557 0.42101 0.0
U166 U 0.27904 0.53075 0.55028 0.0
O167 O 0.30561 0.50972 0.56011 0.0
O168 O 0.31381 0.54858 0.52041 0.0
C169 C 0.32137 0.52856 0.53796 0.0
C170 C 0.25123 0.51917 0.45848 0.0
C171 C 0.34267 0.531 0.57215 0.0
C172 C 0.38196 0.52876 0.5708 0.0
C173 C 0.36188 0.52955 0.53894 0.0
C174 C 0.36407 0.53179 0.6697 0.0
C175 C 0.38329 0.52955 0.63675 0.0
C176 C 0.34385 0.53245 0.6376 0.0
C177 C 0.24148 0.54422 0.67748 0.0
C178 C 0.21783 0.54667 0.76631 0.0
C179 C 0.20158 0.5427 0.66233 0.0
C180 C 0.22274 0.54254 0.63769 0.0
C181 C 0.19884 0.54435 0.7272 0.0
C182 C 0.23895 0.54661 0.7416 0.0
C183 C 0.26351 0.54237 0.65385 0.0
O184 O 0.26255 0.54153 0.46107 0.0
O185 O 0.25583 0.50306 0.50491 0.0
O186 O 0.26565 0.52013 0.64806 0.0
O187 O 0.27202 0.55862 0.60523 0.0
H188 H 0.22509 0.47721 0.43394 0.0
H189 H 0.19019 0.47188 0.37568 0.0
H190 H 0.1895 0.54822 0.37385 0.0
H191 H 0.22492 0.55362 0.43137 0.0
H192 H 0.39618 0.52652 0.54395 0.0
H193 H 0.36117 0.52814 0.4885 0.0
H194 H 0.36456 0.5327 0.72034 0.0
H195 H 0.32906 0.53348 0.66397 0.0
H196 H 0.21629 0.54821 0.81627 0.0
H197 H 0.18724 0.54061 0.63119 0.0
H198 H 0.22441 0.54056 0.58803 0.0
H199 H 0.25326 0.54797 0.77291 0.0
C200 C 0.10062 0.26022 0.32813 0.0
C201 C 0.08334 0.23955 0.3441 0.0
C202 C 0.1013 0.21647 0.27934 0.0
C203 C 0.08368 0.21787 0.31987 0.0
C204 C 0.11899 0.23692 0.26565 0.0
C205 C 0.11861 0.25858 0.28974 0.0
U206 U 0.08779 0.30324 0.44287 0.0
O207 O 0.10613 0.34047 0.45204 0.0
O208 O 0.07146 0.33438 0.41795 0.0
C209 C 0.08846 0.34997 0.43738 0.0
C210 C 0.09936 0.28418 0.34585 0.0
C211 C 0.08242 0.36495 0.48277 0.0
C212 C 0.07403 0.40318 0.50351 0.0
C213 C 0.08127 0.38923 0.46191 0.0
C214 C 0.06954 0.36883 0.58791 0.0
C215 C 0.0678 0.39304 0.56673 0.0
C216 C 0.07671 0.35484 0.54612 0.0
C217 C 0.07197 0.24888 0.57732 0.0
C218 C 0.07357 0.2192 0.67062 0.0
C219 C 0.06232 0.2055 0.56947 0.0
C220 C 0.06508 0.22981 0.5409 0.0
C221 C 0.06659 0.19997 0.63466 0.0
C222 C 0.0762 0.2434 0.64219 0.0
C223 C 0.07475 0.27465 0.5497 0.0
O224 O 0.07909 0.28798 0.35414 0.0
O225 O 0.11384 0.2927 0.38806 0.0
O226 O 0.0608 0.27988 0.50448 0.0
O227 O 0.09559 0.2865 0.53818 0.0
H228 H 0.06927 0.24035 0.37369 0.0
H229 H 0.06996 0.20232 0.33198 0.0
H230 H 0.13269 0.23654 0.2341 0.0
H231 H 0.13203 0.27436 0.27658 0.0
H232 H 0.0732 0.42191 0.4861 0.0
H233 H 0.08564 0.39729 0.41317 0.0
H234 H 0.06472 0.36049 0.63616 0.0
H235 H 0.07741 0.33602 0.56282 0.0
H236 H 0.07669 0.21553 0.72107 0.0
H237 H 0.05711 0.19104 0.5405 0.0
H238 H 0.0618 0.23369 0.49065 0.0
H239 H 0.08147 0.2579 0.67104 0.0
C240 C 0.284 0.02845 0.32523 0.0
C241 C 0.29385 0.05317 0.30627 0.0
C242 C 0.32079 0.04187 0.23846 0.0
C243 C 0.31212 0.05981 0.2636 0.0
C244 C 0.30992 0.01727 0.25392 0.0
C245 C 0.29177 0.01062 0.29689 0.0
U246 U 0.27503 0.99992 0.49434 0.0
O247 O 0.26157 0.01098 0.57851 0.0
O248 O 0.24706 0.97517 0.55002 0.0
C249 C 0.2457 0.99108 0.58867 0.0
C250 C 0.26823 0.02143 0.38063 0.0
C251 C 0.22294 0.9945 0.60162 0.0
C252 C 0.19312 0.01731 0.58483 0.0
C253 C 0.2145 0.01407 0.56945 0.0
C254 C 0.18827 0.98126 0.66387 0.0
C255 C 0.17976 1.00099 0.63251 0.0
C256 C 0.20963 0.97811 0.64862 0.0
C257 C 0.32941 0.97876 0.55865 0.0
C258 C 0.35685 0.95319 0.58252 0.0
C259 C 0.35488 0.98476 0.64704 0.0
C260 C 0.33695 0.99079 0.61098 0.0
C261 C 0.3656 0.96645 0.63188 0.0
C262 C 0.33902 0.95938 0.54608 0.0
C263 C 0.31462 0.98866 0.51076 0.0
O264 O 0.26094 0.99786 0.39851 0.0
O265 O 0.27426 0.03352 0.42885 0.0
O266 O 0.31071 0.01028 0.51613 0.0
O267 O 0.29701 0.97346 0.49272 0.0
H268 H 0.28819 0.06733 0.32704 0.0
H269 H 0.31993 0.07895 0.25186 0.0
H270 H 0.31625 1.00298 0.23575 0.0
H271 H 0.28466 0.99139 0.31026 0.0
H272 H 0.18722 0.03282 0.56007 0.0
H273 H 0.22451 0.02696 0.53295 0.0
H274 H 0.17834 0.96808 0.69991 0.0
H275 H 0.21582 0.96285 0.67385 0.0
H276 H 0.36441 0.9387 0.57024 0.0
H277 H 0.36123 0.99563 0.68409 0.0
H278 H 0.32994 1.00585 0.62189 0.0
H279 H 0.33355 0.94988 0.50583 0.0
C280 C 0.46279 0.28044 0.15326 0.0
C281 C 0.46525 0.30024 0.18781 0.0
C282 C 0.46662 0.32844 0.08932 0.0
C283 C 0.46704 0.32398 0.15619 0.0
C284 C 0.46395 0.30848 0.05492 0.0
C285 C 0.46202 0.28469 0.08668 0.0
U286 U 0.47432 0.23981 0.30108 0.0
O287 O 0.45452 0.20509 0.34976 0.0
O288 O 0.48836 0.20674 0.31249 0.0
C289 C 0.47097 0.19353 0.34609 0.0
C290 C 0.46211 0.25561 0.18643 0.0
C291 C 0.47599 0.17862 0.40518 0.0
C292 C 0.46685 0.14051 0.47737 0.0
C293 C 0.46193 0.15577 0.42375 0.0
C294 C 0.49992 0.17089 0.49546 0.0
C295 C 0.48603 0.14774 0.51353 0.0
C296 C 0.49489 0.18626 0.44189 0.0
C297 C 0.50001 0.27648 0.43772 0.0
C298 C 0.53272 0.2877 0.50309 0.0
C299 C 0.49636 0.29296 0.53596 0.0
C300 C 0.48666 0.28321 0.48271 0.0
C301 C 0.51967 0.29638 0.54512 0.0
C302 C 0.523 0.27791 0.44975 0.0
C303 C 0.49083 0.27284 0.37406 0.0
O304 O 0.48188 0.25028 0.19859 0.0
O305 O 0.44803 0.24861 0.23505 0.0
O306 O 0.46922 0.26352 0.37081 0.0
O307 O 0.50319 0.26509 0.33437 0.0
H308 H 0.46613 0.29737 0.23928 0.0
H309 H 0.46943 0.33894 0.18406 0.0
H310 H 0.4634 0.31128 1.00343 0.0
H311 H 0.46022 0.26965 0.05923 0.0
H312 H 0.45596 0.1227 0.4894 0.0
H313 H 0.44731 0.14952 0.39599 0.0
H314 H 0.51469 0.17708 0.52267 0.0
H315 H 0.50591 0.20392 0.4287 0.0
H316 H 0.55069 0.28981 0.50937 0.0
H317 H 0.48584 0.29967 0.56695 0.0
H318 H 0.46896 0.2826 0.47449 0.0
H319 H 0.53381 0.27296 0.41598 0.0
Nd320 Nd 0.01516 1.00246 0.80061 0.0
Nd321 Nd 0.04429 0.02052 0.90352 0.0
C322 C 0.98389 0.98022 0.72802 0.0
C323 C 0.98049 0.95829 0.69625 0.0
C324 C 0.95967 0.94973 0.66945 0.0
C325 C 0.95648 0.92925 0.6376 0.0
C326 C 0.97411 0.91706 0.63186 0.0
C327 C 0.99494 0.92568 0.65926 0.0
C328 C 0.99808 0.94609 0.69131 0.0
C329 C 0.0603 1.00701 0.77468 0.0
C330 C 0.02841 0.96339 0.916 0.0
C331 C 0.07469 0.04268 0.97838 0.0
C332 C 0.07708 0.06429 0.0111 0.0
C333 C 0.08979 0.06564 0.06658 0.0
C334 C 0.09088 0.08526 0.10075 0.0
C335 C 0.07922 0.10388 0.07997 0.0
C336 C 0.06677 0.1026 0.02361 0.0
C337 C 0.06565 0.08294 0.98962 0.0
C338 C 0.99906 0.01586 0.92842 0.0
C339 C 0.03254 0.05975 0.7866 0.0
O340 O 0.98281 0.9766 0.79019 0.0
O341 O 1.00052 0.9979 0.7059 0.0
O342 O 0.04575 0.01188 0.73246 0.0
O343 O 0.05078 0.99864 0.82774 0.0
O344 O 0.01232 0.96844 0.87725 0.0
O345 O 0.04611 0.98046 0.92414 0.0
O346 O 0.07619 0.04663 0.91622 0.0
O347 O 0.05834 0.0245 0.99935 0.0
O348 O 0.01339 0.01036 0.9706 0.0
O349 O 0.00878 0.02457 0.87579 0.0
O350 O 0.04798 0.05433 0.82713 0.0
O351 O 0.01473 0.043 0.77672 0.0
H352 H 0.94594 0.95899 0.67274 0.0
H353 H 0.94031 0.9232 0.61659 0.0
H354 H 0.00875 0.9165 0.65649 0.0
H355 H 0.01426 0.95243 0.71202 0.0
H356 H 0.09853 0.05126 0.08415 0.0
H357 H 0.10037 0.0855 0.14432 0.0
H358 H 0.05786 0.11679 1.00575 0.0
H359 H 0.05562 0.08214 0.94703 0.0
Nd360 Nd 0.53525 1.00125 0.79921 0.0
Nd361 Nd 0.51491 0.02678 0.89085 0.0
C362 C 0.55178 0.97346 0.72972 0.0
C363 C 0.57421 0.97485 0.70254 0.0
C364 C 0.59295 0.99117 0.7217 0.0
C365 C 0.61402 0.99354 0.69333 0.0
C366 C 0.61677 0.9797 0.64493 0.0
C367 C 0.59795 0.96306 0.62663 0.0
C368 C 0.57686 0.9607 0.65516 0.0
C369 C 0.53258 0.04847 0.7524 0.0
C370 C 0.56981 0.0356 0.88049 0.0
C371 C 0.49816 0.05505 0.95798 0.0
C372 C 0.47551 0.05344 0.98378 0.0
C373 C 0.45974 0.03125 0.98947 0.0
C374 C 0.43822 0.02958 0.01392 0.0
C375 C 0.43188 0.05015 0.03269 0.0
C376 C 0.44772 0.07245 0.02614 0.0
C377 C 0.46935 0.07406 1.00194 0.0
C378 C 0.51672 0.97934 0.9373 0.0
C379 C 0.48023 0.99145 0.81272 0.0
O380 O 0.54997 0.96901 0.79181 0.0
O381 O 0.54147 0.99061 0.70543 0.0
O382 O 0.54987 0.03914 0.74409 0.0
O383 O 0.51747 0.03292 0.78416 0.0
O384 O 0.56715 0.01684 0.84882 0.0
O385 O 0.55259 0.04461 0.89594 0.0
O386 O 0.50017 0.05922 0.89593 0.0
O387 O 0.50867 0.03819 0.98343 0.0
O388 O 0.49978 0.98919 0.9457 0.0
O389 O 0.53226 0.99464 0.90629 0.0
O390 O 0.48282 0.01036 0.84382 0.0
O391 O 0.49754 0.98289 0.79566 0.0
H392 H 0.59122 1.00232 0.75808 0.0
H393 H 0.62816 1.00629 0.7092 0.0
H394 H 0.59937 0.95236 0.58897 0.0
H395 H 0.56255 0.94813 0.63944 0.0
H396 H 0.46414 0.01514 0.97533 0.0
H397 H 0.42668 0.01202 0.0191 0.0
H398 H 0.44337 0.08874 0.03916 0.0
H399 H 0.48124 0.09139 0.9973 0.0
Nd400 Nd 0.51038 0.51897 0.89224 0.0
Nd401 Nd 0.54454 0.50548 0.80634 0.0
C402 C 0.48042 0.54036 0.93662 0.0
C403 C 0.48189 0.56554 0.94884 0.0
C404 C 0.46258 0.57364 0.96321 0.0
C405 C 0.46435 0.59743 0.97718 0.0
C406 C 0.48547 0.61344 0.97681 0.0
C407 C 0.50466 0.60534 0.96038 0.0
C408 C 0.50288 0.58163 0.94663 0.0
C409 C 0.54964 0.51271 0.95022 0.0
C410 C 0.54701 0.56236 0.80317 0.0
C411 C 0.57452 0.48481 0.75916 0.0
C412 C 0.57291 0.46055 0.74035 0.0
C413 C 0.5922 0.45287 0.72382 0.0
C414 C 0.59034 0.42994 0.70406 0.0
C415 C 0.56913 0.41439 0.70084 0.0
C416 C 0.54993 0.42207 0.71906 0.0
C417 C 0.55181 0.44493 0.73856 0.0
C418 C 0.50527 0.51221 0.74882 0.0
C419 C 0.50811 0.46185 0.89574 0.0
O420 O 0.48173 0.53762 0.87673 0.0
O421 O 0.49269 0.52787 0.97329 0.0
O422 O 0.53026 0.50668 0.97926 0.0
O423 O 0.54805 0.52328 0.89453 0.0
O424 O 0.52715 0.5555 0.83214 0.0
O425 O 0.55945 0.54639 0.79589 0.0
O426 O 0.57204 0.48512 0.8201 0.0
O427 O 0.56324 0.49895 0.72409 0.0
O428 O 0.52469 0.51856 0.72004 0.0
O429 O 0.50688 0.5012 0.80396 0.0
O430 O 0.52749 0.46866 0.86417 0.0
O431 O 0.49604 0.47782 0.90631 0.0
H432 H 0.44623 0.56149 0.96456 0.0
H433 H 0.44923 0.6032 0.98904 0.0
H434 H 0.52123 0.61698 0.96061 0.0
H435 H 0.51799 0.57566 0.93565 0.0
H436 H 0.60862 0.46469 0.72542 0.0
H437 H 0.60544 0.42447 0.69074 0.0
H438 H 0.53332 0.4108 0.71606 0.0
H439 H 0.53673 0.45063 0.75111 0.0
Nd440 Nd 0.01635 0.52899 0.79015 0.0
Nd441 Nd 0.02956 0.48791 0.89096 0.0
C442 C 0.9983 0.56458 0.73424 0.0
C443 C 0.97863 0.56302 0.69183 0.0
C444 C 0.95732 0.54991 0.71436 0.0
C445 C 0.93978 0.54447 0.67218 0.0
C446 C 0.94302 0.55207 0.60641 0.0
C447 C 0.964 0.56622 0.58418 0.0
C448 C 0.98161 0.57168 0.62652 0.0
C449 C 0.01799 0.48866 0.73131 0.0
C450 C 0.97804 0.48278 0.85674 0.0
C451 C 0.04801 0.45591 0.96433 0.0
C452 C 0.06274 0.45975 0.01899 0.0
C453 C 0.06725 0.48268 0.04008 0.0
C454 C 0.08105 0.48679 0.09219 0.0
C455 C 0.09076 0.46809 0.12411 0.0
C456 C 0.08613 0.44506 0.10286 0.0
C457 C 0.0722 0.44093 0.05062 0.0
C458 C 0.0175 0.52581 0.9396 0.0
C459 C 0.06939 0.53082 0.8122 0.0
O460 O 0.99426 0.55524 0.79416 0.0
O461 O 0.01612 0.55902 0.71103 0.0
O462 O 0.01282 0.50841 0.70231 0.0
O463 O 0.02146 0.49088 0.78877 0.0
O464 O 0.98329 0.5064 0.83554 0.0
O465 O 0.99357 0.46966 0.86947 0.0
O466 O 0.05657 0.46694 0.90918 0.0
O467 O 0.02748 0.45849 0.97269 0.0
O468 O 0.01306 0.50345 0.96702 0.0
O469 O 0.02951 0.52811 0.89036 0.0
O470 O 0.06372 0.50993 0.85072 0.0
O471 O 0.05442 0.54306 0.78661 0.0
H472 H 0.95438 0.54286 0.7643 0.0
H473 H 0.92395 0.53332 0.69098 0.0
H474 H 0.96693 0.57268 0.53392 0.0
H475 H 0.99784 0.58181 0.60785 0.0
H476 H 0.06 0.49741 0.01621 0.0
H477 H 0.08396 0.50461 0.10777 0.0
H478 H 0.09357 0.43036 0.1259 0.0
H479 H 0.06889 0.42314 0.03482 0.0
H480 H 0.16031 0.99427 0.75068 0.0
H481 H 0.14786 0.01527 0.55199 0.0
H482 H 0.11033 0.01998 0.57881 0.0
H483 H 0.08051 0.01691 0.6582 0.0
H484 H 0.09238 0.99459 0.85637 0.0
H485 H 0.13055 0.99136 0.83017 0.0
C486 C 0.14935 0.99968 0.7131 0.0
C487 C 0.157 1.00435 0.6493 0.0
C488 C 0.12762 1.00205 0.72877 0.0
C489 C 0.14262 0.01183 0.60153 0.0
C490 C 0.12106 0.01438 0.61679 0.0
C491 C 0.09149 0.0114 0.69566 0.0
C492 C 0.08363 1.0059 0.75909 0.0
C493 C 0.11333 1.00941 0.68016 0.0
C494 C 0.09803 0.99884 0.80715 0.0
C495 C 0.11985 0.99699 0.79217 0.0
H496 H 0.52713 0.13767 0.543 0.0
H497 H 0.45787 0.11911 0.60619 0.0
H498 H 0.46653 0.08799 0.68918 0.0
H499 H 0.49324 0.0641 0.73904 0.0
H500 H 0.56228 0.08201 0.67411 0.0
H501 H 0.55438 0.11562 0.59761 0.0
C502 C 0.51402 0.12714 0.57567 0.0
C503 C 0.49186 0.13064 0.56804 0.0
C504 C 0.51907 0.10908 0.62293 0.0
C505 C 0.47501 0.11657 0.61037 0.0
C506 C 0.47996 0.09881 0.658 0.0
C507 C 0.5066 0.07556 0.70867 0.0
C508 C 0.52828 0.07048 0.71188 0.0
C509 C 0.50184 0.09459 0.66397 0.0
C510 C 0.54543 0.08548 0.6723 0.0
C511 C 0.54091 0.10467 0.62843 0.0
H512 H 0.42639 0.54858 0.59605 0.0
H513 H 0.38759 0.50348 0.75382 0.0
H514 H 0.422 0.49498 0.80398 0.0
H515 H 0.46299 0.498 0.79933 0.0
H516 H 0.50119 0.5413 0.63829 0.0
H517 H 0.46708 0.55229 0.59232 0.0
C518 C 0.42539 0.53679 0.64128 0.0
C519 C 0.40434 0.52655 0.67071 0.0
C520 C 0.44515 0.53134 0.66887 0.0
C521 C 0.40352 0.51184 0.73023 0.0
C522 C 0.4232 0.50673 0.75869 0.0
C523 C 0.46379 0.50987 0.75424 0.0
C524 C 0.4845 0.51871 0.72196 0.0
C525 C 0.44406 0.516 0.72785 0.0
C526 C 0.48539 0.53412 0.66373 0.0
C527 C 0.46592 0.54048 0.63754 0.0
H528 H 0.03711 0.42102 0.53796 0.0
H529 H 0.07817 0.39731 0.69151 0.0
H530 H 0.06456 0.42301 0.75939 0.0
H531 H 0.04292 0.45468 0.77198 0.0
H532 H 1.0033 0.47906 0.61547 0.0
H533 H 0.01429 0.4506 0.55201 0.0
C534 C 0.04315 0.42155 0.58622 0.0
C535 C 0.05884 0.40756 0.60939 0.0
C536 C 0.03545 0.43647 0.62449 0.0
C537 C 0.06608 0.40793 0.67257 0.0
C538 C 0.05836 0.42268 0.7113 0.0
C539 C 0.03644 0.45338 0.7244 0.0
C540 C 0.02238 0.4689 0.69822 0.0
C541 C 0.04327 0.43731 0.68745 0.0
C542 C 0.01421 0.4673 0.63641 0.0
C543 C 0.02053 0.45111 0.60002 0.0
H544 H 0.89893 0.02839 0.95143 0.0
H545 H 0.90989 1.00371 0.14896 0.0
H546 H 0.94772 0.99967 0.12263 0.0
H547 H 0.97812 1.00414 0.04397 0.0
H548 H 0.96752 0.02974 0.84698 0.0
H549 H 0.92921 0.03265 0.87272 0.0
C550 C 0.90964 0.02234 0.98889 0.0
C551 C 0.90151 0.01645 0.0522 0.0
C552 C 0.93148 0.02026 0.9735 0.0
C553 C 0.91555 1.00814 0.09978 0.0
C554 C 0.93726 1.00596 0.08481 0.0
C555 C 0.96739 0.0103 1.00667 0.0
C556 C 0.97565 0.01681 0.9437 0.0
C557 C 0.94544 0.01206 0.02191 0.0
C558 C 0.96156 0.02471 0.89584 0.0
C559 C 0.93967 0.02638 0.91055 0.0
H560 H 0.51438 0.88662 0.1406 0.0
H561 H 0.58575 0.90555 0.10236 0.0
H562 H 0.5804 0.93773 0.0174 0.0
H563 H 0.5557 0.96305 0.96066 0.0
H564 H 0.4846 0.94486 1.00333 0.0
H565 H 0.48958 0.90997 0.07969 0.0
C566 C 0.52878 0.89775 0.11361 0.0
C567 C 0.55045 0.8938 0.12837 0.0
C568 C 0.52563 0.91651 0.06575 0.0
C569 C 0.56886 0.90806 0.09189 0.0
C570 C 0.56583 0.92661 0.04355 0.0
C571 C 0.54129 0.95122 0.98609 0.0
C572 C 0.51984 0.95663 0.97683 0.0
C573 C 0.54434 0.93136 0.03097 0.0
C574 C 0.50131 0.94117 0.01002 0.0
C575 C 0.50414 0.92123 0.05378 0.0
H576 H 0.62942 0.4797 0.10624 0.0
H577 H 0.66332 0.50407 0.92425 0.0
H578 H 0.62936 0.51563 0.87875 0.0
H579 H 0.59019 0.51951 0.89126 0.0
H580 H 0.5557 0.49233 0.07114 0.0
H581 H 0.58982 0.48121 0.11696 0.0
C582 C 0.62933 0.48708 0.05628 0.0
C583 C 0.649 0.49103 0.0189 0.0
C584 C 0.60969 0.49341 0.0302 0.0
C585 C 0.64857 0.50113 0.95451 0.0
C586 C 0.62913 0.50769 0.92834 0.0
C587 C 0.59014 0.511 0.94034 0.0
C588 C 0.57049 0.50668 0.97777 0.0
C589 C 0.60965 0.5041 0.9659 0.0
C590 C 0.57065 0.49585 0.04143 0.0
C591 C 0.59012 0.48943 0.06758 0.0
H592 H 0.9749 0.58899 0.10224 0.0
H593 H 0.0357 0.64156 0.04375 0.0
H594 H 0.04531 0.61459 0.97255 0.0
H595 H 0.03829 0.57384 0.93595 0.0
H596 H 0.97858 0.52084 1.00209 0.0
H597 H 0.96664 0.5501 0.06086 0.0
C598 C 0.99026 0.59457 0.0739 0.0
C599 C 1.00471 0.61705 0.07905 0.0
C600 C 0.9959 0.5788 0.03446 0.0
C601 C 0.02426 0.62432 0.04067 0.0
C602 C 0.02983 0.60884 1.00022 0.0
C603 C 0.02249 0.56901 0.96228 0.0
C604 C 0.00936 0.54528 0.96525 0.0
C605 C 0.01604 0.58575 0.99787 0.0
C606 C 0.989 0.539 0.99976 0.0
C607 C 0.98219 0.55568 0.03345 0.0
H608 H 0.03193 0.1618 0.62195 0.0
H609 H 0.09499 0.18072 0.71734 0.0
H610 H 0.08981 0.13915 0.77308 0.0
H611 H 0.06735 0.09774 0.79564 0.0
H612 H 1.00428 0.07823 0.70045 0.0
H613 H 0.00956 0.11974 0.64348 0.0
C614 C 0.04463 0.15671 0.65441 0.0
C615 C 0.06378 0.17433 0.66566 0.0
C616 C 0.04152 0.13275 0.68649 0.0
C617 C 0.07998 0.16757 0.70846 0.0
C618 C 0.07707 0.1438 0.74019 0.0
C619 C 0.05471 0.1025 0.76246 0.0
C620 C 0.03543 0.08488 0.75244 0.0
C621 C 0.05786 0.1263 0.72988 0.0
C622 C 0.01928 0.09144 0.70918 0.0
C623 C 0.02229 0.11516 0.6765 0.0
H624 H 0.37744 0.96894 0.75578 0.0
H625 H 0.40288 0.95779 0.5759 0.0
H626 H 0.44032 0.96037 0.62006 0.0
H627 H 0.46702 0.97216 0.70445 0.0
H628 H 0.44194 0.98765 0.87977 0.0
H629 H 0.40343 0.97726 0.84277 0.0
C630 C 0.39112 0.96694 0.72625 0.0
C631 C 0.38726 0.96349 0.66233 0.0
C632 C 0.41287 0.96955 0.751 0.0
C633 C 0.40517 0.96027 0.62542 0.0
C634 C 0.42673 0.96203 0.65042 0.0
C635 C 0.45305 0.97266 0.73498 0.0
C636 C 0.45723 0.98077 0.79443 0.0
C637 C 0.43095 0.96754 0.7124 0.0
C638 C 0.43907 0.98162 0.83349 0.0
C639 C 0.41706 0.97573 0.81236 0.0
H640 H 0.55685 0.33248 0.52529 0.0
H641 H 0.50624 0.29723 0.66753 0.0
H642 H 0.51915 0.32965 0.73294 0.0
H643 H 0.54157 0.37054 0.74255 0.0
H644 H 0.59079 0.40632 0.59688 0.0
H645 H 0.58222 0.3707 0.54117 0.0
C646 C 0.54909 0.33141 0.57153 0.0
C647 C 0.53048 0.31255 0.59125 0.0
C648 C 0.55626 0.35033 0.60809 0.0
C649 C 0.52042 0.31172 0.65092 0.0
C650 C 0.52777 0.33026 0.68825 0.0
C651 C 0.55056 0.37043 0.6989 0.0
C652 C 0.56659 0.3912 0.67353 0.0
C653 C 0.54511 0.35012 0.66611 0.0
C654 C 0.57846 0.39058 0.6177 0.0
C655 C 0.57342 0.37028 0.58546 0.0
H656 H 0.16498 0.56641 0.67971 0.0
H657 H 0.1816 0.51648 0.83725 0.0
H658 H 0.14362 0.50982 0.88059 0.0
H659 H 0.10509 0.51572 0.86994 0.0
H660 H 0.08773 0.56512 0.71224 0.0
H661 H 0.12662 0.57464 0.6733 0.0
C662 C 0.16026 0.55414 0.7236 0.0
C663 C 0.17609 0.5419 0.75504 0.0
C664 C 0.13828 0.55028 0.74826 0.0
C665 C 0.16983 0.52631 0.81237 0.0
C666 C 0.14807 0.52237 0.83705 0.0
C667 C 0.1098 0.52877 0.82734 0.0
C668 C 0.09343 0.5395 0.79377 0.0
C669 C 0.13208 0.53395 0.80489 0.0
C670 C 0.09996 0.55659 0.73911 0.0
C671 C 0.12219 0.56193 0.71654 0.0
H672 H 0.03752 0.86242 0.07064 0.0
H673 H 0.96648 0.84533 0.034 0.0
H674 H 0.96873 0.88645 0.97675 0.0
H675 H 0.99114 0.92697 0.93523 0.0
H676 H 0.06212 0.94402 0.97387 0.0
H677 H 0.05969 0.90309 0.03152 0.0
C678 C 0.02255 0.86771 0.04996 0.0
C679 C 1.00189 0.85089 0.05629 0.0
C680 C 0.02399 0.89129 0.01714 0.0
C681 C 0.98254 0.85806 0.0302 0.0
C682 C 0.98385 0.88149 0.99711 0.0
C683 C 0.00608 0.92168 0.95606 0.0
C684 C 0.02679 0.93845 0.95 0.0
C685 C 1.00452 0.8982 0.98991 0.0
C686 C 0.04596 0.93145 0.97788 0.0
C687 C 0.0446 0.90805 0.01087 0.0
H688 H 0.65643 0.05993 0.04152 0.0
H689 H 0.68514 0.03538 0.88404 0.0
H690 H 0.64972 0.0332 0.8275 0.0
H691 H 0.60952 0.03342 0.82887 0.0
H692 H 0.58086 0.05839 0.98538 0.0
H693 H 0.61769 0.06612 0.03531 0.0
C694 C 0.65525 0.05482 0.99403 0.0
C695 C 0.67338 0.04739 0.96768 0.0
C696 C 0.63481 0.05357 0.96177 0.0
C697 C 0.67132 0.04062 0.9062 0.0
C698 C 0.65109 0.03944 0.87371 0.0
C699 C 0.61141 0.04091 0.87345 0.0
C700 C 0.59247 0.04494 0.90399 0.0
C701 C 0.63252 0.04503 0.90207 0.0
C702 C 0.5952 0.05508 0.96105 0.0
C703 C 0.61622 0.05933 0.98981 0.0
H704 H 0.51903 0.71597 0.06747 0.0
H705 H 0.47098 0.68231 0.21802 0.0
H706 H 0.45785 0.64787 0.16054 0.0
H707 H 0.46402 0.62439 0.07665 0.0
H708 H 0.51291 0.65684 0.92756 0.0
H709 H 0.52193 0.69438 0.97595 0.0
C710 C 0.5055 0.70123 0.08732 0.0
C711 C 0.49621 0.70173 0.14736 0.0
C712 C 0.49846 0.68098 0.05493 0.0
C713 C 0.47836 0.68267 0.17172 0.0
C714 C 0.47098 0.66274 0.13921 0.0
C715 C 0.47619 0.63988 0.05362 0.0
C716 C 0.48799 0.63764 0.99907 0.0
C717 C 0.48147 0.66129 0.08201 0.0
C718 C 0.5039 0.65789 0.97035 0.0
C719 C 0.50903 0.67939 0.99788 0.0
H720 H 0.88468 0.4434 0.9967 0.0
H721 H 0.86637 0.49685 0.851 0.0
H722 H 0.90334 0.50376 0.80106 0.0
H723 H 0.94181 0.49755 0.80426 0.0
H724 H 0.96116 0.445 0.95012 0.0
H725 H 0.92274 0.43432 0.99365 0.0
C726 C 0.88881 0.45644 0.95384 0.0
C727 C 0.87285 0.46969 0.92781 0.0
C728 C 0.91022 0.46041 0.9253 0.0
C729 C 0.87828 0.48629 0.87175 0.0
C730 C 0.89945 0.49034 0.84326 0.0
C731 C 0.93753 0.4835 0.84503 0.0
C732 C 0.95429 0.47226 0.87436 0.0
C733 C 0.91566 0.47787 0.87033 0.0
C734 C 0.94849 0.45382 0.92653 0.0
C735 C 0.9266 0.44793 0.95184 0.0
H736 H 0.06535 0.1899 0.22552 0.0
H737 H 0.13584 0.19375 0.26191 0.0
H738 H 0.13525 0.15926 0.20372 0.0
H739 H 0.11494 0.12886 0.13964 0.0
H740 H 0.04424 0.12467 0.10532 0.0
H741 H 0.04474 0.15851 0.16536 0.0
C742 C 0.08051 0.18295 0.22165 0.0
C743 C 0.1006 0.19439 0.24811 0.0
C744 C 0.08006 0.1632 0.18794 0.0
C745 C 0.12019 0.18542 0.24152 0.0
C746 C 0.11986 0.16567 0.20837 0.0
C747 C 0.09958 0.13516 0.14588 0.0
C748 C 0.07962 0.12428 0.11758 0.0
C749 C 0.09993 0.15456 0.1809 0.0
C750 C 0.05994 0.13295 0.12552 0.0
C751 C 0.06016 0.1522 0.16028 0.0
H752 H 0.33084 0.02465 0.13079 0.0
H753 H 0.35923 0.07347 0.26379 0.0
H754 H 0.39573 0.08127 0.21023 0.0
H755 H 0.42026 0.07193 0.13068 0.0
H756 H 0.39184 0.02362 0.9963 0.0
H757 H 0.3549 0.01758 0.04617 0.0
C758 C 0.345 0.03708 0.14782 0.0
C759 C 0.34226 0.04841 0.20129 0.0
C760 C 0.36605 0.04134 0.11711 0.0
C761 C 0.36074 0.06471 0.2223 0.0
C762 C 0.3817 0.06903 0.19202 0.0
C763 C 0.40595 0.06042 0.11144 0.0
C764 C 0.40901 0.04806 0.06011 0.0
C765 C 0.38464 0.05717 0.13997 0.0
C766 C 0.39019 0.03297 0.03659 0.0
C767 C 0.36897 0.02961 0.06482 0.0
H768 H 0.49315 0.34851 0.98562 0.0
H769 H 0.44793 0.3657 0.11842 0.0
H770 H 0.45561 0.40825 0.06791 0.0
H771 H 0.4767 0.44109 0.98906 0.0
H772 H 0.52261 0.42351 0.85866 0.0
H773 H 0.51282 0.38069 0.90433 0.0
C774 C 0.48468 0.36147 1.00288 0.0
C775 C 0.47001 0.3539 0.05579 0.0
C776 C 0.48933 0.38593 0.97404 0.0
C777 C 0.45949 0.37108 0.07819 0.0
C778 C 0.46381 0.3954 0.04918 0.0
C779 C 0.48434 0.42784 0.97017 0.0
C780 C 0.50041 0.4356 0.92055 0.0
C781 C 0.47893 0.40313 0.99754 0.0
C782 C 0.51028 0.41816 0.897 0.0
C783 C 0.50471 0.3936 0.92314 0.0
H784 H 0.15106 0.47155 0.36941 0.0
H785 H 0.18101 0.54188 0.2655 0.0
H786 H 0.15326 0.53561 0.1823 0.0
H787 H 0.12271 0.50883 0.13436 0.0
H788 H 0.09307 0.43806 0.23616 0.0
H789 H 0.11901 0.44552 0.32376 0.0
C790 C 0.15148 0.48555 0.32866 0.0
C791 C 0.16819 0.50713 0.32388 0.0
C792 C 0.13582 0.48156 0.27994 0.0
C793 C 0.1682 0.52524 0.27117 0.0
C794 C 0.15248 0.52155 0.22303 0.0
C795 C 0.12165 0.49516 0.1761 0.0
C796 C 0.10601 0.47286 0.17844 0.0
C797 C 0.13653 0.4996 0.22631 0.0
C798 C 0.10518 0.45521 0.23257 0.0
C799 C 0.1199 0.45954 0.2829 0.0
H800 H 0.94703 0.81822 0.51548 0.0
H801 H 0.01225 0.84534 0.42559 0.0
H802 H 0.01663 0.88249 0.47495 0.0
H803 H 1.00266 0.90655 0.54736 0.0
H804 H 0.93797 0.87882 0.63978 0.0
H805 H 0.93272 0.84264 0.58598 0.0
C806 C 0.96224 0.83223 0.50682 0.0
C807 C 0.97931 0.82889 0.46703 0.0
C808 C 0.9648 0.85341 0.53608 0.0
C809 C 0.99872 0.84748 0.45538 0.0
C810 C 1.00133 0.86867 0.48405 0.0
C811 C 0.98747 0.89252 0.55598 0.0
C812 C 0.97078 0.89536 0.59778 0.0
C813 C 0.98461 0.87169 0.52511 0.0
C814 C 0.951 0.87721 0.60748 0.0
C815 C 0.94803 0.85645 0.57695 0.0
H816 H 0.70942 0.01293 0.49389 0.0
H817 H 0.69988 0.93521 0.49324 0.0
H818 H 0.66529 0.92858 0.55598 0.0
H819 H 0.63701 0.94493 0.60802 0.0
H820 H 0.64638 0.02273 0.60724 0.0
H821 H 0.68196 0.02913 0.54961 0.0
C822 C 0.69999 0.9945 0.50838 0.0
C823 C 0.70724 0.97462 0.48856 0.0
C824 C 0.68003 0.9908 0.54427 0.0
C825 C 0.69457 0.95089 0.50708 0.0
C826 C 0.6748 0.94706 0.54314 0.0
C827 C 0.64679 0.9633 0.59506 0.0
C828 C 0.63892 0.9833 0.61198 0.0
C829 C 0.66719 0.96691 0.56124 0.0
C830 C 0.65207 1.00694 0.59562 0.0
C831 C 0.67239 0.01066 0.56223 0.0
H832 H 0.58631 0.66646 0.64952 0.0
H833 H 0.52761 0.68202 0.73261 0.0
H834 H 0.51893 0.6409 0.79188 0.0
H835 H 0.52649 0.59986 0.81433 0.0
H836 H 0.58474 0.5835 0.73039 0.0
H837 H 0.59524 0.62566 0.6778 0.0
C838 C 0.57181 0.66092 0.68131 0.0
C839 C 0.55751 0.6772 0.68621 0.0
C840 C 0.56675 0.63708 0.71475 0.0
C841 C 0.53868 0.66972 0.72727 0.0
C842 C 0.53374 0.64623 0.76127 0.0
C843 C 0.54161 0.60547 0.78501 0.0
C844 C 0.5547 0.5884 0.77607 0.0
C845 C 0.5474 0.62962 0.75439 0.0
C846 C 0.57429 0.59619 0.73807 0.0
C847 C 0.58029 0.6203 0.7078 0.0
H848 H 0.85512 0.51365 0.45799 0.0
H849 H 0.9036 0.50081 0.32793 0.0
H850 H 0.93432 0.51848 0.39459 0.0
H851 H 0.94707 0.53608 0.49232 0.0
H852 H 0.89806 0.54979 0.61986 0.0
H853 H 0.86779 0.53304 0.55188 0.0
C854 C 0.87242 0.51456 0.44451 0.0
C855 C 0.87714 0.50561 0.38879 0.0
C856 C 0.88984 0.52487 0.48259 0.0
C857 C 0.89961 0.50749 0.37086 0.0
C858 C 0.91712 0.51756 0.40895 0.0
C859 C 0.9298 0.5358 0.50469 0.0
C860 C 0.92487 0.54406 0.56147 0.0
C861 C 0.91241 0.5262 0.46515 0.0
C862 C 0.90234 0.54323 0.57708 0.0
C863 C 0.88501 0.53371 0.53813 0.0
loop_
_geom_bond_atom_site_label_1
_geom_bond_atom_site_label_2
_geom_bond_distance
_geom_bond_site_symmetry_2
_ccdc_geom_bond_type
C0 C1 1.264 . S
C0 C5 1.479 . S
C0 C10 1.465 . S
C1 C0 1.264 . S
C1 C3 1.339 . S
C1 H28 0.931 . S
C2 C3 1.395 . S
C2 C4 1.320 . S
C3 C1 1.339 . S
C3 C2 1.395 . S
C3 H29 0.929 . S
C4 C2 1.320 . S
C4 C5 1.405 . S
C4 H30 0.930 . S
C5 C0 1.479 . S
C5 C4 1.405 . S
C5 H31 0.931 . S
U6 O7 2.454 . S
U6 O8 2.458 . S
U6 C9 2.984 . S
U6 C10 2.847 . S
U6 C23 2.882 1_554 S
U6 O24 2.441 . S
U6 O25 2.420 . S
U6 O26 2.455 1_554 S
U6 O27 2.449 . S
O7 U6 2.454 . S
O7 C9 1.353 . S
O8 U6 2.458 . S
O8 C9 1.286 . S
C9 U6 2.984 . S
C9 O7 1.353 . S
C9 O8 1.286 . S
C9 C11 1.363 . S
C10 C0 1.465 . S
C10 U6 2.847 . S
C10 O24 1.249 . S
C10 O25 1.202 . S
C11 C9 1.363 . S
C11 C13 1.408 . S
C11 C16 1.342 1_554 S
C12 C13 1.310 . S
C12 C15 1.461 1_554 S
C12 H32 0.932 . S
C13 C11 1.408 . S
C13 C12 1.310 . S
C13 H33 0.930 . S
C14 C15 1.474 . S
C14 C16 1.285 . S
C14 H34 0.929 . S
C15 C12 1.461 1_556 S
C15 C14 1.474 . S
C16 C11 1.342 1_556 S
C16 C14 1.285 . S
C16 H35 0.930 . S
C17 C20 1.424 . S
C17 C22 1.245 . S
C17 C23 1.428 . S
C18 C21 1.260 . S
C18 C22 1.477 . S
C18 H36 0.932 . S
C19 C20 1.384 . S
C19 C21 1.479 . S
C19 H37 0.929 . S
C20 C17 1.424 . S
C20 C19 1.384 . S
C20 H38 0.928 . S
C21 C18 1.260 . S
C21 C19 1.479 . S
C22 C17 1.245 . S
C22 C18 1.477 . S
C22 H39 0.932 . S
C23 U6 2.882 1_556 S
C23 C17 1.428 . S
C23 O26 1.301 . S
C23 O27 1.282 1_556 S
O24 U6 2.441 . S
O24 C10 1.249 . S
O25 U6 2.420 . S
O25 C10 1.202 . S
O26 U6 2.455 1_556 S
O26 C23 1.301 . S
O27 U6 2.449 . S
O27 C23 1.282 1_554 S
H28 C1 0.931 . S
H29 C3 0.929 . S
H30 C4 0.930 . S
H31 C5 0.931 . S
H32 C12 0.932 . S
H33 C13 0.930 . S
H34 C14 0.929 . S
H35 C16 0.930 . S
H36 C18 0.932 . S
H37 C19 0.929 . S
H38 C20 0.928 . S
H39 C22 0.932 . S
C40 C41 1.264 . S
C40 C45 1.479 . S
C40 C50 1.465 . S
C41 C40 1.264 . S
C41 C43 1.339 . S
C41 H68 0.931 . S
C42 C43 1.395 . S
C42 C44 1.320 . S
C43 C41 1.339 . S
C43 C42 1.395 . S
C43 H69 0.929 . S
C44 C42 1.320 . S
C44 C45 1.405 . S
C44 H70 0.930 . S
C45 C40 1.479 . S
C45 C44 1.405 . S
C45 H71 0.931 . S
U46 O47 2.454 . S
U46 O48 2.458 . S
U46 C49 2.984 . S
U46 C50 2.847 . S
U46 C63 2.882 1_554 S
U46 O64 2.441 . S
U46 O65 2.420 . S
U46 O66 2.455 1_554 S
U46 O67 2.449 . S
O47 U46 2.454 . S
O47 C49 1.353 . S
O48 U46 2.458 . S
O48 C49 1.286 . S
C49 U46 2.984 . S
C49 O47 1.353 . S
C49 O48 1.286 . S
C49 C51 1.363 . S
C50 C40 1.465 . S
C50 U46 2.847 . S
C50 O64 1.249 . S
C50 O65 1.202 . S
C51 C49 1.363 . S
C51 C53 1.408 . S
C51 C56 1.342 1_554 S
C52 C53 1.310 . S
C52 C55 1.461 . S
C52 H72 0.932 . S
C53 C51 1.408 . S
C53 C52 1.310 . S
C53 H73 0.930 . S
C54 C55 1.474 1_556 S
C54 C56 1.285 . S
C54 H74 0.929 . S
C55 C52 1.461 . S
C55 C54 1.474 1_554 S
C56 C51 1.342 1_556 S
C56 C54 1.285 . S
C56 H75 0.930 . S
C57 C60 1.424 . S
C57 C62 1.245 . S
C57 C63 1.428 . S
C58 C61 1.260 . S
C58 C62 1.477 . S
C58 H76 0.932 . S
C59 C60 1.384 . S
C59 C61 1.479 . S
C59 H77 0.929 . S
C60 C57 1.424 . S
C60 C59 1.384 . S
C60 H78 0.928 . S
C61 C58 1.260 . S
C61 C59 1.479 . S
C62 C57 1.245 . S
C62 C58 1.477 . S
C62 H79 0.932 . S
C63 U46 2.882 1_556 S
C63 C57 1.428 . S
C63 O66 1.301 . S
C63 O67 1.282 1_556 S
O64 U46 2.441 . S
O64 C50 1.249 . S
O65 U46 2.420 . S
O65 C50 1.202 . S
O66 U46 2.455 1_556 S
O66 C63 1.301 . S
O67 U46 2.449 . S
O67 C63 1.282 1_554 S
H68 C41 0.931 . S
H69 C43 0.929 . S
H70 C44 0.930 . S
H71 C45 0.931 . S
H72 C52 0.932 . S
H73 C53 0.930 . S
H74 C54 0.929 . S
H75 C56 0.930 . S
H76 C58 0.932 . S
H77 C59 0.929 . S
H78 C60 0.928 . S
H79 C62 0.932 . S
C80 C81 1.264 . S
C80 C85 1.479 . S
C80 C90 1.465 . S
C81 C80 1.264 . S
C81 C83 1.339 . S
C81 H108 0.931 . S
C82 C83 1.395 . S
C82 C84 1.320 . S
C83 C81 1.339 . S
C83 C82 1.395 . S
C83 H109 0.929 . S
C84 C82 1.320 . S
C84 C85 1.405 . S
C84 H110 0.920 1_545 S
C85 C80 1.479 . S
C85 C84 1.405 . S
C85 H111 0.931 . S
U86 O87 2.455 . S
U86 O88 2.455 1_554 S
U86 C89 2.983 1_554 S
U86 C90 2.851 . S
U86 C103 2.879 1_554 S
U86 O104 2.445 . S
U86 O105 2.424 . S
U86 O106 2.451 1_554 S
U86 O107 2.447 1_554 S
O87 U86 2.455 . S
O87 C89 1.353 1_554 S
O88 U86 2.455 1_556 S
O88 C89 1.286 . S
C89 U86 2.983 1_556 S
C89 O87 1.353 1_556 S
C89 O88 1.286 . S
C89 C91 1.363 . S
C90 C80 1.465 . S
C90 U86 2.851 . S
C90 O104 1.249 . S
C90 O105 1.202 . S
C91 C89 1.363 . S
C91 C93 1.408 1_556 S
C91 C96 1.342 . S
C92 C93 1.310 1_556 S
C92 C95 1.462 . S
C92 H112 0.932 1_556 S
C93 C91 1.408 1_554 S
C93 C92 1.310 1_554 S
C93 H113 0.930 . S
C94 C95 1.475 1_565 S
C94 C96 1.282 1_565 S
C94 H114 0.932 . S
C95 C92 1.462 . S
C95 C94 1.475 1_545 S
C96 C91 1.342 . S
C96 C94 1.282 1_545 S
C96 H115 0.930 . S
C97 C100 1.424 . S
C97 C102 1.245 . S
C97 C103 1.428 . S
C98 C101 1.260 . S
C98 C102 1.477 . S
C98 H116 0.932 . S
C99 C100 1.384 . S
C99 C101 1.479 . S
C99 H117 0.929 . S
C100 C97 1.424 . S
C100 C99 1.384 . S
C100 H118 0.928 . S
C101 C98 1.260 . S
C101 C99 1.479 . S
C102 C97 1.245 . S
C102 C98 1.477 . S
C102 H119 0.932 . S
C103 U86 2.879 1_556 S
C103 C97 1.428 . S
C103 O106 1.301 . S
C103 O107 1.282 . S
O104 U86 2.445 . S
O104 C90 1.249 . S
O105 U86 2.424 . S
O105 C90 1.202 . S
O106 U86 2.451 1_556 S
O106 C103 1.301 . S
O107 U86 2.447 1_556 S
O107 C103 1.282 . S
H108 C81 0.931 . S
H109 C83 0.929 . S
H110 C84 0.920 1_565 S
H111 C85 0.931 . S
H112 C92 0.932 1_554 S
H113 C93 0.930 . S
H114 C94 0.932 . S
H115 C96 0.930 . S
H116 C98 0.932 . S
H117 C99 0.929 . S
H118 C100 0.928 . S
H119 C102 0.932 . S
C120 C121 1.264 . S
C120 C125 1.479 . S
C120 C130 1.465 . S
C121 C120 1.264 . S
C121 C123 1.339 . S
C121 H148 0.931 . S
C122 C123 1.395 . S
C122 C124 1.320 . S
C123 C121 1.339 . S
C123 C122 1.395 . S
C123 H149 0.929 . S
C124 C122 1.320 . S
C124 C125 1.405 . S
C124 H150 0.930 . S
C125 C120 1.479 . S
C125 C124 1.405 . S
C125 H151 0.931 . S
U126 O127 2.454 . S
U126 O128 2.458 . S
U126 C129 2.984 . S
U126 C130 2.847 . S
U126 C143 2.882 . S
U126 O144 2.441 . S
U126 O145 2.420 . S
U126 O146 2.455 . S
U126 O147 2.449 . S
O127 U126 2.454 . S
O127 C129 1.353 . S
O128 U126 2.458 . S
O128 C129 1.286 . S
C129 U126 2.984 . S
C129 O127 1.353 . S
C129 O128 1.286 . S
C129 C131 1.363 . S
C130 C120 1.465 . S
C130 U126 2.847 . S
C130 O144 1.249 . S
C130 O145 1.202 . S
C131 C129 1.363 . S
C131 C133 1.408 . S
C131 C136 1.342 . S
C132 C133 1.310 . S
C132 C135 1.461 . S
C132 H152 0.932 . S
C133 C131 1.408 . S
C133 C132 1.310 . S
C133 H153 0.930 . S
C134 C135 1.474 . S
C134 C136 1.285 . S
C134 H154 0.929 . S
C135 C132 1.461 . S
C135 C134 1.474 . S
C136 C131 1.342 . S
C136 C134 1.285 . S
C136 H155 0.930 . S
C137 C140 1.424 . S
C137 C142 1.245 . S
C137 C143 1.428 . S
C138 C141 1.260 . S
C138 C142 1.477 . S
C138 H156 0.932 . S
C139 C140 1.384 . S
C139 C141 1.479 . S
C139 H157 0.929 . S
C140 C137 1.424 . S
C140 C139 1.384 . S
C140 H158 0.928 . S
C141 C138 1.260 . S
C141 C139 1.479 . S
C142 C137 1.245 . S
C142 C138 1.477 . S
C142 H159 0.932 . S
C143 U126 2.882 . S
C143 C137 1.428 . S
C143 O146 1.301 . S
C143 O147 1.282 . S
O144 U126 2.441 . S
O144 C130 1.249 . S
O145 U126 2.420 . S
O145 C130 1.202 . S
O146 U126 2.455 . S
O146 C143 1.301 . S
O147 U126 2.449 . S
O147 C143 1.282 . S
H148 C121 0.931 . S
H149 C123 0.929 . S
H150 C124 0.930 . S
H151 C125 0.931 . S
H152 C132 0.932 . S
H153 C133 0.930 . S
H154 C134 0.929 . S
H155 C136 0.930 . S
H156 C138 0.932 . S
H157 C139 0.929 . S
H158 C140 0.928 . S
H159 C142 0.932 . S
C160 C161 1.264 . S
C160 C165 1.479 . S
C160 C170 1.465 . S
C161 C160 1.264 . S
C161 C163 1.339 . S
C161 H188 0.931 . S
C162 C163 1.395 . S
C162 C164 1.320 . S
C163 C161 1.339 . S
C163 C162 1.395 . S
C163 H189 0.929 . S
C164 C162 1.320 . S
C164 C165 1.405 . S
C164 H190 0.930 . S
C165 C160 1.479 . S
C165 C164 1.405 . S
C165 H191 0.931 . S
U166 O167 2.454 . S
U166 O168 2.458 . S
U166 C169 2.984 . S
U166 C170 2.847 . S
U166 C183 2.882 . S
U166 O184 2.441 . S
U166 O185 2.420 . S
U166 O186 2.455 . S
U166 O187 2.449 . S
O167 U166 2.454 . S
O167 C169 1.353 . S
O168 U166 2.458 . S
O168 C169 1.286 . S
C169 U166 2.984 . S
C169 O167 1.353 . S
C169 O168 1.286 . S
C169 C171 1.363 . S
C170 C160 1.465 . S
C170 U166 2.847 . S
C170 O184 1.249 . S
C170 O185 1.202 . S
C171 C169 1.363 . S
C171 C173 1.408 . S
C171 C176 1.342 . S
C172 C173 1.310 . S
C172 C175 1.461 . S
C172 H192 0.932 . S
C173 C171 1.408 . S
C173 C172 1.310 . S
C173 H193 0.930 . S
C174 C175 1.474 . S
C174 C176 1.285 . S
C174 H194 0.929 . S
C175 C172 1.461 . S
C175 C174 1.474 . S
C176 C171 1.342 . S
C176 C174 1.285 . S
C176 H195 0.930 . S
C177 C180 1.424 . S
C177 C182 1.245 . S
C177 C183 1.428 . S
C178 C181 1.260 . S
C178 C182 1.477 . S
C178 H196 0.932 . S
C179 C180 1.384 . S
C179 C181 1.479 . S
C179 H197 0.929 . S
C180 C177 1.424 . S
C180 C179 1.384 . S
C180 H198 0.928 . S
C181 C178 1.260 . S
C181 C179 1.479 . S
C182 C177 1.245 . S
C182 C178 1.477 . S
C182 H199 0.932 . S
C183 U166 2.882 . S
C183 C177 1.428 . S
C183 O186 1.301 . S
C183 O187 1.282 . S
O184 U166 2.441 . S
O184 C170 1.249 . S
O185 U166 2.420 . S
O185 C170 1.202 . S
O186 U166 2.455 . S
O186 C183 1.301 . S
O187 U166 2.449 . S
O187 C183 1.282 . S
H188 C161 0.931 . S
H189 C163 0.929 . S
H190 C164 0.930 . S
H191 C165 0.931 . S
H192 C172 0.932 . S
H193 C173 0.930 . S
H194 C174 0.929 . S
H195 C176 0.930 . S
H196 C178 0.932 . S
H197 C179 0.929 . S
H198 C180 0.928 . S
H199 C182 0.932 . S
C200 C201 1.264 . S
C200 C205 1.479 . S
C200 C210 1.465 . S
C201 C200 1.264 . S
C201 C203 1.339 . S
C201 H228 0.931 . S
C202 C203 1.395 . S
C202 C204 1.320 . S
C203 C201 1.339 . S
C203 C202 1.395 . S
C203 H229 0.929 . S
C204 C202 1.320 . S
C204 C205 1.405 . S
C204 H230 0.930 . S
C205 C200 1.479 . S
C205 C204 1.405 . S
C205 H231 0.931 . S
U206 O207 2.454 . S
U206 O208 2.458 . S
U206 C209 2.984 . S
U206 C210 2.847 . S
U206 C223 2.882 . S
U206 O224 2.441 . S
U206 O225 2.420 . S
U206 O226 2.455 . S
U206 O227 2.449 . S
O207 U206 2.454 . S
O207 C209 1.353 . S
O208 U206 2.458 . S
O208 C209 1.286 . S
C209 U206 2.984 . S
C209 O207 1.353 . S
C209 O208 1.286 . S
C209 C211 1.363 . S
C210 C200 1.465 . S
C210 U206 2.847 . S
C210 O224 1.249 . S
C210 O225 1.202 . S
C211 C209 1.363 . S
C211 C213 1.408 . S
C211 C216 1.342 . S
C212 C213 1.310 . S
C212 C215 1.461 . S
C212 H232 0.932 . S
C213 C211 1.408 . S
C213 C212 1.310 . S
C213 H233 0.930 . S
C214 C215 1.474 . S
C214 C216 1.285 . S
C214 H234 0.929 . S
C215 C212 1.461 . S
C215 C214 1.474 . S
C216 C211 1.342 . S
C216 C214 1.285 . S
C216 H235 0.930 . S
C217 C220 1.424 . S
C217 C222 1.245 . S
C217 C223 1.428 . S
C218 C221 1.260 . S
C218 C222 1.477 . S
C218 H236 0.932 . S
C219 C220 1.384 . S
C219 C221 1.479 . S
C219 H237 0.929 . S
C220 C217 1.424 . S
C220 C219 1.384 . S
C220 H238 0.928 . S
C221 C218 1.260 . S
C221 C219 1.479 . S
C222 C217 1.245 . S
C222 C218 1.477 . S
C222 H239 0.932 . S
C223 U206 2.882 . S
C223 C217 1.428 . S
C223 O226 1.301 . S
C223 O227 1.282 . S
O224 U206 2.441 . S
O224 C210 1.249 . S
O225 U206 2.420 . S
O225 C210 1.202 . S
O226 U206 2.455 . S
O226 C223 1.301 . S
O227 U206 2.449 . S
O227 C223 1.282 . S
H228 C201 0.931 . S
H229 C203 0.929 . S
H230 C204 0.930 . S
H231 C205 0.931 . S
H232 C212 0.932 . S
H233 C213 0.930 . S
H234 C214 0.929 . S
H235 C216 0.930 . S
H236 C218 0.932 . S
H237 C219 0.929 . S
H238 C220 0.928 . S
H239 C222 0.932 . S
C240 C241 1.264 . S
C240 C245 1.479 . S
C240 C250 1.465 . S
C241 C240 1.264 . S
C241 C243 1.339 . S
C241 H268 0.931 . S
C242 C243 1.395 . S
C242 C244 1.320 . S
C243 C241 1.339 . S
C243 C242 1.395 . S
C243 H269 0.929 . S
C244 C242 1.320 . S
C244 C245 1.405 . S
C244 H270 0.924 1_545 S
C245 C240 1.479 . S
C245 C244 1.405 . S
C245 H271 0.931 . S
U246 O247 2.454 . S
U246 O248 2.458 . S
U246 C249 2.984 . S
U246 C250 2.847 . S
U246 C263 2.882 . S
U246 O264 2.441 . S
U246 O265 2.420 . S
U246 O266 2.455 . S
U246 O267 2.449 . S
O247 U246 2.454 . S
O247 C249 1.353 . S
O248 U246 2.458 . S
O248 C249 1.286 . S
C249 U246 2.984 . S
C249 O247 1.353 . S
C249 O248 1.286 . S
C249 C251 1.363 . S
C250 C240 1.465 . S
C250 U246 2.847 . S
C250 O264 1.249 . S
C250 O265 1.202 . S
C251 C249 1.363 . S
C251 C253 1.408 . S
C251 C256 1.342 . S
C252 C253 1.310 . S
C252 C255 1.459 . S
C252 H272 0.932 . S
C253 C251 1.408 . S
C253 C252 1.310 . S
C253 H273 0.930 . S
C254 C255 1.473 1_565 S
C254 C256 1.285 1_565 S
C254 H274 0.930 . S
C255 C252 1.459 . S
C255 C254 1.473 1_545 S
C256 C251 1.342 . S
C256 C254 1.285 1_545 S
C256 H275 0.930 . S
C257 C260 1.424 . S
C257 C262 1.245 . S
C257 C263 1.428 . S
C258 C261 1.260 . S
C258 C262 1.477 . S
C258 H276 0.932 . S
C259 C260 1.384 . S
C259 C261 1.479 . S
C259 H277 0.929 . S
C260 C257 1.424 . S
C260 C259 1.384 . S
C260 H278 0.928 . S
C261 C258 1.260 . S
C261 C259 1.479 . S
C262 C257 1.245 . S
C262 C258 1.477 . S
C262 H279 0.932 . S
C263 U246 2.882 . S
C263 C257 1.428 . S
C263 O266 1.301 . S
C263 O267 1.282 . S
O264 U246 2.441 . S
O264 C250 1.249 . S
O265 U246 2.420 . S
O265 C250 1.202 . S
O266 U246 2.455 . S
O266 C263 1.301 . S
O267 U246 2.449 . S
O267 C263 1.282 . S
H268 C241 0.931 . S
H269 C243 0.929 . S
H270 C244 0.924 1_565 S
H271 C245 0.931 . S
H272 C252 0.932 . S
H273 C253 0.930 . S
H274 C254 0.930 . S
H275 C256 0.930 . S
H276 C258 0.932 . S
H277 C259 0.929 . S
H278 C260 0.928 . S
H279 C262 0.932 . S
C280 C281 1.264 . S
C280 C285 1.479 . S
C280 C290 1.465 . S
C281 C280 1.264 . S
C281 C283 1.339 . S
C281 H308 0.931 . S
C282 C283 1.395 . S
C282 C284 1.320 . S
C283 C281 1.339 . S
C283 C282 1.395 . S
C283 H309 0.929 . S
C284 C282 1.320 . S
C284 C285 1.405 . S
C284 H310 0.930 1_554 S
C285 C280 1.479 . S
C285 C284 1.405 . S
C285 H311 0.931 . S
U286 O287 2.454 . S
U286 O288 2.458 . S
U286 C289 2.984 . S
U286 C290 2.847 . S
U286 C303 2.882 . S
U286 O304 2.441 . S
U286 O305 2.420 . S
U286 O306 2.455 . S
U286 O307 2.449 . S
O287 U286 2.454 . S
O287 C289 1.353 . S
O288 U286 2.458 . S
O288 C289 1.286 . S
C289 U286 2.984 . S
C289 O287 1.353 . S
C289 O288 1.286 . S
C289 C291 1.363 . S
C290 C280 1.465 . S
C290 U286 2.847 . S
C290 O304 1.249 . S
C290 O305 1.202 . S
C291 C289 1.363 . S
C291 C293 1.408 . S
C291 C296 1.342 . S
C292 C293 1.310 . S
C292 C295 1.461 . S
C292 H312 0.932 . S
C293 C291 1.408 . S
C293 C292 1.310 . S
C293 H313 0.930 . S
C294 C295 1.474 . S
C294 C296 1.285 . S
C294 H314 0.929 . S
C295 C292 1.461 . S
C295 C294 1.474 . S
C296 C291 1.342 . S
C296 C294 1.285 . S
C296 H315 0.930 . S
C297 C300 1.424 . S
C297 C302 1.245 . S
C297 C303 1.428 . S
C298 C301 1.260 . S
C298 C302 1.477 . S
C298 H316 0.932 . S
C299 C300 1.384 . S
C299 C301 1.479 . S
C299 H317 0.929 . S
C300 C297 1.424 . S
C300 C299 1.384 . S
C300 H318 0.928 . S
C301 C298 1.260 . S
C301 C299 1.479 . S
C302 C297 1.245 . S
C302 C298 1.477 . S
C302 H319 0.932 . S
C303 U286 2.882 . S
C303 C297 1.428 . S
C303 O306 1.301 . S
C303 O307 1.282 . S
O304 U286 2.441 . S
O304 C290 1.249 . S
O305 U286 2.420 . S
O305 C290 1.202 . S
O306 U286 2.455 . S
O306 C303 1.301 . S
O307 U286 2.449 . S
O307 C303 1.282 . S
H308 C281 0.931 . S
H309 C283 0.929 . S
H310 C284 0.930 1_556 S
H311 C285 0.931 . S
H312 C292 0.932 . S
H313 C293 0.930 . S
H314 C294 0.929 . S
H315 C296 0.930 . S
H316 C298 0.932 . S
H317 C299 0.929 . S
H318 C300 0.928 . S
H319 C302 0.932 . S
Nd320 C322 2.836 1_455 S
Nd320 O340 2.500 1_455 S
Nd320 O341 2.492 . S
Nd320 O342 2.487 . S
Nd320 O343 2.682 1_565 S
Nd320 O344 2.410 . S
Nd320 O349 2.414 1_455 S
Nd320 O351 2.424 1_565 S
Nd321 C331 2.836 . S
Nd321 O343 2.414 . S
Nd321 O345 2.424 1_545 S
Nd321 O346 2.500 . S
Nd321 O347 2.500 . S
Nd321 O348 2.487 1_455 S
Nd321 O349 2.682 1_445 S
Nd321 O350 2.410 . S
C322 Nd320 2.836 1_655 S
C322 C323 1.498 . S
C322 O340 1.258 . S
C322 O341 1.239 1_655 S
C323 C322 1.498 . S
C323 C324 1.366 . S
C323 C328 1.407 . S
C324 C323 1.366 . S
C324 C325 1.392 . S
C324 H352 0.930 . S
C325 C324 1.392 . S
C325 C326 1.398 . S
C325 H353 0.929 . S
C326 C325 1.398 . S
C326 C327 1.352 . S
C327 C326 1.352 . S
C327 C328 1.384 . S
C327 H354 0.930 . S
C328 C323 1.407 . S
C328 C327 1.384 . S
C328 H355 0.929 1_655 S
C329 O342 1.241 . S
C329 O343 1.273 1_565 S
C330 O344 1.251 . S
C330 O345 1.268 . S
C331 Nd321 2.836 . S
C331 C332 1.498 1_556 S
C331 O346 1.258 . S
C331 O347 1.239 . S
C332 C331 1.498 1_554 S
C332 C333 1.366 . S
C332 C337 1.407 . S
C333 C332 1.366 . S
C333 C334 1.392 . S
C333 H356 0.930 1_554 S
C334 C333 1.392 . S
C334 C335 1.398 . S
C334 H357 0.929 . S
C335 C334 1.398 . S
C335 C336 1.352 . S
C336 C335 1.352 . S
C336 C337 1.384 . S
C336 H358 0.930 . S
C337 C332 1.407 . S
C337 C336 1.384 . S
C337 H359 0.929 . S
C338 O348 1.241 . S
C338 O349 1.273 1_545 S
C339 O350 1.251 . S
C339 O351 1.268 . S
O340 Nd320 2.500 1_655 S
O340 C322 1.258 . S
O341 Nd320 2.492 . S
O341 C322 1.239 1_455 S
O342 Nd320 2.487 . S
O342 C329 1.241 . S
O343 Nd320 2.682 1_545 S
O343 Nd321 2.414 . S
O343 C329 1.273 1_545 S
O344 Nd320 2.410 . S
O344 C330 1.251 . S
O345 Nd321 2.424 1_565 S
O345 C330 1.268 . S
O346 Nd321 2.500 . S
O346 C331 1.258 . S
O347 Nd321 2.500 . S
O347 C331 1.239 . S
O348 Nd321 2.487 1_655 S
O348 C338 1.241 . S
O349 Nd320 2.414 1_655 S
O349 Nd321 2.682 1_665 S
O349 C338 1.273 1_565 S
O350 Nd321 2.410 . S
O350 C339 1.251 . S
O351 Nd320 2.424 1_545 S
O351 C339 1.268 . S
H352 C324 0.930 . S
H353 C325 0.929 . S
H354 C327 0.930 . S
H355 C328 0.929 1_455 S
H356 C333 0.930 1_556 S
H357 C334 0.929 . S
H358 C336 0.930 . S
H359 C337 0.929 . S
Nd360 C362 2.836 . S
Nd360 O380 2.500 . S
Nd360 O381 2.492 . S
Nd360 O382 2.487 1_565 S
Nd360 O383 2.682 1_565 S
Nd360 O384 2.410 1_565 S
Nd360 O389 2.414 . S
Nd360 O391 2.424 . S
Nd361 C371 2.836 . S
Nd361 O383 2.414 . S
Nd361 O385 2.424 . S
Nd361 O386 2.500 . S
Nd361 O387 2.492 1_556 S
Nd361 O388 2.487 1_545 S
Nd361 O389 2.682 1_545 S
Nd361 O390 2.410 1_545 S
C362 Nd360 2.836 . S
C362 C363 1.498 . S
C362 O380 1.258 . S
C362 O381 1.239 . S
C363 C362 1.498 . S
C363 C364 1.366 . S
C363 C368 1.407 . S
C364 C363 1.366 . S
C364 C365 1.392 . S
C364 H392 0.930 . S
C365 C364 1.392 . S
C365 C366 1.398 . S
C365 H393 0.929 . S
C366 C365 1.398 . S
C366 C367 1.352 . S
C367 C366 1.352 . S
C367 C368 1.384 . S
C367 H394 0.930 . S
C368 C363 1.407 . S
C368 C367 1.384 . S
C368 H395 0.929 1_565 S
C369 O382 1.241 . S
C369 O383 1.273 . S
C370 O384 1.251 . S
C370 O385 1.268 . S
C371 Nd361 2.836 . S
C371 C372 1.498 1_556 S
C371 O386 1.258 . S
C371 O387 1.239 1_556 S
C372 C371 1.498 1_554 S
C372 C373 1.366 . S
C372 C377 1.407 . S
C373 C372 1.366 . S
C373 C374 1.392 . S
C373 H396 0.930 1_554 S
C374 C373 1.392 . S
C374 C375 1.398 . S
C374 H397 0.929 . S
C375 C374 1.398 . S
C375 C376 1.352 . S
C376 C375 1.352 . S
C376 C377 1.384 . S
C376 H398 0.930 . S
C377 C372 1.407 . S
C377 C376 1.384 . S
C377 H399 0.929 1_545 S
C378 O388 1.241 . S
C378 O389 1.273 . S
C379 O390 1.251 . S
C379 O391 1.268 . S
O380 Nd360 2.500 . S
O380 C362 1.258 . S
O381 Nd360 2.492 . S
O381 C362 1.239 . S
O382 Nd360 2.487 1_545 S
O382 C369 1.241 . S
O383 Nd360 2.682 1_545 S
O383 Nd361 2.414 . S
O383 C369 1.273 . S
O384 Nd360 2.410 1_545 S
O384 C370 1.251 . S
O385 Nd361 2.424 . S
O385 C370 1.268 . S
O386 Nd361 2.500 . S
O386 C371 1.258 . S
O387 Nd361 2.492 1_554 S
O387 C371 1.239 1_554 S
O388 Nd361 2.487 1_565 S
O388 C378 1.241 . S
O389 Nd360 2.414 . S
O389 Nd361 2.682 1_565 S
O389 C378 1.273 . S
O390 Nd361 2.410 1_565 S
O390 C379 1.251 . S
O391 Nd360 2.424 . S
O391 C379 1.268 . S
H392 C364 0.930 . S
H393 C365 0.929 . S
H394 C367 0.930 . S
H395 C368 0.929 1_545 S
H396 C373 0.930 1_556 S
H397 C374 0.929 . S
H398 C376 0.930 . S
H399 C377 0.929 1_565 S
Nd400 C402 2.836 . S
Nd400 O420 2.500 . S
Nd400 O421 2.492 . S
Nd400 O422 2.487 . S
Nd400 O423 2.682 . S
Nd400 O424 2.410 . S
Nd400 O429 2.414 . S
Nd400 O431 2.424 . S
Nd401 C411 2.836 . S
Nd401 O423 2.414 . S
Nd401 O425 2.424 . S
Nd401 O426 2.500 . S
Nd401 O427 2.492 . S
Nd401 O428 2.487 . S
Nd401 O429 2.682 . S
Nd401 O430 2.410 . S
C402 Nd400 2.836 . S
C402 C403 1.498 . S
C402 O420 1.258 . S
C402 O421 1.239 . S
C403 C402 1.498 . S
C403 C404 1.366 . S
C403 C408 1.407 1_556 S
C404 C403 1.366 . S
C404 C405 1.392 . S
C404 H432 0.930 . S
C405 C404 1.392 . S
C405 C406 1.398 1_556 S
C405 H433 0.929 . S
C406 C405 1.398 1_554 S
C406 C407 1.352 . S
C407 C406 1.352 . S
C407 C408 1.384 . S
C407 H434 0.930 . S
C408 C403 1.407 1_554 S
C408 C407 1.384 . S
C408 H435 0.929 . S
C409 O422 1.241 . S
C409 O423 1.273 . S
C410 O424 1.251 . S
C410 O425 1.268 . S
C411 Nd401 2.836 . S
C411 C412 1.498 . S
C411 O426 1.258 . S
C411 O427 1.239 . S
C412 C411 1.498 . S
C412 C413 1.366 . S
C412 C417 1.407 . S
C413 C412 1.366 . S
C413 C414 1.392 . S
C413 H436 0.930 . S
C414 C413 1.392 . S
C414 C415 1.398 . S
C414 H437 0.929 . S
C415 C414 1.398 . S
C415 C416 1.352 . S
C416 C415 1.352 . S
C416 C417 1.384 . S
C416 H438 0.930 . S
C417 C412 1.407 . S
C417 C416 1.384 . S
C417 H439 0.929 . S
C418 O428 1.241 . S
C418 O429 1.273 . S
C419 O430 1.251 . S
C419 O431 1.268 . S
O420 Nd400 2.500 . S
O420 C402 1.258 . S
O421 Nd400 2.492 . S
O421 C402 1.239 . S
O422 Nd400 2.487 . S
O422 C409 1.241 . S
O423 Nd400 2.682 . S
O423 Nd401 2.414 . S
O423 C409 1.273 . S
O424 Nd400 2.410 . S
O424 C410 1.251 . S
O425 Nd401 2.424 . S
O425 C410 1.268 . S
O426 Nd401 2.500 . S
O426 C411 1.258 . S
O427 Nd401 2.492 . S
O427 C411 1.239 . S
O428 Nd401 2.487 . S
O428 C418 1.241 . S
O429 Nd400 2.414 . S
O429 Nd401 2.682 . S
O429 C418 1.273 . S
O430 Nd401 2.410 . S
O430 C419 1.251 . S
O431 Nd400 2.424 . S
O431 C419 1.268 . S
H432 C404 0.930 . S
H433 C405 0.929 . S
H434 C407 0.930 . S
H435 C408 0.929 . S
H436 C413 0.930 . S
H437 C414 0.929 . S
H438 C416 0.930 . S
H439 C417 0.929 . S
Nd440 C442 2.836 1_455 S
Nd440 O460 2.500 1_455 S
Nd440 O461 2.492 1_455 S
Nd440 O462 2.487 . S
Nd440 O463 2.682 . S
Nd440 O464 2.410 1_455 S
Nd440 O469 2.414 . S
Nd440 O471 2.424 . S
Nd441 C451 2.836 . S
Nd441 O463 2.414 . S
Nd441 O465 2.424 1_455 S
Nd441 O466 2.500 . S
Nd441 O467 2.492 1_556 S
Nd441 O468 2.487 . S
Nd441 O469 2.682 . S
Nd441 O470 2.410 . S
C442 Nd440 2.836 1_655 S
C442 C443 1.498 . S
C442 O460 1.258 . S
C442 O461 1.239 . S
C443 C442 1.498 . S
C443 C444 1.366 . S
C443 C448 1.407 . S
C444 C443 1.366 . S
C444 C445 1.392 . S
C444 H472 0.930 . S
C445 C444 1.392 . S
C445 C446 1.398 . S
C445 H473 0.929 . S
C446 C445 1.398 . S
C446 C447 1.352 . S
C447 C446 1.352 . S
C447 C448 1.384 . S
C447 H474 0.930 . S
C448 C443 1.407 . S
C448 C447 1.384 . S
C448 H475 0.929 . S
C449 O462 1.241 . S
C449 O463 1.273 . S
C450 O464 1.251 . S
C450 O465 1.268 . S
C451 Nd441 2.836 . S
C451 C452 1.498 1_556 S
C451 O466 1.258 . S
C451 O467 1.239 1_556 S
C452 C451 1.498 1_554 S
C452 C453 1.366 . S
C452 C457 1.407 . S
C453 C452 1.366 . S
C453 C454 1.392 . S
C453 H476 0.930 1_554 S
C454 C453 1.392 . S
C454 C455 1.398 . S
C454 H477 0.929 . S
C455 C454 1.398 . S
C455 C456 1.352 . S
C456 C455 1.352 . S
C456 C457 1.384 . S
C456 H478 0.930 . S
C457 C452 1.407 . S
C457 C456 1.384 . S
C457 H479 0.929 . S
C458 O468 1.241 . S
C458 O469 1.273 . S
C459 O470 1.251 . S
C459 O471 1.268 . S
O460 Nd440 2.500 1_655 S
O460 C442 1.258 . S
O461 Nd440 2.492 1_655 S
O461 C442 1.239 . S
O462 Nd440 2.487 . S
O462 C449 1.241 . S
O463 Nd440 2.682 . S
O463 Nd441 2.414 . S
O463 C449 1.273 . S
O464 Nd440 2.410 1_655 S
O464 C450 1.251 . S
O465 Nd441 2.424 1_655 S
O465 C450 1.268 . S
O466 Nd441 2.500 . S
O466 C451 1.258 . S
O467 Nd441 2.492 1_554 S
O467 C451 1.239 1_554 S
O468 Nd441 2.487 . S
O468 C458 1.241 . S
O469 Nd440 2.414 . S
O469 Nd441 2.682 . S
O469 C458 1.273 . S
O470 Nd441 2.410 . S
O470 C459 1.251 . S
O471 Nd440 2.424 . S
O471 C459 1.268 . S
H472 C444 0.930 . S
H473 C445 0.929 . S
H474 C447 0.930 . S
H475 C448 0.929 . S
H476 C453 0.930 1_556 S
H477 C454 0.929 . S
H478 C456 0.930 . S
H479 C457 0.929 . S
H480 C486 0.930 . S
H481 C489 0.930 . S
H482 C490 0.930 . S
H483 C491 0.930 . S
H484 C494 0.930 . S
H485 C495 0.930 . S
C486 H480 0.930 . S
C486 C487 1.355 1_545 S
C486 C488 1.415 . S
C487 C486 1.355 1_565 S
C487 C489 1.419 . S
C488 C486 1.415 . S
C488 C493 1.425 1_545 S
C488 C495 1.409 . S
C489 H481 0.930 . S
C489 C487 1.419 . S
C489 C490 1.362 . S
C490 H482 0.930 . S
C490 C489 1.362 . S
C490 C493 1.409 . S
C491 H483 0.930 . S
C491 C492 1.396 . S
C491 C493 1.415 . S
C492 C491 1.396 . S
C492 C494 1.379 1_565 S
C493 C488 1.425 1_565 S
C493 C490 1.409 . S
C493 C491 1.415 . S
C494 H484 0.930 . S
C494 C492 1.379 1_545 S
C494 C495 1.362 . S
C495 H485 0.930 . S
C495 C488 1.409 . S
C495 C494 1.362 . S
H496 C502 0.930 . S
H497 C505 0.930 . S
H498 C506 0.930 . S
H499 C507 0.930 . S
H500 C510 0.930 . S
H501 C511 0.930 . S
C502 H496 0.930 . S
C502 C503 1.355 . S
C502 C504 1.415 . S
C503 C502 1.355 . S
C503 C505 1.419 . S
C504 C502 1.415 . S
C504 C509 1.425 . S
C504 C511 1.409 . S
C505 H497 0.930 . S
C505 C503 1.419 . S
C505 C506 1.362 . S
C506 H498 0.930 . S
C506 C505 1.362 . S
C506 C509 1.409 . S
C507 H499 0.930 . S
C507 C508 1.355 . S
C507 C509 1.415 . S
C508 C507 1.355 . S
C508 C510 1.419 . S
C509 C504 1.425 . S
C509 C506 1.409 . S
C509 C507 1.415 . S
C510 H500 0.930 . S
C510 C508 1.419 . S
C510 C511 1.362 . S
C511 H501 0.930 . S
C511 C504 1.409 . S
C511 C510 1.362 . S
H512 C518 0.930 . S
H513 C521 0.930 . S
H514 C522 0.930 . S
H515 C523 0.930 . S
H516 C526 0.930 . S
H517 C527 0.930 . S
C518 H512 0.930 . S
C518 C519 1.355 . S
C518 C520 1.415 . S
C519 C518 1.355 . S
C519 C521 1.419 . S
C520 C518 1.415 . S
C520 C525 1.425 . S
C520 C527 1.409 . S
C521 H513 0.930 . S
C521 C519 1.419 . S
C521 C522 1.362 . S
C522 H514 0.930 . S
C522 C521 1.362 . S
C522 C525 1.409 . S
C523 H515 0.930 . S
C523 C524 1.355 . S
C523 C525 1.415 . S
C524 C523 1.355 . S
C524 C526 1.419 . S
C525 C520 1.425 . S
C525 C522 1.409 . S
C525 C523 1.415 . S
C526 H516 0.930 . S
C526 C524 1.419 . S
C526 C527 1.362 . S
C527 H517 0.930 . S
C527 C520 1.409 . S
C527 C526 1.362 . S
H528 C534 0.930 . S
H529 C537 0.930 . S
H530 C538 0.930 . S
H531 C539 0.930 . S
H532 C542 0.930 . S
H533 C543 0.930 . S
C534 H528 0.930 . S
C534 C535 1.355 . S
C534 C536 1.415 . S
C535 C534 1.355 . S
C535 C537 1.419 . S
C536 C534 1.415 . S
C536 C541 1.425 . S
C536 C543 1.409 . S
C537 H529 0.930 . S
C537 C535 1.419 . S
C537 C538 1.362 . S
C538 H530 0.930 . S
C538 C537 1.362 . S
C538 C541 1.409 . S
C539 H531 0.930 . S
C539 C540 1.355 . S
C539 C541 1.415 . S
C540 C539 1.355 . S
C540 C542 1.419 . S
C541 C536 1.425 . S
C541 C538 1.409 . S
C541 C539 1.415 . S
C542 H532 0.930 . S
C542 C540 1.419 . S
C542 C543 1.362 . S
C543 H533 0.930 . S
C543 C536 1.409 . S
C543 C542 1.362 . S
H544 C550 0.930 . S
H545 C553 0.930 1_554 S
H546 C554 0.930 . S
H547 C555 0.930 . S
H548 C558 0.930 . S
H549 C559 0.930 . S
C550 H544 0.930 . S
C550 C551 1.352 1_565 S
C550 C552 1.415 . S
C551 C550 1.352 1_545 S
C551 C553 1.421 . S
C552 C550 1.415 . S
C552 C557 1.425 1_565 S
C552 C559 1.409 . S
C553 H545 0.930 1_556 S
C553 C551 1.421 . S
C553 C554 1.362 . S
C554 H546 0.930 . S
C554 C553 1.362 . S
C554 C557 1.409 . S
C555 H547 0.930 . S
C555 C556 1.355 . S
C555 C557 1.415 . S
C556 C555 1.355 . S
C556 C558 1.419 1_545 S
C557 C552 1.425 1_545 S
C557 C554 1.409 . S
C557 C555 1.415 . S
C558 H548 0.930 . S
C558 C556 1.419 1_565 S
C558 C559 1.362 . S
C559 H549 0.930 . S
C559 C552 1.409 . S
C559 C558 1.362 . S
H560 C566 0.930 . S
H561 C569 0.930 . S
H562 C570 0.930 . S
H563 C571 0.940 . S
H564 C574 0.930 . S
H565 C575 0.930 . S
C566 H560 0.930 . S
C566 C567 1.355 . S
C566 C568 1.415 . S
C567 C566 1.355 . S
C567 C569 1.419 . S
C568 C566 1.415 . S
C568 C573 1.425 . S
C568 C575 1.409 . S
C569 H561 0.930 . S
C569 C567 1.419 . S
C569 C570 1.362 . S
C570 H562 0.930 . S
C570 C569 1.362 . S
C570 C573 1.409 . S
C571 H563 0.940 . S
C571 C572 1.355 . S
C571 C573 1.404 1_556 S
C572 C571 1.355 . S
C572 C574 1.419 1_556 S
C573 C568 1.425 . S
C573 C570 1.409 . S
C573 C571 1.404 1_554 S
C574 H564 0.930 . S
C574 C572 1.419 1_554 S
C574 C575 1.362 . S
C575 H565 0.930 . S
C575 C568 1.409 . S
C575 C574 1.362 . S
H576 C582 0.930 1_554 S
H577 C585 0.930 . S
H578 C586 0.930 . S
H579 C587 0.930 . S
H580 C590 0.930 . S
H581 C591 0.930 1_554 S
C582 H576 0.930 1_556 S
C582 C583 1.355 . S
C582 C584 1.415 . S
C583 C582 1.355 . S
C583 C585 1.419 . S
C584 C582 1.415 . S
C584 C589 1.425 . S
C584 C591 1.409 . S
C585 H577 0.930 . S
C585 C583 1.419 . S
C585 C586 1.362 . S
C586 H578 0.930 . S
C586 C585 1.362 . S
C586 C589 1.409 . S
C587 H579 0.930 . S
C587 C588 1.355 . S
C587 C589 1.415 . S
C588 C587 1.355 . S
C588 C590 1.419 . S
C589 C584 1.425 . S
C589 C586 1.409 . S
C589 C587 1.415 . S
C590 H580 0.930 . S
C590 C588 1.419 . S
C590 C591 1.362 . S
C591 H581 0.930 1_556 S
C591 C584 1.409 . S
C591 C590 1.362 . S
H592 C598 0.930 1_554 S
H593 C601 0.930 . S
H594 C602 0.930 . S
H595 C603 0.930 . S
H596 C606 0.930 . S
H597 C607 0.930 . S
C598 H592 0.930 1_556 S
C598 C599 1.355 . S
C598 C600 1.415 . S
C599 C598 1.355 . S
C599 C601 1.419 . S
C600 C598 1.415 . S
C600 C605 1.425 . S
C600 C607 1.409 . S
C601 H593 0.930 . S
C601 C599 1.419 . S
C601 C602 1.362 . S
C602 H594 0.930 . S
C602 C601 1.362 . S
C602 C605 1.409 . S
C603 H595 0.930 . S
C603 C604 1.355 . S
C603 C605 1.415 . S
C604 C603 1.355 . S
C604 C606 1.419 . S
C605 C600 1.425 . S
C605 C602 1.409 . S
C605 C603 1.415 . S
C606 H596 0.930 . S
C606 C604 1.419 . S
C606 C607 1.362 . S
C607 H597 0.930 . S
C607 C600 1.409 . S
C607 C606 1.362 . S
H608 C614 0.930 . S
H609 C617 0.930 . S
H610 C618 0.930 . S
H611 C619 0.930 . S
H612 C622 0.930 . S
H613 C623 0.930 . S
C614 H608 0.930 . S
C614 C615 1.355 . S
C614 C616 1.415 . S
C615 C614 1.355 . S
C615 C617 1.419 . S
C616 C614 1.415 . S
C616 C621 1.425 . S
C616 C623 1.409 . S
C617 H609 0.930 . S
C617 C615 1.419 . S
C617 C618 1.362 . S
C618 H610 0.930 . S
C618 C617 1.362 . S
C618 C621 1.409 . S
C619 H611 0.930 . S
C619 C620 1.355 . S
C619 C621 1.415 . S
C620 C619 1.355 . S
C620 C622 1.419 . S
C621 C616 1.425 . S
C621 C618 1.409 . S
C621 C619 1.415 . S
C622 H612 0.930 . S
C622 C620 1.419 . S
C622 C623 1.362 . S
C623 H613 0.930 . S
C623 C616 1.409 . S
C623 C622 1.362 . S
H624 C630 0.930 1_545 S
H625 C633 0.930 . S
H626 C634 0.930 . S
H627 C635 0.930 . S
H628 C638 0.930 . S
H629 C639 0.930 . S
C630 H624 0.930 1_565 S
C630 C631 1.355 . S
C630 C632 1.415 . S
C631 C630 1.355 . S
C631 C633 1.419 . S
C632 C630 1.415 . S
C632 C637 1.425 . S
C632 C639 1.409 . S
C633 H625 0.930 . S
C633 C631 1.419 . S
C633 C634 1.362 . S
C634 H626 0.930 . S
C634 C633 1.362 . S
C634 C637 1.409 . S
C635 H627 0.930 . S
C635 C636 1.355 . S
C635 C637 1.415 . S
C636 C635 1.355 . S
C636 C638 1.419 . S
C637 C632 1.425 . S
C637 C634 1.409 . S
C637 C635 1.415 . S
C638 H628 0.930 . S
C638 C636 1.419 . S
C638 C639 1.362 . S
C639 H629 0.930 . S
C639 C632 1.409 . S
C639 C638 1.362 . S
H640 C646 0.930 . S
H641 C649 0.930 . S
H642 C650 0.930 . S
H643 C651 0.930 . S
H644 C654 0.930 . S
H645 C655 0.930 . S
C646 H640 0.930 . S
C646 C647 1.355 . S
C646 C648 1.415 . S
C647 C646 1.355 . S
C647 C649 1.419 . S
C648 C646 1.415 . S
C648 C653 1.425 . S
C648 C655 1.409 . S
C649 H641 0.930 . S
C649 C647 1.419 . S
C649 C650 1.362 . S
C650 H642 0.930 . S
C650 C649 1.362 . S
C650 C653 1.409 . S
C651 H643 0.930 . S
C651 C652 1.355 . S
C651 C653 1.415 . S
C652 C651 1.355 . S
C652 C654 1.419 . S
C653 C648 1.425 . S
C653 C650 1.409 . S
C653 C651 1.415 . S
C654 H644 0.930 . S
C654 C652 1.419 . S
C654 C655 1.362 . S
C655 H645 0.930 . S
C655 C648 1.409 . S
C655 C654 1.362 . S
H656 C662 0.930 . S
H657 C665 0.930 . S
H658 C666 0.930 . S
H659 C667 0.930 . S
H660 C670 0.930 . S
H661 C671 0.930 . S
C662 H656 0.930 . S
C662 C663 1.355 . S
C662 C664 1.415 . S
C663 C662 1.355 . S
C663 C665 1.419 . S
C664 C662 1.415 . S
C664 C669 1.425 . S
C664 C671 1.409 . S
C665 H657 0.930 . S
C665 C663 1.419 . S
C665 C666 1.362 . S
C666 H658 0.930 . S
C666 C665 1.362 . S
C666 C669 1.409 . S
C667 H659 0.930 . S
C667 C668 1.355 . S
C667 C669 1.415 . S
C668 C667 1.355 . S
C668 C670 1.419 . S
C669 C664 1.425 . S
C669 C666 1.409 . S
C669 C667 1.415 . S
C670 H660 0.930 . S
C670 C668 1.419 . S
C670 C671 1.362 . S
C671 H661 0.930 . S
C671 C664 1.409 . S
C671 C670 1.362 . S
H672 C678 0.930 . S
H673 C681 0.930 . S
H674 C682 0.930 . S
H675 C683 0.930 . S
H676 C686 0.930 . S
H677 C687 0.930 . S
C678 H672 0.930 . S
C678 C679 1.355 . S
C678 C680 1.415 . S
C679 C678 1.355 . S
C679 C681 1.419 . S
C680 C678 1.415 . S
C680 C685 1.425 . S
C680 C687 1.409 . S
C681 H673 0.930 . S
C681 C679 1.419 . S
C681 C682 1.362 . S
C682 H674 0.930 . S
C682 C681 1.362 . S
C682 C685 1.409 . S
C683 H675 0.930 . S
C683 C684 1.355 . S
C683 C685 1.415 . S
C684 C683 1.355 . S
C684 C686 1.419 . S
C685 C680 1.425 . S
C685 C682 1.409 . S
C685 C683 1.415 . S
C686 H676 0.930 . S
C686 C684 1.419 . S
C686 C687 1.362 . S
C687 H677 0.930 . S
C687 C680 1.409 . S
C687 C686 1.362 . S
H688 C694 0.930 . S
H689 C697 0.935 . S
H690 C698 0.930 . S
H691 C699 0.930 . S
H692 C702 0.930 . S
H693 C703 0.930 . S
C694 H688 0.930 . S
C694 C695 1.371 . S
C694 C696 1.415 . S
C695 C694 1.371 . S
C695 C697 1.420 1_545 S
C696 C694 1.415 . S
C696 C701 1.425 . S
C696 C703 1.409 . S
C697 H689 0.935 . S
C697 C695 1.420 1_565 S
C697 C698 1.357 1_565 S
C698 H690 0.930 . S
C698 C697 1.357 1_545 S
C698 C701 1.409 . S
C699 H691 0.930 . S
C699 C700 1.355 . S
C699 C701 1.415 . S
C700 C699 1.355 . S
C700 C702 1.419 . S
C701 C696 1.425 . S
C701 C698 1.409 . S
C701 C699 1.415 . S
C702 H692 0.930 . S
C702 C700 1.419 . S
C702 C703 1.362 . S
C703 H693 0.930 . S
C703 C696 1.409 . S
C703 C702 1.362 . S
H704 C710 0.930 . S
H705 C713 0.930 . S
H706 C714 0.930 . S
H707 C715 0.930 . S
H708 C718 0.930 . S
H709 C719 0.930 . S
C710 H704 0.930 . S
C710 C711 1.355 . S
C710 C712 1.415 . S
C711 C710 1.355 . S
C711 C713 1.419 . S
C712 C710 1.415 . S
C712 C717 1.425 . S
C712 C719 1.409 . S
C713 H705 0.930 . S
C713 C711 1.419 . S
C713 C714 1.362 . S
C714 H706 0.930 . S
C714 C713 1.362 . S
C714 C717 1.409 . S
C715 H707 0.930 . S
C715 C716 1.355 . S
C715 C717 1.415 . S
C716 C715 1.355 . S
C716 C718 1.419 . S
C717 C712 1.425 . S
C717 C714 1.409 . S
C717 C715 1.415 . S
C718 H708 0.930 . S
C718 C716 1.419 . S
C718 C719 1.362 . S
C719 H709 0.930 . S
C719 C712 1.409 . S
C719 C718 1.362 . S
H720 C726 0.930 . S
H721 C729 0.930 . S
H722 C730 0.930 . S
H723 C731 0.930 . S
H724 C734 0.930 . S
H725 C735 0.930 . S
C726 H720 0.930 . S
C726 C727 1.355 . S
C726 C728 1.415 . S
C727 C726 1.355 . S
C727 C729 1.419 . S
C728 C726 1.415 . S
C728 C733 1.425 . S
C728 C735 1.409 . S
C729 H721 0.930 . S
C729 C727 1.419 . S
C729 C730 1.362 . S
C730 H722 0.930 . S
C730 C729 1.362 . S
C730 C733 1.409 . S
C731 H723 0.930 . S
C731 C732 1.355 . S
C731 C733 1.415 . S
C732 C731 1.355 . S
C732 C734 1.419 . S
C733 C728 1.425 . S
C733 C730 1.409 . S
C733 C731 1.415 . S
C734 H724 0.930 . S
C734 C732 1.419 . S
C734 C735 1.362 . S
C735 H725 0.930 . S
C735 C728 1.409 . S
C735 C734 1.362 . S
H736 C742 0.930 . S
H737 C745 0.930 . S
H738 C746 0.930 . S
H739 C747 0.930 . S
H740 C750 0.930 . S
H741 C751 0.930 . S
C742 H736 0.930 . S
C742 C743 1.355 . S
C742 C744 1.415 . S
C743 C742 1.355 . S
C743 C745 1.419 . S
C744 C742 1.415 . S
C744 C749 1.425 . S
C744 C751 1.409 . S
C745 H737 0.930 . S
C745 C743 1.419 . S
C745 C746 1.362 . S
C746 H738 0.930 . S
C746 C745 1.362 . S
C746 C749 1.409 . S
C747 H739 0.930 . S
C747 C748 1.355 . S
C747 C749 1.415 . S
C748 C747 1.355 . S
C748 C750 1.419 . S
C749 C744 1.425 . S
C749 C746 1.409 . S
C749 C747 1.415 . S
C750 H740 0.930 . S
C750 C748 1.419 . S
C750 C751 1.362 . S
C751 H741 0.930 . S
C751 C744 1.409 . S
C751 C750 1.362 . S
H752 C758 0.930 . S
H753 C761 0.930 . S
H754 C762 0.930 . S
H755 C763 0.930 1_565 S
H756 C766 0.930 . S
H757 C767 0.930 . S
C758 H752 0.930 . S
C758 C759 1.355 . S
C758 C760 1.415 . S
C759 C758 1.355 . S
C759 C761 1.419 1_545 S
C760 C758 1.415 . S
C760 C765 1.425 . S
C760 C767 1.409 . S
C761 H753 0.930 . S
C761 C759 1.419 1_565 S
C761 C762 1.362 . S
C762 H754 0.930 . S
C762 C761 1.362 . S
C762 C765 1.409 1_565 S
C763 H755 0.930 1_545 S
C763 C764 1.355 . S
C763 C765 1.415 . S
C764 C763 1.355 . S
C764 C766 1.419 . S
C765 C760 1.425 . S
C765 C762 1.409 1_545 S
C765 C763 1.415 . S
C766 H756 0.930 . S
C766 C764 1.419 . S
C766 C767 1.362 . S
C767 H757 0.930 . S
C767 C760 1.409 . S
C767 C766 1.362 . S
H768 C774 0.930 . S
H769 C777 0.930 . S
H770 C778 0.930 . S
H771 C779 0.930 . S
H772 C782 0.930 . S
H773 C783 0.930 . S
C774 H768 0.930 . S
C774 C775 1.355 . S
C774 C776 1.415 . S
C775 C774 1.355 . S
C775 C777 1.419 . S
C776 C774 1.415 . S
C776 C781 1.425 . S
C776 C783 1.409 . S
C777 H769 0.930 . S
C777 C775 1.419 . S
C777 C778 1.362 . S
C778 H770 0.930 . S
C778 C777 1.362 . S
C778 C781 1.409 . S
C779 H771 0.930 . S
C779 C780 1.355 . S
C779 C781 1.415 . S
C780 C779 1.355 . S
C780 C782 1.419 . S
C781 C776 1.425 . S
C781 C778 1.409 . S
C781 C779 1.415 . S
C782 H772 0.930 . S
C782 C780 1.419 . S
C782 C783 1.362 . S
C783 H773 0.930 . S
C783 C776 1.409 . S
C783 C782 1.362 . S
H784 C790 0.930 . S
H785 C793 0.930 . S
H786 C794 0.930 . S
H787 C795 0.930 . S
H788 C798 0.930 . S
H789 C799 0.930 . S
C790 H784 0.930 . S
C790 C791 1.355 . S
C790 C792 1.415 . S
C791 C790 1.355 . S
C791 C793 1.419 . S
C792 C790 1.415 . S
C792 C797 1.425 . S
C792 C799 1.409 . S
C793 H785 0.930 . S
C793 C791 1.419 . S
C793 C794 1.362 . S
C794 H786 0.930 . S
C794 C793 1.362 . S
C794 C797 1.409 . S
C795 H787 0.930 . S
C795 C796 1.355 . S
C795 C797 1.415 . S
C796 C795 1.355 . S
C796 C798 1.419 . S
C797 C792 1.425 . S
C797 C794 1.409 . S
C797 C795 1.415 . S
C798 H788 0.930 . S
C798 C796 1.419 . S
C798 C799 1.362 . S
C799 H789 0.930 . S
C799 C792 1.409 . S
C799 C798 1.362 . S
H800 C806 0.930 . S
H801 C809 0.930 . S
H802 C810 0.930 . S
H803 C811 0.930 . S
H804 C814 0.930 . S
H805 C815 0.930 . S
C806 H800 0.930 . S
C806 C807 1.355 . S
C806 C808 1.415 . S
C807 C806 1.355 . S
C807 C809 1.419 . S
C808 C806 1.415 . S
C808 C813 1.425 . S
C808 C815 1.409 . S
C809 H801 0.930 . S
C809 C807 1.419 . S
C809 C810 1.362 . S
C810 H802 0.930 . S
C810 C809 1.362 . S
C810 C813 1.409 . S
C811 H803 0.930 . S
C811 C812 1.355 . S
C811 C813 1.415 . S
C812 C811 1.355 . S
C812 C814 1.419 . S
C813 C808 1.425 . S
C813 C810 1.409 . S
C813 C811 1.415 . S
C814 H804 0.930 . S
C814 C812 1.419 . S
C814 C815 1.362 . S
C815 H805 0.930 . S
C815 C808 1.409 . S
C815 C814 1.362 . S
H816 C822 0.930 1_545 S
H817 C825 0.930 . S
H818 C826 0.930 . S
H819 C827 0.930 . S
H820 C830 0.930 . S
H821 C831 0.930 1_545 S
C822 H816 0.930 1_565 S
C822 C823 1.355 . S
C822 C824 1.415 . S
C823 C822 1.355 . S
C823 C825 1.419 . S
C824 C822 1.415 . S
C824 C829 1.425 . S
C824 C831 1.409 . S
C825 H817 0.930 . S
C825 C823 1.419 . S
C825 C826 1.362 . S
C826 H818 0.930 . S
C826 C825 1.362 . S
C826 C829 1.409 . S
C827 H819 0.930 . S
C827 C828 1.355 . S
C827 C829 1.415 . S
C828 C827 1.355 . S
C828 C830 1.419 . S
C829 C824 1.425 . S
C829 C826 1.409 . S
C829 C827 1.415 . S
C830 H820 0.930 . S
C830 C828 1.419 . S
C830 C831 1.362 . S
C831 H821 0.930 1_565 S
C831 C824 1.409 . S
C831 C830 1.362 . S
H832 C838 0.930 . S
H833 C841 0.930 . S
H834 C842 0.930 . S
H835 C843 0.930 . S
H836 C846 0.930 . S
H837 C847 0.930 . S
C838 H832 0.930 . S
C838 C839 1.355 . S
C838 C840 1.415 . S
C839 C838 1.355 . S
C839 C841 1.419 . S
C840 C838 1.415 . S
C840 C845 1.425 . S
C840 C847 1.409 . S
C841 H833 0.930 . S
C841 C839 1.419 . S
C841 C842 1.362 . S
C842 H834 0.930 . S
C842 C841 1.362 . S
C842 C845 1.409 . S
C843 H835 0.930 . S
C843 C844 1.355 . S
C843 C845 1.415 . S
C844 C843 1.355 . S
C844 C846 1.419 . S
C845 C840 1.425 . S
C845 C842 1.409 . S
C845 C843 1.415 . S
C846 H836 0.930 . S
C846 C844 1.419 . S
C846 C847 1.362 . S
C847 H837 0.930 . S
C847 C840 1.409 . S
C847 C846 1.362 . S
H848 C854 0.930 . S
H849 C857 0.930 . S
H850 C858 0.930 . S
H851 C859 0.930 . S
H852 C862 0.930 . S
H853 C863 0.930 . S
C854 H848 0.930 . S
C854 C855 1.355 . S
C854 C856 1.415 . S
C855 C854 1.355 . S
C855 C857 1.419 . S
C856 C854 1.415 . S
C856 C861 1.425 . S
C856 C863 1.409 . S
C857 H849 0.930 . S
C857 C855 1.419 . S
C857 C858 1.362 . S
C858 H850 0.930 . S
C858 C857 1.362 . S
C858 C861 1.409 . S
C859 H851 0.930 . S
C859 C860 1.355 . S
C859 C861 1.415 . S
C860 C859 1.355 . S
C860 C862 1.419 . S
C861 C856 1.425 . S
C861 C858 1.409 . S
C861 C859 1.415 . S
C862 H852 0.930 . S
C862 C860 1.419 . S
C862 C863 1.362 . S
C863 H853 0.930 . S
C863 C856 1.409 . S
C863 C862 1.362 . S
C487 C255 0.988 1_565 S
C492 C329 0.942 . S
C508 C369 2.271 . S
C503 C295 2.319 . S
C524 C418 1.799 . S
C519 C175 1.723 . S
C540 C449 2.334 . S
C535 C215 2.355 . S
C556 C338 1.014 . S
C551 C95 0.982 . S
C567 C135 2.239 . S
C572 C378 2.203 . S
C583 C15 1.784 . S
C588 C409 1.775 . S
C599 C55 2.290 1_556 S
C604 C458 2.334 1_655 S
C620 C339 1.982 . S
C615 C221 1.705 . S
C636 C379 1.346 . S
C631 C261 1.084 1_565 S
C652 C415 0.853 . S
C647 C301 0.863 . S
C663 C181 1.539 . S
C668 C459 1.930 . S
C679 C61 1.509 . S
C684 C330 1.985 1_655 S
C700 C370 1.408 . S
C695 C101 1.219 . S
C716 C406 0.754 . S
C711 C141 0.758 . S
C727 C21 1.681 . S
C732 C450 1.926 . S
C743 C202 2.295 . S
C748 C335 2.361 . S
C759 C242 1.771 . S
C764 C375 1.818 . S
C780 C419 3.308 . S
C775 C282 3.044 1_556 S
C796 C455 1.928 . S
C791 C162 1.757 . S
C807 C42 2.154 . S
C812 C326 2.359 . S
C828 C366 1.789 . S
C823 C82 1.771 1_565 S
C844 C410 3.312 . S
C839 C122 2.957 . S
C855 C2 1.920 . S
C860 C446 1.967 . S
