# Generated by pormake.
# Topology ocu, (6,8)-cn, num edge types: 1
# Building blocks:
#     Node 0, Type 0, BuildingBlock: FUNLAD_clean_sbu_0, # of connection points: 6
#     Node 1, Type 0, BuildingBlock: FUNLAD_clean_sbu_0, # of connection points: 6
#     Node 2, Type 0, BuildingBlock: FUNLAD_clean_sbu_0, # of connection points: 6
#     Node 3, Type 0, BuildingBlock: FUNLAD_clean_sbu_0, # of connection points: 6
#     Node 4, Type 0, BuildingBlock: FUNLAD_clean_sbu_0, # of connection points: 6
#     Node 5, Type 0, BuildingBlock: FUNLAD_clean_sbu_0, # of connection points: 6
#     Node 6, Type 0, BuildingBlock: FUNLAD_clean_sbu_0, # of connection points: 6
#     Node 7, Type 0, BuildingBlock: FUNLAD_clean_sbu_0, # of connection points: 6
#     Node 8, Type 1, BuildingBlock: VETTIZ_charged_sbu_0, # of connection points: 8
#     Node 9, Type 1, BuildingBlock: VETTIZ_charged_sbu_0, # of connection points: 8
#     Node 10, Type 1, BuildingBlock: VETTIZ_charged_sbu_0, # of connection points: 8
#     Node 11, Type 1, BuildingBlock: VETTIZ_charged_sbu_0, # of connection points: 8
#     Node 12, Type 1, BuildingBlock: VETTIZ_charged_sbu_0, # of connection points: 8
#     Node 13, Type 1, BuildingBlock: VETTIZ_charged_sbu_0, # of connection points: 8
#     Edge 14, Type (0, 1), BuildingBlock: MIFKUJ_clean_linker_0, # of connection points: 2
#     Edge 15, Type (0, 1), BuildingBlock: MIFKUJ_clean_linker_0, # of connection points: 2
#     Edge 16, Type (0, 1), BuildingBlock: MIFKUJ_clean_linker_0, # of connection points: 2
#     Edge 17, Type (0, 1), BuildingBlock: MIFKUJ_clean_linker_0, # of connection points: 2
#     Edge 18, Type (0, 1), BuildingBlock: MIFKUJ_clean_linker_0, # of connection points: 2
#     Edge 19, Type (0, 1), BuildingBlock: MIFKUJ_clean_linker_0, # of connection points: 2
#     Edge 20, Type (0, 1), BuildingBlock: MIFKUJ_clean_linker_0, # of connection points: 2
#     Edge 21, Type (0, 1), BuildingBlock: MIFKUJ_clean_linker_0, # of connection points: 2
#     Edge 22, Type (0, 1), BuildingBlock: MIFKUJ_clean_linker_0, # of connection points: 2
#     Edge 23, Type (0, 1), BuildingBlock: MIFKUJ_clean_linker_0, # of connection points: 2
#     Edge 24, Type (0, 1), BuildingBlock: MIFKUJ_clean_linker_0, # of connection points: 2
#     Edge 25, Type (0, 1), BuildingBlock: MIFKUJ_clean_linker_0, # of connection points: 2
#     Edge 26, Type (0, 1), BuildingBlock: MIFKUJ_clean_linker_0, # of connection points: 2
#     Edge 27, Type (0, 1), BuildingBlock: MIFKUJ_clean_linker_0, # of connection points: 2
#     Edge 28, Type (0, 1), BuildingBlock: MIFKUJ_clean_linker_0, # of connection points: 2
#     Edge 29, Type (0, 1), BuildingBlock: MIFKUJ_clean_linker_0, # of connection points: 2
#     Edge 30, Type (0, 1), BuildingBlock: MIFKUJ_clean_linker_0, # of connection points: 2
#     Edge 31, Type (0, 1), BuildingBlock: MIFKUJ_clean_linker_0, # of connection points: 2
#     Edge 32, Type (0, 1), BuildingBlock: MIFKUJ_clean_linker_0, # of connection points: 2
#     Edge 33, Type (0, 1), BuildingBlock: MIFKUJ_clean_linker_0, # of connection points: 2
#     Edge 34, Type (0, 1), BuildingBlock: MIFKUJ_clean_linker_0, # of connection points: 2
#     Edge 35, Type (0, 1), BuildingBlock: MIFKUJ_clean_linker_0, # of connection points: 2
#     Edge 36, Type (0, 1), BuildingBlock: MIFKUJ_clean_linker_0, # of connection points: 2
#     Edge 37, Type (0, 1), BuildingBlock: MIFKUJ_clean_linker_0, # of connection points: 2
#     Edge 38, Type (0, 1), BuildingBlock: MIFKUJ_clean_linker_0, # of connection points: 2
#     Edge 39, Type (0, 1), BuildingBlock: MIFKUJ_clean_linker_0, # of connection points: 2
#     Edge 40, Type (0, 1), BuildingBlock: MIFKUJ_clean_linker_0, # of connection points: 2
#     Edge 41, Type (0, 1), BuildingBlock: MIFKUJ_clean_linker_0, # of connection points: 2
#     Edge 42, Type (0, 1), BuildingBlock: MIFKUJ_clean_linker_0, # of connection points: 2
#     Edge 43, Type (0, 1), BuildingBlock: MIFKUJ_clean_linker_0, # of connection points: 2
#     Edge 44, Type (0, 1), BuildingBlock: MIFKUJ_clean_linker_0, # of connection points: 2
#     Edge 45, Type (0, 1), BuildingBlock: MIFKUJ_clean_linker_0, # of connection points: 2
#     Edge 46, Type (0, 1), BuildingBlock: MIFKUJ_clean_linker_0, # of connection points: 2
#     Edge 47, Type (0, 1), BuildingBlock: MIFKUJ_clean_linker_0, # of connection points: 2
#     Edge 48, Type (0, 1), BuildingBlock: MIFKUJ_clean_linker_0, # of connection points: 2
#     Edge 49, Type (0, 1), BuildingBlock: MIFKUJ_clean_linker_0, # of connection points: 2
#     Edge 50, Type (0, 1), BuildingBlock: MIFKUJ_clean_linker_0, # of connection points: 2
#     Edge 51, Type (0, 1), BuildingBlock: MIFKUJ_clean_linker_0, # of connection points: 2
#     Edge 52, Type (0, 1), BuildingBlock: MIFKUJ_clean_linker_0, # of connection points: 2
#     Edge 53, Type (0, 1), BuildingBlock: MIFKUJ_clean_linker_0, # of connection points: 2
#     Edge 54, Type (0, 1), BuildingBlock: MIFKUJ_clean_linker_0, # of connection points: 2
#     Edge 55, Type (0, 1), BuildingBlock: MIFKUJ_clean_linker_0, # of connection points: 2
#     Edge 56, Type (0, 1), BuildingBlock: MIFKUJ_clean_linker_0, # of connection points: 2
#     Edge 57, Type (0, 1), BuildingBlock: MIFKUJ_clean_linker_0, # of connection points: 2
#     Edge 58, Type (0, 1), BuildingBlock: MIFKUJ_clean_linker_0, # of connection points: 2
#     Edge 59, Type (0, 1), BuildingBlock: MIFKUJ_clean_linker_0, # of connection points: 2
#     Edge 60, Type (0, 1), BuildingBlock: MIFKUJ_clean_linker_0, # of connection points: 2
#     Edge 61, Type (0, 1), BuildingBlock: MIFKUJ_clean_linker_0, # of connection points: 2
# Relax obj value: 0.133
# Max RMSD: 0.255
# Mean RMSD: 0.150
data_MOF--net-ocu--node1-FUNLAD_clean_sbu_0--node2-VETTIZ_charged_sbu_0--edge1-MIFKUJ_clean_linker_0
_symmetry_space_group_name_H-M    P1
_symmetry_Int_Tables_number       1
_symmetry_cell_setting            triclinic
loop_
_symmetry_equiv_pos_as_xyz
'x, y, z'
_cell_length_a     49.453146
_cell_length_b     49.098051
_cell_length_c     49.245752
_cell_angle_alpha  85.6629
_cell_angle_beta   85.910218
_cell_angle_gamma 83.288661
loop_
_atom_site_label
_atom_site_type_symbol
_atom_site_fract_x
_atom_site_fract_y
_atom_site_fract_z
_atom_type_partial_charge
C0 C 0.21663 0.27314 0.29732 0.0
N1 N 0.20731 0.20619 0.25169 0.0
C2 C 0.20175 0.19185 0.27575 0.0
C3 C 0.18532 0.17069 0.27681 0.0
C4 C 0.17391 0.1646 0.25307 0.0
C5 C 0.17915 0.1801 0.2286 0.0
C6 C 0.19641 0.2008 0.22828 0.0
Zn7 Zn 0.23389 0.23471 0.25218 0.0
C8 C 0.22013 0.28501 0.21742 0.0
N9 N 0.291 0.29195 0.25695 0.0
C10 C 0.30506 0.29586 0.27891 0.0
C11 C 0.29792 0.3031 0.23167 0.0
C12 C 0.32035 0.31761 0.22736 0.0
C13 C 0.33655 0.32008 0.24904 0.0
C14 C 0.32823 0.31005 0.27537 0.0
Zn15 Zn 0.2629 0.26464 0.25763 0.0
O16 O 0.21056 0.25256 0.2857 0.0
C17 C 0.27737 0.21506 0.29203 0.0
O18 O 0.23812 0.28402 0.28899 0.0
H19 H 0.2872 0.29929 0.21425 0.0
H20 H 0.21022 0.19671 0.29419 0.0
H21 H 0.29931 0.28668 0.29883 0.0
O22 O 0.25793 0.20751 0.27991 0.0
O23 O 0.28381 0.23924 0.28701 0.0
H24 H 0.2012 0.21244 0.20937 0.0
O25 O 0.28796 0.244 0.22649 0.0
O26 O 0.25731 0.21698 0.21936 0.0
O27 O 0.24126 0.29033 0.22822 0.0
O28 O 0.21078 0.26222 0.22417 0.0
C29 C 0.28073 0.2248 0.21368 0.0
H30 H 0.1812 0.15941 0.29615 0.0
H31 H 0.17031 0.17603 0.21002 0.0
H32 H 0.3259 0.32551 0.20682 0.0
H33 H 0.34029 0.31175 0.29255 0.0
C34 C 0.71224 0.29082 0.24549 0.0
N35 N 0.73748 0.21265 0.21902 0.0
C36 C 0.71007 0.21114 0.22029 0.0
C37 C 0.69886 0.19445 0.20356 0.0
C38 C 0.71577 0.17939 0.18472 0.0
C39 C 0.74391 0.18178 0.18295 0.0
C40 C 0.75449 0.19848 0.20066 0.0
Zn41 Zn 0.74962 0.23731 0.24709 0.0
C42 C 0.78907 0.2762 0.22523 0.0
N43 N 0.7663 0.29018 0.3075 0.0
C44 C 0.747 0.3068 0.32142 0.0
C45 C 0.79332 0.29027 0.31111 0.0
C46 C 0.80185 0.30727 0.32941 0.0
C47 C 0.78247 0.32484 0.34371 0.0
C48 C 0.75474 0.32469 0.33955 0.0
Zn49 Zn 0.75606 0.26519 0.27932 0.0
O50 O 0.71884 0.26826 0.23442 0.0
C51 C 0.71596 0.22735 0.30093 0.0
O52 O 0.72443 0.29563 0.26619 0.0
H53 H 0.80843 0.27743 0.29945 0.0
H54 H 0.69663 0.22288 0.23446 0.0
H55 H 0.72564 0.30647 0.3182 0.0
O56 O 0.72138 0.21998 0.27679 0.0
O57 O 0.72792 0.24668 0.30884 0.0
H58 H 0.77618 0.20003 0.19981 0.0
O59 O 0.78743 0.23461 0.29166 0.0
O60 O 0.78124 0.20624 0.26081 0.0
O61 O 0.78395 0.28325 0.24959 0.0
O62 O 0.77783 0.25616 0.21757 0.0
C63 C 0.79389 0.21178 0.28103 0.0
H64 H 0.67701 0.19352 0.20515 0.0
H65 H 0.75752 0.17052 0.16845 0.0
H66 H 0.82347 0.3073 0.3318 0.0
H67 H 0.73932 0.33819 0.3502 0.0
C68 C 0.77344 0.712 0.29166 0.0
N69 N 0.79595 0.79082 0.26842 0.0
C70 C 0.79817 0.79018 0.29586 0.0
C71 C 0.81362 0.808 0.30688 0.0
C72 C 0.82653 0.82723 0.28965 0.0
C73 C 0.82404 0.82765 0.26139 0.0
C74 C 0.80872 0.80892 0.25109 0.0
Zn75 Zn 0.76979 0.76568 0.25559 0.0
C76 C 0.79308 0.7275 0.21515 0.0
N77 N 0.71223 0.71346 0.23605 0.0
C78 C 0.69394 0.70013 0.2525 0.0
C79 C 0.71306 0.71265 0.20845 0.0
C80 C 0.69545 0.69797 0.19633 0.0
C81 C 0.67645 0.68391 0.21259 0.0
C82 C 0.67557 0.6852 0.24107 0.0
Zn83 Zn 0.73906 0.7374 0.2494 0.0
O84 O 0.78317 0.73467 0.28557 0.0
C85 C 0.71596 0.77452 0.29045 0.0
O86 O 0.75342 0.70628 0.27913 0.0
H87 H 0.72723 0.7238 0.19556 0.0
H88 H 0.78725 0.77636 0.30947 0.0
H89 H 0.69346 0.70126 0.27439 0.0
O90 O 0.73913 0.78295 0.2843 0.0
O91 O 0.70945 0.75434 0.27856 0.0
H92 H 0.80651 0.80929 0.22937 0.0
O93 O 0.72499 0.76896 0.21974 0.0
O94 O 0.75584 0.79625 0.22532 0.0
O95 O 0.76936 0.7204 0.22096 0.0
O96 O 0.80027 0.74761 0.22674 0.0
C97 C 0.73524 0.7913 0.2133 0.0
H98 H 0.81465 0.80743 0.32883 0.0
H99 H 0.83371 0.84232 0.24754 0.0
H100 H 0.69637 0.69808 0.17428 0.0
H101 H 0.66106 0.67466 0.25424 0.0
C102 C 0.20822 0.80085 0.26038 0.0
N103 N 0.28403 0.77355 0.28991 0.0
C104 C 0.28683 0.8009 0.28784 0.0
C105 C 0.30253 0.81192 0.3056 0.0
C106 C 0.31547 0.79479 0.32597 0.0
C107 C 0.3118 0.76674 0.3283 0.0
C108 C 0.29597 0.75642 0.30978 0.0
Zn109 Zn 0.26032 0.76082 0.26202 0.0
C110 C 0.22027 0.72413 0.28564 0.0
N111 N 0.20766 0.74232 0.20286 0.0
C112 C 0.19183 0.75969 0.18606 0.0
C113 C 0.20729 0.71462 0.2033 0.0
C114 C 0.19076 0.70332 0.18651 0.0
C115 C 0.17414 0.72057 0.169 0.0
C116 C 0.1747 0.74916 0.16889 0.0
Zn117 Zn 0.23185 0.75519 0.23038 0.0
O118 O 0.23077 0.79398 0.27119 0.0
C119 C 0.2713 0.7927 0.20705 0.0
O120 O 0.20156 0.78726 0.24145 0.0
H121 H 0.21958 0.7011 0.2171 0.0
H122 H 0.27683 0.81435 0.2723 0.0
H123 H 0.19228 0.78165 0.18616 0.0
O124 O 0.27941 0.78629 0.23088 0.0
O125 O 0.25035 0.78272 0.20008 0.0
H126 H 0.2933 0.7348 0.31119 0.0
O127 O 0.26301 0.72311 0.21979 0.0
O128 O 0.28986 0.72768 0.25235 0.0
O129 O 0.21335 0.72873 0.2612 0.0
O130 O 0.24061 0.73496 0.2928 0.0
C131 C 0.28491 0.71548 0.23169 0.0
H132 H 0.30442 0.83376 0.3035 0.0
H133 H 0.32151 0.75294 0.34383 0.0
H134 H 0.19058 0.68122 0.18769 0.0
H135 H 0.16222 0.76316 0.1556 0.0
C136 C 0.21068 0.78593 0.73232 0.0
N137 N 0.23812 0.70668 0.70858 0.0
C138 C 0.21087 0.70552 0.70761 0.0
C139 C 0.20127 0.68675 0.69195 0.0
C140 C 0.2198 0.66872 0.67714 0.0
C141 C 0.24785 0.67082 0.67776 0.0
C142 C 0.25664 0.69005 0.69382 0.0
Zn143 Zn 0.24929 0.73275 0.73515 0.0
C144 C 0.28732 0.77098 0.71063 0.0
N145 N 0.26807 0.78842 0.79223 0.0
C146 C 0.25142 0.80343 0.81021 0.0
C147 C 0.29542 0.79018 0.79002 0.0
C148 C 0.30702 0.80755 0.80574 0.0
C149 C 0.29052 0.82363 0.82417 0.0
C150 C 0.26233 0.8212 0.8266 0.0
Zn151 Zn 0.25543 0.76214 0.76591 0.0
O152 O 0.21863 0.76346 0.72145 0.0
C153 C 0.21746 0.72326 0.79017 0.0
O154 O 0.22188 0.79142 0.7535 0.0
H155 H 0.30852 0.7781 0.77584 0.0
H156 H 0.19645 0.71883 0.7195 0.0
H157 H 0.22974 0.8018 0.81172 0.0
O158 O 0.22112 0.71648 0.76565 0.0
O159 O 0.22975 0.74269 0.7975 0.0
H160 H 0.27823 0.69127 0.69497 0.0
O161 O 0.28842 0.73262 0.77738 0.0
O162 O 0.28011 0.7025 0.74927 0.0
O163 O 0.28075 0.78035 0.73387 0.0
O164 O 0.27779 0.74925 0.70491 0.0
C165 C 0.29398 0.70907 0.768 0.0
H166 H 0.17945 0.68626 0.69161 0.0
H167 H 0.2628 0.65724 0.66664 0.0
H168 H 0.3289 0.80818 0.80358 0.0
H169 H 0.24885 0.83323 0.84059 0.0
C170 C 0.26668 0.21622 0.78709 0.0
N171 N 0.28508 0.29711 0.77196 0.0
C172 C 0.28513 0.29618 0.79964 0.0
C173 C 0.30218 0.31129 0.8122 0.0
C174 C 0.31965 0.32748 0.79623 0.0
C175 C 0.31944 0.32804 0.76767 0.0
C176 C 0.30175 0.31269 0.75586 0.0
Zn177 Zn 0.26014 0.27247 0.75648 0.0
C178 C 0.28563 0.24097 0.71207 0.0
N179 N 0.20817 0.21781 0.72995 0.0
C180 C 0.19769 0.19667 0.74511 0.0
C181 C 0.20883 0.21924 0.70219 0.0
C182 C 0.20048 0.19818 0.68861 0.0
C183 C 0.19133 0.17527 0.7036 0.0
C184 C 0.18892 0.17506 0.73222 0.0
Zn185 Zn 0.23099 0.24418 0.74605 0.0
O186 O 0.27641 0.23915 0.78318 0.0
C187 C 0.20536 0.27605 0.7903 0.0
O188 O 0.2462 0.21233 0.77433 0.0
H189 H 0.21765 0.23581 0.69035 0.0
H190 H 0.27216 0.28332 0.81213 0.0
H191 H 0.19767 0.19571 0.76713 0.0
O192 O 0.22888 0.28432 0.78679 0.0
O193 O 0.19912 0.258 0.77525 0.0
H194 H 0.3015 0.31301 0.73389 0.0
O195 O 0.21617 0.27628 0.71819 0.0
O196 O 0.24338 0.30535 0.72927 0.0
O197 O 0.26304 0.23111 0.71705 0.0
O198 O 0.29089 0.26034 0.72586 0.0
C199 C 0.22434 0.29996 0.7151 0.0
H200 H 0.30206 0.30987 0.83427 0.0
H201 H 0.33261 0.34035 0.75468 0.0
H202 H 0.20219 0.19931 0.6665 0.0
H203 H 0.18187 0.15769 0.74444 0.0
C204 C 0.71622 0.29385 0.76357 0.0
N205 N 0.79299 0.26331 0.79145 0.0
C206 C 0.79407 0.2907 0.79326 0.0
C207 C 0.8107 0.29985 0.81146 0.0
C208 C 0.82684 0.28069 0.82757 0.0
C209 C 0.82581 0.25255 0.82528 0.0
C210 C 0.80839 0.24421 0.80704 0.0
Zn211 Zn 0.76766 0.25299 0.76367 0.0
C212 C 0.72739 0.21607 0.78694 0.0
N213 N 0.71337 0.23756 0.70475 0.0
C214 C 0.70092 0.25594 0.68617 0.0
C215 C 0.70902 0.21061 0.70649 0.0
C216 C 0.69102 0.20132 0.68986 0.0
C217 C 0.67748 0.21978 0.67092 0.0
C218 C 0.68286 0.24734 0.66871 0.0
Zn219 Zn 0.73871 0.24802 0.73229 0.0
O220 O 0.73829 0.2863 0.77513 0.0
C221 C 0.77973 0.28448 0.70904 0.0
O222 O 0.71038 0.28131 0.74353 0.0
H223 H 0.71935 0.19618 0.72104 0.0
H224 H 0.78216 0.30562 0.78039 0.0
H225 H 0.70475 0.27725 0.68511 0.0
O226 O 0.78672 0.27936 0.73344 0.0
O227 O 0.75917 0.27403 0.70177 0.0
H228 H 0.80728 0.22256 0.80521 0.0
O229 O 0.76671 0.21444 0.7216 0.0
O230 O 0.79624 0.21952 0.75151 0.0
O231 O 0.71921 0.22243 0.76314 0.0
O232 O 0.74846 0.22591 0.79371 0.0
C233 C 0.78912 0.20651 0.7323 0.0
H234 H 0.8113 0.32173 0.81266 0.0
H235 H 0.8382 0.23731 0.83748 0.0
H236 H 0.68773 0.1798 0.69178 0.0
H237 H 0.67277 0.26208 0.65418 0.0
C238 C 0.7184 0.78892 0.7916 0.0
N239 N 0.70581 0.71941 0.75257 0.0
C240 C 0.69741 0.70924 0.77781 0.0
C241 C 0.67739 0.69149 0.78087 0.0
C242 C 0.66554 0.68441 0.7578 0.0
C243 C 0.67416 0.69522 0.73192 0.0
C244 C 0.69474 0.71275 0.72972 0.0
Zn245 Zn 0.7345 0.74608 0.75136 0.0
C246 C 0.72311 0.79366 0.71263 0.0
N247 N 0.79388 0.80197 0.75249 0.0
C248 C 0.8036 0.80895 0.77592 0.0
C249 C 0.80199 0.81352 0.72774 0.0
C250 C 0.8201 0.8333 0.72586 0.0
C251 C 0.83032 0.84106 0.74962 0.0
C252 C 0.82224 0.82843 0.77492 0.0
Zn253 Zn 0.76574 0.77476 0.75311 0.0
O254 O 0.71055 0.76823 0.78172 0.0
C255 C 0.77643 0.72645 0.792 0.0
O256 O 0.74155 0.79637 0.7835 0.0
H257 H 0.79432 0.80746 0.70936 0.0
H258 H 0.70604 0.71514 0.79575 0.0
H259 H 0.79678 0.79953 0.79539 0.0
O260 O 0.75516 0.72081 0.78166 0.0
O261 O 0.78639 0.74861 0.78384 0.0
H262 H 0.70166 0.72121 0.70987 0.0
O263 O 0.78959 0.75302 0.7226 0.0
O264 O 0.75874 0.72463 0.72056 0.0
O265 O 0.74447 0.80033 0.72215 0.0
O266 O 0.7141 0.77129 0.72144 0.0
C267 C 0.7817 0.73257 0.71227 0.0
H268 H 0.67088 0.68362 0.80115 0.0
H269 H 0.6652 0.6901 0.71379 0.0
H270 H 0.82638 0.84219 0.70593 0.0
H271 H 0.82994 0.83384 0.7936 0.0
Fe272 Fe 0.01097 0.05923 0.50582 0.0
O273 O 0.00717 0.02043 0.51508 0.0
Fe274 Fe 0.03759 0.99029 0.50148 0.0
Fe275 Fe 0.97467 0.00272 0.50729 0.0
O276 O 0.00974 0.01977 0.51515 0.0
O277 O 0.0051 0.97276 0.49275 0.0
O278 O 0.00227 0.97362 0.49227 0.0
Fe279 Fe 1.00024 0.93416 0.50306 0.0
C280 C 0.95799 0.05382 0.54059 0.0
O281 O 0.97933 0.06535 0.47999 0.0
O282 O 0.97193 0.0237 0.46934 0.0
O283 O 0.03211 0.92784 0.47421 0.0
O284 O 0.06246 0.95713 0.48496 0.0
O285 O 0.0384 0.00928 0.46308 0.0
O286 O 0.03754 0.05341 0.47197 0.0
O287 O 0.94429 0.98006 0.49531 0.0
O288 O 0.96884 0.94162 0.47743 0.0
C289 C 0.041 0.03419 0.4556 0.0
O290 O 0.02953 0.92892 0.5319 0.0
O291 O 0.0382 0.97101 0.53993 0.0
O292 O 0.98149 0.06343 0.5372 0.0
O293 O 0.95028 0.03505 0.52628 0.0
C294 C 0.96986 0.0497 0.46443 0.0
C295 C 0.94747 0.95966 0.47937 0.0
C296 C 0.97016 0.95848 0.55174 0.0
O297 O 0.97602 0.98269 0.54544 0.0
O298 O 0.97058 0.94108 0.53391 0.0
C299 C 0.05595 0.93672 0.47222 0.0
O300 O 0.06821 0.01251 0.5133 0.0
O301 O 0.04404 0.05176 0.52945 0.0
C302 C 0.03899 0.94544 0.54664 0.0
C303 C 0.06531 0.03362 0.52818 0.0
Fe304 Fe 0.50321 0.94753 0.02788 0.0
O305 O 0.50209 0.98765 0.02215 0.0
Fe306 Fe 0.46816 0.00943 0.00378 0.0
Fe307 Fe 0.5317 0.00608 1.00075 0.0
O308 O 0.49919 0.98786 0.02251 0.0
O309 O 0.49788 0.02803 0.98274 0.0
O310 O 0.50069 0.02789 0.98246 0.0
Fe311 Fe 0.49757 0.06807 0.97708 0.0
C312 C 0.55654 0.96377 0.04525 0.0
O313 O 0.53437 0.93975 0.99845 0.0
O314 O 0.53467 0.97811 0.97125 0.0
O315 O 0.46629 0.06323 0.9531 0.0
O316 O 0.4397 0.03477 0.9801 0.0
O317 O 0.46991 0.98177 0.97448 0.0
O318 O 0.47487 0.94231 1.00008 0.0
O319 O 0.55886 0.02894 0.97509 0.0
O320 O 0.53012 0.05932 0.94933 0.0
C321 C 0.46637 0.95659 0.97904 0.0
O322 O 0.46742 0.0763 0.00739 0.0
O323 O 0.46443 0.03738 0.03335 0.0
O324 O 0.53395 0.95321 0.05252 0.0
O325 O 0.56026 0.9805 0.02374 0.0
C326 C 0.54098 0.95241 0.97589 0.0
C327 C 0.55408 0.0469 0.95445 0.0
C328 C 0.53501 0.05863 0.02528 0.0
O329 O 0.5305 0.03374 0.03026 0.0
O330 O 0.52701 0.07255 0.00385 0.0
C331 C 0.44371 0.05236 0.95929 0.0
O332 O 0.44109 0.98611 0.02888 0.0
O333 O 0.46968 0.95567 0.05482 0.0
C334 C 0.45985 0.06339 0.02952 0.0
C335 C 0.44569 0.96776 0.04923 0.0
Fe336 Fe 0.98707 0.55805 0.96932 0.0
O337 O 0.99279 0.51864 0.97978 0.0
Fe338 Fe 0.02884 0.50317 0.99838 0.0
Fe339 Fe 0.96604 0.49875 0.00391 0.0
O340 O 0.99562 0.51882 0.97934 0.0
O341 O 0.00211 0.48318 0.02254 0.0
O342 O 0.99927 0.48293 0.02292 0.0
Fe343 Fe 0.00788 0.4435 0.03241 0.0
C344 C 0.95302 0.55552 0.02381 0.0
O345 O 0.95755 0.54542 0.94728 0.0
O346 O 0.93473 0.51867 0.97995 0.0
O347 O 0.03907 0.43603 1.00259 0.0
O348 O 0.03468 0.4719 0.97198 0.0
O349 O 0.05244 0.52725 0.96987 0.0
O350 O 0.02058 0.55072 0.94215 0.0
O351 O 0.97065 0.46769 0.97761 0.0
O352 O 0.98089 0.43155 0.00672 0.0
C353 C 0.04565 0.54315 0.94825 0.0
O354 O 0.03713 0.45598 0.05481 0.0
O355 O 0.06006 0.48325 0.02266 0.0
O356 O 0.95642 0.5659 0.99945 0.0
O357 O 0.96003 0.53013 0.03021 0.0
C358 C 0.93637 0.5336 0.95689 0.0
C359 C 0.97191 0.44203 0.9842 0.0
C360 C 0.94926 0.45861 0.05384 0.0
O361 O 0.94244 0.47453 0.03226 0.0
O362 O 0.97427 0.45039 0.05966 0.0
C363 C 0.0425 0.44676 0.9784 0.0
O364 O 0.02436 0.53469 0.02447 0.0
O365 O 0.01416 0.57012 0.99449 0.0
C366 C 0.05824 0.46815 0.04565 0.0
C367 C 0.02294 0.56029 0.01728 0.0
Fe368 Fe 0.50408 0.49828 0.97517 0.0
O369 O 0.52893 0.4852 0.00488 0.0
Fe370 Fe 0.44064 0.51019 0.01044 0.0
Fe371 Fe 0.56784 0.49106 1.00193 0.0
O372 O 0.47949 0.5147 0.00504 0.0
O373 O 0.47959 0.51522 0.0075 0.0
O374 O 0.52908 0.4859 0.00736 0.0
Fe375 Fe 0.50444 0.50234 0.03716 0.0
C376 C 0.55582 0.46243 0.95236 0.0
O377 O 0.52095 0.53449 0.96901 0.0
O378 O 0.56466 0.51828 0.96797 0.0
O379 O 0.47517 0.52171 0.0649 0.0
O380 O 0.43971 0.53947 0.03849 0.0
O381 O 0.43929 0.53571 0.97485 0.0
O382 O 0.47494 0.51505 0.9477 0.0
O383 O 0.56508 0.52345 0.02687 0.0
O384 O 0.521 0.53869 0.03203 0.0
C385 C 0.45285 0.53194 0.95154 0.0
O386 O 0.48767 0.46626 0.04335 0.0
O387 O 0.44377 0.48214 0.0441 0.0
O388 O 0.53359 0.4788 0.94769 0.0
O389 O 0.56903 0.46121 0.97444 0.0
C390 C 0.54536 0.53575 0.95981 0.0
C391 C 0.54588 0.54158 0.0341 0.0
C392 C 0.5567 0.47014 0.06118 0.0
O393 O 0.56984 0.46635 0.03769 0.0
O394 O 0.53382 0.486 0.06479 0.0
C395 C 0.4527 0.53781 0.06072 0.0
O396 O 0.44297 0.47857 0.98499 0.0
O397 O 0.48675 0.46203 0.97945 0.0
C398 C 0.46324 0.46488 0.05245 0.0
C399 C 0.46159 0.46012 0.97725 0.0
Fe400 Fe 1.00128 0.47379 0.50391 0.0
O401 O 0.98473 0.50676 0.52298 0.0
Fe402 Fe 0.01946 0.50323 0.43885 0.0
Fe403 Fe 0.98398 0.50947 0.56246 0.0
O404 O 0.01937 0.50153 0.47905 0.0
O405 O 0.019 0.50446 0.4785 0.0
O406 O 0.98438 0.50957 0.52246 0.0
Fe407 Fe 0.00198 0.53733 0.49742 0.0
C408 C 0.95992 0.45654 0.55161 0.0
O409 O 0.03434 0.46847 0.52755 0.0
O410 O 0.01427 0.47727 0.56859 0.0
O411 O 0.02428 0.56202 0.46859 0.0
O412 O 0.04802 0.53076 0.44024 0.0
O413 O 0.04433 0.46694 0.44478 0.0
O414 O 0.02158 0.44289 0.47981 0.0
O415 O 0.01363 0.53596 0.56206 0.0
O416 O 0.03494 0.53396 0.52081 0.0
C417 C 0.03943 0.44447 0.45903 0.0
O418 O 0.96879 0.54172 0.47366 0.0
O419 O 0.9917 0.53752 0.43356 0.0
O420 O 0.97872 0.44924 0.53263 0.0
O421 O 0.95705 0.48021 0.56233 0.0
C422 C 0.03449 0.46754 0.55341 0.0
C423 C 0.03481 0.53785 0.54601 0.0
C424 C 0.96114 0.56617 0.54 0.0
O425 O 0.95697 0.54395 0.55501 0.0
O426 O 0.98072 0.56829 0.52095 0.0
C427 C 0.04402 0.55465 0.45056 0.0
O428 O 0.98768 0.47922 0.43831 0.0
O429 O 0.96835 0.47746 0.48078 0.0
C430 C 0.96994 0.5448 0.44775 0.0
C431 C 0.9678 0.47481 0.45542 0.0
Fe432 Fe 0.4998 0.97072 0.50784 0.0
O433 O 0.4799 1.00196 0.52751 0.0
Fe434 Fe 0.51579 1.00131 0.44348 0.0
Fe435 Fe 0.47961 0.00327 0.56734 0.0
O436 O 0.51495 1.00052 0.48344 0.0
O437 O 0.51473 0.00324 0.48318 0.0
O438 O 0.47975 0.00482 0.52729 0.0
Fe439 Fe 0.49545 0.03453 0.50319 0.0
C440 C 0.46056 0.94874 0.5555 0.0
O441 O 0.5327 0.96938 0.53125 0.0
O442 O 0.51095 0.97196 0.57219 0.0
O443 O 0.51525 0.06168 0.47503 0.0
O444 O 0.53946 0.03353 0.44394 0.0
O445 O 0.54545 0.96871 0.45009 0.0
O446 O 0.52377 0.94185 0.48361 0.0
O447 O 0.50712 0.03177 0.56789 0.0
O448 O 0.52825 0.03327 0.52653 0.0
C449 C 0.54277 0.94558 0.46423 0.0
O450 O 0.4626 0.03746 0.47962 0.0
O451 O 0.48319 0.03105 0.43831 0.0
O452 O 0.4799 0.94345 0.53637 0.0
O453 O 0.45498 0.97235 0.56615 0.0
C454 C 0.53227 0.96539 0.55702 0.0
C455 C 0.52666 0.03853 0.55146 0.0
C456 C 0.45463 0.0604 0.54848 0.0
O457 O 0.45107 0.03702 0.56177 0.0
O458 O 0.47262 0.06355 0.52802 0.0
C459 C 0.5338 0.05679 0.45522 0.0
O460 O 0.48931 0.97172 0.44325 0.0
O461 O 0.46734 0.97066 0.48427 0.0
C462 C 0.46257 0.03941 0.45373 0.0
C463 C 0.46933 0.96535 0.45933 0.0
H464 H 0.12007 0.17082 0.24351 0.0
H465 H 0.08691 0.14066 0.26402 0.0
H466 H 0.15278 0.08083 0.28952 0.0
H467 H 0.18582 0.11084 0.26903 0.0
H468 H 0.10285 0.05762 0.28287 0.0
H469 H 0.13759 0.13197 0.32831 0.0
H470 H 0.1452 0.1805 0.33101 0.0
H471 H 0.05956 0.20529 0.32479 0.0
H472 H 0.05151 0.1569 0.32194 0.0
H473 H 0.07884 0.00757 0.42077 0.0
H474 H 0.09205 0.02313 0.37378 0.0
H475 H 0.02808 0.09101 0.37781 0.0
H476 H 0.01684 0.07681 0.42524 0.0
H477 H 0.06918 0.11068 0.36258 0.0
H478 H 0.0332 0.03315 0.33157 0.0
H479 H 0.02521 0.9856 0.32504 0.0
H480 H 0.11037 0.96528 0.30317 0.0
H481 H 0.11885 0.01284 0.30942 0.0
C482 C 0.12737 0.15057 0.25215 0.0
C483 C 0.15531 0.14315 0.25516 0.0
C484 C 0.10846 0.13338 0.26386 0.0
C485 C 0.11749 0.10883 0.2787 0.0
C486 C 0.14545 0.0997 0.27818 0.0
C487 C 0.1643 0.11689 0.2666 0.0
C488 C 0.09938 0.09675 0.3003 0.0
C489 C 0.09511 0.06904 0.30034 0.0
C490 C 0.08916 0.11195 0.32276 0.0
C491 C 0.09401 0.14096 0.3246 0.0
C492 C 0.12044 0.14782 0.32736 0.0
C493 C 0.12483 0.17526 0.32894 0.0
C494 C 0.10291 0.19596 0.32792 0.0
C495 C 0.07653 0.18924 0.32548 0.0
C496 C 0.07203 0.16183 0.32392 0.0
C497 C 0.06758 0.02567 0.41135 0.0
C498 C 0.04728 0.04144 0.42657 0.0
C499 C 0.07477 0.03432 0.38433 0.0
C500 C 0.06096 0.05822 0.3719 0.0
C501 C 0.03922 0.07261 0.38676 0.0
C502 C 0.03283 0.06462 0.41394 0.0
C503 C 0.07191 0.07098 0.34565 0.0
C504 C 0.07558 0.09899 0.34496 0.0
C505 C 0.08127 0.05587 0.32267 0.0
C506 C 0.0766 0.02672 0.32089 0.0
C507 C 0.05025 0.01858 0.32555 0.0
C508 C 0.04562 0.99163 0.32174 0.0
C509 C 0.06723 0.97252 0.31343 0.0
C510 C 0.0936 0.98019 0.30936 0.0
C511 C 0.09831 0.00718 0.31295 0.0
H512 H 0.06356 0.95172 0.31026 0.0
H513 H 0.10636 0.2172 0.32913 0.0
H514 H 0.79762 0.15529 0.28506 0.0
H515 H 0.82961 0.12357 0.31177 0.0
H516 H 0.86989 0.192 0.33194 0.0
H517 H 0.83779 0.22361 0.30602 0.0
H518 H 0.90649 0.1463 0.31852 0.0
H519 H 0.8263 0.1695 0.37519 0.0
H520 H 0.77757 0.17386 0.39043 0.0
H521 H 0.77827 0.08614 0.39298 0.0
H522 H 0.82671 0.08135 0.3767 0.0
H523 H 0.97141 0.10177 0.44078 0.0
H524 H 0.94473 0.12452 0.40409 0.0
H525 H 0.90684 0.05064 0.39792 0.0
H526 H 0.93341 0.02779 0.43501 0.0
H527 H 0.86949 0.09496 0.4008 0.0
H528 H 0.95219 0.07297 0.34588 0.0
H529 H 1.00092 0.07101 0.33088 0.0
H530 H 0.99628 0.15894 0.32854 0.0
H531 H 0.94741 0.16152 0.3435 0.0
C532 C 0.81362 0.16343 0.29481 0.0
C533 C 0.81522 0.19191 0.29346 0.0
C534 C 0.83175 0.14535 0.31019 0.0
C535 C 0.85206 0.15544 0.32399 0.0
C536 C 0.85444 0.18372 0.32148 0.0
C537 C 0.83605 0.20177 0.30668 0.0
C538 C 0.87008 0.13699 0.3422 0.0
C539 C 0.89842 0.13512 0.33656 0.0
C540 C 0.85955 0.12216 0.36559 0.0
C541 C 0.83005 0.1251 0.37418 0.0
C542 C 0.81593 0.15117 0.37839 0.0
C543 C 0.78834 0.15374 0.38729 0.0
C544 C 0.77474 0.13034 0.39251 0.0
C545 C 0.78869 0.10432 0.38871 0.0
C546 C 0.81621 0.10166 0.37954 0.0
C547 C 0.9577 0.09015 0.43142 0.0
C548 C 0.95486 0.06272 0.4407 0.0
C549 C 0.94254 0.10319 0.41024 0.0
C550 C 0.92398 0.08925 0.39786 0.0
C551 C 0.9212 0.0618 0.40692 0.0
C552 C 0.93657 0.04864 0.42801 0.0
C553 C 0.90602 0.10413 0.37713 0.0
C554 C 0.87761 0.1056 0.38244 0.0
C555 C 0.91652 0.11893 0.35366 0.0
C556 C 0.94617 0.11741 0.34597 0.0
C557 C 0.96162 0.09188 0.34246 0.0
C558 C 0.98924 0.09066 0.33383 0.0
C559 C 0.00171 0.1148 0.32874 0.0
C560 C 0.98659 0.14025 0.33243 0.0
C561 C 0.9589 0.14161 0.34091 0.0
H562 H 0.02304 0.11378 0.32186 0.0
H563 H 0.75347 0.13241 0.39971 0.0
H564 H 0.81945 0.88318 0.28157 0.0
H565 H 0.83879 0.9164 0.30743 0.0
H566 H 0.88506 0.84956 0.35161 0.0
H567 H 0.86584 0.81651 0.32596 0.0
H568 H 0.83235 0.92004 0.36325 0.0
H569 H 0.94513 0.86987 0.36639 0.0
H570 H 0.98036 0.84601 0.3359 0.0
H571 H 0.9408 0.88484 0.26592 0.0
H572 H 0.9055 0.9092 0.29596 0.0
H573 H 0.90081 0.93451 0.48305 0.0
H574 H 0.87655 0.92337 0.44417 0.0
H575 H 0.92809 0.97082 0.38948 0.0
H576 H 0.95265 0.98113 0.42812 0.0
H577 H 0.93106 0.92046 0.37505 0.0
H578 H 0.85956 0.98996 0.3955 0.0
H579 H 0.82463 0.01689 0.42381 0.0
H580 H 0.78233 0.94556 0.44257 0.0
H581 H 0.8172 0.91809 0.41463 0.0
C582 C 0.83425 0.87573 0.29636 0.0
C583 C 0.84124 0.84737 0.30181 0.0
C584 C 0.84508 0.89465 0.31124 0.0
C585 C 0.86339 0.88542 0.33137 0.0
C586 C 0.87118 0.85713 0.33599 0.0
C587 C 0.86017 0.83828 0.32139 0.0
C588 C 0.87315 0.9049 0.349 0.0
C589 C 0.85392 0.92041 0.3657 0.0
C590 C 0.90129 0.90577 0.35172 0.0
C591 C 0.92251 0.89121 0.33348 0.0
C592 C 0.94398 0.87341 0.3445 0.0
C593 C 0.96397 0.85978 0.32729 0.0
C594 C 0.96279 0.86387 0.299 0.0
C595 C 0.94163 0.88162 0.28785 0.0
C596 C 0.92159 0.89529 0.30496 0.0
C597 C 0.90606 0.9434 0.46283 0.0
C598 C 0.928 0.95919 0.45844 0.0
C599 C 0.89229 0.93706 0.44064 0.0
C600 C 0.90046 0.94637 0.4139 0.0
C601 C 0.92136 0.96354 0.40989 0.0
C602 C 0.93515 0.96968 0.43196 0.0
C603 C 0.89027 0.93483 0.3901 0.0
C604 C 0.90946 0.92062 0.37233 0.0
C605 C 0.86215 0.93554 0.38617 0.0
C606 C 0.84112 0.95191 0.40309 0.0
C607 C 0.84293 0.97995 0.40583 0.0
C608 C 0.82311 0.99533 0.42178 0.0
C609 C 0.8013 0.98293 0.43502 0.0
C610 C 0.79924 0.95514 0.4323 0.0
C611 C 0.819 0.93966 0.41636 0.0
H612 H 0.78598 0.99487 0.44736 0.0
H613 H 0.9783 0.85331 0.28571 0.0
H614 H 0.22007 0.8507 0.27239 0.0
H615 H 0.19349 0.88107 0.30404 0.0
H616 H 0.12878 0.82862 0.30969 0.0
H617 H 0.15481 0.79909 0.27677 0.0
H618 H 0.10801 0.87977 0.31747 0.0
H619 H 0.18161 0.81725 0.35244 0.0
H620 H 0.22943 0.79631 0.35317 0.0
H621 H 0.25489 0.8743 0.36774 0.0
H622 H 0.20726 0.89583 0.36658 0.0
H623 H 0.05601 0.88661 0.45208 0.0
H624 H 0.08396 0.86842 0.41344 0.0
H625 H 0.12978 0.93834 0.40836 0.0
H626 H 0.10163 0.95703 0.4472 0.0
H627 H 0.16101 0.88396 0.39875 0.0
H628 H 0.08059 0.94223 0.37262 0.0
H629 H 0.03116 0.95662 0.37568 0.0
H630 H 0.01622 0.87967 0.347 0.0
H631 H 0.06551 0.86421 0.345 0.0
C632 C 0.19967 0.8464 0.27955 0.0
C633 C 0.18938 0.82267 0.27235 0.0
C634 C 0.18461 0.86357 0.29776 0.0
C635 C 0.15956 0.8566 0.30989 0.0
C636 C 0.14814 0.8343 0.30071 0.0
C637 C 0.16294 0.81749 0.28187 0.0
C638 C 0.14718 0.87006 0.33448 0.0
C639 C 0.11956 0.88066 0.33524 0.0
C640 C 0.16235 0.87126 0.35769 0.0
C641 C 0.19091 0.85822 0.35914 0.0
C642 C 0.19743 0.82996 0.35567 0.0
C643 C 0.22449 0.81799 0.35614 0.0
C644 C 0.24519 0.83398 0.36044 0.0
C645 C 0.23884 0.86196 0.36436 0.0
C646 C 0.21182 0.87406 0.36379 0.0
C647 C 0.07228 0.89801 0.44309 0.0
C648 C 0.07631 0.92352 0.45244 0.0
C649 C 0.08826 0.88751 0.42105 0.0
C650 C 0.10851 0.90232 0.40785 0.0
C651 C 0.1141 0.92673 0.41832 0.0
C652 C 0.09803 0.93734 0.44049 0.0
C653 C 0.12187 0.89339 0.38174 0.0
C654 C 0.14963 0.88355 0.38077 0.0
C655 C 0.10658 0.89217 0.35867 0.0
C656 C 0.07689 0.90191 0.35893 0.0
C657 C 0.0668 0.92815 0.36737 0.0
C658 C 0.03875 0.93651 0.36894 0.0
C659 C 0.02054 0.91907 0.36155 0.0
C660 C 0.03035 0.89318 0.35269 0.0
C661 C 0.05836 0.88457 0.35142 0.0
H662 H 0.99884 0.92563 0.36264 0.0
H663 H 0.26612 0.82468 0.36081 0.0
H664 H 0.18738 0.78043 0.68493 0.0
H665 H 0.15658 0.81383 0.65989 0.0
H666 H 0.15549 0.87006 0.72314 0.0
H667 H 0.18703 0.83654 0.74857 0.0
H668 H 0.1018 0.86489 0.70085 0.0
H669 H 0.19197 0.88526 0.67242 0.0
H670 H 0.24033 0.87409 0.65722 0.0
H671 H 0.21661 0.84196 0.58488 0.0
H672 H 0.16809 0.8525 0.59988 0.0
H673 H 0.07603 0.96914 0.57325 0.0
H674 H 0.10255 0.94889 0.61137 0.0
H675 H 0.06071 0.87649 0.6146 0.0
H676 H 0.03412 0.89639 0.57622 0.0
H677 H 0.13717 0.89872 0.60914 0.0
H678 H 0.05557 0.85461 0.68772 0.0
H679 H 0.00881 0.86777 0.70678 0.0
H680 H 0.01581 0.95228 0.68107 0.0
H681 H 0.06287 0.93985 0.66264 0.0
C682 C 0.18054 0.79976 0.69381 0.0
C683 C 0.1899 0.8058 0.71879 0.0
C684 C 0.16288 0.81887 0.67936 0.0
C685 C 0.15389 0.84449 0.68952 0.0
C686 C 0.16222 0.85036 0.71495 0.0
C687 C 0.18026 0.83123 0.72941 0.0
C688 C 0.13692 0.86522 0.67253 0.0
C689 C 0.10944 0.87245 0.68084 0.0
C690 C 0.1472 0.87556 0.64671 0.0
C691 C 0.17637 0.86951 0.63739 0.0
C692 C 0.19706 0.87563 0.65337 0.0
C693 C 0.22451 0.86943 0.64478 0.0
C694 C 0.23154 0.85728 0.62012 0.0
C695 C 0.21113 0.85136 0.60398 0.0
C696 C 0.18365 0.85747 0.61251 0.0
C697 C 0.07212 0.94906 0.58229 0.0
C698 C 0.05306 0.93429 0.5715 0.0
C699 C 0.08734 0.93752 0.60407 0.0
C700 C 0.0834 0.91127 0.61596 0.0
C701 C 0.06369 0.89693 0.60596 0.0
C702 C 0.04873 0.90824 0.58389 0.0
C703 C 0.10161 0.89765 0.63695 0.0
C704 C 0.12941 0.89154 0.62926 0.0
C705 C 0.09158 0.88864 0.6634 0.0
C706 C 0.06281 0.89619 0.67352 0.0
C707 C 0.04721 0.87603 0.6862 0.0
C708 C 0.02068 0.88339 0.69705 0.0
C709 C 0.0094 0.91086 0.69524 0.0
C710 C 0.02457 0.93101 0.68245 0.0
C711 C 0.0512 0.9238 0.67177 0.0
H712 H 0.98888 0.91652 0.70367 0.0
H713 H 0.2528 0.8525 0.61351 0.0
H714 H 0.14678 0.14657 0.71026 0.0
H715 H 0.13615 0.11058 0.68216 0.0
H716 H 0.21358 0.11386 0.63635 0.0
H717 H 0.22397 0.15009 0.66403 0.0
H718 H 0.17505 0.11795 0.60301 0.0
H719 H 0.19958 0.0561 0.67794 0.0
H720 H 0.20058 0.03785 0.72593 0.0
H721 H 0.1147 0.03077 0.72851 0.0
H722 H 0.11307 0.04936 0.68065 0.0
H723 H 0.1214 0.02672 0.51961 0.0
H724 H 0.15447 0.0382 0.55103 0.0
H725 H 0.08851 0.05781 0.61107 0.0
H726 H 0.05593 0.04662 0.58014 0.0
H727 H 0.13402 0.03284 0.63505 0.0
H728 H 0.10939 0.10718 0.56536 0.0
H729 H 0.10764 0.12655 0.51772 0.0
H730 H 0.19473 0.10968 0.50618 0.0
H731 H 0.1969 0.08992 0.55372 0.0
C732 C 0.16168 0.1392 0.69452 0.0
C733 C 0.18599 0.15131 0.68906 0.0
C734 C 0.1557 0.11854 0.67855 0.0
C735 C 0.17417 0.10936 0.6572 0.0
C736 C 0.199 0.12063 0.65261 0.0
C737 C 0.20485 0.14139 0.66837 0.0
C738 C 0.16626 0.09031 0.63788 0.0
C739 C 0.16682 0.09892 0.61 0.0
C740 C 0.15537 0.06554 0.64687 0.0
C741 C 0.1562 0.05426 0.67569 0.0
C742 C 0.18086 0.05083 0.68878 0.0
C743 C 0.18155 0.0404 0.71596 0.0
C744 C 0.15771 0.03318 0.73027 0.0
C745 C 0.13315 0.03635 0.7174 0.0
C746 C 0.13235 0.0468 0.69022 0.0
C747 C 0.11422 0.03298 0.53973 0.0
C748 C 0.08619 0.03639 0.54734 0.0
C749 C 0.13302 0.0395 0.55762 0.0
C750 C 0.12386 0.04908 0.5833 0.0
C751 C 0.09606 0.05044 0.59144 0.0
C752 C 0.07743 0.04433 0.57361 0.0
C753 C 0.14199 0.06113 0.60064 0.0
C754 C 0.14326 0.05132 0.62811 0.0
C755 C 0.15459 0.08482 0.59136 0.0
C756 C 0.15327 0.09677 0.5629 0.0
C757 C 0.12812 0.10744 0.55258 0.0
C758 C 0.12706 0.11851 0.52563 0.0
C759 C 0.15105 0.11925 0.5089 0.0
C760 C 0.17616 0.10901 0.51913 0.0
C761 C 0.17732 0.09788 0.54607 0.0
H762 H 0.15019 0.12784 0.48804 0.0
H763 H 0.15829 0.02511 0.75131 0.0
H764 H 0.774 0.1672 0.70255 0.0
H765 H 0.80366 0.13422 0.67637 0.0
H766 H 0.87416 0.16058 0.70918 0.0
H767 H 0.84438 0.19398 0.73554 0.0
H768 H 0.87635 0.165 0.65391 0.0
H769 H 0.85859 0.09543 0.72375 0.0
H770 H 0.83022 0.06862 0.75641 0.0
H771 H 0.79055 0.04139 0.69027 0.0
H772 H 0.81844 0.06832 0.65719 0.0
H773 H 0.97272 0.07753 0.58438 0.0
H774 H 0.94371 0.09695 0.62146 0.0
H775 H 0.87282 0.07364 0.5868 0.0
H776 H 0.90215 0.0534 0.54924 0.0
H777 H 0.87131 0.0658 0.6445 0.0
H778 H 0.88653 0.13758 0.57528 0.0
H779 H 0.9141 0.16501 0.54239 0.0
H780 H 0.95736 0.18885 0.60774 0.0
H781 H 0.93031 0.16121 0.64099 0.0
C782 C 0.7958 0.16561 0.70467 0.0
C783 C 0.80695 0.18339 0.72082 0.0
C784 C 0.81271 0.14655 0.68984 0.0
C785 C 0.8411 0.1449 0.69086 0.0
C786 C 0.85225 0.16153 0.7082 0.0
C787 C 0.83526 0.18052 0.72328 0.0
C788 C 0.8589 0.12879 0.67096 0.0
C789 C 0.87567 0.14317 0.65226 0.0
C790 C 0.85714 0.10056 0.66816 0.0
C791 C 0.84045 0.08414 0.68798 0.0
C792 C 0.84366 0.08392 0.71616 0.0
C793 C 0.82767 0.06868 0.73476 0.0
C794 C 0.80848 0.05344 0.72543 0.0
C795 C 0.80535 0.05328 0.69747 0.0
C796 C 0.82129 0.06849 0.67878 0.0
C797 C 0.95096 0.07648 0.58443 0.0
C798 C 0.93966 0.06446 0.56343 0.0
C799 C 0.93442 0.0875 0.60581 0.0
C800 C 0.90612 0.08718 0.6066 0.0
C801 C 0.89468 0.07417 0.58642 0.0
C802 C 0.91139 0.06279 0.56494 0.0
C803 C 0.88877 0.10208 0.62771 0.0
C804 C 0.87205 0.08756 0.64641 0.0
C805 C 0.89037 0.13031 0.63053 0.0
C806 C 0.90656 0.14712 0.61059 0.0
C807 C 0.90206 0.1485 0.58261 0.0
C808 C 0.91758 0.16411 0.56391 0.0
C809 C 0.93751 0.17861 0.57297 0.0
C810 C 0.94193 0.17758 0.60075 0.0
C811 C 0.9265 0.16196 0.61954 0.0
H812 H 0.9495 0.19069 0.55846 0.0
H813 H 0.79616 0.04162 0.73986 0.0
H814 H 0.88117 0.83564 0.76899 0.0
H815 H 0.91801 0.86347 0.75302 0.0
H816 H 0.86092 0.91915 0.70747 0.0
H817 H 0.82439 0.89183 0.72374 0.0
H818 H 0.93184 0.86334 0.70181 0.0
H819 H 0.88211 0.97795 0.68665 0.0
H820 H 0.85608 0.01286 0.71428 0.0
H821 H 0.8855 0.96981 0.78741 0.0
H822 H 0.91239 0.93485 0.76015 0.0
H823 H 0.93757 0.91951 0.57015 0.0
H824 H 0.92625 0.90419 0.61731 0.0
H825 H 0.97582 0.962 0.64514 0.0
H826 H 0.98639 0.9783 0.59761 0.0
H827 H 0.92957 0.96276 0.67451 0.0
H828 H 0.9963 0.89274 0.64438 0.0
H829 H 0.01916 0.8573 0.61525 0.0
H830 H 0.95088 0.81066 0.6296 0.0
H831 H 0.92722 0.84583 0.65849 0.0
C832 C 0.87639 0.85456 0.75662 0.0
C833 C 0.85018 0.86146 0.74715 0.0
C834 C 0.8974 0.87043 0.7475 0.0
C835 C 0.89234 0.89341 0.72898 0.0
C836 C 0.86542 0.90186 0.72207 0.0
C837 C 0.84454 0.88603 0.7311 0.0
C838 C 0.91494 0.90414 0.71149 0.0
C839 C 0.93171 0.88512 0.69609 0.0
C840 C 0.91545 0.9326 0.70466 0.0
C841 C 0.89939 0.95369 0.72126 0.0
C842 C 0.88333 0.976 0.7086 0.0
C843 C 0.86832 0.99581 0.72423 0.0
C844 C 0.86907 0.99357 0.75261 0.0
C845 C 0.8849 0.9715 0.76541 0.0
C846 C 0.90003 0.95165 0.74987 0.0
C847 C 0.94607 0.92896 0.58631 0.0
C848 C 0.96281 0.95006 0.58032 0.0
C849 C 0.93981 0.92002 0.61324 0.0
C850 C 0.95083 0.93142 0.63471 0.0
C851 C 0.96736 0.95276 0.62884 0.0
C852 C 0.97324 0.96211 0.60177 0.0
C853 C 0.94354 0.92177 0.66318 0.0
C854 C 0.93023 0.94103 0.68069 0.0
C855 C 0.94558 0.89341 0.67158 0.0
C856 C 0.96006 0.87195 0.65418 0.0
C857 C 0.98611 0.87492 0.64156 0.0
C858 C 0.99922 0.85488 0.62496 0.0
C859 C 0.9866 0.83171 0.62074 0.0
C860 C 0.96075 0.82854 0.63304 0.0
C861 C 0.94749 0.84851 0.64962 0.0
H862 H 0.99681 0.81625 0.60784 0.0
H863 H 0.8574 0.00893 0.76466 0.0
H864 H 0.2696 0.19269 0.1738 0.0
H865 H 0.30236 0.16523 0.14447 0.0
H866 H 0.36882 0.19453 0.18194 0.0
H867 H 0.33614 0.22309 0.2102 0.0
H868 H 0.38265 0.19181 0.13228 0.0
H869 H 0.34674 0.12853 0.19883 0.0
H870 H 0.31146 0.10562 0.22673 0.0
H871 H 0.28273 0.07786 0.1545 0.0
H872 H 0.31759 0.10095 0.12611 0.0
H873 H 0.44903 0.04783 0.08368 0.0
H874 H 0.42177 0.0749 0.1179 0.0
H875 H 0.40554 0.14127 0.05658 0.0
H876 H 0.43337 0.115 0.02284 0.0
H877 H 0.37115 0.09384 0.1237 0.0
H878 H 0.39862 0.20247 0.08161 0.0
H879 H 0.43835 0.22327 0.05951 0.0
H880 H 0.49227 0.15646 0.09351 0.0
H881 H 0.45292 0.13547 0.11615 0.0
C882 C 0.29121 0.19347 0.17554 0.0
C883 C 0.30031 0.20999 0.19432 0.0
C884 C 0.30995 0.17756 0.15896 0.0
C885 C 0.33815 0.17721 0.16141 0.0
C886 C 0.34722 0.19432 0.17966 0.0
C887 C 0.3285 0.21068 0.19581 0.0
C888 C 0.35817 0.15902 0.14501 0.0
C889 C 0.38013 0.17038 0.13049 0.0
C890 C 0.35558 0.13074 0.14334 0.0
C891 C 0.33465 0.11667 0.16032 0.0
C892 C 0.33279 0.11769 0.18888 0.0
C893 C 0.31288 0.10466 0.20478 0.0
C894 C 0.29483 0.09034 0.19239 0.0
C895 C 0.2967 0.08898 0.16406 0.0
C896 C 0.31656 0.10201 0.14806 0.0
C897 C 0.43981 0.06829 0.07761 0.0
C898 C 0.44364 0.07936 0.05061 0.0
C899 C 0.42417 0.08371 0.09715 0.0
C900 C 0.41196 0.11036 0.08998 0.0
C901 C 0.41535 0.12112 0.06288 0.0
C902 C 0.43124 0.10597 0.04353 0.0
C903 C 0.39509 0.12689 0.11041 0.0
C904 C 0.37375 0.11522 0.12568 0.0
C905 C 0.39893 0.15458 0.11369 0.0
C906 C 0.42276 0.16729 0.1004 0.0
C907 C 0.41895 0.19229 0.08449 0.0
C908 C 0.44141 0.2041 0.07185 0.0
C909 C 0.46781 0.19116 0.07504 0.0
C910 C 0.47181 0.16642 0.09097 0.0
C911 C 0.44943 0.15454 0.10369 0.0
H912 H 0.48516 0.20032 0.06521 0.0
H913 H 0.27942 0.08027 0.20473 0.0
H914 H 0.82984 0.30548 0.23729 0.0
H915 H 0.85491 0.33678 0.20696 0.0
H916 H 0.81124 0.3179 0.13922 0.0
H917 H 0.78719 0.28523 0.16943 0.0
H918 H 0.85947 0.32546 0.12034 0.0
H919 H 0.79532 0.37595 0.17902 0.0
H920 H 0.77255 0.38993 0.22274 0.0
H921 H 0.84555 0.42054 0.24378 0.0
H922 H 0.86946 0.40489 0.20123 0.0
H923 H 0.90035 0.44379 0.03958 0.0
H924 H 0.87006 0.41454 0.06701 0.0
H925 H 0.91986 0.41395 0.13544 0.0
H926 H 0.95015 0.44284 0.1082 0.0
H927 H 0.86437 0.4185 0.15123 0.0
H928 H 0.92881 0.36187 0.09429 0.0
H929 H 0.95056 0.34894 0.04975 0.0
H930 H 0.87293 0.33437 0.02335 0.0
H931 H 0.85063 0.34768 0.0676 0.0
C932 C 0.82582 0.30768 0.21584 0.0
C933 C 0.80639 0.29284 0.20587 0.0
C934 C 0.84005 0.32586 0.19846 0.0
C935 C 0.83455 0.33064 0.17071 0.0
C936 C 0.81589 0.31496 0.16047 0.0
C937 C 0.80211 0.29618 0.17779 0.0
C938 C 0.84767 0.35241 0.15279 0.0
C939 C 0.86009 0.34588 0.12709 0.0
C940 C 0.84878 0.37935 0.16123 0.0
C941 C 0.83433 0.38891 0.18693 0.0
C942 C 0.80669 0.38529 0.19312 0.0
C943 C 0.79359 0.39342 0.21779 0.0
C944 C 0.80759 0.40609 0.23605 0.0
C945 C 0.83479 0.41049 0.22976 0.0
C946 C 0.8482 0.4018 0.20545 0.0
C947 C 0.90443 0.43803 0.06068 0.0
C948 C 0.92771 0.44581 0.07165 0.0
C949 C 0.88724 0.42103 0.0763 0.0
C950 C 0.89277 0.41164 0.10331 0.0
C951 C 0.91508 0.42075 0.11471 0.0
C952 C 0.93242 0.43736 0.09906 0.0
C953 C 0.8765 0.39121 0.11939 0.0
C954 C 0.86346 0.39806 0.14463 0.0
C955 C 0.8745 0.36478 0.11043 0.0
C956 C 0.88802 0.35603 0.08415 0.0
C957 C 0.91636 0.35605 0.07893 0.0
C958 C 0.92878 0.34866 0.05374 0.0
C959 C 0.91313 0.34091 0.03371 0.0
C960 C 0.88502 0.34042 0.03887 0.0
C961 C 0.87248 0.34788 0.06401 0.0
H962 H 0.92278 0.33521 0.01421 0.0
H963 H 0.79736 0.41255 0.25504 0.0
H964 H 0.75019 0.84215 0.19511 0.0
H965 H 0.72688 0.87594 0.16284 0.0
H966 H 0.66786 0.81985 0.15312 0.0
H967 H 0.69117 0.78599 0.1847 0.0
H968 H 0.68089 0.84473 0.10525 0.0
H969 H 0.65577 0.87234 0.19713 0.0
H970 H 0.66486 0.88646 0.24232 0.0
H971 H 0.70134 0.95613 0.20435 0.0
H972 H 0.69276 0.9422 0.1589 0.0
H973 H 0.55551 0.94812 0.09939 0.0
H974 H 0.59289 0.92443 0.12489 0.0
H975 H 0.64812 0.9324 0.05362 0.0
H976 H 0.61063 0.95641 0.0279 0.0
H977 H 0.64313 0.9353 0.13828 0.0
H978 H 0.68853 0.86956 0.05152 0.0
H979 H 0.67523 0.85507 0.00788 0.0
H980 H 0.59156 0.85955 0.03888 0.0
H981 H 0.60444 0.87364 0.08281 0.0
C982 C 0.73238 0.83695 0.1859 0.0
C983 C 0.72244 0.81143 0.19267 0.0
C984 C 0.71905 0.85631 0.1675 0.0
C985 C 0.69544 0.85056 0.15572 0.0
C986 C 0.68606 0.82477 0.16185 0.0
C987 C 0.69936 0.80546 0.18008 0.0
C988 C 0.67945 0.87161 0.13811 0.0
C989 C 0.67295 0.86466 0.11236 0.0
C990 C 0.66889 0.89763 0.14733 0.0
C991 C 0.67399 0.90601 0.17463 0.0
C992 C 0.66594 0.89053 0.19842 0.0
C993 C 0.67096 0.89852 0.22408 0.0
C994 C 0.68377 0.92211 0.2262 0.0
C995 C 0.6915 0.93781 0.20267 0.0
C996 C 0.68656 0.92988 0.17697 0.0
C997 C 0.57572 0.94527 0.08927 0.0
C998 C 0.58011 0.95388 0.0616 0.0
C999 C 0.59709 0.93184 0.1039 0.0
C1000 C 0.62319 0.92634 0.09107 0.0
C1001 C 0.62804 0.93621 0.06382 0.0
C1002 C 0.60667 0.95007 0.04923 0.0
C1003 C 0.64434 0.90819 0.10574 0.0
C1004 C 0.65174 0.91566 0.1309 0.0
C1005 C 0.65528 0.88244 0.09624 0.0
C1006 C 0.64743 0.87297 0.0703 0.0
C1007 C 0.66733 0.8673 0.04905 0.0
C1008 C 0.65985 0.85918 0.02427 0.0
C1009 C 0.63255 0.85651 0.02057 0.0
C1010 C 0.61269 0.86173 0.04173 0.0
C1011 C 0.62006 0.86978 0.06657 0.0
H1012 H 0.6268 0.85036 1.00133 0.0
H1013 H 0.68764 0.92827 0.24608 0.0
H1014 H 0.18733 0.67587 0.13915 0.0
H1015 H 0.15723 0.65286 0.11367 0.0
H1016 H 0.09042 0.71434 0.13322 0.0
H1017 H 0.12047 0.7372 0.15957 0.0
H1018 H 0.07458 0.6629 0.14027 0.0
H1019 H 0.12033 0.71541 0.07 0.0
H1020 H 0.15944 0.73364 0.04382 0.0
H1021 H 0.19181 0.65197 0.02423 0.0
H1022 H 0.15309 0.63319 0.05063 0.0
H1023 H 0.02753 0.61472 0.00524 0.0
H1024 H 0.0481 0.64591 0.03145 0.0
H1025 H 0.06351 0.58138 0.09468 0.0
H1026 H 0.04286 0.54957 0.06837 0.0
H1027 H 0.10048 0.64007 0.04476 0.0
H1028 H 0.0589 0.61454 0.15649 0.0
H1029 H 0.01674 0.60048 0.18059 0.0
H1030 H 0.97039 0.63551 0.11347 0.0
H1031 H 0.01212 0.6502 0.08921 0.0
C1032 C 0.16623 0.68453 0.13805 0.0
C1033 C 0.15625 0.70832 0.15143 0.0
C1034 C 0.14908 0.67144 0.12334 0.0
C1035 C 0.12161 0.68196 0.12142 0.0
C1036 C 0.11156 0.70589 0.13447 0.0
C1037 C 0.1288 0.71908 0.14924 0.0
C1038 C 0.10359 0.66758 0.10589 0.0
C1039 C 0.08016 0.65796 0.11936 0.0
C1040 C 0.11054 0.66167 0.07842 0.0
C1041 C 0.13389 0.67287 0.06248 0.0
C1042 C 0.13589 0.70131 0.06029 0.0
C1043 C 0.15798 0.71174 0.04538 0.0
C1044 C 0.17813 0.69397 0.03242 0.0
C1045 C 0.1762 0.66571 0.0343 0.0
C1046 C 0.15416 0.65516 0.04921 0.0
C1047 C 0.03501 0.60703 0.02483 0.0
C1048 C 0.03368 0.57946 0.03461 0.0
C1049 C 0.04682 0.62499 0.03976 0.0
C1050 C 0.0573 0.61599 0.06497 0.0
C1051 C 0.05531 0.58877 0.07532 0.0
C1052 C 0.04362 0.5706 0.06023 0.0
C1053 C 0.07196 0.63465 0.07936 0.0
C1054 C 0.09481 0.64506 0.06564 0.0
C1055 C 0.06403 0.64178 0.1063 0.0
C1056 C 0.03876 0.63318 0.12089 0.0
C1057 C 0.0397 0.61932 0.14692 0.0
C1058 C 0.01587 0.61124 0.16061 0.0
C1059 C 0.99092 0.61699 0.14853 0.0
C1060 C 0.98974 0.63094 0.12277 0.0
C1061 C 0.01349 0.63911 0.10902 0.0
H1062 H 0.97252 0.61069 0.15915 0.0
H1063 H 0.19521 0.70209 0.02088 0.0
H1064 H 0.32945 0.85717 0.80668 0.0
H1065 H 0.35552 0.88256 0.83421 0.0
H1066 H 0.30636 0.85916 0.90621 0.0
H1067 H 0.28073 0.83266 0.87873 0.0
H1068 H 0.34655 0.92411 0.86517 0.0
H1069 H 0.34731 0.84889 0.96055 0.0
H1070 H 0.34186 0.80024 0.97376 0.0
H1071 H 0.37008 0.77839 0.89294 0.0
H1072 H 0.37607 0.82683 0.8794 0.0
H1073 H 0.41708 0.98052 0.96438 0.0
H1074 H 0.38344 0.96065 0.94036 0.0
H1075 H 0.43964 0.88716 0.93129 0.0
H1076 H 0.47243 0.90636 0.95749 0.0
H1077 H 0.3936 0.87201 0.94178 0.0
H1078 H 0.42404 0.94342 0.87711 0.0
H1079 H 0.43276 0.99113 0.86323 0.0
H1080 H 0.34781 0.01877 0.87865 0.0
H1081 H 0.33863 0.97124 0.89285 0.0
C1082 C 0.3241 0.85742 0.82838 0.0
C1083 C 0.30331 0.84243 0.84057 0.0
C1084 C 0.3389 0.8722 0.84409 0.0
C1085 C 0.3333 0.87245 0.8724 0.0
C1086 C 0.31142 0.8589 0.88446 0.0
C1087 C 0.2966 0.84396 0.8687 0.0
C1088 C 0.35155 0.8855 0.88915 0.0
C1089 C 0.35672 0.91276 0.88204 0.0
C1090 C 0.36513 0.87073 0.911 0.0
C1091 C 0.36179 0.84151 0.91891 0.0
C1092 C 0.3524 0.83367 0.94564 0.0
C1093 C 0.34923 0.80615 0.95318 0.0
C1094 C 0.35551 0.78625 0.93417 0.0
C1095 C 0.36511 0.79383 0.90761 0.0
C1096 C 0.36838 0.82132 0.89999 0.0
C1097 C 0.42231 0.96024 0.95694 0.0
C1098 C 0.44749 0.94512 0.96226 0.0
C1099 C 0.40309 0.94889 0.9431 0.0
C1100 C 0.40909 0.9226 0.93318 0.0
C1101 C 0.4344 0.9075 0.93855 0.0
C1102 C 0.45326 0.91851 0.9533 0.0
C1103 C 0.38895 0.91059 0.91769 0.0
C1104 C 0.38332 0.88352 0.92509 0.0
C1105 C 0.37535 0.92542 0.89578 0.0
C1106 C 0.3807 0.9538 0.8862 0.0
C1107 C 0.40724 0.95968 0.87753 0.0
C1108 C 0.41226 0.98669 0.86964 0.0
C1109 C 0.39086 0.00797 0.87011 0.0
C1110 C 0.36436 1.00226 0.87829 0.0
C1111 C 0.35923 0.97528 0.88622 0.0
H1112 H 0.3948 0.02888 0.86412 0.0
H1113 H 0.35302 0.76496 0.94003 0.0
H1114 H 0.14938 0.2839 0.79027 0.0
H1115 H 0.11778 0.31056 0.8219 0.0
H1116 H 0.18522 0.32361 0.86839 0.0
H1117 H 0.21677 0.2977 0.83672 0.0
H1118 H 0.13703 0.30925 0.90068 0.0
H1119 H 0.16485 0.3719 0.82526 0.0
H1120 H 0.16955 0.38748 0.77654 0.0
H1121 H 0.08272 0.39267 0.77178 0.0
H1122 H 0.07755 0.37666 0.82042 0.0
H1123 H 0.09281 0.41886 0.98177 0.0
H1124 H 0.11737 0.38825 0.94913 0.0
H1125 H 0.04976 0.40338 0.89707 0.0
H1126 H 0.02605 0.43567 0.92904 0.0
H1127 H 0.09303 0.40008 0.86623 0.0
H1128 H 0.06358 0.34352 0.94234 0.0
H1129 H 0.05733 0.32608 0.99032 0.0
H1130 H 0.14403 0.30712 0.99404 0.0
H1131 H 0.1508 0.32462 0.94605 0.0
C1132 C 0.15734 0.29209 0.8075 0.0
C1133 C 0.18554 0.28874 0.81101 0.0
C1134 C 0.13932 0.30742 0.82545 0.0
C1135 C 0.14919 0.31918 0.84742 0.0
C1136 C 0.17716 0.31472 0.85161 0.0
C1137 C 0.19516 0.29995 0.83345 0.0
C1138 C 0.13088 0.33729 0.86544 0.0
C1139 C 0.12747 0.32918 0.89327 0.0
C1140 C 0.11775 0.36289 0.85553 0.0
C1141 C 0.12085 0.37274 0.82638 0.0
C1142 C 0.14678 0.37611 0.81377 0.0
C1143 C 0.14953 0.38506 0.78617 0.0
C1144 C 0.12645 0.39097 0.77104 0.0
C1145 C 0.10058 0.38802 0.78351 0.0
C1146 C 0.09773 0.37901 0.81108 0.0
C1147 C 0.08339 0.41581 0.96319 0.0
C1148 C 0.05766 0.42957 0.95779 0.0
C1149 C 0.09728 0.39808 0.94464 0.0
C1150 C 0.08521 0.39274 0.92084 0.0
C1151 C 0.05958 0.40697 0.91524 0.0
C1152 C 0.04602 0.42542 0.93346 0.0
C1153 C 0.09944 0.3724 0.90194 0.0
C1154 C 0.10215 0.38004 0.87384 0.0
C1155 C 0.11163 0.34612 0.9116 0.0
C1156 C 0.10767 0.33545 0.94052 0.0
C1157 C 0.08131 0.33565 0.95335 0.0
C1158 C 0.07768 0.32578 0.98059 0.0
C1159 C 0.10028 0.31552 0.99524 0.0
C1160 C 0.12654 0.31506 0.98265 0.0
C1161 C 0.13027 0.32491 0.9554 0.0
H1162 H 0.09744 0.30791 0.01634 0.0
H1163 H 0.12862 0.39791 0.74969 0.0
H1164 H 0.74262 0.19056 0.83633 0.0
H1165 H 0.7174 0.15902 0.86689 0.0
H1166 H 0.65288 0.16759 0.81139 0.0
H1167 H 0.67782 0.19876 0.78089 0.0
H1168 H 0.63296 0.17252 0.8642 0.0
H1169 H 0.69768 0.11054 0.81426 0.0
H1170 H 0.74366 0.09122 0.79773 0.0
H1171 H 0.76548 0.07136 0.88032 0.0
H1172 H 0.71972 0.09093 0.89736 0.0
H1173 H 0.55337 0.06732 0.90158 0.0
H1174 H 0.58718 0.09288 0.87573 0.0
H1175 H 0.64092 0.0761 0.94159 0.0
H1176 H 0.60689 0.05013 0.96781 0.0
H1177 H 0.66919 0.0759 0.88876 0.0
H1178 H 0.6037 0.13508 0.9388 0.0
H1179 H 0.5576 0.15389 0.95544 0.0
H1180 H 0.53764 0.17963 0.8733 0.0
H1181 H 0.58349 0.16052 0.8561 0.0
C1182 C 0.72305 0.18574 0.83067 0.0
C1183 C 0.7123 0.19726 0.8061 0.0
C1184 C 0.7087 0.16759 0.84811 0.0
C1185 C 0.68323 0.16075 0.84143 0.0
C1186 C 0.67243 0.17249 0.81707 0.0
C1187 C 0.68681 0.19033 0.79958 0.0
C1188 C 0.66742 0.14174 0.85974 0.0
C1189 C 0.64088 0.15136 0.86938 0.0
C1190 C 0.67792 0.11429 0.8673 0.0
C1191 C 0.7054 0.10251 0.85709 0.0
C1192 C 0.71237 0.10229 0.8289 0.0
C1193 C 0.73837 0.09125 0.81944 0.0
C1194 C 0.75751 0.08015 0.83796 0.0
C1195 C 0.75065 0.08001 0.86599 0.0
C1196 C 0.72469 0.09106 0.87557 0.0
C1197 C 0.57259 0.06852 0.91044 0.0
C1198 C 0.57728 0.0568 0.93691 0.0
C1199 C 0.59192 0.08326 0.89561 0.0
C1200 C 0.61641 0.08696 0.90688 0.0
C1201 C 0.62213 0.07365 0.93249 0.0
C1202 C 0.6027 0.05869 0.94742 0.0
C1203 C 0.63457 0.10659 0.89262 0.0
C1204 C 0.66145 0.09715 0.88382 0.0
C1205 C 0.62449 0.13434 0.88588 0.0
C1206 C 0.59698 0.14617 0.89614 0.0
C1207 C 0.58942 0.14458 0.92426 0.0
C1208 C 0.56334 0.15531 0.9338 0.0
C1209 C 0.54469 0.1679 0.91544 0.0
C1210 C 0.55211 0.16984 0.8875 0.0
C1211 C 0.57815 0.15908 0.87784 0.0
H1212 H 0.5245 0.1762 0.92286 0.0
H1213 H 0.77763 0.0716 0.83059 0.0
H1214 H 0.82849 0.72315 0.80906 0.0
H1215 H 0.85082 0.68718 0.83987 0.0
H1216 H 0.77584 0.64975 0.85296 0.0
H1217 H 0.75377 0.68494 0.82171 0.0
H1218 H 0.84439 0.66918 0.89152 0.0
H1219 H 0.78895 0.5808 0.85801 0.0
H1220 H 0.76708 0.56876 0.81771 0.0
H1221 H 0.8174 0.619 0.76556 0.0
H1222 H 0.83981 0.63103 0.80549 0.0
H1223 H 0.88671 0.55463 0.97809 0.0
H1224 H 0.85241 0.58402 0.95237 0.0
H1225 H 0.89704 0.56304 0.87693 0.0
H1226 H 0.93133 0.53398 0.90254 0.0
H1227 H 0.84201 0.5721 0.87081 0.0
H1228 H 0.91264 0.61399 0.90785 0.0
H1229 H 0.93989 0.62549 0.94449 0.0
H1230 H 0.86887 0.66979 0.98216 0.0
H1231 H 0.84078 0.65736 0.94648 0.0
C1232 C 0.81675 0.70736 0.81869 0.0
C1233 C 0.7895 0.70668 0.81266 0.0
C1234 C 0.8295 0.68685 0.83634 0.0
C1235 C 0.81516 0.66543 0.84836 0.0
C1236 C 0.78753 0.66565 0.84346 0.0
C1237 C 0.77492 0.68586 0.82562 0.0
C1238 C 0.82932 0.64223 0.865 0.0
C1239 C 0.84367 0.64797 0.88711 0.0
C1240 C 0.82885 0.61449 0.859 0.0
C1241 C 0.81582 0.60704 0.83478 0.0
C1242 C 0.79541 0.58918 0.83793 0.0
C1243 C 0.78291 0.58238 0.81515 0.0
C1244 C 0.79078 0.59319 0.7891 0.0
C1245 C 0.81125 0.61073 0.78576 0.0
C1246 C 0.82384 0.61756 0.80846 0.0
C1247 C 0.88841 0.55525 0.956 0.0
C1248 C 0.91156 0.54209 0.94221 0.0
C1249 C 0.86898 0.57226 0.94134 0.0
C1250 C 0.87248 0.57607 0.91277 0.0
C1251 C 0.89397 0.56044 0.89894 0.0
C1252 C 0.91351 0.54378 0.91356 0.0
C1253 C 0.85662 0.59906 0.89754 0.0
C1254 C 0.84217 0.5933 0.87557 0.0
C1255 C 0.85771 0.6268 0.90316 0.0
C1256 C 0.87449 0.63432 0.92471 0.0
C1257 C 0.90269 0.62578 0.92419 0.0
C1258 C 0.91828 0.63241 0.94484 0.0
C1259 C 0.90603 0.6481 0.96582 0.0
C1260 C 0.87819 0.65727 0.96613 0.0
C1261 C 0.86241 0.65037 0.94574 0.0
H1262 H 0.91813 0.65334 0.98173 0.0
H1263 H 0.78106 0.58792 0.77151 0.0
H1264 H 0.17173 0.28429 0.19312 0.0
H1265 H 0.15052 0.31944 0.16072 0.0
H1266 H 0.21845 0.3667 0.16335 0.0
H1267 H 0.23934 0.33225 0.1959 0.0
H1268 H 0.17359 0.39933 0.16733 0.0
H1269 H 0.21003 0.33003 0.10797 0.0
H1270 H 0.21815 0.28373 0.09075 0.0
H1271 H 0.13257 0.28495 0.08018 0.0
H1272 H 0.12385 0.33108 0.0978 0.0
H1273 H 0.11037 0.45243 0.02612 0.0
H1274 H 0.14625 0.42627 0.05258 0.0
H1275 H 0.09561 0.43837 0.1267 0.0
H1276 H 0.06017 0.46454 0.1005 0.0
H1277 H 0.13956 0.3784 0.07976 0.0
H1278 H 0.13228 0.43353 0.18132 0.0
H1279 H 0.12725 0.48084 0.19607 0.0
H1280 H 0.16112 0.50978 0.11796 0.0
H1281 H 0.16674 0.4626 0.10285 0.0
C1282 C 0.18215 0.30214 0.1867 0.0
C1283 C 0.20716 0.30547 0.1972 0.0
C1284 C 0.17009 0.32216 0.16808 0.0
C1285 C 0.18299 0.34568 0.15941 0.0
C1286 C 0.20804 0.34884 0.16974 0.0
C1287 C 0.21998 0.32902 0.18838 0.0
C1288 C 0.17008 0.36754 0.14031 0.0
C1289 C 0.16624 0.39474 0.14813 0.0
C1290 C 0.16113 0.36178 0.11489 0.0
C1291 C 0.16626 0.33393 0.10446 0.0
C1292 C 0.1929 0.32033 0.10222 0.0
C1293 C 0.19762 0.29412 0.09235 0.0
C1294 C 0.17589 0.28138 0.08444 0.0
C1295 C 0.14938 0.29483 0.08636 0.0
C1296 C 0.14454 0.32101 0.09628 0.0
C1297 C 0.10752 0.45054 0.04817 0.0
C1298 C 0.08262 0.46058 0.06133 0.0
C1299 C 0.12784 0.4353 0.06323 0.0
C1300 C 0.12363 0.43028 0.09164 0.0
C1301 C 0.09957 0.4422 0.1049 0.0
C1302 C 0.0793 0.4572 0.08991 0.0
C1303 C 0.14242 0.40999 0.10717 0.0
C1304 C 0.14725 0.38304 0.09878 0.0
C1305 C 0.15274 0.41607 0.13182 0.0
C1306 C 0.14977 0.4445 0.1409 0.0
C1307 C 0.13881 0.44994 0.16733 0.0
C1308 C 0.13582 0.47676 0.17575 0.0
C1309 C 0.1438 0.49831 0.15795 0.0
C1310 C 0.15487 0.49308 0.1317 0.0
C1311 C 0.15792 0.46631 0.12319 0.0
H1312 H 0.14145 0.51905 0.1645 0.0
H1313 H 0.17959 0.2611 0.07678 0.0
H1314 H 0.2315 0.69577 0.83852 0.0
H1315 H 0.20541 0.66308 0.86692 0.0
H1316 H 0.13879 0.68121 0.81421 0.0
H1317 H 0.16535 0.71267 0.78507 0.0
H1318 H 0.12643 0.67999 0.87726 0.0
H1319 H 0.16946 0.63108 0.80232 0.0
H1320 H 0.20719 0.61181 0.7717 0.0
H1321 H 0.24121 0.5618 0.83887 0.0
H1322 H 0.20462 0.58215 0.87037 0.0
H1323 H 0.03905 0.57696 0.90174 0.0
H1324 H 0.07121 0.60573 0.87798 0.0
H1325 H 0.13355 0.57053 0.93104 0.0
H1326 H 0.10105 0.54166 0.95573 0.0
H1327 H 0.15115 0.57957 0.87142 0.0
H1328 H 0.10699 0.62801 0.94622 0.0
H1329 H 0.06734 0.64556 0.97566 0.0
H1330 H 0.03355 0.69371 0.90715 0.0
H1331 H 0.07282 0.67608 0.87718 0.0
C1332 C 0.2111 0.69309 0.83331 0.0
C1333 C 0.20027 0.70707 0.8098 0.0
C1334 C 0.1963 0.67425 0.84941 0.0
C1335 C 0.17013 0.66958 0.84268 0.0
C1336 C 0.1589 0.68444 0.81985 0.0
C1337 C 0.17403 0.7025 0.80327 0.0
C1338 C 0.15459 0.64881 0.85893 0.0
C1339 C 0.13186 0.65806 0.87591 0.0
C1340 C 0.16181 0.62007 0.85755 0.0
C1341 C 0.18463 0.60879 0.8389 0.0
C1342 C 0.18544 0.61669 0.81081 0.0
C1343 C 0.20663 0.60552 0.79326 0.0
C1344 C 0.22684 0.58592 0.80343 0.0
C1345 C 0.22585 0.57741 0.83116 0.0
C1346 C 0.20496 0.58887 0.84889 0.0
C1347 C 0.05964 0.57486 0.90838 0.0
C1348 C 0.06717 0.55687 0.93101 0.0
C1349 C 0.07807 0.59151 0.89464 0.0
C1350 C 0.10477 0.59062 0.90282 0.0
C1351 C 0.11304 0.57165 0.92435 0.0
C1352 C 0.0944 0.55507 0.93842 0.0
C1353 C 0.12306 0.61079 0.88969 0.0
C1354 C 0.14613 0.60149 0.87317 0.0
C1355 C 0.11618 0.63949 0.89139 0.0
C1356 C 0.09275 0.65054 0.90941 0.0
C1357 C 0.09101 0.64219 0.93738 0.0
C1358 C 0.06862 0.65216 0.95418 0.0
C1359 C 0.04791 0.67069 0.94327 0.0
C1360 C 0.0496 0.67934 0.91556 0.0
C1361 C 0.07194 0.66939 0.89867 0.0
H1362 H 0.03057 0.67838 0.9563 0.0
H1363 H 0.2431 0.57709 0.78979 0.0
H1364 H 0.31461 0.21577 0.8113 0.0
H1365 H 0.33831 0.17828 0.83883 0.0
H1366 H 0.27304 0.12866 0.832 0.0
H1367 H 0.24908 0.16621 0.80399 0.0
H1368 H 0.29394 0.12808 0.88707 0.0
H1369 H 0.32495 0.11139 0.79518 0.0
H1370 H 0.34181 0.12406 0.74812 0.0
H1371 H 0.41371 0.14947 0.77804 0.0
H1372 H 0.39709 0.13739 0.82532 0.0
H1373 H 0.3953 0.02998 0.95428 0.0
H1374 H 0.35923 0.04722 0.92321 0.0
H1375 H 0.40514 0.1141 0.89353 0.0
H1376 H 0.44068 0.09725 0.92356 0.0
H1377 H 0.38678 0.09204 0.8521 0.0
H1378 H 0.34992 0.12103 0.94246 0.0
H1379 H 0.33335 0.11122 0.99027 0.0
H1380 H 0.27355 0.06408 0.96358 0.0
H1381 H 0.29 0.07341 0.91562 0.0
C1382 C 0.30512 0.197 0.81573 0.0
C1383 C 0.28 0.19396 0.8053 0.0
C1384 C 0.31874 0.17556 0.83144 0.0
C1385 C 0.30752 0.15064 0.83723 0.0
C1386 C 0.28203 0.14773 0.82769 0.0
C1387 C 0.26844 0.16917 0.81165 0.0
C1388 C 0.32328 0.12767 0.85257 0.0
C1389 C 0.31399 0.11963 0.87925 0.0
C1390 C 0.34937 0.11663 0.8423 0.0
C1391 C 0.3597 0.12355 0.81383 0.0
C1392 C 0.34428 0.11982 0.79174 0.0
C1393 C 0.35381 0.12689 0.76502 0.0
C1394 C 0.37881 0.13758 0.76009 0.0
C1395 C 0.39436 0.14117 0.78188 0.0
C1396 C 0.38491 0.13417 0.80865 0.0
C1397 C 0.39762 0.04833 0.94108 0.0
C1398 C 0.42106 0.06206 0.94139 0.0
C1399 C 0.37702 0.05814 0.92334 0.0
C1400 C 0.37955 0.08191 0.90588 0.0
C1401 C 0.40283 0.09553 0.90644 0.0
C1402 C 0.42322 0.0858 0.92383 0.0
C1403 C 0.35822 0.09382 0.88723 0.0
C1404 C 0.3664 0.09972 0.85971 0.0
C1405 C 0.33129 0.10305 0.89683 0.0
C1406 C 0.32136 0.09764 0.92556 0.0
C1407 C 0.33335 0.10844 0.94684 0.0
C1408 C 0.32397 0.10299 0.97394 0.0
C1409 C 0.30246 0.08697 0.97996 0.0
C1410 C 0.29024 0.07643 0.95889 0.0
C1411 C 0.29957 0.0818 0.93175 0.0
H1412 H 0.29523 0.08276 1.00095 0.0
H1413 H 0.38614 0.14305 0.73938 0.0
H1414 H 0.81228 0.30341 0.87559 0.0
H1415 H 0.84073 0.32779 0.9021 0.0
H1416 H 0.90989 0.30722 0.84588 0.0
H1417 H 0.88157 0.28181 0.8201 0.0
H1418 H 0.92706 0.30721 0.89471 0.0
H1419 H 0.87038 0.3694 0.83893 0.0
H1420 H 0.8273 0.38981 0.81977 0.0
H1421 H 0.79551 0.41296 0.89918 0.0
H1422 H 0.83832 0.39232 0.91892 0.0
H1423 H 0.95619 0.45426 0.93192 0.0
H1424 H 0.9358 0.42457 0.90327 0.0
H1425 H 0.94125 0.35947 0.96727 0.0
H1426 H 0.96209 0.38862 0.99569 0.0
H1427 H 0.88987 0.40364 0.90968 0.0
H1428 H 0.94934 0.29789 0.94239 0.0
H1429 H 0.99588 0.27915 0.95408 0.0
H1430 H 0.02837 0.34738 0.90851 0.0
H1431 H 0.98211 0.36644 0.89651 0.0
C1432 C 0.83376 0.3035 0.86947 0.0
C1433 C 0.84495 0.29073 0.84607 0.0
C1434 C 0.84992 0.31761 0.88439 0.0
C1435 C 0.8773 0.31988 0.87561 0.0
C1436 C 0.88883 0.30581 0.85301 0.0
C1437 C 0.87273 0.2913 0.83833 0.0
C1438 C 0.89323 0.33847 0.88883 0.0
C1439 C 0.91891 0.32826 0.89805 0.0
C1440 C 0.88312 0.36631 0.89222 0.0
C1441 C 0.85749 0.37915 0.88043 0.0
C1442 C 0.85415 0.37873 0.85234 0.0
C1443 C 0.82979 0.39033 0.84137 0.0
C1444 C 0.80869 0.40266 0.85825 0.0
C1445 C 0.8119 0.40341 0.88614 0.0
C1446 C 0.83622 0.39179 0.89723 0.0
C1447 C 0.95328 0.43354 0.93979 0.0
C1448 C 0.96084 0.42384 0.96609 0.0
C1449 C 0.94158 0.4166 0.92341 0.0
C1450 C 0.93721 0.38969 0.93299 0.0
C1451 C 0.94491 0.37994 0.95917 0.0
C1452 C 0.95675 0.39674 0.97546 0.0
C1453 C 0.92339 0.37216 0.9163 0.0
C1454 C 0.89807 0.38259 0.90637 0.0
C1455 C 0.93434 0.3449 0.91131 0.0
C1456 C 0.96222 0.33367 0.91873 0.0
C1457 C 0.96643 0.30886 0.93486 0.0
C1458 C 0.99276 0.29821 0.94158 0.0
C1459 C 0.01507 0.31209 0.93213 0.0
C1460 C 0.01109 0.3367 0.91598 0.0
C1461 C 0.9848 0.34748 0.90927 0.0
H1462 H 0.03543 0.30369 0.93724 0.0
H1463 H 0.78989 0.4117 0.84969 0.0
H1464 H 0.66585 0.78155 0.80888 0.0
H1465 H 0.63469 0.8099 0.83876 0.0
H1466 H 0.69836 0.86067 0.84886 0.0
H1467 H 0.72949 0.83279 0.81844 0.0
H1468 H 0.63392 0.82059 0.88968 0.0
H1469 H 0.6719 0.92623 0.85509 0.0
H1470 H 0.69144 0.94977 0.81346 0.0
H1471 H 0.65464 0.89779 0.76387 0.0
H1472 H 0.63481 0.87413 0.80513 0.0
H1473 H 0.58227 0.91285 0.98687 0.0
H1474 H 0.61207 0.8862 0.95461 0.0
H1475 H 0.56966 0.9295 0.88771 0.0
H1476 H 0.54078 0.95756 0.92015 0.0
H1477 H 0.62004 0.92202 0.87268 0.0
H1478 H 0.55777 0.86145 0.91417 0.0
H1479 H 0.53275 0.83792 0.95242 0.0
H1480 H 0.60841 0.79881 0.98171 0.0
H1481 H 0.6339 0.82233 0.94379 0.0
C1482 C 0.67328 0.7987 0.81752 0.0
C1483 C 0.70013 0.80499 0.81117 0.0
C1484 C 0.65543 0.81487 0.83464 0.0
C1485 C 0.66404 0.83766 0.84577 0.0
C1486 C 0.69107 0.84353 0.84007 0.0
C1487 C 0.7089 0.82746 0.82281 0.0
C1488 C 0.64474 0.85523 0.86335 0.0
C1489 C 0.63087 0.84276 0.88594 0.0
C1490 C 0.64017 0.8841 0.85813 0.0
C1491 C 0.65211 0.89824 0.83321 0.0
C1492 C 0.66797 0.91987 0.83529 0.0
C1493 C 0.67913 0.93321 0.81175 0.0
C1494 C 0.6744 0.92522 0.78602 0.0
C1495 C 0.65847 0.90388 0.78378 0.0
C1496 C 0.64731 0.89046 0.80724 0.0
C1497 C 0.57932 0.91668 0.96525 0.0
C1498 C 0.55904 0.93697 0.95592 0.0
C1499 C 0.59628 0.90134 0.94682 0.0
C1500 C 0.59265 0.90521 0.91871 0.0
C1501 C 0.57276 0.92598 0.9093 0.0
C1502 C 0.55624 0.94194 0.92777 0.0
C1503 C 0.60955 0.88744 0.89932 0.0
C1504 C 0.62301 0.89985 0.87641 0.0
C1505 C 0.61301 0.85839 0.9037 0.0
C1506 C 0.59773 0.84376 0.92622 0.0
C1507 C 0.56907 0.84788 0.92882 0.0
C1508 C 0.55481 0.83455 0.95044 0.0
C1509 C 0.56899 0.8169 0.9695 0.0
C1510 C 0.59745 0.81246 0.96692 0.0
C1511 C 0.61182 0.82575 0.94534 0.0
H1512 H 0.55791 0.80664 0.98625 0.0
H1513 H 0.68302 0.93562 0.76784 0.0
H1514 H 0.78146 0.68484 0.18759 0.0
H1515 H 0.81136 0.65669 0.15703 0.0
H1516 H 0.87708 0.70483 0.16726 0.0
H1517 H 0.84705 0.73311 0.19877 0.0
H1518 H 0.83466 0.66793 0.10992 0.0
H1519 H 0.9383 0.66295 0.15834 0.0
H1520 H 0.95653 0.66426 0.20353 0.0
H1521 H 0.88426 0.63401 0.24219 0.0
H1522 H 0.86571 0.63238 0.19725 0.0
H1523 H 0.93653 0.61061 0.01734 0.0
H1524 H 0.9128 0.64048 0.05078 0.0
H1525 H 0.91479 0.57224 0.11138 0.0
H1526 H 0.93897 0.54201 0.07795 0.0
H1527 H 0.92427 0.61901 0.13364 0.0
H1528 H 0.85983 0.59153 0.07667 0.0
H1529 H 0.83961 0.58519 0.03359 0.0
H1530 H 0.82771 0.67262 0.01634 0.0
H1531 H 0.84898 0.67949 0.05871 0.0
C1532 C 0.80226 0.6896 0.18347 0.0
C1533 C 0.81179 0.71137 0.1957 0.0
C1534 C 0.81938 0.67342 0.16584 0.0
C1535 C 0.84658 0.67844 0.15982 0.0
C1536 C 0.85627 0.70028 0.17181 0.0
C1537 C 0.83904 0.71658 0.18967 0.0
C1538 C 0.86417 0.66091 0.14053 0.0
C1539 C 0.85435 0.65744 0.11507 0.0
C1540 C 0.88967 0.6467 0.14733 0.0
C1541 C 0.9005 0.64789 0.17446 0.0
C1542 C 0.92631 0.65662 0.1765 0.0
C1543 C 0.93668 0.65743 0.20207 0.0
C1544 C 0.92148 0.6494 0.22574 0.0
C1545 C 0.89593 0.64043 0.22387 0.0
C1546 C 0.88544 0.63963 0.19836 0.0
C1547 C 0.93206 0.60182 0.03778 0.0
C1548 C 0.93939 0.5737 0.04478 0.0
C1549 C 0.91848 0.61903 0.05692 0.0
C1550 C 0.91168 0.60858 0.08353 0.0
C1551 C 0.91979 0.58077 0.09096 0.0
C1552 C 0.93346 0.56346 0.07176 0.0
C1553 C 0.89482 0.62638 0.103 0.0
C1554 C 0.90475 0.62985 0.12839 0.0
C1555 C 0.86905 0.64012 0.09643 0.0
C1556 C 0.85641 0.63601 0.07074 0.0
C1557 C 0.85331 0.60941 0.0635 0.0
C1558 C 0.84167 0.60572 0.03917 0.0
C1559 C 0.83255 0.62848 0.02214 0.0
C1560 C 0.83497 0.65499 0.02945 0.0
C1561 C 0.84693 0.6588 0.05356 0.0
H1562 H 0.82353 0.6256 0.00332 0.0
H1563 H 0.92954 0.65005 0.24552 0.0
H1564 H 0.31989 0.81135 0.21444 0.0
H1565 H 0.34386 0.84444 0.18567 0.0
H1566 H 0.28078 0.85209 0.12858 0.0
H1567 H 0.25675 0.8181 0.15724 0.0
H1568 H 0.33008 0.85211 0.10157 0.0
H1569 H 0.284 0.90212 0.17368 0.0
H1570 H 0.26935 0.91106 0.2214 0.0
H1571 H 0.3527 0.91293 0.23963 0.0
H1572 H 0.36791 0.90359 0.19211 0.0
H1573 H 0.39309 0.96609 0.03454 0.0
H1574 H 0.35772 0.94092 0.0593 0.0
H1575 H 0.41047 0.91903 0.12544 0.0
H1576 H 0.44545 0.94423 0.10117 0.0
H1577 H 0.35923 0.93083 0.14514 0.0
H1578 H 0.40497 0.8755 0.07415 0.0
H1579 H 0.41953 0.86635 0.02642 0.0
H1580 H 0.33587 0.87526 0.00589 0.0
H1581 H 0.32083 0.88489 0.05343 0.0
C1582 C 0.31101 0.81992 0.19574 0.0
C1583 C 0.28618 0.81211 0.18834 0.0
C1584 C 0.32476 0.83906 0.1793 0.0
C1585 C 0.31394 0.85139 0.15514 0.0
C1586 C 0.28953 0.84308 0.14719 0.0
C1587 C 0.27577 0.82366 0.16362 0.0
C1588 C 0.32822 0.87304 0.13867 0.0
C1589 C 0.33596 0.86961 0.11099 0.0
C1590 C 0.33619 0.89591 0.15082 0.0
C1591 C 0.32711 0.90199 0.17934 0.0
C1592 C 0.29923 0.9043 0.18789 0.0
C1593 C 0.29082 0.90945 0.21491 0.0
C1594 C 0.31008 0.91252 0.23355 0.0
C1595 C 0.3378 0.91054 0.22518 0.0
C1596 C 0.34632 0.90536 0.19818 0.0
C1597 C 0.39685 0.95649 0.05466 0.0
C1598 C 0.4222 0.95717 0.0658 0.0
C1599 C 0.37672 0.94181 0.06868 0.0
C1600 C 0.38151 0.92759 0.09413 0.0
C1601 C 0.40619 0.92965 0.10585 0.0
C1602 C 0.42626 0.9441 0.09187 0.0
C1603 C 0.36174 0.90948 0.1083 0.0
C1604 C 0.35296 0.91358 0.1356 0.0
C1605 C 0.35276 0.88734 0.09574 0.0
C1606 C 0.3618 0.88124 0.06726 0.0
C1607 C 0.38969 0.8757 0.05941 0.0
C1608 C 0.39803 0.87041 0.0324 0.0
C1609 C 0.37864 0.8703 0.01312 0.0
C1610 C 0.35087 0.87541 0.02083 0.0
C1611 C 0.34243 0.88078 0.0478 0.0
H1612 H 0.38513 0.86617 0.99225 0.0
H1613 H 0.30353 0.91647 0.25446 0.0
H1614 H 0.71664 0.18241 0.12903 0.0
H1615 H 0.68846 0.15908 0.10096 0.0
H1616 H 0.65787 0.11415 0.1731 0.0
H1617 H 0.68567 0.13764 0.20111 0.0
H1618 H 0.66842 0.08214 0.12689 0.0
H1619 H 0.62144 0.16923 0.1523 0.0
H1620 H 0.61674 0.21945 0.15556 0.0
H1621 H 0.62564 0.23147 0.06824 0.0
H1622 H 0.63084 0.18125 0.06449 0.0
H1623 H 0.54817 0.04165 0.07764 0.0
H1624 H 0.5809 0.05977 0.10461 0.0
H1625 H 0.59756 0.1192 0.03815 0.0
H1626 H 0.56408 0.10211 0.0118 0.0
H1627 H 0.59549 0.1433 0.08159 0.0
H1628 H 0.64071 0.05631 0.05525 0.0
H1629 H 0.64856 0.00612 0.05162 0.0
H1630 H 0.64528 0.99333 0.13894 0.0
H1631 H 0.63686 0.04341 0.14314 0.0
C1632 C 0.70442 0.16703 0.1387 0.0
C1633 C 0.70327 0.16176 0.16716 0.0
C1634 C 0.68823 0.15386 0.12274 0.0
C1635 C 0.67089 0.13507 0.13501 0.0
C1636 C 0.67109 0.12855 0.16322 0.0
C1637 C 0.68694 0.14196 0.17918 0.0
C1638 C 0.65088 0.1239 0.11897 0.0
C1639 C 0.65231 0.0954 0.11709 0.0
C1640 C 0.63017 0.14131 0.10591 0.0
C1641 C 0.62684 0.17149 0.10813 0.0
C1642 C 0.62264 0.18258 0.13381 0.0
C1643 C 0.61984 0.21104 0.13575 0.0
C1644 C 0.62097 0.22864 0.11213 0.0
C1645 C 0.62482 0.21781 0.08652 0.0
C1646 C 0.62769 0.18935 0.08448 0.0
C1647 C 0.55864 0.05875 0.06892 0.0
C1648 C 0.55337 0.07051 0.04262 0.0
C1649 C 0.5776 0.06893 0.08425 0.0
C1650 C 0.59223 0.09058 0.0733 0.0
C1651 C 0.58663 0.10252 0.04717 0.0
C1652 C 0.56736 0.09274 0.0321 0.0
C1653 C 0.61302 0.10127 0.089 0.0
C1654 C 0.61165 0.12982 0.09107 0.0
C1655 C 0.6339 0.08382 0.10204 0.0
C1656 C 0.63792 0.05365 0.0995 0.0
C1657 C 0.64131 0.0428 0.07368 0.0
C1658 C 0.64591 0.01437 0.07153 0.0
C1659 C 0.64745 0.9966 0.09504 0.0
C1660 C 0.64408 0.00716 0.12076 0.0
C1661 C 0.63938 0.03555 0.12304 0.0
H1662 H 0.6515 0.97467 0.09337 0.0
H1663 H 0.61879 0.25067 0.11367 0.0
H1664 H 0.67199 0.63029 0.77241 0.0
H1665 H 0.63708 0.60415 0.79519 0.0
H1666 H 0.57553 0.67183 0.7773 0.0
H1667 H 0.611 0.69827 0.75475 0.0
H1668 H 0.57606 0.66121 0.82936 0.0
H1669 H 0.56887 0.60551 0.75782 0.0
H1670 H 0.58307 0.57714 0.71898 0.0
H1671 H 0.62818 0.51747 0.77162 0.0
H1672 H 0.61466 0.54563 0.81071 0.0
H1673 H 0.50899 0.57393 0.93389 0.0
H1674 H 0.51697 0.5996 0.88991 0.0
H1675 H 0.60097 0.56392 0.88599 0.0
H1676 H 0.59346 0.53853 0.92973 0.0
H1677 H 0.57172 0.56051 0.83747 0.0
H1678 H 0.58815 0.62519 0.90412 0.0
H1679 H 0.57363 0.6539 0.94269 0.0
H1680 H 0.50901 0.69691 0.8971 0.0
H1681 H 0.52304 0.66824 0.85837 0.0
C1682 C 0.65082 0.63897 0.77216 0.0
C1683 C 0.64399 0.66607 0.76186 0.0
C1684 C 0.63077 0.62402 0.78511 0.0
C1685 C 0.60356 0.63597 0.78795 0.0
C1686 C 0.59636 0.66218 0.77526 0.0
C1687 C 0.61652 0.67718 0.76225 0.0
C1688 C 0.58476 0.6235 0.80883 0.0
C1689 C 0.57424 0.63934 0.83062 0.0
C1690 C 0.58242 0.59496 0.81068 0.0
C1691 C 0.59071 0.57778 0.78725 0.0
C1692 C 0.58196 0.58643 0.76111 0.0
C1693 C 0.58988 0.57036 0.73903 0.0
C1694 C 0.60651 0.54552 0.74283 0.0
C1695 C 0.61525 0.53669 0.76872 0.0
C1696 C 0.6074 0.55268 0.79087 0.0
C1697 C 0.52926 0.57186 0.92385 0.0
C1698 C 0.55063 0.55419 0.93536 0.0
C1699 C 0.53368 0.58638 0.89868 0.0
C1700 C 0.55945 0.58329 0.88472 0.0
C1701 C 0.58086 0.56623 0.89641 0.0
C1702 C 0.57658 0.55197 0.92156 0.0
C1703 C 0.56479 0.59804 0.85807 0.0
C1704 C 0.57266 0.58254 0.83547 0.0
C1705 C 0.5645 0.62688 0.85535 0.0
C1706 C 0.55629 0.64424 0.87856 0.0
C1707 C 0.57066 0.64057 0.90244 0.0
C1708 C 0.56259 0.65689 0.9243 0.0
C1709 C 0.54032 0.67712 0.9224 0.0
C1710 C 0.52618 0.68116 0.89859 0.0
C1711 C 0.53418 0.66488 0.87668 0.0
H1712 H 0.53409 0.68974 0.93934 0.0
H1713 H 0.61263 0.53312 0.72571 0.0
H1714 H 0.2992 0.653 0.76766 0.0
H1715 H 0.33017 0.62004 0.79388 0.0
H1716 H 0.36674 0.687 0.82296 0.0
H1717 H 0.33569 0.72 0.7972 0.0
H1718 H 0.40489 0.6428 0.80923 0.0
H1719 H 0.31938 0.66119 0.85927 0.0
H1720 H 0.26965 0.66387 0.86907 0.0
H1721 H 0.27334 0.57626 0.86709 0.0
H1722 H 0.3228 0.57319 0.85556 0.0
H1723 H 0.45255 0.58661 0.93912 0.0
H1724 H 0.43046 0.61394 0.90125 0.0
H1725 H 0.40513 0.54026 0.87326 0.0
H1726 H 0.42799 0.51281 0.9107 0.0
H1727 H 0.3624 0.58482 0.88342 0.0
H1728 H 0.45005 0.56744 0.83667 0.0
H1729 H 0.49969 0.56686 0.82695 0.0
H1730 H 0.4921 0.65486 0.8264 0.0
H1731 H 0.4426 0.65599 0.83722 0.0
C1732 C 0.31417 0.66065 0.77926 0.0
C1733 C 0.31495 0.68906 0.78053 0.0
C1734 C 0.33175 0.64182 0.79429 0.0
C1735 C 0.35056 0.65113 0.81051 0.0
C1736 C 0.35237 0.67942 0.81057 0.0
C1737 C 0.33455 0.69823 0.79593 0.0
C1738 C 0.36712 0.63165 0.82889 0.0
C1739 C 0.39566 0.63021 0.82558 0.0
C1740 C 0.3549 0.61505 0.84996 0.0
C1741 C 0.32485 0.61703 0.85591 0.0
C1742 C 0.30953 0.64255 0.86018 0.0
C1743 C 0.28132 0.64415 0.86602 0.0
C1744 C 0.26823 0.62029 0.86831 0.0
C1745 C 0.28335 0.5948 0.86477 0.0
C1746 C 0.31147 0.59313 0.85845 0.0
C1747 C 0.44265 0.57632 0.92453 0.0
C1748 C 0.44186 0.54779 0.92755 0.0
C1749 C 0.43015 0.59185 0.90295 0.0
C1750 C 0.41627 0.57906 0.88446 0.0
C1751 C 0.41588 0.55043 0.88726 0.0
C1752 C 0.4289 0.53482 0.90852 0.0
C1753 C 0.40019 0.59593 0.86376 0.0
C1754 C 0.37166 0.59708 0.86681 0.0
C1755 C 0.41243 0.61259 0.84279 0.0
C1756 C 0.44252 0.61177 0.83803 0.0
C1757 C 0.45899 0.58665 0.83509 0.0
C1758 C 0.48714 0.58622 0.82933 0.0
C1759 C 0.49901 0.61081 0.82612 0.0
C1760 C 0.48288 0.63583 0.82907 0.0
C1761 C 0.45479 0.63637 0.83507 0.0
H1762 H 0.52064 0.61053 0.82101 0.0
H1763 H 0.24644 0.62154 0.87308 0.0
H1764 H 0.3066 0.35901 0.83933 0.0
H1765 H 0.33733 0.38084 0.86512 0.0
H1766 H 0.40505 0.35362 0.80983 0.0
H1767 H 0.3742 0.33105 0.78408 0.0
H1768 H 0.41753 0.34293 0.86259 0.0
H1769 H 0.38209 0.42087 0.80875 0.0
H1770 H 0.34757 0.45364 0.78637 0.0
H1771 H 0.31031 0.47454 0.8646 0.0
H1772 H 0.34433 0.44157 0.88748 0.0
H1773 H 0.49207 0.43299 0.93663 0.0
H1774 H 0.4742 0.40806 0.90168 0.0
H1775 H 0.3948 0.41589 0.94438 0.0
H1776 H 0.41227 0.44079 0.97912 0.0
H1777 H 0.39615 0.43859 0.88999 0.0
H1778 H 0.43118 0.35614 0.94282 0.0
H1779 H 0.46724 0.32394 0.96349 0.0
H1780 H 0.50757 0.31259 0.88435 0.0
H1781 H 0.472 0.34514 0.86324 0.0
C1782 C 0.328 0.3578 0.83254 0.0
C1783 C 0.33803 0.34325 0.80976 0.0
C1784 C 0.34553 0.37046 0.84717 0.0
C1785 C 0.37347 0.36906 0.83928 0.0
C1786 C 0.38354 0.35501 0.81621 0.0
C1787 C 0.3659 0.34235 0.80142 0.0
C1788 C 0.39195 0.38123 0.85623 0.0
C1789 C 0.41328 0.36404 0.86814 0.0
C1790 C 0.38637 0.40874 0.86348 0.0
C1791 C 0.36572 0.42859 0.84984 0.0
C1792 C 0.36641 0.43228 0.8212 0.0
C1793 C 0.34695 0.45093 0.80842 0.0
C1794 C 0.32674 0.46613 0.82405 0.0
C1795 C 0.32597 0.46274 0.85251 0.0
C1796 C 0.34537 0.4441 0.8654 0.0
C1797 C 0.47105 0.42854 0.93906 0.0
C1798 C 0.45347 0.43903 0.96052 0.0
C1799 C 0.46088 0.4144 0.91901 0.0
C1800 C 0.43316 0.41039 0.92037 0.0
C1801 C 0.41621 0.419 0.94287 0.0
C1802 C 0.42625 0.43312 0.96277 0.0
C1803 C 0.42077 0.39993 0.89729 0.0
C1804 C 0.4007 0.41761 0.88408 0.0
C1805 C 0.4278 0.37304 0.88869 0.0
C1806 C 0.44916 0.3535 0.90149 0.0
C1807 C 0.44793 0.3471 0.92985 0.0
C1808 C 0.46824 0.32869 0.94164 0.0
C1809 C 0.48975 0.31632 0.92526 0.0
C1810 C 0.49091 0.32221 0.89703 0.0
C1811 C 0.47067 0.34063 0.88514 0.0
H1812 H 0.50546 0.30208 0.93443 0.0
H1813 H 0.31169 0.48057 0.81412 0.0
H1814 H 0.72459 0.3455 0.77452 0.0
H1815 H 0.69363 0.37767 0.80102 0.0
H1816 H 0.6337 0.3197 0.8091 0.0
H1817 H 0.66373 0.28886 0.78047 0.0
H1818 H 0.60743 0.36591 0.80961 0.0
H1819 H 0.68438 0.32467 0.85768 0.0
H1820 H 0.73312 0.31241 0.86567 0.0
H1821 H 0.7438 0.39788 0.86645 0.0
H1822 H 0.6953 0.41067 0.85779 0.0
H1823 H 0.5889 0.41442 0.9586 0.0
H1824 H 0.61281 0.38723 0.92308 0.0
H1825 H 0.57578 0.44383 0.86138 0.0
H1826 H 0.55103 0.4708 0.89708 0.0
H1827 H 0.65 0.39909 0.88727 0.0
H1828 H 0.57045 0.4098 0.8038 0.0
H1829 H 0.52035 0.41463 0.8018 0.0
H1830 H 0.51248 0.3766 0.88298 0.0
H1831 H 0.56232 0.37079 0.88512 0.0
C1832 C 0.70446 0.34014 0.78136 0.0
C1833 C 0.69639 0.31488 0.7756 0.0
C1834 C 0.68688 0.35833 0.79674 0.0
C1835 C 0.66161 0.35079 0.80795 0.0
C1836 C 0.65305 0.32607 0.80086 0.0
C1837 C 0.6702 0.30841 0.78455 0.0
C1838 C 0.64514 0.36738 0.82869 0.0
C1839 C 0.61681 0.37325 0.8265 0.0
C1840 C 0.65708 0.37633 0.85135 0.0
C1841 C 0.68626 0.36864 0.85676 0.0
C1842 C 0.69718 0.34086 0.85935 0.0
C1843 C 0.72478 0.33381 0.86397 0.0
C1844 C 0.7416 0.35435 0.86642 0.0
C1845 C 0.73081 0.38198 0.86437 0.0
C1846 C 0.70327 0.38915 0.85959 0.0
C1847 C 0.58563 0.42098 0.93747 0.0
C1848 C 0.56814 0.44482 0.93064 0.0
C1849 C 0.59941 0.40546 0.91717 0.0
C1850 C 0.59624 0.41348 0.88952 0.0
C1851 C 0.57835 0.43702 0.88257 0.0
C1852 C 0.5642 0.45242 0.90298 0.0
C1853 C 0.61239 0.39755 0.86819 0.0
C1854 C 0.64068 0.39189 0.87026 0.0
C1855 C 0.6002 0.38757 0.84633 0.0
C1856 C 0.57014 0.39023 0.84474 0.0
C1857 C 0.558 0.4023 0.82113 0.0
C1858 C 0.52961 0.40516 0.81996 0.0
C1859 C 0.51317 0.39595 0.84226 0.0
C1860 C 0.52512 0.3837 0.86569 0.0
C1861 C 0.55344 0.38061 0.86688 0.0
H1862 H 0.49121 0.39829 0.8414 0.0
H1863 H 0.76296 0.34887 0.87 0.0
H1864 H 0.68405 0.28583 0.20107 0.0
H1865 H 0.65382 0.32077 0.17738 0.0
H1866 H 0.66321 0.37797 0.23749 0.0
H1867 H 0.69445 0.34297 0.26116 0.0
H1868 H 0.60703 0.34722 0.18892 0.0
H1869 H 0.65765 0.44402 0.20455 0.0
H1870 H 0.70234 0.4584 0.21295 0.0
H1871 H 0.74304 0.38682 0.17633 0.0
H1872 H 0.69862 0.37219 0.16749 0.0
H1873 H 0.53322 0.45987 0.11297 0.0
H1874 H 0.55505 0.43411 0.15185 0.0
H1875 H 0.63091 0.42274 0.10296 0.0
H1876 H 0.60954 0.44805 0.06439 0.0
H1877 H 0.63946 0.43576 0.15365 0.0
H1878 H 0.58924 0.37428 0.11053 0.0
H1879 H 0.54894 0.35622 0.09495 0.0
H1880 H 0.51422 0.35116 0.17738 0.0
H1881 H 0.55374 0.36995 0.19325 0.0
C1882 C 0.67964 0.30575 0.20947 0.0
C1883 C 0.69184 0.31163 0.23296 0.0
C1884 C 0.66219 0.32574 0.1959 0.0
C1885 C 0.65634 0.35212 0.20547 0.0
C1886 C 0.66771 0.35788 0.22949 0.0
C1887 C 0.68543 0.33782 0.24308 0.0
C1888 C 0.63902 0.3734 0.18942 0.0
C1889 C 0.61397 0.36678 0.18156 0.0
C1890 C 0.64803 0.39889 0.17963 0.0
C1891 C 0.67482 0.40684 0.18575 0.0
C1892 C 0.67616 0.43131 0.19842 0.0
C1893 C 0.70142 0.43952 0.2032 0.0
C1894 C 0.7255 0.42352 0.19523 0.0
C1895 C 0.72437 0.39916 0.18259 0.0
C1896 C 0.69915 0.39086 0.17775 0.0
C1897 C 0.55457 0.45199 0.1106 0.0
C1898 C 0.56951 0.45577 0.08543 0.0
C1899 C 0.56701 0.43731 0.13282 0.0
C1900 C 0.59461 0.4265 0.13027 0.0
C1901 C 0.60964 0.431 0.10546 0.0
C1902 C 0.59726 0.44531 0.0833 0.0
C1903 C 0.60795 0.40915 0.15262 0.0
C1904 C 0.63214 0.41659 0.16174 0.0
C1905 C 0.59863 0.384 0.16288 0.0
C1906 C 0.57422 0.37397 0.15302 0.0
C1907 C 0.57273 0.3698 0.12524 0.0
C1908 C 0.55003 0.35936 0.11635 0.0
C1909 C 0.52891 0.3526 0.13511 0.0
C1910 C 0.53039 0.35649 0.16277 0.0
C1911 C 0.5529 0.36713 0.17172 0.0
H1912 H 0.5115 0.34423 0.12823 0.0
H1913 H 0.74502 0.4301 0.19871 0.0
H1914 H 0.62087 0.6852 0.22171 0.0
H1915 H 0.58964 0.66639 0.1931 0.0
H1916 H 0.65857 0.63076 0.14396 0.0
H1917 H 0.68961 0.64887 0.17253 0.0
H1918 H 0.61914 0.66563 0.11418 0.0
H1919 H 0.6253 0.59064 0.18524 0.0
H1920 H 0.61932 0.5708 0.23252 0.0
H1921 H 0.53355 0.59819 0.23378 0.0
H1922 H 0.53918 0.6185 0.18659 0.0
H1923 H 0.59544 0.56029 0.03578 0.0
H1924 H 0.60816 0.59209 0.06703 0.0
H1925 H 0.52455 0.6058 0.09906 0.0
H1926 H 0.51157 0.57381 0.06782 0.0
H1927 H 0.55962 0.59188 0.13932 0.0
H1928 H 0.55201 0.65816 0.06508 0.0
H1929 H 0.55748 0.67702 0.01743 0.0
H1930 H 0.64453 0.66705 0.02165 0.0
H1931 H 0.63965 0.64769 0.06919 0.0
C1932 C 0.62927 0.67275 0.20522 0.0
C1933 C 0.65761 0.66874 0.19908 0.0
C1934 C 0.61146 0.66223 0.18882 0.0
C1935 C 0.62188 0.64762 0.16621 0.0
C1936 C 0.65017 0.64235 0.16109 0.0
C1937 C 0.66785 0.65264 0.17744 0.0
C1938 C 0.60379 0.63873 0.14679 0.0
C1939 C 0.60608 0.64952 0.11961 0.0
C1940 C 0.58591 0.61862 0.15423 0.0
C1941 C 0.5827 0.60648 0.18259 0.0
C1942 C 0.60523 0.59271 0.19572 0.0
C1943 C 0.6019 0.58131 0.22247 0.0
C1944 C 0.5761 0.58334 0.2362 0.0
C1945 C 0.55355 0.5967 0.22317 0.0
C1946 C 0.55679 0.60816 0.19643 0.0
C1947 C 0.57963 0.57049 0.04904 0.0
C1948 C 0.55255 0.56445 0.04935 0.0
C1949 C 0.5869 0.58877 0.06684 0.0
C1950 C 0.56725 0.60141 0.08528 0.0
C1951 C 0.53997 0.59632 0.08492 0.0
C1952 C 0.53261 0.57816 0.06693 0.0
C1953 C 0.57611 0.61776 0.10638 0.0
C1954 C 0.57203 0.60854 0.13391 0.0
C1955 C 0.5923 0.63942 0.09928 0.0
C1956 C 0.59544 0.65137 0.07074 0.0
C1957 C 0.57234 0.65983 0.05581 0.0
C1958 C 0.57534 0.67063 0.02881 0.0
C1959 C 0.60134 0.67321 0.01651 0.0
C1960 C 0.6244 0.66506 0.03122 0.0
C1961 C 0.62152 0.65422 0.05822 0.0
H1962 H 0.60361 0.68155 0.9956 0.0
H1963 H 0.57356 0.57448 0.2569 0.0
H1964 H 0.28133 0.68935 0.18556 0.0
H1965 H 0.31429 0.65501 0.1652 0.0
H1966 H 0.36646 0.6568 0.23148 0.0
H1967 H 0.33355 0.6922 0.25184 0.0
H1968 H 0.39612 0.65604 0.18417 0.0
H1969 H 0.33114 0.60118 0.22694 0.0
H1970 H 0.2857 0.58718 0.24122 0.0
H1971 H 0.27007 0.5799 0.15758 0.0
H1972 H 0.31523 0.59425 0.14273 0.0
H1973 H 0.47152 0.5427 0.11152 0.0
H1974 H 0.44785 0.56833 0.14892 0.0
H1975 H 0.38094 0.59531 0.09823 0.0
H1976 H 0.40399 0.5702 0.06118 0.0
H1977 H 0.36415 0.574 0.14929 0.0
H1978 H 0.4296 0.63541 0.10851 0.0
H1979 H 0.47635 0.64719 0.09684 0.0
H1980 H 0.49277 0.63898 0.18169 0.0
H1981 H 0.44649 0.62622 0.19377 0.0
C1982 C 0.29968 0.6824 0.19603 0.0
C1983 C 0.3047 0.69347 0.22045 0.0
C1984 C 0.31851 0.66258 0.18439 0.0
C1985 C 0.34266 0.65286 0.19705 0.0
C1986 C 0.34789 0.66386 0.22143 0.0
C1987 C 0.32903 0.68399 0.23308 0.0
C1988 C 0.36245 0.63184 0.18394 0.0
C1989 C 0.38935 0.6377 0.17713 0.0
C1990 C 0.3538 0.60774 0.17495 0.0
C1991 C 0.32659 0.5989 0.18372 0.0
C1992 C 0.31796 0.59675 0.21157 0.0
C1993 C 0.29225 0.58873 0.21977 0.0
C1994 C 0.275 0.58267 0.20032 0.0
C1995 C 0.28346 0.58457 0.17263 0.0
C1996 C 0.30914 0.5926 0.16431 0.0
C1997 C 0.45184 0.55423 0.10831 0.0
C1998 C 0.43972 0.55427 0.08325 0.0
C1999 C 0.43837 0.56885 0.1297 0.0
C2000 C 0.4126 0.58362 0.12635 0.0
C2001 C 0.40072 0.58388 0.10133 0.0
C2002 C 0.41409 0.56954 0.08006 0.0
C2003 C 0.39729 0.59887 0.14851 0.0
C2004 C 0.37119 0.59185 0.15707 0.0
C2005 C 0.40694 0.62149 0.15947 0.0
C2006 C 0.4347 0.62941 0.15202 0.0
C2007 C 0.4433 0.63575 0.12465 0.0
C2008 C 0.46974 0.6426 0.11795 0.0
C2009 C 0.48763 0.64362 0.13849 0.0
C2010 C 0.47905 0.63792 0.16576 0.0
C2011 C 0.45272 0.63083 0.17254 0.0
H2012 H 0.5081 0.64893 0.13327 0.0
H2013 H 0.2551 0.57649 0.20671 0.0
H2014 H 0.37463 0.30325 0.2105 0.0
H2015 H 0.4106 0.32828 0.18999 0.0
H2016 H 0.39645 0.38542 0.25356 0.0
H2017 H 0.35784 0.36126 0.27279 0.0
H2018 H 0.39754 0.41398 0.21166 0.0
H2019 H 0.46422 0.34505 0.23708 0.0
H2020 H 0.48838 0.29925 0.2484 0.0
H2021 H 0.48779 0.27924 0.16509 0.0
H2022 H 0.46323 0.32468 0.1533 0.0
H2023 H 0.50133 0.43668 0.0848 0.0
H2024 H 0.49318 0.41414 0.13 0.0
H2025 H 0.40631 0.42923 0.12145 0.0
H2026 H 0.41428 0.45289 0.07679 0.0
H2027 H 0.47225 0.3724 0.15022 0.0
H2028 H 0.37119 0.44426 0.17747 0.0
H2029 H 0.35467 0.49349 0.17043 0.0
H2030 H 0.43723 0.51314 0.15878 0.0
H2031 H 0.45427 0.46416 0.16611 0.0
C2032 C 0.37954 0.32082 0.22048 0.0
C2033 C 0.36307 0.33083 0.2427 0.0
C2034 C 0.40067 0.33494 0.20902 0.0
C2035 C 0.40678 0.35882 0.22022 0.0
C2036 C 0.39214 0.36718 0.24437 0.0
C2037 C 0.37024 0.3533 0.2555 0.0
C2038 C 0.4244 0.37713 0.2035 0.0
C2039 C 0.41436 0.40496 0.19874 0.0
C2040 C 0.44747 0.36616 0.18744 0.0
C2041 C 0.46189 0.33843 0.1943 0.0
C2042 C 0.46907 0.33084 0.22119 0.0
C2043 C 0.48287 0.30492 0.22768 0.0
C2044 C 0.48964 0.28636 0.20747 0.0
C2045 C 0.48258 0.29366 0.18072 0.0
C2046 C 0.46875 0.31953 0.17411 0.0
C2047 C 0.48046 0.43504 0.09244 0.0
C2048 C 0.45839 0.44691 0.07733 0.0
C2049 C 0.47587 0.42222 0.11837 0.0
C2050 C 0.44913 0.42079 0.1295 0.0
C2051 C 0.42713 0.43102 0.11369 0.0
C2052 C 0.43169 0.44421 0.08799 0.0
C2053 C 0.44383 0.40804 0.15733 0.0
C2054 C 0.45635 0.38154 0.16402 0.0
C2055 C 0.42435 0.4208 0.17616 0.0
C2056 C 0.41401 0.45043 0.17229 0.0
C2057 C 0.38584 0.45908 0.17365 0.0
C2058 C 0.37638 0.48697 0.16951 0.0
C2059 C 0.39489 0.50643 0.16409 0.0
C2060 C 0.4229 0.49806 0.16286 0.0
C2061 C 0.43246 0.47024 0.16698 0.0
H2062 H 0.38755 0.52797 0.16088 0.0
H2063 H 0.50035 0.26631 0.21255 0.0
H2064 H 0.83357 0.74149 0.69387 0.0
H2065 H 0.86295 0.71745 0.6593 0.0
H2066 H 0.79899 0.66773 0.64712 0.0
H2067 H 0.76965 0.69127 0.68226 0.0
H2068 H 0.84572 0.63675 0.65107 0.0
H2069 H 0.81639 0.72095 0.60003 0.0
H2070 H 0.80884 0.77127 0.59102 0.0
H2071 H 0.89495 0.77603 0.59163 0.0
H2072 H 0.90298 0.72576 0.60099 0.0
H2073 H 0.90639 0.57136 0.53976 0.0
H2074 H 0.8745 0.60543 0.56268 0.0
H2075 H 0.94166 0.6487 0.58017 0.0
H2076 H 0.97365 0.61484 0.55636 0.0
H2077 H 0.89342 0.68408 0.57222 0.0
H2078 H 0.9224 0.60066 0.6252 0.0
H2079 H 0.9304 0.55033 0.63387 0.0
H2080 H 0.8448 0.5445 0.63007 0.0
H2081 H 0.83636 0.5948 0.62091 0.0
C2082 C 0.82567 0.72551 0.68378 0.0
C2083 C 0.79924 0.71829 0.69085 0.0
C2084 C 0.84246 0.7119 0.66385 0.0
C2085 C 0.83307 0.69104 0.65027 0.0
C2086 C 0.80666 0.68382 0.65725 0.0
C2087 C 0.7899 0.6973 0.67734 0.0
C2088 C 0.85122 0.67586 0.62973 0.0
C2089 C 0.85574 0.64714 0.63359 0.0
C2090 C 0.86501 0.68941 0.60732 0.0
C2091 C 0.86025 0.71961 0.60145 0.0
C2092 C 0.8337 0.73275 0.59842 0.0
C2093 C 0.82934 0.76126 0.59322 0.0
C2094 C 0.85139 0.77684 0.59081 0.0
C2095 C 0.87788 0.76393 0.59352 0.0
C2096 C 0.88235 0.73543 0.59874 0.0
C2097 C 0.91418 0.58876 0.54759 0.0
C2098 C 0.94234 0.59061 0.54642 0.0
C2099 C 0.89601 0.60811 0.56079 0.0
C2100 C 0.90579 0.62919 0.57369 0.0
C2101 C 0.93372 0.63251 0.57042 0.0
C2102 C 0.95195 0.61328 0.55677 0.0
C2103 C 0.88748 0.6451 0.59348 0.0
C2104 C 0.88315 0.67383 0.58961 0.0
C2105 C 0.87385 0.63164 0.616 0.0
C2106 C 0.87879 0.60146 0.62213 0.0
C2107 C 0.90531 0.58863 0.62607 0.0
C2108 C 0.90992 0.56011 0.63107 0.0
C2109 C 0.88813 0.54422 0.63246 0.0
C2110 C 0.86167 0.55684 0.62895 0.0
C2111 C 0.85695 0.58535 0.62387 0.0
H2112 H 0.89175 0.52214 0.63629 0.0
H2113 H 0.84797 0.79891 0.5868 0.0
H2114 H 0.31538 0.75283 0.66363 0.0
H2115 H 0.34521 0.77833 0.63138 0.0
H2116 H 0.32919 0.84866 0.67982 0.0
H2117 H 0.29996 0.82339 0.71212 0.0
H2118 H 0.32454 0.86191 0.62351 0.0
H2119 H 0.38741 0.80897 0.68438 0.0
H2120 H 0.40931 0.76595 0.70625 0.0
H2121 H 0.43715 0.73762 0.62759 0.0
H2122 H 0.41505 0.78036 0.60524 0.0
H2123 H 0.42238 0.95153 0.59835 0.0
H2124 H 0.39411 0.91704 0.61758 0.0
H2125 H 0.43104 0.86067 0.55906 0.0
H2126 H 0.46018 0.89559 0.53934 0.0
H2127 H 0.42432 0.83497 0.61134 0.0
H2128 H 0.36878 0.89118 0.55064 0.0
H2129 H 0.348 0.93444 0.52845 0.0
H2130 H 0.30511 0.95562 0.60416 0.0
H2131 H 0.32645 0.91297 0.62715 0.0
C2132 C 0.31824 0.77372 0.66739 0.0
C2133 C 0.3053 0.78598 0.69057 0.0
C2134 C 0.33534 0.78826 0.64896 0.0
C2135 C 0.33952 0.81546 0.65316 0.0
C2136 C 0.3263 0.82776 0.67606 0.0
C2137 C 0.30964 0.81319 0.69462 0.0
C2138 C 0.35765 0.83141 0.63404 0.0
C2139 C 0.34636 0.85606 0.62089 0.0
C2140 C 0.38599 0.82329 0.6297 0.0
C2141 C 0.39928 0.79767 0.64314 0.0
C2142 C 0.39797 0.79345 0.67174 0.0
C2143 C 0.41047 0.76915 0.68423 0.0
C2144 C 0.42453 0.74902 0.66831 0.0
C2145 C 0.42619 0.7532 0.63988 0.0
C2146 C 0.41369 0.77746 0.6273 0.0
C2147 C 0.42471 0.93192 0.58926 0.0
C2148 C 0.44367 0.92664 0.56697 0.0
C2149 C 0.40832 0.91211 0.6004 0.0
C2150 C 0.41 0.88631 0.5896 0.0
C2151 C 0.42923 0.88049 0.56771 0.0
C2152 C 0.44585 0.9005 0.55641 0.0
C2153 C 0.39132 0.86603 0.60157 0.0
C2154 C 0.40243 0.8406 0.61341 0.0
C2155 C 0.36268 0.87329 0.6045 0.0
C2156 C 0.34938 0.89885 0.59068 0.0
C2157 C 0.35509 0.90513 0.56265 0.0
C2158 C 0.34318 0.92956 0.5499 0.0
C2159 C 0.32515 0.94771 0.56484 0.0
C2160 C 0.31905 0.94151 0.5926 0.0
C2161 C 0.3311 0.91722 0.60552 0.0
H2162 H 0.31591 0.96659 0.5549 0.0
H2163 H 0.4342 0.73022 0.67801 0.0
H2164 H 0.19166 0.29084 0.67549 0.0
H2165 H 0.16638 0.3245 0.64534 0.0
H2166 H 0.20061 0.38996 0.67989 0.0
H2167 H 0.22617 0.35605 0.71059 0.0
H2168 H 0.14476 0.39968 0.67736 0.0
H2169 H 0.2207 0.37425 0.61576 0.0
H2170 H 0.25486 0.34205 0.59213 0.0
H2171 H 0.19113 0.30839 0.55534 0.0
H2172 H 0.15654 0.34008 0.57907 0.0
H2173 H 0.06535 0.4899 0.58729 0.0
H2174 H 0.10476 0.46735 0.61077 0.0
H2175 H 0.09587 0.39157 0.57472 0.0
H2176 H 0.05814 0.41509 0.54923 0.0
H2177 H 0.14572 0.39326 0.57725 0.0
H2178 H 0.07027 0.41086 0.64539 0.0
H2179 H 0.03495 0.44041 0.67082 0.0
H2180 H 0.09642 0.48616 0.69643 0.0
H2181 H 0.13204 0.45701 0.67097 0.0
C2182 C 0.19409 0.31236 0.67661 0.0
C2183 C 0.21093 0.32076 0.69551 0.0
C2184 C 0.17971 0.3316 0.65917 0.0
C2185 C 0.18182 0.35974 0.6601 0.0
C2186 C 0.19883 0.36831 0.67873 0.0
C2187 C 0.21348 0.34894 0.69617 0.0
C2188 C 0.16479 0.37993 0.64265 0.0
C2189 C 0.14533 0.39873 0.65538 0.0
C2190 C 0.16519 0.37828 0.61405 0.0
C2191 C 0.186 0.35949 0.59933 0.0
C2192 C 0.21395 0.35988 0.60275 0.0
C2193 C 0.23339 0.34172 0.58932 0.0
C2194 C 0.22517 0.32316 0.57228 0.0
C2195 C 0.19748 0.32278 0.56854 0.0
C2196 C 0.17794 0.34088 0.58194 0.0
C2197 C 0.07216 0.46854 0.58419 0.0
C2198 C 0.0588 0.45411 0.56665 0.0
C2199 C 0.09449 0.45552 0.59785 0.0
C2200 C 0.10296 0.42738 0.59535 0.0
C2201 C 0.08985 0.41321 0.57719 0.0
C2202 C 0.06821 0.42656 0.5627 0.0
C2203 C 0.1248 0.41236 0.61205 0.0
C2204 C 0.14529 0.39456 0.59916 0.0
C2205 C 0.12512 0.41464 0.64061 0.0
C2206 C 0.10374 0.43196 0.65608 0.0
C2207 C 0.0762 0.4273 0.65637 0.0
C2208 C 0.05615 0.44396 0.67079 0.0
C2209 C 0.06343 0.46519 0.68518 0.0
C2210 C 0.0908 0.46974 0.68526 0.0
C2211 C 0.11093 0.45314 0.67087 0.0
H2212 H 0.04788 0.47808 0.69631 0.0
H2213 H 0.24026 0.30908 0.56194 0.0
H2214 H 0.67657 0.22387 0.61527 0.0
H2215 H 0.64867 0.19957 0.58776 0.0
H2216 H 0.60737 0.16771 0.66149 0.0
H2217 H 0.63481 0.192 0.68872 0.0
H2218 H 0.64993 0.14446 0.58949 0.0
H2219 H 0.54371 0.1552 0.65056 0.0
H2220 H 0.5127 0.1906 0.67345 0.0
H2221 H 0.55037 0.25402 0.62509 0.0
H2222 H 0.58118 0.219 0.60143 0.0
H2223 H 0.53186 0.05193 0.60349 0.0
H2224 H 0.55749 0.0873 0.61775 0.0
H2225 H 0.58844 0.10303 0.53457 0.0
H2226 H 0.56313 0.06732 0.52017 0.0
H2227 H 0.55004 0.14084 0.60214 0.0
H2228 H 0.65019 0.1294 0.53591 0.0
H2229 H 0.68048 0.09365 0.51254 0.0
H2230 H 0.65468 0.03196 0.57215 0.0
H2231 H 0.6245 0.06738 0.59601 0.0
C2232 C 0.66095 0.21229 0.62541 0.0
C2233 C 0.6578 0.20965 0.65402 0.0
C2234 C 0.64519 0.19833 0.60976 0.0
C2235 C 0.62586 0.18195 0.62257 0.0
C2236 C 0.62183 0.18054 0.65111 0.0
C2237 C 0.63761 0.19428 0.66667 0.0
C2238 C 0.61187 0.16385 0.60682 0.0
C2239 C 0.62799 0.14409 0.59169 0.0
C2240 C 0.58331 0.16309 0.61007 0.0
C2241 C 0.56493 0.1844 0.62433 0.0
C2242 C 0.5453 0.17668 0.64468 0.0
C2243 C 0.52775 0.1967 0.65781 0.0
C2244 C 0.52962 0.22455 0.65079 0.0
C2245 C 0.54901 0.23243 0.63058 0.0
C2246 C 0.56655 0.2125 0.61731 0.0
C2247 C 0.54448 0.06255 0.58826 0.0
C2248 C 0.54541 0.05682 0.56065 0.0
C2249 C 0.55901 0.08287 0.59643 0.0
C2250 C 0.5748 0.09784 0.57722 0.0
C2251 C 0.57659 0.09155 0.54978 0.0
C2252 C 0.56214 0.07109 0.5416 0.0
C2253 C 0.58819 0.12087 0.58599 0.0
C2254 C 0.5719 0.14157 0.59961 0.0
C2255 C 0.61653 0.12244 0.58142 0.0
C2256 C 0.63488 0.101 0.56753 0.0
C2257 C 0.65106 0.10821 0.54405 0.0
C2258 C 0.66819 0.08801 0.53072 0.0
C2259 C 0.66942 0.06054 0.5408 0.0
C2260 C 0.65361 0.05322 0.5643 0.0
C2261 C 0.63646 0.07335 0.57771 0.0
H2262 H 0.68268 0.04493 0.53044 0.0
H2263 H 0.51603 0.24002 0.66099 0.0
H2264 H 0.77483 0.38064 0.33859 0.0
H2265 H 0.79861 0.41223 0.36221 0.0
H2266 H 0.83535 0.34379 0.41217 0.0
H2267 H 0.81212 0.31217 0.38817 0.0
H2268 H 0.81968 0.39572 0.43983 0.0
H2269 H 0.86985 0.35784 0.36031 0.0
H2270 H 0.87537 0.34761 0.31185 0.0
H2271 H 0.86216 0.43384 0.28796 0.0
H2272 H 0.85589 0.44451 0.33633 0.0
H2273 H 0.94462 0.43077 0.47799 0.0
H2274 H 0.90629 0.4106 0.46228 0.0
H2275 H 0.89774 0.47494 0.39752 0.0
H2276 H 0.93775 0.49387 0.41216 0.0
H2277 H 0.89329 0.4306 0.37765 0.0
H2278 H 0.85123 0.46872 0.45896 0.0
H2279 H 0.84734 0.47772 0.50773 0.0
H2280 H 0.84602 0.39152 0.5295 0.0
H2281 H 0.85015 0.382 0.4808 0.0
C2282 C 0.78733 0.37254 0.35519 0.0
C2283 C 0.79181 0.34411 0.36163 0.0
C2284 C 0.80087 0.39052 0.36862 0.0
C2285 C 0.81872 0.38026 0.38885 0.0
C2286 C 0.8215 0.35207 0.39674 0.0
C2287 C 0.80837 0.33406 0.38299 0.0
C2288 C 0.83761 0.39796 0.39876 0.0
C2289 C 0.8358 0.40348 0.42638 0.0
C2290 C 0.85827 0.40831 0.38097 0.0
C2291 C 0.862 0.40194 0.3519 0.0
C2292 C 0.86777 0.37459 0.34471 0.0
C2293 C 0.87107 0.36871 0.31727 0.0
C2294 C 0.86901 0.39004 0.29682 0.0
C2295 C 0.86363 0.41731 0.3038 0.0
C2296 C 0.86018 0.42329 0.33122 0.0
C2297 C 0.93443 0.4406 0.46045 0.0
C2298 C 0.944 0.46373 0.44615 0.0
C2299 C 0.91228 0.42929 0.45167 0.0
C2300 C 0.89847 0.44161 0.42912 0.0
C2301 C 0.90791 0.46508 0.41504 0.0
C2302 C 0.93072 0.47588 0.42332 0.0
C2303 C 0.87566 0.4287 0.41905 0.0
C2304 C 0.87682 0.42374 0.39125 0.0
C2305 C 0.85441 0.41896 0.43679 0.0
C2306 C 0.85111 0.42467 0.46615 0.0
C2307 C 0.85014 0.4517 0.47412 0.0
C2308 C 0.84791 0.45687 0.50177 0.0
C2309 C 0.84648 0.43519 0.52171 0.0
C2310 C 0.84711 0.40829 0.51403 0.0
C2311 C 0.84933 0.40301 0.48639 0.0
H2312 H 0.84487 0.43922 0.54311 0.0
H2313 H 0.87174 0.38542 0.2756 0.0
H2314 H 0.66753 0.75853 0.31356 0.0
H2315 H 0.63736 0.78079 0.34902 0.0
H2316 H 0.69147 0.84353 0.35 0.0
H2317 H 0.72193 0.8211 0.31526 0.0
H2318 H 0.67618 0.82813 0.40009 0.0
H2319 H 0.63005 0.85341 0.31718 0.0
H2320 H 0.60821 0.84499 0.27558 0.0
H2321 H 0.54951 0.80113 0.32397 0.0
H2322 H 0.57128 0.80894 0.36585 0.0
H2323 H 0.59529 0.9458 0.44419 0.0
H2324 H 0.62402 0.90907 0.42207 0.0
H2325 H 0.56185 0.85471 0.44147 0.0
H2326 H 0.53279 0.89171 0.46392 0.0
H2327 H 0.57849 0.8581 0.38655 0.0
H2328 H 0.62274 0.8381 0.47026 0.0
H2329 H 0.64522 0.84791 0.51101 0.0
H2330 H 0.70684 0.88508 0.46013 0.0
H2331 H 0.68501 0.87513 0.41902 0.0
C2332 C 0.67296 0.7771 0.32132 0.0
C2333 C 0.69713 0.78806 0.31149 0.0
C2334 C 0.65565 0.78985 0.34156 0.0
C2335 C 0.66198 0.81401 0.3521 0.0
C2336 C 0.68614 0.82488 0.34233 0.0
C2337 C 0.70351 0.81206 0.32232 0.0
C2338 C 0.64361 0.82827 0.37322 0.0
C2339 C 0.65484 0.83476 0.39703 0.0
C2340 C 0.61552 0.83625 0.36977 0.0
C2341 C 0.60252 0.83142 0.3446 0.0
C2342 C 0.61265 0.84174 0.31892 0.0
C2343 C 0.60026 0.83711 0.2953 0.0
C2344 C 0.57755 0.82244 0.29712 0.0
C2345 C 0.56715 0.81241 0.32259 0.0
C2346 C 0.57951 0.81693 0.34627 0.0
C2347 C 0.58793 0.92585 0.44431 0.0
C2348 C 0.56173 0.92167 0.45569 0.0
C2349 C 0.60446 0.90479 0.43176 0.0
C2350 C 0.59516 0.87907 0.43015 0.0
C2351 C 0.56946 0.87438 0.44255 0.0
C2352 C 0.55296 0.89545 0.45551 0.0
C2353 C 0.61128 0.85852 0.41299 0.0
C2354 C 0.59967 0.85091 0.38988 0.0
C2355 C 0.63908 0.84975 0.41691 0.0
C2356 C 0.65215 0.856 0.44157 0.0
C2357 C 0.64099 0.84852 0.46776 0.0
C2358 C 0.65363 0.85407 0.49092 0.0
C2359 C 0.67728 0.86732 0.48818 0.0
C2360 C 0.68849 0.87485 0.46224 0.0
C2361 C 0.67609 0.86912 0.43899 0.0
H2362 H 0.68697 0.87165 0.50616 0.0
H2363 H 0.56797 0.8189 0.27881 0.0
H2364 H 0.16779 0.71358 0.28196 0.0
H2365 H 0.13982 0.68681 0.31441 0.0
H2366 H 0.20696 0.66926 0.36648 0.0
H2367 H 0.23502 0.69692 0.33438 0.0
H2368 H 0.17238 0.62149 0.34651 0.0
H2369 H 0.16892 0.70583 0.39381 0.0
H2370 H 0.16148 0.75631 0.39477 0.0
H2371 H 0.07959 0.75623 0.3711 0.0
H2372 H 0.08674 0.70576 0.3695 0.0
H2373 H 0.09939 0.54837 0.44941 0.0
H2374 H 0.13087 0.57901 0.42664 0.0
H2375 H 0.06244 0.6362 0.40216 0.0
H2376 H 0.03104 0.60629 0.42678 0.0
H2377 H 0.09986 0.66488 0.40942 0.0
H2378 H 0.10004 0.58554 0.35899 0.0
H2379 H 0.10435 0.53618 0.35105 0.0
H2380 H 0.1877 0.52735 0.3726 0.0
H2381 H 0.18377 0.57662 0.38101 0.0
C2382 C 0.1767 0.70407 0.30031 0.0
C2383 C 0.20373 0.70738 0.30551 0.0
C2384 C 0.1606 0.68883 0.31888 0.0
C2385 C 0.17124 0.6761 0.34289 0.0
C2386 C 0.19832 0.67899 0.34809 0.0
C2387 C 0.21431 0.69481 0.32976 0.0
C2388 C 0.154 0.65944 0.36213 0.0
C2389 C 0.15689 0.63084 0.36073 0.0
C2390 C 0.13298 0.67181 0.37969 0.0
C2391 C 0.12847 0.70205 0.38126 0.0
C2392 C 0.14942 0.7166 0.38856 0.0
C2393 C 0.14524 0.7452 0.38927 0.0
C2394 C 0.12011 0.75948 0.38292 0.0
C2395 C 0.09906 0.74516 0.37598 0.0
C2396 C 0.10316 0.71655 0.37519 0.0
C2397 C 0.09115 0.56775 0.43957 0.0
C2398 C 0.0628 0.57495 0.43978 0.0
C2399 C 0.10914 0.58518 0.42625 0.0
C2400 C 0.09923 0.60969 0.41169 0.0
C2401 C 0.07083 0.61744 0.41298 0.0
C2402 C 0.05282 0.60034 0.42707 0.0
C2403 C 0.1183 0.62648 0.39426 0.0
C2404 C 0.11558 0.65523 0.39565 0.0
C2405 C 0.13906 0.6143 0.37601 0.0
C2406 C 0.14152 0.58469 0.37092 0.0
C2407 C 0.11923 0.57303 0.36221 0.0
C2408 C 0.12161 0.54508 0.3576 0.0
C2409 C 0.14626 0.52862 0.3614 0.0
C2410 C 0.1686 0.54011 0.36973 0.0
C2411 C 0.16632 0.56805 0.3744 0.0
H2412 H 0.14806 0.50699 0.35782 0.0
H2413 H 0.11692 0.78163 0.38345 0.0
H2414 H 0.28317 0.15892 0.29462 0.0
H2415 H 0.31142 0.12756 0.32482 0.0
H2416 H 0.3338 0.19676 0.36395 0.0
H2417 H 0.30678 0.22813 0.33283 0.0
H2418 H 0.37653 0.16436 0.35605 0.0
H2419 H 0.28736 0.15095 0.39446 0.0
H2420 H 0.23952 0.1412 0.39495 0.0
H2421 H 0.26593 0.06083 0.3676 0.0
H2422 H 0.31393 0.07024 0.36659 0.0
H2423 H 0.42851 0.08269 0.47227 0.0
H2424 H 0.39261 0.11072 0.44745 0.0
H2425 H 0.40638 0.0567 0.38157 0.0
H2426 H 0.44291 0.02909 0.40582 0.0
H2427 H 0.34465 0.08104 0.40572 0.0
H2428 H 0.4347 0.10044 0.36261 0.0
H2429 H 0.48172 0.11067 0.36752 0.0
H2430 H 0.45085 0.18218 0.41 0.0
H2431 H 0.40362 0.17202 0.40577 0.0
C2432 C 0.29398 0.16737 0.30981 0.0
C2433 C 0.29281 0.19592 0.3114 0.0
C2434 C 0.31001 0.14944 0.32719 0.0
C2435 C 0.32451 0.15972 0.347 0.0
C2436 C 0.32291 0.18827 0.34883 0.0
C2437 C 0.3074 0.20619 0.33109 0.0
C2438 C 0.34224 0.14087 0.36505 0.0
C2439 C 0.36928 0.14638 0.3671 0.0
C2440 C 0.33308 0.1172 0.37951 0.0
C2441 C 0.30424 0.1114 0.38021 0.0
C2442 C 0.28296 0.13127 0.38837 0.0
C2443 C 0.25582 0.12579 0.38877 0.0
C2444 C 0.24969 0.10044 0.38125 0.0
C2445 C 0.27071 0.08047 0.37339 0.0
C2446 C 0.29789 0.08586 0.37293 0.0
C2447 C 0.42351 0.07653 0.45273 0.0
C2448 C 0.43854 0.05391 0.44079 0.0
C2449 C 0.40306 0.0925 0.43864 0.0
C2450 C 0.397 0.08565 0.4128 0.0
C2451 C 0.41081 0.06214 0.40158 0.0
C2452 C 0.4317 0.04655 0.41533 0.0
C2453 C 0.37846 0.10466 0.39621 0.0
C2454 C 0.3515 0.09915 0.39457 0.0
C2455 C 0.38742 0.12859 0.38253 0.0
C2456 C 0.4157 0.13532 0.38413 0.0
C2457 C 0.43796 0.11823 0.37316 0.0
C2458 C 0.46464 0.12402 0.37579 0.0
C2459 C 0.46928 0.147 0.38914 0.0
C2460 C 0.44723 0.16435 0.39971 0.0
C2461 C 0.42051 0.1586 0.39719 0.0
H2462 H 0.48995 0.15135 0.39125 0.0
H2463 H 0.22866 0.09624 0.38156 0.0
H2464 H 0.74193 0.83512 0.67853 0.0
H2465 H 0.71622 0.86556 0.64524 0.0
H2466 H 0.64464 0.8245 0.66851 0.0
H2467 H 0.67045 0.79342 0.70055 0.0
H2468 H 0.64684 0.83407 0.61686 0.0
H2469 H 0.65871 0.88801 0.69298 0.0
H2470 H 0.68579 0.90907 0.72417 0.0
H2471 H 0.7221 0.9551 0.65642 0.0
H2472 H 0.6958 0.93373 0.62468 0.0
H2473 H 0.53366 0.93591 0.60605 0.0
H2474 H 0.57302 0.909 0.62591 0.0
H2475 H 0.62506 0.93476 0.55709 0.0
H2476 H 0.58547 0.96129 0.53649 0.0
H2477 H 0.63953 0.93512 0.62295 0.0
H2478 H 0.62191 0.88267 0.54752 0.0
H2479 H 0.5908 0.86292 0.5194 0.0
H2480 H 0.56161 0.81506 0.58969 0.0
H2481 H 0.59203 0.83512 0.61838 0.0
C2482 C 0.72074 0.83258 0.67637 0.0
C2483 C 0.70816 0.81198 0.69219 0.0
C2484 C 0.70604 0.85001 0.65741 0.0
C2485 C 0.67833 0.84761 0.65456 0.0
C2486 C 0.66598 0.82676 0.67016 0.0
C2487 C 0.68075 0.80904 0.68861 0.0
C2488 C 0.66161 0.86705 0.63611 0.0
C2489 C 0.64543 0.85616 0.61818 0.0
C2490 C 0.65999 0.89599 0.6373 0.0
C2491 C 0.67556 0.909 0.65643 0.0
C2492 C 0.67262 0.90246 0.68471 0.0
C2493 C 0.68781 0.91448 0.70249 0.0
C2494 C 0.70564 0.93341 0.69231 0.0
C2495 C 0.70832 0.94039 0.66428 0.0
C2496 C 0.69333 0.92829 0.64638 0.0
C2497 C 0.55348 0.93607 0.59519 0.0
C2498 C 0.55647 0.9506 0.56965 0.0
C2499 C 0.57591 0.9207 0.60657 0.0
C2500 C 0.60177 0.91996 0.59288 0.0
C2501 C 0.60515 0.93518 0.56787 0.0
C2502 C 0.58256 0.95016 0.55613 0.0
C2503 C 0.62469 0.90193 0.60447 0.0
C2504 C 0.64174 0.91307 0.62116 0.0
C2505 C 0.62691 0.87323 0.60247 0.0
C2506 C 0.60906 0.86063 0.58515 0.0
C2507 C 0.60863 0.86819 0.55705 0.0
C2508 C 0.59114 0.85691 0.541 0.0
C2509 C 0.5742 0.83779 0.55276 0.0
C2510 C 0.57473 0.82989 0.58061 0.0
C2511 C 0.59209 0.84122 0.59677 0.0
H2512 H 0.56071 0.82905 0.5403 0.0
H2513 H 0.71734 0.9427 0.70613 0.0
H2514 H 0.71666 0.21388 0.35616 0.0
H2515 H 0.68469 0.18726 0.38476 0.0
H2516 H 0.63734 0.18324 0.31531 0.0
H2517 H 0.66978 0.2086 0.28651 0.0
H2518 H 0.60632 0.19855 0.36789 0.0
H2519 H 0.67296 0.13269 0.3278 0.0
H2520 H 0.71785 0.10764 0.31618 0.0
H2521 H 0.72827 0.08518 0.40107 0.0
H2522 H 0.68418 0.11148 0.41334 0.0
H2523 H 0.52325 0.09064 0.41013 0.0
H2524 H 0.55256 0.12325 0.38668 0.0
H2525 H 0.60934 0.10538 0.44997 0.0
H2526 H 0.58024 0.07231 0.47298 0.0
H2527 H 0.63561 0.10273 0.4018 0.0
H2528 H 0.5681 0.16864 0.44175 0.0
H2529 H 0.52151 0.19066 0.45234 0.0
H2530 H 0.51096 0.20951 0.36693 0.0
H2531 H 0.55737 0.18725 0.35578 0.0
C2532 C 0.69932 0.20746 0.3471 0.0
C2533 C 0.69573 0.21333 0.3191 0.0
C2534 C 0.68112 0.1922 0.36341 0.0
C2535 C 0.65859 0.18322 0.35218 0.0
C2536 C 0.65451 0.18995 0.32444 0.0
C2537 C 0.67311 0.20439 0.308 0.0
C2538 C 0.63965 0.16619 0.36901 0.0
C2539 C 0.61269 0.17755 0.37523 0.0
C2540 C 0.64797 0.13886 0.37885 0.0
C2541 C 0.67545 0.12469 0.37155 0.0
C2542 C 0.68516 0.12318 0.34408 0.0
C2543 C 0.71048 0.10865 0.33735 0.0
C2544 C 0.72604 0.09501 0.35787 0.0
C2545 C 0.71636 0.09597 0.38517 0.0
C2546 C 0.6913 0.11089 0.39204 0.0
C2547 C 0.54171 0.0942 0.41927 0.0
C2548 C 0.54928 0.07942 0.44362 0.0
C2549 C 0.55847 0.11287 0.4059 0.0
C2550 C 0.58317 0.11714 0.4166 0.0
C2551 C 0.5904 0.10265 0.44128 0.0
C2552 C 0.57365 0.08395 0.45462 0.0
C2553 C 0.60234 0.13514 0.40117 0.0
C2554 C 0.62933 0.12389 0.39495 0.0
C2555 C 0.594 0.16249 0.39128 0.0
C2556 C 0.56616 0.1761 0.39793 0.0
C2557 C 0.55579 0.17732 0.42521 0.0
C2558 C 0.52942 0.18988 0.43132 0.0
C2559 C 0.51329 0.20148 0.41032 0.0
C2560 C 0.5235 0.20056 0.38317 0.0
C2561 C 0.54984 0.18799 0.37695 0.0
H2562 H 0.49289 0.21118 0.41509 0.0
H2563 H 0.7455 0.08354 0.35259 0.0
H2564 H 0.80391 0.7239 0.3319 0.0
H2565 H 0.83218 0.69181 0.36111 0.0
H2566 H 0.8025 0.62356 0.32678 0.0
H2567 H 0.77344 0.65584 0.29768 0.0
H2568 H 0.81194 0.61261 0.38201 0.0
H2569 H 0.85911 0.6451 0.30011 0.0
H2570 H 0.87377 0.68037 0.26564 0.0
H2571 H 0.91632 0.71456 0.32558 0.0
H2572 H 0.90113 0.68011 0.36069 0.0
H2573 H 0.96411 0.54923 0.393 0.0
H2574 H 0.92651 0.57327 0.36839 0.0
H2575 H 0.88408 0.59549 0.44451 0.0
H2576 H 0.9218 0.57105 0.46958 0.0
H2577 H 0.90989 0.62599 0.36582 0.0
H2578 H 0.81503 0.60165 0.43608 0.0
H2579 H 0.80043 0.56351 0.46714 0.0
H2580 H 0.85558 0.50582 0.4231 0.0
H2581 H 0.87034 0.5435 0.39176 0.0
C2582 C 0.80298 0.70207 0.33087 0.0
C2583 C 0.78677 0.69235 0.3122 0.0
C2584 C 0.81914 0.68375 0.34762 0.0
C2585 C 0.81986 0.65531 0.34572 0.0
C2586 C 0.80229 0.64545 0.32849 0.0
C2587 C 0.78576 0.66388 0.31185 0.0
C2588 C 0.84109 0.6364 0.3595 0.0
C2589 C 0.83335 0.6155 0.37854 0.0
C2590 C 0.86912 0.63968 0.35436 0.0
C2591 C 0.87877 0.66013 0.33312 0.0
C2592 C 0.87142 0.66025 0.30602 0.0
C2593 C 0.87983 0.6801 0.28635 0.0
C2594 C 0.89602 0.69963 0.2934 0.0
C2595 C 0.90379 0.69941 0.32015 0.0
C2596 C 0.89523 0.67976 0.33996 0.0
C2597 C 0.9468 0.55913 0.40465 0.0
C2598 C 0.94616 0.55846 0.43331 0.0
C2599 C 0.92527 0.57286 0.39048 0.0
C2600 C 0.90249 0.58622 0.40454 0.0
C2601 C 0.90137 0.5851 0.43322 0.0
C2602 C 0.92299 0.57124 0.44752 0.0
C2603 C 0.8808 0.60256 0.38892 0.0
C2604 C 0.88849 0.62303 0.36941 0.0
C2605 C 0.85294 0.59829 0.3931 0.0
C2606 C 0.84396 0.57547 0.41175 0.0
C2607 C 0.82397 0.58081 0.43301 0.0
C2608 C 0.81571 0.55926 0.45069 0.0
C2609 C 0.82716 0.53226 0.4472 0.0
C2610 C 0.84684 0.52673 0.42595 0.0
C2611 C 0.8552 0.54819 0.40824 0.0
H2612 H 0.8207 0.51563 0.46091 0.0
H2613 H 0.90255 0.71493 0.27812 0.0
H2614 H 0.35506 0.82761 0.31076 0.0
H2615 H 0.38098 0.85127 0.34003 0.0
H2616 H 0.3415 0.8127 0.41138 0.0
H2617 H 0.31497 0.78909 0.38184 0.0
H2618 H 0.34105 0.86813 0.41486 0.0
H2619 H 0.40761 0.79339 0.39595 0.0
H2620 H 0.4362 0.75991 0.3683 0.0
H2621 H 0.474 0.82544 0.32363 0.0
H2622 H 0.44531 0.85939 0.35067 0.0
H2623 H 0.43356 0.93458 0.48964 0.0
H2624 H 0.4064 0.90142 0.47299 0.0
H2625 H 0.43443 0.92379 0.3902 0.0
H2626 H 0.46178 0.95659 0.40659 0.0
H2627 H 0.44129 0.86909 0.40125 0.0
H2628 H 0.36933 0.94373 0.41641 0.0
H2629 H 0.34046 0.97685 0.44429 0.0
H2630 H 0.3131 0.91041 0.49691 0.0
H2631 H 0.34221 0.87691 0.46962 0.0
C2632 C 0.35205 0.82399 0.33269 0.0
C2633 C 0.33301 0.80658 0.34408 0.0
C2634 C 0.367 0.83736 0.3494 0.0
C2635 C 0.36337 0.83354 0.37789 0.0
C2636 C 0.34468 0.8158 0.38942 0.0
C2637 C 0.32973 0.80221 0.3726 0.0
C2638 C 0.3782 0.84947 0.39515 0.0
C2639 C 0.36305 0.86792 0.41242 0.0
C2640 C 0.40686 0.84933 0.39173 0.0
C2641 C 0.42416 0.82898 0.37529 0.0
C2642 C 0.42185 0.80071 0.38009 0.0
C2643 C 0.43811 0.78163 0.36453 0.0
C2644 C 0.45688 0.79055 0.3442 0.0
C2645 C 0.45944 0.81856 0.33938 0.0
C2646 C 0.44321 0.83773 0.35485 0.0
C2647 C 0.43357 0.93277 0.46785 0.0
C2648 C 0.44997 0.94812 0.44942 0.0
C2649 C 0.41806 0.91377 0.45839 0.0
C2650 C 0.4185 0.91006 0.43036 0.0
C2651 C 0.434 0.92616 0.41194 0.0
C2652 C 0.44956 0.94497 0.42134 0.0
C2653 C 0.40403 0.8886 0.41993 0.0
C2654 C 0.41934 0.86898 0.40408 0.0
C2655 C 0.37559 0.88765 0.42475 0.0
C2656 C 0.35821 0.90783 0.44118 0.0
C2657 C 0.35737 0.9362 0.43409 0.0
C2658 C 0.34092 0.95504 0.44975 0.0
C2659 C 0.325 0.94574 0.47239 0.0
C2660 C 0.32545 0.91758 0.47938 0.0
C2661 C 0.34195 0.89866 0.46385 0.0
H2662 H 0.3123 0.96035 0.48451 0.0
H2663 H 0.46945 0.77575 0.33219 0.0
H2664 H 0.21805 0.32134 0.32147 0.0
H2665 H 0.18692 0.34015 0.35789 0.0
H2666 H 0.14406 0.26808 0.36221 0.0
H2667 H 0.17459 0.24957 0.32521 0.0
H2668 H 0.10905 0.31035 0.3616 0.0
H2669 H 0.18416 0.28158 0.41471 0.0
H2670 H 0.23201 0.27567 0.42714 0.0
H2671 H 0.2305 0.36305 0.42972 0.0
H2672 H 0.18277 0.36955 0.4169 0.0
H2673 H 0.0589 0.3969 0.48847 0.0
H2674 H 0.08698 0.35664 0.47005 0.0
H2675 H 0.08127 0.39511 0.38864 0.0
H2676 H 0.05375 0.43472 0.40659 0.0
H2677 H 0.13772 0.35634 0.4394 0.0
H2678 H 0.07426 0.34879 0.3451 0.0
H2679 H 0.02587 0.35268 0.33475 0.0
H2680 H 0.00324 0.33219 0.41896 0.0
H2681 H 0.05152 0.32774 0.42977 0.0
C2682 C 0.20214 0.3094 0.33032 0.0
C2683 C 0.19871 0.28405 0.32032 0.0
C2684 C 0.18447 0.32006 0.35135 0.0
C2685 C 0.16332 0.30537 0.36316 0.0
C2686 C 0.16022 0.2798 0.35352 0.0
C2687 C 0.17769 0.26926 0.33231 0.0
C2688 C 0.14315 0.31784 0.38384 0.0
C2689 C 0.11535 0.32006 0.37881 0.0
C2690 C 0.15115 0.32979 0.4069 0.0
C2691 C 0.17987 0.32605 0.41472 0.0
C2692 C 0.19407 0.29956 0.41775 0.0
C2693 C 0.22118 0.2961 0.4249 0.0
C2694 C 0.23429 0.31897 0.42919 0.0
C2695 C 0.22031 0.34535 0.4264 0.0
C2696 C 0.19321 0.34893 0.41924 0.0
C2697 C 0.06343 0.39644 0.46666 0.0
C2698 C 0.05434 0.41897 0.44898 0.0
C2699 C 0.07951 0.37359 0.4562 0.0
C2700 C 0.08599 0.37285 0.42796 0.0
C2701 C 0.07626 0.39507 0.41043 0.0
C2702 C 0.06068 0.41781 0.42078 0.0
C2703 C 0.1041 0.34995 0.41611 0.0
C2704 C 0.13147 0.34587 0.42266 0.0
C2705 C 0.09569 0.33581 0.39476 0.0
C2706 C 0.06658 0.338 0.38826 0.0
C2707 C 0.05901 0.34489 0.36138 0.0
C2708 C 0.03157 0.34725 0.35544 0.0
C2709 C 0.01149 0.34272 0.37618 0.0
C2710 C 0.01881 0.33576 0.40291 0.0
C2711 C 0.04621 0.33334 0.40897 0.0
H2712 H 0.99026 0.34459 0.37154 0.0
H2713 H 0.25528 0.31625 0.43472 0.0
H2714 H 0.33642 0.25616 0.69524 0.0
H2715 H 0.36875 0.23572 0.66021 0.0
H2716 H 0.31178 0.17893 0.64603 0.0
H2717 H 0.27944 0.1994 0.68024 0.0
H2718 H 0.39439 0.18612 0.6581 0.0
H2719 H 0.31581 0.16155 0.58243 0.0
H2720 H 0.27247 0.18321 0.56471 0.0
H2721 H 0.29205 0.2626 0.58262 0.0
H2722 H 0.3357 0.2415 0.60008 0.0
H2723 H 0.42648 0.06356 0.59791 0.0
H2724 H 0.40298 0.10383 0.61835 0.0
H2725 H 0.42273 0.15428 0.54583 0.0
H2726 H 0.44705 0.11357 0.52488 0.0
H2727 H 0.36619 0.16342 0.56849 0.0
H2728 H 0.45567 0.16437 0.59465 0.0
H2729 H 0.50048 0.14566 0.61093 0.0
H2730 H 0.4624 0.12017 0.68828 0.0
H2731 H 0.41723 0.13834 0.67233 0.0
C2732 C 0.33073 0.23948 0.68445 0.0
C2733 C 0.30531 0.22947 0.69055 0.0
C2734 C 0.34922 0.22782 0.66444 0.0
C2735 C 0.34256 0.20607 0.65009 0.0
C2736 C 0.31719 0.19613 0.65624 0.0
C2737 C 0.29876 0.20775 0.67606 0.0
C2738 C 0.36249 0.19231 0.62993 0.0
C2739 C 0.38833 0.18151 0.63837 0.0
C2740 C 0.35505 0.18698 0.60371 0.0
C2741 C 0.32903 0.19989 0.59268 0.0
C2742 C 0.311 0.18365 0.5824 0.0
C2743 C 0.28634 0.19583 0.57244 0.0
C2744 C 0.2795 0.22425 0.57257 0.0
C2745 C 0.29734 0.24058 0.58259 0.0
C2746 C 0.32204 0.22851 0.59254 0.0
C2747 C 0.42582 0.08306 0.58599 0.0
C2748 C 0.43874 0.08518 0.5596 0.0
C2749 C 0.41246 0.10617 0.5979 0.0
C2750 C 0.41138 0.13207 0.58377 0.0
C2751 C 0.4235 0.13443 0.55712 0.0
C2752 C 0.43735 0.11118 0.54521 0.0
C2753 C 0.39723 0.15616 0.59745 0.0
C2754 C 0.37246 0.16874 0.58789 0.0
C2755 C 0.4059 0.16367 0.62235 0.0
C2756 C 0.433 0.15261 0.63219 0.0
C2757 C 0.4568 0.15457 0.61506 0.0
C2758 C 0.4823 0.1441 0.62425 0.0
C2759 C 0.48431 0.13169 0.65061 0.0
C2760 C 0.46082 0.12979 0.66786 0.0
C2761 C 0.43525 0.14022 0.65876 0.0
H2762 H 0.50407 0.12356 0.65767 0.0
H2763 H 0.26038 0.23363 0.5649 0.0
H2764 H 0.82205 0.31202 0.72031 0.0
H2765 H 0.85089 0.3385 0.68892 0.0
H2766 H 0.80524 0.32187 0.62178 0.0
H2767 H 0.77575 0.29553 0.65342 0.0
H2768 H 0.88521 0.32536 0.64832 0.0
H2769 H 0.80851 0.37618 0.5716 0.0
H2770 H 0.75926 0.39124 0.5696 0.0
H2771 H 0.75283 0.4014 0.65575 0.0
H2772 H 0.80208 0.38678 0.65819 0.0
H2773 H 0.96142 0.40078 0.54441 0.0
H2774 H 0.92972 0.369 0.56531 0.0
H2775 H 0.8821 0.43604 0.6044 0.0
H2776 H 0.91304 0.46763 0.58363 0.0
H2777 H 0.84884 0.40397 0.5872 0.0
H2778 H 0.93002 0.39097 0.63823 0.0
H2779 H 0.97933 0.37976 0.64385 0.0
H2780 H 0.97646 0.29961 0.61552 0.0
H2781 H 0.92716 0.31051 0.60941 0.0
C2782 C 0.81794 0.31403 0.69889 0.0
C2783 C 0.7964 0.3016 0.6895 0.0
C2784 C 0.83464 0.32913 0.68086 0.0
C2785 C 0.83041 0.33238 0.65283 0.0
C2786 C 0.80887 0.32004 0.6433 0.0
C2787 C 0.79199 0.30493 0.66144 0.0
C2788 C 0.84869 0.3487 0.63401 0.0
C2789 C 0.87715 0.34239 0.6348 0.0
C2790 C 0.8385 0.37111 0.61631 0.0
C2791 C 0.80888 0.37996 0.61513 0.0
C2792 C 0.79657 0.38164 0.59011 0.0
C2793 C 0.76867 0.39012 0.58889 0.0
C2794 C 0.7529 0.39714 0.61256 0.0
C2795 C 0.76503 0.39581 0.63746 0.0
C2796 C 0.79294 0.38739 0.63878 0.0
C2797 C 0.94408 0.40877 0.55729 0.0
C2798 C 0.94018 0.43683 0.56252 0.0
C2799 C 0.92597 0.39054 0.56931 0.0
C2800 C 0.90354 0.39997 0.58678 0.0
C2801 C 0.89913 0.4281 0.5911 0.0
C2802 C 0.91713 0.44619 0.57926 0.0
C2803 C 0.88526 0.38081 0.60182 0.0
C2804 C 0.85684 0.38657 0.60031 0.0
C2805 C 0.89545 0.35826 0.6193 0.0
C2806 C 0.92501 0.35167 0.62305 0.0
C2807 C 0.93996 0.37104 0.63301 0.0
C2808 C 0.96789 0.36473 0.63631 0.0
C2809 C 0.98104 0.33902 0.62996 0.0
C2810 C 0.96626 0.31954 0.62037 0.0
C2811 C 0.93833 0.32576 0.61699 0.0
H2812 H 0.00266 0.33418 0.63253 0.0
H2813 H 0.7313 0.40369 0.61158 0.0
H2814 H 0.17972 0.63664 0.69402 0.0
H2815 H 0.1584 0.60644 0.66731 0.0
H2816 H 0.21549 0.62183 0.59895 0.0
H2817 H 0.23633 0.65331 0.62549 0.0
H2818 H 0.1663 0.62789 0.58242 0.0
H2819 H 0.2162 0.55735 0.63399 0.0
H2820 H 0.23579 0.53136 0.67411 0.0
H2821 H 0.1554 0.5194 0.70836 0.0
H2822 H 0.13525 0.54576 0.66874 0.0
H2823 H 0.08431 0.54317 0.51847 0.0
H2824 H 0.12517 0.55688 0.53642 0.0
H2825 H 0.08284 0.56367 0.61571 0.0
H2826 H 0.04209 0.54969 0.59816 0.0
H2827 H 0.13541 0.53893 0.61886 0.0
H2828 H 0.08797 0.62034 0.57071 0.0
H2829 H 0.06924 0.64426 0.52909 0.0
H2830 H 0.14819 0.63231 0.48664 0.0
H2831 H 0.1673 0.60809 0.528 0.0
C2832 C 0.18785 0.63355 0.67333 0.0
C2833 C 0.20946 0.64767 0.66173 0.0
C2834 C 0.17589 0.6159 0.65818 0.0
C2835 C 0.18552 0.61152 0.63117 0.0
C2836 C 0.2078 0.62478 0.61979 0.0
C2837 C 0.21977 0.64264 0.635 0.0
C2838 C 0.1703 0.59536 0.6144 0.0
C2839 C 0.16018 0.60807 0.59007 0.0
C2840 C 0.16222 0.56947 0.62426 0.0
C2841 C 0.1742 0.55371 0.64836 0.0
C2842 C 0.20266 0.5494 0.65017 0.0
C2843 C 0.21388 0.53456 0.67283 0.0
C2844 C 0.19686 0.52377 0.69379 0.0
C2845 C 0.16857 0.52778 0.69212 0.0
C2846 C 0.15724 0.54265 0.66953 0.0
C2847 C 0.0837 0.5475 0.53976 0.0
C2848 C 0.05979 0.54564 0.55682 0.0
C2849 C 0.1071 0.55529 0.54996 0.0
C2850 C 0.10693 0.5615 0.57732 0.0
C2851 C 0.08339 0.55892 0.59453 0.0
C2852 C 0.06003 0.55113 0.58439 0.0
C2853 C 0.13056 0.57221 0.588 0.0
C2854 C 0.14223 0.55839 0.61102 0.0
C2855 C 0.14031 0.59687 0.57682 0.0
C2856 C 0.12899 0.61223 0.55232 0.0
C2857 C 0.1013 0.62278 0.55247 0.0
C2858 C 0.09062 0.63637 0.52894 0.0
C2859 C 0.1075 0.63973 0.50521 0.0
C2860 C 0.13513 0.62966 0.50502 0.0
C2861 C 0.1459 0.61603 0.52851 0.0
H2862 H 0.09918 0.65017 0.48698 0.0
H2863 H 0.20559 0.51227 0.7113 0.0
loop_
_geom_bond_atom_site_label_1
_geom_bond_atom_site_label_2
_geom_bond_distance
_geom_bond_site_symmetry_2
_ccdc_geom_bond_type
C0 O16 1.251 . S
C0 O18 1.254 . S
N1 C2 1.333 . S
N1 C6 1.307 . S
N1 Zn7 2.020 . S
C2 N1 1.333 . S
C2 C3 1.379 . S
C2 H20 0.952 . S
C3 C2 1.379 . S
C3 C4 1.390 . S
C3 H30 0.949 . S
C4 C3 1.390 . S
C4 C5 1.357 . S
C5 C4 1.357 . S
C5 C6 1.370 . S
C5 H31 0.950 . S
C6 N1 1.307 . S
C6 C5 1.370 . S
C6 H24 0.948 . S
Zn7 N1 2.020 . S
Zn7 O16 2.039 . S
Zn7 O22 2.034 . S
Zn7 O26 2.025 . S
Zn7 O28 2.024 . S
C8 O27 1.246 . S
C8 O28 1.249 . S
N9 C10 1.307 . S
N9 C11 1.333 . S
N9 Zn15 2.020 . S
C10 N9 1.307 . S
C10 C14 1.370 . S
C10 H21 0.948 . S
C11 N9 1.333 . S
C11 C12 1.379 . S
C11 H19 0.952 . S
C12 C11 1.379 . S
C12 C13 1.390 . S
C12 H32 0.949 . S
C13 C12 1.390 . S
C13 C14 1.357 . S
C14 C10 1.370 . S
C14 C13 1.357 . S
C14 H33 0.950 . S
Zn15 N9 2.020 . S
Zn15 O18 2.025 . S
Zn15 O23 2.024 . S
Zn15 O25 2.039 . S
Zn15 O27 2.034 . S
O16 C0 1.251 . S
O16 Zn7 2.039 . S
C17 O22 1.246 . S
C17 O23 1.249 . S
O18 C0 1.254 . S
O18 Zn15 2.025 . S
H19 C11 0.952 . S
H20 C2 0.952 . S
H21 C10 0.948 . S
O22 Zn7 2.034 . S
O22 C17 1.246 . S
O23 Zn15 2.024 . S
O23 C17 1.249 . S
H24 C6 0.948 . S
O25 Zn15 2.039 . S
O25 C29 1.251 . S
O26 Zn7 2.025 . S
O26 C29 1.254 . S
O27 C8 1.246 . S
O27 Zn15 2.034 . S
O28 Zn7 2.024 . S
O28 C8 1.249 . S
C29 O25 1.251 . S
C29 O26 1.254 . S
H30 C3 0.949 . S
H31 C5 0.950 . S
H32 C12 0.949 . S
H33 C14 0.950 . S
C34 O50 1.251 . S
C34 O52 1.254 . S
N35 C36 1.333 . S
N35 C40 1.307 . S
N35 Zn41 2.020 . S
C36 N35 1.333 . S
C36 C37 1.379 . S
C36 H54 0.952 . S
C37 C36 1.379 . S
C37 C38 1.390 . S
C37 H64 0.949 . S
C38 C37 1.390 . S
C38 C39 1.357 . S
C39 C38 1.357 . S
C39 C40 1.370 . S
C39 H65 0.950 . S
C40 N35 1.307 . S
C40 C39 1.370 . S
C40 H58 0.948 . S
Zn41 N35 2.020 . S
Zn41 O50 2.039 . S
Zn41 O56 2.034 . S
Zn41 O60 2.025 . S
Zn41 O62 2.024 . S
C42 O61 1.246 . S
C42 O62 1.249 . S
N43 C44 1.307 . S
N43 C45 1.333 . S
N43 Zn49 2.020 . S
C44 N43 1.307 . S
C44 C48 1.370 . S
C44 H55 0.948 . S
C45 N43 1.333 . S
C45 C46 1.379 . S
C45 H53 0.952 . S
C46 C45 1.379 . S
C46 C47 1.390 . S
C46 H66 0.949 . S
C47 C46 1.390 . S
C47 C48 1.357 . S
C48 C44 1.370 . S
C48 C47 1.357 . S
C48 H67 0.950 . S
Zn49 N43 2.020 . S
Zn49 O52 2.025 . S
Zn49 O57 2.024 . S
Zn49 O59 2.039 . S
Zn49 O61 2.034 . S
O50 C34 1.251 . S
O50 Zn41 2.039 . S
C51 O56 1.246 . S
C51 O57 1.249 . S
O52 C34 1.254 . S
O52 Zn49 2.025 . S
H53 C45 0.952 . S
H54 C36 0.952 . S
H55 C44 0.948 . S
O56 Zn41 2.034 . S
O56 C51 1.246 . S
O57 Zn49 2.024 . S
O57 C51 1.249 . S
H58 C40 0.948 . S
O59 Zn49 2.039 . S
O59 C63 1.251 . S
O60 Zn41 2.025 . S
O60 C63 1.254 . S
O61 C42 1.246 . S
O61 Zn49 2.034 . S
O62 Zn41 2.024 . S
O62 C42 1.249 . S
C63 O59 1.251 . S
C63 O60 1.254 . S
H64 C37 0.949 . S
H65 C39 0.950 . S
H66 C46 0.949 . S
H67 C48 0.950 . S
C68 O84 1.251 . S
C68 O86 1.254 . S
N69 C70 1.333 . S
N69 C74 1.307 . S
N69 Zn75 2.020 . S
C70 N69 1.333 . S
C70 C71 1.379 . S
C70 H88 0.952 . S
C71 C70 1.379 . S
C71 C72 1.390 . S
C71 H98 0.949 . S
C72 C71 1.390 . S
C72 C73 1.357 . S
C73 C72 1.357 . S
C73 C74 1.370 . S
C73 H99 0.950 . S
C74 N69 1.307 . S
C74 C73 1.370 . S
C74 H92 0.948 . S
Zn75 N69 2.020 . S
Zn75 O84 2.039 . S
Zn75 O90 2.034 . S
Zn75 O94 2.025 . S
Zn75 O96 2.024 . S
C76 O95 1.246 . S
C76 O96 1.249 . S
N77 C78 1.307 . S
N77 C79 1.333 . S
N77 Zn83 2.020 . S
C78 N77 1.307 . S
C78 C82 1.370 . S
C78 H89 0.948 . S
C79 N77 1.333 . S
C79 C80 1.379 . S
C79 H87 0.952 . S
C80 C79 1.379 . S
C80 C81 1.390 . S
C80 H100 0.949 . S
C81 C80 1.390 . S
C81 C82 1.357 . S
C82 C78 1.370 . S
C82 C81 1.357 . S
C82 H101 0.950 . S
Zn83 N77 2.020 . S
Zn83 O86 2.025 . S
Zn83 O91 2.024 . S
Zn83 O93 2.039 . S
Zn83 O95 2.034 . S
O84 C68 1.251 . S
O84 Zn75 2.039 . S
C85 O90 1.246 . S
C85 O91 1.249 . S
O86 C68 1.254 . S
O86 Zn83 2.025 . S
H87 C79 0.952 . S
H88 C70 0.952 . S
H89 C78 0.948 . S
O90 Zn75 2.034 . S
O90 C85 1.246 . S
O91 Zn83 2.024 . S
O91 C85 1.249 . S
H92 C74 0.948 . S
O93 Zn83 2.039 . S
O93 C97 1.251 . S
O94 Zn75 2.025 . S
O94 C97 1.254 . S
O95 C76 1.246 . S
O95 Zn83 2.034 . S
O96 Zn75 2.024 . S
O96 C76 1.249 . S
C97 O93 1.251 . S
C97 O94 1.254 . S
H98 C71 0.949 . S
H99 C73 0.950 . S
H100 C80 0.949 . S
H101 C82 0.950 . S
C102 O118 1.251 . S
C102 O120 1.254 . S
N103 C104 1.333 . S
N103 C108 1.307 . S
N103 Zn109 2.020 . S
C104 N103 1.333 . S
C104 C105 1.379 . S
C104 H122 0.952 . S
C105 C104 1.379 . S
C105 C106 1.390 . S
C105 H132 0.949 . S
C106 C105 1.390 . S
C106 C107 1.357 . S
C107 C106 1.357 . S
C107 C108 1.370 . S
C107 H133 0.950 . S
C108 N103 1.307 . S
C108 C107 1.370 . S
C108 H126 0.948 . S
Zn109 N103 2.020 . S
Zn109 O118 2.039 . S
Zn109 O124 2.034 . S
Zn109 O128 2.025 . S
Zn109 O130 2.024 . S
C110 O129 1.246 . S
C110 O130 1.249 . S
N111 C112 1.307 . S
N111 C113 1.333 . S
N111 Zn117 2.020 . S
C112 N111 1.307 . S
C112 C116 1.370 . S
C112 H123 0.948 . S
C113 N111 1.333 . S
C113 C114 1.379 . S
C113 H121 0.952 . S
C114 C113 1.379 . S
C114 C115 1.390 . S
C114 H134 0.949 . S
C115 C114 1.390 . S
C115 C116 1.357 . S
C116 C112 1.370 . S
C116 C115 1.357 . S
C116 H135 0.950 . S
Zn117 N111 2.020 . S
Zn117 O120 2.025 . S
Zn117 O125 2.024 . S
Zn117 O127 2.039 . S
Zn117 O129 2.034 . S
O118 C102 1.251 . S
O118 Zn109 2.039 . S
C119 O124 1.246 . S
C119 O125 1.249 . S
O120 C102 1.254 . S
O120 Zn117 2.025 . S
H121 C113 0.952 . S
H122 C104 0.952 . S
H123 C112 0.948 . S
O124 Zn109 2.034 . S
O124 C119 1.246 . S
O125 Zn117 2.024 . S
O125 C119 1.249 . S
H126 C108 0.948 . S
O127 Zn117 2.039 . S
O127 C131 1.251 . S
O128 Zn109 2.025 . S
O128 C131 1.254 . S
O129 C110 1.246 . S
O129 Zn117 2.034 . S
O130 Zn109 2.024 . S
O130 C110 1.249 . S
C131 O127 1.251 . S
C131 O128 1.254 . S
H132 C105 0.949 . S
H133 C107 0.950 . S
H134 C114 0.949 . S
H135 C116 0.950 . S
C136 O152 1.251 . S
C136 O154 1.254 . S
N137 C138 1.333 . S
N137 C142 1.307 . S
N137 Zn143 2.020 . S
C138 N137 1.333 . S
C138 C139 1.379 . S
C138 H156 0.952 . S
C139 C138 1.379 . S
C139 C140 1.390 . S
C139 H166 0.949 . S
C140 C139 1.390 . S
C140 C141 1.357 . S
C141 C140 1.357 . S
C141 C142 1.370 . S
C141 H167 0.950 . S
C142 N137 1.307 . S
C142 C141 1.370 . S
C142 H160 0.948 . S
Zn143 N137 2.020 . S
Zn143 O152 2.039 . S
Zn143 O158 2.034 . S
Zn143 O162 2.025 . S
Zn143 O164 2.024 . S
C144 O163 1.246 . S
C144 O164 1.249 . S
N145 C146 1.307 . S
N145 C147 1.333 . S
N145 Zn151 2.020 . S
C146 N145 1.307 . S
C146 C150 1.370 . S
C146 H157 0.948 . S
C147 N145 1.333 . S
C147 C148 1.379 . S
C147 H155 0.952 . S
C148 C147 1.379 . S
C148 C149 1.390 . S
C148 H168 0.949 . S
C149 C148 1.390 . S
C149 C150 1.357 . S
C150 C146 1.370 . S
C150 C149 1.357 . S
C150 H169 0.950 . S
Zn151 N145 2.020 . S
Zn151 O154 2.025 . S
Zn151 O159 2.024 . S
Zn151 O161 2.039 . S
Zn151 O163 2.034 . S
O152 C136 1.251 . S
O152 Zn143 2.039 . S
C153 O158 1.246 . S
C153 O159 1.249 . S
O154 C136 1.254 . S
O154 Zn151 2.025 . S
H155 C147 0.952 . S
H156 C138 0.952 . S
H157 C146 0.948 . S
O158 Zn143 2.034 . S
O158 C153 1.246 . S
O159 Zn151 2.024 . S
O159 C153 1.249 . S
H160 C142 0.948 . S
O161 Zn151 2.039 . S
O161 C165 1.251 . S
O162 Zn143 2.025 . S
O162 C165 1.254 . S
O163 C144 1.246 . S
O163 Zn151 2.034 . S
O164 Zn143 2.024 . S
O164 C144 1.249 . S
C165 O161 1.251 . S
C165 O162 1.254 . S
H166 C139 0.949 . S
H167 C141 0.950 . S
H168 C148 0.949 . S
H169 C150 0.950 . S
C170 O186 1.251 . S
C170 O188 1.254 . S
N171 C172 1.333 . S
N171 C176 1.307 . S
N171 Zn177 2.020 . S
C172 N171 1.333 . S
C172 C173 1.379 . S
C172 H190 0.952 . S
C173 C172 1.379 . S
C173 C174 1.390 . S
C173 H200 0.949 . S
C174 C173 1.390 . S
C174 C175 1.357 . S
C175 C174 1.357 . S
C175 C176 1.370 . S
C175 H201 0.950 . S
C176 N171 1.307 . S
C176 C175 1.370 . S
C176 H194 0.948 . S
Zn177 N171 2.020 . S
Zn177 O186 2.039 . S
Zn177 O192 2.034 . S
Zn177 O196 2.025 . S
Zn177 O198 2.024 . S
C178 O197 1.246 . S
C178 O198 1.249 . S
N179 C180 1.307 . S
N179 C181 1.333 . S
N179 Zn185 2.020 . S
C180 N179 1.307 . S
C180 C184 1.370 . S
C180 H191 0.948 . S
C181 N179 1.333 . S
C181 C182 1.379 . S
C181 H189 0.952 . S
C182 C181 1.379 . S
C182 C183 1.390 . S
C182 H202 0.949 . S
C183 C182 1.390 . S
C183 C184 1.357 . S
C184 C180 1.370 . S
C184 C183 1.357 . S
C184 H203 0.950 . S
Zn185 N179 2.020 . S
Zn185 O188 2.025 . S
Zn185 O193 2.024 . S
Zn185 O195 2.039 . S
Zn185 O197 2.034 . S
O186 C170 1.251 . S
O186 Zn177 2.039 . S
C187 O192 1.246 . S
C187 O193 1.249 . S
O188 C170 1.254 . S
O188 Zn185 2.025 . S
H189 C181 0.952 . S
H190 C172 0.952 . S
H191 C180 0.948 . S
O192 Zn177 2.034 . S
O192 C187 1.246 . S
O193 Zn185 2.024 . S
O193 C187 1.249 . S
H194 C176 0.948 . S
O195 Zn185 2.039 . S
O195 C199 1.251 . S
O196 Zn177 2.025 . S
O196 C199 1.254 . S
O197 C178 1.246 . S
O197 Zn185 2.034 . S
O198 Zn177 2.024 . S
O198 C178 1.249 . S
C199 O195 1.251 . S
C199 O196 1.254 . S
H200 C173 0.949 . S
H201 C175 0.950 . S
H202 C182 0.949 . S
H203 C184 0.950 . S
C204 O220 1.251 . S
C204 O222 1.254 . S
N205 C206 1.333 . S
N205 C210 1.307 . S
N205 Zn211 2.020 . S
C206 N205 1.333 . S
C206 C207 1.379 . S
C206 H224 0.952 . S
C207 C206 1.379 . S
C207 C208 1.390 . S
C207 H234 0.949 . S
C208 C207 1.390 . S
C208 C209 1.357 . S
C209 C208 1.357 . S
C209 C210 1.370 . S
C209 H235 0.950 . S
C210 N205 1.307 . S
C210 C209 1.370 . S
C210 H228 0.948 . S
Zn211 N205 2.020 . S
Zn211 O220 2.039 . S
Zn211 O226 2.034 . S
Zn211 O230 2.025 . S
Zn211 O232 2.024 . S
C212 O231 1.246 . S
C212 O232 1.249 . S
N213 C214 1.307 . S
N213 C215 1.333 . S
N213 Zn219 2.020 . S
C214 N213 1.307 . S
C214 C218 1.370 . S
C214 H225 0.948 . S
C215 N213 1.333 . S
C215 C216 1.379 . S
C215 H223 0.952 . S
C216 C215 1.379 . S
C216 C217 1.390 . S
C216 H236 0.949 . S
C217 C216 1.390 . S
C217 C218 1.357 . S
C218 C214 1.370 . S
C218 C217 1.357 . S
C218 H237 0.950 . S
Zn219 N213 2.020 . S
Zn219 O222 2.025 . S
Zn219 O227 2.024 . S
Zn219 O229 2.039 . S
Zn219 O231 2.034 . S
O220 C204 1.251 . S
O220 Zn211 2.039 . S
C221 O226 1.246 . S
C221 O227 1.249 . S
O222 C204 1.254 . S
O222 Zn219 2.025 . S
H223 C215 0.952 . S
H224 C206 0.952 . S
H225 C214 0.948 . S
O226 Zn211 2.034 . S
O226 C221 1.246 . S
O227 Zn219 2.024 . S
O227 C221 1.249 . S
H228 C210 0.948 . S
O229 Zn219 2.039 . S
O229 C233 1.251 . S
O230 Zn211 2.025 . S
O230 C233 1.254 . S
O231 C212 1.246 . S
O231 Zn219 2.034 . S
O232 Zn211 2.024 . S
O232 C212 1.249 . S
C233 O229 1.251 . S
C233 O230 1.254 . S
H234 C207 0.949 . S
H235 C209 0.950 . S
H236 C216 0.949 . S
H237 C218 0.950 . S
C238 O254 1.251 . S
C238 O256 1.254 . S
N239 C240 1.333 . S
N239 C244 1.307 . S
N239 Zn245 2.020 . S
C240 N239 1.333 . S
C240 C241 1.379 . S
C240 H258 0.952 . S
C241 C240 1.379 . S
C241 C242 1.390 . S
C241 H268 0.949 . S
C242 C241 1.390 . S
C242 C243 1.357 . S
C243 C242 1.357 . S
C243 C244 1.370 . S
C243 H269 0.950 . S
C244 N239 1.307 . S
C244 C243 1.370 . S
C244 H262 0.948 . S
Zn245 N239 2.020 . S
Zn245 O254 2.039 . S
Zn245 O260 2.034 . S
Zn245 O264 2.025 . S
Zn245 O266 2.024 . S
C246 O265 1.246 . S
C246 O266 1.249 . S
N247 C248 1.307 . S
N247 C249 1.333 . S
N247 Zn253 2.020 . S
C248 N247 1.307 . S
C248 C252 1.370 . S
C248 H259 0.948 . S
C249 N247 1.333 . S
C249 C250 1.379 . S
C249 H257 0.952 . S
C250 C249 1.379 . S
C250 C251 1.390 . S
C250 H270 0.949 . S
C251 C250 1.390 . S
C251 C252 1.357 . S
C252 C248 1.370 . S
C252 C251 1.357 . S
C252 H271 0.950 . S
Zn253 N247 2.020 . S
Zn253 O256 2.025 . S
Zn253 O261 2.024 . S
Zn253 O263 2.039 . S
Zn253 O265 2.034 . S
O254 C238 1.251 . S
O254 Zn245 2.039 . S
C255 O260 1.246 . S
C255 O261 1.249 . S
O256 C238 1.254 . S
O256 Zn253 2.025 . S
H257 C249 0.952 . S
H258 C240 0.952 . S
H259 C248 0.948 . S
O260 Zn245 2.034 . S
O260 C255 1.246 . S
O261 Zn253 2.024 . S
O261 C255 1.249 . S
H262 C244 0.948 . S
O263 Zn253 2.039 . S
O263 C267 1.251 . S
O264 Zn245 2.025 . S
O264 C267 1.254 . S
O265 C246 1.246 . S
O265 Zn253 2.034 . S
O266 Zn245 2.024 . S
O266 C246 1.249 . S
C267 O263 1.251 . S
C267 O264 1.254 . S
H268 C241 0.949 . S
H269 C243 0.950 . S
H270 C250 0.949 . S
H271 C252 0.950 . S
Fe272 O273 1.886 . S
Fe272 O276 1.715 1_655 S
Fe272 O281 2.077 . S
Fe272 O286 1.935 1_655 S
Fe272 O292 2.077 . S
Fe272 O301 1.935 1_655 S
O273 Fe272 1.886 . S
O273 Fe275 1.715 . S
Fe274 O276 1.886 1_565 S
Fe274 O277 1.715 . S
Fe274 O284 1.935 . S
Fe274 O285 2.077 1_565 S
Fe274 O291 1.935 . S
Fe274 O300 2.077 1_565 S
Fe275 O273 1.715 . S
Fe275 O278 1.886 1_545 S
Fe275 O282 1.935 . S
Fe275 O287 2.077 1_545 S
Fe275 O293 1.935 . S
Fe275 O297 2.077 1_545 S
O276 Fe272 1.715 1_455 S
O276 Fe274 1.886 1_545 S
O277 Fe274 1.715 . S
O277 Fe279 1.886 . S
O278 Fe275 1.886 1_565 S
O278 Fe279 1.715 1_655 S
Fe279 O277 1.886 . S
Fe279 O278 1.715 1_455 S
Fe279 O283 2.077 . S
Fe279 O288 1.935 1_455 S
Fe279 O290 2.077 . S
Fe279 O298 1.935 1_455 S
C280 O292 1.381 . S
C280 O293 1.421 . S
O281 Fe272 2.077 . S
O281 C294 1.381 . S
O282 Fe275 1.935 . S
O282 C294 1.421 . S
O283 Fe279 2.077 . S
O283 C299 1.381 . S
O284 Fe274 1.935 . S
O284 C299 1.421 . S
O285 Fe274 2.077 1_545 S
O285 C289 1.381 . S
O286 Fe272 1.935 1_455 S
O286 C289 1.421 . S
O287 Fe275 2.077 1_565 S
O287 C295 1.381 . S
O288 Fe279 1.935 1_655 S
O288 C295 1.421 . S
C289 O285 1.381 . S
C289 O286 1.421 . S
O290 Fe279 2.077 . S
O290 C302 1.381 . S
O291 Fe274 1.935 . S
O291 C302 1.421 . S
O292 Fe272 2.077 . S
O292 C280 1.381 . S
O293 Fe275 1.935 . S
O293 C280 1.421 . S
C294 O281 1.381 . S
C294 O282 1.421 . S
C295 O287 1.381 . S
C295 O288 1.421 . S
C296 O297 1.381 . S
C296 O298 1.421 . S
O297 Fe275 2.077 1_565 S
O297 C296 1.381 . S
O298 Fe279 1.935 1_655 S
O298 C296 1.421 . S
C299 O283 1.381 . S
C299 O284 1.421 . S
O300 Fe274 2.077 1_545 S
O300 C303 1.381 . S
O301 Fe272 1.935 1_455 S
O301 C303 1.421 . S
C302 O290 1.381 . S
C302 O291 1.421 . S
C303 O300 1.381 . S
C303 O301 1.421 . S
Fe304 O305 1.886 . S
Fe304 O308 1.715 . S
Fe304 O313 2.077 1_554 S
Fe304 O318 1.935 1_554 S
Fe304 O324 2.077 . S
Fe304 O333 1.935 . S
O305 Fe304 1.886 . S
O305 Fe307 1.715 1_554 S
Fe306 O308 1.886 1_545 S
Fe306 O309 1.715 . S
Fe306 O316 1.935 1_554 S
Fe306 O317 2.077 1_544 S
Fe306 O323 1.935 . S
Fe306 O332 2.077 1_545 S
Fe307 O305 1.715 1_556 S
Fe307 O310 1.886 1_565 S
Fe307 O314 1.935 . S
Fe307 O319 2.077 1_565 S
Fe307 O325 1.935 1_556 S
Fe307 O329 2.077 1_566 S
O308 Fe304 1.715 . S
O308 Fe306 1.886 1_565 S
O309 Fe306 1.715 . S
O309 Fe311 1.886 1_554 S
O310 Fe307 1.886 1_545 S
O310 Fe311 1.715 . S
Fe311 O309 1.886 1_556 S
Fe311 O310 1.715 . S
Fe311 O315 2.077 . S
Fe311 O320 1.935 . S
Fe311 O322 2.077 1_556 S
Fe311 O330 1.935 1_556 S
C312 O324 1.381 . S
C312 O325 1.421 . S
O313 Fe304 2.077 1_556 S
O313 C326 1.381 . S
O314 Fe307 1.935 . S
O314 C326 1.421 . S
O315 Fe311 2.077 . S
O315 C331 1.381 . S
O316 Fe306 1.935 1_556 S
O316 C331 1.421 . S
O317 Fe306 2.077 1_566 S
O317 C321 1.381 . S
O318 Fe304 1.935 1_556 S
O318 C321 1.421 . S
O319 Fe307 2.077 1_545 S
O319 C327 1.381 . S
O320 Fe311 1.935 . S
O320 C327 1.421 . S
C321 O317 1.381 . S
C321 O318 1.421 . S
O322 Fe311 2.077 1_554 S
O322 C334 1.381 . S
O323 Fe306 1.935 . S
O323 C334 1.421 . S
O324 Fe304 2.077 . S
O324 C312 1.381 . S
O325 Fe307 1.935 1_554 S
O325 C312 1.421 . S
C326 O313 1.381 . S
C326 O314 1.421 . S
C327 O319 1.381 . S
C327 O320 1.421 . S
C328 O329 1.381 . S
C328 O330 1.421 . S
O329 Fe307 2.077 1_544 S
O329 C328 1.381 . S
O330 Fe311 1.935 1_554 S
O330 C328 1.421 . S
C331 O315 1.381 . S
C331 O316 1.421 . S
O332 Fe306 2.077 1_565 S
O332 C335 1.381 . S
O333 Fe304 1.935 . S
O333 C335 1.421 . S
C334 O322 1.381 . S
C334 O323 1.421 . S
C335 O332 1.381 . S
C335 O333 1.421 . S
Fe336 O337 1.886 1_556 S
Fe336 O340 1.715 1_655 S
Fe336 O345 2.077 . S
Fe336 O350 1.935 1_655 S
Fe336 O356 2.077 1_556 S
Fe336 O365 1.935 1_656 S
O337 Fe336 1.886 1_554 S
O337 Fe339 1.715 . S
Fe338 O340 1.886 . S
Fe338 O341 1.715 1_556 S
Fe338 O348 1.935 . S
Fe338 O349 2.077 . S
Fe338 O355 1.935 1_556 S
Fe338 O364 2.077 1_556 S
Fe339 O337 1.715 . S
Fe339 O342 1.886 . S
Fe339 O346 1.935 1_554 S
Fe339 O351 2.077 1_554 S
Fe339 O357 1.935 . S
Fe339 O361 2.077 . S
O340 Fe336 1.715 1_455 S
O340 Fe338 1.886 . S
O341 Fe338 1.715 1_554 S
O341 Fe343 1.886 . S
O342 Fe339 1.886 . S
O342 Fe343 1.715 1_655 S
Fe343 O341 1.886 . S
Fe343 O342 1.715 1_455 S
Fe343 O347 2.077 1_554 S
Fe343 O352 1.935 1_454 S
Fe343 O354 2.077 . S
Fe343 O362 1.935 1_455 S
C344 O356 1.381 . S
C344 O357 1.421 . S
O345 Fe336 2.077 . S
O345 C358 1.381 . S
O346 Fe339 1.935 1_556 S
O346 C358 1.421 . S
O347 Fe343 2.077 1_556 S
O347 C363 1.381 . S
O348 Fe338 1.935 . S
O348 C363 1.421 . S
O349 Fe338 2.077 . S
O349 C353 1.381 . S
O350 Fe336 1.935 1_455 S
O350 C353 1.421 . S
O351 Fe339 2.077 1_556 S
O351 C359 1.381 . S
O352 Fe343 1.935 1_656 S
O352 C359 1.421 . S
C353 O349 1.381 . S
C353 O350 1.421 . S
O354 Fe343 2.077 . S
O354 C366 1.381 . S
O355 Fe338 1.935 1_554 S
O355 C366 1.421 . S
O356 Fe336 2.077 1_554 S
O356 C344 1.381 . S
O357 Fe339 1.935 . S
O357 C344 1.421 . S
C358 O345 1.381 . S
C358 O346 1.421 . S
C359 O351 1.381 . S
C359 O352 1.421 . S
C360 O361 1.381 . S
C360 O362 1.421 . S
O361 Fe339 2.077 . S
O361 C360 1.381 . S
O362 Fe343 1.935 1_655 S
O362 C360 1.421 . S
C363 O347 1.381 . S
C363 O348 1.421 . S
O364 Fe338 2.077 1_554 S
O364 C367 1.381 . S
O365 Fe336 1.935 1_454 S
O365 C367 1.421 . S
C366 O354 1.381 . S
C366 O355 1.421 . S
C367 O364 1.381 . S
C367 O365 1.421 . S
Fe368 O369 1.886 . S
Fe368 O372 1.715 . S
Fe368 O377 2.077 . S
Fe368 O382 1.935 . S
Fe368 O388 2.077 . S
Fe368 O397 1.935 . S
O369 Fe368 1.886 . S
O369 Fe371 1.740 . S
Fe370 O372 1.856 1_554 S
Fe370 O373 1.747 . S
Fe370 O380 1.959 . S
Fe370 O381 2.051 1_554 S
Fe370 O387 1.957 . S
Fe370 O396 2.049 1_554 S
Fe371 O369 1.740 . S
Fe371 O374 1.863 1_556 S
Fe371 O378 1.952 . S
Fe371 O383 2.055 1_556 S
Fe371 O389 1.954 . S
Fe371 O393 2.057 1_556 S
O372 Fe368 1.715 . S
O372 Fe370 1.856 1_556 S
O373 Fe370 1.747 . S
O373 Fe375 1.886 . S
O374 Fe371 1.863 1_554 S
O374 Fe375 1.715 . S
Fe375 O373 1.886 . S
Fe375 O374 1.715 . S
Fe375 O379 2.077 . S
Fe375 O384 1.935 . S
Fe375 O386 2.077 . S
Fe375 O394 1.935 . S
C376 O388 1.381 . S
C376 O389 1.421 . S
O377 Fe368 2.077 . S
O377 C390 1.381 . S
O378 Fe371 1.952 . S
O378 C390 1.421 . S
O379 Fe375 2.077 . S
O379 C395 1.381 . S
O380 Fe370 1.959 . S
O380 C395 1.421 . S
O381 Fe370 2.051 1_556 S
O381 C385 1.381 . S
O382 Fe368 1.935 . S
O382 C385 1.421 . S
O383 Fe371 2.055 1_554 S
O383 C391 1.381 . S
O384 Fe375 1.935 . S
O384 C391 1.421 . S
C385 O381 1.381 . S
C385 O382 1.421 . S
O386 Fe375 2.077 . S
O386 C398 1.381 . S
O387 Fe370 1.957 . S
O387 C398 1.421 . S
O388 Fe368 2.077 . S
O388 C376 1.381 . S
O389 Fe371 1.954 . S
O389 C376 1.421 . S
C390 O377 1.381 . S
C390 O378 1.421 . S
C391 O383 1.381 . S
C391 O384 1.421 . S
C392 O393 1.381 . S
C392 O394 1.421 . S
O393 Fe371 2.057 1_554 S
O393 C392 1.381 . S
O394 Fe375 1.935 . S
O394 C392 1.421 . S
C395 O379 1.381 . S
C395 O380 1.421 . S
O396 Fe370 2.049 1_556 S
O396 C399 1.381 . S
O397 Fe368 1.935 . S
O397 C399 1.421 . S
C398 O386 1.381 . S
C398 O387 1.421 . S
C399 O396 1.381 . S
C399 O397 1.421 . S
Fe400 O401 1.884 . S
Fe400 O404 1.715 . S
Fe400 O409 2.077 . S
Fe400 O414 1.935 . S
Fe400 O420 2.077 1_455 S
Fe400 O429 1.935 1_455 S
O401 Fe400 1.884 . S
O401 Fe403 1.718 1_455 S
Fe402 O404 1.886 . S
Fe402 O405 1.717 1_455 S
Fe402 O412 1.935 . S
Fe402 O413 2.077 . S
Fe402 O419 1.935 1_455 S
Fe402 O428 2.077 1_455 S
Fe403 O401 1.718 1_655 S
Fe403 O406 1.886 . S
Fe403 O410 1.935 1_655 S
Fe403 O415 2.077 1_655 S
Fe403 O421 1.935 . S
Fe403 O425 2.077 . S
O404 Fe400 1.715 . S
O404 Fe402 1.886 . S
O405 Fe402 1.717 1_655 S
O405 Fe407 1.884 . S
O406 Fe403 1.886 . S
O406 Fe407 1.715 . S
Fe407 O405 1.884 . S
Fe407 O406 1.715 . S
Fe407 O411 2.077 1_655 S
Fe407 O416 1.935 1_655 S
Fe407 O418 2.077 . S
Fe407 O426 1.935 . S
C408 O420 1.381 . S
C408 O421 1.421 . S
O409 Fe400 2.077 . S
O409 C422 1.381 . S
O410 Fe403 1.935 1_455 S
O410 C422 1.421 . S
O411 Fe407 2.077 1_455 S
O411 C427 1.381 . S
O412 Fe402 1.935 . S
O412 C427 1.421 . S
O413 Fe402 2.077 . S
O413 C417 1.381 . S
O414 Fe400 1.935 . S
O414 C417 1.421 . S
O415 Fe403 2.077 1_455 S
O415 C423 1.381 . S
O416 Fe407 1.935 1_455 S
O416 C423 1.421 . S
C417 O413 1.381 . S
C417 O414 1.421 . S
O418 Fe407 2.077 . S
O418 C430 1.381 . S
O419 Fe402 1.935 1_655 S
O419 C430 1.421 . S
O420 Fe400 2.077 1_655 S
O420 C408 1.381 . S
O421 Fe403 1.935 . S
O421 C408 1.421 . S
C422 O409 1.381 . S
C422 O410 1.421 . S
C423 O415 1.381 . S
C423 O416 1.421 . S
C424 O425 1.381 . S
C424 O426 1.421 . S
O425 Fe403 2.077 . S
O425 C424 1.381 . S
O426 Fe407 1.935 . S
O426 C424 1.421 . S
C427 O411 1.381 . S
C427 O412 1.421 . S
O428 Fe402 2.077 1_655 S
O428 C431 1.381 . S
O429 Fe400 1.935 1_655 S
O429 C431 1.421 . S
C430 O418 1.381 . S
C430 O419 1.421 . S
C431 O428 1.381 . S
C431 O429 1.421 . S
Fe432 O433 1.886 . S
Fe432 O436 1.715 . S
Fe432 O441 2.077 . S
Fe432 O446 1.935 . S
Fe432 O452 2.077 . S
Fe432 O461 1.935 . S
O433 Fe432 1.886 . S
O433 Fe435 1.739 . S
Fe434 O436 1.857 1_545 S
Fe434 O437 1.747 . S
Fe434 O444 1.960 . S
Fe434 O445 2.052 1_545 S
Fe434 O451 1.956 . S
Fe434 O460 2.048 1_545 S
Fe435 O433 1.739 . S
Fe435 O438 1.863 1_565 S
Fe435 O442 1.951 . S
Fe435 O447 2.055 1_565 S
Fe435 O453 1.954 . S
Fe435 O457 2.058 1_565 S
O436 Fe432 1.715 . S
O436 Fe434 1.857 1_565 S
O437 Fe434 1.747 . S
O437 Fe439 1.886 . S
O438 Fe435 1.863 1_545 S
O438 Fe439 1.715 . S
Fe439 O437 1.886 . S
Fe439 O438 1.715 . S
Fe439 O443 2.077 . S
Fe439 O448 1.935 . S
Fe439 O450 2.077 . S
Fe439 O458 1.935 . S
C440 O452 1.381 . S
C440 O453 1.421 . S
O441 Fe432 2.077 . S
O441 C454 1.381 . S
O442 Fe435 1.951 . S
O442 C454 1.421 . S
O443 Fe439 2.077 . S
O443 C459 1.381 . S
O444 Fe434 1.960 . S
O444 C459 1.421 . S
O445 Fe434 2.052 1_565 S
O445 C449 1.381 . S
O446 Fe432 1.935 . S
O446 C449 1.421 . S
O447 Fe435 2.055 1_545 S
O447 C455 1.381 . S
O448 Fe439 1.935 . S
O448 C455 1.421 . S
C449 O445 1.381 . S
C449 O446 1.421 . S
O450 Fe439 2.077 . S
O450 C462 1.381 . S
O451 Fe434 1.956 . S
O451 C462 1.421 . S
O452 Fe432 2.077 . S
O452 C440 1.381 . S
O453 Fe435 1.954 . S
O453 C440 1.421 . S
C454 O441 1.381 . S
C454 O442 1.421 . S
C455 O447 1.381 . S
C455 O448 1.421 . S
C456 O457 1.381 . S
C456 O458 1.421 . S
O457 Fe435 2.058 1_545 S
O457 C456 1.381 . S
O458 Fe439 1.935 . S
O458 C456 1.421 . S
C459 O443 1.381 . S
C459 O444 1.421 . S
O460 Fe434 2.048 1_565 S
O460 C463 1.381 . S
O461 Fe432 1.935 . S
O461 C463 1.421 . S
C462 O450 1.381 . S
C462 O451 1.421 . S
C463 O460 1.381 . S
C463 O461 1.421 . S
H464 C482 0.951 . S
H465 C484 0.951 . S
H466 C486 0.950 . S
H467 C487 0.950 . S
H468 C489 0.950 . S
H469 C492 0.950 . S
H470 C493 0.950 . S
H471 C495 0.950 . S
H472 C496 0.950 . S
H473 C497 0.951 . S
H474 C499 0.951 . S
H475 C501 0.950 . S
H476 C502 0.950 . S
H477 C504 0.950 . S
H478 C507 0.950 . S
H479 C508 0.950 1_565 S
H480 C510 0.946 1_565 S
H481 C511 0.950 . S
C482 H464 0.951 . S
C482 C483 1.366 . S
C482 C484 1.388 . S
C483 C482 1.366 . S
C483 C487 1.385 . S
C484 H465 0.951 . S
C484 C482 1.388 . S
C484 C485 1.366 . S
C485 C484 1.366 . S
C485 C486 1.414 . S
C485 C488 1.499 . S
C486 H466 0.950 . S
C486 C485 1.414 . S
C486 C487 1.374 . S
C487 H467 0.950 . S
C487 C483 1.385 . S
C487 C486 1.374 . S
C488 C485 1.499 . S
C488 C489 1.373 . S
C488 C490 1.389 . S
C489 H468 0.950 . S
C489 C488 1.373 . S
C489 C505 1.377 . S
C490 C488 1.389 . S
C490 C491 1.524 . S
C490 C504 1.377 . S
C491 C490 1.524 . S
C491 C492 1.397 . S
C491 C496 1.363 . S
C492 H469 0.950 . S
C492 C491 1.397 . S
C492 C493 1.334 . S
C493 H470 0.950 . S
C493 C492 1.334 . S
C493 C494 1.287 . S
C494 C493 1.287 . S
C494 C495 1.524 . S
C494 H513 0.913 . S
C495 H471 0.950 . S
C495 C494 1.524 . S
C495 C496 1.415 . S
C496 H472 0.950 . S
C496 C491 1.363 . S
C496 C495 1.415 . S
C497 H473 0.951 . S
C497 C498 1.366 . S
C497 C499 1.388 . S
C498 C497 1.366 . S
C498 C502 1.385 . S
C499 H474 0.951 . S
C499 C497 1.388 . S
C499 C500 1.366 . S
C500 C499 1.366 . S
C500 C501 1.414 . S
C500 C503 1.499 . S
C501 H475 0.950 . S
C501 C500 1.414 . S
C501 C502 1.374 . S
C502 H476 0.950 . S
C502 C498 1.385 . S
C502 C501 1.374 . S
C503 C500 1.499 . S
C503 C504 1.373 . S
C503 C505 1.389 . S
C504 H477 0.950 . S
C504 C490 1.377 . S
C504 C503 1.373 . S
C505 C489 1.377 . S
C505 C503 1.389 . S
C505 C506 1.524 . S
C506 C505 1.524 . S
C506 C507 1.397 . S
C506 C511 1.363 . S
C507 H478 0.950 . S
C507 C506 1.397 . S
C507 C508 1.334 . S
C508 H479 0.950 1_545 S
C508 C507 1.334 . S
C508 C509 1.287 1_545 S
C509 C508 1.287 1_565 S
C509 C510 1.524 1_565 S
C509 H512 0.999 . S
C510 H480 0.946 1_545 S
C510 C509 1.524 1_545 S
C510 C511 1.415 . S
C511 H481 0.950 . S
C511 C506 1.363 . S
C511 C510 1.415 . S
H512 C509 0.999 . S
H513 C494 0.913 . S
H514 C532 0.951 . S
H515 C534 0.951 . S
H516 C536 0.950 . S
H517 C537 0.950 . S
H518 C539 0.950 . S
H519 C542 0.950 . S
H520 C543 0.950 . S
H521 C545 0.950 . S
H522 C546 0.950 . S
H523 C547 0.951 . S
H524 C549 0.951 . S
H525 C551 0.950 . S
H526 C552 0.950 . S
H527 C554 0.950 . S
H528 C557 0.950 . S
H529 C558 0.950 . S
H530 C560 0.950 . S
H531 C561 0.950 . S
C532 H514 0.951 . S
C532 C533 1.366 . S
C532 C534 1.388 . S
C533 C532 1.366 . S
C533 C537 1.385 . S
C534 H515 0.951 . S
C534 C532 1.388 . S
C534 C535 1.366 . S
C535 C534 1.366 . S
C535 C536 1.414 . S
C535 C538 1.499 . S
C536 H516 0.950 . S
C536 C535 1.414 . S
C536 C537 1.374 . S
C537 H517 0.950 . S
C537 C533 1.385 . S
C537 C536 1.374 . S
C538 C535 1.499 . S
C538 C539 1.373 . S
C538 C540 1.389 . S
C539 H518 0.950 . S
C539 C538 1.373 . S
C539 C555 1.377 . S
C540 C538 1.389 . S
C540 C541 1.524 . S
C540 C554 1.377 . S
C541 C540 1.524 . S
C541 C542 1.397 . S
C541 C546 1.363 . S
C542 H519 0.950 . S
C542 C541 1.397 . S
C542 C543 1.334 . S
C543 H520 0.950 . S
C543 C542 1.334 . S
C543 C544 1.287 . S
C544 C543 1.287 . S
C544 C545 1.524 . S
C544 H563 0.913 . S
C545 H521 0.950 . S
C545 C544 1.524 . S
C545 C546 1.415 . S
C546 H522 0.950 . S
C546 C541 1.363 . S
C546 C545 1.415 . S
C547 H523 0.951 . S
C547 C548 1.366 . S
C547 C549 1.388 . S
C548 C547 1.366 . S
C548 C552 1.385 . S
C549 H524 0.951 . S
C549 C547 1.388 . S
C549 C550 1.366 . S
C550 C549 1.366 . S
C550 C551 1.414 . S
C550 C553 1.499 . S
C551 H525 0.950 . S
C551 C550 1.414 . S
C551 C552 1.374 . S
C552 H526 0.950 . S
C552 C548 1.385 . S
C552 C551 1.374 . S
C553 C550 1.499 . S
C553 C554 1.373 . S
C553 C555 1.389 . S
C554 H527 0.950 . S
C554 C540 1.377 . S
C554 C553 1.373 . S
C555 C539 1.377 . S
C555 C553 1.389 . S
C555 C556 1.524 . S
C556 C555 1.524 . S
C556 C557 1.397 . S
C556 C561 1.363 . S
C557 H528 0.950 . S
C557 C556 1.397 . S
C557 C558 1.334 . S
C558 H529 0.950 . S
C558 C557 1.334 . S
C558 C559 1.287 . S
C559 C558 1.287 . S
C559 C560 1.524 . S
C559 H562 1.040 . S
C560 H530 0.950 . S
C560 C559 1.524 . S
C560 C561 1.415 . S
C561 H531 0.950 . S
C561 C556 1.363 . S
C561 C560 1.415 . S
H562 C559 1.040 . S
H563 C544 0.913 . S
H564 C582 0.951 . S
H565 C584 0.951 . S
H566 C586 0.950 . S
H567 C587 0.950 . S
H568 C589 0.950 . S
H569 C592 0.950 . S
H570 C593 0.950 . S
H571 C595 0.950 . S
H572 C596 0.950 . S
H573 C597 0.951 . S
H574 C599 0.951 . S
H575 C601 0.950 . S
H576 C602 0.950 . S
H577 C604 0.950 . S
H578 C607 0.950 . S
H579 C608 0.950 . S
H580 C610 0.950 . S
H581 C611 0.950 . S
C582 H564 0.951 . S
C582 C583 1.366 . S
C582 C584 1.388 . S
C583 C582 1.366 . S
C583 C587 1.385 . S
C584 H565 0.951 . S
C584 C582 1.388 . S
C584 C585 1.366 . S
C585 C584 1.366 . S
C585 C586 1.414 . S
C585 C588 1.499 . S
C586 H566 0.950 . S
C586 C585 1.414 . S
C586 C587 1.374 . S
C587 H567 0.950 . S
C587 C583 1.385 . S
C587 C586 1.374 . S
C588 C585 1.499 . S
C588 C589 1.373 . S
C588 C590 1.389 . S
C589 H568 0.950 . S
C589 C588 1.373 . S
C589 C605 1.377 . S
C590 C588 1.389 . S
C590 C591 1.524 . S
C590 C604 1.377 . S
C591 C590 1.524 . S
C591 C592 1.397 . S
C591 C596 1.363 . S
C592 H569 0.950 . S
C592 C591 1.397 . S
C592 C593 1.334 . S
C593 H570 0.950 . S
C593 C592 1.334 . S
C593 C594 1.287 . S
C594 C593 1.287 . S
C594 C595 1.524 . S
C594 H613 0.913 . S
C595 H571 0.950 . S
C595 C594 1.524 . S
C595 C596 1.415 . S
C596 H572 0.950 . S
C596 C591 1.363 . S
C596 C595 1.415 . S
C597 H573 0.951 . S
C597 C598 1.366 . S
C597 C599 1.388 . S
C598 C597 1.366 . S
C598 C602 1.385 . S
C599 H574 0.951 . S
C599 C597 1.388 . S
C599 C600 1.366 . S
C600 C599 1.366 . S
C600 C601 1.414 . S
C600 C603 1.499 . S
C601 H575 0.950 . S
C601 C600 1.414 . S
C601 C602 1.374 . S
C602 H576 0.950 . S
C602 C598 1.385 . S
C602 C601 1.374 . S
C603 C600 1.499 . S
C603 C604 1.373 . S
C603 C605 1.389 . S
C604 H577 0.950 . S
C604 C590 1.377 . S
C604 C603 1.373 . S
C605 C589 1.377 . S
C605 C603 1.389 . S
C605 C606 1.524 . S
C606 C605 1.524 . S
C606 C607 1.397 . S
C606 C611 1.363 . S
C607 H578 0.950 . S
C607 C606 1.397 . S
C607 C608 1.334 . S
C608 H579 0.950 . S
C608 C607 1.334 . S
C608 C609 1.287 . S
C609 C608 1.287 . S
C609 C610 1.524 . S
C609 H612 0.999 . S
C610 H580 0.950 . S
C610 C609 1.524 . S
C610 C611 1.415 . S
C611 H581 0.950 . S
C611 C606 1.363 . S
C611 C610 1.415 . S
H612 C609 0.999 . S
H613 C594 0.913 . S
H614 C632 0.951 . S
H615 C634 0.951 . S
H616 C636 0.950 . S
H617 C637 0.950 . S
H618 C639 0.950 . S
H619 C642 0.950 . S
H620 C643 0.950 . S
H621 C645 0.950 . S
H622 C646 0.950 . S
H623 C647 0.951 . S
H624 C649 0.951 . S
H625 C651 0.950 . S
H626 C652 0.950 . S
H627 C654 0.950 . S
H628 C657 0.950 . S
H629 C658 0.950 . S
H630 C660 0.950 . S
H631 C661 0.950 . S
C632 H614 0.951 . S
C632 C633 1.366 . S
C632 C634 1.388 . S
C633 C632 1.366 . S
C633 C637 1.385 . S
C634 H615 0.951 . S
C634 C632 1.388 . S
C634 C635 1.366 . S
C635 C634 1.366 . S
C635 C636 1.414 . S
C635 C638 1.499 . S
C636 H616 0.950 . S
C636 C635 1.414 . S
C636 C637 1.374 . S
C637 H617 0.950 . S
C637 C633 1.385 . S
C637 C636 1.374 . S
C638 C635 1.499 . S
C638 C639 1.373 . S
C638 C640 1.389 . S
C639 H618 0.950 . S
C639 C638 1.373 . S
C639 C655 1.377 . S
C640 C638 1.389 . S
C640 C641 1.524 . S
C640 C654 1.377 . S
C641 C640 1.524 . S
C641 C642 1.397 . S
C641 C646 1.363 . S
C642 H619 0.950 . S
C642 C641 1.397 . S
C642 C643 1.334 . S
C643 H620 0.950 . S
C643 C642 1.334 . S
C643 C644 1.287 . S
C644 C643 1.287 . S
C644 C645 1.524 . S
C644 H663 0.913 . S
C645 H621 0.950 . S
C645 C644 1.524 . S
C645 C646 1.415 . S
C646 H622 0.950 . S
C646 C641 1.363 . S
C646 C645 1.415 . S
C647 H623 0.951 . S
C647 C648 1.366 . S
C647 C649 1.388 . S
C648 C647 1.366 . S
C648 C652 1.385 . S
C649 H624 0.951 . S
C649 C647 1.388 . S
C649 C650 1.366 . S
C650 C649 1.366 . S
C650 C651 1.414 . S
C650 C653 1.499 . S
C651 H625 0.950 . S
C651 C650 1.414 . S
C651 C652 1.374 . S
C652 H626 0.950 . S
C652 C648 1.385 . S
C652 C651 1.374 . S
C653 C650 1.499 . S
C653 C654 1.373 . S
C653 C655 1.389 . S
C654 H627 0.950 . S
C654 C640 1.377 . S
C654 C653 1.373 . S
C655 C639 1.377 . S
C655 C653 1.389 . S
C655 C656 1.524 . S
C656 C655 1.524 . S
C656 C657 1.397 . S
C656 C661 1.363 . S
C657 H628 0.950 . S
C657 C656 1.397 . S
C657 C658 1.334 . S
C658 H629 0.950 . S
C658 C657 1.334 . S
C658 C659 1.287 . S
C659 C658 1.287 . S
C659 C660 1.524 . S
C659 H662 0.999 . S
C660 H630 0.950 . S
C660 C659 1.524 . S
C660 C661 1.415 . S
C661 H631 0.950 . S
C661 C656 1.363 . S
C661 C660 1.415 . S
H662 C659 0.999 . S
H663 C644 0.913 . S
H664 C682 0.951 . S
H665 C684 0.951 . S
H666 C686 0.950 . S
H667 C687 0.950 . S
H668 C689 0.950 . S
H669 C692 0.950 . S
H670 C693 0.950 . S
H671 C695 0.950 . S
H672 C696 0.950 . S
H673 C697 0.951 . S
H674 C699 0.951 . S
H675 C701 0.950 . S
H676 C702 0.950 . S
H677 C704 0.950 . S
H678 C707 0.950 . S
H679 C708 0.950 . S
H680 C710 0.950 . S
H681 C711 0.950 . S
C682 H664 0.951 . S
C682 C683 1.366 . S
C682 C684 1.388 . S
C683 C682 1.366 . S
C683 C687 1.385 . S
C684 H665 0.951 . S
C684 C682 1.388 . S
C684 C685 1.366 . S
C685 C684 1.366 . S
C685 C686 1.414 . S
C685 C688 1.499 . S
C686 H666 0.950 . S
C686 C685 1.414 . S
C686 C687 1.374 . S
C687 H667 0.950 . S
C687 C683 1.385 . S
C687 C686 1.374 . S
C688 C685 1.499 . S
C688 C689 1.373 . S
C688 C690 1.389 . S
C689 H668 0.950 . S
C689 C688 1.373 . S
C689 C705 1.377 . S
C690 C688 1.389 . S
C690 C691 1.524 . S
C690 C704 1.377 . S
C691 C690 1.524 . S
C691 C692 1.397 . S
C691 C696 1.363 . S
C692 H669 0.950 . S
C692 C691 1.397 . S
C692 C693 1.334 . S
C693 H670 0.950 . S
C693 C692 1.334 . S
C693 C694 1.287 . S
C694 C693 1.287 . S
C694 C695 1.524 . S
C694 H713 0.913 . S
C695 H671 0.950 . S
C695 C694 1.524 . S
C695 C696 1.415 . S
C696 H672 0.950 . S
C696 C691 1.363 . S
C696 C695 1.415 . S
C697 H673 0.951 . S
C697 C698 1.366 . S
C697 C699 1.388 . S
C698 C697 1.366 . S
C698 C702 1.385 . S
C699 H674 0.951 . S
C699 C697 1.388 . S
C699 C700 1.366 . S
C700 C699 1.366 . S
C700 C701 1.414 . S
C700 C703 1.499 . S
C701 H675 0.950 . S
C701 C700 1.414 . S
C701 C702 1.374 . S
C702 H676 0.950 . S
C702 C698 1.385 . S
C702 C701 1.374 . S
C703 C700 1.499 . S
C703 C704 1.373 . S
C703 C705 1.389 . S
C704 H677 0.950 . S
C704 C690 1.377 . S
C704 C703 1.373 . S
C705 C689 1.377 . S
C705 C703 1.389 . S
C705 C706 1.524 . S
C706 C705 1.524 . S
C706 C707 1.397 . S
C706 C711 1.363 . S
C707 H678 0.950 . S
C707 C706 1.397 . S
C707 C708 1.334 . S
C708 H679 0.950 . S
C708 C707 1.334 . S
C708 C709 1.287 . S
C709 C708 1.287 . S
C709 C710 1.524 . S
C709 H712 0.999 . S
C710 H680 0.950 . S
C710 C709 1.524 . S
C710 C711 1.415 . S
C711 H681 0.950 . S
C711 C706 1.363 . S
C711 C710 1.415 . S
H712 C709 0.999 . S
H713 C694 0.913 . S
H714 C732 0.951 . S
H715 C734 0.951 . S
H716 C736 0.950 . S
H717 C737 0.950 . S
H718 C739 0.950 . S
H719 C742 0.950 . S
H720 C743 0.950 . S
H721 C745 0.950 . S
H722 C746 0.950 . S
H723 C747 0.951 . S
H724 C749 0.951 . S
H725 C751 0.950 . S
H726 C752 0.950 . S
H727 C754 0.950 . S
H728 C757 0.950 . S
H729 C758 0.950 . S
H730 C760 0.950 . S
H731 C761 0.950 . S
C732 H714 0.951 . S
C732 C733 1.366 . S
C732 C734 1.388 . S
C733 C732 1.366 . S
C733 C737 1.385 . S
C734 H715 0.951 . S
C734 C732 1.388 . S
C734 C735 1.366 . S
C735 C734 1.366 . S
C735 C736 1.414 . S
C735 C738 1.499 . S
C736 H716 0.950 . S
C736 C735 1.414 . S
C736 C737 1.374 . S
C737 H717 0.950 . S
C737 C733 1.385 . S
C737 C736 1.374 . S
C738 C735 1.499 . S
C738 C739 1.373 . S
C738 C740 1.389 . S
C739 H718 0.950 . S
C739 C738 1.373 . S
C739 C755 1.377 . S
C740 C738 1.389 . S
C740 C741 1.524 . S
C740 C754 1.377 . S
C741 C740 1.524 . S
C741 C742 1.397 . S
C741 C746 1.363 . S
C742 H719 0.950 . S
C742 C741 1.397 . S
C742 C743 1.334 . S
C743 H720 0.950 . S
C743 C742 1.334 . S
C743 C744 1.287 . S
C744 C743 1.287 . S
C744 C745 1.524 . S
C744 H763 0.913 . S
C745 H721 0.950 . S
C745 C744 1.524 . S
C745 C746 1.415 . S
C746 H722 0.950 . S
C746 C741 1.363 . S
C746 C745 1.415 . S
C747 H723 0.951 . S
C747 C748 1.366 . S
C747 C749 1.388 . S
C748 C747 1.366 . S
C748 C752 1.385 . S
C749 H724 0.951 . S
C749 C747 1.388 . S
C749 C750 1.366 . S
C750 C749 1.366 . S
C750 C751 1.414 . S
C750 C753 1.499 . S
C751 H725 0.950 . S
C751 C750 1.414 . S
C751 C752 1.374 . S
C752 H726 0.950 . S
C752 C748 1.385 . S
C752 C751 1.374 . S
C753 C750 1.499 . S
C753 C754 1.373 . S
C753 C755 1.389 . S
C754 H727 0.950 . S
C754 C740 1.377 . S
C754 C753 1.373 . S
C755 C739 1.377 . S
C755 C753 1.389 . S
C755 C756 1.524 . S
C756 C755 1.524 . S
C756 C757 1.397 . S
C756 C761 1.363 . S
C757 H728 0.950 . S
C757 C756 1.397 . S
C757 C758 1.334 . S
C758 H729 0.950 . S
C758 C757 1.334 . S
C758 C759 1.287 . S
C759 C758 1.287 . S
C759 C760 1.524 . S
C759 H762 0.999 . S
C760 H730 0.950 . S
C760 C759 1.524 . S
C760 C761 1.415 . S
C761 H731 0.950 . S
C761 C756 1.363 . S
C761 C760 1.415 . S
H762 C759 0.999 . S
H763 C744 0.913 . S
H764 C782 0.951 . S
H765 C784 0.951 . S
H766 C786 0.950 . S
H767 C787 0.950 . S
H768 C789 0.950 . S
H769 C792 0.950 . S
H770 C793 0.950 . S
H771 C795 0.950 . S
H772 C796 0.950 . S
H773 C797 0.951 . S
H774 C799 0.951 . S
H775 C801 0.950 . S
H776 C802 0.950 . S
H777 C804 0.950 . S
H778 C807 0.950 . S
H779 C808 0.950 . S
H780 C810 0.950 . S
H781 C811 0.950 . S
C782 H764 0.951 . S
C782 C783 1.366 . S
C782 C784 1.388 . S
C783 C782 1.366 . S
C783 C787 1.385 . S
C784 H765 0.951 . S
C784 C782 1.388 . S
C784 C785 1.366 . S
C785 C784 1.366 . S
C785 C786 1.414 . S
C785 C788 1.499 . S
C786 H766 0.950 . S
C786 C785 1.414 . S
C786 C787 1.374 . S
C787 H767 0.950 . S
C787 C783 1.385 . S
C787 C786 1.374 . S
C788 C785 1.499 . S
C788 C789 1.373 . S
C788 C790 1.389 . S
C789 H768 0.950 . S
C789 C788 1.373 . S
C789 C805 1.377 . S
C790 C788 1.389 . S
C790 C791 1.524 . S
C790 C804 1.377 . S
C791 C790 1.524 . S
C791 C792 1.397 . S
C791 C796 1.363 . S
C792 H769 0.950 . S
C792 C791 1.397 . S
C792 C793 1.334 . S
C793 H770 0.950 . S
C793 C792 1.334 . S
C793 C794 1.287 . S
C794 C793 1.287 . S
C794 C795 1.524 . S
C794 H813 0.913 . S
C795 H771 0.950 . S
C795 C794 1.524 . S
C795 C796 1.415 . S
C796 H772 0.950 . S
C796 C791 1.363 . S
C796 C795 1.415 . S
C797 H773 0.951 . S
C797 C798 1.366 . S
C797 C799 1.388 . S
C798 C797 1.366 . S
C798 C802 1.385 . S
C799 H774 0.951 . S
C799 C797 1.388 . S
C799 C800 1.366 . S
C800 C799 1.366 . S
C800 C801 1.414 . S
C800 C803 1.499 . S
C801 H775 0.950 . S
C801 C800 1.414 . S
C801 C802 1.374 . S
C802 H776 0.950 . S
C802 C798 1.385 . S
C802 C801 1.374 . S
C803 C800 1.499 . S
C803 C804 1.373 . S
C803 C805 1.389 . S
C804 H777 0.950 . S
C804 C790 1.377 . S
C804 C803 1.373 . S
C805 C789 1.377 . S
C805 C803 1.389 . S
C805 C806 1.524 . S
C806 C805 1.524 . S
C806 C807 1.397 . S
C806 C811 1.363 . S
C807 H778 0.950 . S
C807 C806 1.397 . S
C807 C808 1.334 . S
C808 H779 0.950 . S
C808 C807 1.334 . S
C808 C809 1.287 . S
C809 C808 1.287 . S
C809 C810 1.524 . S
C809 H812 0.999 . S
C810 H780 0.950 . S
C810 C809 1.524 . S
C810 C811 1.415 . S
C811 H781 0.950 . S
C811 C806 1.363 . S
C811 C810 1.415 . S
H812 C809 0.999 . S
H813 C794 0.913 . S
H814 C832 0.951 . S
H815 C834 0.951 . S
H816 C836 0.950 . S
H817 C837 0.950 . S
H818 C839 0.950 . S
H819 C842 0.950 . S
H820 C843 0.950 . S
H821 C845 0.950 . S
H822 C846 0.950 . S
H823 C847 0.951 . S
H824 C849 0.951 . S
H825 C851 0.950 . S
H826 C852 0.950 . S
H827 C854 0.950 . S
H828 C857 0.950 . S
H829 C858 0.978 . S
H830 C860 0.950 . S
H831 C861 0.950 . S
C832 H814 0.951 . S
C832 C833 1.366 . S
C832 C834 1.388 . S
C833 C832 1.366 . S
C833 C837 1.385 . S
C834 H815 0.951 . S
C834 C832 1.388 . S
C834 C835 1.366 . S
C835 C834 1.366 . S
C835 C836 1.414 . S
C835 C838 1.499 . S
C836 H816 0.950 . S
C836 C835 1.414 . S
C836 C837 1.374 . S
C837 H817 0.950 . S
C837 C833 1.385 . S
C837 C836 1.374 . S
C838 C835 1.499 . S
C838 C839 1.373 . S
C838 C840 1.389 . S
C839 H818 0.950 . S
C839 C838 1.373 . S
C839 C855 1.377 . S
C840 C838 1.389 . S
C840 C841 1.524 . S
C840 C854 1.377 . S
C841 C840 1.524 . S
C841 C842 1.397 . S
C841 C846 1.363 . S
C842 H819 0.950 . S
C842 C841 1.397 . S
C842 C843 1.334 . S
C843 H820 0.950 . S
C843 C842 1.334 . S
C843 C844 1.287 . S
C844 C843 1.287 . S
C844 C845 1.524 . S
C844 H863 0.913 . S
C845 H821 0.950 . S
C845 C844 1.524 . S
C845 C846 1.415 . S
C846 H822 0.950 . S
C846 C841 1.363 . S
C846 C845 1.415 . S
C847 H823 0.951 . S
C847 C848 1.366 . S
C847 C849 1.388 . S
C848 C847 1.366 . S
C848 C852 1.385 . S
C849 H824 0.951 . S
C849 C847 1.388 . S
C849 C850 1.366 . S
C850 C849 1.366 . S
C850 C851 1.414 . S
C850 C853 1.499 . S
C851 H825 0.950 . S
C851 C850 1.414 . S
C851 C852 1.374 . S
C852 H826 0.950 . S
C852 C848 1.385 . S
C852 C851 1.374 . S
C853 C850 1.499 . S
C853 C854 1.373 . S
C853 C855 1.389 . S
C854 H827 0.950 . S
C854 C840 1.377 . S
C854 C853 1.373 . S
C855 C839 1.377 . S
C855 C853 1.389 . S
C855 C856 1.524 . S
C856 C855 1.524 . S
C856 C857 1.397 . S
C856 C861 1.363 . S
C857 H828 0.950 . S
C857 C856 1.397 . S
C857 C858 1.334 . S
C858 H829 0.978 . S
C858 C857 1.334 . S
C858 C859 1.287 . S
C859 C858 1.287 . S
C859 C860 1.524 . S
C859 H862 0.999 . S
C860 H830 0.950 . S
C860 C859 1.524 . S
C860 C861 1.415 . S
C861 H831 0.950 . S
C861 C856 1.363 . S
C861 C860 1.415 . S
H862 C859 0.999 . S
H863 C844 0.913 . S
H864 C882 0.951 . S
H865 C884 0.951 . S
H866 C886 0.950 . S
H867 C887 0.950 . S
H868 C889 0.950 . S
H869 C892 0.950 . S
H870 C893 0.950 . S
H871 C895 0.950 . S
H872 C896 0.950 . S
H873 C897 0.951 . S
H874 C899 0.951 . S
H875 C901 0.950 . S
H876 C902 0.950 . S
H877 C904 0.950 . S
H878 C907 0.950 . S
H879 C908 0.950 . S
H880 C910 0.950 . S
H881 C911 0.950 . S
C882 H864 0.951 . S
C882 C883 1.366 . S
C882 C884 1.388 . S
C883 C882 1.366 . S
C883 C887 1.385 . S
C884 H865 0.951 . S
C884 C882 1.388 . S
C884 C885 1.366 . S
C885 C884 1.366 . S
C885 C886 1.414 . S
C885 C888 1.499 . S
C886 H866 0.950 . S
C886 C885 1.414 . S
C886 C887 1.374 . S
C887 H867 0.950 . S
C887 C883 1.385 . S
C887 C886 1.374 . S
C888 C885 1.499 . S
C888 C889 1.373 . S
C888 C890 1.389 . S
C889 H868 0.950 . S
C889 C888 1.373 . S
C889 C905 1.377 . S
C890 C888 1.389 . S
C890 C891 1.524 . S
C890 C904 1.377 . S
C891 C890 1.524 . S
C891 C892 1.397 . S
C891 C896 1.363 . S
C892 H869 0.950 . S
C892 C891 1.397 . S
C892 C893 1.334 . S
C893 H870 0.950 . S
C893 C892 1.334 . S
C893 C894 1.287 . S
C894 C893 1.287 . S
C894 C895 1.524 . S
C894 H913 0.913 . S
C895 H871 0.950 . S
C895 C894 1.524 . S
C895 C896 1.415 . S
C896 H872 0.950 . S
C896 C891 1.363 . S
C896 C895 1.415 . S
C897 H873 0.951 . S
C897 C898 1.366 . S
C897 C899 1.388 . S
C898 C897 1.366 . S
C898 C902 1.385 . S
C899 H874 0.951 . S
C899 C897 1.388 . S
C899 C900 1.366 . S
C900 C899 1.366 . S
C900 C901 1.414 . S
C900 C903 1.499 . S
C901 H875 0.950 . S
C901 C900 1.414 . S
C901 C902 1.374 . S
C902 H876 0.950 . S
C902 C898 1.385 . S
C902 C901 1.374 . S
C903 C900 1.499 . S
C903 C904 1.373 . S
C903 C905 1.389 . S
C904 H877 0.950 . S
C904 C890 1.377 . S
C904 C903 1.373 . S
C905 C889 1.377 . S
C905 C903 1.389 . S
C905 C906 1.524 . S
C906 C905 1.524 . S
C906 C907 1.397 . S
C906 C911 1.363 . S
C907 H878 0.950 . S
C907 C906 1.397 . S
C907 C908 1.334 . S
C908 H879 0.950 . S
C908 C907 1.334 . S
C908 C909 1.287 . S
C909 C908 1.287 . S
C909 C910 1.524 . S
C909 H912 0.999 . S
C910 H880 0.950 . S
C910 C909 1.524 . S
C910 C911 1.415 . S
C911 H881 0.950 . S
C911 C906 1.363 . S
C911 C910 1.415 . S
H912 C909 0.999 . S
H913 C894 0.913 . S
H914 C932 0.951 . S
H915 C934 0.951 . S
H916 C936 0.950 . S
H917 C937 0.950 . S
H918 C939 0.950 . S
H919 C942 0.950 . S
H920 C943 0.950 . S
H921 C945 0.950 . S
H922 C946 0.950 . S
H923 C947 0.951 . S
H924 C949 0.951 . S
H925 C951 0.950 . S
H926 C952 0.950 . S
H927 C954 0.950 . S
H928 C957 0.950 . S
H929 C958 0.950 . S
H930 C960 0.950 . S
H931 C961 0.950 . S
C932 H914 0.951 . S
C932 C933 1.366 . S
C932 C934 1.388 . S
C933 C932 1.366 . S
C933 C937 1.385 . S
C934 H915 0.951 . S
C934 C932 1.388 . S
C934 C935 1.366 . S
C935 C934 1.366 . S
C935 C936 1.414 . S
C935 C938 1.499 . S
C936 H916 0.950 . S
C936 C935 1.414 . S
C936 C937 1.374 . S
C937 H917 0.950 . S
C937 C933 1.385 . S
C937 C936 1.374 . S
C938 C935 1.499 . S
C938 C939 1.373 . S
C938 C940 1.389 . S
C939 H918 0.950 . S
C939 C938 1.373 . S
C939 C955 1.377 . S
C940 C938 1.389 . S
C940 C941 1.524 . S
C940 C954 1.377 . S
C941 C940 1.524 . S
C941 C942 1.397 . S
C941 C946 1.363 . S
C942 H919 0.950 . S
C942 C941 1.397 . S
C942 C943 1.334 . S
C943 H920 0.950 . S
C943 C942 1.334 . S
C943 C944 1.287 . S
C944 C943 1.287 . S
C944 C945 1.524 . S
C944 H963 0.913 . S
C945 H921 0.950 . S
C945 C944 1.524 . S
C945 C946 1.415 . S
C946 H922 0.950 . S
C946 C941 1.363 . S
C946 C945 1.415 . S
C947 H923 0.951 . S
C947 C948 1.366 . S
C947 C949 1.388 . S
C948 C947 1.366 . S
C948 C952 1.385 . S
C949 H924 0.951 . S
C949 C947 1.388 . S
C949 C950 1.366 . S
C950 C949 1.366 . S
C950 C951 1.414 . S
C950 C953 1.499 . S
C951 H925 0.950 . S
C951 C950 1.414 . S
C951 C952 1.374 . S
C952 H926 0.950 . S
C952 C948 1.385 . S
C952 C951 1.374 . S
C953 C950 1.499 . S
C953 C954 1.373 . S
C953 C955 1.389 . S
C954 H927 0.950 . S
C954 C940 1.377 . S
C954 C953 1.373 . S
C955 C939 1.377 . S
C955 C953 1.389 . S
C955 C956 1.524 . S
C956 C955 1.524 . S
C956 C957 1.397 . S
C956 C961 1.363 . S
C957 H928 0.950 . S
C957 C956 1.397 . S
C957 C958 1.334 . S
C958 H929 0.950 . S
C958 C957 1.334 . S
C958 C959 1.287 . S
C959 C958 1.287 . S
C959 C960 1.524 . S
C959 H962 0.968 1_554 S
C960 H930 0.950 . S
C960 C959 1.524 . S
C960 C961 1.415 . S
C961 H931 0.950 . S
C961 C956 1.363 . S
C961 C960 1.415 . S
H962 C959 0.968 1_556 S
H963 C944 0.913 . S
H964 C982 0.951 . S
H965 C984 0.951 . S
H966 C986 0.950 . S
H967 C987 0.950 . S
H968 C989 0.950 . S
H969 C992 0.950 . S
H970 C993 0.950 . S
H971 C995 0.950 . S
H972 C996 0.950 . S
H973 C997 0.951 . S
H974 C999 0.951 . S
H975 C1001 0.950 . S
H976 C1002 0.950 . S
H977 C1004 0.950 . S
H978 C1007 0.950 . S
H979 C1008 0.950 . S
H980 C1010 0.950 . S
H981 C1011 0.950 . S
C982 H964 0.951 . S
C982 C983 1.366 . S
C982 C984 1.388 . S
C983 C982 1.366 . S
C983 C987 1.385 . S
C984 H965 0.951 . S
C984 C982 1.388 . S
C984 C985 1.366 . S
C985 C984 1.366 . S
C985 C986 1.414 . S
C985 C988 1.499 . S
C986 H966 0.950 . S
C986 C985 1.414 . S
C986 C987 1.374 . S
C987 H967 0.950 . S
C987 C983 1.385 . S
C987 C986 1.374 . S
C988 C985 1.499 . S
C988 C989 1.373 . S
C988 C990 1.389 . S
C989 H968 0.950 . S
C989 C988 1.373 . S
C989 C1005 1.377 . S
C990 C988 1.389 . S
C990 C991 1.524 . S
C990 C1004 1.377 . S
C991 C990 1.524 . S
C991 C992 1.397 . S
C991 C996 1.363 . S
C992 H969 0.950 . S
C992 C991 1.397 . S
C992 C993 1.334 . S
C993 H970 0.950 . S
C993 C992 1.334 . S
C993 C994 1.287 . S
C994 C993 1.287 . S
C994 C995 1.524 . S
C994 H1013 0.913 . S
C995 H971 0.950 . S
C995 C994 1.524 . S
C995 C996 1.415 . S
C996 H972 0.950 . S
C996 C991 1.363 . S
C996 C995 1.415 . S
C997 H973 0.951 . S
C997 C998 1.366 . S
C997 C999 1.388 . S
C998 C997 1.366 . S
C998 C1002 1.385 . S
C999 H974 0.951 . S
C999 C997 1.388 . S
C999 C1000 1.366 . S
C1000 C999 1.366 . S
C1000 C1001 1.414 . S
C1000 C1003 1.499 . S
C1001 H975 0.950 . S
C1001 C1000 1.414 . S
C1001 C1002 1.374 . S
C1002 H976 0.950 . S
C1002 C998 1.385 . S
C1002 C1001 1.374 . S
C1003 C1000 1.499 . S
C1003 C1004 1.373 . S
C1003 C1005 1.389 . S
C1004 H977 0.950 . S
C1004 C990 1.377 . S
C1004 C1003 1.373 . S
C1005 C989 1.377 . S
C1005 C1003 1.389 . S
C1005 C1006 1.524 . S
C1006 C1005 1.524 . S
C1006 C1007 1.397 . S
C1006 C1011 1.363 . S
C1007 H978 0.950 . S
C1007 C1006 1.397 . S
C1007 C1008 1.334 . S
C1008 H979 0.950 . S
C1008 C1007 1.334 . S
C1008 C1009 1.287 . S
C1009 C1008 1.287 . S
C1009 C1010 1.524 . S
C1009 H1012 0.999 . S
C1010 H980 0.950 . S
C1010 C1009 1.524 . S
C1010 C1011 1.415 . S
C1011 H981 0.950 . S
C1011 C1006 1.363 . S
C1011 C1010 1.415 . S
H1012 C1009 0.999 . S
H1013 C994 0.913 . S
H1014 C1032 0.951 . S
H1015 C1034 0.951 . S
H1016 C1036 0.950 . S
H1017 C1037 0.950 . S
H1018 C1039 0.950 . S
H1019 C1042 0.950 . S
H1020 C1043 0.950 . S
H1021 C1045 0.950 . S
H1022 C1046 0.950 . S
H1023 C1047 0.951 . S
H1024 C1049 0.951 . S
H1025 C1051 0.950 . S
H1026 C1052 0.950 . S
H1027 C1054 0.950 . S
H1028 C1057 0.950 . S
H1029 C1058 0.950 . S
H1030 C1060 0.950 . S
H1031 C1061 0.950 . S
C1032 H1014 0.951 . S
C1032 C1033 1.366 . S
C1032 C1034 1.388 . S
C1033 C1032 1.366 . S
C1033 C1037 1.385 . S
C1034 H1015 0.951 . S
C1034 C1032 1.388 . S
C1034 C1035 1.366 . S
C1035 C1034 1.366 . S
C1035 C1036 1.414 . S
C1035 C1038 1.499 . S
C1036 H1016 0.950 . S
C1036 C1035 1.414 . S
C1036 C1037 1.374 . S
C1037 H1017 0.950 . S
C1037 C1033 1.385 . S
C1037 C1036 1.374 . S
C1038 C1035 1.499 . S
C1038 C1039 1.373 . S
C1038 C1040 1.389 . S
C1039 H1018 0.950 . S
C1039 C1038 1.373 . S
C1039 C1055 1.377 . S
C1040 C1038 1.389 . S
C1040 C1041 1.524 . S
C1040 C1054 1.377 . S
C1041 C1040 1.524 . S
C1041 C1042 1.397 . S
C1041 C1046 1.363 . S
C1042 H1019 0.950 . S
C1042 C1041 1.397 . S
C1042 C1043 1.334 . S
C1043 H1020 0.950 . S
C1043 C1042 1.334 . S
C1043 C1044 1.287 . S
C1044 C1043 1.287 . S
C1044 C1045 1.524 . S
C1044 H1063 0.913 . S
C1045 H1021 0.950 . S
C1045 C1044 1.524 . S
C1045 C1046 1.415 . S
C1046 H1022 0.950 . S
C1046 C1041 1.363 . S
C1046 C1045 1.415 . S
C1047 H1023 0.951 . S
C1047 C1048 1.366 . S
C1047 C1049 1.388 . S
C1048 C1047 1.366 . S
C1048 C1052 1.385 . S
C1049 H1024 0.951 . S
C1049 C1047 1.388 . S
C1049 C1050 1.366 . S
C1050 C1049 1.366 . S
C1050 C1051 1.414 . S
C1050 C1053 1.499 . S
C1051 H1025 0.950 . S
C1051 C1050 1.414 . S
C1051 C1052 1.374 . S
C1052 H1026 0.950 . S
C1052 C1048 1.385 . S
C1052 C1051 1.374 . S
C1053 C1050 1.499 . S
C1053 C1054 1.373 . S
C1053 C1055 1.389 . S
C1054 H1027 0.950 . S
C1054 C1040 1.377 . S
C1054 C1053 1.373 . S
C1055 C1039 1.377 . S
C1055 C1053 1.389 . S
C1055 C1056 1.524 . S
C1056 C1055 1.524 . S
C1056 C1057 1.397 . S
C1056 C1061 1.363 . S
C1057 H1028 0.950 . S
C1057 C1056 1.397 . S
C1057 C1058 1.334 . S
C1058 H1029 0.950 . S
C1058 C1057 1.334 . S
C1058 C1059 1.287 . S
C1059 C1058 1.287 . S
C1059 C1060 1.524 . S
C1059 H1062 0.999 . S
C1060 H1030 0.950 . S
C1060 C1059 1.524 . S
C1060 C1061 1.415 . S
C1061 H1031 0.950 . S
C1061 C1056 1.363 . S
C1061 C1060 1.415 . S
H1062 C1059 0.999 . S
H1063 C1044 0.913 . S
H1064 C1082 0.951 . S
H1065 C1084 0.951 . S
H1066 C1086 0.950 . S
H1067 C1087 0.950 . S
H1068 C1089 0.950 . S
H1069 C1092 0.950 . S
H1070 C1093 0.950 . S
H1071 C1095 0.950 . S
H1072 C1096 0.950 . S
H1073 C1097 0.951 . S
H1074 C1099 0.951 . S
H1075 C1101 0.950 . S
H1076 C1102 0.950 . S
H1077 C1104 0.950 . S
H1078 C1107 0.950 . S
H1079 C1108 0.950 1_545 S
H1080 C1110 0.937 1_545 S
H1081 C1111 0.950 . S
C1082 H1064 0.951 . S
C1082 C1083 1.366 . S
C1082 C1084 1.388 . S
C1083 C1082 1.366 . S
C1083 C1087 1.385 . S
C1084 H1065 0.951 . S
C1084 C1082 1.388 . S
C1084 C1085 1.366 . S
C1085 C1084 1.366 . S
C1085 C1086 1.414 . S
C1085 C1088 1.499 . S
C1086 H1066 0.950 . S
C1086 C1085 1.414 . S
C1086 C1087 1.374 . S
C1087 H1067 0.950 . S
C1087 C1083 1.385 . S
C1087 C1086 1.374 . S
C1088 C1085 1.499 . S
C1088 C1089 1.373 . S
C1088 C1090 1.389 . S
C1089 H1068 0.950 . S
C1089 C1088 1.373 . S
C1089 C1105 1.377 . S
C1090 C1088 1.389 . S
C1090 C1091 1.524 . S
C1090 C1104 1.377 . S
C1091 C1090 1.524 . S
C1091 C1092 1.397 . S
C1091 C1096 1.363 . S
C1092 H1069 0.950 . S
C1092 C1091 1.397 . S
C1092 C1093 1.334 . S
C1093 H1070 0.950 . S
C1093 C1092 1.334 . S
C1093 C1094 1.287 . S
C1094 C1093 1.287 . S
C1094 C1095 1.524 . S
C1094 H1113 0.913 . S
C1095 H1071 0.950 . S
C1095 C1094 1.524 . S
C1095 C1096 1.415 . S
C1096 H1072 0.950 . S
C1096 C1091 1.363 . S
C1096 C1095 1.415 . S
C1097 H1073 0.951 . S
C1097 C1098 1.366 . S
C1097 C1099 1.388 . S
C1098 C1097 1.366 . S
C1098 C1102 1.385 . S
C1099 H1074 0.951 . S
C1099 C1097 1.388 . S
C1099 C1100 1.366 . S
C1100 C1099 1.366 . S
C1100 C1101 1.414 . S
C1100 C1103 1.499 . S
C1101 H1075 0.950 . S
C1101 C1100 1.414 . S
C1101 C1102 1.374 . S
C1102 H1076 0.950 . S
C1102 C1098 1.385 . S
C1102 C1101 1.374 . S
C1103 C1100 1.499 . S
C1103 C1104 1.373 . S
C1103 C1105 1.389 . S
C1104 H1077 0.950 . S
C1104 C1090 1.377 . S
C1104 C1103 1.373 . S
C1105 C1089 1.377 . S
C1105 C1103 1.389 . S
C1105 C1106 1.524 . S
C1106 C1105 1.524 . S
C1106 C1107 1.397 . S
C1106 C1111 1.363 . S
C1107 H1078 0.950 . S
C1107 C1106 1.397 . S
C1107 C1108 1.334 . S
C1108 H1079 0.950 1_565 S
C1108 C1107 1.334 . S
C1108 C1109 1.287 1_565 S
C1109 C1108 1.287 1_545 S
C1109 C1110 1.524 1_545 S
C1109 H1112 0.999 . S
C1110 H1080 0.937 1_565 S
C1110 C1109 1.524 1_565 S
C1110 C1111 1.415 . S
C1111 H1081 0.950 . S
C1111 C1106 1.363 . S
C1111 C1110 1.415 . S
H1112 C1109 0.999 . S
H1113 C1094 0.913 . S
H1114 C1132 0.951 . S
H1115 C1134 0.951 . S
H1116 C1136 0.950 . S
H1117 C1137 0.950 . S
H1118 C1139 0.950 . S
H1119 C1142 0.950 . S
H1120 C1143 0.950 . S
H1121 C1145 0.950 . S
H1122 C1146 0.950 . S
H1123 C1147 0.951 . S
H1124 C1149 0.951 . S
H1125 C1151 0.950 . S
H1126 C1152 0.950 . S
H1127 C1154 0.950 . S
H1128 C1157 0.950 . S
H1129 C1158 0.950 . S
H1130 C1160 0.950 . S
H1131 C1161 0.950 . S
C1132 H1114 0.951 . S
C1132 C1133 1.366 . S
C1132 C1134 1.388 . S
C1133 C1132 1.366 . S
C1133 C1137 1.385 . S
C1134 H1115 0.951 . S
C1134 C1132 1.388 . S
C1134 C1135 1.366 . S
C1135 C1134 1.366 . S
C1135 C1136 1.414 . S
C1135 C1138 1.499 . S
C1136 H1116 0.950 . S
C1136 C1135 1.414 . S
C1136 C1137 1.374 . S
C1137 H1117 0.950 . S
C1137 C1133 1.385 . S
C1137 C1136 1.374 . S
C1138 C1135 1.499 . S
C1138 C1139 1.373 . S
C1138 C1140 1.389 . S
C1139 H1118 0.950 . S
C1139 C1138 1.373 . S
C1139 C1155 1.377 . S
C1140 C1138 1.389 . S
C1140 C1141 1.524 . S
C1140 C1154 1.377 . S
C1141 C1140 1.524 . S
C1141 C1142 1.397 . S
C1141 C1146 1.363 . S
C1142 H1119 0.950 . S
C1142 C1141 1.397 . S
C1142 C1143 1.334 . S
C1143 H1120 0.950 . S
C1143 C1142 1.334 . S
C1143 C1144 1.287 . S
C1144 C1143 1.287 . S
C1144 C1145 1.524 . S
C1144 H1163 0.913 . S
C1145 H1121 0.950 . S
C1145 C1144 1.524 . S
C1145 C1146 1.415 . S
C1146 H1122 0.950 . S
C1146 C1141 1.363 . S
C1146 C1145 1.415 . S
C1147 H1123 0.951 . S
C1147 C1148 1.366 . S
C1147 C1149 1.388 . S
C1148 C1147 1.366 . S
C1148 C1152 1.385 . S
C1149 H1124 0.951 . S
C1149 C1147 1.388 . S
C1149 C1150 1.366 . S
C1150 C1149 1.366 . S
C1150 C1151 1.414 . S
C1150 C1153 1.499 . S
C1151 H1125 0.950 . S
C1151 C1150 1.414 . S
C1151 C1152 1.374 . S
C1152 H1126 0.950 . S
C1152 C1148 1.385 . S
C1152 C1151 1.374 . S
C1153 C1150 1.499 . S
C1153 C1154 1.373 . S
C1153 C1155 1.389 . S
C1154 H1127 0.950 . S
C1154 C1140 1.377 . S
C1154 C1153 1.373 . S
C1155 C1139 1.377 . S
C1155 C1153 1.389 . S
C1155 C1156 1.524 . S
C1156 C1155 1.524 . S
C1156 C1157 1.397 . S
C1156 C1161 1.363 . S
C1157 H1128 0.950 . S
C1157 C1156 1.397 . S
C1157 C1158 1.334 . S
C1158 H1129 0.950 . S
C1158 C1157 1.334 . S
C1158 C1159 1.287 . S
C1159 C1158 1.287 . S
C1159 C1160 1.524 . S
C1159 H1162 0.999 . S
C1160 H1130 0.950 . S
C1160 C1159 1.524 . S
C1160 C1161 1.415 . S
C1161 H1131 0.950 . S
C1161 C1156 1.363 . S
C1161 C1160 1.415 . S
H1162 C1159 0.999 . S
H1163 C1144 0.913 . S
H1164 C1182 0.951 . S
H1165 C1184 0.951 . S
H1166 C1186 0.950 . S
H1167 C1187 0.950 . S
H1168 C1189 0.950 . S
H1169 C1192 0.950 . S
H1170 C1193 0.950 . S
H1171 C1195 0.950 . S
H1172 C1196 0.950 . S
H1173 C1197 0.951 . S
H1174 C1199 0.951 . S
H1175 C1201 0.950 . S
H1176 C1202 0.950 . S
H1177 C1204 0.950 . S
H1178 C1207 0.950 . S
H1179 C1208 0.950 . S
H1180 C1210 0.950 . S
H1181 C1211 0.950 . S
C1182 H1164 0.951 . S
C1182 C1183 1.366 . S
C1182 C1184 1.388 . S
C1183 C1182 1.366 . S
C1183 C1187 1.385 . S
C1184 H1165 0.951 . S
C1184 C1182 1.388 . S
C1184 C1185 1.366 . S
C1185 C1184 1.366 . S
C1185 C1186 1.414 . S
C1185 C1188 1.499 . S
C1186 H1166 0.950 . S
C1186 C1185 1.414 . S
C1186 C1187 1.374 . S
C1187 H1167 0.950 . S
C1187 C1183 1.385 . S
C1187 C1186 1.374 . S
C1188 C1185 1.499 . S
C1188 C1189 1.373 . S
C1188 C1190 1.389 . S
C1189 H1168 0.950 . S
C1189 C1188 1.373 . S
C1189 C1205 1.377 . S
C1190 C1188 1.389 . S
C1190 C1191 1.524 . S
C1190 C1204 1.377 . S
C1191 C1190 1.524 . S
C1191 C1192 1.397 . S
C1191 C1196 1.363 . S
C1192 H1169 0.950 . S
C1192 C1191 1.397 . S
C1192 C1193 1.334 . S
C1193 H1170 0.950 . S
C1193 C1192 1.334 . S
C1193 C1194 1.287 . S
C1194 C1193 1.287 . S
C1194 C1195 1.524 . S
C1194 H1213 0.913 . S
C1195 H1171 0.950 . S
C1195 C1194 1.524 . S
C1195 C1196 1.415 . S
C1196 H1172 0.950 . S
C1196 C1191 1.363 . S
C1196 C1195 1.415 . S
C1197 H1173 0.951 . S
C1197 C1198 1.366 . S
C1197 C1199 1.388 . S
C1198 C1197 1.366 . S
C1198 C1202 1.385 . S
C1199 H1174 0.951 . S
C1199 C1197 1.388 . S
C1199 C1200 1.366 . S
C1200 C1199 1.366 . S
C1200 C1201 1.414 . S
C1200 C1203 1.499 . S
C1201 H1175 0.950 . S
C1201 C1200 1.414 . S
C1201 C1202 1.374 . S
C1202 H1176 0.950 . S
C1202 C1198 1.385 . S
C1202 C1201 1.374 . S
C1203 C1200 1.499 . S
C1203 C1204 1.373 . S
C1203 C1205 1.389 . S
C1204 H1177 0.950 . S
C1204 C1190 1.377 . S
C1204 C1203 1.373 . S
C1205 C1189 1.377 . S
C1205 C1203 1.389 . S
C1205 C1206 1.524 . S
C1206 C1205 1.524 . S
C1206 C1207 1.397 . S
C1206 C1211 1.363 . S
C1207 H1178 0.950 . S
C1207 C1206 1.397 . S
C1207 C1208 1.334 . S
C1208 H1179 0.950 . S
C1208 C1207 1.334 . S
C1208 C1209 1.287 . S
C1209 C1208 1.287 . S
C1209 C1210 1.524 . S
C1209 H1212 0.999 . S
C1210 H1180 0.950 . S
C1210 C1209 1.524 . S
C1210 C1211 1.415 . S
C1211 H1181 0.950 . S
C1211 C1206 1.363 . S
C1211 C1210 1.415 . S
H1212 C1209 0.999 . S
H1213 C1194 0.913 . S
H1214 C1232 0.951 . S
H1215 C1234 0.951 . S
H1216 C1236 0.950 . S
H1217 C1237 0.950 . S
H1218 C1239 0.950 . S
H1219 C1242 0.950 . S
H1220 C1243 0.950 . S
H1221 C1245 0.950 . S
H1222 C1246 0.950 . S
H1223 C1247 0.951 . S
H1224 C1249 0.951 . S
H1225 C1251 0.950 . S
H1226 C1252 0.950 . S
H1227 C1254 0.950 . S
H1228 C1257 0.950 . S
H1229 C1258 0.950 . S
H1230 C1260 0.950 . S
H1231 C1261 0.950 . S
C1232 H1214 0.951 . S
C1232 C1233 1.366 . S
C1232 C1234 1.388 . S
C1233 C1232 1.366 . S
C1233 C1237 1.385 . S
C1234 H1215 0.951 . S
C1234 C1232 1.388 . S
C1234 C1235 1.366 . S
C1235 C1234 1.366 . S
C1235 C1236 1.414 . S
C1235 C1238 1.499 . S
C1236 H1216 0.950 . S
C1236 C1235 1.414 . S
C1236 C1237 1.374 . S
C1237 H1217 0.950 . S
C1237 C1233 1.385 . S
C1237 C1236 1.374 . S
C1238 C1235 1.499 . S
C1238 C1239 1.373 . S
C1238 C1240 1.389 . S
C1239 H1218 0.950 . S
C1239 C1238 1.373 . S
C1239 C1255 1.377 . S
C1240 C1238 1.389 . S
C1240 C1241 1.524 . S
C1240 C1254 1.377 . S
C1241 C1240 1.524 . S
C1241 C1242 1.397 . S
C1241 C1246 1.363 . S
C1242 H1219 0.950 . S
C1242 C1241 1.397 . S
C1242 C1243 1.334 . S
C1243 H1220 0.950 . S
C1243 C1242 1.334 . S
C1243 C1244 1.287 . S
C1244 C1243 1.287 . S
C1244 C1245 1.524 . S
C1244 H1263 0.913 . S
C1245 H1221 0.950 . S
C1245 C1244 1.524 . S
C1245 C1246 1.415 . S
C1246 H1222 0.950 . S
C1246 C1241 1.363 . S
C1246 C1245 1.415 . S
C1247 H1223 0.951 . S
C1247 C1248 1.366 . S
C1247 C1249 1.388 . S
C1248 C1247 1.366 . S
C1248 C1252 1.385 . S
C1249 H1224 0.951 . S
C1249 C1247 1.388 . S
C1249 C1250 1.366 . S
C1250 C1249 1.366 . S
C1250 C1251 1.414 . S
C1250 C1253 1.499 . S
C1251 H1225 0.950 . S
C1251 C1250 1.414 . S
C1251 C1252 1.374 . S
C1252 H1226 0.950 . S
C1252 C1248 1.385 . S
C1252 C1251 1.374 . S
C1253 C1250 1.499 . S
C1253 C1254 1.373 . S
C1253 C1255 1.389 . S
C1254 H1227 0.950 . S
C1254 C1240 1.377 . S
C1254 C1253 1.373 . S
C1255 C1239 1.377 . S
C1255 C1253 1.389 . S
C1255 C1256 1.524 . S
C1256 C1255 1.524 . S
C1256 C1257 1.397 . S
C1256 C1261 1.363 . S
C1257 H1228 0.950 . S
C1257 C1256 1.397 . S
C1257 C1258 1.334 . S
C1258 H1229 0.950 . S
C1258 C1257 1.334 . S
C1258 C1259 1.287 . S
C1259 C1258 1.287 . S
C1259 C1260 1.524 . S
C1259 H1262 0.999 . S
C1260 H1230 0.950 . S
C1260 C1259 1.524 . S
C1260 C1261 1.415 . S
C1261 H1231 0.950 . S
C1261 C1256 1.363 . S
C1261 C1260 1.415 . S
H1262 C1259 0.999 . S
H1263 C1244 0.913 . S
H1264 C1282 0.951 . S
H1265 C1284 0.951 . S
H1266 C1286 0.950 . S
H1267 C1287 0.950 . S
H1268 C1289 0.950 . S
H1269 C1292 0.950 . S
H1270 C1293 0.950 . S
H1271 C1295 0.950 . S
H1272 C1296 0.950 . S
H1273 C1297 0.951 . S
H1274 C1299 0.951 . S
H1275 C1301 0.950 . S
H1276 C1302 0.950 . S
H1277 C1304 0.950 . S
H1278 C1307 0.950 . S
H1279 C1308 0.950 . S
H1280 C1310 0.950 . S
H1281 C1311 0.950 . S
C1282 H1264 0.951 . S
C1282 C1283 1.366 . S
C1282 C1284 1.388 . S
C1283 C1282 1.366 . S
C1283 C1287 1.385 . S
C1284 H1265 0.951 . S
C1284 C1282 1.388 . S
C1284 C1285 1.366 . S
C1285 C1284 1.366 . S
C1285 C1286 1.414 . S
C1285 C1288 1.499 . S
C1286 H1266 0.950 . S
C1286 C1285 1.414 . S
C1286 C1287 1.374 . S
C1287 H1267 0.950 . S
C1287 C1283 1.385 . S
C1287 C1286 1.374 . S
C1288 C1285 1.499 . S
C1288 C1289 1.373 . S
C1288 C1290 1.389 . S
C1289 H1268 0.950 . S
C1289 C1288 1.373 . S
C1289 C1305 1.377 . S
C1290 C1288 1.389 . S
C1290 C1291 1.524 . S
C1290 C1304 1.377 . S
C1291 C1290 1.524 . S
C1291 C1292 1.397 . S
C1291 C1296 1.363 . S
C1292 H1269 0.950 . S
C1292 C1291 1.397 . S
C1292 C1293 1.334 . S
C1293 H1270 0.950 . S
C1293 C1292 1.334 . S
C1293 C1294 1.287 . S
C1294 C1293 1.287 . S
C1294 C1295 1.524 . S
C1294 H1313 0.913 . S
C1295 H1271 0.950 . S
C1295 C1294 1.524 . S
C1295 C1296 1.415 . S
C1296 H1272 0.950 . S
C1296 C1291 1.363 . S
C1296 C1295 1.415 . S
C1297 H1273 0.951 . S
C1297 C1298 1.366 . S
C1297 C1299 1.388 . S
C1298 C1297 1.366 . S
C1298 C1302 1.385 . S
C1299 H1274 0.951 . S
C1299 C1297 1.388 . S
C1299 C1300 1.366 . S
C1300 C1299 1.366 . S
C1300 C1301 1.414 . S
C1300 C1303 1.499 . S
C1301 H1275 0.950 . S
C1301 C1300 1.414 . S
C1301 C1302 1.374 . S
C1302 H1276 0.950 . S
C1302 C1298 1.385 . S
C1302 C1301 1.374 . S
C1303 C1300 1.499 . S
C1303 C1304 1.373 . S
C1303 C1305 1.389 . S
C1304 H1277 0.950 . S
C1304 C1290 1.377 . S
C1304 C1303 1.373 . S
C1305 C1289 1.377 . S
C1305 C1303 1.389 . S
C1305 C1306 1.524 . S
C1306 C1305 1.524 . S
C1306 C1307 1.397 . S
C1306 C1311 1.363 . S
C1307 H1278 0.950 . S
C1307 C1306 1.397 . S
C1307 C1308 1.334 . S
C1308 H1279 0.950 . S
C1308 C1307 1.334 . S
C1308 C1309 1.287 . S
C1309 C1308 1.287 . S
C1309 C1310 1.524 . S
C1309 H1312 0.999 . S
C1310 H1280 0.950 . S
C1310 C1309 1.524 . S
C1310 C1311 1.415 . S
C1311 H1281 0.950 . S
C1311 C1306 1.363 . S
C1311 C1310 1.415 . S
H1312 C1309 0.999 . S
H1313 C1294 0.913 . S
H1314 C1332 0.951 . S
H1315 C1334 0.951 . S
H1316 C1336 0.950 . S
H1317 C1337 0.950 . S
H1318 C1339 0.950 . S
H1319 C1342 0.950 . S
H1320 C1343 0.950 . S
H1321 C1345 0.950 . S
H1322 C1346 0.950 . S
H1323 C1347 0.951 . S
H1324 C1349 0.951 . S
H1325 C1351 0.950 . S
H1326 C1352 0.950 . S
H1327 C1354 0.950 . S
H1328 C1357 0.950 . S
H1329 C1358 0.950 . S
H1330 C1360 0.950 . S
H1331 C1361 0.950 . S
C1332 H1314 0.951 . S
C1332 C1333 1.366 . S
C1332 C1334 1.388 . S
C1333 C1332 1.366 . S
C1333 C1337 1.385 . S
C1334 H1315 0.951 . S
C1334 C1332 1.388 . S
C1334 C1335 1.366 . S
C1335 C1334 1.366 . S
C1335 C1336 1.414 . S
C1335 C1338 1.499 . S
C1336 H1316 0.950 . S
C1336 C1335 1.414 . S
C1336 C1337 1.374 . S
C1337 H1317 0.950 . S
C1337 C1333 1.385 . S
C1337 C1336 1.374 . S
C1338 C1335 1.499 . S
C1338 C1339 1.373 . S
C1338 C1340 1.389 . S
C1339 H1318 0.950 . S
C1339 C1338 1.373 . S
C1339 C1355 1.377 . S
C1340 C1338 1.389 . S
C1340 C1341 1.524 . S
C1340 C1354 1.377 . S
C1341 C1340 1.524 . S
C1341 C1342 1.397 . S
C1341 C1346 1.363 . S
C1342 H1319 0.950 . S
C1342 C1341 1.397 . S
C1342 C1343 1.334 . S
C1343 H1320 0.950 . S
C1343 C1342 1.334 . S
C1343 C1344 1.287 . S
C1344 C1343 1.287 . S
C1344 C1345 1.524 . S
C1344 H1363 0.913 . S
C1345 H1321 0.950 . S
C1345 C1344 1.524 . S
C1345 C1346 1.415 . S
C1346 H1322 0.950 . S
C1346 C1341 1.363 . S
C1346 C1345 1.415 . S
C1347 H1323 0.951 . S
C1347 C1348 1.366 . S
C1347 C1349 1.388 . S
C1348 C1347 1.366 . S
C1348 C1352 1.385 . S
C1349 H1324 0.951 . S
C1349 C1347 1.388 . S
C1349 C1350 1.366 . S
C1350 C1349 1.366 . S
C1350 C1351 1.414 . S
C1350 C1353 1.499 . S
C1351 H1325 0.950 . S
C1351 C1350 1.414 . S
C1351 C1352 1.374 . S
C1352 H1326 0.950 . S
C1352 C1348 1.385 . S
C1352 C1351 1.374 . S
C1353 C1350 1.499 . S
C1353 C1354 1.373 . S
C1353 C1355 1.389 . S
C1354 H1327 0.950 . S
C1354 C1340 1.377 . S
C1354 C1353 1.373 . S
C1355 C1339 1.377 . S
C1355 C1353 1.389 . S
C1355 C1356 1.524 . S
C1356 C1355 1.524 . S
C1356 C1357 1.397 . S
C1356 C1361 1.363 . S
C1357 H1328 0.950 . S
C1357 C1356 1.397 . S
C1357 C1358 1.334 . S
C1358 H1329 0.950 . S
C1358 C1357 1.334 . S
C1358 C1359 1.287 . S
C1359 C1358 1.287 . S
C1359 C1360 1.524 . S
C1359 H1362 0.999 . S
C1360 H1330 0.950 . S
C1360 C1359 1.524 . S
C1360 C1361 1.415 . S
C1361 H1331 0.950 . S
C1361 C1356 1.363 . S
C1361 C1360 1.415 . S
H1362 C1359 0.999 . S
H1363 C1344 0.913 . S
H1364 C1382 0.951 . S
H1365 C1384 0.951 . S
H1366 C1386 0.950 . S
H1367 C1387 0.950 . S
H1368 C1389 0.950 . S
H1369 C1392 0.950 . S
H1370 C1393 0.950 . S
H1371 C1395 0.950 . S
H1372 C1396 0.950 . S
H1373 C1397 0.951 . S
H1374 C1399 0.951 . S
H1375 C1401 0.950 . S
H1376 C1402 0.950 . S
H1377 C1404 0.950 . S
H1378 C1407 0.950 . S
H1379 C1408 0.950 . S
H1380 C1410 0.950 . S
H1381 C1411 0.950 . S
C1382 H1364 0.951 . S
C1382 C1383 1.366 . S
C1382 C1384 1.388 . S
C1383 C1382 1.366 . S
C1383 C1387 1.385 . S
C1384 H1365 0.951 . S
C1384 C1382 1.388 . S
C1384 C1385 1.366 . S
C1385 C1384 1.366 . S
C1385 C1386 1.414 . S
C1385 C1388 1.499 . S
C1386 H1366 0.950 . S
C1386 C1385 1.414 . S
C1386 C1387 1.374 . S
C1387 H1367 0.950 . S
C1387 C1383 1.385 . S
C1387 C1386 1.374 . S
C1388 C1385 1.499 . S
C1388 C1389 1.373 . S
C1388 C1390 1.389 . S
C1389 H1368 0.950 . S
C1389 C1388 1.373 . S
C1389 C1405 1.377 . S
C1390 C1388 1.389 . S
C1390 C1391 1.524 . S
C1390 C1404 1.377 . S
C1391 C1390 1.524 . S
C1391 C1392 1.397 . S
C1391 C1396 1.363 . S
C1392 H1369 0.950 . S
C1392 C1391 1.397 . S
C1392 C1393 1.334 . S
C1393 H1370 0.950 . S
C1393 C1392 1.334 . S
C1393 C1394 1.287 . S
C1394 C1393 1.287 . S
C1394 C1395 1.524 . S
C1394 H1413 0.913 . S
C1395 H1371 0.950 . S
C1395 C1394 1.524 . S
C1395 C1396 1.415 . S
C1396 H1372 0.950 . S
C1396 C1391 1.363 . S
C1396 C1395 1.415 . S
C1397 H1373 0.951 . S
C1397 C1398 1.366 . S
C1397 C1399 1.388 . S
C1398 C1397 1.366 . S
C1398 C1402 1.385 . S
C1399 H1374 0.951 . S
C1399 C1397 1.388 . S
C1399 C1400 1.366 . S
C1400 C1399 1.366 . S
C1400 C1401 1.414 . S
C1400 C1403 1.499 . S
C1401 H1375 0.950 . S
C1401 C1400 1.414 . S
C1401 C1402 1.374 . S
C1402 H1376 0.950 . S
C1402 C1398 1.385 . S
C1402 C1401 1.374 . S
C1403 C1400 1.499 . S
C1403 C1404 1.373 . S
C1403 C1405 1.389 . S
C1404 H1377 0.950 . S
C1404 C1390 1.377 . S
C1404 C1403 1.373 . S
C1405 C1389 1.377 . S
C1405 C1403 1.389 . S
C1405 C1406 1.524 . S
C1406 C1405 1.524 . S
C1406 C1407 1.397 . S
C1406 C1411 1.363 . S
C1407 H1378 0.950 . S
C1407 C1406 1.397 . S
C1407 C1408 1.334 . S
C1408 H1379 0.950 . S
C1408 C1407 1.334 . S
C1408 C1409 1.287 . S
C1409 C1408 1.287 . S
C1409 C1410 1.524 . S
C1409 H1412 0.999 . S
C1410 H1380 0.950 . S
C1410 C1409 1.524 . S
C1410 C1411 1.415 . S
C1411 H1381 0.950 . S
C1411 C1406 1.363 . S
C1411 C1410 1.415 . S
H1412 C1409 0.999 . S
H1413 C1394 0.913 . S
H1414 C1432 0.951 . S
H1415 C1434 0.951 . S
H1416 C1436 0.950 . S
H1417 C1437 0.950 . S
H1418 C1439 0.950 . S
H1419 C1442 0.950 . S
H1420 C1443 0.950 . S
H1421 C1445 0.950 . S
H1422 C1446 0.950 . S
H1423 C1447 0.951 . S
H1424 C1449 0.951 . S
H1425 C1451 0.950 . S
H1426 C1452 0.950 . S
H1427 C1454 0.950 . S
H1428 C1457 0.950 . S
H1429 C1458 0.950 . S
H1430 C1460 0.950 1_455 S
H1431 C1461 0.950 . S
C1432 H1414 0.951 . S
C1432 C1433 1.366 . S
C1432 C1434 1.388 . S
C1433 C1432 1.366 . S
C1433 C1437 1.385 . S
C1434 H1415 0.951 . S
C1434 C1432 1.388 . S
C1434 C1435 1.366 . S
C1435 C1434 1.366 . S
C1435 C1436 1.414 . S
C1435 C1438 1.499 . S
C1436 H1416 0.950 . S
C1436 C1435 1.414 . S
C1436 C1437 1.374 . S
C1437 H1417 0.950 . S
C1437 C1433 1.385 . S
C1437 C1436 1.374 . S
C1438 C1435 1.499 . S
C1438 C1439 1.373 . S
C1438 C1440 1.389 . S
C1439 H1418 0.950 . S
C1439 C1438 1.373 . S
C1439 C1455 1.377 . S
C1440 C1438 1.389 . S
C1440 C1441 1.524 . S
C1440 C1454 1.377 . S
C1441 C1440 1.524 . S
C1441 C1442 1.397 . S
C1441 C1446 1.363 . S
C1442 H1419 0.950 . S
C1442 C1441 1.397 . S
C1442 C1443 1.334 . S
C1443 H1420 0.950 . S
C1443 C1442 1.334 . S
C1443 C1444 1.287 . S
C1444 C1443 1.287 . S
C1444 C1445 1.524 . S
C1444 H1463 0.913 . S
C1445 H1421 0.950 . S
C1445 C1444 1.524 . S
C1445 C1446 1.415 . S
C1446 H1422 0.950 . S
C1446 C1441 1.363 . S
C1446 C1445 1.415 . S
C1447 H1423 0.951 . S
C1447 C1448 1.366 . S
C1447 C1449 1.388 . S
C1448 C1447 1.366 . S
C1448 C1452 1.385 . S
C1449 H1424 0.951 . S
C1449 C1447 1.388 . S
C1449 C1450 1.366 . S
C1450 C1449 1.366 . S
C1450 C1451 1.414 . S
C1450 C1453 1.499 . S
C1451 H1425 0.950 . S
C1451 C1450 1.414 . S
C1451 C1452 1.374 . S
C1452 H1426 0.950 . S
C1452 C1448 1.385 . S
C1452 C1451 1.374 . S
C1453 C1450 1.499 . S
C1453 C1454 1.373 . S
C1453 C1455 1.389 . S
C1454 H1427 0.950 . S
C1454 C1440 1.377 . S
C1454 C1453 1.373 . S
C1455 C1439 1.377 . S
C1455 C1453 1.389 . S
C1455 C1456 1.524 . S
C1456 C1455 1.524 . S
C1456 C1457 1.397 . S
C1456 C1461 1.363 . S
C1457 H1428 0.950 . S
C1457 C1456 1.397 . S
C1457 C1458 1.334 . S
C1458 H1429 0.950 . S
C1458 C1457 1.334 . S
C1458 C1459 1.287 . S
C1459 C1458 1.287 . S
C1459 C1460 1.524 . S
C1459 H1462 0.999 1_655 S
C1460 H1430 0.950 1_655 S
C1460 C1459 1.524 . S
C1460 C1461 1.415 . S
C1461 H1431 0.950 . S
C1461 C1456 1.363 . S
C1461 C1460 1.415 . S
H1462 C1459 0.999 1_455 S
H1463 C1444 0.913 . S
H1464 C1482 0.951 . S
H1465 C1484 0.951 . S
H1466 C1486 0.950 . S
H1467 C1487 0.950 . S
H1468 C1489 0.950 . S
H1469 C1492 0.950 . S
H1470 C1493 0.950 . S
H1471 C1495 0.950 . S
H1472 C1496 0.950 . S
H1473 C1497 0.951 . S
H1474 C1499 0.951 . S
H1475 C1501 0.950 . S
H1476 C1502 0.950 . S
H1477 C1504 0.950 . S
H1478 C1507 0.950 . S
H1479 C1508 0.950 . S
H1480 C1510 0.950 . S
H1481 C1511 0.950 . S
C1482 H1464 0.951 . S
C1482 C1483 1.366 . S
C1482 C1484 1.388 . S
C1483 C1482 1.366 . S
C1483 C1487 1.385 . S
C1484 H1465 0.951 . S
C1484 C1482 1.388 . S
C1484 C1485 1.366 . S
C1485 C1484 1.366 . S
C1485 C1486 1.414 . S
C1485 C1488 1.499 . S
C1486 H1466 0.950 . S
C1486 C1485 1.414 . S
C1486 C1487 1.374 . S
C1487 H1467 0.950 . S
C1487 C1483 1.385 . S
C1487 C1486 1.374 . S
C1488 C1485 1.499 . S
C1488 C1489 1.373 . S
C1488 C1490 1.389 . S
C1489 H1468 0.950 . S
C1489 C1488 1.373 . S
C1489 C1505 1.377 . S
C1490 C1488 1.389 . S
C1490 C1491 1.524 . S
C1490 C1504 1.377 . S
C1491 C1490 1.524 . S
C1491 C1492 1.397 . S
C1491 C1496 1.363 . S
C1492 H1469 0.950 . S
C1492 C1491 1.397 . S
C1492 C1493 1.334 . S
C1493 H1470 0.950 . S
C1493 C1492 1.334 . S
C1493 C1494 1.287 . S
C1494 C1493 1.287 . S
C1494 C1495 1.524 . S
C1494 H1513 0.913 . S
C1495 H1471 0.950 . S
C1495 C1494 1.524 . S
C1495 C1496 1.415 . S
C1496 H1472 0.950 . S
C1496 C1491 1.363 . S
C1496 C1495 1.415 . S
C1497 H1473 0.951 . S
C1497 C1498 1.366 . S
C1497 C1499 1.388 . S
C1498 C1497 1.366 . S
C1498 C1502 1.385 . S
C1499 H1474 0.951 . S
C1499 C1497 1.388 . S
C1499 C1500 1.366 . S
C1500 C1499 1.366 . S
C1500 C1501 1.414 . S
C1500 C1503 1.499 . S
C1501 H1475 0.950 . S
C1501 C1500 1.414 . S
C1501 C1502 1.374 . S
C1502 H1476 0.950 . S
C1502 C1498 1.385 . S
C1502 C1501 1.374 . S
C1503 C1500 1.499 . S
C1503 C1504 1.373 . S
C1503 C1505 1.389 . S
C1504 H1477 0.950 . S
C1504 C1490 1.377 . S
C1504 C1503 1.373 . S
C1505 C1489 1.377 . S
C1505 C1503 1.389 . S
C1505 C1506 1.524 . S
C1506 C1505 1.524 . S
C1506 C1507 1.397 . S
C1506 C1511 1.363 . S
C1507 H1478 0.950 . S
C1507 C1506 1.397 . S
C1507 C1508 1.334 . S
C1508 H1479 0.950 . S
C1508 C1507 1.334 . S
C1508 C1509 1.287 . S
C1509 C1508 1.287 . S
C1509 C1510 1.524 . S
C1509 H1512 0.999 . S
C1510 H1480 0.950 . S
C1510 C1509 1.524 . S
C1510 C1511 1.415 . S
C1511 H1481 0.950 . S
C1511 C1506 1.363 . S
C1511 C1510 1.415 . S
H1512 C1509 0.999 . S
H1513 C1494 0.913 . S
H1514 C1532 0.951 . S
H1515 C1534 0.951 . S
H1516 C1536 0.950 . S
H1517 C1537 0.950 . S
H1518 C1539 0.950 . S
H1519 C1542 0.950 . S
H1520 C1543 0.950 . S
H1521 C1545 0.950 . S
H1522 C1546 0.950 . S
H1523 C1547 0.951 . S
H1524 C1549 0.951 . S
H1525 C1551 0.950 . S
H1526 C1552 0.950 . S
H1527 C1554 0.950 . S
H1528 C1557 0.950 . S
H1529 C1558 0.950 . S
H1530 C1560 0.950 . S
H1531 C1561 0.950 . S
C1532 H1514 0.951 . S
C1532 C1533 1.366 . S
C1532 C1534 1.388 . S
C1533 C1532 1.366 . S
C1533 C1537 1.385 . S
C1534 H1515 0.951 . S
C1534 C1532 1.388 . S
C1534 C1535 1.366 . S
C1535 C1534 1.366 . S
C1535 C1536 1.414 . S
C1535 C1538 1.499 . S
C1536 H1516 0.950 . S
C1536 C1535 1.414 . S
C1536 C1537 1.374 . S
C1537 H1517 0.950 . S
C1537 C1533 1.385 . S
C1537 C1536 1.374 . S
C1538 C1535 1.499 . S
C1538 C1539 1.373 . S
C1538 C1540 1.389 . S
C1539 H1518 0.950 . S
C1539 C1538 1.373 . S
C1539 C1555 1.377 . S
C1540 C1538 1.389 . S
C1540 C1541 1.524 . S
C1540 C1554 1.377 . S
C1541 C1540 1.524 . S
C1541 C1542 1.397 . S
C1541 C1546 1.363 . S
C1542 H1519 0.950 . S
C1542 C1541 1.397 . S
C1542 C1543 1.334 . S
C1543 H1520 0.950 . S
C1543 C1542 1.334 . S
C1543 C1544 1.287 . S
C1544 C1543 1.287 . S
C1544 C1545 1.524 . S
C1544 H1563 0.913 . S
C1545 H1521 0.950 . S
C1545 C1544 1.524 . S
C1545 C1546 1.415 . S
C1546 H1522 0.950 . S
C1546 C1541 1.363 . S
C1546 C1545 1.415 . S
C1547 H1523 0.951 . S
C1547 C1548 1.366 . S
C1547 C1549 1.388 . S
C1548 C1547 1.366 . S
C1548 C1552 1.385 . S
C1549 H1524 0.951 . S
C1549 C1547 1.388 . S
C1549 C1550 1.366 . S
C1550 C1549 1.366 . S
C1550 C1551 1.414 . S
C1550 C1553 1.499 . S
C1551 H1525 0.950 . S
C1551 C1550 1.414 . S
C1551 C1552 1.374 . S
C1552 H1526 0.950 . S
C1552 C1548 1.385 . S
C1552 C1551 1.374 . S
C1553 C1550 1.499 . S
C1553 C1554 1.373 . S
C1553 C1555 1.389 . S
C1554 H1527 0.950 . S
C1554 C1540 1.377 . S
C1554 C1553 1.373 . S
C1555 C1539 1.377 . S
C1555 C1553 1.389 . S
C1555 C1556 1.524 . S
C1556 C1555 1.524 . S
C1556 C1557 1.397 . S
C1556 C1561 1.363 . S
C1557 H1528 0.950 . S
C1557 C1556 1.397 . S
C1557 C1558 1.334 . S
C1558 H1529 0.950 . S
C1558 C1557 1.334 . S
C1558 C1559 1.287 . S
C1559 C1558 1.287 . S
C1559 C1560 1.524 . S
C1559 H1562 0.999 . S
C1560 H1530 0.950 . S
C1560 C1559 1.524 . S
C1560 C1561 1.415 . S
C1561 H1531 0.950 . S
C1561 C1556 1.363 . S
C1561 C1560 1.415 . S
H1562 C1559 0.999 . S
H1563 C1544 0.913 . S
H1564 C1582 0.951 . S
H1565 C1584 0.951 . S
H1566 C1586 0.950 . S
H1567 C1587 0.950 . S
H1568 C1589 0.950 . S
H1569 C1592 0.950 . S
H1570 C1593 0.950 . S
H1571 C1595 0.950 . S
H1572 C1596 0.950 . S
H1573 C1597 0.951 . S
H1574 C1599 0.951 . S
H1575 C1601 0.950 . S
H1576 C1602 0.950 . S
H1577 C1604 0.950 . S
H1578 C1607 0.950 . S
H1579 C1608 0.950 . S
H1580 C1610 0.950 . S
H1581 C1611 0.950 . S
C1582 H1564 0.951 . S
C1582 C1583 1.366 . S
C1582 C1584 1.388 . S
C1583 C1582 1.366 . S
C1583 C1587 1.385 . S
C1584 H1565 0.951 . S
C1584 C1582 1.388 . S
C1584 C1585 1.366 . S
C1585 C1584 1.366 . S
C1585 C1586 1.414 . S
C1585 C1588 1.499 . S
C1586 H1566 0.950 . S
C1586 C1585 1.414 . S
C1586 C1587 1.374 . S
C1587 H1567 0.950 . S
C1587 C1583 1.385 . S
C1587 C1586 1.374 . S
C1588 C1585 1.499 . S
C1588 C1589 1.373 . S
C1588 C1590 1.389 . S
C1589 H1568 0.950 . S
C1589 C1588 1.373 . S
C1589 C1605 1.377 . S
C1590 C1588 1.389 . S
C1590 C1591 1.524 . S
C1590 C1604 1.377 . S
C1591 C1590 1.524 . S
C1591 C1592 1.397 . S
C1591 C1596 1.363 . S
C1592 H1569 0.950 . S
C1592 C1591 1.397 . S
C1592 C1593 1.334 . S
C1593 H1570 0.950 . S
C1593 C1592 1.334 . S
C1593 C1594 1.287 . S
C1594 C1593 1.287 . S
C1594 C1595 1.524 . S
C1594 H1613 0.913 . S
C1595 H1571 0.950 . S
C1595 C1594 1.524 . S
C1595 C1596 1.415 . S
C1596 H1572 0.950 . S
C1596 C1591 1.363 . S
C1596 C1595 1.415 . S
C1597 H1573 0.951 . S
C1597 C1598 1.366 . S
C1597 C1599 1.388 . S
C1598 C1597 1.366 . S
C1598 C1602 1.385 . S
C1599 H1574 0.951 . S
C1599 C1597 1.388 . S
C1599 C1600 1.366 . S
C1600 C1599 1.366 . S
C1600 C1601 1.414 . S
C1600 C1603 1.499 . S
C1601 H1575 0.950 . S
C1601 C1600 1.414 . S
C1601 C1602 1.374 . S
C1602 H1576 0.950 . S
C1602 C1598 1.385 . S
C1602 C1601 1.374 . S
C1603 C1600 1.499 . S
C1603 C1604 1.373 . S
C1603 C1605 1.389 . S
C1604 H1577 0.950 . S
C1604 C1590 1.377 . S
C1604 C1603 1.373 . S
C1605 C1589 1.377 . S
C1605 C1603 1.389 . S
C1605 C1606 1.524 . S
C1606 C1605 1.524 . S
C1606 C1607 1.397 . S
C1606 C1611 1.363 . S
C1607 H1578 0.950 . S
C1607 C1606 1.397 . S
C1607 C1608 1.334 . S
C1608 H1579 0.950 . S
C1608 C1607 1.334 . S
C1608 C1609 1.287 . S
C1609 C1608 1.287 . S
C1609 C1610 1.524 . S
C1609 H1612 0.999 . S
C1610 H1580 0.950 . S
C1610 C1609 1.524 . S
C1610 C1611 1.415 . S
C1611 H1581 0.950 . S
C1611 C1606 1.363 . S
C1611 C1610 1.415 . S
H1612 C1609 0.999 . S
H1613 C1594 0.913 . S
H1614 C1632 0.951 . S
H1615 C1634 0.951 . S
H1616 C1636 0.950 . S
H1617 C1637 0.950 . S
H1618 C1639 0.950 . S
H1619 C1642 0.950 . S
H1620 C1643 0.950 . S
H1621 C1645 0.950 . S
H1622 C1646 0.950 . S
H1623 C1647 0.951 . S
H1624 C1649 0.951 . S
H1625 C1651 0.950 . S
H1626 C1652 0.950 . S
H1627 C1654 0.950 . S
H1628 C1657 0.950 . S
H1629 C1658 0.950 1_565 S
H1630 C1660 0.950 . S
H1631 C1661 0.950 . S
C1632 H1614 0.951 . S
C1632 C1633 1.366 . S
C1632 C1634 1.388 . S
C1633 C1632 1.366 . S
C1633 C1637 1.385 . S
C1634 H1615 0.951 . S
C1634 C1632 1.388 . S
C1634 C1635 1.366 . S
C1635 C1634 1.366 . S
C1635 C1636 1.414 . S
C1635 C1638 1.499 . S
C1636 H1616 0.950 . S
C1636 C1635 1.414 . S
C1636 C1637 1.374 . S
C1637 H1617 0.950 . S
C1637 C1633 1.385 . S
C1637 C1636 1.374 . S
C1638 C1635 1.499 . S
C1638 C1639 1.373 . S
C1638 C1640 1.389 . S
C1639 H1618 0.950 . S
C1639 C1638 1.373 . S
C1639 C1655 1.377 . S
C1640 C1638 1.389 . S
C1640 C1641 1.524 . S
C1640 C1654 1.377 . S
C1641 C1640 1.524 . S
C1641 C1642 1.397 . S
C1641 C1646 1.363 . S
C1642 H1619 0.950 . S
C1642 C1641 1.397 . S
C1642 C1643 1.334 . S
C1643 H1620 0.950 . S
C1643 C1642 1.334 . S
C1643 C1644 1.287 . S
C1644 C1643 1.287 . S
C1644 C1645 1.524 . S
C1644 H1663 0.913 . S
C1645 H1621 0.950 . S
C1645 C1644 1.524 . S
C1645 C1646 1.415 . S
C1646 H1622 0.950 . S
C1646 C1641 1.363 . S
C1646 C1645 1.415 . S
C1647 H1623 0.951 . S
C1647 C1648 1.366 . S
C1647 C1649 1.388 . S
C1648 C1647 1.366 . S
C1648 C1652 1.385 . S
C1649 H1624 0.951 . S
C1649 C1647 1.388 . S
C1649 C1650 1.366 . S
C1650 C1649 1.366 . S
C1650 C1651 1.414 . S
C1650 C1653 1.499 . S
C1651 H1625 0.950 . S
C1651 C1650 1.414 . S
C1651 C1652 1.374 . S
C1652 H1626 0.950 . S
C1652 C1648 1.385 . S
C1652 C1651 1.374 . S
C1653 C1650 1.499 . S
C1653 C1654 1.373 . S
C1653 C1655 1.389 . S
C1654 H1627 0.950 . S
C1654 C1640 1.377 . S
C1654 C1653 1.373 . S
C1655 C1639 1.377 . S
C1655 C1653 1.389 . S
C1655 C1656 1.524 . S
C1656 C1655 1.524 . S
C1656 C1657 1.397 . S
C1656 C1661 1.363 . S
C1657 H1628 0.950 . S
C1657 C1656 1.397 . S
C1657 C1658 1.334 . S
C1658 H1629 0.950 1_545 S
C1658 C1657 1.334 . S
C1658 C1659 1.284 1_545 S
C1659 C1658 1.284 1_565 S
C1659 C1660 1.510 1_565 S
C1659 H1662 1.018 . S
C1660 H1630 0.950 . S
C1660 C1659 1.510 1_545 S
C1660 C1661 1.415 . S
C1661 H1631 0.950 . S
C1661 C1656 1.363 . S
C1661 C1660 1.415 . S
H1662 C1659 1.018 . S
H1663 C1644 0.913 . S
H1664 C1682 0.951 . S
H1665 C1684 0.951 . S
H1666 C1686 0.950 . S
H1667 C1687 0.950 . S
H1668 C1689 0.950 . S
H1669 C1692 0.950 . S
H1670 C1693 0.950 . S
H1671 C1695 0.950 . S
H1672 C1696 0.950 . S
H1673 C1697 0.951 . S
H1674 C1699 0.951 . S
H1675 C1701 0.950 . S
H1676 C1702 0.950 . S
H1677 C1704 0.950 . S
H1678 C1707 0.950 . S
H1679 C1708 0.950 . S
H1680 C1710 0.950 . S
H1681 C1711 0.950 . S
C1682 H1664 0.951 . S
C1682 C1683 1.366 . S
C1682 C1684 1.388 . S
C1683 C1682 1.366 . S
C1683 C1687 1.385 . S
C1684 H1665 0.951 . S
C1684 C1682 1.388 . S
C1684 C1685 1.366 . S
C1685 C1684 1.366 . S
C1685 C1686 1.414 . S
C1685 C1688 1.499 . S
C1686 H1666 0.950 . S
C1686 C1685 1.414 . S
C1686 C1687 1.374 . S
C1687 H1667 0.950 . S
C1687 C1683 1.385 . S
C1687 C1686 1.374 . S
C1688 C1685 1.499 . S
C1688 C1689 1.373 . S
C1688 C1690 1.389 . S
C1689 H1668 0.950 . S
C1689 C1688 1.373 . S
C1689 C1705 1.377 . S
C1690 C1688 1.389 . S
C1690 C1691 1.524 . S
C1690 C1704 1.377 . S
C1691 C1690 1.524 . S
C1691 C1692 1.397 . S
C1691 C1696 1.363 . S
C1692 H1669 0.950 . S
C1692 C1691 1.397 . S
C1692 C1693 1.334 . S
C1693 H1670 0.950 . S
C1693 C1692 1.334 . S
C1693 C1694 1.287 . S
C1694 C1693 1.287 . S
C1694 C1695 1.524 . S
C1694 H1713 0.913 . S
C1695 H1671 0.950 . S
C1695 C1694 1.524 . S
C1695 C1696 1.415 . S
C1696 H1672 0.950 . S
C1696 C1691 1.363 . S
C1696 C1695 1.415 . S
C1697 H1673 0.951 . S
C1697 C1698 1.366 . S
C1697 C1699 1.388 . S
C1698 C1697 1.366 . S
C1698 C1702 1.385 . S
C1699 H1674 0.951 . S
C1699 C1697 1.388 . S
C1699 C1700 1.366 . S
C1700 C1699 1.366 . S
C1700 C1701 1.414 . S
C1700 C1703 1.499 . S
C1701 H1675 0.950 . S
C1701 C1700 1.414 . S
C1701 C1702 1.374 . S
C1702 H1676 0.950 . S
C1702 C1698 1.385 . S
C1702 C1701 1.374 . S
C1703 C1700 1.499 . S
C1703 C1704 1.373 . S
C1703 C1705 1.389 . S
C1704 H1677 0.950 . S
C1704 C1690 1.377 . S
C1704 C1703 1.373 . S
C1705 C1689 1.377 . S
C1705 C1703 1.389 . S
C1705 C1706 1.524 . S
C1706 C1705 1.524 . S
C1706 C1707 1.397 . S
C1706 C1711 1.363 . S
C1707 H1678 0.950 . S
C1707 C1706 1.397 . S
C1707 C1708 1.334 . S
C1708 H1679 0.950 . S
C1708 C1707 1.334 . S
C1708 C1709 1.287 . S
C1709 C1708 1.287 . S
C1709 C1710 1.524 . S
C1709 H1712 0.999 . S
C1710 H1680 0.950 . S
C1710 C1709 1.524 . S
C1710 C1711 1.415 . S
C1711 H1681 0.950 . S
C1711 C1706 1.363 . S
C1711 C1710 1.415 . S
H1712 C1709 0.999 . S
H1713 C1694 0.913 . S
H1714 C1732 0.951 . S
H1715 C1734 0.951 . S
H1716 C1736 0.950 . S
H1717 C1737 0.950 . S
H1718 C1739 0.950 . S
H1719 C1742 0.950 . S
H1720 C1743 0.950 . S
H1721 C1745 0.950 . S
H1722 C1746 0.950 . S
H1723 C1747 0.951 . S
H1724 C1749 0.951 . S
H1725 C1751 0.950 . S
H1726 C1752 0.950 . S
H1727 C1754 0.950 . S
H1728 C1757 0.950 . S
H1729 C1758 0.950 . S
H1730 C1760 0.950 . S
H1731 C1761 0.950 . S
C1732 H1714 0.951 . S
C1732 C1733 1.366 . S
C1732 C1734 1.388 . S
C1733 C1732 1.366 . S
C1733 C1737 1.385 . S
C1734 H1715 0.951 . S
C1734 C1732 1.388 . S
C1734 C1735 1.366 . S
C1735 C1734 1.366 . S
C1735 C1736 1.414 . S
C1735 C1738 1.499 . S
C1736 H1716 0.950 . S
C1736 C1735 1.414 . S
C1736 C1737 1.374 . S
C1737 H1717 0.950 . S
C1737 C1733 1.385 . S
C1737 C1736 1.374 . S
C1738 C1735 1.499 . S
C1738 C1739 1.373 . S
C1738 C1740 1.389 . S
C1739 H1718 0.950 . S
C1739 C1738 1.373 . S
C1739 C1755 1.377 . S
C1740 C1738 1.389 . S
C1740 C1741 1.524 . S
C1740 C1754 1.377 . S
C1741 C1740 1.524 . S
C1741 C1742 1.397 . S
C1741 C1746 1.363 . S
C1742 H1719 0.950 . S
C1742 C1741 1.397 . S
C1742 C1743 1.334 . S
C1743 H1720 0.950 . S
C1743 C1742 1.334 . S
C1743 C1744 1.287 . S
C1744 C1743 1.287 . S
C1744 C1745 1.524 . S
C1744 H1763 0.913 . S
C1745 H1721 0.950 . S
C1745 C1744 1.524 . S
C1745 C1746 1.415 . S
C1746 H1722 0.950 . S
C1746 C1741 1.363 . S
C1746 C1745 1.415 . S
C1747 H1723 0.951 . S
C1747 C1748 1.366 . S
C1747 C1749 1.388 . S
C1748 C1747 1.366 . S
C1748 C1752 1.385 . S
C1749 H1724 0.951 . S
C1749 C1747 1.388 . S
C1749 C1750 1.366 . S
C1750 C1749 1.366 . S
C1750 C1751 1.414 . S
C1750 C1753 1.499 . S
C1751 H1725 0.950 . S
C1751 C1750 1.414 . S
C1751 C1752 1.374 . S
C1752 H1726 0.950 . S
C1752 C1748 1.385 . S
C1752 C1751 1.374 . S
C1753 C1750 1.499 . S
C1753 C1754 1.373 . S
C1753 C1755 1.389 . S
C1754 H1727 0.950 . S
C1754 C1740 1.377 . S
C1754 C1753 1.373 . S
C1755 C1739 1.377 . S
C1755 C1753 1.389 . S
C1755 C1756 1.524 . S
C1756 C1755 1.524 . S
C1756 C1757 1.397 . S
C1756 C1761 1.363 . S
C1757 H1728 0.950 . S
C1757 C1756 1.397 . S
C1757 C1758 1.334 . S
C1758 H1729 0.950 . S
C1758 C1757 1.334 . S
C1758 C1759 1.287 . S
C1759 C1758 1.287 . S
C1759 C1760 1.524 . S
C1759 H1762 0.999 . S
C1760 H1730 0.950 . S
C1760 C1759 1.524 . S
C1760 C1761 1.415 . S
C1761 H1731 0.950 . S
C1761 C1756 1.363 . S
C1761 C1760 1.415 . S
H1762 C1759 0.999 . S
H1763 C1744 0.913 . S
H1764 C1782 0.951 . S
H1765 C1784 0.951 . S
H1766 C1786 0.950 . S
H1767 C1787 0.950 . S
H1768 C1789 0.950 . S
H1769 C1792 0.950 . S
H1770 C1793 0.950 . S
H1771 C1795 0.950 . S
H1772 C1796 0.950 . S
H1773 C1797 0.951 . S
H1774 C1799 0.951 . S
H1775 C1801 0.950 . S
H1776 C1802 0.950 . S
H1777 C1804 0.950 . S
H1778 C1807 0.950 . S
H1779 C1808 0.950 . S
H1780 C1810 0.950 . S
H1781 C1811 0.950 . S
C1782 H1764 0.951 . S
C1782 C1783 1.366 . S
C1782 C1784 1.388 . S
C1783 C1782 1.366 . S
C1783 C1787 1.385 . S
C1784 H1765 0.951 . S
C1784 C1782 1.388 . S
C1784 C1785 1.366 . S
C1785 C1784 1.366 . S
C1785 C1786 1.414 . S
C1785 C1788 1.499 . S
C1786 H1766 0.950 . S
C1786 C1785 1.414 . S
C1786 C1787 1.374 . S
C1787 H1767 0.950 . S
C1787 C1783 1.385 . S
C1787 C1786 1.374 . S
C1788 C1785 1.499 . S
C1788 C1789 1.373 . S
C1788 C1790 1.389 . S
C1789 H1768 0.950 . S
C1789 C1788 1.373 . S
C1789 C1805 1.377 . S
C1790 C1788 1.389 . S
C1790 C1791 1.524 . S
C1790 C1804 1.377 . S
C1791 C1790 1.524 . S
C1791 C1792 1.397 . S
C1791 C1796 1.363 . S
C1792 H1769 0.950 . S
C1792 C1791 1.397 . S
C1792 C1793 1.334 . S
C1793 H1770 0.950 . S
C1793 C1792 1.334 . S
C1793 C1794 1.287 . S
C1794 C1793 1.287 . S
C1794 C1795 1.524 . S
C1794 H1813 0.913 . S
C1795 H1771 0.950 . S
C1795 C1794 1.524 . S
C1795 C1796 1.415 . S
C1796 H1772 0.950 . S
C1796 C1791 1.363 . S
C1796 C1795 1.415 . S
C1797 H1773 0.951 . S
C1797 C1798 1.366 . S
C1797 C1799 1.388 . S
C1798 C1797 1.366 . S
C1798 C1802 1.385 . S
C1799 H1774 0.951 . S
C1799 C1797 1.388 . S
C1799 C1800 1.366 . S
C1800 C1799 1.366 . S
C1800 C1801 1.414 . S
C1800 C1803 1.499 . S
C1801 H1775 0.950 . S
C1801 C1800 1.414 . S
C1801 C1802 1.374 . S
C1802 H1776 0.950 . S
C1802 C1798 1.385 . S
C1802 C1801 1.374 . S
C1803 C1800 1.499 . S
C1803 C1804 1.373 . S
C1803 C1805 1.389 . S
C1804 H1777 0.950 . S
C1804 C1790 1.377 . S
C1804 C1803 1.373 . S
C1805 C1789 1.377 . S
C1805 C1803 1.389 . S
C1805 C1806 1.524 . S
C1806 C1805 1.524 . S
C1806 C1807 1.397 . S
C1806 C1811 1.363 . S
C1807 H1778 0.950 . S
C1807 C1806 1.397 . S
C1807 C1808 1.334 . S
C1808 H1779 0.950 . S
C1808 C1807 1.334 . S
C1808 C1809 1.287 . S
C1809 C1808 1.287 . S
C1809 C1810 1.524 . S
C1809 H1812 0.999 . S
C1810 H1780 0.950 . S
C1810 C1809 1.524 . S
C1810 C1811 1.415 . S
C1811 H1781 0.950 . S
C1811 C1806 1.363 . S
C1811 C1810 1.415 . S
H1812 C1809 0.999 . S
H1813 C1794 0.913 . S
H1814 C1832 0.951 . S
H1815 C1834 0.951 . S
H1816 C1836 0.950 . S
H1817 C1837 0.950 . S
H1818 C1839 0.950 . S
H1819 C1842 0.950 . S
H1820 C1843 0.950 . S
H1821 C1845 0.950 . S
H1822 C1846 0.950 . S
H1823 C1847 0.951 . S
H1824 C1849 0.951 . S
H1825 C1851 0.950 . S
H1826 C1852 0.950 . S
H1827 C1854 0.950 . S
H1828 C1857 0.950 . S
H1829 C1858 0.950 . S
H1830 C1860 0.950 . S
H1831 C1861 0.950 . S
C1832 H1814 0.951 . S
C1832 C1833 1.366 . S
C1832 C1834 1.388 . S
C1833 C1832 1.366 . S
C1833 C1837 1.385 . S
C1834 H1815 0.951 . S
C1834 C1832 1.388 . S
C1834 C1835 1.366 . S
C1835 C1834 1.366 . S
C1835 C1836 1.414 . S
C1835 C1838 1.499 . S
C1836 H1816 0.950 . S
C1836 C1835 1.414 . S
C1836 C1837 1.374 . S
C1837 H1817 0.950 . S
C1837 C1833 1.385 . S
C1837 C1836 1.374 . S
C1838 C1835 1.499 . S
C1838 C1839 1.373 . S
C1838 C1840 1.389 . S
C1839 H1818 0.950 . S
C1839 C1838 1.373 . S
C1839 C1855 1.377 . S
C1840 C1838 1.389 . S
C1840 C1841 1.524 . S
C1840 C1854 1.377 . S
C1841 C1840 1.524 . S
C1841 C1842 1.397 . S
C1841 C1846 1.363 . S
C1842 H1819 0.950 . S
C1842 C1841 1.397 . S
C1842 C1843 1.334 . S
C1843 H1820 0.950 . S
C1843 C1842 1.334 . S
C1843 C1844 1.287 . S
C1844 C1843 1.287 . S
C1844 C1845 1.524 . S
C1844 H1863 0.913 . S
C1845 H1821 0.950 . S
C1845 C1844 1.524 . S
C1845 C1846 1.415 . S
C1846 H1822 0.950 . S
C1846 C1841 1.363 . S
C1846 C1845 1.415 . S
C1847 H1823 0.951 . S
C1847 C1848 1.366 . S
C1847 C1849 1.388 . S
C1848 C1847 1.366 . S
C1848 C1852 1.385 . S
C1849 H1824 0.951 . S
C1849 C1847 1.388 . S
C1849 C1850 1.366 . S
C1850 C1849 1.366 . S
C1850 C1851 1.414 . S
C1850 C1853 1.499 . S
C1851 H1825 0.950 . S
C1851 C1850 1.414 . S
C1851 C1852 1.374 . S
C1852 H1826 0.950 . S
C1852 C1848 1.385 . S
C1852 C1851 1.374 . S
C1853 C1850 1.499 . S
C1853 C1854 1.373 . S
C1853 C1855 1.389 . S
C1854 H1827 0.950 . S
C1854 C1840 1.377 . S
C1854 C1853 1.373 . S
C1855 C1839 1.377 . S
C1855 C1853 1.389 . S
C1855 C1856 1.524 . S
C1856 C1855 1.524 . S
C1856 C1857 1.397 . S
C1856 C1861 1.363 . S
C1857 H1828 0.950 . S
C1857 C1856 1.397 . S
C1857 C1858 1.334 . S
C1858 H1829 0.950 . S
C1858 C1857 1.334 . S
C1858 C1859 1.287 . S
C1859 C1858 1.287 . S
C1859 C1860 1.524 . S
C1859 H1862 0.999 . S
C1860 H1830 0.950 . S
C1860 C1859 1.524 . S
C1860 C1861 1.415 . S
C1861 H1831 0.950 . S
C1861 C1856 1.363 . S
C1861 C1860 1.415 . S
H1862 C1859 0.999 . S
H1863 C1844 0.913 . S
H1864 C1882 0.951 . S
H1865 C1884 0.951 . S
H1866 C1886 0.950 . S
H1867 C1887 0.950 . S
H1868 C1889 0.950 . S
H1869 C1892 0.950 . S
H1870 C1893 0.950 . S
H1871 C1895 0.950 . S
H1872 C1896 0.950 . S
H1873 C1897 0.951 . S
H1874 C1899 0.951 . S
H1875 C1901 0.950 . S
H1876 C1902 0.950 . S
H1877 C1904 0.950 . S
H1878 C1907 0.950 . S
H1879 C1908 0.950 . S
H1880 C1910 0.950 . S
H1881 C1911 0.950 . S
C1882 H1864 0.951 . S
C1882 C1883 1.366 . S
C1882 C1884 1.388 . S
C1883 C1882 1.366 . S
C1883 C1887 1.385 . S
C1884 H1865 0.951 . S
C1884 C1882 1.388 . S
C1884 C1885 1.366 . S
C1885 C1884 1.366 . S
C1885 C1886 1.414 . S
C1885 C1888 1.499 . S
C1886 H1866 0.950 . S
C1886 C1885 1.414 . S
C1886 C1887 1.374 . S
C1887 H1867 0.950 . S
C1887 C1883 1.385 . S
C1887 C1886 1.374 . S
C1888 C1885 1.499 . S
C1888 C1889 1.373 . S
C1888 C1890 1.389 . S
C1889 H1868 0.950 . S
C1889 C1888 1.373 . S
C1889 C1905 1.377 . S
C1890 C1888 1.389 . S
C1890 C1891 1.524 . S
C1890 C1904 1.377 . S
C1891 C1890 1.524 . S
C1891 C1892 1.397 . S
C1891 C1896 1.363 . S
C1892 H1869 0.950 . S
C1892 C1891 1.397 . S
C1892 C1893 1.334 . S
C1893 H1870 0.950 . S
C1893 C1892 1.334 . S
C1893 C1894 1.287 . S
C1894 C1893 1.287 . S
C1894 C1895 1.524 . S
C1894 H1913 0.913 . S
C1895 H1871 0.950 . S
C1895 C1894 1.524 . S
C1895 C1896 1.415 . S
C1896 H1872 0.950 . S
C1896 C1891 1.363 . S
C1896 C1895 1.415 . S
C1897 H1873 0.951 . S
C1897 C1898 1.366 . S
C1897 C1899 1.388 . S
C1898 C1897 1.366 . S
C1898 C1902 1.385 . S
C1899 H1874 0.951 . S
C1899 C1897 1.388 . S
C1899 C1900 1.366 . S
C1900 C1899 1.366 . S
C1900 C1901 1.414 . S
C1900 C1903 1.499 . S
C1901 H1875 0.950 . S
C1901 C1900 1.414 . S
C1901 C1902 1.374 . S
C1902 H1876 0.950 . S
C1902 C1898 1.385 . S
C1902 C1901 1.374 . S
C1903 C1900 1.499 . S
C1903 C1904 1.373 . S
C1903 C1905 1.389 . S
C1904 H1877 0.950 . S
C1904 C1890 1.377 . S
C1904 C1903 1.373 . S
C1905 C1889 1.377 . S
C1905 C1903 1.389 . S
C1905 C1906 1.524 . S
C1906 C1905 1.524 . S
C1906 C1907 1.397 . S
C1906 C1911 1.363 . S
C1907 H1878 0.950 . S
C1907 C1906 1.397 . S
C1907 C1908 1.334 . S
C1908 H1879 0.950 . S
C1908 C1907 1.334 . S
C1908 C1909 1.287 . S
C1909 C1908 1.287 . S
C1909 C1910 1.524 . S
C1909 H1912 0.999 . S
C1910 H1880 0.950 . S
C1910 C1909 1.524 . S
C1910 C1911 1.415 . S
C1911 H1881 0.950 . S
C1911 C1906 1.363 . S
C1911 C1910 1.415 . S
H1912 C1909 0.999 . S
H1913 C1894 0.913 . S
H1914 C1932 0.951 . S
H1915 C1934 0.951 . S
H1916 C1936 0.950 . S
H1917 C1937 0.950 . S
H1918 C1939 0.950 . S
H1919 C1942 0.950 . S
H1920 C1943 0.950 . S
H1921 C1945 0.950 . S
H1922 C1946 0.950 . S
H1923 C1947 0.951 . S
H1924 C1949 0.951 . S
H1925 C1951 0.950 . S
H1926 C1952 0.950 . S
H1927 C1954 0.950 . S
H1928 C1957 0.950 . S
H1929 C1958 0.950 . S
H1930 C1960 0.950 . S
H1931 C1961 0.950 . S
C1932 H1914 0.951 . S
C1932 C1933 1.366 . S
C1932 C1934 1.388 . S
C1933 C1932 1.366 . S
C1933 C1937 1.385 . S
C1934 H1915 0.951 . S
C1934 C1932 1.388 . S
C1934 C1935 1.366 . S
C1935 C1934 1.366 . S
C1935 C1936 1.414 . S
C1935 C1938 1.499 . S
C1936 H1916 0.950 . S
C1936 C1935 1.414 . S
C1936 C1937 1.374 . S
C1937 H1917 0.950 . S
C1937 C1933 1.385 . S
C1937 C1936 1.374 . S
C1938 C1935 1.499 . S
C1938 C1939 1.373 . S
C1938 C1940 1.389 . S
C1939 H1918 0.950 . S
C1939 C1938 1.373 . S
C1939 C1955 1.377 . S
C1940 C1938 1.389 . S
C1940 C1941 1.524 . S
C1940 C1954 1.377 . S
C1941 C1940 1.524 . S
C1941 C1942 1.397 . S
C1941 C1946 1.363 . S
C1942 H1919 0.950 . S
C1942 C1941 1.397 . S
C1942 C1943 1.334 . S
C1943 H1920 0.950 . S
C1943 C1942 1.334 . S
C1943 C1944 1.287 . S
C1944 C1943 1.287 . S
C1944 C1945 1.524 . S
C1944 H1963 0.913 . S
C1945 H1921 0.950 . S
C1945 C1944 1.524 . S
C1945 C1946 1.415 . S
C1946 H1922 0.950 . S
C1946 C1941 1.363 . S
C1946 C1945 1.415 . S
C1947 H1923 0.951 . S
C1947 C1948 1.366 . S
C1947 C1949 1.388 . S
C1948 C1947 1.366 . S
C1948 C1952 1.385 . S
C1949 H1924 0.951 . S
C1949 C1947 1.388 . S
C1949 C1950 1.366 . S
C1950 C1949 1.366 . S
C1950 C1951 1.414 . S
C1950 C1953 1.499 . S
C1951 H1925 0.950 . S
C1951 C1950 1.414 . S
C1951 C1952 1.374 . S
C1952 H1926 0.950 . S
C1952 C1948 1.385 . S
C1952 C1951 1.374 . S
C1953 C1950 1.499 . S
C1953 C1954 1.373 . S
C1953 C1955 1.389 . S
C1954 H1927 0.950 . S
C1954 C1940 1.377 . S
C1954 C1953 1.373 . S
C1955 C1939 1.377 . S
C1955 C1953 1.389 . S
C1955 C1956 1.524 . S
C1956 C1955 1.524 . S
C1956 C1957 1.397 . S
C1956 C1961 1.363 . S
C1957 H1928 0.950 . S
C1957 C1956 1.397 . S
C1957 C1958 1.334 . S
C1958 H1929 0.950 . S
C1958 C1957 1.334 . S
C1958 C1959 1.287 . S
C1959 C1958 1.287 . S
C1959 C1960 1.524 . S
C1959 H1962 0.999 . S
C1960 H1930 0.950 . S
C1960 C1959 1.524 . S
C1960 C1961 1.415 . S
C1961 H1931 0.950 . S
C1961 C1956 1.363 . S
C1961 C1960 1.415 . S
H1962 C1959 0.999 . S
H1963 C1944 0.913 . S
H1964 C1982 0.951 . S
H1965 C1984 0.951 . S
H1966 C1986 0.950 . S
H1967 C1987 0.950 . S
H1968 C1989 0.950 . S
H1969 C1992 0.950 . S
H1970 C1993 0.950 . S
H1971 C1995 0.950 . S
H1972 C1996 0.950 . S
H1973 C1997 0.951 . S
H1974 C1999 0.951 . S
H1975 C2001 0.950 . S
H1976 C2002 0.950 . S
H1977 C2004 0.950 . S
H1978 C2007 0.950 . S
H1979 C2008 0.950 . S
H1980 C2010 0.950 . S
H1981 C2011 0.950 . S
C1982 H1964 0.951 . S
C1982 C1983 1.366 . S
C1982 C1984 1.388 . S
C1983 C1982 1.366 . S
C1983 C1987 1.385 . S
C1984 H1965 0.951 . S
C1984 C1982 1.388 . S
C1984 C1985 1.366 . S
C1985 C1984 1.366 . S
C1985 C1986 1.414 . S
C1985 C1988 1.499 . S
C1986 H1966 0.950 . S
C1986 C1985 1.414 . S
C1986 C1987 1.374 . S
C1987 H1967 0.950 . S
C1987 C1983 1.385 . S
C1987 C1986 1.374 . S
C1988 C1985 1.499 . S
C1988 C1989 1.373 . S
C1988 C1990 1.389 . S
C1989 H1968 0.950 . S
C1989 C1988 1.373 . S
C1989 C2005 1.377 . S
C1990 C1988 1.389 . S
C1990 C1991 1.524 . S
C1990 C2004 1.377 . S
C1991 C1990 1.524 . S
C1991 C1992 1.397 . S
C1991 C1996 1.363 . S
C1992 H1969 0.950 . S
C1992 C1991 1.397 . S
C1992 C1993 1.334 . S
C1993 H1970 0.950 . S
C1993 C1992 1.334 . S
C1993 C1994 1.287 . S
C1994 C1993 1.287 . S
C1994 C1995 1.524 . S
C1994 H2013 0.913 . S
C1995 H1971 0.950 . S
C1995 C1994 1.524 . S
C1995 C1996 1.415 . S
C1996 H1972 0.950 . S
C1996 C1991 1.363 . S
C1996 C1995 1.415 . S
C1997 H1973 0.951 . S
C1997 C1998 1.366 . S
C1997 C1999 1.388 . S
C1998 C1997 1.366 . S
C1998 C2002 1.385 . S
C1999 H1974 0.951 . S
C1999 C1997 1.388 . S
C1999 C2000 1.366 . S
C2000 C1999 1.366 . S
C2000 C2001 1.414 . S
C2000 C2003 1.499 . S
C2001 H1975 0.950 . S
C2001 C2000 1.414 . S
C2001 C2002 1.374 . S
C2002 H1976 0.950 . S
C2002 C1998 1.385 . S
C2002 C2001 1.374 . S
C2003 C2000 1.499 . S
C2003 C2004 1.373 . S
C2003 C2005 1.389 . S
C2004 H1977 0.950 . S
C2004 C1990 1.377 . S
C2004 C2003 1.373 . S
C2005 C1989 1.377 . S
C2005 C2003 1.389 . S
C2005 C2006 1.524 . S
C2006 C2005 1.524 . S
C2006 C2007 1.397 . S
C2006 C2011 1.363 . S
C2007 H1978 0.950 . S
C2007 C2006 1.397 . S
C2007 C2008 1.334 . S
C2008 H1979 0.950 . S
C2008 C2007 1.334 . S
C2008 C2009 1.287 . S
C2009 C2008 1.287 . S
C2009 C2010 1.524 . S
C2009 H2012 0.999 . S
C2010 H1980 0.950 . S
C2010 C2009 1.524 . S
C2010 C2011 1.415 . S
C2011 H1981 0.950 . S
C2011 C2006 1.363 . S
C2011 C2010 1.415 . S
H2012 C2009 0.999 . S
H2013 C1994 0.913 . S
H2014 C2032 0.951 . S
H2015 C2034 0.951 . S
H2016 C2036 0.950 . S
H2017 C2037 0.950 . S
H2018 C2039 0.950 . S
H2019 C2042 0.950 . S
H2020 C2043 0.950 . S
H2021 C2045 0.950 . S
H2022 C2046 0.950 . S
H2023 C2047 0.951 . S
H2024 C2049 0.951 . S
H2025 C2051 0.950 . S
H2026 C2052 0.950 . S
H2027 C2054 0.950 . S
H2028 C2057 0.950 . S
H2029 C2058 0.950 . S
H2030 C2060 0.950 . S
H2031 C2061 0.950 . S
C2032 H2014 0.951 . S
C2032 C2033 1.366 . S
C2032 C2034 1.388 . S
C2033 C2032 1.366 . S
C2033 C2037 1.385 . S
C2034 H2015 0.951 . S
C2034 C2032 1.388 . S
C2034 C2035 1.366 . S
C2035 C2034 1.366 . S
C2035 C2036 1.414 . S
C2035 C2038 1.499 . S
C2036 H2016 0.950 . S
C2036 C2035 1.414 . S
C2036 C2037 1.374 . S
C2037 H2017 0.950 . S
C2037 C2033 1.385 . S
C2037 C2036 1.374 . S
C2038 C2035 1.499 . S
C2038 C2039 1.373 . S
C2038 C2040 1.389 . S
C2039 H2018 0.950 . S
C2039 C2038 1.373 . S
C2039 C2055 1.377 . S
C2040 C2038 1.389 . S
C2040 C2041 1.524 . S
C2040 C2054 1.377 . S
C2041 C2040 1.524 . S
C2041 C2042 1.397 . S
C2041 C2046 1.363 . S
C2042 H2019 0.950 . S
C2042 C2041 1.397 . S
C2042 C2043 1.334 . S
C2043 H2020 0.950 . S
C2043 C2042 1.334 . S
C2043 C2044 1.287 . S
C2044 C2043 1.287 . S
C2044 C2045 1.524 . S
C2044 H2063 0.913 . S
C2045 H2021 0.950 . S
C2045 C2044 1.524 . S
C2045 C2046 1.415 . S
C2046 H2022 0.950 . S
C2046 C2041 1.363 . S
C2046 C2045 1.415 . S
C2047 H2023 0.951 . S
C2047 C2048 1.366 . S
C2047 C2049 1.388 . S
C2048 C2047 1.366 . S
C2048 C2052 1.385 . S
C2049 H2024 0.951 . S
C2049 C2047 1.388 . S
C2049 C2050 1.366 . S
C2050 C2049 1.366 . S
C2050 C2051 1.414 . S
C2050 C2053 1.499 . S
C2051 H2025 0.950 . S
C2051 C2050 1.414 . S
C2051 C2052 1.374 . S
C2052 H2026 0.950 . S
C2052 C2048 1.385 . S
C2052 C2051 1.374 . S
C2053 C2050 1.499 . S
C2053 C2054 1.373 . S
C2053 C2055 1.389 . S
C2054 H2027 0.950 . S
C2054 C2040 1.377 . S
C2054 C2053 1.373 . S
C2055 C2039 1.377 . S
C2055 C2053 1.389 . S
C2055 C2056 1.524 . S
C2056 C2055 1.524 . S
C2056 C2057 1.397 . S
C2056 C2061 1.363 . S
C2057 H2028 0.950 . S
C2057 C2056 1.397 . S
C2057 C2058 1.334 . S
C2058 H2029 0.950 . S
C2058 C2057 1.334 . S
C2058 C2059 1.287 . S
C2059 C2058 1.287 . S
C2059 C2060 1.524 . S
C2059 H2062 0.999 . S
C2060 H2030 0.950 . S
C2060 C2059 1.524 . S
C2060 C2061 1.415 . S
C2061 H2031 0.950 . S
C2061 C2056 1.363 . S
C2061 C2060 1.415 . S
H2062 C2059 0.999 . S
H2063 C2044 0.913 . S
H2064 C2082 0.951 . S
H2065 C2084 0.951 . S
H2066 C2086 0.950 . S
H2067 C2087 0.950 . S
H2068 C2089 0.950 . S
H2069 C2092 0.950 . S
H2070 C2093 0.950 . S
H2071 C2095 0.950 . S
H2072 C2096 0.950 . S
H2073 C2097 0.951 . S
H2074 C2099 0.951 . S
H2075 C2101 0.950 . S
H2076 C2102 0.950 . S
H2077 C2104 0.950 . S
H2078 C2107 0.950 . S
H2079 C2108 0.950 . S
H2080 C2110 0.950 . S
H2081 C2111 0.950 . S
C2082 H2064 0.951 . S
C2082 C2083 1.366 . S
C2082 C2084 1.388 . S
C2083 C2082 1.366 . S
C2083 C2087 1.385 . S
C2084 H2065 0.951 . S
C2084 C2082 1.388 . S
C2084 C2085 1.366 . S
C2085 C2084 1.366 . S
C2085 C2086 1.414 . S
C2085 C2088 1.499 . S
C2086 H2066 0.950 . S
C2086 C2085 1.414 . S
C2086 C2087 1.374 . S
C2087 H2067 0.950 . S
C2087 C2083 1.385 . S
C2087 C2086 1.374 . S
C2088 C2085 1.499 . S
C2088 C2089 1.373 . S
C2088 C2090 1.389 . S
C2089 H2068 0.950 . S
C2089 C2088 1.373 . S
C2089 C2105 1.377 . S
C2090 C2088 1.389 . S
C2090 C2091 1.524 . S
C2090 C2104 1.377 . S
C2091 C2090 1.524 . S
C2091 C2092 1.397 . S
C2091 C2096 1.363 . S
C2092 H2069 0.950 . S
C2092 C2091 1.397 . S
C2092 C2093 1.334 . S
C2093 H2070 0.950 . S
C2093 C2092 1.334 . S
C2093 C2094 1.287 . S
C2094 C2093 1.287 . S
C2094 C2095 1.524 . S
C2094 H2113 0.913 . S
C2095 H2071 0.950 . S
C2095 C2094 1.524 . S
C2095 C2096 1.415 . S
C2096 H2072 0.950 . S
C2096 C2091 1.363 . S
C2096 C2095 1.415 . S
C2097 H2073 0.951 . S
C2097 C2098 1.366 . S
C2097 C2099 1.388 . S
C2098 C2097 1.366 . S
C2098 C2102 1.385 . S
C2099 H2074 0.951 . S
C2099 C2097 1.388 . S
C2099 C2100 1.366 . S
C2100 C2099 1.366 . S
C2100 C2101 1.414 . S
C2100 C2103 1.499 . S
C2101 H2075 0.950 . S
C2101 C2100 1.414 . S
C2101 C2102 1.374 . S
C2102 H2076 0.950 . S
C2102 C2098 1.385 . S
C2102 C2101 1.374 . S
C2103 C2100 1.499 . S
C2103 C2104 1.373 . S
C2103 C2105 1.389 . S
C2104 H2077 0.950 . S
C2104 C2090 1.377 . S
C2104 C2103 1.373 . S
C2105 C2089 1.377 . S
C2105 C2103 1.389 . S
C2105 C2106 1.524 . S
C2106 C2105 1.524 . S
C2106 C2107 1.397 . S
C2106 C2111 1.363 . S
C2107 H2078 0.950 . S
C2107 C2106 1.397 . S
C2107 C2108 1.334 . S
C2108 H2079 0.950 . S
C2108 C2107 1.334 . S
C2108 C2109 1.287 . S
C2109 C2108 1.287 . S
C2109 C2110 1.524 . S
C2109 H2112 0.999 . S
C2110 H2080 0.950 . S
C2110 C2109 1.524 . S
C2110 C2111 1.415 . S
C2111 H2081 0.950 . S
C2111 C2106 1.363 . S
C2111 C2110 1.415 . S
H2112 C2109 0.999 . S
H2113 C2094 0.913 . S
H2114 C2132 0.951 . S
H2115 C2134 0.951 . S
H2116 C2136 0.950 . S
H2117 C2137 0.950 . S
H2118 C2139 0.950 . S
H2119 C2142 0.950 . S
H2120 C2143 0.950 . S
H2121 C2145 0.950 . S
H2122 C2146 0.950 . S
H2123 C2147 0.951 . S
H2124 C2149 0.951 . S
H2125 C2151 0.950 . S
H2126 C2152 0.950 . S
H2127 C2154 0.950 . S
H2128 C2157 0.950 . S
H2129 C2158 0.950 . S
H2130 C2160 0.950 . S
H2131 C2161 0.950 . S
C2132 H2114 0.951 . S
C2132 C2133 1.366 . S
C2132 C2134 1.388 . S
C2133 C2132 1.366 . S
C2133 C2137 1.385 . S
C2134 H2115 0.951 . S
C2134 C2132 1.388 . S
C2134 C2135 1.366 . S
C2135 C2134 1.366 . S
C2135 C2136 1.414 . S
C2135 C2138 1.499 . S
C2136 H2116 0.950 . S
C2136 C2135 1.414 . S
C2136 C2137 1.374 . S
C2137 H2117 0.950 . S
C2137 C2133 1.385 . S
C2137 C2136 1.374 . S
C2138 C2135 1.499 . S
C2138 C2139 1.373 . S
C2138 C2140 1.389 . S
C2139 H2118 0.950 . S
C2139 C2138 1.373 . S
C2139 C2155 1.377 . S
C2140 C2138 1.389 . S
C2140 C2141 1.524 . S
C2140 C2154 1.377 . S
C2141 C2140 1.524 . S
C2141 C2142 1.397 . S
C2141 C2146 1.363 . S
C2142 H2119 0.950 . S
C2142 C2141 1.397 . S
C2142 C2143 1.334 . S
C2143 H2120 0.950 . S
C2143 C2142 1.334 . S
C2143 C2144 1.287 . S
C2144 C2143 1.287 . S
C2144 C2145 1.524 . S
C2144 H2163 0.913 . S
C2145 H2121 0.950 . S
C2145 C2144 1.524 . S
C2145 C2146 1.415 . S
C2146 H2122 0.950 . S
C2146 C2141 1.363 . S
C2146 C2145 1.415 . S
C2147 H2123 0.951 . S
C2147 C2148 1.366 . S
C2147 C2149 1.388 . S
C2148 C2147 1.366 . S
C2148 C2152 1.385 . S
C2149 H2124 0.951 . S
C2149 C2147 1.388 . S
C2149 C2150 1.366 . S
C2150 C2149 1.366 . S
C2150 C2151 1.414 . S
C2150 C2153 1.499 . S
C2151 H2125 0.950 . S
C2151 C2150 1.414 . S
C2151 C2152 1.374 . S
C2152 H2126 0.950 . S
C2152 C2148 1.385 . S
C2152 C2151 1.374 . S
C2153 C2150 1.499 . S
C2153 C2154 1.373 . S
C2153 C2155 1.389 . S
C2154 H2127 0.950 . S
C2154 C2140 1.377 . S
C2154 C2153 1.373 . S
C2155 C2139 1.377 . S
C2155 C2153 1.389 . S
C2155 C2156 1.524 . S
C2156 C2155 1.524 . S
C2156 C2157 1.397 . S
C2156 C2161 1.363 . S
C2157 H2128 0.950 . S
C2157 C2156 1.397 . S
C2157 C2158 1.334 . S
C2158 H2129 0.950 . S
C2158 C2157 1.334 . S
C2158 C2159 1.287 . S
C2159 C2158 1.287 . S
C2159 C2160 1.524 . S
C2159 H2162 0.999 . S
C2160 H2130 0.950 . S
C2160 C2159 1.524 . S
C2160 C2161 1.415 . S
C2161 H2131 0.950 . S
C2161 C2156 1.363 . S
C2161 C2160 1.415 . S
H2162 C2159 0.999 . S
H2163 C2144 0.913 . S
H2164 C2182 0.951 . S
H2165 C2184 0.951 . S
H2166 C2186 0.950 . S
H2167 C2187 0.950 . S
H2168 C2189 0.950 . S
H2169 C2192 0.950 . S
H2170 C2193 0.950 . S
H2171 C2195 0.950 . S
H2172 C2196 0.950 . S
H2173 C2197 0.951 . S
H2174 C2199 0.951 . S
H2175 C2201 0.950 . S
H2176 C2202 0.950 . S
H2177 C2204 0.950 . S
H2178 C2207 0.950 . S
H2179 C2208 0.950 . S
H2180 C2210 0.950 . S
H2181 C2211 0.950 . S
C2182 H2164 0.951 . S
C2182 C2183 1.366 . S
C2182 C2184 1.388 . S
C2183 C2182 1.366 . S
C2183 C2187 1.385 . S
C2184 H2165 0.951 . S
C2184 C2182 1.388 . S
C2184 C2185 1.366 . S
C2185 C2184 1.366 . S
C2185 C2186 1.414 . S
C2185 C2188 1.499 . S
C2186 H2166 0.950 . S
C2186 C2185 1.414 . S
C2186 C2187 1.374 . S
C2187 H2167 0.950 . S
C2187 C2183 1.385 . S
C2187 C2186 1.374 . S
C2188 C2185 1.499 . S
C2188 C2189 1.373 . S
C2188 C2190 1.389 . S
C2189 H2168 0.950 . S
C2189 C2188 1.373 . S
C2189 C2205 1.377 . S
C2190 C2188 1.389 . S
C2190 C2191 1.524 . S
C2190 C2204 1.377 . S
C2191 C2190 1.524 . S
C2191 C2192 1.397 . S
C2191 C2196 1.363 . S
C2192 H2169 0.950 . S
C2192 C2191 1.397 . S
C2192 C2193 1.334 . S
C2193 H2170 0.950 . S
C2193 C2192 1.334 . S
C2193 C2194 1.287 . S
C2194 C2193 1.287 . S
C2194 C2195 1.524 . S
C2194 H2213 0.913 . S
C2195 H2171 0.950 . S
C2195 C2194 1.524 . S
C2195 C2196 1.415 . S
C2196 H2172 0.950 . S
C2196 C2191 1.363 . S
C2196 C2195 1.415 . S
C2197 H2173 0.951 . S
C2197 C2198 1.366 . S
C2197 C2199 1.388 . S
C2198 C2197 1.366 . S
C2198 C2202 1.385 . S
C2199 H2174 0.951 . S
C2199 C2197 1.388 . S
C2199 C2200 1.366 . S
C2200 C2199 1.366 . S
C2200 C2201 1.414 . S
C2200 C2203 1.499 . S
C2201 H2175 0.950 . S
C2201 C2200 1.414 . S
C2201 C2202 1.374 . S
C2202 H2176 0.950 . S
C2202 C2198 1.385 . S
C2202 C2201 1.374 . S
C2203 C2200 1.499 . S
C2203 C2204 1.373 . S
C2203 C2205 1.389 . S
C2204 H2177 0.950 . S
C2204 C2190 1.377 . S
C2204 C2203 1.373 . S
C2205 C2189 1.377 . S
C2205 C2203 1.389 . S
C2205 C2206 1.524 . S
C2206 C2205 1.524 . S
C2206 C2207 1.397 . S
C2206 C2211 1.363 . S
C2207 H2178 0.950 . S
C2207 C2206 1.397 . S
C2207 C2208 1.334 . S
C2208 H2179 0.950 . S
C2208 C2207 1.334 . S
C2208 C2209 1.287 . S
C2209 C2208 1.287 . S
C2209 C2210 1.524 . S
C2209 H2212 0.999 . S
C2210 H2180 0.950 . S
C2210 C2209 1.524 . S
C2210 C2211 1.415 . S
C2211 H2181 0.950 . S
C2211 C2206 1.363 . S
C2211 C2210 1.415 . S
H2212 C2209 0.999 . S
H2213 C2194 0.913 . S
H2214 C2232 0.951 . S
H2215 C2234 0.951 . S
H2216 C2236 0.950 . S
H2217 C2237 0.950 . S
H2218 C2239 0.950 . S
H2219 C2242 0.950 . S
H2220 C2243 0.950 . S
H2221 C2245 0.950 . S
H2222 C2246 0.950 . S
H2223 C2247 0.951 . S
H2224 C2249 0.951 . S
H2225 C2251 0.950 . S
H2226 C2252 0.950 . S
H2227 C2254 0.950 . S
H2228 C2257 0.950 . S
H2229 C2258 0.950 . S
H2230 C2260 0.950 . S
H2231 C2261 0.950 . S
C2232 H2214 0.951 . S
C2232 C2233 1.366 . S
C2232 C2234 1.388 . S
C2233 C2232 1.366 . S
C2233 C2237 1.385 . S
C2234 H2215 0.951 . S
C2234 C2232 1.388 . S
C2234 C2235 1.366 . S
C2235 C2234 1.366 . S
C2235 C2236 1.414 . S
C2235 C2238 1.499 . S
C2236 H2216 0.950 . S
C2236 C2235 1.414 . S
C2236 C2237 1.374 . S
C2237 H2217 0.950 . S
C2237 C2233 1.385 . S
C2237 C2236 1.374 . S
C2238 C2235 1.499 . S
C2238 C2239 1.373 . S
C2238 C2240 1.389 . S
C2239 H2218 0.950 . S
C2239 C2238 1.373 . S
C2239 C2255 1.377 . S
C2240 C2238 1.389 . S
C2240 C2241 1.524 . S
C2240 C2254 1.377 . S
C2241 C2240 1.524 . S
C2241 C2242 1.397 . S
C2241 C2246 1.363 . S
C2242 H2219 0.950 . S
C2242 C2241 1.397 . S
C2242 C2243 1.334 . S
C2243 H2220 0.950 . S
C2243 C2242 1.334 . S
C2243 C2244 1.287 . S
C2244 C2243 1.287 . S
C2244 C2245 1.524 . S
C2244 H2263 0.913 . S
C2245 H2221 0.950 . S
C2245 C2244 1.524 . S
C2245 C2246 1.415 . S
C2246 H2222 0.950 . S
C2246 C2241 1.363 . S
C2246 C2245 1.415 . S
C2247 H2223 0.951 . S
C2247 C2248 1.366 . S
C2247 C2249 1.388 . S
C2248 C2247 1.366 . S
C2248 C2252 1.385 . S
C2249 H2224 0.951 . S
C2249 C2247 1.388 . S
C2249 C2250 1.366 . S
C2250 C2249 1.366 . S
C2250 C2251 1.414 . S
C2250 C2253 1.499 . S
C2251 H2225 0.950 . S
C2251 C2250 1.414 . S
C2251 C2252 1.374 . S
C2252 H2226 0.950 . S
C2252 C2248 1.385 . S
C2252 C2251 1.374 . S
C2253 C2250 1.499 . S
C2253 C2254 1.373 . S
C2253 C2255 1.389 . S
C2254 H2227 0.950 . S
C2254 C2240 1.377 . S
C2254 C2253 1.373 . S
C2255 C2239 1.377 . S
C2255 C2253 1.389 . S
C2255 C2256 1.524 . S
C2256 C2255 1.524 . S
C2256 C2257 1.397 . S
C2256 C2261 1.363 . S
C2257 H2228 0.950 . S
C2257 C2256 1.397 . S
C2257 C2258 1.334 . S
C2258 H2229 0.950 . S
C2258 C2257 1.334 . S
C2258 C2259 1.287 . S
C2259 C2258 1.287 . S
C2259 C2260 1.524 . S
C2259 H2262 0.999 . S
C2260 H2230 0.950 . S
C2260 C2259 1.524 . S
C2260 C2261 1.415 . S
C2261 H2231 0.950 . S
C2261 C2256 1.363 . S
C2261 C2260 1.415 . S
H2262 C2259 0.999 . S
H2263 C2244 0.913 . S
H2264 C2282 0.951 . S
H2265 C2284 0.951 . S
H2266 C2286 0.950 . S
H2267 C2287 0.950 . S
H2268 C2289 0.950 . S
H2269 C2292 0.950 . S
H2270 C2293 0.950 . S
H2271 C2295 0.950 . S
H2272 C2296 0.950 . S
H2273 C2297 0.951 . S
H2274 C2299 0.951 . S
H2275 C2301 0.950 . S
H2276 C2302 0.950 . S
H2277 C2304 0.950 . S
H2278 C2307 0.950 . S
H2279 C2308 0.950 . S
H2280 C2310 0.950 . S
H2281 C2311 0.950 . S
C2282 H2264 0.951 . S
C2282 C2283 1.366 . S
C2282 C2284 1.388 . S
C2283 C2282 1.366 . S
C2283 C2287 1.385 . S
C2284 H2265 0.951 . S
C2284 C2282 1.388 . S
C2284 C2285 1.366 . S
C2285 C2284 1.366 . S
C2285 C2286 1.414 . S
C2285 C2288 1.499 . S
C2286 H2266 0.950 . S
C2286 C2285 1.414 . S
C2286 C2287 1.374 . S
C2287 H2267 0.950 . S
C2287 C2283 1.385 . S
C2287 C2286 1.374 . S
C2288 C2285 1.499 . S
C2288 C2289 1.373 . S
C2288 C2290 1.389 . S
C2289 H2268 0.950 . S
C2289 C2288 1.373 . S
C2289 C2305 1.377 . S
C2290 C2288 1.389 . S
C2290 C2291 1.524 . S
C2290 C2304 1.377 . S
C2291 C2290 1.524 . S
C2291 C2292 1.397 . S
C2291 C2296 1.363 . S
C2292 H2269 0.950 . S
C2292 C2291 1.397 . S
C2292 C2293 1.334 . S
C2293 H2270 0.950 . S
C2293 C2292 1.334 . S
C2293 C2294 1.287 . S
C2294 C2293 1.287 . S
C2294 C2295 1.524 . S
C2294 H2313 0.913 . S
C2295 H2271 0.950 . S
C2295 C2294 1.524 . S
C2295 C2296 1.415 . S
C2296 H2272 0.950 . S
C2296 C2291 1.363 . S
C2296 C2295 1.415 . S
C2297 H2273 0.951 . S
C2297 C2298 1.366 . S
C2297 C2299 1.388 . S
C2298 C2297 1.366 . S
C2298 C2302 1.385 . S
C2299 H2274 0.951 . S
C2299 C2297 1.388 . S
C2299 C2300 1.366 . S
C2300 C2299 1.366 . S
C2300 C2301 1.414 . S
C2300 C2303 1.499 . S
C2301 H2275 0.950 . S
C2301 C2300 1.414 . S
C2301 C2302 1.374 . S
C2302 H2276 0.950 . S
C2302 C2298 1.385 . S
C2302 C2301 1.374 . S
C2303 C2300 1.499 . S
C2303 C2304 1.373 . S
C2303 C2305 1.389 . S
C2304 H2277 0.950 . S
C2304 C2290 1.377 . S
C2304 C2303 1.373 . S
C2305 C2289 1.377 . S
C2305 C2303 1.389 . S
C2305 C2306 1.524 . S
C2306 C2305 1.524 . S
C2306 C2307 1.397 . S
C2306 C2311 1.363 . S
C2307 H2278 0.950 . S
C2307 C2306 1.397 . S
C2307 C2308 1.334 . S
C2308 H2279 0.950 . S
C2308 C2307 1.334 . S
C2308 C2309 1.287 . S
C2309 C2308 1.287 . S
C2309 C2310 1.524 . S
C2309 H2312 0.999 . S
C2310 H2280 0.950 . S
C2310 C2309 1.524 . S
C2310 C2311 1.415 . S
C2311 H2281 0.950 . S
C2311 C2306 1.363 . S
C2311 C2310 1.415 . S
H2312 C2309 0.999 . S
H2313 C2294 0.913 . S
H2314 C2332 0.951 . S
H2315 C2334 0.951 . S
H2316 C2336 0.950 . S
H2317 C2337 0.950 . S
H2318 C2339 0.950 . S
H2319 C2342 0.950 . S
H2320 C2343 0.950 . S
H2321 C2345 0.950 . S
H2322 C2346 0.950 . S
H2323 C2347 0.951 . S
H2324 C2349 0.951 . S
H2325 C2351 0.950 . S
H2326 C2352 0.950 . S
H2327 C2354 0.950 . S
H2328 C2357 0.950 . S
H2329 C2358 0.950 . S
H2330 C2360 0.950 . S
H2331 C2361 0.950 . S
C2332 H2314 0.951 . S
C2332 C2333 1.366 . S
C2332 C2334 1.388 . S
C2333 C2332 1.366 . S
C2333 C2337 1.385 . S
C2334 H2315 0.951 . S
C2334 C2332 1.388 . S
C2334 C2335 1.366 . S
C2335 C2334 1.366 . S
C2335 C2336 1.414 . S
C2335 C2338 1.499 . S
C2336 H2316 0.950 . S
C2336 C2335 1.414 . S
C2336 C2337 1.374 . S
C2337 H2317 0.950 . S
C2337 C2333 1.385 . S
C2337 C2336 1.374 . S
C2338 C2335 1.499 . S
C2338 C2339 1.373 . S
C2338 C2340 1.389 . S
C2339 H2318 0.950 . S
C2339 C2338 1.373 . S
C2339 C2355 1.377 . S
C2340 C2338 1.389 . S
C2340 C2341 1.524 . S
C2340 C2354 1.377 . S
C2341 C2340 1.524 . S
C2341 C2342 1.397 . S
C2341 C2346 1.363 . S
C2342 H2319 0.950 . S
C2342 C2341 1.397 . S
C2342 C2343 1.334 . S
C2343 H2320 0.950 . S
C2343 C2342 1.334 . S
C2343 C2344 1.287 . S
C2344 C2343 1.287 . S
C2344 C2345 1.524 . S
C2344 H2363 0.913 . S
C2345 H2321 0.950 . S
C2345 C2344 1.524 . S
C2345 C2346 1.415 . S
C2346 H2322 0.950 . S
C2346 C2341 1.363 . S
C2346 C2345 1.415 . S
C2347 H2323 0.951 . S
C2347 C2348 1.366 . S
C2347 C2349 1.388 . S
C2348 C2347 1.366 . S
C2348 C2352 1.385 . S
C2349 H2324 0.951 . S
C2349 C2347 1.388 . S
C2349 C2350 1.366 . S
C2350 C2349 1.366 . S
C2350 C2351 1.414 . S
C2350 C2353 1.499 . S
C2351 H2325 0.950 . S
C2351 C2350 1.414 . S
C2351 C2352 1.374 . S
C2352 H2326 0.950 . S
C2352 C2348 1.385 . S
C2352 C2351 1.374 . S
C2353 C2350 1.499 . S
C2353 C2354 1.373 . S
C2353 C2355 1.389 . S
C2354 H2327 0.950 . S
C2354 C2340 1.377 . S
C2354 C2353 1.373 . S
C2355 C2339 1.377 . S
C2355 C2353 1.389 . S
C2355 C2356 1.524 . S
C2356 C2355 1.524 . S
C2356 C2357 1.397 . S
C2356 C2361 1.363 . S
C2357 H2328 0.950 . S
C2357 C2356 1.397 . S
C2357 C2358 1.334 . S
C2358 H2329 0.950 . S
C2358 C2357 1.334 . S
C2358 C2359 1.287 . S
C2359 C2358 1.287 . S
C2359 C2360 1.524 . S
C2359 H2362 0.999 . S
C2360 H2330 0.950 . S
C2360 C2359 1.524 . S
C2360 C2361 1.415 . S
C2361 H2331 0.950 . S
C2361 C2356 1.363 . S
C2361 C2360 1.415 . S
H2362 C2359 0.999 . S
H2363 C2344 0.913 . S
H2364 C2382 0.951 . S
H2365 C2384 0.951 . S
H2366 C2386 0.950 . S
H2367 C2387 0.950 . S
H2368 C2389 0.950 . S
H2369 C2392 0.950 . S
H2370 C2393 0.950 . S
H2371 C2395 0.950 . S
H2372 C2396 0.950 . S
H2373 C2397 0.951 . S
H2374 C2399 0.951 . S
H2375 C2401 0.950 . S
H2376 C2402 0.950 . S
H2377 C2404 0.950 . S
H2378 C2407 0.950 . S
H2379 C2408 0.950 . S
H2380 C2410 0.950 . S
H2381 C2411 0.950 . S
C2382 H2364 0.951 . S
C2382 C2383 1.366 . S
C2382 C2384 1.388 . S
C2383 C2382 1.366 . S
C2383 C2387 1.385 . S
C2384 H2365 0.951 . S
C2384 C2382 1.388 . S
C2384 C2385 1.366 . S
C2385 C2384 1.366 . S
C2385 C2386 1.414 . S
C2385 C2388 1.499 . S
C2386 H2366 0.950 . S
C2386 C2385 1.414 . S
C2386 C2387 1.374 . S
C2387 H2367 0.950 . S
C2387 C2383 1.385 . S
C2387 C2386 1.374 . S
C2388 C2385 1.499 . S
C2388 C2389 1.373 . S
C2388 C2390 1.389 . S
C2389 H2368 0.950 . S
C2389 C2388 1.373 . S
C2389 C2405 1.377 . S
C2390 C2388 1.389 . S
C2390 C2391 1.524 . S
C2390 C2404 1.377 . S
C2391 C2390 1.524 . S
C2391 C2392 1.397 . S
C2391 C2396 1.363 . S
C2392 H2369 0.950 . S
C2392 C2391 1.397 . S
C2392 C2393 1.334 . S
C2393 H2370 0.950 . S
C2393 C2392 1.334 . S
C2393 C2394 1.287 . S
C2394 C2393 1.287 . S
C2394 C2395 1.524 . S
C2394 H2413 0.913 . S
C2395 H2371 0.950 . S
C2395 C2394 1.524 . S
C2395 C2396 1.415 . S
C2396 H2372 0.950 . S
C2396 C2391 1.363 . S
C2396 C2395 1.415 . S
C2397 H2373 0.951 . S
C2397 C2398 1.366 . S
C2397 C2399 1.388 . S
C2398 C2397 1.366 . S
C2398 C2402 1.385 . S
C2399 H2374 0.951 . S
C2399 C2397 1.388 . S
C2399 C2400 1.366 . S
C2400 C2399 1.366 . S
C2400 C2401 1.414 . S
C2400 C2403 1.499 . S
C2401 H2375 0.950 . S
C2401 C2400 1.414 . S
C2401 C2402 1.374 . S
C2402 H2376 0.950 . S
C2402 C2398 1.385 . S
C2402 C2401 1.374 . S
C2403 C2400 1.499 . S
C2403 C2404 1.373 . S
C2403 C2405 1.389 . S
C2404 H2377 0.950 . S
C2404 C2390 1.377 . S
C2404 C2403 1.373 . S
C2405 C2389 1.377 . S
C2405 C2403 1.389 . S
C2405 C2406 1.524 . S
C2406 C2405 1.524 . S
C2406 C2407 1.397 . S
C2406 C2411 1.363 . S
C2407 H2378 0.950 . S
C2407 C2406 1.397 . S
C2407 C2408 1.334 . S
C2408 H2379 0.950 . S
C2408 C2407 1.334 . S
C2408 C2409 1.287 . S
C2409 C2408 1.287 . S
C2409 C2410 1.524 . S
C2409 H2412 0.999 . S
C2410 H2380 0.950 . S
C2410 C2409 1.524 . S
C2410 C2411 1.415 . S
C2411 H2381 0.950 . S
C2411 C2406 1.363 . S
C2411 C2410 1.415 . S
H2412 C2409 0.999 . S
H2413 C2394 0.913 . S
H2414 C2432 0.951 . S
H2415 C2434 0.951 . S
H2416 C2436 0.950 . S
H2417 C2437 0.950 . S
H2418 C2439 0.950 . S
H2419 C2442 0.950 . S
H2420 C2443 0.950 . S
H2421 C2445 0.950 . S
H2422 C2446 0.950 . S
H2423 C2447 0.951 . S
H2424 C2449 0.951 . S
H2425 C2451 0.950 . S
H2426 C2452 0.950 . S
H2427 C2454 0.950 . S
H2428 C2457 0.950 . S
H2429 C2458 0.950 . S
H2430 C2460 0.950 . S
H2431 C2461 0.950 . S
C2432 H2414 0.951 . S
C2432 C2433 1.366 . S
C2432 C2434 1.388 . S
C2433 C2432 1.366 . S
C2433 C2437 1.385 . S
C2434 H2415 0.951 . S
C2434 C2432 1.388 . S
C2434 C2435 1.366 . S
C2435 C2434 1.366 . S
C2435 C2436 1.414 . S
C2435 C2438 1.499 . S
C2436 H2416 0.950 . S
C2436 C2435 1.414 . S
C2436 C2437 1.374 . S
C2437 H2417 0.950 . S
C2437 C2433 1.385 . S
C2437 C2436 1.374 . S
C2438 C2435 1.499 . S
C2438 C2439 1.373 . S
C2438 C2440 1.389 . S
C2439 H2418 0.950 . S
C2439 C2438 1.373 . S
C2439 C2455 1.377 . S
C2440 C2438 1.389 . S
C2440 C2441 1.524 . S
C2440 C2454 1.377 . S
C2441 C2440 1.524 . S
C2441 C2442 1.397 . S
C2441 C2446 1.363 . S
C2442 H2419 0.950 . S
C2442 C2441 1.397 . S
C2442 C2443 1.334 . S
C2443 H2420 0.950 . S
C2443 C2442 1.334 . S
C2443 C2444 1.287 . S
C2444 C2443 1.287 . S
C2444 C2445 1.524 . S
C2444 H2463 0.913 . S
C2445 H2421 0.950 . S
C2445 C2444 1.524 . S
C2445 C2446 1.415 . S
C2446 H2422 0.950 . S
C2446 C2441 1.363 . S
C2446 C2445 1.415 . S
C2447 H2423 0.951 . S
C2447 C2448 1.366 . S
C2447 C2449 1.388 . S
C2448 C2447 1.366 . S
C2448 C2452 1.385 . S
C2449 H2424 0.951 . S
C2449 C2447 1.388 . S
C2449 C2450 1.366 . S
C2450 C2449 1.366 . S
C2450 C2451 1.414 . S
C2450 C2453 1.499 . S
C2451 H2425 0.950 . S
C2451 C2450 1.414 . S
C2451 C2452 1.374 . S
C2452 H2426 0.950 . S
C2452 C2448 1.385 . S
C2452 C2451 1.374 . S
C2453 C2450 1.499 . S
C2453 C2454 1.373 . S
C2453 C2455 1.389 . S
C2454 H2427 0.950 . S
C2454 C2440 1.377 . S
C2454 C2453 1.373 . S
C2455 C2439 1.377 . S
C2455 C2453 1.389 . S
C2455 C2456 1.524 . S
C2456 C2455 1.524 . S
C2456 C2457 1.397 . S
C2456 C2461 1.363 . S
C2457 H2428 0.950 . S
C2457 C2456 1.397 . S
C2457 C2458 1.334 . S
C2458 H2429 0.950 . S
C2458 C2457 1.334 . S
C2458 C2459 1.287 . S
C2459 C2458 1.287 . S
C2459 C2460 1.524 . S
C2459 H2462 0.999 . S
C2460 H2430 0.950 . S
C2460 C2459 1.524 . S
C2460 C2461 1.415 . S
C2461 H2431 0.950 . S
C2461 C2456 1.363 . S
C2461 C2460 1.415 . S
H2462 C2459 0.999 . S
H2463 C2444 0.913 . S
H2464 C2482 0.951 . S
H2465 C2484 0.951 . S
H2466 C2486 0.950 . S
H2467 C2487 0.950 . S
H2468 C2489 0.950 . S
H2469 C2492 0.950 . S
H2470 C2493 0.950 . S
H2471 C2495 0.950 . S
H2472 C2496 0.950 . S
H2473 C2497 0.951 . S
H2474 C2499 0.951 . S
H2475 C2501 0.950 . S
H2476 C2502 0.950 . S
H2477 C2504 0.950 . S
H2478 C2507 0.950 . S
H2479 C2508 0.950 . S
H2480 C2510 0.950 . S
H2481 C2511 0.950 . S
C2482 H2464 0.951 . S
C2482 C2483 1.366 . S
C2482 C2484 1.388 . S
C2483 C2482 1.366 . S
C2483 C2487 1.385 . S
C2484 H2465 0.951 . S
C2484 C2482 1.388 . S
C2484 C2485 1.366 . S
C2485 C2484 1.366 . S
C2485 C2486 1.414 . S
C2485 C2488 1.499 . S
C2486 H2466 0.950 . S
C2486 C2485 1.414 . S
C2486 C2487 1.374 . S
C2487 H2467 0.950 . S
C2487 C2483 1.385 . S
C2487 C2486 1.374 . S
C2488 C2485 1.499 . S
C2488 C2489 1.373 . S
C2488 C2490 1.389 . S
C2489 H2468 0.950 . S
C2489 C2488 1.373 . S
C2489 C2505 1.377 . S
C2490 C2488 1.389 . S
C2490 C2491 1.524 . S
C2490 C2504 1.377 . S
C2491 C2490 1.524 . S
C2491 C2492 1.397 . S
C2491 C2496 1.363 . S
C2492 H2469 0.950 . S
C2492 C2491 1.397 . S
C2492 C2493 1.334 . S
C2493 H2470 0.950 . S
C2493 C2492 1.334 . S
C2493 C2494 1.287 . S
C2494 C2493 1.287 . S
C2494 C2495 1.524 . S
C2494 H2513 0.913 . S
C2495 H2471 0.950 . S
C2495 C2494 1.524 . S
C2495 C2496 1.415 . S
C2496 H2472 0.950 . S
C2496 C2491 1.363 . S
C2496 C2495 1.415 . S
C2497 H2473 0.951 . S
C2497 C2498 1.366 . S
C2497 C2499 1.388 . S
C2498 C2497 1.366 . S
C2498 C2502 1.385 . S
C2499 H2474 0.951 . S
C2499 C2497 1.388 . S
C2499 C2500 1.366 . S
C2500 C2499 1.366 . S
C2500 C2501 1.414 . S
C2500 C2503 1.499 . S
C2501 H2475 0.950 . S
C2501 C2500 1.414 . S
C2501 C2502 1.374 . S
C2502 H2476 0.950 . S
C2502 C2498 1.385 . S
C2502 C2501 1.374 . S
C2503 C2500 1.499 . S
C2503 C2504 1.373 . S
C2503 C2505 1.389 . S
C2504 H2477 0.950 . S
C2504 C2490 1.377 . S
C2504 C2503 1.373 . S
C2505 C2489 1.377 . S
C2505 C2503 1.389 . S
C2505 C2506 1.524 . S
C2506 C2505 1.524 . S
C2506 C2507 1.397 . S
C2506 C2511 1.363 . S
C2507 H2478 0.950 . S
C2507 C2506 1.397 . S
C2507 C2508 1.334 . S
C2508 H2479 0.950 . S
C2508 C2507 1.334 . S
C2508 C2509 1.287 . S
C2509 C2508 1.287 . S
C2509 C2510 1.524 . S
C2509 H2512 0.999 . S
C2510 H2480 0.950 . S
C2510 C2509 1.524 . S
C2510 C2511 1.415 . S
C2511 H2481 0.950 . S
C2511 C2506 1.363 . S
C2511 C2510 1.415 . S
H2512 C2509 0.999 . S
H2513 C2494 0.913 . S
H2514 C2532 0.951 . S
H2515 C2534 0.951 . S
H2516 C2536 0.950 . S
H2517 C2537 0.950 . S
H2518 C2539 0.950 . S
H2519 C2542 0.950 . S
H2520 C2543 0.950 . S
H2521 C2545 0.950 . S
H2522 C2546 0.950 . S
H2523 C2547 0.951 . S
H2524 C2549 0.951 . S
H2525 C2551 0.950 . S
H2526 C2552 0.950 . S
H2527 C2554 0.950 . S
H2528 C2557 0.950 . S
H2529 C2558 0.950 . S
H2530 C2560 0.950 . S
H2531 C2561 0.950 . S
C2532 H2514 0.951 . S
C2532 C2533 1.366 . S
C2532 C2534 1.388 . S
C2533 C2532 1.366 . S
C2533 C2537 1.385 . S
C2534 H2515 0.951 . S
C2534 C2532 1.388 . S
C2534 C2535 1.366 . S
C2535 C2534 1.366 . S
C2535 C2536 1.414 . S
C2535 C2538 1.499 . S
C2536 H2516 0.950 . S
C2536 C2535 1.414 . S
C2536 C2537 1.374 . S
C2537 H2517 0.950 . S
C2537 C2533 1.385 . S
C2537 C2536 1.374 . S
C2538 C2535 1.499 . S
C2538 C2539 1.373 . S
C2538 C2540 1.389 . S
C2539 H2518 0.950 . S
C2539 C2538 1.373 . S
C2539 C2555 1.377 . S
C2540 C2538 1.389 . S
C2540 C2541 1.524 . S
C2540 C2554 1.377 . S
C2541 C2540 1.524 . S
C2541 C2542 1.397 . S
C2541 C2546 1.363 . S
C2542 H2519 0.950 . S
C2542 C2541 1.397 . S
C2542 C2543 1.334 . S
C2543 H2520 0.950 . S
C2543 C2542 1.334 . S
C2543 C2544 1.287 . S
C2544 C2543 1.287 . S
C2544 C2545 1.524 . S
C2544 H2563 0.913 . S
C2545 H2521 0.950 . S
C2545 C2544 1.524 . S
C2545 C2546 1.415 . S
C2546 H2522 0.950 . S
C2546 C2541 1.363 . S
C2546 C2545 1.415 . S
C2547 H2523 0.951 . S
C2547 C2548 1.366 . S
C2547 C2549 1.388 . S
C2548 C2547 1.366 . S
C2548 C2552 1.385 . S
C2549 H2524 0.951 . S
C2549 C2547 1.388 . S
C2549 C2550 1.366 . S
C2550 C2549 1.366 . S
C2550 C2551 1.414 . S
C2550 C2553 1.499 . S
C2551 H2525 0.950 . S
C2551 C2550 1.414 . S
C2551 C2552 1.374 . S
C2552 H2526 0.950 . S
C2552 C2548 1.385 . S
C2552 C2551 1.374 . S
C2553 C2550 1.499 . S
C2553 C2554 1.373 . S
C2553 C2555 1.389 . S
C2554 H2527 0.950 . S
C2554 C2540 1.377 . S
C2554 C2553 1.373 . S
C2555 C2539 1.377 . S
C2555 C2553 1.389 . S
C2555 C2556 1.524 . S
C2556 C2555 1.524 . S
C2556 C2557 1.397 . S
C2556 C2561 1.363 . S
C2557 H2528 0.950 . S
C2557 C2556 1.397 . S
C2557 C2558 1.334 . S
C2558 H2529 0.950 . S
C2558 C2557 1.334 . S
C2558 C2559 1.287 . S
C2559 C2558 1.287 . S
C2559 C2560 1.524 . S
C2559 H2562 0.999 . S
C2560 H2530 0.950 . S
C2560 C2559 1.524 . S
C2560 C2561 1.415 . S
C2561 H2531 0.950 . S
C2561 C2556 1.363 . S
C2561 C2560 1.415 . S
H2562 C2559 0.999 . S
H2563 C2544 0.913 . S
H2564 C2582 0.951 . S
H2565 C2584 0.951 . S
H2566 C2586 0.950 . S
H2567 C2587 0.950 . S
H2568 C2589 0.950 . S
H2569 C2592 0.950 . S
H2570 C2593 0.950 . S
H2571 C2595 0.950 . S
H2572 C2596 0.950 . S
H2573 C2597 0.951 . S
H2574 C2599 0.951 . S
H2575 C2601 0.950 . S
H2576 C2602 0.950 . S
H2577 C2604 0.950 . S
H2578 C2607 0.950 . S
H2579 C2608 0.950 . S
H2580 C2610 0.950 . S
H2581 C2611 0.950 . S
C2582 H2564 0.951 . S
C2582 C2583 1.366 . S
C2582 C2584 1.388 . S
C2583 C2582 1.366 . S
C2583 C2587 1.385 . S
C2584 H2565 0.951 . S
C2584 C2582 1.388 . S
C2584 C2585 1.366 . S
C2585 C2584 1.366 . S
C2585 C2586 1.414 . S
C2585 C2588 1.499 . S
C2586 H2566 0.950 . S
C2586 C2585 1.414 . S
C2586 C2587 1.374 . S
C2587 H2567 0.950 . S
C2587 C2583 1.385 . S
C2587 C2586 1.374 . S
C2588 C2585 1.499 . S
C2588 C2589 1.373 . S
C2588 C2590 1.389 . S
C2589 H2568 0.950 . S
C2589 C2588 1.373 . S
C2589 C2605 1.377 . S
C2590 C2588 1.389 . S
C2590 C2591 1.524 . S
C2590 C2604 1.377 . S
C2591 C2590 1.524 . S
C2591 C2592 1.397 . S
C2591 C2596 1.363 . S
C2592 H2569 0.950 . S
C2592 C2591 1.397 . S
C2592 C2593 1.334 . S
C2593 H2570 0.950 . S
C2593 C2592 1.334 . S
C2593 C2594 1.287 . S
C2594 C2593 1.287 . S
C2594 C2595 1.524 . S
C2594 H2613 0.913 . S
C2595 H2571 0.950 . S
C2595 C2594 1.524 . S
C2595 C2596 1.415 . S
C2596 H2572 0.950 . S
C2596 C2591 1.363 . S
C2596 C2595 1.415 . S
C2597 H2573 0.951 . S
C2597 C2598 1.366 . S
C2597 C2599 1.388 . S
C2598 C2597 1.366 . S
C2598 C2602 1.385 . S
C2599 H2574 0.951 . S
C2599 C2597 1.388 . S
C2599 C2600 1.366 . S
C2600 C2599 1.366 . S
C2600 C2601 1.414 . S
C2600 C2603 1.499 . S
C2601 H2575 0.950 . S
C2601 C2600 1.414 . S
C2601 C2602 1.374 . S
C2602 H2576 0.950 . S
C2602 C2598 1.385 . S
C2602 C2601 1.374 . S
C2603 C2600 1.499 . S
C2603 C2604 1.373 . S
C2603 C2605 1.389 . S
C2604 H2577 0.950 . S
C2604 C2590 1.377 . S
C2604 C2603 1.373 . S
C2605 C2589 1.377 . S
C2605 C2603 1.389 . S
C2605 C2606 1.524 . S
C2606 C2605 1.524 . S
C2606 C2607 1.397 . S
C2606 C2611 1.363 . S
C2607 H2578 0.950 . S
C2607 C2606 1.397 . S
C2607 C2608 1.334 . S
C2608 H2579 0.950 . S
C2608 C2607 1.334 . S
C2608 C2609 1.287 . S
C2609 C2608 1.287 . S
C2609 C2610 1.524 . S
C2609 H2612 0.999 . S
C2610 H2580 0.950 . S
C2610 C2609 1.524 . S
C2610 C2611 1.415 . S
C2611 H2581 0.950 . S
C2611 C2606 1.363 . S
C2611 C2610 1.415 . S
H2612 C2609 0.999 . S
H2613 C2594 0.913 . S
H2614 C2632 0.951 . S
H2615 C2634 0.951 . S
H2616 C2636 0.950 . S
H2617 C2637 0.950 . S
H2618 C2639 0.950 . S
H2619 C2642 0.950 . S
H2620 C2643 0.950 . S
H2621 C2645 0.950 . S
H2622 C2646 0.950 . S
H2623 C2647 0.951 . S
H2624 C2649 0.951 . S
H2625 C2651 0.950 . S
H2626 C2652 0.950 . S
H2627 C2654 0.950 . S
H2628 C2657 0.950 . S
H2629 C2658 0.950 . S
H2630 C2660 0.950 . S
H2631 C2661 0.950 . S
C2632 H2614 0.951 . S
C2632 C2633 1.366 . S
C2632 C2634 1.388 . S
C2633 C2632 1.366 . S
C2633 C2637 1.385 . S
C2634 H2615 0.951 . S
C2634 C2632 1.388 . S
C2634 C2635 1.366 . S
C2635 C2634 1.366 . S
C2635 C2636 1.414 . S
C2635 C2638 1.499 . S
C2636 H2616 0.950 . S
C2636 C2635 1.414 . S
C2636 C2637 1.374 . S
C2637 H2617 0.950 . S
C2637 C2633 1.385 . S
C2637 C2636 1.374 . S
C2638 C2635 1.499 . S
C2638 C2639 1.373 . S
C2638 C2640 1.389 . S
C2639 H2618 0.950 . S
C2639 C2638 1.373 . S
C2639 C2655 1.377 . S
C2640 C2638 1.389 . S
C2640 C2641 1.524 . S
C2640 C2654 1.377 . S
C2641 C2640 1.524 . S
C2641 C2642 1.397 . S
C2641 C2646 1.363 . S
C2642 H2619 0.950 . S
C2642 C2641 1.397 . S
C2642 C2643 1.334 . S
C2643 H2620 0.950 . S
C2643 C2642 1.334 . S
C2643 C2644 1.287 . S
C2644 C2643 1.287 . S
C2644 C2645 1.524 . S
C2644 H2663 0.913 . S
C2645 H2621 0.950 . S
C2645 C2644 1.524 . S
C2645 C2646 1.415 . S
C2646 H2622 0.950 . S
C2646 C2641 1.363 . S
C2646 C2645 1.415 . S
C2647 H2623 0.951 . S
C2647 C2648 1.366 . S
C2647 C2649 1.388 . S
C2648 C2647 1.366 . S
C2648 C2652 1.385 . S
C2649 H2624 0.951 . S
C2649 C2647 1.388 . S
C2649 C2650 1.366 . S
C2650 C2649 1.366 . S
C2650 C2651 1.414 . S
C2650 C2653 1.499 . S
C2651 H2625 0.950 . S
C2651 C2650 1.414 . S
C2651 C2652 1.374 . S
C2652 H2626 0.950 . S
C2652 C2648 1.385 . S
C2652 C2651 1.374 . S
C2653 C2650 1.499 . S
C2653 C2654 1.373 . S
C2653 C2655 1.389 . S
C2654 H2627 0.950 . S
C2654 C2640 1.377 . S
C2654 C2653 1.373 . S
C2655 C2639 1.377 . S
C2655 C2653 1.389 . S
C2655 C2656 1.524 . S
C2656 C2655 1.524 . S
C2656 C2657 1.397 . S
C2656 C2661 1.363 . S
C2657 H2628 0.950 . S
C2657 C2656 1.397 . S
C2657 C2658 1.334 . S
C2658 H2629 0.950 . S
C2658 C2657 1.334 . S
C2658 C2659 1.287 . S
C2659 C2658 1.287 . S
C2659 C2660 1.524 . S
C2659 H2662 0.999 . S
C2660 H2630 0.950 . S
C2660 C2659 1.524 . S
C2660 C2661 1.415 . S
C2661 H2631 0.950 . S
C2661 C2656 1.363 . S
C2661 C2660 1.415 . S
H2662 C2659 0.999 . S
H2663 C2644 0.913 . S
H2664 C2682 0.951 . S
H2665 C2684 0.951 . S
H2666 C2686 0.950 . S
H2667 C2687 0.950 . S
H2668 C2689 0.950 . S
H2669 C2692 0.950 . S
H2670 C2693 0.950 . S
H2671 C2695 0.950 . S
H2672 C2696 0.950 . S
H2673 C2697 0.951 . S
H2674 C2699 0.951 . S
H2675 C2701 0.950 . S
H2676 C2702 0.950 . S
H2677 C2704 0.950 . S
H2678 C2707 0.950 . S
H2679 C2708 0.950 . S
H2680 C2710 0.950 . S
H2681 C2711 0.950 . S
C2682 H2664 0.951 . S
C2682 C2683 1.366 . S
C2682 C2684 1.388 . S
C2683 C2682 1.366 . S
C2683 C2687 1.385 . S
C2684 H2665 0.951 . S
C2684 C2682 1.388 . S
C2684 C2685 1.366 . S
C2685 C2684 1.366 . S
C2685 C2686 1.414 . S
C2685 C2688 1.499 . S
C2686 H2666 0.950 . S
C2686 C2685 1.414 . S
C2686 C2687 1.374 . S
C2687 H2667 0.950 . S
C2687 C2683 1.385 . S
C2687 C2686 1.374 . S
C2688 C2685 1.499 . S
C2688 C2689 1.373 . S
C2688 C2690 1.389 . S
C2689 H2668 0.950 . S
C2689 C2688 1.373 . S
C2689 C2705 1.377 . S
C2690 C2688 1.389 . S
C2690 C2691 1.524 . S
C2690 C2704 1.377 . S
C2691 C2690 1.524 . S
C2691 C2692 1.397 . S
C2691 C2696 1.363 . S
C2692 H2669 0.950 . S
C2692 C2691 1.397 . S
C2692 C2693 1.334 . S
C2693 H2670 0.950 . S
C2693 C2692 1.334 . S
C2693 C2694 1.287 . S
C2694 C2693 1.287 . S
C2694 C2695 1.524 . S
C2694 H2713 0.913 . S
C2695 H2671 0.950 . S
C2695 C2694 1.524 . S
C2695 C2696 1.415 . S
C2696 H2672 0.950 . S
C2696 C2691 1.363 . S
C2696 C2695 1.415 . S
C2697 H2673 0.951 . S
C2697 C2698 1.366 . S
C2697 C2699 1.388 . S
C2698 C2697 1.366 . S
C2698 C2702 1.385 . S
C2699 H2674 0.951 . S
C2699 C2697 1.388 . S
C2699 C2700 1.366 . S
C2700 C2699 1.366 . S
C2700 C2701 1.414 . S
C2700 C2703 1.499 . S
C2701 H2675 0.950 . S
C2701 C2700 1.414 . S
C2701 C2702 1.374 . S
C2702 H2676 0.950 . S
C2702 C2698 1.385 . S
C2702 C2701 1.374 . S
C2703 C2700 1.499 . S
C2703 C2704 1.373 . S
C2703 C2705 1.389 . S
C2704 H2677 0.950 . S
C2704 C2690 1.377 . S
C2704 C2703 1.373 . S
C2705 C2689 1.377 . S
C2705 C2703 1.389 . S
C2705 C2706 1.524 . S
C2706 C2705 1.524 . S
C2706 C2707 1.397 . S
C2706 C2711 1.363 . S
C2707 H2678 0.950 . S
C2707 C2706 1.397 . S
C2707 C2708 1.334 . S
C2708 H2679 0.950 . S
C2708 C2707 1.334 . S
C2708 C2709 1.287 . S
C2709 C2708 1.287 . S
C2709 C2710 1.524 . S
C2709 H2712 0.999 . S
C2710 H2680 0.950 . S
C2710 C2709 1.524 . S
C2710 C2711 1.415 . S
C2711 H2681 0.950 . S
C2711 C2706 1.363 . S
C2711 C2710 1.415 . S
H2712 C2709 0.999 . S
H2713 C2694 0.913 . S
H2714 C2732 0.951 . S
H2715 C2734 0.951 . S
H2716 C2736 0.950 . S
H2717 C2737 0.950 . S
H2718 C2739 0.950 . S
H2719 C2742 0.950 . S
H2720 C2743 0.950 . S
H2721 C2745 0.950 . S
H2722 C2746 0.950 . S
H2723 C2747 0.951 . S
H2724 C2749 0.951 . S
H2725 C2751 0.950 . S
H2726 C2752 0.950 . S
H2727 C2754 0.950 . S
H2728 C2757 0.950 . S
H2729 C2758 0.950 . S
H2730 C2760 0.950 . S
H2731 C2761 0.950 . S
C2732 H2714 0.951 . S
C2732 C2733 1.366 . S
C2732 C2734 1.388 . S
C2733 C2732 1.366 . S
C2733 C2737 1.385 . S
C2734 H2715 0.951 . S
C2734 C2732 1.388 . S
C2734 C2735 1.366 . S
C2735 C2734 1.366 . S
C2735 C2736 1.414 . S
C2735 C2738 1.499 . S
C2736 H2716 0.950 . S
C2736 C2735 1.414 . S
C2736 C2737 1.374 . S
C2737 H2717 0.950 . S
C2737 C2733 1.385 . S
C2737 C2736 1.374 . S
C2738 C2735 1.499 . S
C2738 C2739 1.373 . S
C2738 C2740 1.389 . S
C2739 H2718 0.950 . S
C2739 C2738 1.373 . S
C2739 C2755 1.377 . S
C2740 C2738 1.389 . S
C2740 C2741 1.524 . S
C2740 C2754 1.377 . S
C2741 C2740 1.524 . S
C2741 C2742 1.397 . S
C2741 C2746 1.363 . S
C2742 H2719 0.950 . S
C2742 C2741 1.397 . S
C2742 C2743 1.334 . S
C2743 H2720 0.950 . S
C2743 C2742 1.334 . S
C2743 C2744 1.287 . S
C2744 C2743 1.287 . S
C2744 C2745 1.524 . S
C2744 H2763 0.913 . S
C2745 H2721 0.950 . S
C2745 C2744 1.524 . S
C2745 C2746 1.415 . S
C2746 H2722 0.950 . S
C2746 C2741 1.363 . S
C2746 C2745 1.415 . S
C2747 H2723 0.951 . S
C2747 C2748 1.366 . S
C2747 C2749 1.388 . S
C2748 C2747 1.366 . S
C2748 C2752 1.385 . S
C2749 H2724 0.951 . S
C2749 C2747 1.388 . S
C2749 C2750 1.366 . S
C2750 C2749 1.366 . S
C2750 C2751 1.414 . S
C2750 C2753 1.499 . S
C2751 H2725 0.950 . S
C2751 C2750 1.414 . S
C2751 C2752 1.374 . S
C2752 H2726 0.950 . S
C2752 C2748 1.385 . S
C2752 C2751 1.374 . S
C2753 C2750 1.499 . S
C2753 C2754 1.373 . S
C2753 C2755 1.389 . S
C2754 H2727 0.950 . S
C2754 C2740 1.377 . S
C2754 C2753 1.373 . S
C2755 C2739 1.377 . S
C2755 C2753 1.389 . S
C2755 C2756 1.524 . S
C2756 C2755 1.524 . S
C2756 C2757 1.397 . S
C2756 C2761 1.363 . S
C2757 H2728 0.950 . S
C2757 C2756 1.397 . S
C2757 C2758 1.334 . S
C2758 H2729 0.950 . S
C2758 C2757 1.334 . S
C2758 C2759 1.287 . S
C2759 C2758 1.287 . S
C2759 C2760 1.524 . S
C2759 H2762 0.999 . S
C2760 H2730 0.950 . S
C2760 C2759 1.524 . S
C2760 C2761 1.415 . S
C2761 H2731 0.950 . S
C2761 C2756 1.363 . S
C2761 C2760 1.415 . S
H2762 C2759 0.999 . S
H2763 C2744 0.913 . S
H2764 C2782 0.951 . S
H2765 C2784 0.951 . S
H2766 C2786 0.950 . S
H2767 C2787 0.950 . S
H2768 C2789 0.950 . S
H2769 C2792 0.950 . S
H2770 C2793 0.950 . S
H2771 C2795 0.950 . S
H2772 C2796 0.950 . S
H2773 C2797 0.951 . S
H2774 C2799 0.951 . S
H2775 C2801 0.950 . S
H2776 C2802 0.950 . S
H2777 C2804 0.950 . S
H2778 C2807 0.950 . S
H2779 C2808 0.950 . S
H2780 C2810 0.950 . S
H2781 C2811 0.950 . S
C2782 H2764 0.951 . S
C2782 C2783 1.366 . S
C2782 C2784 1.388 . S
C2783 C2782 1.366 . S
C2783 C2787 1.385 . S
C2784 H2765 0.951 . S
C2784 C2782 1.388 . S
C2784 C2785 1.366 . S
C2785 C2784 1.366 . S
C2785 C2786 1.414 . S
C2785 C2788 1.499 . S
C2786 H2766 0.950 . S
C2786 C2785 1.414 . S
C2786 C2787 1.374 . S
C2787 H2767 0.950 . S
C2787 C2783 1.385 . S
C2787 C2786 1.374 . S
C2788 C2785 1.499 . S
C2788 C2789 1.373 . S
C2788 C2790 1.389 . S
C2789 H2768 0.950 . S
C2789 C2788 1.373 . S
C2789 C2805 1.377 . S
C2790 C2788 1.389 . S
C2790 C2791 1.524 . S
C2790 C2804 1.377 . S
C2791 C2790 1.524 . S
C2791 C2792 1.397 . S
C2791 C2796 1.363 . S
C2792 H2769 0.950 . S
C2792 C2791 1.397 . S
C2792 C2793 1.334 . S
C2793 H2770 0.950 . S
C2793 C2792 1.334 . S
C2793 C2794 1.287 . S
C2794 C2793 1.287 . S
C2794 C2795 1.524 . S
C2794 H2813 0.913 . S
C2795 H2771 0.950 . S
C2795 C2794 1.524 . S
C2795 C2796 1.415 . S
C2796 H2772 0.950 . S
C2796 C2791 1.363 . S
C2796 C2795 1.415 . S
C2797 H2773 0.951 . S
C2797 C2798 1.366 . S
C2797 C2799 1.388 . S
C2798 C2797 1.366 . S
C2798 C2802 1.385 . S
C2799 H2774 0.951 . S
C2799 C2797 1.388 . S
C2799 C2800 1.366 . S
C2800 C2799 1.366 . S
C2800 C2801 1.414 . S
C2800 C2803 1.499 . S
C2801 H2775 0.950 . S
C2801 C2800 1.414 . S
C2801 C2802 1.374 . S
C2802 H2776 0.950 . S
C2802 C2798 1.385 . S
C2802 C2801 1.374 . S
C2803 C2800 1.499 . S
C2803 C2804 1.373 . S
C2803 C2805 1.389 . S
C2804 H2777 0.950 . S
C2804 C2790 1.377 . S
C2804 C2803 1.373 . S
C2805 C2789 1.377 . S
C2805 C2803 1.389 . S
C2805 C2806 1.524 . S
C2806 C2805 1.524 . S
C2806 C2807 1.397 . S
C2806 C2811 1.363 . S
C2807 H2778 0.950 . S
C2807 C2806 1.397 . S
C2807 C2808 1.334 . S
C2808 H2779 0.950 . S
C2808 C2807 1.334 . S
C2808 C2809 1.287 . S
C2809 C2808 1.287 . S
C2809 C2810 1.524 . S
C2809 H2812 0.999 . S
C2810 H2780 0.950 . S
C2810 C2809 1.524 . S
C2810 C2811 1.415 . S
C2811 H2781 0.950 . S
C2811 C2806 1.363 . S
C2811 C2810 1.415 . S
H2812 C2809 0.999 . S
H2813 C2794 0.913 . S
H2814 C2832 0.951 . S
H2815 C2834 0.951 . S
H2816 C2836 0.950 . S
H2817 C2837 0.950 . S
H2818 C2839 0.950 . S
H2819 C2842 0.950 . S
H2820 C2843 0.950 . S
H2821 C2845 0.950 . S
H2822 C2846 0.950 . S
H2823 C2847 0.951 . S
H2824 C2849 0.951 . S
H2825 C2851 0.950 . S
H2826 C2852 0.950 . S
H2827 C2854 0.950 . S
H2828 C2857 0.950 . S
H2829 C2858 0.950 . S
H2830 C2860 0.950 . S
H2831 C2861 0.950 . S
C2832 H2814 0.951 . S
C2832 C2833 1.366 . S
C2832 C2834 1.388 . S
C2833 C2832 1.366 . S
C2833 C2837 1.385 . S
C2834 H2815 0.951 . S
C2834 C2832 1.388 . S
C2834 C2835 1.366 . S
C2835 C2834 1.366 . S
C2835 C2836 1.414 . S
C2835 C2838 1.499 . S
C2836 H2816 0.950 . S
C2836 C2835 1.414 . S
C2836 C2837 1.374 . S
C2837 H2817 0.950 . S
C2837 C2833 1.385 . S
C2837 C2836 1.374 . S
C2838 C2835 1.499 . S
C2838 C2839 1.373 . S
C2838 C2840 1.389 . S
C2839 H2818 0.950 . S
C2839 C2838 1.373 . S
C2839 C2855 1.377 . S
C2840 C2838 1.389 . S
C2840 C2841 1.524 . S
C2840 C2854 1.377 . S
C2841 C2840 1.524 . S
C2841 C2842 1.397 . S
C2841 C2846 1.363 . S
C2842 H2819 0.950 . S
C2842 C2841 1.397 . S
C2842 C2843 1.334 . S
C2843 H2820 0.950 . S
C2843 C2842 1.334 . S
C2843 C2844 1.287 . S
C2844 C2843 1.287 . S
C2844 C2845 1.524 . S
C2844 H2863 0.913 . S
C2845 H2821 0.950 . S
C2845 C2844 1.524 . S
C2845 C2846 1.415 . S
C2846 H2822 0.950 . S
C2846 C2841 1.363 . S
C2846 C2845 1.415 . S
C2847 H2823 0.951 . S
C2847 C2848 1.366 . S
C2847 C2849 1.388 . S
C2848 C2847 1.366 . S
C2848 C2852 1.385 . S
C2849 H2824 0.951 . S
C2849 C2847 1.388 . S
C2849 C2850 1.366 . S
C2850 C2849 1.366 . S
C2850 C2851 1.414 . S
C2850 C2853 1.499 . S
C2851 H2825 0.950 . S
C2851 C2850 1.414 . S
C2851 C2852 1.374 . S
C2852 H2826 0.950 . S
C2852 C2848 1.385 . S
C2852 C2851 1.374 . S
C2853 C2850 1.499 . S
C2853 C2854 1.373 . S
C2853 C2855 1.389 . S
C2854 H2827 0.950 . S
C2854 C2840 1.377 . S
C2854 C2853 1.373 . S
C2855 C2839 1.377 . S
C2855 C2853 1.389 . S
C2855 C2856 1.524 . S
C2856 C2855 1.524 . S
C2856 C2857 1.397 . S
C2856 C2861 1.363 . S
C2857 H2828 0.950 . S
C2857 C2856 1.397 . S
C2857 C2858 1.334 . S
C2858 H2829 0.950 . S
C2858 C2857 1.334 . S
C2858 C2859 1.287 . S
C2859 C2858 1.287 . S
C2859 C2860 1.524 . S
C2859 H2862 0.999 . S
C2860 H2830 0.950 . S
C2860 C2859 1.524 . S
C2860 C2861 1.415 . S
C2861 H2831 0.950 . S
C2861 C2856 1.363 . S
C2861 C2860 1.415 . S
H2862 C2859 0.999 . S
H2863 C2844 0.913 . S
C498 C289 0.314 . S
C483 C4 0.232 . S
C548 C294 1.451 . S
C533 C63 1.468 . S
C598 C295 1.053 . S
C583 C72 1.059 . S
C633 C102 1.474 . S
C648 C299 1.460 . S
C683 C136 1.468 . S
C698 C302 1.451 . S
C748 C303 1.053 . S
C733 C183 1.049 . S
C783 C233 1.474 . S
C798 C280 1.459 . S
C833 C251 0.237 . S
C848 C296 0.314 . S
C898 C334 1.403 . S
C883 C29 1.433 . S
C933 C42 1.882 . S
C948 C360 1.811 . S
C998 C312 1.419 . S
C983 C97 1.453 . S
C1048 C367 1.014 . S
C1033 C115 1.037 . S
C1083 C149 1.060 . S
C1098 C321 1.042 . S
C1148 C363 1.425 . S
C1133 C187 1.457 . S
C1183 C212 1.901 . S
C1198 C327 1.835 . S
C1233 C255 1.436 . S
C1248 C358 1.403 . S
C1283 C8 1.435 . S
C1298 C366 1.393 . S
C1333 C153 1.882 . S
C1348 C353 1.813 . S
C1398 C331 1.419 . S
C1383 C170 1.455 . S
C1448 C359 1.015 . S
C1433 C208 1.049 . S
C1483 C238 1.438 . S
C1498 C326 1.408 . S
C1533 C76 1.456 . S
C1548 C344 1.423 . S
C1598 C335 1.833 . S
C1583 C119 1.900 . S
C1633 C38 1.062 . S
C1648 C328 1.031 . S
C1683 C242 0.222 . S
C1698 C390 0.376 . S
C1733 C165 1.442 . S
C1748 C385 1.392 . S
C1798 C399 0.995 . S
C1783 C174 1.021 . S
C1848 C376 1.408 . S
C1833 C204 1.443 . S
C1883 C34 1.441 . S
C1898 C392 1.387 . S
C1948 C391 0.995 . S
C1933 C81 1.016 . S
C1983 C131 1.441 . S
C1998 C395 1.405 . S
C2033 C13 0.220 . S
C2048 C398 0.383 . S
C2083 C267 1.430 . S
C2098 C424 1.395 . S
C2148 C440 1.878 . S
C2133 C144 1.921 . S
C2183 C199 1.444 . S
C2198 C422 1.418 . S
C2233 C217 1.074 . S
C2248 C455 1.046 . S
C2298 C431 1.071 . S
C2283 C47 1.070 . S
C2333 C85 1.477 . S
C2348 C449 1.422 . S
C2398 C427 1.881 . S
C2383 C110 1.903 . S
C2448 C462 1.416 . S
C2433 C17 1.459 . S
C2498 C454 1.415 . S
C2483 C246 1.464 . S
C2533 C51 1.919 . S
C2548 C459 1.877 . S
C2583 C68 1.445 . S
C2598 C430 1.422 . S
C2648 C463 1.048 . S
C2633 C106 1.076 . S
C2683 C0 1.430 . S
C2698 C417 1.391 . S
C2733 C178 1.477 . S
C2748 C456 1.419 . S
C2798 C408 1.882 . S
C2783 C221 1.907 . S
C2848 C423 1.072 . S
C2833 C140 1.065 . S
